5319380
  -OEChem-11202015043D

 51 54  0     0  0  0  0  0  0999 V2000
   -3.2721   -0.1968   -0.2248 O   0  0  0  0  0  0  0  0  0  0  0  0
    0.3302    3.0254    0.2049 O   0  0  0  0  0  0  0  0  0  0  0  0
    1.1833   -1.7194   -0.2574 O   0  0  0  0  0  0  0  0  0  0  0  0
   -1.7025   -2.7442   -1.5258 O   0  0  0  0  0  0  0  0  0  0  0  0
    2.0551    4.5116    0.4093 O   0  0  0  0  0  0  0  0  0  0  0  0
   -4.2822    0.8268   -0.1110 C   0  0  0  0  0  0  0  0  0  0  0  0
   -1.9533    0.1531   -0.1506 C   0  0  0  0  0  0  0  0  0  0  0  0
   -1.5016    1.4651   -0.0049 C   0  0  0  0  0  0  0  0  0  0  0  0
   -1.0392   -0.8998   -0.2342 C   0  0  0  0  0  0  0  0  0  0  0  0
    0.8149    0.6539   -0.0246 C   0  0  0  0  0  0  0  0  0  0  0  0
   -0.1162    1.6925    0.0558 C   0  0  0  0  0  0  0  0  0  0  0  0
   -3.7726    2.2400    0.0269 C   0  0  0  0  0  0  0  0  0  0  0  0
    0.3339   -0.6521   -0.1711 C   0  0  0  0  0  0  0  0  0  0  0  0
   -2.4744    2.5451    0.0761 C   0  0  0  0  0  0  0  0  0  0  0  0
   -5.1250    0.4695    1.1186 C   0  0  0  0  0  0  0  0  0  0  0  0
   -5.1426    0.7208   -1.3755 C   0  0  0  0  0  0  0  0  0  0  0  0
   -1.5165   -2.2726   -0.3879 C   0  0  0  0  0  0  0  0  0  0  0  0
   -1.8105   -3.1518    0.8459 C   0  0  0  0  0  0  0  0  0  0  0  0
    2.2535    0.9582    0.0467 C   0  0  0  0  0  0  0  0  0  0  0  0
    2.6311    2.2388    0.1890 C   0  0  0  0  0  0  0  0  0  0  0  0
    3.3695    0.0180   -0.0194 C   0  0  0  0  0  0  0  0  0  0  0  0
   -0.8861   -4.3700    0.8802 C   0  0  0  0  0  0  0  0  0  0  0  0
   -3.2714   -3.5912    0.8309 C   0  0  0  0  0  0  0  0  0  0  0  0
    1.6740    3.3539    0.2778 C   0  0  0  0  0  0  0  0  0  0  0  0
    3.9309   -0.3031   -1.2519 C   0  0  0  0  0  0  0  0  0  0  0  0
    3.8649   -0.5506    1.1503 C   0  0  0  0  0  0  0  0  0  0  0  0
    4.9968   -1.2005   -1.3151 C   0  0  0  0  0  0  0  0  0  0  0  0
    4.9309   -1.4479    1.0873 C   0  0  0  0  0  0  0  0  0  0  0  0
    5.4969   -1.7729   -0.1455 C   0  0  0  0  0  0  0  0  0  0  0  0
   -4.5020    3.0438    0.0915 H   0  0  0  0  0  0  0  0  0  0  0  0
   -2.1482    3.5730    0.1771 H   0  0  0  0  0  0  0  0  0  0  0  0
   -4.5145    0.4891    2.0295 H   0  0  0  0  0  0  0  0  0  0  0  0
   -5.9670    1.1573    1.2539 H   0  0  0  0  0  0  0  0  0  0  0  0
   -5.5227   -0.5489    1.0371 H   0  0  0  0  0  0  0  0  0  0  0  0
   -5.9897    1.4152   -1.3558 H   0  0  0  0  0  0  0  0  0  0  0  0
   -4.5464    0.9302   -2.2719 H   0  0  0  0  0  0  0  0  0  0  0  0
   -5.5338   -0.2962   -1.4973 H   0  0  0  0  0  0  0  0  0  0  0  0
   -1.6334   -2.5502    1.7457 H   0  0  0  0  0  0  0  0  0  0  0  0
    3.6786    2.5260    0.2477 H   0  0  0  0  0  0  0  0  0  0  0  0
   -1.0784   -4.9805    1.7684 H   0  0  0  0  0  0  0  0  0  0  0  0
   -1.0233   -5.0002   -0.0053 H   0  0  0  0  0  0  0  0  0  0  0  0
    0.1634   -4.0597    0.9031 H   0  0  0  0  0  0  0  0  0  0  0  0
   -3.4969   -4.2069   -0.0468 H   0  0  0  0  0  0  0  0  0  0  0  0
   -3.9395   -2.7244    0.8041 H   0  0  0  0  0  0  0  0  0  0  0  0
   -3.5117   -4.1744    1.7259 H   0  0  0  0  0  0  0  0  0  0  0  0
    1.6015   -1.8136    0.6159 H   0  0  0  0  0  0  0  0  0  0  0  0
    3.5512    0.1335   -2.1725 H   0  0  0  0  0  0  0  0  0  0  0  0
    3.4334   -0.3086    2.1186 H   0  0  0  0  0  0  0  0  0  0  0  0
    5.4372   -1.4541   -2.2750 H   0  0  0  0  0  0  0  0  0  0  0  0
    5.3199   -1.8940    1.9978 H   0  0  0  0  0  0  0  0  0  0  0  0
    6.3266   -2.4719   -0.1947 H   0  0  0  0  0  0  0  0  0  0  0  0
  1  6  1  0  0  0  0
  1  7  1  0  0  0  0
  2 11  1  0  0  0  0
  2 24  1  0  0  0  0
  3 13  1  0  0  0  0
  3 46  1  0  0  0  0
  4 17  2  0  0  0  0
  5 24  2  0  0  0  0
  6 12  1  0  0  0  0
  6 15  1  0  0  0  0
  6 16  1  0  0  0  0
  7  8  1  0  0  0  0
  7  9  2  0  0  0  0
  8 11  2  0  0  0  0
  8 14  1  0  0  0  0
  9 13  1  0  0  0  0
  9 17  1  0  0  0  0
 10 11  1  0  0  0  0
 10 13  2  0  0  0  0
 10 19  1  0  0  0  0
 12 14  2  0  0  0  0
 12 30  1  0  0  0  0
 14 31  1  0  0  0  0
 15 32  1  0  0  0  0
 15 33  1  0  0  0  0
 15 34  1  0  0  0  0
 16 35  1  0  0  0  0
 16 36  1  0  0  0  0
 16 37  1  0  0  0  0
 17 18  1  0  0  0  0
 18 22  1  0  0  0  0
 18 23  1  0  0  0  0
 18 38  1  0  0  0  0
 19 20  2  0  0  0  0
 19 21  1  0  0  0  0
 20 24  1  0  0  0  0
 20 39  1  0  0  0  0
 21 25  2  0  0  0  0
 21 26  1  0  0  0  0
 22 40  1  0  0  0  0
 22 41  1  0  0  0  0
 22 42  1  0  0  0  0
 23 43  1  0  0  0  0
 23 44  1  0  0  0  0
 23 45  1  0  0  0  0
 25 27  1  0  0  0  0
 25 47  1  0  0  0  0
 26 28  2  0  0  0  0
 26 48  1  0  0  0  0
 27 29  2  0  0  0  0
 27 49  1  0  0  0  0
 28 29  1  0  0  0  0
 28 50  1  0  0  0  0
 29 51  1  0  0  0  0
M  END
> <PUBCHEM_COMPOUND_CID>
5319380

> <PUBCHEM_CONFORMER_RMSD>
0.8

> <PUBCHEM_CONFORMER_DIVERSEORDER>
1
2

> <PUBCHEM_MMFF94_PARTIAL_CHARGES>
34
1 -0.36
10 0.03
11 0.08
12 -0.29
13 0.08
14 -0.18
17 0.42
18 0.06
19 -0.06
2 -0.23
20 -0.14
21 0.03
24 0.71
25 -0.15
26 -0.15
27 -0.15
28 -0.15
29 -0.15
3 -0.53
30 0.15
31 0.15
39 0.15
4 -0.57
46 0.45
47 0.15
48 0.15
49 0.15
5 -0.57
50 0.15
51 0.15
6 0.42
7 0.08
8 0.03
9 0.09

> <PUBCHEM_EFFECTIVE_ROTOR_COUNT>
3.4

> <PUBCHEM_PHARMACOPHORE_FEATURES>
10
1 1 acceptor
1 3 donor
1 4 acceptor
1 5 acceptor
3 18 22 23 hydrophobe
3 6 15 16 hydrophobe
6 1 6 7 8 12 14 rings
6 2 10 11 19 20 24 rings
6 21 25 26 27 28 29 rings
6 7 8 9 10 11 13 rings

> <PUBCHEM_HEAVY_ATOM_COUNT>
29

> <PUBCHEM_ATOM_DEF_STEREO_COUNT>
0

> <PUBCHEM_ATOM_UDEF_STEREO_COUNT>
0

> <PUBCHEM_BOND_DEF_STEREO_COUNT>
0

> <PUBCHEM_BOND_UDEF_STEREO_COUNT>
0

> <PUBCHEM_ISOTOPIC_ATOM_COUNT>
0

> <PUBCHEM_COMPONENT_COUNT>
1

> <PUBCHEM_CACTVS_TAUTO_COUNT>
11

> <PUBCHEM_CONFORMER_ID>
00512AD400000001

> <PUBCHEM_MMFF94_ENERGY>
110.8365

> <PUBCHEM_FEATURE_SELFOVERLAP>
50.801

> <PUBCHEM_SHAPE_FINGERPRINT>
10675989 125 16676398648525883949
10906281 52 18129399149741299244
1100329 8 18410291419332214315
11607047 403 15905683298729405827
12035758 1 18342463612140306699
12236239 1 17822861849663946100
12553582 1 18338790127102498462
12633257 1 18412268323985207123
13140716 1 18339360889121448473
13402501 40 17986958449487561102
13726171 33 17980237293678448380
13862211 1 18340762637645342652
14022347 108 18340212886706755014
140371 6 18200043854226282820
14223421 5 17978512258406972096
14251757 5 18337121077141689710
14466204 15 18194679272422499305
14705955 166 17487030303578457904
14790565 3 18266188231590935060
14866123 147 18408602543829663291
15042514 8 18409171038991499643
15420108 30 17411625692850553625
15439362 3 16316670304206225716
16112460 7 18271258178390313705
16728300 4 17390209447892250619
17349148 13 17989209222081329981
17492 89 18267019655554646854
19319366 153 17749108851398332618
19591789 44 18266177227630716113
20028762 73 18201715159345798127
20600515 1 18341879772030706936
20739085 24 16316409294632005633
20775438 99 17265489967685841967
21267235 1 18339931419644849613
21421861 104 17976258255412175594
21703447 108 18051685839556992602
21781051 124 18041293123097832187
21859007 373 17825640327552381316
22440779 20 16810435029683616250
23366157 5 18116710914580271988
23402539 116 18129371614352614732
23558518 356 17827636173152697160
23559900 14 18342173410307255152
23569943 247 17414445982767341591
283562 15 17981325586804297624
3004659 81 18188779340925867812
3178227 256 18337123271944253441
3298306 158 18263637360377010855
335352 9 18411981334629503317
3383291 50 18410009914423439707
352729 6 18342745156200438653
404807 14 15261750593684687982
4058900 60 17825666656539733493
460360 51 18264212585046017137
463206 1 18261105232654613402
484989 97 18335418024157419759
5104073 3 18341613771219433083
563151 74 16414327114387168290
6138700 20 18196653995205420334
9709674 26 18268427008809856828
9981440 41 16765029692050209793

> <PUBCHEM_SHAPE_MULTIPOLES>
567.46
10.26
4.93
1.09
3.58
0.93
0.16
1.61
0.63
-1.43
-1.3
0.13
0.48
0.64

> <PUBCHEM_SHAPE_SELFOVERLAP>
1254.851

> <PUBCHEM_SHAPE_VOLUME>
306.7

> <PUBCHEM_COORDINATE_TYPE>
2
5
10

$$$$
