5281629
  -OEChem-11202014543D

 37 40  0     0  0  0  0  0  0999 V2000
   -3.2206   -1.3876    0.0152 O   0  0  0  0  0  0  0  0  0  0  0  0
    1.4781   -1.3790    0.0074 O   0  0  0  0  0  0  0  0  0  0  0  0
   -0.9004    2.8402    0.0013 O   0  0  0  0  0  0  0  0  0  0  0  0
    1.6938    2.7062   -0.0009 O   0  0  0  0  0  0  0  0  0  0  0  0
    3.7229   -2.8950    0.0024 O   0  0  0  0  0  0  0  0  0  0  0  0
   -4.5102   -0.7387   -0.0063 C   0  0  0  0  0  0  0  0  0  0  0  0
   -2.0977    0.7735    0.0062 C   0  0  0  0  0  0  0  0  0  0  0  0
   -2.0880   -0.6231    0.0099 C   0  0  0  0  0  0  0  0  0  0  0  0
   -4.4910    0.7715   -0.0007 C   0  0  0  0  0  0  0  0  0  0  0  0
    0.3237    0.7720    0.0040 C   0  0  0  0  0  0  0  0  0  0  0  0
   -0.8852    1.4744    0.0037 C   0  0  0  0  0  0  0  0  0  0  0  0
    0.3332   -0.6210    0.0074 C   0  0  0  0  0  0  0  0  0  0  0  0
   -3.3639    1.4860    0.0060 C   0  0  0  0  0  0  0  0  0  0  0  0
   -5.2661   -1.2395    1.2301 C   0  0  0  0  0  0  0  0  0  0  0  0
   -5.2172   -1.2303   -1.2749 C   0  0  0  0  0  0  0  0  0  0  0  0
   -0.8755   -1.3189    0.0111 C   0  0  0  0  0  0  0  0  0  0  0  0
    1.6094    1.4869    0.0006 C   0  0  0  0  0  0  0  0  0  0  0  0
    2.8245    0.6581   -0.0013 C   0  0  0  0  0  0  0  0  0  0  0  0
    2.6880   -0.7297    0.0021 C   0  0  0  0  0  0  0  0  0  0  0  0
    4.0917    1.2468   -0.0070 C   0  0  0  0  0  0  0  0  0  0  0  0
    3.8280   -1.5361   -0.0003 C   0  0  0  0  0  0  0  0  0  0  0  0
    5.2269    0.4360   -0.0097 C   0  0  0  0  0  0  0  0  0  0  0  0
    5.0956   -0.9528   -0.0064 C   0  0  0  0  0  0  0  0  0  0  0  0
   -5.4440    1.2952    0.0045 H   0  0  0  0  0  0  0  0  0  0  0  0
   -3.4184    2.5663    0.0301 H   0  0  0  0  0  0  0  0  0  0  0  0
   -4.7524   -0.9365    2.1505 H   0  0  0  0  0  0  0  0  0  0  0  0
   -6.2922   -0.8576    1.2676 H   0  0  0  0  0  0  0  0  0  0  0  0
   -5.3056   -2.3351    1.2466 H   0  0  0  0  0  0  0  0  0  0  0  0
   -5.2564   -2.3256   -1.3009 H   0  0  0  0  0  0  0  0  0  0  0  0
   -6.2412   -0.8476   -1.3494 H   0  0  0  0  0  0  0  0  0  0  0  0
   -4.6683   -0.9208   -2.1725 H   0  0  0  0  0  0  0  0  0  0  0  0
   -0.8741   -2.4065    0.0144 H   0  0  0  0  0  0  0  0  0  0  0  0
    4.2149    2.3260   -0.0098 H   0  0  0  0  0  0  0  0  0  0  0  0
   -1.6242    3.1569   -0.5629 H   0  0  0  0  0  0  0  0  0  0  0  0
    6.2151    0.8869   -0.0144 H   0  0  0  0  0  0  0  0  0  0  0  0
    5.9862   -1.5756   -0.0087 H   0  0  0  0  0  0  0  0  0  0  0  0
    2.7782   -3.1280    0.0064 H   0  0  0  0  0  0  0  0  0  0  0  0
  1  6  1  0  0  0  0
  1  8  1  0  0  0  0
  2 12  1  0  0  0  0
  2 19  1  0  0  0  0
  3 11  1  0  0  0  0
  3 34  1  0  0  0  0
  4 17  2  0  0  0  0
  5 21  1  0  0  0  0
  5 37  1  0  0  0  0
  6  9  1  0  0  0  0
  6 14  1  0  0  0  0
  6 15  1  0  0  0  0
  7  8  2  0  0  0  0
  7 11  1  0  0  0  0
  7 13  1  0  0  0  0
  8 16  1  0  0  0  0
  9 13  2  0  0  0  0
  9 24  1  0  0  0  0
 10 11  2  0  0  0  0
 10 12  1  0  0  0  0
 10 17  1  0  0  0  0
 12 16  2  0  0  0  0
 13 25  1  0  0  0  0
 14 26  1  0  0  0  0
 14 27  1  0  0  0  0
 14 28  1  0  0  0  0
 15 29  1  0  0  0  0
 15 30  1  0  0  0  0
 15 31  1  0  0  0  0
 16 32  1  0  0  0  0
 17 18  1  0  0  0  0
 18 19  2  0  0  0  0
 18 20  1  0  0  0  0
 19 21  1  0  0  0  0
 20 22  2  0  0  0  0
 20 33  1  0  0  0  0
 21 23  2  0  0  0  0
 22 23  1  0  0  0  0
 22 35  1  0  0  0  0
 23 36  1  0  0  0  0
M  END
> <PUBCHEM_COMPOUND_CID>
5281629

> <PUBCHEM_CONFORMER_RMSD>
0.6

> <PUBCHEM_CONFORMER_DIVERSEORDER>
1

> <PUBCHEM_MMFF94_PARTIAL_CHARGES>
29
1 -0.36
10 0.09
11 0.08
12 0.08
13 -0.18
16 -0.15
17 0.4
18 0.09
19 0.08
2 -0.17
20 -0.15
21 0.08
22 -0.15
23 -0.15
24 0.15
25 0.15
3 -0.53
32 0.15
33 0.15
34 0.45
35 0.15
36 0.15
37 0.45
4 -0.57
5 -0.53
6 0.42
7 0.03
8 0.08
9 -0.29

> <PUBCHEM_EFFECTIVE_ROTOR_COUNT>
0.4

> <PUBCHEM_PHARMACOPHORE_FEATURES>
10
1 1 acceptor
1 2 acceptor
1 3 donor
1 4 acceptor
1 5 donor
3 6 14 15 hydrophobe
6 1 6 7 8 9 13 rings
6 18 19 20 21 22 23 rings
6 2 10 12 17 18 19 rings
6 7 8 10 11 12 16 rings

> <PUBCHEM_HEAVY_ATOM_COUNT>
23

> <PUBCHEM_ATOM_DEF_STEREO_COUNT>
0

> <PUBCHEM_ATOM_UDEF_STEREO_COUNT>
0

> <PUBCHEM_BOND_DEF_STEREO_COUNT>
0

> <PUBCHEM_BOND_UDEF_STEREO_COUNT>
0

> <PUBCHEM_ISOTOPIC_ATOM_COUNT>
0

> <PUBCHEM_COMPONENT_COUNT>
1

> <PUBCHEM_CACTVS_TAUTO_COUNT>
14

> <PUBCHEM_CONFORMER_ID>
0050975D00000001

> <PUBCHEM_MMFF94_ENERGY>
78.7898

> <PUBCHEM_FEATURE_SELFOVERLAP>
50.833

> <PUBCHEM_SHAPE_FINGERPRINT>
10967382 1 18410575128071752736
11578080 2 16807560665770148687
11806522 49 18408886222187120380
12107183 9 17765157163559508594
12236239 1 17775005725986593263
12403259 226 18410568461866414613
12596602 18 16845292782251752242
13140716 1 18051688043217846936
13167823 11 18411980239075206287
13544653 18 18408608067278054365
13862211 1 18411132550080666662
14341114 176 18411426115432448723
14787075 74 18334295387718346610
14866123 147 17477208228214542970
15196674 1 18410573959381673344
15352361 1 18410573980867072340
15536298 74 18413670214427703480
15788980 27 18408885144297931223
17349148 13 18060703896472902039
17492 89 18266458698766919714
17857418 61 18342170085754492471
1813 80 17385726889467645548
19591789 44 18338233760864813746
200 152 18201717366694684897
20028762 73 18131062762015718343
21236236 1 18412545375863352457
21267235 1 18410583889430685098
21279426 13 18263923241805284655
21682296 61 18271534078378355726
221357 26 18408877447906506117
221490 88 18335426823801130083
22182313 1 18191280810524172357
23402539 116 18343860018078182533
23522609 53 18125473931547942512
23559900 14 18410849984224629896
239999 70 18202007621185981198
2871803 45 18261106366103362130
3004659 81 18187365403163630166
314194 84 18413388756599505811
335352 9 18266741290461053205
350125 39 18411422808703581489
3545911 37 18410294722547180034
4073 2 18113907073639226851
4214541 1 18410575050504138401
465052 167 18342745147220477910
5104073 3 18339642248123564744
5283173 99 18114732729794721701
59755656 215 18409452467003294478
9709674 26 18409454678025111418

> <PUBCHEM_SHAPE_MULTIPOLES>
443.98
11.78
2.46
0.74
1.89
0.48
0.01
-4.35
0.04
-0.93
0
0.77
-0.17
-0.01

> <PUBCHEM_SHAPE_SELFOVERLAP>
1007.975

> <PUBCHEM_SHAPE_VOLUME>
231.9

> <PUBCHEM_COORDINATE_TYPE>
2
5
10

$$$$
