441833
  -OEChem-08282008443D

 79 82  0     1  0  0  0  0  0999 V2000
   -0.0264   -0.8214   -1.2753 O   0  0  0  0  0  0  0  0  0  0  0  0
    5.8686    0.7583   -0.3268 O   0  0  0  0  0  0  0  0  0  0  0  0
   -2.8479    2.6136    1.2033 O   0  0  0  0  0  0  0  0  0  0  0  0
    5.2251   -3.3087    1.5811 O   0  0  0  0  0  0  0  0  0  0  0  0
    6.6438   -1.9456   -0.3617 O   0  0  0  0  0  0  0  0  0  0  0  0
    4.5391    2.1655   -2.1178 O   0  0  0  0  0  0  0  0  0  0  0  0
   -5.4985    1.7348    1.2503 O   0  0  0  0  0  0  0  0  0  0  0  0
   -6.9966   -2.4848    0.5573 O   0  0  0  0  0  0  0  0  0  0  0  0
   -0.5926    0.8157    0.4801 C   0  0  1  0  0  0  0  0  0  0  0  0
    0.1596    0.5484   -0.8517 C   0  0  1  0  0  0  0  0  0  0  0  0
   -2.0662    0.6779    0.0201 C   0  0  2  0  0  0  0  0  0  0  0  0
    2.2419   -0.1783    0.4616 C   0  0  2  0  0  0  0  0  0  0  0  0
    3.7685    0.1279    0.7606 C   0  0  2  0  0  0  0  0  0  0  0  0
    1.6573    0.6800   -0.6735 C   0  0  0  0  0  0  0  0  0  0  0  0
   -0.1541   -0.2389    1.5092 C   0  0  0  0  0  0  0  0  0  0  0  0
   -0.6141    1.4310   -1.8453 C   0  0  0  0  0  0  0  0  0  0  0  0
    1.3630   -0.1728    1.7516 C   0  0  0  0  0  0  0  0  0  0  0  0
   -2.0819    1.3634   -1.3664 C   0  0  0  0  0  0  0  0  0  0  0  0
    4.5416    0.2915   -0.5846 C   0  0  2  0  0  0  0  0  0  0  0  0
   -3.1295    1.2287    0.9618 C   0  0  2  0  0  0  0  0  0  0  0  0
   -0.3301    2.2398    1.0464 C   0  0  0  0  0  0  0  0  0  0  0  0
    4.4271   -1.0276    1.5725 C   0  0  0  0  0  0  0  0  0  0  0  0
    2.4092    1.4105   -1.5102 C   0  0  0  0  0  0  0  0  0  0  0  0
    4.6431   -1.0298   -1.3812 C   0  0  0  0  0  0  0  0  0  0  0  0
    3.9261    1.4186    1.6148 C   0  0  0  0  0  0  0  0  0  0  0  0
    3.8879    1.3671   -1.4452 C   0  0  0  0  0  0  0  0  0  0  0  0
    4.5398   -2.3403    0.7898 C   0  0  1  0  0  0  0  0  0  0  0  0
    5.2476   -2.1734   -0.5571 C   0  0  2  0  0  0  0  0  0  0  0  0
   -4.5586    1.1228    0.3615 C   0  0  1  0  0  0  0  0  0  0  0  0
   -3.0543    0.5027    2.3156 C   0  0  0  0  0  0  0  0  0  0  0  0
   -5.0223   -0.3198    0.0829 C   0  0  0  0  0  0  0  0  0  0  0  0
   -6.4602   -0.3680   -0.4649 C   0  0  0  0  0  0  0  0  0  0  0  0
   -7.0111   -1.7913   -0.6922 C   0  0  0  0  0  0  0  0  0  0  0  0
   -8.4658   -1.7084   -1.1674 C   0  0  0  0  0  0  0  0  0  0  0  0
   -6.1791   -2.5891   -1.6990 C   0  0  0  0  0  0  0  0  0  0  0  0
   -2.2680   -0.3902   -0.1354 H   0  0  0  0  0  0  0  0  0  0  0  0
    2.1734   -1.2038    0.0773 H   0  0  0  0  0  0  0  0  0  0  0  0
   -0.4199   -1.2487    1.1738 H   0  0  0  0  0  0  0  0  0  0  0  0
   -0.6231   -0.1088    2.4837 H   0  0  0  0  0  0  0  0  0  0  0  0
   -0.5328    1.0748   -2.8782 H   0  0  0  0  0  0  0  0  0  0  0  0
   -0.2754    2.4730   -1.8193 H   0  0  0  0  0  0  0  0  0  0  0  0
    1.5516    0.7221    2.3500 H   0  0  0  0  0  0  0  0  0  0  0  0
    1.6426   -1.0234    2.3842 H   0  0  0  0  0  0  0  0  0  0  0  0
   -2.4953    2.3775   -1.3427 H   0  0  0  0  0  0  0  0  0  0  0  0
   -2.6887    0.7820   -2.0701 H   0  0  0  0  0  0  0  0  0  0  0  0
   -0.7087    2.3609    2.0659 H   0  0  0  0  0  0  0  0  0  0  0  0
    0.7442    2.4425    1.1222 H   0  0  0  0  0  0  0  0  0  0  0  0
   -0.7134    3.0402    0.4062 H   0  0  0  0  0  0  0  0  0  0  0  0
    3.8847   -1.2078    2.5085 H   0  0  0  0  0  0  0  0  0  0  0  0
    5.4349   -0.7299    1.8953 H   0  0  0  0  0  0  0  0  0  0  0  0
    1.9832    2.0032   -2.3112 H   0  0  0  0  0  0  0  0  0  0  0  0
    5.2783   -0.8628   -2.2614 H   0  0  0  0  0  0  0  0  0  0  0  0
    3.6579   -1.3346   -1.7526 H   0  0  0  0  0  0  0  0  0  0  0  0
    3.5111    1.2914    2.6197 H   0  0  0  0  0  0  0  0  0  0  0  0
    4.9763    1.6809    1.7802 H   0  0  0  0  0  0  0  0  0  0  0  0
    3.4339    2.2809    1.1548 H   0  0  0  0  0  0  0  0  0  0  0  0
    3.5391   -2.7465    0.6095 H   0  0  0  0  0  0  0  0  0  0  0  0
   -0.8880   -0.9164   -1.7129 H   0  0  0  0  0  0  0  0  0  0  0  0
    5.1743   -3.1074   -1.1263 H   0  0  0  0  0  0  0  0  0  0  0  0
   -4.6063    1.7087   -0.5639 H   0  0  0  0  0  0  0  0  0  0  0  0
   -3.9779    0.6508    2.8885 H   0  0  0  0  0  0  0  0  0  0  0  0
   -2.9210   -0.5781    2.2080 H   0  0  0  0  0  0  0  0  0  0  0  0
   -2.2821    0.9223    2.9651 H   0  0  0  0  0  0  0  0  0  0  0  0
    5.8331    1.6967   -0.0781 H   0  0  0  0  0  0  0  0  0  0  0  0
   -3.5356    2.9550    1.8002 H   0  0  0  0  0  0  0  0  0  0  0  0
   -4.3481   -0.7920   -0.6365 H   0  0  0  0  0  0  0  0  0  0  0  0
   -4.9891   -0.9032    1.0094 H   0  0  0  0  0  0  0  0  0  0  0  0
    4.7337   -3.4081    2.4143 H   0  0  0  0  0  0  0  0  0  0  0  0
    6.9828   -2.6733    0.1870 H   0  0  0  0  0  0  0  0  0  0  0  0
   -6.2575    2.0335    0.7216 H   0  0  0  0  0  0  0  0  0  0  0  0
   -6.5054    0.2006   -1.4024 H   0  0  0  0  0  0  0  0  0  0  0  0
   -7.1246    0.1347    0.2485 H   0  0  0  0  0  0  0  0  0  0  0  0
   -9.0884   -1.1769   -0.4386 H   0  0  0  0  0  0  0  0  0  0  0  0
   -8.5460   -1.1954   -2.1312 H   0  0  0  0  0  0  0  0  0  0  0  0
   -8.8994   -2.7099   -1.2693 H   0  0  0  0  0  0  0  0  0  0  0  0
   -6.0923   -2.0643   -2.6558 H   0  0  0  0  0  0  0  0  0  0  0  0
   -6.6336   -3.5695   -1.8838 H   0  0  0  0  0  0  0  0  0  0  0  0
   -5.1745   -2.7952   -1.3156 H   0  0  0  0  0  0  0  0  0  0  0  0
   -7.5384   -1.9809    1.1885 H   0  0  0  0  0  0  0  0  0  0  0  0
  1 10  1  0  0  0  0
  1 58  1  0  0  0  0
  2 19  1  0  0  0  0
  2 64  1  0  0  0  0
  3 20  1  0  0  0  0
  3 65  1  0  0  0  0
  4 27  1  0  0  0  0
  4 68  1  0  0  0  0
  5 28  1  0  0  0  0
  5 69  1  0  0  0  0
  6 26  2  0  0  0  0
  7 29  1  0  0  0  0
  7 70  1  0  0  0  0
  8 33  1  0  0  0  0
  8 79  1  0  0  0  0
  9 10  1  0  0  0  0
  9 11  1  0  0  0  0
  9 15  1  0  0  0  0
  9 21  1  0  0  0  0
 10 14  1  0  0  0  0
 10 16  1  0  0  0  0
 11 18  1  0  0  0  0
 11 20  1  0  0  0  0
 11 36  1  0  0  0  0
 12 13  1  0  0  0  0
 12 14  1  0  0  0  0
 12 17  1  0  0  0  0
 12 37  1  0  0  0  0
 13 19  1  0  0  0  0
 13 22  1  0  0  0  0
 13 25  1  0  0  0  0
 14 23  2  0  0  0  0
 15 17  1  0  0  0  0
 15 38  1  0  0  0  0
 15 39  1  0  0  0  0
 16 18  1  0  0  0  0
 16 40  1  0  0  0  0
 16 41  1  0  0  0  0
 17 42  1  0  0  0  0
 17 43  1  0  0  0  0
 18 44  1  0  0  0  0
 18 45  1  0  0  0  0
 19 24  1  0  0  0  0
 19 26  1  0  0  0  0
 20 29  1  0  0  0  0
 20 30  1  0  0  0  0
 21 46  1  0  0  0  0
 21 47  1  0  0  0  0
 21 48  1  0  0  0  0
 22 27  1  0  0  0  0
 22 49  1  0  0  0  0
 22 50  1  0  0  0  0
 23 26  1  0  0  0  0
 23 51  1  0  0  0  0
 24 28  1  0  0  0  0
 24 52  1  0  0  0  0
 24 53  1  0  0  0  0
 25 54  1  0  0  0  0
 25 55  1  0  0  0  0
 25 56  1  0  0  0  0
 27 28  1  0  0  0  0
 27 57  1  0  0  0  0
 28 59  1  0  0  0  0
 29 31  1  0  0  0  0
 29 60  1  0  0  0  0
 30 61  1  0  0  0  0
 30 62  1  0  0  0  0
 30 63  1  0  0  0  0
 31 32  1  0  0  0  0
 31 66  1  0  0  0  0
 31 67  1  0  0  0  0
 32 33  1  0  0  0  0
 32 71  1  0  0  0  0
 32 72  1  0  0  0  0
 33 34  1  0  0  0  0
 33 35  1  0  0  0  0
 34 73  1  0  0  0  0
 34 74  1  0  0  0  0
 34 75  1  0  0  0  0
 35 76  1  0  0  0  0
 35 77  1  0  0  0  0
 35 78  1  0  0  0  0
M  END
> <PUBCHEM_COMPOUND_CID>
441833

> <PUBCHEM_CONFORMER_RMSD>
1

> <PUBCHEM_CONFORMER_DIVERSEORDER>
1
4
3
2

> <PUBCHEM_MMFF94_PARTIAL_CHARGES>
27
1 -0.68
10 0.42
12 0.14
14 -0.28
19 0.34
2 -0.68
20 0.28
23 -0.14
26 0.49
27 0.28
28 0.28
29 0.28
3 -0.68
33 0.28
4 -0.68
5 -0.68
51 0.15
58 0.4
6 -0.57
64 0.4
65 0.4
68 0.4
69 0.4
7 -0.68
70 0.4
79 0.4
8 -0.68

> <PUBCHEM_EFFECTIVE_ROTOR_COUNT>
6.8

> <PUBCHEM_PHARMACOPHORE_FEATURES>
20
1 1 acceptor
1 1 donor
1 2 acceptor
1 2 donor
1 3 acceptor
1 3 donor
1 4 acceptor
1 4 donor
1 5 acceptor
1 5 donor
1 6 acceptor
1 7 acceptor
1 7 donor
1 8 acceptor
1 8 donor
3 33 34 35 hydrophobe
5 9 10 11 16 18 rings
6 12 13 14 19 23 26 rings
6 13 19 22 24 27 28 rings
6 9 10 12 14 15 17 rings

> <PUBCHEM_HEAVY_ATOM_COUNT>
35

> <PUBCHEM_ATOM_DEF_STEREO_COUNT>
10

> <PUBCHEM_ATOM_UDEF_STEREO_COUNT>
0

> <PUBCHEM_BOND_DEF_STEREO_COUNT>
0

> <PUBCHEM_BOND_UDEF_STEREO_COUNT>
0

> <PUBCHEM_ISOTOPIC_ATOM_COUNT>
0

> <PUBCHEM_COMPONENT_COUNT>
1

> <PUBCHEM_CACTVS_TAUTO_COUNT>
3

> <PUBCHEM_CONFORMER_ID>
0006BDE900000001

> <PUBCHEM_MMFF94_ENERGY>
137.9467

> <PUBCHEM_FEATURE_SELFOVERLAP>
101.676

> <PUBCHEM_SHAPE_FINGERPRINT>
10 15 16200424784586651595
10076449 9 15194744401389652868
10554248 39 11026062625793901585
10693767 8 17895185555001065882
11456790 92 12463301254596542966
11475781 23 14707201154202200853
11646440 116 14405183958589454506
11963148 33 18060697303999706559
12035758 1 15339113533263293663
12166972 35 18411139147272129409
12236239 1 18410579461287962324
13165053 68 18056192712476755430
13224815 77 15141255304023771440
13533116 47 18335140903522926288
13726171 33 14690572222460071458
13782708 43 17489584576358512927
14849402 71 11023811904265498379
15183329 4 17095516319192576199
15188451 53 18272646849128752391
15475509 35 18060412500217332914
1577012 14 18409739451990431645
16994733 274 7853273325373528366
17349148 13 18338246967941964048
17913733 40 14117522030471243901
18222031 100 17967532363240328865
19958102 18 17822010917526636251
20028762 73 18409728422251132498
20775438 99 17749389325515846314
21057603 130 18338233753340821146
21223535 225 16226594197216777269
21424621 283 9223230758759756213
21521239 73 18040433313241508667
21781051 124 17060066947289343982
221357 26 17386295277319089980
2215653 11 16950568765689883984
22956985 138 17842853113497607318
23081809 10 18410301306848394841
23522609 53 18124908770224512089
23559900 14 16515983500956827172
23569914 152 16376592759843266759
23569943 247 17972595485754419218
24771293 8 17822294617291404644
2748736 6 11097842009315385379
2838139 119 12252173104961405287
3504750 166 18049438149868572105
3633792 109 17894346679336874197
392239 28 16271927156029642403
397830 11 17489293205328721027
4015057 19 17749680683338983017
4340502 62 13470687044468304156
439807 62 18412546540137034975
465052 167 17632858628958510224
5104073 3 17346878953414831369
57816373 69 18340205181425091454
6086070 43 18187639146424599484
6700243 42 17487086442674932093
9555976 147 17843968044262710057

> <PUBCHEM_SHAPE_MULTIPOLES>
673.33
18.88
2.78
2.02
24.44
1.34
0.06
15
-3.11
0.22
0.11
-0.78
-0.36
-3.04

> <PUBCHEM_SHAPE_SELFOVERLAP>
1429.435

> <PUBCHEM_SHAPE_VOLUME>
373

> <PUBCHEM_COORDINATE_TYPE>
2
5
10

$$$$
