15607741
  -OEChem-08282008583D

 83 86  0     1  0  0  0  0  0999 V2000
    0.6232    1.3268    1.1008 O   0  0  0  0  0  0  0  0  0  0  0  0
   -2.5242   -2.3273   -0.3767 O   0  0  0  0  0  0  0  0  0  0  0  0
   -5.0807   -1.2292   -0.6193 O   0  0  0  0  0  0  0  0  0  0  0  0
    6.0696    2.5092   -2.3651 O   0  0  0  0  0  0  0  0  0  0  0  0
    5.0323   -1.6174    2.6691 O   0  0  0  0  0  0  0  0  0  0  0  0
    7.4158    1.3395   -0.2482 O   0  0  0  0  0  0  0  0  0  0  0  0
   -7.5040    2.9671    0.8871 O   0  0  0  0  0  0  0  0  0  0  0  0
   -4.9798   -3.2811    0.4375 O   0  0  0  0  0  0  0  0  0  0  0  0
   -0.0855   -0.6384   -0.1720 C   0  0  1  0  0  0  0  0  0  0  0  0
    0.7319   -0.1136    1.0376 C   0  0  1  0  0  0  0  0  0  0  0  0
   -1.5220   -0.2416    0.2570 C   0  0  2  0  0  0  0  0  0  0  0  0
    2.8198    0.0862   -0.4409 C   0  0  2  0  0  0  0  0  0  0  0  0
    4.2985   -0.4210   -0.6700 C   0  0  2  0  0  0  0  0  0  0  0  0
    0.4050    0.0757   -1.4428 C   0  0  0  0  0  0  0  0  0  0  0  0
    2.2091   -0.4046    0.8812 C   0  0  0  0  0  0  0  0  0  0  0  0
   -0.0787   -0.6408    2.2313 C   0  0  0  0  0  0  0  0  0  0  0  0
   -1.5498   -0.5432    1.7731 C   0  0  0  0  0  0  0  0  0  0  0  0
    1.9028   -0.1791   -1.6752 C   0  0  0  0  0  0  0  0  0  0  0  0
    5.1090   -0.3143    0.6512 C   0  0  1  0  0  0  0  0  0  0  0  0
   -2.6660   -0.9058   -0.4983 C   0  0  2  0  0  0  0  0  0  0  0  0
    0.0294   -2.1763   -0.3585 C   0  0  0  0  0  0  0  0  0  0  0  0
    5.0261    0.4129   -1.7636 C   0  0  0  0  0  0  0  0  0  0  0  0
    2.9292   -0.9569    1.8690 C   0  0  0  0  0  0  0  0  0  0  0  0
    5.4099    1.1354    1.0730 C   0  0  0  0  0  0  0  0  0  0  0  0
    4.3288   -1.9026   -1.1351 C   0  0  0  0  0  0  0  0  0  0  0  0
    4.4048   -1.0347    1.7860 C   0  0  0  0  0  0  0  0  0  0  0  0
    5.3266    1.8540   -1.3394 C   0  0  1  0  0  0  0  0  0  0  0  0
   -4.0556   -0.5074    0.0705 C   0  0  1  0  0  0  0  0  0  0  0  0
    6.1227    1.9093   -0.0355 C   0  0  2  0  0  0  0  0  0  0  0  0
   -2.5726   -0.5618   -1.9942 C   0  0  0  0  0  0  0  0  0  0  0  0
   -4.3714    0.9975   -0.0280 C   0  0  0  0  0  0  0  0  0  0  0  0
   -5.7775    1.3278    0.5049 C   0  0  0  0  0  0  0  0  0  0  0  0
   -6.1839    2.8097    0.3628 C   0  0  0  0  0  0  0  0  0  0  0  0
   -4.9746   -2.5878   -0.5708 C   0  0  0  0  0  0  0  0  0  0  0  0
   -5.2395    3.6826    1.1963 C   0  0  0  0  0  0  0  0  0  0  0  0
   -6.1809    3.2822   -1.0929 C   0  0  0  0  0  0  0  0  0  0  0  0
   -4.8476   -3.1307   -1.9619 C   0  0  0  0  0  0  0  0  0  0  0  0
   -1.6160    0.8463    0.1376 H   0  0  0  0  0  0  0  0  0  0  0  0
    2.8500    1.1784   -0.3333 H   0  0  0  0  0  0  0  0  0  0  0  0
   -0.1041   -0.2635   -2.3447 H   0  0  0  0  0  0  0  0  0  0  0  0
    0.2313    1.1568   -1.3790 H   0  0  0  0  0  0  0  0  0  0  0  0
    0.1616   -1.6853    2.4600 H   0  0  0  0  0  0  0  0  0  0  0  0
    0.0748   -0.0522    3.1425 H   0  0  0  0  0  0  0  0  0  0  0  0
   -2.0555    0.2728    2.3032 H   0  0  0  0  0  0  0  0  0  0  0  0
   -2.0677   -1.4656    2.0483 H   0  0  0  0  0  0  0  0  0  0  0  0
    2.2266    0.4540   -2.5096 H   0  0  0  0  0  0  0  0  0  0  0  0
    2.0087   -1.2106   -2.0233 H   0  0  0  0  0  0  0  0  0  0  0  0
    6.0684   -0.8328    0.5098 H   0  0  0  0  0  0  0  0  0  0  0  0
   -0.4023   -2.5168   -1.3045 H   0  0  0  0  0  0  0  0  0  0  0  0
   -0.3919   -2.7489    0.4730 H   0  0  0  0  0  0  0  0  0  0  0  0
    1.0787   -2.4895   -0.4011 H   0  0  0  0  0  0  0  0  0  0  0  0
    5.9746   -0.0759   -2.0296 H   0  0  0  0  0  0  0  0  0  0  0  0
    4.4547    0.4202   -2.6994 H   0  0  0  0  0  0  0  0  0  0  0  0
    2.4841   -1.2878    2.8000 H   0  0  0  0  0  0  0  0  0  0  0  0
    4.4876    1.6585    1.3527 H   0  0  0  0  0  0  0  0  0  0  0  0
    6.0398    1.1165    1.9717 H   0  0  0  0  0  0  0  0  0  0  0  0
    3.9853   -2.0106   -2.1692 H   0  0  0  0  0  0  0  0  0  0  0  0
    3.7086   -2.5476   -0.5050 H   0  0  0  0  0  0  0  0  0  0  0  0
    5.3496   -2.3024   -1.1085 H   0  0  0  0  0  0  0  0  0  0  0  0
    4.3947    2.4159   -1.2182 H   0  0  0  0  0  0  0  0  0  0  0  0
    1.0852    1.6253    1.9033 H   0  0  0  0  0  0  0  0  0  0  0  0
   -4.1310   -0.7998    1.1257 H   0  0  0  0  0  0  0  0  0  0  0  0
    6.2810    2.9521    0.2609 H   0  0  0  0  0  0  0  0  0  0  0  0
   -1.8907   -1.2293   -2.5277 H   0  0  0  0  0  0  0  0  0  0  0  0
   -2.2966    0.4836   -2.1649 H   0  0  0  0  0  0  0  0  0  0  0  0
   -3.5328   -0.7041   -2.5013 H   0  0  0  0  0  0  0  0  0  0  0  0
   -2.7155   -2.5904    0.5381 H   0  0  0  0  0  0  0  0  0  0  0  0
   -3.6267    1.5680    0.5321 H   0  0  0  0  0  0  0  0  0  0  0  0
   -4.3154    1.3032   -1.0770 H   0  0  0  0  0  0  0  0  0  0  0  0
    5.5394    2.4729   -3.1794 H   0  0  0  0  0  0  0  0  0  0  0  0
    7.9028    1.3973    0.5914 H   0  0  0  0  0  0  0  0  0  0  0  0
   -5.8489    1.0289    1.5593 H   0  0  0  0  0  0  0  0  0  0  0  0
   -6.5269    0.7173   -0.0156 H   0  0  0  0  0  0  0  0  0  0  0  0
   -5.6081    4.7148    1.2328 H   0  0  0  0  0  0  0  0  0  0  0  0
   -4.2218    3.7058    0.7957 H   0  0  0  0  0  0  0  0  0  0  0  0
   -5.2010    3.3365    2.2355 H   0  0  0  0  0  0  0  0  0  0  0  0
   -6.6149    4.2859   -1.1712 H   0  0  0  0  0  0  0  0  0  0  0  0
   -5.1752    3.3164   -1.5219 H   0  0  0  0  0  0  0  0  0  0  0  0
   -6.8032    2.6285   -1.7143 H   0  0  0  0  0  0  0  0  0  0  0  0
   -5.3987   -4.0744   -2.0193 H   0  0  0  0  0  0  0  0  0  0  0  0
   -5.3064   -2.4495   -2.6848 H   0  0  0  0  0  0  0  0  0  0  0  0
   -3.8059   -3.3061   -2.2320 H   0  0  0  0  0  0  0  0  0  0  0  0
   -8.1054    2.4231    0.3502 H   0  0  0  0  0  0  0  0  0  0  0  0
  1 10  1  0  0  0  0
  1 61  1  0  0  0  0
  2 20  1  0  0  0  0
  2 67  1  0  0  0  0
  3 28  1  0  0  0  0
  3 34  1  0  0  0  0
  4 27  1  0  0  0  0
  4 70  1  0  0  0  0
  5 26  2  0  0  0  0
  6 29  1  0  0  0  0
  6 71  1  0  0  0  0
  7 33  1  0  0  0  0
  7 83  1  0  0  0  0
  8 34  2  0  0  0  0
  9 10  1  0  0  0  0
  9 11  1  0  0  0  0
  9 14  1  0  0  0  0
  9 21  1  0  0  0  0
 10 15  1  0  0  0  0
 10 16  1  0  0  0  0
 11 17  1  0  0  0  0
 11 20  1  0  0  0  0
 11 38  1  0  0  0  0
 12 13  1  0  0  0  0
 12 15  1  0  0  0  0
 12 18  1  0  0  0  0
 12 39  1  0  0  0  0
 13 19  1  0  0  0  0
 13 22  1  0  0  0  0
 13 25  1  0  0  0  0
 14 18  1  0  0  0  0
 14 40  1  0  0  0  0
 14 41  1  0  0  0  0
 15 23  2  0  0  0  0
 16 17  1  0  0  0  0
 16 42  1  0  0  0  0
 16 43  1  0  0  0  0
 17 44  1  0  0  0  0
 17 45  1  0  0  0  0
 18 46  1  0  0  0  0
 18 47  1  0  0  0  0
 19 24  1  0  0  0  0
 19 26  1  0  0  0  0
 19 48  1  0  0  0  0
 20 28  1  0  0  0  0
 20 30  1  0  0  0  0
 21 49  1  0  0  0  0
 21 50  1  0  0  0  0
 21 51  1  0  0  0  0
 22 27  1  0  0  0  0
 22 52  1  0  0  0  0
 22 53  1  0  0  0  0
 23 26  1  0  0  0  0
 23 54  1  0  0  0  0
 24 29  1  0  0  0  0
 24 55  1  0  0  0  0
 24 56  1  0  0  0  0
 25 57  1  0  0  0  0
 25 58  1  0  0  0  0
 25 59  1  0  0  0  0
 27 29  1  0  0  0  0
 27 60  1  0  0  0  0
 28 31  1  0  0  0  0
 28 62  1  0  0  0  0
 29 63  1  0  0  0  0
 30 64  1  0  0  0  0
 30 65  1  0  0  0  0
 30 66  1  0  0  0  0
 31 32  1  0  0  0  0
 31 68  1  0  0  0  0
 31 69  1  0  0  0  0
 32 33  1  0  0  0  0
 32 72  1  0  0  0  0
 32 73  1  0  0  0  0
 33 35  1  0  0  0  0
 33 36  1  0  0  0  0
 34 37  1  0  0  0  0
 35 74  1  0  0  0  0
 35 75  1  0  0  0  0
 35 76  1  0  0  0  0
 36 77  1  0  0  0  0
 36 78  1  0  0  0  0
 36 79  1  0  0  0  0
 37 80  1  0  0  0  0
 37 81  1  0  0  0  0
 37 82  1  0  0  0  0
M  END
> <PUBCHEM_COMPOUND_CID>
15607741

> <PUBCHEM_CONFORMER_RMSD>
1

> <PUBCHEM_CONFORMER_DIVERSEORDER>
1
5
3
2
4

> <PUBCHEM_MMFF94_PARTIAL_CHARGES>
27
1 -0.68
10 0.42
12 0.14
15 -0.28
19 0.06
2 -0.68
20 0.28
23 -0.14
26 0.49
27 0.28
28 0.28
29 0.28
3 -0.43
33 0.28
34 0.66
37 0.06
4 -0.68
5 -0.57
54 0.15
6 -0.68
61 0.4
67 0.4
7 -0.68
70 0.4
71 0.4
8 -0.57
83 0.4

> <PUBCHEM_EFFECTIVE_ROTOR_COUNT>
8.8

> <PUBCHEM_PHARMACOPHORE_FEATURES>
17
1 1 acceptor
1 1 donor
1 2 acceptor
1 2 donor
1 4 acceptor
1 4 donor
1 5 acceptor
1 6 acceptor
1 6 donor
1 7 acceptor
1 7 donor
1 8 acceptor
3 33 35 36 hydrophobe
5 9 10 11 16 17 rings
6 12 13 15 19 23 26 rings
6 13 19 22 24 27 29 rings
6 9 10 12 14 15 18 rings

> <PUBCHEM_HEAVY_ATOM_COUNT>
37

> <PUBCHEM_ATOM_DEF_STEREO_COUNT>
10

> <PUBCHEM_ATOM_UDEF_STEREO_COUNT>
0

> <PUBCHEM_BOND_DEF_STEREO_COUNT>
0

> <PUBCHEM_BOND_UDEF_STEREO_COUNT>
0

> <PUBCHEM_ISOTOPIC_ATOM_COUNT>
0

> <PUBCHEM_COMPONENT_COUNT>
1

> <PUBCHEM_CACTVS_TAUTO_COUNT>
5

> <PUBCHEM_CONFORMER_ID>
00EE27BD00000001

> <PUBCHEM_MMFF94_ENERGY>
151.1804

> <PUBCHEM_FEATURE_SELFOVERLAP>
86.423

> <PUBCHEM_SHAPE_FINGERPRINT>
10290309 65 17632306661574914039
10554248 39 18268698420873443863
10906281 52 17604443984870123452
11456790 92 17241037718306292648
11475781 23 17417801803865589976
11578080 2 18201163152879051367
11646440 116 15936411143658093324
12035758 1 15068627097299043920
12236239 1 18334008415505653306
12422481 6 17604991408184570925
12539747 363 17913222129186118731
12616971 3 17603861152996410083
13690498 29 17987795354088265207
13782708 43 17489018379172972207
14118638 360 18335135448788074343
14856354 85 18269557307539300991
15082195 135 17703515419946280288
15183329 4 18342455963035790561
15336146 87 18058440066698777637
15840311 113 17968662610007698005
15876981 60 18337113471008316757
15968369 26 17274550819482647654
16994733 274 18338233868956804552
17980427 23 18040441014027959821
21033648 29 17489295395751537451
21424621 283 18261116253097082801
21756936 100 18040159518019576049
21792961 116 17417820534165115998
22122407 14 18261686955451253256
22149856 69 15792305791326383137
23081809 10 18261104188407399674
23522609 53 18260840297063968845
23559900 14 15554167073260530218
23569914 152 14831930616330194061
23569914 2 17696142107228244537
23569943 247 16952509326456960898
24771293 8 18040717026265927004
249057 25 18114728408661748811
34797466 226 17559685134262113692
3610482 184 18261685821869322845
392239 28 15719683138252760725
394071 54 16805323314669467388
4093350 32 18334581192476071106
4098825 35 18411704262194607646
4169191 19 17095808840487887628
4258327 124 18334295349871262829
5104073 3 16660648487769838688
6328613 192 18409729539158524137
6691757 9 16371004169908757088

> <PUBCHEM_SHAPE_MULTIPOLES>
714.49
18.84
3.51
2.11
3.28
1.1
-0.2
12.78
2.05
7.65
0.62
-2.13
-0.23
-3.19

> <PUBCHEM_SHAPE_SELFOVERLAP>
1512.749

> <PUBCHEM_SHAPE_VOLUME>
396.1

> <PUBCHEM_COORDINATE_TYPE>
2
5
10

$$$$
