10951463
  -OEChem-08282008573D

 83 86  0     1  0  0  0  0  0999 V2000
   -0.4928    0.8813    1.0397 O   0  0  0  0  0  0  0  0  0  0  0  0
   -3.5195   -2.7595   -0.6999 O   0  0  0  0  0  0  0  0  0  0  0  0
    4.8460    2.5679   -2.3848 O   0  0  0  0  0  0  0  0  0  0  0  0
    6.2711    1.2798   -0.3919 O   0  0  0  0  0  0  0  0  0  0  0  0
    4.0526   -2.0046    2.2962 O   0  0  0  0  0  0  0  0  0  0  0  0
   -6.1204   -1.7485   -0.8155 O   0  0  0  0  0  0  0  0  0  0  0  0
   -8.6801    2.2060    1.0712 O   0  0  0  0  0  0  0  0  0  0  0  0
    7.1047    1.9637    1.6511 O   0  0  0  0  0  0  0  0  0  0  0  0
   -1.1453   -0.9971   -0.3851 C   0  0  1  0  0  0  0  0  0  0  0  0
   -0.3292   -0.5432    0.8537 C   0  0  1  0  0  0  0  0  0  0  0  0
   -2.5889   -0.6957    0.0945 C   0  0  2  0  0  0  0  0  0  0  0  0
    1.7249   -0.1364   -0.6298 C   0  0  2  0  0  0  0  0  0  0  0  0
    3.2182   -0.5629   -0.9202 C   0  0  2  0  0  0  0  0  0  0  0  0
   -0.7039   -0.1599   -1.5974 C   0  0  0  0  0  0  0  0  0  0  0  0
    1.1554   -0.7605    0.6540 C   0  0  0  0  0  0  0  0  0  0  0  0
   -1.0990   -1.2008    2.0090 C   0  0  0  0  0  0  0  0  0  0  0  0
    0.7988   -0.3340   -1.8700 C   0  0  0  0  0  0  0  0  0  0  0  0
   -2.5802   -1.1242    1.5800 C   0  0  0  0  0  0  0  0  0  0  0  0
    4.0454   -0.5349    0.3947 C   0  0  1  0  0  0  0  0  0  0  0  0
   -3.7184   -1.3396   -0.6991 C   0  0  2  0  0  0  0  0  0  0  0  0
   -0.9736   -2.5081   -0.7023 C   0  0  0  0  0  0  0  0  0  0  0  0
    3.8948    0.3883   -1.9489 C   0  0  0  0  0  0  0  0  0  0  0  0
    1.9125   -1.3643    1.5822 C   0  0  0  0  0  0  0  0  0  0  0  0
    4.2966    0.8852    0.9334 C   0  0  0  0  0  0  0  0  0  0  0  0
    3.2985   -1.9978   -1.5090 C   0  0  0  0  0  0  0  0  0  0  0  0
    3.3885   -1.3755    1.4736 C   0  0  0  0  0  0  0  0  0  0  0  0
    4.1459    1.7997   -1.4084 C   0  0  1  0  0  0  0  0  0  0  0  0
    4.9605    1.7774   -0.1150 C   0  0  2  0  0  0  0  0  0  0  0  0
   -5.1130   -1.0464   -0.0807 C   0  0  1  0  0  0  0  0  0  0  0  0
   -3.6630   -0.8680   -2.1618 C   0  0  0  0  0  0  0  0  0  0  0  0
   -5.4887    0.4476   -0.0476 C   0  0  0  0  0  0  0  0  0  0  0  0
   -6.8977    0.6753    0.5296 C   0  0  0  0  0  0  0  0  0  0  0  0
   -7.3637    2.1463    0.5184 C   0  0  0  0  0  0  0  0  0  0  0  0
    7.1169    1.2230    0.6773 C   0  0  0  0  0  0  0  0  0  0  0  0
   -6.4404    2.9835    1.4103 C   0  0  0  0  0  0  0  0  0  0  0  0
   -7.4029    2.7390   -0.8921 C   0  0  0  0  0  0  0  0  0  0  0  0
    8.0893    0.0981    0.4907 C   0  0  0  0  0  0  0  0  0  0  0  0
   -2.7271    0.3938    0.0685 H   0  0  0  0  0  0  0  0  0  0  0  0
    1.7137    0.9432   -0.4313 H   0  0  0  0  0  0  0  0  0  0  0  0
   -1.2131   -0.4390   -2.5190 H   0  0  0  0  0  0  0  0  0  0  0  0
   -0.9177    0.9042   -1.4390 H   0  0  0  0  0  0  0  0  0  0  0  0
   -0.8146   -2.2502    2.1461 H   0  0  0  0  0  0  0  0  0  0  0  0
   -0.9538   -0.6846    2.9645 H   0  0  0  0  0  0  0  0  0  0  0  0
    1.0842    0.3793   -2.6522 H   0  0  0  0  0  0  0  0  0  0  0  0
    0.9389   -1.3276   -2.3051 H   0  0  0  0  0  0  0  0  0  0  0  0
   -3.1127   -0.3817    2.1859 H   0  0  0  0  0  0  0  0  0  0  0  0
   -3.0539   -2.0914    1.7712 H   0  0  0  0  0  0  0  0  0  0  0  0
    5.0194   -1.0040    0.1974 H   0  0  0  0  0  0  0  0  0  0  0  0
   -1.4040   -2.7843   -1.6697 H   0  0  0  0  0  0  0  0  0  0  0  0
   -1.3640   -3.1645    0.0813 H   0  0  0  0  0  0  0  0  0  0  0  0
    0.0861   -2.7755   -0.7804 H   0  0  0  0  0  0  0  0  0  0  0  0
    4.8573   -0.0379   -2.2669 H   0  0  0  0  0  0  0  0  0  0  0  0
    3.3086    0.4509   -2.8733 H   0  0  0  0  0  0  0  0  0  0  0  0
    1.4960   -1.7897    2.4877 H   0  0  0  0  0  0  0  0  0  0  0  0
    3.3485    1.3455    1.2397 H   0  0  0  0  0  0  0  0  0  0  0  0
    4.8893    0.8144    1.8519 H   0  0  0  0  0  0  0  0  0  0  0  0
    2.9423   -2.0325   -2.5439 H   0  0  0  0  0  0  0  0  0  0  0  0
    2.7145   -2.7179   -0.9275 H   0  0  0  0  0  0  0  0  0  0  0  0
    4.3345   -2.3569   -1.5299 H   0  0  0  0  0  0  0  0  0  0  0  0
    3.1946    2.3113   -1.2285 H   0  0  0  0  0  0  0  0  0  0  0  0
   -0.0296    1.1299    1.8583 H   0  0  0  0  0  0  0  0  0  0  0  0
    5.0609    2.8051    0.2565 H   0  0  0  0  0  0  0  0  0  0  0  0
   -5.1676   -1.4467    0.9383 H   0  0  0  0  0  0  0  0  0  0  0  0
   -2.9419   -1.4397   -2.7511 H   0  0  0  0  0  0  0  0  0  0  0  0
   -3.4702    0.2054   -2.2528 H   0  0  0  0  0  0  0  0  0  0  0  0
   -4.6162   -1.0614   -2.6688 H   0  0  0  0  0  0  0  0  0  0  0  0
   -3.8397   -3.1228    0.1421 H   0  0  0  0  0  0  0  0  0  0  0  0
   -4.7578    0.9982    0.5493 H   0  0  0  0  0  0  0  0  0  0  0  0
   -5.4623    0.8424   -1.0676 H   0  0  0  0  0  0  0  0  0  0  0  0
    4.3044    2.5782   -3.1924 H   0  0  0  0  0  0  0  0  0  0  0  0
   -5.8721   -2.6885   -0.8251 H   0  0  0  0  0  0  0  0  0  0  0  0
   -6.9399    0.2865    1.5559 H   0  0  0  0  0  0  0  0  0  0  0  0
   -7.6312    0.0810   -0.0307 H   0  0  0  0  0  0  0  0  0  0  0  0
   -6.8482    3.9933    1.5385 H   0  0  0  0  0  0  0  0  0  0  0  0
   -5.4312    3.0810    0.9999 H   0  0  0  0  0  0  0  0  0  0  0  0
   -6.3715    2.5534    2.4160 H   0  0  0  0  0  0  0  0  0  0  0  0
   -7.8768    3.7275   -0.8796 H   0  0  0  0  0  0  0  0  0  0  0  0
   -6.4065    2.8495   -1.3298 H   0  0  0  0  0  0  0  0  0  0  0  0
   -8.0094    2.1152   -1.5583 H   0  0  0  0  0  0  0  0  0  0  0  0
    8.7872    0.0792    1.3327 H   0  0  0  0  0  0  0  0  0  0  0  0
    7.5548   -0.8543    0.4595 H   0  0  0  0  0  0  0  0  0  0  0  0
    8.6601    0.2497   -0.4289 H   0  0  0  0  0  0  0  0  0  0  0  0
   -9.2686    1.6855    0.4982 H   0  0  0  0  0  0  0  0  0  0  0  0
  1 10  1  0  0  0  0
  1 61  1  0  0  0  0
  2 20  1  0  0  0  0
  2 67  1  0  0  0  0
  3 27  1  0  0  0  0
  3 70  1  0  0  0  0
  4 28  1  0  0  0  0
  4 34  1  0  0  0  0
  5 26  2  0  0  0  0
  6 29  1  0  0  0  0
  6 71  1  0  0  0  0
  7 33  1  0  0  0  0
  7 83  1  0  0  0  0
  8 34  2  0  0  0  0
  9 10  1  0  0  0  0
  9 11  1  0  0  0  0
  9 14  1  0  0  0  0
  9 21  1  0  0  0  0
 10 15  1  0  0  0  0
 10 16  1  0  0  0  0
 11 18  1  0  0  0  0
 11 20  1  0  0  0  0
 11 38  1  0  0  0  0
 12 13  1  0  0  0  0
 12 15  1  0  0  0  0
 12 17  1  0  0  0  0
 12 39  1  0  0  0  0
 13 19  1  0  0  0  0
 13 22  1  0  0  0  0
 13 25  1  0  0  0  0
 14 17  1  0  0  0  0
 14 40  1  0  0  0  0
 14 41  1  0  0  0  0
 15 23  2  0  0  0  0
 16 18  1  0  0  0  0
 16 42  1  0  0  0  0
 16 43  1  0  0  0  0
 17 44  1  0  0  0  0
 17 45  1  0  0  0  0
 18 46  1  0  0  0  0
 18 47  1  0  0  0  0
 19 24  1  0  0  0  0
 19 26  1  0  0  0  0
 19 48  1  0  0  0  0
 20 29  1  0  0  0  0
 20 30  1  0  0  0  0
 21 49  1  0  0  0  0
 21 50  1  0  0  0  0
 21 51  1  0  0  0  0
 22 27  1  0  0  0  0
 22 52  1  0  0  0  0
 22 53  1  0  0  0  0
 23 26  1  0  0  0  0
 23 54  1  0  0  0  0
 24 28  1  0  0  0  0
 24 55  1  0  0  0  0
 24 56  1  0  0  0  0
 25 57  1  0  0  0  0
 25 58  1  0  0  0  0
 25 59  1  0  0  0  0
 27 28  1  0  0  0  0
 27 60  1  0  0  0  0
 28 62  1  0  0  0  0
 29 31  1  0  0  0  0
 29 63  1  0  0  0  0
 30 64  1  0  0  0  0
 30 65  1  0  0  0  0
 30 66  1  0  0  0  0
 31 32  1  0  0  0  0
 31 68  1  0  0  0  0
 31 69  1  0  0  0  0
 32 33  1  0  0  0  0
 32 72  1  0  0  0  0
 32 73  1  0  0  0  0
 33 35  1  0  0  0  0
 33 36  1  0  0  0  0
 34 37  1  0  0  0  0
 35 74  1  0  0  0  0
 35 75  1  0  0  0  0
 35 76  1  0  0  0  0
 36 77  1  0  0  0  0
 36 78  1  0  0  0  0
 36 79  1  0  0  0  0
 37 80  1  0  0  0  0
 37 81  1  0  0  0  0
 37 82  1  0  0  0  0
M  END
> <PUBCHEM_COMPOUND_CID>
10951463

> <PUBCHEM_CONFORMER_RMSD>
1

> <PUBCHEM_CONFORMER_DIVERSEORDER>
1
4
2
3
5

> <PUBCHEM_MMFF94_PARTIAL_CHARGES>
27
1 -0.68
10 0.42
12 0.14
15 -0.28
19 0.06
2 -0.68
20 0.28
23 -0.14
26 0.49
27 0.28
28 0.28
29 0.28
3 -0.68
33 0.28
34 0.66
37 0.06
4 -0.43
5 -0.57
54 0.15
6 -0.68
61 0.4
67 0.4
7 -0.68
70 0.4
71 0.4
8 -0.57
83 0.4

> <PUBCHEM_EFFECTIVE_ROTOR_COUNT>
8.8

> <PUBCHEM_PHARMACOPHORE_FEATURES>
17
1 1 acceptor
1 1 donor
1 2 acceptor
1 2 donor
1 3 acceptor
1 3 donor
1 5 acceptor
1 6 acceptor
1 6 donor
1 7 acceptor
1 7 donor
1 8 acceptor
3 33 35 36 hydrophobe
5 9 10 11 16 18 rings
6 12 13 15 19 23 26 rings
6 13 19 22 24 27 28 rings
6 9 10 12 14 15 17 rings

> <PUBCHEM_HEAVY_ATOM_COUNT>
37

> <PUBCHEM_ATOM_DEF_STEREO_COUNT>
10

> <PUBCHEM_ATOM_UDEF_STEREO_COUNT>
0

> <PUBCHEM_BOND_DEF_STEREO_COUNT>
0

> <PUBCHEM_BOND_UDEF_STEREO_COUNT>
0

> <PUBCHEM_ISOTOPIC_ATOM_COUNT>
0

> <PUBCHEM_COMPONENT_COUNT>
1

> <PUBCHEM_CACTVS_TAUTO_COUNT>
5

> <PUBCHEM_CONFORMER_ID>
00A71B2700000001

> <PUBCHEM_MMFF94_ENERGY>
138.7014

> <PUBCHEM_FEATURE_SELFOVERLAP>
86.417

> <PUBCHEM_SHAPE_FINGERPRINT>
10 15 18411141325674428609
10554248 39 18198894834821768503
10693767 8 12895081664893154829
10906281 52 17822586009056704214
11456790 92 17748824120667807552
11475781 23 17989212533559085917
11646440 116 16298384664851204188
12035758 1 15719112461573994211
12236239 1 18408318904030796314
12788726 201 18202284684445360649
12838862 33 15051725396805505154
13690498 29 16915930954919738967
13914758 101 18341896303296076966
15082195 135 17418099801481456408
15361156 5 13829868906509073147
1577012 14 18410568475394368627
15840311 113 18114747028178225413
16994733 274 18342171215399716856
18608769 82 15122945243975848462
20028762 73 10375876255525363261
20105231 36 14779545669752543664
20511986 3 18060419122761173199
21033648 29 18409173220291346591
21223535 225 18272645758107475717
21424621 283 18409451367327688195
21756936 100 18259985986121071211
21781055 127 17895207554276430964
21792934 111 16081361939433605215
22122407 14 18336275646841732953
22149856 69 16081662063395756445
23559900 14 14692286300409910354
23569914 152 14113611986803583521
23576562 1 16056017173990196737
24771293 8 17968096473093500604
3178227 256 15140962837713872248
3633792 109 17917156009358469662
3918712 181 18129380411295580337
392239 28 16226051124087079831
394071 54 17168143455330983908
397830 11 12396587381141609551
4093350 32 18410012100920268250
4098825 35 18201438047564963598
504579 68 13901903414865578289
5104073 3 16154256214232881541
58083652 198 16877936196370595941
6328613 192 18413106148321083009
6691757 9 16877937286997078243
9896288 288 12757690012655107871
999808 66 12973602240324834289

> <PUBCHEM_SHAPE_MULTIPOLES>
714.49
21.64
2.82
2.06
14.18
1.03
0.2
18.84
-3.68
2.78
0.04
-1.31
-0.11
-2.06

> <PUBCHEM_SHAPE_SELFOVERLAP>
1509.222

> <PUBCHEM_SHAPE_VOLUME>
397.6

> <PUBCHEM_COORDINATE_TYPE>
2
5
10

$$$$
