11420239
  -OEChem-08282008563D

 78 81  0     1  0  0  0  0  0999 V2000
    0.4057    1.3395    0.5668 O   0  0  0  0  0  0  0  0  0  0  0  0
   -2.1898   -3.0161    0.0826 O   0  0  0  0  0  0  0  0  0  0  0  0
   -4.8855   -2.4047   -0.4351 O   0  0  0  0  0  0  0  0  0  0  0  0
    5.0813   -0.5089    2.8019 O   0  0  0  0  0  0  0  0  0  0  0  0
    7.1239    1.9606   -0.7757 O   0  0  0  0  0  0  0  0  0  0  0  0
   -7.9712    1.5074    0.0480 O   0  0  0  0  0  0  0  0  0  0  0  0
   -5.9702    2.6157    1.7659 O   0  0  0  0  0  0  0  0  0  0  0  0
   -0.0382   -0.9756   -0.1565 C   0  0  1  0  0  0  0  0  0  0  0  0
    0.6641   -0.0498    0.8732 C   0  0  1  0  0  0  0  0  0  0  0  0
   -1.5286   -0.7070    0.1734 C   0  0  2  0  0  0  0  0  0  0  0  0
    2.7489    0.0427   -0.6221 C   0  0  2  0  0  0  0  0  0  0  0  0
    4.2842   -0.3144   -0.7231 C   0  0  2  0  0  0  0  0  0  0  0  0
    0.3806   -0.5404   -1.5701 C   0  0  0  0  0  0  0  0  0  0  0  0
    2.1703   -0.1726    0.7871 C   0  0  0  0  0  0  0  0  0  0  0  0
   -0.0966   -0.3696    2.1710 C   0  0  0  0  0  0  0  0  0  0  0  0
   -1.5521   -0.6241    1.7176 C   0  0  0  0  0  0  0  0  0  0  0  0
    1.9050   -0.6356   -1.7463 C   0  0  0  0  0  0  0  0  0  0  0  0
    5.0405    0.2340    0.5166 C   0  0  1  0  0  0  0  0  0  0  0  0
   -2.5401   -1.7035   -0.3787 C   0  0  2  0  0  0  0  0  0  0  0  0
    0.3030   -2.4782    0.0506 C   0  0  0  0  0  0  0  0  0  0  0  0
    4.9328    0.2925   -1.9999 C   0  0  0  0  0  0  0  0  0  0  0  0
    2.9309   -0.3554    1.8771 C   0  0  0  0  0  0  0  0  0  0  0  0
    5.1319    1.7690    0.5468 C   0  0  0  0  0  0  0  0  0  0  0  0
    4.5117   -1.8498   -0.7869 C   0  0  0  0  0  0  0  0  0  0  0  0
    4.4063   -0.2582    1.8044 C   0  0  0  0  0  0  0  0  0  0  0  0
    5.0344    1.8200   -1.9808 C   0  0  0  0  0  0  0  0  0  0  0  0
   -3.9956   -1.4181    0.0843 C   0  0  1  0  0  0  0  0  0  0  0  0
    5.7473    2.3333   -0.7317 C   0  0  2  0  0  0  0  0  0  0  0  0
   -2.4562   -1.7284   -1.9144 C   0  0  0  0  0  0  0  0  0  0  0  0
   -4.5162   -0.0318   -0.3427 C   0  0  0  0  0  0  0  0  0  0  0  0
   -5.9645    0.1986    0.1149 C   0  0  0  0  0  0  0  0  0  0  0  0
   -6.5850    1.5434   -0.3245 C   0  0  2  0  0  0  0  0  0  0  0  0
   -5.9562    2.7701    0.3513 C   0  0  0  0  0  0  0  0  0  0  0  0
   -6.5569    1.7152   -1.8452 C   0  0  0  0  0  0  0  0  0  0  0  0
   -1.7821    0.2877   -0.2164 H   0  0  0  0  0  0  0  0  0  0  0  0
    2.6425    1.1219   -0.7950 H   0  0  0  0  0  0  0  0  0  0  0  0
    0.0598    0.4883   -1.7748 H   0  0  0  0  0  0  0  0  0  0  0  0
   -0.0534   -1.1564   -2.3563 H   0  0  0  0  0  0  0  0  0  0  0  0
    0.2892   -1.2703    2.6619 H   0  0  0  0  0  0  0  0  0  0  0  0
   -0.0604    0.4521    2.8949 H   0  0  0  0  0  0  0  0  0  0  0  0
   -2.2048    0.1938    2.0439 H   0  0  0  0  0  0  0  0  0  0  0  0
   -1.9185   -1.5403    2.1932 H   0  0  0  0  0  0  0  0  0  0  0  0
    2.1609   -0.1850   -2.7125 H   0  0  0  0  0  0  0  0  0  0  0  0
    2.1576   -1.6960   -1.8350 H   0  0  0  0  0  0  0  0  0  0  0  0
    6.0598   -0.1764    0.5120 H   0  0  0  0  0  0  0  0  0  0  0  0
   -0.0632   -2.8807    0.9999 H   0  0  0  0  0  0  0  0  0  0  0  0
   -0.0398   -3.1034   -0.7794 H   0  0  0  0  0  0  0  0  0  0  0  0
    1.3868   -2.6350    0.0876 H   0  0  0  0  0  0  0  0  0  0  0  0
    5.9402   -0.1248   -2.1297 H   0  0  0  0  0  0  0  0  0  0  0  0
    4.3806   -0.0136   -2.8957 H   0  0  0  0  0  0  0  0  0  0  0  0
    2.5095   -0.4940    2.8659 H   0  0  0  0  0  0  0  0  0  0  0  0
    5.7426    2.0677    1.4088 H   0  0  0  0  0  0  0  0  0  0  0  0
    4.1410    2.2125    0.7017 H   0  0  0  0  0  0  0  0  0  0  0  0
    5.5735   -2.0953   -0.6647 H   0  0  0  0  0  0  0  0  0  0  0  0
    3.9612   -2.3838   -0.0064 H   0  0  0  0  0  0  0  0  0  0  0  0
    4.2115   -2.2651   -1.7545 H   0  0  0  0  0  0  0  0  0  0  0  0
   -0.4702    1.5926    0.9009 H   0  0  0  0  0  0  0  0  0  0  0  0
    4.0363    2.2657   -2.0491 H   0  0  0  0  0  0  0  0  0  0  0  0
    5.5870    2.1377   -2.8733 H   0  0  0  0  0  0  0  0  0  0  0  0
   -4.0494   -1.5112    1.1756 H   0  0  0  0  0  0  0  0  0  0  0  0
    5.7130    3.4274   -0.7084 H   0  0  0  0  0  0  0  0  0  0  0  0
   -1.6474   -2.3705   -2.2723 H   0  0  0  0  0  0  0  0  0  0  0  0
   -3.3535   -2.1859   -2.3484 H   0  0  0  0  0  0  0  0  0  0  0  0
   -2.3746   -0.7272   -2.3486 H   0  0  0  0  0  0  0  0  0  0  0  0
   -2.8404   -3.6411   -0.2807 H   0  0  0  0  0  0  0  0  0  0  0  0
   -3.8846    0.7586    0.0717 H   0  0  0  0  0  0  0  0  0  0  0  0
   -4.4781    0.0413   -1.4340 H   0  0  0  0  0  0  0  0  0  0  0  0
   -5.6480   -2.4653    0.1649 H   0  0  0  0  0  0  0  0  0  0  0  0
    7.1970    0.9955   -0.8382 H   0  0  0  0  0  0  0  0  0  0  0  0
   -6.6023   -0.5994   -0.2877 H   0  0  0  0  0  0  0  0  0  0  0  0
   -6.0369    0.0849    1.2038 H   0  0  0  0  0  0  0  0  0  0  0  0
   -4.9239    2.9385    0.0277 H   0  0  0  0  0  0  0  0  0  0  0  0
   -6.5367    3.6711    0.1259 H   0  0  0  0  0  0  0  0  0  0  0  0
   -5.5433    1.8759   -2.2251 H   0  0  0  0  0  0  0  0  0  0  0  0
   -7.1696    2.5723   -2.1491 H   0  0  0  0  0  0  0  0  0  0  0  0
   -6.9829    0.8396   -2.3484 H   0  0  0  0  0  0  0  0  0  0  0  0
   -8.3919    0.7649   -0.4182 H   0  0  0  0  0  0  0  0  0  0  0  0
   -5.2588    1.9965    2.0014 H   0  0  0  0  0  0  0  0  0  0  0  0
  1  9  1  0  0  0  0
  1 57  1  0  0  0  0
  2 19  1  0  0  0  0
  2 65  1  0  0  0  0
  3 27  1  0  0  0  0
  3 68  1  0  0  0  0
  4 25  2  0  0  0  0
  5 28  1  0  0  0  0
  5 69  1  0  0  0  0
  6 32  1  0  0  0  0
  6 77  1  0  0  0  0
  7 33  1  0  0  0  0
  7 78  1  0  0  0  0
  8  9  1  0  0  0  0
  8 10  1  0  0  0  0
  8 13  1  0  0  0  0
  8 20  1  0  0  0  0
  9 14  1  0  0  0  0
  9 15  1  0  0  0  0
 10 16  1  0  0  0  0
 10 19  1  0  0  0  0
 10 35  1  0  0  0  0
 11 12  1  0  0  0  0
 11 14  1  0  0  0  0
 11 17  1  0  0  0  0
 11 36  1  0  0  0  0
 12 18  1  0  0  0  0
 12 21  1  0  0  0  0
 12 24  1  0  0  0  0
 13 17  1  0  0  0  0
 13 37  1  0  0  0  0
 13 38  1  0  0  0  0
 14 22  2  0  0  0  0
 15 16  1  0  0  0  0
 15 39  1  0  0  0  0
 15 40  1  0  0  0  0
 16 41  1  0  0  0  0
 16 42  1  0  0  0  0
 17 43  1  0  0  0  0
 17 44  1  0  0  0  0
 18 23  1  0  0  0  0
 18 25  1  0  0  0  0
 18 45  1  0  0  0  0
 19 27  1  0  0  0  0
 19 29  1  0  0  0  0
 20 46  1  0  0  0  0
 20 47  1  0  0  0  0
 20 48  1  0  0  0  0
 21 26  1  0  0  0  0
 21 49  1  0  0  0  0
 21 50  1  0  0  0  0
 22 25  1  0  0  0  0
 22 51  1  0  0  0  0
 23 28  1  0  0  0  0
 23 52  1  0  0  0  0
 23 53  1  0  0  0  0
 24 54  1  0  0  0  0
 24 55  1  0  0  0  0
 24 56  1  0  0  0  0
 26 28  1  0  0  0  0
 26 58  1  0  0  0  0
 26 59  1  0  0  0  0
 27 30  1  0  0  0  0
 27 60  1  0  0  0  0
 28 61  1  0  0  0  0
 29 62  1  0  0  0  0
 29 63  1  0  0  0  0
 29 64  1  0  0  0  0
 30 31  1  0  0  0  0
 30 66  1  0  0  0  0
 30 67  1  0  0  0  0
 31 32  1  0  0  0  0
 31 70  1  0  0  0  0
 31 71  1  0  0  0  0
 32 33  1  0  0  0  0
 32 34  1  0  0  0  0
 33 72  1  0  0  0  0
 33 73  1  0  0  0  0
 34 74  1  0  0  0  0
 34 75  1  0  0  0  0
 34 76  1  0  0  0  0
M  END
> <PUBCHEM_COMPOUND_CID>
11420239

> <PUBCHEM_CONFORMER_RMSD>
1

> <PUBCHEM_CONFORMER_DIVERSEORDER>
1
4
3
8
6
5
7
2

> <PUBCHEM_MMFF94_PARTIAL_CHARGES>
25
1 -0.68
11 0.14
14 -0.28
18 0.06
19 0.28
2 -0.68
22 -0.14
25 0.49
27 0.28
28 0.28
3 -0.68
32 0.28
33 0.28
4 -0.57
5 -0.68
51 0.15
57 0.4
6 -0.68
65 0.4
68 0.4
69 0.4
7 -0.68
77 0.4
78 0.4
9 0.42

> <PUBCHEM_EFFECTIVE_ROTOR_COUNT>
7.8

> <PUBCHEM_PHARMACOPHORE_FEATURES>
17
1 1 acceptor
1 1 donor
1 2 acceptor
1 2 donor
1 3 acceptor
1 3 donor
1 4 acceptor
1 5 acceptor
1 5 donor
1 6 acceptor
1 6 donor
1 7 acceptor
1 7 donor
5 8 9 10 15 16 rings
6 11 12 14 18 22 25 rings
6 12 18 21 23 26 28 rings
6 8 9 11 13 14 17 rings

> <PUBCHEM_HEAVY_ATOM_COUNT>
34

> <PUBCHEM_ATOM_DEF_STEREO_COUNT>
9

> <PUBCHEM_ATOM_UDEF_STEREO_COUNT>
1

> <PUBCHEM_BOND_DEF_STEREO_COUNT>
0

> <PUBCHEM_BOND_UDEF_STEREO_COUNT>
0

> <PUBCHEM_ISOTOPIC_ATOM_COUNT>
0

> <PUBCHEM_COMPONENT_COUNT>
1

> <PUBCHEM_CACTVS_TAUTO_COUNT>
5

> <PUBCHEM_CONFORMER_ID>
00AE424F00000001

> <PUBCHEM_MMFF94_ENERGY>
130.8014

> <PUBCHEM_FEATURE_SELFOVERLAP>
86.424

> <PUBCHEM_SHAPE_FINGERPRINT>
10 15 18187368740500808529
10554248 39 18337375051132165711
10675989 125 18266466412269480174
10693767 8 14333140632886688548
11456790 92 16950270811705192680
11475781 23 17489579030912357656
11646440 116 15357974586128681260
11963148 33 9222962438715082736
12011746 2 16773527667492611918
12166972 35 11672061951914271435
12236239 1 17967807279870641458
12422481 6 17386279883845175663
12788726 201 18412265043005227168
13533116 47 17022892442290930866
13690498 29 17631166584292023095
13782708 43 11169912801275864277
14068700 675 9079111164227075471
14211702 104 9871478642109995933
14347329 18 18273214167085129977
14955137 171 13768215965092722735
15082195 135 17775011197786043504
15183329 4 18131071519954440593
15238133 3 18408878542542924258
15392192 104 14707793756773493849
15475509 35 8574438591137304020
1577012 14 18114177549552799759
15840311 113 17749105561252358205
16994733 274 18263926712825402208
17349148 13 11959465525618612522
17913733 40 15791726395710915049
18222031 100 14045745923973375706
20511986 3 18273212036675842982
21033648 29 17917702539303531046
21130935 74 16950279615807310411
21424621 283 18259988184331741947
21521239 73 14261346960030004445
22122407 14 18042135399832795809
2215653 11 16128662972151232790
23081809 10 18040708199553946371
23559900 14 15984545636966489938
23569914 152 15549972186939625293
23569943 247 16662023877789599522
2748736 6 18410851028386979629
2838139 119 17774715369191483893
3633792 109 18343028761940124118
3918712 181 18411978032106341361
392239 28 12324250455874995893
394071 54 16371005248003641868
397830 11 13045951230518468743
4058900 60 18339932506952674811
4093350 32 18113620071588446394
5104073 3 16226045638802050232
5283173 99 17917712383705995745
59682541 52 16272212955094162013
6328613 192 18409731772493902277

> <PUBCHEM_SHAPE_MULTIPOLES>
658.62
18.56
2.69
2.1
17.09
0.45
-0.41
15.09
2
2.33
0.39
-1.75
0.06
-1.63

> <PUBCHEM_SHAPE_SELFOVERLAP>
1391.696

> <PUBCHEM_SHAPE_VOLUME>
366.1

> <PUBCHEM_COORDINATE_TYPE>
2
5
10

$$$$
