44578390
  -OEChem-11242001353D

 47 50  0     1  0  0  0  0  0999 V2000
   -1.4384   -1.8148   -1.9519 O   0  0  0  0  0  0  0  0  0  0  0  0
    1.4103   -2.5135    0.6321 O   0  0  0  0  0  0  0  0  0  0  0  0
   -0.5355   -2.9380    1.7671 O   0  0  0  0  0  0  0  0  0  0  0  0
   -5.4717    1.0222    1.4184 O   0  0  0  0  0  0  0  0  0  0  0  0
    5.5658    1.5673   -0.8960 O   0  0  0  0  0  0  0  0  0  0  0  0
   -5.3037    2.9574   -0.5696 O   0  0  0  0  0  0  0  0  0  0  0  0
    5.2267    2.4471    1.7186 O   0  0  0  0  0  0  0  0  0  0  0  0
    0.5772   -1.0471   -0.9891 C   0  0  1  0  0  0  0  0  0  0  0  0
   -0.4427   -1.1494    0.1166 C   0  0  1  0  0  0  0  0  0  0  0  0
   -1.7563   -1.4580   -0.5930 C   0  0  1  0  0  0  0  0  0  0  0  0
    1.8556   -1.5939   -0.3825 C   0  0  1  0  0  0  0  0  0  0  0  0
   -0.0185   -1.9398   -2.0678 C   0  0  0  0  0  0  0  0  0  0  0  0
    0.0907   -2.3017    0.9335 C   0  0  0  0  0  0  0  0  0  0  0  0
   -2.7054   -0.2809   -0.5845 C   0  0  0  0  0  0  0  0  0  0  0  0
    2.7588   -0.5143    0.1765 C   0  0  0  0  0  0  0  0  0  0  0  0
   -3.6653   -0.1663    0.4210 C   0  0  0  0  0  0  0  0  0  0  0  0
    3.7610    0.0385   -0.6209 C   0  0  0  0  0  0  0  0  0  0  0  0
   -2.6204    0.6907   -1.5817 C   0  0  0  0  0  0  0  0  0  0  0  0
    2.5880   -0.0722    1.4884 C   0  0  0  0  0  0  0  0  0  0  0  0
   -4.5401    0.9202    0.4296 C   0  0  0  0  0  0  0  0  0  0  0  0
    4.5922    1.0336   -0.1065 C   0  0  0  0  0  0  0  0  0  0  0  0
   -3.4954    1.7769   -1.5733 C   0  0  0  0  0  0  0  0  0  0  0  0
    3.4194    0.9227    2.0028 C   0  0  0  0  0  0  0  0  0  0  0  0
   -4.4552    1.8918   -0.5677 C   0  0  0  0  0  0  0  0  0  0  0  0
    4.4214    1.4757    1.2054 C   0  0  0  0  0  0  0  0  0  0  0  0
   -5.4914   -0.0134    2.3990 C   0  0  0  0  0  0  0  0  0  0  0  0
    5.6732    1.0594   -2.2245 C   0  0  0  0  0  0  0  0  0  0  0  0
    0.6644   -0.0238   -1.3724 H   0  0  0  0  0  0  0  0  0  0  0  0
   -0.4676   -0.2676    0.7658 H   0  0  0  0  0  0  0  0  0  0  0  0
   -2.2633   -2.3279   -0.1584 H   0  0  0  0  0  0  0  0  0  0  0  0
    2.4226   -2.1813   -1.1149 H   0  0  0  0  0  0  0  0  0  0  0  0
    0.2389   -2.9969   -1.9353 H   0  0  0  0  0  0  0  0  0  0  0  0
    0.2937   -1.6376   -3.0719 H   0  0  0  0  0  0  0  0  0  0  0  0
   -3.6807   -0.9502    1.1708 H   0  0  0  0  0  0  0  0  0  0  0  0
    3.8432   -0.3427   -1.6332 H   0  0  0  0  0  0  0  0  0  0  0  0
   -1.8754    0.6305   -2.3700 H   0  0  0  0  0  0  0  0  0  0  0  0
    1.8164   -0.4796    2.1342 H   0  0  0  0  0  0  0  0  0  0  0  0
   -3.4167    2.5280   -2.3548 H   0  0  0  0  0  0  0  0  0  0  0  0
    3.2751    1.2585    3.0263 H   0  0  0  0  0  0  0  0  0  0  0  0
   -5.0980    3.5247   -1.3325 H   0  0  0  0  0  0  0  0  0  0  0  0
    4.9623    2.6249    2.6375 H   0  0  0  0  0  0  0  0  0  0  0  0
   -6.2930    0.2275    3.1052 H   0  0  0  0  0  0  0  0  0  0  0  0
   -4.5600   -0.0423    2.9746 H   0  0  0  0  0  0  0  0  0  0  0  0
   -5.7399   -0.9842    1.9566 H   0  0  0  0  0  0  0  0  0  0  0  0
    5.9377   -0.0036   -2.2306 H   0  0  0  0  0  0  0  0  0  0  0  0
    4.7725    1.2695   -2.8113 H   0  0  0  0  0  0  0  0  0  0  0  0
    6.4979    1.5939   -2.7076 H   0  0  0  0  0  0  0  0  0  0  0  0
  1 10  1  0  0  0  0
  1 12  1  0  0  0  0
  2 11  1  0  0  0  0
  2 13  1  0  0  0  0
  3 13  2  0  0  0  0
  4 20  1  0  0  0  0
  4 26  1  0  0  0  0
  5 21  1  0  0  0  0
  5 27  1  0  0  0  0
  6 24  1  0  0  0  0
  6 40  1  0  0  0  0
  7 25  1  0  0  0  0
  7 41  1  0  0  0  0
  8  9  1  0  0  0  0
  8 11  1  0  0  0  0
  8 12  1  0  0  0  0
  8 28  1  0  0  0  0
  9 10  1  0  0  0  0
  9 13  1  0  0  0  0
  9 29  1  0  0  0  0
 10 14  1  0  0  0  0
 10 30  1  0  0  0  0
 11 15  1  0  0  0  0
 11 31  1  0  0  0  0
 12 32  1  0  0  0  0
 12 33  1  0  0  0  0
 14 16  2  0  0  0  0
 14 18  1  0  0  0  0
 15 17  2  0  0  0  0
 15 19  1  0  0  0  0
 16 20  1  0  0  0  0
 16 34  1  0  0  0  0
 17 21  1  0  0  0  0
 17 35  1  0  0  0  0
 18 22  2  0  0  0  0
 18 36  1  0  0  0  0
 19 23  2  0  0  0  0
 19 37  1  0  0  0  0
 20 24  2  0  0  0  0
 21 25  2  0  0  0  0
 22 24  1  0  0  0  0
 22 38  1  0  0  0  0
 23 25  1  0  0  0  0
 23 39  1  0  0  0  0
 26 42  1  0  0  0  0
 26 43  1  0  0  0  0
 26 44  1  0  0  0  0
 27 45  1  0  0  0  0
 27 46  1  0  0  0  0
 27 47  1  0  0  0  0
M  END
> <PUBCHEM_COMPOUND_CID>
44578390

> <PUBCHEM_CONFORMER_RMSD>
0.8

> <PUBCHEM_CONFORMER_DIVERSEORDER>
4
38
26
19
37
12
11
30
43
1
33
7
27
25
32
36
23
31
9
45
41
3
6
17
40
29
5
35
8
13
15
2
34
42
39
44
18
16
22
24
20
14
28
46
21
10

> <PUBCHEM_MMFF94_PARTIAL_CHARGES>
34
1 -0.56
10 0.42
11 0.42
12 0.28
13 0.66
14 -0.14
15 -0.14
16 -0.15
17 -0.15
18 -0.15
19 -0.15
2 -0.43
20 0.08
21 0.08
22 -0.15
23 -0.15
24 0.08
25 0.08
26 0.28
27 0.28
3 -0.57
34 0.15
35 0.15
36 0.15
37 0.15
38 0.15
39 0.15
4 -0.36
40 0.45
41 0.45
5 -0.36
6 -0.53
7 -0.53
9 0.06

> <PUBCHEM_EFFECTIVE_ROTOR_COUNT>
5

> <PUBCHEM_PHARMACOPHORE_FEATURES>
10
1 1 acceptor
1 3 acceptor
1 4 acceptor
1 5 acceptor
1 6 donor
1 7 donor
5 1 8 9 10 12 rings
5 2 8 9 11 13 rings
6 14 16 18 20 22 24 rings
6 15 17 19 21 23 25 rings

> <PUBCHEM_HEAVY_ATOM_COUNT>
27

> <PUBCHEM_ATOM_DEF_STEREO_COUNT>
4

> <PUBCHEM_ATOM_UDEF_STEREO_COUNT>
0

> <PUBCHEM_BOND_DEF_STEREO_COUNT>
0

> <PUBCHEM_BOND_UDEF_STEREO_COUNT>
0

> <PUBCHEM_ISOTOPIC_ATOM_COUNT>
0

> <PUBCHEM_COMPONENT_COUNT>
1

> <PUBCHEM_CACTVS_TAUTO_COUNT>
16

> <PUBCHEM_CONFORMER_ID>
02A8365600000004

> <PUBCHEM_MMFF94_ENERGY>
90.3154

> <PUBCHEM_FEATURE_SELFOVERLAP>
51.193

> <PUBCHEM_SHAPE_FINGERPRINT>
10498660 4 18059846277224070672
11135609 201 17459757128184504804
11578080 2 18190206588186159034
11720765 8 17772753776323891318
12363563 72 9367064514407705910
12390115 104 18271811254361477487
12596602 18 16298389075698571552
12633257 1 16370724828940136468
12788726 201 17316763484401910282
12892183 10 16081363033948638766
13544653 18 11602819077504611247
13583140 156 14996547530277073118
13828863 39 16950854707907564108
14251751 18 10447636985739448541
14341114 328 17167863079845068228
14840074 17 17918278619674064521
14848178 5 8358259254307028184
14848178 96 17989194950047326544
14950920 106 15574976369935058648
15183329 4 17203335485678840220
15238133 3 18334285488467933288
15510800 12 8286200560752678625
1813 80 9583230686514333658
19377110 9 16226056625164751893
20775530 9 8357164218262470136
21033648 29 18333450923880606728
21223535 225 16988570048321204744
21315763 87 13262680365405773672
21315764 119 13614254628688488409
21401589 2 18340198695491133923
21458453 9 17752507592079091833
21756936 100 18261672683706782590
22122407 14 18056480535494822905
23559900 14 17243023337252489983
23572383 38 8286201634510157832
2838139 119 18201709639869431268
312425 83 14620495865995498321
38570 142 16988578874599621697
3882209 13 17538303013642859451
4098825 35 16415204515306000087
439807 62 12175607496027905773
44062 13 11887664075178094957
4463277 69 8646481933882613874
46194498 28 15336272528324261245
469060 322 18041552654949594143
5104073 3 17677900028817999865
5252454 2 18343012294170094374
552612 73 18189354458026701842
613672 6 8070028865275806281
633830 44 18335973177943430334
7808743 9 18114466768371258940
960060 61 14476958999930274164

> <PUBCHEM_SHAPE_MULTIPOLES>
514.56
13.26
2.83
2.23
0.62
0.39
-0.18
-12.78
-1.91
-0.44
-0.09
0.2
-0.08
0.95

> <PUBCHEM_SHAPE_SELFOVERLAP>
1133.001

> <PUBCHEM_SHAPE_VOLUME>
280.6

> <PUBCHEM_COORDINATE_TYPE>
2
5
10

$$$$
