102039055
  -OEChem-11242001253D

 39 39  0     1  0  0  0  0  0999 V2000
   -0.2184   -0.7959    0.3203 O   0  0  0  0  0  0  0  0  0  0  0  0
   -2.1870   -0.9011    2.3891 O   0  0  0  0  0  0  0  0  0  0  0  0
   -3.7030    1.4497    1.5955 O   0  0  0  0  0  0  0  0  0  0  0  0
   -2.2334    2.9657   -0.3683 O   0  0  0  0  0  0  0  0  0  0  0  0
   -2.6826   -3.3764    0.0671 O   0  0  0  0  0  0  0  0  0  0  0  0
   -4.1694    0.1884   -1.5272 O   0  0  0  0  0  0  0  0  0  0  0  0
   -0.5150   -3.4356    0.7489 O   0  0  0  0  0  0  0  0  0  0  0  0
   -4.5460    2.4218   -1.5106 O   0  0  0  0  0  0  0  0  0  0  0  0
    0.3266   -1.2908   -1.8609 O   0  0  0  0  0  0  0  0  0  0  0  0
    3.4086    2.2311    1.7825 O   0  0  0  0  0  0  0  0  0  0  0  0
    5.4424   -0.7089   -1.4049 O   0  0  0  0  0  0  0  0  0  0  0  0
    5.6749    1.2912    0.4968 O   0  0  0  0  0  0  0  0  0  0  0  0
   -2.5133   -0.5565    1.0351 C   0  0  1  0  0  0  0  0  0  0  0  0
   -2.5252    0.9801    0.9194 C   0  0  1  0  0  0  0  0  0  0  0  0
   -1.5278   -1.3068    0.1272 C   0  0  2  0  0  0  0  0  0  0  0  0
   -2.5058    1.5682   -0.4973 C   0  0  1  0  0  0  0  0  0  0  0  0
   -1.4898   -2.8038    0.3665 C   0  0  0  0  0  0  0  0  0  0  0  0
   -3.8380    1.4662   -1.2186 C   0  0  0  0  0  0  0  0  0  0  0  0
    0.6121   -0.8480   -0.7591 C   0  0  0  0  0  0  0  0  0  0  0  0
    1.9458   -0.2858   -0.4280 C   0  0  0  0  0  0  0  0  0  0  0  0
    3.0850   -0.7628   -1.0761 C   0  0  0  0  0  0  0  0  0  0  0  0
    2.0591    0.7205    0.5313 C   0  0  0  0  0  0  0  0  0  0  0  0
    3.3116    1.2500    0.8423 C   0  0  0  0  0  0  0  0  0  0  0  0
    4.3376   -0.2334   -0.7652 C   0  0  0  0  0  0  0  0  0  0  0  0
    4.4508    0.7729    0.1941 C   0  0  0  0  0  0  0  0  0  0  0  0
   -3.5294   -0.9357    0.8699 H   0  0  0  0  0  0  0  0  0  0  0  0
   -1.6764    1.3800    1.4895 H   0  0  0  0  0  0  0  0  0  0  0  0
   -1.8388   -1.1612   -0.9147 H   0  0  0  0  0  0  0  0  0  0  0  0
   -1.7140    1.1554   -1.1260 H   0  0  0  0  0  0  0  0  0  0  0  0
   -2.4102   -1.8379    2.5216 H   0  0  0  0  0  0  0  0  0  0  0  0
   -3.6000    2.4047    1.7428 H   0  0  0  0  0  0  0  0  0  0  0  0
   -2.9424    3.3720    0.1574 H   0  0  0  0  0  0  0  0  0  0  0  0
    2.9991   -1.5495   -1.8220 H   0  0  0  0  0  0  0  0  0  0  0  0
    1.1778    1.1102    1.0352 H   0  0  0  0  0  0  0  0  0  0  0  0
   -2.6670   -4.3477    0.2040 H   0  0  0  0  0  0  0  0  0  0  0  0
   -5.0289    0.1358   -1.9969 H   0  0  0  0  0  0  0  0  0  0  0  0
    2.5208    2.4330    2.1243 H   0  0  0  0  0  0  0  0  0  0  0  0
    5.1725   -1.4005   -2.0332 H   0  0  0  0  0  0  0  0  0  0  0  0
    5.5586    1.9748    1.1795 H   0  0  0  0  0  0  0  0  0  0  0  0
  1 15  1  0  0  0  0
  1 19  1  0  0  0  0
  2 13  1  0  0  0  0
  2 30  1  0  0  0  0
  3 14  1  0  0  0  0
  3 31  1  0  0  0  0
  4 16  1  0  0  0  0
  4 32  1  0  0  0  0
  5 17  1  0  0  0  0
  5 35  1  0  0  0  0
  6 18  1  0  0  0  0
  6 36  1  0  0  0  0
  7 17  2  0  0  0  0
  8 18  2  0  0  0  0
  9 19  2  0  0  0  0
 10 23  1  0  0  0  0
 10 37  1  0  0  0  0
 11 24  1  0  0  0  0
 11 38  1  0  0  0  0
 12 25  1  0  0  0  0
 12 39  1  0  0  0  0
 13 14  1  0  0  0  0
 13 15  1  0  0  0  0
 13 26  1  0  0  0  0
 14 16  1  0  0  0  0
 14 27  1  0  0  0  0
 15 17  1  0  0  0  0
 15 28  1  0  0  0  0
 16 18  1  0  0  0  0
 16 29  1  0  0  0  0
 19 20  1  0  0  0  0
 20 21  2  0  0  0  0
 20 22  1  0  0  0  0
 21 24  1  0  0  0  0
 21 33  1  0  0  0  0
 22 23  2  0  0  0  0
 22 34  1  0  0  0  0
 23 25  1  0  0  0  0
 24 25  2  0  0  0  0
M  END
> <PUBCHEM_COMPOUND_CID>
102039055

> <PUBCHEM_CONFORMER_RMSD>
0.8

> <PUBCHEM_CONFORMER_DIVERSEORDER>
1
117
77
95
97
40
75
64
111
85
128
46
79
51
101
140
84
93
137
39
74
127
143
16
146
81
6
34
139
120
29
62
90
72
119
115
73
116
100
82
126
7
130
52
129
108
87
102
66
42
11
136
59
48
80
96
105
125
132
53
15
135
147
112
12
122
89
76
55
18
32
131
10
57
36
123
107
106
20
27
113
45
56
38
98
21
88
83
133
14
141
31
124
86
49
110
114
145
69
144
65
54
118
47
33
61
104
70
9
99
50
5
19
142
121
60
35
67
26
30
44
78
37
68
71
23
25
94
3
24
41
92
109
4
138
2
58
103
13
91
134
17
43
63
22
8
28

> <PUBCHEM_MMFF94_PARTIAL_CHARGES>
35
1 -0.43
10 -0.53
11 -0.53
12 -0.53
13 0.28
14 0.28
15 0.34
16 0.34
17 0.66
18 0.66
19 0.63
2 -0.68
20 0.09
21 -0.15
22 -0.15
23 0.08
24 0.08
25 0.08
3 -0.68
30 0.4
31 0.4
32 0.4
33 0.15
34 0.15
35 0.5
36 0.5
37 0.45
38 0.45
39 0.45
4 -0.68
5 -0.65
6 -0.65
7 -0.57
8 -0.57
9 -0.57

> <PUBCHEM_EFFECTIVE_ROTOR_COUNT>
8

> <PUBCHEM_PHARMACOPHORE_FEATURES>
17
1 10 donor
1 11 donor
1 12 donor
1 2 acceptor
1 2 donor
1 3 acceptor
1 3 donor
1 4 acceptor
1 4 donor
1 5 acceptor
1 6 acceptor
1 7 acceptor
1 8 acceptor
1 9 acceptor
3 5 7 17 anion
3 6 8 18 anion
6 20 21 22 23 24 25 rings

> <PUBCHEM_HEAVY_ATOM_COUNT>
25

> <PUBCHEM_ATOM_DEF_STEREO_COUNT>
4

> <PUBCHEM_ATOM_UDEF_STEREO_COUNT>
0

> <PUBCHEM_BOND_DEF_STEREO_COUNT>
0

> <PUBCHEM_BOND_UDEF_STEREO_COUNT>
0

> <PUBCHEM_ISOTOPIC_ATOM_COUNT>
0

> <PUBCHEM_COMPONENT_COUNT>
1

> <PUBCHEM_CACTVS_TAUTO_COUNT>
9

> <PUBCHEM_CONFORMER_ID>
0614FE0F00000001

> <PUBCHEM_MMFF94_ENERGY>
54.0893

> <PUBCHEM_FEATURE_SELFOVERLAP>
86.425

> <PUBCHEM_SHAPE_FINGERPRINT>
105312 117 18114457877541023645
11045515 52 17481405493674407839
12077114 3 18333454235321198478
121448 382 18412252939992835639
12403259 415 18410299086033596653
12500047 106 18408044009318347566
12596602 18 16081386162469314660
13583140 156 18272932769386370374
14251764 30 14404319820371442189
14957384 54 17821443569194245036
17349148 13 15339124533196856366
200 152 16415477155540302717
20645477 56 18339091452917190331
20645477 70 17274833437252278990
20681677 76 18129660932345464674
21033648 144 18273496784280573940
21033648 29 18408040693234511800
21095088 737 17060047215856333280
23557571 272 18266174118143063098
23559900 14 18272097072256882710
4028521 119 18412819166705668989
59755656 520 18270411503282212403
81228 2 18121514697903522315
84936 182 17978221660977974309
9981440 41 18114742621262107697

> <PUBCHEM_SHAPE_MULTIPOLES>
444.06
10.19
3.14
1.65
8.72
1.55
-0.2
-5.49
1.74
-3.2
-0.34
-0.75
-0.26
2.27

> <PUBCHEM_SHAPE_SELFOVERLAP>
931.832

> <PUBCHEM_SHAPE_VOLUME>
247.5

> <PUBCHEM_COORDINATE_TYPE>
2
5
10

$$$$
