124213
  -OEChem-11242001343D

 51 53  0     1  0  0  0  0  0999 V2000
   -3.2366    0.6675    2.7381 O   0  0  0  0  0  0  0  0  0  0  0  0
    1.5063    0.4770   -1.3485 O   0  0  0  0  0  0  0  0  0  0  0  0
   -2.3109   -1.9800    0.2168 O   0  0  0  0  0  0  0  0  0  0  0  0
    1.4531   -2.3158   -0.7949 O   0  0  0  0  0  0  0  0  0  0  0  0
   -0.5105   -2.6960   -1.8773 O   0  0  0  0  0  0  0  0  0  0  0  0
    3.2525    2.5248   -1.5667 O   0  0  0  0  0  0  0  0  0  0  0  0
   -4.4908    1.3491    0.7957 C   0  0  0  0  0  0  0  0  0  0  0  0
   -4.9244    1.0971   -0.6616 C   0  0  0  0  0  0  0  0  0  0  0  0
   -3.4554    0.3474    1.3558 C   0  0  1  0  0  0  0  0  0  0  0  0
   -2.1365    0.3570    0.6544 C   0  0  0  0  0  0  0  0  0  0  0  0
   -1.6139   -0.8135    0.1027 C   0  0  0  0  0  0  0  0  0  0  0  0
   -5.4905   -0.3195   -0.7938 C   0  0  0  0  0  0  0  0  0  0  0  0
   -5.9621    2.1122   -1.1426 C   0  0  0  0  0  0  0  0  0  0  0  0
   -0.3733   -0.7767   -0.5360 C   0  0  0  0  0  0  0  0  0  0  0  0
   -1.4307    1.5586    0.5561 C   0  0  0  0  0  0  0  0  0  0  0  0
    0.3315    0.4261   -0.6372 C   0  0  0  0  0  0  0  0  0  0  0  0
   -0.1990    1.5986   -0.0976 C   0  0  0  0  0  0  0  0  0  0  0  0
    2.9648   -0.6728    0.2460 C   0  0  0  0  0  0  0  0  0  0  0  0
    2.6507    0.4171   -0.5830 C   0  0  0  0  0  0  0  0  0  0  0  0
    0.1675   -2.0161   -1.1187 C   0  0  0  0  0  0  0  0  0  0  0  0
    2.0596   -1.8633    0.4396 C   0  0  0  0  0  0  0  0  0  0  0  0
    4.1677   -0.6250    0.9703 C   0  0  0  0  0  0  0  0  0  0  0  0
    3.5423    1.4863   -0.7323 C   0  0  0  0  0  0  0  0  0  0  0  0
    5.0464    0.4526    0.8393 C   0  0  0  0  0  0  0  0  0  0  0  0
    4.7364    1.5050   -0.0167 C   0  0  0  0  0  0  0  0  0  0  0  0
   -2.0646   -2.7697    1.3778 C   0  0  0  0  0  0  0  0  0  0  0  0
    6.3206    0.4720    1.6144 C   0  0  0  0  0  0  0  0  0  0  0  0
   -4.1162    2.3765    0.8906 H   0  0  0  0  0  0  0  0  0  0  0  0
   -5.3764    1.3212    1.4465 H   0  0  0  0  0  0  0  0  0  0  0  0
   -4.0505    1.1827   -1.3186 H   0  0  0  0  0  0  0  0  0  0  0  0
   -3.9137   -0.6442    1.3691 H   0  0  0  0  0  0  0  0  0  0  0  0
   -5.9085   -0.4740   -1.7951 H   0  0  0  0  0  0  0  0  0  0  0  0
   -4.7214   -1.0832   -0.6577 H   0  0  0  0  0  0  0  0  0  0  0  0
   -6.2907   -0.5004   -0.0680 H   0  0  0  0  0  0  0  0  0  0  0  0
   -6.8762    2.0601   -0.5415 H   0  0  0  0  0  0  0  0  0  0  0  0
   -5.5666    3.1306   -1.0697 H   0  0  0  0  0  0  0  0  0  0  0  0
   -6.2315    1.9313   -2.1884 H   0  0  0  0  0  0  0  0  0  0  0  0
   -1.8210    2.4774    0.9851 H   0  0  0  0  0  0  0  0  0  0  0  0
    0.3331    2.5413   -0.1869 H   0  0  0  0  0  0  0  0  0  0  0  0
   -2.4789    0.1465    3.0548 H   0  0  0  0  0  0  0  0  0  0  0  0
    2.6450   -2.7181    0.7977 H   0  0  0  0  0  0  0  0  0  0  0  0
    1.3082   -1.6598    1.2114 H   0  0  0  0  0  0  0  0  0  0  0  0
    4.4227   -1.4424    1.6424 H   0  0  0  0  0  0  0  0  0  0  0  0
    5.4239    2.3405   -0.1226 H   0  0  0  0  0  0  0  0  0  0  0  0
   -2.1830   -2.1829    2.2938 H   0  0  0  0  0  0  0  0  0  0  0  0
   -1.0578   -3.1969    1.3398 H   0  0  0  0  0  0  0  0  0  0  0  0
   -2.7889   -3.5886    1.3932 H   0  0  0  0  0  0  0  0  0  0  0  0
    6.7159   -0.5408    1.7474 H   0  0  0  0  0  0  0  0  0  0  0  0
    7.0926    1.0508    1.0959 H   0  0  0  0  0  0  0  0  0  0  0  0
    6.1536    0.9169    2.6003 H   0  0  0  0  0  0  0  0  0  0  0  0
    3.9806    3.1690   -1.5381 H   0  0  0  0  0  0  0  0  0  0  0  0
  1  9  1  0  0  0  0
  1 40  1  0  0  0  0
  2 16  1  0  0  0  0
  2 19  1  0  0  0  0
  3 11  1  0  0  0  0
  3 26  1  0  0  0  0
  4 20  1  0  0  0  0
  4 21  1  0  0  0  0
  5 20  2  0  0  0  0
  6 23  1  0  0  0  0
  6 51  1  0  0  0  0
  7  8  1  0  0  0  0
  7  9  1  0  0  0  0
  7 28  1  0  0  0  0
  7 29  1  0  0  0  0
  8 12  1  0  0  0  0
  8 13  1  0  0  0  0
  8 30  1  0  0  0  0
  9 10  1  0  0  0  0
  9 31  1  0  0  0  0
 10 11  2  0  0  0  0
 10 15  1  0  0  0  0
 11 14  1  0  0  0  0
 12 32  1  0  0  0  0
 12 33  1  0  0  0  0
 12 34  1  0  0  0  0
 13 35  1  0  0  0  0
 13 36  1  0  0  0  0
 13 37  1  0  0  0  0
 14 16  2  0  0  0  0
 14 20  1  0  0  0  0
 15 17  2  0  0  0  0
 15 38  1  0  0  0  0
 16 17  1  0  0  0  0
 17 39  1  0  0  0  0
 18 19  2  0  0  0  0
 18 21  1  0  0  0  0
 18 22  1  0  0  0  0
 19 23  1  0  0  0  0
 21 41  1  0  0  0  0
 21 42  1  0  0  0  0
 22 24  2  0  0  0  0
 22 43  1  0  0  0  0
 23 25  2  0  0  0  0
 24 25  1  0  0  0  0
 24 27  1  0  0  0  0
 25 44  1  0  0  0  0
 26 45  1  0  0  0  0
 26 46  1  0  0  0  0
 26 47  1  0  0  0  0
 27 48  1  0  0  0  0
 27 49  1  0  0  0  0
 27 50  1  0  0  0  0
M  END
> <PUBCHEM_COMPOUND_CID>
124213

> <PUBCHEM_CONFORMER_RMSD>
0.8

> <PUBCHEM_CONFORMER_DIVERSEORDER>
1
20
24
23
14
2
21
22
4
15
12
11
6
19
8
10
9
7
13
17
3
5
16
18

> <PUBCHEM_MMFF94_PARTIAL_CHARGES>
29
1 -0.68
10 -0.14
11 0.08
14 0.09
15 -0.15
16 0.08
17 -0.15
18 -0.14
19 0.08
2 -0.17
20 0.63
21 0.42
22 -0.15
23 0.08
24 -0.14
25 -0.15
26 0.28
27 0.14
3 -0.36
38 0.15
39 0.15
4 -0.43
40 0.4
43 0.15
44 0.15
5 -0.57
51 0.45
6 -0.53
9 0.42

> <PUBCHEM_EFFECTIVE_ROTOR_COUNT>
4.6

> <PUBCHEM_PHARMACOPHORE_FEATURES>
9
1 1 acceptor
1 1 donor
1 2 acceptor
1 3 acceptor
1 5 acceptor
1 6 donor
3 8 12 13 hydrophobe
6 10 11 14 15 16 17 rings
6 18 19 22 23 24 25 rings

> <PUBCHEM_HEAVY_ATOM_COUNT>
27

> <PUBCHEM_ATOM_DEF_STEREO_COUNT>
1

> <PUBCHEM_ATOM_UDEF_STEREO_COUNT>
0

> <PUBCHEM_BOND_DEF_STEREO_COUNT>
0

> <PUBCHEM_BOND_UDEF_STEREO_COUNT>
0

> <PUBCHEM_ISOTOPIC_ATOM_COUNT>
0

> <PUBCHEM_COMPONENT_COUNT>
1

> <PUBCHEM_CACTVS_TAUTO_COUNT>
9

> <PUBCHEM_CONFORMER_ID>
0001E53500000001

> <PUBCHEM_MMFF94_ENERGY>
108.9507

> <PUBCHEM_FEATURE_SELFOVERLAP>
45.674

> <PUBCHEM_SHAPE_FINGERPRINT>
10366900 7 17846780702148835960
10906281 52 18340783563122030817
10928967 22 10737570582696581897
12236239 1 18335133228695702770
12403259 118 18335136552768300856
12422481 6 18114176424034095476
12633257 1 17748824142236959442
13140716 1 18339083820929318288
13583140 156 17531539779416011385
14117953 113 18335137545059123924
14251764 30 9150879603676017489
14251764 38 18116434743793441125
14341114 328 18187936126807293754
17349148 13 18413113840333027917
1813 80 12396303655354193286
19784866 140 9295287248595605760
20157964 124 18336543807820226381
20511986 3 18337654386987795849
20715895 44 18188767220180615877
21033648 29 17968387732258574301
21859007 373 17096635505659782877
221357 26 9727632808712647296
22149856 69 18058752242755841907
22182313 1 18056789648026803535
22950370 63 9223225261149077469
23559900 14 18268448857651818598
23569917 315 18272653445593014599
23622692 88 18408602552993824548
2838139 119 17967522459916455941
34797466 226 15339116853632248833
34934 24 18334853926518828290
3633792 109 18268142059610921925
4340502 62 18187647981672733379
5104073 3 18188767387874043568
59755656 215 18340493262303648670
7064713 232 18343303678243193984
9981440 41 18272657835444567027

> <PUBCHEM_SHAPE_MULTIPOLES>
520.43
12.3
2.66
1.63
0.1
1.16
0.44
-6.96
2.32
0.63
-0.69
0.5
0.12
-0.08

> <PUBCHEM_SHAPE_SELFOVERLAP>
1121.221

> <PUBCHEM_SHAPE_VOLUME>
284.6

> <PUBCHEM_COORDINATE_TYPE>
2
5
10

$$$$
