10121947
  -OEChem-08222016213D

 74 78  0     1  0  0  0  0  0999 V2000
    2.8942   -2.0568    0.2612 O   0  0  0  0  0  0  0  0  0  0  0  0
   -4.7634    0.0321   -0.7891 O   0  0  0  0  0  0  0  0  0  0  0  0
    3.2629   -0.0914    1.4632 O   0  0  0  0  0  0  0  0  0  0  0  0
   -4.4058    1.1047    1.2519 O   0  0  0  0  0  0  0  0  0  0  0  0
    6.9262   -2.7651   -0.0681 O   0  0  0  0  0  0  0  0  0  0  0  0
    5.0769   -4.1469   -1.8078 O   0  0  0  0  0  0  0  0  0  0  0  0
   -8.7761    0.9012   -0.6902 O   0  0  0  0  0  0  0  0  0  0  0  0
   -7.7928   -1.1498   -2.4742 O   0  0  0  0  0  0  0  0  0  0  0  0
    5.9392   -0.0574    0.5445 O   0  0  0  0  0  0  0  0  0  0  0  0
   -7.1812    0.9659    1.7862 O   0  0  0  0  0  0  0  0  0  0  0  0
    0.9623   -3.4845   -1.0751 O   0  0  0  0  0  0  0  0  0  0  0  0
   -3.5937   -1.6518   -2.6200 O   0  0  0  0  0  0  0  0  0  0  0  0
    0.2384    1.8114    0.5579 O   0  0  0  0  0  0  0  0  0  0  0  0
    1.1961   -1.6591    2.4665 O   0  0  0  0  0  0  0  0  0  0  0  0
   -1.3403   -2.1342    2.8877 O   0  0  0  0  0  0  0  0  0  0  0  0
    4.2069    2.9368   -3.0865 O   0  0  0  0  0  0  0  0  0  0  0  0
    5.2250    5.0221   -1.5579 O   0  0  0  0  0  0  0  0  0  0  0  0
    5.6657   -2.2286   -0.4727 C   0  0  1  0  0  0  0  0  0  0  0  0
    4.6940   -3.3938   -0.6600 C   0  0  1  0  0  0  0  0  0  0  0  0
   -7.6118    0.1153   -0.4306 C   0  0  1  0  0  0  0  0  0  0  0  0
   -6.9638   -0.2272   -1.7722 C   0  0  1  0  0  0  0  0  0  0  0  0
    5.1621   -1.2538    0.5919 C   0  0  2  0  0  0  0  0  0  0  0  0
    3.2629   -2.8834   -0.8442 C   0  0  1  0  0  0  0  0  0  0  0  0
   -6.6535    0.9046    0.4614 C   0  0  2  0  0  0  0  0  0  0  0  0
   -5.5800   -0.8472   -1.5644 C   0  0  1  0  0  0  0  0  0  0  0  0
    3.6976   -0.8830    0.3581 C   0  0  1  0  0  0  0  0  0  0  0  0
   -5.2780    0.2407    0.5240 C   0  0  1  0  0  0  0  0  0  0  0  0
    2.2593   -4.0299   -0.9160 C   0  0  0  0  0  0  0  0  0  0  0  0
   -4.8651   -1.0898   -2.8898 C   0  0  0  0  0  0  0  0  0  0  0  0
    1.9417    0.2721    1.3165 C   0  0  0  0  0  0  0  0  0  0  0  0
   -3.1191    0.6815    1.4091 C   0  0  0  0  0  0  0  0  0  0  0  0
   -0.4910   -0.1844    1.7312 C   0  0  0  0  0  0  0  0  0  0  0  0
    0.9051   -0.6194    1.8905 C   0  0  0  0  0  0  0  0  0  0  0  0
    1.5550    1.4004    0.6937 C   0  0  0  0  0  0  0  0  0  0  0  0
   -0.7519    1.0139    1.0704 C   0  0  0  0  0  0  0  0  0  0  0  0
   -2.0675    1.4494    0.9085 C   0  0  0  0  0  0  0  0  0  0  0  0
   -2.8563   -0.5188    2.0704 C   0  0  0  0  0  0  0  0  0  0  0  0
   -1.5414   -0.9561    2.2341 C   0  0  0  0  0  0  0  0  0  0  0  0
    2.5166    2.3470    0.1011 C   0  0  0  0  0  0  0  0  0  0  0  0
    2.9148    2.1974   -1.2275 C   0  0  0  0  0  0  0  0  0  0  0  0
    3.0292    3.3933    0.8686 C   0  0  0  0  0  0  0  0  0  0  0  0
    3.8246    3.0936   -1.7886 C   0  0  0  0  0  0  0  0  0  0  0  0
    3.9392    4.2894    0.3076 C   0  0  0  0  0  0  0  0  0  0  0  0
    4.3369    4.1396   -1.0210 C   0  0  0  0  0  0  0  0  0  0  0  0
    5.8414   -1.7028   -1.4194 H   0  0  0  0  0  0  0  0  0  0  0  0
    4.7561   -4.0630    0.2070 H   0  0  0  0  0  0  0  0  0  0  0  0
   -7.9580   -0.7908    0.0817 H   0  0  0  0  0  0  0  0  0  0  0  0
   -6.8918    0.6802   -2.3843 H   0  0  0  0  0  0  0  0  0  0  0  0
    5.2992   -1.6866    1.5907 H   0  0  0  0  0  0  0  0  0  0  0  0
    3.1699   -2.2937   -1.7664 H   0  0  0  0  0  0  0  0  0  0  0  0
   -6.5682    1.9384    0.1060 H   0  0  0  0  0  0  0  0  0  0  0  0
   -5.6535   -1.8087   -1.0381 H   0  0  0  0  0  0  0  0  0  0  0  0
    3.6140   -0.3052   -0.5682 H   0  0  0  0  0  0  0  0  0  0  0  0
   -5.3584   -0.7200    1.0494 H   0  0  0  0  0  0  0  0  0  0  0  0
    2.2645   -4.6110    0.0122 H   0  0  0  0  0  0  0  0  0  0  0  0
    2.4673   -4.6940   -1.7603 H   0  0  0  0  0  0  0  0  0  0  0  0
   -4.7073   -0.1545   -3.4372 H   0  0  0  0  0  0  0  0  0  0  0  0
   -5.4197   -1.7831   -3.5285 H   0  0  0  0  0  0  0  0  0  0  0  0
    7.2122   -3.3880   -0.7581 H   0  0  0  0  0  0  0  0  0  0  0  0
    5.0187   -3.5629   -2.5832 H   0  0  0  0  0  0  0  0  0  0  0  0
   -9.3571    0.3782   -1.2689 H   0  0  0  0  0  0  0  0  0  0  0  0
   -7.8567   -1.9612   -1.9420 H   0  0  0  0  0  0  0  0  0  0  0  0
    5.5767    0.5523    1.2100 H   0  0  0  0  0  0  0  0  0  0  0  0
   -7.2663    0.0563    2.1196 H   0  0  0  0  0  0  0  0  0  0  0  0
   -2.2751    2.3838    0.3931 H   0  0  0  0  0  0  0  0  0  0  0  0
    0.3395   -4.2304   -1.1113 H   0  0  0  0  0  0  0  0  0  0  0  0
   -3.1130   -1.0309   -2.0460 H   0  0  0  0  0  0  0  0  0  0  0  0
   -3.6683   -1.1144    2.4796 H   0  0  0  0  0  0  0  0  0  0  0  0
    2.5127    1.3919   -1.8383 H   0  0  0  0  0  0  0  0  0  0  0  0
    2.7283    3.5231    1.9053 H   0  0  0  0  0  0  0  0  0  0  0  0
   -0.3944   -2.3409    2.9337 H   0  0  0  0  0  0  0  0  0  0  0  0
    4.3344    5.1022    0.9108 H   0  0  0  0  0  0  0  0  0  0  0  0
    4.5364    3.7808   -3.4351 H   0  0  0  0  0  0  0  0  0  0  0  0
    5.6659    4.6183   -2.3227 H   0  0  0  0  0  0  0  0  0  0  0  0
  1 23  1  0  0  0  0
  1 26  1  0  0  0  0
  2 25  1  0  0  0  0
  2 27  1  0  0  0  0
  3 26  1  0  0  0  0
  3 30  1  0  0  0  0
  4 27  1  0  0  0  0
  4 31  1  0  0  0  0
  5 18  1  0  0  0  0
  5 59  1  0  0  0  0
  6 19  1  0  0  0  0
  6 60  1  0  0  0  0
  7 20  1  0  0  0  0
  7 61  1  0  0  0  0
  8 21  1  0  0  0  0
  8 62  1  0  0  0  0
  9 22  1  0  0  0  0
  9 63  1  0  0  0  0
 10 24  1  0  0  0  0
 10 64  1  0  0  0  0
 11 28  1  0  0  0  0
 11 66  1  0  0  0  0
 12 29  1  0  0  0  0
 12 67  1  0  0  0  0
 13 34  1  0  0  0  0
 13 35  1  0  0  0  0
 14 33  2  0  0  0  0
 15 38  1  0  0  0  0
 15 71  1  0  0  0  0
 16 42  1  0  0  0  0
 16 73  1  0  0  0  0
 17 44  1  0  0  0  0
 17 74  1  0  0  0  0
 18 19  1  0  0  0  0
 18 22  1  0  0  0  0
 18 45  1  0  0  0  0
 19 23  1  0  0  0  0
 19 46  1  0  0  0  0
 20 21  1  0  0  0  0
 20 24  1  0  0  0  0
 20 47  1  0  0  0  0
 21 25  1  0  0  0  0
 21 48  1  0  0  0  0
 22 26  1  0  0  0  0
 22 49  1  0  0  0  0
 23 28  1  0  0  0  0
 23 50  1  0  0  0  0
 24 27  1  0  0  0  0
 24 51  1  0  0  0  0
 25 29  1  0  0  0  0
 25 52  1  0  0  0  0
 26 53  1  0  0  0  0
 27 54  1  0  0  0  0
 28 55  1  0  0  0  0
 28 56  1  0  0  0  0
 29 57  1  0  0  0  0
 29 58  1  0  0  0  0
 30 33  1  0  0  0  0
 30 34  2  0  0  0  0
 31 36  1  0  0  0  0
 31 37  2  0  0  0  0
 32 33  1  0  0  0  0
 32 35  1  0  0  0  0
 32 38  2  0  0  0  0
 34 39  1  0  0  0  0
 35 36  2  0  0  0  0
 36 65  1  0  0  0  0
 37 38  1  0  0  0  0
 37 68  1  0  0  0  0
 39 40  2  0  0  0  0
 39 41  1  0  0  0  0
 40 42  1  0  0  0  0
 40 69  1  0  0  0  0
 41 43  2  0  0  0  0
 41 70  1  0  0  0  0
 42 44  2  0  0  0  0
 43 44  1  0  0  0  0
 43 72  1  0  0  0  0
M  END
> <PUBCHEM_COMPOUND_CID>
10121947

> <PUBCHEM_CONFORMER_RMSD>
1.2

> <PUBCHEM_CONFORMER_DIVERSEORDER>
1
45
83
211
115
23
153
208
167
166
124
230
227
10
154
173
110
92
206
53
217
143
159
94
187
134
156
223
174
19
192
123
184
221
163
64
161
160
207
7
197
147
75
46
84
142
99
50
133
130
128
171
215
13
180
118
169
119
213
91
96
42
198
15
204
185
140
56
155
170
8
22
188
122
26
229
79
218
76
132
152
137
214
58
181
12
103
88
178
175
164
21
107
138
212
148
157
20
29
111
57
89
41
209
16
193
52
63
101
74
231
14
85
177
30
28
68
25
27
71
162
113
35
100
179
97
139
98
151
90
194
200
47
196
3
150
136
112
127
144
87
145
93
183
158
38
141
51
31
165
34
43
104
189
129
117
9
77
224
49
48
186
109
149
176
210
60
116
182
131
191
65
126
146
108
17
225
168
120
6
11
18
199
86
67
125
190
222
61
121
33
5
81
172
73
216
66
36
2
59
40
226
37
106
219
202
95
102
4
62
24
54
135
220
80
39
228
78
82
55
114
70
44
105
69
195
32
201
72
203
205

> <PUBCHEM_MMFF94_PARTIAL_CHARGES>
60
1 -0.56
10 -0.68
11 -0.68
12 -0.68
13 -0.16
14 -0.57
15 -0.53
16 -0.53
17 -0.53
18 0.28
19 0.28
2 -0.56
20 0.28
21 0.28
22 0.28
23 0.28
24 0.28
25 0.28
26 0.56
27 0.56
28 0.28
29 0.28
3 -0.36
30 0.09
31 0.08
32 0.09
33 0.47
34 0.05
35 0.08
36 -0.15
37 -0.15
38 0.08
39 0.03
4 -0.36
40 -0.15
41 -0.15
42 0.08
43 -0.15
44 0.08
5 -0.68
59 0.4
6 -0.68
60 0.4
61 0.4
62 0.4
63 0.4
64 0.4
65 0.15
66 0.4
67 0.4
68 0.15
69 0.15
7 -0.68
70 0.15
71 0.45
72 0.15
73 0.45
74 0.45
8 -0.68
9 -0.68

> <PUBCHEM_EFFECTIVE_ROTOR_COUNT>
9.4

> <PUBCHEM_PHARMACOPHORE_FEATURES>
30
1 1 acceptor
1 10 acceptor
1 10 donor
1 11 acceptor
1 11 donor
1 12 acceptor
1 12 donor
1 13 acceptor
1 14 acceptor
1 15 donor
1 16 donor
1 17 donor
1 2 acceptor
1 3 acceptor
1 4 acceptor
1 5 acceptor
1 5 donor
1 6 acceptor
1 6 donor
1 7 acceptor
1 7 donor
1 8 acceptor
1 8 donor
1 9 acceptor
1 9 donor
6 1 18 19 22 23 26 rings
6 13 30 32 33 34 35 rings
6 2 20 21 24 25 27 rings
6 31 32 35 36 37 38 rings
6 39 40 41 42 43 44 rings

> <PUBCHEM_HEAVY_ATOM_COUNT>
44

> <PUBCHEM_ATOM_DEF_STEREO_COUNT>
10

> <PUBCHEM_ATOM_UDEF_STEREO_COUNT>
0

> <PUBCHEM_BOND_DEF_STEREO_COUNT>
0

> <PUBCHEM_BOND_UDEF_STEREO_COUNT>
0

> <PUBCHEM_ISOTOPIC_ATOM_COUNT>
0

> <PUBCHEM_COMPONENT_COUNT>
1

> <PUBCHEM_CACTVS_TAUTO_COUNT>
57

> <PUBCHEM_CONFORMER_ID>
009A72DB00000001

> <PUBCHEM_MMFF94_ENERGY>
148.1522

> <PUBCHEM_FEATURE_SELFOVERLAP>
152.453

> <PUBCHEM_SHAPE_FINGERPRINT>
10554248 39 18334577975108028345
10556698 54 17460294595569159957
11017883 126 18272083860315495391
11297010 23 18262806297496903652
11578080 2 16950848132465542846
117089 54 18058719347665495951
11763715 3 17345769481968873368
11796584 16 16415477156199640451
12120059 9 13901901173626477285
12728209 76 18042944593905133189
13540713 4 17751097983300445600
1361 2 18342457006792296442
140371 6 18193864573545981768
14068700 675 17988081067975689898
14415361 349 17988373589893772310
15082195 135 18412830204882246618
15264996 154 17632581539402685207
15406563 228 18412823603407438174
15439362 3 18188217619212416888
15448158 6 17199390283388076246
18365409 1 17916854859490205494
20775438 99 18338510949448527354
21033648 29 16225759757526665985
21223535 225 17969211240862141861
22121540 332 16950826069155097524
23522609 53 17845117163248896177
23559900 14 18334305275181631088
25223398 141 17560509591868538833
376196 1 17754175598373631192
4093350 32 18335134311117541733
46194498 28 18334288760394158397

> <PUBCHEM_SHAPE_MULTIPOLES>
805.72
19.74
5.34
2.71
35.51
1.51
0.61
-0.78
10.12
-14.94
3.16
2.32
-0.41
-2.6

> <PUBCHEM_SHAPE_SELFOVERLAP>
1755.185

> <PUBCHEM_SHAPE_VOLUME>
430.6

> <PUBCHEM_COORDINATE_TYPE>
2
5
10

$$$$
