44256812
  -OEChem-08222016233D

 83 88  0     1  0  0  0  0  0999 V2000
    4.6838    0.6165   -0.4106 O   0  0  0  0  0  0  0  0  0  0  0  0
   -1.0259   -1.9260   -0.4214 O   0  0  0  0  0  0  0  0  0  0  0  0
    2.7413    1.4636   -1.4043 O   0  3  0  0  0  0  0  0  0  0  0  0
   -1.9719   -0.1284   -1.6599 O   0  0  0  0  0  0  0  0  0  0  0  0
    4.2994   -2.6702   -1.9687 O   0  0  0  0  0  0  0  0  0  0  0  0
   -2.4022   -5.1505    0.6420 O   0  0  0  0  0  0  0  0  0  0  0  0
    5.0698   -0.9250   -4.1871 O   0  0  0  0  0  0  0  0  0  0  0  0
   -3.9847   -4.4800   -1.7018 O   0  0  0  0  0  0  0  0  0  0  0  0
    4.0175    1.7446   -3.8295 O   0  0  0  0  0  0  0  0  0  0  0  0
   -4.3526   -1.6011   -1.9107 O   0  0  0  0  0  0  0  0  0  0  0  0
    3.4443   -1.4371    1.6201 O   0  0  0  0  0  0  0  0  0  0  0  0
    0.8188   -2.6110    1.6885 O   0  0  0  0  0  0  0  0  0  0  0  0
   -1.4985    2.7932    0.5472 O   0  0  0  0  0  0  0  0  0  0  0  0
    1.7723    0.7647    3.8595 O   0  0  0  0  0  0  0  0  0  0  0  0
    4.0900    0.5561    2.5779 O   0  0  0  0  0  0  0  0  0  0  0  0
   -0.3486   -3.1406    3.6030 O   0  0  0  0  0  0  0  0  0  0  0  0
    2.5622    4.5616    2.3522 O   0  0  0  0  0  0  0  0  0  0  0  0
   -6.5752    2.0779   -2.1508 O   0  0  0  0  0  0  0  0  0  0  0  0
   -7.7249    1.7602    0.3602 O   0  0  0  0  0  0  0  0  0  0  0  0
    4.7885   -1.3401   -1.8209 C   0  0  1  0  0  0  0  0  0  0  0  0
   -2.0793   -4.1038   -0.2699 C   0  0  1  0  0  0  0  0  0  0  0  0
    4.3477   -0.5046   -3.0289 C   0  0  1  0  0  0  0  0  0  0  0  0
   -3.3712   -3.5197   -0.8403 C   0  0  1  0  0  0  0  0  0  0  0  0
    4.2107   -0.7326   -0.5423 C   0  0  1  0  0  0  0  0  0  0  0  0
   -1.2653   -3.0293    0.4597 C   0  0  1  0  0  0  0  0  0  0  0  0
    4.6355    0.9781   -2.8015 C   0  0  2  0  0  0  0  0  0  0  0  0
   -3.1067   -2.2354   -1.6241 C   0  0  2  0  0  0  0  0  0  0  0  0
    4.1495    1.4614   -1.4333 C   0  0  2  0  0  0  0  0  0  0  0  0
   -2.2369   -1.2693   -0.8162 C   0  0  1  0  0  0  0  0  0  0  0  0
    4.5868   -1.4893    0.7340 C   0  0  0  0  0  0  0  0  0  0  0  0
    0.0920   -3.5814    0.9076 C   0  0  0  0  0  0  0  0  0  0  0  0
    2.1183    2.1293   -0.4706 C   0  0  0  0  0  0  0  0  0  0  0  0
   -1.4290    0.9168   -0.9464 C   0  0  0  0  0  0  0  0  0  0  0  0
    0.6282    2.0113   -0.3558 C   0  0  0  0  0  0  0  0  0  0  0  0
    0.0018    1.0770   -1.0842 C   0  0  0  0  0  0  0  0  0  0  0  0
   -2.1289    1.7967   -0.1988 C   0  0  0  0  0  0  0  0  0  0  0  0
   -0.1090    2.8654    0.5570 C   0  0  0  0  0  0  0  0  0  0  0  0
    2.7376    3.0247    0.5655 C   0  0  0  0  0  0  0  0  0  0  0  0
    1.8618   -0.3437    2.9720 C   0  0  1  0  0  0  0  0  0  0  0  0
    3.2722   -0.3377    2.4074 C   0  0  0  0  0  0  0  0  0  0  0  0
    1.5264   -1.6272    3.7318 C   0  0  0  0  0  0  0  0  0  0  0  0
    0.5332   -2.5231    3.0179 C   0  0  0  0  0  0  0  0  0  0  0  0
    0.5347    3.6960    1.3873 C   0  0  0  0  0  0  0  0  0  0  0  0
    1.9791    3.7392    1.4093 C   0  0  0  0  0  0  0  0  0  0  0  0
   -3.5938    1.7873   -0.0556 C   0  0  0  0  0  0  0  0  0  0  0  0
   -4.4050    1.9385   -1.1802 C   0  0  0  0  0  0  0  0  0  0  0  0
   -4.1708    1.6276    1.2043 C   0  0  0  0  0  0  0  0  0  0  0  0
   -5.7934    1.9298   -1.0450 C   0  0  0  0  0  0  0  0  0  0  0  0
   -5.5592    1.6193    1.3394 C   0  0  0  0  0  0  0  0  0  0  0  0
   -6.3704    1.7702    0.2148 C   0  0  0  0  0  0  0  0  0  0  0  0
    5.8825   -1.3892   -1.7717 H   0  0  0  0  0  0  0  0  0  0  0  0
   -1.4889   -4.5467   -1.0811 H   0  0  0  0  0  0  0  0  0  0  0  0
    3.2866   -0.6649   -3.2538 H   0  0  0  0  0  0  0  0  0  0  0  0
   -4.0947   -3.3361   -0.0368 H   0  0  0  0  0  0  0  0  0  0  0  0
    3.1137   -0.7243   -0.6126 H   0  0  0  0  0  0  0  0  0  0  0  0
   -1.8044   -2.6611    1.3420 H   0  0  0  0  0  0  0  0  0  0  0  0
    5.7180    1.1427   -2.8779 H   0  0  0  0  0  0  0  0  0  0  0  0
   -2.6366   -2.4624   -2.5882 H   0  0  0  0  0  0  0  0  0  0  0  0
    4.5306    2.4794   -1.2974 H   0  0  0  0  0  0  0  0  0  0  0  0
   -2.7836   -0.9431    0.0789 H   0  0  0  0  0  0  0  0  0  0  0  0
    4.7612   -2.5519    0.5429 H   0  0  0  0  0  0  0  0  0  0  0  0
    5.4724   -1.0777    1.2307 H   0  0  0  0  0  0  0  0  0  0  0  0
   -0.0077   -4.5092    1.4824 H   0  0  0  0  0  0  0  0  0  0  0  0
    0.7195   -3.7975    0.0357 H   0  0  0  0  0  0  0  0  0  0  0  0
    3.3281   -2.6330   -1.9978 H   0  0  0  0  0  0  0  0  0  0  0  0
   -2.9112   -4.7641    1.3750 H   0  0  0  0  0  0  0  0  0  0  0  0
    6.0194   -0.8197   -4.0064 H   0  0  0  0  0  0  0  0  0  0  0  0
   -3.3685   -4.6663   -2.4306 H   0  0  0  0  0  0  0  0  0  0  0  0
    4.2209    2.6805   -3.6608 H   0  0  0  0  0  0  0  0  0  0  0  0
   -4.7737   -1.3673   -1.0659 H   0  0  0  0  0  0  0  0  0  0  0  0
    0.5315    0.4160   -1.7622 H   0  0  0  0  0  0  0  0  0  0  0  0
    3.8173    3.0857    0.6165 H   0  0  0  0  0  0  0  0  0  0  0  0
    1.1614   -0.1507    2.1521 H   0  0  0  0  0  0  0  0  0  0  0  0
    1.0770   -1.3746    4.7005 H   0  0  0  0  0  0  0  0  0  0  0  0
    2.4190   -2.2288    3.9383 H   0  0  0  0  0  0  0  0  0  0  0  0
   -0.0115    4.3354    2.0730 H   0  0  0  0  0  0  0  0  0  0  0  0
   -3.9602    2.0682   -2.1646 H   0  0  0  0  0  0  0  0  0  0  0  0
   -3.5528    1.5051    2.0906 H   0  0  0  0  0  0  0  0  0  0  0  0
    1.8727    1.5743    3.3307 H   0  0  0  0  0  0  0  0  0  0  0  0
    3.5287    4.4986    2.2626 H   0  0  0  0  0  0  0  0  0  0  0  0
   -5.9955    1.4932    2.3266 H   0  0  0  0  0  0  0  0  0  0  0  0
   -6.0045    2.1741   -2.9325 H   0  0  0  0  0  0  0  0  0  0  0  0
   -7.9416    1.6396    1.3007 H   0  0  0  0  0  0  0  0  0  0  0  0
  1 24  1  0  0  0  0
  1 28  1  0  0  0  0
  2 25  1  0  0  0  0
  2 29  1  0  0  0  0
  3 28  1  0  0  0  0
  3 32  2  0  0  0  0
  4 29  1  0  0  0  0
  4 33  1  0  0  0  0
  5 20  1  0  0  0  0
  5 65  1  0  0  0  0
  6 21  1  0  0  0  0
  6 66  1  0  0  0  0
  7 22  1  0  0  0  0
  7 67  1  0  0  0  0
  8 23  1  0  0  0  0
  8 68  1  0  0  0  0
  9 26  1  0  0  0  0
  9 69  1  0  0  0  0
 10 27  1  0  0  0  0
 10 70  1  0  0  0  0
 11 30  1  0  0  0  0
 11 40  1  0  0  0  0
 12 31  1  0  0  0  0
 12 42  1  0  0  0  0
 13 36  1  0  0  0  0
 13 37  1  0  0  0  0
 14 39  1  0  0  0  0
 14 79  1  0  0  0  0
 15 40  2  0  0  0  0
 16 42  2  0  0  0  0
 17 44  1  0  0  0  0
 17 80  1  0  0  0  0
 18 48  1  0  0  0  0
 18 82  1  0  0  0  0
 19 50  1  0  0  0  0
 19 83  1  0  0  0  0
 20 22  1  0  0  0  0
 20 24  1  0  0  0  0
 20 51  1  0  0  0  0
 21 23  1  0  0  0  0
 21 25  1  0  0  0  0
 21 52  1  0  0  0  0
 22 26  1  0  0  0  0
 22 53  1  0  0  0  0
 23 27  1  0  0  0  0
 23 54  1  0  0  0  0
 24 30  1  0  0  0  0
 24 55  1  0  0  0  0
 25 31  1  0  0  0  0
 25 56  1  0  0  0  0
 26 28  1  0  0  0  0
 26 57  1  0  0  0  0
 27 29  1  0  0  0  0
 27 58  1  0  0  0  0
 28 59  1  0  0  0  0
 29 60  1  0  0  0  0
 30 61  1  0  0  0  0
 30 62  1  0  0  0  0
 31 63  1  0  0  0  0
 31 64  1  0  0  0  0
 32 34  1  0  0  0  0
 32 38  1  0  0  0  0
 33 35  1  0  0  0  0
 33 36  2  0  0  0  0
 34 35  2  0  0  0  0
 34 37  1  0  0  0  0
 35 71  1  0  0  0  0
 36 45  1  0  0  0  0
 37 43  2  0  0  0  0
 38 44  2  0  0  0  0
 38 72  1  0  0  0  0
 39 40  1  0  0  0  0
 39 41  1  0  0  0  0
 39 73  1  0  0  0  0
 41 42  1  0  0  0  0
 41 74  1  0  0  0  0
 41 75  1  0  0  0  0
 43 44  1  0  0  0  0
 43 76  1  0  0  0  0
 45 46  2  0  0  0  0
 45 47  1  0  0  0  0
 46 48  1  0  0  0  0
 46 77  1  0  0  0  0
 47 49  2  0  0  0  0
 47 78  1  0  0  0  0
 48 50  2  0  0  0  0
 49 50  1  0  0  0  0
 49 81  1  0  0  0  0
M  CHG  1   3   1
M  END
> <PUBCHEM_COMPOUND_CID>
44256812

> <PUBCHEM_CONFORMER_RMSD>
1

> <PUBCHEM_CONFORMER_DIVERSEORDER>
2
20
71
68
16
70
42
57
35
69
77
62
22
14
19
10
29
37
4
76
45
50
65
59
6
67
39
44
27
24
61
7
36
54
52
40
73
9
25
13
47
55
21
63
75
56
41
58
3
43
78
33
74
15
34
5
49
8
48
60
51
46
12
38
32
17
11
72
18
1
26
31
30
23
66
53
64
28

> <PUBCHEM_MMFF94_PARTIAL_CHARGES>
66
1 -0.56
10 -0.68
11 -0.43
12 -0.43
13 -0.15
14 -0.68
15 -0.57
16 -0.57
17 -0.53
18 -0.53
19 -0.53
2 -0.56
20 0.28
21 0.28
22 0.28
23 0.28
24 0.28
25 0.28
26 0.28
27 0.28
28 1.33
29 0.56
3 -1
30 0.28
31 0.28
32 0.92
33 0.08
34 0.01
35 -0.15
36 0.05
37 0.08
38 -0.14
39 0.34
4 -0.36
40 0.66
41 0.06
42 0.66
43 -0.15
44 0.08
45 0.03
46 -0.15
47 -0.15
48 0.08
49 -0.15
5 -0.68
50 0.08
6 -0.68
65 0.4
66 0.4
67 0.4
68 0.4
69 0.4
7 -0.68
70 0.4
71 0.15
72 0.15
76 0.15
77 0.15
78 0.15
79 0.4
8 -0.68
80 0.45
81 0.15
82 0.45
83 0.45
9 -0.68

> <PUBCHEM_EFFECTIVE_ROTOR_COUNT>
4.2

> <PUBCHEM_PHARMACOPHORE_FEATURES>
28
1 1 acceptor
1 10 acceptor
1 10 donor
1 13 acceptor
1 14 acceptor
1 14 donor
1 15 acceptor
1 16 acceptor
1 17 donor
1 18 donor
1 19 donor
1 2 acceptor
1 4 acceptor
1 5 acceptor
1 5 donor
1 6 acceptor
1 6 donor
1 7 acceptor
1 7 donor
1 8 acceptor
1 8 donor
1 9 acceptor
1 9 donor
6 1 20 22 24 26 28 rings
6 13 33 34 35 36 37 rings
6 2 21 23 25 27 29 rings
6 32 34 37 38 43 44 rings
6 45 46 47 48 49 50 rings

> <PUBCHEM_HEAVY_ATOM_COUNT>
50

> <PUBCHEM_ATOM_DEF_STEREO_COUNT>
6

> <PUBCHEM_ATOM_UDEF_STEREO_COUNT>
5

> <PUBCHEM_BOND_DEF_STEREO_COUNT>
0

> <PUBCHEM_BOND_UDEF_STEREO_COUNT>
0

> <PUBCHEM_ISOTOPIC_ATOM_COUNT>
0

> <PUBCHEM_COMPONENT_COUNT>
1

> <PUBCHEM_CACTVS_TAUTO_COUNT>
57

> <PUBCHEM_CONFORMER_ID>
02A34E2C00000002

> <PUBCHEM_MMFF94_ENERGY>
140.2398

> <PUBCHEM_FEATURE_SELFOVERLAP>
142.233

> <PUBCHEM_SHAPE_FINGERPRINT>
10190108 129 18117013263757164643
10581848 31 18342186561544212013
1100329 8 18340475704145058737
11093857 51 18265328409049936467
11991303 11 18187663430986654359
12156800 1 18341044219917452514
13636023 51 17346302779610617316
13947947 73 15481817966543752933
14068700 686 17693938900726851701
15001296 14 18410005555236959285
15264996 19 17170426093258242547
15297060 5 18270664403488355034
15968369 153 18120372309975881355
161222 10 18263061319384260226
17909252 39 18124884718396370630
19301679 30 17837768190631830127
19311894 1 18272098214438342389
19319366 153 17968374546398032042
20764821 26 18335976519623048394
21792938 131 17980773640250782871
23559900 14 17917711326743900229
24941158 1 16629677504331159144
404807 14 14258852034924013325
57527452 28 17822846452327652656
6679774 75 18187921734414758811

> <PUBCHEM_SHAPE_MULTIPOLES>
917.46
12.82
5.96
3.93
12.54
3.85
0.92
-4.94
-7.81
3.46
1.77
-5.79
1.13
-0.53

> <PUBCHEM_SHAPE_SELFOVERLAP>
1994.331

> <PUBCHEM_SHAPE_VOLUME>
489.8

> <PUBCHEM_COORDINATE_TYPE>
2
5
10

$$$$
