283632
  -OEChem-08222016133D

 55 55  0     0  0  0  0  0  0999 V2000
    6.1398   -2.9124   -0.0257 O   0  0  0  0  0  0  0  0  0  0  0  0
    6.8288   -0.7182    0.1513 O   0  0  0  0  0  0  0  0  0  0  0  0
   -2.2284    3.7326    0.0277 C   0  0  0  0  0  0  0  0  0  0  0  0
   -0.9638    4.0384    0.0431 C   0  0  0  0  0  0  0  0  0  0  0  0
   -1.8954    5.1226    0.0646 C   0  0  0  0  0  0  0  0  0  0  0  0
   -3.3628    2.8513   -0.0052 C   0  0  0  0  0  0  0  0  0  0  0  0
    0.5027    3.7629    0.0400 C   0  0  0  0  0  0  0  0  0  0  0  0
   -3.0283    1.3344    0.0138 C   0  0  0  0  0  0  0  0  0  0  0  0
    0.8446    2.2752   -0.0738 C   0  0  0  0  0  0  0  0  0  0  0  0
   -4.2887    0.4619    0.0166 C   0  0  0  0  0  0  0  0  0  0  0  0
    2.3520    2.0031   -0.0531 C   0  0  0  0  0  0  0  0  0  0  0  0
   -3.9294   -1.0263    0.0063 C   0  0  0  0  0  0  0  0  0  0  0  0
    2.6456    0.5034   -0.1403 C   0  0  0  0  0  0  0  0  0  0  0  0
   -5.1520   -1.9485   -0.0040 C   0  0  0  0  0  0  0  0  0  0  0  0
    4.1511    0.2280   -0.0748 C   0  0  0  0  0  0  0  0  0  0  0  0
   -4.7933   -3.4357   -0.0407 C   0  0  0  0  0  0  0  0  0  0  0  0
   -6.0473   -4.3089    0.0239 C   0  0  0  0  0  0  0  0  0  0  0  0
    4.4747   -1.2651   -0.1259 C   0  0  0  0  0  0  0  0  0  0  0  0
   -5.6964   -5.7882    0.0261 C   0  0  0  0  0  0  0  0  0  0  0  0
    5.9524   -1.5596    0.0085 C   0  0  0  0  0  0  0  0  0  0  0  0
    7.4942   -3.3508    0.1216 C   0  0  0  0  0  0  0  0  0  0  0  0
   -2.0194    5.6836   -0.8481 H   0  0  0  0  0  0  0  0  0  0  0  0
   -2.0306    5.6372    1.0027 H   0  0  0  0  0  0  0  0  0  0  0  0
   -4.0074    3.0720    0.8543 H   0  0  0  0  0  0  0  0  0  0  0  0
   -3.9568    3.0649   -0.9019 H   0  0  0  0  0  0  0  0  0  0  0  0
    0.9353    4.1692    0.9615 H   0  0  0  0  0  0  0  0  0  0  0  0
    0.9579    4.3052   -0.7969 H   0  0  0  0  0  0  0  0  0  0  0  0
   -2.4250    1.1081    0.9021 H   0  0  0  0  0  0  0  0  0  0  0  0
   -2.4136    1.0914   -0.8622 H   0  0  0  0  0  0  0  0  0  0  0  0
    0.3693    1.7310    0.7526 H   0  0  0  0  0  0  0  0  0  0  0  0
    0.4173    1.8732   -1.0016 H   0  0  0  0  0  0  0  0  0  0  0  0
   -4.8924    0.6890    0.9032 H   0  0  0  0  0  0  0  0  0  0  0  0
   -4.9005    0.6975   -0.8623 H   0  0  0  0  0  0  0  0  0  0  0  0
    2.8310    2.5234   -0.8912 H   0  0  0  0  0  0  0  0  0  0  0  0
    2.7823    2.4098    0.8700 H   0  0  0  0  0  0  0  0  0  0  0  0
   -3.3149   -1.2564    0.8855 H   0  0  0  0  0  0  0  0  0  0  0  0
   -3.3133   -1.2424   -0.8754 H   0  0  0  0  0  0  0  0  0  0  0  0
    2.1436   -0.0180    0.6838 H   0  0  0  0  0  0  0  0  0  0  0  0
    2.2384    0.1001   -1.0752 H   0  0  0  0  0  0  0  0  0  0  0  0
   -5.7572   -1.7428    0.8878 H   0  0  0  0  0  0  0  0  0  0  0  0
   -5.7773   -1.7075   -0.8727 H   0  0  0  0  0  0  0  0  0  0  0  0
    4.6562    0.7392   -0.9041 H   0  0  0  0  0  0  0  0  0  0  0  0
    4.5594    0.6562    0.8494 H   0  0  0  0  0  0  0  0  0  0  0  0
   -4.2328   -3.6563   -0.9570 H   0  0  0  0  0  0  0  0  0  0  0  0
   -4.1369   -3.6730    0.8053 H   0  0  0  0  0  0  0  0  0  0  0  0
   -6.6183   -4.0755    0.9302 H   0  0  0  0  0  0  0  0  0  0  0  0
   -6.6957   -4.0927   -0.8331 H   0  0  0  0  0  0  0  0  0  0  0  0
    4.1298   -1.6806   -1.0794 H   0  0  0  0  0  0  0  0  0  0  0  0
    3.9551   -1.7777    0.6918 H   0  0  0  0  0  0  0  0  0  0  0  0
   -5.0760   -6.0431    0.8912 H   0  0  0  0  0  0  0  0  0  0  0  0
   -6.6071   -6.3937    0.0710 H   0  0  0  0  0  0  0  0  0  0  0  0
   -5.1500   -6.0629   -0.8818 H   0  0  0  0  0  0  0  0  0  0  0  0
    7.5048   -4.4431    0.0769 H   0  0  0  0  0  0  0  0  0  0  0  0
    7.8911   -3.0352    1.0913 H   0  0  0  0  0  0  0  0  0  0  0  0
    8.1096   -2.9599   -0.6944 H   0  0  0  0  0  0  0  0  0  0  0  0
  1 20  1  0  0  0  0
  1 21  1  0  0  0  0
  2 20  2  0  0  0  0
  3  4  2  0  0  0  0
  3  5  1  0  0  0  0
  3  6  1  0  0  0  0
  4  5  1  0  0  0  0
  4  7  1  0  0  0  0
  5 22  1  0  0  0  0
  5 23  1  0  0  0  0
  6  8  1  0  0  0  0
  6 24  1  0  0  0  0
  6 25  1  0  0  0  0
  7  9  1  0  0  0  0
  7 26  1  0  0  0  0
  7 27  1  0  0  0  0
  8 10  1  0  0  0  0
  8 28  1  0  0  0  0
  8 29  1  0  0  0  0
  9 11  1  0  0  0  0
  9 30  1  0  0  0  0
  9 31  1  0  0  0  0
 10 12  1  0  0  0  0
 10 32  1  0  0  0  0
 10 33  1  0  0  0  0
 11 13  1  0  0  0  0
 11 34  1  0  0  0  0
 11 35  1  0  0  0  0
 12 14  1  0  0  0  0
 12 36  1  0  0  0  0
 12 37  1  0  0  0  0
 13 15  1  0  0  0  0
 13 38  1  0  0  0  0
 13 39  1  0  0  0  0
 14 16  1  0  0  0  0
 14 40  1  0  0  0  0
 14 41  1  0  0  0  0
 15 18  1  0  0  0  0
 15 42  1  0  0  0  0
 15 43  1  0  0  0  0
 16 17  1  0  0  0  0
 16 44  1  0  0  0  0
 16 45  1  0  0  0  0
 17 19  1  0  0  0  0
 17 46  1  0  0  0  0
 17 47  1  0  0  0  0
 18 20  1  0  0  0  0
 18 48  1  0  0  0  0
 18 49  1  0  0  0  0
 19 50  1  0  0  0  0
 19 51  1  0  0  0  0
 19 52  1  0  0  0  0
 21 53  1  0  0  0  0
 21 54  1  0  0  0  0
 21 55  1  0  0  0  0
M  END
> <PUBCHEM_COMPOUND_CID>
283632

> <PUBCHEM_CONFORMER_RMSD>
1.4

> <PUBCHEM_CONFORMER_DIVERSEORDER>
1
31
13
16
111
73
78
107
11
59
88
142
69
150
22
4
5
87
118
146
52
100
75
114
53
122
18
134
12
56
10
76
46
48
93
39
38
117
110
8
2
95
40
123
101
35
21
50
19
98
66
49
42
29
147
23
70
109
77
131
74
20
141
68
133
72
71
115
54
60
64
132
45
152
80
25
7
55
86
84
34
144
148
32
61
37
143
9
43
14
126
44
63
51
136
112
96
140
125
26
6
92
105
30
116
85
120
121
104
65
151
17
128
83
153
79
119
129
106
28
124
82
67
33
15
24
81
137
99
135
94
57
91
3
90
103
58
97
36
108
102
62
41
27
139
127
130
149
138
145
47
89
113

> <PUBCHEM_MMFF94_PARTIAL_CHARGES>
12
1 -0.43
18 0.06
2 -0.57
20 0.66
21 0.28
22 0.1
23 0.1
3 -0.18
4 -0.18
5 -0.12
6 0.14
7 0.14

> <PUBCHEM_EFFECTIVE_ROTOR_COUNT>
15.2

> <PUBCHEM_PHARMACOPHORE_FEATURES>
4
1 19 hydrophobe
1 2 acceptor
3 13 15 18 hydrophobe
3 7 9 11 hydrophobe

> <PUBCHEM_HEAVY_ATOM_COUNT>
21

> <PUBCHEM_ATOM_DEF_STEREO_COUNT>
0

> <PUBCHEM_ATOM_UDEF_STEREO_COUNT>
0

> <PUBCHEM_BOND_DEF_STEREO_COUNT>
0

> <PUBCHEM_BOND_UDEF_STEREO_COUNT>
0

> <PUBCHEM_ISOTOPIC_ATOM_COUNT>
0

> <PUBCHEM_COMPONENT_COUNT>
1

> <PUBCHEM_CACTVS_TAUTO_COUNT>
1

> <PUBCHEM_CONFORMER_ID>
000453F000000001

> <PUBCHEM_MMFF94_ENERGY>
37.6087

> <PUBCHEM_FEATURE_SELFOVERLAP>
20.297

> <PUBCHEM_SHAPE_FINGERPRINT>
10319688 140 17832989725839777853
11197282 1 18411419539816620847
11409948 41 17406821257252061495
117089 54 18337676441798582219
11761917 116 18339087081500527918
11801155 225 17758959225527059594
12107183 9 18197797668778820977
12990986 174 18411421678631394981
13533116 47 17334223820136056921
13911852 28 18266740380254637533
14168556 18 18340482374905042120
14251764 75 8611023220910444719
14429380 30 18410575123376066863
14866123 147 18340773655207726017
15803439 3 17174307124697274813
17492 89 18339078323645297357
17859628 70 17762337320779489377
20843269 155 18409165506909780178
2835820 82 17906452479028438223
404807 14 18265055907167145195
484985 159 18191016816507273421
56633871 153 18340499932509490481
6441014 3 18411699911134851771
7970288 3 18338796827077640727
9980921 52 17556001835014117447

> <PUBCHEM_SHAPE_MULTIPOLES>
420.43
19.43
9.44
0.61
22.98
1.52
0
39.2
-0.42
-12.99
-0.24
-0.04
-0.02
-0.2

> <PUBCHEM_SHAPE_SELFOVERLAP>
790.392

> <PUBCHEM_SHAPE_VOLUME>
263

> <PUBCHEM_COORDINATE_TYPE>
2
5
10

$$$$
