10211337
  -OEChem-08222016193D

 74 78  0     1  0  0  0  0  0999 V2000
    3.4032    0.4733    1.0875 O   0  0  0  0  0  0  0  0  0  0  0  0
    0.1830    1.1180   -0.5338 O   0  0  0  0  0  0  0  0  0  0  0  0
    5.0608   -0.1039   -0.4499 O   0  0  0  0  0  0  0  0  0  0  0  0
    2.9311   -1.9328   -0.4434 O   0  0  0  0  0  0  0  0  0  0  0  0
   -1.4643   -0.2926   -1.3943 O   0  0  0  0  0  0  0  0  0  0  0  0
    0.0489   -2.5332   -0.5587 O   0  0  0  0  0  0  0  0  0  0  0  0
    5.2833    2.0604    2.4854 O   0  0  0  0  0  0  0  0  0  0  0  0
    8.0378    1.0811    2.1191 O   0  0  0  0  0  0  0  0  0  0  0  0
    8.6201    0.7246   -0.6897 O   0  0  0  0  0  0  0  0  0  0  0  0
    0.5861    3.5921    0.5941 O   0  0  0  0  0  0  0  0  0  0  0  0
    5.4743   -0.7934   -3.0785 O   0  0  0  0  0  0  0  0  0  0  0  0
   -4.7291   -0.3681    0.3157 O   0  0  0  0  0  0  0  0  0  0  0  0
   -2.3346    2.3438   -1.5595 O   0  0  0  0  0  0  0  0  0  0  0  0
   -4.0921    4.2238   -1.0973 O   0  0  0  0  0  0  0  0  0  0  0  0
   -8.0258    2.9242    1.2227 O   0  0  0  0  0  0  0  0  0  0  0  0
   -1.5449   -4.3545    2.3815 O   0  0  0  0  0  0  0  0  0  0  0  0
   -2.3538   -6.1980    0.4660 O   0  0  0  0  0  0  0  0  0  0  0  0
    2.3891    0.3353    0.0957 C   0  0  1  0  0  0  0  0  0  0  0  0
    1.8888   -1.1093    0.0818 C   0  0  1  0  0  0  0  0  0  0  0  0
    1.2446    1.3035    0.4041 C   0  0  1  0  0  0  0  0  0  0  0  0
    4.6461    0.8679    0.5073 C   0  0  2  0  0  0  0  0  0  0  0  0
    0.6392   -1.2538   -0.7869 C   0  0  2  0  0  0  0  0  0  0  0  0
    5.6745    0.9851    1.6322 C   0  0  1  0  0  0  0  0  0  0  0  0
    7.0736    1.2585    1.0802 C   0  0  2  0  0  0  0  0  0  0  0  0
    7.4189    0.2943   -0.0550 C   0  0  1  0  0  0  0  0  0  0  0  0
    6.2904    0.2451   -1.0878 C   0  0  1  0  0  0  0  0  0  0  0  0
   -0.3977   -0.1816   -0.4524 C   0  0  1  0  0  0  0  0  0  0  0  0
    1.6940    2.7580    0.3082 C   0  0  0  0  0  0  0  0  0  0  0  0
    6.5597   -0.7967   -2.1691 C   0  0  0  0  0  0  0  0  0  0  0  0
   -2.6650    0.1088   -0.8499 C   0  0  0  0  0  0  0  0  0  0  0  0
   -3.5009   -0.7319   -0.2136 C   0  0  0  0  0  0  0  0  0  0  0  0
   -3.0542    1.5325   -0.9924 C   0  0  0  0  0  0  0  0  0  0  0  0
   -4.3525    1.9152   -0.4167 C   0  0  0  0  0  0  0  0  0  0  0  0
   -3.1983   -2.1630   -0.0328 C   0  0  0  0  0  0  0  0  0  0  0  0
   -5.1254    0.9399    0.2098 C   0  0  0  0  0  0  0  0  0  0  0  0
   -4.8083    3.2335   -0.4958 C   0  0  0  0  0  0  0  0  0  0  0  0
   -6.3615    1.2772    0.7615 C   0  0  0  0  0  0  0  0  0  0  0  0
   -2.5073   -2.5926    1.1003 C   0  0  0  0  0  0  0  0  0  0  0  0
   -3.6030   -3.0887   -0.9950 C   0  0  0  0  0  0  0  0  0  0  0  0
   -6.0448    3.5684    0.0574 C   0  0  0  0  0  0  0  0  0  0  0  0
   -6.8201    2.5924    0.6847 C   0  0  0  0  0  0  0  0  0  0  0  0
   -2.2213   -3.9471    1.2716 C   0  0  0  0  0  0  0  0  0  0  0  0
   -3.3167   -4.4432   -0.8238 C   0  0  0  0  0  0  0  0  0  0  0  0
   -2.6259   -4.8724    0.3095 C   0  0  0  0  0  0  0  0  0  0  0  0
    2.7697    0.5719   -0.9094 H   0  0  0  0  0  0  0  0  0  0  0  0
    1.6995   -1.4663    1.1009 H   0  0  0  0  0  0  0  0  0  0  0  0
    0.8517    1.1362    1.4163 H   0  0  0  0  0  0  0  0  0  0  0  0
    4.5050    1.8395    0.0150 H   0  0  0  0  0  0  0  0  0  0  0  0
    0.9122   -1.2094   -1.8488 H   0  0  0  0  0  0  0  0  0  0  0  0
    5.6795    0.0777    2.2477 H   0  0  0  0  0  0  0  0  0  0  0  0
    7.1615    2.3013    0.7509 H   0  0  0  0  0  0  0  0  0  0  0  0
    7.6062   -0.7040    0.3592 H   0  0  0  0  0  0  0  0  0  0  0  0
    6.1630    1.2191   -1.5797 H   0  0  0  0  0  0  0  0  0  0  0  0
   -0.7661   -0.3411    0.5704 H   0  0  0  0  0  0  0  0  0  0  0  0
    2.0474    3.0042   -0.6986 H   0  0  0  0  0  0  0  0  0  0  0  0
    2.4853    2.9869    1.0273 H   0  0  0  0  0  0  0  0  0  0  0  0
    6.6357   -1.8033   -1.7447 H   0  0  0  0  0  0  0  0  0  0  0  0
    7.4759   -0.5776   -2.7246 H   0  0  0  0  0  0  0  0  0  0  0  0
    3.0787   -1.6774   -1.3694 H   0  0  0  0  0  0  0  0  0  0  0  0
   -0.6502   -2.6479   -1.2247 H   0  0  0  0  0  0  0  0  0  0  0  0
    5.2682    2.8758    1.9556 H   0  0  0  0  0  0  0  0  0  0  0  0
    8.9150    1.2483    1.7338 H   0  0  0  0  0  0  0  0  0  0  0  0
    8.4612    1.6068   -1.0668 H   0  0  0  0  0  0  0  0  0  0  0  0
   -0.1161    3.3779   -0.0438 H   0  0  0  0  0  0  0  0  0  0  0  0
    4.6628   -0.9608   -2.5707 H   0  0  0  0  0  0  0  0  0  0  0  0
   -6.9673    0.5185    1.2507 H   0  0  0  0  0  0  0  0  0  0  0  0
   -2.1929   -1.8801    1.8597 H   0  0  0  0  0  0  0  0  0  0  0  0
   -4.1424   -2.7693   -1.8834 H   0  0  0  0  0  0  0  0  0  0  0  0
   -6.4009    4.5942   -0.0035 H   0  0  0  0  0  0  0  0  0  0  0  0
   -3.6347   -5.1591   -1.5769 H   0  0  0  0  0  0  0  0  0  0  0  0
   -3.2516    3.8789   -1.4351 H   0  0  0  0  0  0  0  0  0  0  0  0
   -8.1848    3.8730    1.0795 H   0  0  0  0  0  0  0  0  0  0  0  0
   -1.1185   -5.2094    2.2092 H   0  0  0  0  0  0  0  0  0  0  0  0
   -2.2010   -6.3921    1.4048 H   0  0  0  0  0  0  0  0  0  0  0  0
  1 18  1  0  0  0  0
  1 21  1  0  0  0  0
  2 20  1  0  0  0  0
  2 27  1  0  0  0  0
  3 21  1  0  0  0  0
  3 26  1  0  0  0  0
  4 19  1  0  0  0  0
  4 59  1  0  0  0  0
  5 27  1  0  0  0  0
  5 30  1  0  0  0  0
  6 22  1  0  0  0  0
  6 60  1  0  0  0  0
  7 23  1  0  0  0  0
  7 61  1  0  0  0  0
  8 24  1  0  0  0  0
  8 62  1  0  0  0  0
  9 25  1  0  0  0  0
  9 63  1  0  0  0  0
 10 28  1  0  0  0  0
 10 64  1  0  0  0  0
 11 29  1  0  0  0  0
 11 65  1  0  0  0  0
 12 31  1  0  0  0  0
 12 35  1  0  0  0  0
 13 32  2  0  0  0  0
 14 36  1  0  0  0  0
 14 71  1  0  0  0  0
 15 41  1  0  0  0  0
 15 72  1  0  0  0  0
 16 42  1  0  0  0  0
 16 73  1  0  0  0  0
 17 44  1  0  0  0  0
 17 74  1  0  0  0  0
 18 19  1  0  0  0  0
 18 20  1  0  0  0  0
 18 45  1  0  0  0  0
 19 22  1  0  0  0  0
 19 46  1  0  0  0  0
 20 28  1  0  0  0  0
 20 47  1  0  0  0  0
 21 23  1  0  0  0  0
 21 48  1  0  0  0  0
 22 27  1  0  0  0  0
 22 49  1  0  0  0  0
 23 24  1  0  0  0  0
 23 50  1  0  0  0  0
 24 25  1  0  0  0  0
 24 51  1  0  0  0  0
 25 26  1  0  0  0  0
 25 52  1  0  0  0  0
 26 29  1  0  0  0  0
 26 53  1  0  0  0  0
 27 54  1  0  0  0  0
 28 55  1  0  0  0  0
 28 56  1  0  0  0  0
 29 57  1  0  0  0  0
 29 58  1  0  0  0  0
 30 31  2  0  0  0  0
 30 32  1  0  0  0  0
 31 34  1  0  0  0  0
 32 33  1  0  0  0  0
 33 35  1  0  0  0  0
 33 36  2  0  0  0  0
 34 38  2  0  0  0  0
 34 39  1  0  0  0  0
 35 37  2  0  0  0  0
 36 40  1  0  0  0  0
 37 41  1  0  0  0  0
 37 66  1  0  0  0  0
 38 42  1  0  0  0  0
 38 67  1  0  0  0  0
 39 43  2  0  0  0  0
 39 68  1  0  0  0  0
 40 41  2  0  0  0  0
 40 69  1  0  0  0  0
 42 44  2  0  0  0  0
 43 44  1  0  0  0  0
 43 70  1  0  0  0  0
M  END
> <PUBCHEM_COMPOUND_CID>
10211337

> <PUBCHEM_CONFORMER_RMSD>
1.2

> <PUBCHEM_CONFORMER_DIVERSEORDER>
1
121
78
171
214
50
196
217
43
8
100
34
23
69
122
125
153
60
199
147
114
84
211
172
215
162
181
42
123
166
165
54
156
168
179
197
212
101
194
97
88
62
177
22
139
99
213
105
47
30
36
132
134
31
86
48
189
203
150
218
89
205
103
107
135
141
120
108
119
19
202
17
163
201
38
148
102
155
130
178
167
109
83
112
55
75
113
174
169
33
74
191
82
137
24
3
186
96
26
46
40
79
116
37
118
71
13
154
140
59
117
133
145
183
208
157
188
41
104
6
15
158
35
93
63
136
151
87
149
72
5
91
206
12
143
28
77
159
207
176
11
209
221
32
65
76
45
220
180
185
18
27
58
81
64
4
146
66
152
175
16
57
29
144
98
61
95
126
193
39
44
106
170
10
80
182
85
94
124
51
210
9
110
160
192
92
131
138
129
164
198
2
187
216
90
68
190
49
127
70
142
128
53
111
184
56
73
20
219
25
195
204
52
7
173
21
67
161
200
115
14

> <PUBCHEM_MMFF94_PARTIAL_CHARGES>
60
1 -0.56
10 -0.68
11 -0.68
12 -0.16
13 -0.57
14 -0.53
15 -0.53
16 -0.53
17 -0.53
18 0.28
19 0.28
2 -0.56
20 0.28
21 0.56
22 0.28
23 0.28
24 0.28
25 0.28
26 0.28
27 0.56
28 0.28
29 0.28
3 -0.56
30 0.09
31 0.05
32 0.47
33 0.09
34 0.03
35 0.08
36 0.08
37 -0.15
38 -0.15
39 -0.15
4 -0.68
40 -0.15
41 0.08
42 0.08
43 -0.15
44 0.08
5 -0.36
59 0.4
6 -0.68
60 0.4
61 0.4
62 0.4
63 0.4
64 0.4
65 0.4
66 0.15
67 0.15
68 0.15
69 0.15
7 -0.68
70 0.15
71 0.45
72 0.45
73 0.45
74 0.45
8 -0.68
9 -0.68

> <PUBCHEM_EFFECTIVE_ROTOR_COUNT>
9.4

> <PUBCHEM_PHARMACOPHORE_FEATURES>
29
1 1 acceptor
1 10 acceptor
1 10 donor
1 11 acceptor
1 11 donor
1 12 acceptor
1 13 acceptor
1 14 donor
1 15 donor
1 16 donor
1 17 donor
1 2 acceptor
1 3 acceptor
1 4 acceptor
1 4 donor
1 5 acceptor
1 6 acceptor
1 6 donor
1 7 acceptor
1 7 donor
1 8 acceptor
1 8 donor
1 9 acceptor
1 9 donor
6 12 30 31 32 33 35 rings
6 2 18 19 20 22 27 rings
6 3 21 23 24 25 26 rings
6 33 35 36 37 40 41 rings
6 34 38 39 42 43 44 rings

> <PUBCHEM_HEAVY_ATOM_COUNT>
44

> <PUBCHEM_ATOM_DEF_STEREO_COUNT>
10

> <PUBCHEM_ATOM_UDEF_STEREO_COUNT>
0

> <PUBCHEM_BOND_DEF_STEREO_COUNT>
0

> <PUBCHEM_BOND_UDEF_STEREO_COUNT>
0

> <PUBCHEM_ISOTOPIC_ATOM_COUNT>
0

> <PUBCHEM_COMPONENT_COUNT>
1

> <PUBCHEM_CACTVS_TAUTO_COUNT>
162

> <PUBCHEM_CONFORMER_ID>
009BD00900000001

> <PUBCHEM_MMFF94_ENERGY>
142.5998

> <PUBCHEM_FEATURE_SELFOVERLAP>
147.372

> <PUBCHEM_SHAPE_FINGERPRINT>
10 15 18261673675660111833
10050765 1 18193838369624194488
10190206 1 18340475717779242551
10290309 65 18118395142923382653
10940486 97 18187930620311652045
11007060 377 18413672401072550371
13008946 335 18341907243247973105
13782708 43 18200315567338850950
14020679 6 18260828206925872065
14040222 383 18336267928764065291
14294032 229 18040994017243669436
14444916 359 18337681798028436373
14856354 85 18336545018420742430
15230672 131 18335983052706551446
15361156 5 18267025153101827606
15444296 121 18260831543988827584
15890870 6 18338516340450401557
15927050 60 18411135797577817087
16112460 7 18198911314173498137
16114785 44 18411982477734953731
19301679 30 17977108177637630707
21033648 29 18338520746806752657
21133410 171 17258720243854795738
21814621 53 17988072405190145426
23522609 53 17749401407612037524
3383291 50 18410011061838213499
397638 26 18342165657975429192
4073 2 18411698829292976106
4144715 1 18269555116609770120
4403749 210 18334288739710943821
4408954 64 17101184439068357515
4435113 14 18200874097427760800
4616759 239 18201707479833100968
508706 21 18340203102122863207
5265222 85 18336557006027828359
6009941 240 18273214214208359928
6086070 43 15984809467890208514
6698420 124 18059021583853738465
9896288 288 18335144215734483619

> <PUBCHEM_SHAPE_MULTIPOLES>
805.72
20.68
6.24
1.72
29.63
7.67
0.04
-16.45
-2.47
-13.55
-1.39
2.74
0.29
2.29

> <PUBCHEM_SHAPE_SELFOVERLAP>
1755.578

> <PUBCHEM_SHAPE_VOLUME>
431

> <PUBCHEM_COORDINATE_TYPE>
2
5
10

$$$$
