6918612
  -OEChem-09072005163D

 45 47  0     1  0  0  0  0  0999 V2000
    3.4558    0.1319    2.6411 O   0  0  0  0  0  0  0  0  0  0  0  0
    0.6098   -1.2767   -0.4852 O   0  0  0  0  0  0  0  0  0  0  0  0
   -1.0806   -0.7899   -1.9718 O   0  0  0  0  0  0  0  0  0  0  0  0
   -0.9920   -3.2811    0.8453 O   0  0  0  0  0  0  0  0  0  0  0  0
    3.6410    1.1424   -0.1623 N   0  0  2  0  0  0  0  0  0  0  0  0
    3.5975   -0.2639    0.2612 C   0  0  1  0  0  0  0  0  0  0  0  0
    2.2302    1.5342   -0.2202 C   0  0  2  0  0  0  0  0  0  0  0  0
    2.6725   -0.1387    1.4816 C   0  0  2  0  0  0  0  0  0  0  0  0
    1.7738    1.0680    1.1696 C   0  0  0  0  0  0  0  0  0  0  0  0
    2.9911   -1.1753   -0.8281 C   0  0  0  0  0  0  0  0  0  0  0  0
    1.4672    0.8188   -1.3555 C   0  0  0  0  0  0  0  0  0  0  0  0
    1.6147   -0.7105   -1.3274 C   0  0  2  0  0  0  0  0  0  0  0  0
    4.4319    1.4295   -1.3440 C   0  0  0  0  0  0  0  0  0  0  0  0
   -0.6835   -0.9946   -0.8317 C   0  0  0  0  0  0  0  0  0  0  0  0
   -1.5554   -0.9676    0.4203 C   0  0  1  0  0  0  0  0  0  0  0  0
   -2.6737    0.0537    0.2848 C   0  0  0  0  0  0  0  0  0  0  0  0
   -2.0848   -2.3747    0.7324 C   0  0  0  0  0  0  0  0  0  0  0  0
   -2.4497    1.3497    0.7049 C   0  0  0  0  0  0  0  0  0  0  0  0
   -3.8807   -0.3440   -0.2547 C   0  0  0  0  0  0  0  0  0  0  0  0
   -3.4754    2.2868    0.5804 C   0  0  0  0  0  0  0  0  0  0  0  0
   -4.9063    0.5932   -0.3791 C   0  0  0  0  0  0  0  0  0  0  0  0
   -4.7035    1.9087    0.0384 C   0  0  0  0  0  0  0  0  0  0  0  0
    4.5940   -0.6190    0.5473 H   0  0  0  0  0  0  0  0  0  0  0  0
    2.1139    2.6194   -0.3167 H   0  0  0  0  0  0  0  0  0  0  0  0
    2.0979   -1.0499    1.6746 H   0  0  0  0  0  0  0  0  0  0  0  0
    1.9284    1.8663    1.9066 H   0  0  0  0  0  0  0  0  0  0  0  0
    0.7160    0.8089    1.1901 H   0  0  0  0  0  0  0  0  0  0  0  0
    3.6820   -1.2179   -1.6787 H   0  0  0  0  0  0  0  0  0  0  0  0
    2.9177   -2.1971   -0.4349 H   0  0  0  0  0  0  0  0  0  0  0  0
    0.4243    1.1486   -1.3187 H   0  0  0  0  0  0  0  0  0  0  0  0
    1.8558    1.1824   -2.3150 H   0  0  0  0  0  0  0  0  0  0  0  0
    1.4604   -1.1194   -2.3340 H   0  0  0  0  0  0  0  0  0  0  0  0
    4.4327    2.5070   -1.5418 H   0  0  0  0  0  0  0  0  0  0  0  0
    4.0895    0.9248   -2.2517 H   0  0  0  0  0  0  0  0  0  0  0  0
    5.4753    1.1410   -1.1756 H   0  0  0  0  0  0  0  0  0  0  0  0
    2.8408    0.2498    3.3851 H   0  0  0  0  0  0  0  0  0  0  0  0
   -0.9193   -0.6683    1.2629 H   0  0  0  0  0  0  0  0  0  0  0  0
   -2.7129   -2.7755   -0.0677 H   0  0  0  0  0  0  0  0  0  0  0  0
   -2.6493   -2.3869    1.6710 H   0  0  0  0  0  0  0  0  0  0  0  0
   -1.4988    1.6564    1.1277 H   0  0  0  0  0  0  0  0  0  0  0  0
   -4.0747   -1.3458   -0.6178 H   0  0  0  0  0  0  0  0  0  0  0  0
   -1.3654   -4.1540    1.0558 H   0  0  0  0  0  0  0  0  0  0  0  0
   -3.3173    3.3112    0.9049 H   0  0  0  0  0  0  0  0  0  0  0  0
   -5.8609    0.3011   -0.8072 H   0  0  0  0  0  0  0  0  0  0  0  0
   -5.5015    2.6387   -0.0601 H   0  0  0  0  0  0  0  0  0  0  0  0
  1  8  1  0  0  0  0
  1 36  1  0  0  0  0
  2 12  1  0  0  0  0
  2 14  1  0  0  0  0
  3 14  2  0  0  0  0
  4 17  1  0  0  0  0
  4 42  1  0  0  0  0
  5  6  1  0  0  0  0
  5  7  1  0  0  0  0
  5 13  1  0  0  0  0
  6  8  1  0  0  0  0
  6 10  1  0  0  0  0
  6 23  1  0  0  0  0
  7  9  1  0  0  0  0
  7 11  1  0  0  0  0
  7 24  1  0  0  0  0
  8  9  1  0  0  0  0
  8 25  1  0  0  0  0
  9 26  1  0  0  0  0
  9 27  1  0  0  0  0
 10 12  1  0  0  0  0
 10 28  1  0  0  0  0
 10 29  1  0  0  0  0
 11 12  1  0  0  0  0
 11 30  1  0  0  0  0
 11 31  1  0  0  0  0
 12 32  1  0  0  0  0
 13 33  1  0  0  0  0
 13 34  1  0  0  0  0
 13 35  1  0  0  0  0
 14 15  1  0  0  0  0
 15 16  1  0  0  0  0
 15 17  1  0  0  0  0
 15 37  1  0  0  0  0
 16 18  2  0  0  0  0
 16 19  1  0  0  0  0
 17 38  1  0  0  0  0
 17 39  1  0  0  0  0
 18 20  1  0  0  0  0
 18 40  1  0  0  0  0
 19 21  2  0  0  0  0
 19 41  1  0  0  0  0
 20 22  2  0  0  0  0
 20 43  1  0  0  0  0
 21 22  1  0  0  0  0
 21 44  1  0  0  0  0
 22 45  1  0  0  0  0
M  END
> <PUBCHEM_COMPOUND_CID>
6918612

> <PUBCHEM_CONFORMER_RMSD>
0.8

> <PUBCHEM_CONFORMER_DIVERSEORDER>
1
72
2
57
76
18
84
11
79
53
31
5
36
46
16
22
69
45
55
80
48
43
78
6
19
41
67
66
37
77
63
39
75
9
7
49
81
58
12
24
42
32
71
26
4
54
64
25
61
70
35
20
82
56
47
73
38
14
52
68
65
83
8
33
40
34
15
62
13
21
27
51
10
28
59
50
30
29
74
23
60
44
17
3

> <PUBCHEM_MMFF94_PARTIAL_CHARGES>
26
1 -0.68
12 0.28
13 0.27
14 0.66
15 0.2
16 -0.14
17 0.28
18 -0.15
19 -0.15
2 -0.43
20 -0.15
21 -0.15
22 -0.15
3 -0.57
36 0.4
4 -0.68
40 0.15
41 0.15
42 0.4
43 0.15
44 0.15
45 0.15
5 -0.81
6 0.27
7 0.27
8 0.28

> <PUBCHEM_EFFECTIVE_ROTOR_COUNT>
6.2

> <PUBCHEM_PHARMACOPHORE_FEATURES>
8
1 1 acceptor
1 1 donor
1 3 acceptor
1 4 acceptor
1 4 donor
1 5 cation
6 16 18 19 20 21 22 rings
8 5 6 7 8 9 10 11 12 rings

> <PUBCHEM_HEAVY_ATOM_COUNT>
22

> <PUBCHEM_ATOM_DEF_STEREO_COUNT>
5

> <PUBCHEM_ATOM_UDEF_STEREO_COUNT>
0

> <PUBCHEM_BOND_DEF_STEREO_COUNT>
0

> <PUBCHEM_BOND_UDEF_STEREO_COUNT>
0

> <PUBCHEM_ISOTOPIC_ATOM_COUNT>
0

> <PUBCHEM_COMPONENT_COUNT>
1

> <PUBCHEM_CACTVS_TAUTO_COUNT>
1

> <PUBCHEM_CONFORMER_ID>
006991D400000001

> <PUBCHEM_MMFF94_ENERGY>
64.2865

> <PUBCHEM_FEATURE_SELFOVERLAP>
40.596

> <PUBCHEM_SHAPE_FINGERPRINT>
10064457 181 16588602979648490784
10366900 7 18130793403240981773
10498660 4 18272375247934247697
10646746 165 18131068208175855213
10759866 29 18408895035718649980
11370993 70 18408608041524230727
12077114 3 18201439207042492630
12403259 415 17489870461823551105
12500047 106 18409453625800172526
12596602 18 17458354060752021641
12633257 1 18041266708473942186
12670546 177 15769761464897562293
12788726 201 17900261102480430859
128620 24 12175615174843101417
12892183 10 16443353044217979541
13134695 92 15984840211656711100
13224815 77 18131641075530574793
13583140 156 17561078146168861614
13965767 371 17821729411999507292
14178342 30 18262508308012055050
14252887 29 14418132911514493980
14739800 52 18194388108421763816
15238133 3 18410570665664386808
17349148 13 18336260228246165775
18186145 218 17988093179635751315
200 152 13183025120228419765
20715895 44 17971744468576969045
21033648 29 17846497049528584993
21069387 34 13182755735864436828
212916 134 18338223895578012875
21503847 285 18113344098327536180
21524375 3 18271246015380157703
21864079 5 18198621227834889756
22950370 63 10807927189828787093
23419403 2 13827848128633399135
23493267 7 18338527429532934442
23557571 272 18059303174894857543
23559900 14 18342181007666766478
341906 21 18411696599545728801
351380 180 18273211963524190237
474 4 18337114445717563017
495365 180 17846212224593720150
6328613 192 18335713732565845092
633830 44 18340207376136990663
7808743 9 18335990868929397036
84936 182 18124318199345998059
8509985 295 18335693893257355825
9709674 26 18271534164482929807

> <PUBCHEM_SHAPE_MULTIPOLES>
424.29
9.11
2.4
1.6
3.4
0.97
0.38
-4.74
0
1.54
0.39
-1.63
0.07
-0.21

> <PUBCHEM_SHAPE_SELFOVERLAP>
901.973

> <PUBCHEM_SHAPE_VOLUME>
236.5

> <PUBCHEM_COORDINATE_TYPE>
2
5
10

$$$$
