60077056
  -OEChem-09182010233D

 80 83  0     1  0  0  0  0  0999 V2000
   -8.3352    0.0820   -1.0938 O   0  0  0  0  0  0  0  0  0  0  0  0
    0.2096    0.4596    0.7424 C   0  0  1  0  0  0  0  0  0  0  0  0
   -0.4794   -0.8251    0.2330 C   0  0  2  0  0  0  0  0  0  0  0  0
   -1.9824   -0.8553    0.5321 C   0  0  1  0  0  0  0  0  0  0  0  0
   -2.6528    0.3733   -0.1651 C   0  0  1  0  0  0  0  0  0  0  0  0
   -4.2122    0.3906    0.0478 C   0  0  2  0  0  0  0  0  0  0  0  0
    1.6680    0.1345    0.3368 C   0  0  2  0  0  0  0  0  0  0  0  0
   -0.4137    1.6521    0.0031 C   0  0  0  0  0  0  0  0  0  0  0  0
   -4.7695   -0.9729   -0.4754 C   0  0  1  0  0  0  0  0  0  0  0  0
   -1.9409    1.7047    0.1929 C   0  0  0  0  0  0  0  0  0  0  0  0
    0.4069   -1.9447    0.7698 C   0  0  0  0  0  0  0  0  0  0  0  0
   -2.6207   -2.1739    0.0724 C   0  0  0  0  0  0  0  0  0  0  0  0
    1.8291   -1.3569    0.7141 C   0  0  0  0  0  0  0  0  0  0  0  0
   -4.1390   -2.1749    0.2360 C   0  0  0  0  0  0  0  0  0  0  0  0
   -4.8680    1.5225   -0.7940 C   0  0  0  0  0  0  0  0  0  0  0  0
    0.0920    0.6771    2.2720 C   0  0  0  0  0  0  0  0  0  0  0  0
    2.7546    1.0170    0.9339 C   0  0  1  0  0  0  0  0  0  0  0  0
   -6.3013   -1.0435   -0.4432 C   0  0  0  0  0  0  0  0  0  0  0  0
   -4.5617    0.6268    1.5397 C   0  0  0  0  0  0  0  0  0  0  0  0
   -6.3970    1.4618   -0.8135 C   0  0  0  0  0  0  0  0  0  0  0  0
   -6.9202    0.0975   -1.2498 C   0  0  2  0  0  0  0  0  0  0  0  0
    4.1497    0.3572    0.8885 C   0  0  0  0  0  0  0  0  0  0  0  0
    2.8001    2.3608    0.1965 C   0  0  0  0  0  0  0  0  0  0  0  0
    4.5843   -0.0427   -0.5294 C   0  0  0  0  0  0  0  0  0  0  0  0
    5.9328   -0.7495   -0.5553 C   0  0  0  0  0  0  0  0  0  0  0  0
    7.2081    0.1026   -0.7323 C   0  0  0  0  0  0  0  0  0  0  0  0
    5.9341   -2.0929   -0.4638 C   0  0  0  0  0  0  0  0  0  0  0  0
    7.1712    0.8768   -2.0657 C   0  0  0  0  0  0  0  0  0  0  0  0
    8.4473   -0.8169   -0.7178 C   0  0  0  0  0  0  0  0  0  0  0  0
    7.4061    1.1523    0.3879 C   0  0  0  0  0  0  0  0  0  0  0  0
   -0.3789   -0.8607   -0.8651 H   0  0  0  0  0  0  0  0  0  0  0  0
   -2.1289   -0.7910    1.6147 H   0  0  0  0  0  0  0  0  0  0  0  0
   -2.4905    0.2412   -1.2469 H   0  0  0  0  0  0  0  0  0  0  0  0
    1.7324    0.1859   -0.7607 H   0  0  0  0  0  0  0  0  0  0  0  0
   -0.1933    1.5925   -1.0703 H   0  0  0  0  0  0  0  0  0  0  0  0
   -0.0064    2.6021    0.3575 H   0  0  0  0  0  0  0  0  0  0  0  0
   -4.4845   -1.0569   -1.5361 H   0  0  0  0  0  0  0  0  0  0  0  0
   -2.3251    2.5141   -0.4378 H   0  0  0  0  0  0  0  0  0  0  0  0
   -2.1609    1.9884    1.2268 H   0  0  0  0  0  0  0  0  0  0  0  0
    0.3284   -2.8536    0.1644 H   0  0  0  0  0  0  0  0  0  0  0  0
    0.1406   -2.2081    1.7996 H   0  0  0  0  0  0  0  0  0  0  0  0
   -2.2040   -3.0129    0.6420 H   0  0  0  0  0  0  0  0  0  0  0  0
   -2.3749   -2.3568   -0.9816 H   0  0  0  0  0  0  0  0  0  0  0  0
    2.2892   -1.4982    1.6978 H   0  0  0  0  0  0  0  0  0  0  0  0
    2.4249   -1.9081   -0.0181 H   0  0  0  0  0  0  0  0  0  0  0  0
   -4.5361   -3.1066   -0.1853 H   0  0  0  0  0  0  0  0  0  0  0  0
   -4.4017   -2.1804    1.3000 H   0  0  0  0  0  0  0  0  0  0  0  0
   -4.5052    1.4646   -1.8287 H   0  0  0  0  0  0  0  0  0  0  0  0
   -4.5715    2.5074   -0.4147 H   0  0  0  0  0  0  0  0  0  0  0  0
    0.5068    1.6488    2.5629 H   0  0  0  0  0  0  0  0  0  0  0  0
   -0.9446    0.6765    2.6191 H   0  0  0  0  0  0  0  0  0  0  0  0
    0.6174   -0.0912    2.8478 H   0  0  0  0  0  0  0  0  0  0  0  0
    2.5688    1.2196    1.9934 H   0  0  0  0  0  0  0  0  0  0  0  0
   -6.6819   -1.0344    0.5851 H   0  0  0  0  0  0  0  0  0  0  0  0
   -6.6445   -1.9977   -0.8640 H   0  0  0  0  0  0  0  0  0  0  0  0
   -4.0802   -0.0931    2.2058 H   0  0  0  0  0  0  0  0  0  0  0  0
   -5.6358    0.5565    1.7323 H   0  0  0  0  0  0  0  0  0  0  0  0
   -4.2555    1.6266    1.8650 H   0  0  0  0  0  0  0  0  0  0  0  0
   -6.8037    1.7217    0.1715 H   0  0  0  0  0  0  0  0  0  0  0  0
   -6.7832    2.2338   -1.4911 H   0  0  0  0  0  0  0  0  0  0  0  0
   -6.7028   -0.0565   -2.3138 H   0  0  0  0  0  0  0  0  0  0  0  0
    4.8698    1.0583    1.3228 H   0  0  0  0  0  0  0  0  0  0  0  0
    4.1834   -0.5168    1.5488 H   0  0  0  0  0  0  0  0  0  0  0  0
    2.7196    2.2486   -0.8895 H   0  0  0  0  0  0  0  0  0  0  0  0
    3.7359    2.8914    0.4070 H   0  0  0  0  0  0  0  0  0  0  0  0
    2.0013    3.0234    0.5344 H   0  0  0  0  0  0  0  0  0  0  0  0
    3.8465   -0.6884   -1.0135 H   0  0  0  0  0  0  0  0  0  0  0  0
    4.6232    0.8452   -1.1667 H   0  0  0  0  0  0  0  0  0  0  0  0
   -8.6990    0.8019   -1.6369 H   0  0  0  0  0  0  0  0  0  0  0  0
    6.8254   -2.7059   -0.4870 H   0  0  0  0  0  0  0  0  0  0  0  0
    5.0010   -2.6386   -0.3530 H   0  0  0  0  0  0  0  0  0  0  0  0
    8.5483   -1.3599    0.2294 H   0  0  0  0  0  0  0  0  0  0  0  0
    6.4055    1.6593   -2.0755 H   0  0  0  0  0  0  0  0  0  0  0  0
    6.6463    1.9395    0.3436 H   0  0  0  0  0  0  0  0  0  0  0  0
    7.3589    0.6852    1.3781 H   0  0  0  0  0  0  0  0  0  0  0  0
    8.4374   -1.5360   -1.5454 H   0  0  0  0  0  0  0  0  0  0  0  0
    8.3808    1.6468    0.3004 H   0  0  0  0  0  0  0  0  0  0  0  0
    9.3656   -0.2281   -0.8377 H   0  0  0  0  0  0  0  0  0  0  0  0
    6.9726    0.2025   -2.9070 H   0  0  0  0  0  0  0  0  0  0  0  0
    8.1314    1.3692   -2.2606 H   0  0  0  0  0  0  0  0  0  0  0  0
  1 21  1  0  0  0  0
  1 69  1  0  0  0  0
  2  3  1  0  0  0  0
  2  7  1  0  0  0  0
  2  8  1  0  0  0  0
  2 16  1  0  0  0  0
  3  4  1  0  0  0  0
  3 11  1  0  0  0  0
  3 31  1  0  0  0  0
  4  5  1  0  0  0  0
  4 12  1  0  0  0  0
  4 32  1  0  0  0  0
  5  6  1  0  0  0  0
  5 10  1  0  0  0  0
  5 33  1  0  0  0  0
  6  9  1  0  0  0  0
  6 15  1  0  0  0  0
  6 19  1  0  0  0  0
  7 13  1  0  0  0  0
  7 17  1  0  0  0  0
  7 34  1  0  0  0  0
  8 10  1  0  0  0  0
  8 35  1  0  0  0  0
  8 36  1  0  0  0  0
  9 14  1  0  0  0  0
  9 18  1  0  0  0  0
  9 37  1  0  0  0  0
 10 38  1  0  0  0  0
 10 39  1  0  0  0  0
 11 13  1  0  0  0  0
 11 40  1  0  0  0  0
 11 41  1  0  0  0  0
 12 14  1  0  0  0  0
 12 42  1  0  0  0  0
 12 43  1  0  0  0  0
 13 44  1  0  0  0  0
 13 45  1  0  0  0  0
 14 46  1  0  0  0  0
 14 47  1  0  0  0  0
 15 20  1  0  0  0  0
 15 48  1  0  0  0  0
 15 49  1  0  0  0  0
 16 50  1  0  0  0  0
 16 51  1  0  0  0  0
 16 52  1  0  0  0  0
 17 22  1  0  0  0  0
 17 23  1  0  0  0  0
 17 53  1  0  0  0  0
 18 21  1  0  0  0  0
 18 54  1  0  0  0  0
 18 55  1  0  0  0  0
 19 56  1  0  0  0  0
 19 57  1  0  0  0  0
 19 58  1  0  0  0  0
 20 21  1  0  0  0  0
 20 59  1  0  0  0  0
 20 60  1  0  0  0  0
 21 61  1  0  0  0  0
 22 24  1  0  0  0  0
 22 62  1  0  0  0  0
 22 63  1  0  0  0  0
 23 64  1  0  0  0  0
 23 65  1  0  0  0  0
 23 66  1  0  0  0  0
 24 25  1  0  0  0  0
 24 67  1  0  0  0  0
 24 68  1  0  0  0  0
 25 26  1  0  0  0  0
 25 27  2  0  0  0  0
 26 28  1  0  0  0  0
 26 29  1  0  0  0  0
 26 30  1  0  0  0  0
 27 70  1  0  0  0  0
 27 71  1  0  0  0  0
 28 73  1  0  0  0  0
 28 79  1  0  0  0  0
 28 80  1  0  0  0  0
 29 72  1  0  0  0  0
 29 76  1  0  0  0  0
 29 78  1  0  0  0  0
 30 74  1  0  0  0  0
 30 75  1  0  0  0  0
 30 77  1  0  0  0  0
M  END
> <PUBCHEM_COMPOUND_CID>
60077056

> <PUBCHEM_CONFORMER_RMSD>
0.8

> <PUBCHEM_CONFORMER_DIVERSEORDER>
2
21
26
15
10
19
16
12
18
27
22
13
24
6
9
11
28
4
23
7
14
1
25
8
5
17
3
20

> <PUBCHEM_MMFF94_PARTIAL_CHARGES>
9
1 -0.68
21 0.28
24 0.14
25 -0.28
26 0.14
27 -0.3
69 0.4
70 0.15
71 0.15

> <PUBCHEM_EFFECTIVE_ROTOR_COUNT>
7.2

> <PUBCHEM_PHARMACOPHORE_FEATURES>
10
1 1 acceptor
1 1 donor
1 23 hydrophobe
1 27 hydrophobe
4 26 28 29 30 hydrophobe
5 17 22 24 25 26 hydrophobe
5 2 3 7 11 13 rings
6 2 3 4 5 8 10 rings
6 4 5 6 9 12 14 rings
6 6 9 15 18 20 21 rings

> <PUBCHEM_HEAVY_ATOM_COUNT>
30

> <PUBCHEM_ATOM_DEF_STEREO_COUNT>
9

> <PUBCHEM_ATOM_UDEF_STEREO_COUNT>
0

> <PUBCHEM_BOND_DEF_STEREO_COUNT>
0

> <PUBCHEM_BOND_UDEF_STEREO_COUNT>
0

> <PUBCHEM_ISOTOPIC_ATOM_COUNT>
0

> <PUBCHEM_COMPONENT_COUNT>
1

> <PUBCHEM_CACTVS_TAUTO_COUNT>
1

> <PUBCHEM_CONFORMER_ID>
0394B40000000002

> <PUBCHEM_MMFF94_ENERGY>
107.0429

> <PUBCHEM_FEATURE_SELFOVERLAP>
50.864

> <PUBCHEM_SHAPE_FINGERPRINT>
10 15 8862938381865157326
10076449 9 18341615941048302987
106641 1 9655573015667456942
10670039 82 18335980883441923565
10835480 77 18270680987158879216
11007060 377 18411986866304781352
11135609 127 18262519321194484060
11135609 187 18335424604062745346
11315181 36 17989489636844365697
11524674 6 16200432480925726518
11578080 2 17169815688100196671
12011746 2 18341324548891833467
12166972 35 17775286084203612784
12516196 113 18060701689514008736
12741549 16 13973965394218532803
13540713 4 18124592247765046339
13617811 41 18259983773960121796
13668630 136 16558756706922240230
13782708 43 17132111363908723150
13811026 1 18272367590550338848
14068700 675 18060703871162703880
14294032 229 17968936362306696061
14856354 85 15719399455779073651
15183329 4 18410857651120684562
15849732 13 17676492752460224918
16728433 281 17898557689135490917
16994733 274 16515960389563851573
18681886 176 18340197583115839449
2026 5 16271935878322270830
21150785 3 18113336414066359172
21267235 1 18410858802393680451
21792961 116 18412549799020427651
221357 26 18341892987639749640
22224240 67 12829206676530733697
23522609 53 18055948491983840128
23559900 14 18342451582127107000
23576562 1 17968946433961969220
249057 3 18408321116081066797
2838139 119 15357695310138367886
3004659 81 18408317804635018264
335352 9 18410008849608302629
3383291 50 16845572028151252551
3633792 109 18343021103628469464
4073 2 17749113313542448378
4325135 7 18187082849353589079
437815 12 17775850120556815328
4616759 239 10809341119001305029
5265222 85 18337674229679051462
5758199 1 14562529578656280177
58902169 19 17676209104589090214
59682541 35 8934992677019925790
59755656 215 18410290285513913822
6328613 192 18186523197977216414

> <PUBCHEM_SHAPE_MULTIPOLES>
611.52
22.9
2.11
1.35
15.67
0.35
-0.13
0.11
11.91
-0.27
-0.07
0.3
-0.3
0.49

> <PUBCHEM_SHAPE_SELFOVERLAP>
1265.087

> <PUBCHEM_SHAPE_VOLUME>
350.3

> <PUBCHEM_COORDINATE_TYPE>
2
5
10

$$$$
