13983738
  -OEChem-09182009453D

 38 40  0     0  0  0  0  0  0999 V2000
   -0.1259    0.7328   -0.0784 O   0  0  0  0  0  0  0  0  0  0  0  0
    1.2577   -2.6563    0.3539 O   0  0  0  0  0  0  0  0  0  0  0  0
   -1.8140    2.8354   -0.3481 O   0  0  0  0  0  0  0  0  0  0  0  0
   -3.9560   -2.2232    0.2053 O   0  0  0  0  0  0  0  0  0  0  0  0
   -1.4907   -3.0824    0.3522 O   0  0  0  0  0  0  0  0  0  0  0  0
   -4.5529    2.4486   -0.3447 O   0  0  0  0  0  0  0  0  0  0  0  0
    6.1510    1.2175   -0.0344 O   0  0  0  0  0  0  0  0  0  0  0  0
   -2.0039   -0.7979    0.0697 C   0  0  0  0  0  0  0  0  0  0  0  0
   -1.4738    0.4827   -0.0709 C   0  0  0  0  0  0  0  0  0  0  0  0
    0.7459   -0.3371    0.0474 C   0  0  0  0  0  0  0  0  0  0  0  0
    0.3644   -1.6187    0.1983 C   0  0  0  0  0  0  0  0  0  0  0  0
   -1.0839   -1.9360    0.2179 C   0  0  0  0  0  0  0  0  0  0  0  0
   -2.3256    1.5790   -0.2105 C   0  0  0  0  0  0  0  0  0  0  0  0
   -3.3873   -0.9927    0.0716 C   0  0  0  0  0  0  0  0  0  0  0  0
    2.1622    0.0697    0.0254 C   0  0  0  0  0  0  0  0  0  0  0  0
   -3.7075    1.3886   -0.2093 C   0  0  0  0  0  0  0  0  0  0  0  0
   -4.2371    0.1053   -0.0685 C   0  0  0  0  0  0  0  0  0  0  0  0
    2.8576    0.1146   -1.1831 C   0  0  0  0  0  0  0  0  0  0  0  0
    2.8080    0.4109    1.2141 C   0  0  0  0  0  0  0  0  0  0  0  0
    4.1980    0.5001   -1.2030 C   0  0  0  0  0  0  0  0  0  0  0  0
    4.1484    0.7966    1.1943 C   0  0  0  0  0  0  0  0  0  0  0  0
    4.8434    0.8412   -0.0143 C   0  0  0  0  0  0  0  0  0  0  0  0
    1.6206   -3.2007   -0.9006 C   0  0  0  0  0  0  0  0  0  0  0  0
   -0.9990    3.3221    0.7156 C   0  0  0  0  0  0  0  0  0  0  0  0
   -5.3141   -0.0459   -0.0672 H   0  0  0  0  0  0  0  0  0  0  0  0
    2.3665   -0.1370   -2.1199 H   0  0  0  0  0  0  0  0  0  0  0  0
    2.2790    0.3819    2.1637 H   0  0  0  0  0  0  0  0  0  0  0  0
    4.7275    0.5331   -2.1513 H   0  0  0  0  0  0  0  0  0  0  0  0
    4.6457    1.0613    2.1234 H   0  0  0  0  0  0  0  0  0  0  0  0
   -3.2734   -2.9065    0.2880 H   0  0  0  0  0  0  0  0  0  0  0  0
   -5.4707    2.1277   -0.3210 H   0  0  0  0  0  0  0  0  0  0  0  0
    2.1280   -2.4787   -1.5436 H   0  0  0  0  0  0  0  0  0  0  0  0
    0.7471   -3.6091   -1.4214 H   0  0  0  0  0  0  0  0  0  0  0  0
    2.3147   -4.0273   -0.7204 H   0  0  0  0  0  0  0  0  0  0  0  0
   -1.2135    2.8248    1.6681 H   0  0  0  0  0  0  0  0  0  0  0  0
   -1.2053    4.3897    0.8358 H   0  0  0  0  0  0  0  0  0  0  0  0
    0.0580    3.2103    0.4574 H   0  0  0  0  0  0  0  0  0  0  0  0
    6.4725    1.1914   -0.9520 H   0  0  0  0  0  0  0  0  0  0  0  0
  1  9  1  0  0  0  0
  1 10  1  0  0  0  0
  2 11  1  0  0  0  0
  2 23  1  0  0  0  0
  3 13  1  0  0  0  0
  3 24  1  0  0  0  0
  4 14  1  0  0  0  0
  4 30  1  0  0  0  0
  5 12  2  0  0  0  0
  6 16  1  0  0  0  0
  6 31  1  0  0  0  0
  7 22  1  0  0  0  0
  7 38  1  0  0  0  0
  8  9  2  0  0  0  0
  8 12  1  0  0  0  0
  8 14  1  0  0  0  0
  9 13  1  0  0  0  0
 10 11  2  0  0  0  0
 10 15  1  0  0  0  0
 11 12  1  0  0  0  0
 13 16  2  0  0  0  0
 14 17  2  0  0  0  0
 15 18  2  0  0  0  0
 15 19  1  0  0  0  0
 16 17  1  0  0  0  0
 17 25  1  0  0  0  0
 18 20  1  0  0  0  0
 18 26  1  0  0  0  0
 19 21  2  0  0  0  0
 19 27  1  0  0  0  0
 20 22  2  0  0  0  0
 20 28  1  0  0  0  0
 21 22  1  0  0  0  0
 21 29  1  0  0  0  0
 23 32  1  0  0  0  0
 23 33  1  0  0  0  0
 23 34  1  0  0  0  0
 24 35  1  0  0  0  0
 24 36  1  0  0  0  0
 24 37  1  0  0  0  0
M  END
> <PUBCHEM_COMPOUND_CID>
13983738

> <PUBCHEM_CONFORMER_RMSD>
0.6

> <PUBCHEM_CONFORMER_DIVERSEORDER>
1
3
4
2

> <PUBCHEM_MMFF94_PARTIAL_CHARGES>
32
1 -0.16
10 0.05
11 0.09
12 0.47
13 0.08
14 0.08
15 0.03
16 0.08
17 -0.15
18 -0.15
19 -0.15
2 -0.36
20 -0.15
21 -0.15
22 0.08
23 0.28
24 0.28
25 0.15
26 0.15
27 0.15
28 0.15
29 0.15
3 -0.36
30 0.45
31 0.45
38 0.45
4 -0.53
5 -0.57
6 -0.53
7 -0.53
8 0.09
9 0.08

> <PUBCHEM_EFFECTIVE_ROTOR_COUNT>
3

> <PUBCHEM_PHARMACOPHORE_FEATURES>
10
1 1 acceptor
1 2 acceptor
1 3 acceptor
1 4 donor
1 5 acceptor
1 6 donor
1 7 donor
6 1 8 9 10 11 12 rings
6 15 18 19 20 21 22 rings
6 8 9 13 14 16 17 rings

> <PUBCHEM_HEAVY_ATOM_COUNT>
24

> <PUBCHEM_ATOM_DEF_STEREO_COUNT>
0

> <PUBCHEM_ATOM_UDEF_STEREO_COUNT>
0

> <PUBCHEM_BOND_DEF_STEREO_COUNT>
0

> <PUBCHEM_BOND_UDEF_STEREO_COUNT>
0

> <PUBCHEM_ISOTOPIC_ATOM_COUNT>
0

> <PUBCHEM_COMPONENT_COUNT>
1

> <PUBCHEM_CACTVS_TAUTO_COUNT>
57

> <PUBCHEM_CONFORMER_ID>
00D55FFA00000001

> <PUBCHEM_MMFF94_ENERGY>
90.5717

> <PUBCHEM_FEATURE_SELFOVERLAP>
50.786

> <PUBCHEM_SHAPE_FINGERPRINT>
10319926 262 18268127891093984152
10366900 7 18130495384066526097
10411042 1 17688593079519330867
10498660 4 18410855438674872573
10616163 171 18408605893761163771
10670039 82 18334301968030367676
10759866 29 18114458981537542288
10967382 1 18338233770008240033
11725454 13 17129828782723797914
11963148 33 18191019200209789835
12107183 9 17899963947062555442
12173636 292 18337669698783823621
12236239 1 17603862347582646688
12390115 104 18342470205274094361
12403259 415 18131067190706469328
12403814 3 17240477009897914549
12553582 1 18337953523424337747
12596602 18 17240764051268356728
12788726 201 17318472147310177322
13140716 1 17904486551772991483
13402501 40 18201433740034954536
14739800 52 18047183344565048096
14790565 3 18338247041241855313
15042514 8 18120377819875998818
15196674 1 18409448059485685555
16087824 20 18338514249429147551
16752209 62 18336264656088597658
16945 1 18337673113282894939
17980427 23 17822015345231340748
19591789 44 18267304424929054961
19784866 170 18410576184422620219
20510252 161 18413110558503344800
20645477 70 16988576680140437246
20691752 17 17168429250987337146
20715895 44 17680972021251500653
21033648 29 18059562651075536680
22149856 69 18046932407074701529
22182313 1 18338255790063649143
2297311 6 18340216292320363220
2334 1 17545039768060520027
23366157 5 17970067742976637362
23402539 116 18411977001065335420
23557571 272 18342745164827471844
23559900 14 18341615863432897732
2748010 2 18336834070152578199
34934 24 18411975828802936029
350125 39 18120940503435036646
469060 322 18264791976593444201
5104073 3 18190748535964936905
5265222 85 18268718393526313774
58051976 378 18410573950865741557
59755656 215 18339082562872951486
7364860 26 18126562319484202078
7808743 9 18335983159895773176
9709674 26 18268710511254192079
9981440 41 18333452044967603682

> <PUBCHEM_SHAPE_MULTIPOLES>
452.82
9.56
3.44
0.93
6.48
0.76
0.01
-4.39
0.55
-2.32
-0.08
0.87
-0.07
0.66

> <PUBCHEM_SHAPE_SELFOVERLAP>
1003.433

> <PUBCHEM_SHAPE_VOLUME>
241.6

> <PUBCHEM_COORDINATE_TYPE>
2
5
10

$$$$
