5488801
  -OEChem-09182010073D

 66 72  0     1  0  0  0  0  0999 V2000
    4.2932   -1.4869   -0.3816 O   0  0  0  0  0  0  0  0  0  0  0  0
    4.8247    0.7620   -0.9576 O   0  0  0  0  0  0  0  0  0  0  0  0
   -2.1786   -1.4812    0.0568 O   0  0  0  0  0  0  0  0  0  0  0  0
    5.6046   -0.1446    1.0889 O   0  0  0  0  0  0  0  0  0  0  0  0
    1.2315    2.9619   -0.3065 O   0  0  0  0  0  0  0  0  0  0  0  0
    2.6632   -1.1510   -2.5197 O   0  0  0  0  0  0  0  0  0  0  0  0
   -5.9526   -1.4322    0.3989 O   0  0  0  0  0  0  0  0  0  0  0  0
   -7.9161   -1.3651   -0.7447 O   0  0  0  0  0  0  0  0  0  0  0  0
    2.5042    0.1751   -0.4963 C   0  0  2  0  0  0  0  0  0  0  0  0
    1.0724    0.5515    0.0487 C   0  0  2  0  0  0  0  0  0  0  0  0
    0.1015   -0.6705   -0.0624 C   0  0  2  0  0  0  0  0  0  0  0  0
   -1.3449   -0.3677    0.4157 C   0  0  1  0  0  0  0  0  0  0  0  0
    3.0507   -1.0944    0.2388 C   0  0  1  0  0  0  0  0  0  0  0  0
   -1.9500    0.9163   -0.2086 C   0  0  2  0  0  0  0  0  0  0  0  0
    0.4428    1.8100   -0.6001 C   0  0  1  0  0  0  0  0  0  0  0  0
    3.6085    1.2648   -0.3571 C   0  0  1  0  0  0  0  0  0  0  0  0
    0.6791   -1.9198    0.6394 C   0  0  0  0  0  0  0  0  0  0  0  0
    2.0809   -2.2762    0.1590 C   0  0  0  0  0  0  0  0  0  0  0  0
   -0.9613    2.0979   -0.0637 C   0  0  0  0  0  0  0  0  0  0  0  0
   -3.1953    1.1872    0.6996 C   0  0  2  0  0  0  0  0  0  0  0  0
    3.3903   -0.7884    1.7247 C   0  0  0  0  0  0  0  0  0  0  0  0
   -1.4959   -0.1359    1.9303 C   0  0  0  0  0  0  0  0  0  0  0  0
    4.4415    0.3191    1.7887 C   0  0  2  0  0  0  0  0  0  0  0  0
    3.9368    1.5918    1.1046 C   0  0  0  0  0  0  0  0  0  0  0  0
   -2.7282    0.7621    2.1076 C   0  0  0  0  0  0  0  0  0  0  0  0
    5.2585   -0.4250   -0.2772 C   0  0  1  0  0  0  0  0  0  0  0  0
   -2.3130    0.7564   -1.6989 C   0  0  0  0  0  0  0  0  0  0  0  0
    2.3809   -0.0806   -1.9914 C   0  0  0  0  0  0  0  0  0  0  0  0
   -4.4627    0.4686    0.3272 C   0  0  0  0  0  0  0  0  0  0  0  0
    6.5250   -0.9036   -0.9717 C   0  0  0  0  0  0  0  0  0  0  0  0
   -5.4057    1.1375   -0.5309 C   0  0  0  0  0  0  0  0  0  0  0  0
   -4.7704   -0.7630    0.7464 C   0  0  0  0  0  0  0  0  0  0  0  0
   -6.5471    0.5429   -0.8916 C   0  0  0  0  0  0  0  0  0  0  0  0
   -6.8683   -0.8187   -0.4152 C   0  0  0  0  0  0  0  0  0  0  0  0
    1.1897    0.7854    1.1133 H   0  0  0  0  0  0  0  0  0  0  0  0
    0.0224   -0.9387   -1.1258 H   0  0  0  0  0  0  0  0  0  0  0  0
    0.3965    1.7205   -1.6873 H   0  0  0  0  0  0  0  0  0  0  0  0
    3.3639    2.1740   -0.9112 H   0  0  0  0  0  0  0  0  0  0  0  0
    0.0365   -2.7890    0.4593 H   0  0  0  0  0  0  0  0  0  0  0  0
    0.6940   -1.7702    1.7247 H   0  0  0  0  0  0  0  0  0  0  0  0
    2.4667   -3.1123    0.7575 H   0  0  0  0  0  0  0  0  0  0  0  0
    2.0259   -2.6828   -0.8561 H   0  0  0  0  0  0  0  0  0  0  0  0
   -0.8729    2.4101    0.9854 H   0  0  0  0  0  0  0  0  0  0  0  0
   -1.3627    2.9861   -0.5716 H   0  0  0  0  0  0  0  0  0  0  0  0
   -3.4151    2.2637    0.7305 H   0  0  0  0  0  0  0  0  0  0  0  0
    3.8172   -1.6904    2.1831 H   0  0  0  0  0  0  0  0  0  0  0  0
    2.5097   -0.5061    2.3086 H   0  0  0  0  0  0  0  0  0  0  0  0
   -0.6254    0.3690    2.3614 H   0  0  0  0  0  0  0  0  0  0  0  0
   -1.6364   -1.0729    2.4806 H   0  0  0  0  0  0  0  0  0  0  0  0
    4.7262    0.5243    2.8253 H   0  0  0  0  0  0  0  0  0  0  0  0
    3.0745    2.0060    1.6341 H   0  0  0  0  0  0  0  0  0  0  0  0
    4.7391    2.3398    1.1241 H   0  0  0  0  0  0  0  0  0  0  0  0
   -3.4927    0.2930    2.7357 H   0  0  0  0  0  0  0  0  0  0  0  0
   -2.4210    1.6570    2.6658 H   0  0  0  0  0  0  0  0  0  0  0  0
   -2.7800    1.6690   -2.0860 H   0  0  0  0  0  0  0  0  0  0  0  0
   -1.4292    0.5570   -2.3127 H   0  0  0  0  0  0  0  0  0  0  0  0
   -3.0036   -0.0731   -1.8797 H   0  0  0  0  0  0  0  0  0  0  0  0
    2.0630    0.7707   -2.6149 H   0  0  0  0  0  0  0  0  0  0  0  0
   -1.9761   -2.2247    0.6482 H   0  0  0  0  0  0  0  0  0  0  0  0
    1.2561    3.0743    0.6588 H   0  0  0  0  0  0  0  0  0  0  0  0
    7.3084   -0.1390   -0.9311 H   0  0  0  0  0  0  0  0  0  0  0  0
    6.9143   -1.8106   -0.4965 H   0  0  0  0  0  0  0  0  0  0  0  0
    6.3316   -1.1322   -2.0255 H   0  0  0  0  0  0  0  0  0  0  0  0
   -5.1791    2.1370   -0.8866 H   0  0  0  0  0  0  0  0  0  0  0  0
   -4.2016   -1.4004    1.4066 H   0  0  0  0  0  0  0  0  0  0  0  0
   -7.2617    1.0396   -1.5376 H   0  0  0  0  0  0  0  0  0  0  0  0
  1 13  1  0  0  0  0
  1 26  1  0  0  0  0
  2 16  1  0  0  0  0
  2 26  1  0  0  0  0
  3 12  1  0  0  0  0
  3 59  1  0  0  0  0
  4 23  1  0  0  0  0
  4 26  1  0  0  0  0
  5 15  1  0  0  0  0
  5 60  1  0  0  0  0
  6 28  2  0  0  0  0
  7 32  1  0  0  0  0
  7 34  1  0  0  0  0
  8 34  2  0  0  0  0
  9 10  1  0  0  0  0
  9 13  1  0  0  0  0
  9 16  1  0  0  0  0
  9 28  1  0  0  0  0
 10 11  1  0  0  0  0
 10 15  1  0  0  0  0
 10 35  1  0  0  0  0
 11 12  1  0  0  0  0
 11 17  1  0  0  0  0
 11 36  1  0  0  0  0
 12 14  1  0  0  0  0
 12 22  1  0  0  0  0
 13 18  1  0  0  0  0
 13 21  1  0  0  0  0
 14 19  1  0  0  0  0
 14 20  1  0  0  0  0
 14 27  1  0  0  0  0
 15 19  1  0  0  0  0
 15 37  1  0  0  0  0
 16 24  1  0  0  0  0
 16 38  1  0  0  0  0
 17 18  1  0  0  0  0
 17 39  1  0  0  0  0
 17 40  1  0  0  0  0
 18 41  1  0  0  0  0
 18 42  1  0  0  0  0
 19 43  1  0  0  0  0
 19 44  1  0  0  0  0
 20 25  1  0  0  0  0
 20 29  1  0  0  0  0
 20 45  1  0  0  0  0
 21 23  1  0  0  0  0
 21 46  1  0  0  0  0
 21 47  1  0  0  0  0
 22 25  1  0  0  0  0
 22 48  1  0  0  0  0
 22 49  1  0  0  0  0
 23 24  1  0  0  0  0
 23 50  1  0  0  0  0
 24 51  1  0  0  0  0
 24 52  1  0  0  0  0
 25 53  1  0  0  0  0
 25 54  1  0  0  0  0
 26 30  1  0  0  0  0
 27 55  1  0  0  0  0
 27 56  1  0  0  0  0
 27 57  1  0  0  0  0
 28 58  1  0  0  0  0
 29 31  1  0  0  0  0
 29 32  2  0  0  0  0
 30 61  1  0  0  0  0
 30 62  1  0  0  0  0
 30 63  1  0  0  0  0
 31 33  2  0  0  0  0
 31 64  1  0  0  0  0
 32 65  1  0  0  0  0
 33 34  1  0  0  0  0
 33 66  1  0  0  0  0
M  END
> <PUBCHEM_COMPOUND_CID>
5488801

> <PUBCHEM_CONFORMER_RMSD>
0.8

> <PUBCHEM_CONFORMER_DIVERSEORDER>
1
3
2
4

> <PUBCHEM_MMFF94_PARTIAL_CHARGES>
28
1 -0.56
12 0.28
13 0.28
15 0.28
16 0.28
2 -0.56
20 0.14
23 0.28
26 0.84
28 0.45
29 -0.14
3 -0.68
31 -0.15
32 -0.07
33 -0.14
34 0.71
4 -0.56
5 -0.68
58 0.06
59 0.4
6 -0.57
60 0.4
64 0.15
65 0.15
66 0.15
7 -0.23
8 -0.57
9 0.06

> <PUBCHEM_EFFECTIVE_ROTOR_COUNT>
4.4

> <PUBCHEM_PHARMACOPHORE_FEATURES>
17
1 1 acceptor
1 2 acceptor
1 3 acceptor
1 3 donor
1 4 acceptor
1 5 acceptor
1 5 donor
1 6 acceptor
1 8 acceptor
5 12 14 20 22 25 rings
6 1 2 9 13 16 26 rings
6 1 4 13 21 23 26 rings
6 10 11 12 14 15 19 rings
6 2 4 16 23 24 26 rings
6 7 29 31 32 33 34 rings
6 9 10 11 13 17 18 rings
6 9 13 16 21 23 24 rings

> <PUBCHEM_HEAVY_ATOM_COUNT>
34

> <PUBCHEM_ATOM_DEF_STEREO_COUNT>
11

> <PUBCHEM_ATOM_UDEF_STEREO_COUNT>
0

> <PUBCHEM_BOND_DEF_STEREO_COUNT>
0

> <PUBCHEM_BOND_UDEF_STEREO_COUNT>
0

> <PUBCHEM_ISOTOPIC_ATOM_COUNT>
0

> <PUBCHEM_COMPONENT_COUNT>
1

> <PUBCHEM_CACTVS_TAUTO_COUNT>
1

> <PUBCHEM_CONFORMER_ID>
0053C0A100000001

> <PUBCHEM_MMFF94_ENERGY>
137.1438

> <PUBCHEM_FEATURE_SELFOVERLAP>
100.485

> <PUBCHEM_SHAPE_FINGERPRINT>
10366900 7 18113626659777959664
10906281 52 17895491223554363081
11421498 54 15195295175063141514
11719270 70 18334287661125623851
11796584 16 15357702989197015040
11963148 33 18261104197098522787
12011746 2 18260553311860008000
12107698 1 15841552968162180746
12166972 35 18202285813832322904
12236239 1 17917994962457840945
12516196 113 18272086102599191921
12596602 18 17703791414222292385
12788726 201 17313668140105172196
13224815 77 18259991448617715120
13533116 47 17346602941431071670
13583140 156 15697434395715710369
13782708 43 17560249007243386966
13811026 1 18187644742808352579
14294032 229 17387688306923023501
14856354 85 11671772802654013401
15142383 8 11746930992752123078
15183329 4 16298100987052006101
15927050 60 17763465419160851228
17349148 13 17748829596286281689
18393751 57 17488438919839336856
18681886 176 18412823607427332171
19315092 285 18057879143595907098
19319366 153 15913323563816334366
19377110 9 15626226801607021315
20028762 73 18343020007958433583
20511986 3 17603859035477124347
21033648 29 18188198832788041520
21267235 1 18411707577344837862
22149856 69 18340218423288982307
23559900 14 16081095904094384685
23569917 315 18342181042048415934
23569943 247 17626683600423777086
23576562 1 17605572139023244182
24771293 8 18412825802256672192
3004659 81 17821729437700634932
335352 9 18334299769365963918
3411729 13 18192710270768118336
34797466 226 16415481588163115992
4325135 7 18413669115206421007
4340502 62 15841550773512928996
5283173 99 17677042444124319189
5385378 56 10807944743091561900
58260988 393 16630530613505731209
59755656 215 18334016064594760262
6004065 56 18336542832710032881
6086070 43 13768213848100574751

> <PUBCHEM_SHAPE_MULTIPOLES>
652.75
15.82
2
1.66
16.13
0.33
-0.03
-4.01
2.45
-0.18
0.05
-0.89
-0.03
0.27

> <PUBCHEM_SHAPE_SELFOVERLAP>
1465.159

> <PUBCHEM_SHAPE_VOLUME>
334.2

> <PUBCHEM_COORDINATE_TYPE>
2
5
10

$$$$
