185472
  -OEChem-09182010223D

 78 81  0     1  0  0  0  0  0999 V2000
    8.2263   -0.1177    1.4066 O   0  0  0  0  0  0  0  0  0  0  0  0
   -0.2133    0.4714   -0.7977 C   0  0  1  0  0  0  0  0  0  0  0  0
    0.5333   -0.8660   -0.6224 C   0  0  2  0  0  0  0  0  0  0  0  0
    2.0505   -0.7397   -0.7933 C   0  0  1  0  0  0  0  0  0  0  0  0
    2.6050    0.2910    0.2329 C   0  0  1  0  0  0  0  0  0  0  0  0
   -1.6673   -0.0322   -0.6267 C   0  0  2  0  0  0  0  0  0  0  0  0
    0.2731    1.4194    0.3073 C   0  0  0  0  0  0  0  0  0  0  0  0
    4.1659    0.4864    0.0709 C   0  0  2  0  0  0  0  0  0  0  0  0
   -0.2307   -1.8291   -1.5259 C   0  0  0  0  0  0  0  0  0  0  0  0
    1.7975    1.6182    0.2477 C   0  0  0  0  0  0  0  0  0  0  0  0
   -1.6928   -1.3557   -1.4270 C   0  0  0  0  0  0  0  0  0  0  0  0
    2.7351   -2.1008   -0.5983 C   0  0  0  0  0  0  0  0  0  0  0  0
   -2.7735    0.9292   -1.0368 C   0  0  1  0  0  0  0  0  0  0  0  0
   -0.0098    1.1298   -2.1850 C   0  0  0  0  0  0  0  0  0  0  0  0
    4.8708   -0.8667   -0.0996 C   0  0  0  0  0  0  0  0  0  0  0  0
    4.7061    1.1844    1.3548 C   0  0  0  0  0  0  0  0  0  0  0  0
    4.2113   -2.0035   -0.3828 C   0  0  0  0  0  0  0  0  0  0  0  0
    4.4987    1.3575   -1.1644 C   0  0  0  0  0  0  0  0  0  0  0  0
    6.3721   -0.8891    0.0721 C   0  0  0  0  0  0  0  0  0  0  0  0
    6.2297    1.1995    1.4697 C   0  0  0  0  0  0  0  0  0  0  0  0
   -4.1828    0.3135   -0.8973 C   0  0  0  0  0  0  0  0  0  0  0  0
    6.8056   -0.2083    1.3674 C   0  0  2  0  0  0  0  0  0  0  0  0
   -2.6537    2.2523   -0.2762 C   0  0  0  0  0  0  0  0  0  0  0  0
   -4.5855   -0.0770    0.5326 C   0  0  0  0  0  0  0  0  0  0  0  0
   -6.0279   -0.6334    0.6303 C   0  0  1  0  0  0  0  0  0  0  0  0
   -6.2566   -1.2253    2.0402 C   0  0  0  0  0  0  0  0  0  0  0  0
   -7.0873    0.3932    0.2450 C   0  0  0  0  0  0  0  0  0  0  0  0
   -7.5959   -1.9349    2.1944 C   0  0  0  0  0  0  0  0  0  0  0  0
   -7.2055    1.6472    1.0671 C   0  0  0  0  0  0  0  0  0  0  0  0
   -7.8985    0.1864   -0.8059 C   0  0  0  0  0  0  0  0  0  0  0  0
    0.3644   -1.2201    0.4089 H   0  0  0  0  0  0  0  0  0  0  0  0
    2.2740   -0.4002   -1.8110 H   0  0  0  0  0  0  0  0  0  0  0  0
    2.4411   -0.1585    1.2261 H   0  0  0  0  0  0  0  0  0  0  0  0
   -1.8032   -0.2897    0.4336 H   0  0  0  0  0  0  0  0  0  0  0  0
    0.0092    1.0201    1.2951 H   0  0  0  0  0  0  0  0  0  0  0  0
   -0.1713    2.4128    0.2426 H   0  0  0  0  0  0  0  0  0  0  0  0
   -0.1261   -2.8685   -1.1983 H   0  0  0  0  0  0  0  0  0  0  0  0
    0.1204   -1.7712   -2.5622 H   0  0  0  0  0  0  0  0  0  0  0  0
    2.0303    2.2191   -0.6363 H   0  0  0  0  0  0  0  0  0  0  0  0
    2.0942    2.2203    1.1141 H   0  0  0  0  0  0  0  0  0  0  0  0
   -2.1015   -1.2251   -2.4354 H   0  0  0  0  0  0  0  0  0  0  0  0
   -2.3091   -2.1037   -0.9159 H   0  0  0  0  0  0  0  0  0  0  0  0
    2.5490   -2.7244   -1.4811 H   0  0  0  0  0  0  0  0  0  0  0  0
    2.3043   -2.6310    0.2602 H   0  0  0  0  0  0  0  0  0  0  0  0
   -2.6718    1.1653   -2.1043 H   0  0  0  0  0  0  0  0  0  0  0  0
   -0.4868    2.1128   -2.2400 H   0  0  0  0  0  0  0  0  0  0  0  0
    1.0455    1.2897   -2.4222 H   0  0  0  0  0  0  0  0  0  0  0  0
   -0.4225    0.5244   -2.9983 H   0  0  0  0  0  0  0  0  0  0  0  0
    4.3074    0.6769    2.2439 H   0  0  0  0  0  0  0  0  0  0  0  0
    4.3492    2.2199    1.4052 H   0  0  0  0  0  0  0  0  0  0  0  0
    4.7635   -2.9361   -0.4708 H   0  0  0  0  0  0  0  0  0  0  0  0
    4.1529    2.3885   -1.0374 H   0  0  0  0  0  0  0  0  0  0  0  0
    5.5759    1.4205   -1.3517 H   0  0  0  0  0  0  0  0  0  0  0  0
    4.0431    0.9599   -2.0770 H   0  0  0  0  0  0  0  0  0  0  0  0
    6.7639   -1.9146    0.0636 H   0  0  0  0  0  0  0  0  0  0  0  0
    6.8494   -0.3990   -0.7858 H   0  0  0  0  0  0  0  0  0  0  0  0
    6.6690    1.8460    0.7000 H   0  0  0  0  0  0  0  0  0  0  0  0
    6.5247    1.6474    2.4268 H   0  0  0  0  0  0  0  0  0  0  0  0
   -4.2720   -0.5656   -1.5468 H   0  0  0  0  0  0  0  0  0  0  0  0
   -4.9024    1.0430   -1.2894 H   0  0  0  0  0  0  0  0  0  0  0  0
    6.4842   -0.8005    2.2330 H   0  0  0  0  0  0  0  0  0  0  0  0
   -2.4425    2.1034    0.7872 H   0  0  0  0  0  0  0  0  0  0  0  0
   -3.5953    2.8112   -0.3391 H   0  0  0  0  0  0  0  0  0  0  0  0
   -1.9030    2.9109   -0.7165 H   0  0  0  0  0  0  0  0  0  0  0  0
   -4.4668    0.7763    1.2096 H   0  0  0  0  0  0  0  0  0  0  0  0
   -3.8983   -0.8525    0.8911 H   0  0  0  0  0  0  0  0  0  0  0  0
   -6.0847   -1.4777   -0.0725 H   0  0  0  0  0  0  0  0  0  0  0  0
    8.5790   -1.0217    1.3448 H   0  0  0  0  0  0  0  0  0  0  0  0
   -5.4647   -1.9550    2.2526 H   0  0  0  0  0  0  0  0  0  0  0  0
   -6.1687   -0.4459    2.8065 H   0  0  0  0  0  0  0  0  0  0  0  0
   -7.7140   -2.7181    1.4389 H   0  0  0  0  0  0  0  0  0  0  0  0
   -7.6592   -2.4049    3.1811 H   0  0  0  0  0  0  0  0  0  0  0  0
   -8.4343   -1.2377    2.1056 H   0  0  0  0  0  0  0  0  0  0  0  0
   -6.2771    2.2246    1.0320 H   0  0  0  0  0  0  0  0  0  0  0  0
   -8.0063    2.3002    0.7028 H   0  0  0  0  0  0  0  0  0  0  0  0
   -7.4324    1.4099    2.1105 H   0  0  0  0  0  0  0  0  0  0  0  0
   -7.8253   -0.7125   -1.4090 H   0  0  0  0  0  0  0  0  0  0  0  0
   -8.6549    0.9111   -1.0884 H   0  0  0  0  0  0  0  0  0  0  0  0
  1 22  1  0  0  0  0
  1 68  1  0  0  0  0
  2  3  1  0  0  0  0
  2  6  1  0  0  0  0
  2  7  1  0  0  0  0
  2 14  1  0  0  0  0
  3  4  1  0  0  0  0
  3  9  1  0  0  0  0
  3 31  1  0  0  0  0
  4  5  1  0  0  0  0
  4 12  1  0  0  0  0
  4 32  1  0  0  0  0
  5  8  1  0  0  0  0
  5 10  1  0  0  0  0
  5 33  1  0  0  0  0
  6 11  1  0  0  0  0
  6 13  1  0  0  0  0
  6 34  1  0  0  0  0
  7 10  1  0  0  0  0
  7 35  1  0  0  0  0
  7 36  1  0  0  0  0
  8 15  1  0  0  0  0
  8 16  1  0  0  0  0
  8 18  1  0  0  0  0
  9 11  1  0  0  0  0
  9 37  1  0  0  0  0
  9 38  1  0  0  0  0
 10 39  1  0  0  0  0
 10 40  1  0  0  0  0
 11 41  1  0  0  0  0
 11 42  1  0  0  0  0
 12 17  1  0  0  0  0
 12 43  1  0  0  0  0
 12 44  1  0  0  0  0
 13 21  1  0  0  0  0
 13 23  1  0  0  0  0
 13 45  1  0  0  0  0
 14 46  1  0  0  0  0
 14 47  1  0  0  0  0
 14 48  1  0  0  0  0
 15 17  2  0  0  0  0
 15 19  1  0  0  0  0
 16 20  1  0  0  0  0
 16 49  1  0  0  0  0
 16 50  1  0  0  0  0
 17 51  1  0  0  0  0
 18 52  1  0  0  0  0
 18 53  1  0  0  0  0
 18 54  1  0  0  0  0
 19 22  1  0  0  0  0
 19 55  1  0  0  0  0
 19 56  1  0  0  0  0
 20 22  1  0  0  0  0
 20 57  1  0  0  0  0
 20 58  1  0  0  0  0
 21 24  1  0  0  0  0
 21 59  1  0  0  0  0
 21 60  1  0  0  0  0
 22 61  1  0  0  0  0
 23 62  1  0  0  0  0
 23 63  1  0  0  0  0
 23 64  1  0  0  0  0
 24 25  1  0  0  0  0
 24 65  1  0  0  0  0
 24 66  1  0  0  0  0
 25 26  1  0  0  0  0
 25 27  1  0  0  0  0
 25 67  1  0  0  0  0
 26 28  1  0  0  0  0
 26 69  1  0  0  0  0
 26 70  1  0  0  0  0
 27 29  1  0  0  0  0
 27 30  2  0  0  0  0
 28 71  1  0  0  0  0
 28 72  1  0  0  0  0
 28 73  1  0  0  0  0
 29 74  1  0  0  0  0
 29 75  1  0  0  0  0
 29 76  1  0  0  0  0
 30 77  1  0  0  0  0
 30 78  1  0  0  0  0
M  END
> <PUBCHEM_COMPOUND_CID>
185472

> <PUBCHEM_CONFORMER_RMSD>
1

> <PUBCHEM_CONFORMER_DIVERSEORDER>
1
4
6
3
2
5
7

> <PUBCHEM_MMFF94_PARTIAL_CHARGES>
15
1 -0.68
12 0.14
15 -0.28
17 -0.29
19 0.14
22 0.28
25 0.14
27 -0.28
29 0.14
30 -0.3
51 0.15
68 0.4
77 0.15
78 0.15
8 0.14

> <PUBCHEM_EFFECTIVE_ROTOR_COUNT>
8

> <PUBCHEM_PHARMACOPHORE_FEATURES>
9
1 1 acceptor
1 1 donor
1 23 hydrophobe
1 28 hydrophobe
5 2 3 6 9 11 rings
6 13 21 24 25 26 27 hydrophobe
6 2 3 4 5 7 10 rings
6 4 5 8 12 15 17 rings
6 8 15 16 19 20 22 rings

> <PUBCHEM_HEAVY_ATOM_COUNT>
30

> <PUBCHEM_ATOM_DEF_STEREO_COUNT>
9

> <PUBCHEM_ATOM_UDEF_STEREO_COUNT>
0

> <PUBCHEM_BOND_DEF_STEREO_COUNT>
0

> <PUBCHEM_BOND_UDEF_STEREO_COUNT>
0

> <PUBCHEM_ISOTOPIC_ATOM_COUNT>
0

> <PUBCHEM_COMPONENT_COUNT>
1

> <PUBCHEM_CACTVS_TAUTO_COUNT>
1

> <PUBCHEM_CONFORMER_ID>
0002D48000000001

> <PUBCHEM_MMFF94_ENERGY>
85.5561

> <PUBCHEM_FEATURE_SELFOVERLAP>
45.767

> <PUBCHEM_SHAPE_FINGERPRINT>
10 15 18410569609002023208
10299344 5 14057000508131698897
106641 1 18059853983107536639
10670039 82 13110968600586749379
10693767 8 11674864590375081800
11456790 92 18131063814999357786
11578080 2 16772367729764428658
11646440 116 18131068238546828640
11963148 33 17167854279299350707
12035758 1 18341612637427330334
12082328 90 12757152373176005035
12166972 35 14779267509994557390
12236239 1 16845286146516405477
13540713 4 18124030122529800436
13668630 136 12757152367947296473
13782708 43 16877939447170013547
13811026 1 18334576859001723547
14068700 675 16732987544242414413
14251764 18 17346873468414643525
14849402 71 17131546249671716953
15183329 4 7925636588075451671
15188451 53 17022903475645260443
15198563 99 8358274647929747115
15461852 350 15051721003059515861
15475509 35 17677322789714821410
16994733 274 14405188352541614019
20105231 36 18272380754520334142
21130935 74 18273217465668038023
21150785 3 10231754504627851618
21267235 1 18342741767940838222
21424621 283 14333416640237817431
21623969 137 18412267224595223471
21637258 2 16153705440237359815
21781051 124 18261406558996376974
21792934 111 18341887455162800517
22122407 14 16558473100988058787
22149856 69 18340785762039590425
22224240 67 18201997725091058495
23559900 14 17988628711335470096
23576562 1 10303228249580890163
2747138 104 18410019818421974465
3009799 131 9079115552966051727
3178227 256 18342458158027764784
3383291 50 17822302335822396355
3633792 109 12679197007140636116
397830 11 17969222403270744569
4093350 32 16200433555616869014
4340502 62 18187362117118360706
465052 167 17967817167175182364
5104073 3 18267863878525896608
5283156 175 14490470859711304581
54039377 194 13840276888505668073
59682541 35 18410008866403258040

> <PUBCHEM_SHAPE_MULTIPOLES>
611.52
22.62
2.03
1.76
15.96
0.21
0.3
1.75
14.04
0.28
-0.01
1
0.25
1.93

> <PUBCHEM_SHAPE_SELFOVERLAP>
1265.182

> <PUBCHEM_SHAPE_VOLUME>
349.6

> <PUBCHEM_COORDINATE_TYPE>
2
5
10

$$$$
