441848
  -OEChem-09182010123D

 86 91  0     1  0  0  0  0  0999 V2000
   -3.5460   -1.6435   -0.0563 O   0  0  0  0  0  0  0  0  0  0  0  0
    0.5804   -0.5229   -1.9702 O   0  0  0  0  0  0  0  0  0  0  0  0
   -1.7624    3.6574   -0.2066 O   0  0  0  0  0  0  0  0  0  0  0  0
   -4.1892    3.0649    0.5341 O   0  0  0  0  0  0  0  0  0  0  0  0
    4.6323    1.2664   -0.2466 O   0  0  0  0  0  0  0  0  0  0  0  0
    0.8061    3.3044   -2.0763 O   0  0  0  0  0  0  0  0  0  0  0  0
   -7.2261   -2.7556    0.5234 O   0  0  0  0  0  0  0  0  0  0  0  0
    5.8348    0.5466    1.6354 O   0  0  0  0  0  0  0  0  0  0  0  0
    7.4380    1.0616   -0.7308 O   0  0  0  0  0  0  0  0  0  0  0  0
    6.7871   -2.4394   -0.0541 O   0  0  0  0  0  0  0  0  0  0  0  0
   -9.1992   -3.2255   -0.5031 O   0  0  0  0  0  0  0  0  0  0  0  0
    7.1121   -2.6083   -2.3350 O   0  0  0  0  0  0  0  0  0  0  0  0
   -1.7016   -0.1350   -0.1499 C   0  0  1  0  0  0  0  0  0  0  0  0
   -3.1501   -0.3344    0.3854 C   0  0  1  0  0  0  0  0  0  0  0  0
   -1.1545    1.3015    0.0168 C   0  0  1  0  0  0  0  0  0  0  0  0
    0.3256    1.4842   -0.5538 C   0  0  2  0  0  0  0  0  0  0  0  0
   -4.1725    0.7193   -0.1103 C   0  0  1  0  0  0  0  0  0  0  0  0
    1.0614    0.1162   -0.7745 C   0  0  1  0  0  0  0  0  0  0  0  0
   -0.7419   -1.1893    0.4573 C   0  0  0  0  0  0  0  0  0  0  0  0
   -2.1649    2.3333   -0.5245 C   0  0  1  0  0  0  0  0  0  0  0  0
   -5.3709    0.5572    0.8750 C   0  0  2  0  0  0  0  0  0  0  0  0
   -3.2865   -0.2710    1.9217 C   0  0  0  0  0  0  0  0  0  0  0  0
    0.7432   -0.8275    0.3904 C   0  0  0  0  0  0  0  0  0  0  0  0
   -3.5599    2.1258    0.0438 C   0  0  0  0  0  0  0  0  0  0  0  0
    1.1097    2.3853    0.4510 C   0  0  0  0  0  0  0  0  0  0  0  0
   -4.7004    0.2437    2.2227 C   0  0  0  0  0  0  0  0  0  0  0  0
    2.5806    0.2773   -0.9726 C   0  0  0  0  0  0  0  0  0  0  0  0
   -4.5806    0.5582   -1.5826 C   0  0  0  0  0  0  0  0  0  0  0  0
    2.6064    2.4926    0.1749 C   0  0  0  0  0  0  0  0  0  0  0  0
    3.2574    1.1212    0.0955 C   0  0  2  0  0  0  0  0  0  0  0  0
    0.2901    2.2078   -1.8881 C   0  0  0  0  0  0  0  0  0  0  0  0
   -6.3865   -0.4900    0.5179 C   0  0  0  0  0  0  0  0  0  0  0  0
   -7.5488   -0.0928   -0.2332 C   0  0  0  0  0  0  0  0  0  0  0  0
   -6.2772   -1.7786    0.8568 C   0  0  0  0  0  0  0  0  0  0  0  0
    5.4188    0.2164    0.3086 C   0  0  2  0  0  0  0  0  0  0  0  0
   -8.4825   -0.9856   -0.5761 C   0  0  0  0  0  0  0  0  0  0  0  0
    6.6245   -0.1023   -0.5847 C   0  0  2  0  0  0  0  0  0  0  0  0
   -8.3424   -2.4053   -0.1898 C   0  0  0  0  0  0  0  0  0  0  0  0
    7.4867   -1.2012    0.0376 C   0  0  1  0  0  0  0  0  0  0  0  0
    6.5191   -0.5347    2.2770 C   0  0  1  0  0  0  0  0  0  0  0  0
    7.7954   -0.8898    1.5054 C   0  0  0  0  0  0  0  0  0  0  0  0
    6.8449   -0.0979    3.6992 C   0  0  0  0  0  0  0  0  0  0  0  0
    6.4752   -2.8506   -1.3188 C   0  0  0  0  0  0  0  0  0  0  0  0
    5.2142   -3.6603   -1.2918 C   0  0  0  0  0  0  0  0  0  0  0  0
   -1.7405   -0.3333   -1.2302 H   0  0  0  0  0  0  0  0  0  0  0  0
   -1.0900    1.4719    1.1006 H   0  0  0  0  0  0  0  0  0  0  0  0
   -0.9792   -1.3939    1.5067 H   0  0  0  0  0  0  0  0  0  0  0  0
   -0.8987   -2.1397   -0.0700 H   0  0  0  0  0  0  0  0  0  0  0  0
   -2.2595    2.2752   -1.6126 H   0  0  0  0  0  0  0  0  0  0  0  0
   -5.9169    1.5020    0.9990 H   0  0  0  0  0  0  0  0  0  0  0  0
   -3.1505   -1.2575    2.3790 H   0  0  0  0  0  0  0  0  0  0  0  0
   -2.5609    0.4107    2.3768 H   0  0  0  0  0  0  0  0  0  0  0  0
    1.0469   -0.3807    1.3441 H   0  0  0  0  0  0  0  0  0  0  0  0
    1.3119   -1.7613    0.2931 H   0  0  0  0  0  0  0  0  0  0  0  0
    0.6936    3.3991    0.4788 H   0  0  0  0  0  0  0  0  0  0  0  0
    0.9925    1.9873    1.4676 H   0  0  0  0  0  0  0  0  0  0  0  0
   -5.2575   -0.4371    2.8750 H   0  0  0  0  0  0  0  0  0  0  0  0
   -4.6060    1.1756    2.7971 H   0  0  0  0  0  0  0  0  0  0  0  0
    2.7864    0.7241   -1.9565 H   0  0  0  0  0  0  0  0  0  0  0  0
    3.0497   -0.7128   -1.0428 H   0  0  0  0  0  0  0  0  0  0  0  0
   -3.7188    0.6472   -2.2523 H   0  0  0  0  0  0  0  0  0  0  0  0
   -5.0420   -0.4099   -1.7982 H   0  0  0  0  0  0  0  0  0  0  0  0
   -5.2901    1.3409   -1.8755 H   0  0  0  0  0  0  0  0  0  0  0  0
    3.0839    3.0717    0.9757 H   0  0  0  0  0  0  0  0  0  0  0  0
    2.8131    3.0586   -0.7400 H   0  0  0  0  0  0  0  0  0  0  0  0
    3.1621    0.6464    1.0811 H   0  0  0  0  0  0  0  0  0  0  0  0
   -0.2585    1.7102   -2.7060 H   0  0  0  0  0  0  0  0  0  0  0  0
   -3.4065   -1.7039   -1.0160 H   0  0  0  0  0  0  0  0  0  0  0  0
    0.9773   -0.0916   -2.7450 H   0  0  0  0  0  0  0  0  0  0  0  0
   -1.6619    3.7154    0.7590 H   0  0  0  0  0  0  0  0  0  0  0  0
   -7.6609    0.9466   -0.5229 H   0  0  0  0  0  0  0  0  0  0  0  0
   -5.4863   -2.2439    1.4257 H   0  0  0  0  0  0  0  0  0  0  0  0
    4.8094   -0.6956    0.3675 H   0  0  0  0  0  0  0  0  0  0  0  0
   -9.3598   -0.6947   -1.1421 H   0  0  0  0  0  0  0  0  0  0  0  0
    6.2668   -0.3491   -1.5885 H   0  0  0  0  0  0  0  0  0  0  0  0
    8.4436   -1.2939   -0.4923 H   0  0  0  0  0  0  0  0  0  0  0  0
    5.8464   -1.4003    2.3256 H   0  0  0  0  0  0  0  0  0  0  0  0
    8.4935   -0.0441    1.5446 H   0  0  0  0  0  0  0  0  0  0  0  0
    8.2809   -1.7512    1.9787 H   0  0  0  0  0  0  0  0  0  0  0  0
    6.8681    1.7741   -1.0671 H   0  0  0  0  0  0  0  0  0  0  0  0
    7.4724    0.8003    3.7008 H   0  0  0  0  0  0  0  0  0  0  0  0
    7.3616   -0.8893    4.2503 H   0  0  0  0  0  0  0  0  0  0  0  0
    5.9266    0.1605    4.2376 H   0  0  0  0  0  0  0  0  0  0  0  0
    4.3928   -3.0547   -0.9008 H   0  0  0  0  0  0  0  0  0  0  0  0
    5.3604   -4.5528   -0.6785 H   0  0  0  0  0  0  0  0  0  0  0  0
    4.9617   -3.9725   -2.3091 H   0  0  0  0  0  0  0  0  0  0  0  0
  1 14  1  0  0  0  0
  1 68  1  0  0  0  0
  2 18  1  0  0  0  0
  2 69  1  0  0  0  0
  3 20  1  0  0  0  0
  3 70  1  0  0  0  0
  4 24  2  0  0  0  0
  5 30  1  0  0  0  0
  5 35  1  0  0  0  0
  6 31  2  0  0  0  0
  7 34  1  0  0  0  0
  7 38  1  0  0  0  0
  8 35  1  0  0  0  0
  8 40  1  0  0  0  0
  9 37  1  0  0  0  0
  9 80  1  0  0  0  0
 10 39  1  0  0  0  0
 10 43  1  0  0  0  0
 11 38  2  0  0  0  0
 12 43  2  0  0  0  0
 13 14  1  0  0  0  0
 13 15  1  0  0  0  0
 13 19  1  0  0  0  0
 13 45  1  0  0  0  0
 14 17  1  0  0  0  0
 14 22  1  0  0  0  0
 15 16  1  0  0  0  0
 15 20  1  0  0  0  0
 15 46  1  0  0  0  0
 16 18  1  0  0  0  0
 16 25  1  0  0  0  0
 16 31  1  0  0  0  0
 17 21  1  0  0  0  0
 17 24  1  0  0  0  0
 17 28  1  0  0  0  0
 18 23  1  0  0  0  0
 18 27  1  0  0  0  0
 19 23  1  0  0  0  0
 19 47  1  0  0  0  0
 19 48  1  0  0  0  0
 20 24  1  0  0  0  0
 20 49  1  0  0  0  0
 21 26  1  0  0  0  0
 21 32  1  0  0  0  0
 21 50  1  0  0  0  0
 22 26  1  0  0  0  0
 22 51  1  0  0  0  0
 22 52  1  0  0  0  0
 23 53  1  0  0  0  0
 23 54  1  0  0  0  0
 25 29  1  0  0  0  0
 25 55  1  0  0  0  0
 25 56  1  0  0  0  0
 26 57  1  0  0  0  0
 26 58  1  0  0  0  0
 27 30  1  0  0  0  0
 27 59  1  0  0  0  0
 27 60  1  0  0  0  0
 28 61  1  0  0  0  0
 28 62  1  0  0  0  0
 28 63  1  0  0  0  0
 29 30  1  0  0  0  0
 29 64  1  0  0  0  0
 29 65  1  0  0  0  0
 30 66  1  0  0  0  0
 31 67  1  0  0  0  0
 32 33  1  0  0  0  0
 32 34  2  0  0  0  0
 33 36  2  0  0  0  0
 33 71  1  0  0  0  0
 34 72  1  0  0  0  0
 35 37  1  0  0  0  0
 35 73  1  0  0  0  0
 36 38  1  0  0  0  0
 36 74  1  0  0  0  0
 37 39  1  0  0  0  0
 37 75  1  0  0  0  0
 39 41  1  0  0  0  0
 39 76  1  0  0  0  0
 40 41  1  0  0  0  0
 40 42  1  0  0  0  0
 40 77  1  0  0  0  0
 41 78  1  0  0  0  0
 41 79  1  0  0  0  0
 42 81  1  0  0  0  0
 42 82  1  0  0  0  0
 42 83  1  0  0  0  0
 43 44  1  0  0  0  0
 44 84  1  0  0  0  0
 44 85  1  0  0  0  0
 44 86  1  0  0  0  0
M  END
> <PUBCHEM_COMPOUND_CID>
441848

> <PUBCHEM_CONFORMER_RMSD>
1.2

> <PUBCHEM_CONFORMER_DIVERSEORDER>
2
7
19
3
23
11
14
25
26
21
6
22
1
4
8
13
24
10
5
18
9
15
12
20
17
16

> <PUBCHEM_MMFF94_PARTIAL_CHARGES>
40
1 -0.68
10 -0.43
11 -0.57
12 -0.57
14 0.28
16 0.06
17 0.06
18 0.28
2 -0.68
20 0.34
21 0.14
24 0.45
3 -0.68
30 0.28
31 0.45
32 -0.14
33 -0.15
34 -0.07
35 0.56
36 -0.14
37 0.28
38 0.71
39 0.28
4 -0.57
40 0.28
43 0.66
44 0.06
5 -0.56
6 -0.57
67 0.06
68 0.4
69 0.4
7 -0.23
70 0.4
71 0.15
72 0.15
74 0.15
8 -0.56
80 0.4
9 -0.68

> <PUBCHEM_EFFECTIVE_ROTOR_COUNT>
9.2

> <PUBCHEM_PHARMACOPHORE_FEATURES>
20
1 1 acceptor
1 1 donor
1 11 acceptor
1 12 acceptor
1 2 acceptor
1 2 donor
1 3 acceptor
1 3 donor
1 4 acceptor
1 5 acceptor
1 6 acceptor
1 8 acceptor
1 9 acceptor
1 9 donor
5 14 17 21 22 26 rings
6 13 14 15 17 20 24 rings
6 13 15 16 18 19 23 rings
6 16 18 25 27 29 30 rings
6 7 32 33 34 36 38 rings
6 8 35 37 39 40 41 rings

> <PUBCHEM_HEAVY_ATOM_COUNT>
44

> <PUBCHEM_ATOM_DEF_STEREO_COUNT>
13

> <PUBCHEM_ATOM_UDEF_STEREO_COUNT>
0

> <PUBCHEM_BOND_DEF_STEREO_COUNT>
0

> <PUBCHEM_BOND_UDEF_STEREO_COUNT>
0

> <PUBCHEM_ISOTOPIC_ATOM_COUNT>
0

> <PUBCHEM_COMPONENT_COUNT>
1

> <PUBCHEM_CACTVS_TAUTO_COUNT>
4

> <PUBCHEM_CONFORMER_ID>
0006BDF800000002

> <PUBCHEM_MMFF94_ENERGY>
160.9334

> <PUBCHEM_FEATURE_SELFOVERLAP>
101.782

> <PUBCHEM_SHAPE_FINGERPRINT>
10 15 15195565731873919320
10369192 42 9727641592580358913
11456790 92 15984821494263348770
11672396 43 18334583486072990347
12013929 94 18412549834313387476
12120059 9 18263626403847126670
12166972 35 17530964730666448149
12422481 6 18272370841756277220
12539765 74 8646775508125505016
12838863 1 18334569183773898387
13782708 43 18410293567338296548
13811026 1 18412825759744154063
14068700 675 18333450967300310853
15064981 113 15357965764709589863
15131766 46 15839554164167667888
15183329 4 16660938703194965094
15198563 99 16153698787243219012
15392192 104 18272651303299995074
15510800 12 18409731754970960015
16126227 98 10807939275909105209
18393751 57 14764348257923633965
19301679 30 18342176618937670256
19841028 212 18188205532841539145
20105231 36 18201728311274169326
2026 5 18261671489173754707
21130935 74 18130230354640826586
21814621 53 17774153480100533016
23522609 53 17606427400884617596
23559900 14 16226616316003282725
23569917 315 18339651143745658767
23569943 247 18124323696488347554
23576562 1 14274028805003225695
3383291 50 18408039610939871931
3711267 37 11458413614861186703
4516262 110 17097507637872666076
474113 269 17822558461152493363
504579 68 13479133492782303695
5265222 85 11314319364481606857
5718773 13 18410013256228884809
5758199 1 11167946861774377293
6081469 158 17968090941618513861
6201320 221 16589403355405007306
9831232 110 18339365137672617422
9896288 288 18200316499088252521
9962374 69 18336823191316610364

> <PUBCHEM_SHAPE_MULTIPOLES>
835.07
26.64
3.55
2.01
0.11
0.23
1.06
23.55
4.21
0.69
-1.59
-3.78
0.21
1.48

> <PUBCHEM_SHAPE_SELFOVERLAP>
1807.491

> <PUBCHEM_SHAPE_VOLUME>
448.2

> <PUBCHEM_COORDINATE_TYPE>
2
5
10

$$$$
