13833114
  -OEChem-09182010173D

 75 78  0     1  0  0  0  0  0999 V2000
    7.8645   -0.4896    1.1987 O   0  0  0  0  0  0  0  0  0  0  0  0
   -0.5763    0.7245   -0.7278 C   0  0  1  0  0  0  0  0  0  0  0  0
    0.0567   -0.6617   -0.4946 C   0  0  2  0  0  0  0  0  0  0  0  0
    1.5705   -0.6836   -0.7288 C   0  0  1  0  0  0  0  0  0  0  0  0
    2.2563    0.3531    0.2083 C   0  0  1  0  0  0  0  0  0  0  0  0
   -2.0605    0.3656   -0.4715 C   0  0  2  0  0  0  0  0  0  0  0  0
    0.0377    1.6899    0.2956 C   0  0  0  0  0  0  0  0  0  0  0  0
    3.8200    0.3966   -0.0232 C   0  0  2  0  0  0  0  0  0  0  0  0
   -0.8265   -1.6050   -1.3057 C   0  0  0  0  0  0  0  0  0  0  0  0
    1.5699    1.7463    0.1674 C   0  0  0  0  0  0  0  0  0  0  0  0
   -2.2359   -0.9963   -1.1838 C   0  0  0  0  0  0  0  0  0  0  0  0
    2.1405   -2.0866   -0.4720 C   0  0  0  0  0  0  0  0  0  0  0  0
   -3.0942    1.3963   -0.9017 C   0  0  1  0  0  0  0  0  0  0  0  0
   -0.3746    1.2765   -2.1610 C   0  0  0  0  0  0  0  0  0  0  0  0
    4.3955   -1.0225   -0.1324 C   0  0  0  0  0  0  0  0  0  0  0  0
    4.4732    1.1195    1.1926 C   0  0  0  0  0  0  0  0  0  0  0  0
    3.6274   -2.1102   -0.3175 C   0  0  0  0  0  0  0  0  0  0  0  0
    4.1756    1.1576   -1.3232 C   0  0  0  0  0  0  0  0  0  0  0  0
    5.8949   -1.1700   -0.0147 C   0  0  0  0  0  0  0  0  0  0  0  0
    5.9958    1.0039    1.2503 C   0  0  0  0  0  0  0  0  0  0  0  0
   -4.5398    0.9570   -0.5866 C   0  0  0  0  0  0  0  0  0  0  0  0
    6.4410   -0.4538    1.2175 C   0  0  2  0  0  0  0  0  0  0  0  0
   -2.8102    2.7402   -0.2191 C   0  0  0  0  0  0  0  0  0  0  0  0
   -4.8417    0.6693    0.8920 C   0  0  0  0  0  0  0  0  0  0  0  0
   -6.2755    0.1844    1.1969 C   0  0  2  0  0  0  0  0  0  0  0  0
   -6.4395    0.0039    2.7117 C   0  0  0  0  0  0  0  0  0  0  0  0
   -6.6698   -1.0832    0.4510 C   0  0  0  0  0  0  0  0  0  0  0  0
   -5.8600   -2.3311    0.6746 C   0  0  0  0  0  0  0  0  0  0  0  0
   -7.7150   -1.0911   -0.3928 C   0  0  0  0  0  0  0  0  0  0  0  0
   -0.0987   -0.9361    0.5628 H   0  0  0  0  0  0  0  0  0  0  0  0
    1.7796   -0.4280   -1.7736 H   0  0  0  0  0  0  0  0  0  0  0  0
    2.0957   -0.0187    1.2336 H   0  0  0  0  0  0  0  0  0  0  0  0
   -2.1617    0.1857    0.6074 H   0  0  0  0  0  0  0  0  0  0  0  0
   -0.2181    1.3774    1.3160 H   0  0  0  0  0  0  0  0  0  0  0  0
   -0.3161    2.7147    0.1834 H   0  0  0  0  0  0  0  0  0  0  0  0
   -0.7996   -2.6278   -0.9164 H   0  0  0  0  0  0  0  0  0  0  0  0
   -0.5160   -1.6417   -2.3559 H   0  0  0  0  0  0  0  0  0  0  0  0
    1.8171    2.2690   -0.7612 H   0  0  0  0  0  0  0  0  0  0  0  0
    1.9546    2.3704    0.9819 H   0  0  0  0  0  0  0  0  0  0  0  0
   -2.6785   -0.8914   -2.1807 H   0  0  0  0  0  0  0  0  0  0  0  0
   -2.8858   -1.6553   -0.6020 H   0  0  0  0  0  0  0  0  0  0  0  0
    1.8631   -2.7433   -1.3054 H   0  0  0  0  0  0  0  0  0  0  0  0
    1.7014   -2.5226    0.4341 H   0  0  0  0  0  0  0  0  0  0  0  0
   -3.0493    1.5529   -1.9867 H   0  0  0  0  0  0  0  0  0  0  0  0
   -0.7682    2.2922   -2.2624 H   0  0  0  0  0  0  0  0  0  0  0  0
    0.6798    1.3279   -2.4461 H   0  0  0  0  0  0  0  0  0  0  0  0
   -0.8715    0.6612   -2.9179 H   0  0  0  0  0  0  0  0  0  0  0  0
    4.0695    0.7047    2.1264 H   0  0  0  0  0  0  0  0  0  0  0  0
    4.2111    2.1841    1.1897 H   0  0  0  0  0  0  0  0  0  0  0  0
    4.0914   -3.0924   -0.3657 H   0  0  0  0  0  0  0  0  0  0  0  0
    3.9273    2.2213   -1.2502 H   0  0  0  0  0  0  0  0  0  0  0  0
    5.2453    1.1116   -1.5536 H   0  0  0  0  0  0  0  0  0  0  0  0
    3.6487    0.7481   -2.1911 H   0  0  0  0  0  0  0  0  0  0  0  0
    6.1966   -2.2246    0.0296 H   0  0  0  0  0  0  0  0  0  0  0  0
    6.3738   -0.7793   -0.9215 H   0  0  0  0  0  0  0  0  0  0  0  0
    6.4548    1.5629    0.4255 H   0  0  0  0  0  0  0  0  0  0  0  0
    6.3692    1.4802    2.1655 H   0  0  0  0  0  0  0  0  0  0  0  0
   -5.2334    1.7313   -0.9400 H   0  0  0  0  0  0  0  0  0  0  0  0
   -4.7669    0.0663   -1.1837 H   0  0  0  0  0  0  0  0  0  0  0  0
    6.1095   -0.9660    2.1283 H   0  0  0  0  0  0  0  0  0  0  0  0
   -2.0289    3.3004   -0.7360 H   0  0  0  0  0  0  0  0  0  0  0  0
   -3.6954    3.3863   -0.2664 H   0  0  0  0  0  0  0  0  0  0  0  0
   -2.5543    2.6287    0.8392 H   0  0  0  0  0  0  0  0  0  0  0  0
   -4.6614    1.5838    1.4709 H   0  0  0  0  0  0  0  0  0  0  0  0
   -4.1394   -0.0762    1.2791 H   0  0  0  0  0  0  0  0  0  0  0  0
    8.1669   -0.0444    0.3888 H   0  0  0  0  0  0  0  0  0  0  0  0
   -6.9562    0.9947    0.9005 H   0  0  0  0  0  0  0  0  0  0  0  0
   -5.7216   -0.7168    3.1179 H   0  0  0  0  0  0  0  0  0  0  0  0
   -6.2820    0.9557    3.2310 H   0  0  0  0  0  0  0  0  0  0  0  0
   -7.4483   -0.3447    2.9589 H   0  0  0  0  0  0  0  0  0  0  0  0
   -5.9271   -2.6523    1.7185 H   0  0  0  0  0  0  0  0  0  0  0  0
   -4.8096   -2.1673    0.4290 H   0  0  0  0  0  0  0  0  0  0  0  0
   -6.2115   -3.1636    0.0552 H   0  0  0  0  0  0  0  0  0  0  0  0
   -8.3084   -0.1998   -0.5674 H   0  0  0  0  0  0  0  0  0  0  0  0
   -8.0025   -1.9889   -0.9299 H   0  0  0  0  0  0  0  0  0  0  0  0
  1 22  1  0  0  0  0
  1 66  1  0  0  0  0
  2  3  1  0  0  0  0
  2  6  1  0  0  0  0
  2  7  1  0  0  0  0
  2 14  1  0  0  0  0
  3  4  1  0  0  0  0
  3  9  1  0  0  0  0
  3 30  1  0  0  0  0
  4  5  1  0  0  0  0
  4 12  1  0  0  0  0
  4 31  1  0  0  0  0
  5  8  1  0  0  0  0
  5 10  1  0  0  0  0
  5 32  1  0  0  0  0
  6 11  1  0  0  0  0
  6 13  1  0  0  0  0
  6 33  1  0  0  0  0
  7 10  1  0  0  0  0
  7 34  1  0  0  0  0
  7 35  1  0  0  0  0
  8 15  1  0  0  0  0
  8 16  1  0  0  0  0
  8 18  1  0  0  0  0
  9 11  1  0  0  0  0
  9 36  1  0  0  0  0
  9 37  1  0  0  0  0
 10 38  1  0  0  0  0
 10 39  1  0  0  0  0
 11 40  1  0  0  0  0
 11 41  1  0  0  0  0
 12 17  1  0  0  0  0
 12 42  1  0  0  0  0
 12 43  1  0  0  0  0
 13 21  1  0  0  0  0
 13 23  1  0  0  0  0
 13 44  1  0  0  0  0
 14 45  1  0  0  0  0
 14 46  1  0  0  0  0
 14 47  1  0  0  0  0
 15 17  2  0  0  0  0
 15 19  1  0  0  0  0
 16 20  1  0  0  0  0
 16 48  1  0  0  0  0
 16 49  1  0  0  0  0
 17 50  1  0  0  0  0
 18 51  1  0  0  0  0
 18 52  1  0  0  0  0
 18 53  1  0  0  0  0
 19 22  1  0  0  0  0
 19 54  1  0  0  0  0
 19 55  1  0  0  0  0
 20 22  1  0  0  0  0
 20 56  1  0  0  0  0
 20 57  1  0  0  0  0
 21 24  1  0  0  0  0
 21 58  1  0  0  0  0
 21 59  1  0  0  0  0
 22 60  1  0  0  0  0
 23 61  1  0  0  0  0
 23 62  1  0  0  0  0
 23 63  1  0  0  0  0
 24 25  1  0  0  0  0
 24 64  1  0  0  0  0
 24 65  1  0  0  0  0
 25 26  1  0  0  0  0
 25 27  1  0  0  0  0
 25 67  1  0  0  0  0
 26 68  1  0  0  0  0
 26 69  1  0  0  0  0
 26 70  1  0  0  0  0
 27 28  1  0  0  0  0
 27 29  2  0  0  0  0
 28 71  1  0  0  0  0
 28 72  1  0  0  0  0
 28 73  1  0  0  0  0
 29 74  1  0  0  0  0
 29 75  1  0  0  0  0
M  END
> <PUBCHEM_COMPOUND_CID>
13833114

> <PUBCHEM_CONFORMER_RMSD>
0.8

> <PUBCHEM_CONFORMER_DIVERSEORDER>
3
9
1
8
2
10
5
4
7
6

> <PUBCHEM_MMFF94_PARTIAL_CHARGES>
15
1 -0.68
12 0.14
15 -0.28
17 -0.29
19 0.14
22 0.28
25 0.14
27 -0.28
28 0.14
29 -0.3
50 0.15
66 0.4
74 0.15
75 0.15
8 0.14

> <PUBCHEM_EFFECTIVE_ROTOR_COUNT>
7

> <PUBCHEM_PHARMACOPHORE_FEATURES>
9
1 1 acceptor
1 1 donor
1 23 hydrophobe
1 26 hydrophobe
5 13 21 24 25 27 hydrophobe
5 2 3 6 9 11 rings
6 2 3 4 5 7 10 rings
6 4 5 8 12 15 17 rings
6 8 15 16 19 20 22 rings

> <PUBCHEM_HEAVY_ATOM_COUNT>
29

> <PUBCHEM_ATOM_DEF_STEREO_COUNT>
9

> <PUBCHEM_ATOM_UDEF_STEREO_COUNT>
0

> <PUBCHEM_BOND_DEF_STEREO_COUNT>
0

> <PUBCHEM_BOND_UDEF_STEREO_COUNT>
0

> <PUBCHEM_ISOTOPIC_ATOM_COUNT>
0

> <PUBCHEM_COMPONENT_COUNT>
1

> <PUBCHEM_CACTVS_TAUTO_COUNT>
1

> <PUBCHEM_CONFORMER_ID>
00D3139A00000003

> <PUBCHEM_MMFF94_ENERGY>
86.5185

> <PUBCHEM_FEATURE_SELFOVERLAP>
45.769

> <PUBCHEM_SHAPE_FINGERPRINT>
10 15 18411695513288144832
106641 1 17989204867685943011
10693767 8 12107772017908207088
10763959 59 10231745704456692202
11456790 92 17131825440279987018
11578080 2 16772369932913859498
11646440 116 17918273156106022080
11963148 33 18186513302447465842
12166972 35 14707214313982080438
12236239 1 16630237044106738732
12596602 18 17632302259264492411
13690498 29 8501785066466959921
13782708 43 17531247231686336762
13811026 1 18335416855883773029
14251764 18 17847057804911947365
14849402 71 17560514131016137321
14856354 85 15195274366331604293
14931854 50 8285925610965057235
15188451 53 17385442120366880901
15510800 12 17677063425298030059
1813 80 17531249443599860405
18608769 82 18411697716290038210
20105231 36 18272654516278995958
21130935 74 18060143107120866887
21267235 1 18342178830703487710
21424621 283 13038914330520841439
21623969 137 18412827971103704434
21637258 2 16805321097938581341
21756936 100 16272206380348433965
21781051 124 18337123315031303534
22149856 69 18271260339133045953
23522609 53 18122938484131822505
2838139 119 15051725391708763217
29717793 49 12251902585929022634
3009799 131 8358258146205134527
3178227 256 18272088310138470856
3383291 50 18259704510353602947
3663271 9 17846785083580012579
392239 28 18202293515605080617
4340502 62 18272934916642983046
465052 167 17676211273246672700
504579 68 11674875563752025154
5104073 3 18268991973108241088
59682541 35 18411979199893386408
9953998 17 18343304756606929059

> <PUBCHEM_SHAPE_MULTIPOLES>
590.94
19.64
2.24
1.61
7.52
0.06
0.39
5.85
10.96
0.68
-0.32
1.03
-0.23
0.54

> <PUBCHEM_SHAPE_SELFOVERLAP>
1227.168

> <PUBCHEM_SHAPE_VOLUME>
336.6

> <PUBCHEM_COORDINATE_TYPE>
2
5
10

$$$$
