517653
  -OEChem-09182012153D

 22 21  0     0  0  0  0  0  0999 V2000
    1.7334   -0.1779    0.2390 C   0  0  0  0  0  0  0  0  0  0  0  0
    3.0822    0.2294   -0.3545 C   0  0  0  0  0  0  0  0  0  0  0  0
    0.6363    0.8187   -0.1406 C   0  0  0  0  0  0  0  0  0  0  0  0
    4.1836   -0.7379    0.0493 C   0  0  0  0  0  0  0  0  0  0  0  0
   -0.6817    0.4358    0.4695 C   0  0  0  0  0  0  0  0  0  0  0  0
   -1.7773    0.1479   -0.2490 C   0  0  0  0  0  0  0  0  0  0  0  0
   -3.0408   -0.2140    0.3494 C   0  0  0  0  0  0  0  0  0  0  0  0
   -4.1358   -0.5020   -0.3631 C   0  0  0  0  0  0  0  0  0  0  0  0
    1.4638   -1.1806   -0.1164 H   0  0  0  0  0  0  0  0  0  0  0  0
    1.8185   -0.2377    1.3315 H   0  0  0  0  0  0  0  0  0  0  0  0
    3.3492    1.2373   -0.0162 H   0  0  0  0  0  0  0  0  0  0  0  0
    3.0133    0.2615   -1.4481 H   0  0  0  0  0  0  0  0  0  0  0  0
    0.9043    1.8200    0.2175 H   0  0  0  0  0  0  0  0  0  0  0  0
    0.5574    0.8820   -1.2327 H   0  0  0  0  0  0  0  0  0  0  0  0
    4.3009   -0.7670    1.1373 H   0  0  0  0  0  0  0  0  0  0  0  0
    3.9628   -1.7515   -0.3001 H   0  0  0  0  0  0  0  0  0  0  0  0
    5.1385   -0.4286   -0.3870 H   0  0  0  0  0  0  0  0  0  0  0  0
   -0.7237    0.4091    1.5563 H   0  0  0  0  0  0  0  0  0  0  0  0
   -1.7308    0.1815   -1.3346 H   0  0  0  0  0  0  0  0  0  0  0  0
   -3.0979   -0.2524    1.4339 H   0  0  0  0  0  0  0  0  0  0  0  0
   -5.0601   -0.7681    0.1389 H   0  0  0  0  0  0  0  0  0  0  0  0
   -4.1390   -0.4804   -1.4478 H   0  0  0  0  0  0  0  0  0  0  0  0
  1  2  1  0  0  0  0
  1  3  1  0  0  0  0
  1  9  1  0  0  0  0
  1 10  1  0  0  0  0
  2  4  1  0  0  0  0
  2 11  1  0  0  0  0
  2 12  1  0  0  0  0
  3  5  1  0  0  0  0
  3 13  1  0  0  0  0
  3 14  1  0  0  0  0
  4 15  1  0  0  0  0
  4 16  1  0  0  0  0
  4 17  1  0  0  0  0
  5  6  2  0  0  0  0
  5 18  1  0  0  0  0
  6  7  1  0  0  0  0
  6 19  1  0  0  0  0
  7  8  2  0  0  0  0
  7 20  1  0  0  0  0
  8 21  1  0  0  0  0
  8 22  1  0  0  0  0
M  END
> <PUBCHEM_COMPOUND_CID>
517653

> <PUBCHEM_CONFORMER_RMSD>
0.6

> <PUBCHEM_CONFORMER_DIVERSEORDER>
1
18
5
12
20
15
14
6
17
16
19
2
7
10
13
9
11
8
4
3

> <PUBCHEM_MMFF94_PARTIAL_CHARGES>
10
18 0.15
19 0.15
20 0.15
21 0.15
22 0.15
3 0.14
5 -0.29
6 -0.15
7 -0.15
8 -0.3

> <PUBCHEM_EFFECTIVE_ROTOR_COUNT>
4

> <PUBCHEM_PHARMACOPHORE_FEATURES>
3
1 4 hydrophobe
1 8 hydrophobe
4 1 2 3 5 hydrophobe

> <PUBCHEM_HEAVY_ATOM_COUNT>
8

> <PUBCHEM_ATOM_DEF_STEREO_COUNT>
0

> <PUBCHEM_ATOM_UDEF_STEREO_COUNT>
0

> <PUBCHEM_BOND_DEF_STEREO_COUNT>
1

> <PUBCHEM_BOND_UDEF_STEREO_COUNT>
0

> <PUBCHEM_ISOTOPIC_ATOM_COUNT>
0

> <PUBCHEM_COMPONENT_COUNT>
1

> <PUBCHEM_CACTVS_TAUTO_COUNT>
1

> <PUBCHEM_CONFORMER_ID>
0007E61500000001

> <PUBCHEM_MMFF94_ENERGY>
-0.1965

> <PUBCHEM_FEATURE_SELFOVERLAP>
15.223

> <PUBCHEM_SHAPE_FINGERPRINT>
11062470 55 12251902598644995966
14390081 3 10809336750439055247
170605 34 9079122158763130244
177051 138 18272935990548272326
18342897 14 10664103358758527083
190213 19 18410575093268870280
20211469 26 18342176652484973448
21119208 17 16587743135521988878
21293036 1 16950565492988068952
22485316 2 18342734122039162454
449060 50 12823292412127283592

> <PUBCHEM_SHAPE_MULTIPOLES>
164.64
8.16
0.84
0.71
0.4
0.01
0.01
-2.6
-0.67
0.2
-0.01
-0.08
0.01
-0.14

> <PUBCHEM_SHAPE_SELFOVERLAP>
293.202

> <PUBCHEM_SHAPE_VOLUME>
107.2

> <PUBCHEM_COORDINATE_TYPE>
2
5
10

$$$$
