46229104
  -OEChem-11202006453D

 47 52  0     1  0  0  0  0  0999 V2000
    1.1430    2.3885   -0.8758 O   0  0  0  0  0  0  0  0  0  0  0  0
   -1.7593   -2.5758    0.7971 O   0  0  0  0  0  0  0  0  0  0  0  0
   -0.6357   -2.2433   -1.1938 O   0  0  0  0  0  0  0  0  0  0  0  0
   -1.0899    2.6000   -0.4274 N   0  0  1  0  0  0  0  0  0  0  0  0
    2.0032    1.4152    1.1544 N   0  0  0  0  0  0  0  0  0  0  0  0
    0.4830    0.1843   -0.3175 C   0  0  1  0  0  0  0  0  0  0  0  0
    0.8524    1.5793    0.2965 C   0  0  2  0  0  0  0  0  0  0  0  0
   -0.3715    2.3034    0.8495 C   0  0  2  0  0  0  0  0  0  0  0  0
   -0.5002   -0.6112    0.5778 C   0  0  1  0  0  0  0  0  0  0  0  0
   -0.1454    2.1721   -1.4744 C   0  0  2  0  0  0  0  0  0  0  0  0
   -0.0486    0.6487   -1.6863 C   0  0  0  0  0  0  0  0  0  0  0  0
   -1.7053    0.2089    1.1011 C   0  0  1  0  0  0  0  0  0  0  0  0
   -1.1685    1.4473    1.8328 C   0  0  0  0  0  0  0  0  0  0  0  0
    1.8625   -0.4294   -0.2776 C   0  0  0  0  0  0  0  0  0  0  0  0
   -2.4480    2.0734   -0.5213 C   0  0  0  0  0  0  0  0  0  0  0  0
   -2.6630    0.6777    0.0202 C   0  0  0  0  0  0  0  0  0  0  0  0
    2.6747    0.3094    0.6038 C   0  0  0  0  0  0  0  0  0  0  0  0
   -0.9548   -1.8924   -0.0659 C   0  0  0  0  0  0  0  0  0  0  0  0
    2.3380   -1.5626   -0.9146 C   0  0  0  0  0  0  0  0  0  0  0  0
   -3.6894   -0.0776   -0.4019 C   0  0  0  0  0  0  0  0  0  0  0  0
    3.9583   -0.1112    0.9029 C   0  0  0  0  0  0  0  0  0  0  0  0
    3.6449   -1.9701   -0.6412 C   0  0  0  0  0  0  0  0  0  0  0  0
    4.4456   -1.2549    0.2648 C   0  0  0  0  0  0  0  0  0  0  0  0
   -3.9605   -1.4576    0.0874 C   0  0  0  0  0  0  0  0  0  0  0  0
   -2.2657   -3.8223    0.3094 C   0  0  0  0  0  0  0  0  0  0  0  0
   -0.0835    3.2534    1.3152 H   0  0  0  0  0  0  0  0  0  0  0  0
    0.0603   -0.9374    1.4693 H   0  0  0  0  0  0  0  0  0  0  0  0
   -0.2477    2.7355   -2.4059 H   0  0  0  0  0  0  0  0  0  0  0  0
   -0.9961    0.2040   -1.9964 H   0  0  0  0  0  0  0  0  0  0  0  0
    0.6837    0.4344   -2.4751 H   0  0  0  0  0  0  0  0  0  0  0  0
   -2.2441   -0.3664    1.8620 H   0  0  0  0  0  0  0  0  0  0  0  0
   -0.5318    1.1470    2.6741 H   0  0  0  0  0  0  0  0  0  0  0  0
   -1.9962    2.0302    2.2579 H   0  0  0  0  0  0  0  0  0  0  0  0
    2.5209    2.1941    1.5381 H   0  0  0  0  0  0  0  0  0  0  0  0
   -3.0929    2.7480    0.0578 H   0  0  0  0  0  0  0  0  0  0  0  0
   -2.8002    2.1507   -1.5579 H   0  0  0  0  0  0  0  0  0  0  0  0
    1.7385   -2.1269   -1.6169 H   0  0  0  0  0  0  0  0  0  0  0  0
   -4.3561    0.3081   -1.1691 H   0  0  0  0  0  0  0  0  0  0  0  0
    4.5817    0.4343    1.6034 H   0  0  0  0  0  0  0  0  0  0  0  0
    4.0468   -2.8545   -1.1284 H   0  0  0  0  0  0  0  0  0  0  0  0
    5.4562   -1.5970    0.4716 H   0  0  0  0  0  0  0  0  0  0  0  0
   -3.6905   -1.6516    1.1219 H   0  0  0  0  0  0  0  0  0  0  0  0
   -5.0561   -1.5563    0.1178 H   0  0  0  0  0  0  0  0  0  0  0  0
   -3.6634   -2.1720   -0.6742 H   0  0  0  0  0  0  0  0  0  0  0  0
   -2.3784   -3.8567   -0.7789 H   0  0  0  0  0  0  0  0  0  0  0  0
   -1.5741   -4.6136    0.6152 H   0  0  0  0  0  0  0  0  0  0  0  0
   -3.2305   -4.0266    0.7824 H   0  0  0  0  0  0  0  0  0  0  0  0
  1  7  1  0  0  0  0
  1 10  1  0  0  0  0
  2 18  1  0  0  0  0
  2 25  1  0  0  0  0
  3 18  2  0  0  0  0
  4  8  1  0  0  0  0
  4 10  1  0  0  0  0
  4 15  1  0  0  0  0
  5  7  1  0  0  0  0
  5 17  1  0  0  0  0
  5 34  1  0  0  0  0
  6  7  1  0  0  0  0
  6  9  1  0  0  0  0
  6 11  1  0  0  0  0
  6 14  1  0  0  0  0
  7  8  1  0  0  0  0
  8 13  1  0  0  0  0
  8 26  1  0  0  0  0
  9 12  1  0  0  0  0
  9 18  1  0  0  0  0
  9 27  1  0  0  0  0
 10 11  1  0  0  0  0
 10 28  1  0  0  0  0
 11 29  1  0  0  0  0
 11 30  1  0  0  0  0
 12 13  1  0  0  0  0
 12 16  1  0  0  0  0
 12 31  1  0  0  0  0
 13 32  1  0  0  0  0
 13 33  1  0  0  0  0
 14 17  1  0  0  0  0
 14 19  2  0  0  0  0
 15 16  1  0  0  0  0
 15 35  1  0  0  0  0
 15 36  1  0  0  0  0
 16 20  2  0  0  0  0
 17 21  2  0  0  0  0
 19 22  1  0  0  0  0
 19 37  1  0  0  0  0
 20 24  1  0  0  0  0
 20 38  1  0  0  0  0
 21 23  1  0  0  0  0
 21 39  1  0  0  0  0
 22 23  2  0  0  0  0
 22 40  1  0  0  0  0
 23 41  1  0  0  0  0
 24 42  1  0  0  0  0
 24 43  1  0  0  0  0
 24 44  1  0  0  0  0
 25 45  1  0  0  0  0
 25 46  1  0  0  0  0
 25 47  1  0  0  0  0
M  END
> <PUBCHEM_COMPOUND_CID>
46229104

> <PUBCHEM_CONFORMER_RMSD>
0.6

> <PUBCHEM_CONFORMER_DIVERSEORDER>
1
2

> <PUBCHEM_MMFF94_PARTIAL_CHARGES>
29
1 -0.56
10 0.55
12 0.14
14 -0.14
15 0.41
16 -0.28
17 0.1
18 0.66
19 -0.15
2 -0.43
20 -0.29
21 -0.15
22 -0.15
23 -0.15
24 0.14
25 0.28
3 -0.57
34 0.4
37 0.15
38 0.15
39 0.15
4 -0.81
40 0.15
41 0.15
5 -0.87
6 0.14
7 0.65
8 0.27
9 0.06

> <PUBCHEM_EFFECTIVE_ROTOR_COUNT>
3.2

> <PUBCHEM_PHARMACOPHORE_FEATURES>
11
1 1 acceptor
1 24 hydrophobe
1 3 acceptor
1 4 cation
1 5 cation
1 5 donor
5 5 6 7 14 17 rings
6 14 17 19 21 22 23 rings
6 4 8 12 13 15 16 rings
6 6 7 8 9 12 13 rings
7 1 4 6 7 8 10 11 rings

> <PUBCHEM_HEAVY_ATOM_COUNT>
25

> <PUBCHEM_ATOM_DEF_STEREO_COUNT>
6

> <PUBCHEM_ATOM_UDEF_STEREO_COUNT>
0

> <PUBCHEM_BOND_DEF_STEREO_COUNT>
1

> <PUBCHEM_BOND_UDEF_STEREO_COUNT>
0

> <PUBCHEM_ISOTOPIC_ATOM_COUNT>
0

> <PUBCHEM_COMPONENT_COUNT>
1

> <PUBCHEM_CACTVS_TAUTO_COUNT>
1

> <PUBCHEM_CONFORMER_ID>
02C1667000000001

> <PUBCHEM_MMFF94_ENERGY>
124.9728

> <PUBCHEM_FEATURE_SELFOVERLAP>
58.766

> <PUBCHEM_SHAPE_FINGERPRINT>
10863032 1 18120653788725189153
10948715 1 17481985631991942913
11578080 2 16806420627179172892
11680986 33 18340487892850898611
116883 192 18337106864641414767
12011746 2 18343021047645714212
12035758 1 18411139099873911331
12422481 6 18198087840594937675
12633257 1 18128824045135750290
13140716 1 18341054136996925882
13583140 156 15194709109210461842
14181834 199 18042413593385596172
14223421 5 18342452699082062040
14787075 74 18059558200888017617
15209289 33 18198630925548822955
15309172 13 18049729512123677200
16752209 62 18115019684864384338
16945 1 18335430062027343929
17357779 13 18338785758714596447
1813 80 17821727251794305580
19591789 44 18120933902150054154
20600515 1 18408605868149304148
20905425 154 17979367682585020463
21330990 113 18044935675644036933
21421861 104 17831034776627196219
23184049 29 18265055919112958979
2334 1 18123756618959857122
23419403 2 17836891827686100445
23559900 14 18341607153218492720
2748010 2 17977117759650736423
4340502 62 17628088793521485865
81228 2 18337401452269506546
9709674 26 18271526412309917222

> <PUBCHEM_SHAPE_MULTIPOLES>
486.92
5.94
3.46
1.32
3.47
1.65
0.03
3.11
-0.51
-1.95
0.17
0.01
-0.47
0.55

> <PUBCHEM_SHAPE_SELFOVERLAP>
1118.587

> <PUBCHEM_SHAPE_VOLUME>
249

> <PUBCHEM_COORDINATE_TYPE>
2
5
10

$$$$
