50900051
  -OEChem-11202006453D

 50 54  0     1  0  0  0  0  0999 V2000
   -4.4198   -0.6532    0.7622 O   0  0  0  0  0  0  0  0  0  0  0  0
   -1.4104   -2.6292   -0.9452 O   0  0  0  0  0  0  0  0  0  0  0  0
   -1.6057   -2.8073    1.3548 O   0  0  0  0  0  0  0  0  0  0  0  0
    4.0537   -2.4520   -0.4230 O   0  0  0  0  0  0  0  0  0  0  0  0
   -0.8945    2.6880   -0.1502 N   0  0  1  0  0  0  0  0  0  0  0  0
    1.3338   -1.2858   -0.5138 N   0  0  0  0  0  0  0  0  0  0  0  0
    0.8175    1.0069   -0.1777 C   0  0  2  0  0  0  0  0  0  0  0  0
    0.0135    1.9319    0.7547 C   0  0  2  0  0  0  0  0  0  0  0  0
   -1.7246    0.1974    1.1708 C   0  0  1  0  0  0  0  0  0  0  0  0
   -0.7460    1.1754    1.8405 C   0  0  0  0  0  0  0  0  0  0  0  0
    0.7361    1.7057   -1.5624 C   0  0  0  0  0  0  0  0  0  0  0  0
   -2.7607    1.0482    0.4135 C   0  0  1  0  0  0  0  0  0  0  0  0
    0.2722   -0.4509   -0.2024 C   0  0  0  0  0  0  0  0  0  0  0  0
   -0.0289    3.0011   -1.2988 C   0  0  0  0  0  0  0  0  0  0  0  0
   -2.0801    1.9413   -0.6335 C   0  0  0  0  0  0  0  0  0  0  0  0
   -0.9233   -0.7836    0.3266 C   0  0  0  0  0  0  0  0  0  0  0  0
    2.2805    0.7314    0.1083 C   0  0  0  0  0  0  0  0  0  0  0  0
   -3.8598    0.1992   -0.2279 C   0  0  2  0  0  0  0  0  0  0  0  0
    2.5276   -0.6305   -0.1782 C   0  0  0  0  0  0  0  0  0  0  0  0
    3.3027    1.5809    0.4874 C   0  0  0  0  0  0  0  0  0  0  0  0
   -1.3538   -2.1879    0.3357 C   0  0  0  0  0  0  0  0  0  0  0  0
   -4.9526    1.0632   -0.8306 C   0  0  0  0  0  0  0  0  0  0  0  0
    3.8048   -1.1514   -0.1293 C   0  0  0  0  0  0  0  0  0  0  0  0
    4.5931    1.0517    0.5666 C   0  0  0  0  0  0  0  0  0  0  0  0
    4.8425   -0.2980    0.2553 C   0  0  0  0  0  0  0  0  0  0  0  0
   -1.8176   -3.9924   -1.1032 C   0  0  0  0  0  0  0  0  0  0  0  0
    0.6774    2.6565    1.2438 H   0  0  0  0  0  0  0  0  0  0  0  0
   -2.2245   -0.3471    1.9821 H   0  0  0  0  0  0  0  0  0  0  0  0
   -0.0428    0.6357    2.4884 H   0  0  0  0  0  0  0  0  0  0  0  0
   -1.2875    1.8783    2.4866 H   0  0  0  0  0  0  0  0  0  0  0  0
    1.7125    1.9397   -2.0033 H   0  0  0  0  0  0  0  0  0  0  0  0
    0.2010    1.0845   -2.2914 H   0  0  0  0  0  0  0  0  0  0  0  0
   -3.2376    1.7011    1.1604 H   0  0  0  0  0  0  0  0  0  0  0  0
   -0.5807    3.3513   -2.1781 H   0  0  0  0  0  0  0  0  0  0  0  0
    0.6683    3.8004   -1.0177 H   0  0  0  0  0  0  0  0  0  0  0  0
   -2.7914    2.6981   -0.9846 H   0  0  0  0  0  0  0  0  0  0  0  0
   -1.8482    1.3237   -1.5101 H   0  0  0  0  0  0  0  0  0  0  0  0
   -3.4441   -0.4429   -1.0127 H   0  0  0  0  0  0  0  0  0  0  0  0
    1.2501   -2.2902   -0.4633 H   0  0  0  0  0  0  0  0  0  0  0  0
    3.1223    2.6295    0.6943 H   0  0  0  0  0  0  0  0  0  0  0  0
   -4.6047    1.6330   -1.6963 H   0  0  0  0  0  0  0  0  0  0  0  0
   -5.7907    0.4394   -1.1617 H   0  0  0  0  0  0  0  0  0  0  0  0
   -5.3614    1.7586   -0.0893 H   0  0  0  0  0  0  0  0  0  0  0  0
    5.4202    1.6940    0.8578 H   0  0  0  0  0  0  0  0  0  0  0  0
   -5.0926   -1.2062    0.3297 H   0  0  0  0  0  0  0  0  0  0  0  0
    5.8630   -0.6686    0.3186 H   0  0  0  0  0  0  0  0  0  0  0  0
    5.0067   -2.6200   -0.3252 H   0  0  0  0  0  0  0  0  0  0  0  0
   -1.1092   -4.6594   -0.6026 H   0  0  0  0  0  0  0  0  0  0  0  0
   -2.8281   -4.1336   -0.7077 H   0  0  0  0  0  0  0  0  0  0  0  0
   -1.8231   -4.2237   -2.1716 H   0  0  0  0  0  0  0  0  0  0  0  0
  1 18  1  0  0  0  0
  1 45  1  0  0  0  0
  2 21  1  0  0  0  0
  2 26  1  0  0  0  0
  3 21  2  0  0  0  0
  4 23  1  0  0  0  0
  4 47  1  0  0  0  0
  5  8  1  0  0  0  0
  5 14  1  0  0  0  0
  5 15  1  0  0  0  0
  6 13  1  0  0  0  0
  6 19  1  0  0  0  0
  6 39  1  0  0  0  0
  7  8  1  0  0  0  0
  7 11  1  0  0  0  0
  7 13  1  0  0  0  0
  7 17  1  0  0  0  0
  8 10  1  0  0  0  0
  8 27  1  0  0  0  0
  9 10  1  0  0  0  0
  9 12  1  0  0  0  0
  9 16  1  0  0  0  0
  9 28  1  0  0  0  0
 10 29  1  0  0  0  0
 10 30  1  0  0  0  0
 11 14  1  0  0  0  0
 11 31  1  0  0  0  0
 11 32  1  0  0  0  0
 12 15  1  0  0  0  0
 12 18  1  0  0  0  0
 12 33  1  0  0  0  0
 13 16  2  0  0  0  0
 14 34  1  0  0  0  0
 14 35  1  0  0  0  0
 15 36  1  0  0  0  0
 15 37  1  0  0  0  0
 16 21  1  0  0  0  0
 17 19  2  0  0  0  0
 17 20  1  0  0  0  0
 18 22  1  0  0  0  0
 18 38  1  0  0  0  0
 19 23  1  0  0  0  0
 20 24  2  0  0  0  0
 20 40  1  0  0  0  0
 22 41  1  0  0  0  0
 22 42  1  0  0  0  0
 22 43  1  0  0  0  0
 23 25  2  0  0  0  0
 24 25  1  0  0  0  0
 24 44  1  0  0  0  0
 25 46  1  0  0  0  0
 26 48  1  0  0  0  0
 26 49  1  0  0  0  0
 26 50  1  0  0  0  0
M  END
> <PUBCHEM_COMPOUND_CID>
50900051

> <PUBCHEM_CONFORMER_RMSD>
0.8

> <PUBCHEM_CONFORMER_DIVERSEORDER>
1
3
2

> <PUBCHEM_MMFF94_PARTIAL_CHARGES>
28
1 -0.68
13 -0.04
14 0.27
15 0.27
16 -0.12
17 -0.14
18 0.28
19 0.1
2 -0.43
20 -0.15
21 0.71
23 0.08
24 -0.15
25 -0.15
26 0.28
3 -0.57
39 0.4
4 -0.53
40 0.15
44 0.15
45 0.4
46 0.15
47 0.45
5 -0.81
6 -0.6
7 0.28
8 0.27
9 0.14

> <PUBCHEM_EFFECTIVE_ROTOR_COUNT>
4.2

> <PUBCHEM_PHARMACOPHORE_FEATURES>
12
1 1 acceptor
1 1 donor
1 3 acceptor
1 4 donor
1 5 cation
1 6 cation
1 6 donor
5 5 7 8 11 14 rings
5 6 7 13 17 19 rings
6 17 19 20 23 24 25 rings
6 5 8 9 10 12 15 rings
6 7 8 9 10 13 16 rings

> <PUBCHEM_HEAVY_ATOM_COUNT>
26

> <PUBCHEM_ATOM_DEF_STEREO_COUNT>
5

> <PUBCHEM_ATOM_UDEF_STEREO_COUNT>
0

> <PUBCHEM_BOND_DEF_STEREO_COUNT>
0

> <PUBCHEM_BOND_UDEF_STEREO_COUNT>
0

> <PUBCHEM_ISOTOPIC_ATOM_COUNT>
0

> <PUBCHEM_COMPONENT_COUNT>
1

> <PUBCHEM_CACTVS_TAUTO_COUNT>
6

> <PUBCHEM_CONFORMER_ID>
0308AC5300000001

> <PUBCHEM_MMFF94_ENERGY>
100.2089

> <PUBCHEM_FEATURE_SELFOVERLAP>
63.05

> <PUBCHEM_SHAPE_FINGERPRINT>
10366900 7 17561083609878452088
10863032 1 18128252483382847664
10967382 1 18410857655225773672
11370993 70 18341045224918408025
11578080 2 17271719795967501931
12011746 2 18411139104475138652
12035758 1 18335989752649149537
12403259 226 18193837038194258628
12422481 6 18192179069322868681
12553582 1 17905340867844124098
12633257 1 18128828451893424210
12715332 25 18342460391537404459
12969540 114 18115288004641123885
13004483 165 18335410253891194130
13140716 1 18122632913776086825
14223421 5 18341894134548706184
14787075 74 17988915665519858353
14790565 3 18341334375461288273
16752209 62 18116994386420739560
16945 1 18339939176530151952
17349148 13 18131355202069412264
17357779 13 18334568010572755973
1813 80 17385443241517064292
19141452 34 18412543249136817386
19591789 44 18122062001317327790
19930381 70 17838056996674616038
200 152 17917703552879117041
20028762 73 17986941965034093431
20197701 30 18337102381017434431
20905425 154 17756988904857242907
21033648 29 18342443834080237593
21521721 280 18343018883430921313
2334 1 18194973056917450042
23402539 116 18410002230826420045
23419403 2 16627699547215921779
23559900 14 18342735256601852752
2748010 2 18191601747802336093
3178227 256 18336275613315028843
3380486 145 18268157632798250073
34934 24 18334289890239394066
350125 39 18267307517569297596
38695281 34 18270959021765967735
5104073 3 18268709420480075792
69090 78 18410853239656482672
7164475 11 17905885130463172255
7471813 234 17623838433059301335
81228 2 18334577949469476250
9709674 26 18342461417918556670

> <PUBCHEM_SHAPE_MULTIPOLES>
501.63
7.76
3.6
1.24
2.92
2.56
-0.09
0.66
-0.15
-1.47
1.13
-0.5
-0.2
0.35

> <PUBCHEM_SHAPE_SELFOVERLAP>
1118.916

> <PUBCHEM_SHAPE_VOLUME>
267

> <PUBCHEM_COORDINATE_TYPE>
2
5
10

$$$$
