91650
  -OEChem-09102011483D

 28 29  0     0  0  0  0  0  0999 V2000
   -0.4292    1.1420   -0.2531 N   0  0  0  0  0  0  0  0  0  0  0  0
    0.8483   -0.8057    0.0312 N   0  0  0  0  0  0  0  0  0  0  0  0
    1.9053    1.3524   -0.1477 N   0  0  0  0  0  0  0  0  0  0  0  0
    0.7982    0.5516   -0.1205 C   0  0  0  0  0  0  0  0  0  0  0  0
   -1.7200    0.5865   -0.1322 C   0  0  0  0  0  0  0  0  0  0  0  0
    2.0743   -1.3544    0.1590 C   0  0  0  0  0  0  0  0  0  0  0  0
    3.0988    0.7376   -0.0144 C   0  0  0  0  0  0  0  0  0  0  0  0
    3.2458   -0.6254    0.1437 C   0  0  0  0  0  0  0  0  0  0  0  0
   -2.7500    1.3342    0.4387 C   0  0  0  0  0  0  0  0  0  0  0  0
   -1.9671   -0.7097   -0.5842 C   0  0  0  0  0  0  0  0  0  0  0  0
    2.1317   -2.8356    0.3262 C   0  0  0  0  0  0  0  0  0  0  0  0
    4.3088    1.6097   -0.0440 C   0  0  0  0  0  0  0  0  0  0  0  0
   -4.0269    0.7855    0.5574 C   0  0  0  0  0  0  0  0  0  0  0  0
   -3.2440   -1.2582   -0.4654 C   0  0  0  0  0  0  0  0  0  0  0  0
   -4.2740   -0.5106    0.1054 C   0  0  0  0  0  0  0  0  0  0  0  0
   -0.4056    2.1565   -0.2496 H   0  0  0  0  0  0  0  0  0  0  0  0
    4.2174   -1.0925    0.2487 H   0  0  0  0  0  0  0  0  0  0  0  0
   -2.5704    2.3452    0.7953 H   0  0  0  0  0  0  0  0  0  0  0  0
   -1.2111   -1.3088   -1.0811 H   0  0  0  0  0  0  0  0  0  0  0  0
    2.7050   -3.2891   -0.4887 H   0  0  0  0  0  0  0  0  0  0  0  0
    2.6012   -3.0933    1.2809 H   0  0  0  0  0  0  0  0  0  0  0  0
    1.1273   -3.2717    0.3153 H   0  0  0  0  0  0  0  0  0  0  0  0
    4.9621    1.3265   -0.8754 H   0  0  0  0  0  0  0  0  0  0  0  0
    4.0329    2.6613   -0.1745 H   0  0  0  0  0  0  0  0  0  0  0  0
    4.8652    1.5209    0.8945 H   0  0  0  0  0  0  0  0  0  0  0  0
   -4.8291    1.3678    1.0014 H   0  0  0  0  0  0  0  0  0  0  0  0
   -3.4399   -2.2632   -0.8281 H   0  0  0  0  0  0  0  0  0  0  0  0
   -5.2689   -0.9367    0.1953 H   0  0  0  0  0  0  0  0  0  0  0  0
  1  4  1  0  0  0  0
  1  5  1  0  0  0  0
  1 16  1  0  0  0  0
  2  4  1  0  0  0  0
  2  6  2  0  0  0  0
  3  4  2  0  0  0  0
  3  7  1  0  0  0  0
  5  9  2  0  0  0  0
  5 10  1  0  0  0  0
  6  8  1  0  0  0  0
  6 11  1  0  0  0  0
  7  8  2  0  0  0  0
  7 12  1  0  0  0  0
  8 17  1  0  0  0  0
  9 13  1  0  0  0  0
  9 18  1  0  0  0  0
 10 14  2  0  0  0  0
 10 19  1  0  0  0  0
 11 20  1  0  0  0  0
 11 21  1  0  0  0  0
 11 22  1  0  0  0  0
 12 23  1  0  0  0  0
 12 24  1  0  0  0  0
 12 25  1  0  0  0  0
 13 15  2  0  0  0  0
 13 26  1  0  0  0  0
 14 15  1  0  0  0  0
 14 27  1  0  0  0  0
 15 28  1  0  0  0  0
M  END
> <PUBCHEM_COMPOUND_CID>
91650

> <PUBCHEM_CONFORMER_RMSD>
0.6

> <PUBCHEM_CONFORMER_DIVERSEORDER>
1
3
2

> <PUBCHEM_MMFF94_PARTIAL_CHARGES>
22
1 -0.6
10 -0.15
11 0.14
12 0.14
13 -0.15
14 -0.15
15 -0.15
16 0.4
17 0.15
18 0.15
19 0.15
2 -0.62
26 0.15
27 0.15
28 0.15
3 -0.62
4 0.72
5 0.1
6 0.17
7 0.17
8 -0.15
9 -0.15

> <PUBCHEM_EFFECTIVE_ROTOR_COUNT>
2

> <PUBCHEM_PHARMACOPHORE_FEATURES>
5
1 1 donor
1 2 acceptor
4 1 2 3 4 cation
6 2 3 4 6 7 8 rings
6 5 9 10 13 14 15 rings

> <PUBCHEM_HEAVY_ATOM_COUNT>
15

> <PUBCHEM_ATOM_DEF_STEREO_COUNT>
0

> <PUBCHEM_ATOM_UDEF_STEREO_COUNT>
0

> <PUBCHEM_BOND_DEF_STEREO_COUNT>
0

> <PUBCHEM_BOND_UDEF_STEREO_COUNT>
0

> <PUBCHEM_ISOTOPIC_ATOM_COUNT>
0

> <PUBCHEM_COMPONENT_COUNT>
1

> <PUBCHEM_CACTVS_TAUTO_COUNT>
2

> <PUBCHEM_CONFORMER_ID>
0001660200000001

> <PUBCHEM_MMFF94_ENERGY>
48.819

> <PUBCHEM_FEATURE_SELFOVERLAP>
25.371

> <PUBCHEM_SHAPE_FINGERPRINT>
10616163 171 18341051925373910239
10980938 120 18410011022603252306
11471102 20 18408880741592410564
12107183 9 17692537715259625513
12251169 10 18342175527456742975
12346645 44 18341612650438735324
13296908 3 18041838407249313013
13380535 76 18260548974006544082
13675066 3 17968386650101122761
13760787 19 18272373078985741085
14144814 61 18412544288819576873
14251717 144 18408319999384203966
14252887 29 18041007219329363705
14289901 80 18412262813716396025
14445660 50 18343308045998087017
15196674 1 18411700984580497039
15279307 12 18342175595928683367
15375358 24 18040151833742782507
15375462 189 18343582940952823659
15442244 35 18124034533329246451
15536298 74 18342459218568168998
15669948 3 17846771936463352527
15775835 57 18343867735701909461
18186145 218 18187082823647192494
19050596 39 18411979148147946200
19422 9 18341895156228761035
200 152 18271515486192191141
201361 129 18413110545897855152
20279233 1 16370442263384403345
20281475 54 18412820270464752071
20442098 301 18272927202702488335
20645477 70 18336255744068518407
21065198 48 18343023268323193217
21267235 1 18411991238512922559
21501502 16 18412542076721606315
221490 88 18336273361982376322
22445834 79 18412544293183193879
22485316 2 18408884027638121693
2255824 54 18334299794529041084
22854114 111 18410013238722136904
23402539 116 17022891384985235757
23402655 69 18411698772846685925
23463225 33 18340487768539420735
23559900 14 18197490732202030202
2871803 45 18335696152457600223
3312278 4 18341896328939306305
33824 294 18334293171394305426
474 4 18188493596066414580
4990 188 17988375823065288500
5104073 3 18411138017658210569
57096353 35 18341047527110556493
581208 293 18334856125805886336
603831 33 18201142356362560975
633830 44 18342741866387645004
7364860 26 18341613668657441774
77779 3 18413392025011290433
9709674 26 18409172108095666315

> <PUBCHEM_SHAPE_MULTIPOLES>
293.75
8.38
2.12
0.69
2.1
1.11
0
-1.22
0.58
-1.64
0.17
0.2
0.03
-0.64

> <PUBCHEM_SHAPE_SELFOVERLAP>
623.903

> <PUBCHEM_SHAPE_VOLUME>
161.2

> <PUBCHEM_COORDINATE_TYPE>
2
5
10

$$$$
