15231941
  -OEChem-09102015103D

 54 57  0     1  0  0  0  0  0999 V2000
    0.2885    0.6751    0.1680 O   0  0  0  0  0  0  0  0  0  0  0  0
    3.9490   -2.3245    0.6830 O   0  0  0  0  0  0  0  0  0  0  0  0
   -0.4456   -4.0963    0.5971 O   0  0  0  0  0  0  0  0  0  0  0  0
   -2.3951   -2.3935    0.3439 O   0  0  0  0  0  0  0  0  0  0  0  0
   -7.4376    1.3564   -0.5232 O   0  0  0  0  0  0  0  0  0  0  0  0
    2.9642    1.1110   -0.9998 C   0  0  1  0  0  0  0  0  0  0  0  0
    3.0607    0.3698    0.3635 C   0  0  1  0  0  0  0  0  0  0  0  0
    3.6755    2.4676   -0.9259 C   0  0  0  0  0  0  0  0  0  0  0  0
    3.0668    3.3542    0.1624 C   0  0  0  0  0  0  0  0  0  0  0  0
    2.8676    1.2917    1.5499 C   0  0  0  0  0  0  0  0  0  0  0  0
    2.1027   -0.8149    0.4238 C   0  0  0  0  0  0  0  0  0  0  0  0
    2.8461    2.6330    1.4656 C   0  0  0  0  0  0  0  0  0  0  0  0
    3.5437    0.2970   -2.1207 C   0  0  0  0  0  0  0  0  0  0  0  0
    0.7256   -0.6155    0.3213 C   0  0  0  0  0  0  0  0  0  0  0  0
    2.6066   -2.1060    0.5818 C   0  0  0  0  0  0  0  0  0  0  0  0
    2.6054    3.4987    2.6671 C   0  0  0  0  0  0  0  0  0  0  0  0
    2.6040   -0.0591   -3.2342 C   0  0  0  0  0  0  0  0  0  0  0  0
   -0.1444   -1.7039    0.3771 C   0  0  0  0  0  0  0  0  0  0  0  0
    4.8283   -0.0890   -2.1261 C   0  0  0  0  0  0  0  0  0  0  0  0
    1.7359   -3.1951    0.6376 C   0  0  0  0  0  0  0  0  0  0  0  0
    0.3581   -2.9981    0.5359 C   0  0  0  0  0  0  0  0  0  0  0  0
   -1.5961   -1.4688    0.2704 C   0  0  0  0  0  0  0  0  0  0  0  0
   -2.0261   -0.0553    0.0848 C   0  0  0  0  0  0  0  0  0  0  0  0
   -1.0648    0.8797    0.0487 C   0  0  0  0  0  0  0  0  0  0  0  0
   -3.4422    0.3135   -0.0745 C   0  0  0  0  0  0  0  0  0  0  0  0
   -4.0198    0.3437   -1.3454 C   0  0  0  0  0  0  0  0  0  0  0  0
   -4.2123    0.6349    1.0453 C   0  0  0  0  0  0  0  0  0  0  0  0
   -5.3616    0.6939   -1.4959 C   0  0  0  0  0  0  0  0  0  0  0  0
   -5.5540    0.9850    0.8947 C   0  0  0  0  0  0  0  0  0  0  0  0
   -6.1287    1.0145   -0.3759 C   0  0  0  0  0  0  0  0  0  0  0  0
    1.9260    1.3407   -1.2600 H   0  0  0  0  0  0  0  0  0  0  0  0
    4.0946    0.0297    0.4785 H   0  0  0  0  0  0  0  0  0  0  0  0
    3.6149    2.9910   -1.8888 H   0  0  0  0  0  0  0  0  0  0  0  0
    4.7442    2.3378   -0.7083 H   0  0  0  0  0  0  0  0  0  0  0  0
    2.1046    3.7518   -0.1836 H   0  0  0  0  0  0  0  0  0  0  0  0
    3.7318    4.2121    0.3189 H   0  0  0  0  0  0  0  0  0  0  0  0
    2.7366    0.8200    2.5219 H   0  0  0  0  0  0  0  0  0  0  0  0
    1.7230    4.1274    2.5094 H   0  0  0  0  0  0  0  0  0  0  0  0
    3.4681    4.1480    2.8471 H   0  0  0  0  0  0  0  0  0  0  0  0
    2.4363    2.9093    3.5745 H   0  0  0  0  0  0  0  0  0  0  0  0
    2.2099    0.8479   -3.7042 H   0  0  0  0  0  0  0  0  0  0  0  0
    3.0954   -0.6504   -4.0142 H   0  0  0  0  0  0  0  0  0  0  0  0
    1.7634   -0.6475   -2.8525 H   0  0  0  0  0  0  0  0  0  0  0  0
    5.2307   -0.6780   -2.9441 H   0  0  0  0  0  0  0  0  0  0  0  0
    5.5155    0.1669   -1.3275 H   0  0  0  0  0  0  0  0  0  0  0  0
    2.1425   -4.1962    0.7611 H   0  0  0  0  0  0  0  0  0  0  0  0
   -1.2578    1.9370   -0.0858 H   0  0  0  0  0  0  0  0  0  0  0  0
    4.3198   -1.6854    1.3142 H   0  0  0  0  0  0  0  0  0  0  0  0
    0.1012   -4.8926    0.7088 H   0  0  0  0  0  0  0  0  0  0  0  0
   -3.4353    0.0957   -2.2283 H   0  0  0  0  0  0  0  0  0  0  0  0
   -3.7791    0.6158    2.0425 H   0  0  0  0  0  0  0  0  0  0  0  0
   -5.7975    0.7130   -2.4912 H   0  0  0  0  0  0  0  0  0  0  0  0
   -6.1465    1.2336    1.7709 H   0  0  0  0  0  0  0  0  0  0  0  0
   -7.6674    1.3247   -1.4678 H   0  0  0  0  0  0  0  0  0  0  0  0
  1 14  1  0  0  0  0
  1 24  1  0  0  0  0
  2 15  1  0  0  0  0
  2 48  1  0  0  0  0
  3 21  1  0  0  0  0
  3 49  1  0  0  0  0
  4 22  2  0  0  0  0
  5 30  1  0  0  0  0
  5 54  1  0  0  0  0
  6  7  1  0  0  0  0
  6  8  1  0  0  0  0
  6 13  1  0  0  0  0
  6 31  1  0  0  0  0
  7 10  1  0  0  0  0
  7 11  1  0  0  0  0
  7 32  1  0  0  0  0
  8  9  1  0  0  0  0
  8 33  1  0  0  0  0
  8 34  1  0  0  0  0
  9 12  1  0  0  0  0
  9 35  1  0  0  0  0
  9 36  1  0  0  0  0
 10 12  2  0  0  0  0
 10 37  1  0  0  0  0
 11 14  1  0  0  0  0
 11 15  2  0  0  0  0
 12 16  1  0  0  0  0
 13 17  1  0  0  0  0
 13 19  2  0  0  0  0
 14 18  2  0  0  0  0
 15 20  1  0  0  0  0
 16 38  1  0  0  0  0
 16 39  1  0  0  0  0
 16 40  1  0  0  0  0
 17 41  1  0  0  0  0
 17 42  1  0  0  0  0
 17 43  1  0  0  0  0
 18 21  1  0  0  0  0
 18 22  1  0  0  0  0
 19 44  1  0  0  0  0
 19 45  1  0  0  0  0
 20 21  2  0  0  0  0
 20 46  1  0  0  0  0
 22 23  1  0  0  0  0
 23 24  2  0  0  0  0
 23 25  1  0  0  0  0
 24 47  1  0  0  0  0
 25 26  2  0  0  0  0
 25 27  1  0  0  0  0
 26 28  1  0  0  0  0
 26 50  1  0  0  0  0
 27 29  2  0  0  0  0
 27 51  1  0  0  0  0
 28 30  2  0  0  0  0
 28 52  1  0  0  0  0
 29 30  1  0  0  0  0
 29 53  1  0  0  0  0
M  END
> <PUBCHEM_COMPOUND_CID>
15231941

> <PUBCHEM_CONFORMER_RMSD>
0.8

> <PUBCHEM_CONFORMER_DIVERSEORDER>
1
6
3
4
5
2

> <PUBCHEM_MMFF94_PARTIAL_CHARGES>
41
1 -0.16
10 -0.29
11 -0.14
12 -0.28
13 -0.28
14 0.08
15 0.08
16 0.14
17 0.14
18 0.09
19 -0.3
2 -0.53
20 -0.15
21 0.08
22 0.47
23 -0.01
24 -0.07
25 0.03
26 -0.15
27 -0.15
28 -0.15
29 -0.15
3 -0.53
30 0.08
37 0.15
4 -0.57
44 0.15
45 0.15
46 0.15
47 0.15
48 0.45
49 0.45
5 -0.53
50 0.15
51 0.15
52 0.15
53 0.15
54 0.45
6 0.14
7 0.28
9 0.14

> <PUBCHEM_EFFECTIVE_ROTOR_COUNT>
3.8

> <PUBCHEM_PHARMACOPHORE_FEATURES>
9
1 1 acceptor
1 2 donor
1 3 donor
1 4 acceptor
1 5 donor
6 1 14 18 22 23 24 rings
6 11 14 15 18 20 21 rings
6 25 26 27 28 29 30 rings
6 6 7 8 9 10 12 rings

> <PUBCHEM_HEAVY_ATOM_COUNT>
30

> <PUBCHEM_ATOM_DEF_STEREO_COUNT>
2

> <PUBCHEM_ATOM_UDEF_STEREO_COUNT>
0

> <PUBCHEM_BOND_DEF_STEREO_COUNT>
0

> <PUBCHEM_BOND_UDEF_STEREO_COUNT>
0

> <PUBCHEM_ISOTOPIC_ATOM_COUNT>
0

> <PUBCHEM_COMPONENT_COUNT>
1

> <PUBCHEM_CACTVS_TAUTO_COUNT>
24

> <PUBCHEM_CONFORMER_ID>
00E86BC500000001

> <PUBCHEM_MMFF94_ENERGY>
86.1446

> <PUBCHEM_FEATURE_SELFOVERLAP>
45.701

> <PUBCHEM_SHAPE_FINGERPRINT>
10165383 225 18187376432360098052
10411042 1 17688583866772341659
10498660 4 18336271252820858148
10675989 125 18341889714453340105
10930396 42 17845641562240259118
11582403 64 17342628361905627352
11720765 8 17846227614110245300
11796584 16 13614244759212182845
1200032 147 17096386058512901700
12236239 1 17917136201643994233
12422481 6 17386825318558077260
12730499 353 18335146392870750523
13140716 1 18335976527986350795
13383668 362 18260816137941709570
13878862 14 18116973547677477653
13944108 23 18122634855339077525
13965767 371 17605256566828710196
14848178 96 18411133684094717689
14955137 171 18265332803112924762
15082195 135 17896319284849196719
15961568 22 16370739114396723887
17980427 23 17842522311358934722
1979834 28 18040152912086003549
21033648 29 18264208182736811089
21860390 5 17988640830910961324
22122407 14 18199756843696488257
22149856 69 18187657882389970041
22393880 68 18341614866747621799
23559900 14 18041276561224209147
3178227 256 18262523580604432731
350125 39 18334012757469331754
376196 1 17627775737370516920
474 4 18411411826345254553
495365 180 18409721876577678385
5104073 3 18334288778275739099
513532 50 17917706903406970324
5252454 2 18260552263603183934
57527452 28 15266790914680593300
6086070 43 18343589559439716402
633830 44 18202284719074260093
7808743 9 17901108830445959428
9658208 31 18336835311034097515

> <PUBCHEM_SHAPE_MULTIPOLES>
588.04
12.06
3.92
2.06
22.81
1.35
-1.12
-7.58
-3.98
-3.86
2.47
-2.49
-0.98
1.02

> <PUBCHEM_SHAPE_SELFOVERLAP>
1294.404

> <PUBCHEM_SHAPE_VOLUME>
315

> <PUBCHEM_COORDINATE_TYPE>
2
5
10

$$$$
