15596285
  -OEChem-09102015113D

 44 47  0     0  0  0  0  0  0999 V2000
   -4.6792   -1.0685    0.1015 O   0  0  0  0  0  0  0  0  0  0  0  0
   -0.1125   -2.1976   -0.0093 O   0  0  0  0  0  0  0  0  0  0  0  0
   -1.3948    2.4566   -0.1208 O   0  0  0  0  0  0  0  0  0  0  0  0
    1.0504    1.7075   -0.2102 O   0  0  0  0  0  0  0  0  0  0  0  0
    7.2453    0.3464   -0.1655 O   0  0  0  0  0  0  0  0  0  0  0  0
   -5.7690   -0.1217    0.1139 C   0  0  0  0  0  0  0  0  0  0  0  0
   -3.0604    0.7482   -0.0105 C   0  0  0  0  0  0  0  0  0  0  0  0
   -3.3942   -0.6072    0.0454 C   0  0  0  0  0  0  0  0  0  0  0  0
   -5.3798    1.3362    0.0479 C   0  0  0  0  0  0  0  0  0  0  0  0
   -0.7125    0.1525   -0.0669 C   0  0  0  0  0  0  0  0  0  0  0  0
   -4.1125    1.7503   -0.0107 C   0  0  0  0  0  0  0  0  0  0  0  0
   -6.5481   -0.3783    1.4094 C   0  0  0  0  0  0  0  0  0  0  0  0
   -6.6494   -0.4641   -1.0940 C   0  0  0  0  0  0  0  0  0  0  0  0
   -1.7132    1.1293   -0.0673 C   0  0  0  0  0  0  0  0  0  0  0  0
   -1.0506   -1.1975   -0.0111 C   0  0  0  0  0  0  0  0  0  0  0  0
   -2.3906   -1.5799    0.0447 C   0  0  0  0  0  0  0  0  0  0  0  0
    0.7109    0.5339   -0.1296 C   0  0  0  0  0  0  0  0  0  0  0  0
    1.6971   -0.5812   -0.1042 C   0  0  0  0  0  0  0  0  0  0  0  0
    1.2108   -1.8301   -0.0461 C   0  0  0  0  0  0  0  0  0  0  0  0
    3.1487   -0.3379   -0.1205 C   0  0  0  0  0  0  0  0  0  0  0  0
    3.8353   -0.2766   -1.3348 C   0  0  0  0  0  0  0  0  0  0  0  0
    3.8438   -0.1684    1.0787 C   0  0  0  0  0  0  0  0  0  0  0  0
    5.2111   -0.0466   -1.3498 C   0  0  0  0  0  0  0  0  0  0  0  0
    5.2195    0.0616    1.0637 C   0  0  0  0  0  0  0  0  0  0  0  0
    5.9031    0.1224   -0.1505 C   0  0  0  0  0  0  0  0  0  0  0  0
    7.8906    0.5105    1.0965 C   0  0  0  0  0  0  0  0  0  0  0  0
   -6.1741    2.0788    0.0494 H   0  0  0  0  0  0  0  0  0  0  0  0
   -3.8773    2.8065   -0.0563 H   0  0  0  0  0  0  0  0  0  0  0  0
   -5.9210   -0.1818    2.2874 H   0  0  0  0  0  0  0  0  0  0  0  0
   -6.8546   -1.4287    1.4793 H   0  0  0  0  0  0  0  0  0  0  0  0
   -7.4448    0.2471    1.4806 H   0  0  0  0  0  0  0  0  0  0  0  0
   -6.9576   -1.5160   -1.0671 H   0  0  0  0  0  0  0  0  0  0  0  0
   -6.0958   -0.3296   -2.0312 H   0  0  0  0  0  0  0  0  0  0  0  0
   -7.5509    0.1573   -1.1351 H   0  0  0  0  0  0  0  0  0  0  0  0
   -2.6541   -2.6341    0.0877 H   0  0  0  0  0  0  0  0  0  0  0  0
    1.8320   -2.7170   -0.0184 H   0  0  0  0  0  0  0  0  0  0  0  0
   -0.4396    2.5917   -0.0365 H   0  0  0  0  0  0  0  0  0  0  0  0
    3.3101   -0.4054   -2.2782 H   0  0  0  0  0  0  0  0  0  0  0  0
    3.3240   -0.2125    2.0331 H   0  0  0  0  0  0  0  0  0  0  0  0
    5.7383   -0.0001   -2.2987 H   0  0  0  0  0  0  0  0  0  0  0  0
    5.6945    0.1843    2.0310 H   0  0  0  0  0  0  0  0  0  0  0  0
    8.9538    0.6797    0.8963 H   0  0  0  0  0  0  0  0  0  0  0  0
    7.8205   -0.3973    1.7054 H   0  0  0  0  0  0  0  0  0  0  0  0
    7.5203    1.3950    1.6258 H   0  0  0  0  0  0  0  0  0  0  0  0
  1  6  1  0  0  0  0
  1  8  1  0  0  0  0
  2 15  1  0  0  0  0
  2 19  1  0  0  0  0
  3 14  1  0  0  0  0
  3 37  1  0  0  0  0
  4 17  2  0  0  0  0
  5 25  1  0  0  0  0
  5 26  1  0  0  0  0
  6  9  1  0  0  0  0
  6 12  1  0  0  0  0
  6 13  1  0  0  0  0
  7  8  2  0  0  0  0
  7 11  1  0  0  0  0
  7 14  1  0  0  0  0
  8 16  1  0  0  0  0
  9 11  2  0  0  0  0
  9 27  1  0  0  0  0
 10 14  2  0  0  0  0
 10 15  1  0  0  0  0
 10 17  1  0  0  0  0
 11 28  1  0  0  0  0
 12 29  1  0  0  0  0
 12 30  1  0  0  0  0
 12 31  1  0  0  0  0
 13 32  1  0  0  0  0
 13 33  1  0  0  0  0
 13 34  1  0  0  0  0
 15 16  2  0  0  0  0
 16 35  1  0  0  0  0
 17 18  1  0  0  0  0
 18 19  2  0  0  0  0
 18 20  1  0  0  0  0
 19 36  1  0  0  0  0
 20 21  2  0  0  0  0
 20 22  1  0  0  0  0
 21 23  1  0  0  0  0
 21 38  1  0  0  0  0
 22 24  2  0  0  0  0
 22 39  1  0  0  0  0
 23 25  2  0  0  0  0
 23 40  1  0  0  0  0
 24 25  1  0  0  0  0
 24 41  1  0  0  0  0
 26 42  1  0  0  0  0
 26 43  1  0  0  0  0
 26 44  1  0  0  0  0
M  END
> <PUBCHEM_COMPOUND_CID>
15596285

> <PUBCHEM_CONFORMER_RMSD>
0.6

> <PUBCHEM_CONFORMER_DIVERSEORDER>
1
2

> <PUBCHEM_MMFF94_PARTIAL_CHARGES>
33
1 -0.36
10 0.09
11 -0.18
14 0.08
15 0.08
16 -0.15
17 0.47
18 -0.01
19 -0.07
2 -0.16
20 0.03
21 -0.15
22 -0.15
23 -0.15
24 -0.15
25 0.08
26 0.28
27 0.15
28 0.15
3 -0.53
35 0.15
36 0.15
37 0.45
38 0.15
39 0.15
4 -0.57
40 0.15
41 0.15
5 -0.36
6 0.42
7 0.03
8 0.08
9 -0.29

> <PUBCHEM_EFFECTIVE_ROTOR_COUNT>
2.4

> <PUBCHEM_PHARMACOPHORE_FEATURES>
10
1 1 acceptor
1 2 acceptor
1 3 donor
1 4 acceptor
1 5 acceptor
3 6 12 13 hydrophobe
6 1 6 7 8 9 11 rings
6 2 10 15 17 18 19 rings
6 20 21 22 23 24 25 rings
6 7 8 10 14 15 16 rings

> <PUBCHEM_HEAVY_ATOM_COUNT>
26

> <PUBCHEM_ATOM_DEF_STEREO_COUNT>
0

> <PUBCHEM_ATOM_UDEF_STEREO_COUNT>
0

> <PUBCHEM_BOND_DEF_STEREO_COUNT>
0

> <PUBCHEM_BOND_UDEF_STEREO_COUNT>
0

> <PUBCHEM_ISOTOPIC_ATOM_COUNT>
0

> <PUBCHEM_COMPONENT_COUNT>
1

> <PUBCHEM_CACTVS_TAUTO_COUNT>
5

> <PUBCHEM_CONFORMER_ID>
00EDFAFD00000001

> <PUBCHEM_MMFF94_ENERGY>
97.338

> <PUBCHEM_FEATURE_SELFOVERLAP>
50.805

> <PUBCHEM_SHAPE_FINGERPRINT>
10 15 18335137622753474912
10411042 1 17978228593567711459
10906281 52 18262256451076524099
11315181 36 17967817162970048097
11578080 2 13756977805411196209
11646440 116 18201729461175144849
11963148 33 18334290998336968155
12236239 1 17748827415197015938
12390115 104 18057897852847565649
12516196 113 17846498131860590248
12596602 18 16805325496027414369
12730499 353 17632579332163423102
12788726 201 18261390001633492993
12838862 33 18337938039929845389
13073987 5 18337675204609948546
13140716 1 18265615570668361363
13402501 40 18273212006648125112
13533116 47 17240475876263756666
13862211 1 18409727366052330079
13914758 101 15719383997695649740
14251764 18 18259701199181067778
14849402 71 17917149519331050944
15131766 46 15721668955126716846
15183329 4 18333733519912165205
15196674 1 18337955567691360775
18336668 15 18113339717303106701
18608769 82 18340490062226413499
18681886 176 18340762732087280425
2026 5 11892427125781253416
21033648 29 17418080001739789536
21150785 3 16989120971985745519
21267235 1 18410863183402636503
22224240 67 18202277022529827766
23198884 109 16272212976970028611
23402539 116 18412259553709669743
23536379 177 15646768990191399255
23559900 14 18271239525225975464
23569914 152 16476561331924157421
23569917 315 18187653474799840354
23569943 247 17629215822235068334
24771293 8 18272367611624904736
3004659 81 18260555532706532876
3178227 256 18262532463134247219
335352 9 18410011073863311423
3383291 50 18335145332009275243
34797466 226 17917720119195660580
350125 39 18408605868060159253
3545911 37 18343023276607373886
4325135 7 18113336401213099357
5104073 3 18265056821583268283
5758199 1 18272655632194597563
59682541 35 18410579517844958067
59755656 215 18413390916794060598

> <PUBCHEM_SHAPE_MULTIPOLES>
505.72
18.85
1.68
1.02
11.46
0.14
0.02
2.14
2.42
-1.46
-0.04
0.62
-0.05
0.3

> <PUBCHEM_SHAPE_SELFOVERLAP>
1128.743

> <PUBCHEM_SHAPE_VOLUME>
269.4

> <PUBCHEM_COORDINATE_TYPE>
2
5
10

$$$$
