92783
  -OEChem-09102014373D

 51 53  0     1  0  0  0  0  0999 V2000
   -4.3911   -1.1354   -0.3194 O   0  0  0  0  0  0  0  0  0  0  0  0
    1.8000    0.6281   -0.1565 C   0  0  2  0  0  0  0  0  0  0  0  0
    1.2966   -0.7817    0.3352 C   0  0  2  0  0  0  0  0  0  0  0  0
    3.3536    0.8440   -0.2322 C   0  0  0  0  0  0  0  0  0  0  0  0
    2.0527   -1.8690   -0.4770 C   0  0  0  0  0  0  0  0  0  0  0  0
    4.0038   -0.3486   -0.9733 C   0  0  0  0  0  0  0  0  0  0  0  0
    1.0418    1.7417    0.5838 C   0  0  0  0  0  0  0  0  0  0  0  0
    3.5707   -1.7096   -0.4494 C   0  0  0  0  0  0  0  0  0  0  0  0
   -0.2346   -0.8615    0.1216 C   0  0  0  0  0  0  0  0  0  0  0  0
   -0.4447    1.6915    0.2413 C   0  0  0  0  0  0  0  0  0  0  0  0
    1.4969   -1.0565    1.8460 C   0  0  0  0  0  0  0  0  0  0  0  0
   -1.0288    0.3062    0.1283 C   0  0  0  0  0  0  0  0  0  0  0  0
    4.0356    1.0580    1.1320 C   0  0  0  0  0  0  0  0  0  0  0  0
    3.6632    2.1106   -1.0755 C   0  0  0  0  0  0  0  0  0  0  0  0
   -0.8862   -2.1047   -0.0104 C   0  0  0  0  0  0  0  0  0  0  0  0
   -2.4237    0.2050   -0.0278 C   0  0  0  0  0  0  0  0  0  0  0  0
   -3.2847    1.4324   -0.0536 C   0  0  0  0  0  0  0  0  0  0  0  0
   -3.0411   -1.0342   -0.1705 C   0  0  0  0  0  0  0  0  0  0  0  0
   -2.2718   -2.1894   -0.1593 C   0  0  0  0  0  0  0  0  0  0  0  0
   -4.2891    1.4681    1.1110 C   0  0  0  0  0  0  0  0  0  0  0  0
   -4.0191    1.6051   -1.3943 C   0  0  0  0  0  0  0  0  0  0  0  0
    1.4728    0.6973   -1.2089 H   0  0  0  0  0  0  0  0  0  0  0  0
    1.7165   -1.8468   -1.5229 H   0  0  0  0  0  0  0  0  0  0  0  0
    1.8217   -2.8732   -0.1017 H   0  0  0  0  0  0  0  0  0  0  0  0
    5.0979   -0.2765   -0.9243 H   0  0  0  0  0  0  0  0  0  0  0  0
    3.7443   -0.2994   -2.0399 H   0  0  0  0  0  0  0  0  0  0  0  0
    1.4119    2.7364    0.3169 H   0  0  0  0  0  0  0  0  0  0  0  0
    1.1795    1.6546    1.6666 H   0  0  0  0  0  0  0  0  0  0  0  0
    3.9570   -1.8712    0.5621 H   0  0  0  0  0  0  0  0  0  0  0  0
    4.0209   -2.4907   -1.0741 H   0  0  0  0  0  0  0  0  0  0  0  0
   -0.5898    2.2078   -0.7166 H   0  0  0  0  0  0  0  0  0  0  0  0
   -0.9499    2.2579    1.0323 H   0  0  0  0  0  0  0  0  0  0  0  0
    2.5423   -1.0692    2.1474 H   0  0  0  0  0  0  0  0  0  0  0  0
    0.9747   -0.3314    2.4784 H   0  0  0  0  0  0  0  0  0  0  0  0
    1.0968   -2.0417    2.1196 H   0  0  0  0  0  0  0  0  0  0  0  0
    3.5451    1.8450    1.7133 H   0  0  0  0  0  0  0  0  0  0  0  0
    4.0706    0.1561    1.7412 H   0  0  0  0  0  0  0  0  0  0  0  0
    5.0797    1.3669    0.9967 H   0  0  0  0  0  0  0  0  0  0  0  0
    3.1499    2.0819   -2.0431 H   0  0  0  0  0  0  0  0  0  0  0  0
    3.3642    3.0298   -0.5624 H   0  0  0  0  0  0  0  0  0  0  0  0
    4.7378    2.1941   -1.2785 H   0  0  0  0  0  0  0  0  0  0  0  0
   -0.3275   -3.0357    0.0150 H   0  0  0  0  0  0  0  0  0  0  0  0
   -2.7029    2.3497    0.0489 H   0  0  0  0  0  0  0  0  0  0  0  0
   -2.7339   -3.1679   -0.2601 H   0  0  0  0  0  0  0  0  0  0  0  0
   -5.0791    0.7168    1.0308 H   0  0  0  0  0  0  0  0  0  0  0  0
   -4.7850    2.4451    1.1480 H   0  0  0  0  0  0  0  0  0  0  0  0
   -3.7789    1.3209    2.0697 H   0  0  0  0  0  0  0  0  0  0  0  0
   -3.3167    1.5494   -2.2336 H   0  0  0  0  0  0  0  0  0  0  0  0
   -4.5017    2.5887   -1.4330 H   0  0  0  0  0  0  0  0  0  0  0  0
   -4.8043    0.8634   -1.5620 H   0  0  0  0  0  0  0  0  0  0  0  0
   -4.6329   -2.0737   -0.4037 H   0  0  0  0  0  0  0  0  0  0  0  0
  1 18  1  0  0  0  0
  1 51  1  0  0  0  0
  2  3  1  0  0  0  0
  2  4  1  0  0  0  0
  2  7  1  0  0  0  0
  2 22  1  0  0  0  0
  3  5  1  0  0  0  0
  3  9  1  0  0  0  0
  3 11  1  0  0  0  0
  4  6  1  0  0  0  0
  4 13  1  0  0  0  0
  4 14  1  0  0  0  0
  5  8  1  0  0  0  0
  5 23  1  0  0  0  0
  5 24  1  0  0  0  0
  6  8  1  0  0  0  0
  6 25  1  0  0  0  0
  6 26  1  0  0  0  0
  7 10  1  0  0  0  0
  7 27  1  0  0  0  0
  7 28  1  0  0  0  0
  8 29  1  0  0  0  0
  8 30  1  0  0  0  0
  9 12  2  0  0  0  0
  9 15  1  0  0  0  0
 10 12  1  0  0  0  0
 10 31  1  0  0  0  0
 10 32  1  0  0  0  0
 11 33  1  0  0  0  0
 11 34  1  0  0  0  0
 11 35  1  0  0  0  0
 12 16  1  0  0  0  0
 13 36  1  0  0  0  0
 13 37  1  0  0  0  0
 13 38  1  0  0  0  0
 14 39  1  0  0  0  0
 14 40  1  0  0  0  0
 14 41  1  0  0  0  0
 15 19  2  0  0  0  0
 15 42  1  0  0  0  0
 16 17  1  0  0  0  0
 16 18  2  0  0  0  0
 17 20  1  0  0  0  0
 17 21  1  0  0  0  0
 17 43  1  0  0  0  0
 18 19  1  0  0  0  0
 19 44  1  0  0  0  0
 20 45  1  0  0  0  0
 20 46  1  0  0  0  0
 20 47  1  0  0  0  0
 21 48  1  0  0  0  0
 21 49  1  0  0  0  0
 21 50  1  0  0  0  0
M  END
> <PUBCHEM_COMPOUND_CID>
92783

> <PUBCHEM_CONFORMER_RMSD>
0.6

> <PUBCHEM_CONFORMER_DIVERSEORDER>
1

> <PUBCHEM_MMFF94_PARTIAL_CHARGES>
13
1 -0.53
10 0.14
12 -0.14
15 -0.15
16 -0.14
17 0.14
18 0.08
19 -0.15
3 0.14
42 0.15
44 0.15
51 0.45
9 -0.14

> <PUBCHEM_EFFECTIVE_ROTOR_COUNT>
2.2

> <PUBCHEM_PHARMACOPHORE_FEATURES>
6
1 1 donor
3 17 20 21 hydrophobe
3 4 13 14 hydrophobe
6 2 3 4 5 6 8 rings
6 2 3 7 9 10 12 rings
6 9 12 15 16 18 19 rings

> <PUBCHEM_HEAVY_ATOM_COUNT>
21

> <PUBCHEM_ATOM_DEF_STEREO_COUNT>
2

> <PUBCHEM_ATOM_UDEF_STEREO_COUNT>
0

> <PUBCHEM_BOND_DEF_STEREO_COUNT>
0

> <PUBCHEM_BOND_UDEF_STEREO_COUNT>
0

> <PUBCHEM_ISOTOPIC_ATOM_COUNT>
0

> <PUBCHEM_COMPONENT_COUNT>
1

> <PUBCHEM_CACTVS_TAUTO_COUNT>
9

> <PUBCHEM_CONFORMER_ID>
00016A6F00000001

> <PUBCHEM_MMFF94_ENERGY>
81.629

> <PUBCHEM_FEATURE_SELFOVERLAP>
30.482

> <PUBCHEM_SHAPE_FINGERPRINT>
10062212 137 18337100254823980746
10411042 1 16754097832636502687
10498660 4 18334006169037258597
10608611 8 18412261770018113732
10616163 171 18341055228045128582
10646746 165 18341326803459741104
10756046 5 18410580586780091934
10863032 1 18343866610526044486
10967382 1 18268150859581998106
10980938 120 18335700529039616378
1100329 8 16972807213021800312
11132069 177 18410005537787856912
11578080 2 17202753933747410834
116883 192 17985277270253926870
12173636 292 18341891853625783421
12403814 3 17821443569463088445
12788726 201 17202219425094349601
13140716 1 18339923714568661419
13221675 6 18338515347594959779
13224815 77 18040716982513737529
14790565 3 18125734387429447305
15196674 1 18412547608523328574
15375358 24 18273207608321707552
15536298 74 18343021086263574270
15788980 27 17530678784311867968
16752209 62 18341036502393951615
16945 1 18124318460975058050
17980427 23 18116705413059449492
18186145 218 18337674117962045701
19591789 44 18051983519392452905
19862831 5 18410577253706069940
200 152 17203611462933913974
20510252 161 18272089409576044203
20645477 70 17775292659819310414
20691752 17 17676487237432124514
20715895 44 17973143051171766053
21267235 1 18339935877905623766
21452121 103 18130496505722513960
21501502 16 18411982472452918975
231179 274 17894908486385974116
23227448 37 18261675968908423437
2334 1 18411132558886775211
23402539 116 18341608188273715590
23557571 272 18202001070938854994
23559900 14 18343302527392515934
2748010 2 18412546521997076303
2838139 119 16662581356608267517
3323516 105 18342742944160308358
335352 9 18268151955015066782
34934 24 18412256238184794896
350125 39 18411706521690335401
4280585 95 17767703667725714374
474 4 17532097261949632268
495365 180 17417515952591218570
5104073 3 18412263926033941274
5281201 14 18413114952444753822
633830 44 17822296803254833438
7832392 63 18412266138089492084
9709674 26 18341055193711939318
9981440 41 17901672893238762560

> <PUBCHEM_SHAPE_MULTIPOLES>
426.3
8.51
2.53
1.15
2.04
0.27
0.21
-2.39
-1.31
0.15
-0.23
-0.29
-0.22
-0.06

> <PUBCHEM_SHAPE_SELFOVERLAP>
903.781

> <PUBCHEM_SHAPE_VOLUME>
239

> <PUBCHEM_COORDINATE_TYPE>
2
5
10

$$$$
