16665
  -OEChem-09102012243D

 29 28  0     1  0  0  0  0  0999 V2000
   -0.6491   -0.9375    0.3770 C   0  0  1  0  0  0  0  0  0  0  0  0
    0.7999   -0.7114    0.8522 C   0  0  0  0  0  0  0  0  0  0  0  0
   -1.4824    0.3534    0.2361 C   0  0  0  0  0  0  0  0  0  0  0  0
    1.6575    0.0713   -0.1463 C   0  0  0  0  0  0  0  0  0  0  0  0
   -0.6453   -1.7448   -0.9257 C   0  0  0  0  0  0  0  0  0  0  0  0
   -2.9691    0.1408   -0.0620 C   0  0  0  0  0  0  0  0  0  0  0  0
    3.0763    0.2785    0.3862 C   0  0  0  0  0  0  0  0  0  0  0  0
   -3.7122    1.4673   -0.1312 C   0  0  0  0  0  0  0  0  0  0  0  0
    3.9245    1.0825   -0.5864 C   0  0  0  0  0  0  0  0  0  0  0  0
   -1.1327   -1.5574    1.1443 H   0  0  0  0  0  0  0  0  0  0  0  0
    1.2703   -1.6833    1.0494 H   0  0  0  0  0  0  0  0  0  0  0  0
    0.7784   -0.1771    1.8104 H   0  0  0  0  0  0  0  0  0  0  0  0
   -1.0569    0.9812   -0.5563 H   0  0  0  0  0  0  0  0  0  0  0  0
   -1.3908    0.9262    1.1680 H   0  0  0  0  0  0  0  0  0  0  0  0
    1.7173   -0.4610   -1.1016 H   0  0  0  0  0  0  0  0  0  0  0  0
    1.2065    1.0497   -0.3445 H   0  0  0  0  0  0  0  0  0  0  0  0
   -0.3610   -1.1314   -1.7867 H   0  0  0  0  0  0  0  0  0  0  0  0
   -1.6390   -2.1571   -1.1293 H   0  0  0  0  0  0  0  0  0  0  0  0
    0.0440   -2.5937   -0.8633 H   0  0  0  0  0  0  0  0  0  0  0  0
   -3.4178   -0.4864    0.7165 H   0  0  0  0  0  0  0  0  0  0  0  0
   -3.0966   -0.3798   -1.0168 H   0  0  0  0  0  0  0  0  0  0  0  0
    3.5532   -0.6926    0.5632 H   0  0  0  0  0  0  0  0  0  0  0  0
    3.0406    0.8029    1.3482 H   0  0  0  0  0  0  0  0  0  0  0  0
   -3.3044    2.1049   -0.9220 H   0  0  0  0  0  0  0  0  0  0  0  0
   -3.6403    2.0075    0.8182 H   0  0  0  0  0  0  0  0  0  0  0  0
   -4.7720    1.2966   -0.3449 H   0  0  0  0  0  0  0  0  0  0  0  0
    3.4917    2.0732   -0.7585 H   0  0  0  0  0  0  0  0  0  0  0  0
    4.0069    0.5710   -1.5506 H   0  0  0  0  0  0  0  0  0  0  0  0
    4.9342    1.2179   -0.1864 H   0  0  0  0  0  0  0  0  0  0  0  0
  1  2  1  0  0  0  0
  1  3  1  0  0  0  0
  1  5  1  0  0  0  0
  1 10  1  0  0  0  0
  2  4  1  0  0  0  0
  2 11  1  0  0  0  0
  2 12  1  0  0  0  0
  3  6  1  0  0  0  0
  3 13  1  0  0  0  0
  3 14  1  0  0  0  0
  4  7  1  0  0  0  0
  4 15  1  0  0  0  0
  4 16  1  0  0  0  0
  5 17  1  0  0  0  0
  5 18  1  0  0  0  0
  5 19  1  0  0  0  0
  6  8  1  0  0  0  0
  6 20  1  0  0  0  0
  6 21  1  0  0  0  0
  7  9  1  0  0  0  0
  7 22  1  0  0  0  0
  7 23  1  0  0  0  0
  8 24  1  0  0  0  0
  8 25  1  0  0  0  0
  8 26  1  0  0  0  0
  9 27  1  0  0  0  0
  9 28  1  0  0  0  0
  9 29  1  0  0  0  0
M  END
> <PUBCHEM_COMPOUND_CID>
16665

> <PUBCHEM_CONFORMER_RMSD>
0.6

> <PUBCHEM_CONFORMER_DIVERSEORDER>
2
64
48
33
7
56
45
21
53
62
32
11
5
50
22
17
51
3
58
23
25
28
61
26
1
34
10
24
20
16
54
35
40
13
4
59
57
14
12
29
31
63
47
42
37
41
38
9
27
52
44
49
6
60
39
46
8
30
15
55
19
36
18
43

> <PUBCHEM_MMFF94_PARTIAL_CHARGES>
0

> <PUBCHEM_EFFECTIVE_ROTOR_COUNT>
5

> <PUBCHEM_PHARMACOPHORE_FEATURES>
5
1 5 hydrophobe
1 8 hydrophobe
1 9 hydrophobe
3 1 3 6 hydrophobe
3 2 4 7 hydrophobe

> <PUBCHEM_HEAVY_ATOM_COUNT>
9

> <PUBCHEM_ATOM_DEF_STEREO_COUNT>
0

> <PUBCHEM_ATOM_UDEF_STEREO_COUNT>
1

> <PUBCHEM_BOND_DEF_STEREO_COUNT>
0

> <PUBCHEM_BOND_UDEF_STEREO_COUNT>
0

> <PUBCHEM_ISOTOPIC_ATOM_COUNT>
0

> <PUBCHEM_COMPONENT_COUNT>
1

> <PUBCHEM_CACTVS_TAUTO_COUNT>
1

> <PUBCHEM_CONFORMER_ID>
0000411900000002

> <PUBCHEM_MMFF94_ENERGY>
1.7107

> <PUBCHEM_FEATURE_SELFOVERLAP>
25.475

> <PUBCHEM_SHAPE_FINGERPRINT>
10149128 111 18187088368618887116
10726558 24 17988649566483616119
10857977 72 12757147974195947235
12138202 97 17846780745029956518
122479 349 18259990400382119624
12932741 1 16772950453736574938
12932764 1 18058171803173241026
14325111 11 18410854343626672939
14390081 3 18336263457797854001
15775835 57 18335138687098294397
170605 34 18260267412766393155
177051 138 9511464424693106976
18186145 218 17132112446335239081
18342897 96 18336828692536765606
20211469 26 10231764374663235664
20281407 28 9439403531729704197
20645477 56 18201158875001894960
20653085 51 18338524139545755208
20671657 53 12103844566177465610
20711983 171 18409728478137506630
21293036 1 17846495945938163537
22485316 2 10447925057585192801
23235685 24 18272082782067037633
23402539 116 17917138438478281052
449060 62 18336265631046251873

> <PUBCHEM_SHAPE_MULTIPOLES>
185.22
6.6
1.5
0.87
1.5
0.22
0.03
-4.46
0.81
-0.61
0.33
0.18
0.19
-0.32

> <PUBCHEM_SHAPE_SELFOVERLAP>
323.553

> <PUBCHEM_SHAPE_VOLUME>
123.9

> <PUBCHEM_COORDINATE_TYPE>
2
5
10

$$$$
