6429176
  -OEChem-11202006593D

 36 36  0     0  0  0  0  0  0999 V2000
   -3.7595    2.8753    0.3764 O   0  0  0  0  0  0  0  0  0  0  0  0
   -0.3903   -1.8191    0.7276 C   0  0  0  0  0  0  0  0  0  0  0  0
   -1.6731   -2.6322    0.5179 C   0  0  0  0  0  0  0  0  0  0  0  0
    0.3022   -1.4351   -0.5824 C   0  0  0  0  0  0  0  0  0  0  0  0
   -2.7888   -1.9089   -0.2469 C   0  0  0  0  0  0  0  0  0  0  0  0
    1.5545   -0.6329   -0.3323 C   0  0  0  0  0  0  0  0  0  0  0  0
    1.4751    0.7498   -0.2611 C   0  0  0  0  0  0  0  0  0  0  0  0
    2.7649   -1.2915   -0.1775 C   0  0  0  0  0  0  0  0  0  0  0  0
   -3.2001   -0.6185    0.4077 C   0  0  0  0  0  0  0  0  0  0  0  0
    3.8577    0.8417    0.1275 C   0  0  0  0  0  0  0  0  0  0  0  0
    2.6336    1.4914   -0.0300 C   0  0  0  0  0  0  0  0  0  0  0  0
    3.9234   -0.5498    0.0537 C   0  0  0  0  0  0  0  0  0  0  0  0
   -3.2352    0.6041   -0.1493 C   0  0  0  0  0  0  0  0  0  0  0  0
    5.0961    1.6346    0.3757 C   0  0  0  0  0  0  0  0  0  0  0  0
   -2.8805    0.9821   -1.5522 C   0  0  0  0  0  0  0  0  0  0  0  0
   -3.6800    1.7091    0.7452 C   0  0  0  0  0  0  0  0  0  0  0  0
    0.2978   -2.4200    1.3367 H   0  0  0  0  0  0  0  0  0  0  0  0
   -0.6073   -0.9214    1.3194 H   0  0  0  0  0  0  0  0  0  0  0  0
   -1.4291   -3.5612   -0.0122 H   0  0  0  0  0  0  0  0  0  0  0  0
   -2.0533   -2.9322    1.5032 H   0  0  0  0  0  0  0  0  0  0  0  0
    0.5496   -2.3381   -1.1550 H   0  0  0  0  0  0  0  0  0  0  0  0
   -0.3675   -0.8511   -1.2234 H   0  0  0  0  0  0  0  0  0  0  0  0
   -2.4857   -1.7710   -1.2875 H   0  0  0  0  0  0  0  0  0  0  0  0
   -3.6673   -2.5655   -0.2755 H   0  0  0  0  0  0  0  0  0  0  0  0
    0.5258    1.2646   -0.3796 H   0  0  0  0  0  0  0  0  0  0  0  0
    2.8258   -2.3747   -0.2310 H   0  0  0  0  0  0  0  0  0  0  0  0
   -3.5048   -0.7331    1.4476 H   0  0  0  0  0  0  0  0  0  0  0  0
    2.5691    2.5748    0.0278 H   0  0  0  0  0  0  0  0  0  0  0  0
    4.8709   -1.0676    0.1772 H   0  0  0  0  0  0  0  0  0  0  0  0
    5.2421    1.7765    1.4511 H   0  0  0  0  0  0  0  0  0  0  0  0
    5.9774    1.1300   -0.0346 H   0  0  0  0  0  0  0  0  0  0  0  0
    5.0383    2.6178   -0.1035 H   0  0  0  0  0  0  0  0  0  0  0  0
   -3.7235    1.4898   -2.0331 H   0  0  0  0  0  0  0  0  0  0  0  0
   -2.0224    1.6625   -1.5546 H   0  0  0  0  0  0  0  0  0  0  0  0
   -2.6229    0.1264   -2.1795 H   0  0  0  0  0  0  0  0  0  0  0  0
   -3.9391    1.4233    1.7788 H   0  0  0  0  0  0  0  0  0  0  0  0
  1 16  2  0  0  0  0
  2  3  1  0  0  0  0
  2  4  1  0  0  0  0
  2 17  1  0  0  0  0
  2 18  1  0  0  0  0
  3  5  1  0  0  0  0
  3 19  1  0  0  0  0
  3 20  1  0  0  0  0
  4  6  1  0  0  0  0
  4 21  1  0  0  0  0
  4 22  1  0  0  0  0
  5  9  1  0  0  0  0
  5 23  1  0  0  0  0
  5 24  1  0  0  0  0
  6  7  2  0  0  0  0
  6  8  1  0  0  0  0
  7 11  1  0  0  0  0
  7 25  1  0  0  0  0
  8 12  2  0  0  0  0
  8 26  1  0  0  0  0
  9 13  2  0  0  0  0
  9 27  1  0  0  0  0
 10 11  2  0  0  0  0
 10 12  1  0  0  0  0
 10 14  1  0  0  0  0
 11 28  1  0  0  0  0
 12 29  1  0  0  0  0
 13 15  1  0  0  0  0
 13 16  1  0  0  0  0
 14 30  1  0  0  0  0
 14 31  1  0  0  0  0
 14 32  1  0  0  0  0
 15 33  1  0  0  0  0
 15 34  1  0  0  0  0
 15 35  1  0  0  0  0
 16 36  1  0  0  0  0
M  END
> <PUBCHEM_COMPOUND_CID>
6429176

> <PUBCHEM_CONFORMER_RMSD>
0.8

> <PUBCHEM_CONFORMER_DIVERSEORDER>
1
11
19
41
7
24
9
37
43
42
14
20
12
22
23
29
32
36
5
33
28
18
2
39
3
31
35
34
10
4
8
21
27
30
38
16
15
17
6
26
25
13
40

> <PUBCHEM_MMFF94_PARTIAL_CHARGES>
20
1 -0.57
10 -0.14
11 -0.15
12 -0.15
13 -0.12
14 0.14
15 0.14
16 0.5
25 0.15
26 0.15
27 0.15
28 0.15
29 0.15
36 0.06
4 0.14
5 0.14
6 -0.14
7 -0.15
8 -0.15
9 -0.29

> <PUBCHEM_EFFECTIVE_ROTOR_COUNT>
6

> <PUBCHEM_PHARMACOPHORE_FEATURES>
4
1 1 acceptor
1 15 hydrophobe
5 2 3 4 5 9 hydrophobe
6 6 7 8 10 11 12 rings

> <PUBCHEM_HEAVY_ATOM_COUNT>
16

> <PUBCHEM_ATOM_DEF_STEREO_COUNT>
0

> <PUBCHEM_ATOM_UDEF_STEREO_COUNT>
0

> <PUBCHEM_BOND_DEF_STEREO_COUNT>
1

> <PUBCHEM_BOND_UDEF_STEREO_COUNT>
0

> <PUBCHEM_ISOTOPIC_ATOM_COUNT>
0

> <PUBCHEM_COMPONENT_COUNT>
1

> <PUBCHEM_CACTVS_TAUTO_COUNT>
1

> <PUBCHEM_CONFORMER_ID>
006219F800000001

> <PUBCHEM_MMFF94_ENERGY>
24.4474

> <PUBCHEM_FEATURE_SELFOVERLAP>
20.297

> <PUBCHEM_SHAPE_FINGERPRINT>
10608611 8 18339361971595793986
10646746 165 18410014368593980374
11045515 52 17832973224707737831
11615756 256 18409173237439644884
12107183 9 18191577550352450866
122479 349 18412265021150322175
12596602 18 16951123022666487048
12633257 1 18263072228416393288
14123255 52 18266460893615994625
14251764 38 18196366142387489392
14251764 75 17841162060809795457
14466204 15 18340759455808202592
15196674 1 18411420600530728362
15442244 35 18408884006153041106
17802600 8 18266455588893553575
17834072 32 18339645538385205689
18186145 218 18337111163856179382
18915474 69 9943803396045518762
20621476 13 16893978822423365837
20645477 70 17489040318292967438
21524375 3 18260832553749708403
22182937 141 18411428289091907227
2306618 200 18129112288849453339
23402539 116 18193551405663565943
23557571 272 18193842763196279887
23845131 108 18116723903114672475
27216 239 18334583434406522515
4028521 119 18261944224355728423
5104073 3 18334852836172207282
633830 44 18270679753563839814

> <PUBCHEM_SHAPE_MULTIPOLES>
323.4
9.45
2.83
0.92
4.62
0.16
-0.18
5.54
0.92
-2.43
0.47
-0.6
0.12
0.19

> <PUBCHEM_SHAPE_SELFOVERLAP>
647.505

> <PUBCHEM_SHAPE_VOLUME>
191.1

> <PUBCHEM_COORDINATE_TYPE>
2
5
10

$$$$
