15143722
  -OEChem-11202006553D

 91 95  0     1  0  0  0  0  0999 V2000
    4.7768    0.6422   -0.3366 O   0  0  0  0  0  0  0  0  0  0  0  0
   -7.9621   -1.6068    0.0395 O   0  0  0  0  0  0  0  0  0  0  0  0
    2.8692    2.9530    0.3917 O   0  0  0  0  0  0  0  0  0  0  0  0
    1.7900    1.9076   -1.3224 O   0  0  0  0  0  0  0  0  0  0  0  0
    6.7693    0.8096    0.8130 O   0  0  0  0  0  0  0  0  0  0  0  0
   -1.8901    0.7107    0.3370 C   0  0  2  0  0  0  0  0  0  0  0  0
   -2.6108   -0.4161   -0.4953 C   0  0  1  0  0  0  0  0  0  0  0  0
   -0.5042    0.0845    0.9412 C   0  0  1  0  0  0  0  0  0  0  0  0
   -4.1301   -0.1590   -0.9087 C   0  0  2  0  0  0  0  0  0  0  0  0
   -4.9048    0.2480    0.3983 C   0  0  1  0  0  0  0  0  0  0  0  0
   -2.8256    1.2179    1.4700 C   0  0  0  0  0  0  0  0  0  0  0  0
    0.3414   -0.4991   -0.2090 C   0  0  0  0  0  0  0  0  0  0  0  0
    1.8669   -0.5915   -0.0893 C   0  0  1  0  0  0  0  0  0  0  0  0
   -4.2675    1.4976    1.0402 C   0  0  0  0  0  0  0  0  0  0  0  0
    2.4896    0.6306    0.6288 C   0  0  1  0  0  0  0  0  0  0  0  0
    0.2689    1.1598    1.7639 C   0  0  0  0  0  0  0  0  0  0  0  0
   -1.7080   -0.9219   -1.6452 C   0  0  0  0  0  0  0  0  0  0  0  0
   -6.4682    0.2961    0.2971 C   0  0  0  0  0  0  0  0  0  0  0  0
   -4.7331   -1.5069   -1.4075 C   0  0  0  0  0  0  0  0  0  0  0  0
    1.7626    0.8780    1.9666 C   0  0  0  0  0  0  0  0  0  0  0  0
   -1.5655    1.9423   -0.5664 C   0  0  0  0  0  0  0  0  0  0  0  0
   -0.2398   -0.9472   -1.3397 C   0  0  0  0  0  0  0  0  0  0  0  0
   -0.7809   -1.1017    1.9178 C   0  0  0  0  0  0  0  0  0  0  0  0
    2.2775   -1.9403    0.5482 C   0  0  0  0  0  0  0  0  0  0  0  0
   -4.2754    0.8790   -2.0492 C   0  0  0  0  0  0  0  0  0  0  0  0
    4.0159    0.4538    0.8597 C   0  0  1  0  0  0  0  0  0  0  0  0
    3.7969   -2.1305    0.7383 C   0  0  0  0  0  0  0  0  0  0  0  0
   -6.2443   -1.4907   -1.5952 C   0  0  0  0  0  0  0  0  0  0  0  0
    4.3949   -0.9023    1.4624 C   0  0  0  0  0  0  0  0  0  0  0  0
   -6.9606   -1.0069   -0.3574 C   0  0  0  0  0  0  0  0  0  0  0  0
   -7.0787    0.3632    1.7210 C   0  0  0  0  0  0  0  0  0  0  0  0
   -7.0359    1.4836   -0.4923 C   0  0  0  0  0  0  0  0  0  0  0  0
    2.3288    1.8743   -0.2261 C   0  0  0  0  0  0  0  0  0  0  0  0
    4.0336   -3.3735    1.6250 C   0  0  0  0  0  0  0  0  0  0  0  0
    4.4837   -2.4061   -0.6125 C   0  0  0  0  0  0  0  0  0  0  0  0
    6.1318    0.5359   -0.1956 C   0  0  0  0  0  0  0  0  0  0  0  0
    6.7374    0.0337   -1.4945 C   0  0  0  0  0  0  0  0  0  0  0  0
    7.0749    1.2157   -2.3956 C   0  0  0  0  0  0  0  0  0  0  0  0
    7.9755   -0.8165   -1.2215 C   0  0  0  0  0  0  0  0  0  0  0  0
   -2.6872   -1.2696    0.1926 H   0  0  0  0  0  0  0  0  0  0  0  0
   -4.7112   -0.5745    1.1079 H   0  0  0  0  0  0  0  0  0  0  0  0
   -2.4126    2.1276    1.9235 H   0  0  0  0  0  0  0  0  0  0  0  0
   -2.8902    0.4889    2.2805 H   0  0  0  0  0  0  0  0  0  0  0  0
    2.2739   -0.6014   -1.1111 H   0  0  0  0  0  0  0  0  0  0  0  0
   -4.8140    1.7901    1.9421 H   0  0  0  0  0  0  0  0  0  0  0  0
   -4.3077    2.3655    0.3771 H   0  0  0  0  0  0  0  0  0  0  0  0
   -0.1972    1.2737    2.7516 H   0  0  0  0  0  0  0  0  0  0  0  0
    0.1971    2.1475    1.3068 H   0  0  0  0  0  0  0  0  0  0  0  0
   -1.8248   -0.3140   -2.5453 H   0  0  0  0  0  0  0  0  0  0  0  0
   -2.0080   -1.9407   -1.9175 H   0  0  0  0  0  0  0  0  0  0  0  0
   -4.4923   -2.3001   -0.6867 H   0  0  0  0  0  0  0  0  0  0  0  0
   -4.2722   -1.8014   -2.3582 H   0  0  0  0  0  0  0  0  0  0  0  0
    2.2013    1.7309    2.5008 H   0  0  0  0  0  0  0  0  0  0  0  0
    1.8839    0.0222    2.6393 H   0  0  0  0  0  0  0  0  0  0  0  0
   -1.1440    2.7765    0.0005 H   0  0  0  0  0  0  0  0  0  0  0  0
   -0.8691    1.7094   -1.3744 H   0  0  0  0  0  0  0  0  0  0  0  0
   -2.4556    2.3595   -1.0335 H   0  0  0  0  0  0  0  0  0  0  0  0
    0.3853   -1.3585   -2.1297 H   0  0  0  0  0  0  0  0  0  0  0  0
   -1.5178   -0.8595    2.6854 H   0  0  0  0  0  0  0  0  0  0  0  0
   -1.1221   -2.0046    1.4007 H   0  0  0  0  0  0  0  0  0  0  0  0
    0.1129   -1.3873    2.4781 H   0  0  0  0  0  0  0  0  0  0  0  0
    1.8051   -2.0469    1.5280 H   0  0  0  0  0  0  0  0  0  0  0  0
    1.8802   -2.7653   -0.0591 H   0  0  0  0  0  0  0  0  0  0  0  0
   -4.3757    1.9027   -1.6856 H   0  0  0  0  0  0  0  0  0  0  0  0
   -3.4348    0.8666   -2.7446 H   0  0  0  0  0  0  0  0  0  0  0  0
   -5.1521    0.6984   -2.6747 H   0  0  0  0  0  0  0  0  0  0  0  0
    4.3471    1.2319    1.5626 H   0  0  0  0  0  0  0  0  0  0  0  0
   -6.5824   -2.5112   -1.8111 H   0  0  0  0  0  0  0  0  0  0  0  0
   -6.5543   -0.8716   -2.4412 H   0  0  0  0  0  0  0  0  0  0  0  0
    5.4750   -1.0484    1.5604 H   0  0  0  0  0  0  0  0  0  0  0  0
    4.0228   -0.9065    2.4968 H   0  0  0  0  0  0  0  0  0  0  0  0
   -6.8640    1.3141    2.2178 H   0  0  0  0  0  0  0  0  0  0  0  0
   -8.1710    0.2671    1.6952 H   0  0  0  0  0  0  0  0  0  0  0  0
   -6.7008   -0.4481    2.3537 H   0  0  0  0  0  0  0  0  0  0  0  0
   -8.1294    1.5167   -0.4062 H   0  0  0  0  0  0  0  0  0  0  0  0
   -6.6527    2.4388   -0.1201 H   0  0  0  0  0  0  0  0  0  0  0  0
   -6.8302    1.4236   -1.5617 H   0  0  0  0  0  0  0  0  0  0  0  0
    3.6052   -4.2733    1.1689 H   0  0  0  0  0  0  0  0  0  0  0  0
    5.1041   -3.5523    1.7774 H   0  0  0  0  0  0  0  0  0  0  0  0
    3.5734   -3.2537    2.6124 H   0  0  0  0  0  0  0  0  0  0  0  0
    4.1302   -3.3531   -1.0384 H   0  0  0  0  0  0  0  0  0  0  0  0
    4.2586   -1.6374   -1.3530 H   0  0  0  0  0  0  0  0  0  0  0  0
    5.5667   -2.4928   -0.4952 H   0  0  0  0  0  0  0  0  0  0  0  0
    2.7751    3.7680   -0.1459 H   0  0  0  0  0  0  0  0  0  0  0  0
    6.0116   -0.5953   -2.0154 H   0  0  0  0  0  0  0  0  0  0  0  0
    7.4956    0.8754   -3.3474 H   0  0  0  0  0  0  0  0  0  0  0  0
    7.8012    1.8839   -1.9196 H   0  0  0  0  0  0  0  0  0  0  0  0
    6.1790    1.8075   -2.6130 H   0  0  0  0  0  0  0  0  0  0  0  0
    8.3602   -1.2514   -2.1498 H   0  0  0  0  0  0  0  0  0  0  0  0
    7.7497   -1.6346   -0.5301 H   0  0  0  0  0  0  0  0  0  0  0  0
    8.7768   -0.2203   -0.7705 H   0  0  0  0  0  0  0  0  0  0  0  0
  1 26  1  0  0  0  0
  1 36  1  0  0  0  0
  2 30  2  0  0  0  0
  3 33  1  0  0  0  0
  3 84  1  0  0  0  0
  4 33  2  0  0  0  0
  5 36  2  0  0  0  0
  6  7  1  0  0  0  0
  6  8  1  0  0  0  0
  6 11  1  0  0  0  0
  6 21  1  0  0  0  0
  7  9  1  0  0  0  0
  7 17  1  0  0  0  0
  7 40  1  0  0  0  0
  8 12  1  0  0  0  0
  8 16  1  0  0  0  0
  8 23  1  0  0  0  0
  9 10  1  0  0  0  0
  9 19  1  0  0  0  0
  9 25  1  0  0  0  0
 10 14  1  0  0  0  0
 10 18  1  0  0  0  0
 10 41  1  0  0  0  0
 11 14  1  0  0  0  0
 11 42  1  0  0  0  0
 11 43  1  0  0  0  0
 12 13  1  0  0  0  0
 12 22  2  0  0  0  0
 13 15  1  0  0  0  0
 13 24  1  0  0  0  0
 13 44  1  0  0  0  0
 14 45  1  0  0  0  0
 14 46  1  0  0  0  0
 15 20  1  0  0  0  0
 15 26  1  0  0  0  0
 15 33  1  0  0  0  0
 16 20  1  0  0  0  0
 16 47  1  0  0  0  0
 16 48  1  0  0  0  0
 17 22  1  0  0  0  0
 17 49  1  0  0  0  0
 17 50  1  0  0  0  0
 18 30  1  0  0  0  0
 18 31  1  0  0  0  0
 18 32  1  0  0  0  0
 19 28  1  0  0  0  0
 19 51  1  0  0  0  0
 19 52  1  0  0  0  0
 20 53  1  0  0  0  0
 20 54  1  0  0  0  0
 21 55  1  0  0  0  0
 21 56  1  0  0  0  0
 21 57  1  0  0  0  0
 22 58  1  0  0  0  0
 23 59  1  0  0  0  0
 23 60  1  0  0  0  0
 23 61  1  0  0  0  0
 24 27  1  0  0  0  0
 24 62  1  0  0  0  0
 24 63  1  0  0  0  0
 25 64  1  0  0  0  0
 25 65  1  0  0  0  0
 25 66  1  0  0  0  0
 26 29  1  0  0  0  0
 26 67  1  0  0  0  0
 27 29  1  0  0  0  0
 27 34  1  0  0  0  0
 27 35  1  0  0  0  0
 28 30  1  0  0  0  0
 28 68  1  0  0  0  0
 28 69  1  0  0  0  0
 29 70  1  0  0  0  0
 29 71  1  0  0  0  0
 31 72  1  0  0  0  0
 31 73  1  0  0  0  0
 31 74  1  0  0  0  0
 32 75  1  0  0  0  0
 32 76  1  0  0  0  0
 32 77  1  0  0  0  0
 34 78  1  0  0  0  0
 34 79  1  0  0  0  0
 34 80  1  0  0  0  0
 35 81  1  0  0  0  0
 35 82  1  0  0  0  0
 35 83  1  0  0  0  0
 36 37  1  0  0  0  0
 37 38  1  0  0  0  0
 37 39  1  0  0  0  0
 37 85  1  0  0  0  0
 38 86  1  0  0  0  0
 38 87  1  0  0  0  0
 38 88  1  0  0  0  0
 39 89  1  0  0  0  0
 39 90  1  0  0  0  0
 39 91  1  0  0  0  0
M  END
> <PUBCHEM_COMPOUND_CID>
15143722

> <PUBCHEM_CONFORMER_RMSD>
1

> <PUBCHEM_CONFORMER_DIVERSEORDER>
3
2
1
4

> <PUBCHEM_MMFF94_PARTIAL_CHARGES>
20
1 -0.43
12 -0.28
13 0.14
15 0.06
17 0.14
18 0.06
2 -0.57
22 -0.29
26 0.28
28 0.06
3 -0.65
30 0.45
33 0.66
36 0.66
37 0.06
4 -0.57
5 -0.57
58 0.15
8 0.14
84 0.5

> <PUBCHEM_EFFECTIVE_ROTOR_COUNT>
6.4

> <PUBCHEM_PHARMACOPHORE_FEATURES>
13
1 2 acceptor
1 3 acceptor
1 4 acceptor
1 5 acceptor
3 18 31 32 hydrophobe
3 27 34 35 hydrophobe
3 3 4 33 anion
3 37 38 39 hydrophobe
6 13 15 24 26 27 29 rings
6 6 7 8 12 17 22 rings
6 6 7 9 10 11 14 rings
6 8 12 13 15 16 20 rings
6 9 10 18 19 28 30 rings

> <PUBCHEM_HEAVY_ATOM_COUNT>
39

> <PUBCHEM_ATOM_DEF_STEREO_COUNT>
8

> <PUBCHEM_ATOM_UDEF_STEREO_COUNT>
0

> <PUBCHEM_BOND_DEF_STEREO_COUNT>
0

> <PUBCHEM_BOND_UDEF_STEREO_COUNT>
0

> <PUBCHEM_ISOTOPIC_ATOM_COUNT>
0

> <PUBCHEM_COMPONENT_COUNT>
1

> <PUBCHEM_CACTVS_TAUTO_COUNT>
2

> <PUBCHEM_CONFORMER_ID>
00E7132A00000003

> <PUBCHEM_MMFF94_ENERGY>
162.0005

> <PUBCHEM_FEATURE_SELFOVERLAP>
66.112

> <PUBCHEM_SHAPE_FINGERPRINT>
10 15 12612753527573326548
10673678 19 17677065645811692780
11331351 85 15769774658562413952
117089 54 17982727778032155231
12107698 1 18113614586482965741
12166972 35 17775567563406692656
12236239 1 18201717353430007434
12422481 6 17703225118869096623
12788726 201 16988849345864865449
13533116 47 18334571309218383098
13782708 43 17458620069757260555
13811026 1 13334730233076539395
14068700 675 18060144224165811560
14118638 360 18334290933599968233
14294032 229 17344927221718778033
14856354 85 18131068277797542415
15183329 4 17989480814928681495
15328829 1 18273215308966051732
15361156 5 17822013155246639283
15439362 3 18049445035662179028
15461852 350 15213024872869446723
1577012 14 18343300336816373979
15849732 13 17918275359408426900
16090146 7 17417547894200325350
18365409 1 18265619973448398030
18608769 82 17530974621743736379
18681886 176 17632573877480831096
19319366 153 18113333094864631466
20105231 36 17917719027804839559
21033648 29 17168131360888285909
21267235 1 17847064406566766745
21781051 124 17845664783988835655
23516275 137 17915483656194140327
23522609 53 18268733639463476072
23559900 14 17968098663389372233
23569943 247 18055643811325273882
23576562 1 17024324117308128366
24771293 8 15140681366900494543
24771750 20 16735544002913080764
3004659 81 17917710214325524232
34797466 226 17167864144885960538
350125 39 18202559566837214241
4073 2 18263078980253117819
4093350 32 17385726868108944262
4098825 35 18041558035836760317
4258327 124 17386301994331638166
44880168 125 15697995219428179532
44880568 143 16443619104667816207
5104073 3 17703780453993533651

> <PUBCHEM_SHAPE_MULTIPOLES>
773.26
20.9
2.38
1.98
3.91
0.62
-0.13
2.25
-6.07
-1.75
0.29
-0.61
0.02
-1.95

> <PUBCHEM_SHAPE_SELFOVERLAP>
1642.326

> <PUBCHEM_SHAPE_VOLUME>
426.2

> <PUBCHEM_COORDINATE_TYPE>
2
5
10

$$$$
