10548420
  -OEChem-11202007153D

 53 55  0     1  0  0  0  0  0999 V2000
    0.8038    0.9675    1.0101 O   0  0  0  0  0  0  0  0  0  0  0  0
   -0.8930    1.8760   -0.2873 O   0  0  0  0  0  0  0  0  0  0  0  0
   -1.9765   -3.5325    1.1777 O   0  0  0  0  0  0  0  0  0  0  0  0
    2.0221   -0.4281   -0.4084 O   0  0  0  0  0  0  0  0  0  0  0  0
    3.1042    2.5768    1.3662 O   0  0  0  0  0  0  0  0  0  0  0  0
    5.5901    1.0383    1.0006 O   0  0  0  0  0  0  0  0  0  0  0  0
   -5.2312    0.0728   -0.3121 O   0  0  0  0  0  0  0  0  0  0  0  0
    5.5199   -0.4207   -1.4939 O   0  0  0  0  0  0  0  0  0  0  0  0
   -4.8329    1.9877   -1.5505 O   0  0  0  0  0  0  0  0  0  0  0  0
    1.7888   -2.0937   -2.5828 O   0  0  0  0  0  0  0  0  0  0  0  0
   -1.4110    0.0622    1.3231 C   0  0  1  0  0  0  0  0  0  0  0  0
   -2.7878   -0.1450    0.6637 C   0  0  2  0  0  0  0  0  0  0  0  0
   -1.1052   -1.3548    1.8426 C   0  0  1  0  0  0  0  0  0  0  0  0
   -1.5546   -2.2673    0.6952 C   0  0  2  0  0  0  0  0  0  0  0  0
   -2.7216   -1.5404    0.0200 C   0  0  0  0  0  0  0  0  0  0  0  0
   -0.4078    0.6675    0.3193 C   0  0  2  0  0  0  0  0  0  0  0  0
   -3.1098    0.9458   -0.2999 C   0  0  0  0  0  0  0  0  0  0  0  0
    0.3244   -1.6284    2.2863 C   0  0  0  0  0  0  0  0  0  0  0  0
    1.9319    0.8849    0.1396 C   0  0  2  0  0  0  0  0  0  0  0  0
   -2.2054    1.8550   -0.6756 C   0  0  0  0  0  0  0  0  0  0  0  0
    3.1819    1.2117    0.9566 C   0  0  1  0  0  0  0  0  0  0  0  0
    4.4539    0.9998    0.1357 C   0  0  2  0  0  0  0  0  0  0  0  0
    4.4398   -0.3583   -0.5661 C   0  0  1  0  0  0  0  0  0  0  0  0
    3.1200   -0.5708   -1.3114 C   0  0  1  0  0  0  0  0  0  0  0  0
   -4.4753    1.0870   -0.8058 C   0  0  0  0  0  0  0  0  0  0  0  0
    3.0347   -1.9660   -1.9222 C   0  0  0  0  0  0  0  0  0  0  0  0
   -6.6031    0.0728   -0.7207 C   0  0  0  0  0  0  0  0  0  0  0  0
   -1.5029    0.7506    2.1745 H   0  0  0  0  0  0  0  0  0  0  0  0
   -3.5321   -0.1635    1.4727 H   0  0  0  0  0  0  0  0  0  0  0  0
   -1.7465   -1.5394    2.7170 H   0  0  0  0  0  0  0  0  0  0  0  0
   -0.7488   -2.4342   -0.0284 H   0  0  0  0  0  0  0  0  0  0  0  0
   -3.6701   -2.0754    0.1438 H   0  0  0  0  0  0  0  0  0  0  0  0
   -2.5314   -1.4770   -1.0589 H   0  0  0  0  0  0  0  0  0  0  0  0
   -0.2404   -0.0524   -0.4915 H   0  0  0  0  0  0  0  0  0  0  0  0
    0.3783   -2.5987    2.7928 H   0  0  0  0  0  0  0  0  0  0  0  0
    1.0196   -1.6763    1.4476 H   0  0  0  0  0  0  0  0  0  0  0  0
    0.6692   -0.8683    2.9941 H   0  0  0  0  0  0  0  0  0  0  0  0
    1.7949    1.6177   -0.6672 H   0  0  0  0  0  0  0  0  0  0  0  0
   -2.4066    2.7050   -1.3139 H   0  0  0  0  0  0  0  0  0  0  0  0
    3.2098    0.6080    1.8716 H   0  0  0  0  0  0  0  0  0  0  0  0
   -2.6999   -3.3895    1.8114 H   0  0  0  0  0  0  0  0  0  0  0  0
    4.5944    1.8093   -0.5900 H   0  0  0  0  0  0  0  0  0  0  0  0
    4.5934   -1.1493    0.1794 H   0  0  0  0  0  0  0  0  0  0  0  0
    3.0045    0.1620   -2.1214 H   0  0  0  0  0  0  0  0  0  0  0  0
    3.0803   -2.7357   -1.1445 H   0  0  0  0  0  0  0  0  0  0  0  0
    3.8296   -2.1403   -2.6526 H   0  0  0  0  0  0  0  0  0  0  0  0
    3.0778    3.1302    0.5671 H   0  0  0  0  0  0  0  0  0  0  0  0
    5.4856    0.3398    1.6690 H   0  0  0  0  0  0  0  0  0  0  0  0
    5.6460   -1.3518   -1.7420 H   0  0  0  0  0  0  0  0  0  0  0  0
    1.7515   -2.9911   -2.9551 H   0  0  0  0  0  0  0  0  0  0  0  0
   -7.0951   -0.7873   -0.2588 H   0  0  0  0  0  0  0  0  0  0  0  0
   -6.6739   -0.0238   -1.8084 H   0  0  0  0  0  0  0  0  0  0  0  0
   -7.0993    0.9867   -0.3804 H   0  0  0  0  0  0  0  0  0  0  0  0
  1 16  1  0  0  0  0
  1 19  1  0  0  0  0
  2 16  1  0  0  0  0
  2 20  1  0  0  0  0
  3 14  1  0  0  0  0
  3 41  1  0  0  0  0
  4 19  1  0  0  0  0
  4 24  1  0  0  0  0
  5 21  1  0  0  0  0
  5 47  1  0  0  0  0
  6 22  1  0  0  0  0
  6 48  1  0  0  0  0
  7 25  1  0  0  0  0
  7 27  1  0  0  0  0
  8 23  1  0  0  0  0
  8 49  1  0  0  0  0
  9 25  2  0  0  0  0
 10 26  1  0  0  0  0
 10 50  1  0  0  0  0
 11 12  1  0  0  0  0
 11 13  1  0  0  0  0
 11 16  1  0  0  0  0
 11 28  1  0  0  0  0
 12 15  1  0  0  0  0
 12 17  1  0  0  0  0
 12 29  1  0  0  0  0
 13 14  1  0  0  0  0
 13 18  1  0  0  0  0
 13 30  1  0  0  0  0
 14 15  1  0  0  0  0
 14 31  1  0  0  0  0
 15 32  1  0  0  0  0
 15 33  1  0  0  0  0
 16 34  1  0  0  0  0
 17 20  2  0  0  0  0
 17 25  1  0  0  0  0
 18 35  1  0  0  0  0
 18 36  1  0  0  0  0
 18 37  1  0  0  0  0
 19 21  1  0  0  0  0
 19 38  1  0  0  0  0
 20 39  1  0  0  0  0
 21 22  1  0  0  0  0
 21 40  1  0  0  0  0
 22 23  1  0  0  0  0
 22 42  1  0  0  0  0
 23 24  1  0  0  0  0
 23 43  1  0  0  0  0
 24 26  1  0  0  0  0
 24 44  1  0  0  0  0
 26 45  1  0  0  0  0
 26 46  1  0  0  0  0
 27 51  1  0  0  0  0
 27 52  1  0  0  0  0
 27 53  1  0  0  0  0
M  END
> <PUBCHEM_COMPOUND_CID>
10548420

> <PUBCHEM_CONFORMER_RMSD>
0.8

> <PUBCHEM_CONFORMER_DIVERSEORDER>
15
49
129
47
134
41
139
63
72
61
52
17
135
25
154
157
53
150
159
96
138
12
62
36
93
136
39
68
119
133
156
81
123
26
37
111
29
50
121
113
33
45
162
83
142
108
116
114
160
167
67
161
58
19
141
117
64
32
75
22
132
59
8
105
168
153
148
144
4
69
104
44
106
54
71
103
27
55
130
35
124
107
163
137
127
92
11
66
77
100
90
126
86
112
5
99
147
13
146
101
118
51
28
84
152
21
140
73
46
87
70
165
18
125
82
1
97
145
34
102
6
143
79
57
38
85
88
31
56
20
60
149
115
74
89
24
10
166
98
23
78
91
2
120
158
30
76
48
110
95
80
65
94
9
42
128
43
151
109
131
164
14
40
155
7
16
122
3

> <PUBCHEM_MMFF94_PARTIAL_CHARGES>
29
1 -0.56
10 -0.68
12 0.14
14 0.28
16 0.56
17 -0.12
19 0.56
2 -0.36
20 -0.07
21 0.28
22 0.28
23 0.28
24 0.28
25 0.71
26 0.28
27 0.28
3 -0.68
39 0.15
4 -0.56
41 0.4
47 0.4
48 0.4
49 0.4
5 -0.68
50 0.4
6 -0.68
7 -0.43
8 -0.68
9 -0.57

> <PUBCHEM_EFFECTIVE_ROTOR_COUNT>
7.2

> <PUBCHEM_PHARMACOPHORE_FEATURES>
17
1 1 acceptor
1 10 acceptor
1 10 donor
1 2 acceptor
1 3 acceptor
1 3 donor
1 4 acceptor
1 5 acceptor
1 5 donor
1 6 acceptor
1 6 donor
1 8 acceptor
1 8 donor
1 9 acceptor
5 11 12 13 14 15 rings
6 2 11 12 16 17 20 rings
6 4 19 21 22 23 24 rings

> <PUBCHEM_HEAVY_ATOM_COUNT>
27

> <PUBCHEM_ATOM_DEF_STEREO_COUNT>
10

> <PUBCHEM_ATOM_UDEF_STEREO_COUNT>
0

> <PUBCHEM_BOND_DEF_STEREO_COUNT>
0

> <PUBCHEM_BOND_UDEF_STEREO_COUNT>
0

> <PUBCHEM_ISOTOPIC_ATOM_COUNT>
0

> <PUBCHEM_COMPONENT_COUNT>
1

> <PUBCHEM_CACTVS_TAUTO_COUNT>
1

> <PUBCHEM_CONFORMER_ID>
00A0F4C40000000F

> <PUBCHEM_MMFF94_ENERGY>
80.5611

> <PUBCHEM_FEATURE_SELFOVERLAP>
86.531

> <PUBCHEM_SHAPE_FINGERPRINT>
10366900 7 18272663320265120132
11578080 2 16842740919122162507
12236239 1 15791731918548402641
13402501 40 18341896298642446310
13533116 47 17060619988288936916
13544592 145 18411420613468624697
13617811 41 17822009801135690269
13911987 19 17774166858992725104
140371 6 18341056297413643576
14251757 17 18341898442031729823
151778 21 11026956515862881518
15375358 24 18413392033833281660
15635459 17 18200883885420513574
16752209 62 17676491704166464403
173720 79 17240195526172877123
17980427 23 17898557941947294732
18222031 100 11383816170110520545
200 152 16845574209872916057
20511986 3 16298678290648923036
20567600 247 16988549239626129127
20600515 1 17968648445105653668
20645477 70 17989490701785187116
21133410 52 8203546973853380495
21285901 2 18411137991683236781
21344244 181 18343024385189569071
21781051 124 17458924681833473827
22182313 1 18335998527251809491
23557571 272 18264208178441239849
23559900 14 18410014368757770544
238 59 17917713483154573166
3472631 163 17676492786767547132
3759504 43 17095244735256484515
4015057 19 17988645207086711632
4098825 35 17774724169695972801
495365 180 17774427399871125680
5283173 99 18410011009602825677
57527295 17 18052273799305405934
59755656 215 18410571781838509550
6669772 16 18410002213404516299
9709674 26 18339924942860372192

> <PUBCHEM_SHAPE_MULTIPOLES>
496.95
11.67
2.63
1.9
2.15
1.27
-0.31
-3.84
-4.49
0.84
0.37
-1.32
0.94
2.8

> <PUBCHEM_SHAPE_SELFOVERLAP>
1042.84

> <PUBCHEM_SHAPE_VOLUME>
276.8

> <PUBCHEM_COORDINATE_TYPE>
2
5
10

$$$$
