91753438
  -OEChem-11202006493D

 42 43  0     1  0  0  0  0  0999 V2000
   -1.8702    2.1436    0.0639 O   0  0  0  0  0  0  0  0  0  0  0  0
   -1.5008    0.8541   -0.4472 C   0  0  1  0  0  0  0  0  0  0  0  0
   -0.6195    1.6112    0.5234 C   0  0  1  0  0  0  0  0  0  0  0  0
   -2.3865   -0.3123   -0.0356 C   0  0  0  0  0  0  0  0  0  0  0  0
    0.6001    2.3355    0.0389 C   0  0  0  0  0  0  0  0  0  0  0  0
    1.7370    1.3611   -0.3326 C   0  0  2  0  0  0  0  0  0  0  0  0
   -1.6223   -1.6546   -0.2713 C   0  0  0  0  0  0  0  0  0  0  0  0
   -2.8885   -0.2244    1.4202 C   0  0  0  0  0  0  0  0  0  0  0  0
   -3.6329   -0.3089   -0.9501 C   0  0  0  0  0  0  0  0  0  0  0  0
    2.3320    0.6601    0.9105 C   0  0  0  0  0  0  0  0  0  0  0  0
   -0.2933   -1.7433    0.4361 C   0  0  0  0  0  0  0  0  0  0  0  0
    3.0393   -0.6697    0.5935 C   0  0  0  0  0  0  0  0  0  0  0  0
    2.8300    2.1159   -1.0984 C   0  0  0  0  0  0  0  0  0  0  0  0
    2.1539   -1.9143    0.7885 C   0  0  0  0  0  0  0  0  0  0  0  0
    0.9248   -1.9670   -0.0977 C   0  0  0  0  0  0  0  0  0  0  0  0
    1.1970   -2.2869   -1.5422 C   0  0  0  0  0  0  0  0  0  0  0  0
   -1.1945    0.8050   -1.4860 H   0  0  0  0  0  0  0  0  0  0  0  0
   -0.5557    1.3125    1.5587 H   0  0  0  0  0  0  0  0  0  0  0  0
    0.9371    3.0348    0.8135 H   0  0  0  0  0  0  0  0  0  0  0  0
    0.3389    2.9410   -0.8385 H   0  0  0  0  0  0  0  0  0  0  0  0
    1.3246    0.6115   -1.0142 H   0  0  0  0  0  0  0  0  0  0  0  0
   -1.4957   -1.7934   -1.3493 H   0  0  0  0  0  0  0  0  0  0  0  0
   -2.2434   -2.4926    0.0710 H   0  0  0  0  0  0  0  0  0  0  0  0
   -3.3510   -0.3755   -2.0073 H   0  0  0  0  0  0  0  0  0  0  0  0
   -3.5386   -1.0733    1.6619 H   0  0  0  0  0  0  0  0  0  0  0  0
   -4.2949   -1.1526   -0.7254 H   0  0  0  0  0  0  0  0  0  0  0  0
   -2.0723   -0.2248    2.1479 H   0  0  0  0  0  0  0  0  0  0  0  0
   -3.4693    0.6901    1.5865 H   0  0  0  0  0  0  0  0  0  0  0  0
   -4.2093    0.6154   -0.8272 H   0  0  0  0  0  0  0  0  0  0  0  0
    1.5679    0.4823    1.6744 H   0  0  0  0  0  0  0  0  0  0  0  0
    3.0599    1.3376    1.3759 H   0  0  0  0  0  0  0  0  0  0  0  0
   -0.3423   -1.5685    1.5095 H   0  0  0  0  0  0  0  0  0  0  0  0
    3.8878   -0.7713    1.2825 H   0  0  0  0  0  0  0  0  0  0  0  0
    3.4671   -0.6608   -0.4147 H   0  0  0  0  0  0  0  0  0  0  0  0
    3.2640    2.9142   -0.4866 H   0  0  0  0  0  0  0  0  0  0  0  0
    2.4214    2.5725   -2.0063 H   0  0  0  0  0  0  0  0  0  0  0  0
    3.6387    1.4448   -1.4036 H   0  0  0  0  0  0  0  0  0  0  0  0
    1.8658   -1.9716    1.8467 H   0  0  0  0  0  0  0  0  0  0  0  0
    2.7588   -2.8119    0.6064 H   0  0  0  0  0  0  0  0  0  0  0  0
    1.7829   -1.4916   -2.0122 H   0  0  0  0  0  0  0  0  0  0  0  0
    0.2935   -2.4267   -2.1382 H   0  0  0  0  0  0  0  0  0  0  0  0
    1.7684   -3.2188   -1.6157 H   0  0  0  0  0  0  0  0  0  0  0  0
  1  2  1  0  0  0  0
  1  3  1  0  0  0  0
  2  3  1  0  0  0  0
  2  4  1  0  0  0  0
  2 17  1  0  0  0  0
  3  5  1  0  0  0  0
  3 18  1  0  0  0  0
  4  7  1  0  0  0  0
  4  8  1  0  0  0  0
  4  9  1  0  0  0  0
  5  6  1  0  0  0  0
  5 19  1  0  0  0  0
  5 20  1  0  0  0  0
  6 10  1  0  0  0  0
  6 13  1  0  0  0  0
  6 21  1  0  0  0  0
  7 11  1  0  0  0  0
  7 22  1  0  0  0  0
  7 23  1  0  0  0  0
  8 25  1  0  0  0  0
  8 27  1  0  0  0  0
  8 28  1  0  0  0  0
  9 24  1  0  0  0  0
  9 26  1  0  0  0  0
  9 29  1  0  0  0  0
 10 12  1  0  0  0  0
 10 30  1  0  0  0  0
 10 31  1  0  0  0  0
 11 15  2  0  0  0  0
 11 32  1  0  0  0  0
 12 14  1  0  0  0  0
 12 33  1  0  0  0  0
 12 34  1  0  0  0  0
 13 35  1  0  0  0  0
 13 36  1  0  0  0  0
 13 37  1  0  0  0  0
 14 15  1  0  0  0  0
 14 38  1  0  0  0  0
 14 39  1  0  0  0  0
 15 16  1  0  0  0  0
 16 40  1  0  0  0  0
 16 41  1  0  0  0  0
 16 42  1  0  0  0  0
M  END
> <PUBCHEM_COMPOUND_CID>
91753438

> <PUBCHEM_CONFORMER_RMSD>
0.6

> <PUBCHEM_CONFORMER_DIVERSEORDER>
1
8
5
6
9
12
7
10
13
2
11
3
4

> <PUBCHEM_MMFF94_PARTIAL_CHARGES>
13
1 -0.3
11 -0.29
14 0.14
15 -0.28
16 0.14
17 0.1
18 0.1
2 -0.05
3 -0.05
32 0.15
4 0.09
5 0.09
7 0.14

> <PUBCHEM_EFFECTIVE_ROTOR_COUNT>
1.6

> <PUBCHEM_PHARMACOPHORE_FEATURES>
2
1 1 acceptor
3 4 8 9 hydrophobe

> <PUBCHEM_HEAVY_ATOM_COUNT>
16

> <PUBCHEM_ATOM_DEF_STEREO_COUNT>
1

> <PUBCHEM_ATOM_UDEF_STEREO_COUNT>
2

> <PUBCHEM_BOND_DEF_STEREO_COUNT>
1

> <PUBCHEM_BOND_UDEF_STEREO_COUNT>
0

> <PUBCHEM_ISOTOPIC_ATOM_COUNT>
0

> <PUBCHEM_COMPONENT_COUNT>
1

> <PUBCHEM_CACTVS_TAUTO_COUNT>
1

> <PUBCHEM_CONFORMER_ID>
05780BDE00000001

> <PUBCHEM_MMFF94_ENERGY>
33.9215

> <PUBCHEM_FEATURE_SELFOVERLAP>
10.148

> <PUBCHEM_SHAPE_FINGERPRINT>
10967382 1 18337948003747407457
11321824 6 17839450434304482150
12011746 2 18337381648243818166
12054548 360 17552651248899440934
12696612 119 18337393729749392770
13140716 1 18194964281882312571
13897977 150 18265328585375021837
1420 336 17762334717247975747
14251711 518 18121777218946702547
14251717 144 18339911701966958551
14251745 187 17839461090482535082
14817 1 17037844979583587446
15775835 57 18192435383727004780
15881359 60 17830125308716971404
16945 1 18336262435242086265
17990270 104 18266176136877893026
19930374 2 17251996369962808976
20645476 183 17462283856890353668
20645477 70 18409161134612032605
20905425 154 18412545448176105342
21501502 16 18410573942634684621
22721475 48 18338235951234545488
22802520 49 17265542344079033135
2334 1 17762617699800340305
23388829 49 18341317929650950141
23402539 116 18052796092666224398
23419403 2 17400299751946740576
23463225 33 18408598154219313120
238 59 17976501165787969077
2748010 2 18051692135715057286
2803657 2 17695308819421506790
2897 32 18191583266637098164
44154327 71 18337114569749290741
537710 114 18340762741114882727
66348 1 17834112326683820322
81228 2 17545887031488943377

> <PUBCHEM_SHAPE_MULTIPOLES>
323.4
4.94
3.03
1.19
1.45
0.08
0.09
0.39
0.04
-1.47
0.5
-0.05
-0.26
-0.45

> <PUBCHEM_SHAPE_SELFOVERLAP>
637.583

> <PUBCHEM_SHAPE_VOLUME>
192.9

> <PUBCHEM_COORDINATE_TYPE>
2
5
10

$$$$
