519782
  -OEChem-11202007083D

 41 41  0     1  0  0  0  0  0999 V2000
    2.4593   -0.6594    0.2666 O   0  0  0  0  0  0  0  0  0  0  0  0
   -1.5501   -0.5746    1.4509 O   0  0  0  0  0  0  0  0  0  0  0  0
    1.1097   -0.3397    0.6459 C   0  0  1  0  0  0  0  0  0  0  0  0
    3.2432    0.5517    0.2566 C   0  0  1  0  0  0  0  0  0  0  0  0
    0.9508    1.1539    0.4285 C   0  0  0  0  0  0  0  0  0  0  0  0
    2.3290    1.6575    0.7913 C   0  0  0  0  0  0  0  0  0  0  0  0
    0.1377   -1.1755   -0.1639 C   0  0  1  0  0  0  0  0  0  0  0  0
    4.4655    0.3487    1.1482 C   0  0  0  0  0  0  0  0  0  0  0  0
    3.6681    0.7999   -1.1620 C   0  0  0  0  0  0  0  0  0  0  0  0
    0.4558   -2.6622   -0.0327 C   0  0  0  0  0  0  0  0  0  0  0  0
   -1.2918   -0.8798    0.2863 C   0  0  0  0  0  0  0  0  0  0  0  0
   -2.3681   -1.0063   -0.7853 C   0  0  0  0  0  0  0  0  0  0  0  0
    3.4055   -0.0293   -2.1779 C   0  0  0  0  0  0  0  0  0  0  0  0
   -3.7127   -0.6046   -0.2601 C   0  0  0  0  0  0  0  0  0  0  0  0
   -4.2409    0.6339   -0.2365 C   0  0  0  0  0  0  0  0  0  0  0  0
   -5.6001    0.9766    0.3052 C   0  0  0  0  0  0  0  0  0  0  0  0
   -3.4610    1.8093   -0.7610 C   0  0  0  0  0  0  0  0  0  0  0  0
    1.0263   -0.5669    1.7170 H   0  0  0  0  0  0  0  0  0  0  0  0
    0.1621    1.5986    1.0418 H   0  0  0  0  0  0  0  0  0  0  0  0
    0.7373    1.3850   -0.6221 H   0  0  0  0  0  0  0  0  0  0  0  0
    2.5414    2.6490    0.3785 H   0  0  0  0  0  0  0  0  0  0  0  0
    2.4041    1.7320    1.8837 H   0  0  0  0  0  0  0  0  0  0  0  0
    0.2286   -0.9046   -1.2234 H   0  0  0  0  0  0  0  0  0  0  0  0
    5.0883   -0.4762    0.7817 H   0  0  0  0  0  0  0  0  0  0  0  0
    5.0834    1.2515    1.2017 H   0  0  0  0  0  0  0  0  0  0  0  0
    4.1641    0.0735    2.1656 H   0  0  0  0  0  0  0  0  0  0  0  0
    4.2271    1.7097   -1.3676 H   0  0  0  0  0  0  0  0  0  0  0  0
    1.4438   -2.9013   -0.4386 H   0  0  0  0  0  0  0  0  0  0  0  0
   -0.2791   -3.2659   -0.5759 H   0  0  0  0  0  0  0  0  0  0  0  0
    0.4268   -2.9819    1.0149 H   0  0  0  0  0  0  0  0  0  0  0  0
   -2.4128   -2.0533   -1.1046 H   0  0  0  0  0  0  0  0  0  0  0  0
   -2.0825   -0.4154   -1.6605 H   0  0  0  0  0  0  0  0  0  0  0  0
    3.7494    0.2217   -3.1765 H   0  0  0  0  0  0  0  0  0  0  0  0
    2.8626   -0.9601   -2.0697 H   0  0  0  0  0  0  0  0  0  0  0  0
   -4.3113   -1.4195    0.1439 H   0  0  0  0  0  0  0  0  0  0  0  0
   -5.5130    1.6767    1.1421 H   0  0  0  0  0  0  0  0  0  0  0  0
   -6.2158    1.4364   -0.4744 H   0  0  0  0  0  0  0  0  0  0  0  0
   -6.1265    0.0870    0.6663 H   0  0  0  0  0  0  0  0  0  0  0  0
   -2.4131    1.5969   -0.9836 H   0  0  0  0  0  0  0  0  0  0  0  0
   -3.4598    2.6152   -0.0184 H   0  0  0  0  0  0  0  0  0  0  0  0
   -3.9294    2.1903   -1.6745 H   0  0  0  0  0  0  0  0  0  0  0  0
  1  3  1  0  0  0  0
  1  4  1  0  0  0  0
  2 11  2  0  0  0  0
  3  5  1  0  0  0  0
  3  7  1  0  0  0  0
  3 18  1  0  0  0  0
  4  6  1  0  0  0  0
  4  8  1  0  0  0  0
  4  9  1  0  0  0  0
  5  6  1  0  0  0  0
  5 19  1  0  0  0  0
  5 20  1  0  0  0  0
  6 21  1  0  0  0  0
  6 22  1  0  0  0  0
  7 10  1  0  0  0  0
  7 11  1  0  0  0  0
  7 23  1  0  0  0  0
  8 24  1  0  0  0  0
  8 25  1  0  0  0  0
  8 26  1  0  0  0  0
  9 13  2  0  0  0  0
  9 27  1  0  0  0  0
 10 28  1  0  0  0  0
 10 29  1  0  0  0  0
 10 30  1  0  0  0  0
 11 12  1  0  0  0  0
 12 14  1  0  0  0  0
 12 31  1  0  0  0  0
 12 32  1  0  0  0  0
 13 33  1  0  0  0  0
 13 34  1  0  0  0  0
 14 15  2  0  0  0  0
 14 35  1  0  0  0  0
 15 16  1  0  0  0  0
 15 17  1  0  0  0  0
 16 36  1  0  0  0  0
 16 37  1  0  0  0  0
 16 38  1  0  0  0  0
 17 39  1  0  0  0  0
 17 40  1  0  0  0  0
 17 41  1  0  0  0  0
M  END
> <PUBCHEM_COMPOUND_CID>
519782

> <PUBCHEM_CONFORMER_RMSD>
1

> <PUBCHEM_CONFORMER_DIVERSEORDER>
6
208
118
459
372
535
236
142
452
127
132
505
513
482
26
454
288
397
65
24
481
426
87
166
58
522
43
529
439
129
121
268
12
384
396
248
309
355
15
374
114
271
219
32
171
365
348
314
403
527
53
67
369
183
177
106
4
16
228
370
28
375
5
90
207
46
359
213
324
89
155
367
44
413
290
480
399
187
517
147
17
460
346
204
496
304
285
92
237
14
247
152
233
295
146
362
105
515
54
189
267
491
179
122
60
82
216
344
305
98
235
30
35
255
239
262
193
143
48
340
378
102
22
400
41
168
50
437
245
335
57
475
21
199
10
55
342
63
445
7
56
51
191
277
486
469
160
200
126
136
37
533
316
224
282
13
75
96
11
77
379
203
1
71
240
83
18
23
182
74
88
72
299
2
131
241
9
358
283
170
34
148
19

> <PUBCHEM_MMFF94_PARTIAL_CHARGES>
17
1 -0.56
11 0.45
12 0.2
13 -0.3
14 -0.29
15 -0.28
16 0.14
17 0.14
2 -0.57
27 0.15
3 0.28
33 0.15
34 0.15
35 0.15
4 0.42
7 0.06
9 -0.29

> <PUBCHEM_EFFECTIVE_ROTOR_COUNT>
6

> <PUBCHEM_PHARMACOPHORE_FEATURES>
6
1 1 acceptor
1 10 hydrophobe
1 13 hydrophobe
1 2 acceptor
3 15 16 17 hydrophobe
5 1 3 4 5 6 rings

> <PUBCHEM_HEAVY_ATOM_COUNT>
17

> <PUBCHEM_ATOM_DEF_STEREO_COUNT>
0

> <PUBCHEM_ATOM_UDEF_STEREO_COUNT>
3

> <PUBCHEM_BOND_DEF_STEREO_COUNT>
0

> <PUBCHEM_BOND_UDEF_STEREO_COUNT>
0

> <PUBCHEM_ISOTOPIC_ATOM_COUNT>
0

> <PUBCHEM_COMPONENT_COUNT>
1

> <PUBCHEM_CACTVS_TAUTO_COUNT>
5

> <PUBCHEM_CONFORMER_ID>
0007EE6600000006

> <PUBCHEM_MMFF94_ENERGY>
30.6809

> <PUBCHEM_FEATURE_SELFOVERLAP>
30.447

> <PUBCHEM_SHAPE_FINGERPRINT>
10498660 4 18335976519776087701
10646746 165 18411694400474987432
10670039 82 18114753615872535916
11046707 91 10663821896993408629
11552529 35 16371583625199970561
11796584 16 13830137174181838605
11806522 49 9007054686468960331
12596602 18 15285367227887812353
12730499 353 18411429388767474467
12892183 10 13479124696921247191
12916748 109 18343867723297140105
14123260 362 18041006141529981517
14251751 93 17631723980620264695
15183329 4 11527954422777434529
15375358 24 17846213419005643248
16945 1 18270130131484781450
18186145 218 18059862795663016347
18222031 100 8358257042498844379
19784866 9 18187635869648713746
19862831 5 17275387603512191755
200 152 15123514713441282480
20233049 118 18335697252322746648
20645477 70 16486985002713064974
21069387 34 15553904242436047996
212847 35 18260828193829979504
21501925 9 8574711295468555119
21503847 285 15864067646410671284
21524375 3 18261103080485269723
21652331 79 18334852797596933957
22485316 2 12607405498678548131
231179 274 18342174449388355199
23402539 116 18059843009175782552
23402655 69 17989205970833044600
23557571 272 17917142927051310775
23559900 14 16988841731104165914
25 1 18411415103262986771
3060560 45 18131349696011243790
474 4 17894631444284744967
4990 188 17846218877513626175
59682541 52 17274543097194304077
633830 44 18201717383763940613
6430166 295 18409439302099856816
76465 3 12967137068576343372

> <PUBCHEM_SHAPE_MULTIPOLES>
338.11
9.84
1.89
1.32
7.17
0.6
-0.49
-4.46
-0.91
0.45
0.01
-1.36
-0.1
0.33

> <PUBCHEM_SHAPE_SELFOVERLAP>
671.799

> <PUBCHEM_SHAPE_VOLUME>
203

> <PUBCHEM_COORDINATE_TYPE>
2
5
10

$$$$
