137381
  -OEChem-11202006543D

 94 98  0     1  0  0  0  0  0999 V2000
    4.6384    1.0349    0.2193 O   0  0  0  0  0  0  0  0  0  0  0  0
   -8.4372   -0.6350   -0.4051 O   0  0  0  0  0  0  0  0  0  0  0  0
    3.1222    1.4988   -1.7096 O   0  0  0  0  0  0  0  0  0  0  0  0
    1.7511   -0.2414   -2.2461 O   0  0  0  0  0  0  0  0  0  0  0  0
    6.3202    0.3373    1.6359 O   0  0  0  0  0  0  0  0  0  0  0  0
   -2.1148    0.7751   -0.0858 C   0  0  2  0  0  0  0  0  0  0  0  0
   -2.9522   -0.5565   -0.0860 C   0  0  1  0  0  0  0  0  0  0  0  0
   -0.6680    0.4779    0.6221 C   0  0  1  0  0  0  0  0  0  0  0  0
   -4.5156   -0.4659   -0.3813 C   0  0  2  0  0  0  0  0  0  0  0  0
   -5.1278    0.7102    0.4565 C   0  0  1  0  0  0  0  0  0  0  0  0
   -2.8992    1.8756    0.6774 C   0  0  0  0  0  0  0  0  0  0  0  0
   -0.0280   -0.8282    0.0825 C   0  0  0  0  0  0  0  0  0  0  0  0
    1.4567   -1.0622    0.4304 C   0  0  2  0  0  0  0  0  0  0  0  0
   -4.3540    2.0228    0.2380 C   0  0  0  0  0  0  0  0  0  0  0  0
    2.3362    0.1687    0.0817 C   0  0  1  0  0  0  0  0  0  0  0  0
    0.3008    1.6803    0.3869 C   0  0  0  0  0  0  0  0  0  0  0  0
   -2.2206   -1.6361   -0.9058 C   0  0  0  0  0  0  0  0  0  0  0  0
   -6.6846    0.8770    0.3301 C   0  0  0  0  0  0  0  0  0  0  0  0
   -5.1734   -1.8084    0.0969 C   0  0  0  0  0  0  0  0  0  0  0  0
    1.7618    1.4260    0.7706 C   0  0  0  0  0  0  0  0  0  0  0  0
   -1.8899    1.2824   -1.5418 C   0  0  0  0  0  0  0  0  0  0  0  0
   -0.7550   -1.7293   -0.6069 C   0  0  0  0  0  0  0  0  0  0  0  0
   -0.8132    0.3038    2.1651 C   0  0  0  0  0  0  0  0  0  0  0  0
    2.0838   -2.3831   -0.0941 C   0  0  0  0  0  0  0  0  0  0  0  0
   -4.8497   -0.3340   -1.8879 C   0  0  0  0  0  0  0  0  0  0  0  0
    3.7924   -0.0646    0.5577 C   0  0  1  0  0  0  0  0  0  0  0  0
    3.5566   -2.6063    0.3280 C   0  0  0  0  0  0  0  0  0  0  0  0
   -6.5857   -1.6895    0.6619 C   0  0  0  0  0  0  0  0  0  0  0  0
    4.4006   -1.3580    0.0091 C   0  0  0  0  0  0  0  0  0  0  0  0
   -7.3298   -0.4977    0.1158 C   0  0  0  0  0  0  0  0  0  0  0  0
   -7.1329    1.8317   -0.7932 C   0  0  0  0  0  0  0  0  0  0  0  0
   -7.2553    1.4255    1.6560 C   0  0  0  0  0  0  0  0  0  0  0  0
    2.3496    0.4249   -1.4145 C   0  0  0  0  0  0  0  0  0  0  0  0
    3.6438   -2.9509    1.8285 C   0  0  0  0  0  0  0  0  0  0  0  0
    4.1236   -3.8043   -0.4592 C   0  0  0  0  0  0  0  0  0  0  0  0
    5.9353    0.9325    0.6376 C   0  0  0  0  0  0  0  0  0  0  0  0
    6.8404    1.6996   -0.3114 C   0  0  2  0  0  0  0  0  0  0  0  0
    8.2449    1.0814   -0.3704 C   0  0  0  0  0  0  0  0  0  0  0  0
    6.9023    3.1522    0.1524 C   0  0  0  0  0  0  0  0  0  0  0  0
    8.2265   -0.3672   -0.8414 C   0  0  0  0  0  0  0  0  0  0  0  0
   -2.9172   -0.9069    0.9545 H   0  0  0  0  0  0  0  0  0  0  0  0
   -4.9423    0.4330    1.5075 H   0  0  0  0  0  0  0  0  0  0  0  0
   -2.3966    2.8447    0.5739 H   0  0  0  0  0  0  0  0  0  0  0  0
   -2.9263    1.6592    1.7495 H   0  0  0  0  0  0  0  0  0  0  0  0
    1.4741   -1.1669    1.5228 H   0  0  0  0  0  0  0  0  0  0  0  0
   -4.8028    2.8228    0.8384 H   0  0  0  0  0  0  0  0  0  0  0  0
   -4.4034    2.3534   -0.8037 H   0  0  0  0  0  0  0  0  0  0  0  0
   -0.0545    2.5591    0.9394 H   0  0  0  0  0  0  0  0  0  0  0  0
    0.3132    1.9765   -0.6652 H   0  0  0  0  0  0  0  0  0  0  0  0
   -2.3163   -1.4626   -1.9817 H   0  0  0  0  0  0  0  0  0  0  0  0
   -2.6683   -2.6156   -0.7020 H   0  0  0  0  0  0  0  0  0  0  0  0
   -4.5655   -2.2839    0.8773 H   0  0  0  0  0  0  0  0  0  0  0  0
   -5.1809   -2.5304   -0.7308 H   0  0  0  0  0  0  0  0  0  0  0  0
    2.3430    2.3227    0.5209 H   0  0  0  0  0  0  0  0  0  0  0  0
    1.8386    1.3210    1.8600 H   0  0  0  0  0  0  0  0  0  0  0  0
   -1.1526    0.6835   -2.0849 H   0  0  0  0  0  0  0  0  0  0  0  0
   -2.7964    1.2802   -2.1401 H   0  0  0  0  0  0  0  0  0  0  0  0
   -1.5435    2.3219   -1.5548 H   0  0  0  0  0  0  0  0  0  0  0  0
   -0.2926   -2.6339   -0.9889 H   0  0  0  0  0  0  0  0  0  0  0  0
   -1.1055    1.2394    2.6526 H   0  0  0  0  0  0  0  0  0  0  0  0
   -1.5445   -0.4627    2.4351 H   0  0  0  0  0  0  0  0  0  0  0  0
    0.1242    0.0119    2.6481 H   0  0  0  0  0  0  0  0  0  0  0  0
    1.4900   -3.2331    0.2696 H   0  0  0  0  0  0  0  0  0  0  0  0
    2.0216   -2.4202   -1.1883 H   0  0  0  0  0  0  0  0  0  0  0  0
   -4.2823   -1.0351   -2.5045 H   0  0  0  0  0  0  0  0  0  0  0  0
   -5.9003   -0.5670   -2.0911 H   0  0  0  0  0  0  0  0  0  0  0  0
   -4.6814    0.6695   -2.2778 H   0  0  0  0  0  0  0  0  0  0  0  0
    3.7734   -0.1188    1.6545 H   0  0  0  0  0  0  0  0  0  0  0  0
   -6.5535   -1.5889    1.7530 H   0  0  0  0  0  0  0  0  0  0  0  0
   -7.1516   -2.6024    0.4456 H   0  0  0  0  0  0  0  0  0  0  0  0
    4.5252   -1.2568   -1.0782 H   0  0  0  0  0  0  0  0  0  0  0  0
    5.4142   -1.5252    0.3870 H   0  0  0  0  0  0  0  0  0  0  0  0
   -8.2267    1.9025   -0.8380 H   0  0  0  0  0  0  0  0  0  0  0  0
   -6.7610    2.8495   -0.6363 H   0  0  0  0  0  0  0  0  0  0  0  0
   -6.8053    1.5000   -1.7807 H   0  0  0  0  0  0  0  0  0  0  0  0
   -6.8653    2.4236    1.8806 H   0  0  0  0  0  0  0  0  0  0  0  0
   -8.3489    1.4963    1.6169 H   0  0  0  0  0  0  0  0  0  0  0  0
   -7.0111    0.7710    2.5006 H   0  0  0  0  0  0  0  0  0  0  0  0
    3.0729   -3.8585    2.0558 H   0  0  0  0  0  0  0  0  0  0  0  0
    3.2546   -2.1541    2.4680 H   0  0  0  0  0  0  0  0  0  0  0  0
    4.6822   -3.1316    2.1290 H   0  0  0  0  0  0  0  0  0  0  0  0
    5.1661   -4.0015   -0.1844 H   0  0  0  0  0  0  0  0  0  0  0  0
    4.0949   -3.6201   -1.5391 H   0  0  0  0  0  0  0  0  0  0  0  0
    3.5475   -4.7155   -0.2626 H   0  0  0  0  0  0  0  0  0  0  0  0
    3.1453    1.6798   -2.6732 H   0  0  0  0  0  0  0  0  0  0  0  0
    6.4038    1.6548   -1.3174 H   0  0  0  0  0  0  0  0  0  0  0  0
    8.8673    1.6666   -1.0582 H   0  0  0  0  0  0  0  0  0  0  0  0
    8.7276    1.1275    0.6136 H   0  0  0  0  0  0  0  0  0  0  0  0
    7.3201    3.2304    1.1623 H   0  0  0  0  0  0  0  0  0  0  0  0
    7.5232    3.7509   -0.5219 H   0  0  0  0  0  0  0  0  0  0  0  0
    5.9020    3.5983    0.1755 H   0  0  0  0  0  0  0  0  0  0  0  0
    7.7484   -1.0289   -0.1147 H   0  0  0  0  0  0  0  0  0  0  0  0
    9.2516   -0.7251   -0.9829 H   0  0  0  0  0  0  0  0  0  0  0  0
    7.7014   -0.4639   -1.7970 H   0  0  0  0  0  0  0  0  0  0  0  0
  1 26  1  0  0  0  0
  1 36  1  0  0  0  0
  2 30  2  0  0  0  0
  3 33  1  0  0  0  0
  3 85  1  0  0  0  0
  4 33  2  0  0  0  0
  5 36  2  0  0  0  0
  6  7  1  0  0  0  0
  6  8  1  0  0  0  0
  6 11  1  0  0  0  0
  6 21  1  0  0  0  0
  7  9  1  0  0  0  0
  7 17  1  0  0  0  0
  7 41  1  0  0  0  0
  8 12  1  0  0  0  0
  8 16  1  0  0  0  0
  8 23  1  0  0  0  0
  9 10  1  0  0  0  0
  9 19  1  0  0  0  0
  9 25  1  0  0  0  0
 10 14  1  0  0  0  0
 10 18  1  0  0  0  0
 10 42  1  0  0  0  0
 11 14  1  0  0  0  0
 11 43  1  0  0  0  0
 11 44  1  0  0  0  0
 12 13  1  0  0  0  0
 12 22  2  0  0  0  0
 13 15  1  0  0  0  0
 13 24  1  0  0  0  0
 13 45  1  0  0  0  0
 14 46  1  0  0  0  0
 14 47  1  0  0  0  0
 15 20  1  0  0  0  0
 15 26  1  0  0  0  0
 15 33  1  0  0  0  0
 16 20  1  0  0  0  0
 16 48  1  0  0  0  0
 16 49  1  0  0  0  0
 17 22  1  0  0  0  0
 17 50  1  0  0  0  0
 17 51  1  0  0  0  0
 18 30  1  0  0  0  0
 18 31  1  0  0  0  0
 18 32  1  0  0  0  0
 19 28  1  0  0  0  0
 19 52  1  0  0  0  0
 19 53  1  0  0  0  0
 20 54  1  0  0  0  0
 20 55  1  0  0  0  0
 21 56  1  0  0  0  0
 21 57  1  0  0  0  0
 21 58  1  0  0  0  0
 22 59  1  0  0  0  0
 23 60  1  0  0  0  0
 23 61  1  0  0  0  0
 23 62  1  0  0  0  0
 24 27  1  0  0  0  0
 24 63  1  0  0  0  0
 24 64  1  0  0  0  0
 25 65  1  0  0  0  0
 25 66  1  0  0  0  0
 25 67  1  0  0  0  0
 26 29  1  0  0  0  0
 26 68  1  0  0  0  0
 27 29  1  0  0  0  0
 27 34  1  0  0  0  0
 27 35  1  0  0  0  0
 28 30  1  0  0  0  0
 28 69  1  0  0  0  0
 28 70  1  0  0  0  0
 29 71  1  0  0  0  0
 29 72  1  0  0  0  0
 31 73  1  0  0  0  0
 31 74  1  0  0  0  0
 31 75  1  0  0  0  0
 32 76  1  0  0  0  0
 32 77  1  0  0  0  0
 32 78  1  0  0  0  0
 34 79  1  0  0  0  0
 34 80  1  0  0  0  0
 34 81  1  0  0  0  0
 35 82  1  0  0  0  0
 35 83  1  0  0  0  0
 35 84  1  0  0  0  0
 36 37  1  0  0  0  0
 37 38  1  0  0  0  0
 37 39  1  0  0  0  0
 37 86  1  0  0  0  0
 38 40  1  0  0  0  0
 38 87  1  0  0  0  0
 38 88  1  0  0  0  0
 39 89  1  0  0  0  0
 39 90  1  0  0  0  0
 39 91  1  0  0  0  0
 40 92  1  0  0  0  0
 40 93  1  0  0  0  0
 40 94  1  0  0  0  0
M  END
> <PUBCHEM_COMPOUND_CID>
137381

> <PUBCHEM_CONFORMER_RMSD>
1

> <PUBCHEM_CONFORMER_DIVERSEORDER>
2
5
11
10
6
8
7
1
9
3
4

> <PUBCHEM_MMFF94_PARTIAL_CHARGES>
20
1 -0.43
12 -0.28
13 0.14
15 0.06
17 0.14
18 0.06
2 -0.57
22 -0.29
26 0.28
28 0.06
3 -0.65
30 0.45
33 0.66
36 0.66
37 0.06
4 -0.57
5 -0.57
59 0.15
8 0.14
85 0.5

> <PUBCHEM_EFFECTIVE_ROTOR_COUNT>
7.4

> <PUBCHEM_PHARMACOPHORE_FEATURES>
14
1 2 acceptor
1 3 acceptor
1 39 hydrophobe
1 4 acceptor
1 40 hydrophobe
1 5 acceptor
3 18 31 32 hydrophobe
3 27 34 35 hydrophobe
3 3 4 33 anion
6 13 15 24 26 27 29 rings
6 6 7 8 12 17 22 rings
6 6 7 9 10 11 14 rings
6 8 12 13 15 16 20 rings
6 9 10 18 19 28 30 rings

> <PUBCHEM_HEAVY_ATOM_COUNT>
40

> <PUBCHEM_ATOM_DEF_STEREO_COUNT>
8

> <PUBCHEM_ATOM_UDEF_STEREO_COUNT>
1

> <PUBCHEM_BOND_DEF_STEREO_COUNT>
0

> <PUBCHEM_BOND_UDEF_STEREO_COUNT>
0

> <PUBCHEM_ISOTOPIC_ATOM_COUNT>
0

> <PUBCHEM_COMPONENT_COUNT>
1

> <PUBCHEM_CACTVS_TAUTO_COUNT>
2

> <PUBCHEM_CONFORMER_ID>
000218A500000002

> <PUBCHEM_MMFF94_ENERGY>
157.6673

> <PUBCHEM_FEATURE_SELFOVERLAP>
71.16

> <PUBCHEM_SHAPE_FINGERPRINT>
10 15 18040152915832168920
10050765 1 18194120716225694960
10076449 9 13110969729688089216
10462674 296 17262996356386804199
11135926 11 18411971473542821326
12539765 74 18272379715395970876
12788726 201 17203615847900325721
1361 4 18412543206752380931
13782708 43 17823134515199152459
13811026 1 18410576175653662371
13835254 42 18263082115711749156
14118638 360 18410291376372076209
14394314 77 18341619192138963233
14849402 71 18339080500830252529
14856354 85 16558746832950941837
15183329 4 17418087707660236685
15276724 80 18339921511556581813
15347591 1 18263076609156532121
1577012 14 18059575750962964569
15840311 113 18336267925091876132
15849732 13 18259704518958900108
18335252 98 18409172129902565611
18365409 1 18264774440448365150
18608769 82 18338517546628946827
19319366 153 18408597059093057506
19611394 137 18044104663880940243
21130935 74 18272089353947944579
21792961 116 17489312962447359360
22311459 1 18411698816070892816
23516275 137 17916046597578700135
23522609 53 17846233132869207129
23559900 14 8214150646247598853
23569943 247 9581872760296927684
23576562 1 16987417876558380169
24771293 8 18040155119203340885
3004659 81 18337111159698771267
3411729 13 18409727357816187202
350125 39 18412542124156352113
4073 2 18260552251019475811
4098825 35 18335983090600945912
4112364 45 15792023333108098206
4149490 64 18260831496955710762
4169191 19 18341892974902371857
4325135 7 18413108376654689948
4625314 4 18408604760174484852
5104073 3 18340482253690760435
5265222 85 17916864745786963108
9962374 69 8934707869359985920

> <PUBCHEM_SHAPE_MULTIPOLES>
793.83
22.89
2.98
1.46
1.55
1.41
-0.06
-6.86
0.33
-3.46
0.27
0.08
-0.03
-0.74

> <PUBCHEM_SHAPE_SELFOVERLAP>
1682.043

> <PUBCHEM_SHAPE_VOLUME>
437.8

> <PUBCHEM_COORDINATE_TYPE>
2
5
10

$$$$
