12300148
  -OEChem-11202007023D

 42 42  0     1  0  0  0  0  0999 V2000
   -1.5813   -1.2464   -1.2626 O   0  0  0  0  0  0  0  0  0  0  0  0
   -1.1723   -0.5107   -0.1044 C   0  0  2  0  0  0  0  0  0  0  0  0
    0.2678   -0.9165    0.2136 C   0  0  2  0  0  0  0  0  0  0  0  0
   -2.1107   -0.8453    1.0624 C   0  0  0  0  0  0  0  0  0  0  0  0
   -1.2462    0.9885   -0.4437 C   0  0  0  0  0  0  0  0  0  0  0  0
    1.2193   -0.6816   -0.9767 C   0  0  0  0  0  0  0  0  0  0  0  0
   -3.5622   -0.4514    0.7627 C   0  0  0  0  0  0  0  0  0  0  0  0
    0.3073   -2.3919    0.6221 C   0  0  0  0  0  0  0  0  0  0  0  0
   -3.6987    0.8978    0.1047 C   0  0  0  0  0  0  0  0  0  0  0  0
   -2.6437    1.5424   -0.4222 C   0  0  0  0  0  0  0  0  0  0  0  0
    2.6752   -1.1128   -0.7503 C   0  0  0  0  0  0  0  0  0  0  0  0
   -5.0815    1.4782    0.0680 C   0  0  0  0  0  0  0  0  0  0  0  0
    3.3421   -0.3460    0.3576 C   0  0  0  0  0  0  0  0  0  0  0  0
    4.1137    0.7537    0.2667 C   0  0  0  0  0  0  0  0  0  0  0  0
    4.6882    1.3823    1.5091 C   0  0  0  0  0  0  0  0  0  0  0  0
    4.4830    1.4597   -1.0068 C   0  0  0  0  0  0  0  0  0  0  0  0
    0.6210   -0.3261    1.0691 H   0  0  0  0  0  0  0  0  0  0  0  0
   -1.7740   -0.3370    1.9752 H   0  0  0  0  0  0  0  0  0  0  0  0
   -2.1454   -1.9190    1.2712 H   0  0  0  0  0  0  0  0  0  0  0  0
   -0.8531    1.1664   -1.4521 H   0  0  0  0  0  0  0  0  0  0  0  0
   -0.6464    1.5776    0.2607 H   0  0  0  0  0  0  0  0  0  0  0  0
    1.2236    0.3810   -1.2467 H   0  0  0  0  0  0  0  0  0  0  0  0
    0.8531   -1.2222   -1.8587 H   0  0  0  0  0  0  0  0  0  0  0  0
   -4.1202   -0.4599    1.7070 H   0  0  0  0  0  0  0  0  0  0  0  0
   -4.0264   -1.2055    0.1148 H   0  0  0  0  0  0  0  0  0  0  0  0
   -0.0823   -3.0496   -0.1618 H   0  0  0  0  0  0  0  0  0  0  0  0
    1.3226   -2.7236    0.8556 H   0  0  0  0  0  0  0  0  0  0  0  0
   -0.2463   -2.5829    1.5455 H   0  0  0  0  0  0  0  0  0  0  0  0
   -2.7802    2.5229   -0.8715 H   0  0  0  0  0  0  0  0  0  0  0  0
    3.2233   -0.9676   -1.6884 H   0  0  0  0  0  0  0  0  0  0  0  0
    2.7600   -2.1862   -0.5550 H   0  0  0  0  0  0  0  0  0  0  0  0
   -2.4418   -0.9131   -1.5649 H   0  0  0  0  0  0  0  0  0  0  0  0
   -5.7608    0.8049   -0.4648 H   0  0  0  0  0  0  0  0  0  0  0  0
   -5.1093    2.4487   -0.4384 H   0  0  0  0  0  0  0  0  0  0  0  0
   -5.4605    1.6218    1.0851 H   0  0  0  0  0  0  0  0  0  0  0  0
    3.1515   -0.7516    1.3507 H   0  0  0  0  0  0  0  0  0  0  0  0
    4.4078    0.8420    2.4195 H   0  0  0  0  0  0  0  0  0  0  0  0
    5.7818    1.3959    1.4554 H   0  0  0  0  0  0  0  0  0  0  0  0
    4.3319    2.4125    1.6121 H   0  0  0  0  0  0  0  0  0  0  0  0
    5.5637    1.4005   -1.1716 H   0  0  0  0  0  0  0  0  0  0  0  0
    3.9871    1.0453   -1.8878 H   0  0  0  0  0  0  0  0  0  0  0  0
    4.2000    2.5161   -0.9475 H   0  0  0  0  0  0  0  0  0  0  0  0
  1  2  1  0  0  0  0
  1 32  1  0  0  0  0
  2  3  1  0  0  0  0
  2  4  1  0  0  0  0
  2  5  1  0  0  0  0
  3  6  1  0  0  0  0
  3  8  1  0  0  0  0
  3 17  1  0  0  0  0
  4  7  1  0  0  0  0
  4 18  1  0  0  0  0
  4 19  1  0  0  0  0
  5 10  1  0  0  0  0
  5 20  1  0  0  0  0
  5 21  1  0  0  0  0
  6 11  1  0  0  0  0
  6 22  1  0  0  0  0
  6 23  1  0  0  0  0
  7  9  1  0  0  0  0
  7 24  1  0  0  0  0
  7 25  1  0  0  0  0
  8 26  1  0  0  0  0
  8 27  1  0  0  0  0
  8 28  1  0  0  0  0
  9 10  2  0  0  0  0
  9 12  1  0  0  0  0
 10 29  1  0  0  0  0
 11 13  1  0  0  0  0
 11 30  1  0  0  0  0
 11 31  1  0  0  0  0
 12 33  1  0  0  0  0
 12 34  1  0  0  0  0
 12 35  1  0  0  0  0
 13 14  2  0  0  0  0
 13 36  1  0  0  0  0
 14 15  1  0  0  0  0
 14 16  1  0  0  0  0
 15 37  1  0  0  0  0
 15 38  1  0  0  0  0
 15 39  1  0  0  0  0
 16 40  1  0  0  0  0
 16 41  1  0  0  0  0
 16 42  1  0  0  0  0
M  END
> <PUBCHEM_COMPOUND_CID>
12300148

> <PUBCHEM_CONFORMER_RMSD>
0.6

> <PUBCHEM_CONFORMER_DIVERSEORDER>
1
22
19
26
23
15
25
10
7
12
11
17
2
20
8
21
29
14
9
27
18
6
28
24
16
5
3
13
4

> <PUBCHEM_MMFF94_PARTIAL_CHARGES>
15
1 -0.68
10 -0.29
11 0.14
12 0.14
13 -0.29
14 -0.28
15 0.14
16 0.14
2 0.28
29 0.15
32 0.4
36 0.15
5 0.14
7 0.14
9 -0.28

> <PUBCHEM_EFFECTIVE_ROTOR_COUNT>
4.8

> <PUBCHEM_PHARMACOPHORE_FEATURES>
6
1 1 acceptor
1 1 donor
1 8 hydrophobe
3 14 15 16 hydrophobe
4 3 6 11 13 hydrophobe
6 2 4 5 7 9 10 rings

> <PUBCHEM_HEAVY_ATOM_COUNT>
16

> <PUBCHEM_ATOM_DEF_STEREO_COUNT>
2

> <PUBCHEM_ATOM_UDEF_STEREO_COUNT>
0

> <PUBCHEM_BOND_DEF_STEREO_COUNT>
0

> <PUBCHEM_BOND_UDEF_STEREO_COUNT>
0

> <PUBCHEM_ISOTOPIC_ATOM_COUNT>
0

> <PUBCHEM_COMPONENT_COUNT>
1

> <PUBCHEM_CACTVS_TAUTO_COUNT>
1

> <PUBCHEM_CONFORMER_ID>
00BBAF7400000001

> <PUBCHEM_MMFF94_ENERGY>
26.1402

> <PUBCHEM_FEATURE_SELFOVERLAP>
30.472

> <PUBCHEM_SHAPE_FINGERPRINT>
10014705 185 18131626815822329769
10498660 4 17703790366461430840
11128504 68 15051730906436299216
11132069 177 17967822617562475471
11543360 7 16774074068351369071
122479 349 18410013264681916234
12251169 10 17022910038012286982
12363563 72 10665220428776695872
12596602 18 16515691077987406880
12616999 72 14908178616779441260
12788726 201 16737518773057329474
12824470 246 14419571171665927859
12969540 114 18270387309773561157
13214271 11 18408042935560478431
13533116 47 17750511772005050491
13690532 89 9583512114494031445
13955234 65 18123474882354612955
1420 369 11097854086146094016
14341114 328 17530965817335202744
15342168 16 18259991495762200420
17834072 32 18338239370466869668
17870717 6 9871477546671360985
18186145 218 18200607916491824758
193927 3 10953737764346500040
19784866 170 18187091628403859365
19786989 88 17561086865010215606
19862831 5 14620802600138963502
20281475 54 9006793007355096094
20388580 30 11167931476922286370
204376 136 18408044004775278435
20621476 91 17749970967482743241
20645477 56 18343301474671555494
20671657 53 10087634901241647978
20871999 31 17060041692876420471
212916 134 18113894953083131955
21618674 25 18261111820991448635
22079108 93 18409450297643473955
22854114 59 18333736788419128937
22926399 37 17489869332215412993
22959321 60 18409730685829792066
23227448 37 18129656542467096460
23402539 116 18336820974327606094
23557571 272 18269571570428975390
23559900 14 18188782630159309422
328317 168 18410852149051346093
4028521 119 18060703896504661168
465052 167 11602831167879949384
474 4 18408045108676812636
4921388 177 15626220268576818405
5104073 3 18188216377728926979
548570 60 18411699872411093648
58807428 26 17168143412318332955
6333272 397 18333455326459273460
633830 44 18409730629900674646
7364860 26 18048316647903330027
76465 3 12540992831971790937
7808743 9 18118692243418624284
90316 7 16226046665256912477

> <PUBCHEM_SHAPE_MULTIPOLES>
323.4
9.99
1.99
1.16
2.92
0.31
-0.09
-6.73
-1.71
0.07
-0.07
0.79
-0.02
0.57

> <PUBCHEM_SHAPE_SELFOVERLAP>
635.307

> <PUBCHEM_SHAPE_VOLUME>
193.5

> <PUBCHEM_COORDINATE_TYPE>
2
5
10

$$$$
