179396
  -OEChem-11202007133D

 52 54  0     1  0  0  0  0  0999 V2000
   -0.8305    0.3645   -1.0062 O   0  0  0  0  0  0  0  0  0  0  0  0
    0.8365    1.7683   -0.1949 O   0  0  0  0  0  0  0  0  0  0  0  0
    3.7557   -0.6557   -1.3808 O   0  0  0  0  0  0  0  0  0  0  0  0
   -2.4342   -0.6226    0.3714 O   0  0  0  0  0  0  0  0  0  0  0  0
   -2.5726    2.5543   -1.4279 O   0  0  0  0  0  0  0  0  0  0  0  0
   -5.4010    1.7808   -1.1414 O   0  0  0  0  0  0  0  0  0  0  0  0
   -5.8189    0.3766    1.3505 O   0  0  0  0  0  0  0  0  0  0  0  0
    0.2144   -2.6842   -2.7784 O   0  0  0  0  0  0  0  0  0  0  0  0
    5.2049    0.2660    0.6620 O   0  0  0  0  0  0  0  0  0  0  0  0
   -2.7444   -2.2729    2.5477 O   0  0  0  0  0  0  0  0  0  0  0  0
    4.6562    2.4568    1.1705 O   0  0  0  0  0  0  0  0  0  0  0  0
    1.4005   -0.5290   -0.9361 C   0  0  2  0  0  0  0  0  0  0  0  0
    2.8193   -0.3956   -0.3246 C   0  0  1  0  0  0  0  0  0  0  0  0
    0.3854    0.4090   -0.2585 C   0  0  2  0  0  0  0  0  0  0  0  0
    2.9219   -1.5162    0.7273 C   0  0  0  0  0  0  0  0  0  0  0  0
    1.0937   -1.9864   -0.6744 C   0  0  0  0  0  0  0  0  0  0  0  0
    3.0686    0.9752    0.2207 C   0  0  0  0  0  0  0  0  0  0  0  0
    1.9247   -2.5135    0.2335 C   0  0  0  0  0  0  0  0  0  0  0  0
   -1.9615    0.6084   -0.1705 C   0  0  2  0  0  0  0  0  0  0  0  0
   -3.0439    1.2690   -1.0241 C   0  0  1  0  0  0  0  0  0  0  0  0
   -4.3480    1.4291   -0.2426 C   0  0  2  0  0  0  0  0  0  0  0  0
   -4.7380    0.1264    0.4561 C   0  0  1  0  0  0  0  0  0  0  0  0
   -3.5542   -0.4447    1.2403 C   0  0  1  0  0  0  0  0  0  0  0  0
   -0.0051   -2.7026   -1.3759 C   0  0  0  0  0  0  0  0  0  0  0  0
    2.1287    1.9261    0.2248 C   0  0  0  0  0  0  0  0  0  0  0  0
    4.3864    1.3454    0.7427 C   0  0  0  0  0  0  0  0  0  0  0  0
   -3.8837   -1.8036    1.8501 C   0  0  0  0  0  0  0  0  0  0  0  0
    6.5389    0.4710    1.1387 C   0  0  0  0  0  0  0  0  0  0  0  0
    1.4264   -0.3427   -2.0179 H   0  0  0  0  0  0  0  0  0  0  0  0
    0.2051    0.0640    0.7713 H   0  0  0  0  0  0  0  0  0  0  0  0
    2.6434   -1.1890    1.7351 H   0  0  0  0  0  0  0  0  0  0  0  0
    3.9163   -1.9736    0.7510 H   0  0  0  0  0  0  0  0  0  0  0  0
    1.8817   -3.5341    0.5868 H   0  0  0  0  0  0  0  0  0  0  0  0
   -1.6800    1.2887    0.6463 H   0  0  0  0  0  0  0  0  0  0  0  0
   -3.2185    0.6929   -1.9407 H   0  0  0  0  0  0  0  0  0  0  0  0
   -4.2696    2.2508    0.4800 H   0  0  0  0  0  0  0  0  0  0  0  0
   -5.0869   -0.5902   -0.2989 H   0  0  0  0  0  0  0  0  0  0  0  0
   -3.2614    0.2307    2.0558 H   0  0  0  0  0  0  0  0  0  0  0  0
   -0.9732   -2.2430   -1.1665 H   0  0  0  0  0  0  0  0  0  0  0  0
   -0.0575   -3.7492   -1.0569 H   0  0  0  0  0  0  0  0  0  0  0  0
    2.2806    2.9510    0.5366 H   0  0  0  0  0  0  0  0  0  0  0  0
    3.6797    0.0592   -2.0361 H   0  0  0  0  0  0  0  0  0  0  0  0
   -4.1216   -2.5342    1.0697 H   0  0  0  0  0  0  0  0  0  0  0  0
   -4.7168   -1.7421    2.5558 H   0  0  0  0  0  0  0  0  0  0  0  0
   -2.4131    3.0825   -0.6272 H   0  0  0  0  0  0  0  0  0  0  0  0
   -6.2167    1.8596   -0.6177 H   0  0  0  0  0  0  0  0  0  0  0  0
   -6.2105   -0.4796    1.5912 H   0  0  0  0  0  0  0  0  0  0  0  0
   -0.5271   -3.1596   -3.1905 H   0  0  0  0  0  0  0  0  0  0  0  0
   -2.9732   -3.1414    2.9203 H   0  0  0  0  0  0  0  0  0  0  0  0
    7.0896   -0.4659    1.0200 H   0  0  0  0  0  0  0  0  0  0  0  0
    6.5248    0.7386    2.1995 H   0  0  0  0  0  0  0  0  0  0  0  0
    7.0359    1.2480    0.5501 H   0  0  0  0  0  0  0  0  0  0  0  0
  1 14  1  0  0  0  0
  1 19  1  0  0  0  0
  2 14  1  0  0  0  0
  2 25  1  0  0  0  0
  3 13  1  0  0  0  0
  3 42  1  0  0  0  0
  4 19  1  0  0  0  0
  4 23  1  0  0  0  0
  5 20  1  0  0  0  0
  5 45  1  0  0  0  0
  6 21  1  0  0  0  0
  6 46  1  0  0  0  0
  7 22  1  0  0  0  0
  7 47  1  0  0  0  0
  8 24  1  0  0  0  0
  8 48  1  0  0  0  0
  9 26  1  0  0  0  0
  9 28  1  0  0  0  0
 10 27  1  0  0  0  0
 10 49  1  0  0  0  0
 11 26  2  0  0  0  0
 12 13  1  0  0  0  0
 12 14  1  0  0  0  0
 12 16  1  0  0  0  0
 12 29  1  0  0  0  0
 13 15  1  0  0  0  0
 13 17  1  0  0  0  0
 14 30  1  0  0  0  0
 15 18  1  0  0  0  0
 15 31  1  0  0  0  0
 15 32  1  0  0  0  0
 16 18  2  0  0  0  0
 16 24  1  0  0  0  0
 17 25  2  0  0  0  0
 17 26  1  0  0  0  0
 18 33  1  0  0  0  0
 19 20  1  0  0  0  0
 19 34  1  0  0  0  0
 20 21  1  0  0  0  0
 20 35  1  0  0  0  0
 21 22  1  0  0  0  0
 21 36  1  0  0  0  0
 22 23  1  0  0  0  0
 22 37  1  0  0  0  0
 23 27  1  0  0  0  0
 23 38  1  0  0  0  0
 24 39  1  0  0  0  0
 24 40  1  0  0  0  0
 25 41  1  0  0  0  0
 27 43  1  0  0  0  0
 27 44  1  0  0  0  0
 28 50  1  0  0  0  0
 28 51  1  0  0  0  0
 28 52  1  0  0  0  0
M  END
> <PUBCHEM_COMPOUND_CID>
179396

> <PUBCHEM_CONFORMER_RMSD>
1

> <PUBCHEM_CONFORMER_DIVERSEORDER>
1
46
17
38
36
30
27
6
45
51
25
56
44
24
49
47
16
23
37
48
4
33
18
28
11
57
10
14
21
31
39
7
43
52
9
29
2
22
34
12
15
13
55
42
41
5
26
20
19
53
50
59
8
35
3
32
40
54
58

> <PUBCHEM_MMFF94_PARTIAL_CHARGES>
36
1 -0.56
10 -0.68
11 -0.57
12 0.14
13 0.42
14 0.56
15 0.14
16 -0.28
17 -0.12
18 -0.29
19 0.56
2 -0.36
20 0.28
21 0.28
22 0.28
23 0.28
24 0.42
25 -0.07
26 0.71
27 0.28
28 0.28
3 -0.68
33 0.15
4 -0.56
41 0.15
42 0.4
45 0.4
46 0.4
47 0.4
48 0.4
49 0.4
5 -0.68
6 -0.68
7 -0.68
8 -0.68
9 -0.43

> <PUBCHEM_EFFECTIVE_ROTOR_COUNT>
7.8

> <PUBCHEM_PHARMACOPHORE_FEATURES>
19
1 1 acceptor
1 10 acceptor
1 10 donor
1 11 acceptor
1 2 acceptor
1 3 acceptor
1 3 donor
1 4 acceptor
1 5 acceptor
1 5 donor
1 6 acceptor
1 6 donor
1 7 acceptor
1 7 donor
1 8 acceptor
1 8 donor
5 12 13 15 16 18 rings
6 2 12 13 14 17 25 rings
6 4 19 20 21 22 23 rings

> <PUBCHEM_HEAVY_ATOM_COUNT>
28

> <PUBCHEM_ATOM_DEF_STEREO_COUNT>
8

> <PUBCHEM_ATOM_UDEF_STEREO_COUNT>
0

> <PUBCHEM_BOND_DEF_STEREO_COUNT>
0

> <PUBCHEM_BOND_UDEF_STEREO_COUNT>
0

> <PUBCHEM_ISOTOPIC_ATOM_COUNT>
0

> <PUBCHEM_COMPONENT_COUNT>
1

> <PUBCHEM_CACTVS_TAUTO_COUNT>
1

> <PUBCHEM_CONFORMER_ID>
0002BCC400000001

> <PUBCHEM_MMFF94_ENERGY>
71.4269

> <PUBCHEM_FEATURE_SELFOVERLAP>
96.667

> <PUBCHEM_SHAPE_FINGERPRINT>
10 15 18335974372688150208
10319926 262 17967811613750898370
10366900 7 18409736119137663821
11045977 3 18261110734232964322
11488393 25 17842300098209554238
11578080 2 15866575537981368478
11828532 37 17024888193577067083
12236239 1 16343701014978096197
12422481 6 18410283740637811218
12596602 18 16773800307710954291
12633257 1 17022903466706919597
13140716 1 18125995203865983032
13402501 40 18335421249155385689
13583140 156 17604969521094514300
140371 6 18261961751917511493
14081887 123 18113343024422084371
14178342 30 17748828496853671251
14955137 171 18334297591696368148
15375358 24 18334859390202492927
17138139 8 16699164384770713735
17913733 40 18202281407416961842
1813 80 13984661412915045242
20645477 70 18201433615116360541
21133410 32 16744028719107034519
22122407 14 17560814242473091545
22182313 1 18341057333000876094
23557571 272 18042141898471015375
23559900 14 17969513610295344567
23569943 247 16915675674917087198
335352 9 18272079501630058092
469060 322 18121488322525188231
495365 180 18200859691695759097
5104073 3 18190183391172808161
633830 44 17203061702534869541
9709674 26 18334300829795617791

> <PUBCHEM_SHAPE_MULTIPOLES>
511.66
12.12
2.9
1.77
0.21
0.96
0.04
-5.59
-5.39
0.12
0.57
-1.14
1.14
2.63

> <PUBCHEM_SHAPE_SELFOVERLAP>
1083.777

> <PUBCHEM_SHAPE_VOLUME>
281.9

> <PUBCHEM_COORDINATE_TYPE>
2
5
10

$$$$
