6438155
  -OEChem-11202006553D

 94 98  0     1  0  0  0  0  0999 V2000
   -7.8780    0.5791    1.0153 O   0  0  0  0  0  0  0  0  0  0  0  0
    4.6384   -0.7638   -0.3364 O   0  0  0  0  0  0  0  0  0  0  0  0
    3.2059   -1.4158    1.5314 O   0  0  0  0  0  0  0  0  0  0  0  0
    1.7761    0.2202    2.2209 O   0  0  0  0  0  0  0  0  0  0  0  0
    6.3013    0.0456   -1.7078 O   0  0  0  0  0  0  0  0  0  0  0  0
   -2.0989   -0.7928    0.0487 C   0  0  2  0  0  0  0  0  0  0  0  0
   -2.9870    0.5048    0.1455 C   0  0  1  0  0  0  0  0  0  0  0  0
   -4.5464    0.3337    0.4410 C   0  0  2  0  0  0  0  0  0  0  0  0
   -0.6758   -0.3902   -0.6564 C   0  0  1  0  0  0  0  0  0  0  0  0
   -5.1047   -0.7896   -0.4975 C   0  0  1  0  0  0  0  0  0  0  0  0
   -2.8466   -1.8793   -0.7699 C   0  0  0  0  0  0  0  0  0  0  0  0
   -0.0793    0.9012   -0.0368 C   0  0  0  0  0  0  0  0  0  0  0  0
   -4.2999   -2.0958   -0.3494 C   0  0  0  0  0  0  0  0  0  0  0  0
   -6.6722   -0.9890   -0.4803 C   0  0  0  0  0  0  0  0  0  0  0  0
    1.3890    1.2189   -0.3883 C   0  0  2  0  0  0  0  0  0  0  0  0
   -2.2855    1.5483    1.0375 C   0  0  0  0  0  0  0  0  0  0  0  0
    0.3438   -1.5648   -0.5152 C   0  0  0  0  0  0  0  0  0  0  0  0
    2.3233    0.0041   -0.1421 C   0  0  1  0  0  0  0  0  0  0  0  0
   -5.2619    1.6877    0.0914 C   0  0  0  0  0  0  0  0  0  0  0  0
    1.7857   -1.2262   -0.9055 C   0  0  0  0  0  0  0  0  0  0  0  0
   -1.8283   -1.3839    1.4656 C   0  0  0  0  0  0  0  0  0  0  0  0
   -0.8296    1.7219    0.7247 C   0  0  0  0  0  0  0  0  0  0  0  0
   -7.4174    0.3754   -0.3181 C   0  0  2  0  0  0  0  0  0  0  0  0
   -4.8387    0.0407    1.9327 C   0  0  0  0  0  0  0  0  0  0  0  0
   -6.5483    1.5587   -0.7322 C   0  0  0  0  0  0  0  0  0  0  0  0
   -0.8515   -0.1190   -2.1822 C   0  0  0  0  0  0  0  0  0  0  0  0
    1.9731    2.5218    0.2228 C   0  0  0  0  0  0  0  0  0  0  0  0
    3.7606    0.3260   -0.6216 C   0  0  1  0  0  0  0  0  0  0  0  0
    3.4279    2.8333   -0.2040 C   0  0  0  0  0  0  0  0  0  0  0  0
    4.3245    1.6003    0.0122 C   0  0  0  0  0  0  0  0  0  0  0  0
   -7.0848   -1.5618   -1.8683 C   0  0  0  0  0  0  0  0  0  0  0  0
   -7.1497   -2.0164    0.5676 C   0  0  0  0  0  0  0  0  0  0  0  0
    2.3823   -0.3580    1.3312 C   0  0  0  0  0  0  0  0  0  0  0  0
    3.4760    3.2860   -1.6773 C   0  0  0  0  0  0  0  0  0  0  0  0
    3.9620    3.9941    0.6586 C   0  0  0  0  0  0  0  0  0  0  0  0
    5.9296   -0.6072   -0.7430 C   0  0  0  0  0  0  0  0  0  0  0  0
    6.8371   -1.3648    0.1713 C   0  0  0  0  0  0  0  0  0  0  0  0
    6.4419   -1.5041    1.6115 C   0  0  0  0  0  0  0  0  0  0  0  0
    7.9675   -1.8391   -0.3840 C   0  0  0  0  0  0  0  0  0  0  0  0
    9.0383   -2.6401    0.2863 C   0  0  0  0  0  0  0  0  0  0  0  0
   -2.9760    0.9318   -0.8666 H   0  0  0  0  0  0  0  0  0  0  0  0
   -4.8772   -0.4351   -1.5167 H   0  0  0  0  0  0  0  0  0  0  0  0
   -2.8760   -1.6128   -1.8304 H   0  0  0  0  0  0  0  0  0  0  0  0
   -2.3136   -2.8360   -0.7131 H   0  0  0  0  0  0  0  0  0  0  0  0
   -4.3490   -2.4931    0.6684 H   0  0  0  0  0  0  0  0  0  0  0  0
   -4.7144   -2.8737   -0.9997 H   0  0  0  0  0  0  0  0  0  0  0  0
    1.3838    1.4024   -1.4704 H   0  0  0  0  0  0  0  0  0  0  0  0
   -2.3555    1.2903    2.0981 H   0  0  0  0  0  0  0  0  0  0  0  0
   -2.7727    2.5226    0.9189 H   0  0  0  0  0  0  0  0  0  0  0  0
    0.3875   -1.9274    0.5150 H   0  0  0  0  0  0  0  0  0  0  0  0
    0.0132   -2.4197   -1.1181 H   0  0  0  0  0  0  0  0  0  0  0  0
   -5.4830    2.2433    1.0125 H   0  0  0  0  0  0  0  0  0  0  0  0
   -4.5974    2.3474   -0.4805 H   0  0  0  0  0  0  0  0  0  0  0  0
    1.8371   -1.0444   -1.9862 H   0  0  0  0  0  0  0  0  0  0  0  0
    2.4058   -2.1140   -0.7284 H   0  0  0  0  0  0  0  0  0  0  0  0
   -1.1075   -0.7912    2.0369 H   0  0  0  0  0  0  0  0  0  0  0  0
   -2.7233   -1.4613    2.0757 H   0  0  0  0  0  0  0  0  0  0  0  0
   -1.4374   -2.4058    1.4056 H   0  0  0  0  0  0  0  0  0  0  0  0
   -0.3970    2.6157    1.1627 H   0  0  0  0  0  0  0  0  0  0  0  0
   -8.3182    0.3907   -0.9445 H   0  0  0  0  0  0  0  0  0  0  0  0
   -4.6467   -0.9938    2.2154 H   0  0  0  0  0  0  0  0  0  0  0  0
   -5.8825    0.2247    2.1910 H   0  0  0  0  0  0  0  0  0  0  0  0
   -4.2687    0.6861    2.6048 H   0  0  0  0  0  0  0  0  0  0  0  0
   -6.2923    1.4724   -1.7955 H   0  0  0  0  0  0  0  0  0  0  0  0
   -7.1162    2.4909   -0.6227 H   0  0  0  0  0  0  0  0  0  0  0  0
   -1.6218    0.6279   -2.3915 H   0  0  0  0  0  0  0  0  0  0  0  0
   -1.1063   -1.0322   -2.7296 H   0  0  0  0  0  0  0  0  0  0  0  0
    0.0639    0.2498   -2.6548 H   0  0  0  0  0  0  0  0  0  0  0  0
    1.9285    2.4772    1.3175 H   0  0  0  0  0  0  0  0  0  0  0  0
    1.3407    3.3717   -0.0693 H   0  0  0  0  0  0  0  0  0  0  0  0
    3.7347    0.4435   -1.7130 H   0  0  0  0  0  0  0  0  0  0  0  0
    4.4675    1.4285    1.0882 H   0  0  0  0  0  0  0  0  0  0  0  0
    5.3278    1.8304   -0.3636 H   0  0  0  0  0  0  0  0  0  0  0  0
   -8.1691   -1.7161   -1.9232 H   0  0  0  0  0  0  0  0  0  0  0  0
   -6.6136   -2.5288   -2.0699 H   0  0  0  0  0  0  0  0  0  0  0  0
   -6.8093   -0.8799   -2.6806 H   0  0  0  0  0  0  0  0  0  0  0  0
   -6.7385   -3.0130    0.3737 H   0  0  0  0  0  0  0  0  0  0  0  0
   -8.2410   -2.1218    0.5429 H   0  0  0  0  0  0  0  0  0  0  0  0
   -6.8686   -1.7416    1.5864 H   0  0  0  0  0  0  0  0  0  0  0  0
    2.8641    4.1821   -1.8322 H   0  0  0  0  0  0  0  0  0  0  0  0
    3.1102    2.5198   -2.3663 H   0  0  0  0  0  0  0  0  0  0  0  0
    4.5010    3.5316   -1.9782 H   0  0  0  0  0  0  0  0  0  0  0  0
    3.3478    4.8933    0.5358 H   0  0  0  0  0  0  0  0  0  0  0  0
    4.9910    4.2516    0.3834 H   0  0  0  0  0  0  0  0  0  0  0  0
    3.9589    3.7329    1.7228 H   0  0  0  0  0  0  0  0  0  0  0  0
   -8.6491    0.0042    1.1556 H   0  0  0  0  0  0  0  0  0  0  0  0
    3.2592   -1.6641    2.4788 H   0  0  0  0  0  0  0  0  0  0  0  0
    5.7564   -2.3472    1.7381 H   0  0  0  0  0  0  0  0  0  0  0  0
    5.9513   -0.5931    1.9704 H   0  0  0  0  0  0  0  0  0  0  0  0
    7.3040   -1.6630    2.2653 H   0  0  0  0  0  0  0  0  0  0  0  0
    8.1556   -1.6614   -1.4419 H   0  0  0  0  0  0  0  0  0  0  0  0
    9.2266   -3.5522   -0.2893 H   0  0  0  0  0  0  0  0  0  0  0  0
    8.7809   -2.9436    1.3035 H   0  0  0  0  0  0  0  0  0  0  0  0
    9.9669   -2.0625    0.3222 H   0  0  0  0  0  0  0  0  0  0  0  0
  1 23  1  0  0  0  0
  1 86  1  0  0  0  0
  2 28  1  0  0  0  0
  2 36  1  0  0  0  0
  3 33  1  0  0  0  0
  3 87  1  0  0  0  0
  4 33  2  0  0  0  0
  5 36  2  0  0  0  0
  6  7  1  0  0  0  0
  6  9  1  0  0  0  0
  6 11  1  0  0  0  0
  6 21  1  0  0  0  0
  7  8  1  0  0  0  0
  7 16  1  0  0  0  0
  7 41  1  0  0  0  0
  8 10  1  0  0  0  0
  8 19  1  0  0  0  0
  8 24  1  0  0  0  0
  9 12  1  0  0  0  0
  9 17  1  0  0  0  0
  9 26  1  0  0  0  0
 10 13  1  0  0  0  0
 10 14  1  0  0  0  0
 10 42  1  0  0  0  0
 11 13  1  0  0  0  0
 11 43  1  0  0  0  0
 11 44  1  0  0  0  0
 12 15  1  0  0  0  0
 12 22  2  0  0  0  0
 13 45  1  0  0  0  0
 13 46  1  0  0  0  0
 14 23  1  0  0  0  0
 14 31  1  0  0  0  0
 14 32  1  0  0  0  0
 15 18  1  0  0  0  0
 15 27  1  0  0  0  0
 15 47  1  0  0  0  0
 16 22  1  0  0  0  0
 16 48  1  0  0  0  0
 16 49  1  0  0  0  0
 17 20  1  0  0  0  0
 17 50  1  0  0  0  0
 17 51  1  0  0  0  0
 18 20  1  0  0  0  0
 18 28  1  0  0  0  0
 18 33  1  0  0  0  0
 19 25  1  0  0  0  0
 19 52  1  0  0  0  0
 19 53  1  0  0  0  0
 20 54  1  0  0  0  0
 20 55  1  0  0  0  0
 21 56  1  0  0  0  0
 21 57  1  0  0  0  0
 21 58  1  0  0  0  0
 22 59  1  0  0  0  0
 23 25  1  0  0  0  0
 23 60  1  0  0  0  0
 24 61  1  0  0  0  0
 24 62  1  0  0  0  0
 24 63  1  0  0  0  0
 25 64  1  0  0  0  0
 25 65  1  0  0  0  0
 26 66  1  0  0  0  0
 26 67  1  0  0  0  0
 26 68  1  0  0  0  0
 27 29  1  0  0  0  0
 27 69  1  0  0  0  0
 27 70  1  0  0  0  0
 28 30  1  0  0  0  0
 28 71  1  0  0  0  0
 29 30  1  0  0  0  0
 29 34  1  0  0  0  0
 29 35  1  0  0  0  0
 30 72  1  0  0  0  0
 30 73  1  0  0  0  0
 31 74  1  0  0  0  0
 31 75  1  0  0  0  0
 31 76  1  0  0  0  0
 32 77  1  0  0  0  0
 32 78  1  0  0  0  0
 32 79  1  0  0  0  0
 34 80  1  0  0  0  0
 34 81  1  0  0  0  0
 34 82  1  0  0  0  0
 35 83  1  0  0  0  0
 35 84  1  0  0  0  0
 35 85  1  0  0  0  0
 36 37  1  0  0  0  0
 37 38  1  0  0  0  0
 37 39  2  0  0  0  0
 38 88  1  0  0  0  0
 38 89  1  0  0  0  0
 38 90  1  0  0  0  0
 39 40  1  0  0  0  0
 39 91  1  0  0  0  0
 40 92  1  0  0  0  0
 40 93  1  0  0  0  0
 40 94  1  0  0  0  0
M  END
> <PUBCHEM_COMPOUND_CID>
6438155

> <PUBCHEM_CONFORMER_RMSD>
1

> <PUBCHEM_CONFORMER_DIVERSEORDER>
1
5
6
3
2
7
4

> <PUBCHEM_MMFF94_PARTIAL_CHARGES>
23
1 -0.68
12 -0.28
15 0.14
16 0.14
18 0.06
2 -0.43
22 -0.29
23 0.28
28 0.28
3 -0.65
33 0.66
36 0.71
37 -0.12
38 0.14
39 -0.29
4 -0.57
40 0.14
5 -0.57
59 0.15
86 0.4
87 0.5
9 0.14
91 0.15

> <PUBCHEM_EFFECTIVE_ROTOR_COUNT>
6.6

> <PUBCHEM_PHARMACOPHORE_FEATURES>
15
1 1 acceptor
1 1 donor
1 3 acceptor
1 38 hydrophobe
1 4 acceptor
1 40 hydrophobe
1 5 acceptor
3 14 31 32 hydrophobe
3 29 34 35 hydrophobe
3 3 4 33 anion
6 15 18 27 28 29 30 rings
6 6 7 8 10 11 13 rings
6 6 7 9 12 16 22 rings
6 8 10 14 19 23 25 rings
6 9 12 15 17 18 20 rings

> <PUBCHEM_HEAVY_ATOM_COUNT>
40

> <PUBCHEM_ATOM_DEF_STEREO_COUNT>
8

> <PUBCHEM_ATOM_UDEF_STEREO_COUNT>
1

> <PUBCHEM_BOND_DEF_STEREO_COUNT>
1

> <PUBCHEM_BOND_UDEF_STEREO_COUNT>
0

> <PUBCHEM_ISOTOPIC_ATOM_COUNT>
0

> <PUBCHEM_COMPONENT_COUNT>
1

> <PUBCHEM_CACTVS_TAUTO_COUNT>
1

> <PUBCHEM_CONFORMER_ID>
00623D0B00000001

> <PUBCHEM_MMFF94_ENERGY>
172.7374

> <PUBCHEM_FEATURE_SELFOVERLAP>
76.234

> <PUBCHEM_SHAPE_FINGERPRINT>
10 15 16845282844509818762
10050765 1 18196370544622926750
10299344 5 18113338587705367902
11135926 11 18131349671106525551
11456790 92 18335991878183298232
11719270 70 18060138734780616134
12107698 1 18410856547008433144
12166972 35 18342459261386382521
12236239 1 18333452044861536333
12592606 108 18410011022867451262
12741549 16 17632289031297912792
13383668 362 17916007144640933538
13782708 43 18040996249930356222
13811026 1 18060414724782895723
14040221 8 18115016395769314317
14068700 675 18341612594789303280
14117953 113 18271525308107242061
14955137 171 18343301445197816536
15131766 46 17978507864482421092
15183329 4 18413113861586240486
15198563 99 15430597239276573510
15439362 3 18119531183839387444
1577012 14 18201728391834081377
15840311 113 18186802530519984709
15849732 13 17989201530411860726
16728433 281 15793393165376588823
17349148 13 17703513285589594201
18681886 176 18272083907601683544
20028762 73 18131354102964467166
20511986 3 18339349885958912237
21792934 111 17988638593285546681
21792961 116 17677328300278881798
22311459 1 18411983533732048726
23559900 14 18272652329143142127
23569917 315 18272936046252044359
23569943 247 17677320602727038075
249057 25 17918004883658345241
249057 3 18409730651596797014
3004659 81 18410009948724603177
335352 9 18411703179841568254
3383291 50 17846780715160922911
350125 39 18412266138221809364
4073 2 17970630907340059968
4112364 45 15051435155900790552
5104073 3 18271252732202496512
5758199 1 9151167658600219350
6081469 158 18186799175801899135
6086070 43 18188479190635633044
6371380 46 18113338604689850834
9962374 69 18342451578164390494

> <PUBCHEM_SHAPE_MULTIPOLES>
793.83
22.66
3.12
1.56
2.08
2.24
0.09
-11.88
-0.95
4.15
-0.11
-0.09
-0.11
-1.33

> <PUBCHEM_SHAPE_SELFOVERLAP>
1682.053

> <PUBCHEM_SHAPE_VOLUME>
436.9

> <PUBCHEM_COORDINATE_TYPE>
2
5
10

$$$$
