71699285
  -OEChem-11202006563D

 94 98  0     1  0  0  0  0  0999 V2000
    7.5847   -0.6694   -1.9034 O   0  0  0  0  0  0  0  0  0  0  0  0
   -4.5135   -0.1797   -0.1111 O   0  0  0  0  0  0  0  0  0  0  0  0
   -2.7681   -2.1758    1.5481 O   0  0  0  0  0  0  0  0  0  0  0  0
   -1.6660   -1.9731   -0.4370 O   0  0  0  0  0  0  0  0  0  0  0  0
   -6.3690   -0.3333    1.2521 O   0  0  0  0  0  0  0  0  0  0  0  0
    2.1269   -0.4334    0.6359 C   0  0  2  0  0  0  0  0  0  0  0  0
    2.8743    0.2026   -0.5978 C   0  0  1  0  0  0  0  0  0  0  0  0
    4.3917   -0.2179   -0.8595 C   0  0  2  0  0  0  0  0  0  0  0  0
    0.7815    0.4563    0.9188 C   0  0  1  0  0  0  0  0  0  0  0  0
    5.1628   -0.1440    0.5027 C   0  0  1  0  0  0  0  0  0  0  0  0
    3.0648   -0.4634    1.8731 C   0  0  0  0  0  0  0  0  0  0  0  0
   -0.0527    0.5603   -0.3778 C   0  0  0  0  0  0  0  0  0  0  0  0
    4.4694   -0.9931    1.5865 C   0  0  0  0  0  0  0  0  0  0  0  0
    6.7288   -0.3508    0.4222 C   0  0  0  0  0  0  0  0  0  0  0  0
   -1.5656    0.8012   -0.3123 C   0  0  1  0  0  0  0  0  0  0  0  0
    1.9724    0.1522   -1.8525 C   0  0  0  0  0  0  0  0  0  0  0  0
   -0.0363   -0.1542    2.0975 C   0  0  0  0  0  0  0  0  0  0  0  0
   -2.2469    0.0188    0.8366 C   0  0  1  0  0  0  0  0  0  0  0  0
    5.0201    0.8197   -1.8567 C   0  0  0  0  0  0  0  0  0  0  0  0
   -1.5069    0.2791    2.1647 C   0  0  0  0  0  0  0  0  0  0  0  0
    1.7202   -1.9126    0.3405 C   0  0  0  0  0  0  0  0  0  0  0  0
    0.5214    0.4301   -1.5909 C   0  0  0  0  0  0  0  0  0  0  0  0
    7.3205    0.2852   -0.8789 C   0  0  2  0  0  0  0  0  0  0  0  0
    4.5203   -1.6132   -1.5176 C   0  0  0  0  0  0  0  0  0  0  0  0
    6.4027    1.3527   -1.4644 C   0  0  0  0  0  0  0  0  0  0  0  0
    1.1319    1.9197    1.3329 C   0  0  0  0  0  0  0  0  0  0  0  0
   -1.8739    2.3167   -0.2806 C   0  0  0  0  0  0  0  0  0  0  0  0
   -3.7527    0.3757    0.9647 C   0  0  1  0  0  0  0  0  0  0  0  0
   -3.3734    2.6665   -0.1861 C   0  0  0  0  0  0  0  0  0  0  0  0
   -4.0198    1.8842    0.9816 C   0  0  0  0  0  0  0  0  0  0  0  0
    7.3612    0.4184    1.6198 C   0  0  0  0  0  0  0  0  0  0  0  0
    7.1606   -1.8235    0.5850 C   0  0  0  0  0  0  0  0  0  0  0  0
   -2.1783   -1.4704    0.5520 C   0  0  0  0  0  0  0  0  0  0  0  0
   -4.0765    2.3983   -1.5307 C   0  0  0  0  0  0  0  0  0  0  0  0
   -3.5147    4.1761    0.1070 C   0  0  0  0  0  0  0  0  0  0  0  0
   -5.8103   -0.4866    0.1791 C   0  0  0  0  0  0  0  0  0  0  0  0
   -6.4161   -1.0620   -1.0454 C   0  0  0  0  0  0  0  0  0  0  0  0
   -7.6819   -1.5038   -1.1552 C   0  0  0  0  0  0  0  0  0  0  0  0
   -8.1656   -2.0670   -2.4672 C   0  0  0  0  0  0  0  0  0  0  0  0
   -8.7280   -1.4867   -0.0758 C   0  0  0  0  0  0  0  0  0  0  0  0
    2.9642    1.2686   -0.3484 H   0  0  0  0  0  0  0  0  0  0  0  0
    5.0322    0.8983    0.8385 H   0  0  0  0  0  0  0  0  0  0  0  0
    2.6183   -1.0654    2.6742 H   0  0  0  0  0  0  0  0  0  0  0  0
    3.1972    0.5354    2.2940 H   0  0  0  0  0  0  0  0  0  0  0  0
    5.0322   -0.9440    2.5251 H   0  0  0  0  0  0  0  0  0  0  0  0
    4.4317   -2.0513    1.3134 H   0  0  0  0  0  0  0  0  0  0  0  0
   -1.9956    0.4255   -1.2525 H   0  0  0  0  0  0  0  0  0  0  0  0
    2.0131   -0.8304   -2.3303 H   0  0  0  0  0  0  0  0  0  0  0  0
    2.3280    0.8765   -2.5937 H   0  0  0  0  0  0  0  0  0  0  0  0
    0.4431    0.1029    3.0514 H   0  0  0  0  0  0  0  0  0  0  0  0
   -0.0340   -1.2450    2.0665 H   0  0  0  0  0  0  0  0  0  0  0  0
    4.3745    1.6994   -1.9686 H   0  0  0  0  0  0  0  0  0  0  0  0
    5.0780    0.3846   -2.8632 H   0  0  0  0  0  0  0  0  0  0  0  0
   -1.9842   -0.2603    2.9932 H   0  0  0  0  0  0  0  0  0  0  0  0
   -1.5626    1.3379    2.4388 H   0  0  0  0  0  0  0  0  0  0  0  0
    0.9478   -2.0016   -0.4255 H   0  0  0  0  0  0  0  0  0  0  0  0
    1.3548   -2.4260    1.2348 H   0  0  0  0  0  0  0  0  0  0  0  0
    2.5585   -2.5164    0.0027 H   0  0  0  0  0  0  0  0  0  0  0  0
   -0.0984    0.5042   -2.4822 H   0  0  0  0  0  0  0  0  0  0  0  0
    8.2910    0.7445   -0.6543 H   0  0  0  0  0  0  0  0  0  0  0  0
    4.3606   -2.4365   -0.8230 H   0  0  0  0  0  0  0  0  0  0  0  0
    3.8346   -1.7447   -2.3573 H   0  0  0  0  0  0  0  0  0  0  0  0
    5.5118   -1.7764   -1.9422 H   0  0  0  0  0  0  0  0  0  0  0  0
    6.8623    1.7957   -2.3569 H   0  0  0  0  0  0  0  0  0  0  0  0
    6.2841    2.1696   -0.7417 H   0  0  0  0  0  0  0  0  0  0  0  0
    1.8720    1.9714    2.1328 H   0  0  0  0  0  0  0  0  0  0  0  0
    0.2655    2.4513    1.7331 H   0  0  0  0  0  0  0  0  0  0  0  0
    1.5024    2.5190    0.4948 H   0  0  0  0  0  0  0  0  0  0  0  0
   -1.3724    2.7820    0.5710 H   0  0  0  0  0  0  0  0  0  0  0  0
   -1.4425    2.7940   -1.1714 H   0  0  0  0  0  0  0  0  0  0  0  0
   -4.1187   -0.0398    1.9140 H   0  0  0  0  0  0  0  0  0  0  0  0
   -5.1000    2.0779    0.9824 H   0  0  0  0  0  0  0  0  0  0  0  0
   -3.6416    2.2861    1.9308 H   0  0  0  0  0  0  0  0  0  0  0  0
    7.0051    0.0419    2.5838 H   0  0  0  0  0  0  0  0  0  0  0  0
    7.1314    1.4889    1.5742 H   0  0  0  0  0  0  0  0  0  0  0  0
    8.4530    0.3167    1.6199 H   0  0  0  0  0  0  0  0  0  0  0  0
    6.8920   -2.2213    1.5694 H   0  0  0  0  0  0  0  0  0  0  0  0
    6.7129   -2.4771   -0.1663 H   0  0  0  0  0  0  0  0  0  0  0  0
    8.2491   -1.9190    0.4918 H   0  0  0  0  0  0  0  0  0  0  0  0
   -5.1550    2.5757   -1.4521 H   0  0  0  0  0  0  0  0  0  0  0  0
   -3.9323    1.3776   -1.8922 H   0  0  0  0  0  0  0  0  0  0  0  0
   -3.6900    3.0635   -2.3119 H   0  0  0  0  0  0  0  0  0  0  0  0
   -4.5689    4.4684    0.1727 H   0  0  0  0  0  0  0  0  0  0  0  0
   -3.0482    4.7785   -0.6808 H   0  0  0  0  0  0  0  0  0  0  0  0
   -3.0359    4.4455    1.0553 H   0  0  0  0  0  0  0  0  0  0  0  0
    7.9869   -0.1986   -2.6530 H   0  0  0  0  0  0  0  0  0  0  0  0
   -2.7341   -3.1419    1.3821 H   0  0  0  0  0  0  0  0  0  0  0  0
   -5.7572   -1.1238   -1.9091 H   0  0  0  0  0  0  0  0  0  0  0  0
   -8.4669   -3.1124   -2.3439 H   0  0  0  0  0  0  0  0  0  0  0  0
   -7.3963   -2.0337   -3.2461 H   0  0  0  0  0  0  0  0  0  0  0  0
   -9.0272   -1.4959   -2.8288 H   0  0  0  0  0  0  0  0  0  0  0  0
   -9.3550   -0.5950   -0.1724 H   0  0  0  0  0  0  0  0  0  0  0  0
   -8.3173   -1.5251    0.9340 H   0  0  0  0  0  0  0  0  0  0  0  0
   -9.3765   -2.3661   -0.1632 H   0  0  0  0  0  0  0  0  0  0  0  0
  1 23  1  0  0  0  0
  1 86  1  0  0  0  0
  2 28  1  0  0  0  0
  2 36  1  0  0  0  0
  3 33  1  0  0  0  0
  3 87  1  0  0  0  0
  4 33  2  0  0  0  0
  5 36  2  0  0  0  0
  6  7  1  0  0  0  0
  6  9  1  0  0  0  0
  6 11  1  0  0  0  0
  6 21  1  0  0  0  0
  7  8  1  0  0  0  0
  7 16  1  0  0  0  0
  7 41  1  0  0  0  0
  8 10  1  0  0  0  0
  8 19  1  0  0  0  0
  8 24  1  0  0  0  0
  9 12  1  0  0  0  0
  9 17  1  0  0  0  0
  9 26  1  0  0  0  0
 10 13  1  0  0  0  0
 10 14  1  0  0  0  0
 10 42  1  0  0  0  0
 11 13  1  0  0  0  0
 11 43  1  0  0  0  0
 11 44  1  0  0  0  0
 12 15  1  0  0  0  0
 12 22  2  0  0  0  0
 13 45  1  0  0  0  0
 13 46  1  0  0  0  0
 14 23  1  0  0  0  0
 14 31  1  0  0  0  0
 14 32  1  0  0  0  0
 15 18  1  0  0  0  0
 15 27  1  0  0  0  0
 15 47  1  0  0  0  0
 16 22  1  0  0  0  0
 16 48  1  0  0  0  0
 16 49  1  0  0  0  0
 17 20  1  0  0  0  0
 17 50  1  0  0  0  0
 17 51  1  0  0  0  0
 18 20  1  0  0  0  0
 18 28  1  0  0  0  0
 18 33  1  0  0  0  0
 19 25  1  0  0  0  0
 19 52  1  0  0  0  0
 19 53  1  0  0  0  0
 20 54  1  0  0  0  0
 20 55  1  0  0  0  0
 21 56  1  0  0  0  0
 21 57  1  0  0  0  0
 21 58  1  0  0  0  0
 22 59  1  0  0  0  0
 23 25  1  0  0  0  0
 23 60  1  0  0  0  0
 24 61  1  0  0  0  0
 24 62  1  0  0  0  0
 24 63  1  0  0  0  0
 25 64  1  0  0  0  0
 25 65  1  0  0  0  0
 26 66  1  0  0  0  0
 26 67  1  0  0  0  0
 26 68  1  0  0  0  0
 27 29  1  0  0  0  0
 27 69  1  0  0  0  0
 27 70  1  0  0  0  0
 28 30  1  0  0  0  0
 28 71  1  0  0  0  0
 29 30  1  0  0  0  0
 29 34  1  0  0  0  0
 29 35  1  0  0  0  0
 30 72  1  0  0  0  0
 30 73  1  0  0  0  0
 31 75  1  0  0  0  0
 31 76  1  0  0  0  0
 31 79  1  0  0  0  0
 32 74  1  0  0  0  0
 32 77  1  0  0  0  0
 32 78  1  0  0  0  0
 34 80  1  0  0  0  0
 34 81  1  0  0  0  0
 34 85  1  0  0  0  0
 35 82  1  0  0  0  0
 35 83  1  0  0  0  0
 35 84  1  0  0  0  0
 36 37  1  0  0  0  0
 37 38  2  0  0  0  0
 37 88  1  0  0  0  0
 38 39  1  0  0  0  0
 38 40  1  0  0  0  0
 39 89  1  0  0  0  0
 39 90  1  0  0  0  0
 39 91  1  0  0  0  0
 40 92  1  0  0  0  0
 40 93  1  0  0  0  0
 40 94  1  0  0  0  0
M  END
> <PUBCHEM_COMPOUND_CID>
71699285

> <PUBCHEM_CONFORMER_RMSD>
1

> <PUBCHEM_CONFORMER_DIVERSEORDER>
1
8
6
3
7
2
5
4

> <PUBCHEM_MMFF94_PARTIAL_CHARGES>
23
1 -0.68
12 -0.28
15 0.14
16 0.14
18 0.06
2 -0.43
22 -0.29
23 0.28
28 0.28
3 -0.65
33 0.66
36 0.71
37 -0.14
38 -0.28
39 0.14
4 -0.57
40 0.14
5 -0.57
59 0.15
86 0.4
87 0.5
88 0.15
9 0.14

> <PUBCHEM_EFFECTIVE_ROTOR_COUNT>
6.6

> <PUBCHEM_PHARMACOPHORE_FEATURES>
14
1 1 acceptor
1 1 donor
1 3 acceptor
1 4 acceptor
1 5 acceptor
3 14 31 32 hydrophobe
3 29 34 35 hydrophobe
3 3 4 33 anion
3 38 39 40 hydrophobe
6 15 18 27 28 29 30 rings
6 6 7 8 10 11 13 rings
6 6 7 9 12 16 22 rings
6 8 10 14 19 23 25 rings
6 9 12 15 17 18 20 rings

> <PUBCHEM_HEAVY_ATOM_COUNT>
40

> <PUBCHEM_ATOM_DEF_STEREO_COUNT>
9

> <PUBCHEM_ATOM_UDEF_STEREO_COUNT>
0

> <PUBCHEM_BOND_DEF_STEREO_COUNT>
0

> <PUBCHEM_BOND_UDEF_STEREO_COUNT>
0

> <PUBCHEM_ISOTOPIC_ATOM_COUNT>
0

> <PUBCHEM_COMPONENT_COUNT>
1

> <PUBCHEM_CACTVS_TAUTO_COUNT>
1

> <PUBCHEM_CONFORMER_ID>
04460B5500000001

> <PUBCHEM_MMFF94_ENERGY>
173.0829

> <PUBCHEM_FEATURE_SELFOVERLAP>
71.188

> <PUBCHEM_SHAPE_FINGERPRINT>
10076449 9 18411981386321883361
11007060 377 17095244696359516785
11135609 12 16343699984401976397
11135926 11 15051729746663572829
11181472 205 11602811364350041830
12107698 1 18409730677113939045
12236239 1 17749112170874866472
12422481 6 16878225247864612836
12741549 16 17489869341401921649
12788726 201 18333168358641332929
13383668 251 17487877098734658648
13540713 5 17752471072182904049
13617811 41 18335417989143131437
13673619 4 17846495963672128929
13782708 43 17918274260128777591
13811026 1 18335133224532974593
14068700 675 18409445912820027309
14118638 360 18186801340180767850
14294032 229 18266459803211941857
14856354 85 18410298038183175319
15131766 46 14420134134694999822
15142383 8 12757149078693476622
15183329 4 17894351068387249218
15198563 99 18335971001350261501
15336146 87 18187638115980620708
15461852 350 18408604742667477580
1577012 14 17822294535164331281
18608769 82 16630524059427978167
19303781 99 17629183095871092055
20105231 36 14045752529612264652
20511986 3 17676201360594217232
21267235 1 15123518003887332776
21781051 124 16486980651895213862
21792934 111 15719658936665987484
21792965 106 14562531782296621518
23559900 14 17968664954996700305
23569943 247 16698674934651449798
23576562 1 14996860929951786639
2747138 104 15769782367907266626
3178227 256 14189578554498123910
3383291 50 18335142011925715171
34797466 226 18343033194377944100
3633792 109 16950556671510293589
4093350 32 13479398457984162089
4516262 110 17313959649027086692
474113 269 14924486573933874056
504579 68 17749398074601267094
5104073 3 16805615772215508608
563151 97 17241036588671188913
58083652 198 16298105376709484748

> <PUBCHEM_SHAPE_MULTIPOLES>
793.83
22.53
2.61
2.08
5.13
1.92
0.16
-10.31
7.6
4.42
0.38
-0.75
-0.26
-1.45

> <PUBCHEM_SHAPE_SELFOVERLAP>
1679.839

> <PUBCHEM_SHAPE_VOLUME>
437.7

> <PUBCHEM_COORDINATE_TYPE>
2
5
10

$$$$
