15560077
  -OEChem-11202004473D

 92 96  0     1  0  0  0  0  0999 V2000
    4.5165    0.7336   -0.5063 O   0  0  0  0  0  0  0  0  0  0  0  0
   -8.1511   -1.6887    0.5635 O   0  0  0  0  0  0  0  0  0  0  0  0
    2.5249    3.0831   -0.6561 O   0  0  0  0  0  0  0  0  0  0  0  0
    1.5105    1.4609   -1.8951 O   0  0  0  0  0  0  0  0  0  0  0  0
    6.4906    1.3584    0.5121 O   0  0  0  0  0  0  0  0  0  0  0  0
   -2.1605    0.7986    0.0579 C   0  0  2  0  0  0  0  0  0  0  0  0
   -2.8304   -0.5747   -0.3255 C   0  0  1  0  0  0  0  0  0  0  0  0
   -0.7672    0.4767    0.8534 C   0  0  1  0  0  0  0  0  0  0  0  0
   -4.3491   -0.5349   -0.8125 C   0  0  2  0  0  0  0  0  0  0  0  0
   -5.1601    0.2806    0.2605 C   0  0  1  0  0  0  0  0  0  0  0  0
   -3.1321    1.6404    0.9317 C   0  0  0  0  0  0  0  0  0  0  0  0
    0.1172   -0.4458   -0.0100 C   0  0  0  0  0  0  0  0  0  0  0  0
    1.6423   -0.4355    0.1441 C   0  0  1  0  0  0  0  0  0  0  0  0
   -4.5739    1.6984    0.4218 C   0  0  0  0  0  0  0  0  0  0  0  0
    2.2134    0.9831    0.3863 C   0  0  1  0  0  0  0  0  0  0  0  0
   -0.0432    1.8003    1.2463 C   0  0  0  0  0  0  0  0  0  0  0  0
   -1.8913   -1.4223   -1.2158 C   0  0  0  0  0  0  0  0  0  0  0  0
   -6.7220    0.2340    0.1392 C   0  0  0  0  0  0  0  0  0  0  0  0
   -4.9006   -1.9927   -0.8050 C   0  0  0  0  0  0  0  0  0  0  0  0
    1.4546    1.6620    1.5451 C   0  0  0  0  0  0  0  0  0  0  0  0
   -1.8579    1.6415   -1.2213 C   0  0  0  0  0  0  0  0  0  0  0  0
   -0.4289   -1.2855   -0.9121 C   0  0  0  0  0  0  0  0  0  0  0  0
   -1.0248   -0.2961    2.1853 C   0  0  0  0  0  0  0  0  0  0  0  0
    2.0829   -1.4557    1.2209 C   0  0  0  0  0  0  0  0  0  0  0  0
   -4.5056    0.0263   -2.2478 C   0  0  0  0  0  0  0  0  0  0  0  0
    3.7399    0.9540    0.6744 C   0  0  1  0  0  0  0  0  0  0  0  0
    3.6037   -1.5120    1.4754 C   0  0  0  0  0  0  0  0  0  0  0  0
   -6.4079   -2.0977   -0.9956 C   0  0  0  0  0  0  0  0  0  0  0  0
    4.1497   -0.0866    1.7209 C   0  0  0  0  0  0  0  0  0  0  0  0
   -7.1616   -1.2329   -0.0141 C   0  0  0  0  0  0  0  0  0  0  0  0
   -7.3605    0.7791    1.4431 C   0  0  0  0  0  0  0  0  0  0  0  0
   -7.3118    1.0442   -1.0233 C   0  0  0  0  0  0  0  0  0  0  0  0
    2.0297    1.8370   -0.8549 C   0  0  0  0  0  0  0  0  0  0  0  0
    3.8625   -2.3514    2.7466 C   0  0  0  0  0  0  0  0  0  0  0  0
    4.3235   -2.2234    0.3143 C   0  0  0  0  0  0  0  0  0  0  0  0
    5.8666    0.7326   -0.3283 C   0  0  0  0  0  0  0  0  0  0  0  0
    6.4469   -0.1579   -1.3614 C   0  0  0  0  0  0  0  0  0  0  0  0
    7.5957   -0.8474   -1.2403 C   0  0  0  0  0  0  0  0  0  0  0  0
    8.0678   -1.7183   -2.3765 C   0  0  0  0  0  0  0  0  0  0  0  0
    8.5015   -0.8650   -0.0409 C   0  0  0  0  0  0  0  0  0  0  0  0
   -2.8929   -1.1315    0.6198 H   0  0  0  0  0  0  0  0  0  0  0  0
   -4.9540   -0.2300    1.2168 H   0  0  0  0  0  0  0  0  0  0  0  0
   -2.7560    2.6658    1.0360 H   0  0  0  0  0  0  0  0  0  0  0  0
   -3.1889    1.2438    1.9476 H   0  0  0  0  0  0  0  0  0  0  0  0
    2.0691   -0.7927   -0.8048 H   0  0  0  0  0  0  0  0  0  0  0  0
   -5.1457    2.2715    1.1581 H   0  0  0  0  0  0  0  0  0  0  0  0
   -4.6288    2.2733   -0.5061 H   0  0  0  0  0  0  0  0  0  0  0  0
   -0.5308    2.2399    2.1267 H   0  0  0  0  0  0  0  0  0  0  0  0
   -0.1373    2.5591    0.4684 H   0  0  0  0  0  0  0  0  0  0  0  0
   -2.0104   -1.1770   -2.2736 H   0  0  0  0  0  0  0  0  0  0  0  0
   -2.1544   -2.4815   -1.1112 H   0  0  0  0  0  0  0  0  0  0  0  0
   -4.6486   -2.4702    0.1517 H   0  0  0  0  0  0  0  0  0  0  0  0
   -4.4134   -2.5880   -1.5867 H   0  0  0  0  0  0  0  0  0  0  0  0
    1.8566    2.6638    1.7450 H   0  0  0  0  0  0  0  0  0  0  0  0
    1.5900    1.1047    2.4781 H   0  0  0  0  0  0  0  0  0  0  0  0
   -1.1398    1.1625   -1.8900 H   0  0  0  0  0  0  0  0  0  0  0  0
   -2.7518    1.8343   -1.8115 H   0  0  0  0  0  0  0  0  0  0  0  0
   -1.4730    2.6367   -0.9843 H   0  0  0  0  0  0  0  0  0  0  0  0
    0.2231   -1.9274   -1.5011 H   0  0  0  0  0  0  0  0  0  0  0  0
   -1.7829    0.1758    2.8126 H   0  0  0  0  0  0  0  0  0  0  0  0
   -1.3282   -1.3351    2.0197 H   0  0  0  0  0  0  0  0  0  0  0  0
   -0.1331   -0.3328    2.8160 H   0  0  0  0  0  0  0  0  0  0  0  0
    1.5963   -1.2251    2.1718 H   0  0  0  0  0  0  0  0  0  0  0  0
    1.7222   -2.4558    0.9431 H   0  0  0  0  0  0  0  0  0  0  0  0
   -4.6444    1.1081   -2.2713 H   0  0  0  0  0  0  0  0  0  0  0  0
   -3.6524   -0.2015   -2.8884 H   0  0  0  0  0  0  0  0  0  0  0  0
   -5.3647   -0.3951   -2.7741 H   0  0  0  0  0  0  0  0  0  0  0  0
    4.0341    1.9417    1.0580 H   0  0  0  0  0  0  0  0  0  0  0  0
   -6.7101   -3.1400   -0.8378 H   0  0  0  0  0  0  0  0  0  0  0  0
   -6.7213   -1.8297   -2.0080 H   0  0  0  0  0  0  0  0  0  0  0  0
    5.2318   -0.1495    1.8717 H   0  0  0  0  0  0  0  0  0  0  0  0
    3.7586    0.2623    2.6871 H   0  0  0  0  0  0  0  0  0  0  0  0
   -7.1846    1.8512    1.5719 H   0  0  0  0  0  0  0  0  0  0  0  0
   -8.4486    0.6412    1.4463 H   0  0  0  0  0  0  0  0  0  0  0  0
   -6.9692    0.2583    2.3245 H   0  0  0  0  0  0  0  0  0  0  0  0
   -6.9654    2.0822   -1.0115 H   0  0  0  0  0  0  0  0  0  0  0  0
   -7.0846    0.6168   -2.0008 H   0  0  0  0  0  0  0  0  0  0  0  0
   -8.4072    1.0666   -0.9614 H   0  0  0  0  0  0  0  0  0  0  0  0
    3.3785   -1.9078    3.6241 H   0  0  0  0  0  0  0  0  0  0  0  0
    3.4732   -3.3698    2.6349 H   0  0  0  0  0  0  0  0  0  0  0  0
    4.9349   -2.4243    2.9607 H   0  0  0  0  0  0  0  0  0  0  0  0
    4.1298   -1.7529   -0.6519 H   0  0  0  0  0  0  0  0  0  0  0  0
    5.4051   -2.2515    0.4805 H   0  0  0  0  0  0  0  0  0  0  0  0
    3.9838   -3.2625    0.2270 H   0  0  0  0  0  0  0  0  0  0  0  0
    2.4152    3.6511   -1.4482 H   0  0  0  0  0  0  0  0  0  0  0  0
    5.8590   -0.2553   -2.2717 H   0  0  0  0  0  0  0  0  0  0  0  0
    9.0613   -1.3998   -2.7091 H   0  0  0  0  0  0  0  0  0  0  0  0
    7.3991   -1.6750   -3.2428 H   0  0  0  0  0  0  0  0  0  0  0  0
    8.1264   -2.7634   -2.0548 H   0  0  0  0  0  0  0  0  0  0  0  0
    8.0491   -0.4315    0.8531 H   0  0  0  0  0  0  0  0  0  0  0  0
    9.4257   -0.3202   -0.2585 H   0  0  0  0  0  0  0  0  0  0  0  0
    8.7640   -1.8969    0.2171 H   0  0  0  0  0  0  0  0  0  0  0  0
  1 26  1  0  0  0  0
  1 36  1  0  0  0  0
  2 30  2  0  0  0  0
  3 33  1  0  0  0  0
  3 85  1  0  0  0  0
  4 33  2  0  0  0  0
  5 36  2  0  0  0  0
  6  7  1  0  0  0  0
  6  8  1  0  0  0  0
  6 11  1  0  0  0  0
  6 21  1  0  0  0  0
  7  9  1  0  0  0  0
  7 17  1  0  0  0  0
  7 41  1  0  0  0  0
  8 12  1  0  0  0  0
  8 16  1  0  0  0  0
  8 23  1  0  0  0  0
  9 10  1  0  0  0  0
  9 19  1  0  0  0  0
  9 25  1  0  0  0  0
 10 14  1  0  0  0  0
 10 18  1  0  0  0  0
 10 42  1  0  0  0  0
 11 14  1  0  0  0  0
 11 43  1  0  0  0  0
 11 44  1  0  0  0  0
 12 13  1  0  0  0  0
 12 22  2  0  0  0  0
 13 15  1  0  0  0  0
 13 24  1  0  0  0  0
 13 45  1  0  0  0  0
 14 46  1  0  0  0  0
 14 47  1  0  0  0  0
 15 20  1  0  0  0  0
 15 26  1  0  0  0  0
 15 33  1  0  0  0  0
 16 20  1  0  0  0  0
 16 48  1  0  0  0  0
 16 49  1  0  0  0  0
 17 22  1  0  0  0  0
 17 50  1  0  0  0  0
 17 51  1  0  0  0  0
 18 30  1  0  0  0  0
 18 31  1  0  0  0  0
 18 32  1  0  0  0  0
 19 28  1  0  0  0  0
 19 52  1  0  0  0  0
 19 53  1  0  0  0  0
 20 54  1  0  0  0  0
 20 55  1  0  0  0  0
 21 56  1  0  0  0  0
 21 57  1  0  0  0  0
 21 58  1  0  0  0  0
 22 59  1  0  0  0  0
 23 60  1  0  0  0  0
 23 61  1  0  0  0  0
 23 62  1  0  0  0  0
 24 27  1  0  0  0  0
 24 63  1  0  0  0  0
 24 64  1  0  0  0  0
 25 65  1  0  0  0  0
 25 66  1  0  0  0  0
 25 67  1  0  0  0  0
 26 29  1  0  0  0  0
 26 68  1  0  0  0  0
 27 29  1  0  0  0  0
 27 34  1  0  0  0  0
 27 35  1  0  0  0  0
 28 30  1  0  0  0  0
 28 69  1  0  0  0  0
 28 70  1  0  0  0  0
 29 71  1  0  0  0  0
 29 72  1  0  0  0  0
 31 73  1  0  0  0  0
 31 74  1  0  0  0  0
 31 75  1  0  0  0  0
 32 76  1  0  0  0  0
 32 77  1  0  0  0  0
 32 78  1  0  0  0  0
 34 79  1  0  0  0  0
 34 80  1  0  0  0  0
 34 81  1  0  0  0  0
 35 82  1  0  0  0  0
 35 83  1  0  0  0  0
 35 84  1  0  0  0  0
 36 37  1  0  0  0  0
 37 38  2  0  0  0  0
 37 86  1  0  0  0  0
 38 39  1  0  0  0  0
 38 40  1  0  0  0  0
 39 87  1  0  0  0  0
 39 88  1  0  0  0  0
 39 89  1  0  0  0  0
 40 90  1  0  0  0  0
 40 91  1  0  0  0  0
 40 92  1  0  0  0  0
M  END
> <PUBCHEM_COMPOUND_CID>
15560077

> <PUBCHEM_CONFORMER_RMSD>
1

> <PUBCHEM_CONFORMER_DIVERSEORDER>
3
8
4
6
7
5
1
2

> <PUBCHEM_MMFF94_PARTIAL_CHARGES>
24
1 -0.43
12 -0.28
13 0.14
15 0.06
17 0.14
18 0.06
2 -0.57
22 -0.29
26 0.28
28 0.06
3 -0.65
30 0.45
33 0.66
36 0.71
37 -0.14
38 -0.28
39 0.14
4 -0.57
40 0.14
5 -0.57
59 0.15
8 0.14
85 0.5
86 0.15

> <PUBCHEM_EFFECTIVE_ROTOR_COUNT>
6.4

> <PUBCHEM_PHARMACOPHORE_FEATURES>
13
1 2 acceptor
1 3 acceptor
1 4 acceptor
1 5 acceptor
3 18 31 32 hydrophobe
3 27 34 35 hydrophobe
3 3 4 33 anion
3 38 39 40 hydrophobe
6 13 15 24 26 27 29 rings
6 6 7 8 12 17 22 rings
6 6 7 9 10 11 14 rings
6 8 12 13 15 16 20 rings
6 9 10 18 19 28 30 rings

> <PUBCHEM_HEAVY_ATOM_COUNT>
40

> <PUBCHEM_ATOM_DEF_STEREO_COUNT>
8

> <PUBCHEM_ATOM_UDEF_STEREO_COUNT>
0

> <PUBCHEM_BOND_DEF_STEREO_COUNT>
0

> <PUBCHEM_BOND_UDEF_STEREO_COUNT>
0

> <PUBCHEM_ISOTOPIC_ATOM_COUNT>
0

> <PUBCHEM_COMPONENT_COUNT>
1

> <PUBCHEM_CACTVS_TAUTO_COUNT>
2

> <PUBCHEM_CONFORMER_ID>
00ED6D8D00000003

> <PUBCHEM_MMFF94_ENERGY>
168.1474

> <PUBCHEM_FEATURE_SELFOVERLAP>
66.112

> <PUBCHEM_SHAPE_FINGERPRINT>
11135926 11 17989205920000351951
11331351 85 16917347039195309896
117089 54 17977104879878493427
11828532 37 17917152813828798878
12107698 1 17530959198711732045
12166972 35 18201721781858392072
12236239 1 18412259553815099488
12422481 6 18201716216091914007
13383668 40 16127544656877008757
13533116 47 17967807228278130915
13782708 43 15195278780813750934
13811026 1 17704351061372392168
14068700 675 18341617001784730776
14118638 360 17603579695030633356
14294032 229 17915754072194222913
14856354 85 18341330085426925455
15183329 4 18343294877939320801
15328829 1 18411136947989780844
15361156 5 16805609209104358603
15439362 3 17899986221017244924
15461852 350 14129064741967488507
1577012 14 18335698313464375697
15849732 13 18343584049133715300
18608769 82 17917712409180666551
18681886 176 18201997755329610440
19841028 212 18058456409688318662
20105231 36 18410581699256463603
2026 5 17559684945569092022
21033648 29 15912748588239475906
21267235 1 18273498982934265505
21792938 703 16153719764734346011
23522609 53 18338819865657432265
23559900 14 17346308349523876080
23569943 247 18194969531071781490
23576562 1 15937552517904848551
24771750 20 15648772394750444278
3004659 81 18343017808987314673
3418910 222 15719401603098945423
350125 39 18412538812979133905
4073 2 17896038917894758115
4098825 35 17458900435993864556
4258327 124 15285936783300364638
44880168 125 17132108039572219254
504579 68 18260548909571517318
5104073 3 18129934681208819051
6086070 43 17916850427389670237

> <PUBCHEM_SHAPE_MULTIPOLES>
793.83
22.71
2.39
1.98
2.39
0.06
0.34
-8.43
-5.46
0.16
-0.04
1.81
-0.49
-0.6

> <PUBCHEM_SHAPE_SELFOVERLAP>
1686.463

> <PUBCHEM_SHAPE_VOLUME>
436.9

> <PUBCHEM_COORDINATE_TYPE>
2
5
10

$$$$
