91895465
  -OEChem-11202004463D

 93 98  0     1  0  0  0  0  0999 V2000
   -5.9313    1.1609   -1.7263 O   0  0  0  0  0  0  0  0  0  0  0  0
   -8.1039    0.3871   -1.3266 O   0  0  0  0  0  0  0  0  0  0  0  0
    4.7426    0.5220   -0.1899 O   0  0  0  0  0  0  0  0  0  0  0  0
    2.8904    2.4147    1.3770 O   0  0  0  0  0  0  0  0  0  0  0  0
    1.7296    2.0298   -0.5466 O   0  0  0  0  0  0  0  0  0  0  0  0
    6.5601    0.8552    1.1837 O   0  0  0  0  0  0  0  0  0  0  0  0
   -4.1788   -0.2126   -0.6236 C   0  0  2  0  0  0  0  0  0  0  0  0
   -1.9096    0.2433    0.7722 C   0  0  2  0  0  0  0  0  0  0  0  0
   -2.6448   -0.5052   -0.4007 C   0  0  2  0  0  0  0  0  0  0  0  0
   -4.9510   -0.1095    0.7326 C   0  0  2  0  0  0  0  0  0  0  0  0
   -0.4853   -0.5124    1.0422 C   0  0  1  0  0  0  0  0  0  0  0  0
   -6.4559    0.2799    0.4796 C   0  0  0  0  0  0  0  0  0  0  0  0
   -2.8160    0.2373    2.0309 C   0  0  0  0  0  0  0  0  0  0  0  0
   -4.2253    0.7614    1.7659 C   0  0  0  0  0  0  0  0  0  0  0  0
   -4.8112   -1.4217   -1.3880 C   0  0  0  0  0  0  0  0  0  0  0  0
   -6.7208    0.1643   -1.0572 C   0  0  2  0  0  0  0  0  0  0  0  0
   -4.5209    1.0278   -1.4827 C   0  0  0  0  0  0  0  0  0  0  0  0
    0.3032   -0.6188   -0.2831 C   0  0  0  0  0  0  0  0  0  0  0  0
   -1.8008   -0.4295   -1.6897 C   0  0  0  0  0  0  0  0  0  0  0  0
   -6.3017   -1.1952   -1.6265 C   0  0  0  0  0  0  0  0  0  0  0  0
    1.8323   -0.7418   -0.2716 C   0  0  1  0  0  0  0  0  0  0  0  0
    0.3277    0.2346    2.1430 C   0  0  0  0  0  0  0  0  0  0  0  0
    2.4969    0.1542    0.8026 C   0  0  1  0  0  0  0  0  0  0  0  0
   -1.6447    1.7371    0.4016 C   0  0  0  0  0  0  0  0  0  0  0  0
   -0.3241   -0.5830   -1.4764 C   0  0  0  0  0  0  0  0  0  0  0  0
    1.8286   -0.0836    2.1728 C   0  0  0  0  0  0  0  0  0  0  0  0
   -0.6982   -1.9675    1.5602 C   0  0  0  0  0  0  0  0  0  0  0  0
   -6.8148    1.7136    0.9490 C   0  0  0  0  0  0  0  0  0  0  0  0
   -7.3643   -0.6779    1.2859 C   0  0  0  0  0  0  0  0  0  0  0  0
    2.2597   -2.2252   -0.1750 C   0  0  0  0  0  0  0  0  0  0  0  0
    4.0297   -0.0840    0.8918 C   0  0  1  0  0  0  0  0  0  0  0  0
    3.7844   -2.4580   -0.1315 C   0  0  0  0  0  0  0  0  0  0  0  0
    4.4216   -1.5634    0.9567 C   0  0  0  0  0  0  0  0  0  0  0  0
    2.3135    1.6177    0.4446 C   0  0  0  0  0  0  0  0  0  0  0  0
    4.0501   -3.9333    0.2440 C   0  0  0  0  0  0  0  0  0  0  0  0
    4.4100   -2.2296   -1.5201 C   0  0  0  0  0  0  0  0  0  0  0  0
    6.0032    0.9477    0.0990 C   0  0  0  0  0  0  0  0  0  0  0  0
    6.6132    1.5596   -1.1205 C   0  0  0  0  0  0  0  0  0  0  0  0
    5.9149    2.7238   -1.7581 C   0  0  0  0  0  0  0  0  0  0  0  0
    7.7434    0.9802   -1.5655 C   0  0  0  0  0  0  0  0  0  0  0  0
    8.4483   -0.2002   -0.9758 C   0  0  0  0  0  0  0  0  0  0  0  0
   -2.6389   -1.5633   -0.1075 H   0  0  0  0  0  0  0  0  0  0  0  0
   -4.9444   -1.1245    1.1601 H   0  0  0  0  0  0  0  0  0  0  0  0
   -2.3623    0.8356    2.8300 H   0  0  0  0  0  0  0  0  0  0  0  0
   -2.9296   -0.7731    2.4319 H   0  0  0  0  0  0  0  0  0  0  0  0
   -4.7768    0.7352    2.7138 H   0  0  0  0  0  0  0  0  0  0  0  0
   -4.1841    1.8092    1.4549 H   0  0  0  0  0  0  0  0  0  0  0  0
   -4.6718   -2.3539   -0.8262 H   0  0  0  0  0  0  0  0  0  0  0  0
   -4.3198   -1.5711   -2.3564 H   0  0  0  0  0  0  0  0  0  0  0  0
   -4.2066    1.9613   -1.0179 H   0  0  0  0  0  0  0  0  0  0  0  0
   -4.0485    0.9804   -2.4682 H   0  0  0  0  0  0  0  0  0  0  0  0
   -1.9482    0.5301   -2.1956 H   0  0  0  0  0  0  0  0  0  0  0  0
   -2.1216   -1.2104   -2.3877 H   0  0  0  0  0  0  0  0  0  0  0  0
   -6.4927   -1.2186   -2.7077 H   0  0  0  0  0  0  0  0  0  0  0  0
   -6.8984   -2.0130   -1.2083 H   0  0  0  0  0  0  0  0  0  0  0  0
    2.1967   -0.3881   -1.2475 H   0  0  0  0  0  0  0  0  0  0  0  0
   -0.0921    0.0070    3.1316 H   0  0  0  0  0  0  0  0  0  0  0  0
    0.2394    1.3179    2.0405 H   0  0  0  0  0  0  0  0  0  0  0  0
   -0.8673    1.8603   -0.3547 H   0  0  0  0  0  0  0  0  0  0  0  0
   -1.3501    2.3278    1.2749 H   0  0  0  0  0  0  0  0  0  0  0  0
   -2.5304    2.2338    0.0124 H   0  0  0  0  0  0  0  0  0  0  0  0
    0.2655   -0.6497   -2.3885 H   0  0  0  0  0  0  0  0  0  0  0  0
    2.2921    0.5376    2.9503 H   0  0  0  0  0  0  0  0  0  0  0  0
    1.9775   -1.1175    2.5020 H   0  0  0  0  0  0  0  0  0  0  0  0
   -1.3768   -2.0155    2.4141 H   0  0  0  0  0  0  0  0  0  0  0  0
   -1.0798   -2.6407    0.7861 H   0  0  0  0  0  0  0  0  0  0  0  0
    0.2282   -2.4135    1.9286 H   0  0  0  0  0  0  0  0  0  0  0  0
   -6.7110    1.8221    2.0341 H   0  0  0  0  0  0  0  0  0  0  0  0
   -6.1866    2.4739    0.4748 H   0  0  0  0  0  0  0  0  0  0  0  0
   -7.8560    1.9590    0.7098 H   0  0  0  0  0  0  0  0  0  0  0  0
   -7.1971   -1.7256    1.0170 H   0  0  0  0  0  0  0  0  0  0  0  0
   -7.1692   -0.5849    2.3607 H   0  0  0  0  0  0  0  0  0  0  0  0
   -8.4254   -0.4591    1.1242 H   0  0  0  0  0  0  0  0  0  0  0  0
    1.8326   -2.6780    0.7224 H   0  0  0  0  0  0  0  0  0  0  0  0
    1.8284   -2.7829   -1.0179 H   0  0  0  0  0  0  0  0  0  0  0  0
    4.3701    0.3772    1.8301 H   0  0  0  0  0  0  0  0  0  0  0  0
    5.5128   -1.6699    0.9099 H   0  0  0  0  0  0  0  0  0  0  0  0
    4.1241   -1.9453    1.9425 H   0  0  0  0  0  0  0  0  0  0  0  0
   -8.3232   -0.0339   -2.1744 H   0  0  0  0  0  0  0  0  0  0  0  0
    5.1250   -4.1439    0.2814 H   0  0  0  0  0  0  0  0  0  0  0  0
    3.6000   -4.6152   -0.4866 H   0  0  0  0  0  0  0  0  0  0  0  0
    3.6297   -4.1780    1.2261 H   0  0  0  0  0  0  0  0  0  0  0  0
    5.4972   -2.3640   -1.4881 H   0  0  0  0  0  0  0  0  0  0  0  0
    4.2133   -1.2269   -1.9081 H   0  0  0  0  0  0  0  0  0  0  0  0
    4.0100   -2.9398   -2.2531 H   0  0  0  0  0  0  0  0  0  0  0  0
    2.7837    3.3657    1.1622 H   0  0  0  0  0  0  0  0  0  0  0  0
    4.9270    2.4278   -2.1250 H   0  0  0  0  0  0  0  0  0  0  0  0
    5.7882    3.5330   -1.0318 H   0  0  0  0  0  0  0  0  0  0  0  0
    6.4840    3.1194   -2.6057 H   0  0  0  0  0  0  0  0  0  0  0  0
    8.2159    1.4013   -2.4511 H   0  0  0  0  0  0  0  0  0  0  0  0
    9.3526    0.1269   -0.4540 H   0  0  0  0  0  0  0  0  0  0  0  0
    8.7510   -0.8765   -1.7826 H   0  0  0  0  0  0  0  0  0  0  0  0
    7.8369   -0.7887   -0.2880 H   0  0  0  0  0  0  0  0  0  0  0  0
  1 16  1  0  0  0  0
  1 17  1  0  0  0  0
  2 16  1  0  0  0  0
  2 79  1  0  0  0  0
  3 31  1  0  0  0  0
  3 37  1  0  0  0  0
  4 34  1  0  0  0  0
  4 86  1  0  0  0  0
  5 34  2  0  0  0  0
  6 37  2  0  0  0  0
  7  9  1  0  0  0  0
  7 10  1  0  0  0  0
  7 15  1  0  0  0  0
  7 17  1  0  0  0  0
  8  9  1  0  0  0  0
  8 11  1  0  0  0  0
  8 13  1  0  0  0  0
  8 24  1  0  0  0  0
  9 19  1  0  0  0  0
  9 42  1  0  0  0  0
 10 12  1  0  0  0  0
 10 14  1  0  0  0  0
 10 43  1  0  0  0  0
 11 18  1  0  0  0  0
 11 22  1  0  0  0  0
 11 27  1  0  0  0  0
 12 16  1  0  0  0  0
 12 28  1  0  0  0  0
 12 29  1  0  0  0  0
 13 14  1  0  0  0  0
 13 44  1  0  0  0  0
 13 45  1  0  0  0  0
 14 46  1  0  0  0  0
 14 47  1  0  0  0  0
 15 20  1  0  0  0  0
 15 48  1  0  0  0  0
 15 49  1  0  0  0  0
 16 20  1  0  0  0  0
 17 50  1  0  0  0  0
 17 51  1  0  0  0  0
 18 21  1  0  0  0  0
 18 25  2  0  0  0  0
 19 25  1  0  0  0  0
 19 52  1  0  0  0  0
 19 53  1  0  0  0  0
 20 54  1  0  0  0  0
 20 55  1  0  0  0  0
 21 23  1  0  0  0  0
 21 30  1  0  0  0  0
 21 56  1  0  0  0  0
 22 26  1  0  0  0  0
 22 57  1  0  0  0  0
 22 58  1  0  0  0  0
 23 26  1  0  0  0  0
 23 31  1  0  0  0  0
 23 34  1  0  0  0  0
 24 59  1  0  0  0  0
 24 60  1  0  0  0  0
 24 61  1  0  0  0  0
 25 62  1  0  0  0  0
 26 63  1  0  0  0  0
 26 64  1  0  0  0  0
 27 65  1  0  0  0  0
 27 66  1  0  0  0  0
 27 67  1  0  0  0  0
 28 68  1  0  0  0  0
 28 71  1  0  0  0  0
 28 72  1  0  0  0  0
 29 69  1  0  0  0  0
 29 70  1  0  0  0  0
 29 73  1  0  0  0  0
 30 32  1  0  0  0  0
 30 74  1  0  0  0  0
 30 75  1  0  0  0  0
 31 33  1  0  0  0  0
 31 76  1  0  0  0  0
 32 33  1  0  0  0  0
 32 35  1  0  0  0  0
 32 36  1  0  0  0  0
 33 77  1  0  0  0  0
 33 78  1  0  0  0  0
 35 80  1  0  0  0  0
 35 81  1  0  0  0  0
 35 82  1  0  0  0  0
 36 83  1  0  0  0  0
 36 84  1  0  0  0  0
 36 85  1  0  0  0  0
 37 38  1  0  0  0  0
 38 39  1  0  0  0  0
 38 40  2  0  0  0  0
 39 87  1  0  0  0  0
 39 88  1  0  0  0  0
 39 89  1  0  0  0  0
 40 41  1  0  0  0  0
 40 90  1  0  0  0  0
 41 91  1  0  0  0  0
 41 92  1  0  0  0  0
 41 93  1  0  0  0  0
M  END
> <PUBCHEM_COMPOUND_CID>
91895465

> <PUBCHEM_CONFORMER_RMSD>
1

> <PUBCHEM_CONFORMER_DIVERSEORDER>
1
6
2
5
3
4

> <PUBCHEM_MMFF94_PARTIAL_CHARGES>
25
1 -0.56
11 0.14
16 0.56
17 0.28
18 -0.28
19 0.14
2 -0.68
21 0.14
23 0.06
25 -0.29
3 -0.43
31 0.28
34 0.66
37 0.71
38 -0.12
39 0.14
4 -0.65
40 -0.29
41 0.14
5 -0.57
6 -0.57
62 0.15
79 0.4
86 0.5
90 0.15

> <PUBCHEM_EFFECTIVE_ROTOR_COUNT>
6.8

> <PUBCHEM_PHARMACOPHORE_FEATURES>
16
1 1 acceptor
1 2 acceptor
1 2 donor
1 39 hydrophobe
1 4 acceptor
1 41 hydrophobe
1 5 acceptor
1 6 acceptor
3 12 28 29 hydrophobe
3 32 35 36 hydrophobe
3 4 5 34 anion
6 11 18 21 22 23 26 rings
6 21 23 30 31 32 33 rings
6 7 8 9 10 13 14 rings
6 8 9 11 18 19 25 rings
8 1 7 10 12 15 16 17 20 rings

> <PUBCHEM_HEAVY_ATOM_COUNT>
41

> <PUBCHEM_ATOM_DEF_STEREO_COUNT>
9

> <PUBCHEM_ATOM_UDEF_STEREO_COUNT>
0

> <PUBCHEM_BOND_DEF_STEREO_COUNT>
1

> <PUBCHEM_BOND_UDEF_STEREO_COUNT>
0

> <PUBCHEM_ISOTOPIC_ATOM_COUNT>
0

> <PUBCHEM_COMPONENT_COUNT>
1

> <PUBCHEM_CACTVS_TAUTO_COUNT>
1

> <PUBCHEM_CONFORMER_ID>
057A36A900000001

> <PUBCHEM_MMFF94_ENERGY>
173.7134

> <PUBCHEM_FEATURE_SELFOVERLAP>
81.381

> <PUBCHEM_SHAPE_FINGERPRINT>
10 15 14418130725265454988
10673678 19 18261398914186387260
11828532 37 15912760717253350710
12236239 1 17989202621380994163
12539765 74 16588033429153469314
13533116 47 18343298132981745210
13540713 5 17843134610560109306
13782708 43 17823696374262756363
13811026 1 17676483917585999966
14068700 675 17275393097166254528
14118638 360 18272371931992239472
14294032 229 16486151487374528873
14856354 85 17988640840096319759
15131766 46 17170407475181721676
15183329 4 17775844614745994259
15328829 1 17988928881234240676
15352257 5 13542466475123549012
15361156 5 18408602595875068759
15439362 3 17910388717781420224
15461852 350 17022907890766302019
1577012 14 17846499201940066427
16090146 7 16486707968532552222
18608769 82 17968664929363722243
18681886 176 16486972916928125826
20105231 36 17060341868415434431
2026 5 14189312421778059628
21033648 29 17531239608372892921
21033650 10 16199889288191079547
21792964 463 18267888132196635688
23522609 53 17916326986022929617
23559900 14 18343575257520425899
23576562 1 18044095880514622700
24771293 8 16370724824908712775
24771750 20 17535768599641553188
255183 451 18054797183567484566
3004659 81 16988560212412832617
3383291 50 14476966696490616180
3418910 222 17749122088340118997
34797466 226 18113616768320466419
350125 39 17632292359264349257
394071 54 17894918442468384756
4073 2 18334015012422919971
4093350 32 18113620071377281118
4098825 35 18336829688921686004
4112364 45 14924238170099938462
44880568 143 17895750691535602029
504579 68 17917712391963672628
59521660 218 18334580101939824454
9831232 110 12823298996491958036

> <PUBCHEM_SHAPE_MULTIPOLES>
808.54
21.95
2.51
2.04
1.76
1.11
0.15
-5.64
-7.94
-4.29
-0.29
0.95
-0.2
-1.13

> <PUBCHEM_SHAPE_SELFOVERLAP>
1740.3

> <PUBCHEM_SHAPE_VOLUME>
435.5

> <PUBCHEM_COORDINATE_TYPE>
2
5
10

$$$$
