101297577
  -OEChem-11202007103D

 80 85  0     1  0  0  0  0  0999 V2000
    4.8159    0.0476   -1.7205 O   0  0  0  0  0  0  0  0  0  0  0  0
    6.8276    0.6838   -0.7067 O   0  0  0  0  0  0  0  0  0  0  0  0
   -4.4873   -2.9527   -0.8752 O   0  0  0  0  0  0  0  0  0  0  0  0
   -3.3703   -1.5136   -2.2454 O   0  0  0  0  0  0  0  0  0  0  0  0
    2.8196    0.4892   -0.3096 C   0  0  2  0  0  0  0  0  0  0  0  0
    0.5501   -0.8183    0.3580 C   0  0  2  0  0  0  0  0  0  0  0  0
    1.2485    0.4882   -0.1731 C   0  0  2  0  0  0  0  0  0  0  0  0
    3.5083   -0.2287    0.8969 C   0  0  2  0  0  0  0  0  0  0  0  0
   -0.9860   -0.4476    0.7852 C   0  0  1  0  0  0  0  0  0  0  0  0
    5.0654   -0.3045    0.6747 C   0  0  0  0  0  0  0  0  0  0  0  0
    1.3595   -1.3682    1.5614 C   0  0  0  0  0  0  0  0  0  0  0  0
    2.8429   -1.5626    1.2576 C   0  0  0  0  0  0  0  0  0  0  0  0
    3.3240    1.9697   -0.2705 C   0  0  0  0  0  0  0  0  0  0  0  0
    5.4123    0.6145   -0.5424 C   0  0  2  0  0  0  0  0  0  0  0  0
    3.3887   -0.0931   -1.6248 C   0  0  0  0  0  0  0  0  0  0  0  0
   -1.6818    0.3730   -0.3197 C   0  0  0  0  0  0  0  0  0  0  0  0
    0.5153    0.9970   -1.4282 C   0  0  0  0  0  0  0  0  0  0  0  0
    4.8446    2.0297   -0.3913 C   0  0  0  0  0  0  0  0  0  0  0  0
   -3.2149    0.4946   -0.3517 C   0  0  1  0  0  0  0  0  0  0  0  0
   -1.7971   -1.7490    1.0546 C   0  0  0  0  0  0  0  0  0  0  0  0
   -3.9419   -0.8341    0.0197 C   0  0  1  0  0  0  0  0  0  0  0  0
    0.5350   -1.9238   -0.7415 C   0  0  0  0  0  0  0  0  0  0  0  0
   -0.9770    0.9732   -1.3011 C   0  0  0  0  0  0  0  0  0  0  0  0
   -3.2992   -1.5337    1.2325 C   0  0  0  0  0  0  0  0  0  0  0  0
   -1.0145    0.3960    2.0919 C   0  0  0  0  0  0  0  0  0  0  0  0
   -3.8265    1.6897    0.4457 C   0  0  2  0  0  0  0  0  0  0  0  0
    5.7798    0.1661    1.9634 C   0  0  0  0  0  0  0  0  0  0  0  0
    5.5840   -1.7380    0.3919 C   0  0  0  0  0  0  0  0  0  0  0  0
   -5.4468   -0.6183    0.3252 C   0  0  0  0  0  0  0  0  0  0  0  0
   -5.3213    1.8996    0.0492 C   0  0  1  0  0  0  0  0  0  0  0  0
   -6.0099    0.5980   -0.3992 C   0  0  0  0  0  0  0  0  0  0  0  0
   -3.8848   -1.7743   -1.1680 C   0  0  0  0  0  0  0  0  0  0  0  0
   -3.0561    3.0052    0.2615 C   0  0  0  0  0  0  0  0  0  0  0  0
   -6.1061    2.5454    1.1995 C   0  0  0  0  0  0  0  0  0  0  0  0
    1.0658    1.2459    0.6001 H   0  0  0  0  0  0  0  0  0  0  0  0
    3.3355    0.4200    1.7702 H   0  0  0  0  0  0  0  0  0  0  0  0
    0.9401   -2.3229    1.8998 H   0  0  0  0  0  0  0  0  0  0  0  0
    1.3011   -0.6844    2.4141 H   0  0  0  0  0  0  0  0  0  0  0  0
    3.3198   -1.9752    2.1551 H   0  0  0  0  0  0  0  0  0  0  0  0
    2.9685   -2.3048    0.4640 H   0  0  0  0  0  0  0  0  0  0  0  0
    3.0147    2.4625    0.6598 H   0  0  0  0  0  0  0  0  0  0  0  0
    2.8846    2.5541   -1.0871 H   0  0  0  0  0  0  0  0  0  0  0  0
    3.1854   -1.1571   -1.7367 H   0  0  0  0  0  0  0  0  0  0  0  0
    2.9747    0.4113   -2.5030 H   0  0  0  0  0  0  0  0  0  0  0  0
    0.7793    0.4041   -2.3101 H   0  0  0  0  0  0  0  0  0  0  0  0
    0.8140    2.0296   -1.6381 H   0  0  0  0  0  0  0  0  0  0  0  0
    5.1041    2.6292   -1.2741 H   0  0  0  0  0  0  0  0  0  0  0  0
    5.2889    2.5577    0.4593 H   0  0  0  0  0  0  0  0  0  0  0  0
   -3.4708    0.7224   -1.3992 H   0  0  0  0  0  0  0  0  0  0  0  0
   -1.4107   -2.2520    1.9496 H   0  0  0  0  0  0  0  0  0  0  0  0
   -1.6837   -2.4648    0.2359 H   0  0  0  0  0  0  0  0  0  0  0  0
   -0.1966   -1.7243   -1.5302 H   0  0  0  0  0  0  0  0  0  0  0  0
    0.2986   -2.9057   -0.3161 H   0  0  0  0  0  0  0  0  0  0  0  0
    1.4968   -2.0493   -1.2316 H   0  0  0  0  0  0  0  0  0  0  0  0
   -1.5068    1.5144   -2.0824 H   0  0  0  0  0  0  0  0  0  0  0  0
   -3.7684   -2.5071    1.4249 H   0  0  0  0  0  0  0  0  0  0  0  0
   -3.4748   -0.9471    2.1421 H   0  0  0  0  0  0  0  0  0  0  0  0
   -0.6564   -0.1784    2.9522 H   0  0  0  0  0  0  0  0  0  0  0  0
   -2.0213    0.7165    2.3640 H   0  0  0  0  0  0  0  0  0  0  0  0
   -0.4164    1.3081    2.0210 H   0  0  0  0  0  0  0  0  0  0  0  0
   -3.7964    1.4467    1.5140 H   0  0  0  0  0  0  0  0  0  0  0  0
    5.5279   -0.4867    2.8074 H   0  0  0  0  0  0  0  0  0  0  0  0
    6.8692    0.1503    1.8494 H   0  0  0  0  0  0  0  0  0  0  0  0
    5.4907    1.1835    2.2448 H   0  0  0  0  0  0  0  0  0  0  0  0
    5.0968   -2.1910   -0.4770 H   0  0  0  0  0  0  0  0  0  0  0  0
    6.6621   -1.7365    0.1941 H   0  0  0  0  0  0  0  0  0  0  0  0
    5.4253   -2.4019    1.2486 H   0  0  0  0  0  0  0  0  0  0  0  0
   -6.0622   -1.4884    0.0699 H   0  0  0  0  0  0  0  0  0  0  0  0
   -5.5953   -0.4670    1.4028 H   0  0  0  0  0  0  0  0  0  0  0  0
   -5.3735    2.5936   -0.8009 H   0  0  0  0  0  0  0  0  0  0  0  0
   -5.8707    0.4673   -1.4801 H   0  0  0  0  0  0  0  0  0  0  0  0
   -7.0933    0.6578   -0.2416 H   0  0  0  0  0  0  0  0  0  0  0  0
    7.0414    1.5013   -1.1863 H   0  0  0  0  0  0  0  0  0  0  0  0
   -2.0358    2.9297    0.6491 H   0  0  0  0  0  0  0  0  0  0  0  0
   -3.5354    3.8265    0.8030 H   0  0  0  0  0  0  0  0  0  0  0  0
   -3.0042    3.2890   -0.7949 H   0  0  0  0  0  0  0  0  0  0  0  0
   -6.1218    1.8992    2.0835 H   0  0  0  0  0  0  0  0  0  0  0  0
   -7.1434    2.7341    0.9022 H   0  0  0  0  0  0  0  0  0  0  0  0
   -5.6720    3.5062    1.4910 H   0  0  0  0  0  0  0  0  0  0  0  0
   -4.4610   -3.5755   -1.6325 H   0  0  0  0  0  0  0  0  0  0  0  0
  1 14  1  0  0  0  0
  1 15  1  0  0  0  0
  2 14  1  0  0  0  0
  2 73  1  0  0  0  0
  3 32  1  0  0  0  0
  3 80  1  0  0  0  0
  4 32  2  0  0  0  0
  5  7  1  0  0  0  0
  5  8  1  0  0  0  0
  5 13  1  0  0  0  0
  5 15  1  0  0  0  0
  6  7  1  0  0  0  0
  6  9  1  0  0  0  0
  6 11  1  0  0  0  0
  6 22  1  0  0  0  0
  7 17  1  0  0  0  0
  7 35  1  0  0  0  0
  8 10  1  0  0  0  0
  8 12  1  0  0  0  0
  8 36  1  0  0  0  0
  9 16  1  0  0  0  0
  9 20  1  0  0  0  0
  9 25  1  0  0  0  0
 10 14  1  0  0  0  0
 10 27  1  0  0  0  0
 10 28  1  0  0  0  0
 11 12  1  0  0  0  0
 11 37  1  0  0  0  0
 11 38  1  0  0  0  0
 12 39  1  0  0  0  0
 12 40  1  0  0  0  0
 13 18  1  0  0  0  0
 13 41  1  0  0  0  0
 13 42  1  0  0  0  0
 14 18  1  0  0  0  0
 15 43  1  0  0  0  0
 15 44  1  0  0  0  0
 16 19  1  0  0  0  0
 16 23  2  0  0  0  0
 17 23  1  0  0  0  0
 17 45  1  0  0  0  0
 17 46  1  0  0  0  0
 18 47  1  0  0  0  0
 18 48  1  0  0  0  0
 19 21  1  0  0  0  0
 19 26  1  0  0  0  0
 19 49  1  0  0  0  0
 20 24  1  0  0  0  0
 20 50  1  0  0  0  0
 20 51  1  0  0  0  0
 21 24  1  0  0  0  0
 21 29  1  0  0  0  0
 21 32  1  0  0  0  0
 22 52  1  0  0  0  0
 22 53  1  0  0  0  0
 22 54  1  0  0  0  0
 23 55  1  0  0  0  0
 24 56  1  0  0  0  0
 24 57  1  0  0  0  0
 25 58  1  0  0  0  0
 25 59  1  0  0  0  0
 25 60  1  0  0  0  0
 26 30  1  0  0  0  0
 26 33  1  0  0  0  0
 26 61  1  0  0  0  0
 27 62  1  0  0  0  0
 27 63  1  0  0  0  0
 27 64  1  0  0  0  0
 28 65  1  0  0  0  0
 28 66  1  0  0  0  0
 28 67  1  0  0  0  0
 29 31  1  0  0  0  0
 29 68  1  0  0  0  0
 29 69  1  0  0  0  0
 30 31  1  0  0  0  0
 30 34  1  0  0  0  0
 30 70  1  0  0  0  0
 31 71  1  0  0  0  0
 31 72  1  0  0  0  0
 33 74  1  0  0  0  0
 33 75  1  0  0  0  0
 33 76  1  0  0  0  0
 34 77  1  0  0  0  0
 34 78  1  0  0  0  0
 34 79  1  0  0  0  0
M  END
> <PUBCHEM_COMPOUND_CID>
101297577

> <PUBCHEM_CONFORMER_RMSD>
0.8

> <PUBCHEM_CONFORMER_DIVERSEORDER>
1

> <PUBCHEM_MMFF94_PARTIAL_CHARGES>
16
1 -0.56
14 0.56
15 0.28
16 -0.28
17 0.14
19 0.14
2 -0.68
21 0.06
23 -0.29
3 -0.65
32 0.66
4 -0.57
55 0.15
73 0.4
80 0.5
9 0.14

> <PUBCHEM_EFFECTIVE_ROTOR_COUNT>
3.8

> <PUBCHEM_PHARMACOPHORE_FEATURES>
12
1 1 acceptor
1 2 acceptor
1 2 donor
1 3 acceptor
1 4 acceptor
3 10 27 28 hydrophobe
3 3 4 32 anion
6 19 21 26 29 30 31 rings
6 5 6 7 8 11 12 rings
6 6 7 9 16 17 23 rings
6 9 16 19 20 21 24 rings
8 1 5 8 10 13 14 15 18 rings

> <PUBCHEM_HEAVY_ATOM_COUNT>
34

> <PUBCHEM_ATOM_DEF_STEREO_COUNT>
10

> <PUBCHEM_ATOM_UDEF_STEREO_COUNT>
0

> <PUBCHEM_BOND_DEF_STEREO_COUNT>
0

> <PUBCHEM_BOND_UDEF_STEREO_COUNT>
0

> <PUBCHEM_ISOTOPIC_ATOM_COUNT>
0

> <PUBCHEM_COMPONENT_COUNT>
1

> <PUBCHEM_CACTVS_TAUTO_COUNT>
1

> <PUBCHEM_CONFORMER_ID>
0609ADA900000001

> <PUBCHEM_MMFF94_ENERGY>
152.761

> <PUBCHEM_FEATURE_SELFOVERLAP>
61.061

> <PUBCHEM_SHAPE_FINGERPRINT>
10595046 47 18338515347478707382
10906281 52 17822307768000579962
11578080 2 17702402658143247149
12107183 9 17686332075484443320
12166972 35 17386007320625001861
12236239 1 18335138682961368355
12422481 6 18041277651786783750
12616971 3 17894628136701017006
12633257 1 17676482826843577288
12788726 201 18271810056150271465
13224815 77 17676204680318801550
13583140 156 16917060070865243095
13690498 29 17773589606834832887
13782708 43 16629951235629697079
14394314 77 18187088325891605077
14790565 3 18187366502126586433
14840074 17 17240488000323462639
14849402 71 18261111924493462132
14856354 85 18342738546430568791
15131766 46 15866358045390904221
15183329 4 18333448746326698401
1577012 14 18186801379267898840
15788980 27 18342738533023387910
15840311 113 18118693106854964457
17349148 13 17167579388701857468
17844677 252 18343025527202093344
17980427 23 18187651327172656741
1813 80 14045747040353585096
18393751 57 16115962788734301601
20511986 3 18260536810701372525
21033648 144 16951129615620524076
21033648 29 17274812541466321896
21033650 10 18196959715367494708
21236236 1 18408042922686061045
21792961 116 16056610829265755780
22393880 68 18272087222936569329
23402539 116 18334572464743537183
23522609 53 17969526873281403732
23559900 14 17988088781236027190
23569914 152 14399587221351358597
23569943 247 17387401342487199506
24771293 8 18188206624323200420
25147074 1 18187355511157895011
3004659 81 17748827398143825362
34797466 226 17988934400082677652
350125 39 18113898247592326292
3610482 184 18188511136549211333
3633792 109 17968643940454281941
3680242 22 17313384509107015936
404807 14 17189263690574483251
4073 2 18041005098047912826
5104073 3 17821729472424474808
57724786 102 17095537231019433292
59755656 520 17385444319617081379
6086070 43 18341603841297690449

> <PUBCHEM_SHAPE_MULTIPOLES>
676.23
15.42
2.54
1.66
4.6
0.28
-0.02
3.74
0.57
-2.58
0.05
0.33
-0.32
-1.92

> <PUBCHEM_SHAPE_SELFOVERLAP>
1464.448

> <PUBCHEM_SHAPE_VOLUME>
361.8

> <PUBCHEM_COORDINATE_TYPE>
2
5
10

$$$$
