16757445
  -OEChem-11202021253D

 60 63  0     1  0  0  0  0  0999 V2000
    0.4781   -0.2862    1.1999 O   0  0  0  0  0  0  0  0  0  0  0  0
    2.3780   -1.5367    0.7080 O   0  0  0  0  0  0  0  0  0  0  0  0
   -0.6740   -1.4493   -0.4626 O   0  0  0  0  0  0  0  0  0  0  0  0
   -1.2164   -1.4401    3.1506 O   0  0  0  0  0  0  0  0  0  0  0  0
   -3.8557   -2.1363    2.0416 O   0  0  0  0  0  0  0  0  0  0  0  0
   -3.5591   -3.7032   -0.3693 O   0  0  0  0  0  0  0  0  0  0  0  0
   -0.4322    2.3645    0.0814 O   0  0  0  0  0  0  0  0  0  0  0  0
   -0.3806   -2.6068   -2.9386 O   0  0  0  0  0  0  0  0  0  0  0  0
    6.5776    0.3429    0.0217 O   0  0  0  0  0  0  0  0  0  0  0  0
    6.2347   -1.7077   -0.9311 O   0  0  0  0  0  0  0  0  0  0  0  0
   -1.7517    3.7833    1.3246 O   0  0  0  0  0  0  0  0  0  0  0  0
    2.5025    0.9430    0.7898 C   0  0  2  0  0  0  0  0  0  0  0  0
    3.9228    0.9023    0.1802 C   0  0  2  0  0  0  0  0  0  0  0  0
    1.6837   -0.3121    0.4347 C   0  0  2  0  0  0  0  0  0  0  0  0
    3.8250    1.6810   -1.1405 C   0  0  0  0  0  0  0  0  0  0  0  0
    1.9451    2.1999    0.1667 C   0  0  0  0  0  0  0  0  0  0  0  0
    2.6715    2.5931   -0.8875 C   0  0  0  0  0  0  0  0  0  0  0  0
    4.4334   -0.4909    0.0304 C   0  0  0  0  0  0  0  0  0  0  0  0
   -0.3359   -1.4252    0.9222 C   0  0  2  0  0  0  0  0  0  0  0  0
   -1.5971   -1.3227    1.7799 C   0  0  1  0  0  0  0  0  0  0  0  0
   -2.5959   -2.4273    1.4344 C   0  0  2  0  0  0  0  0  0  0  0  0
   -2.8107   -2.5264   -0.0760 C   0  0  1  0  0  0  0  0  0  0  0  0
   -1.4703   -2.5826   -0.8126 C   0  0  1  0  0  0  0  0  0  0  0  0
    0.7360    2.8794    0.7025 C   0  0  0  0  0  0  0  0  0  0  0  0
    3.6882   -1.5629    0.3152 C   0  0  0  0  0  0  0  0  0  0  0  0
   -1.6568   -2.5638   -2.3266 C   0  0  0  0  0  0  0  0  0  0  0  0
    5.8271   -0.7138   -0.3561 C   0  0  0  0  0  0  0  0  0  0  0  0
   -1.6152    2.9061    0.4859 C   0  0  0  0  0  0  0  0  0  0  0  0
   -2.7546    2.2839   -0.2345 C   0  0  0  0  0  0  0  0  0  0  0  0
   -4.0002    2.1829    0.3853 C   0  0  0  0  0  0  0  0  0  0  0  0
   -2.5798    1.8008   -1.5315 C   0  0  0  0  0  0  0  0  0  0  0  0
   -5.0708    1.5986   -0.2915 C   0  0  0  0  0  0  0  0  0  0  0  0
   -3.6506    1.2166   -2.2083 C   0  0  0  0  0  0  0  0  0  0  0  0
   -4.8960    1.1156   -1.5882 C   0  0  0  0  0  0  0  0  0  0  0  0
    2.5762    1.0521    1.8796 H   0  0  0  0  0  0  0  0  0  0  0  0
    4.5771    1.4614    0.8663 H   0  0  0  0  0  0  0  0  0  0  0  0
    1.4337   -0.2957   -0.6354 H   0  0  0  0  0  0  0  0  0  0  0  0
    3.6201    1.0399   -2.0050 H   0  0  0  0  0  0  0  0  0  0  0  0
    4.7431    2.2461   -1.3301 H   0  0  0  0  0  0  0  0  0  0  0  0
    2.4491    3.4562   -1.4989 H   0  0  0  0  0  0  0  0  0  0  0  0
    0.2131   -2.3371    1.1910 H   0  0  0  0  0  0  0  0  0  0  0  0
   -2.0603   -0.3360    1.6647 H   0  0  0  0  0  0  0  0  0  0  0  0
   -2.2734   -3.3903    1.8472 H   0  0  0  0  0  0  0  0  0  0  0  0
   -3.4011   -1.6692   -0.4209 H   0  0  0  0  0  0  0  0  0  0  0  0
   -0.9141   -3.4931   -0.5510 H   0  0  0  0  0  0  0  0  0  0  0  0
    0.6786    2.7400    1.7886 H   0  0  0  0  0  0  0  0  0  0  0  0
    0.7995    3.9569    0.5051 H   0  0  0  0  0  0  0  0  0  0  0  0
    4.0480   -2.5831    0.3048 H   0  0  0  0  0  0  0  0  0  0  0  0
   -2.2404   -3.4231   -2.6702 H   0  0  0  0  0  0  0  0  0  0  0  0
   -2.1489   -1.6403   -2.6480 H   0  0  0  0  0  0  0  0  0  0  0  0
   -0.8043   -2.3120    3.2758 H   0  0  0  0  0  0  0  0  0  0  0  0
   -4.1611   -1.2759    1.7065 H   0  0  0  0  0  0  0  0  0  0  0  0
   -3.0376   -4.4710   -0.0792 H   0  0  0  0  0  0  0  0  0  0  0  0
   -0.5227   -2.5880   -3.9003 H   0  0  0  0  0  0  0  0  0  0  0  0
    7.5212    0.2306   -0.2216 H   0  0  0  0  0  0  0  0  0  0  0  0
   -4.1516    2.5508    1.3967 H   0  0  0  0  0  0  0  0  0  0  0  0
   -1.6234    1.8747   -2.0420 H   0  0  0  0  0  0  0  0  0  0  0  0
   -6.0401    1.5181    0.1917 H   0  0  0  0  0  0  0  0  0  0  0  0
   -3.5149    0.8410   -3.2183 H   0  0  0  0  0  0  0  0  0  0  0  0
   -5.7293    0.6597   -2.1148 H   0  0  0  0  0  0  0  0  0  0  0  0
  1 14  1  0  0  0  0
  1 19  1  0  0  0  0
  2 14  1  0  0  0  0
  2 25  1  0  0  0  0
  3 19  1  0  0  0  0
  3 23  1  0  0  0  0
  4 20  1  0  0  0  0
  4 51  1  0  0  0  0
  5 21  1  0  0  0  0
  5 52  1  0  0  0  0
  6 22  1  0  0  0  0
  6 53  1  0  0  0  0
  7 24  1  0  0  0  0
  7 28  1  0  0  0  0
  8 26  1  0  0  0  0
  8 54  1  0  0  0  0
  9 27  1  0  0  0  0
  9 55  1  0  0  0  0
 10 27  2  0  0  0  0
 11 28  2  0  0  0  0
 12 13  1  0  0  0  0
 12 14  1  0  0  0  0
 12 16  1  0  0  0  0
 12 35  1  0  0  0  0
 13 15  1  0  0  0  0
 13 18  1  0  0  0  0
 13 36  1  0  0  0  0
 14 37  1  0  0  0  0
 15 17  1  0  0  0  0
 15 38  1  0  0  0  0
 15 39  1  0  0  0  0
 16 17  2  0  0  0  0
 16 24  1  0  0  0  0
 17 40  1  0  0  0  0
 18 25  2  0  0  0  0
 18 27  1  0  0  0  0
 19 20  1  0  0  0  0
 19 41  1  0  0  0  0
 20 21  1  0  0  0  0
 20 42  1  0  0  0  0
 21 22  1  0  0  0  0
 21 43  1  0  0  0  0
 22 23  1  0  0  0  0
 22 44  1  0  0  0  0
 23 26  1  0  0  0  0
 23 45  1  0  0  0  0
 24 46  1  0  0  0  0
 24 47  1  0  0  0  0
 25 48  1  0  0  0  0
 26 49  1  0  0  0  0
 26 50  1  0  0  0  0
 28 29  1  0  0  0  0
 29 30  2  0  0  0  0
 29 31  1  0  0  0  0
 30 32  1  0  0  0  0
 30 56  1  0  0  0  0
 31 33  2  0  0  0  0
 31 57  1  0  0  0  0
 32 34  2  0  0  0  0
 32 58  1  0  0  0  0
 33 34  1  0  0  0  0
 33 59  1  0  0  0  0
 34 60  1  0  0  0  0
M  END
> <PUBCHEM_COMPOUND_CID>
16757445

> <PUBCHEM_CONFORMER_RMSD>
1

> <PUBCHEM_CONFORMER_DIVERSEORDER>
1
17
5
10
2
31
24
35
33
26
8
34
6
28
16
29
30
32
13
25
20
37
40
7
41
9
19
38
39
43
42
12
4
14
36
11
44
23
21
27
22
18
3
15

> <PUBCHEM_MMFF94_PARTIAL_CHARGES>
46
1 -0.56
10 -0.57
11 -0.57
12 0.14
13 0.14
14 0.56
15 0.14
16 -0.28
17 -0.29
18 -0.12
19 0.56
2 -0.36
20 0.28
21 0.28
22 0.28
23 0.28
24 0.42
25 -0.07
26 0.28
27 0.71
28 0.63
29 0.09
3 -0.56
30 -0.15
31 -0.15
32 -0.15
33 -0.15
34 -0.15
4 -0.68
40 0.15
48 0.15
5 -0.68
51 0.4
52 0.4
53 0.4
54 0.4
55 0.5
56 0.15
57 0.15
58 0.15
59 0.15
6 -0.68
60 0.15
7 -0.43
8 -0.68
9 -0.65

> <PUBCHEM_EFFECTIVE_ROTOR_COUNT>
9.8

> <PUBCHEM_PHARMACOPHORE_FEATURES>
19
1 1 acceptor
1 10 acceptor
1 11 acceptor
1 2 acceptor
1 3 acceptor
1 4 acceptor
1 4 donor
1 5 acceptor
1 5 donor
1 6 acceptor
1 6 donor
1 8 acceptor
1 8 donor
1 9 acceptor
3 9 10 27 anion
5 12 13 15 16 17 rings
6 2 12 13 14 18 25 rings
6 29 30 31 32 33 34 rings
6 3 19 20 21 22 23 rings

> <PUBCHEM_HEAVY_ATOM_COUNT>
34

> <PUBCHEM_ATOM_DEF_STEREO_COUNT>
8

> <PUBCHEM_ATOM_UDEF_STEREO_COUNT>
0

> <PUBCHEM_BOND_DEF_STEREO_COUNT>
0

> <PUBCHEM_BOND_UDEF_STEREO_COUNT>
0

> <PUBCHEM_ISOTOPIC_ATOM_COUNT>
0

> <PUBCHEM_COMPONENT_COUNT>
1

> <PUBCHEM_CACTVS_TAUTO_COUNT>
1

> <PUBCHEM_CONFORMER_ID>
00FFB2C500000001

> <PUBCHEM_MMFF94_ENERGY>
87.8662

> <PUBCHEM_FEATURE_SELFOVERLAP>
96.718

> <PUBCHEM_SHAPE_FINGERPRINT>
10119406 146 17977956687767333614
11578080 2 17558813208012964056
12107698 1 18334855073286113510
12156800 1 17753369536412496983
12422481 6 18191893278109611001
12788726 201 18057876953146436560
13583140 156 16733278849903867880
14279260 333 18260822645582046730
14674994 50 16629377277553666574
14713325 29 18342175557696237111
14931854 50 18263908978672776989
15297060 5 17917146092320882457
17492 54 18190443992655906445
17980427 23 14563392618549660413
20764821 26 18197808589899368861
20775438 99 16834824465730957343
21133410 90 17131548444605571193
23559900 14 18410288138563535744
3383291 50 18341324526710686903
4058900 60 17826507761339391605
463206 1 18409164398476623020
563151 248 16698946483251448105
70251023 43 17764858491961337119
7237137 82 18188786036374044556

> <PUBCHEM_SHAPE_MULTIPOLES>
635.14
11.03
4.56
2.07
12.35
0.09
0.21
-0.33
2.88
-4.06
0.03
-2.03
1.3
0.65

> <PUBCHEM_SHAPE_SELFOVERLAP>
1364.492

> <PUBCHEM_SHAPE_VOLUME>
343.8

> <PUBCHEM_COORDINATE_TYPE>
2
5
10

$$$$
