15714685
  -OEChem-11202021263D

 64 67  0     1  0  0  0  0  0999 V2000
   -0.0426    0.3545    1.2366 O   0  0  0  0  0  0  0  0  0  0  0  0
   -1.9127    1.6768    0.8190 O   0  0  0  0  0  0  0  0  0  0  0  0
    1.0494    1.4971   -0.4799 O   0  0  0  0  0  0  0  0  0  0  0  0
   -4.7510   -2.1302   -1.2592 O   0  0  0  0  0  0  0  0  0  0  0  0
    1.7849    1.4502    3.0988 O   0  0  0  0  0  0  0  0  0  0  0  0
    4.3786    2.0828    1.8526 O   0  0  0  0  0  0  0  0  0  0  0  0
    0.7017   -2.3465    0.1415 O   0  0  0  0  0  0  0  0  0  0  0  0
    3.9953    3.6725   -0.5311 O   0  0  0  0  0  0  0  0  0  0  0  0
   -6.2002   -0.0137    0.2403 O   0  0  0  0  0  0  0  0  0  0  0  0
    0.6547    2.6780   -2.9305 O   0  0  0  0  0  0  0  0  0  0  0  0
   -5.7787    2.0572   -0.7047 O   0  0  0  0  0  0  0  0  0  0  0  0
    1.9658   -3.8405    1.3537 O   0  0  0  0  0  0  0  0  0  0  0  0
   -2.1577   -0.8027    0.8943 C   0  0  2  0  0  0  0  0  0  0  0  0
   -3.5846   -0.6936    0.3075 C   0  0  2  0  0  0  0  0  0  0  0  0
   -1.2869    0.4178    0.5372 C   0  0  2  0  0  0  0  0  0  0  0  0
   -3.5277   -1.4483   -1.0325 C   0  0  1  0  0  0  0  0  0  0  0  0
   -1.6648   -2.0756    0.2505 C   0  0  0  0  0  0  0  0  0  0  0  0
   -2.4174   -2.4209   -0.8023 C   0  0  0  0  0  0  0  0  0  0  0  0
   -4.0302    0.7278    0.1858 C   0  0  0  0  0  0  0  0  0  0  0  0
    0.7858    1.4731    0.9210 C   0  0  2  0  0  0  0  0  0  0  0  0
    2.0880    1.3316    1.7090 C   0  0  1  0  0  0  0  0  0  0  0  0
    3.0963    2.4113    1.3156 C   0  0  2  0  0  0  0  0  0  0  0  0
    3.2321    2.5143   -0.2037 C   0  0  1  0  0  0  0  0  0  0  0  0
   -0.4834   -2.8165    0.7663 C   0  0  0  0  0  0  0  0  0  0  0  0
    1.8562    2.6110   -0.8667 C   0  0  1  0  0  0  0  0  0  0  0  0
   -3.2300    1.7623    0.4612 C   0  0  0  0  0  0  0  0  0  0  0  0
   -5.4223    1.0264   -0.1545 C   0  0  0  0  0  0  0  0  0  0  0  0
    1.9603    2.5969   -2.3885 C   0  0  0  0  0  0  0  0  0  0  0  0
    1.8622   -2.9467    0.5280 C   0  0  0  0  0  0  0  0  0  0  0  0
   -7.5991    0.1298   -0.0265 C   0  0  0  0  0  0  0  0  0  0  0  0
    3.0226   -2.3669   -0.1944 C   0  0  0  0  0  0  0  0  0  0  0  0
    4.2767   -2.3309    0.4154 C   0  0  0  0  0  0  0  0  0  0  0  0
    2.8590   -1.8587   -1.4832 C   0  0  0  0  0  0  0  0  0  0  0  0
    5.3669   -1.7865   -0.2632 C   0  0  0  0  0  0  0  0  0  0  0  0
    3.9494   -1.3145   -2.1618 C   0  0  0  0  0  0  0  0  0  0  0  0
    5.2034   -1.2784   -1.5518 C   0  0  0  0  0  0  0  0  0  0  0  0
   -2.2172   -0.9178    1.9841 H   0  0  0  0  0  0  0  0  0  0  0  0
   -4.2588   -1.2233    0.9978 H   0  0  0  0  0  0  0  0  0  0  0  0
   -1.0786    0.3928   -0.5420 H   0  0  0  0  0  0  0  0  0  0  0  0
   -3.3117   -0.7981   -1.8876 H   0  0  0  0  0  0  0  0  0  0  0  0
   -2.2359   -3.2839   -1.4275 H   0  0  0  0  0  0  0  0  0  0  0  0
    0.2788    2.3983    1.2247 H   0  0  0  0  0  0  0  0  0  0  0  0
    2.5176    0.3337    1.5642 H   0  0  0  0  0  0  0  0  0  0  0  0
    2.8227    3.3799    1.7499 H   0  0  0  0  0  0  0  0  0  0  0  0
    3.7799    1.6439   -0.5842 H   0  0  0  0  0  0  0  0  0  0  0  0
    1.3396    3.5343   -0.5709 H   0  0  0  0  0  0  0  0  0  0  0  0
   -0.4106   -2.6945    1.8536 H   0  0  0  0  0  0  0  0  0  0  0  0
   -0.5974   -3.8873    0.5554 H   0  0  0  0  0  0  0  0  0  0  0  0
   -3.5433    2.7979    0.4692 H   0  0  0  0  0  0  0  0  0  0  0  0
   -4.6601   -2.6292   -2.0891 H   0  0  0  0  0  0  0  0  0  0  0  0
    2.5477    3.4423   -2.7590 H   0  0  0  0  0  0  0  0  0  0  0  0
    2.4092    1.6621   -2.7400 H   0  0  0  0  0  0  0  0  0  0  0  0
    1.4043    2.3321    3.2505 H   0  0  0  0  0  0  0  0  0  0  0  0
    4.6420    1.2165    1.4977 H   0  0  0  0  0  0  0  0  0  0  0  0
    3.5111    4.4521   -0.2095 H   0  0  0  0  0  0  0  0  0  0  0  0
    0.7443    2.6614   -3.8986 H   0  0  0  0  0  0  0  0  0  0  0  0
   -8.1082   -0.7663    0.3382 H   0  0  0  0  0  0  0  0  0  0  0  0
   -7.7714    0.2182   -1.1035 H   0  0  0  0  0  0  0  0  0  0  0  0
   -7.9981    1.0008    0.5020 H   0  0  0  0  0  0  0  0  0  0  0  0
    4.4197   -2.7191    1.4204 H   0  0  0  0  0  0  0  0  0  0  0  0
    1.8958   -1.8821   -1.9860 H   0  0  0  0  0  0  0  0  0  0  0  0
    6.3430   -1.7567    0.2123 H   0  0  0  0  0  0  0  0  0  0  0  0
    3.8223   -0.9190   -3.1653 H   0  0  0  0  0  0  0  0  0  0  0  0
    6.0520   -0.8535   -2.0799 H   0  0  0  0  0  0  0  0  0  0  0  0
  1 15  1  0  0  0  0
  1 20  1  0  0  0  0
  2 15  1  0  0  0  0
  2 26  1  0  0  0  0
  3 20  1  0  0  0  0
  3 25  1  0  0  0  0
  4 16  1  0  0  0  0
  4 50  1  0  0  0  0
  5 21  1  0  0  0  0
  5 53  1  0  0  0  0
  6 22  1  0  0  0  0
  6 54  1  0  0  0  0
  7 24  1  0  0  0  0
  7 29  1  0  0  0  0
  8 23  1  0  0  0  0
  8 55  1  0  0  0  0
  9 27  1  0  0  0  0
  9 30  1  0  0  0  0
 10 28  1  0  0  0  0
 10 56  1  0  0  0  0
 11 27  2  0  0  0  0
 12 29  2  0  0  0  0
 13 14  1  0  0  0  0
 13 15  1  0  0  0  0
 13 17  1  0  0  0  0
 13 37  1  0  0  0  0
 14 16  1  0  0  0  0
 14 19  1  0  0  0  0
 14 38  1  0  0  0  0
 15 39  1  0  0  0  0
 16 18  1  0  0  0  0
 16 40  1  0  0  0  0
 17 18  2  0  0  0  0
 17 24  1  0  0  0  0
 18 41  1  0  0  0  0
 19 26  2  0  0  0  0
 19 27  1  0  0  0  0
 20 21  1  0  0  0  0
 20 42  1  0  0  0  0
 21 22  1  0  0  0  0
 21 43  1  0  0  0  0
 22 23  1  0  0  0  0
 22 44  1  0  0  0  0
 23 25  1  0  0  0  0
 23 45  1  0  0  0  0
 24 47  1  0  0  0  0
 24 48  1  0  0  0  0
 25 28  1  0  0  0  0
 25 46  1  0  0  0  0
 26 49  1  0  0  0  0
 28 51  1  0  0  0  0
 28 52  1  0  0  0  0
 29 31  1  0  0  0  0
 30 57  1  0  0  0  0
 30 58  1  0  0  0  0
 30 59  1  0  0  0  0
 31 32  2  0  0  0  0
 31 33  1  0  0  0  0
 32 34  1  0  0  0  0
 32 60  1  0  0  0  0
 33 35  2  0  0  0  0
 33 61  1  0  0  0  0
 34 36  2  0  0  0  0
 34 62  1  0  0  0  0
 35 36  1  0  0  0  0
 35 63  1  0  0  0  0
 36 64  1  0  0  0  0
M  END
> <PUBCHEM_COMPOUND_CID>
15714685

> <PUBCHEM_CONFORMER_RMSD>
1.2

> <PUBCHEM_CONFORMER_DIVERSEORDER>
1
9
7
5
14
27
26
2
25
19
8
21
16
6
12
18
13
22
20
15
23
3
4
17
10
11
24

> <PUBCHEM_MMFF94_PARTIAL_CHARGES>
48
1 -0.56
10 -0.68
11 -0.57
12 -0.57
13 0.14
14 0.14
15 0.56
16 0.42
17 -0.28
18 -0.29
19 -0.12
2 -0.36
20 0.56
21 0.28
22 0.28
23 0.28
24 0.42
25 0.28
26 -0.07
27 0.71
28 0.28
29 0.63
3 -0.56
30 0.28
31 0.09
32 -0.15
33 -0.15
34 -0.15
35 -0.15
36 -0.15
4 -0.68
41 0.15
49 0.15
5 -0.68
50 0.4
53 0.4
54 0.4
55 0.4
56 0.4
6 -0.68
60 0.15
61 0.15
62 0.15
63 0.15
64 0.15
7 -0.43
8 -0.68
9 -0.43

> <PUBCHEM_EFFECTIVE_ROTOR_COUNT>
10.8

> <PUBCHEM_PHARMACOPHORE_FEATURES>
19
1 1 acceptor
1 10 acceptor
1 10 donor
1 11 acceptor
1 12 acceptor
1 2 acceptor
1 3 acceptor
1 4 acceptor
1 4 donor
1 5 acceptor
1 5 donor
1 6 acceptor
1 6 donor
1 8 acceptor
1 8 donor
5 13 14 16 17 18 rings
6 2 13 14 15 19 26 rings
6 3 20 21 22 23 25 rings
6 31 32 33 34 35 36 rings

> <PUBCHEM_HEAVY_ATOM_COUNT>
36

> <PUBCHEM_ATOM_DEF_STEREO_COUNT>
9

> <PUBCHEM_ATOM_UDEF_STEREO_COUNT>
0

> <PUBCHEM_BOND_DEF_STEREO_COUNT>
0

> <PUBCHEM_BOND_UDEF_STEREO_COUNT>
0

> <PUBCHEM_ISOTOPIC_ATOM_COUNT>
0

> <PUBCHEM_COMPONENT_COUNT>
1

> <PUBCHEM_CACTVS_TAUTO_COUNT>
1

> <PUBCHEM_CONFORMER_ID>
00EFC97D00000001

> <PUBCHEM_MMFF94_ENERGY>
94.779

> <PUBCHEM_FEATURE_SELFOVERLAP>
96.667

> <PUBCHEM_SHAPE_FINGERPRINT>
11513181 2 17988363784367390918
12156800 1 16808104971908438420
12422481 6 18197194015203759042
12786520 15 16660923395425146780
13617811 41 18186804673418722765
14068700 675 18129948858653230440
14931854 50 18268166283474437326
15439362 3 18261961872561223796
16090146 7 17203339888422219383
17492 54 18116455690701721630
20642791 35 18343017770338254219
20691752 17 18040989644534366842
20764821 26 17970320712191510406
23559900 14 18273208707596173272
27425 322 17024036050131825484
3298306 158 17986109832537089368
338550 245 18409727391547690809
350125 39 18268431235891327441
4093350 32 16917062239839701290
463206 1 18342742956781680602
5081480 168 18334010554003384229

> <PUBCHEM_SHAPE_MULTIPOLES>
670.43
12.83
4.55
1.99
16.9
0.09
0.29
-0.37
2.69
-4.8
0.24
-2.21
1.14
0.24

> <PUBCHEM_SHAPE_SELFOVERLAP>
1435.269

> <PUBCHEM_SHAPE_VOLUME>
365

> <PUBCHEM_COORDINATE_TYPE>
2
5
10

$$$$
