16757444
  -OEChem-11202021253D

 64 67  0     1  0  0  0  0  0999 V2000
    0.4600   -0.3272    1.2525 O   0  0  0  0  0  0  0  0  0  0  0  0
    2.3489   -1.5635    0.6878 O   0  0  0  0  0  0  0  0  0  0  0  0
   -0.7356   -1.4693   -0.3937 O   0  0  0  0  0  0  0  0  0  0  0  0
   -1.1744   -1.5161    3.2332 O   0  0  0  0  0  0  0  0  0  0  0  0
   -3.8422   -2.2049    2.1897 O   0  0  0  0  0  0  0  0  0  0  0  0
   -3.6099   -3.7344   -0.2521 O   0  0  0  0  0  0  0  0  0  0  0  0
   -0.4901    2.3367    0.2006 O   0  0  0  0  0  0  0  0  0  0  0  0
    6.5080    0.3564   -0.0797 O   0  0  0  0  0  0  0  0  0  0  0  0
   -0.5096   -2.5886   -2.8942 O   0  0  0  0  0  0  0  0  0  0  0  0
    6.1410   -1.7063   -1.0644 O   0  0  0  0  0  0  0  0  0  0  0  0
   -1.7778    3.7322    1.5021 O   0  0  0  0  0  0  0  0  0  0  0  0
   -6.0581    0.5363   -1.9992 O   0  0  0  0  0  0  0  0  0  0  0  0
    2.4681    0.9151    0.8033 C   0  0  2  0  0  0  0  0  0  0  0  0
    3.8704    0.8885    0.1529 C   0  0  2  0  0  0  0  0  0  0  0  0
    1.6433   -0.3374    0.4529 C   0  0  2  0  0  0  0  0  0  0  0  0
    3.7325    1.6865   -1.1526 C   0  0  0  0  0  0  0  0  0  0  0  0
    1.8892    2.1792    0.2154 C   0  0  0  0  0  0  0  0  0  0  0  0
    2.5839    2.5908   -0.8530 C   0  0  0  0  0  0  0  0  0  0  0  0
    4.3808   -0.5005   -0.0324 C   0  0  0  0  0  0  0  0  0  0  0  0
   -0.3581   -1.4647    0.9810 C   0  0  2  0  0  0  0  0  0  0  0  0
   -1.5945   -1.3795    1.8759 C   0  0  1  0  0  0  0  0  0  0  0  0
   -2.5994   -2.4823    1.5424 C   0  0  2  0  0  0  0  0  0  0  0  0
   -2.8570   -2.5595    0.0374 C   0  0  1  0  0  0  0  0  0  0  0  0
   -1.5381   -2.6000   -0.7379 C   0  0  1  0  0  0  0  0  0  0  0  0
    0.6938    2.8464    0.7957 C   0  0  0  0  0  0  0  0  0  0  0  0
    3.6474   -1.5793    0.2574 C   0  0  0  0  0  0  0  0  0  0  0  0
    5.7636   -0.7127   -0.4618 C   0  0  0  0  0  0  0  0  0  0  0  0
   -1.7679   -2.5593   -2.2454 C   0  0  0  0  0  0  0  0  0  0  0  0
   -1.6627    2.8681    0.6468 C   0  0  0  0  0  0  0  0  0  0  0  0
    7.8942    0.2973   -0.4314 C   0  0  0  0  0  0  0  0  0  0  0  0
   -2.8203    2.2528   -0.0501 C   0  0  0  0  0  0  0  0  0  0  0  0
   -4.0473    2.1382    0.6036 C   0  0  0  0  0  0  0  0  0  0  0  0
   -2.6814    1.7900   -1.3586 C   0  0  0  0  0  0  0  0  0  0  0  0
   -5.1351    1.5608   -0.0511 C   0  0  0  0  0  0  0  0  0  0  0  0
   -3.7693    1.2125   -2.0133 C   0  0  0  0  0  0  0  0  0  0  0  0
   -4.9961    1.0978   -1.3595 C   0  0  0  0  0  0  0  0  0  0  0  0
    2.5725    1.0081    1.8921 H   0  0  0  0  0  0  0  0  0  0  0  0
    4.5407    1.4404    0.8293 H   0  0  0  0  0  0  0  0  0  0  0  0
    1.3628   -0.3058   -0.6093 H   0  0  0  0  0  0  0  0  0  0  0  0
    3.5051    1.0578   -2.0204 H   0  0  0  0  0  0  0  0  0  0  0  0
    4.6431    2.2575   -1.3598 H   0  0  0  0  0  0  0  0  0  0  0  0
    2.3415    3.4620   -1.4447 H   0  0  0  0  0  0  0  0  0  0  0  0
    0.2012   -2.3786    1.2203 H   0  0  0  0  0  0  0  0  0  0  0  0
   -2.0639   -0.3928    1.7888 H   0  0  0  0  0  0  0  0  0  0  0  0
   -2.2623   -3.4503    1.9313 H   0  0  0  0  0  0  0  0  0  0  0  0
   -3.4598   -1.6994   -0.2775 H   0  0  0  0  0  0  0  0  0  0  0  0
   -0.9719   -3.5124   -0.5060 H   0  0  0  0  0  0  0  0  0  0  0  0
    0.7483    3.9270    0.6129 H   0  0  0  0  0  0  0  0  0  0  0  0
    0.6680    2.6907    1.8809 H   0  0  0  0  0  0  0  0  0  0  0  0
    4.0094   -2.5981    0.2218 H   0  0  0  0  0  0  0  0  0  0  0  0
   -2.2719   -1.6327   -2.5387 H   0  0  0  0  0  0  0  0  0  0  0  0
   -2.3584   -3.4154   -2.5851 H   0  0  0  0  0  0  0  0  0  0  0  0
   -0.7562   -2.3883    3.3334 H   0  0  0  0  0  0  0  0  0  0  0  0
   -4.1598   -1.3406    1.8766 H   0  0  0  0  0  0  0  0  0  0  0  0
   -3.0779   -4.5046    0.0114 H   0  0  0  0  0  0  0  0  0  0  0  0
   -0.6792   -2.5558   -3.8511 H   0  0  0  0  0  0  0  0  0  0  0  0
    8.3694   -0.5651    0.0455 H   0  0  0  0  0  0  0  0  0  0  0  0
    8.0067    0.2488   -1.5188 H   0  0  0  0  0  0  0  0  0  0  0  0
    8.3760    1.2092   -0.0689 H   0  0  0  0  0  0  0  0  0  0  0  0
   -4.1705    2.4905    1.6244 H   0  0  0  0  0  0  0  0  0  0  0  0
   -1.7402    1.8750   -1.8952 H   0  0  0  0  0  0  0  0  0  0  0  0
   -6.0852    1.4761    0.4695 H   0  0  0  0  0  0  0  0  0  0  0  0
   -3.6556    0.8551   -3.0332 H   0  0  0  0  0  0  0  0  0  0  0  0
   -6.8238    0.5376   -1.3994 H   0  0  0  0  0  0  0  0  0  0  0  0
  1 15  1  0  0  0  0
  1 20  1  0  0  0  0
  2 15  1  0  0  0  0
  2 26  1  0  0  0  0
  3 20  1  0  0  0  0
  3 24  1  0  0  0  0
  4 21  1  0  0  0  0
  4 53  1  0  0  0  0
  5 22  1  0  0  0  0
  5 54  1  0  0  0  0
  6 23  1  0  0  0  0
  6 55  1  0  0  0  0
  7 25  1  0  0  0  0
  7 29  1  0  0  0  0
  8 27  1  0  0  0  0
  8 30  1  0  0  0  0
  9 28  1  0  0  0  0
  9 56  1  0  0  0  0
 10 27  2  0  0  0  0
 11 29  2  0  0  0  0
 12 36  1  0  0  0  0
 12 64  1  0  0  0  0
 13 14  1  0  0  0  0
 13 15  1  0  0  0  0
 13 17  1  0  0  0  0
 13 37  1  0  0  0  0
 14 16  1  0  0  0  0
 14 19  1  0  0  0  0
 14 38  1  0  0  0  0
 15 39  1  0  0  0  0
 16 18  1  0  0  0  0
 16 40  1  0  0  0  0
 16 41  1  0  0  0  0
 17 18  2  0  0  0  0
 17 25  1  0  0  0  0
 18 42  1  0  0  0  0
 19 26  2  0  0  0  0
 19 27  1  0  0  0  0
 20 21  1  0  0  0  0
 20 43  1  0  0  0  0
 21 22  1  0  0  0  0
 21 44  1  0  0  0  0
 22 23  1  0  0  0  0
 22 45  1  0  0  0  0
 23 24  1  0  0  0  0
 23 46  1  0  0  0  0
 24 28  1  0  0  0  0
 24 47  1  0  0  0  0
 25 48  1  0  0  0  0
 25 49  1  0  0  0  0
 26 50  1  0  0  0  0
 28 51  1  0  0  0  0
 28 52  1  0  0  0  0
 29 31  1  0  0  0  0
 30 57  1  0  0  0  0
 30 58  1  0  0  0  0
 30 59  1  0  0  0  0
 31 32  2  0  0  0  0
 31 33  1  0  0  0  0
 32 34  1  0  0  0  0
 32 60  1  0  0  0  0
 33 35  2  0  0  0  0
 33 61  1  0  0  0  0
 34 36  2  0  0  0  0
 34 62  1  0  0  0  0
 35 36  1  0  0  0  0
 35 63  1  0  0  0  0
M  END
> <PUBCHEM_COMPOUND_CID>
16757444

> <PUBCHEM_CONFORMER_RMSD>
1.2

> <PUBCHEM_CONFORMER_DIVERSEORDER>
1
29
21
3
14
26
5
15
7
23
17
28
24
27
19
25
4
10
11
16
12
20
18
9
13
6
22
2
8

> <PUBCHEM_MMFF94_PARTIAL_CHARGES>
47
1 -0.56
10 -0.57
11 -0.57
12 -0.53
13 0.14
14 0.14
15 0.56
16 0.14
17 -0.28
18 -0.29
19 -0.12
2 -0.36
20 0.56
21 0.28
22 0.28
23 0.28
24 0.28
25 0.42
26 -0.07
27 0.71
28 0.28
29 0.63
3 -0.56
30 0.28
31 0.09
32 -0.15
33 -0.15
34 -0.15
35 -0.15
36 0.08
4 -0.68
42 0.15
5 -0.68
50 0.15
53 0.4
54 0.4
55 0.4
56 0.4
6 -0.68
60 0.15
61 0.15
62 0.15
63 0.15
64 0.45
7 -0.43
8 -0.43
9 -0.68

> <PUBCHEM_EFFECTIVE_ROTOR_COUNT>
10.8

> <PUBCHEM_PHARMACOPHORE_FEATURES>
18
1 1 acceptor
1 10 acceptor
1 11 acceptor
1 12 donor
1 2 acceptor
1 3 acceptor
1 4 acceptor
1 4 donor
1 5 acceptor
1 5 donor
1 6 acceptor
1 6 donor
1 9 acceptor
1 9 donor
5 13 14 16 17 18 rings
6 2 13 14 15 19 26 rings
6 3 20 21 22 23 24 rings
6 31 32 33 34 35 36 rings

> <PUBCHEM_HEAVY_ATOM_COUNT>
36

> <PUBCHEM_ATOM_DEF_STEREO_COUNT>
8

> <PUBCHEM_ATOM_UDEF_STEREO_COUNT>
0

> <PUBCHEM_BOND_DEF_STEREO_COUNT>
0

> <PUBCHEM_BOND_UDEF_STEREO_COUNT>
0

> <PUBCHEM_ISOTOPIC_ATOM_COUNT>
0

> <PUBCHEM_COMPONENT_COUNT>
1

> <PUBCHEM_CACTVS_TAUTO_COUNT>
3

> <PUBCHEM_CONFORMER_ID>
00FFB2C400000001

> <PUBCHEM_MMFF94_ENERGY>
92.9272

> <PUBCHEM_FEATURE_SELFOVERLAP>
91.588

> <PUBCHEM_SHAPE_FINGERPRINT>
10119406 146 18122918521229124630
11578080 2 17559095773979907224
12107698 1 18335139855456200846
12156800 1 17681594521205366919
12422481 6 18118992363000939225
12788726 201 18058441015406716729
14279260 333 18261106349583344034
14674994 50 16629665366595260358
14931854 50 18336532821114691373
15131766 46 15649060437444242062
15297060 5 17917991629731888137
17492 54 18262503798670524505
19319366 153 17823127930713510202
20764821 26 18129959956405651381
20775438 99 16979225514008319511
21133410 90 17131831014730364113
23559900 14 18410007767314279424
3383291 50 18342170059774023319
4058900 60 17826226295015873501
484989 97 18262236733366990923
563151 248 16842218363278605537
57527295 17 18041546035878061954
70251023 43 17693364951715080527
7237137 82 18261406576080891460

> <PUBCHEM_SHAPE_MULTIPOLES>
670.43
13.19
4.36
2.08
18.16
0.3
0.04
-1.05
4.77
-4.27
-0.27
-2.43
1.23
0.66

> <PUBCHEM_SHAPE_SELFOVERLAP>
1436.147

> <PUBCHEM_SHAPE_VOLUME>
365.5

> <PUBCHEM_COORDINATE_TYPE>
2
5
10

$$$$
