16757443
  -OEChem-11202021253D

 63 66  0     1  0  0  0  0  0999 V2000
    0.2422   -0.2974    1.2089 O   0  0  0  0  0  0  0  0  0  0  0  0
    2.1345   -1.5633    0.7273 O   0  0  0  0  0  0  0  0  0  0  0  0
   -0.9099   -1.4500   -0.4609 O   0  0  0  0  0  0  0  0  0  0  0  0
   -1.4730   -1.4383    3.1491 O   0  0  0  0  0  0  0  0  0  0  0  0
   -4.1116   -2.1120    2.0245 O   0  0  0  0  0  0  0  0  0  0  0  0
   -3.8141   -3.6800   -0.3855 O   0  0  0  0  0  0  0  0  0  0  0  0
   -0.6398    2.3613    0.0868 O   0  0  0  0  0  0  0  0  0  0  0  0
    6.3398    0.2978    0.0756 O   0  0  0  0  0  0  0  0  0  0  0  0
   -0.6118   -2.6086   -2.9358 O   0  0  0  0  0  0  0  0  0  0  0  0
    5.9823   -1.7750   -0.8914 O   0  0  0  0  0  0  0  0  0  0  0  0
   -1.9546    3.7904    1.3232 O   0  0  0  0  0  0  0  0  0  0  0  0
    2.2790    0.9153    0.8112 C   0  0  2  0  0  0  0  0  0  0  0  0
    3.7023    0.8631    0.2098 C   0  0  2  0  0  0  0  0  0  0  0  0
    1.4519   -0.3328    0.4507 C   0  0  2  0  0  0  0  0  0  0  0  0
    3.6186    1.6433   -1.1110 C   0  0  0  0  0  0  0  0  0  0  0  0
    1.7356    2.1771    0.1857 C   0  0  0  0  0  0  0  0  0  0  0  0
    2.4712    2.5649   -0.8641 C   0  0  0  0  0  0  0  0  0  0  0  0
    4.2023   -0.5341    0.0621 C   0  0  0  0  0  0  0  0  0  0  0  0
   -0.5797   -1.4294    0.9258 C   0  0  2  0  0  0  0  0  0  0  0  0
   -1.8449   -1.3170    1.7763 C   0  0  1  0  0  0  0  0  0  0  0  0
   -2.8507   -2.4131    1.4244 C   0  0  2  0  0  0  0  0  0  0  0  0
   -3.0576   -2.5096   -0.0873 C   0  0  1  0  0  0  0  0  0  0  0  0
   -1.7136   -2.5765   -0.8162 C   0  0  1  0  0  0  0  0  0  0  0  0
    0.5290    2.8663    0.7149 C   0  0  0  0  0  0  0  0  0  0  0  0
    3.4466   -1.6001    0.3420 C   0  0  0  0  0  0  0  0  0  0  0  0
    5.5963   -0.7683   -0.3165 C   0  0  0  0  0  0  0  0  0  0  0  0
   -1.8911   -2.5554   -2.3311 C   0  0  0  0  0  0  0  0  0  0  0  0
   -1.8206    2.9125    0.4848 C   0  0  0  0  0  0  0  0  0  0  0  0
    7.7365    0.2178   -0.2274 C   0  0  0  0  0  0  0  0  0  0  0  0
   -2.9609    2.3002   -0.2426 C   0  0  0  0  0  0  0  0  0  0  0  0
   -4.2109    2.2091    0.3700 C   0  0  0  0  0  0  0  0  0  0  0  0
   -2.7826    1.8163   -1.5388 C   0  0  0  0  0  0  0  0  0  0  0  0
   -5.2823    1.6341   -0.3133 C   0  0  0  0  0  0  0  0  0  0  0  0
   -3.8542    1.2414   -2.2221 C   0  0  0  0  0  0  0  0  0  0  0  0
   -5.1041    1.1503   -1.6092 C   0  0  0  0  0  0  0  0  0  0  0  0
    2.3472    1.0231    1.9015 H   0  0  0  0  0  0  0  0  0  0  0  0
    4.3555    1.4173    0.9008 H   0  0  0  0  0  0  0  0  0  0  0  0
    1.2082   -0.3138   -0.6209 H   0  0  0  0  0  0  0  0  0  0  0  0
    3.4135    1.0045   -1.9771 H   0  0  0  0  0  0  0  0  0  0  0  0
    4.5425    2.2009   -1.2950 H   0  0  0  0  0  0  0  0  0  0  0  0
    2.2596    3.4300   -1.4762 H   0  0  0  0  0  0  0  0  0  0  0  0
   -0.0398   -2.3460    1.1973 H   0  0  0  0  0  0  0  0  0  0  0  0
   -2.2992   -0.3264    1.6591 H   0  0  0  0  0  0  0  0  0  0  0  0
   -2.5386   -3.3790    1.8385 H   0  0  0  0  0  0  0  0  0  0  0  0
   -3.6390   -1.6474   -0.4350 H   0  0  0  0  0  0  0  0  0  0  0  0
   -1.1665   -3.4917   -0.5519 H   0  0  0  0  0  0  0  0  0  0  0  0
    0.4643    2.7269    1.8006 H   0  0  0  0  0  0  0  0  0  0  0  0
    0.6026    3.9433    0.5185 H   0  0  0  0  0  0  0  0  0  0  0  0
    3.7976   -2.6234    0.3335 H   0  0  0  0  0  0  0  0  0  0  0  0
   -2.4798   -3.4096   -2.6786 H   0  0  0  0  0  0  0  0  0  0  0  0
   -2.3738   -1.6277   -2.6548 H   0  0  0  0  0  0  0  0  0  0  0  0
   -1.0689   -2.3136    3.2762 H   0  0  0  0  0  0  0  0  0  0  0  0
   -4.4079   -1.2489    1.6883 H   0  0  0  0  0  0  0  0  0  0  0  0
   -3.3006   -4.4522   -0.0929 H   0  0  0  0  0  0  0  0  0  0  0  0
   -0.7483   -2.5880   -3.8983 H   0  0  0  0  0  0  0  0  0  0  0  0
    8.1848   -0.6429    0.2779 H   0  0  0  0  0  0  0  0  0  0  0  0
    7.8855    0.1519   -1.3094 H   0  0  0  0  0  0  0  0  0  0  0  0
    8.2164    1.1294    0.1384 H   0  0  0  0  0  0  0  0  0  0  0  0
   -4.3650    2.5777    1.3807 H   0  0  0  0  0  0  0  0  0  0  0  0
   -1.8227    1.8825   -2.0438 H   0  0  0  0  0  0  0  0  0  0  0  0
   -6.2550    1.5613    0.1643 H   0  0  0  0  0  0  0  0  0  0  0  0
   -3.7160    0.8652   -3.2315 H   0  0  0  0  0  0  0  0  0  0  0  0
   -5.9380    0.7016   -2.1409 H   0  0  0  0  0  0  0  0  0  0  0  0
  1 14  1  0  0  0  0
  1 19  1  0  0  0  0
  2 14  1  0  0  0  0
  2 25  1  0  0  0  0
  3 19  1  0  0  0  0
  3 23  1  0  0  0  0
  4 20  1  0  0  0  0
  4 52  1  0  0  0  0
  5 21  1  0  0  0  0
  5 53  1  0  0  0  0
  6 22  1  0  0  0  0
  6 54  1  0  0  0  0
  7 24  1  0  0  0  0
  7 28  1  0  0  0  0
  8 26  1  0  0  0  0
  8 29  1  0  0  0  0
  9 27  1  0  0  0  0
  9 55  1  0  0  0  0
 10 26  2  0  0  0  0
 11 28  2  0  0  0  0
 12 13  1  0  0  0  0
 12 14  1  0  0  0  0
 12 16  1  0  0  0  0
 12 36  1  0  0  0  0
 13 15  1  0  0  0  0
 13 18  1  0  0  0  0
 13 37  1  0  0  0  0
 14 38  1  0  0  0  0
 15 17  1  0  0  0  0
 15 39  1  0  0  0  0
 15 40  1  0  0  0  0
 16 17  2  0  0  0  0
 16 24  1  0  0  0  0
 17 41  1  0  0  0  0
 18 25  2  0  0  0  0
 18 26  1  0  0  0  0
 19 20  1  0  0  0  0
 19 42  1  0  0  0  0
 20 21  1  0  0  0  0
 20 43  1  0  0  0  0
 21 22  1  0  0  0  0
 21 44  1  0  0  0  0
 22 23  1  0  0  0  0
 22 45  1  0  0  0  0
 23 27  1  0  0  0  0
 23 46  1  0  0  0  0
 24 47  1  0  0  0  0
 24 48  1  0  0  0  0
 25 49  1  0  0  0  0
 27 50  1  0  0  0  0
 27 51  1  0  0  0  0
 28 30  1  0  0  0  0
 29 56  1  0  0  0  0
 29 57  1  0  0  0  0
 29 58  1  0  0  0  0
 30 31  2  0  0  0  0
 30 32  1  0  0  0  0
 31 33  1  0  0  0  0
 31 59  1  0  0  0  0
 32 34  2  0  0  0  0
 32 60  1  0  0  0  0
 33 35  2  0  0  0  0
 33 61  1  0  0  0  0
 34 35  1  0  0  0  0
 34 62  1  0  0  0  0
 35 63  1  0  0  0  0
M  END
> <PUBCHEM_COMPOUND_CID>
16757443

> <PUBCHEM_CONFORMER_RMSD>
1

> <PUBCHEM_CONFORMER_DIVERSEORDER>
1
36
53
8
20
31
12
30
25
59
56
54
5
40
51
32
14
46
10
26
62
3
33
64
41
44
9
34
42
37
17
61
29
23
15
49
52
57
19
43
22
18
45
60
4
6
24
27
28
63
16
39
47
55
7
13
11
48
50
2
38
35
21
58

> <PUBCHEM_MMFF94_PARTIAL_CHARGES>
46
1 -0.56
10 -0.57
11 -0.57
12 0.14
13 0.14
14 0.56
15 0.14
16 -0.28
17 -0.29
18 -0.12
19 0.56
2 -0.36
20 0.28
21 0.28
22 0.28
23 0.28
24 0.42
25 -0.07
26 0.71
27 0.28
28 0.63
29 0.28
3 -0.56
30 0.09
31 -0.15
32 -0.15
33 -0.15
34 -0.15
35 -0.15
4 -0.68
41 0.15
49 0.15
5 -0.68
52 0.4
53 0.4
54 0.4
55 0.4
59 0.15
6 -0.68
60 0.15
61 0.15
62 0.15
63 0.15
7 -0.43
8 -0.43
9 -0.68

> <PUBCHEM_EFFECTIVE_ROTOR_COUNT>
10.8

> <PUBCHEM_PHARMACOPHORE_FEATURES>
17
1 1 acceptor
1 10 acceptor
1 11 acceptor
1 2 acceptor
1 3 acceptor
1 4 acceptor
1 4 donor
1 5 acceptor
1 5 donor
1 6 acceptor
1 6 donor
1 9 acceptor
1 9 donor
5 12 13 15 16 17 rings
6 2 12 13 14 18 25 rings
6 3 19 20 21 22 23 rings
6 30 31 32 33 34 35 rings

> <PUBCHEM_HEAVY_ATOM_COUNT>
35

> <PUBCHEM_ATOM_DEF_STEREO_COUNT>
8

> <PUBCHEM_ATOM_UDEF_STEREO_COUNT>
0

> <PUBCHEM_BOND_DEF_STEREO_COUNT>
0

> <PUBCHEM_BOND_UDEF_STEREO_COUNT>
0

> <PUBCHEM_ISOTOPIC_ATOM_COUNT>
0

> <PUBCHEM_COMPONENT_COUNT>
1

> <PUBCHEM_CACTVS_TAUTO_COUNT>
1

> <PUBCHEM_CONFORMER_ID>
00FFB2C300000001

> <PUBCHEM_MMFF94_ENERGY>
90.9617

> <PUBCHEM_FEATURE_SELFOVERLAP>
86.512

> <PUBCHEM_SHAPE_FINGERPRINT>
10119406 146 18050577244569660366
11578080 2 17558812104158889721
12107698 1 18335138747307146262
12156800 1 17753651007173348623
12422481 6 18191610699400177785
12788726 201 18058158428049339680
13583140 156 16660939780804872216
14279260 333 18260822666967082482
14674994 50 16701439282317136294
14713325 29 18341894078498386183
14931854 50 18264190453644264837
15297060 5 17989203699333389529
17492 54 18191005843155741749
17980427 23 14635731683359009005
20764821 26 18128843922007103965
20775438 99 16763047251521657879
21133410 90 17131828820133957569
23559900 14 18410287034683094168
3383291 50 18341325635023193935
4058900 60 17754449067863688941
484989 97 18262234530143661491
563151 248 16698665008438280745
57527295 17 18041544927697332794
70251023 43 17693082373000307663
7237137 82 18261122897722693460

> <PUBCHEM_SHAPE_MULTIPOLES>
655.72
12.63
4.44
2.02
18.94
0.06
0.21
-0.5
3.11
-4.88
0.04
-2.34
1.24
0.65

> <PUBCHEM_SHAPE_SELFOVERLAP>
1402.568

> <PUBCHEM_SHAPE_VOLUME>
357.5

> <PUBCHEM_COORDINATE_TYPE>
2
5
10

$$$$
