101879771
  -OEChem-09152014553D

 30 32  0     1  0  0  0  0  0999 V2000
   -2.4388   -1.3929    0.2188 O   0  0  0  0  0  0  0  0  0  0  0  0
    0.0211    1.4050    0.0403 O   0  0  0  0  0  0  0  0  0  0  0  0
    2.4789   -2.7491   -0.2705 O   0  0  0  0  0  0  0  0  0  0  0  0
   -4.6615   -1.4383   -0.0964 O   0  0  0  0  0  0  0  0  0  0  0  0
    4.7653    1.4044    0.1502 O   0  0  0  0  0  0  0  0  0  0  0  0
   -1.2060   -0.6983    0.5156 C   0  0  1  0  0  0  0  0  0  0  0  0
   -0.0966   -1.4644   -0.2021 C   0  0  0  0  0  0  0  0  0  0  0  0
   -1.2016    0.7461    0.1200 C   0  0  0  0  0  0  0  0  0  0  0  0
    1.1979   -0.7222   -0.0851 C   0  0  0  0  0  0  0  0  0  0  0  0
   -2.3490    1.4084   -0.0865 C   0  0  0  0  0  0  0  0  0  0  0  0
    1.1837    0.6713    0.0282 C   0  0  0  0  0  0  0  0  0  0  0  0
   -3.6683    0.7225    0.0632 C   0  0  0  0  0  0  0  0  0  0  0  0
   -3.6301   -0.7844    0.0496 C   0  0  0  0  0  0  0  0  0  0  0  0
    2.4240   -1.3938   -0.1348 C   0  0  0  0  0  0  0  0  0  0  0  0
   -2.4161    2.8683   -0.4386 C   0  0  0  0  0  0  0  0  0  0  0  0
    2.3797    1.3872    0.1071 C   0  0  0  0  0  0  0  0  0  0  0  0
    3.6198   -0.6793   -0.0508 C   0  0  0  0  0  0  0  0  0  0  0  0
    3.5976    0.7094    0.0718 C   0  0  0  0  0  0  0  0  0  0  0  0
   -1.0515   -0.7684    1.6003 H   0  0  0  0  0  0  0  0  0  0  0  0
   -0.3425   -1.6019   -1.2633 H   0  0  0  0  0  0  0  0  0  0  0  0
   -0.0247   -2.4679    0.2351 H   0  0  0  0  0  0  0  0  0  0  0  0
   -4.1414    1.0408    0.9987 H   0  0  0  0  0  0  0  0  0  0  0  0
   -4.3121    1.0192   -0.7741 H   0  0  0  0  0  0  0  0  0  0  0  0
   -2.9100    3.0006   -1.4068 H   0  0  0  0  0  0  0  0  0  0  0  0
   -1.4297    3.3369   -0.5059 H   0  0  0  0  0  0  0  0  0  0  0  0
   -2.9888    3.4126    0.3196 H   0  0  0  0  0  0  0  0  0  0  0  0
    2.3634    2.4709    0.1929 H   0  0  0  0  0  0  0  0  0  0  0  0
    4.5715   -1.2044   -0.0855 H   0  0  0  0  0  0  0  0  0  0  0  0
    3.4094   -3.0316   -0.2869 H   0  0  0  0  0  0  0  0  0  0  0  0
    5.5086    0.7785    0.1095 H   0  0  0  0  0  0  0  0  0  0  0  0
  1  6  1  0  0  0  0
  1 13  1  0  0  0  0
  2  8  1  0  0  0  0
  2 11  1  0  0  0  0
  3 14  1  0  0  0  0
  3 29  1  0  0  0  0
  4 13  2  0  0  0  0
  5 18  1  0  0  0  0
  5 30  1  0  0  0  0
  6  7  1  0  0  0  0
  6  8  1  0  0  0  0
  6 19  1  0  0  0  0
  7  9  1  0  0  0  0
  7 20  1  0  0  0  0
  7 21  1  0  0  0  0
  8 10  2  0  0  0  0
  9 11  1  0  0  0  0
  9 14  2  0  0  0  0
 10 12  1  0  0  0  0
 10 15  1  0  0  0  0
 11 16  2  0  0  0  0
 12 13  1  0  0  0  0
 12 22  1  0  0  0  0
 12 23  1  0  0  0  0
 14 17  1  0  0  0  0
 15 24  1  0  0  0  0
 15 25  1  0  0  0  0
 15 26  1  0  0  0  0
 16 18  1  0  0  0  0
 16 27  1  0  0  0  0
 17 18  2  0  0  0  0
 17 28  1  0  0  0  0
M  END
> <PUBCHEM_COMPOUND_CID>
101879771

> <PUBCHEM_CONFORMER_RMSD>
0.6

> <PUBCHEM_CONFORMER_DIVERSEORDER>
1

> <PUBCHEM_MMFF94_PARTIAL_CHARGES>
22
1 -0.43
10 -0.28
11 0.08
12 0.2
13 0.66
14 0.08
15 0.14
16 -0.15
17 -0.15
18 0.08
2 -0.16
27 0.15
28 0.15
29 0.45
3 -0.53
30 0.45
4 -0.57
5 -0.53
6 0.42
7 0.14
8 -0.06
9 -0.14

> <PUBCHEM_EFFECTIVE_ROTOR_COUNT>
0.8

> <PUBCHEM_PHARMACOPHORE_FEATURES>
7
1 2 acceptor
1 3 donor
1 4 acceptor
1 5 donor
6 1 6 8 10 12 13 rings
6 2 6 7 8 9 11 rings
6 9 11 14 16 17 18 rings

> <PUBCHEM_HEAVY_ATOM_COUNT>
18

> <PUBCHEM_ATOM_DEF_STEREO_COUNT>
1

> <PUBCHEM_ATOM_UDEF_STEREO_COUNT>
0

> <PUBCHEM_BOND_DEF_STEREO_COUNT>
0

> <PUBCHEM_BOND_UDEF_STEREO_COUNT>
0

> <PUBCHEM_ISOTOPIC_ATOM_COUNT>
0

> <PUBCHEM_COMPONENT_COUNT>
1

> <PUBCHEM_CACTVS_TAUTO_COUNT>
18

> <PUBCHEM_CONFORMER_ID>
06128FDB00000001

> <PUBCHEM_MMFF94_ENERGY>
43.0626

> <PUBCHEM_FEATURE_SELFOVERLAP>
35.582

> <PUBCHEM_SHAPE_FINGERPRINT>
10608611 8 18338233769502195116
10616163 171 18411703205194867599
10967382 1 18338799030042234322
10980938 120 18411420605295330546
11132069 177 18409165506640923769
11471102 20 18411980286667830790
11806522 49 18409166653465594663
12403259 226 18411975862530165328
13140716 1 17978794841226711137
13296908 3 18340770334163517894
13380535 76 18336265734141265314
14144814 61 18410293588243180458
14576447 43 18057591278208759775
15196674 1 18411138013141663755
15219456 202 18411138000262036612
15375462 6 18410575093258346879
15442244 35 18194402182527782674
15536298 74 18342459214426143486
16945 1 18263096546373530138
17492 89 18338516335564772427
17802600 8 18412259566589277088
18186145 218 18200319788425967840
19591789 44 15452291062667998051
200 152 18059853991407080437
20510252 161 18413390917047118905
20645477 70 18272088253676427839
21267235 1 18411146826726233222
21501502 16 18338237063636310881
221490 88 18338805511438476054
2334 1 18410857629102477056
23366157 5 18041565728840741890
23402539 116 18335975463113412197
23402655 69 18342453725341959813
23463225 33 18409450267188234692
23558518 356 18188217498504452297
23559900 14 18125434207932913602
2748010 2 18338802208360199030
2871803 45 18408882949295557231
335352 9 17906171746014238612
33824 294 18410575110813204138
34934 24 18411412955700379767
4028521 119 18260258617290536533
4214541 1 18338235959903828608
474 4 16879359016014833900
474229 33 18338796844368026386
5104073 3 18410856529580300728
58051976 378 18411135857268788380
69090 78 18413668019704806871
7364860 26 18342177713948888294
9709674 26 18409173198811514234

> <PUBCHEM_SHAPE_MULTIPOLES>
341.08
7.94
2.48
0.63
0.22
0.24
0
0.07
-0.02
-0.37
-0.27
-0.03
0.02
0.42

> <PUBCHEM_SHAPE_SELFOVERLAP>
750.815

> <PUBCHEM_SHAPE_VOLUME>
182.1

> <PUBCHEM_COORDINATE_TYPE>
2
5
10

$$$$
