101879768
  -OEChem-09152014543D

 43 45  0     1  0  0  0  0  0999 V2000
   -0.3567   -1.5547    0.3962 O   0  0  0  0  0  0  0  0  0  0  0  0
    0.7265    1.1626   -0.0052 O   0  0  0  0  0  0  0  0  0  0  0  0
   -2.6473   -1.4732    0.9512 O   0  0  0  0  0  0  0  0  0  0  0  0
   -5.0362    0.7965   -1.2391 O   0  0  0  0  0  0  0  0  0  0  0  0
    4.2386   -1.9553   -1.1782 O   0  0  0  0  0  0  0  0  0  0  0  0
   -4.1185    1.2749    0.8231 O   0  0  0  0  0  0  0  0  0  0  0  0
    5.2322    2.1313    1.0440 O   0  0  0  0  0  0  0  0  0  0  0  0
   -1.5545    0.4863   -0.0377 C   0  0  2  0  0  0  0  0  0  0  0  0
   -0.2292    0.4496   -0.8010 C   0  0  2  0  0  0  0  0  0  0  0  0
    0.0184   -1.0434   -0.8907 C   0  0  1  0  0  0  0  0  0  0  0  0
   -1.4290   -0.7357    0.9111 C   0  0  2  0  0  0  0  0  0  0  0  0
    1.4485   -1.4125   -1.2342 C   0  0  0  0  0  0  0  0  0  0  0  0
   -2.7492    0.4166   -0.9936 C   0  0  0  0  0  0  0  0  0  0  0  0
   -1.0504   -0.3234    2.3336 C   0  0  0  0  0  0  0  0  0  0  0  0
    2.4339   -0.4630   -0.6229 C   0  0  0  0  0  0  0  0  0  0  0  0
    2.0265    0.7528   -0.0716 C   0  0  0  0  0  0  0  0  0  0  0  0
   -4.0186    0.8839   -0.3318 C   0  0  0  0  0  0  0  0  0  0  0  0
    3.7987   -0.7863   -0.6286 C   0  0  0  0  0  0  0  0  0  0  0  0
    2.9672    1.6174    0.4969 C   0  0  0  0  0  0  0  0  0  0  0  0
   -2.4365   -2.7973    1.4190 C   0  0  0  0  0  0  0  0  0  0  0  0
    4.7374    0.0822   -0.0715 C   0  0  0  0  0  0  0  0  0  0  0  0
    4.3206    1.2835    0.4947 C   0  0  0  0  0  0  0  0  0  0  0  0
   -6.3223    1.2071   -0.7637 C   0  0  0  0  0  0  0  0  0  0  0  0
   -1.6222    1.4133    0.5471 H   0  0  0  0  0  0  0  0  0  0  0  0
   -0.2733    0.9305   -1.7840 H   0  0  0  0  0  0  0  0  0  0  0  0
   -0.6542   -1.5149   -1.6182 H   0  0  0  0  0  0  0  0  0  0  0  0
    1.5785   -1.3706   -2.3225 H   0  0  0  0  0  0  0  0  0  0  0  0
    1.6532   -2.4348   -0.8949 H   0  0  0  0  0  0  0  0  0  0  0  0
   -2.8965   -0.5937   -1.3901 H   0  0  0  0  0  0  0  0  0  0  0  0
   -2.5758    1.0939   -1.8391 H   0  0  0  0  0  0  0  0  0  0  0  0
   -0.7684   -1.1814    2.9517 H   0  0  0  0  0  0  0  0  0  0  0  0
   -1.8840    0.1841    2.8304 H   0  0  0  0  0  0  0  0  0  0  0  0
   -0.1813    0.3422    2.3399 H   0  0  0  0  0  0  0  0  0  0  0  0
    2.6373    2.5552    0.9385 H   0  0  0  0  0  0  0  0  0  0  0  0
   -3.4183   -3.2748    1.4975 H   0  0  0  0  0  0  0  0  0  0  0  0
   -1.9825   -2.8295    2.4119 H   0  0  0  0  0  0  0  0  0  0  0  0
   -1.8524   -3.3862    0.7052 H   0  0  0  0  0  0  0  0  0  0  0  0
    5.7946   -0.1715   -0.0740 H   0  0  0  0  0  0  0  0  0  0  0  0
    5.2059   -2.0059   -1.0906 H   0  0  0  0  0  0  0  0  0  0  0  0
   -6.6351    0.5766    0.0741 H   0  0  0  0  0  0  0  0  0  0  0  0
   -6.2980    2.2602   -0.4676 H   0  0  0  0  0  0  0  0  0  0  0  0
   -7.0402    1.0883   -1.5796 H   0  0  0  0  0  0  0  0  0  0  0  0
    4.7682    2.9137    1.3885 H   0  0  0  0  0  0  0  0  0  0  0  0
  1 10  1  0  0  0  0
  1 11  1  0  0  0  0
  2  9  1  0  0  0  0
  2 16  1  0  0  0  0
  3 11  1  0  0  0  0
  3 20  1  0  0  0  0
  4 17  1  0  0  0  0
  4 23  1  0  0  0  0
  5 18  1  0  0  0  0
  5 39  1  0  0  0  0
  6 17  2  0  0  0  0
  7 22  1  0  0  0  0
  7 43  1  0  0  0  0
  8  9  1  0  0  0  0
  8 11  1  0  0  0  0
  8 13  1  0  0  0  0
  8 24  1  0  0  0  0
  9 10  1  0  0  0  0
  9 25  1  0  0  0  0
 10 12  1  0  0  0  0
 10 26  1  0  0  0  0
 11 14  1  0  0  0  0
 12 15  1  0  0  0  0
 12 27  1  0  0  0  0
 12 28  1  0  0  0  0
 13 17  1  0  0  0  0
 13 29  1  0  0  0  0
 13 30  1  0  0  0  0
 14 31  1  0  0  0  0
 14 32  1  0  0  0  0
 14 33  1  0  0  0  0
 15 16  1  0  0  0  0
 15 18  2  0  0  0  0
 16 19  2  0  0  0  0
 18 21  1  0  0  0  0
 19 22  1  0  0  0  0
 19 34  1  0  0  0  0
 20 35  1  0  0  0  0
 20 36  1  0  0  0  0
 20 37  1  0  0  0  0
 21 22  2  0  0  0  0
 21 38  1  0  0  0  0
 23 40  1  0  0  0  0
 23 41  1  0  0  0  0
 23 42  1  0  0  0  0
M  END
> <PUBCHEM_COMPOUND_CID>
101879768

> <PUBCHEM_CONFORMER_RMSD>
0.8

> <PUBCHEM_CONFORMER_DIVERSEORDER>
1
12
11
2
10
3
6
9
16
13
5
17
8
15
7
4
14

> <PUBCHEM_MMFF94_PARTIAL_CHARGES>
25
1 -0.56
10 0.28
11 0.56
12 0.14
13 0.06
15 -0.14
16 0.08
17 0.66
18 0.08
19 -0.15
2 -0.36
20 0.28
21 -0.15
22 0.08
23 0.28
3 -0.56
34 0.15
38 0.15
39 0.45
4 -0.43
43 0.45
5 -0.53
6 -0.57
7 -0.53
9 0.28

> <PUBCHEM_EFFECTIVE_ROTOR_COUNT>
5

> <PUBCHEM_PHARMACOPHORE_FEATURES>
9
1 1 acceptor
1 2 acceptor
1 3 acceptor
1 5 donor
1 6 acceptor
1 7 donor
5 1 8 9 10 11 rings
6 15 16 18 19 21 22 rings
6 2 9 10 12 15 16 rings

> <PUBCHEM_HEAVY_ATOM_COUNT>
23

> <PUBCHEM_ATOM_DEF_STEREO_COUNT>
4

> <PUBCHEM_ATOM_UDEF_STEREO_COUNT>
0

> <PUBCHEM_BOND_DEF_STEREO_COUNT>
0

> <PUBCHEM_BOND_UDEF_STEREO_COUNT>
0

> <PUBCHEM_ISOTOPIC_ATOM_COUNT>
0

> <PUBCHEM_COMPONENT_COUNT>
1

> <PUBCHEM_CACTVS_TAUTO_COUNT>
18

> <PUBCHEM_CONFORMER_ID>
06128FD800000001

> <PUBCHEM_MMFF94_ENERGY>
75.0997

> <PUBCHEM_FEATURE_SELFOVERLAP>
46.02

> <PUBCHEM_SHAPE_FINGERPRINT>
11646440 116 18186810149903094325
12011746 2 18342183241597847660
12236239 1 16702301222071237549
12403259 118 18045492273800178788
12403259 415 18337965561563319823
12507560 40 18339930419360516314
12553582 1 14273449306376886342
12592029 89 17703791366777406567
12633257 1 17458617960659324884
13533116 47 18115298956797542698
13544592 145 18334299725677734550
13583140 156 18129382759940102890
15219456 202 18411987987502013990
15375358 24 18410856568519965476
16945 1 17821722827782766319
17349148 13 17988933218961234115
17980427 23 17459189749507398230
192875 21 17274823523987536224
200 152 17203327784480653519
20157964 124 18202279195282074468
20645477 70 17917430887344171534
20681677 76 18341900739691546602
212916 134 17530677701985234753
21521239 73 18130212792915108343
21521721 280 18060700607108364347
22182313 1 18337974345241282951
22956985 138 15576945466590164315
23352939 185 15841546388699654929
23402539 116 18260259759762341437
23536379 177 17775281630522745933
23557571 272 18261958573514176371
23559900 14 18261121746924743894
2916195 48 18408316671291270269
296302 2 18130790074530648652
335352 9 18202562874700491500
4340502 62 18260266322467133559
474 4 18343861134432504396
495365 180 18201708549158637186
5104073 3 18411139156141249834
5385378 56 17460031787031740713
53917941 68 18114448029735259071
59755656 520 17967524667323644287
9709674 26 18410858788933720094

> <PUBCHEM_SHAPE_MULTIPOLES>
432.24
11.05
2.11
1.46
3.85
0.91
0.47
-5.56
-1.34
0.01
0.52
0.4
0.4
2.35

> <PUBCHEM_SHAPE_SELFOVERLAP>
930.5

> <PUBCHEM_SHAPE_VOLUME>
239.2

> <PUBCHEM_COORDINATE_TYPE>
2
5
10

$$$$
