152432
  -OEChem-09152012553D

 27 28  0     1  0  0  0  0  0999 V2000
   -2.0579   -0.6709   -0.0443 O   0  0  0  0  0  0  0  0  0  0  0  0
   -3.9080   -1.9599   -0.4689 O   0  0  0  0  0  0  0  0  0  0  0  0
    2.9504   -2.1421    0.5282 O   0  0  0  0  0  0  0  0  0  0  0  0
    4.4646   -0.2494   -0.8326 O   0  0  0  0  0  0  0  0  0  0  0  0
   -1.7771    0.7356   -0.0426 C   0  0  1  0  0  0  0  0  0  0  0  0
   -3.1105    1.3845    0.2535 C   0  0  0  0  0  0  0  0  0  0  0  0
   -0.7149    1.0477    0.9942 C   0  0  0  0  0  0  0  0  0  0  0  0
   -4.0789    0.4568   -0.4409 C   0  0  0  0  0  0  0  0  0  0  0  0
    0.6687    0.6979    0.5078 C   0  0  0  0  0  0  0  0  0  0  0  0
   -3.3845   -0.8671   -0.3181 C   0  0  0  0  0  0  0  0  0  0  0  0
    1.1737   -0.5716    0.7456 C   0  0  0  0  0  0  0  0  0  0  0  0
    1.4136    1.6514   -0.1697 C   0  0  0  0  0  0  0  0  0  0  0  0
    2.4536   -0.8953    0.2952 C   0  0  0  0  0  0  0  0  0  0  0  0
    2.6936    1.3278   -0.6199 C   0  0  0  0  0  0  0  0  0  0  0  0
    3.2136    0.0544   -0.3876 C   0  0  0  0  0  0  0  0  0  0  0  0
   -1.4398    1.0082   -1.0513 H   0  0  0  0  0  0  0  0  0  0  0  0
   -3.1735    2.4179   -0.0991 H   0  0  0  0  0  0  0  0  0  0  0  0
   -3.3144    1.3810    1.3317 H   0  0  0  0  0  0  0  0  0  0  0  0
   -0.9145    0.5094    1.9302 H   0  0  0  0  0  0  0  0  0  0  0  0
   -0.7351    2.1163    1.2455 H   0  0  0  0  0  0  0  0  0  0  0  0
   -4.1921    0.7045   -1.5001 H   0  0  0  0  0  0  0  0  0  0  0  0
   -5.0495    0.4418    0.0599 H   0  0  0  0  0  0  0  0  0  0  0  0
    0.5788   -1.3095    1.2775 H   0  0  0  0  0  0  0  0  0  0  0  0
    1.0168    2.6451   -0.3579 H   0  0  0  0  0  0  0  0  0  0  0  0
    3.2803    2.0720   -1.1517 H   0  0  0  0  0  0  0  0  0  0  0  0
    2.2864   -2.6627    1.0121 H   0  0  0  0  0  0  0  0  0  0  0  0
    4.6620   -1.1695   -0.5856 H   0  0  0  0  0  0  0  0  0  0  0  0
  1  5  1  0  0  0  0
  1 10  1  0  0  0  0
  2 10  2  0  0  0  0
  3 13  1  0  0  0  0
  3 26  1  0  0  0  0
  4 15  1  0  0  0  0
  4 27  1  0  0  0  0
  5  6  1  0  0  0  0
  5  7  1  0  0  0  0
  5 16  1  0  0  0  0
  6  8  1  0  0  0  0
  6 17  1  0  0  0  0
  6 18  1  0  0  0  0
  7  9  1  0  0  0  0
  7 19  1  0  0  0  0
  7 20  1  0  0  0  0
  8 10  1  0  0  0  0
  8 21  1  0  0  0  0
  8 22  1  0  0  0  0
  9 11  2  0  0  0  0
  9 12  1  0  0  0  0
 11 13  1  0  0  0  0
 11 23  1  0  0  0  0
 12 14  2  0  0  0  0
 12 24  1  0  0  0  0
 13 15  2  0  0  0  0
 14 15  1  0  0  0  0
 14 25  1  0  0  0  0
M  END
> <PUBCHEM_COMPOUND_CID>
152432

> <PUBCHEM_CONFORMER_RMSD>
0.6

> <PUBCHEM_CONFORMER_DIVERSEORDER>
3
25
21
13
22
10
1
8
19
23
5
11
14
12
7
15
18
24
16
20
17
2
4
6
9

> <PUBCHEM_MMFF94_PARTIAL_CHARGES>
19
1 -0.43
10 0.66
11 -0.15
12 -0.15
13 0.08
14 -0.15
15 0.08
2 -0.57
23 0.15
24 0.15
25 0.15
26 0.45
27 0.45
3 -0.53
4 -0.53
5 0.28
7 0.14
8 0.06
9 -0.14

> <PUBCHEM_EFFECTIVE_ROTOR_COUNT>
2.8

> <PUBCHEM_PHARMACOPHORE_FEATURES>
5
1 2 acceptor
1 3 donor
1 4 donor
5 1 5 6 8 10 rings
6 9 11 12 13 14 15 rings

> <PUBCHEM_HEAVY_ATOM_COUNT>
15

> <PUBCHEM_ATOM_DEF_STEREO_COUNT>
0

> <PUBCHEM_ATOM_UDEF_STEREO_COUNT>
1

> <PUBCHEM_BOND_DEF_STEREO_COUNT>
0

> <PUBCHEM_BOND_UDEF_STEREO_COUNT>
0

> <PUBCHEM_ISOTOPIC_ATOM_COUNT>
0

> <PUBCHEM_COMPONENT_COUNT>
1

> <PUBCHEM_CACTVS_TAUTO_COUNT>
36

> <PUBCHEM_CONFORMER_ID>
0002537000000003

> <PUBCHEM_MMFF94_ENERGY>
27.2848

> <PUBCHEM_FEATURE_SELFOVERLAP>
25.376

> <PUBCHEM_SHAPE_FINGERPRINT>
10616163 171 18341614841004457999
11543360 7 18113900498128672797
11769659 78 18412258424164743673
11806522 49 18413108385824886216
12707595 3 17489866063766432041
13296908 3 17632571686594082897
13705890 14 18343867740371624524
13760787 19 18410014312537651613
14250199 8 17894636984529365157
14576447 43 18409728486796266230
15239191 94 18343017817893805735
15242433 33 18410294675144193301
15375462 189 18342466962478476745
15442244 35 18265331698957500624
15477762 27 18407760343818294272
15757776 16 18334012774860184482
18186145 218 16588025684340640081
18915474 69 18412826910267842558
19107657 162 17704072880276719671
19422 9 18411138034938286121
200 152 18413110563035584792
20279233 1 15410894042008291493
20281475 54 18412540998969580347
20645477 70 18343585165529611749
20871999 31 18187638116407005325
21119208 17 18407761425944532573
21634736 98 18339078310306520062
21713013 43 18262230123101125391
221490 88 18264777729785833626
22485316 2 18413385427841394457
22646028 28 18273214196696057631
23402539 116 17022899043249554108
23402655 69 18187365385235045253
23463225 33 18340485573679172615
23559900 14 18201429268836660920
23598291 2 18190459363763311409
2838139 119 15647913659590688310
2871803 45 18264200478013601999
3082319 5 18334856125769028013
465052 167 17772474736425241783
4921388 177 16588316020304537179
57096353 35 18336269053871280653
58051976 100 18410292515007953661
633830 44 16660929876578177169
7364860 26 18129657642184829520
81228 2 16127268679638168673
93112 12 18408884044712638821
9709674 26 18336269023817357571

> <PUBCHEM_SHAPE_MULTIPOLES>
285.22
8.04
1.81
0.86
2.04
0.47
0.06
2.1
-2.12
0.08
0.03
-0.19
-0.05
-0.72

> <PUBCHEM_SHAPE_SELFOVERLAP>
608.663

> <PUBCHEM_SHAPE_VOLUME>
159.9

> <PUBCHEM_COORDINATE_TYPE>
2
5
10

$$$$
