44389277
  -OEChem-09152012523D

 28 29  0     1  0  0  0  0  0999 V2000
    2.3315    0.6410    0.1255 O   0  0  0  0  0  0  0  0  0  0  0  0
    4.2508    1.7238    0.7652 O   0  0  0  0  0  0  0  0  0  0  0  0
   -3.3979   -2.0194    0.8361 O   0  0  0  0  0  0  0  0  0  0  0  0
   -2.5577    2.5376   -0.3751 O   0  0  0  0  0  0  0  0  0  0  0  0
   -4.2444    0.6135    0.6852 O   0  0  0  0  0  0  0  0  0  0  0  0
    1.9529   -0.7293   -0.0650 C   0  0  2  0  0  0  0  0  0  0  0  0
    3.2473   -1.4325   -0.4064 C   0  0  0  0  0  0  0  0  0  0  0  0
    0.9092   -0.8279   -1.1614 C   0  0  0  0  0  0  0  0  0  0  0  0
    4.2521   -0.6753    0.4284 C   0  0  0  0  0  0  0  0  0  0  0  0
   -0.4636   -0.4439   -0.6703 C   0  0  0  0  0  0  0  0  0  0  0  0
    3.6576    0.7013    0.4591 C   0  0  0  0  0  0  0  0  0  0  0  0
   -0.8866    0.8830   -0.7480 C   0  0  0  0  0  0  0  0  0  0  0  0
   -1.3107   -1.4158   -0.1376 C   0  0  0  0  0  0  0  0  0  0  0  0
   -2.5806   -1.0607    0.3173 C   0  0  0  0  0  0  0  0  0  0  0  0
   -2.1563    1.2382   -0.2928 C   0  0  0  0  0  0  0  0  0  0  0  0
   -3.0035    0.2663    0.2398 C   0  0  0  0  0  0  0  0  0  0  0  0
    1.5610   -1.1016    0.8907 H   0  0  0  0  0  0  0  0  0  0  0  0
    3.4902   -1.3069   -1.4692 H   0  0  0  0  0  0  0  0  0  0  0  0
    3.2247   -2.5042   -0.1892 H   0  0  0  0  0  0  0  0  0  0  0  0
    0.8637   -1.8539   -1.5488 H   0  0  0  0  0  0  0  0  0  0  0  0
    1.1771   -0.1889   -2.0129 H   0  0  0  0  0  0  0  0  0  0  0  0
    5.2391   -0.6690   -0.0393 H   0  0  0  0  0  0  0  0  0  0  0  0
    4.3087   -1.0634    1.4493 H   0  0  0  0  0  0  0  0  0  0  0  0
   -0.2254    1.6399   -1.1631 H   0  0  0  0  0  0  0  0  0  0  0  0
   -0.9789   -2.4495   -0.0755 H   0  0  0  0  0  0  0  0  0  0  0  0
   -2.9385   -2.8763    0.8096 H   0  0  0  0  0  0  0  0  0  0  0  0
   -1.8427    3.0661   -0.7693 H   0  0  0  0  0  0  0  0  0  0  0  0
   -4.6860   -0.1868    1.0186 H   0  0  0  0  0  0  0  0  0  0  0  0
  1  6  1  0  0  0  0
  1 11  1  0  0  0  0
  2 11  2  0  0  0  0
  3 14  1  0  0  0  0
  3 26  1  0  0  0  0
  4 15  1  0  0  0  0
  4 27  1  0  0  0  0
  5 16  1  0  0  0  0
  5 28  1  0  0  0  0
  6  7  1  0  0  0  0
  6  8  1  0  0  0  0
  6 17  1  0  0  0  0
  7  9  1  0  0  0  0
  7 18  1  0  0  0  0
  7 19  1  0  0  0  0
  8 10  1  0  0  0  0
  8 20  1  0  0  0  0
  8 21  1  0  0  0  0
  9 11  1  0  0  0  0
  9 22  1  0  0  0  0
  9 23  1  0  0  0  0
 10 12  2  0  0  0  0
 10 13  1  0  0  0  0
 12 15  1  0  0  0  0
 12 24  1  0  0  0  0
 13 14  2  0  0  0  0
 13 25  1  0  0  0  0
 14 16  1  0  0  0  0
 15 16  2  0  0  0  0
M  END
> <PUBCHEM_COMPOUND_CID>
44389277

> <PUBCHEM_CONFORMER_RMSD>
0.6

> <PUBCHEM_CONFORMER_DIVERSEORDER>
2
13
12
6
14
10
7
11
4
1
5
9
3
8

> <PUBCHEM_MMFF94_PARTIAL_CHARGES>
20
1 -0.43
10 -0.14
11 0.66
12 -0.15
13 -0.15
14 0.08
15 0.08
16 0.08
2 -0.57
24 0.15
25 0.15
26 0.45
27 0.45
28 0.45
3 -0.53
4 -0.53
5 -0.53
6 0.28
8 0.14
9 0.06

> <PUBCHEM_EFFECTIVE_ROTOR_COUNT>
2.8

> <PUBCHEM_PHARMACOPHORE_FEATURES>
6
1 2 acceptor
1 3 donor
1 4 donor
1 5 donor
5 1 6 7 9 11 rings
6 10 12 13 14 15 16 rings

> <PUBCHEM_HEAVY_ATOM_COUNT>
16

> <PUBCHEM_ATOM_DEF_STEREO_COUNT>
0

> <PUBCHEM_ATOM_UDEF_STEREO_COUNT>
1

> <PUBCHEM_BOND_DEF_STEREO_COUNT>
0

> <PUBCHEM_BOND_UDEF_STEREO_COUNT>
0

> <PUBCHEM_ISOTOPIC_ATOM_COUNT>
0

> <PUBCHEM_COMPONENT_COUNT>
1

> <PUBCHEM_CACTVS_TAUTO_COUNT>
36

> <PUBCHEM_CONFORMER_ID>
02A5539D00000002

> <PUBCHEM_MMFF94_ENERGY>
29.4613

> <PUBCHEM_FEATURE_SELFOVERLAP>
30.455

> <PUBCHEM_SHAPE_FINGERPRINT>
10608611 8 18341046333331239308
11132069 177 18260550026141415783
11543360 7 10807640234268123802
122479 349 18270677558830451893
12251169 10 18333734602201680212
12500047 106 18043527213943619847
12507560 40 18412260623652144998
12824470 246 15431467124503368371
13214271 11 18341328976523184895
13296909 8 18333448750985649927
13897977 13 18341611559432808572
14026960 21 18342174526777011220
14289901 80 18113904870547655520
14420673 8 17973721377451225802
14866123 147 16108678966228734822
15219456 202 18271810094641088950
15309172 13 17418096533063909542
15653759 3 18334577910730445870
16945 1 18189917356677106431
17804303 29 18119253857099224382
18186145 218 17703511017445987406
19049666 15 18053389803259406614
19050596 39 18408039619803495402
20361792 2 15502377828770659614
20510252 161 18412546509296570187
20528008 55 18410571773528227943
20645477 56 18263929847734212397
20671657 53 11818987462057265294
20681677 76 18411971473162902428
21065198 57 18410573938281558634
21065199 12 18410009936113878050
21637258 2 15285931337782519609
21650355 55 18261395602413063323
22182937 141 18128261073534003593
22854114 59 18202283601960626950
22959321 60 18342455980252394786
23402539 116 18411694392723823239
23559900 14 18335710394927967078
27216 239 18343015605790430585
3009799 131 18189884470403106679
5104073 3 18411135844505212882
5374978 207 18407759244000750499
6049 1 18200892681350077126
69090 78 18343297042318345975
77779 3 18409449181015234898
90316 7 17458624454322829365
9709674 26 18341332188937631022
9882013 296 18270683189595815326

> <PUBCHEM_SHAPE_MULTIPOLES>
299.93
8.29
1.96
0.9
3.91
0.47
-0.09
1.06
2.61
-0.78
0.09
-0.01
-0.07
0.96

> <PUBCHEM_SHAPE_SELFOVERLAP>
641.848

> <PUBCHEM_SHAPE_VOLUME>
167.4

> <PUBCHEM_COORDINATE_TYPE>
2
5
10

$$$$
