101438247
  -OEChem-09152013213D

 69 75  0     1  0  0  0  0  0999 V2000
    2.8156   -0.0330   -1.9453 O   0  0  0  0  0  0  0  0  0  0  0  0
    1.6107   -1.1376    0.5612 O   0  0  0  0  0  0  0  0  0  0  0  0
    1.3468    0.3343   -3.7086 O   0  0  0  0  0  0  0  0  0  0  0  0
    2.1815    4.4461   -1.3738 O   0  0  0  0  0  0  0  0  0  0  0  0
   -2.5723    0.0151   -0.4465 O   0  0  0  0  0  0  0  0  0  0  0  0
    2.5863    2.7466   -3.5180 O   0  0  0  0  0  0  0  0  0  0  0  0
    0.2871   -0.3991    2.7247 O   0  0  0  0  0  0  0  0  0  0  0  0
    1.9430    3.7718    1.7455 O   0  0  0  0  0  0  0  0  0  0  0  0
   -0.1240    1.8151    3.0773 O   0  0  0  0  0  0  0  0  0  0  0  0
   -2.8813   -0.1806    2.4054 O   0  0  0  0  0  0  0  0  0  0  0  0
   -0.3903    5.1849    1.3952 O   0  0  0  0  0  0  0  0  0  0  0  0
    6.0415   -2.9998    0.0301 O   0  0  0  0  0  0  0  0  0  0  0  0
    2.4482   -5.6607    1.6550 O   0  0  0  0  0  0  0  0  0  0  0  0
   -7.0335   -1.6147    0.5029 O   0  0  0  0  0  0  0  0  0  0  0  0
   -4.4854   -3.4200   -3.0879 O   0  0  0  0  0  0  0  0  0  0  0  0
    0.8940    1.0884   -0.0697 C   0  0  1  0  0  0  0  0  0  0  0  0
    2.1085    0.2047    0.3923 C   0  0  2  0  0  0  0  0  0  0  0  0
    0.5214    0.6071   -1.4974 C   0  0  0  0  0  0  0  0  0  0  0  0
   -0.3566    0.8786    0.8522 C   0  0  2  0  0  0  0  0  0  0  0  0
    3.2657    0.2678   -0.6194 C   0  0  1  0  0  0  0  0  0  0  0  0
    1.7362    0.7685   -2.4099 C   0  0  1  0  0  0  0  0  0  0  0  0
    1.3250    2.5437   -0.1984 C   0  0  0  0  0  0  0  0  0  0  0  0
    4.3897   -0.6938   -0.2434 C   0  0  0  0  0  0  0  0  0  0  0  0
   -1.5221    1.8365    0.6659 C   0  0  0  0  0  0  0  0  0  0  0  0
    2.0938    2.2559   -2.5035 C   0  0  0  0  0  0  0  0  0  0  0  0
    1.8470    3.1113   -1.3011 C   0  0  0  0  0  0  0  0  0  0  0  0
   -2.8411    1.1645    0.3693 C   0  0  2  0  0  0  0  0  0  0  0  0
    1.0853    3.4441    0.9424 C   0  0  0  0  0  0  0  0  0  0  0  0
    3.8623   -2.0041    0.2556 C   0  0  0  0  0  0  0  0  0  0  0  0
   -0.0618    0.8500    2.3304 C   0  0  0  0  0  0  0  0  0  0  0  0
    2.5288   -2.1430    0.6394 C   0  0  0  0  0  0  0  0  0  0  0  0
   -1.4821    3.1774    0.7718 C   0  0  0  0  0  0  0  0  0  0  0  0
   -0.2939    4.0094    1.0679 C   0  0  0  0  0  0  0  0  0  0  0  0
   -3.6046    0.7874    1.6433 C   0  0  1  0  0  0  0  0  0  0  0  0
    4.7245   -3.1037    0.3710 C   0  0  0  0  0  0  0  0  0  0  0  0
    2.0524   -3.3747    1.0978 C   0  0  0  0  0  0  0  0  0  0  0  0
   -4.9546    0.1815    1.2654 C   0  0  0  0  0  0  0  0  0  0  0  0
   -4.8194   -0.7639    0.1021 C   0  0  0  0  0  0  0  0  0  0  0  0
   -3.6585   -0.7886   -0.6812 C   0  0  0  0  0  0  0  0  0  0  0  0
    4.2517   -4.3295    0.8398 C   0  0  0  0  0  0  0  0  0  0  0  0
    2.9138   -4.4657    1.2001 C   0  0  0  0  0  0  0  0  0  0  0  0
   -5.8767   -1.6255   -0.2198 C   0  0  0  0  0  0  0  0  0  0  0  0
   -3.5419   -1.6894   -1.7428 C   0  0  0  0  0  0  0  0  0  0  0  0
   -5.7645   -2.5143   -1.2896 C   0  0  0  0  0  0  0  0  0  0  0  0
   -4.5962   -2.5490   -2.0477 C   0  0  0  0  0  0  0  0  0  0  0  0
    2.4733    0.5496    1.3695 H   0  0  0  0  0  0  0  0  0  0  0  0
    0.2088   -0.4457   -1.4869 H   0  0  0  0  0  0  0  0  0  0  0  0
   -0.3323    1.1700   -1.9005 H   0  0  0  0  0  0  0  0  0  0  0  0
   -0.7031   -0.1429    0.6534 H   0  0  0  0  0  0  0  0  0  0  0  0
    3.7164    1.2663   -0.6399 H   0  0  0  0  0  0  0  0  0  0  0  0
    4.9914   -0.2496    0.5594 H   0  0  0  0  0  0  0  0  0  0  0  0
    5.0361   -0.8563   -1.1141 H   0  0  0  0  0  0  0  0  0  0  0  0
   -3.4562    1.8499   -0.2329 H   0  0  0  0  0  0  0  0  0  0  0  0
   -2.4017    3.7484    0.6627 H   0  0  0  0  0  0  0  0  0  0  0  0
    2.0304    0.6283   -4.3345 H   0  0  0  0  0  0  0  0  0  0  0  0
   -3.7564    1.6626    2.2857 H   0  0  0  0  0  0  0  0  0  0  0  0
    1.0066   -3.4755    1.3795 H   0  0  0  0  0  0  0  0  0  0  0  0
   -5.6433    0.9828    0.9710 H   0  0  0  0  0  0  0  0  0  0  0  0
   -5.3807   -0.3461    2.1269 H   0  0  0  0  0  0  0  0  0  0  0  0
    2.5418    4.6079   -2.2628 H   0  0  0  0  0  0  0  0  0  0  0  0
    0.4866   -0.4382    3.6843 H   0  0  0  0  0  0  0  0  0  0  0  0
    4.9201   -5.1827    0.9264 H   0  0  0  0  0  0  0  0  0  0  0  0
   -3.3866   -0.3522    3.2182 H   0  0  0  0  0  0  0  0  0  0  0  0
    6.4781   -3.8565    0.1760 H   0  0  0  0  0  0  0  0  0  0  0  0
   -2.6286   -1.7112   -2.3330 H   0  0  0  0  0  0  0  0  0  0  0  0
   -6.5837   -3.1850   -1.5372 H   0  0  0  0  0  0  0  0  0  0  0  0
    1.5010   -5.5737    1.8584 H   0  0  0  0  0  0  0  0  0  0  0  0
   -7.6461   -2.2746    0.1353 H   0  0  0  0  0  0  0  0  0  0  0  0
   -3.6122   -3.3079   -3.5015 H   0  0  0  0  0  0  0  0  0  0  0  0
  1 20  1  0  0  0  0
  1 21  1  0  0  0  0
  2 17  1  0  0  0  0
  2 31  1  0  0  0  0
  3 21  1  0  0  0  0
  3 55  1  0  0  0  0
  4 26  1  0  0  0  0
  4 60  1  0  0  0  0
  5 27  1  0  0  0  0
  5 39  1  0  0  0  0
  6 25  2  0  0  0  0
  7 30  1  0  0  0  0
  7 61  1  0  0  0  0
  8 28  2  0  0  0  0
  9 30  2  0  0  0  0
 10 34  1  0  0  0  0
 10 63  1  0  0  0  0
 11 33  2  0  0  0  0
 12 35  1  0  0  0  0
 12 64  1  0  0  0  0
 13 41  1  0  0  0  0
 13 67  1  0  0  0  0
 14 42  1  0  0  0  0
 14 68  1  0  0  0  0
 15 45  1  0  0  0  0
 15 69  1  0  0  0  0
 16 17  1  0  0  0  0
 16 18  1  0  0  0  0
 16 19  1  0  0  0  0
 16 22  1  0  0  0  0
 17 20  1  0  0  0  0
 17 46  1  0  0  0  0
 18 21  1  0  0  0  0
 18 47  1  0  0  0  0
 18 48  1  0  0  0  0
 19 24  1  0  0  0  0
 19 30  1  0  0  0  0
 19 49  1  0  0  0  0
 20 23  1  0  0  0  0
 20 50  1  0  0  0  0
 21 25  1  0  0  0  0
 22 26  2  0  0  0  0
 22 28  1  0  0  0  0
 23 29  1  0  0  0  0
 23 51  1  0  0  0  0
 23 52  1  0  0  0  0
 24 27  1  0  0  0  0
 24 32  2  0  0  0  0
 25 26  1  0  0  0  0
 27 34  1  0  0  0  0
 27 53  1  0  0  0  0
 28 33  1  0  0  0  0
 29 31  1  0  0  0  0
 29 35  2  0  0  0  0
 31 36  2  0  0  0  0
 32 33  1  0  0  0  0
 32 54  1  0  0  0  0
 34 37  1  0  0  0  0
 34 56  1  0  0  0  0
 35 40  1  0  0  0  0
 36 41  1  0  0  0  0
 36 57  1  0  0  0  0
 37 38  1  0  0  0  0
 37 58  1  0  0  0  0
 37 59  1  0  0  0  0
 38 39  1  0  0  0  0
 38 42  2  0  0  0  0
 39 43  2  0  0  0  0
 40 41  2  0  0  0  0
 40 62  1  0  0  0  0
 42 44  1  0  0  0  0
 43 45  1  0  0  0  0
 43 65  1  0  0  0  0
 44 45  2  0  0  0  0
 44 66  1  0  0  0  0
M  END
> <PUBCHEM_COMPOUND_CID>
101438247

> <PUBCHEM_CONFORMER_RMSD>
1

> <PUBCHEM_CONFORMER_DIVERSEORDER>
1
13
12
6
2
15
4
11
7
10
8
16
14
5
3
9

> <PUBCHEM_MMFF94_PARTIAL_CHARGES>
57
1 -0.56
10 -0.68
11 -0.57
12 -0.53
13 -0.53
14 -0.53
15 -0.53
16 0.14
17 0.28
19 0.2
2 -0.36
20 0.28
21 0.62
22 -0.12
23 0.14
24 -0.28
25 0.49
26 0.09
27 0.42
28 0.56
29 -0.14
3 -0.68
30 0.66
31 0.08
32 -0.14
33 0.56
34 0.28
35 0.08
36 -0.15
37 0.14
38 -0.14
39 0.08
4 -0.53
40 -0.15
41 0.08
42 0.08
43 -0.15
44 -0.15
45 0.08
5 -0.36
54 0.15
55 0.4
57 0.15
6 -0.57
60 0.45
61 0.5
62 0.15
63 0.4
64 0.45
65 0.15
66 0.15
67 0.45
68 0.45
69 0.45
7 -0.65
8 -0.57
9 -0.57

> <PUBCHEM_EFFECTIVE_ROTOR_COUNT>
3.8

> <PUBCHEM_PHARMACOPHORE_FEATURES>
25
1 1 acceptor
1 10 acceptor
1 10 donor
1 11 acceptor
1 12 donor
1 13 donor
1 14 donor
1 15 donor
1 2 acceptor
1 3 acceptor
1 3 donor
1 4 donor
1 5 acceptor
1 6 acceptor
1 7 acceptor
1 8 acceptor
1 9 acceptor
3 7 9 30 anion
6 1 16 17 18 20 21 rings
6 16 18 21 22 25 26 rings
6 2 17 20 23 29 31 rings
6 29 31 35 36 40 41 rings
6 38 39 42 43 44 45 rings
6 5 27 34 37 38 39 rings
7 16 19 22 24 28 32 33 rings

> <PUBCHEM_HEAVY_ATOM_COUNT>
45

> <PUBCHEM_ATOM_DEF_STEREO_COUNT>
6

> <PUBCHEM_ATOM_UDEF_STEREO_COUNT>
1

> <PUBCHEM_BOND_DEF_STEREO_COUNT>
0

> <PUBCHEM_BOND_UDEF_STEREO_COUNT>
0

> <PUBCHEM_ISOTOPIC_ATOM_COUNT>
0

> <PUBCHEM_COMPONENT_COUNT>
1

> <PUBCHEM_CACTVS_TAUTO_COUNT>
972

> <PUBCHEM_CONFORMER_ID>
060BD32700000001

> <PUBCHEM_MMFF94_ENERGY>
145.4323

> <PUBCHEM_FEATURE_SELFOVERLAP>
128.751

> <PUBCHEM_SHAPE_FINGERPRINT>
10622 236 18046898282251539115
10928967 22 18269846453284981855
11497681 19 18265618668279571142
11552529 35 17907288854787911266
11763715 3 18340780234506461392
12608794 3 17116586444667628976
12633046 712 18189075221143982755
13636023 51 17559083585116156185
13911987 19 17898884445624620884
14068700 675 18339641144691671346
14394314 77 18341896260209559937
14674994 50 17758097216704178141
15968369 26 17973994343822617531
19319366 153 18192723455694244461
20764821 26 17979065308609249019
20775438 99 17977928405291729627
20775530 9 18115584820940757402
21458453 9 15194129773983582747
21716022 299 18409176510241401046
24893989 43 17268640107265714175
24941158 1 17832663054626754869
25222932 49 17195708414056915047
4394409 98 18058714807789404191
44280117 145 18053107221252616302
44880168 125 16987712390233083951
46194498 28 17458625657251152263
463206 1 18409456877286004115
5081480 168 16877946005959621183
57527295 17 18266201554843309497
66674814 147 17967813804121675954
6677587 24 16954488714006635319
6823239 73 16486149438311007477
70251023 43 18334290972872002057
86090 222 16900448941852920823

> <PUBCHEM_SHAPE_MULTIPOLES>
838.04
10.97
6.69
2.93
12.37
0.5
-1.63
15.28
-1.78
-5.88
1.48
0.16
-0.9
-5.08

> <PUBCHEM_SHAPE_SELFOVERLAP>
1905.797

> <PUBCHEM_SHAPE_VOLUME>
426.6

> <PUBCHEM_COORDINATE_TYPE>
2
5
10

$$$$
