6430765
  -OEChem-09152014433D

 33 33  0     1  0  0  0  0  0999 V2000
   -0.1034    2.5754    1.4500 O   0  0  0  0  0  0  0  0  0  0  0  0
   -1.1260   -2.0686    0.2603 O   0  0  0  0  0  0  0  0  0  0  0  0
   -3.1311   -0.9263    0.1543 O   0  0  0  0  0  0  0  0  0  0  0  0
   -0.0141    0.5753    0.0849 C   0  0  2  0  0  0  0  0  0  0  0  0
   -1.1314    0.0154   -0.8082 C   0  0  2  0  0  0  0  0  0  0  0  0
   -1.9914    1.2152   -1.1985 C   0  0  0  0  0  0  0  0  0  0  0  0
   -1.9883    2.1276    0.0202 C   0  0  0  0  0  0  0  0  0  0  0  0
   -0.6336    1.8536    0.6139 C   0  0  0  0  0  0  0  0  0  0  0  0
    1.2521    0.8938   -0.6959 C   0  0  0  0  0  0  0  0  0  0  0  0
   -1.9346   -1.0255   -0.0816 C   0  0  0  0  0  0  0  0  0  0  0  0
    1.8526   -0.3432   -1.2976 C   0  0  0  0  0  0  0  0  0  0  0  0
    2.7881   -1.0896   -0.6922 C   0  0  0  0  0  0  0  0  0  0  0  0
    3.3522   -0.7815    0.6632 C   0  0  0  0  0  0  0  0  0  0  0  0
   -1.7662   -3.1383    0.9631 C   0  0  0  0  0  0  0  0  0  0  0  0
    4.5752    0.1167    0.5640 C   0  0  0  0  0  0  0  0  0  0  0  0
    0.2013   -0.0713    0.9428 H   0  0  0  0  0  0  0  0  0  0  0  0
   -0.7715   -0.4712   -1.7215 H   0  0  0  0  0  0  0  0  0  0  0  0
   -3.0094    0.9568   -1.5066 H   0  0  0  0  0  0  0  0  0  0  0  0
   -1.5210    1.7384   -2.0412 H   0  0  0  0  0  0  0  0  0  0  0  0
   -2.7585    1.8429    0.7424 H   0  0  0  0  0  0  0  0  0  0  0  0
   -2.0922    3.1780   -0.2602 H   0  0  0  0  0  0  0  0  0  0  0  0
    1.9671    1.4214   -0.0548 H   0  0  0  0  0  0  0  0  0  0  0  0
    1.0385    1.6007   -1.5088 H   0  0  0  0  0  0  0  0  0  0  0  0
    1.5111   -0.6409   -2.2854 H   0  0  0  0  0  0  0  0  0  0  0  0
    3.1798   -1.9606   -1.2105 H   0  0  0  0  0  0  0  0  0  0  0  0
    2.6072   -0.3246    1.3227 H   0  0  0  0  0  0  0  0  0  0  0  0
    3.6330   -1.7267    1.1432 H   0  0  0  0  0  0  0  0  0  0  0  0
   -2.1768   -2.7762    1.9105 H   0  0  0  0  0  0  0  0  0  0  0  0
   -1.0145   -3.9029    1.1759 H   0  0  0  0  0  0  0  0  0  0  0  0
   -2.5525   -3.5810    0.3444 H   0  0  0  0  0  0  0  0  0  0  0  0
    4.3331    1.0850    0.1144 H   0  0  0  0  0  0  0  0  0  0  0  0
    4.9864    0.3032    1.5614 H   0  0  0  0  0  0  0  0  0  0  0  0
    5.3602   -0.3507   -0.0405 H   0  0  0  0  0  0  0  0  0  0  0  0
  1  8  2  0  0  0  0
  2 10  1  0  0  0  0
  2 14  1  0  0  0  0
  3 10  2  0  0  0  0
  4  5  1  0  0  0  0
  4  8  1  0  0  0  0
  4  9  1  0  0  0  0
  4 16  1  0  0  0  0
  5  6  1  0  0  0  0
  5 10  1  0  0  0  0
  5 17  1  0  0  0  0
  6  7  1  0  0  0  0
  6 18  1  0  0  0  0
  6 19  1  0  0  0  0
  7  8  1  0  0  0  0
  7 20  1  0  0  0  0
  7 21  1  0  0  0  0
  9 11  1  0  0  0  0
  9 22  1  0  0  0  0
  9 23  1  0  0  0  0
 11 12  2  0  0  0  0
 11 24  1  0  0  0  0
 12 13  1  0  0  0  0
 12 25  1  0  0  0  0
 13 15  1  0  0  0  0
 13 26  1  0  0  0  0
 13 27  1  0  0  0  0
 14 28  1  0  0  0  0
 14 29  1  0  0  0  0
 14 30  1  0  0  0  0
 15 31  1  0  0  0  0
 15 32  1  0  0  0  0
 15 33  1  0  0  0  0
M  END
> <PUBCHEM_COMPOUND_CID>
6430765

> <PUBCHEM_CONFORMER_RMSD>
0.6

> <PUBCHEM_CONFORMER_DIVERSEORDER>
1
51
14
56
62
59
48
19
25
68
22
4
78
60
3
70
61
2
76
30
64
52
74
69
15
75
58
17
29
65
73
45
7
40
67
72
9
77
32
16
27
6
23
10
39
49
46
35
28
44
55
71
11
13
42
8
66
26
33
37
38
24
63
36
47
31
20
5
54
18
50
21
57
34
43
41
12
53

> <PUBCHEM_MMFF94_PARTIAL_CHARGES>
15
1 -0.57
10 0.66
11 -0.29
12 -0.29
13 0.14
14 0.28
2 -0.43
24 0.15
25 0.15
3 -0.57
4 0.06
5 0.06
7 0.06
8 0.45
9 0.14

> <PUBCHEM_EFFECTIVE_ROTOR_COUNT>
5.8

> <PUBCHEM_PHARMACOPHORE_FEATURES>
4
1 1 acceptor
1 15 hydrophobe
1 3 acceptor
5 4 5 6 7 8 rings

> <PUBCHEM_HEAVY_ATOM_COUNT>
15

> <PUBCHEM_ATOM_DEF_STEREO_COUNT>
2

> <PUBCHEM_ATOM_UDEF_STEREO_COUNT>
0

> <PUBCHEM_BOND_DEF_STEREO_COUNT>
1

> <PUBCHEM_BOND_UDEF_STEREO_COUNT>
0

> <PUBCHEM_ISOTOPIC_ATOM_COUNT>
0

> <PUBCHEM_COMPONENT_COUNT>
1

> <PUBCHEM_CACTVS_TAUTO_COUNT>
3

> <PUBCHEM_CONFORMER_ID>
0062202D00000001

> <PUBCHEM_MMFF94_ENERGY>
18.7052

> <PUBCHEM_FEATURE_SELFOVERLAP>
20.297

> <PUBCHEM_SHAPE_FINGERPRINT>
10366900 7 18059845156849367194
12500047 106 18189605065167589540
12592029 89 17243299323002117833
13024252 1 13984958281096762509
14115302 16 18113899398453566951
15852999 172 18193547879183484894
16945 1 18261685830221815655
20510252 161 18340769243283964394
21061003 4 17845377807063676632
21452121 199 17754731959472108078
21524375 3 16978728121845450760
23402539 116 18339909455461497917
23419403 2 18052504902715888925
23557571 272 18343027687971115230
23559900 14 18198617745080337486
2748010 2 17904762524748772791
305870 269 17329720820680825764
3071541 236 18336829671604517438
5902787 121 18264209291054280826
75552 356 18409443666192837414
81228 2 18199210419742726577

> <PUBCHEM_SHAPE_MULTIPOLES>
291.09
5.5
2.85
1.19
6.76
1.17
0.04
1.18
-0.53
-2.59
-1.24
0.16
-0.25
0.49

> <PUBCHEM_SHAPE_SELFOVERLAP>
581.296

> <PUBCHEM_SHAPE_VOLUME>
173.6

> <PUBCHEM_COORDINATE_TYPE>
2
5
10

$$$$
