135403798
  -OEChem-09152013073D

 65 70  0     1  0  0  0  0  0999 V2000
    2.9668   -1.2204   -0.4747 O   0  0  0  0  0  0  0  0  0  0  0  0
   -2.3938    0.0205   -0.6025 O   0  0  0  0  0  0  0  0  0  0  0  0
    2.8129   -0.8421    2.3763 O   0  0  0  0  0  0  0  0  0  0  0  0
   -2.7372    1.4086    1.8919 O   0  0  0  0  0  0  0  0  0  0  0  0
    3.3412    4.9815    0.1810 O   0  0  0  0  0  0  0  0  0  0  0  0
    5.2419    3.0238    0.3340 O   0  0  0  0  0  0  0  0  0  0  0  0
    1.2594   -5.2955    1.5130 O   0  0  0  0  0  0  0  0  0  0  0  0
   -6.9633   -0.5994    0.8792 O   0  0  0  0  0  0  0  0  0  0  0  0
   -0.6303    5.5477   -1.8694 O   0  0  0  0  0  0  0  0  0  0  0  0
    0.7968    5.4562    0.5813 O   0  0  0  0  0  0  0  0  0  0  0  0
    4.4344   -5.4457   -2.0276 O   0  0  0  0  0  0  0  0  0  0  0  0
   -4.5174   -4.1879   -1.0668 O   0  0  0  0  0  0  0  0  0  0  0  0
    1.9019   -0.4885    0.1531 C   0  0  1  0  0  0  0  0  0  0  0  0
    1.6331   -0.9765    1.5826 C   0  0  1  0  0  0  0  0  0  0  0  0
   -2.5895    1.4409   -0.5439 C   0  0  1  0  0  0  0  0  0  0  0  0
    2.2140    0.9960    0.1129 C   0  0  0  0  0  0  0  0  0  0  0  0
   -3.3868    1.8507    0.6989 C   0  0  1  0  0  0  0  0  0  0  0  0
    1.2164   -2.4454    1.5477 C   0  0  0  0  0  0  0  0  0  0  0  0
    1.2082    1.9736   -0.0027 C   0  0  0  0  0  0  0  0  0  0  0  0
   -1.2416    2.0893   -0.5972 C   0  0  0  0  0  0  0  0  0  0  0  0
   -4.7721    1.2101    0.6474 C   0  0  0  0  0  0  0  0  0  0  0  0
    2.0716   -3.2282    0.5882 C   0  0  0  0  0  0  0  0  0  0  0  0
   -0.1811    1.4967   -0.0245 C   0  0  0  0  0  0  0  0  0  0  0  0
   -4.6930   -0.2185    0.1805 C   0  0  0  0  0  0  0  0  0  0  0  0
    2.8782   -2.5836   -0.3583 C   0  0  0  0  0  0  0  0  0  0  0  0
    1.5902    3.3223    0.0046 C   0  0  0  0  0  0  0  0  0  0  0  0
   -3.5306   -0.7234   -0.4159 C   0  0  0  0  0  0  0  0  0  0  0  0
    3.5605    1.3494    0.2181 C   0  0  0  0  0  0  0  0  0  0  0  0
   -1.2096    3.3313   -1.3423 C   0  0  0  0  0  0  0  0  0  0  0  0
    2.9457    3.6740    0.1236 C   0  0  0  0  0  0  0  0  0  0  0  0
    3.9260    2.6896    0.2251 C   0  0  0  0  0  0  0  0  0  0  0  0
    2.0500   -4.6291    0.6234 C   0  0  0  0  0  0  0  0  0  0  0  0
    0.6362    4.4467   -0.0969 C   0  0  0  0  0  0  0  0  0  0  0  0
   -5.8043   -1.0597    0.3261 C   0  0  0  0  0  0  0  0  0  0  0  0
   -0.4252    4.3944   -1.1322 C   0  0  0  0  0  0  0  0  0  0  0  0
    3.6801   -3.3285   -1.2268 C   0  0  0  0  0  0  0  0  0  0  0  0
   -3.4680   -2.0589   -0.8217 C   0  0  0  0  0  0  0  0  0  0  0  0
    2.8411   -5.3716   -0.2540 C   0  0  0  0  0  0  0  0  0  0  0  0
    3.6586   -4.7215   -1.1756 C   0  0  0  0  0  0  0  0  0  0  0  0
   -5.7452   -2.3892   -0.0932 C   0  0  0  0  0  0  0  0  0  0  0  0
   -4.5763   -2.8894   -0.6627 C   0  0  0  0  0  0  0  0  0  0  0  0
    1.0275   -0.6810   -0.4825 H   0  0  0  0  0  0  0  0  0  0  0  0
    0.8550   -0.3880    2.0795 H   0  0  0  0  0  0  0  0  0  0  0  0
   -3.1596    1.7069   -1.4462 H   0  0  0  0  0  0  0  0  0  0  0  0
   -3.4842    2.9408    0.7637 H   0  0  0  0  0  0  0  0  0  0  0  0
    0.1743   -2.5213    1.2137 H   0  0  0  0  0  0  0  0  0  0  0  0
    1.2947   -2.8757    2.5530 H   0  0  0  0  0  0  0  0  0  0  0  0
   -5.4021    1.7623   -0.0606 H   0  0  0  0  0  0  0  0  0  0  0  0
   -5.2399    1.2532    1.6380 H   0  0  0  0  0  0  0  0  0  0  0  0
   -0.3718    0.5874    0.5351 H   0  0  0  0  0  0  0  0  0  0  0  0
    4.3351    0.5937    0.3203 H   0  0  0  0  0  0  0  0  0  0  0  0
   -1.9596    3.4222   -2.1274 H   0  0  0  0  0  0  0  0  0  0  0  0
    2.5988   -1.1463    3.2748 H   0  0  0  0  0  0  0  0  0  0  0  0
    4.3150   -2.8169   -1.9464 H   0  0  0  0  0  0  0  0  0  0  0  0
   -3.2604    1.7274    2.6470 H   0  0  0  0  0  0  0  0  0  0  0  0
   -2.5538   -2.4444   -1.2672 H   0  0  0  0  0  0  0  0  0  0  0  0
    2.8268   -6.4584   -0.2239 H   0  0  0  0  0  0  0  0  0  0  0  0
   -6.6065   -3.0427    0.0229 H   0  0  0  0  0  0  0  0  0  0  0  0
    2.6111    5.5771   -0.0479 H   0  0  0  0  0  0  0  0  0  0  0  0
    5.7737    2.2117    0.3928 H   0  0  0  0  0  0  0  0  0  0  0  0
    1.3762   -6.2531    1.3898 H   0  0  0  0  0  0  0  0  0  0  0  0
   -7.6167   -1.3195    0.8973 H   0  0  0  0  0  0  0  0  0  0  0  0
    0.0138    6.2093   -1.5626 H   0  0  0  0  0  0  0  0  0  0  0  0
    4.9345   -4.8348   -2.5957 H   0  0  0  0  0  0  0  0  0  0  0  0
   -3.6354   -4.3633   -1.4373 H   0  0  0  0  0  0  0  0  0  0  0  0
  1 13  1  0  0  0  0
  1 25  1  0  0  0  0
  2 15  1  0  0  0  0
  2 27  1  0  0  0  0
  3 14  1  0  0  0  0
  3 53  1  0  0  0  0
  4 17  1  0  0  0  0
  4 55  1  0  0  0  0
  5 30  1  0  0  0  0
  5 59  1  0  0  0  0
  6 31  1  0  0  0  0
  6 60  1  0  0  0  0
  7 32  1  0  0  0  0
  7 61  1  0  0  0  0
  8 34  1  0  0  0  0
  8 62  1  0  0  0  0
  9 35  1  0  0  0  0
  9 63  1  0  0  0  0
 10 33  2  0  0  0  0
 11 39  1  0  0  0  0
 11 64  1  0  0  0  0
 12 41  1  0  0  0  0
 12 65  1  0  0  0  0
 13 14  1  0  0  0  0
 13 16  1  0  0  0  0
 13 42  1  0  0  0  0
 14 18  1  0  0  0  0
 14 43  1  0  0  0  0
 15 17  1  0  0  0  0
 15 20  1  0  0  0  0
 15 44  1  0  0  0  0
 16 19  1  0  0  0  0
 16 28  2  0  0  0  0
 17 21  1  0  0  0  0
 17 45  1  0  0  0  0
 18 22  1  0  0  0  0
 18 46  1  0  0  0  0
 18 47  1  0  0  0  0
 19 23  1  0  0  0  0
 19 26  2  0  0  0  0
 20 23  2  0  0  0  0
 20 29  1  0  0  0  0
 21 24  1  0  0  0  0
 21 48  1  0  0  0  0
 21 49  1  0  0  0  0
 22 25  1  0  0  0  0
 22 32  2  0  0  0  0
 23 50  1  0  0  0  0
 24 27  1  0  0  0  0
 24 34  2  0  0  0  0
 25 36  2  0  0  0  0
 26 30  1  0  0  0  0
 26 33  1  0  0  0  0
 27 37  2  0  0  0  0
 28 31  1  0  0  0  0
 28 51  1  0  0  0  0
 29 35  2  0  0  0  0
 29 52  1  0  0  0  0
 30 31  2  0  0  0  0
 32 38  1  0  0  0  0
 33 35  1  0  0  0  0
 34 40  1  0  0  0  0
 36 39  1  0  0  0  0
 36 54  1  0  0  0  0
 37 41  1  0  0  0  0
 37 56  1  0  0  0  0
 38 39  2  0  0  0  0
 38 57  1  0  0  0  0
 40 41  2  0  0  0  0
 40 58  1  0  0  0  0
M  END
> <PUBCHEM_COMPOUND_CID>
135403798

> <PUBCHEM_CONFORMER_RMSD>
0.8

> <PUBCHEM_CONFORMER_DIVERSEORDER>
1
20
38
47
44
42
23
51
48
53
10
40
43
45
31
37
27
49
6
39
57
46
50
13
52
54
16
14
55
18
35
21
32
33
15
28
41
34
11
24
29
7
25
17
30
9
19
26
22
8
36
3
12
56
2
4
5

> <PUBCHEM_MMFF94_PARTIAL_CHARGES>
57
1 -0.36
10 -0.57
11 -0.53
12 -0.53
13 0.42
14 0.28
15 0.42
16 -0.14
17 0.28
18 0.14
19 0.03
2 -0.36
20 -0.14
21 0.14
22 -0.14
23 -0.18
24 -0.14
25 0.08
26 0.09
27 0.08
28 -0.15
29 -0.15
3 -0.68
30 0.08
31 0.08
32 0.08
33 0.47
34 0.08
35 0.09
36 -0.15
37 -0.15
38 -0.15
39 0.08
4 -0.68
40 -0.15
41 0.08
5 -0.53
50 0.15
51 0.15
52 0.15
53 0.4
54 0.15
55 0.4
56 0.15
57 0.15
58 0.15
59 0.45
6 -0.53
60 0.45
61 0.45
62 0.45
63 0.45
64 0.45
65 0.45
7 -0.53
8 -0.53
9 -0.53

> <PUBCHEM_EFFECTIVE_ROTOR_COUNT>
3.6

> <PUBCHEM_PHARMACOPHORE_FEATURES>
20
1 1 acceptor
1 10 acceptor
1 11 donor
1 12 donor
1 2 acceptor
1 3 acceptor
1 3 donor
1 4 acceptor
1 4 donor
1 5 donor
1 6 donor
1 7 donor
1 8 donor
1 9 donor
6 1 13 14 18 22 25 rings
6 16 19 26 28 30 31 rings
6 2 15 17 21 24 27 rings
6 22 25 32 36 38 39 rings
6 24 27 34 37 40 41 rings
7 19 20 23 26 29 33 35 rings

> <PUBCHEM_HEAVY_ATOM_COUNT>
41

> <PUBCHEM_ATOM_DEF_STEREO_COUNT>
4

> <PUBCHEM_ATOM_UDEF_STEREO_COUNT>
0

> <PUBCHEM_BOND_DEF_STEREO_COUNT>
0

> <PUBCHEM_BOND_UDEF_STEREO_COUNT>
0

> <PUBCHEM_ISOTOPIC_ATOM_COUNT>
0

> <PUBCHEM_COMPONENT_COUNT>
1

> <PUBCHEM_CACTVS_TAUTO_COUNT>
-1

> <PUBCHEM_CONFORMER_ID>
0812191600000001

> <PUBCHEM_MMFF94_ENERGY>
144.5794

> <PUBCHEM_FEATURE_SELFOVERLAP>
101.588

> <PUBCHEM_SHAPE_FINGERPRINT>
10462674 296 18200577160052736447
11513181 2 18201724002525633975
12107183 9 18055649313272845481
12786520 15 17331167864272384747
12788726 201 17471023475567662234
13347071 3 16969424600122942956
1361 2 18192992853370851705
13690498 29 17829907437731696791
13692114 37 17693084580207068954
13785724 45 18339088069305685799
14251757 5 17400926297755149038
15297060 5 17912373326750057313
15320467 1 18339079422983196255
15351339 4 16318908479777252611
15400415 2 17907296908042092717
15448158 6 18267870488559920141
17909252 39 18341055095507537238
18365409 1 17256810525305746245
19311894 1 17545884823839317131
19319366 153 17911517907157379565
20028762 73 18125156288745713724
20737093 15 17332208380726418383
20775438 99 17689101909032493765
20775530 9 18197770012588096227
21133410 32 16375282283664378362
21133410 62 17182464809475471463
3737641 26 18337678503134184765
3882209 13 17687696685626997719
4461854 278 17689170318955371531
44880168 125 17127600970013337223
463206 1 18191879915754916987
49967989 163 17188423668676745190
50080093 196 18266160911262053059
5776283 40 18266196091871373086
613672 6 18049413994993630671
6700243 42 17411644401485729982
70251023 43 18264498294844794185

> <PUBCHEM_SHAPE_MULTIPOLES>
773.33
11.19
10.02
1.41
12.5
1.49
-0.17
-11.86
0.21
-9.41
2.58
-0.56
-0.61
1.33

> <PUBCHEM_SHAPE_SELFOVERLAP>
1745.319

> <PUBCHEM_SHAPE_VOLUME>
400.8

> <PUBCHEM_COORDINATE_TYPE>
2
5
10

$$$$
