68196394
  -OEChem-09152014513D

 32 34  0     1  0  0  0  0  0999 V2000
    0.7031    1.4926   -0.0056 O   0  0  0  0  0  0  0  0  0  0  0  0
   -2.0239   -1.0394    0.0438 O   0  0  0  0  0  0  0  0  0  0  0  0
    2.7859   -2.8780    0.0788 O   0  0  0  0  0  0  0  0  0  0  0  0
    5.4196    1.0815   -0.1036 O   0  0  0  0  0  0  0  0  0  0  0  0
   -4.3376   -2.0939   -0.0305 O   0  0  0  0  0  0  0  0  0  0  0  0
   -5.4607   -0.1024   -0.0822 O   0  0  0  0  0  0  0  0  0  0  0  0
   -0.7727   -0.4392   -0.3183 C   0  0  1  0  0  0  0  0  0  0  0  0
   -0.5365    0.8969    0.4004 C   0  0  2  0  0  0  0  0  0  0  0  0
    0.3388   -1.4133    0.0684 C   0  0  0  0  0  0  0  0  0  0  0  0
    1.6795   -0.7432    0.0255 C   0  0  0  0  0  0  0  0  0  0  0  0
   -1.6931    1.8328    0.1028 C   0  0  0  0  0  0  0  0  0  0  0  0
    1.7857    0.6526    0.0022 C   0  0  0  0  0  0  0  0  0  0  0  0
   -2.9832    1.1745   -0.0055 C   0  0  0  0  0  0  0  0  0  0  0  0
    2.8478   -1.5162    0.0326 C   0  0  0  0  0  0  0  0  0  0  0  0
   -3.0858   -0.1638   -0.0005 C   0  0  0  0  0  0  0  0  0  0  0  0
    3.0410    1.2634   -0.0540 C   0  0  0  0  0  0  0  0  0  0  0  0
    4.1010   -0.9043   -0.0097 C   0  0  0  0  0  0  0  0  0  0  0  0
    4.1972    0.4847   -0.0572 C   0  0  0  0  0  0  0  0  0  0  0  0
   -1.5784    3.1618   -0.0448 C   0  0  0  0  0  0  0  0  0  0  0  0
   -4.4276   -0.7471   -0.0426 C   0  0  0  0  0  0  0  0  0  0  0  0
   -0.7485   -0.2967   -1.4094 H   0  0  0  0  0  0  0  0  0  0  0  0
   -0.5136    0.7451    1.4901 H   0  0  0  0  0  0  0  0  0  0  0  0
    0.3057   -2.2724   -0.6129 H   0  0  0  0  0  0  0  0  0  0  0  0
    0.1646   -1.8038    1.0794 H   0  0  0  0  0  0  0  0  0  0  0  0
   -3.8610    1.8115   -0.0733 H   0  0  0  0  0  0  0  0  0  0  0  0
    3.1114    2.3481   -0.0885 H   0  0  0  0  0  0  0  0  0  0  0  0
    5.0079   -1.5042   -0.0079 H   0  0  0  0  0  0  0  0  0  0  0  0
   -0.6214    3.6644    0.0461 H   0  0  0  0  0  0  0  0  0  0  0  0
   -2.4398    3.7885   -0.2549 H   0  0  0  0  0  0  0  0  0  0  0  0
    3.6889   -3.2392    0.0761 H   0  0  0  0  0  0  0  0  0  0  0  0
    5.2989    2.0462   -0.1317 H   0  0  0  0  0  0  0  0  0  0  0  0
   -5.2196   -2.5225   -0.0579 H   0  0  0  0  0  0  0  0  0  0  0  0
  1  8  1  0  0  0  0
  1 12  1  0  0  0  0
  2  7  1  0  0  0  0
  2 15  1  0  0  0  0
  3 14  1  0  0  0  0
  3 30  1  0  0  0  0
  4 18  1  0  0  0  0
  4 31  1  0  0  0  0
  5 20  1  0  0  0  0
  5 32  1  0  0  0  0
  6 20  2  0  0  0  0
  7  8  1  0  0  0  0
  7  9  1  0  0  0  0
  7 21  1  0  0  0  0
  8 11  1  0  0  0  0
  8 22  1  0  0  0  0
  9 10  1  0  0  0  0
  9 23  1  0  0  0  0
  9 24  1  0  0  0  0
 10 12  1  0  0  0  0
 10 14  2  0  0  0  0
 11 13  1  0  0  0  0
 11 19  2  0  0  0  0
 12 16  2  0  0  0  0
 13 15  2  0  0  0  0
 13 25  1  0  0  0  0
 14 17  1  0  0  0  0
 15 20  1  0  0  0  0
 16 18  1  0  0  0  0
 16 26  1  0  0  0  0
 17 18  2  0  0  0  0
 17 27  1  0  0  0  0
 19 28  1  0  0  0  0
 19 29  1  0  0  0  0
M  END
> <PUBCHEM_COMPOUND_CID>
68196394

> <PUBCHEM_CONFORMER_RMSD>
0.6

> <PUBCHEM_CONFORMER_DIVERSEORDER>
1

> <PUBCHEM_MMFF94_PARTIAL_CHARGES>
28
1 -0.36
10 -0.14
11 -0.14
12 0.08
13 -0.15
14 0.08
15 0.09
16 -0.15
17 -0.15
18 0.08
19 -0.3
2 -0.36
20 0.71
25 0.15
26 0.15
27 0.15
28 0.15
29 0.15
3 -0.53
30 0.45
31 0.45
32 0.5
4 -0.53
5 -0.65
6 -0.57
7 0.28
8 0.42
9 0.14

> <PUBCHEM_EFFECTIVE_ROTOR_COUNT>
1.6

> <PUBCHEM_PHARMACOPHORE_FEATURES>
10
1 1 acceptor
1 2 acceptor
1 3 donor
1 4 donor
1 5 acceptor
1 6 acceptor
3 5 6 20 anion
6 1 7 8 9 10 12 rings
6 10 12 14 16 17 18 rings
6 2 7 8 11 13 15 rings

> <PUBCHEM_HEAVY_ATOM_COUNT>
20

> <PUBCHEM_ATOM_DEF_STEREO_COUNT>
2

> <PUBCHEM_ATOM_UDEF_STEREO_COUNT>
0

> <PUBCHEM_BOND_DEF_STEREO_COUNT>
0

> <PUBCHEM_BOND_UDEF_STEREO_COUNT>
0

> <PUBCHEM_ISOTOPIC_ATOM_COUNT>
0

> <PUBCHEM_COMPONENT_COUNT>
1

> <PUBCHEM_CACTVS_TAUTO_COUNT>
9

> <PUBCHEM_CONFORMER_ID>
0410982A00000001

> <PUBCHEM_MMFF94_ENERGY>
54.5894

> <PUBCHEM_FEATURE_SELFOVERLAP>
50.876

> <PUBCHEM_SHAPE_FINGERPRINT>
10090160 65 18187642552580993510
10366900 7 18409172138281308872
10608611 8 18338796694007630984
10616163 171 18341051826293828007
10967382 1 18338797917640397418
11045515 52 18113897174151592397
11471102 20 18410011048578933862
11578080 2 17242156956069330806
11806522 49 18408323297750132836
12107183 9 17691127032771115411
12403259 226 18411976928077778080
12553582 1 18270104829315592879
12916754 54 18270122288299531306
13140716 1 18051122889787908256
13544653 18 18334583455691402617
138480 1 15024149219288829669
13862211 1 18411414055190746143
14178342 30 17976804412049030178
14251764 18 18202286901624287985
14787075 74 18261392311929992507
14790565 3 18050574237348923317
15196674 1 18339080393370991720
15375462 6 18410856546791876014
15442244 35 18122061997048461434
15536298 74 18341895143713026798
16945 1 18341317981496538672
17349148 13 18040996254441244152
17492 89 18266740186153843499
1813 80 17530691991526142757
200 152 18343862230018040137
20261772 1 17917426566285610479
20510252 161 18343021047398125737
20645477 70 18341050718662011014
21267235 1 18411707547818390326
21307412 95 17050497643979242790
21501502 16 18338801083210857096
21652331 79 18411699885195580284
221490 88 18338524019440125818
23366157 5 17969791778838248882
23402539 116 18341608261087699639
23557571 272 18201164269048477469
23558518 356 18189908517080737513
23559900 14 18125151629065146906
26918003 58 18040434421137232363
2871803 45 18408321072962439182
33824 294 18408603656616024114
34934 24 18340200885956479615
350125 39 18411982460032448640
3545911 37 18408886243398089374
4214541 1 18338798896919574496
474 4 17604157025273274140
474229 33 18411136974192237702
5104073 3 18340205185170913728
5283173 99 18115013096997034565
5486654 2 18337957890931077422
59755656 215 18409168805297230582
77779 3 18411702041174119854
9709674 26 18337398153671488498

> <PUBCHEM_SHAPE_MULTIPOLES>
376.37
9.71
2.58
0.6
0.99
0.44
0
-1.91
0.32
0.36
-0.02
-0.01
0.02
-0.12

> <PUBCHEM_SHAPE_SELFOVERLAP>
831.564

> <PUBCHEM_SHAPE_VOLUME>
200.5

> <PUBCHEM_COORDINATE_TYPE>
2
5
10

$$$$
