129650210
  -OEChem-09162003363D

 40 41  0     1  0  0  0  0  0999 V2000
   -1.8522    1.7204   -1.0093 O   0  0  0  0  0  0  0  0  0  0  0  0
   -1.9615   -2.6149   -0.4143 O   0  0  0  0  0  0  0  0  0  0  0  0
   -4.6644   -1.8366    0.0071 O   0  0  0  0  0  0  0  0  0  0  0  0
   -4.4795    0.8789   -0.5290 O   0  0  0  0  0  0  0  0  0  0  0  0
   -0.0858    1.3349    2.0473 O   0  0  0  0  0  0  0  0  0  0  0  0
   -0.3756   -0.6228   -2.2189 O   0  0  0  0  0  0  0  0  0  0  0  0
    0.1658    2.7815    0.3037 O   0  0  0  0  0  0  0  0  0  0  0  0
    4.2919    1.6403   -1.1772 O   0  0  0  0  0  0  0  0  0  0  0  0
    3.6464   -2.2301    1.5690 O   0  0  0  0  0  0  0  0  0  0  0  0
    5.3014   -0.2347    0.5941 O   0  0  0  0  0  0  0  0  0  0  0  0
   -1.1821   -0.3806    0.0103 C   0  0  1  0  0  0  0  0  0  0  0  0
   -1.5699    1.0925    0.2359 C   0  0  2  0  0  0  0  0  0  0  0  0
   -2.3745   -1.2443   -0.4320 C   0  0  2  0  0  0  0  0  0  0  0  0
   -2.7864    1.2158    1.1721 C   0  0  0  0  0  0  0  0  0  0  0  0
   -3.5630   -1.0891    0.5221 C   0  0  1  0  0  0  0  0  0  0  0  0
   -3.9754    0.3714    0.7059 C   0  0  2  0  0  0  0  0  0  0  0  0
   -0.0977   -0.4854   -1.0298 C   0  0  0  0  0  0  0  0  0  0  0  0
   -0.4106    1.8432    0.8335 C   0  0  0  0  0  0  0  0  0  0  0  0
    1.3278   -0.4190   -0.5997 C   0  0  0  0  0  0  0  0  0  0  0  0
    1.8320   -1.3638    0.2938 C   0  0  0  0  0  0  0  0  0  0  0  0
    2.1578    0.5881   -1.0920 C   0  0  0  0  0  0  0  0  0  0  0  0
    3.4923    0.6504   -0.6906 C   0  0  0  0  0  0  0  0  0  0  0  0
    3.1666   -1.3017    0.6951 C   0  0  0  0  0  0  0  0  0  0  0  0
    3.9966   -0.2944    0.2029 C   0  0  0  0  0  0  0  0  0  0  0  0
   -0.7987   -0.8126    0.9441 H   0  0  0  0  0  0  0  0  0  0  0  0
   -2.6903   -1.0259   -1.4588 H   0  0  0  0  0  0  0  0  0  0  0  0
   -3.0961    2.2683    1.2153 H   0  0  0  0  0  0  0  0  0  0  0  0
   -2.5267    0.9107    2.1933 H   0  0  0  0  0  0  0  0  0  0  0  0
   -3.3110   -1.5290    1.4953 H   0  0  0  0  0  0  0  0  0  0  0  0
   -4.7953    0.4368    1.4301 H   0  0  0  0  0  0  0  0  0  0  0  0
   -1.0597    1.6869   -1.5705 H   0  0  0  0  0  0  0  0  0  0  0  0
   -1.6995   -2.8406    0.4945 H   0  0  0  0  0  0  0  0  0  0  0  0
   -5.4043   -1.7338    0.6297 H   0  0  0  0  0  0  0  0  0  0  0  0
   -4.7345    1.8057   -0.3824 H   0  0  0  0  0  0  0  0  0  0  0  0
    0.6728    1.8078    2.4511 H   0  0  0  0  0  0  0  0  0  0  0  0
    1.1882   -2.1546    0.6714 H   0  0  0  0  0  0  0  0  0  0  0  0
    1.7623    1.3233   -1.7889 H   0  0  0  0  0  0  0  0  0  0  0  0
    3.7727    2.2002   -1.7796 H   0  0  0  0  0  0  0  0  0  0  0  0
    2.9309   -2.8465    1.8019 H   0  0  0  0  0  0  0  0  0  0  0  0
    5.7197    0.5250    0.1529 H   0  0  0  0  0  0  0  0  0  0  0  0
  1 12  1  0  0  0  0
  1 31  1  0  0  0  0
  2 13  1  0  0  0  0
  2 32  1  0  0  0  0
  3 15  1  0  0  0  0
  3 33  1  0  0  0  0
  4 16  1  0  0  0  0
  4 34  1  0  0  0  0
  5 18  1  0  0  0  0
  5 35  1  0  0  0  0
  6 17  2  0  0  0  0
  7 18  2  0  0  0  0
  8 22  1  0  0  0  0
  8 38  1  0  0  0  0
  9 23  1  0  0  0  0
  9 39  1  0  0  0  0
 10 24  1  0  0  0  0
 10 40  1  0  0  0  0
 11 12  1  0  0  0  0
 11 13  1  0  0  0  0
 11 17  1  0  0  0  0
 11 25  1  0  0  0  0
 12 14  1  0  0  0  0
 12 18  1  0  0  0  0
 13 15  1  0  0  0  0
 13 26  1  0  0  0  0
 14 16  1  0  0  0  0
 14 27  1  0  0  0  0
 14 28  1  0  0  0  0
 15 16  1  0  0  0  0
 15 29  1  0  0  0  0
 16 30  1  0  0  0  0
 17 19  1  0  0  0  0
 19 20  2  0  0  0  0
 19 21  1  0  0  0  0
 20 23  1  0  0  0  0
 20 36  1  0  0  0  0
 21 22  2  0  0  0  0
 21 37  1  0  0  0  0
 22 24  1  0  0  0  0
 23 24  2  0  0  0  0
M  END
> <PUBCHEM_COMPOUND_CID>
129650210

> <PUBCHEM_CONFORMER_RMSD>
0.8

> <PUBCHEM_CONFORMER_DIVERSEORDER>
1
53
84
72
97
56
107
35
29
25
19
38
77
17
101
82
61
100
83
14
91
90
98
99
63
86
32
34
79
80
106
46
26
78
109
73
52
28
105
108
103
49
44
10
74
87
89
41
24
62
76
37
31
68
58
70
50
67
45
96
18
5
92
4
104
43
60
69
85
66
75
36
40
15
39
94
42
88
59
54
57
95
13
27
30
8
23
20
51
7
93
22
65
55
2
21
3
11
9
48
6
64
71
102
16
12
81
47
33

> <PUBCHEM_MMFF94_PARTIAL_CHARGES>
33
1 -0.68
10 -0.53
11 0.06
12 0.34
13 0.28
15 0.28
16 0.28
17 0.42
18 0.66
19 0.09
2 -0.68
20 -0.15
21 -0.15
22 0.08
23 0.08
24 0.08
3 -0.68
31 0.4
32 0.4
33 0.4
34 0.4
35 0.5
36 0.15
37 0.15
38 0.45
39 0.45
4 -0.68
40 0.45
5 -0.65
6 -0.57
7 -0.57
8 -0.53
9 -0.53

> <PUBCHEM_EFFECTIVE_ROTOR_COUNT>
4.2

> <PUBCHEM_PHARMACOPHORE_FEATURES>
17
1 1 acceptor
1 1 donor
1 10 donor
1 2 acceptor
1 2 donor
1 3 acceptor
1 3 donor
1 4 acceptor
1 4 donor
1 5 acceptor
1 6 acceptor
1 7 acceptor
1 8 donor
1 9 donor
3 5 7 18 anion
6 11 12 13 14 15 16 rings
6 19 20 21 22 23 24 rings

> <PUBCHEM_HEAVY_ATOM_COUNT>
24

> <PUBCHEM_ATOM_DEF_STEREO_COUNT>
2

> <PUBCHEM_ATOM_UDEF_STEREO_COUNT>
3

> <PUBCHEM_BOND_DEF_STEREO_COUNT>
0

> <PUBCHEM_BOND_UDEF_STEREO_COUNT>
0

> <PUBCHEM_ISOTOPIC_ATOM_COUNT>
0

> <PUBCHEM_COMPONENT_COUNT>
1

> <PUBCHEM_CACTVS_TAUTO_COUNT>
25

> <PUBCHEM_CONFORMER_ID>
07BA4E2200000001

> <PUBCHEM_MMFF94_ENERGY>
66.3025

> <PUBCHEM_FEATURE_SELFOVERLAP>
86.377

> <PUBCHEM_SHAPE_FINGERPRINT>
10366900 7 16298393431575637698
10759866 29 18335428971527403676
10863032 1 18333171656654171169
10906281 52 17987252062200176825
11132069 177 18059864939125782741
11370993 70 17603590724575260826
11578080 2 18043786831869392885
12011746 2 17989208148866689045
12107183 9 17684644329530754256
12236239 1 18408887339210868278
12403814 3 18259707778965788525
12467345 10 18186799136830785882
12553582 1 18272650203150336855
12633257 1 18130516275214260913
12788726 201 17987810600731822161
13140716 1 17843967181254221283
13224815 77 17988642965145177782
133893 2 17412709033404246300
13583140 156 18338782455964120060
14289901 80 18186522081496897952
14341114 176 18337956688857407034
14341114 328 18410302414696457368
14787075 74 18335988678580075938
15375462 189 18408891766757771659
15375462 478 18411135792928428092
15848702 151 16877947139604159447
16945 1 18200888326506329269
17492 89 18263082128401335898
17780758 139 17903612126697004402
18222031 100 17703788175964890895
200 152 18040715870154247978
20511986 3 18262223495475846800
20600515 1 18059029353101449269
20691752 17 18119231007603690401
20715895 44 17974564694126535125
21267235 1 18410304617909535722
21486144 27 14692563330306095902
23366157 5 18048314745485934405
23402539 116 18201995525629836119
23557571 272 17846228760613110886
23559900 14 18057335989330940406
26918003 58 17822012003641178450
296302 2 18261683635519907453
34934 24 18341332266257247316
474 4 17823428278261634060
5104073 3 18334861627368914417
6034566 193 16014688889828399068
7097593 13 18047752590270008474
90316 7 18338804394588756201

> <PUBCHEM_SHAPE_MULTIPOLES>
435.22
8.71
2.3
1.4
2.78
0.09
-0.04
-1.64
1.05
-0.56
0.34
0.42
0.09
-1.21

> <PUBCHEM_SHAPE_SELFOVERLAP>
940.048

> <PUBCHEM_SHAPE_VOLUME>
235.2

> <PUBCHEM_COORDINATE_TYPE>
2
5
10

$$$$
