22841567
  -OEChem-09162003403D

 54 57  0     1  0  0  0  0  0999 V2000
    1.8938    0.7119   -0.3117 O   0  0  0  0  0  0  0  0  0  0  0  0
    0.2098    1.0009    1.2772 O   0  0  0  0  0  0  0  0  0  0  0  0
    3.4925    4.4020    0.5217 O   0  0  0  0  0  0  0  0  0  0  0  0
    4.2067    3.0460   -1.9291 O   0  0  0  0  0  0  0  0  0  0  0  0
    0.7095    3.7862    1.2680 O   0  0  0  0  0  0  0  0  0  0  0  0
    4.3895   -0.3147   -0.9502 O   0  0  0  0  0  0  0  0  0  0  0  0
   -2.0736   -1.5003   -0.1781 O   0  0  0  0  0  0  0  0  0  0  0  0
   -2.2033    2.3707    1.0877 O   0  0  0  0  0  0  0  0  0  0  0  0
   -4.7335    2.5033    0.4420 O   0  0  0  0  0  0  0  0  0  0  0  0
   -6.6555   -1.4210   -1.4157 O   0  0  0  0  0  0  0  0  0  0  0  0
    2.5892   -3.1220    2.8143 O   0  0  0  0  0  0  0  0  0  0  0  0
    2.3217   -3.6451   -1.9387 O   0  0  0  0  0  0  0  0  0  0  0  0
    3.5767   -4.2072    0.4653 O   0  0  0  0  0  0  0  0  0  0  0  0
    2.6342    3.4825   -0.1555 C   0  0  1  0  0  0  0  0  0  0  0  0
    3.5112    2.4369   -0.8445 C   0  0  1  0  0  0  0  0  0  0  0  0
    1.6872    2.8325    0.8534 C   0  0  2  0  0  0  0  0  0  0  0  0
    2.6615    1.2795   -1.3746 C   0  0  1  0  0  0  0  0  0  0  0  0
    0.9594    1.6355    0.2416 C   0  0  1  0  0  0  0  0  0  0  0  0
    3.5251    0.1680   -1.9625 C   0  0  0  0  0  0  0  0  0  0  0  0
   -0.9274    0.3989    0.7837 C   0  0  0  0  0  0  0  0  0  0  0  0
   -0.9566   -0.8757    0.3538 C   0  0  0  0  0  0  0  0  0  0  0  0
   -2.1685    1.2072    0.7103 C   0  0  0  0  0  0  0  0  0  0  0  0
   -3.3540    0.5343    0.1576 C   0  0  0  0  0  0  0  0  0  0  0  0
   -3.2434   -0.7902   -0.2597 C   0  0  0  0  0  0  0  0  0  0  0  0
    0.2306   -1.7484    0.3830 C   0  0  0  0  0  0  0  0  0  0  0  0
   -4.5726    1.2090    0.0491 C   0  0  0  0  0  0  0  0  0  0  0  0
   -4.3527   -1.4497   -0.7896 C   0  0  0  0  0  0  0  0  0  0  0  0
    0.7250   -2.2933   -0.8020 C   0  0  0  0  0  0  0  0  0  0  0  0
    0.8598   -2.0295    1.5957 C   0  0  0  0  0  0  0  0  0  0  0  0
   -5.6809    0.5470   -0.4805 C   0  0  0  0  0  0  0  0  0  0  0  0
   -5.5714   -0.7797   -0.8993 C   0  0  0  0  0  0  0  0  0  0  0  0
    1.9835   -2.8557    1.6234 C   0  0  0  0  0  0  0  0  0  0  0  0
    1.8487   -3.1193   -0.7744 C   0  0  0  0  0  0  0  0  0  0  0  0
    2.4779   -3.4005    0.4384 C   0  0  0  0  0  0  0  0  0  0  0  0
    2.0767    4.0720   -0.8928 H   0  0  0  0  0  0  0  0  0  0  0  0
    4.2657    2.0794   -0.1339 H   0  0  0  0  0  0  0  0  0  0  0  0
    2.2347    2.5288    1.7536 H   0  0  0  0  0  0  0  0  0  0  0  0
    1.9834    1.6266   -2.1654 H   0  0  0  0  0  0  0  0  0  0  0  0
    0.2842    1.9891   -0.5526 H   0  0  0  0  0  0  0  0  0  0  0  0
    4.1255    0.5269   -2.8040 H   0  0  0  0  0  0  0  0  0  0  0  0
    2.9012   -0.6633   -2.3023 H   0  0  0  0  0  0  0  0  0  0  0  0
    3.9869    3.9112    1.2001 H   0  0  0  0  0  0  0  0  0  0  0  0
    3.5467    3.3661   -2.5675 H   0  0  0  0  0  0  0  0  0  0  0  0
    0.2071    4.0640    0.4831 H   0  0  0  0  0  0  0  0  0  0  0  0
    4.9153   -1.0334   -1.3406 H   0  0  0  0  0  0  0  0  0  0  0  0
   -4.2697   -2.4831   -1.1166 H   0  0  0  0  0  0  0  0  0  0  0  0
    0.2389   -2.0720   -1.7498 H   0  0  0  0  0  0  0  0  0  0  0  0
    0.4748   -1.6137    2.5244 H   0  0  0  0  0  0  0  0  0  0  0  0
   -6.6301    1.0708   -0.5655 H   0  0  0  0  0  0  0  0  0  0  0  0
   -3.9030    2.8580    0.7942 H   0  0  0  0  0  0  0  0  0  0  0  0
   -7.4123   -0.8099   -1.4175 H   0  0  0  0  0  0  0  0  0  0  0  0
    2.1112   -2.6598    3.5241 H   0  0  0  0  0  0  0  0  0  0  0  0
    1.7649   -3.3383   -2.6748 H   0  0  0  0  0  0  0  0  0  0  0  0
    3.7735   -4.4883   -0.4452 H   0  0  0  0  0  0  0  0  0  0  0  0
  1 17  1  0  0  0  0
  1 18  1  0  0  0  0
  2 18  1  0  0  0  0
  2 20  1  0  0  0  0
  3 14  1  0  0  0  0
  3 42  1  0  0  0  0
  4 15  1  0  0  0  0
  4 43  1  0  0  0  0
  5 16  1  0  0  0  0
  5 44  1  0  0  0  0
  6 19  1  0  0  0  0
  6 45  1  0  0  0  0
  7 21  1  0  0  0  0
  7 24  1  0  0  0  0
  8 22  2  0  0  0  0
  9 26  1  0  0  0  0
  9 50  1  0  0  0  0
 10 31  1  0  0  0  0
 10 51  1  0  0  0  0
 11 32  1  0  0  0  0
 11 52  1  0  0  0  0
 12 33  1  0  0  0  0
 12 53  1  0  0  0  0
 13 34  1  0  0  0  0
 13 54  1  0  0  0  0
 14 15  1  0  0  0  0
 14 16  1  0  0  0  0
 14 35  1  0  0  0  0
 15 17  1  0  0  0  0
 15 36  1  0  0  0  0
 16 18  1  0  0  0  0
 16 37  1  0  0  0  0
 17 19  1  0  0  0  0
 17 38  1  0  0  0  0
 18 39  1  0  0  0  0
 19 40  1  0  0  0  0
 19 41  1  0  0  0  0
 20 21  2  0  0  0  0
 20 22  1  0  0  0  0
 21 25  1  0  0  0  0
 22 23  1  0  0  0  0
 23 24  1  0  0  0  0
 23 26  2  0  0  0  0
 24 27  2  0  0  0  0
 25 28  2  0  0  0  0
 25 29  1  0  0  0  0
 26 30  1  0  0  0  0
 27 31  1  0  0  0  0
 27 46  1  0  0  0  0
 28 33  1  0  0  0  0
 28 47  1  0  0  0  0
 29 32  2  0  0  0  0
 29 48  1  0  0  0  0
 30 31  2  0  0  0  0
 30 49  1  0  0  0  0
 32 34  1  0  0  0  0
 33 34  2  0  0  0  0
M  END
> <PUBCHEM_COMPOUND_CID>
22841567

> <PUBCHEM_CONFORMER_RMSD>
0.8

> <PUBCHEM_CONFORMER_DIVERSEORDER>
1
49
48
71
30
76
59
57
11
83
18
23
72
78
50
60
47
79
62
51
37
34
53
36
35
26
46
80
73
45
31
39
82
10
55
38
22
70
66
77
41
42
20
61
16
58
3
52
67
25
74
33
8
69
21
24
44
54
14
5
6
81
40
56
27
28
4
65
7
9
43
32
64
15
29
2
12
68
17
75
13
19
63

> <PUBCHEM_MMFF94_PARTIAL_CHARGES>
47
1 -0.56
10 -0.53
11 -0.53
12 -0.53
13 -0.53
14 0.28
15 0.28
16 0.28
17 0.28
18 0.56
19 0.28
2 -0.36
20 0.09
21 0.05
22 0.47
23 0.09
24 0.08
25 0.03
26 0.08
27 -0.15
28 -0.15
29 -0.15
3 -0.68
30 -0.15
31 0.08
32 0.08
33 0.08
34 0.08
4 -0.68
42 0.4
43 0.4
44 0.4
45 0.4
46 0.15
47 0.15
48 0.15
49 0.15
5 -0.68
50 0.45
51 0.45
52 0.45
53 0.45
54 0.45
6 -0.68
7 -0.16
8 -0.57
9 -0.53

> <PUBCHEM_EFFECTIVE_ROTOR_COUNT>
5.2

> <PUBCHEM_PHARMACOPHORE_FEATURES>
21
1 1 acceptor
1 10 donor
1 11 donor
1 12 donor
1 13 donor
1 2 acceptor
1 3 acceptor
1 3 donor
1 4 acceptor
1 4 donor
1 5 acceptor
1 5 donor
1 6 acceptor
1 6 donor
1 7 acceptor
1 8 acceptor
1 9 donor
6 1 14 15 16 17 18 rings
6 23 24 26 27 30 31 rings
6 25 28 29 32 33 34 rings
6 7 20 21 22 23 24 rings

> <PUBCHEM_HEAVY_ATOM_COUNT>
34

> <PUBCHEM_ATOM_DEF_STEREO_COUNT>
4

> <PUBCHEM_ATOM_UDEF_STEREO_COUNT>
1

> <PUBCHEM_BOND_DEF_STEREO_COUNT>
0

> <PUBCHEM_BOND_UDEF_STEREO_COUNT>
0

> <PUBCHEM_ISOTOPIC_ATOM_COUNT>
0

> <PUBCHEM_COMPONENT_COUNT>
1

> <PUBCHEM_CACTVS_TAUTO_COUNT>
195

> <PUBCHEM_CONFORMER_ID>
015C88DF00000001

> <PUBCHEM_MMFF94_ENERGY>
105.5072

> <PUBCHEM_FEATURE_SELFOVERLAP>
106.689

> <PUBCHEM_SHAPE_FINGERPRINT>
10190108 129 17760936543208744179
10305334 12 16905197637661383128
10653451 467 17329163875366511283
10675989 125 18340493364740220688
10721379 63 18408603630450243779
11578080 2 17531795845503024959
12035759 4 18272661125341464537
12156800 1 15622809665686614542
12788726 201 17468762883496596699
133893 2 18260836955541976281
13540713 5 18272368651660579129
140371 6 17911519792764079899
14068700 675 17976255738725714474
14931854 50 18269571557839694036
15475509 35 13686023159090666093
17980427 23 18197191707714829906
1813 80 18121489168486058955
18681886 176 18272368638169600406
19026451 147 18338797810625632318
20567600 347 18264203784647569219
21133410 230 17319897079830184842
21133665 82 18193273216948578064
22393880 68 18413389843595594613
23366157 5 18261104158685286203
23559900 14 18129658583109435495
238 59 18339656636475106034
25147074 1 18270685269156344617
3298306 158 18338239387414162450
340366 18 17979071579530337873
3504750 166 16891154189821116818
4058900 60 18115039613855678676
4066623 53 17825649072669909093
4280585 95 17838911330115555454
44802255 64 17389402703438018132
463206 1 18265908977106418130
513532 50 18060133233069661382
5895379 119 17843409475149491027
6669772 16 18125998501984095816
6700243 42 17268648499468013990
67856867 119 18409157806080956163
7471813 234 17974010548639526034
9981440 41 18192145125615975601

> <PUBCHEM_SHAPE_MULTIPOLES>
623.4
10.44
5.62
1.7
16.21
0.01
-0.13
1.7
4.78
-8.4
-1.13
-1.54
-0.76
-2.06

> <PUBCHEM_SHAPE_SELFOVERLAP>
1375.8

> <PUBCHEM_SHAPE_VOLUME>
330.6

> <PUBCHEM_COORDINATE_TYPE>
2
5
10

$$$$
