486614
  -OEChem-09162004233D

 69 73  0     1  0  0  0  0  0999 V2000
   -1.8744   -1.9879    0.7556 O   0  0  0  0  0  0  0  0  0  0  0  0
   -3.5476    0.2308   -1.8710 O   0  0  0  0  0  0  0  0  0  0  0  0
    4.3697   -1.5861   -0.1018 O   0  0  0  0  0  0  0  0  0  0  0  0
    4.7370    0.7179   -0.0776 O   0  0  0  0  0  0  0  0  0  0  0  0
    3.0812   -1.5111   -2.5638 O   0  0  0  0  0  0  0  0  0  0  0  0
    6.7992   -1.9659    1.2986 O   0  0  0  0  0  0  0  0  0  0  0  0
    8.7215    0.2045    0.7748 O   0  0  0  0  0  0  0  0  0  0  0  0
    7.4805    2.7803    1.2004 O   0  0  0  0  0  0  0  0  0  0  0  0
   -8.6532   -0.7955    1.0787 O   0  0  0  0  0  0  0  0  0  0  0  0
   -9.2594    1.8086    0.3182 O   0  0  0  0  0  0  0  0  0  0  0  0
    3.4505    3.1468   -0.0369 O   0  0  0  0  0  0  0  0  0  0  0  0
   -1.7994    0.1704   -0.2764 C   0  0  1  0  0  0  0  0  0  0  0  0
   -3.0970    0.0185    0.4703 C   0  0  1  0  0  0  0  0  0  0  0  0
   -1.2784   -1.2714   -0.3453 C   0  0  1  0  0  0  0  0  0  0  0  0
   -4.0950   -0.3066   -0.6493 C   0  0  1  0  0  0  0  0  0  0  0  0
   -2.8171   -1.1301    1.4135 C   0  0  0  0  0  0  0  0  0  0  0  0
   -2.2345    0.7440   -1.6065 C   0  0  0  0  0  0  0  0  0  0  0  0
    0.2280   -1.3556   -0.2840 C   0  0  0  0  0  0  0  0  0  0  0  0
   -5.4729    0.2541   -0.3901 C   0  0  0  0  0  0  0  0  0  0  0  0
    0.9730   -1.3956   -1.4626 C   0  0  0  0  0  0  0  0  0  0  0  0
    0.8746   -1.3933    0.9513 C   0  0  0  0  0  0  0  0  0  0  0  0
   -6.4432   -0.5337    0.2314 C   0  0  0  0  0  0  0  0  0  0  0  0
   -5.7790    1.5616   -0.7714 C   0  0  0  0  0  0  0  0  0  0  0  0
    2.3647   -1.4729   -1.4059 C   0  0  0  0  0  0  0  0  0  0  0  0
    2.2663   -1.4709    1.0081 C   0  0  0  0  0  0  0  0  0  0  0  0
    6.5380   -0.7961    0.5237 C   0  0  1  0  0  0  0  0  0  0  0  0
    5.0358   -0.5169    0.5692 C   0  0  2  0  0  0  0  0  0  0  0  0
    7.3389    0.3767    1.0897 C   0  0  2  0  0  0  0  0  0  0  0  0
    3.0056   -1.5104   -0.1709 C   0  0  0  0  0  0  0  0  0  0  0  0
    6.8783    1.7038    0.4865 C   0  0  1  0  0  0  0  0  0  0  0  0
    5.3554    1.8355    0.5625 C   0  0  1  0  0  0  0  0  0  0  0  0
   -7.7160   -0.0156    0.4712 C   0  0  0  0  0  0  0  0  0  0  0  0
   -7.0517    2.0796   -0.5318 C   0  0  0  0  0  0  0  0  0  0  0  0
   -8.0202    1.2911    0.0896 C   0  0  0  0  0  0  0  0  0  0  0  0
    4.8620    3.0976   -0.1378 C   0  0  0  0  0  0  0  0  0  0  0  0
    3.4928   -0.2608   -3.1130 C   0  0  0  0  0  0  0  0  0  0  0  0
   -8.7139   -0.7453    2.5028 C   0  0  0  0  0  0  0  0  0  0  0  0
   -1.0932    0.8300    0.2406 H   0  0  0  0  0  0  0  0  0  0  0  0
   -3.3792    0.9297    1.0098 H   0  0  0  0  0  0  0  0  0  0  0  0
   -1.6252   -1.7829   -1.2523 H   0  0  0  0  0  0  0  0  0  0  0  0
   -4.1782   -1.3885   -0.8143 H   0  0  0  0  0  0  0  0  0  0  0  0
   -3.7090   -1.7025    1.6830 H   0  0  0  0  0  0  0  0  0  0  0  0
   -2.3448   -0.7714    2.3345 H   0  0  0  0  0  0  0  0  0  0  0  0
   -2.3152    1.8352   -1.5523 H   0  0  0  0  0  0  0  0  0  0  0  0
   -1.5663    0.4878   -2.4334 H   0  0  0  0  0  0  0  0  0  0  0  0
    0.4742   -1.3656   -2.4282 H   0  0  0  0  0  0  0  0  0  0  0  0
    0.3165   -1.3573    1.8827 H   0  0  0  0  0  0  0  0  0  0  0  0
   -6.2114   -1.5528    0.5316 H   0  0  0  0  0  0  0  0  0  0  0  0
   -5.0387    2.1985   -1.2474 H   0  0  0  0  0  0  0  0  0  0  0  0
    2.7493   -1.5167    1.9797 H   0  0  0  0  0  0  0  0  0  0  0  0
    6.8554   -1.0187   -0.5020 H   0  0  0  0  0  0  0  0  0  0  0  0
    7.2758    0.4060    2.1839 H   0  0  0  0  0  0  0  0  0  0  0  0
    4.7023   -0.4800    1.6146 H   0  0  0  0  0  0  0  0  0  0  0  0
    7.2187    1.7620   -0.5556 H   0  0  0  0  0  0  0  0  0  0  0  0
    5.0165    1.8726    1.6069 H   0  0  0  0  0  0  0  0  0  0  0  0
   -7.2819    3.0989   -0.8294 H   0  0  0  0  0  0  0  0  0  0  0  0
    5.2636    4.0052    0.3204 H   0  0  0  0  0  0  0  0  0  0  0  0
    5.1210    3.0932   -1.2018 H   0  0  0  0  0  0  0  0  0  0  0  0
    6.5246   -1.7887    2.2144 H   0  0  0  0  0  0  0  0  0  0  0  0
    8.8081    0.1574   -0.1926 H   0  0  0  0  0  0  0  0  0  0  0  0
    7.3779    3.5859    0.6666 H   0  0  0  0  0  0  0  0  0  0  0  0
   -9.8143    1.1170    0.7181 H   0  0  0  0  0  0  0  0  0  0  0  0
    4.4274    0.0593   -2.6452 H   0  0  0  0  0  0  0  0  0  0  0  0
    2.7254    0.5101   -2.9858 H   0  0  0  0  0  0  0  0  0  0  0  0
    3.6721   -0.4005   -4.1826 H   0  0  0  0  0  0  0  0  0  0  0  0
    3.0980    2.3364   -0.4431 H   0  0  0  0  0  0  0  0  0  0  0  0
   -8.9105    0.2747    2.8481 H   0  0  0  0  0  0  0  0  0  0  0  0
   -7.7796   -1.1146    2.9374 H   0  0  0  0  0  0  0  0  0  0  0  0
   -9.5324   -1.3903    2.8337 H   0  0  0  0  0  0  0  0  0  0  0  0
  1 14  1  0  0  0  0
  1 16  1  0  0  0  0
  2 15  1  0  0  0  0
  2 17  1  0  0  0  0
  3 27  1  0  0  0  0
  3 29  1  0  0  0  0
  4 27  1  0  0  0  0
  4 31  1  0  0  0  0
  5 24  1  0  0  0  0
  5 36  1  0  0  0  0
  6 26  1  0  0  0  0
  6 59  1  0  0  0  0
  7 28  1  0  0  0  0
  7 60  1  0  0  0  0
  8 30  1  0  0  0  0
  8 61  1  0  0  0  0
  9 32  1  0  0  0  0
  9 37  1  0  0  0  0
 10 34  1  0  0  0  0
 10 62  1  0  0  0  0
 11 35  1  0  0  0  0
 11 66  1  0  0  0  0
 12 13  1  0  0  0  0
 12 14  1  0  0  0  0
 12 17  1  0  0  0  0
 12 38  1  0  0  0  0
 13 15  1  0  0  0  0
 13 16  1  0  0  0  0
 13 39  1  0  0  0  0
 14 18  1  0  0  0  0
 14 40  1  0  0  0  0
 15 19  1  0  0  0  0
 15 41  1  0  0  0  0
 16 42  1  0  0  0  0
 16 43  1  0  0  0  0
 17 44  1  0  0  0  0
 17 45  1  0  0  0  0
 18 20  2  0  0  0  0
 18 21  1  0  0  0  0
 19 22  2  0  0  0  0
 19 23  1  0  0  0  0
 20 24  1  0  0  0  0
 20 46  1  0  0  0  0
 21 25  2  0  0  0  0
 21 47  1  0  0  0  0
 22 32  1  0  0  0  0
 22 48  1  0  0  0  0
 23 33  2  0  0  0  0
 23 49  1  0  0  0  0
 24 29  2  0  0  0  0
 25 29  1  0  0  0  0
 25 50  1  0  0  0  0
 26 27  1  0  0  0  0
 26 28  1  0  0  0  0
 26 51  1  0  0  0  0
 27 53  1  0  0  0  0
 28 30  1  0  0  0  0
 28 52  1  0  0  0  0
 30 31  1  0  0  0  0
 30 54  1  0  0  0  0
 31 35  1  0  0  0  0
 31 55  1  0  0  0  0
 32 34  2  0  0  0  0
 33 34  1  0  0  0  0
 33 56  1  0  0  0  0
 35 57  1  0  0  0  0
 35 58  1  0  0  0  0
 36 63  1  0  0  0  0
 36 64  1  0  0  0  0
 36 65  1  0  0  0  0
 37 67  1  0  0  0  0
 37 68  1  0  0  0  0
 37 69  1  0  0  0  0
M  END
> <PUBCHEM_COMPOUND_CID>
486614

> <PUBCHEM_CONFORMER_RMSD>
1.2

> <PUBCHEM_CONFORMER_DIVERSEORDER>
3
91
134
11
115
159
34
86
178
146
64
158
179
109
172
147
38
21
71
77
22
6
138
82
31
164
100
12
59
184
142
122
149
62
60
108
166
173
131
176
42
129
70
87
182
162
104
140
128
188
78
26
183
137
92
84
101
73
53
40
121
35
93
50
47
132
16
33
124
156
95
171
15
97
120
185
57
169
72
17
186
63
10
55
180
30
13
157
145
80
45
43
110
19
102
89
88
29
152
41
170
79
168
24
23
155
37
56
1
116
39
130
28
66
36
20
107
61
68
114
90
161
117
52
105
167
163
119
106
175
4
8
44
46
123
94
25
83
174
154
7
160
143
48
118
5
69
113
81
2
65
148
150
96
32
74
187
189
75
67
133
51
177
153
165
111
127
151
18
139
14
99
112
126
76
58
181
144
9
141
98
85
54
27
103
135
136
125
49

> <PUBCHEM_MMFF94_PARTIAL_CHARGES>
46
1 -0.56
10 -0.53
11 -0.68
14 0.42
15 0.42
16 0.28
17 0.28
18 -0.14
19 -0.14
2 -0.56
20 -0.15
21 -0.15
22 -0.15
23 -0.15
24 0.08
25 -0.15
26 0.28
27 0.56
28 0.28
29 0.08
3 -0.36
30 0.28
31 0.28
32 0.08
33 -0.15
34 0.08
35 0.28
36 0.28
37 0.28
4 -0.56
46 0.15
47 0.15
48 0.15
49 0.15
5 -0.36
50 0.15
56 0.15
59 0.4
6 -0.68
60 0.4
61 0.4
62 0.45
66 0.4
7 -0.68
8 -0.68
9 -0.36

> <PUBCHEM_EFFECTIVE_ROTOR_COUNT>
9.4

> <PUBCHEM_PHARMACOPHORE_FEATURES>
20
1 1 acceptor
1 10 donor
1 11 acceptor
1 11 donor
1 2 acceptor
1 3 acceptor
1 4 acceptor
1 5 acceptor
1 6 acceptor
1 6 donor
1 7 acceptor
1 7 donor
1 8 acceptor
1 8 donor
1 9 acceptor
5 1 12 13 14 16 rings
5 2 12 13 15 17 rings
6 18 20 21 24 25 29 rings
6 19 22 23 32 33 34 rings
6 4 26 27 28 30 31 rings

> <PUBCHEM_HEAVY_ATOM_COUNT>
37

> <PUBCHEM_ATOM_DEF_STEREO_COUNT>
9

> <PUBCHEM_ATOM_UDEF_STEREO_COUNT>
0

> <PUBCHEM_BOND_DEF_STEREO_COUNT>
0

> <PUBCHEM_BOND_UDEF_STEREO_COUNT>
0

> <PUBCHEM_ISOTOPIC_ATOM_COUNT>
0

> <PUBCHEM_COMPONENT_COUNT>
1

> <PUBCHEM_CACTVS_TAUTO_COUNT>
3

> <PUBCHEM_CONFORMER_ID>
00076CD600000003

> <PUBCHEM_MMFF94_ENERGY>
141.4686

> <PUBCHEM_FEATURE_SELFOVERLAP>
102.057

> <PUBCHEM_SHAPE_FINGERPRINT>
10 15 18407759231574914395
10673678 19 18059856220431940024
10677351 14 11671779403955373002
11456790 92 18334849490250492688
11534866 41 17022619771464486290
12522641 33 11383533630704659226
12539765 74 18131351908268028958
13383668 362 17530972413962052946
13692114 37 16805329928381449747
13782708 43 11097855190247919147
13811026 1 18333449846460759969
14118638 360 15985110665209452299
14190465 44 17822581611031662123
14904525 67 18059018268514318425
15183329 4 15769774663083870041
15439362 3 15911046613280845026
1577012 14 18130779101374439406
15840311 113 18261111864204748654
18608769 82 18333447651848542401
19302320 297 18411419548681232500
2026 5 9511197247942794584
20771845 140 15140951851905123440
20812841 46 18187361000600502162
21033648 29 17895468237543334490
21130935 74 17750231418384303235
21792934 111 17603302627529236581
21987483 16 14563965623264412993
23576562 1 14116927229409724265
24771293 8 18335420184288404909
3044373 193 18342742888764103558
335507 130 17774717667173334103
3383291 50 16298391253884703803
3418910 222 18060429010578171137
34797466 226 18059864943747966951
3711267 37 17775291556160947993
397830 11 18335989744407367315
4093350 32 17989490710085004068
4112364 45 18411981403401779764
44880568 143 17988086561613991789
4918590 3 18272931665848710279
504579 68 14261353557231932163
5109719 28 18341339946027914427
54039377 194 11314295128429451120
59682541 35 18040155123835606395
6058803 2 15192786011713197803
9953998 17 18040436569591376217
9962374 69 14707214356626167954

> <PUBCHEM_SHAPE_MULTIPOLES>
696.88
28.7
2.57
1.84
23.16
1.79
0.95
12.44
-13.13
-3.32
-0.3
-0.29
-0.56
2.24

> <PUBCHEM_SHAPE_SELFOVERLAP>
1507.08

> <PUBCHEM_SHAPE_VOLUME>
382.9

> <PUBCHEM_COORDINATE_TYPE>
2
5
10

$$$$
