71813434
  -OEChem-09152014533D

 33 35  0     1  0  0  0  0  0999 V2000
   -0.2539   -1.1556    0.1044 O   0  0  0  0  0  0  0  0  0  0  0  0
   -1.4892    1.4392   -0.6313 O   0  0  0  0  0  0  0  0  0  0  0  0
   -3.5499   -0.2932    1.4287 O   0  0  0  0  0  0  0  0  0  0  0  0
   -3.0558    1.4332   -2.2457 O   0  0  0  0  0  0  0  0  0  0  0  0
    3.0041    2.3552    0.7971 O   0  0  0  0  0  0  0  0  0  0  0  0
    4.2870   -1.8442   -1.0358 O   0  0  0  0  0  0  0  0  0  0  0  0
   -1.2002   -0.4499    0.9213 C   0  0  2  0  0  0  0  0  0  0  0  0
   -2.6108   -0.9248    0.5523 C   0  0  2  0  0  0  0  0  0  0  0  0
   -1.1332    1.0586    0.7166 C   0  0  1  0  0  0  0  0  0  0  0  0
    0.2688    1.5826    1.0142 C   0  0  0  0  0  0  0  0  0  0  0  0
   -2.9314   -0.5288   -0.8887 C   0  0  0  0  0  0  0  0  0  0  0  0
    1.3243    0.6639    0.4701 C   0  0  0  0  0  0  0  0  0  0  0  0
   -2.7635   -2.4393    0.7346 C   0  0  0  0  0  0  0  0  0  0  0  0
    1.0104   -0.6363    0.0651 C   0  0  0  0  0  0  0  0  0  0  0  0
   -2.5305    0.8739   -1.2849 C   0  0  0  0  0  0  0  0  0  0  0  0
    2.6533    1.1020    0.3881 C   0  0  0  0  0  0  0  0  0  0  0  0
    2.0034   -1.4731   -0.4514 C   0  0  0  0  0  0  0  0  0  0  0  0
    3.6464    0.2614   -0.1157 C   0  0  0  0  0  0  0  0  0  0  0  0
    3.3205   -1.0248   -0.5391 C   0  0  0  0  0  0  0  0  0  0  0  0
   -0.9930   -0.6860    1.9743 H   0  0  0  0  0  0  0  0  0  0  0  0
   -1.8346    1.5835    1.3765 H   0  0  0  0  0  0  0  0  0  0  0  0
    0.4089    1.6498    2.1001 H   0  0  0  0  0  0  0  0  0  0  0  0
    0.3851    2.5839    0.5829 H   0  0  0  0  0  0  0  0  0  0  0  0
   -4.0120   -0.6113   -1.0594 H   0  0  0  0  0  0  0  0  0  0  0  0
   -2.4223   -1.1996   -1.5917 H   0  0  0  0  0  0  0  0  0  0  0  0
   -2.5612   -2.7252    1.7731 H   0  0  0  0  0  0  0  0  0  0  0  0
   -2.0914   -3.0056    0.0822 H   0  0  0  0  0  0  0  0  0  0  0  0
   -3.7913   -2.7550    0.5213 H   0  0  0  0  0  0  0  0  0  0  0  0
   -4.4416   -0.5952    1.1854 H   0  0  0  0  0  0  0  0  0  0  0  0
    1.7445   -2.4773   -0.7791 H   0  0  0  0  0  0  0  0  0  0  0  0
    4.6766    0.6027   -0.1826 H   0  0  0  0  0  0  0  0  0  0  0  0
    3.9598    2.4786    0.6657 H   0  0  0  0  0  0  0  0  0  0  0  0
    3.8845   -2.6955   -1.2793 H   0  0  0  0  0  0  0  0  0  0  0  0
  1  7  1  0  0  0  0
  1 14  1  0  0  0  0
  2  9  1  0  0  0  0
  2 15  1  0  0  0  0
  3  8  1  0  0  0  0
  3 29  1  0  0  0  0
  4 15  2  0  0  0  0
  5 16  1  0  0  0  0
  5 32  1  0  0  0  0
  6 19  1  0  0  0  0
  6 33  1  0  0  0  0
  7  8  1  0  0  0  0
  7  9  1  0  0  0  0
  7 20  1  0  0  0  0
  8 11  1  0  0  0  0
  8 13  1  0  0  0  0
  9 10  1  0  0  0  0
  9 21  1  0  0  0  0
 10 12  1  0  0  0  0
 10 22  1  0  0  0  0
 10 23  1  0  0  0  0
 11 15  1  0  0  0  0
 11 24  1  0  0  0  0
 11 25  1  0  0  0  0
 12 14  1  0  0  0  0
 12 16  2  0  0  0  0
 13 26  1  0  0  0  0
 13 27  1  0  0  0  0
 13 28  1  0  0  0  0
 14 17  2  0  0  0  0
 16 18  1  0  0  0  0
 17 19  1  0  0  0  0
 17 30  1  0  0  0  0
 18 19  2  0  0  0  0
 18 31  1  0  0  0  0
M  END
> <PUBCHEM_COMPOUND_CID>
71813434

> <PUBCHEM_CONFORMER_RMSD>
0.6

> <PUBCHEM_CONFORMER_DIVERSEORDER>
1
2

> <PUBCHEM_MMFF94_PARTIAL_CHARGES>
23
1 -0.36
10 0.14
11 0.06
12 -0.14
14 0.08
15 0.66
16 0.08
17 -0.15
18 -0.15
19 0.08
2 -0.43
29 0.4
3 -0.68
30 0.15
31 0.15
32 0.45
33 0.45
4 -0.57
5 -0.53
6 -0.53
7 0.28
8 0.28
9 0.28

> <PUBCHEM_EFFECTIVE_ROTOR_COUNT>
1

> <PUBCHEM_PHARMACOPHORE_FEATURES>
9
1 1 acceptor
1 3 acceptor
1 3 donor
1 4 acceptor
1 5 donor
1 6 donor
6 1 7 9 10 12 14 rings
6 12 14 16 17 18 19 rings
6 2 7 8 9 11 15 rings

> <PUBCHEM_HEAVY_ATOM_COUNT>
19

> <PUBCHEM_ATOM_DEF_STEREO_COUNT>
3

> <PUBCHEM_ATOM_UDEF_STEREO_COUNT>
0

> <PUBCHEM_BOND_DEF_STEREO_COUNT>
0

> <PUBCHEM_BOND_UDEF_STEREO_COUNT>
0

> <PUBCHEM_ISOTOPIC_ATOM_COUNT>
0

> <PUBCHEM_COMPONENT_COUNT>
1

> <PUBCHEM_CACTVS_TAUTO_COUNT>
18

> <PUBCHEM_CONFORMER_ID>
0447C93A00000001

> <PUBCHEM_MMFF94_ENERGY>
56.7775

> <PUBCHEM_FEATURE_SELFOVERLAP>
45.829

> <PUBCHEM_SHAPE_FINGERPRINT>
10608611 8 18336259119670044244
10922523 26 18335136539751582212
11543360 7 17313403231122842214
12138202 97 17968642848899618103
12186901 62 17676775279572073367
12491281 212 15791734066063484772
12553582 1 18127981797775616394
12932764 1 18113056030043198282
13296908 3 18412263947550793098
15219456 202 18410290336942550232
15906896 17 17272304435358581393
16945 1 18337947870640273296
17357779 13 18118105099740306055
17844478 74 18261118512334036019
1813 80 17533228689759050515
18186145 218 18334014977830299850
19141452 34 18267031725082759451
19422 9 17418378020988519975
19784866 240 16702009842831292997
19868273 293 17313380072210568341
200 152 17704064071325104278
20361792 2 16988553611064202065
20645477 70 18202558480004695414
20693207 138 18337687389785809654
21639500 275 17988352793102558848
21713013 43 18334584550502277702
22112679 90 15985105240486208017
221490 88 18341341067157011138
22182313 1 18335976545128958316
22802520 49 18408880707180171493
23114952 82 18335986449650707868
23493267 7 17458345199859579859
23557571 272 17968655042164266637
23559900 14 18337667513220482602
25 1 18046900481627358165
2748010 2 18410849997119775928
2838139 119 16589458426250480590
6049 1 18334580156766291588
633830 44 17487912309188111736
77492 1 16487256598895683552
81228 2 17822016449454523793
8809292 202 18336840744173242210
9709674 26 18411693305252798990

> <PUBCHEM_SHAPE_MULTIPOLES>
355.8
6.79
2.17
1.34
2.65
0.17
0.45
1.54
1.27
0.42
-0.07
-1.23
-0.37
1.81

> <PUBCHEM_SHAPE_SELFOVERLAP>
780.821

> <PUBCHEM_SHAPE_VOLUME>
191.1

> <PUBCHEM_COORDINATE_TYPE>
2
5
10

$$$$
