71813433
  -OEChem-09152014523D

 35 37  0     1  0  0  0  0  0999 V2000
    0.8796    0.7079   -0.2946 O   0  0  0  0  0  0  0  0  0  0  0  0
    0.4795   -0.5177    2.2754 O   0  0  0  0  0  0  0  0  0  0  0  0
    4.6570   -2.1793    0.6303 O   0  0  0  0  0  0  0  0  0  0  0  0
   -4.0460    0.9669    0.2488 O   0  0  0  0  0  0  0  0  0  0  0  0
    5.2770    2.0825   -1.3944 O   0  0  0  0  0  0  0  0  0  0  0  0
   -3.3004    2.8198    1.3318 O   0  0  0  0  0  0  0  0  0  0  0  0
   -5.9893   -0.4235   -0.6980 O   0  0  0  0  0  0  0  0  0  0  0  0
   -4.6741   -2.1155   -1.4961 O   0  0  0  0  0  0  0  0  0  0  0  0
    0.4341   -1.2839    1.0705 C   0  0  1  0  0  0  0  0  0  0  0  0
    0.0042   -0.4149   -0.1163 C   0  0  1  0  0  0  0  0  0  0  0  0
    1.8313   -1.8428    0.8104 C   0  0  0  0  0  0  0  0  0  0  0  0
    2.7334   -0.7954    0.2151 C   0  0  0  0  0  0  0  0  0  0  0  0
    2.2154    0.3984   -0.3031 C   0  0  0  0  0  0  0  0  0  0  0  0
   -1.3882    0.1123    0.0369 C   0  0  0  0  0  0  0  0  0  0  0  0
    4.1156   -1.0192    0.1590 C   0  0  0  0  0  0  0  0  0  0  0  0
    3.0708    1.3690   -0.8305 C   0  0  0  0  0  0  0  0  0  0  0  0
   -2.4610   -0.6861   -0.5025 C   0  0  0  0  0  0  0  0  0  0  0  0
   -1.6645    1.2741    0.6450 C   0  0  0  0  0  0  0  0  0  0  0  0
    4.9672   -0.0550   -0.3815 C   0  0  0  0  0  0  0  0  0  0  0  0
    4.4453    1.1401   -0.8720 C   0  0  0  0  0  0  0  0  0  0  0  0
   -3.7173   -0.2461   -0.3825 C   0  0  0  0  0  0  0  0  0  0  0  0
   -3.0569    1.7548    0.7737 C   0  0  0  0  0  0  0  0  0  0  0  0
   -4.8129   -1.0467   -0.9252 C   0  0  0  0  0  0  0  0  0  0  0  0
   -0.2710   -2.1076    1.2325 H   0  0  0  0  0  0  0  0  0  0  0  0
    0.0580   -1.0031   -1.0445 H   0  0  0  0  0  0  0  0  0  0  0  0
    1.7636   -2.6743    0.0982 H   0  0  0  0  0  0  0  0  0  0  0  0
    2.2627   -2.2186    1.7457 H   0  0  0  0  0  0  0  0  0  0  0  0
    2.6588    2.2994   -1.2143 H   0  0  0  0  0  0  0  0  0  0  0  0
    0.7180   -1.1218    2.9991 H   0  0  0  0  0  0  0  0  0  0  0  0
   -2.2177   -1.6250   -0.9883 H   0  0  0  0  0  0  0  0  0  0  0  0
   -0.8926    1.9042    1.0734 H   0  0  0  0  0  0  0  0  0  0  0  0
    6.0400   -0.2273   -0.4220 H   0  0  0  0  0  0  0  0  0  0  0  0
    5.6215   -2.1546    0.5080 H   0  0  0  0  0  0  0  0  0  0  0  0
    4.7470    2.8441   -1.6862 H   0  0  0  0  0  0  0  0  0  0  0  0
   -6.7501   -0.9332   -1.0497 H   0  0  0  0  0  0  0  0  0  0  0  0
  1 10  1  0  0  0  0
  1 13  1  0  0  0  0
  2  9  1  0  0  0  0
  2 29  1  0  0  0  0
  3 15  1  0  0  0  0
  3 33  1  0  0  0  0
  4 21  1  0  0  0  0
  4 22  1  0  0  0  0
  5 20  1  0  0  0  0
  5 34  1  0  0  0  0
  6 22  2  0  0  0  0
  7 23  1  0  0  0  0
  7 35  1  0  0  0  0
  8 23  2  0  0  0  0
  9 10  1  0  0  0  0
  9 11  1  0  0  0  0
  9 24  1  0  0  0  0
 10 14  1  0  0  0  0
 10 25  1  0  0  0  0
 11 12  1  0  0  0  0
 11 26  1  0  0  0  0
 11 27  1  0  0  0  0
 12 13  1  0  0  0  0
 12 15  2  0  0  0  0
 13 16  2  0  0  0  0
 14 17  1  0  0  0  0
 14 18  2  0  0  0  0
 15 19  1  0  0  0  0
 16 20  1  0  0  0  0
 16 28  1  0  0  0  0
 17 21  2  0  0  0  0
 17 30  1  0  0  0  0
 18 22  1  0  0  0  0
 18 31  1  0  0  0  0
 19 20  2  0  0  0  0
 19 32  1  0  0  0  0
 21 23  1  0  0  0  0
M  END
> <PUBCHEM_COMPOUND_CID>
71813433

> <PUBCHEM_CONFORMER_RMSD>
0.6

> <PUBCHEM_CONFORMER_DIVERSEORDER>
1
10
16
7
17
6
18
3
12
4
15
5
13
14
9
2
8
11

> <PUBCHEM_MMFF94_PARTIAL_CHARGES>
31
1 -0.36
10 0.42
11 0.14
12 -0.14
13 0.08
14 -0.14
15 0.08
16 -0.15
17 -0.15
18 -0.14
19 -0.15
2 -0.68
20 0.08
21 0.09
22 0.71
23 0.71
28 0.15
29 0.4
3 -0.53
30 0.15
31 0.15
32 0.15
33 0.45
34 0.45
35 0.5
4 -0.23
5 -0.53
6 -0.57
7 -0.65
8 -0.57
9 0.28

> <PUBCHEM_EFFECTIVE_ROTOR_COUNT>
2.8

> <PUBCHEM_PHARMACOPHORE_FEATURES>
12
1 1 acceptor
1 2 acceptor
1 2 donor
1 3 donor
1 5 donor
1 6 acceptor
1 7 acceptor
1 8 acceptor
3 7 8 23 anion
6 1 9 10 11 12 13 rings
6 12 13 15 16 19 20 rings
6 4 14 17 18 21 22 rings

> <PUBCHEM_HEAVY_ATOM_COUNT>
23

> <PUBCHEM_ATOM_DEF_STEREO_COUNT>
2

> <PUBCHEM_ATOM_UDEF_STEREO_COUNT>
0

> <PUBCHEM_BOND_DEF_STEREO_COUNT>
0

> <PUBCHEM_BOND_UDEF_STEREO_COUNT>
0

> <PUBCHEM_ISOTOPIC_ATOM_COUNT>
0

> <PUBCHEM_COMPONENT_COUNT>
1

> <PUBCHEM_CACTVS_TAUTO_COUNT>
9

> <PUBCHEM_CONFORMER_ID>
0447C93900000001

> <PUBCHEM_MMFF94_ENERGY>
66.0519

> <PUBCHEM_FEATURE_SELFOVERLAP>
60.983

> <PUBCHEM_SHAPE_FINGERPRINT>
10595046 47 18412826906194330396
10912923 1 18411984641601138712
11045515 52 18261104197683481069
11135609 187 18115589395070696684
12107183 9 17763747585394610066
12236239 1 18408603643677926445
12403259 415 16370734716028484227
12403260 363 18187358780192191024
12553582 1 18058153081738066303
12616971 3 18335989653353159297
12714826 92 17131832066949728395
12788726 201 18273497858438869723
13009979 54 18053935165374726114
13167823 11 18412545379514696182
13533116 47 18409727365704293850
13583140 156 14634873093020397528
14251757 5 18198057178407186487
14528608 73 18335140920839789980
15375358 24 15285355115789367703
17349148 13 18187363216255137002
17834072 33 18410008840538417535
18186145 218 17531253829241295970
18681886 176 18202562878842529326
200 152 18408601470366575743
20028762 73 18338227172981814754
20300324 65 18343868831298540453
20612939 158 18113620075751187694
20645477 70 17895186680456206278
21033648 144 17822014228787743670
21033648 29 15791732992268829006
21033650 10 17914927303552201788
21065198 48 18411703158103188636
21267235 1 18411705370106434455
21709351 56 18188769427455734734
2297311 6 17489595579996088669
23402539 116 18343860013793732311
23557571 272 17346602941256809817
23559900 14 18130493237068051425
238078 22 18270115842297613439
25147074 1 18338516339906316337
29717793 49 18341046333072861319
3286 77 18272078401427392096
335352 9 18114186346452950246
34797466 226 16988846120270961912
474 4 17967820487258950044
495365 180 14852149703224754289
5104073 3 18335706009687055104
573450 72 18271804571096686513
633830 44 18041290859048569842
67856867 119 18411693309975423944
7495541 125 17418086654633587642
9981440 41 17543910569519145936

> <PUBCHEM_SHAPE_MULTIPOLES>
426.37
12.19
2.19
1.28
2.55
0.49
-0.29
-0.03
4.5
-0.11
-0.27
0.36
0
-2.95

> <PUBCHEM_SHAPE_SELFOVERLAP>
940.046

> <PUBCHEM_SHAPE_VOLUME>
227.9

> <PUBCHEM_COORDINATE_TYPE>
2
5
10

$$$$
