21896293
  -OEChem-09162004293D

 31 32  0     0  0  0  0  0  0999 V2000
   -1.7040    2.1234    0.8215 O   0  0  0  0  0  0  0  0  0  0  0  0
    1.7014   -2.1233    0.8167 O   0  0  0  0  0  0  0  0  0  0  0  0
   -3.9604    1.6776   -0.6982 O   0  0  0  0  0  0  0  0  0  0  0  0
    3.9644   -1.6773   -0.6930 O   0  0  0  0  0  0  0  0  0  0  0  0
   -4.6368   -0.9029   -1.4382 O   0  0  0  0  0  0  0  0  0  0  0  0
    4.6441    0.9032   -1.4299 O   0  0  0  0  0  0  0  0  0  0  0  0
   -0.0125   -0.0016    1.6709 C   0  0  0  0  0  0  0  0  0  0  0  0
   -1.2391   -0.2219    0.8489 C   0  0  0  0  0  0  0  0  0  0  0  0
    1.2364    0.2220    0.8421 C   0  0  0  0  0  0  0  0  0  0  0  0
   -2.0364    0.8526    0.4546 C   0  0  0  0  0  0  0  0  0  0  0  0
    2.0354   -0.8524    0.4513 C   0  0  0  0  0  0  0  0  0  0  0  0
   -1.5839   -1.5206    0.4743 C   0  0  0  0  0  0  0  0  0  0  0  0
    1.5828    1.5208    0.4691 C   0  0  0  0  0  0  0  0  0  0  0  0
   -3.1786    0.6283   -0.3142 C   0  0  0  0  0  0  0  0  0  0  0  0
    3.1809   -0.6282   -0.3125 C   0  0  0  0  0  0  0  0  0  0  0  0
   -2.7259   -1.7449   -0.2944 C   0  0  0  0  0  0  0  0  0  0  0  0
    2.7281    1.7451   -0.2946 C   0  0  0  0  0  0  0  0  0  0  0  0
   -3.5231   -0.6704   -0.6889 C   0  0  0  0  0  0  0  0  0  0  0  0
    3.5271    0.6706   -0.6856 C   0  0  0  0  0  0  0  0  0  0  0  0
   -0.1558    0.8743    2.3205 H   0  0  0  0  0  0  0  0  0  0  0  0
    0.1114   -0.8019    2.4090 H   0  0  0  0  0  0  0  0  0  0  0  0
   -0.9851   -2.3730    0.7801 H   0  0  0  0  0  0  0  0  0  0  0  0
    0.9783    2.3710    0.7709 H   0  0  0  0  0  0  0  0  0  0  0  0
   -2.9844   -2.7620   -0.5768 H   0  0  0  0  0  0  0  0  0  0  0  0
    2.9874    2.7620   -0.5765 H   0  0  0  0  0  0  0  0  0  0  0  0
   -2.3692    2.7327    0.4570 H   0  0  0  0  0  0  0  0  0  0  0  0
    1.1129   -2.1348    1.5840 H   0  0  0  0  0  0  0  0  0  0  0  0
   -4.7039    1.3311   -1.2217 H   0  0  0  0  0  0  0  0  0  0  0  0
    4.7101   -1.3309   -1.2131 H   0  0  0  0  0  0  0  0  0  0  0  0
   -4.7158   -1.8587   -1.6003 H   0  0  0  0  0  0  0  0  0  0  0  0
    4.7237    1.8590   -1.5915 H   0  0  0  0  0  0  0  0  0  0  0  0
  1 10  1  0  0  0  0
  1 26  1  0  0  0  0
  2 11  1  0  0  0  0
  2 27  1  0  0  0  0
  3 14  1  0  0  0  0
  3 28  1  0  0  0  0
  4 15  1  0  0  0  0
  4 29  1  0  0  0  0
  5 18  1  0  0  0  0
  5 30  1  0  0  0  0
  6 19  1  0  0  0  0
  6 31  1  0  0  0  0
  7  8  1  0  0  0  0
  7  9  1  0  0  0  0
  7 20  1  0  0  0  0
  7 21  1  0  0  0  0
  8 10  2  0  0  0  0
  8 12  1  0  0  0  0
  9 11  2  0  0  0  0
  9 13  1  0  0  0  0
 10 14  1  0  0  0  0
 11 15  1  0  0  0  0
 12 16  2  0  0  0  0
 12 22  1  0  0  0  0
 13 17  2  0  0  0  0
 13 23  1  0  0  0  0
 14 18  2  0  0  0  0
 15 19  2  0  0  0  0
 16 18  1  0  0  0  0
 16 24  1  0  0  0  0
 17 19  1  0  0  0  0
 17 25  1  0  0  0  0
M  END
> <PUBCHEM_COMPOUND_CID>
21896293

> <PUBCHEM_CONFORMER_RMSD>
0.6

> <PUBCHEM_CONFORMER_DIVERSEORDER>
1
12
6
11
5
2
7
9
10
8
4
3

> <PUBCHEM_MMFF94_PARTIAL_CHARGES>
29
1 -0.53
10 0.08
11 0.08
12 -0.15
13 -0.15
14 0.08
15 0.08
16 -0.15
17 -0.15
18 0.08
19 0.08
2 -0.53
22 0.15
23 0.15
24 0.15
25 0.15
26 0.45
27 0.45
28 0.45
29 0.45
3 -0.53
30 0.45
31 0.45
4 -0.53
5 -0.53
6 -0.53
7 0.29
8 -0.14
9 -0.14

> <PUBCHEM_EFFECTIVE_ROTOR_COUNT>
2

> <PUBCHEM_PHARMACOPHORE_FEATURES>
8
1 1 donor
1 2 donor
1 3 donor
1 4 donor
1 5 donor
1 6 donor
6 8 10 12 14 16 18 rings
6 9 11 13 15 17 19 rings

> <PUBCHEM_HEAVY_ATOM_COUNT>
19

> <PUBCHEM_ATOM_DEF_STEREO_COUNT>
0

> <PUBCHEM_ATOM_UDEF_STEREO_COUNT>
0

> <PUBCHEM_BOND_DEF_STEREO_COUNT>
0

> <PUBCHEM_BOND_UDEF_STEREO_COUNT>
0

> <PUBCHEM_ISOTOPIC_ATOM_COUNT>
0

> <PUBCHEM_COMPONENT_COUNT>
1

> <PUBCHEM_CACTVS_TAUTO_COUNT>
732

> <PUBCHEM_CONFORMER_ID>
014E1C6500000001

> <PUBCHEM_MMFF94_ENERGY>
51.2899

> <PUBCHEM_FEATURE_SELFOVERLAP>
40.619

> <PUBCHEM_SHAPE_FINGERPRINT>
10498660 4 17022892467601603941
10756046 5 18410856542470482918
11543360 7 18410856606884429879
12363563 72 15985104110851559394
12382932 28 8214148455740327523
12670546 177 18410855477308031407
12707595 3 16630240380916591088
13296908 3 16917060075154922795
13764800 53 14057003797712683229
14250199 8 18335145348666605420
14576447 43 18202565111734809214
16752209 62 17846211129682865291
16945 1 18410573976561517147
1813 80 13685753757035136264
18186145 218 17603865598171295899
19862831 5 18410855455833194554
200 152 18059858393284400176
20361792 2 15698002963364723961
20671657 53 17561082514218647432
20871999 31 18411979191683135989
21634736 98 18271528714338223060
21713013 43 17988081217930383719
21731228 192 11602813618617197593
22393880 68 18412267259408298558
231179 274 16370723747040836196
23402655 69 18336549330589298412
23557571 272 17460322276638715235
23559900 14 18130780149483733176
23598291 2 18340210665644173706
25 1 17895198783489092674
2748010 2 17041762560681968248
2838139 119 16590289738503494180
2871803 45 18341330101509100222
3082319 5 18410855468718096497
4028521 119 17821722853753069221
4280585 95 17624148105166795254
474 4 17168429358397975428
5161694 15 18411138000267331079
5262128 65 18130241426997930900
633830 44 17676209026630584857
93112 12 18410856551049855016
9709674 26 18340767130128587995

> <PUBCHEM_SHAPE_MULTIPOLES>
355.8
8.32
2.06
1.22
0.04
0
0.05
0
-4.72
0
0.05
-0.01
0
-0.43

> <PUBCHEM_SHAPE_SELFOVERLAP>
778.337

> <PUBCHEM_SHAPE_VOLUME>
192.4

> <PUBCHEM_COORDINATE_TYPE>
2
5
10

$$$$
