101446897
  -OEChem-09152013162D

138149  0     1  0  0  0  0  0999 V2000
    9.5146    0.5473    0.0000 O   0  0  0  0  0  0  0  0  0  0  0  0
   15.1301    0.9711    0.0000 O   0  0  0  0  0  0  0  0  0  0  0  0
   11.7504    1.9619    0.0000 O   0  0  0  0  0  0  0  0  0  0  0  0
   17.7338    1.4411    0.0000 O   0  0  0  0  0  0  0  0  0  0  0  0
    4.4707   -1.9573    0.0000 O   0  0  0  0  0  0  0  0  0  0  0  0
    6.0104    0.1943    0.0000 O   0  0  0  0  0  0  0  0  0  0  0  0
   12.2547   -1.6338    0.0000 O   0  0  0  0  0  0  0  0  0  0  0  0
   16.8488   -2.0804    0.0000 O   0  0  0  0  0  0  0  0  0  0  0  0
   10.6387    4.8334    0.0000 O   0  0  0  0  0  0  0  0  0  0  0  0
    8.6078    5.0996    0.0000 O   0  0  0  0  0  0  0  0  0  0  0  0
   17.7836    4.5198    0.0000 O   0  0  0  0  0  0  0  0  0  0  0  0
   16.0019    5.5303    0.0000 O   0  0  0  0  0  0  0  0  0  0  0  0
   13.1046    0.8820    0.0000 O   0  0  0  0  0  0  0  0  0  0  0  0
    8.9646   -2.9398    0.0000 O   0  0  0  0  0  0  0  0  0  0  0  0
    7.8300   -2.9478    0.0000 O   0  0  0  0  0  0  0  0  0  0  0  0
   13.3091   -2.0531    0.0000 O   0  0  0  0  0  0  0  0  0  0  0  0
    7.2479    4.6166    0.0000 O   0  0  0  0  0  0  0  0  0  0  0  0
   14.5602    5.5941    0.0000 O   0  0  0  0  0  0  0  0  0  0  0  0
    7.6713   -0.2970    0.0000 O   0  0  0  0  0  0  0  0  0  0  0  0
   12.7392    5.1785    0.0000 O   0  0  0  0  0  0  0  0  0  0  0  0
    5.7169    3.5466    0.0000 O   0  0  0  0  0  0  0  0  0  0  0  0
   18.5824   -0.0688    0.0000 O   0  0  0  0  0  0  0  0  0  0  0  0
    5.2725   -5.3952    0.0000 O   0  0  0  0  0  0  0  0  0  0  0  0
    3.9446    2.3697    0.0000 O   0  0  0  0  0  0  0  0  0  0  0  0
    2.0000    1.9022    0.0000 O   0  0  0  0  0  0  0  0  0  0  0  0
   20.3606    3.9109    0.0000 O   0  0  0  0  0  0  0  0  0  0  0  0
   22.0579    0.8910    0.0000 O   0  0  0  0  0  0  0  0  0  0  0  0
   22.0810    2.8909    0.0000 O   0  0  0  0  0  0  0  0  0  0  0  0
   11.1269    1.1801    0.0000 C   0  0  1  0  0  0  0  0  0  0  0  0
   10.1381    1.3291    0.0000 C   0  0  1  0  0  0  0  0  0  0  0  0
   16.0019    1.4611    0.0000 C   0  0  1  0  0  0  0  0  0  0  0  0
   16.8621    0.9511    0.0000 C   0  0  1  0  0  0  0  0  0  0  0  0
   11.4923    0.2492    0.0000 C   0  0  0  0  0  0  0  0  0  0  0  0
   16.8505   -0.0488    0.0000 C   0  0  0  0  0  0  0  0  0  0  0  0
    9.7728    2.2600    0.0000 C   0  0  0  0  0  0  0  0  0  0  0  0
   10.8688   -0.5326    0.0000 C   0  0  0  0  0  0  0  0  0  0  0  0
   16.0134    2.4610    0.0000 C   0  0  0  0  0  0  0  0  0  0  0  0
   15.9787   -0.5388    0.0000 C   0  0  0  0  0  0  0  0  0  0  0  0
    9.8799   -0.3836    0.0000 C   0  0  0  0  0  0  0  0  0  0  0  0
    5.7267   -0.7646    0.0000 C   0  0  1  0  0  0  0  0  0  0  0  0
    8.7434    2.4192    0.0000 C   0  0  0  0  0  0  0  0  0  0  0  0
    4.7544   -0.9984    0.0000 C   0  0  1  0  0  0  0  0  0  0  0  0
   15.1195    2.9957    0.0000 C   0  0  0  0  0  0  0  0  0  0  0  0
   15.1186   -0.0288    0.0000 C   0  0  0  0  0  0  0  0  0  0  0  0
    6.4153   -1.4897    0.0000 C   0  0  0  0  0  0  0  0  0  0  0  0
   10.4191    3.0769    0.0000 C   0  0  0  0  0  0  0  0  0  0  0  0
    8.3673    3.3458    0.0000 C   0  0  0  0  0  0  0  0  0  0  0  0
   11.2642   -1.4962    0.0000 C   0  0  0  0  0  0  0  0  0  0  0  0
    6.1316   -2.4487    0.0000 C   0  0  0  0  0  0  0  0  0  0  0  0
   16.9195    2.9749    0.0000 C   0  0  0  0  0  0  0  0  0  0  0  0
   15.1195    3.9957    0.0000 C   0  0  0  0  0  0  0  0  0  0  0  0
   14.3377    2.3722    0.0000 C   0  0  0  0  0  0  0  0  0  0  0  0
   15.9828   -1.5804    0.0000 C   0  0  0  0  0  0  0  0  0  0  0  0
    9.2180   -1.1878    0.0000 C   0  0  0  0  0  0  0  0  0  0  0  0
    8.2534    1.5475    0.0000 C   0  0  0  0  0  0  0  0  0  0  0  0
    5.1593   -2.6824    0.0000 C   0  0  0  0  0  0  0  0  0  0  0  0
   13.3627    2.5947    0.0000 C   0  0  0  0  0  0  0  0  0  0  0  0
    4.0658   -0.2732    0.0000 C   0  0  0  0  0  0  0  0  0  0  0  0
   12.7392    1.8129    0.0000 C   0  0  0  0  0  0  0  0  0  0  0  0
   10.0273    4.0421    0.0000 C   0  0  0  0  0  0  0  0  0  0  0  0
   14.2028   -0.5251    0.0000 C   0  0  0  0  0  0  0  0  0  0  0  0
    8.9945    4.1774    0.0000 C   0  0  0  0  0  0  0  0  0  0  0  0
   16.9195    4.0165    0.0000 C   0  0  0  0  0  0  0  0  0  0  0  0
    7.2664    1.3870    0.0000 C   0  0  0  0  0  0  0  0  0  0  0  0
   16.0134    4.5304    0.0000 C   0  0  0  0  0  0  0  0  0  0  0  0
   10.6211   -2.3156    0.0000 C   0  0  0  0  0  0  0  0  0  0  0  0
    9.5911   -2.1604    0.0000 C   0  0  0  0  0  0  0  0  0  0  0  0
   15.0787   -2.0977    0.0000 C   0  0  0  0  0  0  0  0  0  0  0  0
    7.4084    3.6295    0.0000 C   0  0  0  0  0  0  0  0  0  0  0  0
   14.3377    4.6192    0.0000 C   0  0  0  0  0  0  0  0  0  0  0  0
    6.9827    0.4281    0.0000 C   0  0  0  0  0  0  0  0  0  0  0  0
    6.8604   -3.1928    0.0000 C   0  0  0  0  0  0  0  0  0  0  0  0
   14.1827   -1.5665    0.0000 C   0  0  0  0  0  0  0  0  0  0  0  0
   12.9288    3.4957    0.0000 C   0  0  0  0  0  0  0  0  0  0  0  0
    4.8485   -3.6766    0.0000 C   0  0  0  0  0  0  0  0  0  0  0  0
   18.5940    0.9311    0.0000 C   0  0  0  0  0  0  0  0  0  0  0  0
    6.5255    2.0587    0.0000 C   0  0  0  0  0  0  0  0  0  0  0  0
   13.3627    4.3967    0.0000 C   0  0  0  0  0  0  0  0  0  0  0  0
    4.3495    0.6857    0.0000 C   0  0  0  0  0  0  0  0  0  0  0  0
    3.0935   -0.5070    0.0000 C   0  0  0  0  0  0  0  0  0  0  0  0
    6.5887    3.0567    0.0000 C   0  0  0  0  0  0  0  0  0  0  0  0
    6.5727   -4.1939    0.0000 C   0  0  0  0  0  0  0  0  0  0  0  0
    5.5599   -4.4374    0.0000 C   0  0  0  0  0  0  0  0  0  0  0  0
    3.6609    1.4108    0.0000 C   0  0  0  0  0  0  0  0  0  0  0  0
   19.4657    1.4210    0.0000 C   0  0  0  0  0  0  0  0  0  0  0  0
    2.4049    0.2181    0.0000 C   0  0  0  0  0  0  0  0  0  0  0  0
    2.6886    1.1770    0.0000 C   0  0  0  0  0  0  0  0  0  0  0  0
   20.3259    0.9111    0.0000 C   0  0  0  0  0  0  0  0  0  0  0  0
   19.4773    2.4210    0.0000 C   0  0  0  0  0  0  0  0  0  0  0  0
   20.3491    2.9109    0.0000 C   0  0  0  0  0  0  0  0  0  0  0  0
   21.1977    1.4010    0.0000 C   0  0  0  0  0  0  0  0  0  0  0  0
   21.2092    2.4009    0.0000 C   0  0  0  0  0  0  0  0  0  0  0  0
   11.7400    1.0877    0.0000 H   0  0  0  0  0  0  0  0  0  0  0  0
    9.2976    1.4558    0.0000 H   0  0  0  0  0  0  0  0  0  0  0  0
   16.7429    1.8776    0.0000 H   0  0  0  0  0  0  0  0  0  0  0  0
   17.3954    0.6349    0.0000 H   0  0  0  0  0  0  0  0  0  0  0  0
   11.9025   -0.2156    0.0000 H   0  0  0  0  0  0  0  0  0  0  0  0
   12.0213    0.5725    0.0000 H   0  0  0  0  0  0  0  0  0  0  0  0
   17.0558   -0.6338    0.0000 H   0  0  0  0  0  0  0  0  0  0  0  0
   17.4623    0.0518    0.0000 H   0  0  0  0  0  0  0  0  0  0  0  0
    5.2998   -0.3150    0.0000 H   0  0  0  0  0  0  0  0  0  0  0  0
    4.1516   -1.1433    0.0000 H   0  0  0  0  0  0  0  0  0  0  0  0
    6.9703   -1.7662    0.0000 H   0  0  0  0  0  0  0  0  0  0  0  0
    6.7839   -0.9912    0.0000 H   0  0  0  0  0  0  0  0  0  0  0  0
   11.0328    2.9892    0.0000 H   0  0  0  0  0  0  0  0  0  0  0  0
   17.4552    2.6628    0.0000 H   0  0  0  0  0  0  0  0  0  0  0  0
   14.4756    1.7677    0.0000 H   0  0  0  0  0  0  0  0  0  0  0  0
    8.6060   -1.0883    0.0000 H   0  0  0  0  0  0  0  0  0  0  0  0
    8.6086    1.0393    0.0000 H   0  0  0  0  0  0  0  0  0  0  0  0
   13.6731   -0.2027    0.0000 H   0  0  0  0  0  0  0  0  0  0  0  0
   10.8498   -2.8919    0.0000 H   0  0  0  0  0  0  0  0  0  0  0  0
   15.0739   -2.7177    0.0000 H   0  0  0  0  0  0  0  0  0  0  0  0
   12.3088    3.4957    0.0000 H   0  0  0  0  0  0  0  0  0  0  0  0
    4.2440   -3.8146    0.0000 H   0  0  0  0  0  0  0  0  0  0  0  0
    5.9510    1.8255    0.0000 H   0  0  0  0  0  0  0  0  0  0  0  0
    4.9523    0.8306    0.0000 H   0  0  0  0  0  0  0  0  0  0  0  0
    2.9176   -1.1016    0.0000 H   0  0  0  0  0  0  0  0  0  0  0  0
    7.0013   -4.6418    0.0000 H   0  0  0  0  0  0  0  0  0  0  0  0
   12.4879   -2.2083    0.0000 H   0  0  0  0  0  0  0  0  0  0  0  0
   16.8488   -2.7004    0.0000 H   0  0  0  0  0  0  0  0  0  0  0  0
    1.8021    0.0732    0.0000 H   0  0  0  0  0  0  0  0  0  0  0  0
   10.4033    5.4070    0.0000 H   0  0  0  0  0  0  0  0  0  0  0  0
    8.9830    5.5931    0.0000 H   0  0  0  0  0  0  0  0  0  0  0  0
   18.3217    4.2119    0.0000 H   0  0  0  0  0  0  0  0  0  0  0  0
   16.5352    5.8465    0.0000 H   0  0  0  0  0  0  0  0  0  0  0  0
    9.1889   -3.5178    0.0000 H   0  0  0  0  0  0  0  0  0  0  0  0
    8.2621   -3.3924    0.0000 H   0  0  0  0  0  0  0  0  0  0  0  0
   13.2995   -2.6730    0.0000 H   0  0  0  0  0  0  0  0  0  0  0  0
   12.1262    5.0861    0.0000 H   0  0  0  0  0  0  0  0  0  0  0  0
    5.1836    3.2304    0.0000 H   0  0  0  0  0  0  0  0  0  0  0  0
   20.3188    0.2911    0.0000 H   0  0  0  0  0  0  0  0  0  0  0  0
   18.9440    2.7372    0.0000 H   0  0  0  0  0  0  0  0  0  0  0  0
    5.6977   -5.8465    0.0000 H   0  0  0  0  0  0  0  0  0  0  0  0
    3.5176    2.8193    0.0000 H   0  0  0  0  0  0  0  0  0  0  0  0
    2.1759    2.4967    0.0000 H   0  0  0  0  0  0  0  0  0  0  0  0
   20.9011    4.2146    0.0000 H   0  0  0  0  0  0  0  0  0  0  0  0
   22.0507    0.2711    0.0000 H   0  0  0  0  0  0  0  0  0  0  0  0
   22.6143    2.5747    0.0000 H   0  0  0  0  0  0  0  0  0  0  0  0
  1 30  1  0  0  0  0
  1 39  1  0  0  0  0
  2 31  1  0  0  0  0
  2 44  1  0  0  0  0
 29  3  1  6  0  0  0
  3 59  1  0  0  0  0
 32  4  1  6  0  0  0
  4 76  1  0  0  0  0
  5 42  1  0  0  0  0
  5 56  1  0  0  0  0
 40  6  1  6  0  0  0
  6 71  1  0  0  0  0
  7 48  1  0  0  0  0
  7119  1  0  0  0  0
  8 53  1  0  0  0  0
  8120  1  0  0  0  0
  9 60  1  0  0  0  0
  9122  1  0  0  0  0
 10 62  1  0  0  0  0
 10123  1  0  0  0  0
 11 63  1  0  0  0  0
 11124  1  0  0  0  0
 12 65  1  0  0  0  0
 12125  1  0  0  0  0
 13 59  2  0  0  0  0
 14 67  1  0  0  0  0
 14126  1  0  0  0  0
 15 72  1  0  0  0  0
 15127  1  0  0  0  0
 16 73  1  0  0  0  0
 16128  1  0  0  0  0
 17 69  2  0  0  0  0
 18 70  2  0  0  0  0
 19 71  2  0  0  0  0
 20 78  1  0  0  0  0
 20129  1  0  0  0  0
 21 81  1  0  0  0  0
 21130  1  0  0  0  0
 22 76  2  0  0  0  0
 23 83  1  0  0  0  0
 23133  1  0  0  0  0
 24 84  1  0  0  0  0
 24134  1  0  0  0  0
 25 87  1  0  0  0  0
 25135  1  0  0  0  0
 26 90  1  0  0  0  0
 26136  1  0  0  0  0
 27 91  1  0  0  0  0
 27137  1  0  0  0  0
 28 92  1  0  0  0  0
 28138  1  0  0  0  0
 29 30  1  0  0  0  0
 29 33  1  0  0  0  0
 29 93  1  0  0  0  0
 30 35  1  0  0  0  0
 30 94  1  1  0  0  0
 31 32  1  0  0  0  0
 31 37  1  0  0  0  0
 31 95  1  1  0  0  0
 32 34  1  0  0  0  0
 32 96  1  0  0  0  0
 33 36  1  0  0  0  0
 33 97  1  0  0  0  0
 33 98  1  0  0  0  0
 34 38  1  0  0  0  0
 34 99  1  0  0  0  0
 34100  1  0  0  0  0
 35 41  1  0  0  0  0
 35 46  2  0  0  0  0
 36 39  1  0  0  0  0
 36 48  2  0  0  0  0
 37 43  1  0  0  0  0
 37 50  2  0  0  0  0
 38 44  1  0  0  0  0
 38 53  2  0  0  0  0
 39 54  2  0  0  0  0
 40 42  1  0  0  0  0
 40 45  1  0  0  0  0
 40101  1  0  0  0  0
 41 47  2  0  0  0  0
 41 55  1  0  0  0  0
 42 58  1  6  0  0  0
 42102  1  0  0  0  0
 43 51  2  0  0  0  0
 43 52  1  0  0  0  0
 44 61  2  0  0  0  0
 45 49  1  0  0  0  0
 45103  1  0  0  0  0
 45104  1  0  0  0  0
 46 60  1  0  0  0  0
 46105  1  0  0  0  0
 47 62  1  0  0  0  0
 47 69  1  0  0  0  0
 48 66  1  0  0  0  0
 49 56  1  0  0  0  0
 49 72  2  0  0  0  0
 50 63  1  0  0  0  0
 50106  1  0  0  0  0
 51 65  1  0  0  0  0
 51 70  1  0  0  0  0
 52 57  2  0  0  0  0
 52107  1  0  0  0  0
 53 68  1  0  0  0  0
 54 67  1  0  0  0  0
 54108  1  0  0  0  0
 55 64  2  0  0  0  0
 55109  1  0  0  0  0
 56 75  2  0  0  0  0
 57 59  1  0  0  0  0
 57 74  1  0  0  0  0
 58 79  2  0  0  0  0
 58 80  1  0  0  0  0
 60 62  2  0  0  0  0
 61 73  1  0  0  0  0
 61110  1  0  0  0  0
 63 65  2  0  0  0  0
 64 71  1  0  0  0  0
 64 77  1  0  0  0  0
 66 67  2  0  0  0  0
 66111  1  0  0  0  0
 68 73  2  0  0  0  0
 68112  1  0  0  0  0
 69 81  1  0  0  0  0
 70 78  1  0  0  0  0
 72 82  1  0  0  0  0
 74 78  2  0  0  0  0
 74113  1  0  0  0  0
 75 83  1  0  0  0  0
 75114  1  0  0  0  0
 76 85  1  0  0  0  0
 77 81  2  0  0  0  0
 77115  1  0  0  0  0
 79 84  1  0  0  0  0
 79116  1  0  0  0  0
 80 86  2  0  0  0  0
 80117  1  0  0  0  0
 82 83  2  0  0  0  0
 82118  1  0  0  0  0
 84 87  2  0  0  0  0
 85 88  2  0  0  0  0
 85 89  1  0  0  0  0
 86 87  1  0  0  0  0
 86121  1  0  0  0  0
 88 91  1  0  0  0  0
 88131  1  0  0  0  0
 89 90  2  0  0  0  0
 89132  1  0  0  0  0
 90 92  1  0  0  0  0
 91 92  2  0  0  0  0
M  END
> <PUBCHEM_COMPOUND_CID>
101446897

> <PUBCHEM_COMPOUND_CANONICALIZED>
1

> <PUBCHEM_CACTVS_COMPLEXITY>
2880

> <PUBCHEM_CACTVS_HBOND_ACCEPTOR>
28

> <PUBCHEM_CACTVS_HBOND_DONOR>
17

> <PUBCHEM_CACTVS_ROTATABLE_BOND>
12

> <PUBCHEM_CACTVS_SUBSKEYS>
AAADcfB8PgAAAAAAAAAAAAAAAAAAAAAAAAA0aNGDBAgAAACRVAAAGgAACAAADBSgmAIwDoAABgCIAqDSCAICCAAkIAAIiAFGiMgNJzaGNRqCeWGl4BULuYfK7PzOoAADCAAYQABAAAYQADCAAAAAAAAAAA==

> <PUBCHEM_IUPAC_OPENEYE_NAME>
[(2R,3R)-2-(3,4-dihydroxyphenyl)-5,7-dihydroxy-chroman-3-yl] 1-[(2R,3R)-3-[1-[(2R,3R)-5,7-dihydroxy-3-(3,4,5-trihydroxybenzoyl)oxy-chroman-2-yl]-3,4,6-trihydroxy-5-oxo-benzo[7]annulene-8-carbonyl]oxy-5,7-dihydroxy-chroman-2-yl]-3,4,6-trihydroxy-5-oxo-benzo[7]annulene-8-carboxylate

> <PUBCHEM_IUPAC_CAS_NAME>
1-[(2R,3R)-3-[[1-[(2R,3R)-5,7-dihydroxy-3-[oxo-(3,4,5-trihydroxyphenyl)methoxy]-3,4-dihydro-2H-1-benzopyran-2-yl]-3,4,6-trihydroxy-5-oxo-8-benzo[7]annulenyl]-oxomethoxy]-5,7-dihydroxy-3,4-dihydro-2H-1-benzopyran-2-yl]-3,4,6-trihydroxy-5-oxo-8-benzo[7]annulenecarboxylic acid [(2R,3R)-2-(3,4-dihydroxyphenyl)-5,7-dihydroxy-3,4-dihydro-2H-1-benzopyran-3-yl] ester

> <PUBCHEM_IUPAC_NAME_MARKUP>
[(2<I>R</I>,3<I>R</I>)-2-(3,4-dihydroxyphenyl)-5,7-dihydroxy-3,4-dihydro-2<I>H</I>-chromen-3-yl] 1-[(2<I>R</I>,3<I>R</I>)-3-[1-[(2<I>R</I>,3<I>R</I>)-5,7-dihydroxy-3-(3,4,5-trihydroxybenzoyl)oxy-3,4-dihydro-2<I>H</I>-chromen-2-yl]-3,4,6-trihydroxy-5-oxobenzo[7]annulene-8-carbonyl]oxy-5,7-dihydroxy-3,4-dihydro-2<I>H</I>-chromen-2-yl]-3,4,6-trihydroxy-5-oxobenzo[7]annulene-8-carboxylate

> <PUBCHEM_IUPAC_NAME>
[(2R,3R)-2-(3,4-dihydroxyphenyl)-5,7-dihydroxy-3,4-dihydro-2H-chromen-3-yl] 1-[(2R,3R)-3-[1-[(2R,3R)-5,7-dihydroxy-3-(3,4,5-trihydroxybenzoyl)oxy-3,4-dihydro-2H-chromen-2-yl]-3,4,6-trihydroxy-5-oxobenzo[7]annulene-8-carbonyl]oxy-5,7-dihydroxy-3,4-dihydro-2H-chromen-2-yl]-3,4,6-trihydroxy-5-oxobenzo[7]annulene-8-carboxylate

> <PUBCHEM_IUPAC_SYSTEMATIC_NAME>
[(2R,3R)-2-[3,4-bis(oxidanyl)phenyl]-5,7-bis(oxidanyl)-3,4-dihydro-2H-chromen-3-yl] 1-[(2R,3R)-3-[1-[(2R,3R)-5,7-bis(oxidanyl)-3-[3,4,5-tris(oxidanyl)phenyl]carbonyloxy-3,4-dihydro-2H-chromen-2-yl]-3,4,6-tris(oxidanyl)-5-oxidanylidene-benzo[7]annulen-8-yl]carbonyloxy-5,7-bis(oxidanyl)-3,4-dihydro-2H-chromen-2-yl]-3,4,6-tris(oxidanyl)-5-oxidanylidene-benzo[7]annulene-8-carboxylate

> <PUBCHEM_IUPAC_TRADITIONAL_NAME>
1-[(2R,3R)-3-[1-[(2R,3R)-3-galloyloxy-5,7-dihydroxy-chroman-2-yl]-3,4,6-trihydroxy-5-keto-benzocycloheptene-8-carbonyl]oxy-5,7-dihydroxy-chroman-2-yl]-3,4,6-trihydroxy-5-keto-benzocycloheptene-8-carboxylic acid [(2R,3R)-2-(3,4-dihydroxyphenyl)-5,7-dihydroxy-chroman-3-yl] ester

> <PUBCHEM_IUPAC_INCHI>
InChI=1S/C64H46O28/c65-25-10-36(69)32-18-49(59(87-46(32)13-25)21-1-2-35(68)39(72)5-21)90-62(84)22-3-28-30(16-44(77)57(82)52(28)55(80)42(75)6-22)60-50(19-33-37(70)11-26(66)14-47(33)88-60)91-63(85)23-4-29-31(17-45(78)58(83)53(29)56(81)43(76)7-23)61-51(20-34-38(71)12-27(67)15-48(34)89-61)92-64(86)24-8-40(73)54(79)41(74)9-24/h1-17,49-51,59-61,65-74,77-79,82-83H,18-20H2,(H,75,80)(H,76,81)/t49-,50-,51-,59-,60-,61-/m1/s1

> <PUBCHEM_IUPAC_INCHIKEY>
SYOQUYKXHCPYEY-BFFJVZHUSA-N

> <PUBCHEM_XLOGP3_AA>
7.9

> <PUBCHEM_EXACT_MASS>
1262.217561

> <PUBCHEM_MOLECULAR_FORMULA>
C64H46O28

> <PUBCHEM_MOLECULAR_WEIGHT>
1263

> <PUBCHEM_OPENEYE_CAN_SMILES>
C1C(C(OC2=CC(=CC(=C21)O)O)C3=CC(=C(C=C3)O)O)OC(=O)C4=CC5=C(C(=C(C=C5C6C(CC7=C(C=C(C=C7O6)O)O)OC(=O)C8=CC9=C(C(=C(C=C9C1C(CC2=C(C=C(C=C2O1)O)O)OC(=O)C1=CC(=C(C(=C1)O)O)O)O)O)C(=O)C(=C8)O)O)O)C(=O)C(=C4)O

> <PUBCHEM_OPENEYE_ISO_SMILES>
C1[C@H]([C@H](OC2=CC(=CC(=C21)O)O)C3=CC(=C(C=C3)O)O)OC(=O)C4=CC5=C(C(=C(C=C5[C@@H]6[C@@H](CC7=C(C=C(C=C7O6)O)O)OC(=O)C8=CC9=C(C(=C(C=C9[C@@H]1[C@@H](CC2=C(C=C(C=C2O1)O)O)OC(=O)C1=CC(=C(C(=C1)O)O)O)O)O)C(=O)C(=C8)O)O)O)C(=O)C(=C4)O

> <PUBCHEM_CACTVS_TPSA>
485

> <PUBCHEM_MONOISOTOPIC_WEIGHT>
1262.217561

> <PUBCHEM_TOTAL_CHARGE>
0

> <PUBCHEM_HEAVY_ATOM_COUNT>
92

> <PUBCHEM_ATOM_DEF_STEREO_COUNT>
6

> <PUBCHEM_ATOM_UDEF_STEREO_COUNT>
0

> <PUBCHEM_BOND_DEF_STEREO_COUNT>
0

> <PUBCHEM_BOND_UDEF_STEREO_COUNT>
0

> <PUBCHEM_ISOTOPIC_ATOM_COUNT>
0

> <PUBCHEM_COMPONENT_COUNT>
1

> <PUBCHEM_CACTVS_TAUTO_COUNT>
-1

> <PUBCHEM_COORDINATE_TYPE>
1
5
255

> <PUBCHEM_BONDANNOTATIONS>
29  3  6
30  94  5
31  95  5
35  41  8
35  46  8
36  39  8
36  48  8
37  43  8
37  50  8
38  44  8
38  53  8
39  54  8
32  4  6
41  47  8
41  55  8
42  58  6
43  51  8
43  52  8
44  61  8
46  60  8
47  62  8
47  69  8
48  66  8
49  56  8
49  72  8
50  63  8
51  65  8
51  70  8
52  57  8
53  68  8
54  67  8
55  64  8
56  75  8
57  74  8
58  79  8
58  80  8
40  6  6
60  62  8
61  73  8
63  65  8
64  77  8
66  67  8
68  73  8
69  81  8
70  78  8
72  82  8
74  78  8
75  83  8
77  81  8
79  84  8
80  86  8
82  83  8
84  87  8
85  88  8
85  89  8
86  87  8
88  91  8
89  90  8
90  92  8
91  92  8

$$$$
