136825044
  -OEChem-09152013122D

 80 86  0     1  0  0  0  0  0999 V2000
    9.0631    0.6019    0.0000 O   0  0  0  0  0  0  0  0  0  0  0  0
    5.6834   -0.3889    0.0000 O   0  0  0  0  0  0  0  0  0  0  0  0
   11.6667    0.1320    0.0000 O   0  0  0  0  0  0  0  0  0  0  0  0
    8.0264    0.8401    0.0000 O   0  0  0  0  0  0  0  0  0  0  0  0
   10.7817    3.6534    0.0000 O   0  0  0  0  0  0  0  0  0  0  0  0
    9.9348   -3.9572    0.0000 O   0  0  0  0  0  0  0  0  0  0  0  0
   11.7165   -2.9468    0.0000 O   0  0  0  0  0  0  0  0  0  0  0  0
    6.6722   -3.6054    0.0000 O   0  0  0  0  0  0  0  0  0  0  0  0
    5.1645    3.0747    0.0000 O   0  0  0  0  0  0  0  0  0  0  0  0
    8.4931   -4.0211    0.0000 O   0  0  0  0  0  0  0  0  0  0  0  0
    7.2420    3.6261    0.0000 O   0  0  0  0  0  0  0  0  0  0  0  0
    2.3884    0.8783    0.0000 O   0  0  0  0  0  0  0  0  0  0  0  0
   12.5154    1.6419    0.0000 O   0  0  0  0  0  0  0  0  0  0  0  0
   15.9908    0.6820    0.0000 O   0  0  0  0  0  0  0  0  0  0  0  0
   14.2936   -2.3378    0.0000 O   0  0  0  0  0  0  0  0  0  0  0  0
   16.0139   -1.3179    0.0000 O   0  0  0  0  0  0  0  0  0  0  0  0
    9.9348    0.1119    0.0000 C   0  0  2  0  0  0  0  0  0  0  0  0
   10.7950    0.6219    0.0000 C   0  0  2  0  0  0  0  0  0  0  0  0
    9.9464   -0.8880    0.0000 C   0  0  0  0  0  0  0  0  0  0  0  0
   10.7834    1.6219    0.0000 C   0  0  0  0  0  0  0  0  0  0  0  0
    6.6722   -0.2398    0.0000 C   0  0  1  0  0  0  0  0  0  0  0  0
    7.0375    0.6910    0.0000 C   0  0  1  0  0  0  0  0  0  0  0  0
    9.0524   -1.4226    0.0000 C   0  0  0  0  0  0  0  0  0  0  0  0
    9.9117    2.1118    0.0000 C   0  0  0  0  0  0  0  0  0  0  0  0
    7.2957   -1.0217    0.0000 C   0  0  0  0  0  0  0  0  0  0  0  0
    6.4140    1.4728    0.0000 C   0  0  0  0  0  0  0  0  0  0  0  0
    9.0515    1.6018    0.0000 C   0  0  0  0  0  0  0  0  0  0  0  0
    8.2706   -0.7992    0.0000 C   0  0  0  0  0  0  0  0  0  0  0  0
    9.0524   -2.4226    0.0000 C   0  0  0  0  0  0  0  0  0  0  0  0
    5.4252    1.3238    0.0000 C   0  0  0  0  0  0  0  0  0  0  0  0
   10.8524   -1.4018    0.0000 C   0  0  0  0  0  0  0  0  0  0  0  0
    5.0599    0.3929    0.0000 C   0  0  0  0  0  0  0  0  0  0  0  0
    6.8618   -1.9226    0.0000 C   0  0  0  0  0  0  0  0  0  0  0  0
    9.9157    3.1534    0.0000 C   0  0  0  0  0  0  0  0  0  0  0  0
    9.9464   -2.9573    0.0000 C   0  0  0  0  0  0  0  0  0  0  0  0
   10.8524   -2.4435    0.0000 C   0  0  0  0  0  0  0  0  0  0  0  0
    8.2706   -3.0461    0.0000 C   0  0  0  0  0  0  0  0  0  0  0  0
    8.1357    2.0981    0.0000 C   0  0  0  0  0  0  0  0  0  0  0  0
    7.2957   -2.8236    0.0000 C   0  0  0  0  0  0  0  0  0  0  0  0
    4.7884    2.1481    0.0000 C   0  0  0  0  0  0  0  0  0  0  0  0
    9.0116    3.6708    0.0000 C   0  0  0  0  0  0  0  0  0  0  0  0
    4.0324    0.2218    0.0000 C   0  0  0  0  0  0  0  0  0  0  0  0
    8.1156    3.1396    0.0000 C   0  0  0  0  0  0  0  0  0  0  0  0
   12.5269    0.6420    0.0000 C   0  0  0  0  0  0  0  0  0  0  0  0
    3.7572    2.0008    0.0000 C   0  0  0  0  0  0  0  0  0  0  0  0
    3.3767    1.0312    0.0000 C   0  0  0  0  0  0  0  0  0  0  0  0
   13.3987    0.1520    0.0000 C   0  0  0  0  0  0  0  0  0  0  0  0
   13.4102   -0.8479    0.0000 C   0  0  0  0  0  0  0  0  0  0  0  0
   14.2589    0.6620    0.0000 C   0  0  0  0  0  0  0  0  0  0  0  0
   15.1306    0.1720    0.0000 C   0  0  0  0  0  0  0  0  0  0  0  0
   14.2820   -1.3379    0.0000 C   0  0  0  0  0  0  0  0  0  0  0  0
   15.1422   -0.8279    0.0000 C   0  0  0  0  0  0  0  0  0  0  0  0
    9.2036   -0.3215    0.0000 H   0  0  0  0  0  0  0  0  0  0  0  0
   11.3283    0.9381    0.0000 H   0  0  0  0  0  0  0  0  0  0  0  0
   11.3952    1.5213    0.0000 H   0  0  0  0  0  0  0  0  0  0  0  0
   10.9887    2.2069    0.0000 H   0  0  0  0  0  0  0  0  0  0  0  0
    6.4457   -0.8170    0.0000 H   0  0  0  0  0  0  0  0  0  0  0  0
    7.2640    1.2682    0.0000 H   0  0  0  0  0  0  0  0  0  0  0  0
    6.9585    1.7694    0.0000 H   0  0  0  0  0  0  0  0  0  0  0  0
    6.2166    2.0606    0.0000 H   0  0  0  0  0  0  0  0  0  0  0  0
    8.4086   -0.1947    0.0000 H   0  0  0  0  0  0  0  0  0  0  0  0
   11.3882   -1.0898    0.0000 H   0  0  0  0  0  0  0  0  0  0  0  0
    6.2418   -1.9226    0.0000 H   0  0  0  0  0  0  0  0  0  0  0  0
    7.6061    1.7758    0.0000 H   0  0  0  0  0  0  0  0  0  0  0  0
    8.2529    1.4172    0.0000 H   0  0  0  0  0  0  0  0  0  0  0  0
    9.0068    4.2908    0.0000 H   0  0  0  0  0  0  0  0  0  0  0  0
    3.8126   -0.3579    0.0000 H   0  0  0  0  0  0  0  0  0  0  0  0
    3.3725    2.4870    0.0000 H   0  0  0  0  0  0  0  0  0  0  0  0
   10.7817    4.2734    0.0000 H   0  0  0  0  0  0  0  0  0  0  0  0
   10.4681   -4.2734    0.0000 H   0  0  0  0  0  0  0  0  0  0  0  0
   12.2547   -2.6389    0.0000 H   0  0  0  0  0  0  0  0  0  0  0  0
    6.0591   -3.5130    0.0000 H   0  0  0  0  0  0  0  0  0  0  0  0
    4.7835    3.5639    0.0000 H   0  0  0  0  0  0  0  0  0  0  0  0
    7.2324    4.2461    0.0000 H   0  0  0  0  0  0  0  0  0  0  0  0
   12.8769   -1.1641    0.0000 H   0  0  0  0  0  0  0  0  0  0  0  0
   14.2517    1.2819    0.0000 H   0  0  0  0  0  0  0  0  0  0  0  0
    2.0000    1.3616    0.0000 H   0  0  0  0  0  0  0  0  0  0  0  0
   16.5313    0.3782    0.0000 H   0  0  0  0  0  0  0  0  0  0  0  0
   14.8340   -2.6416    0.0000 H   0  0  0  0  0  0  0  0  0  0  0  0
   16.5472   -1.0017    0.0000 H   0  0  0  0  0  0  0  0  0  0  0  0
  1 17  1  0  0  0  0
  1 27  1  0  0  0  0
  2 21  1  0  0  0  0
  2 32  1  0  0  0  0
 18  3  1  6  0  0  0
  3 44  1  0  0  0  0
 22  4  1  1  0  0  0
  4 65  1  0  0  0  0
  5 34  1  0  0  0  0
  5 69  1  0  0  0  0
  6 35  1  0  0  0  0
  6 70  1  0  0  0  0
  7 36  1  0  0  0  0
  7 71  1  0  0  0  0
  8 39  1  0  0  0  0
  8 72  1  0  0  0  0
  9 40  1  0  0  0  0
  9 73  1  0  0  0  0
 10 37  2  0  0  0  0
 11 43  1  0  0  0  0
 11 74  1  0  0  0  0
 12 46  1  0  0  0  0
 12 77  1  0  0  0  0
 13 44  2  0  0  0  0
 14 50  1  0  0  0  0
 14 78  1  0  0  0  0
 15 51  1  0  0  0  0
 15 79  1  0  0  0  0
 16 52  1  0  0  0  0
 16 80  1  0  0  0  0
 17 18  1  0  0  0  0
 17 19  1  0  0  0  0
 17 53  1  1  0  0  0
 18 20  1  0  0  0  0
 18 54  1  0  0  0  0
 19 23  1  0  0  0  0
 19 31  2  0  0  0  0
 20 24  1  0  0  0  0
 20 55  1  0  0  0  0
 20 56  1  0  0  0  0
 21 22  1  0  0  0  0
 21 25  1  1  0  0  0
 21 57  1  0  0  0  0
 22 26  1  0  0  0  0
 22 58  1  0  0  0  0
 23 28  1  0  0  0  0
 23 29  2  0  0  0  0
 24 27  1  0  0  0  0
 24 34  2  0  0  0  0
 25 28  2  0  0  0  0
 25 33  1  0  0  0  0
 26 30  1  0  0  0  0
 26 59  1  0  0  0  0
 26 60  1  0  0  0  0
 27 38  2  0  0  0  0
 28 61  1  0  0  0  0
 29 35  1  0  0  0  0
 29 37  1  0  0  0  0
 30 32  1  0  0  0  0
 30 40  2  0  0  0  0
 31 36  1  0  0  0  0
 31 62  1  0  0  0  0
 32 42  2  0  0  0  0
 33 39  2  0  0  0  0
 33 63  1  0  0  0  0
 34 41  1  0  0  0  0
 35 36  2  0  0  0  0
 37 39  1  0  0  0  0
 38 43  1  0  0  0  0
 38 64  1  0  0  0  0
 40 45  1  0  0  0  0
 41 43  2  0  0  0  0
 41 66  1  0  0  0  0
 42 46  1  0  0  0  0
 42 67  1  0  0  0  0
 44 47  1  0  0  0  0
 45 46  2  0  0  0  0
 45 68  1  0  0  0  0
 47 48  2  0  0  0  0
 47 49  1  0  0  0  0
 48 51  1  0  0  0  0
 48 75  1  0  0  0  0
 49 50  2  0  0  0  0
 49 76  1  0  0  0  0
 50 52  1  0  0  0  0
 51 52  2  0  0  0  0
M  END
> <PUBCHEM_COMPOUND_CID>
136825044

> <PUBCHEM_COMPOUND_CANONICALIZED>
1

> <PUBCHEM_CACTVS_COMPLEXITY>
1390

> <PUBCHEM_CACTVS_HBOND_ACCEPTOR>
16

> <PUBCHEM_CACTVS_HBOND_DONOR>
11

> <PUBCHEM_CACTVS_ROTATABLE_BOND>
5

> <PUBCHEM_CACTVS_SUBSKEYS>
AAADceB8PgAAAAAAAAAAAAAAAAAAAAAAAAA0aMGCBAAAAACRVAAAGgAACAAADBSgmAIwDoAABgCIAqDSCAICCAAkIAAAiAFGiMgNNzaGNRqCeWGl4BULuYfK7PzOoAADCAAYQABAAAYQADCAAAAAAAAAAA==

> <PUBCHEM_IUPAC_OPENEYE_NAME>
[(2S,3S)-5,7-dihydroxy-2-[3,4,6-trihydroxy-5-oxo-8-[(2R,3R)-3,5,7-trihydroxychroman-2-yl]benzo[7]annulen-1-yl]chroman-3-yl] 3,4,5-trihydroxybenzoate

> <PUBCHEM_IUPAC_CAS_NAME>
3,4,5-trihydroxybenzoic acid [(2S,3S)-5,7-dihydroxy-2-[3,4,6-trihydroxy-5-oxo-8-[(2R,3R)-3,5,7-trihydroxy-3,4-dihydro-2H-1-benzopyran-2-yl]-1-benzo[7]annulenyl]-3,4-dihydro-2H-1-benzopyran-3-yl] ester

> <PUBCHEM_IUPAC_NAME_MARKUP>
[(2<I>S</I>,3<I>S</I>)-5,7-dihydroxy-2-[3,4,6-trihydroxy-5-oxo-8-[(2<I>R</I>,3<I>R</I>)-3,5,7-trihydroxy-3,4-dihydro-2<I>H</I>-chromen-2-yl]benzo[7]annulen-1-yl]-3,4-dihydro-2<I>H</I>-chromen-3-yl] 3,4,5-trihydroxybenzoate

> <PUBCHEM_IUPAC_NAME>
[(2S,3S)-5,7-dihydroxy-2-[3,4,6-trihydroxy-5-oxo-8-[(2R,3R)-3,5,7-trihydroxy-3,4-dihydro-2H-chromen-2-yl]benzo[7]annulen-1-yl]-3,4-dihydro-2H-chromen-3-yl] 3,4,5-trihydroxybenzoate

> <PUBCHEM_IUPAC_SYSTEMATIC_NAME>
[(2S,3S)-5,7-bis(oxidanyl)-2-[3,4,6-tris(oxidanyl)-5-oxidanylidene-8-[(2R,3R)-3,5,7-tris(oxidanyl)-3,4-dihydro-2H-chromen-2-yl]benzo[7]annulen-1-yl]-3,4-dihydro-2H-chromen-3-yl] 3,4,5-tris(oxidanyl)benzoate

> <PUBCHEM_IUPAC_TRADITIONAL_NAME>
3,4,5-trihydroxybenzoic acid [(2S,3S)-5,7-dihydroxy-2-[3,4,6-trihydroxy-5-keto-8-[(2R,3R)-3,5,7-trihydroxychroman-2-yl]benzocyclohepten-1-yl]chroman-3-yl] ester

> <PUBCHEM_IUPAC_INCHI>
InChI=1S/C36H28O16/c37-14-5-20(39)18-10-26(45)34(50-27(18)7-14)12-1-16-17(9-25(44)33(48)30(16)32(47)24(43)2-12)35-29(11-19-21(40)6-15(38)8-28(19)51-35)52-36(49)13-3-22(41)31(46)23(42)4-13/h1-9,26,29,34-35,37-42,44-46,48H,10-11H2,(H,43,47)/t26-,29+,34-,35+/m1/s1

> <PUBCHEM_IUPAC_INCHIKEY>
GPLOTACQBREROW-JKOJIDNYSA-N

> <PUBCHEM_XLOGP3_AA>
3.5

> <PUBCHEM_EXACT_MASS>
716.137735

> <PUBCHEM_MOLECULAR_FORMULA>
C36H28O16

> <PUBCHEM_MOLECULAR_WEIGHT>
716.6

> <PUBCHEM_OPENEYE_CAN_SMILES>
C1C(C(OC2=CC(=CC(=C21)O)O)C3=CC4=C(C(=C(C=C4C5C(CC6=C(C=C(C=C6O5)O)O)OC(=O)C7=CC(=C(C(=C7)O)O)O)O)O)C(=O)C(=C3)O)O

> <PUBCHEM_OPENEYE_ISO_SMILES>
C1[C@H]([C@H](OC2=CC(=CC(=C21)O)O)C3=CC4=C(C(=C(C=C4[C@H]5[C@H](CC6=C(C=C(C=C6O5)O)O)OC(=O)C7=CC(=C(C(=C7)O)O)O)O)O)C(=O)C(=C3)O)O

> <PUBCHEM_CACTVS_TPSA>
284

> <PUBCHEM_MONOISOTOPIC_WEIGHT>
716.137735

> <PUBCHEM_TOTAL_CHARGE>
0

> <PUBCHEM_HEAVY_ATOM_COUNT>
52

> <PUBCHEM_ATOM_DEF_STEREO_COUNT>
4

> <PUBCHEM_ATOM_UDEF_STEREO_COUNT>
0

> <PUBCHEM_BOND_DEF_STEREO_COUNT>
0

> <PUBCHEM_BOND_UDEF_STEREO_COUNT>
0

> <PUBCHEM_ISOTOPIC_ATOM_COUNT>
0

> <PUBCHEM_COMPONENT_COUNT>
1

> <PUBCHEM_CACTVS_TAUTO_COUNT>
-1

> <PUBCHEM_COORDINATE_TYPE>
1
5
255

> <PUBCHEM_BONDANNOTATIONS>
17  53  5
19  23  8
19  31  8
21  25  5
23  28  8
23  29  8
24  27  8
24  34  8
25  28  8
25  33  8
27  38  8
29  35  8
29  37  8
18  3  6
30  32  8
30  40  8
31  36  8
32  42  8
33  39  8
34  41  8
35  36  8
37  39  8
38  43  8
22  4  5
40  45  8
41  43  8
42  46  8
45  46  8
47  48  8
47  49  8
48  51  8
49  50  8
50  52  8
51  52  8

$$$$
