467315
  -OEChem-09152013262D

 85 91  0     1  0  0  0  0  0999 V2000
    6.0682    0.4586    0.0000 O   0  0  0  0  0  0  0  0  0  0  0  0
    9.1271   -2.8395    0.0000 O   0  0  0  0  0  0  0  0  0  0  0  0
    7.8003    2.4586    0.0000 O   0  0  0  0  0  0  0  0  0  0  0  0
    6.8156   -4.1266    0.0000 O   0  0  0  0  0  0  0  0  0  0  0  0
    9.1664   -1.9074    0.0000 O   0  0  0  0  0  0  0  0  0  0  0  0
    5.8307   -0.1940    0.0000 O   0  0  0  0  0  0  0  0  0  0  0  0
    4.3198    3.4932    0.0000 O   0  0  0  0  0  0  0  0  0  0  0  0
   10.3984    0.9586    0.0000 O   0  0  0  0  0  0  0  0  0  0  0  0
   10.3984   -1.0414    0.0000 O   0  0  0  0  0  0  0  0  0  0  0  0
    9.7323   -6.2891    0.0000 O   0  0  0  0  0  0  0  0  0  0  0  0
    5.2292   -3.6056    0.0000 O   0  0  0  0  0  0  0  0  0  0  0  0
    4.5451   -1.7261    0.0000 O   0  0  0  0  0  0  0  0  0  0  0  0
    2.5381    0.4345    0.0000 O   0  0  0  0  0  0  0  0  0  0  0  0
   12.4526   -4.0242    0.0000 O   0  0  0  0  0  0  0  0  0  0  0  0
    6.9343    3.9586    0.0000 O   0  0  0  0  0  0  0  0  0  0  0  0
   11.2644    3.4586    0.0000 O   0  0  0  0  0  0  0  0  0  0  0  0
    9.5323    6.4586    0.0000 O   0  0  0  0  0  0  0  0  0  0  0  0
   11.2644    5.4586    0.0000 O   0  0  0  0  0  0  0  0  0  0  0  0
    6.9343    0.9586    0.0000 C   0  0  1  0  0  0  0  0  0  0  0  0
    6.9343    1.9586    0.0000 C   0  0  1  0  0  0  0  0  0  0  0  0
    8.1424   -3.0132    0.0000 C   0  0  1  0  0  0  0  0  0  0  0  0
    7.8003    0.4586    0.0000 C   0  0  0  0  0  0  0  0  0  0  0  0
    7.8004   -3.9529    0.0000 C   0  0  1  0  0  0  0  0  0  0  0  0
    6.0682    2.4586    0.0000 C   0  0  0  0  0  0  0  0  0  0  0  0
    7.4996   -2.2471    0.0000 C   0  0  0  0  0  0  0  0  0  0  0  0
    7.8003   -0.5414    0.0000 C   0  0  0  0  0  0  0  0  0  0  0  0
    7.1575   -1.3074    0.0000 C   0  0  0  0  0  0  0  0  0  0  0  0
    8.4432   -4.7189    0.0000 C   0  0  0  0  0  0  0  0  0  0  0  0
    5.2022    1.9586    0.0000 C   0  0  0  0  0  0  0  0  0  0  0  0
    5.2022    0.9586    0.0000 C   0  0  0  0  0  0  0  0  0  0  0  0
    9.4279   -4.5452    0.0000 C   0  0  0  0  0  0  0  0  0  0  0  0
    9.7699   -3.6056    0.0000 C   0  0  0  0  0  0  0  0  0  0  0  0
    8.6663    0.9586    0.0000 C   0  0  0  0  0  0  0  0  0  0  0  0
    8.6663   -1.0414    0.0000 C   0  0  0  0  0  0  0  0  0  0  0  0
    6.8568   -3.0132    0.0000 C   0  0  0  0  0  0  0  0  0  0  0  0
    6.1727   -1.1337    0.0000 C   0  0  0  0  0  0  0  0  0  0  0  0
    4.3083    2.4933    0.0000 C   0  0  0  0  0  0  0  0  0  0  0  0
    9.5323    0.4586    0.0000 C   0  0  0  0  0  0  0  0  0  0  0  0
    9.5323   -0.5414    0.0000 C   0  0  0  0  0  0  0  0  0  0  0  0
    4.3083    0.4240    0.0000 C   0  0  0  0  0  0  0  0  0  0  0  0
   10.0851   -5.3534    0.0000 C   0  0  0  0  0  0  0  0  0  0  0  0
    5.8720   -2.8395    0.0000 C   0  0  0  0  0  0  0  0  0  0  0  0
    5.5299   -1.8998    0.0000 C   0  0  0  0  0  0  0  0  0  0  0  0
   10.7928   -3.4089    0.0000 C   0  0  0  0  0  0  0  0  0  0  0  0
    3.4022    1.9794    0.0000 C   0  0  0  0  0  0  0  0  0  0  0  0
    3.4022    0.9378    0.0000 C   0  0  0  0  0  0  0  0  0  0  0  0
   11.1122   -5.1805    0.0000 C   0  0  0  0  0  0  0  0  0  0  0  0
   11.4685   -4.2016    0.0000 C   0  0  0  0  0  0  0  0  0  0  0  0
    7.8003    3.4586    0.0000 C   0  0  0  0  0  0  0  0  0  0  0  0
    8.6663    3.9586    0.0000 C   0  0  0  0  0  0  0  0  0  0  0  0
    8.6663    4.9586    0.0000 C   0  0  0  0  0  0  0  0  0  0  0  0
    9.5323    3.4586    0.0000 C   0  0  0  0  0  0  0  0  0  0  0  0
   10.3984    3.9586    0.0000 C   0  0  0  0  0  0  0  0  0  0  0  0
    9.5323    5.4586    0.0000 C   0  0  0  0  0  0  0  0  0  0  0  0
   10.3984    4.9586    0.0000 C   0  0  0  0  0  0  0  0  0  0  0  0
    6.9343    0.1086    0.0000 H   0  0  0  0  0  0  0  0  0  0  0  0
    7.4712    1.6486    0.0000 H   0  0  0  0  0  0  0  0  0  0  0  0
    8.4331   -2.2144    0.0000 H   0  0  0  0  0  0  0  0  0  0  0  0
    7.4018   -3.4779    0.0000 H   0  0  0  0  0  0  0  0  0  0  0  0
    6.4668    2.9336    0.0000 H   0  0  0  0  0  0  0  0  0  0  0  0
    5.6697    2.9336    0.0000 H   0  0  0  0  0  0  0  0  0  0  0  0
    7.9062   -5.0289    0.0000 H   0  0  0  0  0  0  0  0  0  0  0  0
    8.6552   -5.3015    0.0000 H   0  0  0  0  0  0  0  0  0  0  0  0
    8.6663    1.5786    0.0000 H   0  0  0  0  0  0  0  0  0  0  0  0
    7.0689   -3.5958    0.0000 H   0  0  0  0  0  0  0  0  0  0  0  0
    4.3154   -0.1960    0.0000 H   0  0  0  0  0  0  0  0  0  0  0  0
    6.6036   -4.7092    0.0000 H   0  0  0  0  0  0  0  0  0  0  0  0
   10.9981   -2.8239    0.0000 H   0  0  0  0  0  0  0  0  0  0  0  0
    2.8665    2.2915    0.0000 H   0  0  0  0  0  0  0  0  0  0  0  0
   11.5089   -5.6569    0.0000 H   0  0  0  0  0  0  0  0  0  0  0  0
    9.7863   -1.9074    0.0000 H   0  0  0  0  0  0  0  0  0  0  0  0
    5.2201   -0.0863    0.0000 H   0  0  0  0  0  0  0  0  0  0  0  0
    3.7865    3.8094    0.0000 H   0  0  0  0  0  0  0  0  0  0  0  0
   10.3984    1.5786    0.0000 H   0  0  0  0  0  0  0  0  0  0  0  0
   10.9353   -0.7314    0.0000 H   0  0  0  0  0  0  0  0  0  0  0  0
   10.1252   -6.7686    0.0000 H   0  0  0  0  0  0  0  0  0  0  0  0
    5.4412   -4.1882    0.0000 H   0  0  0  0  0  0  0  0  0  0  0  0
    4.1466   -2.2010    0.0000 H   0  0  0  0  0  0  0  0  0  0  0  0
    2.0000    0.7424    0.0000 H   0  0  0  0  0  0  0  0  0  0  0  0
   12.8530   -4.4976    0.0000 H   0  0  0  0  0  0  0  0  0  0  0  0
    8.1294    5.2686    0.0000 H   0  0  0  0  0  0  0  0  0  0  0  0
    9.5323    2.8386    0.0000 H   0  0  0  0  0  0  0  0  0  0  0  0
   11.8013    3.7686    0.0000 H   0  0  0  0  0  0  0  0  0  0  0  0
    8.9954    6.7686    0.0000 H   0  0  0  0  0  0  0  0  0  0  0  0
   11.2644    6.0786    0.0000 H   0  0  0  0  0  0  0  0  0  0  0  0
  1 19  1  0  0  0  0
  1 30  1  0  0  0  0
  2 21  1  0  0  0  0
  2 32  1  0  0  0  0
 20  3  1  1  0  0  0
  3 49  1  0  0  0  0
 23  4  1  1  0  0  0
  4 67  1  0  0  0  0
  5 34  1  0  0  0  0
  5 71  1  0  0  0  0
  6 36  1  0  0  0  0
  6 72  1  0  0  0  0
  7 37  1  0  0  0  0
  7 73  1  0  0  0  0
  8 38  1  0  0  0  0
  8 74  1  0  0  0  0
  9 39  1  0  0  0  0
  9 75  1  0  0  0  0
 10 41  1  0  0  0  0
 10 76  1  0  0  0  0
 11 42  1  0  0  0  0
 11 77  1  0  0  0  0
 12 43  1  0  0  0  0
 12 78  1  0  0  0  0
 13 46  1  0  0  0  0
 13 79  1  0  0  0  0
 14 48  1  0  0  0  0
 14 80  1  0  0  0  0
 15 49  2  0  0  0  0
 16 53  1  0  0  0  0
 16 83  1  0  0  0  0
 17 54  1  0  0  0  0
 17 84  1  0  0  0  0
 18 55  1  0  0  0  0
 18 85  1  0  0  0  0
 19 20  1  0  0  0  0
 19 22  1  0  0  0  0
 19 56  1  6  0  0  0
 20 24  1  0  0  0  0
 20 57  1  0  0  0  0
 21 23  1  0  0  0  0
 21 25  1  0  0  0  0
 21 58  1  6  0  0  0
 22 26  1  0  0  0  0
 22 33  2  0  0  0  0
 23 28  1  0  0  0  0
 23 59  1  0  0  0  0
 24 29  1  0  0  0  0
 24 60  1  0  0  0  0
 24 61  1  0  0  0  0
 25 27  1  0  0  0  0
 25 35  2  0  0  0  0
 26 27  1  0  0  0  0
 26 34  2  0  0  0  0
 27 36  2  0  0  0  0
 28 31  1  0  0  0  0
 28 62  1  0  0  0  0
 28 63  1  0  0  0  0
 29 30  1  0  0  0  0
 29 37  2  0  0  0  0
 30 40  2  0  0  0  0
 31 32  1  0  0  0  0
 31 41  2  0  0  0  0
 32 44  2  0  0  0  0
 33 38  1  0  0  0  0
 33 64  1  0  0  0  0
 34 39  1  0  0  0  0
 35 42  1  0  0  0  0
 35 65  1  0  0  0  0
 36 43  1  0  0  0  0
 37 45  1  0  0  0  0
 38 39  2  0  0  0  0
 40 46  1  0  0  0  0
 40 66  1  0  0  0  0
 41 47  1  0  0  0  0
 42 43  2  0  0  0  0
 44 48  1  0  0  0  0
 44 68  1  0  0  0  0
 45 46  2  0  0  0  0
 45 69  1  0  0  0  0
 47 48  2  0  0  0  0
 47 70  1  0  0  0  0
 49 50  1  0  0  0  0
 50 51  2  0  0  0  0
 50 52  1  0  0  0  0
 51 54  1  0  0  0  0
 51 81  1  0  0  0  0
 52 53  2  0  0  0  0
 52 82  1  0  0  0  0
 53 55  1  0  0  0  0
 54 55  2  0  0  0  0
M  END
> <PUBCHEM_COMPOUND_CID>
467315

> <PUBCHEM_COMPOUND_CANONICALIZED>
1

> <PUBCHEM_CACTVS_COMPLEXITY>
1310

> <PUBCHEM_CACTVS_HBOND_ACCEPTOR>
18

> <PUBCHEM_CACTVS_HBOND_DONOR>
14

> <PUBCHEM_CACTVS_ROTATABLE_BOND>
6

> <PUBCHEM_CACTVS_SUBSKEYS>
AAADceB8PgAAAAAAAAAAAAAAAAAAAAAAAAA0aMGDAAAAAACRVAAAGgAACAAADBSgmAIwDoAABgCIAiDSCAACCAAkIAAAiAEGiMgNNzKGNRqCeSGlwBULuYfK7PzOoAABCAAYQABAAAIQADCAAAAAAAAAAA==

> <PUBCHEM_IUPAC_OPENEYE_NAME>
[(2R,3R)-5,7-dihydroxy-2-[3,4,5-trihydroxy-2-[2,3,4-trihydroxy-6-[(2R,3R)-3,5,7-trihydroxychroman-2-yl]phenyl]phenyl]chroman-3-yl] 3,4,5-trihydroxybenzoate

> <PUBCHEM_IUPAC_CAS_NAME>
3,4,5-trihydroxybenzoic acid [(2R,3R)-5,7-dihydroxy-2-[3,4,5-trihydroxy-2-[2,3,4-trihydroxy-6-[(2R,3R)-3,5,7-trihydroxy-3,4-dihydro-2H-1-benzopyran-2-yl]phenyl]phenyl]-3,4-dihydro-2H-1-benzopyran-3-yl] ester

> <PUBCHEM_IUPAC_NAME_MARKUP>
[(2<I>R</I>,3<I>R</I>)-5,7-dihydroxy-2-[3,4,5-trihydroxy-2-[2,3,4-trihydroxy-6-[(2<I>R</I>,3<I>R</I>)-3,5,7-trihydroxy-3,4-dihydro-2<I>H</I>-chromen-2-yl]phenyl]phenyl]-3,4-dihydro-2<I>H</I>-chromen-3-yl] 3,4,5-trihydroxybenzoate

> <PUBCHEM_IUPAC_NAME>
[(2R,3R)-5,7-dihydroxy-2-[3,4,5-trihydroxy-2-[2,3,4-trihydroxy-6-[(2R,3R)-3,5,7-trihydroxy-3,4-dihydro-2H-chromen-2-yl]phenyl]phenyl]-3,4-dihydro-2H-chromen-3-yl] 3,4,5-trihydroxybenzoate

> <PUBCHEM_IUPAC_SYSTEMATIC_NAME>
[(2R,3R)-5,7-bis(oxidanyl)-2-[3,4,5-tris(oxidanyl)-2-[2,3,4-tris(oxidanyl)-6-[(2R,3R)-3,5,7-tris(oxidanyl)-3,4-dihydro-2H-chromen-2-yl]phenyl]phenyl]-3,4-dihydro-2H-chromen-3-yl] 3,4,5-tris(oxidanyl)benzoate

> <PUBCHEM_IUPAC_TRADITIONAL_NAME>
3,4,5-trihydroxybenzoic acid [(2R,3R)-5,7-dihydroxy-2-[3,4,5-trihydroxy-2-[2,3,4-trihydroxy-6-[(2R,3R)-3,5,7-trihydroxychroman-2-yl]phenyl]phenyl]chroman-3-yl] ester

> <PUBCHEM_IUPAC_INCHI>
InChI=1S/C37H30O18/c38-12-3-18(40)14-7-24(46)35(53-25(14)5-12)16-8-22(44)31(48)33(50)28(16)29-17(9-23(45)32(49)34(29)51)36-27(10-15-19(41)4-13(39)6-26(15)54-36)55-37(52)11-1-20(42)30(47)21(43)2-11/h1-6,8-9,24,27,35-36,38-51H,7,10H2/t24-,27-,35-,36-/m1/s1

> <PUBCHEM_IUPAC_INCHIKEY>
CTVAVEOYQKVFFY-DUSGSIEYSA-N

> <PUBCHEM_XLOGP3_AA>
3

> <PUBCHEM_EXACT_MASS>
762.143214

> <PUBCHEM_MOLECULAR_FORMULA>
C37H30O18

> <PUBCHEM_MOLECULAR_WEIGHT>
762.6

> <PUBCHEM_OPENEYE_CAN_SMILES>
C1C(C(OC2=CC(=CC(=C21)O)O)C3=CC(=C(C(=C3C4=C(C(=C(C=C4C5C(CC6=C(C=C(C=C6O5)O)O)OC(=O)C7=CC(=C(C(=C7)O)O)O)O)O)O)O)O)O)O

> <PUBCHEM_OPENEYE_ISO_SMILES>
C1[C@H]([C@H](OC2=CC(=CC(=C21)O)O)C3=CC(=C(C(=C3C4=C(C(=C(C=C4[C@@H]5[C@@H](CC6=C(C=C(C=C6O5)O)O)OC(=O)C7=CC(=C(C(=C7)O)O)O)O)O)O)O)O)O)O

> <PUBCHEM_CACTVS_TPSA>
328

> <PUBCHEM_MONOISOTOPIC_WEIGHT>
762.143214

> <PUBCHEM_TOTAL_CHARGE>
0

> <PUBCHEM_HEAVY_ATOM_COUNT>
55

> <PUBCHEM_ATOM_DEF_STEREO_COUNT>
4

> <PUBCHEM_ATOM_UDEF_STEREO_COUNT>
0

> <PUBCHEM_BOND_DEF_STEREO_COUNT>
0

> <PUBCHEM_BOND_UDEF_STEREO_COUNT>
0

> <PUBCHEM_ISOTOPIC_ATOM_COUNT>
0

> <PUBCHEM_COMPONENT_COUNT>
1

> <PUBCHEM_CACTVS_TAUTO_COUNT>
-1

> <PUBCHEM_COORDINATE_TYPE>
1
5
255

> <PUBCHEM_BONDANNOTATIONS>
19  56  6
21  58  6
22  26  8
22  33  8
25  27  8
25  35  8
26  34  8
27  36  8
29  30  8
29  37  8
20  3  5
30  40  8
31  32  8
31  41  8
32  44  8
33  38  8
34  39  8
35  42  8
36  43  8
37  45  8
38  39  8
23  4  5
40  46  8
41  47  8
42  43  8
44  48  8
45  46  8
47  48  8
50  51  8
50  52  8
51  54  8
52  53  8
53  55  8
54  55  8

$$$$
