467316
  -OEChem-09152013282D

 99106  0     1  0  0  0  0  0999 V2000
    6.3113    0.8554    0.0000 O   0  0  0  0  0  0  0  0  0  0  0  0
    8.8049   -2.2370    0.0000 O   0  0  0  0  0  0  0  0  0  0  0  0
    8.0434    2.8554    0.0000 O   0  0  0  0  0  0  0  0  0  0  0  0
    6.4934   -3.5240    0.0000 O   0  0  0  0  0  0  0  0  0  0  0  0
    9.2515   -1.5843    0.0000 O   0  0  0  0  0  0  0  0  0  0  0  0
    4.5629    3.8900    0.0000 O   0  0  0  0  0  0  0  0  0  0  0  0
    9.4100   -5.6866    0.0000 O   0  0  0  0  0  0  0  0  0  0  0  0
   10.6414    1.3554    0.0000 O   0  0  0  0  0  0  0  0  0  0  0  0
   10.6414   -0.6446    0.0000 O   0  0  0  0  0  0  0  0  0  0  0  0
    4.5792   -2.1446    0.0000 O   0  0  0  0  0  0  0  0  0  0  0  0
    4.5792   -0.1446    0.0000 O   0  0  0  0  0  0  0  0  0  0  0  0
    2.7812    0.8312    0.0000 O   0  0  0  0  0  0  0  0  0  0  0  0
   12.1304   -3.4217    0.0000 O   0  0  0  0  0  0  0  0  0  0  0  0
    7.1773    4.3554    0.0000 O   0  0  0  0  0  0  0  0  0  0  0  0
    6.7940   -5.2298    0.0000 O   0  0  0  0  0  0  0  0  0  0  0  0
   11.5075    3.8554    0.0000 O   0  0  0  0  0  0  0  0  0  0  0  0
    9.7754    6.8554    0.0000 O   0  0  0  0  0  0  0  0  0  0  0  0
    2.8961   -3.2789    0.0000 O   0  0  0  0  0  0  0  0  0  0  0  0
    3.4977   -6.6904    0.0000 O   0  0  0  0  0  0  0  0  0  0  0  0
   11.5075    5.8554    0.0000 O   0  0  0  0  0  0  0  0  0  0  0  0
    2.2120   -5.1583    0.0000 O   0  0  0  0  0  0  0  0  0  0  0  0
    7.1773    1.3554    0.0000 C   0  0  1  0  0  0  0  0  0  0  0  0
    7.8201   -2.4107    0.0000 C   0  0  1  0  0  0  0  0  0  0  0  0
    7.1773    2.3554    0.0000 C   0  0  1  0  0  0  0  0  0  0  0  0
    7.4781   -3.3504    0.0000 C   0  0  1  0  0  0  0  0  0  0  0  0
    8.0434    0.8554    0.0000 C   0  0  0  0  0  0  0  0  0  0  0  0
    7.1773   -1.6446    0.0000 C   0  0  0  0  0  0  0  0  0  0  0  0
    6.3113    2.8554    0.0000 C   0  0  0  0  0  0  0  0  0  0  0  0
    8.1209   -4.1164    0.0000 C   0  0  0  0  0  0  0  0  0  0  0  0
    8.0434   -0.1446    0.0000 C   0  0  0  0  0  0  0  0  0  0  0  0
    7.1773   -0.6446    0.0000 C   0  0  0  0  0  0  0  0  0  0  0  0
    5.4453    2.3554    0.0000 C   0  0  0  0  0  0  0  0  0  0  0  0
    9.1057   -3.9428    0.0000 C   0  0  0  0  0  0  0  0  0  0  0  0
    5.4453    1.3554    0.0000 C   0  0  0  0  0  0  0  0  0  0  0  0
    9.4477   -3.0031    0.0000 C   0  0  0  0  0  0  0  0  0  0  0  0
    8.9094    1.3554    0.0000 C   0  0  0  0  0  0  0  0  0  0  0  0
    6.3113   -2.1446    0.0000 C   0  0  0  0  0  0  0  0  0  0  0  0
    8.9094   -0.6446    0.0000 C   0  0  0  0  0  0  0  0  0  0  0  0
    6.3113   -0.1446    0.0000 C   0  0  0  0  0  0  0  0  0  0  0  0
    4.5513    2.8900    0.0000 C   0  0  0  0  0  0  0  0  0  0  0  0
    9.7628   -4.7509    0.0000 C   0  0  0  0  0  0  0  0  0  0  0  0
    9.7754    0.8554    0.0000 C   0  0  0  0  0  0  0  0  0  0  0  0
    9.7754   -0.1446    0.0000 C   0  0  0  0  0  0  0  0  0  0  0  0
    5.4453   -1.6446    0.0000 C   0  0  0  0  0  0  0  0  0  0  0  0
    4.5513    0.8207    0.0000 C   0  0  0  0  0  0  0  0  0  0  0  0
    5.4453   -0.6446    0.0000 C   0  0  0  0  0  0  0  0  0  0  0  0
   10.4706   -2.8064    0.0000 C   0  0  0  0  0  0  0  0  0  0  0  0
    3.6453    2.3762    0.0000 C   0  0  0  0  0  0  0  0  0  0  0  0
   10.7900   -4.5780    0.0000 C   0  0  0  0  0  0  0  0  0  0  0  0
    3.6453    1.3346    0.0000 C   0  0  0  0  0  0  0  0  0  0  0  0
   11.1463   -3.5992    0.0000 C   0  0  0  0  0  0  0  0  0  0  0  0
    8.0434    3.8554    0.0000 C   0  0  0  0  0  0  0  0  0  0  0  0
    6.1514   -4.4637    0.0000 C   0  0  0  0  0  0  0  0  0  0  0  0
    8.9094    4.3554    0.0000 C   0  0  0  0  0  0  0  0  0  0  0  0
    5.1665   -4.6374    0.0000 C   0  0  0  0  0  0  0  0  0  0  0  0
    8.9094    5.3554    0.0000 C   0  0  0  0  0  0  0  0  0  0  0  0
    9.7754    3.8554    0.0000 C   0  0  0  0  0  0  0  0  0  0  0  0
    4.8245   -5.5771    0.0000 C   0  0  0  0  0  0  0  0  0  0  0  0
    4.5237   -3.8713    0.0000 C   0  0  0  0  0  0  0  0  0  0  0  0
   10.6414    4.3554    0.0000 C   0  0  0  0  0  0  0  0  0  0  0  0
    9.7754    5.8554    0.0000 C   0  0  0  0  0  0  0  0  0  0  0  0
    3.5389   -4.0450    0.0000 C   0  0  0  0  0  0  0  0  0  0  0  0
    3.8397   -5.7507    0.0000 C   0  0  0  0  0  0  0  0  0  0  0  0
   10.6414    5.3554    0.0000 C   0  0  0  0  0  0  0  0  0  0  0  0
    3.1969   -4.9847    0.0000 C   0  0  0  0  0  0  0  0  0  0  0  0
    7.1773    0.5054    0.0000 H   0  0  0  0  0  0  0  0  0  0  0  0
    8.1108   -1.6119    0.0000 H   0  0  0  0  0  0  0  0  0  0  0  0
    7.1773    2.9754    0.0000 H   0  0  0  0  0  0  0  0  0  0  0  0
    7.0796   -2.8754    0.0000 H   0  0  0  0  0  0  0  0  0  0  0  0
    6.7098    3.3303    0.0000 H   0  0  0  0  0  0  0  0  0  0  0  0
    5.9128    3.3303    0.0000 H   0  0  0  0  0  0  0  0  0  0  0  0
    7.5839   -4.4264    0.0000 H   0  0  0  0  0  0  0  0  0  0  0  0
    8.3329   -4.6990    0.0000 H   0  0  0  0  0  0  0  0  0  0  0  0
    8.9094    1.9754    0.0000 H   0  0  0  0  0  0  0  0  0  0  0  0
    6.3113   -2.7646    0.0000 H   0  0  0  0  0  0  0  0  0  0  0  0
    6.3113    0.4754    0.0000 H   0  0  0  0  0  0  0  0  0  0  0  0
    4.5585    0.2008    0.0000 H   0  0  0  0  0  0  0  0  0  0  0  0
   10.6759   -2.2214    0.0000 H   0  0  0  0  0  0  0  0  0  0  0  0
    3.1095    2.6883    0.0000 H   0  0  0  0  0  0  0  0  0  0  0  0
   11.1867   -5.0544    0.0000 H   0  0  0  0  0  0  0  0  0  0  0  0
    9.8620   -1.6920    0.0000 H   0  0  0  0  0  0  0  0  0  0  0  0
    4.0296    4.2062    0.0000 H   0  0  0  0  0  0  0  0  0  0  0  0
    9.8030   -6.1661    0.0000 H   0  0  0  0  0  0  0  0  0  0  0  0
   10.6414    1.9754    0.0000 H   0  0  0  0  0  0  0  0  0  0  0  0
   11.1784   -0.3346    0.0000 H   0  0  0  0  0  0  0  0  0  0  0  0
    4.5792   -2.7646    0.0000 H   0  0  0  0  0  0  0  0  0  0  0  0
    4.0423   -0.4546    0.0000 H   0  0  0  0  0  0  0  0  0  0  0  0
    2.2431    1.1392    0.0000 H   0  0  0  0  0  0  0  0  0  0  0  0
   12.5308   -3.8951    0.0000 H   0  0  0  0  0  0  0  0  0  0  0  0
    8.3724    5.6654    0.0000 H   0  0  0  0  0  0  0  0  0  0  0  0
    9.7754    3.2354    0.0000 H   0  0  0  0  0  0  0  0  0  0  0  0
    5.2230   -6.0520    0.0000 H   0  0  0  0  0  0  0  0  0  0  0  0
    4.7357   -3.2887    0.0000 H   0  0  0  0  0  0  0  0  0  0  0  0
   12.0444    4.1654    0.0000 H   0  0  0  0  0  0  0  0  0  0  0  0
    9.2385    7.1654    0.0000 H   0  0  0  0  0  0  0  0  0  0  0  0
    2.2855   -3.3866    0.0000 H   0  0  0  0  0  0  0  0  0  0  0  0
    3.8962   -7.1654    0.0000 H   0  0  0  0  0  0  0  0  0  0  0  0
   11.5075    6.4754    0.0000 H   0  0  0  0  0  0  0  0  0  0  0  0
    2.0000   -5.7409    0.0000 H   0  0  0  0  0  0  0  0  0  0  0  0
  1 22  1  0  0  0  0
  1 34  1  0  0  0  0
  2 23  1  0  0  0  0
  2 35  1  0  0  0  0
 24  3  1  1  0  0  0
  3 52  1  0  0  0  0
 25  4  1  1  0  0  0
  4 53  1  0  0  0  0
  5 38  1  0  0  0  0
  5 81  1  0  0  0  0
  6 40  1  0  0  0  0
  6 82  1  0  0  0  0
  7 41  1  0  0  0  0
  7 83  1  0  0  0  0
  8 42  1  0  0  0  0
  8 84  1  0  0  0  0
  9 43  1  0  0  0  0
  9 85  1  0  0  0  0
 10 44  1  0  0  0  0
 10 86  1  0  0  0  0
 11 46  1  0  0  0  0
 11 87  1  0  0  0  0
 12 50  1  0  0  0  0
 12 88  1  0  0  0  0
 13 51  1  0  0  0  0
 13 89  1  0  0  0  0
 14 52  2  0  0  0  0
 15 53  2  0  0  0  0
 16 60  1  0  0  0  0
 16 94  1  0  0  0  0
 17 61  1  0  0  0  0
 17 95  1  0  0  0  0
 18 62  1  0  0  0  0
 18 96  1  0  0  0  0
 19 63  1  0  0  0  0
 19 97  1  0  0  0  0
 20 64  1  0  0  0  0
 20 98  1  0  0  0  0
 21 65  1  0  0  0  0
 21 99  1  0  0  0  0
 22 24  1  0  0  0  0
 22 26  1  0  0  0  0
 22 66  1  6  0  0  0
 23 25  1  0  0  0  0
 23 27  1  0  0  0  0
 23 67  1  6  0  0  0
 24 28  1  0  0  0  0
 24 68  1  0  0  0  0
 25 29  1  0  0  0  0
 25 69  1  0  0  0  0
 26 30  1  0  0  0  0
 26 36  2  0  0  0  0
 27 31  1  0  0  0  0
 27 37  2  0  0  0  0
 28 32  1  0  0  0  0
 28 70  1  0  0  0  0
 28 71  1  0  0  0  0
 29 33  1  0  0  0  0
 29 72  1  0  0  0  0
 29 73  1  0  0  0  0
 30 31  1  0  0  0  0
 30 38  2  0  0  0  0
 31 39  2  0  0  0  0
 32 34  1  0  0  0  0
 32 40  2  0  0  0  0
 33 35  1  0  0  0  0
 33 41  2  0  0  0  0
 34 45  2  0  0  0  0
 35 47  2  0  0  0  0
 36 42  1  0  0  0  0
 36 74  1  0  0  0  0
 37 44  1  0  0  0  0
 37 75  1  0  0  0  0
 38 43  1  0  0  0  0
 39 46  1  0  0  0  0
 39 76  1  0  0  0  0
 40 48  1  0  0  0  0
 41 49  1  0  0  0  0
 42 43  2  0  0  0  0
 44 46  2  0  0  0  0
 45 50  1  0  0  0  0
 45 77  1  0  0  0  0
 47 51  1  0  0  0  0
 47 78  1  0  0  0  0
 48 50  2  0  0  0  0
 48 79  1  0  0  0  0
 49 51  2  0  0  0  0
 49 80  1  0  0  0  0
 52 54  1  0  0  0  0
 53 55  1  0  0  0  0
 54 56  2  0  0  0  0
 54 57  1  0  0  0  0
 55 58  2  0  0  0  0
 55 59  1  0  0  0  0
 56 61  1  0  0  0  0
 56 90  1  0  0  0  0
 57 60  2  0  0  0  0
 57 91  1  0  0  0  0
 58 63  1  0  0  0  0
 58 92  1  0  0  0  0
 59 62  2  0  0  0  0
 59 93  1  0  0  0  0
 60 64  1  0  0  0  0
 61 64  2  0  0  0  0
 62 65  1  0  0  0  0
 63 65  2  0  0  0  0
M  END
> <PUBCHEM_COMPOUND_CID>
467316

> <PUBCHEM_COMPOUND_CANONICALIZED>
1

> <PUBCHEM_CACTVS_COMPLEXITY>
1620

> <PUBCHEM_CACTVS_HBOND_ACCEPTOR>
21

> <PUBCHEM_CACTVS_HBOND_DONOR>
15

> <PUBCHEM_CACTVS_ROTATABLE_BOND>
9

> <PUBCHEM_CACTVS_SUBSKEYS>
AAADcfB8PgAAAAAAAAAAAAAAAAAAAAAAAAA0aMGDAAAAAACRVAAAGgAACAAADBSgmAIwDoAABgCIAiDSCAACCAAkIAAAiAEGiMgNJzKGNRqCeSGlwBULuYfK7PzOoAABCAAYQABAAAIQADCAAAAAAAAAAA==

> <PUBCHEM_IUPAC_OPENEYE_NAME>
[(2R,3R)-2-[2-[6-[(2R,3R)-5,7-dihydroxy-3-(3,4,5-trihydroxybenzoyl)oxy-chroman-2-yl]-2,3,4-trihydroxy-phenyl]-4,5-dihydroxy-phenyl]-5,7-dihydroxy-chroman-3-yl] 3,4,5-trihydroxybenzoate

> <PUBCHEM_IUPAC_CAS_NAME>
3,4,5-trihydroxybenzoic acid [(2R,3R)-2-[2-[6-[(2R,3R)-5,7-dihydroxy-3-[oxo-(3,4,5-trihydroxyphenyl)methoxy]-3,4-dihydro-2H-1-benzopyran-2-yl]-2,3,4-trihydroxyphenyl]-4,5-dihydroxyphenyl]-5,7-dihydroxy-3,4-dihydro-2H-1-benzopyran-3-yl] ester

> <PUBCHEM_IUPAC_NAME_MARKUP>
[(2<I>R</I>,3<I>R</I>)-2-[2-[6-[(2<I>R</I>,3<I>R</I>)-5,7-dihydroxy-3-(3,4,5-trihydroxybenzoyl)oxy-3,4-dihydro-2<I>H</I>-chromen-2-yl]-2,3,4-trihydroxyphenyl]-4,5-dihydroxyphenyl]-5,7-dihydroxy-3,4-dihydro-2<I>H</I>-chromen-3-yl] 3,4,5-trihydroxybenzoate

> <PUBCHEM_IUPAC_NAME>
[(2R,3R)-2-[2-[6-[(2R,3R)-5,7-dihydroxy-3-(3,4,5-trihydroxybenzoyl)oxy-3,4-dihydro-2H-chromen-2-yl]-2,3,4-trihydroxyphenyl]-4,5-dihydroxyphenyl]-5,7-dihydroxy-3,4-dihydro-2H-chromen-3-yl] 3,4,5-trihydroxybenzoate

> <PUBCHEM_IUPAC_SYSTEMATIC_NAME>
[(2R,3R)-2-[2-[6-[(2R,3R)-5,7-bis(oxidanyl)-3-[3,4,5-tris(oxidanyl)phenyl]carbonyloxy-3,4-dihydro-2H-chromen-2-yl]-2,3,4-tris(oxidanyl)phenyl]-4,5-bis(oxidanyl)phenyl]-5,7-bis(oxidanyl)-3,4-dihydro-2H-chromen-3-yl] 3,4,5-tris(oxidanyl)benzoate

> <PUBCHEM_IUPAC_TRADITIONAL_NAME>
3,4,5-trihydroxybenzoic acid [(2R,3R)-2-[2-[6-[(2R,3R)-3-galloyloxy-5,7-dihydroxy-chroman-2-yl]-2,3,4-trihydroxy-phenyl]-4,5-dihydroxy-phenyl]-5,7-dihydroxy-chroman-3-yl] ester

> <PUBCHEM_IUPAC_INCHI>
InChI=1S/C44H34O21/c45-16-5-23(47)20-12-34(64-43(60)14-1-27(51)37(56)28(52)2-14)41(62-32(20)7-16)19-10-26(50)25(49)9-18(19)36-22(11-31(55)39(58)40(36)59)42-35(13-21-24(48)6-17(46)8-33(21)63-42)65-44(61)15-3-29(53)38(57)30(54)4-15/h1-11,34-35,41-42,45-59H,12-13H2/t34-,35-,41-,42-/m1/s1

> <PUBCHEM_IUPAC_INCHIKEY>
JLFHSPGTENNODT-WLDZFSAMSA-N

> <PUBCHEM_XLOGP3_AA>
4.5

> <PUBCHEM_EXACT_MASS>
898.159258

> <PUBCHEM_MOLECULAR_FORMULA>
C44H34O21

> <PUBCHEM_MOLECULAR_WEIGHT>
898.7

> <PUBCHEM_OPENEYE_CAN_SMILES>
C1C(C(OC2=CC(=CC(=C21)O)O)C3=CC(=C(C=C3C4=C(C(=C(C=C4C5C(CC6=C(C=C(C=C6O5)O)O)OC(=O)C7=CC(=C(C(=C7)O)O)O)O)O)O)O)O)OC(=O)C8=CC(=C(C(=C8)O)O)O

> <PUBCHEM_OPENEYE_ISO_SMILES>
C1[C@H]([C@H](OC2=CC(=CC(=C21)O)O)C3=CC(=C(C=C3C4=C(C(=C(C=C4[C@@H]5[C@@H](CC6=C(C=C(C=C6O5)O)O)OC(=O)C7=CC(=C(C(=C7)O)O)O)O)O)O)O)O)OC(=O)C8=CC(=C(C(=C8)O)O)O

> <PUBCHEM_CACTVS_TPSA>
375

> <PUBCHEM_MONOISOTOPIC_WEIGHT>
898.159258

> <PUBCHEM_TOTAL_CHARGE>
0

> <PUBCHEM_HEAVY_ATOM_COUNT>
65

> <PUBCHEM_ATOM_DEF_STEREO_COUNT>
4

> <PUBCHEM_ATOM_UDEF_STEREO_COUNT>
0

> <PUBCHEM_BOND_DEF_STEREO_COUNT>
0

> <PUBCHEM_BOND_UDEF_STEREO_COUNT>
0

> <PUBCHEM_ISOTOPIC_ATOM_COUNT>
0

> <PUBCHEM_COMPONENT_COUNT>
1

> <PUBCHEM_CACTVS_TAUTO_COUNT>
-1

> <PUBCHEM_COORDINATE_TYPE>
1
5
255

> <PUBCHEM_BONDANNOTATIONS>
22  66  6
23  67  6
26  30  8
26  36  8
27  31  8
27  37  8
24  3  5
30  38  8
31  39  8
32  34  8
32  40  8
33  35  8
33  41  8
34  45  8
35  47  8
36  42  8
37  44  8
38  43  8
39  46  8
25  4  5
40  48  8
41  49  8
42  43  8
44  46  8
45  50  8
47  51  8
48  50  8
49  51  8
54  56  8
54  57  8
55  58  8
55  59  8
56  61  8
57  60  8
58  63  8
59  62  8
60  64  8
61  64  8
62  65  8
63  65  8

$$$$
