442543
  -OEChem-09152013242D

100107  0     1  0  0  0  0  0999 V2000
    9.1271   -1.0567    0.0000 O   0  0  0  0  0  0  0  0  0  0  0  0
    6.0682    1.0567    0.0000 O   0  0  0  0  0  0  0  0  0  0  0  0
    7.3952   -3.0567    0.0000 O   0  0  0  0  0  0  0  0  0  0  0  0
    7.8003    3.0567    0.0000 O   0  0  0  0  0  0  0  0  0  0  0  0
    6.5290    1.4434    0.0000 O   0  0  0  0  0  0  0  0  0  0  0  0
    9.5879   -0.6700    0.0000 O   0  0  0  0  0  0  0  0  0  0  0  0
   10.8755   -4.0913    0.0000 O   0  0  0  0  0  0  0  0  0  0  0  0
    4.3198    4.0913    0.0000 O   0  0  0  0  0  0  0  0  0  0  0  0
    4.7970   -1.5567    0.0000 O   0  0  0  0  0  0  0  0  0  0  0  0
   10.1895    2.7415    0.0000 O   0  0  0  0  0  0  0  0  0  0  0  0
    4.7970    0.4434    0.0000 O   0  0  0  0  0  0  0  0  0  0  0  0
   10.8735    0.8621    0.0000 O   0  0  0  0  0  0  0  0  0  0  0  0
   12.6573   -1.0325    0.0000 O   0  0  0  0  0  0  0  0  0  0  0  0
    2.5381    1.0325    0.0000 O   0  0  0  0  0  0  0  0  0  0  0  0
    8.2611   -4.5567    0.0000 O   0  0  0  0  0  0  0  0  0  0  0  0
    6.9343    4.5567    0.0000 O   0  0  0  0  0  0  0  0  0  0  0  0
    5.6631   -7.0567    0.0000 O   0  0  0  0  0  0  0  0  0  0  0  0
   11.2644    4.0567    0.0000 O   0  0  0  0  0  0  0  0  0  0  0  0
    3.9310   -4.0567    0.0000 O   0  0  0  0  0  0  0  0  0  0  0  0
    9.5323    7.0567    0.0000 O   0  0  0  0  0  0  0  0  0  0  0  0
    3.9311   -6.0567    0.0000 O   0  0  0  0  0  0  0  0  0  0  0  0
   11.2644    6.0567    0.0000 O   0  0  0  0  0  0  0  0  0  0  0  0
    8.2611   -1.5567    0.0000 C   0  0  1  0  0  0  0  0  0  0  0  0
    6.9343    1.5567    0.0000 C   0  0  1  0  0  0  0  0  0  0  0  0
    8.2611   -2.5567    0.0000 C   0  0  1  0  0  0  0  0  0  0  0  0
    6.9343    2.5567    0.0000 C   0  0  1  0  0  0  0  0  0  0  0  0
    7.3952   -1.0567    0.0000 C   0  0  0  0  0  0  0  0  0  0  0  0
    7.9191    1.3830    0.0000 C   0  0  0  0  0  0  0  0  0  0  0  0
    9.1271   -3.0567    0.0000 C   0  0  0  0  0  0  0  0  0  0  0  0
    6.0682    3.0567    0.0000 C   0  0  0  0  0  0  0  0  0  0  0  0
    7.3952   -0.0567    0.0000 C   0  0  0  0  0  0  0  0  0  0  0  0
    8.2611    0.4433    0.0000 C   0  0  0  0  0  0  0  0  0  0  0  0
    9.9932   -2.5567    0.0000 C   0  0  0  0  0  0  0  0  0  0  0  0
    5.2022    2.5567    0.0000 C   0  0  0  0  0  0  0  0  0  0  0  0
    9.9932   -1.5567    0.0000 C   0  0  0  0  0  0  0  0  0  0  0  0
    5.2022    1.5567    0.0000 C   0  0  0  0  0  0  0  0  0  0  0  0
    6.5292   -1.5567    0.0000 C   0  0  0  0  0  0  0  0  0  0  0  0
    8.5619    2.1491    0.0000 C   0  0  0  0  0  0  0  0  0  0  0  0
    6.5291    0.4434    0.0000 C   0  0  0  0  0  0  0  0  0  0  0  0
    9.2459    0.2697    0.0000 C   0  0  0  0  0  0  0  0  0  0  0  0
   10.8871   -3.0913    0.0000 C   0  0  0  0  0  0  0  0  0  0  0  0
    4.3083    3.0913    0.0000 C   0  0  0  0  0  0  0  0  0  0  0  0
    5.6631   -1.0567    0.0000 C   0  0  0  0  0  0  0  0  0  0  0  0
    9.5467    1.9754    0.0000 C   0  0  0  0  0  0  0  0  0  0  0  0
    5.6630   -0.0566    0.0000 C   0  0  0  0  0  0  0  0  0  0  0  0
    9.8887    1.0357    0.0000 C   0  0  0  0  0  0  0  0  0  0  0  0
   10.8871   -1.0220    0.0000 C   0  0  0  0  0  0  0  0  0  0  0  0
    4.3083    1.0220    0.0000 C   0  0  0  0  0  0  0  0  0  0  0  0
   11.7932   -2.5775    0.0000 C   0  0  0  0  0  0  0  0  0  0  0  0
    3.4022    2.5775    0.0000 C   0  0  0  0  0  0  0  0  0  0  0  0
   11.7932   -1.5358    0.0000 C   0  0  0  0  0  0  0  0  0  0  0  0
    3.4022    1.5359    0.0000 C   0  0  0  0  0  0  0  0  0  0  0  0
    7.3952   -4.0567    0.0000 C   0  0  0  0  0  0  0  0  0  0  0  0
    7.8003    4.0567    0.0000 C   0  0  0  0  0  0  0  0  0  0  0  0
    6.5291   -4.5567    0.0000 C   0  0  0  0  0  0  0  0  0  0  0  0
    8.6663    4.5567    0.0000 C   0  0  0  0  0  0  0  0  0  0  0  0
    5.6632   -4.0567    0.0000 C   0  0  0  0  0  0  0  0  0  0  0  0
    8.6663    5.5567    0.0000 C   0  0  0  0  0  0  0  0  0  0  0  0
    6.5291   -5.5567    0.0000 C   0  0  0  0  0  0  0  0  0  0  0  0
    9.5323    4.0567    0.0000 C   0  0  0  0  0  0  0  0  0  0  0  0
    5.6632   -6.0567    0.0000 C   0  0  0  0  0  0  0  0  0  0  0  0
   10.3984    4.5567    0.0000 C   0  0  0  0  0  0  0  0  0  0  0  0
    4.7971   -4.5567    0.0000 C   0  0  0  0  0  0  0  0  0  0  0  0
    9.5323    6.0567    0.0000 C   0  0  0  0  0  0  0  0  0  0  0  0
    4.7971   -5.5567    0.0000 C   0  0  0  0  0  0  0  0  0  0  0  0
   10.3984    5.5567    0.0000 C   0  0  0  0  0  0  0  0  0  0  0  0
    8.2611   -0.7067    0.0000 H   0  0  0  0  0  0  0  0  0  0  0  0
    7.0819    0.7196    0.0000 H   0  0  0  0  0  0  0  0  0  0  0  0
    7.7242   -2.2467    0.0000 H   0  0  0  0  0  0  0  0  0  0  0  0
    6.9343    3.1767    0.0000 H   0  0  0  0  0  0  0  0  0  0  0  0
    8.7286   -3.5316    0.0000 H   0  0  0  0  0  0  0  0  0  0  0  0
    9.5257   -3.5316    0.0000 H   0  0  0  0  0  0  0  0  0  0  0  0
    6.4668    3.5316    0.0000 H   0  0  0  0  0  0  0  0  0  0  0  0
    5.6697    3.5316    0.0000 H   0  0  0  0  0  0  0  0  0  0  0  0
    6.5292   -2.1767    0.0000 H   0  0  0  0  0  0  0  0  0  0  0  0
    8.3498    2.7317    0.0000 H   0  0  0  0  0  0  0  0  0  0  0  0
   10.8799   -0.4020    0.0000 H   0  0  0  0  0  0  0  0  0  0  0  0
    4.3154    0.4021    0.0000 H   0  0  0  0  0  0  0  0  0  0  0  0
   12.3289   -2.8896    0.0000 H   0  0  0  0  0  0  0  0  0  0  0  0
    2.8665    2.8896    0.0000 H   0  0  0  0  0  0  0  0  0  0  0  0
    5.9921    1.7534    0.0000 H   0  0  0  0  0  0  0  0  0  0  0  0
   10.1985   -0.7777    0.0000 H   0  0  0  0  0  0  0  0  0  0  0  0
   11.4089   -4.4074    0.0000 H   0  0  0  0  0  0  0  0  0  0  0  0
    3.7865    4.4075    0.0000 H   0  0  0  0  0  0  0  0  0  0  0  0
    4.7970   -2.1767    0.0000 H   0  0  0  0  0  0  0  0  0  0  0  0
    9.9774    3.3241    0.0000 H   0  0  0  0  0  0  0  0  0  0  0  0
    4.2600    0.1334    0.0000 H   0  0  0  0  0  0  0  0  0  0  0  0
   11.2720    1.3370    0.0000 H   0  0  0  0  0  0  0  0  0  0  0  0
   13.1954   -1.3404    0.0000 H   0  0  0  0  0  0  0  0  0  0  0  0
    2.0000    1.3404    0.0000 H   0  0  0  0  0  0  0  0  0  0  0  0
    5.6632   -3.4367    0.0000 H   0  0  0  0  0  0  0  0  0  0  0  0
    8.1294    5.8667    0.0000 H   0  0  0  0  0  0  0  0  0  0  0  0
    7.0661   -5.8666    0.0000 H   0  0  0  0  0  0  0  0  0  0  0  0
    9.5323    3.4367    0.0000 H   0  0  0  0  0  0  0  0  0  0  0  0
    6.2000   -7.3667    0.0000 H   0  0  0  0  0  0  0  0  0  0  0  0
   11.8013    4.3667    0.0000 H   0  0  0  0  0  0  0  0  0  0  0  0
    3.3941   -4.3667    0.0000 H   0  0  0  0  0  0  0  0  0  0  0  0
    8.9954    7.3667    0.0000 H   0  0  0  0  0  0  0  0  0  0  0  0
    3.9311   -6.6767    0.0000 H   0  0  0  0  0  0  0  0  0  0  0  0
   11.2644    6.6767    0.0000 H   0  0  0  0  0  0  0  0  0  0  0  0
  1 23  1  0  0  0  0
  1 35  1  0  0  0  0
  2 24  1  0  0  0  0
  2 36  1  0  0  0  0
 25  3  1  1  0  0  0
  3 53  1  0  0  0  0
 26  4  1  1  0  0  0
  4 54  1  0  0  0  0
  5 39  1  0  0  0  0
  5 81  1  0  0  0  0
  6 40  1  0  0  0  0
  6 82  1  0  0  0  0
  7 41  1  0  0  0  0
  7 83  1  0  0  0  0
  8 42  1  0  0  0  0
  8 84  1  0  0  0  0
  9 43  1  0  0  0  0
  9 85  1  0  0  0  0
 10 44  1  0  0  0  0
 10 86  1  0  0  0  0
 11 45  1  0  0  0  0
 11 87  1  0  0  0  0
 12 46  1  0  0  0  0
 12 88  1  0  0  0  0
 13 51  1  0  0  0  0
 13 89  1  0  0  0  0
 14 52  1  0  0  0  0
 14 90  1  0  0  0  0
 15 53  2  0  0  0  0
 16 54  2  0  0  0  0
 17 61  1  0  0  0  0
 17 95  1  0  0  0  0
 18 62  1  0  0  0  0
 18 96  1  0  0  0  0
 19 63  1  0  0  0  0
 19 97  1  0  0  0  0
 20 64  1  0  0  0  0
 20 98  1  0  0  0  0
 21 65  1  0  0  0  0
 21 99  1  0  0  0  0
 22 66  1  0  0  0  0
 22100  1  0  0  0  0
 23 25  1  0  0  0  0
 23 27  1  0  0  0  0
 23 67  1  6  0  0  0
 24 26  1  0  0  0  0
 24 28  1  0  0  0  0
 24 68  1  6  0  0  0
 25 29  1  0  0  0  0
 25 69  1  0  0  0  0
 26 30  1  0  0  0  0
 26 70  1  0  0  0  0
 27 31  1  0  0  0  0
 27 37  2  0  0  0  0
 28 32  1  0  0  0  0
 28 38  2  0  0  0  0
 29 33  1  0  0  0  0
 29 71  1  0  0  0  0
 29 72  1  0  0  0  0
 30 34  1  0  0  0  0
 30 73  1  0  0  0  0
 30 74  1  0  0  0  0
 31 32  1  0  0  0  0
 31 39  2  0  0  0  0
 32 40  2  0  0  0  0
 33 35  1  0  0  0  0
 33 41  2  0  0  0  0
 34 36  1  0  0  0  0
 34 42  2  0  0  0  0
 35 47  2  0  0  0  0
 36 48  2  0  0  0  0
 37 43  1  0  0  0  0
 37 75  1  0  0  0  0
 38 44  1  0  0  0  0
 38 76  1  0  0  0  0
 39 45  1  0  0  0  0
 40 46  1  0  0  0  0
 41 49  1  0  0  0  0
 42 50  1  0  0  0  0
 43 45  2  0  0  0  0
 44 46  2  0  0  0  0
 47 51  1  0  0  0  0
 47 77  1  0  0  0  0
 48 52  1  0  0  0  0
 48 78  1  0  0  0  0
 49 51  2  0  0  0  0
 49 79  1  0  0  0  0
 50 52  2  0  0  0  0
 50 80  1  0  0  0  0
 53 55  1  0  0  0  0
 54 56  1  0  0  0  0
 55 57  2  0  0  0  0
 55 59  1  0  0  0  0
 56 58  2  0  0  0  0
 56 60  1  0  0  0  0
 57 63  1  0  0  0  0
 57 91  1  0  0  0  0
 58 64  1  0  0  0  0
 58 92  1  0  0  0  0
 59 61  2  0  0  0  0
 59 93  1  0  0  0  0
 60 62  2  0  0  0  0
 60 94  1  0  0  0  0
 61 65  1  0  0  0  0
 62 66  1  0  0  0  0
 63 65  2  0  0  0  0
 64 66  2  0  0  0  0
M  END
> <PUBCHEM_COMPOUND_CID>
442543

> <PUBCHEM_COMPOUND_CANONICALIZED>
1

> <PUBCHEM_CACTVS_COMPLEXITY>
1530

> <PUBCHEM_CACTVS_HBOND_ACCEPTOR>
22

> <PUBCHEM_CACTVS_HBOND_DONOR>
16

> <PUBCHEM_CACTVS_ROTATABLE_BOND>
9

> <PUBCHEM_CACTVS_SUBSKEYS>
AAADcfB8PgAAAAAAAAAAAAAAAAAAAAAAAAA0aMGDAAAAAACRVAAAGgAACAAADBSgmAIwDoAABgCIAiDSCAACCAAkIAAAiAEGiMgNJzKGNRqCeSGlwBULuYfK7PzOoAABCAAYQABAAAIQADCAAAAAAAAAAA==

> <PUBCHEM_IUPAC_OPENEYE_NAME>
[(2R,3R)-2-[2-[6-[(2R,3R)-5,7-dihydroxy-3-(3,4,5-trihydroxybenzoyl)oxy-chroman-2-yl]-2,3,4-trihydroxy-phenyl]-3,4,5-trihydroxy-phenyl]-5,7-dihydroxy-chroman-3-yl] 3,4,5-trihydroxybenzoate

> <PUBCHEM_IUPAC_CAS_NAME>
3,4,5-trihydroxybenzoic acid [(2R,3R)-2-[2-[6-[(2R,3R)-5,7-dihydroxy-3-[oxo-(3,4,5-trihydroxyphenyl)methoxy]-3,4-dihydro-2H-1-benzopyran-2-yl]-2,3,4-trihydroxyphenyl]-3,4,5-trihydroxyphenyl]-5,7-dihydroxy-3,4-dihydro-2H-1-benzopyran-3-yl] ester

> <PUBCHEM_IUPAC_NAME_MARKUP>
[(2<I>R</I>,3<I>R</I>)-2-[2-[6-[(2<I>R</I>,3<I>R</I>)-5,7-dihydroxy-3-(3,4,5-trihydroxybenzoyl)oxy-3,4-dihydro-2<I>H</I>-chromen-2-yl]-2,3,4-trihydroxyphenyl]-3,4,5-trihydroxyphenyl]-5,7-dihydroxy-3,4-dihydro-2<I>H</I>-chromen-3-yl] 3,4,5-trihydroxybenzoate

> <PUBCHEM_IUPAC_NAME>
[(2R,3R)-2-[2-[6-[(2R,3R)-5,7-dihydroxy-3-(3,4,5-trihydroxybenzoyl)oxy-3,4-dihydro-2H-chromen-2-yl]-2,3,4-trihydroxyphenyl]-3,4,5-trihydroxyphenyl]-5,7-dihydroxy-3,4-dihydro-2H-chromen-3-yl] 3,4,5-trihydroxybenzoate

> <PUBCHEM_IUPAC_SYSTEMATIC_NAME>
[(2R,3R)-2-[2-[6-[(2R,3R)-5,7-bis(oxidanyl)-3-[3,4,5-tris(oxidanyl)phenyl]carbonyloxy-3,4-dihydro-2H-chromen-2-yl]-2,3,4-tris(oxidanyl)phenyl]-3,4,5-tris(oxidanyl)phenyl]-5,7-bis(oxidanyl)-3,4-dihydro-2H-chromen-3-yl] 3,4,5-tris(oxidanyl)benzoate

> <PUBCHEM_IUPAC_TRADITIONAL_NAME>
3,4,5-trihydroxybenzoic acid [(2R,3R)-2-[2-[6-[(2R,3R)-3-galloyloxy-5,7-dihydroxy-chroman-2-yl]-2,3,4-trihydroxy-phenyl]-3,4,5-trihydroxy-phenyl]-5,7-dihydroxy-chroman-3-yl] ester

> <PUBCHEM_IUPAC_INCHI>
InChI=1S/C44H34O22/c45-15-5-21(47)17-11-31(65-43(61)13-1-23(49)35(55)24(50)2-13)41(63-29(17)7-15)19-9-27(53)37(57)39(59)33(19)34-20(10-28(54)38(58)40(34)60)42-32(12-18-22(48)6-16(46)8-30(18)64-42)66-44(62)14-3-25(51)36(56)26(52)4-14/h1-10,31-32,41-42,45-60H,11-12H2/t31-,32-,41-,42-/m1/s1

> <PUBCHEM_IUPAC_INCHIKEY>
YUULFXAQUWEYNP-GXAWFILRSA-N

> <PUBCHEM_XLOGP3_AA>
4.2

> <PUBCHEM_EXACT_MASS>
914.154173

> <PUBCHEM_MOLECULAR_FORMULA>
C44H34O22

> <PUBCHEM_MOLECULAR_WEIGHT>
914.7

> <PUBCHEM_OPENEYE_CAN_SMILES>
C1C(C(OC2=CC(=CC(=C21)O)O)C3=CC(=C(C(=C3C4=C(C(=C(C=C4C5C(CC6=C(C=C(C=C6O5)O)O)OC(=O)C7=CC(=C(C(=C7)O)O)O)O)O)O)O)O)O)OC(=O)C8=CC(=C(C(=C8)O)O)O

> <PUBCHEM_OPENEYE_ISO_SMILES>
C1[C@H]([C@H](OC2=CC(=CC(=C21)O)O)C3=CC(=C(C(=C3C4=C(C(=C(C=C4[C@@H]5[C@@H](CC6=C(C=C(C=C6O5)O)O)OC(=O)C7=CC(=C(C(=C7)O)O)O)O)O)O)O)O)O)OC(=O)C8=CC(=C(C(=C8)O)O)O

> <PUBCHEM_CACTVS_TPSA>
395

> <PUBCHEM_MONOISOTOPIC_WEIGHT>
914.154173

> <PUBCHEM_TOTAL_CHARGE>
0

> <PUBCHEM_HEAVY_ATOM_COUNT>
66

> <PUBCHEM_ATOM_DEF_STEREO_COUNT>
4

> <PUBCHEM_ATOM_UDEF_STEREO_COUNT>
0

> <PUBCHEM_BOND_DEF_STEREO_COUNT>
0

> <PUBCHEM_BOND_UDEF_STEREO_COUNT>
0

> <PUBCHEM_ISOTOPIC_ATOM_COUNT>
0

> <PUBCHEM_COMPONENT_COUNT>
1

> <PUBCHEM_CACTVS_TAUTO_COUNT>
-1

> <PUBCHEM_COORDINATE_TYPE>
1
5
255

> <PUBCHEM_BONDANNOTATIONS>
23  67  6
24  68  6
27  31  8
27  37  8
28  32  8
28  38  8
25  3  5
31  39  8
32  40  8
33  35  8
33  41  8
34  36  8
34  42  8
35  47  8
36  48  8
37  43  8
38  44  8
39  45  8
26  4  5
40  46  8
41  49  8
42  50  8
43  45  8
44  46  8
47  51  8
48  52  8
49  51  8
50  52  8
55  57  8
55  59  8
56  58  8
56  60  8
57  63  8
58  64  8
59  61  8
60  62  8
61  65  8
62  66  8
63  65  8
64  66  8

$$$$
