101760032
  -OEChem-09092002133D

 58 61  0     1  0  0  0  0  0999 V2000
    1.7938   -2.5398    0.8162 O   0  0  0  0  0  0  0  0  0  0  0  0
    2.4584    2.2534    0.4169 O   0  0  0  0  0  0  0  0  0  0  0  0
   -0.1928    2.5627   -0.3810 O   0  0  0  0  0  0  0  0  0  0  0  0
    4.5627    1.2077   -1.4295 O   0  0  0  0  0  0  0  0  0  0  0  0
   -6.5004    0.3480   -0.4612 O   0  0  0  0  0  0  0  0  0  0  0  0
    1.3633   -1.3715    0.0956 C   0  0  2  0  0  0  0  0  0  0  0  0
    2.2738   -0.1783    0.4964 C   0  0  2  0  0  0  0  0  0  0  0  0
   -0.1412   -1.1499    0.3978 C   0  0  1  0  0  0  0  0  0  0  0  0
   -0.7082    0.2041   -0.1067 C   0  0  1  0  0  0  0  0  0  0  0  0
    1.6966    1.1451   -0.0773 C   0  0  1  0  0  0  0  0  0  0  0  0
   -2.2392    0.3948    0.3330 C   0  0  2  0  0  0  0  0  0  0  0  0
    3.6135   -0.5907   -0.1827 C   0  0  1  0  0  0  0  0  0  0  0  0
    0.2259    1.3762    0.2952 C   0  0  1  0  0  0  0  0  0  0  0  0
    1.7198   -1.5899   -1.3870 C   0  0  0  0  0  0  0  0  0  0  0  0
    3.2137   -1.2658   -1.5002 C   0  0  0  0  0  0  0  0  0  0  0  0
   -0.9885   -2.3209   -0.1392 C   0  0  0  0  0  0  0  0  0  0  0  0
    2.4818   -0.0762    2.0231 C   0  0  0  0  0  0  0  0  0  0  0  0
   -3.0368   -0.9091    0.1753 C   0  0  0  0  0  0  0  0  0  0  0  0
   -2.9092    1.4805   -0.5676 C   0  0  0  0  0  0  0  0  0  0  0  0
   -2.4586   -2.0984   -0.0507 C   0  0  0  0  0  0  0  0  0  0  0  0
   -2.3368    0.8345    1.8144 C   0  0  0  0  0  0  0  0  0  0  0  0
   -4.5435   -0.8249    0.2639 C   0  0  0  0  0  0  0  0  0  0  0  0
    4.5865    0.5263   -0.4057 C   0  0  0  0  0  0  0  0  0  0  0  0
   -4.4305    1.5778   -0.4405 C   0  0  0  0  0  0  0  0  0  0  0  0
   -5.0990    0.2312   -0.6824 C   0  0  2  0  0  0  0  0  0  0  0  0
    5.5948    0.7733    0.6838 C   0  0  0  0  0  0  0  0  0  0  0  0
   -0.2465   -1.1702    1.4919 H   0  0  0  0  0  0  0  0  0  0  0  0
   -0.7134    0.1613   -1.2065 H   0  0  0  0  0  0  0  0  0  0  0  0
    1.7981    1.1791   -1.1680 H   0  0  0  0  0  0  0  0  0  0  0  0
    4.1225   -1.3546    0.4214 H   0  0  0  0  0  0  0  0  0  0  0  0
    0.1552    1.5847    1.3664 H   0  0  0  0  0  0  0  0  0  0  0  0
    1.1552   -0.9205   -2.0445 H   0  0  0  0  0  0  0  0  0  0  0  0
    1.5373   -2.6171   -1.7210 H   0  0  0  0  0  0  0  0  0  0  0  0
    3.7908   -2.1894   -1.6308 H   0  0  0  0  0  0  0  0  0  0  0  0
    3.3947   -0.6597   -2.3938 H   0  0  0  0  0  0  0  0  0  0  0  0
   -0.7515   -3.2291    0.4275 H   0  0  0  0  0  0  0  0  0  0  0  0
   -0.7543   -2.5292   -1.1888 H   0  0  0  0  0  0  0  0  0  0  0  0
    3.1472    0.7437    2.3033 H   0  0  0  0  0  0  0  0  0  0  0  0
    2.9254   -0.9904    2.4332 H   0  0  0  0  0  0  0  0  0  0  0  0
    1.5327    0.0810    2.5452 H   0  0  0  0  0  0  0  0  0  0  0  0
   -2.6684    1.2817   -1.6206 H   0  0  0  0  0  0  0  0  0  0  0  0
   -2.5136    2.4737   -0.3356 H   0  0  0  0  0  0  0  0  0  0  0  0
   -3.0788   -2.9822   -0.1804 H   0  0  0  0  0  0  0  0  0  0  0  0
   -1.9304    1.8401    1.9640 H   0  0  0  0  0  0  0  0  0  0  0  0
   -1.7967    0.1497    2.4764 H   0  0  0  0  0  0  0  0  0  0  0  0
   -3.3706    0.8715    2.1736 H   0  0  0  0  0  0  0  0  0  0  0  0
    1.4143   -3.3243    0.3868 H   0  0  0  0  0  0  0  0  0  0  0  0
   -5.0189   -1.7878    0.0348 H   0  0  0  0  0  0  0  0  0  0  0  0
   -4.8442   -0.6046    1.2958 H   0  0  0  0  0  0  0  0  0  0  0  0
   -4.7099    1.9660    0.5469 H   0  0  0  0  0  0  0  0  0  0  0  0
   -4.8140    2.3131   -1.1589 H   0  0  0  0  0  0  0  0  0  0  0  0
   -4.9490   -0.0835   -1.7224 H   0  0  0  0  0  0  0  0  0  0  0  0
    2.1773    2.4439    1.3273 H   0  0  0  0  0  0  0  0  0  0  0  0
   -0.1378    2.3993   -1.3381 H   0  0  0  0  0  0  0  0  0  0  0  0
    5.9976   -0.1734    1.0522 H   0  0  0  0  0  0  0  0  0  0  0  0
    5.1392    1.3347    1.5004 H   0  0  0  0  0  0  0  0  0  0  0  0
    6.4264    1.3565    0.2771 H   0  0  0  0  0  0  0  0  0  0  0  0
   -6.8379    1.0252   -1.0721 H   0  0  0  0  0  0  0  0  0  0  0  0
  1  6  1  0  0  0  0
  1 47  1  0  0  0  0
  2 10  1  0  0  0  0
  2 53  1  0  0  0  0
  3 13  1  0  0  0  0
  3 54  1  0  0  0  0
  4 23  2  0  0  0  0
  5 25  1  0  0  0  0
  5 58  1  0  0  0  0
  6  7  1  0  0  0  0
  6  8  1  0  0  0  0
  6 14  1  0  0  0  0
  7 10  1  0  0  0  0
  7 12  1  0  0  0  0
  7 17  1  0  0  0  0
  8  9  1  0  0  0  0
  8 16  1  0  0  0  0
  8 27  1  0  0  0  0
  9 11  1  0  0  0  0
  9 13  1  0  0  0  0
  9 28  1  0  0  0  0
 10 13  1  0  0  0  0
 10 29  1  0  0  0  0
 11 18  1  0  0  0  0
 11 19  1  0  0  0  0
 11 21  1  0  0  0  0
 12 15  1  0  0  0  0
 12 23  1  0  0  0  0
 12 30  1  0  0  0  0
 13 31  1  0  0  0  0
 14 15  1  0  0  0  0
 14 32  1  0  0  0  0
 14 33  1  0  0  0  0
 15 34  1  0  0  0  0
 15 35  1  0  0  0  0
 16 20  1  0  0  0  0
 16 36  1  0  0  0  0
 16 37  1  0  0  0  0
 17 38  1  0  0  0  0
 17 39  1  0  0  0  0
 17 40  1  0  0  0  0
 18 20  2  0  0  0  0
 18 22  1  0  0  0  0
 19 24  1  0  0  0  0
 19 41  1  0  0  0  0
 19 42  1  0  0  0  0
 20 43  1  0  0  0  0
 21 44  1  0  0  0  0
 21 45  1  0  0  0  0
 21 46  1  0  0  0  0
 22 25  1  0  0  0  0
 22 48  1  0  0  0  0
 22 49  1  0  0  0  0
 23 26  1  0  0  0  0
 24 25  1  0  0  0  0
 24 50  1  0  0  0  0
 24 51  1  0  0  0  0
 25 52  1  0  0  0  0
 26 55  1  0  0  0  0
 26 56  1  0  0  0  0
 26 57  1  0  0  0  0
M  END
> <PUBCHEM_COMPOUND_CID>
101760032

> <PUBCHEM_CONFORMER_RMSD>
0.6

> <PUBCHEM_CONFORMER_DIVERSEORDER>
1
2

> <PUBCHEM_MMFF94_PARTIAL_CHARGES>
22
1 -0.68
10 0.28
11 0.14
12 0.06
13 0.28
16 0.14
18 -0.28
2 -0.68
20 -0.29
22 0.14
23 0.45
25 0.28
26 0.06
3 -0.68
4 -0.57
43 0.15
47 0.4
5 -0.68
53 0.4
54 0.4
58 0.4
6 0.28

> <PUBCHEM_EFFECTIVE_ROTOR_COUNT>
3

> <PUBCHEM_PHARMACOPHORE_FEATURES>
13
1 1 acceptor
1 1 donor
1 2 acceptor
1 2 donor
1 3 acceptor
1 3 donor
1 4 acceptor
1 5 acceptor
1 5 donor
5 6 7 12 14 15 rings
6 11 18 19 22 24 25 rings
6 6 7 8 9 10 13 rings
6 8 9 11 16 18 20 rings

> <PUBCHEM_HEAVY_ATOM_COUNT>
26

> <PUBCHEM_ATOM_DEF_STEREO_COUNT>
9

> <PUBCHEM_ATOM_UDEF_STEREO_COUNT>
0

> <PUBCHEM_BOND_DEF_STEREO_COUNT>
0

> <PUBCHEM_BOND_UDEF_STEREO_COUNT>
0

> <PUBCHEM_ISOTOPIC_ATOM_COUNT>
0

> <PUBCHEM_COMPONENT_COUNT>
1

> <PUBCHEM_CACTVS_TAUTO_COUNT>
3

> <PUBCHEM_CONFORMER_ID>
0610BC2000000001

> <PUBCHEM_MMFF94_ENERGY>
92.5573

> <PUBCHEM_FEATURE_SELFOVERLAP>
66.168

> <PUBCHEM_SHAPE_FINGERPRINT>
10366900 7 17346598581796419883
10498660 4 18408889498988568092
10759866 29 18113898238881020570
10863032 1 18131080311831616686
10906281 52 18338252521265969569
10967382 1 18410291380856979931
11112241 14 16628252567136604128
11578080 2 17024854979835162006
12011746 2 18343023289291614550
12236239 1 17530962505857154786
12403814 3 17385437717819668143
12788726 201 18129659686794880593
12838862 33 18338214038448934485
13140716 1 18267297810711165408
13224815 77 18343584010188735587
13402501 40 18411135840073081821
13533116 47 17418094270038137567
13583140 156 17240489112804680689
14790565 3 18335708251307003244
15196674 1 18410293575421770343
15238133 3 15864073126440697230
15375358 24 18342176665517717854
15635459 17 18272374139594854023
15788980 27 17603870000913616448
1601671 61 18410855464592077108
16945 1 18338516344232899498
17349148 13 18202275901448171177
17492 54 18263944257639835980
18186145 218 18271806762141924155
18608769 82 18335706096161660203
19862831 5 18273215279291579799
200 152 17704069590917248685
20691752 17 18117578257038456024
20715895 44 17610325061898078349
21033648 29 17988912371606698273
21033650 10 17387990676287198989
21267235 1 18411144653683557219
21285901 2 18339364058939442045
21421861 104 17751068120662088858
22182313 1 18270420358988150014
22393880 68 18411134770594375287
23227448 37 18339923830748900327
23402539 116 18411131476803008022
23559900 14 18059006310581041409
2748010 2 18340491161247125370
2871803 45 18411141303281823926
296302 2 17240203231249260443
3004659 81 18261956250427726078
335352 9 18410571807639962222
34797466 226 16630529561312849168
34934 24 18410569591426709886
350125 39 18410579517750070345
3545911 37 18272089413406897883
3680242 22 18262236616706444642
4072396 5 18336816542512115954
4280585 95 17551243869789836670
474 4 17023477463727832556
495365 180 17417798587124696786
5104073 3 18337113362895370299
59755656 215 18412826888893167956
9709674 26 18340487876167051015

> <PUBCHEM_SHAPE_MULTIPOLES>
505.72
10.71
2.34
1.26
4.55
0.28
0.25
-2.67
-1.81
-0.08
-0.17
-0.75
0.01
0.39

> <PUBCHEM_SHAPE_SELFOVERLAP>
1084.439

> <PUBCHEM_SHAPE_VOLUME>
275.7

> <PUBCHEM_COORDINATE_TYPE>
2
5
10

$$$$
