102117168
  -OEChem-09092002113D

 60 63  0     1  0  0  0  0  0999 V2000
   -2.1256   -1.9356   -0.7213 O   0  0  0  0  0  0  0  0  0  0  0  0
   -1.9987    2.9014   -0.1603 O   0  0  0  0  0  0  0  0  0  0  0  0
    0.6566    2.7564    0.5723 O   0  0  0  0  0  0  0  0  0  0  0  0
   -4.7055   -1.5622   -0.5041 O   0  0  0  0  0  0  0  0  0  0  0  0
    6.5530   -0.3925    0.2931 O   0  0  0  0  0  0  0  0  0  0  0  0
   -2.2335    0.4588   -0.3098 C   0  0  1  0  0  0  0  0  0  0  0  0
   -1.5008   -0.8723    0.0163 C   0  0  2  0  0  0  0  0  0  0  0  0
    0.0097   -0.8697   -0.3408 C   0  0  1  0  0  0  0  0  0  0  0  0
    0.7983    0.3591    0.1859 C   0  0  1  0  0  0  0  0  0  0  0  0
   -3.5849    0.3197    0.4817 C   0  0  2  0  0  0  0  0  0  0  0  0
   -1.4320    1.6585    0.2777 C   0  0  1  0  0  0  0  0  0  0  0  0
    2.3228    0.3314   -0.3125 C   0  0  2  0  0  0  0  0  0  0  0  0
    0.0446    1.6753   -0.1348 C   0  0  1  0  0  0  0  0  0  0  0  0
   -1.8283   -1.0835    1.5017 C   0  0  0  0  0  0  0  0  0  0  0  0
   -3.2895   -0.6599    1.6374 C   0  0  0  0  0  0  0  0  0  0  0  0
    0.6868   -2.1773    0.1185 C   0  0  0  0  0  0  0  0  0  0  0  0
   -2.4442    0.6558   -1.8267 C   0  0  0  0  0  0  0  0  0  0  0  0
    2.9156   -1.0837   -0.2331 C   0  0  0  0  0  0  0  0  0  0  0  0
    3.1843    1.2663    0.5941 C   0  0  0  0  0  0  0  0  0  0  0  0
   -4.8007   -0.1566   -0.3172 C   0  0  2  0  0  0  0  0  0  0  0  0
    2.1693   -2.1789   -0.0249 C   0  0  0  0  0  0  0  0  0  0  0  0
    2.4327    0.8088   -1.7815 C   0  0  0  0  0  0  0  0  0  0  0  0
    4.4130   -1.2268   -0.3819 C   0  0  0  0  0  0  0  0  0  0  0  0
    4.6966    1.1368    0.4039 C   0  0  0  0  0  0  0  0  0  0  0  0
    5.1598   -0.3040    0.5722 C   0  0  2  0  0  0  0  0  0  0  0  0
   -6.0996    0.1747    0.3941 C   0  0  0  0  0  0  0  0  0  0  0  0
    0.0704   -0.8612   -1.4384 H   0  0  0  0  0  0  0  0  0  0  0  0
    0.8369    0.2702    1.2823 H   0  0  0  0  0  0  0  0  0  0  0  0
   -3.8464    1.2947    0.9100 H   0  0  0  0  0  0  0  0  0  0  0  0
   -1.4917    1.6750    1.3730 H   0  0  0  0  0  0  0  0  0  0  0  0
    0.1128    1.9239   -1.1973 H   0  0  0  0  0  0  0  0  0  0  0  0
   -1.2004   -0.4693    2.1550 H   0  0  0  0  0  0  0  0  0  0  0  0
   -1.7199   -2.1263    1.8186 H   0  0  0  0  0  0  0  0  0  0  0  0
   -3.9375   -1.5414    1.6642 H   0  0  0  0  0  0  0  0  0  0  0  0
   -3.4357   -0.1579    2.6016 H   0  0  0  0  0  0  0  0  0  0  0  0
    0.2912   -3.0151   -0.4676 H   0  0  0  0  0  0  0  0  0  0  0  0
    0.4643   -2.3892    1.1698 H   0  0  0  0  0  0  0  0  0  0  0  0
   -1.4906    0.7842   -2.3489 H   0  0  0  0  0  0  0  0  0  0  0  0
   -3.0508    1.5433   -2.0368 H   0  0  0  0  0  0  0  0  0  0  0  0
   -2.9348   -0.2009   -2.2994 H   0  0  0  0  0  0  0  0  0  0  0  0
    2.9561    1.0645    1.6493 H   0  0  0  0  0  0  0  0  0  0  0  0
    2.9362    2.3164    0.4130 H   0  0  0  0  0  0  0  0  0  0  0  0
   -4.8545    0.3198   -1.2993 H   0  0  0  0  0  0  0  0  0  0  0  0
    2.6499   -3.1517    0.0477 H   0  0  0  0  0  0  0  0  0  0  0  0
   -1.8662   -2.7823   -0.3217 H   0  0  0  0  0  0  0  0  0  0  0  0
    2.1830    1.8703   -1.8801 H   0  0  0  0  0  0  0  0  0  0  0  0
    1.7679    0.2425   -2.4421 H   0  0  0  0  0  0  0  0  0  0  0  0
    3.4453    0.6997   -2.1835 H   0  0  0  0  0  0  0  0  0  0  0  0
    4.7427   -2.2588   -0.2035 H   0  0  0  0  0  0  0  0  0  0  0  0
    4.7058   -1.0165   -1.4182 H   0  0  0  0  0  0  0  0  0  0  0  0
    4.9942    1.5164   -0.5816 H   0  0  0  0  0  0  0  0  0  0  0  0
    5.2152    1.7769    1.1285 H   0  0  0  0  0  0  0  0  0  0  0  0
   -2.9000    2.9678    0.1944 H   0  0  0  0  0  0  0  0  0  0  0  0
    5.0038   -0.6322    1.6072 H   0  0  0  0  0  0  0  0  0  0  0  0
    0.6132    2.5571    1.5232 H   0  0  0  0  0  0  0  0  0  0  0  0
   -6.1607   -0.3219    1.3685 H   0  0  0  0  0  0  0  0  0  0  0  0
   -6.9561   -0.1833   -0.1881 H   0  0  0  0  0  0  0  0  0  0  0  0
   -6.2129    1.2531    0.5423 H   0  0  0  0  0  0  0  0  0  0  0  0
   -5.4821   -1.8453   -1.0160 H   0  0  0  0  0  0  0  0  0  0  0  0
    7.0136    0.2016    0.9100 H   0  0  0  0  0  0  0  0  0  0  0  0
  1  7  1  0  0  0  0
  1 45  1  0  0  0  0
  2 11  1  0  0  0  0
  2 53  1  0  0  0  0
  3 13  1  0  0  0  0
  3 55  1  0  0  0  0
  4 20  1  0  0  0  0
  4 59  1  0  0  0  0
  5 25  1  0  0  0  0
  5 60  1  0  0  0  0
  6  7  1  0  0  0  0
  6 10  1  0  0  0  0
  6 11  1  0  0  0  0
  6 17  1  0  0  0  0
  7  8  1  0  0  0  0
  7 14  1  0  0  0  0
  8  9  1  0  0  0  0
  8 16  1  0  0  0  0
  8 27  1  0  0  0  0
  9 12  1  0  0  0  0
  9 13  1  0  0  0  0
  9 28  1  0  0  0  0
 10 15  1  0  0  0  0
 10 20  1  0  0  0  0
 10 29  1  0  0  0  0
 11 13  1  0  0  0  0
 11 30  1  0  0  0  0
 12 18  1  0  0  0  0
 12 19  1  0  0  0  0
 12 22  1  0  0  0  0
 13 31  1  0  0  0  0
 14 15  1  0  0  0  0
 14 32  1  0  0  0  0
 14 33  1  0  0  0  0
 15 34  1  0  0  0  0
 15 35  1  0  0  0  0
 16 21  1  0  0  0  0
 16 36  1  0  0  0  0
 16 37  1  0  0  0  0
 17 38  1  0  0  0  0
 17 39  1  0  0  0  0
 17 40  1  0  0  0  0
 18 21  2  0  0  0  0
 18 23  1  0  0  0  0
 19 24  1  0  0  0  0
 19 41  1  0  0  0  0
 19 42  1  0  0  0  0
 20 26  1  0  0  0  0
 20 43  1  0  0  0  0
 21 44  1  0  0  0  0
 22 46  1  0  0  0  0
 22 47  1  0  0  0  0
 22 48  1  0  0  0  0
 23 25  1  0  0  0  0
 23 49  1  0  0  0  0
 23 50  1  0  0  0  0
 24 25  1  0  0  0  0
 24 51  1  0  0  0  0
 24 52  1  0  0  0  0
 25 54  1  0  0  0  0
 26 56  1  0  0  0  0
 26 57  1  0  0  0  0
 26 58  1  0  0  0  0
M  END
> <PUBCHEM_COMPOUND_CID>
102117168

> <PUBCHEM_CONFORMER_RMSD>
0.6

> <PUBCHEM_CONFORMER_DIVERSEORDER>
1
2
3
4
5

> <PUBCHEM_MMFF94_PARTIAL_CHARGES>
21
1 -0.68
11 0.28
12 0.14
13 0.28
16 0.14
18 -0.28
2 -0.68
20 0.28
21 -0.29
23 0.14
25 0.28
3 -0.68
4 -0.68
44 0.15
45 0.4
5 -0.68
53 0.4
55 0.4
59 0.4
60 0.4
7 0.28

> <PUBCHEM_EFFECTIVE_ROTOR_COUNT>
3

> <PUBCHEM_PHARMACOPHORE_FEATURES>
14
1 1 acceptor
1 1 donor
1 2 acceptor
1 2 donor
1 3 acceptor
1 3 donor
1 4 acceptor
1 4 donor
1 5 acceptor
1 5 donor
5 6 7 10 14 15 rings
6 12 18 19 23 24 25 rings
6 6 7 8 9 11 13 rings
6 8 9 12 16 18 21 rings

> <PUBCHEM_HEAVY_ATOM_COUNT>
26

> <PUBCHEM_ATOM_DEF_STEREO_COUNT>
10

> <PUBCHEM_ATOM_UDEF_STEREO_COUNT>
0

> <PUBCHEM_BOND_DEF_STEREO_COUNT>
0

> <PUBCHEM_BOND_UDEF_STEREO_COUNT>
0

> <PUBCHEM_ISOTOPIC_ATOM_COUNT>
0

> <PUBCHEM_COMPONENT_COUNT>
1

> <PUBCHEM_CACTVS_TAUTO_COUNT>
1

> <PUBCHEM_CONFORMER_ID>
06162F3000000001

> <PUBCHEM_MMFF94_ENERGY>
100.3807

> <PUBCHEM_FEATURE_SELFOVERLAP>
71.26

> <PUBCHEM_SHAPE_FINGERPRINT>
10 15 18337380635544237792
10366900 7 18334583434042720522
10906281 52 18264790833957900441
10967382 1 18411701014655798124
11315181 36 17531253855253686320
11578080 2 17273385367342995985
12011746 2 18409729555936901393
12035758 1 18187938308808968459
12166972 35 17967814955399179932
12236239 1 17418093213354739791
12403259 415 18335972121629336596
12553582 1 18266763396304063565
12596599 1 17630908155423571599
12596602 18 17060335262001066371
12788726 201 18189046521698166289
12838862 33 18339342120156770640
13140716 1 18195530513391415721
13224815 77 18410572868792380490
13402501 40 18408885143981348864
13533116 47 17822282436679426082
13862211 1 18411133658103140199
14115302 16 17822300118716384869
14223421 5 18267868272736233110
14787075 74 18335419097081319306
14790565 3 18341619191816910777
15196674 1 18339360734834928426
15788980 27 18334575758972975042
16945 1 18337966674387007001
17349148 13 18186515501627852484
17492 89 18123186810081314326
1813 80 17530969051751168260
19141452 34 18201719591472218991
200 152 18343017792182043695
21033648 29 18338781369669963664
21236236 1 18340487760245372513
21267235 1 18411706456980878822
23402539 116 18342451556346474175
23557571 272 18130792222452101012
23558518 356 18046354032532268504
23559900 14 17894917368589241248
26918003 58 17967255307890383138
335352 9 18412262856528762949
34797466 226 15410619241410603112
34934 24 18412824711429352531
350125 39 18409731755445823980
3545911 37 18335139782642041510
392239 28 18341897385448605024
4340502 62 17312827061249541131
5104073 3 18268706100702107186
5283173 99 18114733820684883165
59755656 215 18409170983046343454
9709674 26 18337961073528386238

> <PUBCHEM_SHAPE_MULTIPOLES>
505.72
11.15
2.29
1.18
2.63
0.55
-0.16
-1.36
1.2
0.13
0.06
-0.47
0.04
0.29

> <PUBCHEM_SHAPE_SELFOVERLAP>
1079.361

> <PUBCHEM_SHAPE_VOLUME>
274.7

> <PUBCHEM_COORDINATE_TYPE>
2
5
10

$$$$
