101277354
  -OEChem-09092002123D

 72 75  0     1  0  0  0  0  0999 V2000
   -1.9806   -1.4435    1.8385 O   0  0  0  0  0  0  0  0  0  0  0  0
   -1.9917    2.0891   -0.2857 O   0  0  0  0  0  0  0  0  0  0  0  0
    0.6655    1.5114    0.5782 O   0  0  0  0  0  0  0  0  0  0  0  0
   -4.4385    2.0258   -0.3173 O   0  0  0  0  0  0  0  0  0  0  0  0
    5.9101   -2.6427   -0.0245 O   0  0  0  0  0  0  0  0  0  0  0  0
    0.3524    3.0290   -1.1315 O   0  0  0  0  0  0  0  0  0  0  0  0
   -2.5342   -0.3012   -0.2430 C   0  0  1  0  0  0  0  0  0  0  0  0
   -2.0436   -1.6246    0.4079 C   0  0  1  0  0  0  0  0  0  0  0  0
   -0.6398   -2.0144   -0.0877 C   0  0  1  0  0  0  0  0  0  0  0  0
    0.3976   -0.8890    0.2327 C   0  0  2  0  0  0  0  0  0  0  0  0
   -3.9841   -0.2441    0.3175 C   0  0  2  0  0  0  0  0  0  0  0  0
   -1.6007    0.8234    0.2487 C   0  0  1  0  0  0  0  0  0  0  0  0
   -0.1243    0.5446   -0.1214 C   0  0  1  0  0  0  0  0  0  0  0  0
    1.8266   -1.2504   -0.3870 C   0  0  2  0  0  0  0  0  0  0  0  0
   -3.1966   -2.5918    0.1359 C   0  0  0  0  0  0  0  0  0  0  0  0
   -4.4612   -1.7166    0.2517 C   0  0  0  0  0  0  0  0  0  0  0  0
   -0.1696   -3.3504    0.5134 C   0  0  0  0  0  0  0  0  0  0  0  0
   -2.5662   -0.3465   -1.7972 C   0  0  0  0  0  0  0  0  0  0  0  0
    2.1721   -2.7312   -0.1534 C   0  0  0  0  0  0  0  0  0  0  0  0
    2.9217   -0.3731    0.2927 C   0  0  0  0  0  0  0  0  0  0  0  0
   -4.9652    0.7047   -0.3602 C   0  0  1  0  0  0  0  0  0  0  0  0
    1.2722   -3.6392    0.2592 C   0  0  0  0  0  0  0  0  0  0  0  0
    1.8521   -0.9957   -1.9145 C   0  0  0  0  0  0  0  0  0  0  0  0
    3.6017   -3.1597   -0.3938 C   0  0  0  0  0  0  0  0  0  0  0  0
    4.3603   -0.8000   -0.0002 C   0  0  0  0  0  0  0  0  0  0  0  0
    4.5884   -2.2657    0.3472 C   0  0  2  0  0  0  0  0  0  0  0  0
   -6.3266    0.6822    0.3144 C   0  0  0  0  0  0  0  0  0  0  0  0
    0.8173    2.7096   -0.0503 C   0  0  0  0  0  0  0  0  0  0  0  0
    1.6735    3.5554    0.8151 C   0  0  0  0  0  0  0  0  0  0  0  0
    2.5218    4.5056    0.3825 C   0  0  0  0  0  0  0  0  0  0  0  0
    2.7556    4.9066   -1.0472 C   0  0  0  0  0  0  0  0  0  0  0  0
    3.3338    5.2925    1.3794 C   0  0  0  0  0  0  0  0  0  0  0  0
   -0.6821   -2.1603   -1.1729 H   0  0  0  0  0  0  0  0  0  0  0  0
    0.5355   -0.8940    1.3260 H   0  0  0  0  0  0  0  0  0  0  0  0
   -3.9236    0.0499    1.3760 H   0  0  0  0  0  0  0  0  0  0  0  0
   -1.6629    0.9354    1.3389 H   0  0  0  0  0  0  0  0  0  0  0  0
   -0.0152    0.6973   -1.1995 H   0  0  0  0  0  0  0  0  0  0  0  0
   -3.2415   -3.4200    0.8510 H   0  0  0  0  0  0  0  0  0  0  0  0
   -3.1310   -3.0218   -0.8698 H   0  0  0  0  0  0  0  0  0  0  0  0
   -5.1139   -1.9067   -0.6079 H   0  0  0  0  0  0  0  0  0  0  0  0
   -5.0255   -1.9719    1.1559 H   0  0  0  0  0  0  0  0  0  0  0  0
   -0.7697   -4.1634    0.0873 H   0  0  0  0  0  0  0  0  0  0  0  0
   -0.3190   -3.3813    1.5979 H   0  0  0  0  0  0  0  0  0  0  0  0
   -1.5825   -0.5336   -2.2351 H   0  0  0  0  0  0  0  0  0  0  0  0
   -2.9073    0.6071   -2.2146 H   0  0  0  0  0  0  0  0  0  0  0  0
   -3.2370   -1.1218   -2.1800 H   0  0  0  0  0  0  0  0  0  0  0  0
    2.7787   -0.3837    1.3815 H   0  0  0  0  0  0  0  0  0  0  0  0
    2.8317    0.6683   -0.0293 H   0  0  0  0  0  0  0  0  0  0  0  0
   -5.1005    0.4384   -1.4141 H   0  0  0  0  0  0  0  0  0  0  0  0
    1.5847   -4.6667    0.4296 H   0  0  0  0  0  0  0  0  0  0  0  0
   -1.9801   -2.3172    2.2629 H   0  0  0  0  0  0  0  0  0  0  0  0
    1.7832    0.0715   -2.1480 H   0  0  0  0  0  0  0  0  0  0  0  0
    1.0313   -1.5068   -2.4273 H   0  0  0  0  0  0  0  0  0  0  0  0
    2.7797   -1.3447   -2.3804 H   0  0  0  0  0  0  0  0  0  0  0  0
    3.7708   -4.2003   -0.0872 H   0  0  0  0  0  0  0  0  0  0  0  0
    3.8166   -3.1475   -1.4698 H   0  0  0  0  0  0  0  0  0  0  0  0
    5.0548   -0.1733    0.5731 H   0  0  0  0  0  0  0  0  0  0  0  0
    4.6094   -0.6184   -1.0532 H   0  0  0  0  0  0  0  0  0  0  0  0
   -2.7264    2.4185    0.2579 H   0  0  0  0  0  0  0  0  0  0  0  0
    4.4885   -2.4170    1.4290 H   0  0  0  0  0  0  0  0  0  0  0  0
   -6.8047   -0.2993    0.2513 H   0  0  0  0  0  0  0  0  0  0  0  0
   -6.9949    1.4143   -0.1524 H   0  0  0  0  0  0  0  0  0  0  0  0
   -6.2461    0.9666    1.3695 H   0  0  0  0  0  0  0  0  0  0  0  0
   -5.0688    2.6095   -0.7728 H   0  0  0  0  0  0  0  0  0  0  0  0
    6.5260   -2.0644    0.4571 H   0  0  0  0  0  0  0  0  0  0  0  0
    1.6089    3.3408    1.8797 H   0  0  0  0  0  0  0  0  0  0  0  0
    2.3215    5.8932   -1.2380 H   0  0  0  0  0  0  0  0  0  0  0  0
    3.8308    4.9598   -1.2513 H   0  0  0  0  0  0  0  0  0  0  0  0
    2.3404    4.2030   -1.7713 H   0  0  0  0  0  0  0  0  0  0  0  0
    3.1127    6.3610    1.2881 H   0  0  0  0  0  0  0  0  0  0  0  0
    3.1258    4.9985    2.4137 H   0  0  0  0  0  0  0  0  0  0  0  0
    4.4035    5.1415    1.2007 H   0  0  0  0  0  0  0  0  0  0  0  0
  1  8  1  0  0  0  0
  1 51  1  0  0  0  0
  2 12  1  0  0  0  0
  2 59  1  0  0  0  0
  3 13  1  0  0  0  0
  3 28  1  0  0  0  0
  4 21  1  0  0  0  0
  4 64  1  0  0  0  0
  5 26  1  0  0  0  0
  5 65  1  0  0  0  0
  6 28  2  0  0  0  0
  7  8  1  0  0  0  0
  7 11  1  0  0  0  0
  7 12  1  0  0  0  0
  7 18  1  0  0  0  0
  8  9  1  0  0  0  0
  8 15  1  0  0  0  0
  9 10  1  0  0  0  0
  9 17  1  0  0  0  0
  9 33  1  0  0  0  0
 10 13  1  0  0  0  0
 10 14  1  0  0  0  0
 10 34  1  0  0  0  0
 11 16  1  0  0  0  0
 11 21  1  0  0  0  0
 11 35  1  0  0  0  0
 12 13  1  0  0  0  0
 12 36  1  0  0  0  0
 13 37  1  0  0  0  0
 14 19  1  0  0  0  0
 14 20  1  0  0  0  0
 14 23  1  0  0  0  0
 15 16  1  0  0  0  0
 15 38  1  0  0  0  0
 15 39  1  0  0  0  0
 16 40  1  0  0  0  0
 16 41  1  0  0  0  0
 17 22  1  0  0  0  0
 17 42  1  0  0  0  0
 17 43  1  0  0  0  0
 18 44  1  0  0  0  0
 18 45  1  0  0  0  0
 18 46  1  0  0  0  0
 19 22  2  0  0  0  0
 19 24  1  0  0  0  0
 20 25  1  0  0  0  0
 20 47  1  0  0  0  0
 20 48  1  0  0  0  0
 21 27  1  0  0  0  0
 21 49  1  0  0  0  0
 22 50  1  0  0  0  0
 23 52  1  0  0  0  0
 23 53  1  0  0  0  0
 23 54  1  0  0  0  0
 24 26  1  0  0  0  0
 24 55  1  0  0  0  0
 24 56  1  0  0  0  0
 25 26  1  0  0  0  0
 25 57  1  0  0  0  0
 25 58  1  0  0  0  0
 26 60  1  0  0  0  0
 27 61  1  0  0  0  0
 27 62  1  0  0  0  0
 27 63  1  0  0  0  0
 28 29  1  0  0  0  0
 29 30  2  0  0  0  0
 29 66  1  0  0  0  0
 30 31  1  0  0  0  0
 30 32  1  0  0  0  0
 31 67  1  0  0  0  0
 31 68  1  0  0  0  0
 31 69  1  0  0  0  0
 32 70  1  0  0  0  0
 32 71  1  0  0  0  0
 32 72  1  0  0  0  0
M  END
> <PUBCHEM_COMPOUND_CID>
101277354

> <PUBCHEM_CONFORMER_RMSD>
0.8

> <PUBCHEM_CONFORMER_DIVERSEORDER>
1
3
8
7
4
5
6
2

> <PUBCHEM_MMFF94_PARTIAL_CHARGES>
27
1 -0.68
12 0.28
13 0.28
14 0.14
17 0.14
19 -0.28
2 -0.68
21 0.28
22 -0.29
24 0.14
26 0.28
28 0.71
29 -0.14
3 -0.43
30 -0.28
31 0.14
32 0.14
4 -0.68
5 -0.68
50 0.15
51 0.4
59 0.4
6 -0.57
64 0.4
65 0.4
66 0.15
8 0.28

> <PUBCHEM_EFFECTIVE_ROTOR_COUNT>
6

> <PUBCHEM_PHARMACOPHORE_FEATURES>
14
1 1 acceptor
1 1 donor
1 2 acceptor
1 2 donor
1 4 acceptor
1 4 donor
1 5 acceptor
1 5 donor
1 6 acceptor
3 30 31 32 hydrophobe
5 7 8 11 15 16 rings
6 14 19 20 24 25 26 rings
6 7 8 9 10 12 13 rings
6 9 10 14 17 19 22 rings

> <PUBCHEM_HEAVY_ATOM_COUNT>
32

> <PUBCHEM_ATOM_DEF_STEREO_COUNT>
10

> <PUBCHEM_ATOM_UDEF_STEREO_COUNT>
0

> <PUBCHEM_BOND_DEF_STEREO_COUNT>
0

> <PUBCHEM_BOND_UDEF_STEREO_COUNT>
0

> <PUBCHEM_ISOTOPIC_ATOM_COUNT>
0

> <PUBCHEM_COMPONENT_COUNT>
1

> <PUBCHEM_CACTVS_TAUTO_COUNT>
1

> <PUBCHEM_CONFORMER_ID>
06095EAA00000001

> <PUBCHEM_MMFF94_ENERGY>
115.4123

> <PUBCHEM_FEATURE_SELFOVERLAP>
71.197

> <PUBCHEM_SHAPE_FINGERPRINT>
10006869 2 17474102099661684985
10050765 1 18339642369290210803
1100329 8 18410858754626761667
11049842 53 17970923373102028692
11513181 2 17983579885877376142
12166972 35 17822301123987094190
12293681 160 18119841091087744902
12422481 6 18119505873132966824
12553582 1 18266161847580078703
12788726 201 17901104123087651634
13140716 1 18337960099040048867
13402501 40 18337951186455674658
13540713 4 18187643674284824083
13540713 5 17987795349803587415
138480 1 18411138035001765048
140371 6 18270689670664451049
14394314 77 18050853217012588049
14790565 3 17761777664543731720
14849402 71 18267872671353236257
14955137 171 18337116670025540163
15081414 286 18269283378318585907
15131766 46 15479811470072695026
15230672 131 17904765832723728812
15439362 3 18338512066150878968
15664445 248 18200328618862930806
15927050 60 17981608483398832862
16087824 20 17906736904283359601
16728300 4 17178524133962003322
167882 2 18339079427087765745
20600515 1 18057618572308641888
21304253 13 18340770317263425073
21796203 349 17904527023154383048
22311459 1 18338798914832835643
23366157 5 18188206636326568664
23559900 14 18411975879656754560
24771750 20 18264500635744382693
283562 15 17975981955945364034
3178227 256 18264505996776197577
3298306 158 18054513783637991420
335352 9 18337673019141709455
350125 39 18336552724172293587
469060 322 18123481483439103352
5385378 56 18123762112328589257
6004065 56 18340757179090237991
653340 110 17547004135745895130
6669772 16 17909273821342744324
79837 15 17472978879518860856
9981440 41 17905324383616795665

> <PUBCHEM_SHAPE_MULTIPOLES>
623.33
9.84
6.62
1.13
6.37
7.05
0.24
0.22
-0.62
-10.47
-0.83
-0.12
0.34
1.01

> <PUBCHEM_SHAPE_SELFOVERLAP>
1319.738

> <PUBCHEM_SHAPE_VOLUME>
344.1

> <PUBCHEM_COORDINATE_TYPE>
2
5
10

$$$$
