101694475
  -OEChem-09092001593D

 87 92  0     1  0  0  0  0  0999 V2000
   -1.5685    3.5963   -0.8847 O   0  0  0  0  0  0  0  0  0  0  0  0
   -2.4747    1.2713   -2.0639 O   0  0  0  0  0  0  0  0  0  0  0  0
    0.9400   -0.4231    0.4108 O   0  0  0  0  0  0  0  0  0  0  0  0
    0.9294    3.8956    0.1548 O   0  0  0  0  0  0  0  0  0  0  0  0
    2.7749    1.7922    0.4441 O   0  0  0  0  0  0  0  0  0  0  0  0
   -7.7420   -2.8633   -0.0002 O   0  0  0  0  0  0  0  0  0  0  0  0
    0.8558   -1.2710    2.5492 O   0  0  0  0  0  0  0  0  0  0  0  0
    3.6755    0.1497    1.7822 O   0  0  0  0  0  0  0  0  0  0  0  0
   -1.6038    2.3846   -0.1109 C   0  0  2  0  0  0  0  0  0  0  0  0
   -0.1836    1.7117   -0.0677 C   0  0  1  0  0  0  0  0  0  0  0  0
   -2.7510    1.4820   -0.6710 C   0  0  2  0  0  0  0  0  0  0  0  0
   -2.7798    0.0864    0.0276 C   0  0  1  0  0  0  0  0  0  0  0  0
   -3.9807   -0.8422   -0.4209 C   0  0  2  0  0  0  0  0  0  0  0  0
    0.5946    2.7008    0.8771 C   0  0  2  0  0  0  0  0  0  0  0  0
   -0.2965    0.2800    0.5500 C   0  0  1  0  0  0  0  0  0  0  0  0
   -1.3976   -0.5803   -0.0831 C   0  0  0  0  0  0  0  0  0  0  0  0
   -5.2973   -0.0221   -0.2428 C   0  0  1  0  0  0  0  0  0  0  0  0
   -1.8201    2.8528    1.3463 C   0  0  0  0  0  0  0  0  0  0  0  0
   -4.1274    2.1780   -0.5772 C   0  0  0  0  0  0  0  0  0  0  0  0
   -0.4300    3.0820    1.9570 C   0  0  0  0  0  0  0  0  0  0  0  0
   -5.2827    1.2866   -1.0368 C   0  0  0  0  0  0  0  0  0  0  0  0
   -4.0812   -2.0812    0.5230 C   0  0  0  0  0  0  0  0  0  0  0  0
    0.5095    1.6382   -1.4496 C   0  0  0  0  0  0  0  0  0  0  0  0
   -6.5555   -0.8484   -0.5323 C   0  0  0  0  0  0  0  0  0  0  0  0
    1.8950    2.1834    1.4903 C   0  0  2  0  0  0  0  0  0  0  0  0
   -3.8089   -1.3663   -1.8694 C   0  0  0  0  0  0  0  0  0  0  0  0
   -5.3519   -2.9125    0.3216 C   0  0  0  0  0  0  0  0  0  0  0  0
   -6.6232   -2.0703    0.3822 C   0  0  2  0  0  0  0  0  0  0  0  0
    2.5676    3.2393    2.3493 C   0  0  0  0  0  0  0  0  0  0  0  0
    1.2163   -1.3297    1.3839 C   0  0  0  0  0  0  0  0  0  0  0  0
    3.6153    0.7584    0.7253 C   0  0  0  0  0  0  0  0  0  0  0  0
    2.0388   -2.4401    0.8408 C   0  0  0  0  0  0  0  0  0  0  0  0
    4.4778    0.4491   -0.4430 C   0  0  0  0  0  0  0  0  0  0  0  0
    2.9389   -3.1113    1.6683 C   0  0  0  0  0  0  0  0  0  0  0  0
    1.9099   -2.8132   -0.4970 C   0  0  0  0  0  0  0  0  0  0  0  0
    5.4148   -0.5814   -0.3653 C   0  0  0  0  0  0  0  0  0  0  0  0
    4.3500    1.1882   -1.6189 C   0  0  0  0  0  0  0  0  0  0  0  0
    3.7104   -4.1554    1.1581 C   0  0  0  0  0  0  0  0  0  0  0  0
    2.6812   -3.8572   -1.0073 C   0  0  0  0  0  0  0  0  0  0  0  0
    3.5815   -4.5284   -0.1798 C   0  0  0  0  0  0  0  0  0  0  0  0
    6.2240   -0.8727   -1.4635 C   0  0  0  0  0  0  0  0  0  0  0  0
    5.1591    0.8970   -2.7171 C   0  0  0  0  0  0  0  0  0  0  0  0
    6.0961   -0.1334   -2.6395 C   0  0  0  0  0  0  0  0  0  0  0  0
   -2.9490    0.2663    1.0982 H   0  0  0  0  0  0  0  0  0  0  0  0
   -0.5414    0.3836    1.6145 H   0  0  0  0  0  0  0  0  0  0  0  0
   -1.4112   -1.5372    0.4514 H   0  0  0  0  0  0  0  0  0  0  0  0
   -1.1195   -0.8523   -1.1054 H   0  0  0  0  0  0  0  0  0  0  0  0
   -5.3626    0.2647    0.8190 H   0  0  0  0  0  0  0  0  0  0  0  0
   -2.3399    2.1062    1.9539 H   0  0  0  0  0  0  0  0  0  0  0  0
   -2.4073    3.7765    1.4079 H   0  0  0  0  0  0  0  0  0  0  0  0
   -4.1456    3.0748   -1.2074 H   0  0  0  0  0  0  0  0  0  0  0  0
   -4.3262    2.4974    0.4522 H   0  0  0  0  0  0  0  0  0  0  0  0
   -0.3362    4.1238    2.2834 H   0  0  0  0  0  0  0  0  0  0  0  0
   -0.3352    2.4490    2.8476 H   0  0  0  0  0  0  0  0  0  0  0  0
   -5.2185    1.0981   -2.1138 H   0  0  0  0  0  0  0  0  0  0  0  0
   -6.2232    1.8281   -0.8758 H   0  0  0  0  0  0  0  0  0  0  0  0
   -4.0515   -1.7470    1.5685 H   0  0  0  0  0  0  0  0  0  0  0  0
   -3.2194   -2.7439    0.3840 H   0  0  0  0  0  0  0  0  0  0  0  0
    0.6102    2.6220   -1.9184 H   0  0  0  0  0  0  0  0  0  0  0  0
   -0.0381    1.0129   -2.1553 H   0  0  0  0  0  0  0  0  0  0  0  0
    1.5007    1.1927   -1.4030 H   0  0  0  0  0  0  0  0  0  0  0  0
   -7.4543   -0.2388   -0.3718 H   0  0  0  0  0  0  0  0  0  0  0  0
   -6.6019   -1.1523   -1.5850 H   0  0  0  0  0  0  0  0  0  0  0  0
    1.6620    1.3379    2.1460 H   0  0  0  0  0  0  0  0  0  0  0  0
   -4.6074   -2.0558   -2.1580 H   0  0  0  0  0  0  0  0  0  0  0  0
   -2.8725   -1.9206   -1.9864 H   0  0  0  0  0  0  0  0  0  0  0  0
   -3.8278   -0.5747   -2.6195 H   0  0  0  0  0  0  0  0  0  0  0  0
   -2.3747    4.1085   -0.7095 H   0  0  0  0  0  0  0  0  0  0  0  0
   -1.9362    0.4813   -2.2000 H   0  0  0  0  0  0  0  0  0  0  0  0
   -5.3098   -3.4585   -0.6284 H   0  0  0  0  0  0  0  0  0  0  0  0
   -5.3996   -3.6946    1.0900 H   0  0  0  0  0  0  0  0  0  0  0  0
   -6.7917   -1.7371    1.4135 H   0  0  0  0  0  0  0  0  0  0  0  0
    1.0842    4.6185    0.7848 H   0  0  0  0  0  0  0  0  0  0  0  0
    2.9481    4.0743    1.7513 H   0  0  0  0  0  0  0  0  0  0  0  0
    3.4481    2.8118    2.8433 H   0  0  0  0  0  0  0  0  0  0  0  0
    1.9131    3.6289    3.1336 H   0  0  0  0  0  0  0  0  0  0  0  0
   -7.7759   -3.6298    0.5973 H   0  0  0  0  0  0  0  0  0  0  0  0
    3.0534   -2.8303    2.7119 H   0  0  0  0  0  0  0  0  0  0  0  0
    1.2098   -2.3155   -1.1626 H   0  0  0  0  0  0  0  0  0  0  0  0
    5.5303   -1.1686    0.5417 H   0  0  0  0  0  0  0  0  0  0  0  0
    3.6481    2.0101   -1.7208 H   0  0  0  0  0  0  0  0  0  0  0  0
    4.4124   -4.6771    1.8020 H   0  0  0  0  0  0  0  0  0  0  0  0
    2.5799   -4.1489   -2.0485 H   0  0  0  0  0  0  0  0  0  0  0  0
    4.1823   -5.3411   -0.5773 H   0  0  0  0  0  0  0  0  0  0  0  0
    6.9532   -1.6752   -1.4032 H   0  0  0  0  0  0  0  0  0  0  0  0
    5.0626    1.4747   -3.6318 H   0  0  0  0  0  0  0  0  0  0  0  0
    6.7265   -0.3597   -3.4944 H   0  0  0  0  0  0  0  0  0  0  0  0
  1  9  1  0  0  0  0
  1 68  1  0  0  0  0
  2 11  1  0  0  0  0
  2 69  1  0  0  0  0
  3 15  1  0  0  0  0
  3 30  1  0  0  0  0
  4 14  1  0  0  0  0
  4 73  1  0  0  0  0
  5 25  1  0  0  0  0
  5 31  1  0  0  0  0
  6 28  1  0  0  0  0
  6 77  1  0  0  0  0
  7 30  2  0  0  0  0
  8 31  2  0  0  0  0
  9 10  1  0  0  0  0
  9 11  1  0  0  0  0
  9 18  1  0  0  0  0
 10 14  1  0  0  0  0
 10 15  1  0  0  0  0
 10 23  1  0  0  0  0
 11 12  1  0  0  0  0
 11 19  1  0  0  0  0
 12 13  1  0  0  0  0
 12 16  1  0  0  0  0
 12 44  1  0  0  0  0
 13 17  1  0  0  0  0
 13 22  1  0  0  0  0
 13 26  1  0  0  0  0
 14 20  1  0  0  0  0
 14 25  1  0  0  0  0
 15 16  1  0  0  0  0
 15 45  1  0  0  0  0
 16 46  1  0  0  0  0
 16 47  1  0  0  0  0
 17 21  1  0  0  0  0
 17 24  1  0  0  0  0
 17 48  1  0  0  0  0
 18 20  1  0  0  0  0
 18 49  1  0  0  0  0
 18 50  1  0  0  0  0
 19 21  1  0  0  0  0
 19 51  1  0  0  0  0
 19 52  1  0  0  0  0
 20 53  1  0  0  0  0
 20 54  1  0  0  0  0
 21 55  1  0  0  0  0
 21 56  1  0  0  0  0
 22 27  1  0  0  0  0
 22 57  1  0  0  0  0
 22 58  1  0  0  0  0
 23 59  1  0  0  0  0
 23 60  1  0  0  0  0
 23 61  1  0  0  0  0
 24 28  1  0  0  0  0
 24 62  1  0  0  0  0
 24 63  1  0  0  0  0
 25 29  1  0  0  0  0
 25 64  1  0  0  0  0
 26 65  1  0  0  0  0
 26 66  1  0  0  0  0
 26 67  1  0  0  0  0
 27 28  1  0  0  0  0
 27 70  1  0  0  0  0
 27 71  1  0  0  0  0
 28 72  1  0  0  0  0
 29 74  1  0  0  0  0
 29 75  1  0  0  0  0
 29 76  1  0  0  0  0
 30 32  1  0  0  0  0
 31 33  1  0  0  0  0
 32 34  2  0  0  0  0
 32 35  1  0  0  0  0
 33 36  2  0  0  0  0
 33 37  1  0  0  0  0
 34 38  1  0  0  0  0
 34 78  1  0  0  0  0
 35 39  2  0  0  0  0
 35 79  1  0  0  0  0
 36 41  1  0  0  0  0
 36 80  1  0  0  0  0
 37 42  2  0  0  0  0
 37 81  1  0  0  0  0
 38 40  2  0  0  0  0
 38 82  1  0  0  0  0
 39 40  1  0  0  0  0
 39 83  1  0  0  0  0
 40 84  1  0  0  0  0
 41 43  2  0  0  0  0
 41 85  1  0  0  0  0
 42 43  1  0  0  0  0
 42 86  1  0  0  0  0
 43 87  1  0  0  0  0
M  END
> <PUBCHEM_COMPOUND_CID>
101694475

> <PUBCHEM_CONFORMER_RMSD>
1.2

> <PUBCHEM_CONFORMER_DIVERSEORDER>
1
4
5
3
6
2

> <PUBCHEM_MMFF94_PARTIAL_CHARGES>
42
1 -0.68
11 0.28
14 0.28
15 0.28
2 -0.68
25 0.28
28 0.28
3 -0.43
30 0.63
31 0.63
32 0.09
33 0.09
34 -0.15
35 -0.15
36 -0.15
37 -0.15
38 -0.15
39 -0.15
4 -0.68
40 -0.15
41 -0.15
42 -0.15
43 -0.15
5 -0.43
6 -0.68
68 0.4
69 0.4
7 -0.57
73 0.4
77 0.4
78 0.15
79 0.15
8 -0.57
80 0.15
81 0.15
82 0.15
83 0.15
84 0.15
85 0.15
86 0.15
87 0.15
9 0.28

> <PUBCHEM_EFFECTIVE_ROTOR_COUNT>
9.2

> <PUBCHEM_PHARMACOPHORE_FEATURES>
16
1 1 acceptor
1 1 donor
1 2 acceptor
1 2 donor
1 4 acceptor
1 4 donor
1 6 acceptor
1 6 donor
1 7 acceptor
1 8 acceptor
5 9 10 14 18 20 rings
6 11 12 13 17 19 21 rings
6 13 17 22 24 27 28 rings
6 32 34 35 38 39 40 rings
6 33 36 37 41 42 43 rings
6 9 10 11 12 15 16 rings

> <PUBCHEM_HEAVY_ATOM_COUNT>
43

> <PUBCHEM_ATOM_DEF_STEREO_COUNT>
10

> <PUBCHEM_ATOM_UDEF_STEREO_COUNT>
0

> <PUBCHEM_BOND_DEF_STEREO_COUNT>
0

> <PUBCHEM_BOND_UDEF_STEREO_COUNT>
0

> <PUBCHEM_ISOTOPIC_ATOM_COUNT>
0

> <PUBCHEM_COMPONENT_COUNT>
1

> <PUBCHEM_CACTVS_TAUTO_COUNT>
1

> <PUBCHEM_CONFORMER_ID>
060FBC0B00000001

> <PUBCHEM_MMFF94_ENERGY>
177.0367

> <PUBCHEM_FEATURE_SELFOVERLAP>
81.415

> <PUBCHEM_SHAPE_FINGERPRINT>
10190108 129 18338815493321877851
10190206 1 18268451113031329652
10928967 22 18272363196060472950
11093857 51 18114182003644720246
117089 54 17986686865557257094
11963148 33 18335410305405538755
12633046 712 18265880381398921213
13383661 66 18124898977313546098
13636023 20 17604141528392668020
13782708 43 18201156684906002509
14955137 171 18059017310345330641
15001296 14 18196379109399443542
15064986 96 17632306644900946279
15324884 4 17758973897165705514
15927050 60 17547289368592577852
17909252 39 18342736274250639282
19315092 285 17241871121812065170
20764821 26 18053391998172473514
22899556 105 18340219492362032990
23559900 14 18122327004846278843
2818148 4 18198912396436554952
354706 132 17458349602465296135
3737641 26 18413389813177226499
404807 78 17751652167173614731
4394409 98 16819095496054223901
44880168 125 17275385413179351887
463206 1 18342453794082880022
484989 97 18190193467039522466
513202 73 15410625735364147155
5265222 85 18047472519653093116
56611832 218 17552635164004941815
5776283 40 18122356928569583308
5912855 24 18199198282381478307
59755656 215 18334857264020069315
6669772 16 18128248090338016576
86090 222 18267301113351112202

> <PUBCHEM_SHAPE_MULTIPOLES>
837.97
14.63
5.35
2.11
11.39
2.15
-0.19
10.3
-6.65
-1.62
1.88
-2.81
-0.69
-0.01

> <PUBCHEM_SHAPE_SELFOVERLAP>
1828.103

> <PUBCHEM_SHAPE_VOLUME>
446.8

> <PUBCHEM_COORDINATE_TYPE>
2
5
10

$$$$
