14281864
  -OEChem-09092001573D

 75 79  0     1  0  0  0  0  0999 V2000
   -0.5598   -3.5157    1.3815 O   0  0  0  0  0  0  0  0  0  0  0  0
   -1.4976   -1.0422    2.1693 O   0  0  0  0  0  0  0  0  0  0  0  0
    2.1453    0.2607   -0.2150 O   0  0  0  0  0  0  0  0  0  0  0  0
    2.0048   -3.9861    0.5993 O   0  0  0  0  0  0  0  0  0  0  0  0
    2.9320   -1.3955   -1.7650 O   0  0  0  0  0  0  0  0  0  0  0  0
   -6.4619    2.8820   -0.8587 O   0  0  0  0  0  0  0  0  0  0  0  0
    1.6794    1.7306   -1.9241 O   0  0  0  0  0  0  0  0  0  0  0  0
   -0.5024   -2.4161    0.4564 C   0  0  2  0  0  0  0  0  0  0  0  0
    0.9334   -1.7758    0.4434 C   0  0  1  0  0  0  0  0  0  0  0  0
   -1.6673   -1.4307    0.7979 C   0  0  2  0  0  0  0  0  0  0  0  0
   -1.6049   -0.1393   -0.0767 C   0  0  1  0  0  0  0  0  0  0  0  0
   -2.8139    0.8579    0.1461 C   0  0  2  0  0  0  0  0  0  0  0  0
    1.7590   -2.8920   -0.2974 C   0  0  2  0  0  0  0  0  0  0  0  0
    0.9065   -0.4364   -0.3627 C   0  0  1  0  0  0  0  0  0  0  0  0
   -0.2195    0.5160    0.0598 C   0  0  0  0  0  0  0  0  0  0  0  0
   -4.1324    0.0406   -0.0315 C   0  0  1  0  0  0  0  0  0  0  0  0
   -0.6137   -3.0688   -0.9405 C   0  0  0  0  0  0  0  0  0  0  0  0
   -3.0491   -2.1126    0.6825 C   0  0  0  0  0  0  0  0  0  0  0  0
    0.8144   -3.3968   -1.3995 C   0  0  0  0  0  0  0  0  0  0  0  0
   -4.2143   -1.1516    0.9255 C   0  0  0  0  0  0  0  0  0  0  0  0
   -2.8072    1.9624   -0.9567 C   0  0  0  0  0  0  0  0  0  0  0  0
    1.5158   -1.5308    1.8561 C   0  0  0  0  0  0  0  0  0  0  0  0
   -5.3889    0.9155    0.0417 C   0  0  0  0  0  0  0  0  0  0  0  0
   -2.7453    1.5665    1.5227 C   0  0  0  0  0  0  0  0  0  0  0  0
    3.1170   -2.4794   -0.8633 C   0  0  1  0  0  0  0  0  0  0  0  0
   -4.0688    2.8311   -0.9711 C   0  0  0  0  0  0  0  0  0  0  0  0
   -5.3512    2.0073   -1.0274 C   0  0  2  0  0  0  0  0  0  0  0  0
    3.7949   -3.6293   -1.5875 C   0  0  0  0  0  0  0  0  0  0  0  0
    2.2409    1.4419   -0.8788 C   0  0  0  0  0  0  0  0  0  0  0  0
    3.1436    2.3726   -0.1553 C   0  0  0  0  0  0  0  0  0  0  0  0
    2.9200    3.7306   -0.2550 C   0  0  0  0  0  0  0  0  0  0  0  0
    4.1776    1.8507    0.5947 C   0  0  0  0  0  0  0  0  0  0  0  0
    3.7678    4.6051    0.4248 C   0  0  0  0  0  0  0  0  0  0  0  0
    5.0252    2.7253    1.2747 C   0  0  0  0  0  0  0  0  0  0  0  0
    4.8203    4.1025    1.1897 C   0  0  0  0  0  0  0  0  0  0  0  0
   -1.6928   -0.4565   -1.1250 H   0  0  0  0  0  0  0  0  0  0  0  0
    0.7449   -0.6500   -1.4272 H   0  0  0  0  0  0  0  0  0  0  0  0
   -0.2148    1.4014   -0.5788 H   0  0  0  0  0  0  0  0  0  0  0  0
   -0.0224    0.9147    1.0593 H   0  0  0  0  0  0  0  0  0  0  0  0
   -4.1195   -0.3834   -1.0483 H   0  0  0  0  0  0  0  0  0  0  0  0
   -1.0683   -2.4049   -1.6813 H   0  0  0  0  0  0  0  0  0  0  0  0
   -1.2154   -3.9851   -0.9153 H   0  0  0  0  0  0  0  0  0  0  0  0
   -3.1295   -2.9260    1.4141 H   0  0  0  0  0  0  0  0  0  0  0  0
   -3.1729   -2.5581   -0.3114 H   0  0  0  0  0  0  0  0  0  0  0  0
    0.9148   -4.4770   -1.5581 H   0  0  0  0  0  0  0  0  0  0  0  0
    0.9862   -2.9043   -2.3632 H   0  0  0  0  0  0  0  0  0  0  0  0
   -5.1525   -1.6958    0.7603 H   0  0  0  0  0  0  0  0  0  0  0  0
   -4.2304   -0.8229    1.9701 H   0  0  0  0  0  0  0  0  0  0  0  0
   -2.7017    1.4929   -1.9437 H   0  0  0  0  0  0  0  0  0  0  0  0
   -1.9453    2.6280   -0.8349 H   0  0  0  0  0  0  0  0  0  0  0  0
    1.3747   -2.3840    2.5262 H   0  0  0  0  0  0  0  0  0  0  0  0
    2.5947   -1.3450    1.8062 H   0  0  0  0  0  0  0  0  0  0  0  0
    1.0851   -0.6577    2.3489 H   0  0  0  0  0  0  0  0  0  0  0  0
   -6.2871    0.3037   -0.1135 H   0  0  0  0  0  0  0  0  0  0  0  0
   -5.5139    1.3570    1.0376 H   0  0  0  0  0  0  0  0  0  0  0  0
   -2.8247    0.8788    2.3655 H   0  0  0  0  0  0  0  0  0  0  0  0
   -1.8136    2.1298    1.6358 H   0  0  0  0  0  0  0  0  0  0  0  0
   -3.5554    2.2884    1.6591 H   0  0  0  0  0  0  0  0  0  0  0  0
    3.7780   -2.1408   -0.0573 H   0  0  0  0  0  0  0  0  0  0  0  0
   -0.6627   -3.1468    2.2750 H   0  0  0  0  0  0  0  0  0  0  0  0
   -4.0883    3.4960   -0.0992 H   0  0  0  0  0  0  0  0  0  0  0  0
   -4.0335    3.5066   -1.8354 H   0  0  0  0  0  0  0  0  0  0  0  0
   -0.8505   -0.3311    2.2534 H   0  0  0  0  0  0  0  0  0  0  0  0
   -5.4443    1.5424   -2.0165 H   0  0  0  0  0  0  0  0  0  0  0  0
    2.7090   -3.7264    1.2170 H   0  0  0  0  0  0  0  0  0  0  0  0
    3.2365   -3.9425   -2.4758 H   0  0  0  0  0  0  0  0  0  0  0  0
    4.7774   -3.3087   -1.9532 H   0  0  0  0  0  0  0  0  0  0  0  0
    3.9495   -4.4975   -0.9404 H   0  0  0  0  0  0  0  0  0  0  0  0
    3.8084   -1.1337   -2.0946 H   0  0  0  0  0  0  0  0  0  0  0  0
   -6.4222    3.5477   -1.5665 H   0  0  0  0  0  0  0  0  0  0  0  0
    2.1015    4.1334   -0.8440 H   0  0  0  0  0  0  0  0  0  0  0  0
    4.3667    0.7838    0.6664 H   0  0  0  0  0  0  0  0  0  0  0  0
    3.6079    5.6774    0.3595 H   0  0  0  0  0  0  0  0  0  0  0  0
    5.8468    2.3344    1.8679 H   0  0  0  0  0  0  0  0  0  0  0  0
    5.4806    4.7834    1.7187 H   0  0  0  0  0  0  0  0  0  0  0  0
  1  8  1  0  0  0  0
  1 60  1  0  0  0  0
  2 10  1  0  0  0  0
  2 63  1  0  0  0  0
  3 14  1  0  0  0  0
  3 29  1  0  0  0  0
  4 13  1  0  0  0  0
  4 65  1  0  0  0  0
  5 25  1  0  0  0  0
  5 69  1  0  0  0  0
  6 27  1  0  0  0  0
  6 70  1  0  0  0  0
  7 29  2  0  0  0  0
  8  9  1  0  0  0  0
  8 10  1  0  0  0  0
  8 17  1  0  0  0  0
  9 13  1  0  0  0  0
  9 14  1  0  0  0  0
  9 22  1  0  0  0  0
 10 11  1  0  0  0  0
 10 18  1  0  0  0  0
 11 12  1  0  0  0  0
 11 15  1  0  0  0  0
 11 36  1  0  0  0  0
 12 16  1  0  0  0  0
 12 21  1  0  0  0  0
 12 24  1  0  0  0  0
 13 19  1  0  0  0  0
 13 25  1  0  0  0  0
 14 15  1  0  0  0  0
 14 37  1  0  0  0  0
 15 38  1  0  0  0  0
 15 39  1  0  0  0  0
 16 20  1  0  0  0  0
 16 23  1  0  0  0  0
 16 40  1  0  0  0  0
 17 19  1  0  0  0  0
 17 41  1  0  0  0  0
 17 42  1  0  0  0  0
 18 20  1  0  0  0  0
 18 43  1  0  0  0  0
 18 44  1  0  0  0  0
 19 45  1  0  0  0  0
 19 46  1  0  0  0  0
 20 47  1  0  0  0  0
 20 48  1  0  0  0  0
 21 26  1  0  0  0  0
 21 49  1  0  0  0  0
 21 50  1  0  0  0  0
 22 51  1  0  0  0  0
 22 52  1  0  0  0  0
 22 53  1  0  0  0  0
 23 27  1  0  0  0  0
 23 54  1  0  0  0  0
 23 55  1  0  0  0  0
 24 56  1  0  0  0  0
 24 57  1  0  0  0  0
 24 58  1  0  0  0  0
 25 28  1  0  0  0  0
 25 59  1  0  0  0  0
 26 27  1  0  0  0  0
 26 61  1  0  0  0  0
 26 62  1  0  0  0  0
 27 64  1  0  0  0  0
 28 66  1  0  0  0  0
 28 67  1  0  0  0  0
 28 68  1  0  0  0  0
 29 30  1  0  0  0  0
 30 31  2  0  0  0  0
 30 32  1  0  0  0  0
 31 33  1  0  0  0  0
 31 71  1  0  0  0  0
 32 34  2  0  0  0  0
 32 72  1  0  0  0  0
 33 35  2  0  0  0  0
 33 73  1  0  0  0  0
 34 35  1  0  0  0  0
 34 74  1  0  0  0  0
 35 75  1  0  0  0  0
M  END
> <PUBCHEM_COMPOUND_CID>
14281864

> <PUBCHEM_CONFORMER_RMSD>
1

> <PUBCHEM_CONFORMER_DIVERSEORDER>
1
2

> <PUBCHEM_MMFF94_PARTIAL_CHARGES>
30
1 -0.68
10 0.28
13 0.28
14 0.28
2 -0.68
25 0.28
27 0.28
29 0.63
3 -0.43
30 0.09
31 -0.15
32 -0.15
33 -0.15
34 -0.15
35 -0.15
4 -0.68
5 -0.68
6 -0.68
60 0.4
63 0.4
65 0.4
69 0.4
7 -0.57
70 0.4
71 0.15
72 0.15
73 0.15
74 0.15
75 0.15
8 0.28

> <PUBCHEM_EFFECTIVE_ROTOR_COUNT>
6.2

> <PUBCHEM_PHARMACOPHORE_FEATURES>
16
1 1 acceptor
1 1 donor
1 2 acceptor
1 2 donor
1 4 acceptor
1 4 donor
1 5 acceptor
1 5 donor
1 6 acceptor
1 6 donor
1 7 acceptor
5 8 9 13 17 19 rings
6 10 11 12 16 18 20 rings
6 12 16 21 23 26 27 rings
6 30 31 32 33 34 35 rings
6 8 9 10 11 14 15 rings

> <PUBCHEM_HEAVY_ATOM_COUNT>
35

> <PUBCHEM_ATOM_DEF_STEREO_COUNT>
9

> <PUBCHEM_ATOM_UDEF_STEREO_COUNT>
1

> <PUBCHEM_BOND_DEF_STEREO_COUNT>
0

> <PUBCHEM_BOND_UDEF_STEREO_COUNT>
0

> <PUBCHEM_ISOTOPIC_ATOM_COUNT>
0

> <PUBCHEM_COMPONENT_COUNT>
1

> <PUBCHEM_CACTVS_TAUTO_COUNT>
1

> <PUBCHEM_CONFORMER_ID>
00D9EC8800000001

> <PUBCHEM_MMFF94_ENERGY>
157.006

> <PUBCHEM_FEATURE_SELFOVERLAP>
81.414

> <PUBCHEM_SHAPE_FINGERPRINT>
10074138 170 17617079744057866720
10290309 65 18268717293129079512
10305334 12 17823676720639434850
10439779 11 18046899386025608457
10653451 467 18337663098052053260
10675989 125 18267581313192839601
10930396 42 18046606938616232698
11049842 53 18044678596656782580
11456790 92 17537447215195793009
12107183 9 18263345036978081936
12156800 1 16822992620703499877
12160290 23 17691152712528290100
12166972 35 17984695615723284105
12293681 160 17828506681984252566
12422481 6 18188477069306287176
12788726 201 17252032031007955572
13140716 1 18334574603579299899
13540713 4 18335151890329032939
13965767 371 17967800657099818212
14068700 675 17699561442386839992
14955137 171 17619668732742422635
15082195 135 18270104739590817431
15230672 131 18336267964311019172
15326921 28 18054209193300723256
15439362 3 18412540986016723676
16988056 13 18195805168049893604
17980427 23 18048844512363472915
18681886 176 18197773298027029095
19246450 95 18265871701787110992
19309040 13 18130793352340438053
21304303 282 17911496994660941846
21859007 373 18337667624784682892
22121540 332 17751063722700117228
22149856 69 18190767314211061393
22182313 1 18189635954366978939
22393880 68 18261117310086526247
23559900 14 18339642218385820891
238918 7 18335406985548312676
25019877 29 16909496736468378126
3298306 158 18340488962413903820
376196 1 18409447007366215939
469060 322 17544779166377377555
508180 173 17830745257171439073
508706 21 17694513937461367140
5171179 24 18410299073001268310
5265222 85 18048609406724433252
57124632 79 18412824711634964072
6004065 56 18269269058955656502
6371380 46 18411982499330719628
6608658 132 16896246612500488748
7399639 24 18265065802296982931
9862522 239 18192425492591362940
9981440 41 18263923409435642505

> <PUBCHEM_SHAPE_MULTIPOLES>
679.2
10.58
6.32
1.57
5.9
0.13
0.13
-13.32
-0.31
-6.56
-0.68
-0.29
0.45
3.35

> <PUBCHEM_SHAPE_SELFOVERLAP>
1473.527

> <PUBCHEM_SHAPE_VOLUME>
365.7

> <PUBCHEM_COORDINATE_TYPE>
2
5
10

$$$$
