101694474
  -OEChem-09092001583D

 78 82  0     1  0  0  0  0  0999 V2000
    1.7856   -3.5581   -0.0885 O   0  0  0  0  0  0  0  0  0  0  0  0
    2.7777   -1.5132   -1.5492 O   0  0  0  0  0  0  0  0  0  0  0  0
   -0.8866   -4.1543    0.2122 O   0  0  0  0  0  0  0  0  0  0  0  0
   -2.9581   -2.5520   -0.8598 O   0  0  0  0  0  0  0  0  0  0  0  0
    6.3715    4.0827    0.6871 O   0  0  0  0  0  0  0  0  0  0  0  0
   -1.6119   -0.1165   -2.2930 O   0  0  0  0  0  0  0  0  0  0  0  0
    1.3543   -2.2277    0.2572 C   0  0  2  0  0  0  0  0  0  0  0  0
   -0.0442   -1.9070   -0.3997 C   0  0  2  0  0  0  0  0  0  0  0  0
    2.5188   -1.2730   -0.1572 C   0  0  2  0  0  0  0  0  0  0  0  0
    2.1284    0.2256    0.0150 C   0  0  1  0  0  0  0  0  0  0  0  0
    3.3018    1.2456   -0.2833 C   0  0  2  0  0  0  0  0  0  0  0  0
   -0.3309   -0.3691   -0.2975 C   0  0  1  0  0  0  0  0  0  0  0  0
   -1.0028   -2.7562    0.5190 C   0  0  2  0  0  0  0  0  0  0  0  0
    0.8359    0.5145   -0.7688 C   0  0  0  0  0  0  0  0  0  0  0  0
    4.5302    0.8102    0.5759 C   0  0  1  0  0  0  0  0  0  0  0  0
    1.0558   -2.2455    1.7738 C   0  0  0  0  0  0  0  0  0  0  0  0
    3.8265   -1.6026    0.5967 C   0  0  0  0  0  0  0  0  0  0  0  0
   -0.4346   -2.5741    1.9346 C   0  0  0  0  0  0  0  0  0  0  0  0
    4.9637   -0.6284    0.2849 C   0  0  0  0  0  0  0  0  0  0  0  0
    2.8983    2.6783    0.1870 C   0  0  0  0  0  0  0  0  0  0  0  0
   -0.1199   -2.3866   -1.8690 C   0  0  0  0  0  0  0  0  0  0  0  0
    5.7057    1.7888    0.4725 C   0  0  0  0  0  0  0  0  0  0  0  0
   -2.4934   -2.4275    0.4785 C   0  0  2  0  0  0  0  0  0  0  0  0
    3.6417    1.3240   -1.7935 C   0  0  0  0  0  0  0  0  0  0  0  0
    4.0511    3.6864    0.1606 C   0  0  0  0  0  0  0  0  0  0  0  0
    5.2845    3.1905    0.9100 C   0  0  2  0  0  0  0  0  0  0  0  0
   -1.5395    0.0702   -1.0805 C   0  0  0  0  0  0  0  0  0  0  0  0
   -3.2954   -3.3500    1.3798 C   0  0  0  0  0  0  0  0  0  0  0  0
   -2.6415    0.7101   -0.3071 C   0  0  0  0  0  0  0  0  0  0  0  0
   -3.7511    1.1285   -0.9322 C   0  0  0  0  0  0  0  0  0  0  0  0
   -4.8998    1.7634   -0.2620 C   0  0  0  0  0  0  0  0  0  0  0  0
   -5.0840    1.5995    1.1109 C   0  0  0  0  0  0  0  0  0  0  0  0
   -5.8025    2.5283   -1.0004 C   0  0  0  0  0  0  0  0  0  0  0  0
   -6.1713    2.2005    1.7454 C   0  0  0  0  0  0  0  0  0  0  0  0
   -6.8897    3.1293   -0.3661 C   0  0  0  0  0  0  0  0  0  0  0  0
   -7.0741    2.9653    1.0068 C   0  0  0  0  0  0  0  0  0  0  0  0
    1.8867    0.3758    1.0763 H   0  0  0  0  0  0  0  0  0  0  0  0
   -0.4971   -0.1171    0.7573 H   0  0  0  0  0  0  0  0  0  0  0  0
    0.9684    0.4411   -1.8520 H   0  0  0  0  0  0  0  0  0  0  0  0
    0.5409    1.5575   -0.5986 H   0  0  0  0  0  0  0  0  0  0  0  0
    4.2144    0.8284    1.6312 H   0  0  0  0  0  0  0  0  0  0  0  0
    1.2456   -1.2794    2.2507 H   0  0  0  0  0  0  0  0  0  0  0  0
    1.6579   -2.9894    2.3080 H   0  0  0  0  0  0  0  0  0  0  0  0
    4.1826   -2.6043    0.3290 H   0  0  0  0  0  0  0  0  0  0  0  0
    3.6557   -1.5959    1.6794 H   0  0  0  0  0  0  0  0  0  0  0  0
   -0.5500   -3.4627    2.5654 H   0  0  0  0  0  0  0  0  0  0  0  0
   -0.9177   -1.7390    2.4568 H   0  0  0  0  0  0  0  0  0  0  0  0
    5.8256   -0.8898    0.9113 H   0  0  0  0  0  0  0  0  0  0  0  0
    5.2940   -0.7419   -0.7532 H   0  0  0  0  0  0  0  0  0  0  0  0
    2.5081    2.6296    1.2122 H   0  0  0  0  0  0  0  0  0  0  0  0
    2.0884    3.0759   -0.4350 H   0  0  0  0  0  0  0  0  0  0  0  0
    0.3193   -3.3822   -1.9937 H   0  0  0  0  0  0  0  0  0  0  0  0
    0.4085   -1.7269   -2.5597 H   0  0  0  0  0  0  0  0  0  0  0  0
   -1.1383   -2.4761   -2.2481 H   0  0  0  0  0  0  0  0  0  0  0  0
    6.5333    1.4549    1.1121 H   0  0  0  0  0  0  0  0  0  0  0  0
    6.1216    1.8106   -0.5419 H   0  0  0  0  0  0  0  0  0  0  0  0
   -2.6796   -1.4198    0.8385 H   0  0  0  0  0  0  0  0  0  0  0  0
    2.7735    1.6346   -2.3831 H   0  0  0  0  0  0  0  0  0  0  0  0
    4.4283    2.0541   -2.0043 H   0  0  0  0  0  0  0  0  0  0  0  0
    4.0041    0.3803   -2.2029 H   0  0  0  0  0  0  0  0  0  0  0  0
    2.4760   -3.8392    0.5339 H   0  0  0  0  0  0  0  0  0  0  0  0
    2.1839   -0.9989   -2.1101 H   0  0  0  0  0  0  0  0  0  0  0  0
    4.3179    3.9401   -0.8724 H   0  0  0  0  0  0  0  0  0  0  0  0
    3.7159    4.6334    0.6025 H   0  0  0  0  0  0  0  0  0  0  0  0
    5.0789    3.1832    1.9873 H   0  0  0  0  0  0  0  0  0  0  0  0
   -1.1719   -4.6809    0.9767 H   0  0  0  0  0  0  0  0  0  0  0  0
   -3.3041   -4.3821    1.0138 H   0  0  0  0  0  0  0  0  0  0  0  0
   -4.3465   -3.0361    1.3801 H   0  0  0  0  0  0  0  0  0  0  0  0
   -2.9525   -3.3372    2.4177 H   0  0  0  0  0  0  0  0  0  0  0  0
   -3.9029   -2.3220   -0.8655 H   0  0  0  0  0  0  0  0  0  0  0  0
   -2.4778    0.8513    0.7545 H   0  0  0  0  0  0  0  0  0  0  0  0
    6.0901    4.9663    0.9798 H   0  0  0  0  0  0  0  0  0  0  0  0
   -3.8549    1.0025   -2.0073 H   0  0  0  0  0  0  0  0  0  0  0  0
   -4.4192    0.9957    1.7216 H   0  0  0  0  0  0  0  0  0  0  0  0
   -5.6739    2.6678   -2.0710 H   0  0  0  0  0  0  0  0  0  0  0  0
   -6.3182    2.0691    2.8135 H   0  0  0  0  0  0  0  0  0  0  0  0
   -7.5929    3.7250   -0.9409 H   0  0  0  0  0  0  0  0  0  0  0  0
   -7.9213    3.4324    1.5005 H   0  0  0  0  0  0  0  0  0  0  0  0
  1  7  1  0  0  0  0
  1 61  1  0  0  0  0
  2  9  1  0  0  0  0
  2 62  1  0  0  0  0
  3 13  1  0  0  0  0
  3 66  1  0  0  0  0
  4 23  1  0  0  0  0
  4 70  1  0  0  0  0
  5 26  1  0  0  0  0
  5 72  1  0  0  0  0
  6 27  2  0  0  0  0
  7  8  1  0  0  0  0
  7  9  1  0  0  0  0
  7 16  1  0  0  0  0
  8 12  1  0  0  0  0
  8 13  1  0  0  0  0
  8 21  1  0  0  0  0
  9 10  1  0  0  0  0
  9 17  1  0  0  0  0
 10 11  1  0  0  0  0
 10 14  1  0  0  0  0
 10 37  1  0  0  0  0
 11 15  1  0  0  0  0
 11 20  1  0  0  0  0
 11 24  1  0  0  0  0
 12 14  1  0  0  0  0
 12 27  1  0  0  0  0
 12 38  1  0  0  0  0
 13 18  1  0  0  0  0
 13 23  1  0  0  0  0
 14 39  1  0  0  0  0
 14 40  1  0  0  0  0
 15 19  1  0  0  0  0
 15 22  1  0  0  0  0
 15 41  1  0  0  0  0
 16 18  1  0  0  0  0
 16 42  1  0  0  0  0
 16 43  1  0  0  0  0
 17 19  1  0  0  0  0
 17 44  1  0  0  0  0
 17 45  1  0  0  0  0
 18 46  1  0  0  0  0
 18 47  1  0  0  0  0
 19 48  1  0  0  0  0
 19 49  1  0  0  0  0
 20 25  1  0  0  0  0
 20 50  1  0  0  0  0
 20 51  1  0  0  0  0
 21 52  1  0  0  0  0
 21 53  1  0  0  0  0
 21 54  1  0  0  0  0
 22 26  1  0  0  0  0
 22 55  1  0  0  0  0
 22 56  1  0  0  0  0
 23 28  1  0  0  0  0
 23 57  1  0  0  0  0
 24 58  1  0  0  0  0
 24 59  1  0  0  0  0
 24 60  1  0  0  0  0
 25 26  1  0  0  0  0
 25 63  1  0  0  0  0
 25 64  1  0  0  0  0
 26 65  1  0  0  0  0
 27 29  1  0  0  0  0
 28 67  1  0  0  0  0
 28 68  1  0  0  0  0
 28 69  1  0  0  0  0
 29 30  2  0  0  0  0
 29 71  1  0  0  0  0
 30 31  1  0  0  0  0
 30 73  1  0  0  0  0
 31 32  2  0  0  0  0
 31 33  1  0  0  0  0
 32 34  1  0  0  0  0
 32 74  1  0  0  0  0
 33 35  2  0  0  0  0
 33 75  1  0  0  0  0
 34 36  2  0  0  0  0
 34 76  1  0  0  0  0
 35 36  1  0  0  0  0
 35 77  1  0  0  0  0
 36 78  1  0  0  0  0
M  END
> <PUBCHEM_COMPOUND_CID>
101694474

> <PUBCHEM_CONFORMER_RMSD>
1

> <PUBCHEM_CONFORMER_DIVERSEORDER>
1
3
4
2

> <PUBCHEM_MMFF94_PARTIAL_CHARGES>
33
1 -0.68
12 0.06
13 0.28
2 -0.68
23 0.28
26 0.28
27 0.49
29 -0.14
3 -0.68
30 -0.18
31 0.03
32 -0.15
33 -0.15
34 -0.15
35 -0.15
36 -0.15
4 -0.68
5 -0.68
6 -0.57
61 0.4
62 0.4
66 0.4
7 0.28
70 0.4
71 0.15
72 0.4
73 0.15
74 0.15
75 0.15
76 0.15
77 0.15
78 0.15
9 0.28

> <PUBCHEM_EFFECTIVE_ROTOR_COUNT>
6.2

> <PUBCHEM_PHARMACOPHORE_FEATURES>
16
1 1 acceptor
1 1 donor
1 2 acceptor
1 2 donor
1 3 acceptor
1 3 donor
1 4 acceptor
1 4 donor
1 5 acceptor
1 5 donor
1 6 acceptor
5 7 8 13 16 18 rings
6 11 15 20 22 25 26 rings
6 31 32 33 34 35 36 rings
6 7 8 9 10 12 14 rings
6 9 10 11 15 17 19 rings

> <PUBCHEM_HEAVY_ATOM_COUNT>
36

> <PUBCHEM_ATOM_DEF_STEREO_COUNT>
10

> <PUBCHEM_ATOM_UDEF_STEREO_COUNT>
0

> <PUBCHEM_BOND_DEF_STEREO_COUNT>
1

> <PUBCHEM_BOND_UDEF_STEREO_COUNT>
0

> <PUBCHEM_ISOTOPIC_ATOM_COUNT>
0

> <PUBCHEM_COMPONENT_COUNT>
1

> <PUBCHEM_CACTVS_TAUTO_COUNT>
21

> <PUBCHEM_CONFORMER_ID>
060FBC0A00000001

> <PUBCHEM_MMFF94_ENERGY>
156.7949

> <PUBCHEM_FEATURE_SELFOVERLAP>
81.421

> <PUBCHEM_SHAPE_FINGERPRINT>
10165383 225 17968955075900444398
10675989 125 18342174428104235096
10816530 23 18201719557186567735
1100329 8 18335696088202064714
11285246 1 11600004362588127237
11456790 92 17970343716305243144
11479125 193 18411700993535364881
11578080 2 18411142462933667194
12107183 9 18263064584076201128
12422481 6 17748834003260357083
12788726 201 17683540784928706583
12925494 130 18339354274819688816
13140716 1 18261382361087041882
13540713 4 18341067292845899830
13726171 33 17825123747068097188
14251764 75 18413108364012823001
14565420 104 18334293124471295369
14705955 166 17832975423287589696
14747281 78 18270701783142360284
14790565 3 18411134698091679549
14849402 71 18267305322582416754
14955137 171 17610893491808120571
15338160 23 18118406382483940101
16114785 44 18268989972139186555
17913733 40 18262238820631705241
19309040 13 18130787875528882589
19319366 153 18270674264949147441
19438510 23 18272928349353449896
20715895 44 18341328916472816152
21033648 144 18334844039567826381
21033648 29 18187373141988322545
21716022 299 14619115798572211295
23522609 53 17460599367372344812
23558518 356 18115873077834228719
23559900 14 18410282607120191138
23569914 2 17343750911416896008
23845131 108 18333448725501085475
24180151 40 17897705764733277179
283562 15 18119519097300204283
3178227 256 18043536018842925946
3388396 114 16614749649535850380
376196 1 18412826897378068498
394071 54 18268154146029123193
397830 11 18334586741748040657
4340502 62 18262243197171315583
5104073 3 18187915231923248184
57527585 21 17981875659949244444
5951187 136 18201727206486405348
6036956 94 17759522570416440293
9896288 288 18046064028431126922

> <PUBCHEM_SHAPE_MULTIPOLES>
705.65
14.9
5.57
1.59
14.22
0.44
-0.17
-22.76
3.84
-0.39
1.55
0.77
0.38
0.66

> <PUBCHEM_SHAPE_SELFOVERLAP>
1523.18

> <PUBCHEM_SHAPE_VOLUME>
381.8

> <PUBCHEM_COORDINATE_TYPE>
2
5
10

$$$$
