122219079
  -OEChem-09092002153D

 75 79  0     1  0  0  0  0  0999 V2000
   -0.1988   -2.5428    1.4299 O   0  0  0  0  0  0  0  0  0  0  0  0
    2.3737    0.9681    0.5853 O   0  0  0  0  0  0  0  0  0  0  0  0
   -0.1900    1.5887   -0.1653 O   0  0  0  0  0  0  0  0  0  0  0  0
    2.6409   -2.0720   -2.0674 O   0  0  0  0  0  0  0  0  0  0  0  0
   -6.3278    0.1158   -1.2727 O   0  0  0  0  0  0  0  0  0  0  0  0
    0.5765    2.6347    1.7426 O   0  0  0  0  0  0  0  0  0  0  0  0
    3.0308    1.3669   -1.5932 O   0  0  0  0  0  0  0  0  0  0  0  0
    0.8964   -2.4804    0.5060 C   0  0  1  0  0  0  0  0  0  0  0  0
   -0.5392   -2.1711    0.0906 C   0  0  2  0  0  0  0  0  0  0  0  0
    1.9106   -1.3986    0.8067 C   0  0  2  0  0  0  0  0  0  0  0  0
   -0.9668   -0.7239   -0.1291 C   0  0  1  0  0  0  0  0  0  0  0  0
   -2.4903   -0.5274    0.2677 C   0  0  2  0  0  0  0  0  0  0  0  0
    1.5701   -3.7868    0.2051 C   0  0  0  0  0  0  0  0  0  0  0  0
    1.5003   -0.0700    0.1390 C   0  0  1  0  0  0  0  0  0  0  0  0
    0.0371    0.3125    0.4434 C   0  0  1  0  0  0  0  0  0  0  0  0
   -1.3767   -3.2048   -0.6090 C   0  0  0  0  0  0  0  0  0  0  0  0
    3.2317   -2.0140    0.2476 C   0  0  1  0  0  0  0  0  0  0  0  0
   -3.3246   -1.5974   -0.5247 C   0  0  1  0  0  0  0  0  0  0  0  0
    3.0575   -3.5235    0.4663 C   0  0  0  0  0  0  0  0  0  0  0  0
   -2.8532   -3.0353   -0.2627 C   0  0  0  0  0  0  0  0  0  0  0  0
    2.0851   -1.2223    2.3397 C   0  0  0  0  0  0  0  0  0  0  0  0
   -3.0151    0.8700   -0.1739 C   0  0  0  0  0  0  0  0  0  0  0  0
   -2.6820   -0.6571    1.7988 C   0  0  0  0  0  0  0  0  0  0  0  0
   -4.8331   -1.4779   -0.2945 C   0  0  0  0  0  0  0  0  0  0  0  0
    3.4685   -1.7559   -1.2141 C   0  0  0  0  0  0  0  0  0  0  0  0
   -4.5229    1.0606   -0.0177 C   0  0  0  0  0  0  0  0  0  0  0  0
   -5.2993   -0.0810   -0.6263 C   0  0  0  0  0  0  0  0  0  0  0  0
    4.7683   -1.0924   -1.5823 C   0  0  0  0  0  0  0  0  0  0  0  0
    0.1265    2.6705    0.6046 C   0  0  0  0  0  0  0  0  0  0  0  0
    3.0800    1.6039   -0.3938 C   0  0  0  0  0  0  0  0  0  0  0  0
   -0.1938    3.9461   -0.1561 C   0  0  1  0  0  0  0  0  0  0  0  0
    3.9486    2.6610    0.2179 C   0  0  0  0  0  0  0  0  0  0  0  0
    0.1050    5.1939    0.6874 C   0  0  0  0  0  0  0  0  0  0  0  0
    0.6213    3.9537   -1.4462 C   0  0  0  0  0  0  0  0  0  0  0  0
   -0.2155    6.4881   -0.0495 C   0  0  0  0  0  0  0  0  0  0  0  0
   -0.9305   -0.5779   -1.2207 H   0  0  0  0  0  0  0  0  0  0  0  0
    1.4141   -4.0639   -0.8429 H   0  0  0  0  0  0  0  0  0  0  0  0
    1.2058   -4.6066    0.8326 H   0  0  0  0  0  0  0  0  0  0  0  0
    1.5361   -0.1719   -0.9505 H   0  0  0  0  0  0  0  0  0  0  0  0
   -0.1089    0.3900    1.5249 H   0  0  0  0  0  0  0  0  0  0  0  0
   -1.0706   -4.2228   -0.3428 H   0  0  0  0  0  0  0  0  0  0  0  0
   -1.2341   -3.1044   -1.6917 H   0  0  0  0  0  0  0  0  0  0  0  0
    4.1060   -1.6534    0.8022 H   0  0  0  0  0  0  0  0  0  0  0  0
   -3.1586   -1.4021   -1.5962 H   0  0  0  0  0  0  0  0  0  0  0  0
    3.3010   -3.7829    1.5034 H   0  0  0  0  0  0  0  0  0  0  0  0
    3.6914   -4.1361   -0.1833 H   0  0  0  0  0  0  0  0  0  0  0  0
   -3.0247   -3.3074    0.7854 H   0  0  0  0  0  0  0  0  0  0  0  0
   -3.4399   -3.7377   -0.8673 H   0  0  0  0  0  0  0  0  0  0  0  0
    1.1869   -0.8139    2.8131 H   0  0  0  0  0  0  0  0  0  0  0  0
    2.9168   -0.5484    2.5726 H   0  0  0  0  0  0  0  0  0  0  0  0
    2.2880   -2.1772    2.8371 H   0  0  0  0  0  0  0  0  0  0  0  0
   -2.7513    1.0374   -1.2265 H   0  0  0  0  0  0  0  0  0  0  0  0
   -2.5350    1.6618    0.4089 H   0  0  0  0  0  0  0  0  0  0  0  0
   -2.3432   -1.6198    2.1867 H   0  0  0  0  0  0  0  0  0  0  0  0
   -2.1360    0.1257    2.3350 H   0  0  0  0  0  0  0  0  0  0  0  0
   -3.7300   -0.5599    2.0961 H   0  0  0  0  0  0  0  0  0  0  0  0
   -5.1176   -1.7094    0.7364 H   0  0  0  0  0  0  0  0  0  0  0  0
   -5.3649   -2.1787   -0.9490 H   0  0  0  0  0  0  0  0  0  0  0  0
   -4.8217    1.9919   -0.5117 H   0  0  0  0  0  0  0  0  0  0  0  0
   -4.8071    1.1427    1.0362 H   0  0  0  0  0  0  0  0  0  0  0  0
    5.5612   -1.8449   -1.5852 H   0  0  0  0  0  0  0  0  0  0  0  0
    5.0220   -0.3055   -0.8698 H   0  0  0  0  0  0  0  0  0  0  0  0
    4.6875   -0.6519   -2.5796 H   0  0  0  0  0  0  0  0  0  0  0  0
   -1.2653    3.9237   -0.3907 H   0  0  0  0  0  0  0  0  0  0  0  0
    3.3347    3.3749    0.7723 H   0  0  0  0  0  0  0  0  0  0  0  0
    4.4753    3.2000   -0.5747 H   0  0  0  0  0  0  0  0  0  0  0  0
    4.6868    2.1960    0.8760 H   0  0  0  0  0  0  0  0  0  0  0  0
    1.1570    5.2063    0.9989 H   0  0  0  0  0  0  0  0  0  0  0  0
   -0.4902    5.1560    1.6084 H   0  0  0  0  0  0  0  0  0  0  0  0
    1.6881    4.0938   -1.2440 H   0  0  0  0  0  0  0  0  0  0  0  0
    0.5128    3.0224   -2.0122 H   0  0  0  0  0  0  0  0  0  0  0  0
    0.2971    4.7584   -2.1137 H   0  0  0  0  0  0  0  0  0  0  0  0
    0.4757    6.6646   -0.8787 H   0  0  0  0  0  0  0  0  0  0  0  0
   -0.1243    7.3376    0.6354 H   0  0  0  0  0  0  0  0  0  0  0  0
   -1.2379    6.4785   -0.4399 H   0  0  0  0  0  0  0  0  0  0  0  0
  1  8  1  0  0  0  0
  1  9  1  0  0  0  0
  2 14  1  0  0  0  0
  2 30  1  0  0  0  0
  3 15  1  0  0  0  0
  3 29  1  0  0  0  0
  4 25  2  0  0  0  0
  5 27  2  0  0  0  0
  6 29  2  0  0  0  0
  7 30  2  0  0  0  0
  8  9  1  0  0  0  0
  8 10  1  0  0  0  0
  8 13  1  0  0  0  0
  9 11  1  0  0  0  0
  9 16  1  0  0  0  0
 10 14  1  0  0  0  0
 10 17  1  0  0  0  0
 10 21  1  0  0  0  0
 11 12  1  0  0  0  0
 11 15  1  0  0  0  0
 11 36  1  0  0  0  0
 12 18  1  0  0  0  0
 12 22  1  0  0  0  0
 12 23  1  0  0  0  0
 13 19  1  0  0  0  0
 13 37  1  0  0  0  0
 13 38  1  0  0  0  0
 14 15  1  0  0  0  0
 14 39  1  0  0  0  0
 15 40  1  0  0  0  0
 16 20  1  0  0  0  0
 16 41  1  0  0  0  0
 16 42  1  0  0  0  0
 17 19  1  0  0  0  0
 17 25  1  0  0  0  0
 17 43  1  0  0  0  0
 18 20  1  0  0  0  0
 18 24  1  0  0  0  0
 18 44  1  0  0  0  0
 19 45  1  0  0  0  0
 19 46  1  0  0  0  0
 20 47  1  0  0  0  0
 20 48  1  0  0  0  0
 21 49  1  0  0  0  0
 21 50  1  0  0  0  0
 21 51  1  0  0  0  0
 22 26  1  0  0  0  0
 22 52  1  0  0  0  0
 22 53  1  0  0  0  0
 23 54  1  0  0  0  0
 23 55  1  0  0  0  0
 23 56  1  0  0  0  0
 24 27  1  0  0  0  0
 24 57  1  0  0  0  0
 24 58  1  0  0  0  0
 25 28  1  0  0  0  0
 26 27  1  0  0  0  0
 26 59  1  0  0  0  0
 26 60  1  0  0  0  0
 28 61  1  0  0  0  0
 28 62  1  0  0  0  0
 28 63  1  0  0  0  0
 29 31  1  0  0  0  0
 30 32  1  0  0  0  0
 31 33  1  0  0  0  0
 31 34  1  0  0  0  0
 31 64  1  0  0  0  0
 32 65  1  0  0  0  0
 32 66  1  0  0  0  0
 32 67  1  0  0  0  0
 33 35  1  0  0  0  0
 33 68  1  0  0  0  0
 33 69  1  0  0  0  0
 34 70  1  0  0  0  0
 34 71  1  0  0  0  0
 34 72  1  0  0  0  0
 35 73  1  0  0  0  0
 35 74  1  0  0  0  0
 35 75  1  0  0  0  0
M  END
> <PUBCHEM_COMPOUND_CID>
122219079

> <PUBCHEM_CONFORMER_RMSD>
1

> <PUBCHEM_CONFORMER_DIVERSEORDER>
1
2
3

> <PUBCHEM_MMFF94_PARTIAL_CHARGES>
25
1 -0.3
10 0.09
11 0.09
13 0.09
14 0.28
15 0.28
16 0.09
17 0.06
2 -0.43
24 0.06
25 0.45
26 0.06
27 0.45
28 0.06
29 0.66
3 -0.43
30 0.66
31 0.06
32 0.06
4 -0.57
5 -0.57
6 -0.57
7 -0.57
8 -0.04
9 -0.04

> <PUBCHEM_EFFECTIVE_ROTOR_COUNT>
9.2

> <PUBCHEM_PHARMACOPHORE_FEATURES>
11
1 1 acceptor
1 34 hydrophobe
1 35 hydrophobe
1 4 acceptor
1 5 acceptor
1 6 acceptor
1 7 acceptor
5 8 10 13 17 19 rings
6 12 18 22 24 26 27 rings
6 9 11 12 16 18 20 rings
7 1 8 9 10 11 14 15 rings

> <PUBCHEM_HEAVY_ATOM_COUNT>
35

> <PUBCHEM_ATOM_DEF_STEREO_COUNT>
9

> <PUBCHEM_ATOM_UDEF_STEREO_COUNT>
1

> <PUBCHEM_BOND_DEF_STEREO_COUNT>
0

> <PUBCHEM_BOND_UDEF_STEREO_COUNT>
0

> <PUBCHEM_ISOTOPIC_ATOM_COUNT>
0

> <PUBCHEM_COMPONENT_COUNT>
1

> <PUBCHEM_CACTVS_TAUTO_COUNT>
9

> <PUBCHEM_CONFORMER_ID>
0748EA4700000001

> <PUBCHEM_MMFF94_ENERGY>
97.8755

> <PUBCHEM_FEATURE_SELFOVERLAP>
55.939

> <PUBCHEM_SHAPE_FINGERPRINT>
10190206 1 18119554075988162950
10439779 11 18121201328203765768
10675989 125 18335702702325210324
11513181 2 17838908031427503055
11578080 2 17460283681756638727
12553582 1 18339371755357688978
12788726 201 18191868911889754226
13140716 1 18336265647956901195
13692114 37 17042856029961314305
138480 1 18410848863470033841
14068700 675 18338231549457693086
14363568 33 18264226853449711657
14466204 15 18194109944400322104
14790565 3 17904198488020984265
14955137 171 18193305024631613203
15081414 286 18340215196998344169
15210252 30 18187368744094545884
15439362 3 17689996060582950285
15664445 248 18340207504786289596
16988056 13 18264749053033711757
17980427 23 17836611439489200858
19315092 285 15050083808011617188
19319366 153 17967815985907260867
20642791 105 17688577269712377410
20764821 26 18192424170069029429
21285901 2 17773320032458339911
21860390 5 18341607174139240222
23558518 356 17398111552394104443
23559900 14 18198339757042090553
238 59 18047751786805130011
3298306 158 18123477343064184332
4066623 53 18339634547405666060
463206 1 18409174341288152143
484985 159 14683619662028426022
5081480 168 17841752652560017830
513532 50 18130497600338144630
5776283 40 17687765134620930556
59755656 215 18410293619062358140
653340 110 17979902826936030904
70251023 43 18270126690688768222
7164475 11 17977386036383396278
9981440 41 17472403826716838937

> <PUBCHEM_SHAPE_MULTIPOLES>
679.2
8.32
6.97
1.46
8.31
11.59
-0.16
-3.71
3.3
-2.38
-0.16
-0.85
-0.22
-0.11

> <PUBCHEM_SHAPE_SELFOVERLAP>
1451.181

> <PUBCHEM_SHAPE_VOLUME>
372.8

> <PUBCHEM_COORDINATE_TYPE>
2
5
10

$$$$
