3083306
  -OEChem-09092002042D

142149  0     1  0  0  0  0  0999 V2000
   11.3478    5.5955    0.0000 O   0  0  0  0  0  0  0  0  0  0  0  0
   11.3503    4.9428    0.0000 O   0  0  0  0  0  0  0  0  0  0  0  0
    7.7624    6.2553    0.0000 O   0  0  0  0  0  0  0  0  0  0  0  0
    8.7213    7.4404    0.0000 O   0  0  0  0  0  0  0  0  0  0  0  0
   10.4010    8.8184    0.0000 O   0  0  0  0  0  0  0  0  0  0  0  0
    9.4651    0.0651    0.0000 O   0  0  0  0  0  0  0  0  0  0  0  0
    6.9021    4.7520    0.0000 O   0  0  0  0  0  0  0  0  0  0  0  0
    7.7331    0.0651    0.0000 O   0  0  0  0  0  0  0  0  0  0  0  0
    7.7331   -2.9349    0.0000 O   0  0  0  0  0  0  0  0  0  0  0  0
    6.0010   -1.9349    0.0000 O   0  0  0  0  0  0  0  0  0  0  0  0
    6.8671   -3.4349    0.0000 O   0  0  0  0  0  0  0  0  0  0  0  0
    4.2690   -4.9349    0.0000 O   0  0  0  0  0  0  0  0  0  0  0  0
    6.0010   -5.9349    0.0000 O   0  0  0  0  0  0  0  0  0  0  0  0
    4.2690   -5.9349    0.0000 O   0  0  0  0  0  0  0  0  0  0  0  0
    6.0010   -7.9349    0.0000 O   0  0  0  0  0  0  0  0  0  0  0  0
    4.2690   -8.9349    0.0000 O   0  0  0  0  0  0  0  0  0  0  0  0
    2.5369   -7.9349    0.0000 O   0  0  0  0  0  0  0  0  0  0  0  0
   10.3623    5.7653    0.0000 C   0  0  3  0  0  0  0  0  0  0  0  0
    9.4944    6.2620    0.0000 C   0  0  3  0  0  0  0  0  0  0  0  0
   10.3662    4.7654    0.0000 C   0  0  3  0  0  0  0  0  0  0  0  0
    9.5021    4.2620    0.0000 C   0  0  3  0  0  0  0  0  0  0  0  0
    9.4901    3.2204    0.0000 C   0  0  3  0  0  0  0  0  0  0  0  0
    9.6999    7.2346    0.0000 C   0  0  3  0  0  0  0  0  0  0  0  0
    8.6303    5.7587    0.0000 C   0  0  3  0  0  0  0  0  0  0  0  0
    8.6342    4.7587    0.0000 C   0  0  0  0  0  0  0  0  0  0  0  0
   10.3901    2.6962    0.0000 C   0  0  3  0  0  0  0  0  0  0  0  0
   11.0968    6.4353    0.0000 C   0  0  0  0  0  0  0  0  0  0  0  0
   11.2781    4.2620    0.0000 C   0  0  0  0  0  0  0  0  0  0  0  0
   10.6882    7.3415    0.0000 C   0  0  0  0  0  0  0  0  0  0  0  0
   11.2902    3.2204    0.0000 C   0  0  0  0  0  0  0  0  0  0  0  0
    8.5402    2.6962    0.0000 C   0  0  0  0  0  0  0  0  0  0  0  0
    8.6264    6.7586    0.0000 C   0  0  0  0  0  0  0  0  0  0  0  0
   10.4027    1.6112    0.0000 C   0  0  0  0  0  0  0  0  0  0  0  0
    8.6260    3.7238    0.0000 C   0  0  0  0  0  0  0  0  0  0  0  0
    9.5932    8.2289    0.0000 C   0  0  3  0  0  0  0  0  0  0  0  0
    8.5276    1.6112    0.0000 C   0  0  0  0  0  0  0  0  0  0  0  0
    9.4651    1.0651    0.0000 C   0  0  3  0  0  0  0  0  0  0  0  0
    8.6788    8.6337    0.0000 C   0  0  0  0  0  0  0  0  0  0  0  0
    6.8983    5.7520    0.0000 C   0  0  0  0  0  0  0  0  0  0  0  0
    8.5991   -0.4349    0.0000 C   0  0  3  0  0  0  0  0  0  0  0  0
    6.0303    6.2486    0.0000 C   0  0  0  0  0  0  0  0  0  0  0  0
    8.5991   -1.4349    0.0000 C   0  0  0  0  0  0  0  0  0  0  0  0
    7.7331   -1.9349    0.0000 C   0  0  3  0  0  0  0  0  0  0  0  0
    6.8671   -0.4349    0.0000 C   0  0  3  0  0  0  0  0  0  0  0  0
    6.8671   -1.4349    0.0000 C   0  0  3  0  0  0  0  0  0  0  0  0
    6.0265    7.2486    0.0000 C   0  0  0  0  0  0  0  0  0  0  0  0
    5.1662    5.7453    0.0000 C   0  0  0  0  0  0  0  0  0  0  0  0
    6.0010    0.0651    0.0000 C   0  0  0  0  0  0  0  0  0  0  0  0
    5.1585    7.7453    0.0000 C   0  0  0  0  0  0  0  0  0  0  0  0
    4.2983    6.2420    0.0000 C   0  0  0  0  0  0  0  0  0  0  0  0
    4.2944    7.2420    0.0000 C   0  0  0  0  0  0  0  0  0  0  0  0
    6.0010   -2.9349    0.0000 C   0  0  3  0  0  0  0  0  0  0  0  0
    8.5991   -3.4349    0.0000 C   0  0  0  0  0  0  0  0  0  0  0  0
    5.1350   -3.4349    0.0000 C   0  0  0  0  0  0  0  0  0  0  0  0
    5.1350   -4.4349    0.0000 C   0  0  3  0  0  0  0  0  0  0  0  0
    6.8671   -4.4349    0.0000 C   0  0  3  0  0  0  0  0  0  0  0  0
    6.0010   -4.9349    0.0000 C   0  0  3  0  0  0  0  0  0  0  0  0
    7.7331   -4.9349    0.0000 C   0  0  0  0  0  0  0  0  0  0  0  0
    5.1350   -6.4349    0.0000 C   0  0  3  0  0  0  0  0  0  0  0  0
    3.4030   -4.4349    0.0000 C   0  0  0  0  0  0  0  0  0  0  0  0
    5.1350   -7.4349    0.0000 C   0  0  3  0  0  0  0  0  0  0  0  0
    4.2690   -7.9349    0.0000 C   0  0  3  0  0  0  0  0  0  0  0  0
    3.4030   -6.4349    0.0000 C   0  0  3  0  0  0  0  0  0  0  0  0
    3.4030   -7.4349    0.0000 C   0  0  3  0  0  0  0  0  0  0  0  0
    2.5369   -5.9349    0.0000 C   0  0  0  0  0  0  0  0  0  0  0  0
    3.4030   -9.4349    0.0000 C   0  0  0  0  0  0  0  0  0  0  0  0
   10.0378    3.9499    0.0000 H   0  0  0  0  0  0  0  0  0  0  0  0
    8.0946    5.4466    0.0000 H   0  0  0  0  0  0  0  0  0  0  0  0
    8.0232    4.8640    0.0000 H   0  0  0  0  0  0  0  0  0  0  0  0
    8.4244    4.1752    0.0000 H   0  0  0  0  0  0  0  0  0  0  0  0
   10.9294    2.3903    0.0000 H   0  0  0  0  0  0  0  0  0  0  0  0
   11.4642    5.9358    0.0000 H   0  0  0  0  0  0  0  0  0  0  0  0
   11.6321    6.7481    0.0000 H   0  0  0  0  0  0  0  0  0  0  0  0
   11.8902    4.1630    0.0000 H   0  0  0  0  0  0  0  0  0  0  0  0
   11.4804    4.8481    0.0000 H   0  0  0  0  0  0  0  0  0  0  0  0
   11.2770    7.5355    0.0000 H   0  0  0  0  0  0  0  0  0  0  0  0
   10.5571    7.9475    0.0000 H   0  0  0  0  0  0  0  0  0  0  0  0
   11.5060    2.6392    0.0000 H   0  0  0  0  0  0  0  0  0  0  0  0
   11.8998    3.3336    0.0000 H   0  0  0  0  0  0  0  0  0  0  0  0
    8.3379    3.2822    0.0000 H   0  0  0  0  0  0  0  0  0  0  0  0
    7.9281    2.5971    0.0000 H   0  0  0  0  0  0  0  0  0  0  0  0
    8.9344    7.2968    0.0000 H   0  0  0  0  0  0  0  0  0  0  0  0
    8.0883    7.0666    0.0000 H   0  0  0  0  0  0  0  0  0  0  0  0
    8.3185    6.2205    0.0000 H   0  0  0  0  0  0  0  0  0  0  0  0
   10.6185    1.0300    0.0000 H   0  0  0  0  0  0  0  0  0  0  0  0
   11.0123    1.7244    0.0000 H   0  0  0  0  0  0  0  0  0  0  0  0
    8.9380    4.2595    0.0000 H   0  0  0  0  0  0  0  0  0  0  0  0
    8.0902    4.0358    0.0000 H   0  0  0  0  0  0  0  0  0  0  0  0
    8.3139    3.1880    0.0000 H   0  0  0  0  0  0  0  0  0  0  0  0
    9.5271    8.8454    0.0000 H   0  0  0  0  0  0  0  0  0  0  0  0
    7.9180    1.7244    0.0000 H   0  0  0  0  0  0  0  0  0  0  0  0
    8.3118    1.0300    0.0000 H   0  0  0  0  0  0  0  0  0  0  0  0
   11.7445    6.0720    0.0000 H   0  0  0  0  0  0  0  0  0  0  0  0
   11.9338    4.7330    0.0000 H   0  0  0  0  0  0  0  0  0  0  0  0
   10.0027    0.7562    0.0000 H   0  0  0  0  0  0  0  0  0  0  0  0
    8.5284    8.0297    0.0000 H   0  0  0  0  0  0  0  0  0  0  0  0
    8.9298    9.2006    0.0000 H   0  0  0  0  0  0  0  0  0  0  0  0
    8.1119    8.8847    0.0000 H   0  0  0  0  0  0  0  0  0  0  0  0
    8.4278    8.0668    0.0000 H   0  0  0  0  0  0  0  0  0  0  0  0
   10.3349    9.4349    0.0000 H   0  0  0  0  0  0  0  0  0  0  0  0
    8.5991    0.1851    0.0000 H   0  0  0  0  0  0  0  0  0  0  0  0
    8.8112   -2.0175    0.0000 H   0  0  0  0  0  0  0  0  0  0  0  0
    9.2097   -1.3272    0.0000 H   0  0  0  0  0  0  0  0  0  0  0  0
    8.2700   -2.2449    0.0000 H   0  0  0  0  0  0  0  0  0  0  0  0
    6.8671    0.1851    0.0000 H   0  0  0  0  0  0  0  0  0  0  0  0
    6.8671   -2.0549    0.0000 H   0  0  0  0  0  0  0  0  0  0  0  0
    6.5622    7.5607    0.0000 H   0  0  0  0  0  0  0  0  0  0  0  0
    5.1686    5.1253    0.0000 H   0  0  0  0  0  0  0  0  0  0  0  0
    6.3110    0.6021    0.0000 H   0  0  0  0  0  0  0  0  0  0  0  0
    5.4641    0.3751    0.0000 H   0  0  0  0  0  0  0  0  0  0  0  0
    5.6910   -0.4718    0.0000 H   0  0  0  0  0  0  0  0  0  0  0  0
    5.1561    8.3653    0.0000 H   0  0  0  0  0  0  0  0  0  0  0  0
    3.7626    5.9299    0.0000 H   0  0  0  0  0  0  0  0  0  0  0  0
    3.7563    7.5499    0.0000 H   0  0  0  0  0  0  0  0  0  0  0  0
    5.4641   -2.6249    0.0000 H   0  0  0  0  0  0  0  0  0  0  0  0
    8.2891   -3.9718    0.0000 H   0  0  0  0  0  0  0  0  0  0  0  0
    9.1360   -3.7449    0.0000 H   0  0  0  0  0  0  0  0  0  0  0  0
    8.9091   -2.8979    0.0000 H   0  0  0  0  0  0  0  0  0  0  0  0
    4.9230   -2.8523    0.0000 H   0  0  0  0  0  0  0  0  0  0  0  0
    4.5244   -3.5425    0.0000 H   0  0  0  0  0  0  0  0  0  0  0  0
    5.1350   -5.0549    0.0000 H   0  0  0  0  0  0  0  0  0  0  0  0
    7.4040   -4.1249    0.0000 H   0  0  0  0  0  0  0  0  0  0  0  0
    6.5380   -5.2449    0.0000 H   0  0  0  0  0  0  0  0  0  0  0  0
    7.4231   -5.4718    0.0000 H   0  0  0  0  0  0  0  0  0  0  0  0
    8.2700   -5.2449    0.0000 H   0  0  0  0  0  0  0  0  0  0  0  0
    8.0431   -4.3979    0.0000 H   0  0  0  0  0  0  0  0  0  0  0  0
    5.1350   -5.8149    0.0000 H   0  0  0  0  0  0  0  0  0  0  0  0
    3.7130   -3.8979    0.0000 H   0  0  0  0  0  0  0  0  0  0  0  0
    2.8660   -4.1249    0.0000 H   0  0  0  0  0  0  0  0  0  0  0  0
    3.0930   -4.9718    0.0000 H   0  0  0  0  0  0  0  0  0  0  0  0
    5.1350   -8.0549    0.0000 H   0  0  0  0  0  0  0  0  0  0  0  0
    3.7320   -8.2449    0.0000 H   0  0  0  0  0  0  0  0  0  0  0  0
    3.4030   -5.8149    0.0000 H   0  0  0  0  0  0  0  0  0  0  0  0
    3.4030   -8.0549    0.0000 H   0  0  0  0  0  0  0  0  0  0  0  0
    6.0010   -8.5549    0.0000 H   0  0  0  0  0  0  0  0  0  0  0  0
    2.8469   -5.3979    0.0000 H   0  0  0  0  0  0  0  0  0  0  0  0
    2.0000   -5.6249    0.0000 H   0  0  0  0  0  0  0  0  0  0  0  0
    2.2269   -6.4718    0.0000 H   0  0  0  0  0  0  0  0  0  0  0  0
    2.0000   -7.6249    0.0000 H   0  0  0  0  0  0  0  0  0  0  0  0
    3.0930   -8.8979    0.0000 H   0  0  0  0  0  0  0  0  0  0  0  0
    2.8660   -9.7449    0.0000 H   0  0  0  0  0  0  0  0  0  0  0  0
    3.7130   -9.9718    0.0000 H   0  0  0  0  0  0  0  0  0  0  0  0
  1 18  1  0  0  0  0
  1 93  1  0  0  0  0
  2 20  1  0  0  0  0
  2 94  1  0  0  0  0
  3 24  1  0  0  0  0
  3 39  1  0  0  0  0
  4 23  1  0  0  0  0
  4 96  1  0  0  0  0
  5 35  1  0  0  0  0
  5100  1  0  0  0  0
  6 37  1  0  0  0  0
  6 40  1  0  0  0  0
  7 39  2  0  0  0  0
  8 40  1  0  0  0  0
  8 44  1  0  0  0  0
  9 43  1  0  0  0  0
  9 53  1  0  0  0  0
 10 45  1  0  0  0  0
 10 52  1  0  0  0  0
 11 52  1  0  0  0  0
 11 56  1  0  0  0  0
 12 55  1  0  0  0  0
 12 60  1  0  0  0  0
 13 57  1  0  0  0  0
 13 59  1  0  0  0  0
 14 59  1  0  0  0  0
 14 63  1  0  0  0  0
 15 61  1  0  0  0  0
 15135  1  0  0  0  0
 16 62  1  0  0  0  0
 16 66  1  0  0  0  0
 17 64  1  0  0  0  0
 17139  1  0  0  0  0
 18 19  1  0  0  0  0
 18 20  1  0  0  0  0
 18 27  1  0  0  0  0
 19 23  1  0  0  0  0
 19 24  1  0  0  0  0
 19 32  1  0  0  0  0
 20 21  1  0  0  0  0
 20 28  1  0  0  0  0
 21 22  1  0  0  0  0
 21 25  1  0  0  0  0
 21 67  1  0  0  0  0
 22 26  1  0  0  0  0
 22 31  1  0  0  0  0
 22 34  1  0  0  0  0
 23 29  1  0  0  0  0
 23 35  1  0  0  0  0
 24 25  1  0  0  0  0
 24 68  1  0  0  0  0
 25 69  1  0  0  0  0
 25 70  1  0  0  0  0
 26 30  1  0  0  0  0
 26 33  1  0  0  0  0
 26 71  1  0  0  0  0
 27 29  1  0  0  0  0
 27 72  1  0  0  0  0
 27 73  1  0  0  0  0
 28 30  1  0  0  0  0
 28 74  1  0  0  0  0
 28 75  1  0  0  0  0
 29 76  1  0  0  0  0
 29 77  1  0  0  0  0
 30 78  1  0  0  0  0
 30 79  1  0  0  0  0
 31 36  1  0  0  0  0
 31 80  1  0  0  0  0
 31 81  1  0  0  0  0
 32 82  1  0  0  0  0
 32 83  1  0  0  0  0
 32 84  1  0  0  0  0
 33 37  1  0  0  0  0
 33 85  1  0  0  0  0
 33 86  1  0  0  0  0
 34 87  1  0  0  0  0
 34 88  1  0  0  0  0
 34 89  1  0  0  0  0
 35 38  1  0  0  0  0
 35 90  1  0  0  0  0
 36 37  1  0  0  0  0
 36 91  1  0  0  0  0
 36 92  1  0  0  0  0
 37 95  1  0  0  0  0
 38 97  1  0  0  0  0
 38 98  1  0  0  0  0
 38 99  1  0  0  0  0
 39 41  1  0  0  0  0
 40 42  1  0  0  0  0
 40101  1  0  0  0  0
 41 46  2  0  0  0  0
 41 47  1  0  0  0  0
 42 43  1  0  0  0  0
 42102  1  0  0  0  0
 42103  1  0  0  0  0
 43 45  1  0  0  0  0
 43104  1  0  0  0  0
 44 45  1  0  0  0  0
 44 48  1  0  0  0  0
 44105  1  0  0  0  0
 45106  1  0  0  0  0
 46 49  1  0  0  0  0
 46107  1  0  0  0  0
 47 50  2  0  0  0  0
 47108  1  0  0  0  0
 48109  1  0  0  0  0
 48110  1  0  0  0  0
 48111  1  0  0  0  0
 49 51  2  0  0  0  0
 49112  1  0  0  0  0
 50 51  1  0  0  0  0
 50113  1  0  0  0  0
 51114  1  0  0  0  0
 52 54  1  0  0  0  0
 52115  1  0  0  0  0
 53116  1  0  0  0  0
 53117  1  0  0  0  0
 53118  1  0  0  0  0
 54 55  1  0  0  0  0
 54119  1  0  0  0  0
 54120  1  0  0  0  0
 55 57  1  0  0  0  0
 55121  1  0  0  0  0
 56 57  1  0  0  0  0
 56 58  1  0  0  0  0
 56122  1  0  0  0  0
 57123  1  0  0  0  0
 58124  1  0  0  0  0
 58125  1  0  0  0  0
 58126  1  0  0  0  0
 59 61  1  0  0  0  0
 59127  1  0  0  0  0
 60128  1  0  0  0  0
 60129  1  0  0  0  0
 60130  1  0  0  0  0
 61 62  1  0  0  0  0
 61131  1  0  0  0  0
 62 64  1  0  0  0  0
 62132  1  0  0  0  0
 63 64  1  0  0  0  0
 63 65  1  0  0  0  0
 63133  1  0  0  0  0
 64134  1  0  0  0  0
 65136  1  0  0  0  0
 65137  1  0  0  0  0
 65138  1  0  0  0  0
 66140  1  0  0  0  0
 66141  1  0  0  0  0
 66142  1  0  0  0  0
M  END
> <PUBCHEM_COMPOUND_CID>
3083306

> <PUBCHEM_COMPOUND_CANONICALIZED>
1

> <PUBCHEM_CACTVS_COMPLEXITY>
1670

> <PUBCHEM_CACTVS_HBOND_ACCEPTOR>
17

> <PUBCHEM_CACTVS_HBOND_DONOR>
6

> <PUBCHEM_CACTVS_ROTATABLE_BOND>
13

> <PUBCHEM_CACTVS_SUBSKEYS>
AAADcfB8PgAAAAAAAAAAAAAAAAAAAYAAAAA0aNGCAAAAAGDBAAAAGgAACAAAD1SwmAMyCIAABgCIAiDSCAACAAAkAAAIiAEACMgZNjKANRiicQAlwAEPqYfI6PyPgAAAAAAAAADCAAYQADCAAYQADAAAAA==

> <PUBCHEM_IUPAC_OPENEYE_NAME>
[3-[5-[5-(3,5-dihydroxy-4-methoxy-6-methyl-tetrahydropyran-2-yl)oxy-4-methoxy-6-methyl-tetrahydropyran-2-yl]oxy-4-methoxy-6-methyl-tetrahydropyran-2-yl]oxy-8,14,17-trihydroxy-17-(1-hydroxyethyl)-10,13-dimethyl-1,2,3,4,5,6,7,9,11,12,15,16-dodecahydrocyclopenta[a]phenanthren-12-yl] benzoate

> <PUBCHEM_IUPAC_CAS_NAME>
benzoic acid [3-[[5-[[5-[(3,5-dihydroxy-4-methoxy-6-methyl-2-oxanyl)oxy]-4-methoxy-6-methyl-2-oxanyl]oxy]-4-methoxy-6-methyl-2-oxanyl]oxy]-8,14,17-trihydroxy-17-(1-hydroxyethyl)-10,13-dimethyl-1,2,3,4,5,6,7,9,11,12,15,16-dodecahydrocyclopenta[a]phenanthren-12-yl] ester

> <PUBCHEM_IUPAC_NAME_MARKUP>
[3-[5-[5-(3,5-dihydroxy-4-methoxy-6-methyloxan-2-yl)oxy-4-methoxy-6-methyloxan-2-yl]oxy-4-methoxy-6-methyloxan-2-yl]oxy-8,14,17-trihydroxy-17-(1-hydroxyethyl)-10,13-dimethyl-1,2,3,4,5,6,7,9,11,12,15,16-dodecahydrocyclopenta[a]phenanthren-12-yl] benzoate

> <PUBCHEM_IUPAC_NAME>
[3-[5-[5-(3,5-dihydroxy-4-methoxy-6-methyloxan-2-yl)oxy-4-methoxy-6-methyloxan-2-yl]oxy-4-methoxy-6-methyloxan-2-yl]oxy-8,14,17-trihydroxy-17-(1-hydroxyethyl)-10,13-dimethyl-1,2,3,4,5,6,7,9,11,12,15,16-dodecahydrocyclopenta[a]phenanthren-12-yl] benzoate

> <PUBCHEM_IUPAC_SYSTEMATIC_NAME>
[17-(1-hydroxyethyl)-3-[4-methoxy-5-[4-methoxy-5-[4-methoxy-6-methyl-3,5-bis(oxidanyl)oxan-2-yl]oxy-6-methyl-oxan-2-yl]oxy-6-methyl-oxan-2-yl]oxy-10,13-dimethyl-8,14,17-tris(oxidanyl)-1,2,3,4,5,6,7,9,11,12,15,16-dodecahydrocyclopenta[a]phenanthren-12-yl] benzoate

> <PUBCHEM_IUPAC_TRADITIONAL_NAME>
benzoic acid [3-[5-[5-(3,5-dihydroxy-4-methoxy-6-methyl-tetrahydropyran-2-yl)oxy-4-methoxy-6-methyl-tetrahydropyran-2-yl]oxy-4-methoxy-6-methyl-tetrahydropyran-2-yl]oxy-8,14,17-trihydroxy-17-(1-hydroxyethyl)-10,13-dimethyl-1,2,3,4,5,6,7,9,11,12,15,16-dodecahydrocyclopenta[a]phenanthren-12-yl] ester

> <PUBCHEM_IUPAC_INCHI>
InChI=1S/C49H76O17/c1-25-38(51)42(59-9)39(52)44(62-25)66-41-27(3)61-37(23-33(41)58-8)65-40-26(2)60-36(22-32(40)57-7)63-31-16-17-45(5)30(21-31)15-18-48(55)34(45)24-35(64-43(53)29-13-11-10-12-14-29)46(6)47(54,28(4)50)19-20-49(46,48)56/h10-14,25-28,30-42,44,50-52,54-56H,15-24H2,1-9H3

> <PUBCHEM_IUPAC_INCHIKEY>
OVOSPCKCJQHZPN-UHFFFAOYSA-N

> <PUBCHEM_XLOGP3_AA>
2.6

> <PUBCHEM_EXACT_MASS>
936.508251

> <PUBCHEM_MOLECULAR_FORMULA>
C49H76O17

> <PUBCHEM_MOLECULAR_WEIGHT>
937.1

> <PUBCHEM_OPENEYE_CAN_SMILES>
CC1C(C(C(C(O1)OC2C(OC(CC2OC)OC3C(OC(CC3OC)OC4CCC5(C(C4)CCC6(C5CC(C7(C6(CCC7(C(C)O)O)O)C)OC(=O)C8=CC=CC=C8)O)C)C)C)O)OC)O

> <PUBCHEM_OPENEYE_ISO_SMILES>
CC1C(C(C(C(O1)OC2C(OC(CC2OC)OC3C(OC(CC3OC)OC4CCC5(C(C4)CCC6(C5CC(C7(C6(CCC7(C(C)O)O)O)C)OC(=O)C8=CC=CC=C8)O)C)C)C)O)OC)O

> <PUBCHEM_CACTVS_TPSA>
231

> <PUBCHEM_MONOISOTOPIC_WEIGHT>
936.508251

> <PUBCHEM_TOTAL_CHARGE>
0

> <PUBCHEM_HEAVY_ATOM_COUNT>
66

> <PUBCHEM_ATOM_DEF_STEREO_COUNT>
0

> <PUBCHEM_ATOM_UDEF_STEREO_COUNT>
23

> <PUBCHEM_BOND_DEF_STEREO_COUNT>
0

> <PUBCHEM_BOND_UDEF_STEREO_COUNT>
0

> <PUBCHEM_ISOTOPIC_ATOM_COUNT>
0

> <PUBCHEM_COMPONENT_COUNT>
1

> <PUBCHEM_CACTVS_TAUTO_COUNT>
-1

> <PUBCHEM_COORDINATE_TYPE>
1
5
255

> <PUBCHEM_BONDANNOTATIONS>
18  1  3
45  10  3
52  10  3
55  12  3
57  13  3
59  13  3
61  15  3
62  16  3
64  17  3
19  32  3
20  2  3
21  25  3
22  34  3
26  30  3
24  3  3
23  4  3
41  46  8
41  47  8
44  48  3
46  49  8
47  50  8
49  51  8
35  5  3
50  51  8
56  58  3
37  6  3
40  6  3
63  65  3
43  9  3

$$$$
