129908867
  -OEChem-09092001302D

150156  0     1  0  0  0  0  0999 V2000
   13.0890    5.3441    0.0000 O   0  0  0  0  0  0  0  0  0  0  0  0
   13.9415    1.8408    0.0000 O   0  0  0  0  0  0  0  0  0  0  0  0
   15.6774    2.8341    0.0000 O   0  0  0  0  0  0  0  0  0  0  0  0
    9.4651    1.2136    0.0000 O   0  0  0  0  0  0  0  0  0  0  0  0
   17.2502    4.6380    0.0000 O   0  0  0  0  0  0  0  0  0  0  0  0
    8.5991   -0.2864    0.0000 O   0  0  0  0  0  0  0  0  0  0  0  0
   15.6735    1.8341    0.0000 O   0  0  0  0  0  0  0  0  0  0  0  0
   17.1807    3.6943    0.0000 O   0  0  0  0  0  0  0  0  0  0  0  0
   11.1972   -1.7864    0.0000 O   0  0  0  0  0  0  0  0  0  0  0  0
    9.4651   -2.7864    0.0000 O   0  0  0  0  0  0  0  0  0  0  0  0
    7.7331   -2.7864    0.0000 O   0  0  0  0  0  0  0  0  0  0  0  0
    9.4651   -4.7864    0.0000 O   0  0  0  0  0  0  0  0  0  0  0  0
    7.7331   -5.7864    0.0000 O   0  0  0  0  0  0  0  0  0  0  0  0
    6.0010   -4.7864    0.0000 O   0  0  0  0  0  0  0  0  0  0  0  0
    5.1350   -3.2864    0.0000 O   0  0  0  0  0  0  0  0  0  0  0  0
    4.2690   -5.7864    0.0000 O   0  0  0  0  0  0  0  0  0  0  0  0
    2.5369   -4.7864    0.0000 O   0  0  0  0  0  0  0  0  0  0  0  0
    2.5369   -2.7864    0.0000 O   0  0  0  0  0  0  0  0  0  0  0  0
    5.1350   -1.2864    0.0000 O   0  0  0  0  0  0  0  0  0  0  0  0
   13.9531    4.8408    0.0000 C   0  0  1  0  0  0  0  0  0  0  0  0
   13.0851    4.3441    0.0000 C   0  0  1  0  0  0  0  0  0  0  0  0
   13.0813    3.3441    0.0000 C   0  0  1  0  0  0  0  0  0  0  0  0
   14.8172    4.3374    0.0000 C   0  0  2  0  0  0  0  0  0  0  0  0
   12.1853    2.8129    0.0000 C   0  0  2  0  0  0  0  0  0  0  0  0
   13.9454    2.8408    0.0000 C   0  0  1  0  0  0  0  0  0  0  0  0
   14.8133    3.3374    0.0000 C   0  0  1  0  0  0  0  0  0  0  0  0
   11.2812    3.3302    0.0000 C   0  0  1  0  0  0  0  0  0  0  0  0
   15.5567    5.0017    0.0000 C   0  0  2  0  0  0  0  0  0  0  0  0
   12.1932    4.8822    0.0000 C   0  0  0  0  0  0  0  0  0  0  0  0
   14.1660    5.8118    0.0000 C   0  0  0  0  0  0  0  0  0  0  0  0
   11.2852    4.3718    0.0000 C   0  0  0  0  0  0  0  0  0  0  0  0
   15.1551    5.9110    0.0000 C   0  0  0  0  0  0  0  0  0  0  0  0
   12.2062    1.7281    0.0000 C   0  0  0  0  0  0  0  0  0  0  0  0
   10.3353    2.7986    0.0000 C   0  0  0  0  0  0  0  0  0  0  0  0
   15.6812    3.8341    0.0000 C   0  0  0  0  0  0  0  0  0  0  0  0
   13.0532    2.3162    0.0000 C   0  0  0  0  0  0  0  0  0  0  0  0
   11.2729    1.1748    0.0000 C   0  0  0  0  0  0  0  0  0  0  0  0
   10.3312    1.7136    0.0000 C   0  0  2  0  0  0  0  0  0  0  0  0
   16.5084    5.3086    0.0000 C   0  0  0  0  0  0  0  0  0  0  0  0
   16.7184    6.2864    0.0000 C   0  0  0  0  0  0  0  0  0  0  0  0
   14.8056    1.3374    0.0000 C   0  0  0  0  0  0  0  0  0  0  0  0
   16.6774    2.8302    0.0000 C   0  0  0  0  0  0  0  0  0  0  0  0
    9.4651    0.2136    0.0000 C   0  0  2  0  0  0  0  0  0  0  0  0
   14.8017    0.3374    0.0000 C   0  0  0  0  0  0  0  0  0  0  0  0
   17.1740    1.9623    0.0000 C   0  0  0  0  0  0  0  0  0  0  0  0
   10.3312   -0.2864    0.0000 C   0  0  0  0  0  0  0  0  0  0  0  0
   10.3312   -1.2864    0.0000 C   0  0  2  0  0  0  0  0  0  0  0  0
    8.5991   -1.2864    0.0000 C   0  0  3  0  0  0  0  0  0  0  0  0
    9.4651   -1.7864    0.0000 C   0  0  1  0  0  0  0  0  0  0  0  0
   15.6658   -0.1659    0.0000 C   0  0  0  0  0  0  0  0  0  0  0  0
   18.1740    1.9584    0.0000 C   0  0  0  0  0  0  0  0  0  0  0  0
   13.9338   -0.1592    0.0000 C   0  0  0  0  0  0  0  0  0  0  0  0
   16.6707    1.0982    0.0000 C   0  0  0  0  0  0  0  0  0  0  0  0
    7.7331   -1.7864    0.0000 C   0  0  0  0  0  0  0  0  0  0  0  0
   13.9299   -1.1592    0.0000 C   0  0  0  0  0  0  0  0  0  0  0  0
   17.1674    0.2303    0.0000 C   0  0  0  0  0  0  0  0  0  0  0  0
    8.5991   -3.2864    0.0000 C   0  0  2  0  0  0  0  0  0  0  0  0
   12.0632   -1.2864    0.0000 C   0  0  0  0  0  0  0  0  0  0  0  0
    8.5991   -4.2864    0.0000 C   0  0  3  0  0  0  0  0  0  0  0  0
    7.7331   -4.7864    0.0000 C   0  0  2  0  0  0  0  0  0  0  0  0
    6.8671   -3.2864    0.0000 C   0  0  3  0  0  0  0  0  0  0  0  0
    6.8671   -4.2864    0.0000 C   0  0  1  0  0  0  0  0  0  0  0  0
    6.0010   -2.7864    0.0000 C   0  0  0  0  0  0  0  0  0  0  0  0
    5.1350   -4.2864    0.0000 C   0  0  2  0  0  0  0  0  0  0  0  0
    8.5991   -6.2864    0.0000 C   0  0  0  0  0  0  0  0  0  0  0  0
    4.2690   -4.7864    0.0000 C   0  0  3  0  0  0  0  0  0  0  0  0
    3.4030   -4.2864    0.0000 C   0  0  2  0  0  0  0  0  0  0  0  0
    4.2690   -2.7864    0.0000 C   0  0  3  0  0  0  0  0  0  0  0  0
    3.4030   -3.2864    0.0000 C   0  0  1  0  0  0  0  0  0  0  0  0
    4.2690   -1.7864    0.0000 C   0  0  0  0  0  0  0  0  0  0  0  0
   13.8196    3.9163    0.0000 H   0  0  0  0  0  0  0  0  0  0  0  0
   13.8190    3.7663    0.0000 H   0  0  0  0  0  0  0  0  0  0  0  0
   13.4072    2.5328    0.0000 H   0  0  0  0  0  0  0  0  0  0  0  0
   14.8109    2.7174    0.0000 H   0  0  0  0  0  0  0  0  0  0  0  0
   10.5484    3.7609    0.0000 H   0  0  0  0  0  0  0  0  0  0  0  0
   15.8658    4.4642    0.0000 H   0  0  0  0  0  0  0  0  0  0  0  0
   12.5997    5.3504    0.0000 H   0  0  0  0  0  0  0  0  0  0  0  0
   11.8015    5.3627    0.0000 H   0  0  0  0  0  0  0  0  0  0  0  0
   14.1693    6.4318    0.0000 H   0  0  0  0  0  0  0  0  0  0  0  0
   13.5498    5.8802    0.0000 H   0  0  0  0  0  0  0  0  0  0  0  0
   11.0784    4.9563    0.0000 H   0  0  0  0  0  0  0  0  0  0  0  0
   10.6739    4.2681    0.0000 H   0  0  0  0  0  0  0  0  0  0  0  0
   15.7455    6.1005    0.0000 H   0  0  0  0  0  0  0  0  0  0  0  0
   15.0287    6.5180    0.0000 H   0  0  0  0  0  0  0  0  0  0  0  0
   12.4264    1.1485    0.0000 H   0  0  0  0  0  0  0  0  0  0  0  0
   12.8149    1.8459    0.0000 H   0  0  0  0  0  0  0  0  0  0  0  0
   10.1285    3.3831    0.0000 H   0  0  0  0  0  0  0  0  0  0  0  0
    9.7241    2.6949    0.0000 H   0  0  0  0  0  0  0  0  0  0  0  0
   15.3692    3.2984    0.0000 H   0  0  0  0  0  0  0  0  0  0  0  0
   16.2170    3.5220    0.0000 H   0  0  0  0  0  0  0  0  0  0  0  0
   15.9933    4.3698    0.0000 H   0  0  0  0  0  0  0  0  0  0  0  0
   12.7453    1.7781    0.0000 H   0  0  0  0  0  0  0  0  0  0  0  0
   13.5913    2.0083    0.0000 H   0  0  0  0  0  0  0  0  0  0  0  0
   13.3611    2.8544    0.0000 H   0  0  0  0  0  0  0  0  0  0  0  0
   10.8774    0.6973    0.0000 H   0  0  0  0  0  0  0  0  0  0  0  0
   11.6757    0.7034    0.0000 H   0  0  0  0  0  0  0  0  0  0  0  0
    9.7948    2.0247    0.0000 H   0  0  0  0  0  0  0  0  0  0  0  0
   13.0914    5.9641    0.0000 H   0  0  0  0  0  0  0  0  0  0  0  0
   17.3246    6.1562    0.0000 H   0  0  0  0  0  0  0  0  0  0  0  0
   16.8486    6.8925    0.0000 H   0  0  0  0  0  0  0  0  0  0  0  0
   16.1123    6.4166    0.0000 H   0  0  0  0  0  0  0  0  0  0  0  0
   10.0021    0.5236    0.0000 H   0  0  0  0  0  0  0  0  0  0  0  0
   10.9417   -0.3940    0.0000 H   0  0  0  0  0  0  0  0  0  0  0  0
   10.5432    0.2963    0.0000 H   0  0  0  0  0  0  0  0  0  0  0  0
   10.8681   -0.9764    0.0000 H   0  0  0  0  0  0  0  0  0  0  0  0
    8.0622   -0.9764    0.0000 H   0  0  0  0  0  0  0  0  0  0  0  0
   10.0021   -2.0964    0.0000 H   0  0  0  0  0  0  0  0  0  0  0  0
   15.3538   -0.7016    0.0000 H   0  0  0  0  0  0  0  0  0  0  0  0
   16.2016   -0.4780    0.0000 H   0  0  0  0  0  0  0  0  0  0  0  0
   15.9779    0.3699    0.0000 H   0  0  0  0  0  0  0  0  0  0  0  0
   18.1716    1.3384    0.0000 H   0  0  0  0  0  0  0  0  0  0  0  0
   18.7940    1.9560    0.0000 H   0  0  0  0  0  0  0  0  0  0  0  0
   18.1764    2.5784    0.0000 H   0  0  0  0  0  0  0  0  0  0  0  0
   13.3981    0.1529    0.0000 H   0  0  0  0  0  0  0  0  0  0  0  0
   16.0507    1.1006    0.0000 H   0  0  0  0  0  0  0  0  0  0  0  0
    7.4231   -1.2494    0.0000 H   0  0  0  0  0  0  0  0  0  0  0  0
    7.1962   -2.0964    0.0000 H   0  0  0  0  0  0  0  0  0  0  0  0
    8.0431   -2.3233    0.0000 H   0  0  0  0  0  0  0  0  0  0  0  0
   13.3099   -1.1568    0.0000 H   0  0  0  0  0  0  0  0  0  0  0  0
   13.9275   -1.7792    0.0000 H   0  0  0  0  0  0  0  0  0  0  0  0
   14.5499   -1.1616    0.0000 H   0  0  0  0  0  0  0  0  0  0  0  0
   16.6292   -0.0777    0.0000 H   0  0  0  0  0  0  0  0  0  0  0  0
   17.4753   -0.3079    0.0000 H   0  0  0  0  0  0  0  0  0  0  0  0
   17.7055    0.5382    0.0000 H   0  0  0  0  0  0  0  0  0  0  0  0
    8.5991   -2.6664    0.0000 H   0  0  0  0  0  0  0  0  0  0  0  0
   12.3732   -1.8233    0.0000 H   0  0  0  0  0  0  0  0  0  0  0  0
   12.6002   -0.9764    0.0000 H   0  0  0  0  0  0  0  0  0  0  0  0
   11.7532   -0.7494    0.0000 H   0  0  0  0  0  0  0  0  0  0  0  0
    8.5991   -4.9064    0.0000 H   0  0  0  0  0  0  0  0  0  0  0  0
    7.1962   -5.0964    0.0000 H   0  0  0  0  0  0  0  0  0  0  0  0
    6.8671   -2.6664    0.0000 H   0  0  0  0  0  0  0  0  0  0  0  0
    6.3301   -3.9764    0.0000 H   0  0  0  0  0  0  0  0  0  0  0  0
   10.0021   -4.4764    0.0000 H   0  0  0  0  0  0  0  0  0  0  0  0
    6.3110   -2.2494    0.0000 H   0  0  0  0  0  0  0  0  0  0  0  0
    5.4641   -2.4764    0.0000 H   0  0  0  0  0  0  0  0  0  0  0  0
    5.6910   -3.3233    0.0000 H   0  0  0  0  0  0  0  0  0  0  0  0
    5.1350   -4.9064    0.0000 H   0  0  0  0  0  0  0  0  0  0  0  0
    8.2891   -6.8233    0.0000 H   0  0  0  0  0  0  0  0  0  0  0  0
    9.1360   -6.5964    0.0000 H   0  0  0  0  0  0  0  0  0  0  0  0
    8.9091   -5.7494    0.0000 H   0  0  0  0  0  0  0  0  0  0  0  0
    3.7320   -5.0964    0.0000 H   0  0  0  0  0  0  0  0  0  0  0  0
    2.8660   -3.9764    0.0000 H   0  0  0  0  0  0  0  0  0  0  0  0
    4.8059   -2.4764    0.0000 H   0  0  0  0  0  0  0  0  0  0  0  0
    3.4030   -2.6664    0.0000 H   0  0  0  0  0  0  0  0  0  0  0  0
    3.7320   -6.0964    0.0000 H   0  0  0  0  0  0  0  0  0  0  0  0
    4.0569   -1.2038    0.0000 H   0  0  0  0  0  0  0  0  0  0  0  0
    3.6584   -1.8940    0.0000 H   0  0  0  0  0  0  0  0  0  0  0  0
    2.0000   -4.4764    0.0000 H   0  0  0  0  0  0  0  0  0  0  0  0
    2.5369   -2.1664    0.0000 H   0  0  0  0  0  0  0  0  0  0  0  0
    5.1350   -0.6664    0.0000 H   0  0  0  0  0  0  0  0  0  0  0  0
 20  1  1  6  0  0  0
  1 98  1  0  0  0  0
 25  2  1  1  0  0  0
  2 41  1  0  0  0  0
 26  3  1  6  0  0  0
  3 42  1  0  0  0  0
 38  4  1  6  0  0  0
 43  4  1  1  0  0  0
  5 39  2  0  0  0  0
  6 43  1  0  0  0  0
  6 48  1  0  0  0  0
  7 41  2  0  0  0  0
  8 42  2  0  0  0  0
 47  9  1  1  0  0  0
  9 58  1  0  0  0  0
 49 10  1  6  0  0  0
 57 10  1  1  0  0  0
 11 57  1  0  0  0  0
 11 61  1  0  0  0  0
 12 59  1  0  0  0  0
 12133  1  0  0  0  0
 60 13  1  1  0  0  0
 13 65  1  0  0  0  0
 62 14  1  6  0  0  0
 64 14  1  1  0  0  0
 15 64  1  0  0  0  0
 15 68  1  0  0  0  0
 16 66  1  0  0  0  0
 16145  1  0  0  0  0
 67 17  1  1  0  0  0
 17148  1  0  0  0  0
 69 18  1  6  0  0  0
 18149  1  0  0  0  0
 19 70  1  0  0  0  0
 19150  1  0  0  0  0
 20 21  1  0  0  0  0
 20 23  1  0  0  0  0
 20 30  1  0  0  0  0
 21 22  1  0  0  0  0
 21 29  1  0  0  0  0
 21 71  1  6  0  0  0
 22 24  1  0  0  0  0
 22 25  1  0  0  0  0
 22 72  1  1  0  0  0
 23 26  1  0  0  0  0
 23 28  1  0  0  0  0
 23 35  1  6  0  0  0
 24 27  1  0  0  0  0
 24 33  1  0  0  0  0
 24 36  1  6  0  0  0
 25 26  1  0  0  0  0
 25 73  1  0  0  0  0
 26 74  1  0  0  0  0
 27 31  1  0  0  0  0
 27 34  1  0  0  0  0
 27 75  1  1  0  0  0
 28 32  1  0  0  0  0
 28 39  1  6  0  0  0
 28 76  1  0  0  0  0
 29 31  1  0  0  0  0
 29 77  1  0  0  0  0
 29 78  1  0  0  0  0
 30 32  1  0  0  0  0
 30 79  1  0  0  0  0
 30 80  1  0  0  0  0
 31 81  1  0  0  0  0
 31 82  1  0  0  0  0
 32 83  1  0  0  0  0
 32 84  1  0  0  0  0
 33 37  1  0  0  0  0
 33 85  1  0  0  0  0
 33 86  1  0  0  0  0
 34 38  1  0  0  0  0
 34 87  1  0  0  0  0
 34 88  1  0  0  0  0
 35 89  1  0  0  0  0
 35 90  1  0  0  0  0
 35 91  1  0  0  0  0
 36 92  1  0  0  0  0
 36 93  1  0  0  0  0
 36 94  1  0  0  0  0
 37 38  1  0  0  0  0
 37 95  1  0  0  0  0
 37 96  1  0  0  0  0
 38 97  1  0  0  0  0
 39 40  1  0  0  0  0
 40 99  1  0  0  0  0
 40100  1  0  0  0  0
 40101  1  0  0  0  0
 41 44  1  0  0  0  0
 42 45  1  0  0  0  0
 43 46  1  0  0  0  0
 43102  1  0  0  0  0
 44 50  1  0  0  0  0
 44 52  2  0  0  0  0
 45 51  1  0  0  0  0
 45 53  2  0  0  0  0
 46 47  1  0  0  0  0
 46103  1  0  0  0  0
 46104  1  0  0  0  0
 47 49  1  0  0  0  0
 47105  1  0  0  0  0
 48 49  1  0  0  0  0
 48 54  1  0  0  0  0
 48106  1  0  0  0  0
 49107  1  0  0  0  0
 50108  1  0  0  0  0
 50109  1  0  0  0  0
 50110  1  0  0  0  0
 51111  1  0  0  0  0
 51112  1  0  0  0  0
 51113  1  0  0  0  0
 52 55  1  0  0  0  0
 52114  1  0  0  0  0
 53 56  1  0  0  0  0
 53115  1  0  0  0  0
 54116  1  0  0  0  0
 54117  1  0  0  0  0
 54118  1  0  0  0  0
 55119  1  0  0  0  0
 55120  1  0  0  0  0
 55121  1  0  0  0  0
 56122  1  0  0  0  0
 56123  1  0  0  0  0
 56124  1  0  0  0  0
 57 59  1  0  0  0  0
 57125  1  0  0  0  0
 58126  1  0  0  0  0
 58127  1  0  0  0  0
 58128  1  0  0  0  0
 59 60  1  0  0  0  0
 59129  1  0  0  0  0
 60 62  1  0  0  0  0
 60130  1  0  0  0  0
 61 62  1  0  0  0  0
 61 63  1  0  0  0  0
 61131  1  0  0  0  0
 62132  1  0  0  0  0
 63134  1  0  0  0  0
 63135  1  0  0  0  0
 63136  1  0  0  0  0
 64 66  1  0  0  0  0
 64137  1  0  0  0  0
 65138  1  0  0  0  0
 65139  1  0  0  0  0
 65140  1  0  0  0  0
 66 67  1  0  0  0  0
 66141  1  0  0  0  0
 67 69  1  0  0  0  0
 67142  1  0  0  0  0
 68 69  1  0  0  0  0
 68 70  1  0  0  0  0
 68143  1  0  0  0  0
 69144  1  0  0  0  0
 70146  1  0  0  0  0
 70147  1  0  0  0  0
M  END
> <PUBCHEM_COMPOUND_CID>
129908867

> <PUBCHEM_COMPOUND_CANONICALIZED>
1

> <PUBCHEM_CACTVS_COMPLEXITY>
1930

> <PUBCHEM_CACTVS_HBOND_ACCEPTOR>
19

> <PUBCHEM_CACTVS_HBOND_DONOR>
6

> <PUBCHEM_CACTVS_ROTATABLE_BOND>
16

> <PUBCHEM_CACTVS_SUBSKEYS>
AAADcfB8PgAAAAAAAAAAAAAAAAAAAYAAAAA0aNECAAAAAGDAAAAAGgAACAAAD1SwgAMCCAAABgCIAqDSCAAAAAAAAAAACAEAAEARFBIAIQAiUAAFAAAHIYHK7PzPgAAAAAAAAADCAAYQADCAAYAADAAAAA==

> <PUBCHEM_IUPAC_OPENEYE_NAME>
[(3S,5S,8R,9S,10S,11S,12S,13S,14S,17S)-17-acetyl-14-hydroxy-3-[(2R,4R,5R)-5-[(2S,4R,5R)-3-hydroxy-4-methoxy-6-methyl-5-[(2S,4S,5S)-3,4,5-trihydroxy-6-(hydroxymethyl)tetrahydropyran-2-yl]oxy-tetrahydropyran-2-yl]oxy-4-methoxy-6-methyl-tetrahydropyran-2-yl]oxy-10,13-dimethyl-12-[(E)-2-methylbut-2-enoyl]oxy-1,2,3,4,5,6,7,8,9,11,12,15,16,17-tetradecahydrocyclopenta[a]phenanthren-11-yl] (E)-2-methylbut-2-enoate

> <PUBCHEM_IUPAC_CAS_NAME>
(E)-2-methyl-2-butenoic acid [(3S,5S,8R,9S,10S,11S,12S,13S,14S,17S)-17-acetyl-14-hydroxy-3-[[(2R,4R,5R)-5-[[(2S,4R,5R)-3-hydroxy-4-methoxy-6-methyl-5-[[(2S,4S,5S)-3,4,5-trihydroxy-6-(hydroxymethyl)-2-oxanyl]oxy]-2-oxanyl]oxy]-4-methoxy-6-methyl-2-oxanyl]oxy]-10,13-dimethyl-12-[(E)-2-methyl-1-oxobut-2-enoxy]-1,2,3,4,5,6,7,8,9,11,12,15,16,17-tetradecahydrocyclopenta[a]phenanthren-11-yl] ester

> <PUBCHEM_IUPAC_NAME_MARKUP>
[(3<I>S</I>,5<I>S</I>,8<I>R</I>,9<I>S</I>,10<I>S</I>,11<I>S</I>,12<I>S</I>,13<I>S</I>,14<I>S</I>,17<I>S</I>)-17-acetyl-14-hydroxy-3-[(2<I>R</I>,4<I>R</I>,5<I>R</I>)-5-[(2<I>S</I>,4<I>R</I>,5<I>R</I>)-3-hydroxy-4-methoxy-6-methyl-5-[(2<I>S</I>,4<I>S</I>,5<I>S</I>)-3,4,5-trihydroxy-6-(hydroxymethyl)oxan-2-yl]oxyoxan-2-yl]oxy-4-methoxy-6-methyloxan-2-yl]oxy-10,13-dimethyl-12-[(<I>E</I>)-2-methylbut-2-enoyl]oxy-1,2,3,4,5,6,7,8,9,11,12,15,16,17-tetradecahydrocyclopenta[a]phenanthren-11-yl] (<I>E</I>)-2-methylbut-2-enoate

> <PUBCHEM_IUPAC_NAME>
[(3S,5S,8R,9S,10S,11S,12S,13S,14S,17S)-17-acetyl-14-hydroxy-3-[(2R,4R,5R)-5-[(2S,4R,5R)-3-hydroxy-4-methoxy-6-methyl-5-[(2S,4S,5S)-3,4,5-trihydroxy-6-(hydroxymethyl)oxan-2-yl]oxyoxan-2-yl]oxy-4-methoxy-6-methyloxan-2-yl]oxy-10,13-dimethyl-12-[(E)-2-methylbut-2-enoyl]oxy-1,2,3,4,5,6,7,8,9,11,12,15,16,17-tetradecahydrocyclopenta[a]phenanthren-11-yl] (E)-2-methylbut-2-enoate

> <PUBCHEM_IUPAC_SYSTEMATIC_NAME>
[(3S,5S,8R,9S,10S,11S,12S,13S,14S,17S)-17-ethanoyl-3-[(2R,4R,5R)-5-[(2S,4R,5R)-5-[(2S,4S,5S)-6-(hydroxymethyl)-3,4,5-tris(oxidanyl)oxan-2-yl]oxy-4-methoxy-6-methyl-3-oxidanyl-oxan-2-yl]oxy-4-methoxy-6-methyl-oxan-2-yl]oxy-10,13-dimethyl-12-[(E)-2-methylbut-2-enoyl]oxy-14-oxidanyl-1,2,3,4,5,6,7,8,9,11,12,15,16,17-tetradecahydrocyclopenta[a]phenanthren-11-yl] (E)-2-methylbut-2-enoate

> <PUBCHEM_IUPAC_TRADITIONAL_NAME>
(E)-2-methylbut-2-enoic acid [(3S,5S,8R,9S,10S,11S,12S,13S,14S,17S)-17-acetyl-14-hydroxy-3-[(2R,4R,5R)-5-[(2S,4R,5R)-3-hydroxy-4-methoxy-6-methyl-5-[(2S,4S,5S)-3,4,5-trihydroxy-6-methylol-tetrahydropyran-2-yl]oxy-tetrahydropyran-2-yl]oxy-4-methoxy-6-methyl-tetrahydropyran-2-yl]oxy-10,13-dimethyl-12-[(E)-2-methylbut-2-enoyl]oxy-1,2,3,4,5,6,7,8,9,11,12,15,16,17-tetradecahydrocyclopenta[a]phenanthren-11-yl] ester

> <PUBCHEM_IUPAC_INCHI>
InChI=1S/C51H80O19/c1-12-23(3)45(58)67-42-35-31(51(60)19-17-30(25(5)53)50(51,9)44(42)70-46(59)24(4)13-2)15-14-28-20-29(16-18-49(28,35)8)65-34-21-32(61-10)40(26(6)63-34)68-48-39(57)43(62-11)41(27(7)64-48)69-47-38(56)37(55)36(54)33(22-52)66-47/h12-13,26-44,47-48,52,54-57,60H,14-22H2,1-11H3/b23-12+,24-13+/t26?,27?,28-,29-,30+,31+,32+,33?,34-,35+,36+,37-,38?,39?,40+,41+,42-,43+,44+,47-,48-,49-,50-,51-/m0/s1

> <PUBCHEM_IUPAC_INCHIKEY>
BXJJDAXJTSDGCE-XMAHZCNMSA-N

> <PUBCHEM_XLOGP3_AA>
2.9

> <PUBCHEM_EXACT_MASS>
996.52938

> <PUBCHEM_MOLECULAR_FORMULA>
C51H80O19

> <PUBCHEM_MOLECULAR_WEIGHT>
997.2

> <PUBCHEM_OPENEYE_CAN_SMILES>
CC=C(C)C(=O)OC1C2C(CCC3C2(CCC(C3)OC4CC(C(C(O4)C)OC5C(C(C(C(O5)C)OC6C(C(C(C(O6)CO)O)O)O)OC)O)OC)C)C7(CCC(C7(C1OC(=O)C(=CC)C)C)C(=O)C)O

> <PUBCHEM_OPENEYE_ISO_SMILES>
C/C=C(\C)/C(=O)O[C@H]1[C@H]2[C@@H](CC[C@@H]3[C@@]2(CC[C@@H](C3)O[C@H]4C[C@H]([C@@H](C(O4)C)O[C@H]5C([C@H]([C@@H](C(O5)C)O[C@H]6C([C@H]([C@@H](C(O6)CO)O)O)O)OC)O)OC)C)[C@]7(CC[C@@H]([C@]7([C@@H]1OC(=O)/C(=C/C)/C)C)C(=O)C)O

> <PUBCHEM_CACTVS_TPSA>
265

> <PUBCHEM_MONOISOTOPIC_WEIGHT>
996.52938

> <PUBCHEM_TOTAL_CHARGE>
0

> <PUBCHEM_HEAVY_ATOM_COUNT>
70

> <PUBCHEM_ATOM_DEF_STEREO_COUNT>
19

> <PUBCHEM_ATOM_UDEF_STEREO_COUNT>
5

> <PUBCHEM_BOND_DEF_STEREO_COUNT>
2

> <PUBCHEM_BOND_UDEF_STEREO_COUNT>
0

> <PUBCHEM_ISOTOPIC_ATOM_COUNT>
0

> <PUBCHEM_COMPONENT_COUNT>
1

> <PUBCHEM_CACTVS_TAUTO_COUNT>
-1

> <PUBCHEM_COORDINATE_TYPE>
1
5
255

> <PUBCHEM_BONDANNOTATIONS>
20  1  6
49  10  6
57  10  5
59  12  3
60  13  5
62  14  6
64  14  5
66  16  3
67  17  5
69  18  6
25  2  5
21  71  6
22  72  5
23  35  6
24  36  6
27  75  5
28  39  6
26  3  6
38  4  6
43  4  5
48  54  3
61  63  3
68  70  3
47  9  5

$$$$
