129909056
  -OEChem-09092001372D

171179  0     1  0  0  0  0  0999 V2000
   14.8210    5.3441    0.0000 O   0  0  0  0  0  0  0  0  0  0  0  0
   15.6736    1.8408    0.0000 O   0  0  0  0  0  0  0  0  0  0  0  0
   17.4094    2.8341    0.0000 O   0  0  0  0  0  0  0  0  0  0  0  0
   11.1972    1.2136    0.0000 O   0  0  0  0  0  0  0  0  0  0  0  0
   18.9822    4.6380    0.0000 O   0  0  0  0  0  0  0  0  0  0  0  0
   10.3312   -0.2864    0.0000 O   0  0  0  0  0  0  0  0  0  0  0  0
   17.4056    1.8341    0.0000 O   0  0  0  0  0  0  0  0  0  0  0  0
   18.9128    3.6943    0.0000 O   0  0  0  0  0  0  0  0  0  0  0  0
   12.9292   -1.7864    0.0000 O   0  0  0  0  0  0  0  0  0  0  0  0
   11.1972   -2.7864    0.0000 O   0  0  0  0  0  0  0  0  0  0  0  0
    9.4651   -2.7864    0.0000 O   0  0  0  0  0  0  0  0  0  0  0  0
   11.1972   -4.7864    0.0000 O   0  0  0  0  0  0  0  0  0  0  0  0
    9.4651   -5.7864    0.0000 O   0  0  0  0  0  0  0  0  0  0  0  0
    7.7331   -4.7864    0.0000 O   0  0  0  0  0  0  0  0  0  0  0  0
    6.8671   -3.2864    0.0000 O   0  0  0  0  0  0  0  0  0  0  0  0
    6.0010   -5.7864    0.0000 O   0  0  0  0  0  0  0  0  0  0  0  0
    4.2690   -2.7864    0.0000 O   0  0  0  0  0  0  0  0  0  0  0  0
    4.2690   -4.7864    0.0000 O   0  0  0  0  0  0  0  0  0  0  0  0
    6.8671   -1.2864    0.0000 O   0  0  0  0  0  0  0  0  0  0  0  0
    5.1350   -1.2864    0.0000 O   0  0  0  0  0  0  0  0  0  0  0  0
    2.5369   -1.7864    0.0000 O   0  0  0  0  0  0  0  0  0  0  0  0
    2.5369    0.2136    0.0000 O   0  0  0  0  0  0  0  0  0  0  0  0
    4.2690    1.2136    0.0000 O   0  0  0  0  0  0  0  0  0  0  0  0
    6.0010    1.2136    0.0000 O   0  0  0  0  0  0  0  0  0  0  0  0
   15.6851    4.8408    0.0000 C   0  0  1  0  0  0  0  0  0  0  0  0
   14.8172    4.3441    0.0000 C   0  0  1  0  0  0  0  0  0  0  0  0
   14.8133    3.3441    0.0000 C   0  0  1  0  0  0  0  0  0  0  0  0
   16.5492    4.3374    0.0000 C   0  0  2  0  0  0  0  0  0  0  0  0
   13.9173    2.8129    0.0000 C   0  0  2  0  0  0  0  0  0  0  0  0
   15.6774    2.8408    0.0000 C   0  0  1  0  0  0  0  0  0  0  0  0
   16.5454    3.3374    0.0000 C   0  0  1  0  0  0  0  0  0  0  0  0
   13.0132    3.3302    0.0000 C   0  0  1  0  0  0  0  0  0  0  0  0
   17.2888    5.0017    0.0000 C   0  0  2  0  0  0  0  0  0  0  0  0
   13.9253    4.8822    0.0000 C   0  0  0  0  0  0  0  0  0  0  0  0
   15.8981    5.8118    0.0000 C   0  0  0  0  0  0  0  0  0  0  0  0
   13.0173    4.3718    0.0000 C   0  0  0  0  0  0  0  0  0  0  0  0
   16.8872    5.9110    0.0000 C   0  0  0  0  0  0  0  0  0  0  0  0
   13.9382    1.7281    0.0000 C   0  0  0  0  0  0  0  0  0  0  0  0
   12.0674    2.7986    0.0000 C   0  0  0  0  0  0  0  0  0  0  0  0
   17.4133    3.8341    0.0000 C   0  0  0  0  0  0  0  0  0  0  0  0
   14.7853    2.3162    0.0000 C   0  0  0  0  0  0  0  0  0  0  0  0
   13.0049    1.1748    0.0000 C   0  0  0  0  0  0  0  0  0  0  0  0
   12.0632    1.7136    0.0000 C   0  0  2  0  0  0  0  0  0  0  0  0
   18.2405    5.3086    0.0000 C   0  0  0  0  0  0  0  0  0  0  0  0
   18.4505    6.2864    0.0000 C   0  0  0  0  0  0  0  0  0  0  0  0
   16.5376    1.3374    0.0000 C   0  0  0  0  0  0  0  0  0  0  0  0
   18.4094    2.8302    0.0000 C   0  0  0  0  0  0  0  0  0  0  0  0
   11.1972    0.2136    0.0000 C   0  0  2  0  0  0  0  0  0  0  0  0
   16.5338    0.3374    0.0000 C   0  0  0  0  0  0  0  0  0  0  0  0
   18.9061    1.9623    0.0000 C   0  0  0  0  0  0  0  0  0  0  0  0
   12.0632   -0.2864    0.0000 C   0  0  0  0  0  0  0  0  0  0  0  0
   12.0632   -1.2864    0.0000 C   0  0  2  0  0  0  0  0  0  0  0  0
   10.3312   -1.2864    0.0000 C   0  0  3  0  0  0  0  0  0  0  0  0
   11.1972   -1.7864    0.0000 C   0  0  1  0  0  0  0  0  0  0  0  0
   17.3979   -0.1659    0.0000 C   0  0  0  0  0  0  0  0  0  0  0  0
   15.6658   -0.1592    0.0000 C   0  0  0  0  0  0  0  0  0  0  0  0
   19.9061    1.9584    0.0000 C   0  0  0  0  0  0  0  0  0  0  0  0
   18.4028    1.0982    0.0000 C   0  0  0  0  0  0  0  0  0  0  0  0
    9.4651   -1.7864    0.0000 C   0  0  0  0  0  0  0  0  0  0  0  0
   20.4027    1.0905    0.0000 C   0  0  0  0  0  0  0  0  0  0  0  0
   18.8994    0.2303    0.0000 C   0  0  0  0  0  0  0  0  0  0  0  0
   15.6620   -1.1592    0.0000 C   0  0  0  0  0  0  0  0  0  0  0  0
   19.8994    0.2264    0.0000 C   0  0  0  0  0  0  0  0  0  0  0  0
   10.3312   -3.2864    0.0000 C   0  0  2  0  0  0  0  0  0  0  0  0
   13.7953   -1.2864    0.0000 C   0  0  0  0  0  0  0  0  0  0  0  0
   10.3312   -4.2864    0.0000 C   0  0  3  0  0  0  0  0  0  0  0  0
    9.4651   -4.7864    0.0000 C   0  0  2  0  0  0  0  0  0  0  0  0
    8.5991   -3.2864    0.0000 C   0  0  3  0  0  0  0  0  0  0  0  0
    8.5991   -4.2864    0.0000 C   0  0  1  0  0  0  0  0  0  0  0  0
    7.7331   -2.7864    0.0000 C   0  0  0  0  0  0  0  0  0  0  0  0
    6.8671   -4.2864    0.0000 C   0  0  2  0  0  0  0  0  0  0  0  0
   10.3312   -6.2864    0.0000 C   0  0  0  0  0  0  0  0  0  0  0  0
    6.0010   -4.7864    0.0000 C   0  0  3  0  0  0  0  0  0  0  0  0
    5.1350   -4.2864    0.0000 C   0  0  2  0  0  0  0  0  0  0  0  0
    6.0010   -2.7864    0.0000 C   0  0  3  0  0  0  0  0  0  0  0  0
    5.1350   -3.2864    0.0000 C   0  0  1  0  0  0  0  0  0  0  0  0
    6.0010   -1.7864    0.0000 C   0  0  0  0  0  0  0  0  0  0  0  0
    4.2690   -1.7864    0.0000 C   0  0  2  0  0  0  0  0  0  0  0  0
    3.4030   -1.2864    0.0000 C   0  0  3  0  0  0  0  0  0  0  0  0
    3.4030   -0.2864    0.0000 C   0  0  2  0  0  0  0  0  0  0  0  0
    5.1350   -0.2864    0.0000 C   0  0  3  0  0  0  0  0  0  0  0  0
    4.2690    0.2136    0.0000 C   0  0  1  0  0  0  0  0  0  0  0  0
    6.0010    0.2136    0.0000 C   0  0  0  0  0  0  0  0  0  0  0  0
   15.5516    3.9163    0.0000 H   0  0  0  0  0  0  0  0  0  0  0  0
   15.5511    3.7663    0.0000 H   0  0  0  0  0  0  0  0  0  0  0  0
   15.1393    2.5328    0.0000 H   0  0  0  0  0  0  0  0  0  0  0  0
   16.5430    2.7174    0.0000 H   0  0  0  0  0  0  0  0  0  0  0  0
   12.2804    3.7609    0.0000 H   0  0  0  0  0  0  0  0  0  0  0  0
   17.5979    4.4642    0.0000 H   0  0  0  0  0  0  0  0  0  0  0  0
   14.3317    5.3504    0.0000 H   0  0  0  0  0  0  0  0  0  0  0  0
   13.5335    5.3627    0.0000 H   0  0  0  0  0  0  0  0  0  0  0  0
   15.9014    6.4318    0.0000 H   0  0  0  0  0  0  0  0  0  0  0  0
   15.2819    5.8802    0.0000 H   0  0  0  0  0  0  0  0  0  0  0  0
   12.8105    4.9563    0.0000 H   0  0  0  0  0  0  0  0  0  0  0  0
   12.4060    4.2681    0.0000 H   0  0  0  0  0  0  0  0  0  0  0  0
   17.4775    6.1005    0.0000 H   0  0  0  0  0  0  0  0  0  0  0  0
   16.7608    6.5180    0.0000 H   0  0  0  0  0  0  0  0  0  0  0  0
   14.1585    1.1485    0.0000 H   0  0  0  0  0  0  0  0  0  0  0  0
   14.5469    1.8459    0.0000 H   0  0  0  0  0  0  0  0  0  0  0  0
   11.8606    3.3831    0.0000 H   0  0  0  0  0  0  0  0  0  0  0  0
   11.4561    2.6949    0.0000 H   0  0  0  0  0  0  0  0  0  0  0  0
   17.1012    3.2984    0.0000 H   0  0  0  0  0  0  0  0  0  0  0  0
   17.9490    3.5220    0.0000 H   0  0  0  0  0  0  0  0  0  0  0  0
   17.7254    4.3698    0.0000 H   0  0  0  0  0  0  0  0  0  0  0  0
   14.4773    1.7781    0.0000 H   0  0  0  0  0  0  0  0  0  0  0  0
   15.3234    2.0083    0.0000 H   0  0  0  0  0  0  0  0  0  0  0  0
   15.0932    2.8544    0.0000 H   0  0  0  0  0  0  0  0  0  0  0  0
   12.6095    0.6973    0.0000 H   0  0  0  0  0  0  0  0  0  0  0  0
   13.4077    0.7034    0.0000 H   0  0  0  0  0  0  0  0  0  0  0  0
   11.5269    2.0247    0.0000 H   0  0  0  0  0  0  0  0  0  0  0  0
   14.8234    5.9641    0.0000 H   0  0  0  0  0  0  0  0  0  0  0  0
   19.0567    6.1562    0.0000 H   0  0  0  0  0  0  0  0  0  0  0  0
   18.5807    6.8925    0.0000 H   0  0  0  0  0  0  0  0  0  0  0  0
   17.8443    6.4166    0.0000 H   0  0  0  0  0  0  0  0  0  0  0  0
   11.7341    0.5236    0.0000 H   0  0  0  0  0  0  0  0  0  0  0  0
   12.6738   -0.3940    0.0000 H   0  0  0  0  0  0  0  0  0  0  0  0
   12.2753    0.2963    0.0000 H   0  0  0  0  0  0  0  0  0  0  0  0
   12.6002   -0.9764    0.0000 H   0  0  0  0  0  0  0  0  0  0  0  0
    9.7942   -0.9764    0.0000 H   0  0  0  0  0  0  0  0  0  0  0  0
   11.7341   -2.0964    0.0000 H   0  0  0  0  0  0  0  0  0  0  0  0
   17.0858   -0.7016    0.0000 H   0  0  0  0  0  0  0  0  0  0  0  0
   17.9336   -0.4780    0.0000 H   0  0  0  0  0  0  0  0  0  0  0  0
   17.7099    0.3699    0.0000 H   0  0  0  0  0  0  0  0  0  0  0  0
   15.1301    0.1529    0.0000 H   0  0  0  0  0  0  0  0  0  0  0  0
   20.2182    2.4942    0.0000 H   0  0  0  0  0  0  0  0  0  0  0  0
   17.7828    1.1006    0.0000 H   0  0  0  0  0  0  0  0  0  0  0  0
    9.1551   -1.2494    0.0000 H   0  0  0  0  0  0  0  0  0  0  0  0
    8.9282   -2.0964    0.0000 H   0  0  0  0  0  0  0  0  0  0  0  0
    9.7751   -2.3233    0.0000 H   0  0  0  0  0  0  0  0  0  0  0  0
   21.0227    1.0881    0.0000 H   0  0  0  0  0  0  0  0  0  0  0  0
   18.5874   -0.3055    0.0000 H   0  0  0  0  0  0  0  0  0  0  0  0
   15.0420   -1.1568    0.0000 H   0  0  0  0  0  0  0  0  0  0  0  0
   15.6596   -1.7792    0.0000 H   0  0  0  0  0  0  0  0  0  0  0  0
   16.2820   -1.1616    0.0000 H   0  0  0  0  0  0  0  0  0  0  0  0
   20.2073   -0.3117    0.0000 H   0  0  0  0  0  0  0  0  0  0  0  0
   10.3312   -2.6664    0.0000 H   0  0  0  0  0  0  0  0  0  0  0  0
   14.1053   -1.8233    0.0000 H   0  0  0  0  0  0  0  0  0  0  0  0
   14.3322   -0.9764    0.0000 H   0  0  0  0  0  0  0  0  0  0  0  0
   13.4853   -0.7494    0.0000 H   0  0  0  0  0  0  0  0  0  0  0  0
   10.3312   -4.9064    0.0000 H   0  0  0  0  0  0  0  0  0  0  0  0
    8.9282   -5.0964    0.0000 H   0  0  0  0  0  0  0  0  0  0  0  0
    8.5991   -2.6664    0.0000 H   0  0  0  0  0  0  0  0  0  0  0  0
    8.5991   -4.9064    0.0000 H   0  0  0  0  0  0  0  0  0  0  0  0
   11.7341   -4.4764    0.0000 H   0  0  0  0  0  0  0  0  0  0  0  0
    8.0431   -2.2494    0.0000 H   0  0  0  0  0  0  0  0  0  0  0  0
    7.1962   -2.4764    0.0000 H   0  0  0  0  0  0  0  0  0  0  0  0
    7.4231   -3.3233    0.0000 H   0  0  0  0  0  0  0  0  0  0  0  0
    6.8671   -4.9064    0.0000 H   0  0  0  0  0  0  0  0  0  0  0  0
   10.0212   -6.8233    0.0000 H   0  0  0  0  0  0  0  0  0  0  0  0
   10.8681   -6.5964    0.0000 H   0  0  0  0  0  0  0  0  0  0  0  0
   10.6412   -5.7494    0.0000 H   0  0  0  0  0  0  0  0  0  0  0  0
    5.4641   -5.0964    0.0000 H   0  0  0  0  0  0  0  0  0  0  0  0
    4.5981   -3.9764    0.0000 H   0  0  0  0  0  0  0  0  0  0  0  0
    6.5380   -2.4764    0.0000 H   0  0  0  0  0  0  0  0  0  0  0  0
    5.1350   -2.6664    0.0000 H   0  0  0  0  0  0  0  0  0  0  0  0
    5.4641   -6.0964    0.0000 H   0  0  0  0  0  0  0  0  0  0  0  0
    5.7890   -1.2038    0.0000 H   0  0  0  0  0  0  0  0  0  0  0  0
    5.3905   -1.8940    0.0000 H   0  0  0  0  0  0  0  0  0  0  0  0
    3.7320   -4.4764    0.0000 H   0  0  0  0  0  0  0  0  0  0  0  0
    3.7320   -2.0964    0.0000 H   0  0  0  0  0  0  0  0  0  0  0  0
    2.8660   -0.9764    0.0000 H   0  0  0  0  0  0  0  0  0  0  0  0
    3.4030    0.3336    0.0000 H   0  0  0  0  0  0  0  0  0  0  0  0
    7.4040   -1.5964    0.0000 H   0  0  0  0  0  0  0  0  0  0  0  0
    5.6720   -0.5964    0.0000 H   0  0  0  0  0  0  0  0  0  0  0  0
    4.8059    0.5236    0.0000 H   0  0  0  0  0  0  0  0  0  0  0  0
    6.2131   -0.3690    0.0000 H   0  0  0  0  0  0  0  0  0  0  0  0
    6.6116    0.3213    0.0000 H   0  0  0  0  0  0  0  0  0  0  0  0
    2.0000   -1.4764    0.0000 H   0  0  0  0  0  0  0  0  0  0  0  0
    2.5369    0.8336    0.0000 H   0  0  0  0  0  0  0  0  0  0  0  0
    3.7320    1.5236    0.0000 H   0  0  0  0  0  0  0  0  0  0  0  0
    6.5380    1.5236    0.0000 H   0  0  0  0  0  0  0  0  0  0  0  0
 25  1  1  6  0  0  0
  1111  1  0  0  0  0
 30  2  1  1  0  0  0
  2 46  1  0  0  0  0
 31  3  1  6  0  0  0
  3 47  1  0  0  0  0
 43  4  1  6  0  0  0
 48  4  1  1  0  0  0
  5 44  2  0  0  0  0
  6 48  1  0  0  0  0
  6 53  1  0  0  0  0
  7 46  2  0  0  0  0
  8 47  2  0  0  0  0
 52  9  1  1  0  0  0
  9 65  1  0  0  0  0
 54 10  1  6  0  0  0
 64 10  1  1  0  0  0
 11 64  1  0  0  0  0
 11 68  1  0  0  0  0
 12 66  1  0  0  0  0
 12144  1  0  0  0  0
 67 13  1  1  0  0  0
 13 72  1  0  0  0  0
 69 14  1  6  0  0  0
 71 14  1  1  0  0  0
 15 71  1  0  0  0  0
 15 75  1  0  0  0  0
 16 73  1  0  0  0  0
 16156  1  0  0  0  0
 76 17  1  6  0  0  0
 78 17  1  1  0  0  0
 74 18  1  1  0  0  0
 18159  1  0  0  0  0
 19 77  1  0  0  0  0
 19163  1  0  0  0  0
 20 78  1  0  0  0  0
 20 81  1  0  0  0  0
 21 79  1  0  0  0  0
 21168  1  0  0  0  0
 80 22  1  1  0  0  0
 22169  1  0  0  0  0
 82 23  1  6  0  0  0
 23170  1  0  0  0  0
 24 83  1  0  0  0  0
 24171  1  0  0  0  0
 25 26  1  0  0  0  0
 25 28  1  0  0  0  0
 25 35  1  0  0  0  0
 26 27  1  0  0  0  0
 26 34  1  0  0  0  0
 26 84  1  6  0  0  0
 27 29  1  0  0  0  0
 27 30  1  0  0  0  0
 27 85  1  1  0  0  0
 28 31  1  0  0  0  0
 28 33  1  0  0  0  0
 28 40  1  6  0  0  0
 29 32  1  0  0  0  0
 29 38  1  0  0  0  0
 29 41  1  6  0  0  0
 30 31  1  0  0  0  0
 30 86  1  0  0  0  0
 31 87  1  0  0  0  0
 32 36  1  0  0  0  0
 32 39  1  0  0  0  0
 32 88  1  1  0  0  0
 33 37  1  0  0  0  0
 33 44  1  6  0  0  0
 33 89  1  0  0  0  0
 34 36  1  0  0  0  0
 34 90  1  0  0  0  0
 34 91  1  0  0  0  0
 35 37  1  0  0  0  0
 35 92  1  0  0  0  0
 35 93  1  0  0  0  0
 36 94  1  0  0  0  0
 36 95  1  0  0  0  0
 37 96  1  0  0  0  0
 37 97  1  0  0  0  0
 38 42  1  0  0  0  0
 38 98  1  0  0  0  0
 38 99  1  0  0  0  0
 39 43  1  0  0  0  0
 39100  1  0  0  0  0
 39101  1  0  0  0  0
 40102  1  0  0  0  0
 40103  1  0  0  0  0
 40104  1  0  0  0  0
 41105  1  0  0  0  0
 41106  1  0  0  0  0
 41107  1  0  0  0  0
 42 43  1  0  0  0  0
 42108  1  0  0  0  0
 42109  1  0  0  0  0
 43110  1  0  0  0  0
 44 45  1  0  0  0  0
 45112  1  0  0  0  0
 45113  1  0  0  0  0
 45114  1  0  0  0  0
 46 49  1  0  0  0  0
 47 50  1  0  0  0  0
 48 51  1  0  0  0  0
 48115  1  0  0  0  0
 49 55  1  0  0  0  0
 49 56  2  0  0  0  0
 50 57  2  0  0  0  0
 50 58  1  0  0  0  0
 51 52  1  0  0  0  0
 51116  1  0  0  0  0
 51117  1  0  0  0  0
 52 54  1  0  0  0  0
 52118  1  0  0  0  0
 53 54  1  0  0  0  0
 53 59  1  0  0  0  0
 53119  1  0  0  0  0
 54120  1  0  0  0  0
 55121  1  0  0  0  0
 55122  1  0  0  0  0
 55123  1  0  0  0  0
 56 62  1  0  0  0  0
 56124  1  0  0  0  0
 57 60  1  0  0  0  0
 57125  1  0  0  0  0
 58 61  2  0  0  0  0
 58126  1  0  0  0  0
 59127  1  0  0  0  0
 59128  1  0  0  0  0
 59129  1  0  0  0  0
 60 63  2  0  0  0  0
 60130  1  0  0  0  0
 61 63  1  0  0  0  0
 61131  1  0  0  0  0
 62132  1  0  0  0  0
 62133  1  0  0  0  0
 62134  1  0  0  0  0
 63135  1  0  0  0  0
 64 66  1  0  0  0  0
 64136  1  0  0  0  0
 65137  1  0  0  0  0
 65138  1  0  0  0  0
 65139  1  0  0  0  0
 66 67  1  0  0  0  0
 66140  1  0  0  0  0
 67 69  1  0  0  0  0
 67141  1  0  0  0  0
 68 69  1  0  0  0  0
 68 70  1  0  0  0  0
 68142  1  0  0  0  0
 69143  1  0  0  0  0
 70145  1  0  0  0  0
 70146  1  0  0  0  0
 70147  1  0  0  0  0
 71 73  1  0  0  0  0
 71148  1  0  0  0  0
 72149  1  0  0  0  0
 72150  1  0  0  0  0
 72151  1  0  0  0  0
 73 74  1  0  0  0  0
 73152  1  0  0  0  0
 74 76  1  0  0  0  0
 74153  1  0  0  0  0
 75 76  1  0  0  0  0
 75 77  1  0  0  0  0
 75154  1  0  0  0  0
 76155  1  0  0  0  0
 77157  1  0  0  0  0
 77158  1  0  0  0  0
 78 79  1  0  0  0  0
 78160  1  0  0  0  0
 79 80  1  0  0  0  0
 79161  1  0  0  0  0
 80 82  1  0  0  0  0
 80162  1  0  0  0  0
 81 82  1  0  0  0  0
 81 83  1  0  0  0  0
 81164  1  0  0  0  0
 82165  1  0  0  0  0
 83166  1  0  0  0  0
 83167  1  0  0  0  0
M  END
> <PUBCHEM_COMPOUND_CID>
129909056

> <PUBCHEM_COMPOUND_CANONICALIZED>
1

> <PUBCHEM_CACTVS_COMPLEXITY>
2250

> <PUBCHEM_CACTVS_HBOND_ACCEPTOR>
24

> <PUBCHEM_CACTVS_HBOND_DONOR>
9

> <PUBCHEM_CACTVS_ROTATABLE_BOND>
19

> <PUBCHEM_CACTVS_SUBSKEYS>
AAADcfB8PgAAAAAAAAAAAAAAAAAAAYAAAAA0aNGiAAAAAGDBAAAAGgAACAAAD1SwmAMyCIAABgCIAqDSCAACAAAkAAAIiAEACMgZNjKANRiicQAlwAEPqYfK7PzPgAAAAAAAAADCAAYQADCAAYAADAAAAA==

> <PUBCHEM_IUPAC_OPENEYE_NAME>
[(3S,5S,8R,9S,10S,11S,12S,13S,14S,17S)-17-acetyl-3-[(2R,4R,5R)-5-[(2S,4R,5R)-5-[(2S,4R,5S)-3,4-dihydroxy-6-(hydroxymethyl)-5-[(2S,4S,5S)-3,4,5-trihydroxy-6-(hydroxymethyl)tetrahydropyran-2-yl]oxy-tetrahydropyran-2-yl]oxy-3-hydroxy-4-methoxy-6-methyl-tetrahydropyran-2-yl]oxy-4-methoxy-6-methyl-tetrahydropyran-2-yl]oxy-14-hydroxy-10,13-dimethyl-11-[(E)-2-methylbut-2-enoyl]oxy-1,2,3,4,5,6,7,8,9,11,12,15,16,17-tetradecahydrocyclopenta[a]phenanthren-12-yl] benzoate

> <PUBCHEM_IUPAC_CAS_NAME>
benzoic acid [(3S,5S,8R,9S,10S,11S,12S,13S,14S,17S)-17-acetyl-3-[[(2R,4R,5R)-5-[[(2S,4R,5R)-5-[[(2S,4R,5S)-3,4-dihydroxy-6-(hydroxymethyl)-5-[[(2S,4S,5S)-3,4,5-trihydroxy-6-(hydroxymethyl)-2-oxanyl]oxy]-2-oxanyl]oxy]-3-hydroxy-4-methoxy-6-methyl-2-oxanyl]oxy]-4-methoxy-6-methyl-2-oxanyl]oxy]-14-hydroxy-10,13-dimethyl-11-[(E)-2-methyl-1-oxobut-2-enoxy]-1,2,3,4,5,6,7,8,9,11,12,15,16,17-tetradecahydrocyclopenta[a]phenanthren-12-yl] ester

> <PUBCHEM_IUPAC_NAME_MARKUP>
[(3<I>S</I>,5<I>S</I>,8<I>R</I>,9<I>S</I>,10<I>S</I>,11<I>S</I>,12<I>S</I>,13<I>S</I>,14<I>S</I>,17<I>S</I>)-17-acetyl-3-[(2<I>R</I>,4<I>R</I>,5<I>R</I>)-5-[(2<I>S</I>,4<I>R</I>,5<I>R</I>)-5-[(2<I>S</I>,4<I>R</I>,5<I>S</I>)-3,4-dihydroxy-6-(hydroxymethyl)-5-[(2<I>S</I>,4<I>S</I>,5<I>S</I>)-3,4,5-trihydroxy-6-(hydroxymethyl)oxan-2-yl]oxyoxan-2-yl]oxy-3-hydroxy-4-methoxy-6-methyloxan-2-yl]oxy-4-methoxy-6-methyloxan-2-yl]oxy-14-hydroxy-10,13-dimethyl-11-[(<I>E</I>)-2-methylbut-2-enoyl]oxy-1,2,3,4,5,6,7,8,9,11,12,15,16,17-tetradecahydrocyclopenta[a]phenanthren-12-yl] benzoate

> <PUBCHEM_IUPAC_NAME>
[(3S,5S,8R,9S,10S,11S,12S,13S,14S,17S)-17-acetyl-3-[(2R,4R,5R)-5-[(2S,4R,5R)-5-[(2S,4R,5S)-3,4-dihydroxy-6-(hydroxymethyl)-5-[(2S,4S,5S)-3,4,5-trihydroxy-6-(hydroxymethyl)oxan-2-yl]oxyoxan-2-yl]oxy-3-hydroxy-4-methoxy-6-methyloxan-2-yl]oxy-4-methoxy-6-methyloxan-2-yl]oxy-14-hydroxy-10,13-dimethyl-11-[(E)-2-methylbut-2-enoyl]oxy-1,2,3,4,5,6,7,8,9,11,12,15,16,17-tetradecahydrocyclopenta[a]phenanthren-12-yl] benzoate

> <PUBCHEM_IUPAC_SYSTEMATIC_NAME>
[(3S,5S,8R,9S,10S,11S,12S,13S,14S,17S)-17-ethanoyl-3-[(2R,4R,5R)-5-[(2S,4R,5R)-5-[(2S,4R,5S)-6-(hydroxymethyl)-5-[(2S,4S,5S)-6-(hydroxymethyl)-3,4,5-tris(oxidanyl)oxan-2-yl]oxy-3,4-bis(oxidanyl)oxan-2-yl]oxy-4-methoxy-6-methyl-3-oxidanyl-oxan-2-yl]oxy-4-methoxy-6-methyl-oxan-2-yl]oxy-10,13-dimethyl-11-[(E)-2-methylbut-2-enoyl]oxy-14-oxidanyl-1,2,3,4,5,6,7,8,9,11,12,15,16,17-tetradecahydrocyclopenta[a]phenanthren-12-yl] benzoate

> <PUBCHEM_IUPAC_TRADITIONAL_NAME>
benzoic acid [(3S,5S,8R,9S,10S,11S,12S,13S,14S,17S)-17-acetyl-3-[(2R,4R,5R)-5-[(2S,4R,5R)-5-[(2S,4R,5S)-3,4-dihydroxy-6-methylol-5-[(2S,4S,5S)-3,4,5-trihydroxy-6-methylol-tetrahydropyran-2-yl]oxy-tetrahydropyran-2-yl]oxy-3-hydroxy-4-methoxy-6-methyl-tetrahydropyran-2-yl]oxy-4-methoxy-6-methyl-tetrahydropyran-2-yl]oxy-14-hydroxy-10,13-dimethyl-11-[(E)-2-methylbut-2-enoyl]oxy-1,2,3,4,5,6,7,8,9,11,12,15,16,17-tetradecahydrocyclopenta[a]phenanthren-12-yl] ester

> <PUBCHEM_IUPAC_INCHI>
InChI=1S/C59H88O24/c1-10-26(2)52(69)79-49-39-34(59(71)21-19-33(27(3)62)58(59,7)51(49)83-53(70)30-14-12-11-13-15-30)17-16-31-22-32(18-20-57(31,39)6)76-38-23-35(72-8)46(28(4)74-38)80-56-45(68)50(73-9)47(29(5)75-56)81-55-44(67)42(65)48(37(25-61)78-55)82-54-43(66)41(64)40(63)36(24-60)77-54/h10-15,28-29,31-51,54-56,60-61,63-68,71H,16-25H2,1-9H3/b26-10+/t28?,29?,31-,32-,33+,34+,35+,36?,37?,38-,39+,40+,41-,42+,43?,44?,45?,46+,47+,48+,49-,50+,51+,54-,55-,56-,57-,58-,59-/m0/s1

> <PUBCHEM_IUPAC_INCHIKEY>
CRWHTLGWRQXRGV-HOAQVTFUSA-N

> <PUBCHEM_XLOGP3_AA>
1.2

> <PUBCHEM_EXACT_MASS>
1180.566554

> <PUBCHEM_MOLECULAR_FORMULA>
C59H88O24

> <PUBCHEM_MOLECULAR_WEIGHT>
1181.3

> <PUBCHEM_OPENEYE_CAN_SMILES>
CC=C(C)C(=O)OC1C2C(CCC3C2(CCC(C3)OC4CC(C(C(O4)C)OC5C(C(C(C(O5)C)OC6C(C(C(C(O6)CO)OC7C(C(C(C(O7)CO)O)O)O)O)O)OC)O)OC)C)C8(CCC(C8(C1OC(=O)C9=CC=CC=C9)C)C(=O)C)O

> <PUBCHEM_OPENEYE_ISO_SMILES>
C/C=C(\C)/C(=O)O[C@H]1[C@H]2[C@@H](CC[C@@H]3[C@@]2(CC[C@@H](C3)O[C@H]4C[C@H]([C@@H](C(O4)C)O[C@H]5C([C@H]([C@@H](C(O5)C)O[C@H]6C([C@H]([C@@H](C(O6)CO)O[C@H]7C([C@H]([C@@H](C(O7)CO)O)O)O)O)O)OC)O)OC)C)[C@]8(CC[C@@H]([C@]8([C@@H]1OC(=O)C9=CC=CC=C9)C)C(=O)C)O

> <PUBCHEM_CACTVS_TPSA>
344

> <PUBCHEM_MONOISOTOPIC_WEIGHT>
1180.566554

> <PUBCHEM_TOTAL_CHARGE>
0

> <PUBCHEM_HEAVY_ATOM_COUNT>
83

> <PUBCHEM_ATOM_DEF_STEREO_COUNT>
22

> <PUBCHEM_ATOM_UDEF_STEREO_COUNT>
7

> <PUBCHEM_BOND_DEF_STEREO_COUNT>
1

> <PUBCHEM_BOND_UDEF_STEREO_COUNT>
0

> <PUBCHEM_ISOTOPIC_ATOM_COUNT>
0

> <PUBCHEM_COMPONENT_COUNT>
1

> <PUBCHEM_CACTVS_TAUTO_COUNT>
-1

> <PUBCHEM_COORDINATE_TYPE>
1
5
255

> <PUBCHEM_BONDANNOTATIONS>
25  1  6
54  10  6
64  10  5
66  12  3
67  13  5
69  14  6
71  14  5
73  16  3
76  17  6
78  17  5
74  18  5
30  2  5
79  21  3
80  22  5
82  23  6
26  84  6
27  85  5
28  40  6
29  41  6
31  3  6
32  88  5
33  44  6
43  4  6
48  4  5
50  57  8
50  58  8
53  59  3
57  60  8
58  61  8
60  63  8
61  63  8
68  70  3
75  77  3
81  83  3
52  9  5

$$$$
