129908695
  -OEChem-09092001322D

150157  0     1  0  0  0  0  0999 V2000
   13.0890    5.3441    0.0000 O   0  0  0  0  0  0  0  0  0  0  0  0
   13.9415    1.8408    0.0000 O   0  0  0  0  0  0  0  0  0  0  0  0
   15.6774    2.8341    0.0000 O   0  0  0  0  0  0  0  0  0  0  0  0
    9.4651    1.2136    0.0000 O   0  0  0  0  0  0  0  0  0  0  0  0
   17.2502    4.6380    0.0000 O   0  0  0  0  0  0  0  0  0  0  0  0
    8.5991   -0.2864    0.0000 O   0  0  0  0  0  0  0  0  0  0  0  0
   15.6735    1.8341    0.0000 O   0  0  0  0  0  0  0  0  0  0  0  0
   16.5492    4.3307    0.0000 O   0  0  0  0  0  0  0  0  0  0  0  0
   11.1972   -1.7864    0.0000 O   0  0  0  0  0  0  0  0  0  0  0  0
    9.4651   -2.7864    0.0000 O   0  0  0  0  0  0  0  0  0  0  0  0
    7.7331   -2.7864    0.0000 O   0  0  0  0  0  0  0  0  0  0  0  0
    9.4651   -4.7864    0.0000 O   0  0  0  0  0  0  0  0  0  0  0  0
    7.7331   -5.7864    0.0000 O   0  0  0  0  0  0  0  0  0  0  0  0
    6.0010   -4.7864    0.0000 O   0  0  0  0  0  0  0  0  0  0  0  0
    5.1350   -3.2864    0.0000 O   0  0  0  0  0  0  0  0  0  0  0  0
    4.2690   -5.7864    0.0000 O   0  0  0  0  0  0  0  0  0  0  0  0
    2.5369   -4.7864    0.0000 O   0  0  0  0  0  0  0  0  0  0  0  0
    2.5369   -2.7864    0.0000 O   0  0  0  0  0  0  0  0  0  0  0  0
    5.1350   -1.2864    0.0000 O   0  0  0  0  0  0  0  0  0  0  0  0
   13.9531    4.8408    0.0000 C   0  0  1  0  0  0  0  0  0  0  0  0
   13.0851    4.3441    0.0000 C   0  0  1  0  0  0  0  0  0  0  0  0
   13.0813    3.3441    0.0000 C   0  0  1  0  0  0  0  0  0  0  0  0
   14.8172    4.3374    0.0000 C   0  0  2  0  0  0  0  0  0  0  0  0
   12.1853    2.8129    0.0000 C   0  0  2  0  0  0  0  0  0  0  0  0
   13.9454    2.8408    0.0000 C   0  0  1  0  0  0  0  0  0  0  0  0
   14.8133    3.3374    0.0000 C   0  0  1  0  0  0  0  0  0  0  0  0
   11.2812    3.3302    0.0000 C   0  0  1  0  0  0  0  0  0  0  0  0
   15.5567    5.0017    0.0000 C   0  0  2  0  0  0  0  0  0  0  0  0
   12.1932    4.8822    0.0000 C   0  0  0  0  0  0  0  0  0  0  0  0
   14.1660    5.8118    0.0000 C   0  0  0  0  0  0  0  0  0  0  0  0
   11.2852    4.3718    0.0000 C   0  0  0  0  0  0  0  0  0  0  0  0
   15.1551    5.9110    0.0000 C   0  0  0  0  0  0  0  0  0  0  0  0
   12.2062    1.7281    0.0000 C   0  0  0  0  0  0  0  0  0  0  0  0
   10.3353    2.7986    0.0000 C   0  0  0  0  0  0  0  0  0  0  0  0
   15.6812    3.8341    0.0000 C   0  0  0  0  0  0  0  0  0  0  0  0
   13.0532    2.3162    0.0000 C   0  0  0  0  0  0  0  0  0  0  0  0
   11.2729    1.1748    0.0000 C   0  0  0  0  0  0  0  0  0  0  0  0
   10.3312    1.7136    0.0000 C   0  0  2  0  0  0  0  0  0  0  0  0
   16.5084    5.3086    0.0000 C   0  0  0  0  0  0  0  0  0  0  0  0
   16.7184    6.2864    0.0000 C   0  0  0  0  0  0  0  0  0  0  0  0
   14.8056    1.3374    0.0000 C   0  0  0  0  0  0  0  0  0  0  0  0
   16.5453    3.3308    0.0000 C   0  0  0  0  0  0  0  0  0  0  0  0
    9.4651    0.2136    0.0000 C   0  0  2  0  0  0  0  0  0  0  0  0
   17.4094    2.8274    0.0000 C   0  0  0  0  0  0  0  0  0  0  0  0
   14.8017    0.3374    0.0000 C   0  0  0  0  0  0  0  0  0  0  0  0
   10.3312   -0.2864    0.0000 C   0  0  0  0  0  0  0  0  0  0  0  0
   10.3312   -1.2864    0.0000 C   0  0  2  0  0  0  0  0  0  0  0  0
    8.5991   -1.2864    0.0000 C   0  0  3  0  0  0  0  0  0  0  0  0
    9.4651   -1.7864    0.0000 C   0  0  1  0  0  0  0  0  0  0  0  0
   18.2774    3.3241    0.0000 C   0  0  0  0  0  0  0  0  0  0  0  0
   13.9338   -0.1592    0.0000 C   0  0  0  0  0  0  0  0  0  0  0  0
   15.6658   -0.1659    0.0000 C   0  0  0  0  0  0  0  0  0  0  0  0
   17.4056    1.8274    0.0000 C   0  0  0  0  0  0  0  0  0  0  0  0
    7.7331   -1.7864    0.0000 C   0  0  0  0  0  0  0  0  0  0  0  0
   13.9299   -1.1592    0.0000 C   0  0  0  0  0  0  0  0  0  0  0  0
   15.6620   -1.1659    0.0000 C   0  0  0  0  0  0  0  0  0  0  0  0
   18.2697    1.3241    0.0000 C   0  0  0  0  0  0  0  0  0  0  0  0
   14.7940   -1.6625    0.0000 C   0  0  0  0  0  0  0  0  0  0  0  0
    8.5991   -3.2864    0.0000 C   0  0  2  0  0  0  0  0  0  0  0  0
   12.0632   -1.2864    0.0000 C   0  0  0  0  0  0  0  0  0  0  0  0
    8.5991   -4.2864    0.0000 C   0  0  3  0  0  0  0  0  0  0  0  0
    7.7331   -4.7864    0.0000 C   0  0  2  0  0  0  0  0  0  0  0  0
    6.8671   -3.2864    0.0000 C   0  0  3  0  0  0  0  0  0  0  0  0
    6.8671   -4.2864    0.0000 C   0  0  1  0  0  0  0  0  0  0  0  0
    6.0010   -2.7864    0.0000 C   0  0  0  0  0  0  0  0  0  0  0  0
    5.1350   -4.2864    0.0000 C   0  0  2  0  0  0  0  0  0  0  0  0
    8.5991   -6.2864    0.0000 C   0  0  0  0  0  0  0  0  0  0  0  0
    4.2690   -4.7864    0.0000 C   0  0  3  0  0  0  0  0  0  0  0  0
    3.4030   -4.2864    0.0000 C   0  0  2  0  0  0  0  0  0  0  0  0
    4.2690   -2.7864    0.0000 C   0  0  3  0  0  0  0  0  0  0  0  0
    3.4030   -3.2864    0.0000 C   0  0  1  0  0  0  0  0  0  0  0  0
    4.2690   -1.7864    0.0000 C   0  0  0  0  0  0  0  0  0  0  0  0
   13.8196    3.9163    0.0000 H   0  0  0  0  0  0  0  0  0  0  0  0
   13.8190    3.7663    0.0000 H   0  0  0  0  0  0  0  0  0  0  0  0
   13.4072    2.5328    0.0000 H   0  0  0  0  0  0  0  0  0  0  0  0
   14.8109    2.7174    0.0000 H   0  0  0  0  0  0  0  0  0  0  0  0
   10.5484    3.7609    0.0000 H   0  0  0  0  0  0  0  0  0  0  0  0
   15.8658    4.4642    0.0000 H   0  0  0  0  0  0  0  0  0  0  0  0
   12.5997    5.3504    0.0000 H   0  0  0  0  0  0  0  0  0  0  0  0
   11.8015    5.3627    0.0000 H   0  0  0  0  0  0  0  0  0  0  0  0
   14.1693    6.4318    0.0000 H   0  0  0  0  0  0  0  0  0  0  0  0
   13.5498    5.8802    0.0000 H   0  0  0  0  0  0  0  0  0  0  0  0
   11.0784    4.9563    0.0000 H   0  0  0  0  0  0  0  0  0  0  0  0
   10.6739    4.2681    0.0000 H   0  0  0  0  0  0  0  0  0  0  0  0
   15.7455    6.1005    0.0000 H   0  0  0  0  0  0  0  0  0  0  0  0
   15.0287    6.5180    0.0000 H   0  0  0  0  0  0  0  0  0  0  0  0
   12.4264    1.1485    0.0000 H   0  0  0  0  0  0  0  0  0  0  0  0
   12.8149    1.8459    0.0000 H   0  0  0  0  0  0  0  0  0  0  0  0
   10.1285    3.3831    0.0000 H   0  0  0  0  0  0  0  0  0  0  0  0
    9.7241    2.6949    0.0000 H   0  0  0  0  0  0  0  0  0  0  0  0
   15.3692    3.2984    0.0000 H   0  0  0  0  0  0  0  0  0  0  0  0
   16.2170    3.5220    0.0000 H   0  0  0  0  0  0  0  0  0  0  0  0
   15.9933    4.3698    0.0000 H   0  0  0  0  0  0  0  0  0  0  0  0
   12.7453    1.7781    0.0000 H   0  0  0  0  0  0  0  0  0  0  0  0
   13.5913    2.0083    0.0000 H   0  0  0  0  0  0  0  0  0  0  0  0
   13.3611    2.8544    0.0000 H   0  0  0  0  0  0  0  0  0  0  0  0
   10.8774    0.6973    0.0000 H   0  0  0  0  0  0  0  0  0  0  0  0
   11.6757    0.7034    0.0000 H   0  0  0  0  0  0  0  0  0  0  0  0
    9.7948    2.0247    0.0000 H   0  0  0  0  0  0  0  0  0  0  0  0
   13.0914    5.9641    0.0000 H   0  0  0  0  0  0  0  0  0  0  0  0
   17.3246    6.1562    0.0000 H   0  0  0  0  0  0  0  0  0  0  0  0
   16.8486    6.8925    0.0000 H   0  0  0  0  0  0  0  0  0  0  0  0
   16.1123    6.4166    0.0000 H   0  0  0  0  0  0  0  0  0  0  0  0
   10.0021    0.5236    0.0000 H   0  0  0  0  0  0  0  0  0  0  0  0
   10.9417   -0.3940    0.0000 H   0  0  0  0  0  0  0  0  0  0  0  0
   10.5432    0.2963    0.0000 H   0  0  0  0  0  0  0  0  0  0  0  0
   10.8681   -0.9764    0.0000 H   0  0  0  0  0  0  0  0  0  0  0  0
    8.0622   -0.9764    0.0000 H   0  0  0  0  0  0  0  0  0  0  0  0
   10.0021   -2.0964    0.0000 H   0  0  0  0  0  0  0  0  0  0  0  0
   18.5853    2.7860    0.0000 H   0  0  0  0  0  0  0  0  0  0  0  0
   18.8155    3.6320    0.0000 H   0  0  0  0  0  0  0  0  0  0  0  0
   17.9695    3.8622    0.0000 H   0  0  0  0  0  0  0  0  0  0  0  0
   13.3981    0.1529    0.0000 H   0  0  0  0  0  0  0  0  0  0  0  0
   16.2040    0.1420    0.0000 H   0  0  0  0  0  0  0  0  0  0  0  0
   16.8675    1.5195    0.0000 H   0  0  0  0  0  0  0  0  0  0  0  0
    7.4231   -1.2494    0.0000 H   0  0  0  0  0  0  0  0  0  0  0  0
    7.1962   -2.0964    0.0000 H   0  0  0  0  0  0  0  0  0  0  0  0
    8.0431   -2.3233    0.0000 H   0  0  0  0  0  0  0  0  0  0  0  0
   13.3918   -1.4671    0.0000 H   0  0  0  0  0  0  0  0  0  0  0  0
   16.1977   -1.4780    0.0000 H   0  0  0  0  0  0  0  0  0  0  0  0
   17.9576    0.7884    0.0000 H   0  0  0  0  0  0  0  0  0  0  0  0
   18.8054    1.0120    0.0000 H   0  0  0  0  0  0  0  0  0  0  0  0
   18.5817    1.8598    0.0000 H   0  0  0  0  0  0  0  0  0  0  0  0
   14.7916   -2.2825    0.0000 H   0  0  0  0  0  0  0  0  0  0  0  0
    8.5991   -2.6664    0.0000 H   0  0  0  0  0  0  0  0  0  0  0  0
   12.3732   -1.8233    0.0000 H   0  0  0  0  0  0  0  0  0  0  0  0
   12.6002   -0.9764    0.0000 H   0  0  0  0  0  0  0  0  0  0  0  0
   11.7532   -0.7494    0.0000 H   0  0  0  0  0  0  0  0  0  0  0  0
    8.5991   -4.9064    0.0000 H   0  0  0  0  0  0  0  0  0  0  0  0
    7.1962   -5.0964    0.0000 H   0  0  0  0  0  0  0  0  0  0  0  0
    6.8671   -2.6664    0.0000 H   0  0  0  0  0  0  0  0  0  0  0  0
    6.3301   -3.9764    0.0000 H   0  0  0  0  0  0  0  0  0  0  0  0
   10.0021   -4.4764    0.0000 H   0  0  0  0  0  0  0  0  0  0  0  0
    6.3110   -2.2494    0.0000 H   0  0  0  0  0  0  0  0  0  0  0  0
    5.4641   -2.4764    0.0000 H   0  0  0  0  0  0  0  0  0  0  0  0
    5.6910   -3.3233    0.0000 H   0  0  0  0  0  0  0  0  0  0  0  0
    5.1350   -4.9064    0.0000 H   0  0  0  0  0  0  0  0  0  0  0  0
    8.2891   -6.8233    0.0000 H   0  0  0  0  0  0  0  0  0  0  0  0
    9.1360   -6.5964    0.0000 H   0  0  0  0  0  0  0  0  0  0  0  0
    8.9091   -5.7494    0.0000 H   0  0  0  0  0  0  0  0  0  0  0  0
    3.7320   -5.0964    0.0000 H   0  0  0  0  0  0  0  0  0  0  0  0
    2.8660   -3.9764    0.0000 H   0  0  0  0  0  0  0  0  0  0  0  0
    4.8059   -2.4764    0.0000 H   0  0  0  0  0  0  0  0  0  0  0  0
    3.4030   -2.6664    0.0000 H   0  0  0  0  0  0  0  0  0  0  0  0
    3.7320   -6.0964    0.0000 H   0  0  0  0  0  0  0  0  0  0  0  0
    4.0569   -1.2038    0.0000 H   0  0  0  0  0  0  0  0  0  0  0  0
    3.6584   -1.8940    0.0000 H   0  0  0  0  0  0  0  0  0  0  0  0
    2.0000   -4.4764    0.0000 H   0  0  0  0  0  0  0  0  0  0  0  0
    2.5369   -2.1664    0.0000 H   0  0  0  0  0  0  0  0  0  0  0  0
    5.1350   -0.6664    0.0000 H   0  0  0  0  0  0  0  0  0  0  0  0
 20  1  1  6  0  0  0
  1100  1  0  0  0  0
 25  2  1  1  0  0  0
  2 41  1  0  0  0  0
 26  3  1  6  0  0  0
  3 42  1  0  0  0  0
 38  4  1  6  0  0  0
 43  4  1  1  0  0  0
  5 39  2  0  0  0  0
  6 43  1  0  0  0  0
  6 48  1  0  0  0  0
  7 41  2  0  0  0  0
  8 42  2  0  0  0  0
 47  9  1  1  0  0  0
  9 60  1  0  0  0  0
 49 10  1  6  0  0  0
 59 10  1  1  0  0  0
 11 59  1  0  0  0  0
 11 63  1  0  0  0  0
 12 61  1  0  0  0  0
 12133  1  0  0  0  0
 62 13  1  1  0  0  0
 13 67  1  0  0  0  0
 64 14  1  6  0  0  0
 66 14  1  1  0  0  0
 15 66  1  0  0  0  0
 15 70  1  0  0  0  0
 16 68  1  0  0  0  0
 16145  1  0  0  0  0
 69 17  1  1  0  0  0
 17148  1  0  0  0  0
 71 18  1  6  0  0  0
 18149  1  0  0  0  0
 19 72  1  0  0  0  0
 19150  1  0  0  0  0
 20 21  1  0  0  0  0
 20 23  1  0  0  0  0
 20 30  1  0  0  0  0
 21 22  1  0  0  0  0
 21 29  1  0  0  0  0
 21 73  1  6  0  0  0
 22 24  1  0  0  0  0
 22 25  1  0  0  0  0
 22 74  1  1  0  0  0
 23 26  1  0  0  0  0
 23 28  1  0  0  0  0
 23 35  1  6  0  0  0
 24 27  1  0  0  0  0
 24 33  1  0  0  0  0
 24 36  1  6  0  0  0
 25 26  1  0  0  0  0
 25 75  1  0  0  0  0
 26 76  1  0  0  0  0
 27 31  1  0  0  0  0
 27 34  1  0  0  0  0
 27 77  1  1  0  0  0
 28 32  1  0  0  0  0
 28 39  1  6  0  0  0
 28 78  1  0  0  0  0
 29 31  1  0  0  0  0
 29 79  1  0  0  0  0
 29 80  1  0  0  0  0
 30 32  1  0  0  0  0
 30 81  1  0  0  0  0
 30 82  1  0  0  0  0
 31 83  1  0  0  0  0
 31 84  1  0  0  0  0
 32 85  1  0  0  0  0
 32 86  1  0  0  0  0
 33 37  1  0  0  0  0
 33 87  1  0  0  0  0
 33 88  1  0  0  0  0
 34 38  1  0  0  0  0
 34 89  1  0  0  0  0
 34 90  1  0  0  0  0
 35 91  1  0  0  0  0
 35 92  1  0  0  0  0
 35 93  1  0  0  0  0
 36 94  1  0  0  0  0
 36 95  1  0  0  0  0
 36 96  1  0  0  0  0
 37 38  1  0  0  0  0
 37 97  1  0  0  0  0
 37 98  1  0  0  0  0
 38 99  1  0  0  0  0
 39 40  1  0  0  0  0
 40101  1  0  0  0  0
 40102  1  0  0  0  0
 40103  1  0  0  0  0
 41 45  1  0  0  0  0
 42 44  1  0  0  0  0
 43 46  1  0  0  0  0
 43104  1  0  0  0  0
 44 50  1  0  0  0  0
 44 53  2  0  0  0  0
 45 51  2  0  0  0  0
 45 52  1  0  0  0  0
 46 47  1  0  0  0  0
 46105  1  0  0  0  0
 46106  1  0  0  0  0
 47 49  1  0  0  0  0
 47107  1  0  0  0  0
 48 49  1  0  0  0  0
 48 54  1  0  0  0  0
 48108  1  0  0  0  0
 49109  1  0  0  0  0
 50110  1  0  0  0  0
 50111  1  0  0  0  0
 50112  1  0  0  0  0
 51 55  1  0  0  0  0
 51113  1  0  0  0  0
 52 56  2  0  0  0  0
 52114  1  0  0  0  0
 53 57  1  0  0  0  0
 53115  1  0  0  0  0
 54116  1  0  0  0  0
 54117  1  0  0  0  0
 54118  1  0  0  0  0
 55 58  2  0  0  0  0
 55119  1  0  0  0  0
 56 58  1  0  0  0  0
 56120  1  0  0  0  0
 57121  1  0  0  0  0
 57122  1  0  0  0  0
 57123  1  0  0  0  0
 58124  1  0  0  0  0
 59 61  1  0  0  0  0
 59125  1  0  0  0  0
 60126  1  0  0  0  0
 60127  1  0  0  0  0
 60128  1  0  0  0  0
 61 62  1  0  0  0  0
 61129  1  0  0  0  0
 62 64  1  0  0  0  0
 62130  1  0  0  0  0
 63 64  1  0  0  0  0
 63 65  1  0  0  0  0
 63131  1  0  0  0  0
 64132  1  0  0  0  0
 65134  1  0  0  0  0
 65135  1  0  0  0  0
 65136  1  0  0  0  0
 66 68  1  0  0  0  0
 66137  1  0  0  0  0
 67138  1  0  0  0  0
 67139  1  0  0  0  0
 67140  1  0  0  0  0
 68 69  1  0  0  0  0
 68141  1  0  0  0  0
 69 71  1  0  0  0  0
 69142  1  0  0  0  0
 70 71  1  0  0  0  0
 70 72  1  0  0  0  0
 70143  1  0  0  0  0
 71144  1  0  0  0  0
 72146  1  0  0  0  0
 72147  1  0  0  0  0
M  END
> <PUBCHEM_COMPOUND_CID>
129908695

> <PUBCHEM_COMPOUND_CANONICALIZED>
1

> <PUBCHEM_CACTVS_COMPLEXITY>
1930

> <PUBCHEM_CACTVS_HBOND_ACCEPTOR>
19

> <PUBCHEM_CACTVS_HBOND_DONOR>
6

> <PUBCHEM_CACTVS_ROTATABLE_BOND>
16

> <PUBCHEM_CACTVS_SUBSKEYS>
AAADcfB8PgAAAAAAAAAAAAAAAAAAAYAAAAA0aNGCAAAAAGDBAAAAGgAACAAAD1SwmAMyCIAABgCIAqDSCAACAAAkAAAIiAEACMgZNjKANRiicQAlwAEPqYfK7PzPgAAAAAAAAADCAAYQADCAAYAADAAAAA==

> <PUBCHEM_IUPAC_OPENEYE_NAME>
[(3S,5S,8R,9S,10S,11S,12S,13S,14S,17S)-17-acetyl-14-hydroxy-3-[(2R,4R,5R)-5-[(2S,4R,5R)-3-hydroxy-4-methoxy-6-methyl-5-[(2S,4S,5S)-3,4,5-trihydroxy-6-(hydroxymethyl)tetrahydropyran-2-yl]oxy-tetrahydropyran-2-yl]oxy-4-methoxy-6-methyl-tetrahydropyran-2-yl]oxy-10,13-dimethyl-12-[(E)-2-methylbut-2-enoyl]oxy-1,2,3,4,5,6,7,8,9,11,12,15,16,17-tetradecahydrocyclopenta[a]phenanthren-11-yl] benzoate

> <PUBCHEM_IUPAC_CAS_NAME>
benzoic acid [(3S,5S,8R,9S,10S,11S,12S,13S,14S,17S)-17-acetyl-14-hydroxy-3-[[(2R,4R,5R)-5-[[(2S,4R,5R)-3-hydroxy-4-methoxy-6-methyl-5-[[(2S,4S,5S)-3,4,5-trihydroxy-6-(hydroxymethyl)-2-oxanyl]oxy]-2-oxanyl]oxy]-4-methoxy-6-methyl-2-oxanyl]oxy]-10,13-dimethyl-12-[(E)-2-methyl-1-oxobut-2-enoxy]-1,2,3,4,5,6,7,8,9,11,12,15,16,17-tetradecahydrocyclopenta[a]phenanthren-11-yl] ester

> <PUBCHEM_IUPAC_NAME_MARKUP>
[(3<I>S</I>,5<I>S</I>,8<I>R</I>,9<I>S</I>,10<I>S</I>,11<I>S</I>,12<I>S</I>,13<I>S</I>,14<I>S</I>,17<I>S</I>)-17-acetyl-14-hydroxy-3-[(2<I>R</I>,4<I>R</I>,5<I>R</I>)-5-[(2<I>S</I>,4<I>R</I>,5<I>R</I>)-3-hydroxy-4-methoxy-6-methyl-5-[(2<I>S</I>,4<I>S</I>,5<I>S</I>)-3,4,5-trihydroxy-6-(hydroxymethyl)oxan-2-yl]oxyoxan-2-yl]oxy-4-methoxy-6-methyloxan-2-yl]oxy-10,13-dimethyl-12-[(<I>E</I>)-2-methylbut-2-enoyl]oxy-1,2,3,4,5,6,7,8,9,11,12,15,16,17-tetradecahydrocyclopenta[a]phenanthren-11-yl] benzoate

> <PUBCHEM_IUPAC_NAME>
[(3S,5S,8R,9S,10S,11S,12S,13S,14S,17S)-17-acetyl-14-hydroxy-3-[(2R,4R,5R)-5-[(2S,4R,5R)-3-hydroxy-4-methoxy-6-methyl-5-[(2S,4S,5S)-3,4,5-trihydroxy-6-(hydroxymethyl)oxan-2-yl]oxyoxan-2-yl]oxy-4-methoxy-6-methyloxan-2-yl]oxy-10,13-dimethyl-12-[(E)-2-methylbut-2-enoyl]oxy-1,2,3,4,5,6,7,8,9,11,12,15,16,17-tetradecahydrocyclopenta[a]phenanthren-11-yl] benzoate

> <PUBCHEM_IUPAC_SYSTEMATIC_NAME>
[(3S,5S,8R,9S,10S,11S,12S,13S,14S,17S)-17-ethanoyl-3-[(2R,4R,5R)-5-[(2S,4R,5R)-5-[(2S,4S,5S)-6-(hydroxymethyl)-3,4,5-tris(oxidanyl)oxan-2-yl]oxy-4-methoxy-6-methyl-3-oxidanyl-oxan-2-yl]oxy-4-methoxy-6-methyl-oxan-2-yl]oxy-10,13-dimethyl-12-[(E)-2-methylbut-2-enoyl]oxy-14-oxidanyl-1,2,3,4,5,6,7,8,9,11,12,15,16,17-tetradecahydrocyclopenta[a]phenanthren-11-yl] benzoate

> <PUBCHEM_IUPAC_TRADITIONAL_NAME>
benzoic acid [(3S,5S,8R,9S,10S,11S,12S,13S,14S,17S)-17-acetyl-14-hydroxy-3-[(2R,4R,5R)-5-[(2S,4R,5R)-3-hydroxy-4-methoxy-6-methyl-5-[(2S,4S,5S)-3,4,5-trihydroxy-6-methylol-tetrahydropyran-2-yl]oxy-tetrahydropyran-2-yl]oxy-4-methoxy-6-methyl-tetrahydropyran-2-yl]oxy-10,13-dimethyl-12-[(E)-2-methylbut-2-enoyl]oxy-1,2,3,4,5,6,7,8,9,11,12,15,16,17-tetradecahydrocyclopenta[a]phenanthren-11-yl] ester

> <PUBCHEM_IUPAC_INCHI>
InChI=1S/C53H78O19/c1-10-25(2)47(60)72-46-44(69-48(61)29-14-12-11-13-15-29)37-33(53(62)21-19-32(26(3)55)52(46,53)7)17-16-30-22-31(18-20-51(30,37)6)67-36-23-34(63-8)42(27(4)65-36)70-50-41(59)45(64-9)43(28(5)66-50)71-49-40(58)39(57)38(56)35(24-54)68-49/h10-15,27-28,30-46,49-50,54,56-59,62H,16-24H2,1-9H3/b25-10+/t27?,28?,30-,31-,32+,33+,34+,35?,36-,37+,38+,39-,40?,41?,42+,43+,44-,45+,46+,49-,50-,51-,52-,53-/m0/s1

> <PUBCHEM_IUPAC_INCHIKEY>
YYXOQMYTDCCIGD-DJVIDQJOSA-N

> <PUBCHEM_XLOGP3_AA>
3.4

> <PUBCHEM_EXACT_MASS>
1018.51373

> <PUBCHEM_MOLECULAR_FORMULA>
C53H78O19

> <PUBCHEM_MOLECULAR_WEIGHT>
1019.2

> <PUBCHEM_OPENEYE_CAN_SMILES>
CC=C(C)C(=O)OC1C(C2C(CCC3C2(CCC(C3)OC4CC(C(C(O4)C)OC5C(C(C(C(O5)C)OC6C(C(C(C(O6)CO)O)O)O)OC)O)OC)C)C7(C1(C(CC7)C(=O)C)C)O)OC(=O)C8=CC=CC=C8

> <PUBCHEM_OPENEYE_ISO_SMILES>
C/C=C(\C)/C(=O)O[C@@H]1[C@H]([C@H]2[C@@H](CC[C@@H]3[C@@]2(CC[C@@H](C3)O[C@H]4C[C@H]([C@@H](C(O4)C)O[C@H]5C([C@H]([C@@H](C(O5)C)O[C@H]6C([C@H]([C@@H](C(O6)CO)O)O)O)OC)O)OC)C)[C@@]7([C@]1([C@H](CC7)C(=O)C)C)O)OC(=O)C8=CC=CC=C8

> <PUBCHEM_CACTVS_TPSA>
265

> <PUBCHEM_MONOISOTOPIC_WEIGHT>
1018.51373

> <PUBCHEM_TOTAL_CHARGE>
0

> <PUBCHEM_HEAVY_ATOM_COUNT>
72

> <PUBCHEM_ATOM_DEF_STEREO_COUNT>
19

> <PUBCHEM_ATOM_UDEF_STEREO_COUNT>
5

> <PUBCHEM_BOND_DEF_STEREO_COUNT>
1

> <PUBCHEM_BOND_UDEF_STEREO_COUNT>
0

> <PUBCHEM_ISOTOPIC_ATOM_COUNT>
0

> <PUBCHEM_COMPONENT_COUNT>
1

> <PUBCHEM_CACTVS_TAUTO_COUNT>
-1

> <PUBCHEM_COORDINATE_TYPE>
1
5
255

> <PUBCHEM_BONDANNOTATIONS>
20  1  6
49  10  6
59  10  5
61  12  3
62  13  5
64  14  6
66  14  5
68  16  3
69  17  5
71  18  6
25  2  5
21  73  6
22  74  5
23  35  6
24  36  6
27  77  5
28  39  6
26  3  6
38  4  6
43  4  5
45  51  8
45  52  8
48  54  3
51  55  8
52  56  8
55  58  8
56  58  8
63  65  3
70  72  3
47  9  5

$$$$
