11343196
  -OEChem-09092001042D

113119  0     1  0  0  0  0  0999 V2000
    9.6246    5.3445    0.0000 O   0  0  0  0  0  0  0  0  0  0  0  0
   11.8459    2.4695    0.0000 O   0  0  0  0  0  0  0  0  0  0  0  0
   10.4774    1.8408    0.0000 O   0  0  0  0  0  0  0  0  0  0  0  0
    6.0010    1.2136    0.0000 O   0  0  0  0  0  0  0  0  0  0  0  0
   13.7861    4.6380    0.0000 O   0  0  0  0  0  0  0  0  0  0  0  0
   13.3492    3.3297    0.0000 O   0  0  0  0  0  0  0  0  0  0  0  0
   12.2094    1.8341    0.0000 O   0  0  0  0  0  0  0  0  0  0  0  0
    6.8671   -0.2864    0.0000 O   0  0  0  0  0  0  0  0  0  0  0  0
    4.2690   -1.7864    0.0000 O   0  0  0  0  0  0  0  0  0  0  0  0
    6.0010   -2.7864    0.0000 O   0  0  0  0  0  0  0  0  0  0  0  0
    4.2690   -2.7864    0.0000 O   0  0  0  0  0  0  0  0  0  0  0  0
    6.0010   -4.7864    0.0000 O   0  0  0  0  0  0  0  0  0  0  0  0
    4.2690   -5.7864    0.0000 O   0  0  0  0  0  0  0  0  0  0  0  0
    2.5369   -4.7864    0.0000 O   0  0  0  0  0  0  0  0  0  0  0  0
   10.4890    4.8408    0.0000 C   0  0  1  0  0  0  0  0  0  0  0  0
    9.6210    4.3441    0.0000 C   0  0  2  0  0  0  0  0  0  0  0  0
   11.3531    4.3374    0.0000 C   0  0  2  0  0  0  0  0  0  0  0  0
    9.6172    3.3441    0.0000 C   0  0  1  0  0  0  0  0  0  0  0  0
    8.7212    2.8129    0.0000 C   0  0  2  0  0  0  0  0  0  0  0  0
   10.7019    5.8118    0.0000 C   0  0  0  0  0  0  0  0  0  0  0  0
   11.3492    3.3374    0.0000 C   0  0  1  0  0  0  0  0  0  0  0  0
    8.7291    4.8822    0.0000 C   0  0  0  0  0  0  0  0  0  0  0  0
   10.4813    2.8408    0.0000 C   0  0  1  0  0  0  0  0  0  0  0  0
   12.0926    5.0017    0.0000 C   0  0  1  0  0  0  0  0  0  0  0  0
    7.8171    3.3302    0.0000 C   0  0  1  0  0  0  0  0  0  0  0  0
   11.6910    5.9110    0.0000 C   0  0  0  0  0  0  0  0  0  0  0  0
    7.8211    4.3718    0.0000 C   0  0  0  0  0  0  0  0  0  0  0  0
   12.2171    3.8341    0.0000 C   0  0  0  0  0  0  0  0  0  0  0  0
    8.7421    1.7281    0.0000 C   0  0  0  0  0  0  0  0  0  0  0  0
    9.5891    2.3162    0.0000 C   0  0  0  0  0  0  0  0  0  0  0  0
    6.8712    2.7986    0.0000 C   0  0  0  0  0  0  0  0  0  0  0  0
    7.8088    1.1748    0.0000 C   0  0  0  0  0  0  0  0  0  0  0  0
   13.0443    5.3086    0.0000 C   0  0  0  0  0  0  0  0  0  0  0  0
    6.8671    1.7136    0.0000 C   0  0  2  0  0  0  0  0  0  0  0  0
   13.2543    6.2864    0.0000 C   0  0  0  0  0  0  0  0  0  0  0  0
   12.8459    2.4656    0.0000 C   0  0  0  0  0  0  0  0  0  0  0  0
   11.3415    1.3374    0.0000 C   0  0  0  0  0  0  0  0  0  0  0  0
    6.0010    0.2136    0.0000 C   0  0  2  0  0  0  0  0  0  0  0  0
   13.3425    1.5977    0.0000 C   0  0  0  0  0  0  0  0  0  0  0  0
   11.3376    0.3374    0.0000 C   0  0  0  0  0  0  0  0  0  0  0  0
    5.1350   -0.2864    0.0000 C   0  0  0  0  0  0  0  0  0  0  0  0
    5.1350   -1.2864    0.0000 C   0  0  2  0  0  0  0  0  0  0  0  0
    6.8671   -1.2864    0.0000 C   0  0  1  0  0  0  0  0  0  0  0  0
    6.0010   -1.7864    0.0000 C   0  0  1  0  0  0  0  0  0  0  0  0
    7.7331   -1.7864    0.0000 C   0  0  0  0  0  0  0  0  0  0  0  0
    5.1350   -3.2864    0.0000 C   0  0  2  0  0  0  0  0  0  0  0  0
    3.4030   -1.2864    0.0000 C   0  0  0  0  0  0  0  0  0  0  0  0
    5.1350   -4.2864    0.0000 C   0  0  1  0  0  0  0  0  0  0  0  0
    4.2690   -4.7864    0.0000 C   0  0  1  0  0  0  0  0  0  0  0  0
    3.4030   -3.2864    0.0000 C   0  0  1  0  0  0  0  0  0  0  0  0
    3.4030   -4.2864    0.0000 C   0  0  1  0  0  0  0  0  0  0  0  0
    2.5369   -2.7864    0.0000 C   0  0  0  0  0  0  0  0  0  0  0  0
    3.4030   -6.2864    0.0000 C   0  0  0  0  0  0  0  0  0  0  0  0
   10.3549    3.7663    0.0000 H   0  0  0  0  0  0  0  0  0  0  0  0
   10.7052    6.4318    0.0000 H   0  0  0  0  0  0  0  0  0  0  0  0
   10.0857    5.8802    0.0000 H   0  0  0  0  0  0  0  0  0  0  0  0
   11.9487    3.4956    0.0000 H   0  0  0  0  0  0  0  0  0  0  0  0
    9.1356    5.3504    0.0000 H   0  0  0  0  0  0  0  0  0  0  0  0
    8.3374    5.3627    0.0000 H   0  0  0  0  0  0  0  0  0  0  0  0
   11.0170    2.5287    0.0000 H   0  0  0  0  0  0  0  0  0  0  0  0
   12.4017    4.4642    0.0000 H   0  0  0  0  0  0  0  0  0  0  0  0
    7.0843    3.7609    0.0000 H   0  0  0  0  0  0  0  0  0  0  0  0
   12.2814    6.1005    0.0000 H   0  0  0  0  0  0  0  0  0  0  0  0
   11.5646    6.5180    0.0000 H   0  0  0  0  0  0  0  0  0  0  0  0
    7.6143    4.9563    0.0000 H   0  0  0  0  0  0  0  0  0  0  0  0
    7.2098    4.2681    0.0000 H   0  0  0  0  0  0  0  0  0  0  0  0
   11.9051    3.2984    0.0000 H   0  0  0  0  0  0  0  0  0  0  0  0
   12.7529    3.5220    0.0000 H   0  0  0  0  0  0  0  0  0  0  0  0
   12.5292    4.3698    0.0000 H   0  0  0  0  0  0  0  0  0  0  0  0
    8.9623    1.1485    0.0000 H   0  0  0  0  0  0  0  0  0  0  0  0
    9.3508    1.8459    0.0000 H   0  0  0  0  0  0  0  0  0  0  0  0
    9.2812    1.7781    0.0000 H   0  0  0  0  0  0  0  0  0  0  0  0
   10.1272    2.0083    0.0000 H   0  0  0  0  0  0  0  0  0  0  0  0
    9.8970    2.8544    0.0000 H   0  0  0  0  0  0  0  0  0  0  0  0
    6.6644    3.3831    0.0000 H   0  0  0  0  0  0  0  0  0  0  0  0
    6.2600    2.6949    0.0000 H   0  0  0  0  0  0  0  0  0  0  0  0
    7.4133    0.6973    0.0000 H   0  0  0  0  0  0  0  0  0  0  0  0
    8.2116    0.7034    0.0000 H   0  0  0  0  0  0  0  0  0  0  0  0
    6.8683    1.0936    0.0000 H   0  0  0  0  0  0  0  0  0  0  0  0
   13.8605    6.1562    0.0000 H   0  0  0  0  0  0  0  0  0  0  0  0
   13.3845    6.8925    0.0000 H   0  0  0  0  0  0  0  0  0  0  0  0
   12.6482    6.4166    0.0000 H   0  0  0  0  0  0  0  0  0  0  0  0
    5.4641    0.5236    0.0000 H   0  0  0  0  0  0  0  0  0  0  0  0
   12.8044    1.2898    0.0000 H   0  0  0  0  0  0  0  0  0  0  0  0
   13.6504    1.0596    0.0000 H   0  0  0  0  0  0  0  0  0  0  0  0
   13.8806    1.9056    0.0000 H   0  0  0  0  0  0  0  0  0  0  0  0
   10.7176    0.3398    0.0000 H   0  0  0  0  0  0  0  0  0  0  0  0
   11.3352   -0.2825    0.0000 H   0  0  0  0  0  0  0  0  0  0  0  0
   11.9576    0.3351    0.0000 H   0  0  0  0  0  0  0  0  0  0  0  0
    4.9230    0.2963    0.0000 H   0  0  0  0  0  0  0  0  0  0  0  0
    4.5244   -0.3940    0.0000 H   0  0  0  0  0  0  0  0  0  0  0  0
    5.1350   -1.9064    0.0000 H   0  0  0  0  0  0  0  0  0  0  0  0
    7.4040   -0.9764    0.0000 H   0  0  0  0  0  0  0  0  0  0  0  0
    6.5380   -2.0964    0.0000 H   0  0  0  0  0  0  0  0  0  0  0  0
    7.4231   -2.3233    0.0000 H   0  0  0  0  0  0  0  0  0  0  0  0
    8.2700   -2.0964    0.0000 H   0  0  0  0  0  0  0  0  0  0  0  0
    8.0431   -1.2494    0.0000 H   0  0  0  0  0  0  0  0  0  0  0  0
    5.1350   -2.6664    0.0000 H   0  0  0  0  0  0  0  0  0  0  0  0
    3.7130   -0.7494    0.0000 H   0  0  0  0  0  0  0  0  0  0  0  0
    2.8660   -0.9764    0.0000 H   0  0  0  0  0  0  0  0  0  0  0  0
    3.0930   -1.8233    0.0000 H   0  0  0  0  0  0  0  0  0  0  0  0
    5.1350   -4.9064    0.0000 H   0  0  0  0  0  0  0  0  0  0  0  0
    3.7320   -5.0964    0.0000 H   0  0  0  0  0  0  0  0  0  0  0  0
    3.4030   -2.6664    0.0000 H   0  0  0  0  0  0  0  0  0  0  0  0
    3.4030   -4.9064    0.0000 H   0  0  0  0  0  0  0  0  0  0  0  0
    6.0010   -5.4064    0.0000 H   0  0  0  0  0  0  0  0  0  0  0  0
    2.8469   -2.2494    0.0000 H   0  0  0  0  0  0  0  0  0  0  0  0
    2.0000   -2.4764    0.0000 H   0  0  0  0  0  0  0  0  0  0  0  0
    2.2269   -3.3233    0.0000 H   0  0  0  0  0  0  0  0  0  0  0  0
    2.0000   -4.4764    0.0000 H   0  0  0  0  0  0  0  0  0  0  0  0
    3.0930   -5.7494    0.0000 H   0  0  0  0  0  0  0  0  0  0  0  0
    2.8660   -6.5964    0.0000 H   0  0  0  0  0  0  0  0  0  0  0  0
    3.7130   -6.8233    0.0000 H   0  0  0  0  0  0  0  0  0  0  0  0
 15  1  1  6  0  0  0
 16  1  1  6  0  0  0
 21  2  1  6  0  0  0
  2 36  1  0  0  0  0
 23  3  1  1  0  0  0
  3 37  1  0  0  0  0
 34  4  1  6  0  0  0
 38  4  1  6  0  0  0
  5 33  2  0  0  0  0
  6 36  2  0  0  0  0
  7 37  2  0  0  0  0
  8 38  1  0  0  0  0
  8 43  1  0  0  0  0
 42  9  1  6  0  0  0
  9 47  1  0  0  0  0
 44 10  1  1  0  0  0
 46 10  1  1  0  0  0
 11 46  1  0  0  0  0
 11 50  1  0  0  0  0
 48 12  1  6  0  0  0
 12106  1  0  0  0  0
 49 13  1  6  0  0  0
 13 53  1  0  0  0  0
 51 14  1  6  0  0  0
 14110  1  0  0  0  0
 15 16  1  0  0  0  0
 15 17  1  0  0  0  0
 15 20  1  0  0  0  0
 16 18  1  0  0  0  0
 16 22  1  0  0  0  0
 17 21  1  0  0  0  0
 17 24  1  0  0  0  0
 17 28  1  6  0  0  0
 18 19  1  0  0  0  0
 18 23  1  0  0  0  0
 18 54  1  1  0  0  0
 19 25  1  0  0  0  0
 19 29  1  0  0  0  0
 19 30  1  6  0  0  0
 20 26  1  0  0  0  0
 20 55  1  0  0  0  0
 20 56  1  0  0  0  0
 21 23  1  0  0  0  0
 21 57  1  0  0  0  0
 22 27  1  0  0  0  0
 22 58  1  0  0  0  0
 22 59  1  0  0  0  0
 23 60  1  0  0  0  0
 24 26  1  0  0  0  0
 24 33  1  1  0  0  0
 24 61  1  0  0  0  0
 25 27  1  0  0  0  0
 25 31  1  0  0  0  0
 25 62  1  1  0  0  0
 26 63  1  0  0  0  0
 26 64  1  0  0  0  0
 27 65  1  0  0  0  0
 27 66  1  0  0  0  0
 28 67  1  0  0  0  0
 28 68  1  0  0  0  0
 28 69  1  0  0  0  0
 29 32  1  0  0  0  0
 29 70  1  0  0  0  0
 29 71  1  0  0  0  0
 30 72  1  0  0  0  0
 30 73  1  0  0  0  0
 30 74  1  0  0  0  0
 31 34  1  0  0  0  0
 31 75  1  0  0  0  0
 31 76  1  0  0  0  0
 32 34  1  0  0  0  0
 32 77  1  0  0  0  0
 32 78  1  0  0  0  0
 33 35  1  0  0  0  0
 34 79  1  0  0  0  0
 35 80  1  0  0  0  0
 35 81  1  0  0  0  0
 35 82  1  0  0  0  0
 36 39  1  0  0  0  0
 37 40  1  0  0  0  0
 38 41  1  0  0  0  0
 38 83  1  0  0  0  0
 39 84  1  0  0  0  0
 39 85  1  0  0  0  0
 39 86  1  0  0  0  0
 40 87  1  0  0  0  0
 40 88  1  0  0  0  0
 40 89  1  0  0  0  0
 41 42  1  0  0  0  0
 41 90  1  0  0  0  0
 41 91  1  0  0  0  0
 42 44  1  0  0  0  0
 42 92  1  0  0  0  0
 43 44  1  0  0  0  0
 43 45  1  6  0  0  0
 43 93  1  0  0  0  0
 44 94  1  0  0  0  0
 45 95  1  0  0  0  0
 45 96  1  0  0  0  0
 45 97  1  0  0  0  0
 46 48  1  0  0  0  0
 46 98  1  0  0  0  0
 47 99  1  0  0  0  0
 47100  1  0  0  0  0
 47101  1  0  0  0  0
 48 49  1  0  0  0  0
 48102  1  0  0  0  0
 49 51  1  0  0  0  0
 49103  1  0  0  0  0
 50 51  1  0  0  0  0
 50 52  1  1  0  0  0
 50104  1  0  0  0  0
 51105  1  0  0  0  0
 52107  1  0  0  0  0
 52108  1  0  0  0  0
 52109  1  0  0  0  0
 53111  1  0  0  0  0
 53112  1  0  0  0  0
 53113  1  0  0  0  0
M  END
> <PUBCHEM_COMPOUND_CID>
11343196

> <PUBCHEM_COMPOUND_CANONICALIZED>
1

> <PUBCHEM_CACTVS_COMPLEXITY>
1430

> <PUBCHEM_CACTVS_HBOND_ACCEPTOR>
14

> <PUBCHEM_CACTVS_HBOND_DONOR>
2

> <PUBCHEM_CACTVS_ROTATABLE_BOND>
11

> <PUBCHEM_CACTVS_SUBSKEYS>
AAADcfB8PAAAAAAAAAAAAAAAEgAAAYAAAAA0aMECBIAAAGDQAAAAGgAACAAAD1SwgAMCCAAABgAIAICQCAAAAAAAAAAAAAEAAAAREBIAAAAiQAAFAAAHAAHK7PzPgAAAAAAAAADCAAYQADCAAYAADAAAAA==

> <PUBCHEM_IUPAC_OPENEYE_NAME>
[(1S,3R,6R,7S,8S,9S,10S,11S,14S,16S)-8-acetoxy-6-acetyl-14-[(2R,4R,5R,6R)-5-[(2S,3R,4R,5R,6R)-3,5-dihydroxy-4-methoxy-6-methyl-tetrahydropyran-2-yl]oxy-4-methoxy-6-methyl-tetrahydropyran-2-yl]oxy-7,11-dimethyl-2-oxapentacyclo[8.8.0.01,3.03,7.011,16]octadecan-9-yl] acetate

> <PUBCHEM_IUPAC_CAS_NAME>
acetic acid [(1S,3R,6R,7S,8S,9S,10S,11S,14S,16S)-6-acetyl-8-acetyloxy-14-[[(2R,4R,5R,6R)-5-[[(2S,3R,4R,5R,6R)-3,5-dihydroxy-4-methoxy-6-methyl-2-oxanyl]oxy]-4-methoxy-6-methyl-2-oxanyl]oxy]-7,11-dimethyl-2-oxapentacyclo[8.8.0.01,3.03,7.011,16]octadecan-9-yl] ester

> <PUBCHEM_IUPAC_NAME_MARKUP>
[(1<I>S</I>,3<I>R</I>,6<I>R</I>,7<I>S</I>,8<I>S</I>,9<I>S</I>,10<I>S</I>,11<I>S</I>,14<I>S</I>,16<I>S</I>)-6-acetyl-8-acetyloxy-14-[(2<I>R</I>,4<I>R</I>,5<I>R</I>,6<I>R</I>)-5-[(2<I>S</I>,3<I>R</I>,4<I>R</I>,5<I>R</I>,6<I>R</I>)-3,5-dihydroxy-4-methoxy-6-methyloxan-2-yl]oxy-4-methoxy-6-methyloxan-2-yl]oxy-7,11-dimethyl-2-oxapentacyclo[8.8.0.0<SUP>1,3</SUP>.0<SUP>3,7</SUP>.0<SUP>11,16</SUP>]octadecan-9-yl] acetate

> <PUBCHEM_IUPAC_NAME>
[(1S,3R,6R,7S,8S,9S,10S,11S,14S,16S)-6-acetyl-8-acetyloxy-14-[(2R,4R,5R,6R)-5-[(2S,3R,4R,5R,6R)-3,5-dihydroxy-4-methoxy-6-methyloxan-2-yl]oxy-4-methoxy-6-methyloxan-2-yl]oxy-7,11-dimethyl-2-oxapentacyclo[8.8.0.01,3.03,7.011,16]octadecan-9-yl] acetate

> <PUBCHEM_IUPAC_SYSTEMATIC_NAME>
[(1S,3R,6R,7S,8S,9S,10S,11S,14S,16S)-8-acetyloxy-6-ethanoyl-14-[(2R,4R,5R,6R)-4-methoxy-5-[(2S,3R,4R,5R,6R)-4-methoxy-6-methyl-3,5-bis(oxidanyl)oxan-2-yl]oxy-6-methyl-oxan-2-yl]oxy-7,11-dimethyl-2-oxapentacyclo[8.8.0.01,3.03,7.011,16]octadecan-9-yl] ethanoate

> <PUBCHEM_IUPAC_TRADITIONAL_NAME>
acetic acid [(1S,3R,6R,7S,8S,9S,10S,11S,14S,16S)-8-acetoxy-6-acetyl-14-[(2R,4R,5R,6R)-5-[(2S,3R,4R,5R,6R)-3,5-dihydroxy-4-methoxy-6-methyl-tetrahydropyran-2-yl]oxy-4-methoxy-6-methyl-tetrahydropyran-2-yl]oxy-7,11-dimethyl-2-oxapentacyclo[8.8.0.01,3.03,7.011,16]octadecan-9-yl] ester

> <PUBCHEM_IUPAC_INCHI>
InChI=1S/C39H60O14/c1-18(40)25-12-15-39-37(25,7)34(50-22(5)42)32(49-21(4)41)33-36(6)13-11-24(16-23(36)10-14-38(33,39)53-39)51-27-17-26(45-8)30(20(3)47-27)52-35-29(44)31(46-9)28(43)19(2)48-35/h19-20,23-35,43-44H,10-17H2,1-9H3/t19-,20-,23+,24+,25+,26-,27+,28-,29-,30-,31-,32+,33-,34-,35+,36+,37+,38+,39-/m1/s1

> <PUBCHEM_IUPAC_INCHIKEY>
BLRABBHSPXPECV-IYNXUUSNSA-N

> <PUBCHEM_XLOGP3_AA>
1.9

> <PUBCHEM_EXACT_MASS>
752.398307

> <PUBCHEM_MOLECULAR_FORMULA>
C39H60O14

> <PUBCHEM_MOLECULAR_WEIGHT>
752.9

> <PUBCHEM_OPENEYE_CAN_SMILES>
CC1C(C(C(C(O1)OC2C(OC(CC2OC)OC3CCC4(C(C3)CCC56C4C(C(C7(C5(O6)CCC7C(=O)C)C)OC(=O)C)OC(=O)C)C)C)O)OC)O

> <PUBCHEM_OPENEYE_ISO_SMILES>
C[C@@H]1[C@H]([C@H]([C@H]([C@@H](O1)O[C@@H]2[C@H](O[C@H](C[C@H]2OC)O[C@H]3CC[C@]4([C@H](C3)CC[C@]56[C@@H]4[C@@H]([C@H]([C@]7([C@]5(O6)CC[C@H]7C(=O)C)C)OC(=O)C)OC(=O)C)C)C)O)OC)O

> <PUBCHEM_CACTVS_TPSA>
178

> <PUBCHEM_MONOISOTOPIC_WEIGHT>
752.398307

> <PUBCHEM_TOTAL_CHARGE>
0

> <PUBCHEM_HEAVY_ATOM_COUNT>
53

> <PUBCHEM_ATOM_DEF_STEREO_COUNT>
19

> <PUBCHEM_ATOM_UDEF_STEREO_COUNT>
0

> <PUBCHEM_BOND_DEF_STEREO_COUNT>
0

> <PUBCHEM_BOND_UDEF_STEREO_COUNT>
0

> <PUBCHEM_ISOTOPIC_ATOM_COUNT>
0

> <PUBCHEM_COMPONENT_COUNT>
1

> <PUBCHEM_CACTVS_TAUTO_COUNT>
-1

> <PUBCHEM_COORDINATE_TYPE>
1
5
255

> <PUBCHEM_BONDANNOTATIONS>
15  1  6
16  1  6
44  10  5
46  10  5
48  12  6
49  13  6
51  14  6
17  28  6
18  54  5
19  30  6
21  2  6
24  33  5
25  62  5
23  3  5
34  4  6
38  4  6
43  45  6
50  52  5
42  9  6

$$$$
