101902132
  -OEChem-09092001512D

170178  0     1  0  0  0  0  0999 V2000
   15.0453    5.6093    0.0000 O   0  0  0  0  0  0  0  0  0  0  0  0
   14.4788    5.2851    0.0000 O   0  0  0  0  0  0  0  0  0  0  0  0
   17.4094    2.8341    0.0000 O   0  0  0  0  0  0  0  0  0  0  0  0
   15.6736    1.8408    0.0000 O   0  0  0  0  0  0  0  0  0  0  0  0
   11.1972    1.2136    0.0000 O   0  0  0  0  0  0  0  0  0  0  0  0
   18.9822    4.6380    0.0000 O   0  0  0  0  0  0  0  0  0  0  0  0
   18.2812    4.3307    0.0000 O   0  0  0  0  0  0  0  0  0  0  0  0
   17.4056    1.8341    0.0000 O   0  0  0  0  0  0  0  0  0  0  0  0
   10.3312   -0.2864    0.0000 O   0  0  0  0  0  0  0  0  0  0  0  0
   12.9292   -1.7864    0.0000 O   0  0  0  0  0  0  0  0  0  0  0  0
   11.1972   -2.7864    0.0000 O   0  0  0  0  0  0  0  0  0  0  0  0
    9.4651   -2.7864    0.0000 O   0  0  0  0  0  0  0  0  0  0  0  0
   11.1972   -4.7864    0.0000 O   0  0  0  0  0  0  0  0  0  0  0  0
    9.4651   -5.7864    0.0000 O   0  0  0  0  0  0  0  0  0  0  0  0
    7.7331   -4.7864    0.0000 O   0  0  0  0  0  0  0  0  0  0  0  0
    6.8671   -3.2864    0.0000 O   0  0  0  0  0  0  0  0  0  0  0  0
    6.0010   -5.7864    0.0000 O   0  0  0  0  0  0  0  0  0  0  0  0
    4.2690   -2.7864    0.0000 O   0  0  0  0  0  0  0  0  0  0  0  0
    4.2690   -4.7864    0.0000 O   0  0  0  0  0  0  0  0  0  0  0  0
    5.1350   -1.2864    0.0000 O   0  0  0  0  0  0  0  0  0  0  0  0
    6.8671   -1.2864    0.0000 O   0  0  0  0  0  0  0  0  0  0  0  0
    2.5369   -1.7864    0.0000 O   0  0  0  0  0  0  0  0  0  0  0  0
    2.5369    0.2136    0.0000 O   0  0  0  0  0  0  0  0  0  0  0  0
    4.2690    1.2136    0.0000 O   0  0  0  0  0  0  0  0  0  0  0  0
    6.0010    1.2136    0.0000 O   0  0  0  0  0  0  0  0  0  0  0  0
   15.6851    4.8408    0.0000 C   0  0  2  0  0  0  0  0  0  0  0  0
   16.5492    4.3374    0.0000 C   0  0  2  0  0  0  0  0  0  0  0  0
   14.8172    4.3441    0.0000 C   0  0  2  0  0  0  0  0  0  0  0  0
   14.8133    3.3441    0.0000 C   0  0  1  0  0  0  0  0  0  0  0  0
   16.5454    3.3374    0.0000 C   0  0  1  0  0  0  0  0  0  0  0  0
   13.9173    2.8129    0.0000 C   0  0  2  0  0  0  0  0  0  0  0  0
   15.6774    2.8408    0.0000 C   0  0  1  0  0  0  0  0  0  0  0  0
   17.2888    5.0017    0.0000 C   0  0  2  0  0  0  0  0  0  0  0  0
   15.8981    5.8118    0.0000 C   0  0  0  0  0  0  0  0  0  0  0  0
   16.8872    5.9110    0.0000 C   0  0  0  0  0  0  0  0  0  0  0  0
   13.9253    4.8822    0.0000 C   0  0  0  0  0  0  0  0  0  0  0  0
   17.4133    3.8341    0.0000 C   0  0  0  0  0  0  0  0  0  0  0  0
   13.0132    3.3302    0.0000 C   0  0  0  0  0  0  0  0  0  0  0  0
   13.9382    1.7281    0.0000 C   0  0  0  0  0  0  0  0  0  0  0  0
   13.0173    4.3718    0.0000 C   0  0  0  0  0  0  0  0  0  0  0  0
   14.7853    2.3162    0.0000 C   0  0  0  0  0  0  0  0  0  0  0  0
   12.0674    2.7986    0.0000 C   0  0  0  0  0  0  0  0  0  0  0  0
   18.2405    5.3086    0.0000 C   0  0  0  0  0  0  0  0  0  0  0  0
   13.0049    1.1748    0.0000 C   0  0  0  0  0  0  0  0  0  0  0  0
   12.0632    1.7136    0.0000 C   0  0  2  0  0  0  0  0  0  0  0  0
   18.4505    6.2864    0.0000 C   0  0  0  0  0  0  0  0  0  0  0  0
   18.2774    3.3308    0.0000 C   0  0  0  0  0  0  0  0  0  0  0  0
   16.5376    1.3374    0.0000 C   0  0  0  0  0  0  0  0  0  0  0  0
   11.1972    0.2136    0.0000 C   0  0  2  0  0  0  0  0  0  0  0  0
   19.1415    2.8274    0.0000 C   0  0  0  0  0  0  0  0  0  0  0  0
   16.5338    0.3374    0.0000 C   0  0  0  0  0  0  0  0  0  0  0  0
   12.0632   -0.2864    0.0000 C   0  0  0  0  0  0  0  0  0  0  0  0
   20.0094    3.3241    0.0000 C   0  0  0  0  0  0  0  0  0  0  0  0
   12.0632   -1.2864    0.0000 C   0  0  2  0  0  0  0  0  0  0  0  0
   19.1376    1.8274    0.0000 C   0  0  0  0  0  0  0  0  0  0  0  0
   15.6658   -0.1592    0.0000 C   0  0  0  0  0  0  0  0  0  0  0  0
   17.3979   -0.1659    0.0000 C   0  0  0  0  0  0  0  0  0  0  0  0
   10.3312   -1.2864    0.0000 C   0  0  1  0  0  0  0  0  0  0  0  0
   11.1972   -1.7864    0.0000 C   0  0  1  0  0  0  0  0  0  0  0  0
   20.0017    1.3241    0.0000 C   0  0  0  0  0  0  0  0  0  0  0  0
   15.6620   -1.1592    0.0000 C   0  0  0  0  0  0  0  0  0  0  0  0
   17.3940   -1.1659    0.0000 C   0  0  0  0  0  0  0  0  0  0  0  0
    9.4651   -1.7864    0.0000 C   0  0  0  0  0  0  0  0  0  0  0  0
   16.5261   -1.6625    0.0000 C   0  0  0  0  0  0  0  0  0  0  0  0
   10.3312   -3.2864    0.0000 C   0  0  2  0  0  0  0  0  0  0  0  0
   13.7953   -1.2864    0.0000 C   0  0  0  0  0  0  0  0  0  0  0  0
   10.3312   -4.2864    0.0000 C   0  0  1  0  0  0  0  0  0  0  0  0
    9.4651   -4.7864    0.0000 C   0  0  1  0  0  0  0  0  0  0  0  0
    8.5991   -3.2864    0.0000 C   0  0  1  0  0  0  0  0  0  0  0  0
    8.5991   -4.2864    0.0000 C   0  0  1  0  0  0  0  0  0  0  0  0
    7.7331   -2.7864    0.0000 C   0  0  0  0  0  0  0  0  0  0  0  0
    6.8671   -4.2864    0.0000 C   0  0  2  0  0  0  0  0  0  0  0  0
   10.3312   -6.2864    0.0000 C   0  0  0  0  0  0  0  0  0  0  0  0
    6.0010   -4.7864    0.0000 C   0  0  1  0  0  0  0  0  0  0  0  0
    5.1350   -4.2864    0.0000 C   0  0  2  0  0  0  0  0  0  0  0  0
    5.1350   -3.2864    0.0000 C   0  0  1  0  0  0  0  0  0  0  0  0
    6.0010   -2.7864    0.0000 C   0  0  1  0  0  0  0  0  0  0  0  0
    6.0010   -1.7864    0.0000 C   0  0  0  0  0  0  0  0  0  0  0  0
    4.2690   -1.7864    0.0000 C   0  0  2  0  0  0  0  0  0  0  0  0
    3.4030   -1.2864    0.0000 C   0  0  1  0  0  0  0  0  0  0  0  0
    3.4030   -0.2864    0.0000 C   0  0  2  0  0  0  0  0  0  0  0  0
    4.2690    0.2136    0.0000 C   0  0  1  0  0  0  0  0  0  0  0  0
    5.1350   -0.2864    0.0000 C   0  0  1  0  0  0  0  0  0  0  0  0
    6.0010    0.2136    0.0000 C   0  0  0  0  0  0  0  0  0  0  0  0
   15.5511    3.7663    0.0000 H   0  0  0  0  0  0  0  0  0  0  0  0
   16.5430    2.7174    0.0000 H   0  0  0  0  0  0  0  0  0  0  0  0
   15.1393    2.5328    0.0000 H   0  0  0  0  0  0  0  0  0  0  0  0
   17.5979    4.4642    0.0000 H   0  0  0  0  0  0  0  0  0  0  0  0
   15.9014    6.4318    0.0000 H   0  0  0  0  0  0  0  0  0  0  0  0
   15.2819    5.8802    0.0000 H   0  0  0  0  0  0  0  0  0  0  0  0
   17.4775    6.1005    0.0000 H   0  0  0  0  0  0  0  0  0  0  0  0
   16.7608    6.5180    0.0000 H   0  0  0  0  0  0  0  0  0  0  0  0
   14.3317    5.3504    0.0000 H   0  0  0  0  0  0  0  0  0  0  0  0
   13.5335    5.3627    0.0000 H   0  0  0  0  0  0  0  0  0  0  0  0
   17.1012    3.2984    0.0000 H   0  0  0  0  0  0  0  0  0  0  0  0
   17.9490    3.5220    0.0000 H   0  0  0  0  0  0  0  0  0  0  0  0
   17.7254    4.3698    0.0000 H   0  0  0  0  0  0  0  0  0  0  0  0
   14.1585    1.1485    0.0000 H   0  0  0  0  0  0  0  0  0  0  0  0
   14.5469    1.8459    0.0000 H   0  0  0  0  0  0  0  0  0  0  0  0
   12.4827    4.6860    0.0000 H   0  0  0  0  0  0  0  0  0  0  0  0
   15.2596    6.1911    0.0000 H   0  0  0  0  0  0  0  0  0  0  0  0
   14.4773    1.7781    0.0000 H   0  0  0  0  0  0  0  0  0  0  0  0
   15.3234    2.0083    0.0000 H   0  0  0  0  0  0  0  0  0  0  0  0
   15.0932    2.8544    0.0000 H   0  0  0  0  0  0  0  0  0  0  0  0
   14.0054    5.6854    0.0000 H   0  0  0  0  0  0  0  0  0  0  0  0
   11.8606    3.3831    0.0000 H   0  0  0  0  0  0  0  0  0  0  0  0
   11.4561    2.6949    0.0000 H   0  0  0  0  0  0  0  0  0  0  0  0
   12.6095    0.6973    0.0000 H   0  0  0  0  0  0  0  0  0  0  0  0
   13.4077    0.7034    0.0000 H   0  0  0  0  0  0  0  0  0  0  0  0
   11.5269    2.0247    0.0000 H   0  0  0  0  0  0  0  0  0  0  0  0
   19.0567    6.1562    0.0000 H   0  0  0  0  0  0  0  0  0  0  0  0
   18.5807    6.8925    0.0000 H   0  0  0  0  0  0  0  0  0  0  0  0
   17.8443    6.4166    0.0000 H   0  0  0  0  0  0  0  0  0  0  0  0
   11.7341    0.5236    0.0000 H   0  0  0  0  0  0  0  0  0  0  0  0
   12.6738   -0.3940    0.0000 H   0  0  0  0  0  0  0  0  0  0  0  0
   12.2753    0.2963    0.0000 H   0  0  0  0  0  0  0  0  0  0  0  0
   20.3174    2.7860    0.0000 H   0  0  0  0  0  0  0  0  0  0  0  0
   20.5476    3.6320    0.0000 H   0  0  0  0  0  0  0  0  0  0  0  0
   19.7015    3.8622    0.0000 H   0  0  0  0  0  0  0  0  0  0  0  0
   12.6002   -0.9764    0.0000 H   0  0  0  0  0  0  0  0  0  0  0  0
   18.5995    1.5195    0.0000 H   0  0  0  0  0  0  0  0  0  0  0  0
   15.1301    0.1529    0.0000 H   0  0  0  0  0  0  0  0  0  0  0  0
   17.9360    0.1420    0.0000 H   0  0  0  0  0  0  0  0  0  0  0  0
    9.7942   -0.9764    0.0000 H   0  0  0  0  0  0  0  0  0  0  0  0
   11.7341   -2.0964    0.0000 H   0  0  0  0  0  0  0  0  0  0  0  0
   19.6897    0.7884    0.0000 H   0  0  0  0  0  0  0  0  0  0  0  0
   20.5375    1.0120    0.0000 H   0  0  0  0  0  0  0  0  0  0  0  0
   20.3138    1.8598    0.0000 H   0  0  0  0  0  0  0  0  0  0  0  0
   15.1239   -1.4671    0.0000 H   0  0  0  0  0  0  0  0  0  0  0  0
   17.9298   -1.4780    0.0000 H   0  0  0  0  0  0  0  0  0  0  0  0
    9.1551   -1.2494    0.0000 H   0  0  0  0  0  0  0  0  0  0  0  0
    8.9282   -2.0964    0.0000 H   0  0  0  0  0  0  0  0  0  0  0  0
    9.7751   -2.3233    0.0000 H   0  0  0  0  0  0  0  0  0  0  0  0
   16.5237   -2.2825    0.0000 H   0  0  0  0  0  0  0  0  0  0  0  0
   10.3312   -2.6664    0.0000 H   0  0  0  0  0  0  0  0  0  0  0  0
   14.1053   -1.8233    0.0000 H   0  0  0  0  0  0  0  0  0  0  0  0
   14.3322   -0.9764    0.0000 H   0  0  0  0  0  0  0  0  0  0  0  0
   13.4853   -0.7494    0.0000 H   0  0  0  0  0  0  0  0  0  0  0  0
   10.3312   -4.9064    0.0000 H   0  0  0  0  0  0  0  0  0  0  0  0
    8.9282   -5.0964    0.0000 H   0  0  0  0  0  0  0  0  0  0  0  0
    8.5991   -2.6664    0.0000 H   0  0  0  0  0  0  0  0  0  0  0  0
    8.5991   -4.9064    0.0000 H   0  0  0  0  0  0  0  0  0  0  0  0
   11.7341   -4.4764    0.0000 H   0  0  0  0  0  0  0  0  0  0  0  0
    8.0431   -2.2494    0.0000 H   0  0  0  0  0  0  0  0  0  0  0  0
    7.1962   -2.4764    0.0000 H   0  0  0  0  0  0  0  0  0  0  0  0
    7.4231   -3.3233    0.0000 H   0  0  0  0  0  0  0  0  0  0  0  0
    6.8671   -4.9064    0.0000 H   0  0  0  0  0  0  0  0  0  0  0  0
   10.0212   -6.8233    0.0000 H   0  0  0  0  0  0  0  0  0  0  0  0
   10.8681   -6.5964    0.0000 H   0  0  0  0  0  0  0  0  0  0  0  0
   10.6412   -5.7494    0.0000 H   0  0  0  0  0  0  0  0  0  0  0  0
    5.4641   -5.0964    0.0000 H   0  0  0  0  0  0  0  0  0  0  0  0
    4.5981   -3.9764    0.0000 H   0  0  0  0  0  0  0  0  0  0  0  0
    5.1350   -2.6664    0.0000 H   0  0  0  0  0  0  0  0  0  0  0  0
    6.5380   -2.4764    0.0000 H   0  0  0  0  0  0  0  0  0  0  0  0
    5.4641   -6.0964    0.0000 H   0  0  0  0  0  0  0  0  0  0  0  0
    5.7890   -1.2038    0.0000 H   0  0  0  0  0  0  0  0  0  0  0  0
    5.3905   -1.8940    0.0000 H   0  0  0  0  0  0  0  0  0  0  0  0
    3.7320   -4.4764    0.0000 H   0  0  0  0  0  0  0  0  0  0  0  0
    3.7320   -2.0964    0.0000 H   0  0  0  0  0  0  0  0  0  0  0  0
    2.8660   -0.9764    0.0000 H   0  0  0  0  0  0  0  0  0  0  0  0
    3.4030    0.3336    0.0000 H   0  0  0  0  0  0  0  0  0  0  0  0
    4.8059    0.5236    0.0000 H   0  0  0  0  0  0  0  0  0  0  0  0
    5.6720   -0.5964    0.0000 H   0  0  0  0  0  0  0  0  0  0  0  0
    7.4040   -1.5964    0.0000 H   0  0  0  0  0  0  0  0  0  0  0  0
    6.2131   -0.3690    0.0000 H   0  0  0  0  0  0  0  0  0  0  0  0
    6.6116    0.3213    0.0000 H   0  0  0  0  0  0  0  0  0  0  0  0
    2.0000   -1.4764    0.0000 H   0  0  0  0  0  0  0  0  0  0  0  0
    2.5369    0.8336    0.0000 H   0  0  0  0  0  0  0  0  0  0  0  0
    3.7320    1.5236    0.0000 H   0  0  0  0  0  0  0  0  0  0  0  0
    6.5380    1.5236    0.0000 H   0  0  0  0  0  0  0  0  0  0  0  0
 26  1  1  6  0  0  0
  1101  1  0  0  0  0
 28  2  1  6  0  0  0
  2105  1  0  0  0  0
 30  3  1  6  0  0  0
  3 47  1  0  0  0  0
 32  4  1  1  0  0  0
  4 48  1  0  0  0  0
 45  5  1  6  0  0  0
 49  5  1  1  0  0  0
  6 43  2  0  0  0  0
  7 47  2  0  0  0  0
  8 48  2  0  0  0  0
  9 49  1  0  0  0  0
  9 58  1  0  0  0  0
 54 10  1  1  0  0  0
 10 66  1  0  0  0  0
 59 11  1  6  0  0  0
 65 11  1  1  0  0  0
 12 65  1  0  0  0  0
 12 69  1  0  0  0  0
 67 13  1  6  0  0  0
 13143  1  0  0  0  0
 68 14  1  6  0  0  0
 14 73  1  0  0  0  0
 70 15  1  6  0  0  0
 72 15  1  1  0  0  0
 16 72  1  0  0  0  0
 16 77  1  0  0  0  0
 74 17  1  6  0  0  0
 17155  1  0  0  0  0
 76 18  1  6  0  0  0
 79 18  1  1  0  0  0
 75 19  1  1  0  0  0
 19158  1  0  0  0  0
 20 79  1  0  0  0  0
 20 83  1  0  0  0  0
 21 78  1  0  0  0  0
 21164  1  0  0  0  0
 80 22  1  6  0  0  0
 22167  1  0  0  0  0
 81 23  1  1  0  0  0
 23168  1  0  0  0  0
 82 24  1  6  0  0  0
 24169  1  0  0  0  0
 25 84  1  0  0  0  0
 25170  1  0  0  0  0
 26 27  1  0  0  0  0
 26 28  1  0  0  0  0
 26 34  1  0  0  0  0
 27 30  1  0  0  0  0
 27 33  1  0  0  0  0
 27 37  1  6  0  0  0
 28 29  1  0  0  0  0
 28 36  1  0  0  0  0
 29 31  1  0  0  0  0
 29 32  1  0  0  0  0
 29 85  1  1  0  0  0
 30 32  1  0  0  0  0
 30 86  1  0  0  0  0
 31 38  1  0  0  0  0
 31 39  1  0  0  0  0
 31 41  1  6  0  0  0
 32 87  1  0  0  0  0
 33 35  1  0  0  0  0
 33 43  1  6  0  0  0
 33 88  1  0  0  0  0
 34 35  1  0  0  0  0
 34 89  1  0  0  0  0
 34 90  1  0  0  0  0
 35 91  1  0  0  0  0
 35 92  1  0  0  0  0
 36 40  1  0  0  0  0
 36 93  1  0  0  0  0
 36 94  1  0  0  0  0
 37 95  1  0  0  0  0
 37 96  1  0  0  0  0
 37 97  1  0  0  0  0
 38 40  2  0  0  0  0
 38 42  1  0  0  0  0
 39 44  1  0  0  0  0
 39 98  1  0  0  0  0
 39 99  1  0  0  0  0
 40100  1  0  0  0  0
 41102  1  0  0  0  0
 41103  1  0  0  0  0
 41104  1  0  0  0  0
 42 45  1  0  0  0  0
 42106  1  0  0  0  0
 42107  1  0  0  0  0
 43 46  1  0  0  0  0
 44 45  1  0  0  0  0
 44108  1  0  0  0  0
 44109  1  0  0  0  0
 45110  1  0  0  0  0
 46111  1  0  0  0  0
 46112  1  0  0  0  0
 46113  1  0  0  0  0
 47 50  1  0  0  0  0
 48 51  1  0  0  0  0
 49 52  1  0  0  0  0
 49114  1  0  0  0  0
 50 53  1  0  0  0  0
 50 55  2  0  0  0  0
 51 56  2  0  0  0  0
 51 57  1  0  0  0  0
 52 54  1  0  0  0  0
 52115  1  0  0  0  0
 52116  1  0  0  0  0
 53117  1  0  0  0  0
 53118  1  0  0  0  0
 53119  1  0  0  0  0
 54 59  1  0  0  0  0
 54120  1  0  0  0  0
 55 60  1  0  0  0  0
 55121  1  0  0  0  0
 56 61  1  0  0  0  0
 56122  1  0  0  0  0
 57 62  2  0  0  0  0
 57123  1  0  0  0  0
 58 59  1  0  0  0  0
 58 63  1  1  0  0  0
 58124  1  0  0  0  0
 59125  1  0  0  0  0
 60126  1  0  0  0  0
 60127  1  0  0  0  0
 60128  1  0  0  0  0
 61 64  2  0  0  0  0
 61129  1  0  0  0  0
 62 64  1  0  0  0  0
 62130  1  0  0  0  0
 63131  1  0  0  0  0
 63132  1  0  0  0  0
 63133  1  0  0  0  0
 64134  1  0  0  0  0
 65 67  1  0  0  0  0
 65135  1  0  0  0  0
 66136  1  0  0  0  0
 66137  1  0  0  0  0
 66138  1  0  0  0  0
 67 68  1  0  0  0  0
 67139  1  0  0  0  0
 68 70  1  0  0  0  0
 68140  1  0  0  0  0
 69 70  1  0  0  0  0
 69 71  1  1  0  0  0
 69141  1  0  0  0  0
 70142  1  0  0  0  0
 71144  1  0  0  0  0
 71145  1  0  0  0  0
 71146  1  0  0  0  0
 72 74  1  0  0  0  0
 72147  1  0  0  0  0
 73148  1  0  0  0  0
 73149  1  0  0  0  0
 73150  1  0  0  0  0
 74 75  1  0  0  0  0
 74151  1  0  0  0  0
 75 76  1  0  0  0  0
 75152  1  0  0  0  0
 76 77  1  0  0  0  0
 76153  1  0  0  0  0
 77 78  1  1  0  0  0
 77154  1  0  0  0  0
 78156  1  0  0  0  0
 78157  1  0  0  0  0
 79 80  1  0  0  0  0
 79159  1  0  0  0  0
 80 81  1  0  0  0  0
 80160  1  0  0  0  0
 81 82  1  0  0  0  0
 81161  1  0  0  0  0
 82 83  1  0  0  0  0
 82162  1  0  0  0  0
 83 84  1  1  0  0  0
 83163  1  0  0  0  0
 84165  1  0  0  0  0
 84166  1  0  0  0  0
M  END
> <PUBCHEM_COMPOUND_CID>
101902132

> <PUBCHEM_COMPOUND_CANONICALIZED>
1

> <PUBCHEM_CACTVS_COMPLEXITY>
2370

> <PUBCHEM_CACTVS_HBOND_ACCEPTOR>
25

> <PUBCHEM_CACTVS_HBOND_DONOR>
10

> <PUBCHEM_CACTVS_ROTATABLE_BOND>
19

> <PUBCHEM_CACTVS_SUBSKEYS>
AAADcfB8PgAAAAAAAAAAAAAAAAAAAYAAAAA0aNEiAAAAAGCBAAAAGgAACAAAD1SwmAMyCIAABgCIAqDSCAACAAAkAAAIiAEACMgZNjKANRiicQAlwAEPqYfK7PzPgAAAAAAAAADCAAYQADCAAYAADAAAAA==

> <PUBCHEM_IUPAC_OPENEYE_NAME>
[(3S,8S,9S,10R,11S,12S,13S,14R,17S)-17-acetyl-3-[(2R,4R,5R,6R)-5-[(2S,3R,4S,5R,6R)-5-[(2S,3R,4R,5S,6R)-3,4-dihydroxy-6-(hydroxymethyl)-5-[(2S,3R,4S,5S,6R)-3,4,5-trihydroxy-6-(hydroxymethyl)tetrahydropyran-2-yl]oxy-tetrahydropyran-2-yl]oxy-3-hydroxy-4-methoxy-6-methyl-tetrahydropyran-2-yl]oxy-4-methoxy-6-methyl-tetrahydropyran-2-yl]oxy-8,14-dihydroxy-10,13-dimethyl-12-[(E)-2-methylbut-2-enoyl]oxy-2,3,4,7,9,11,12,15,16,17-decahydro-1H-cyclopenta[a]phenanthren-11-yl] benzoate

> <PUBCHEM_IUPAC_CAS_NAME>
benzoic acid [(3S,8S,9S,10R,11S,12S,13S,14R,17S)-17-acetyl-3-[[(2R,4R,5R,6R)-5-[[(2S,3R,4S,5R,6R)-5-[[(2S,3R,4R,5S,6R)-3,4-dihydroxy-6-(hydroxymethyl)-5-[[(2S,3R,4S,5S,6R)-3,4,5-trihydroxy-6-(hydroxymethyl)-2-oxanyl]oxy]-2-oxanyl]oxy]-3-hydroxy-4-methoxy-6-methyl-2-oxanyl]oxy]-4-methoxy-6-methyl-2-oxanyl]oxy]-8,14-dihydroxy-10,13-dimethyl-12-[(E)-2-methyl-1-oxobut-2-enoxy]-2,3,4,7,9,11,12,15,16,17-decahydro-1H-cyclopenta[a]phenanthren-11-yl] ester

> <PUBCHEM_IUPAC_NAME_MARKUP>
[(3<I>S</I>,8<I>S</I>,9<I>S</I>,10<I>R</I>,11<I>S</I>,12<I>S</I>,13<I>S</I>,14<I>R</I>,17<I>S</I>)-17-acetyl-3-[(2<I>R</I>,4<I>R</I>,5<I>R</I>,6<I>R</I>)-5-[(2<I>S</I>,3<I>R</I>,4<I>S</I>,5<I>R</I>,6<I>R</I>)-5-[(2<I>S</I>,3<I>R</I>,4<I>R</I>,5<I>S</I>,6<I>R</I>)-3,4-dihydroxy-6-(hydroxymethyl)-5-[(2<I>S</I>,3<I>R</I>,4<I>S</I>,5<I>S</I>,6<I>R</I>)-3,4,5-trihydroxy-6-(hydroxymethyl)oxan-2-yl]oxyoxan-2-yl]oxy-3-hydroxy-4-methoxy-6-methyloxan-2-yl]oxy-4-methoxy-6-methyloxan-2-yl]oxy-8,14-dihydroxy-10,13-dimethyl-12-[(<I>E</I>)-2-methylbut-2-enoyl]oxy-2,3,4,7,9,11,12,15,16,17-decahydro-1<I>H</I>-cyclopenta[a]phenanthren-11-yl] benzoate

> <PUBCHEM_IUPAC_NAME>
[(3S,8S,9S,10R,11S,12S,13S,14R,17S)-17-acetyl-3-[(2R,4R,5R,6R)-5-[(2S,3R,4S,5R,6R)-5-[(2S,3R,4R,5S,6R)-3,4-dihydroxy-6-(hydroxymethyl)-5-[(2S,3R,4S,5S,6R)-3,4,5-trihydroxy-6-(hydroxymethyl)oxan-2-yl]oxyoxan-2-yl]oxy-3-hydroxy-4-methoxy-6-methyloxan-2-yl]oxy-4-methoxy-6-methyloxan-2-yl]oxy-8,14-dihydroxy-10,13-dimethyl-12-[(E)-2-methylbut-2-enoyl]oxy-2,3,4,7,9,11,12,15,16,17-decahydro-1H-cyclopenta[a]phenanthren-11-yl] benzoate

> <PUBCHEM_IUPAC_SYSTEMATIC_NAME>
[(3S,8S,9S,10R,11S,12S,13S,14R,17S)-17-ethanoyl-3-[(2R,4R,5R,6R)-5-[(2S,3R,4S,5R,6R)-5-[(2S,3R,4R,5S,6R)-6-(hydroxymethyl)-5-[(2S,3R,4S,5S,6R)-6-(hydroxymethyl)-3,4,5-tris(oxidanyl)oxan-2-yl]oxy-3,4-bis(oxidanyl)oxan-2-yl]oxy-4-methoxy-6-methyl-3-oxidanyl-oxan-2-yl]oxy-4-methoxy-6-methyl-oxan-2-yl]oxy-10,13-dimethyl-12-[(E)-2-methylbut-2-enoyl]oxy-8,14-bis(oxidanyl)-2,3,4,7,9,11,12,15,16,17-decahydro-1H-cyclopenta[a]phenanthren-11-yl] benzoate

> <PUBCHEM_IUPAC_TRADITIONAL_NAME>
benzoic acid [(3S,8S,9S,10R,11S,12S,13S,14R,17S)-17-acetyl-3-[(2R,4R,5R,6R)-5-[(2S,3R,4S,5R,6R)-5-[(2S,3R,4R,5S,6R)-3,4-dihydroxy-6-methylol-5-[(2S,3R,4S,5S,6R)-3,4,5-trihydroxy-6-methylol-tetrahydropyran-2-yl]oxy-tetrahydropyran-2-yl]oxy-3-hydroxy-4-methoxy-6-methyl-tetrahydropyran-2-yl]oxy-4-methoxy-6-methyl-tetrahydropyran-2-yl]oxy-8,14-dihydroxy-10,13-dimethyl-12-[(E)-2-methylbut-2-enoyl]oxy-2,3,4,7,9,11,12,15,16,17-decahydro-1H-cyclopenta[a]phenanthren-11-yl] ester

> <PUBCHEM_IUPAC_INCHI>
InChI=1S/C59H86O25/c1-10-26(2)51(69)84-50-48(80-52(70)30-14-12-11-13-15-30)49-56(6)19-17-32(22-31(56)16-20-58(49,71)59(72)21-18-33(27(3)62)57(50,59)7)77-37-23-34(73-8)44(28(4)75-37)81-55-43(68)47(74-9)45(29(5)76-55)82-54-42(67)40(65)46(36(25-61)79-54)83-53-41(66)39(64)38(63)35(24-60)78-53/h10-16,28-29,32-50,53-55,60-61,63-68,71-72H,17-25H2,1-9H3/b26-10+/t28-,29-,32+,33-,34-,35-,36-,37+,38-,39+,40-,41-,42-,43-,44-,45-,46-,47+,48+,49-,50-,53+,54+,55+,56+,57+,58+,59-/m1/s1

> <PUBCHEM_IUPAC_INCHIKEY>
GCGSIRYYYXVNJE-JZVNGUNTSA-N

> <PUBCHEM_XLOGP3_AA>
-0.5

> <PUBCHEM_EXACT_MASS>
1194.545818

> <PUBCHEM_MOLECULAR_FORMULA>
C59H86O25

> <PUBCHEM_MOLECULAR_WEIGHT>
1195.3

> <PUBCHEM_OPENEYE_CAN_SMILES>
CC=C(C)C(=O)OC1C(C2C3(CCC(CC3=CCC2(C4(C1(C(CC4)C(=O)C)C)O)O)OC5CC(C(C(O5)C)OC6C(C(C(C(O6)C)OC7C(C(C(C(O7)CO)OC8C(C(C(C(O8)CO)O)O)O)O)O)OC)O)OC)C)OC(=O)C9=CC=CC=C9

> <PUBCHEM_OPENEYE_ISO_SMILES>
C/C=C(\C)/C(=O)O[C@@H]1[C@H]([C@@H]2[C@]3(CC[C@@H](CC3=CC[C@]2([C@@]4([C@]1([C@H](CC4)C(=O)C)C)O)O)O[C@H]5C[C@H]([C@@H]([C@H](O5)C)O[C@H]6[C@@H]([C@@H]([C@@H]([C@H](O6)C)O[C@H]7[C@@H]([C@H]([C@@H]([C@H](O7)CO)O[C@H]8[C@@H]([C@H]([C@@H]([C@H](O8)CO)O)O)O)O)O)OC)O)OC)C)OC(=O)C9=CC=CC=C9

> <PUBCHEM_CACTVS_TPSA>
364

> <PUBCHEM_MONOISOTOPIC_WEIGHT>
1194.545818

> <PUBCHEM_TOTAL_CHARGE>
0

> <PUBCHEM_HEAVY_ATOM_COUNT>
84

> <PUBCHEM_ATOM_DEF_STEREO_COUNT>
28

> <PUBCHEM_ATOM_UDEF_STEREO_COUNT>
0

> <PUBCHEM_BOND_DEF_STEREO_COUNT>
1

> <PUBCHEM_BOND_UDEF_STEREO_COUNT>
0

> <PUBCHEM_ISOTOPIC_ATOM_COUNT>
0

> <PUBCHEM_COMPONENT_COUNT>
1

> <PUBCHEM_CACTVS_TAUTO_COUNT>
-1

> <PUBCHEM_COORDINATE_TYPE>
1
5
255

> <PUBCHEM_BONDANNOTATIONS>
26  1  6
54  10  5
59  11  6
65  11  5
67  13  6
68  14  6
70  15  6
72  15  5
74  17  6
76  18  6
79  18  5
75  19  5
28  2  6
80  22  6
81  23  5
82  24  6
27  37  6
29  85  5
30  3  6
31  41  6
33  43  6
32  4  5
45  5  6
49  5  5
51  56  8
51  57  8
56  61  8
57  62  8
58  63  5
61  64  8
62  64  8
69  71  5
77  78  5
83  84  5

$$$$
