101377895
  -OEChem-09092000292D

 58 63  0     1  0  0  0  0  0999 V2000
    3.5239    0.6002    0.0000 O   0  0  0  0  0  0  0  0  0  0  0  0
    4.4180   -0.9622    0.0000 O   0  0  0  0  0  0  0  0  0  0  0  0
    2.2549    1.3023    0.0000 O   0  0  0  0  0  0  0  0  0  0  0  0
    4.3803   -2.4119    0.0000 O   0  0  0  0  0  0  0  0  0  0  0  0
    8.8300    2.6312    0.0000 O   0  0  0  0  0  0  0  0  0  0  0  0
    4.4339    1.1071    0.0000 C   0  0  2  0  0  0  0  0  0  0  0  0
    2.9220   -0.7812    0.0000 C   0  0  1  0  0  0  0  0  0  0  0  0
    3.0355    0.6773    0.0000 C   0  0  1  0  0  0  0  0  0  0  0  0
    5.2999    0.6071    0.0000 C   0  0  2  0  0  0  0  0  0  0  0  0
    3.6796   -1.4164    0.0000 C   0  0  2  0  0  0  0  0  0  0  0  0
    5.3160   -0.4344    0.0000 C   0  0  1  0  0  0  0  0  0  0  0  0
    4.2370   -1.4223    0.0000 C   0  0  1  0  0  0  0  0  0  0  0  0
    3.5159   -0.4414    0.0000 C   0  0  1  0  0  0  0  0  0  0  0  0
    6.1659    1.1071    0.0000 C   0  0  2  0  0  0  0  0  0  0  0  0
    2.4404   -0.1279    0.0000 C   0  0  0  0  0  0  0  0  0  0  0  0
    2.7348   -1.0849    0.0000 C   0  0  0  0  0  0  0  0  0  0  0  0
    4.4339    2.1071    0.0000 C   0  0  0  0  0  0  0  0  0  0  0  0
    6.1659    2.1071    0.0000 C   0  0  1  0  0  0  0  0  0  0  0  0
    5.2999    2.6071    0.0000 C   0  0  0  0  0  0  0  0  0  0  0  0
    2.0000   -1.1685    0.0000 C   0  0  0  0  0  0  0  0  0  0  0  0
    7.0599    0.5724    0.0000 C   0  0  0  0  0  0  0  0  0  0  0  0
    2.6349    0.2979    0.0000 C   0  0  0  0  0  0  0  0  0  0  0  0
    6.5081    0.1674    0.0000 C   0  0  0  0  0  0  0  0  0  0  0  0
    7.0599    2.6418    0.0000 C   0  0  0  0  0  0  0  0  0  0  0  0
    7.9660    1.0863    0.0000 C   0  0  0  0  0  0  0  0  0  0  0  0
    7.9660    2.1279    0.0000 C   0  0  2  0  0  0  0  0  0  0  0  0
    5.8463   -0.0440    0.0000 H   0  0  0  0  0  0  0  0  0  0  0  0
    3.8204   -2.2547    0.0000 H   0  0  0  0  0  0  0  0  0  0  0  0
    5.3291   -1.2843    0.0000 H   0  0  0  0  0  0  0  0  0  0  0  0
    3.7362   -1.7878    0.0000 H   0  0  0  0  0  0  0  0  0  0  0  0
    2.0305    0.3372    0.0000 H   0  0  0  0  0  0  0  0  0  0  0  0
    1.8994   -0.4308    0.0000 H   0  0  0  0  0  0  0  0  0  0  0  0
    2.1172   -1.1385    0.0000 H   0  0  0  0  0  0  0  0  0  0  0  0
    2.6572   -1.7000    0.0000 H   0  0  0  0  0  0  0  0  0  0  0  0
    4.2218    2.6897    0.0000 H   0  0  0  0  0  0  0  0  0  0  0  0
    3.8233    1.9994    0.0000 H   0  0  0  0  0  0  0  0  0  0  0  0
    6.1594    2.9571    0.0000 H   0  0  0  0  0  0  0  0  0  0  0  0
    5.6984    3.0820    0.0000 H   0  0  0  0  0  0  0  0  0  0  0  0
    4.9014    3.0820    0.0000 H   0  0  0  0  0  0  0  0  0  0  0  0
    1.7599   -0.5969    0.0000 H   0  0  0  0  0  0  0  0  0  0  0  0
    1.4284   -1.4086    0.0000 H   0  0  0  0  0  0  0  0  0  0  0  0
    2.2401   -1.7401    0.0000 H   0  0  0  0  0  0  0  0  0  0  0  0
    6.6553    0.1026    0.0000 H   0  0  0  0  0  0  0  0  0  0  0  0
    7.4535    0.0934    0.0000 H   0  0  0  0  0  0  0  0  0  0  0  0
    2.3485    1.9152    0.0000 H   0  0  0  0  0  0  0  0  0  0  0  0
    3.0335    0.7728    0.0000 H   0  0  0  0  0  0  0  0  0  0  0  0
    2.1600    0.6964    0.0000 H   0  0  0  0  0  0  0  0  0  0  0  0
    2.2364   -0.1771    0.0000 H   0  0  0  0  0  0  0  0  0  0  0  0
    5.9255   -0.0447    0.0000 H   0  0  0  0  0  0  0  0  0  0  0  0
    6.7202   -0.4152    0.0000 H   0  0  0  0  0  0  0  0  0  0  0  0
    7.0906    0.3795    0.0000 H   0  0  0  0  0  0  0  0  0  0  0  0
    7.4535    3.1208    0.0000 H   0  0  0  0  0  0  0  0  0  0  0  0
    6.6553    3.1115    0.0000 H   0  0  0  0  0  0  0  0  0  0  0  0
    8.1750    0.5026    0.0000 H   0  0  0  0  0  0  0  0  0  0  0  0
    8.5768    1.1924    0.0000 H   0  0  0  0  0  0  0  0  0  0  0  0
    4.9561   -2.6418    0.0000 H   0  0  0  0  0  0  0  0  0  0  0  0
    8.5035    1.8189    0.0000 H   0  0  0  0  0  0  0  0  0  0  0  0
    9.3682    2.3233    0.0000 H   0  0  0  0  0  0  0  0  0  0  0  0
  1  6  1  0  0  0  0
  1 13  1  0  0  0  0
  2 11  1  0  0  0  0
  2 13  1  0  0  0  0
  8  3  1  1  0  0  0
  3 45  1  0  0  0  0
 12  4  1  1  0  0  0
  4 56  1  0  0  0  0
 26  5  1  1  0  0  0
  5 58  1  0  0  0  0
  6  8  1  0  0  0  0
  6  9  1  0  0  0  0
  6 17  1  1  0  0  0
  7  8  1  0  0  0  0
  7 10  1  0  0  0  0
  7 12  1  0  0  0  0
  7 20  1  1  0  0  0
  8 15  1  0  0  0  0
  9 11  1  0  0  0  0
  9 14  1  0  0  0  0
  9 27  1  6  0  0  0
 10 13  1  0  0  0  0
 10 16  1  0  0  0  0
 10 28  1  1  0  0  0
 11 12  1  0  0  0  0
 11 29  1  6  0  0  0
 12 30  1  0  0  0  0
 13 22  1  6  0  0  0
 14 18  1  0  0  0  0
 14 21  1  0  0  0  0
 14 23  1  1  0  0  0
 15 16  1  0  0  0  0
 15 31  1  0  0  0  0
 15 32  1  0  0  0  0
 16 33  1  0  0  0  0
 16 34  1  0  0  0  0
 17 19  1  0  0  0  0
 17 35  1  0  0  0  0
 17 36  1  0  0  0  0
 18 19  1  0  0  0  0
 18 24  1  0  0  0  0
 18 37  1  6  0  0  0
 19 38  1  0  0  0  0
 19 39  1  0  0  0  0
 20 40  1  0  0  0  0
 20 41  1  0  0  0  0
 20 42  1  0  0  0  0
 21 25  1  0  0  0  0
 21 43  1  0  0  0  0
 21 44  1  0  0  0  0
 22 46  1  0  0  0  0
 22 47  1  0  0  0  0
 22 48  1  0  0  0  0
 23 49  1  0  0  0  0
 23 50  1  0  0  0  0
 23 51  1  0  0  0  0
 24 26  1  0  0  0  0
 24 52  1  0  0  0  0
 24 53  1  0  0  0  0
 25 26  1  0  0  0  0
 25 54  1  0  0  0  0
 25 55  1  0  0  0  0
 26 57  1  0  0  0  0
M  END
> <PUBCHEM_COMPOUND_CID>
101377895

> <PUBCHEM_COMPOUND_CANONICALIZED>
1

> <PUBCHEM_CACTVS_COMPLEXITY>
683

> <PUBCHEM_CACTVS_HBOND_ACCEPTOR>
5

> <PUBCHEM_CACTVS_HBOND_DONOR>
3

> <PUBCHEM_CACTVS_ROTATABLE_BOND>
0

> <PUBCHEM_CACTVS_SUBSKEYS>
AAADcfB4OAAAAAAAAAAAAAAAAAAAAYAAAAA0aNECBIAAAADQAAAAGgAACAAAD1SggAICCAAABgAAAAAAAAAAAAAAAAAAAAAAAAAREAIAAAAiQAAFAAAHAAHA4PwPgAAAAAAAAADCAAYQADCAAYAADAAAAA==

> <PUBCHEM_IUPAC_OPENEYE_NAME>
(1S,2S,3S,6S,8S,11S,13R,14R,17R,18S,19S)-3,13,18-trimethyl-12,20-dioxahexacyclo[11.6.1.02,11.03,8.011,17.014,18]icosane-6,17,19-triol

> <PUBCHEM_IUPAC_CAS_NAME>
(1S,2S,3S,6S,8S,11S,13R,14R,17R,18S,19S)-3,13,18-trimethyl-12,20-dioxahexacyclo[11.6.1.02,11.03,8.011,17.014,18]eicosane-6,17,19-triol

> <PUBCHEM_IUPAC_NAME_MARKUP>
(1<I>S</I>,2<I>S</I>,3<I>S</I>,6<I>S</I>,8<I>S</I>,11<I>S</I>,13<I>R</I>,14<I>R</I>,17<I>R</I>,18<I>S</I>,19<I>S</I>)-3,13,18-trimethyl-12,20-dioxahexacyclo[11.6.1.0<SUP>2,11</SUP>.0<SUP>3,8</SUP>.0<SUP>11,17</SUP>.0<SUP>14,18</SUP>]icosane-6,17,19-triol

> <PUBCHEM_IUPAC_NAME>
(1S,2S,3S,6S,8S,11S,13R,14R,17R,18S,19S)-3,13,18-trimethyl-12,20-dioxahexacyclo[11.6.1.02,11.03,8.011,17.014,18]icosane-6,17,19-triol

> <PUBCHEM_IUPAC_SYSTEMATIC_NAME>
(1S,2S,3S,6S,8S,11S,13R,14R,17R,18S,19S)-3,13,18-trimethyl-12,20-dioxahexacyclo[11.6.1.02,11.03,8.011,17.014,18]icosane-6,17,19-triol

> <PUBCHEM_IUPAC_TRADITIONAL_NAME>
(1S,2S,3S,6S,8S,11S,13R,14R,17R,18S,19S)-3,13,18-trimethyl-12,20-dioxahexacyclo[11.6.1.02,11.03,8.011,17.014,18]eicosane-6,17,19-triol

> <PUBCHEM_IUPAC_INCHI>
InChI=1S/C21H32O5/c1-17-7-5-12(22)10-11(17)4-8-20-15(17)14-16(23)18(2)13(6-9-21(18,20)24)19(3,25-14)26-20/h11-16,22-24H,4-10H2,1-3H3/t11-,12-,13+,14-,15+,16+,17-,18-,19+,20-,21+/m0/s1

> <PUBCHEM_IUPAC_INCHIKEY>
VGMNNBZQBSKEPP-ZQEUBWAKSA-N

> <PUBCHEM_XLOGP3_AA>
1.4

> <PUBCHEM_EXACT_MASS>
364.224974

> <PUBCHEM_MOLECULAR_FORMULA>
C21H32O5

> <PUBCHEM_MOLECULAR_WEIGHT>
364.5

> <PUBCHEM_OPENEYE_CAN_SMILES>
CC12CCC(CC1CCC34C2C5C(C6(C3(CCC6C(O5)(O4)C)O)C)O)O

> <PUBCHEM_OPENEYE_ISO_SMILES>
C[C@]12CC[C@@H](C[C@@H]1CC[C@]34[C@@H]2[C@H]5[C@H]([C@]6([C@@]3(CC[C@H]6[C@](O5)(O4)C)O)C)O)O

> <PUBCHEM_CACTVS_TPSA>
79.2

> <PUBCHEM_MONOISOTOPIC_WEIGHT>
364.224974

> <PUBCHEM_TOTAL_CHARGE>
0

> <PUBCHEM_HEAVY_ATOM_COUNT>
26

> <PUBCHEM_ATOM_DEF_STEREO_COUNT>
11

> <PUBCHEM_ATOM_UDEF_STEREO_COUNT>
0

> <PUBCHEM_BOND_DEF_STEREO_COUNT>
0

> <PUBCHEM_BOND_UDEF_STEREO_COUNT>
0

> <PUBCHEM_ISOTOPIC_ATOM_COUNT>
0

> <PUBCHEM_COMPONENT_COUNT>
1

> <PUBCHEM_CACTVS_TAUTO_COUNT>
-1

> <PUBCHEM_COORDINATE_TYPE>
1
5
255

> <PUBCHEM_BONDANNOTATIONS>
10  28  5
11  29  6
13  22  6
14  23  5
18  37  6
8  3  5
12  4  5
26  5  5
6  17  5
7  20  5
9  27  6

$$$$
