44258300
  -OEChem-11202006073D

 58 61  0     1  0  0  0  0  0999 V2000
    3.9339   -0.8341    0.6833 O   0  0  0  0  0  0  0  0  0  0  0  0
    0.5324    1.6034    0.0437 O   0  0  0  0  0  0  0  0  0  0  0  0
   -0.0489   -2.3093    1.0303 O   0  0  0  0  0  0  0  0  0  0  0  0
   -2.6236   -1.8935    1.1513 O   0  0  0  0  0  0  0  0  0  0  0  0
   -4.1061    2.5492    0.2450 O   0  0  0  0  0  0  0  0  0  0  0  0
    6.7927    2.6950   -0.6482 O   0  0  0  0  0  0  0  0  0  0  0  0
    1.4696   -0.5898    0.4559 C   0  0  0  0  0  0  0  0  0  0  0  0
    2.6639   -1.5004    0.5554 C   0  0  1  0  0  0  0  0  0  0  0  0
    1.5789    0.7110    0.1520 C   0  0  0  0  0  0  0  0  0  0  0  0
   -1.0069   -0.1870    0.6035 C   0  0  0  0  0  0  0  0  0  0  0  0
    2.9223    1.2436   -0.0918 C   0  0  0  0  0  0  0  0  0  0  0  0
    0.1134   -1.1357    0.7230 C   0  0  0  0  0  0  0  0  0  0  0  0
   -0.7377    1.1385    0.2678 C   0  0  0  0  0  0  0  0  0  0  0  0
    4.0339    0.4397    0.1903 C   0  0  0  0  0  0  0  0  0  0  0  0
   -2.3222   -0.6045    0.8226 C   0  0  0  0  0  0  0  0  0  0  0  0
   -3.3656    0.3143    0.7025 C   0  0  0  0  0  0  0  0  0  0  0  0
    2.7602   -2.4412   -0.6098 C   0  0  0  0  0  0  0  0  0  0  0  0
   -1.7823    2.0555    0.1486 C   0  0  0  0  0  0  0  0  0  0  0  0
   -3.0965    1.6416    0.3662 C   0  0  0  0  0  0  0  0  0  0  0  0
    3.1368    2.5429   -0.5751 C   0  0  0  0  0  0  0  0  0  0  0  0
   -4.7786   -0.1194    0.9337 C   0  0  0  0  0  0  0  0  0  0  0  0
    5.3313    0.9288    0.0123 C   0  0  0  0  0  0  0  0  0  0  0  0
    2.7376   -3.7873   -0.6005 C   0  0  0  0  0  0  0  0  0  0  0  0
    4.4335    3.0259   -0.7655 C   0  0  0  0  0  0  0  0  0  0  0  0
    5.5299    2.2203   -0.4698 C   0  0  0  0  0  0  0  0  0  0  0  0
   -5.3379   -0.9225   -0.2130 C   0  0  0  0  0  0  0  0  0  0  0  0
    2.8392   -4.6698   -1.8122 C   0  0  0  0  0  0  0  0  0  0  0  0
    2.6015   -4.5361    0.6993 C   0  0  0  0  0  0  0  0  0  0  0  0
   -6.3913   -0.6258   -0.9979 C   0  0  0  0  0  0  0  0  0  0  0  0
   -3.7394    3.8828   -0.1018 C   0  0  0  0  0  0  0  0  0  0  0  0
   -6.8973   -1.4754   -2.1288 C   0  0  0  0  0  0  0  0  0  0  0  0
   -7.1768    0.6389   -0.7723 C   0  0  0  0  0  0  0  0  0  0  0  0
    2.5553   -2.0388    1.5007 H   0  0  0  0  0  0  0  0  0  0  0  0
    2.8705   -1.9591   -1.5817 H   0  0  0  0  0  0  0  0  0  0  0  0
   -1.5052    3.0707   -0.1149 H   0  0  0  0  0  0  0  0  0  0  0  0
   -4.8179   -0.7455    1.8356 H   0  0  0  0  0  0  0  0  0  0  0  0
   -5.4034    0.7389    1.1927 H   0  0  0  0  0  0  0  0  0  0  0  0
    2.3027    3.2001   -0.8092 H   0  0  0  0  0  0  0  0  0  0  0  0
    6.1831    0.2952    0.2481 H   0  0  0  0  0  0  0  0  0  0  0  0
    4.5798    4.0352   -1.1409 H   0  0  0  0  0  0  0  0  0  0  0  0
   -4.8259   -1.8625   -0.4160 H   0  0  0  0  0  0  0  0  0  0  0  0
   -1.8215   -2.4363    1.1861 H   0  0  0  0  0  0  0  0  0  0  0  0
    2.9074   -4.0813   -2.7331 H   0  0  0  0  0  0  0  0  0  0  0  0
    1.9564   -5.3123   -1.8908 H   0  0  0  0  0  0  0  0  0  0  0  0
    3.7308   -5.3021   -1.7529 H   0  0  0  0  0  0  0  0  0  0  0  0
    3.0393   -4.0176    1.5552 H   0  0  0  0  0  0  0  0  0  0  0  0
    3.1294   -5.4952    0.6395 H   0  0  0  0  0  0  0  0  0  0  0  0
    1.5480   -4.7488    0.9059 H   0  0  0  0  0  0  0  0  0  0  0  0
   -3.1173    4.3456    0.6719 H   0  0  0  0  0  0  0  0  0  0  0  0
   -3.2784    3.9305   -1.0944 H   0  0  0  0  0  0  0  0  0  0  0  0
   -4.6644    4.4665   -0.1548 H   0  0  0  0  0  0  0  0  0  0  0  0
    7.4283    2.0044   -0.3932 H   0  0  0  0  0  0  0  0  0  0  0  0
   -6.2798   -2.3688   -2.2684 H   0  0  0  0  0  0  0  0  0  0  0  0
   -6.8830   -0.9098   -3.0660 H   0  0  0  0  0  0  0  0  0  0  0  0
   -7.9225   -1.8052   -1.9323 H   0  0  0  0  0  0  0  0  0  0  0  0
   -7.2410    0.9293    0.2790 H   0  0  0  0  0  0  0  0  0  0  0  0
   -8.2133    0.5090   -1.1047 H   0  0  0  0  0  0  0  0  0  0  0  0
   -6.7425    1.4619   -1.3487 H   0  0  0  0  0  0  0  0  0  0  0  0
  1  8  1  0  0  0  0
  1 14  1  0  0  0  0
  2  9  1  0  0  0  0
  2 13  1  0  0  0  0
  3 12  2  0  0  0  0
  4 15  1  0  0  0  0
  4 42  1  0  0  0  0
  5 19  1  0  0  0  0
  5 30  1  0  0  0  0
  6 25  1  0  0  0  0
  6 52  1  0  0  0  0
  7  8  1  0  0  0  0
  7  9  2  0  0  0  0
  7 12  1  0  0  0  0
  8 17  1  0  0  0  0
  8 33  1  0  0  0  0
  9 11  1  0  0  0  0
 10 12  1  0  0  0  0
 10 13  1  0  0  0  0
 10 15  2  0  0  0  0
 11 14  2  0  0  0  0
 11 20  1  0  0  0  0
 13 18  2  0  0  0  0
 14 22  1  0  0  0  0
 15 16  1  0  0  0  0
 16 19  2  0  0  0  0
 16 21  1  0  0  0  0
 17 23  2  0  0  0  0
 17 34  1  0  0  0  0
 18 19  1  0  0  0  0
 18 35  1  0  0  0  0
 20 24  2  0  0  0  0
 20 38  1  0  0  0  0
 21 26  1  0  0  0  0
 21 36  1  0  0  0  0
 21 37  1  0  0  0  0
 22 25  2  0  0  0  0
 22 39  1  0  0  0  0
 23 27  1  0  0  0  0
 23 28  1  0  0  0  0
 24 25  1  0  0  0  0
 24 40  1  0  0  0  0
 26 29  2  0  0  0  0
 26 41  1  0  0  0  0
 27 43  1  0  0  0  0
 27 44  1  0  0  0  0
 27 45  1  0  0  0  0
 28 46  1  0  0  0  0
 28 47  1  0  0  0  0
 28 48  1  0  0  0  0
 29 31  1  0  0  0  0
 29 32  1  0  0  0  0
 30 49  1  0  0  0  0
 30 50  1  0  0  0  0
 30 51  1  0  0  0  0
 31 53  1  0  0  0  0
 31 54  1  0  0  0  0
 31 55  1  0  0  0  0
 32 56  1  0  0  0  0
 32 57  1  0  0  0  0
 32 58  1  0  0  0  0
M  END
> <PUBCHEM_COMPOUND_CID>
44258300

> <PUBCHEM_CONFORMER_RMSD>
0.8

> <PUBCHEM_CONFORMER_DIVERSEORDER>
1
13
21
16
6
22
11
18
17
15
7
14
20
19
5
12
10
8
4
9
3
2

> <PUBCHEM_MMFF94_PARTIAL_CHARGES>
40
1 -0.36
10 0.09
11 0.03
12 0.47
13 0.08
14 0.08
15 0.08
16 -0.14
17 -0.29
18 -0.15
19 0.08
2 -0.16
20 -0.15
21 0.28
22 -0.15
23 -0.28
24 -0.15
25 0.08
26 -0.29
27 0.14
28 0.14
29 -0.28
3 -0.57
30 0.28
31 0.14
32 0.14
34 0.15
35 0.15
38 0.15
39 0.15
4 -0.53
40 0.15
41 0.15
42 0.45
5 -0.36
52 0.45
6 -0.53
7 -0.12
8 0.56
9 0.05

> <PUBCHEM_EFFECTIVE_ROTOR_COUNT>
4.4

> <PUBCHEM_PHARMACOPHORE_FEATURES>
12
1 1 acceptor
1 2 acceptor
1 3 acceptor
1 4 donor
1 5 acceptor
1 6 donor
3 23 27 28 hydrophobe
3 29 31 32 hydrophobe
6 1 7 8 9 11 14 rings
6 10 13 15 16 18 19 rings
6 11 14 20 22 24 25 rings
6 2 7 9 10 12 13 rings

> <PUBCHEM_HEAVY_ATOM_COUNT>
32

> <PUBCHEM_ATOM_DEF_STEREO_COUNT>
0

> <PUBCHEM_ATOM_UDEF_STEREO_COUNT>
1

> <PUBCHEM_BOND_DEF_STEREO_COUNT>
0

> <PUBCHEM_BOND_UDEF_STEREO_COUNT>
0

> <PUBCHEM_ISOTOPIC_ATOM_COUNT>
0

> <PUBCHEM_COMPONENT_COUNT>
1

> <PUBCHEM_CACTVS_TAUTO_COUNT>
29

> <PUBCHEM_CONFORMER_ID>
02A353FC00000001

> <PUBCHEM_MMFF94_ENERGY>
98.397

> <PUBCHEM_FEATURE_SELFOVERLAP>
60.977

> <PUBCHEM_SHAPE_FINGERPRINT>
10050765 1 18265899060507200537
10411042 1 17831580877930739682
10595046 47 18413106143910051385
10693767 8 18059023770425154782
11062273 19 18339646621333883174
11135609 187 18336822091325363273
11135926 11 18339363071518976055
11513181 2 18341619148718908719
11719270 70 18410851084242348130
12107183 9 17693103967911372985
12838862 33 18191292970436566504
13150687 139 18339653347421467428
13540713 5 18058459707631435761
1361 2 18411701006234928574
13692114 37 18197765799351428850
13782708 43 13110698137246873717
138480 1 17976546014300989098
14767858 380 18339636854177539725
14790565 3 18264219174381145092
15082195 135 18339627950742288625
15131766 46 15649600396464595428
15238133 3 13407067090272821639
15276724 80 18338232671019670541
15705408 1 18193855760019987206
17492 89 18269837510709611607
18681886 176 18264774440806970120
20028762 73 18342175583734598646
20775438 99 18412544310105717991
22149856 69 18272379668003650691
22311459 1 18338801221045767905
23522609 53 17916888854261705889
23559900 14 18123190100178698466
23569914 152 17328556455985865063
255183 451 17984708818474559558
3103668 31 17763185043669940566
335352 9 18335143120744169316
4017518 198 18271539697466599974
5104073 3 18115035099576409233
5265222 85 18193858148576035268
59755656 215 18334295383281090964
6371009 1 18263077863483018796
9709674 26 18336555906289626563
9981440 41 18335709394453398808

> <PUBCHEM_SHAPE_MULTIPOLES>
623.33
15.54
5.1
1.19
15.45
3.87
-0.37
-5.08
-6.33
-6.53
-1.49
0.92
0.87
-1.1

> <PUBCHEM_SHAPE_SELFOVERLAP>
1364.534

> <PUBCHEM_SHAPE_VOLUME>
337.7

> <PUBCHEM_COORDINATE_TYPE>
2
5
10

$$$$
