15227962
  -OEChem-11202006183D

 62 65  0     1  0  0  0  0  0999 V2000
   -2.6826    2.0571    0.0274 O   0  0  0  0  0  0  0  0  0  0  0  0
    0.8134   -3.7850    1.2536 O   0  0  0  0  0  0  0  0  0  0  0  0
    3.8651   -1.5015   -1.5695 O   0  0  0  0  0  0  0  0  0  0  0  0
   -5.1000   -0.5951   -3.0373 O   0  0  0  0  0  0  0  0  0  0  0  0
   -0.9454    1.0621    1.4917 C   0  0  2  0  0  0  0  0  0  0  0  0
   -1.6989   -0.2836    1.5194 C   0  0  2  0  0  0  0  0  0  0  0  0
   -1.9604    2.2188    1.2625 C   0  0  0  0  0  0  0  0  0  0  0  0
    0.1850    1.0552    0.4254 C   0  0  0  0  0  0  0  0  0  0  0  0
   -0.7040   -1.4294    1.7808 C   0  0  0  0  0  0  0  0  0  0  0  0
    0.9255   -0.2460    0.2574 C   0  0  0  0  0  0  0  0  0  0  0  0
   -2.5883   -0.3850    0.2959 C   0  0  0  0  0  0  0  0  0  0  0  0
    0.4827   -1.4310    0.8592 C   0  0  0  0  0  0  0  0  0  0  0  0
   -2.9867    2.3427    2.4057 C   0  0  0  0  0  0  0  0  0  0  0  0
   -1.2370    3.5737    1.1528 C   0  0  0  0  0  0  0  0  0  0  0  0
   -3.0303    0.7841   -0.3474 C   0  0  0  0  0  0  0  0  0  0  0  0
    2.0624   -0.2772   -0.5660 C   0  0  0  0  0  0  0  0  0  0  0  0
    1.1986   -2.6205    0.6555 C   0  0  0  0  0  0  0  0  0  0  0  0
   -3.0454   -1.6204   -0.1888 C   0  0  0  0  0  0  0  0  0  0  0  0
   -3.8637    0.7094   -1.4695 C   0  0  0  0  0  0  0  0  0  0  0  0
    2.7602   -1.4664   -0.7729 C   0  0  0  0  0  0  0  0  0  0  0  0
    2.3290   -2.6384   -0.1602 C   0  0  0  0  0  0  0  0  0  0  0  0
    2.5486    0.9657   -1.2474 C   0  0  0  0  0  0  0  0  0  0  0  0
   -3.8819   -1.6907   -1.3053 C   0  0  0  0  0  0  0  0  0  0  0  0
   -4.2870   -0.5267   -1.9487 C   0  0  0  0  0  0  0  0  0  0  0  0
    3.5400    1.7357   -0.4146 C   0  0  0  0  0  0  0  0  0  0  0  0
    1.3658   -4.0653    2.5371 C   0  0  0  0  0  0  0  0  0  0  0  0
    3.7410    3.0671   -0.3845 C   0  0  0  0  0  0  0  0  0  0  0  0
    4.5138   -2.7623   -1.7224 C   0  0  0  0  0  0  0  0  0  0  0  0
    4.7519    3.7728    0.4742 C   0  0  0  0  0  0  0  0  0  0  0  0
    2.9286    3.9800   -1.2642 C   0  0  0  0  0  0  0  0  0  0  0  0
   -0.4672    1.2005    2.4726 H   0  0  0  0  0  0  0  0  0  0  0  0
   -2.3831   -0.2925    2.3785 H   0  0  0  0  0  0  0  0  0  0  0  0
    0.8963    1.8391    0.7104 H   0  0  0  0  0  0  0  0  0  0  0  0
   -0.2351    1.3212   -0.5519 H   0  0  0  0  0  0  0  0  0  0  0  0
   -1.2213   -2.3936    1.7582 H   0  0  0  0  0  0  0  0  0  0  0  0
   -0.3148   -1.3156    2.8021 H   0  0  0  0  0  0  0  0  0  0  0  0
   -2.4919    2.4465    3.3768 H   0  0  0  0  0  0  0  0  0  0  0  0
   -3.6315    3.2167    2.2535 H   0  0  0  0  0  0  0  0  0  0  0  0
   -3.6677    1.4873    2.4494 H   0  0  0  0  0  0  0  0  0  0  0  0
   -0.6088    3.6262    0.2570 H   0  0  0  0  0  0  0  0  0  0  0  0
   -1.9579    4.3938    1.0507 H   0  0  0  0  0  0  0  0  0  0  0  0
   -0.6155    3.7702    2.0325 H   0  0  0  0  0  0  0  0  0  0  0  0
   -2.7659   -2.5523    0.2928 H   0  0  0  0  0  0  0  0  0  0  0  0
   -4.1869    1.6204   -1.9683 H   0  0  0  0  0  0  0  0  0  0  0  0
    2.8257   -3.5962   -0.2731 H   0  0  0  0  0  0  0  0  0  0  0  0
    3.0393    0.7007   -2.1932 H   0  0  0  0  0  0  0  0  0  0  0  0
    1.6995    1.5801   -1.5576 H   0  0  0  0  0  0  0  0  0  0  0  0
   -4.2121   -2.6639   -1.6589 H   0  0  0  0  0  0  0  0  0  0  0  0
    4.1827    1.1317    0.2262 H   0  0  0  0  0  0  0  0  0  0  0  0
    1.1417   -3.2632    3.2468 H   0  0  0  0  0  0  0  0  0  0  0  0
    2.4488   -4.2060    2.4628 H   0  0  0  0  0  0  0  0  0  0  0  0
    0.9189   -4.9922    2.9069 H   0  0  0  0  0  0  0  0  0  0  0  0
   -5.2940   -1.5291   -3.2276 H   0  0  0  0  0  0  0  0  0  0  0  0
    3.8634   -3.4952   -2.2119 H   0  0  0  0  0  0  0  0  0  0  0  0
    4.9160   -3.1281   -0.7715 H   0  0  0  0  0  0  0  0  0  0  0  0
    5.3693   -2.6047   -2.3877 H   0  0  0  0  0  0  0  0  0  0  0  0
    5.3034    3.0698    1.1072 H   0  0  0  0  0  0  0  0  0  0  0  0
    5.4790    4.3044   -0.1478 H   0  0  0  0  0  0  0  0  0  0  0  0
    4.2559    4.4952    1.1304 H   0  0  0  0  0  0  0  0  0  0  0  0
    2.4299    3.4747   -2.0942 H   0  0  0  0  0  0  0  0  0  0  0  0
    2.1708    4.4984   -0.6676 H   0  0  0  0  0  0  0  0  0  0  0  0
    3.5781    4.7365   -1.7194 H   0  0  0  0  0  0  0  0  0  0  0  0
  1  7  1  0  0  0  0
  1 15  1  0  0  0  0
  2 17  1  0  0  0  0
  2 26  1  0  0  0  0
  3 20  1  0  0  0  0
  3 28  1  0  0  0  0
  4 24  1  0  0  0  0
  4 53  1  0  0  0  0
  5  6  1  0  0  0  0
  5  7  1  0  0  0  0
  5  8  1  0  0  0  0
  5 31  1  0  0  0  0
  6  9  1  0  0  0  0
  6 11  1  0  0  0  0
  6 32  1  0  0  0  0
  7 13  1  0  0  0  0
  7 14  1  0  0  0  0
  8 10  1  0  0  0  0
  8 33  1  0  0  0  0
  8 34  1  0  0  0  0
  9 12  1  0  0  0  0
  9 35  1  0  0  0  0
  9 36  1  0  0  0  0
 10 12  2  0  0  0  0
 10 16  1  0  0  0  0
 11 15  2  0  0  0  0
 11 18  1  0  0  0  0
 12 17  1  0  0  0  0
 13 37  1  0  0  0  0
 13 38  1  0  0  0  0
 13 39  1  0  0  0  0
 14 40  1  0  0  0  0
 14 41  1  0  0  0  0
 14 42  1  0  0  0  0
 15 19  1  0  0  0  0
 16 20  2  0  0  0  0
 16 22  1  0  0  0  0
 17 21  2  0  0  0  0
 18 23  2  0  0  0  0
 18 43  1  0  0  0  0
 19 24  2  0  0  0  0
 19 44  1  0  0  0  0
 20 21  1  0  0  0  0
 21 45  1  0  0  0  0
 22 25  1  0  0  0  0
 22 46  1  0  0  0  0
 22 47  1  0  0  0  0
 23 24  1  0  0  0  0
 23 48  1  0  0  0  0
 25 27  2  0  0  0  0
 25 49  1  0  0  0  0
 26 50  1  0  0  0  0
 26 51  1  0  0  0  0
 26 52  1  0  0  0  0
 27 29  1  0  0  0  0
 27 30  1  0  0  0  0
 28 54  1  0  0  0  0
 28 55  1  0  0  0  0
 28 56  1  0  0  0  0
 29 57  1  0  0  0  0
 29 58  1  0  0  0  0
 29 59  1  0  0  0  0
 30 60  1  0  0  0  0
 30 61  1  0  0  0  0
 30 62  1  0  0  0  0
M  END
> <PUBCHEM_COMPOUND_CID>
15227962

> <PUBCHEM_CONFORMER_RMSD>
0.8

> <PUBCHEM_CONFORMER_DIVERSEORDER>
9
7
44
8
34
11
36
43
26
20
40
22
39
32
18
31
16
2
6
3
29
10
28
35
25
23
13
42
17
14
5
37
24
38
19
1
30
21
41
15
4
33
12
27

> <PUBCHEM_MMFF94_PARTIAL_CHARGES>
33
1 -0.36
10 -0.14
11 -0.14
12 -0.14
15 0.08
16 -0.14
17 0.08
18 -0.15
19 -0.15
2 -0.36
20 0.08
21 -0.15
22 0.28
23 -0.15
24 0.08
25 -0.29
26 0.28
27 -0.28
28 0.28
29 0.14
3 -0.36
30 0.14
4 -0.53
43 0.15
44 0.15
45 0.15
48 0.15
49 0.15
53 0.45
6 0.14
7 0.28
8 0.14
9 0.14

> <PUBCHEM_EFFECTIVE_ROTOR_COUNT>
4.8

> <PUBCHEM_PHARMACOPHORE_FEATURES>
10
1 1 acceptor
1 2 acceptor
1 3 acceptor
1 4 donor
3 27 29 30 hydrophobe
3 7 13 14 hydrophobe
6 1 5 6 7 11 15 rings
6 10 12 16 17 20 21 rings
6 11 15 18 19 23 24 rings
6 5 6 8 9 10 12 rings

> <PUBCHEM_HEAVY_ATOM_COUNT>
30

> <PUBCHEM_ATOM_DEF_STEREO_COUNT>
0

> <PUBCHEM_ATOM_UDEF_STEREO_COUNT>
2

> <PUBCHEM_BOND_DEF_STEREO_COUNT>
0

> <PUBCHEM_BOND_UDEF_STEREO_COUNT>
0

> <PUBCHEM_ISOTOPIC_ATOM_COUNT>
0

> <PUBCHEM_COMPONENT_COUNT>
1

> <PUBCHEM_CACTVS_TAUTO_COUNT>
3

> <PUBCHEM_CONFORMER_ID>
00E85C3A00000009

> <PUBCHEM_MMFF94_ENERGY>
115.3599

> <PUBCHEM_FEATURE_SELFOVERLAP>
50.874

> <PUBCHEM_SHAPE_FINGERPRINT>
10721379 63 17752737201135742887
11370993 70 18116145760844001708
11578080 2 15504935159915609563
11582403 64 16879324896208954617
11720765 8 17249163005612854015
11725454 13 16879048910200506869
12156800 1 17332769126685232762
12160290 23 17319326446132460226
12293681 160 18197492037914325521
12553582 1 17974864864995002122
12788726 201 17704078361483567441
13140716 1 18263385641028666296
13583140 156 17900567604515905209
13911987 19 17835815465906267708
16991981 162 16772420390137510001
17349148 13 18409448128732826056
17492 54 17915453024602261013
17980427 23 18268983194743837594
19319366 153 18264473139712660023
20642791 105 17541369576793136320
21304303 282 17465074421723607258
2132832 1 18122320424908980067
21634736 98 18340772533271130582
22182313 1 17969801837060741146
22393880 68 18260264140033514599
23419403 2 16050697925459869946
23558518 356 18340785770392050512
23559900 14 17702368568523575699
238 59 18409171025679225998
24771293 8 18272937073718690638
3380486 145 17544785750504122642
3388396 114 18272091651317864636
3493558 16 16380002783197027454
352729 6 17833848427267504012
4409770 3 17758680340356163698
469060 322 16879371097752211955
57527585 103 17751384955772192617
59444896 2 17690794182192759562
70251023 43 18272654506755170047
77296 10 16661746938297780995
9981440 41 18042397096394840713

> <PUBCHEM_SHAPE_MULTIPOLES>
593.91
8.69
5.29
2.31
0.12
0.51
-0.11
2.8
-6.36
6.17
2.02
-2.06
-0.84
-1.26

> <PUBCHEM_SHAPE_SELFOVERLAP>
1282.869

> <PUBCHEM_SHAPE_VOLUME>
325.4

> <PUBCHEM_COORDINATE_TYPE>
2
5
10

$$$$
