5281717
  -OEChem-11202006173D

 30 31  0     0  0  0  0  0  0999 V2000
   -2.1249   -1.1340    1.9747 O   0  0  0  0  0  0  0  0  0  0  0  0
    4.9126   -2.1101   -0.6497 O   0  0  0  0  0  0  0  0  0  0  0  0
    4.2428    2.4115    0.7261 O   0  0  0  0  0  0  0  0  0  0  0  0
   -6.0760   -0.1158   -0.4799 O   0  0  0  0  0  0  0  0  0  0  0  0
   -1.9775    0.2849    0.0407 C   0  0  0  0  0  0  0  0  0  0  0  0
    1.8559   -0.1695   -0.2343 C   0  0  0  0  0  0  0  0  0  0  0  0
   -0.5380    0.4415    0.2010 C   0  0  0  0  0  0  0  0  0  0  0  0
    0.3998   -0.3402   -0.3814 C   0  0  0  0  0  0  0  0  0  0  0  0
   -2.7203   -0.4935    0.9283 C   0  0  0  0  0  0  0  0  0  0  0  0
    2.3567    1.0535    0.1814 C   0  0  0  0  0  0  0  0  0  0  0  0
    2.6958   -1.2347   -0.5156 C   0  0  0  0  0  0  0  0  0  0  0  0
   -2.6119    0.9289   -1.0217 C   0  0  0  0  0  0  0  0  0  0  0  0
    4.0744   -1.0726   -0.3775 C   0  0  0  0  0  0  0  0  0  0  0  0
    3.7353    1.2156    0.3196 C   0  0  0  0  0  0  0  0  0  0  0  0
   -4.0976   -0.6281    0.7536 C   0  0  0  0  0  0  0  0  0  0  0  0
   -3.9892    0.7942   -1.1964 C   0  0  0  0  0  0  0  0  0  0  0  0
   -4.7321    0.0157   -0.3089 C   0  0  0  0  0  0  0  0  0  0  0  0
    4.5941    0.1526    0.0401 C   0  0  0  0  0  0  0  0  0  0  0  0
   -0.2677    1.2585    0.8639 H   0  0  0  0  0  0  0  0  0  0  0  0
    0.0797   -1.1650   -1.0153 H   0  0  0  0  0  0  0  0  0  0  0  0
    1.7222    1.9102    0.3871 H   0  0  0  0  0  0  0  0  0  0  0  0
    2.2928   -2.1912   -0.8400 H   0  0  0  0  0  0  0  0  0  0  0  0
   -2.0482    1.5402   -1.7225 H   0  0  0  0  0  0  0  0  0  0  0  0
   -4.6714   -1.2363    1.4486 H   0  0  0  0  0  0  0  0  0  0  0  0
   -4.4779    1.2982   -2.0258 H   0  0  0  0  0  0  0  0  0  0  0  0
    5.6695    0.2722    0.1456 H   0  0  0  0  0  0  0  0  0  0  0  0
   -1.1742   -0.9415    2.0022 H   0  0  0  0  0  0  0  0  0  0  0  0
    4.3840   -2.8790   -0.9246 H   0  0  0  0  0  0  0  0  0  0  0  0
    5.2123    2.3451    0.7666 H   0  0  0  0  0  0  0  0  0  0  0  0
   -6.4289   -0.6879    0.2231 H   0  0  0  0  0  0  0  0  0  0  0  0
  1  9  1  0  0  0  0
  1 27  1  0  0  0  0
  2 13  1  0  0  0  0
  2 28  1  0  0  0  0
  3 14  1  0  0  0  0
  3 29  1  0  0  0  0
  4 17  1  0  0  0  0
  4 30  1  0  0  0  0
  5  7  1  0  0  0  0
  5  9  2  0  0  0  0
  5 12  1  0  0  0  0
  6  8  1  0  0  0  0
  6 10  2  0  0  0  0
  6 11  1  0  0  0  0
  7  8  2  0  0  0  0
  7 19  1  0  0  0  0
  8 20  1  0  0  0  0
  9 15  1  0  0  0  0
 10 14  1  0  0  0  0
 10 21  1  0  0  0  0
 11 13  2  0  0  0  0
 11 22  1  0  0  0  0
 12 16  2  0  0  0  0
 12 23  1  0  0  0  0
 13 18  1  0  0  0  0
 14 18  2  0  0  0  0
 15 17  2  0  0  0  0
 15 24  1  0  0  0  0
 16 17  1  0  0  0  0
 16 25  1  0  0  0  0
 18 26  1  0  0  0  0
M  END
> <PUBCHEM_COMPOUND_CID>
5281717

> <PUBCHEM_CONFORMER_RMSD>
0.6

> <PUBCHEM_CONFORMER_DIVERSEORDER>
2
1
3

> <PUBCHEM_MMFF94_PARTIAL_CHARGES>
30
1 -0.53
10 -0.15
11 -0.15
12 -0.15
13 0.08
14 0.08
15 -0.15
16 -0.15
17 0.08
18 -0.15
19 0.15
2 -0.53
20 0.15
21 0.15
22 0.15
23 0.15
24 0.15
25 0.15
26 0.15
27 0.45
28 0.45
29 0.45
3 -0.53
30 0.45
4 -0.53
5 0.03
6 0.03
7 -0.18
8 -0.18
9 0.08

> <PUBCHEM_EFFECTIVE_ROTOR_COUNT>
2

> <PUBCHEM_PHARMACOPHORE_FEATURES>
6
1 1 donor
1 2 donor
1 3 donor
1 4 donor
6 5 9 12 15 16 17 rings
6 6 10 11 13 14 18 rings

> <PUBCHEM_HEAVY_ATOM_COUNT>
18

> <PUBCHEM_ATOM_DEF_STEREO_COUNT>
0

> <PUBCHEM_ATOM_UDEF_STEREO_COUNT>
0

> <PUBCHEM_BOND_DEF_STEREO_COUNT>
1

> <PUBCHEM_BOND_UDEF_STEREO_COUNT>
0

> <PUBCHEM_ISOTOPIC_ATOM_COUNT>
0

> <PUBCHEM_COMPONENT_COUNT>
1

> <PUBCHEM_CACTVS_TAUTO_COUNT>
75

> <PUBCHEM_CONFORMER_ID>
005097B500000002

> <PUBCHEM_MMFF94_ENERGY>
54.1097

> <PUBCHEM_FEATURE_SELFOVERLAP>
30.449

> <PUBCHEM_SHAPE_FINGERPRINT>
10366900 7 18261683584122809066
10912923 1 17203612601015805955
11287383 113 18411979187066402309
11471102 20 18343302565951918700
11615757 297 17632861931772536696
12236239 1 16845574210083698101
12403259 415 18114458981384788725
12616971 3 17489583454918316437
13167823 11 18131064935400401935
13533116 47 17988642982356981290
13675066 3 18187930615863183530
13760787 5 17847059982312764325
13955234 65 18201432597931739322
14386348 63 18260833708483351209
14573314 32 18040998410198393798
15242439 84 18114184107530043222
15375358 24 18259984894181077875
15880784 105 18272370897306157823
15961568 22 17168710859625227340
17834072 33 17917708032730057815
17844677 252 18343024363186906421
17870717 6 17822303344532638951
18186145 218 18186804647200096976
19489759 90 17603581924556392997
200 152 17989203724881471489
20279233 1 18259990374480297675
20369508 70 18336823092490443802
20645477 56 17676487254986559541
20645477 70 18343302531381502366
21033648 29 18337657672580326536
21065201 7 17458344134786785682
22646028 1 16988561286144165390
2297311 6 17676497116226060325
23048698 100 17846782914141122506
23402539 116 17531239591683257167
23536379 177 18130787837686137177
23557571 272 17894629227602014572
23559900 14 17967819344776381334
26918003 58 18410575089116328010
29717793 49 17417815006499962669
312423 11 17845670169914585264
351380 180 18334573551270042709
3545911 37 18411419548680660716
474 4 17130411609638497112
5104073 3 18410012104734863473
5281201 14 18409450263152165884
5283173 99 18262230015732782669
542803 24 16988847185227341201
573450 72 15792006800934839393
9709674 26 18114750446302448931
9971528 1 18259705605490758532

> <PUBCHEM_SHAPE_MULTIPOLES>
346.95
12.54
1.55
1.09
2.76
0.18
-0.23
-0.6
1.26
-2.33
-0.11
0.79
-0.13
1.77

> <PUBCHEM_SHAPE_SELFOVERLAP>
752.872

> <PUBCHEM_SHAPE_VOLUME>
189.9

> <PUBCHEM_COORDINATE_TYPE>
2
5
10

$$$$
