5319924
  -OEChem-11202006143D

 57 59  0     0  0  0  0  0  0999 V2000
   -0.4684    1.3783    0.2435 O   0  0  0  0  0  0  0  0  0  0  0  0
    3.1958   -1.7627   -0.0465 O   0  0  0  0  0  0  0  0  0  0  0  0
    0.7761   -2.3806   -0.7003 O   0  0  0  0  0  0  0  0  0  0  0  0
    3.9085    2.6977    1.4855 O   0  0  0  0  0  0  0  0  0  0  0  0
   -3.2388    0.2847    1.9258 O   0  0  0  0  0  0  0  0  0  0  0  0
   -6.5795    2.4534   -0.6838 O   0  0  0  0  0  0  0  0  0  0  0  0
    1.3312   -0.2346    0.0793 C   0  0  0  0  0  0  0  0  0  0  0  0
   -1.0348   -0.8425   -0.5543 C   0  0  0  0  0  0  0  0  0  0  0  0
    0.8488    1.0337    0.3853 C   0  0  0  0  0  0  0  0  0  0  0  0
   -1.3555    0.4250   -0.2251 C   0  0  0  0  0  0  0  0  0  0  0  0
    3.5559    0.4538    0.7160 C   0  0  0  0  0  0  0  0  0  0  0  0
    0.3925   -1.2527   -0.4162 C   0  0  0  0  0  0  0  0  0  0  0  0
    2.6873   -0.5307    0.2431 C   0  0  0  0  0  0  0  0  0  0  0  0
   -1.9745   -1.9074   -1.0419 C   0  0  0  0  0  0  0  0  0  0  0  0
    3.0724    1.7260    1.0232 C   0  0  0  0  0  0  0  0  0  0  0  0
    5.0095    0.1501    0.8962 C   0  0  0  0  0  0  0  0  0  0  0  0
    1.7183    2.0174    0.8582 C   0  0  0  0  0  0  0  0  0  0  0  0
   -2.7245    0.9494   -0.3258 C   0  0  0  0  0  0  0  0  0  0  0  0
   -2.5506   -2.6993    0.0906 C   0  0  0  0  0  0  0  0  0  0  0  0
    5.8244    0.4405   -0.3384 C   0  0  0  0  0  0  0  0  0  0  0  0
   -3.6127    0.8612    0.7479 C   0  0  0  0  0  0  0  0  0  0  0  0
   -3.1356    1.5447   -1.5199 C   0  0  0  0  0  0  0  0  0  0  0  0
   -3.8506   -2.8764    0.3955 C   0  0  0  0  0  0  0  0  0  0  0  0
    6.9346   -0.1898   -0.7672 C   0  0  0  0  0  0  0  0  0  0  0  0
   -4.9072    1.3664    0.6278 C   0  0  0  0  0  0  0  0  0  0  0  0
   -4.4302    2.0498   -1.6399 C   0  0  0  0  0  0  0  0  0  0  0  0
   -5.3160    1.9607   -0.5661 C   0  0  0  0  0  0  0  0  0  0  0  0
   -4.3663   -3.6867    1.5510 C   0  0  0  0  0  0  0  0  0  0  0  0
   -4.9252   -2.2498   -0.4529 C   0  0  0  0  0  0  0  0  0  0  0  0
    7.7007    0.1533   -2.0133 C   0  0  0  0  0  0  0  0  0  0  0  0
    7.5146   -1.3329    0.0228 C   0  0  0  0  0  0  0  0  0  0  0  0
   -2.7197   -1.4630   -1.7029 H   0  0  0  0  0  0  0  0  0  0  0  0
   -1.4429   -2.6058   -1.7012 H   0  0  0  0  0  0  0  0  0  0  0  0
    5.4121    0.7638    1.7130 H   0  0  0  0  0  0  0  0  0  0  0  0
    5.1315   -0.8773    1.2543 H   0  0  0  0  0  0  0  0  0  0  0  0
    1.3350    3.0069    1.0956 H   0  0  0  0  0  0  0  0  0  0  0  0
   -1.8196   -3.1945    0.7293 H   0  0  0  0  0  0  0  0  0  0  0  0
    5.4755    1.2778   -0.9430 H   0  0  0  0  0  0  0  0  0  0  0  0
   -2.4578    1.6224   -2.3667 H   0  0  0  0  0  0  0  0  0  0  0  0
    4.1241   -1.6939   -0.3202 H   0  0  0  0  0  0  0  0  0  0  0  0
   -5.5935    1.2929    1.4678 H   0  0  0  0  0  0  0  0  0  0  0  0
   -4.7430    2.5113   -2.5725 H   0  0  0  0  0  0  0  0  0  0  0  0
    3.3967    3.5096    1.6423 H   0  0  0  0  0  0  0  0  0  0  0  0
   -4.9448   -3.0548    2.2325 H   0  0  0  0  0  0  0  0  0  0  0  0
   -3.5488   -4.1359    2.1244 H   0  0  0  0  0  0  0  0  0  0  0  0
   -5.0089   -4.4971    1.1924 H   0  0  0  0  0  0  0  0  0  0  0  0
   -4.5952   -1.5076   -1.1773 H   0  0  0  0  0  0  0  0  0  0  0  0
   -5.4602   -3.0320   -1.0027 H   0  0  0  0  0  0  0  0  0  0  0  0
   -5.6519   -1.7421    0.1918 H   0  0  0  0  0  0  0  0  0  0  0  0
    7.7449   -0.7113   -2.6834 H   0  0  0  0  0  0  0  0  0  0  0  0
    8.7223    0.4572   -1.7639 H   0  0  0  0  0  0  0  0  0  0  0  0
    7.2308    0.9769   -2.5610 H   0  0  0  0  0  0  0  0  0  0  0  0
    8.6037   -1.2273    0.0881 H   0  0  0  0  0  0  0  0  0  0  0  0
    7.2957   -2.2825   -0.4762 H   0  0  0  0  0  0  0  0  0  0  0  0
    7.1570   -1.3928    1.0531 H   0  0  0  0  0  0  0  0  0  0  0  0
   -2.3102    0.0051    1.8937 H   0  0  0  0  0  0  0  0  0  0  0  0
   -7.0542    2.3066    0.1524 H   0  0  0  0  0  0  0  0  0  0  0  0
  1  9  1  0  0  0  0
  1 10  1  0  0  0  0
  2 13  1  0  0  0  0
  2 40  1  0  0  0  0
  3 12  2  0  0  0  0
  4 15  1  0  0  0  0
  4 43  1  0  0  0  0
  5 21  1  0  0  0  0
  5 56  1  0  0  0  0
  6 27  1  0  0  0  0
  6 57  1  0  0  0  0
  7  9  2  0  0  0  0
  7 12  1  0  0  0  0
  7 13  1  0  0  0  0
  8 10  2  0  0  0  0
  8 12  1  0  0  0  0
  8 14  1  0  0  0  0
  9 17  1  0  0  0  0
 10 18  1  0  0  0  0
 11 13  2  0  0  0  0
 11 15  1  0  0  0  0
 11 16  1  0  0  0  0
 14 19  1  0  0  0  0
 14 32  1  0  0  0  0
 14 33  1  0  0  0  0
 15 17  2  0  0  0  0
 16 20  1  0  0  0  0
 16 34  1  0  0  0  0
 16 35  1  0  0  0  0
 17 36  1  0  0  0  0
 18 21  2  0  0  0  0
 18 22  1  0  0  0  0
 19 23  2  0  0  0  0
 19 37  1  0  0  0  0
 20 24  2  0  0  0  0
 20 38  1  0  0  0  0
 21 25  1  0  0  0  0
 22 26  2  0  0  0  0
 22 39  1  0  0  0  0
 23 28  1  0  0  0  0
 23 29  1  0  0  0  0
 24 30  1  0  0  0  0
 24 31  1  0  0  0  0
 25 27  2  0  0  0  0
 25 41  1  0  0  0  0
 26 27  1  0  0  0  0
 26 42  1  0  0  0  0
 28 44  1  0  0  0  0
 28 45  1  0  0  0  0
 28 46  1  0  0  0  0
 29 47  1  0  0  0  0
 29 48  1  0  0  0  0
 29 49  1  0  0  0  0
 30 50  1  0  0  0  0
 30 51  1  0  0  0  0
 30 52  1  0  0  0  0
 31 53  1  0  0  0  0
 31 54  1  0  0  0  0
 31 55  1  0  0  0  0
M  END
> <PUBCHEM_COMPOUND_CID>
5319924

> <PUBCHEM_CONFORMER_RMSD>
0.8

> <PUBCHEM_CONFORMER_DIVERSEORDER>
1
19
29
63
45
52
59
35
51
31
43
42
18
49
50
33
40
41
34
28
23
62
15
56
2
46
20
54
37
44
53
36
12
13
24
17
11
55
57
22
7
27
58
16
14
26
5
47
8
3
30
60
38
61
10
25
21
9
39
4
48
32
6

> <PUBCHEM_MMFF94_PARTIAL_CHARGES>
41
1 -0.16
10 0.05
11 -0.14
12 0.47
13 0.08
14 0.28
15 0.08
16 0.28
17 -0.15
18 0.03
19 -0.29
2 -0.53
20 -0.29
21 0.08
22 -0.15
23 -0.28
24 -0.28
25 -0.15
26 -0.15
27 0.08
28 0.14
29 0.14
3 -0.57
30 0.14
31 0.14
36 0.15
37 0.15
38 0.15
39 0.15
4 -0.53
40 0.45
41 0.15
42 0.15
43 0.45
5 -0.53
56 0.45
57 0.45
6 -0.53
7 0.09
8 -0.12
9 0.08

> <PUBCHEM_EFFECTIVE_ROTOR_COUNT>
5

> <PUBCHEM_PHARMACOPHORE_FEATURES>
11
1 1 acceptor
1 2 donor
1 3 acceptor
1 4 donor
1 5 donor
1 6 donor
3 23 28 29 hydrophobe
3 24 30 31 hydrophobe
6 1 7 8 9 10 12 rings
6 18 21 22 25 26 27 rings
6 7 9 11 13 15 17 rings

> <PUBCHEM_HEAVY_ATOM_COUNT>
31

> <PUBCHEM_ATOM_DEF_STEREO_COUNT>
0

> <PUBCHEM_ATOM_UDEF_STEREO_COUNT>
0

> <PUBCHEM_BOND_DEF_STEREO_COUNT>
0

> <PUBCHEM_BOND_UDEF_STEREO_COUNT>
0

> <PUBCHEM_ISOTOPIC_ATOM_COUNT>
0

> <PUBCHEM_COMPONENT_COUNT>
1

> <PUBCHEM_CACTVS_TAUTO_COUNT>
171

> <PUBCHEM_CONFORMER_ID>
00512CF400000001

> <PUBCHEM_MMFF94_ENERGY>
83.1944

> <PUBCHEM_FEATURE_SELFOVERLAP>
55.849

> <PUBCHEM_SHAPE_FINGERPRINT>
10165383 225 18335984160533476261
10319926 262 18338223947202055682
10906281 52 18058174920707366662
1100329 8 17975118860893052155
11007060 377 18189058753985993210
11273773 46 18271814463303610134
12403259 415 18200869699212139192
12422481 6 18266481943794181443
12643181 29 18341890771721318454
13140716 1 18412816993198801795
13540713 4 18199455744212095088
13782708 43 18200315549573237486
15183329 4 17989489585579058268
15230672 131 18261951830912108178
1577012 14 18040156228422864886
21033648 29 17987498459519156792
21236236 1 18411699915334529191
21267235 1 18270405008806545990
21279426 13 18273496788965801252
21307412 95 17560532742074171430
21756936 100 17059788732398487067
22182313 1 18059586796806772183
23559900 14 18059846299469333088
23569943 247 15983709823430106182
23576562 1 18260833755797356676
25269216 80 18042704938930577462
2747138 104 18044942517316346059
335352 9 18272928302799633092
350125 39 18268711778211008795
4058900 60 18120651328041393909
4073 2 18408600383518284602
508706 21 18335974350817187063
5104073 3 18339909524487105544
563151 40 18040157292377671594
59755656 215 18272369712095572956
59755656 520 18335693911017246293
6086070 43 18130498691439010794

> <PUBCHEM_SHAPE_MULTIPOLES>
602.75
17.29
3.4
1.41
24.06
1.9
0.08
-1.2
4.04
-5.95
-0.47
0.18
-0.32
2.29

> <PUBCHEM_SHAPE_SELFOVERLAP>
1302.403

> <PUBCHEM_SHAPE_VOLUME>
331.1

> <PUBCHEM_COORDINATE_TYPE>
2
5
10

$$$$
