390520
  -OEChem-11202006043D

 47 49  0     0  0  0  0  0  0999 V2000
    0.0717    0.1257   -0.3092 O   0  0  0  0  0  0  0  0  0  0  0  0
   -4.4031   -1.4751   -0.5581 O   0  0  0  0  0  0  0  0  0  0  0  0
   -3.6722    3.0425    0.6768 O   0  0  0  0  0  0  0  0  0  0  0  0
   -1.1762    3.8441    0.7932 O   0  0  0  0  0  0  0  0  0  0  0  0
    2.5594    0.0750    2.0621 O   0  0  0  0  0  0  0  0  0  0  0  0
    6.3652   -0.3129   -0.7730 O   0  0  0  0  0  0  0  0  0  0  0  0
   -2.1496   -0.6654   -0.4316 C   0  0  0  0  0  0  0  0  0  0  0  0
   -1.2687    0.3859   -0.1769 C   0  0  0  0  0  0  0  0  0  0  0  0
   -1.7636    1.6346    0.1953 C   0  0  0  0  0  0  0  0  0  0  0  0
   -1.6297   -2.0101   -0.8296 C   0  0  0  0  0  0  0  0  0  0  0  0
   -3.5247   -0.4622   -0.3131 C   0  0  0  0  0  0  0  0  0  0  0  0
   -3.1396    1.8422    0.3153 C   0  0  0  0  0  0  0  0  0  0  0  0
    0.9710    1.1536   -0.0691 C   0  0  0  0  0  0  0  0  0  0  0  0
   -4.0184    0.7889    0.0595 C   0  0  0  0  0  0  0  0  0  0  0  0
   -0.8123    2.7249    0.4598 C   0  0  0  0  0  0  0  0  0  0  0  0
    0.6186    2.3949    0.3012 C   0  0  0  0  0  0  0  0  0  0  0  0
   -1.3678   -2.9088    0.3521 C   0  0  0  0  0  0  0  0  0  0  0  0
    2.3857    0.7638   -0.2342 C   0  0  0  0  0  0  0  0  0  0  0  0
   -0.1966   -3.4474    0.7418 C   0  0  0  0  0  0  0  0  0  0  0  0
    3.1244    0.2414    0.8322 C   0  0  0  0  0  0  0  0  0  0  0  0
    2.9950    0.9210   -1.4827 C   0  0  0  0  0  0  0  0  0  0  0  0
   -0.0061   -4.3389    1.9360 C   0  0  0  0  0  0  0  0  0  0  0  0
    1.0613   -3.1840   -0.0429 C   0  0  0  0  0  0  0  0  0  0  0  0
    4.4596   -0.1198    0.6514 C   0  0  0  0  0  0  0  0  0  0  0  0
    4.3299    0.5599   -1.6634 C   0  0  0  0  0  0  0  0  0  0  0  0
    5.0623    0.0394   -0.5964 C   0  0  0  0  0  0  0  0  0  0  0  0
   -4.8750   -1.6133   -1.8965 C   0  0  0  0  0  0  0  0  0  0  0  0
   -2.3521   -2.5325   -1.4673 H   0  0  0  0  0  0  0  0  0  0  0  0
   -0.7743   -1.8907   -1.4985 H   0  0  0  0  0  0  0  0  0  0  0  0
   -5.0911    0.9426    0.1514 H   0  0  0  0  0  0  0  0  0  0  0  0
    1.3442    3.1781    0.4906 H   0  0  0  0  0  0  0  0  0  0  0  0
   -2.2477   -3.1470    0.9496 H   0  0  0  0  0  0  0  0  0  0  0  0
    2.4385    1.3240   -2.3258 H   0  0  0  0  0  0  0  0  0  0  0  0
   -0.9499   -4.5125    2.4632 H   0  0  0  0  0  0  0  0  0  0  0  0
    0.3888   -5.3120    1.6271 H   0  0  0  0  0  0  0  0  0  0  0  0
    0.6941   -3.8846    2.6443 H   0  0  0  0  0  0  0  0  0  0  0  0
    0.9913   -2.4229   -0.8181 H   0  0  0  0  0  0  0  0  0  0  0  0
    1.8536   -2.8512    0.6376 H   0  0  0  0  0  0  0  0  0  0  0  0
    1.3984   -4.1106   -0.5202 H   0  0  0  0  0  0  0  0  0  0  0  0
   -2.9708    3.6949    0.8258 H   0  0  0  0  0  0  0  0  0  0  0  0
    5.0319   -0.5260    1.4819 H   0  0  0  0  0  0  0  0  0  0  0  0
    4.7940    0.6859   -2.6378 H   0  0  0  0  0  0  0  0  0  0  0  0
   -4.0727   -1.4816   -2.6297 H   0  0  0  0  0  0  0  0  0  0  0  0
   -5.6657   -0.8801   -2.0836 H   0  0  0  0  0  0  0  0  0  0  0  0
   -5.2944   -2.6166   -2.0108 H   0  0  0  0  0  0  0  0  0  0  0  0
    3.2200   -0.3006    2.6690 H   0  0  0  0  0  0  0  0  0  0  0  0
    6.7167   -0.6537    0.0674 H   0  0  0  0  0  0  0  0  0  0  0  0
  1  8  1  0  0  0  0
  1 13  1  0  0  0  0
  2 11  1  0  0  0  0
  2 27  1  0  0  0  0
  3 12  1  0  0  0  0
  3 40  1  0  0  0  0
  4 15  2  0  0  0  0
  5 20  1  0  0  0  0
  5 46  1  0  0  0  0
  6 26  1  0  0  0  0
  6 47  1  0  0  0  0
  7  8  1  0  0  0  0
  7 10  1  0  0  0  0
  7 11  2  0  0  0  0
  8  9  2  0  0  0  0
  9 12  1  0  0  0  0
  9 15  1  0  0  0  0
 10 17  1  0  0  0  0
 10 28  1  0  0  0  0
 10 29  1  0  0  0  0
 11 14  1  0  0  0  0
 12 14  2  0  0  0  0
 13 16  2  0  0  0  0
 13 18  1  0  0  0  0
 14 30  1  0  0  0  0
 15 16  1  0  0  0  0
 16 31  1  0  0  0  0
 17 19  2  0  0  0  0
 17 32  1  0  0  0  0
 18 20  2  0  0  0  0
 18 21  1  0  0  0  0
 19 22  1  0  0  0  0
 19 23  1  0  0  0  0
 20 24  1  0  0  0  0
 21 25  2  0  0  0  0
 21 33  1  0  0  0  0
 22 34  1  0  0  0  0
 22 35  1  0  0  0  0
 22 36  1  0  0  0  0
 23 37  1  0  0  0  0
 23 38  1  0  0  0  0
 23 39  1  0  0  0  0
 24 26  2  0  0  0  0
 24 41  1  0  0  0  0
 25 26  1  0  0  0  0
 25 42  1  0  0  0  0
 27 43  1  0  0  0  0
 27 44  1  0  0  0  0
 27 45  1  0  0  0  0
M  END
> <PUBCHEM_COMPOUND_CID>
390520

> <PUBCHEM_CONFORMER_RMSD>
0.8

> <PUBCHEM_CONFORMER_DIVERSEORDER>
1
24
10
25
19
21
11
6
22
23
16
3
9
28
5
4
27
15
14
17
12
18
7
20
26
13
8
2

> <PUBCHEM_MMFF94_PARTIAL_CHARGES>
36
1 -0.16
10 0.28
11 0.08
12 0.08
13 0.05
14 -0.15
15 0.47
16 -0.14
17 -0.29
18 0.03
19 -0.28
2 -0.36
20 0.08
21 -0.15
22 0.14
23 0.14
24 -0.15
25 -0.15
26 0.08
27 0.28
3 -0.53
30 0.15
31 0.15
32 0.15
33 0.15
4 -0.57
40 0.45
41 0.15
42 0.15
46 0.45
47 0.45
5 -0.53
6 -0.53
7 -0.14
8 0.08
9 0.09

> <PUBCHEM_EFFECTIVE_ROTOR_COUNT>
4

> <PUBCHEM_PHARMACOPHORE_FEATURES>
10
1 1 acceptor
1 2 acceptor
1 3 donor
1 4 acceptor
1 5 donor
1 6 donor
3 19 22 23 hydrophobe
6 1 8 9 13 15 16 rings
6 18 20 21 24 25 26 rings
6 7 8 9 11 12 14 rings

> <PUBCHEM_HEAVY_ATOM_COUNT>
27

> <PUBCHEM_ATOM_DEF_STEREO_COUNT>
0

> <PUBCHEM_ATOM_UDEF_STEREO_COUNT>
0

> <PUBCHEM_BOND_DEF_STEREO_COUNT>
0

> <PUBCHEM_BOND_UDEF_STEREO_COUNT>
0

> <PUBCHEM_ISOTOPIC_ATOM_COUNT>
0

> <PUBCHEM_COMPONENT_COUNT>
1

> <PUBCHEM_CACTVS_TAUTO_COUNT>
72

> <PUBCHEM_CONFORMER_ID>
0005F57800000001

> <PUBCHEM_MMFF94_ENERGY>
86.9496

> <PUBCHEM_FEATURE_SELFOVERLAP>
50.775

> <PUBCHEM_SHAPE_FINGERPRINT>
10693767 8 17556276691340411599
1100329 8 18194958767830522027
11513181 2 18128818538862031422
11756154 5 18044101373851829186
12236239 1 18113625552035398316
12553582 1 18339646762107701257
12788726 201 18340214088796502964
13140716 1 18051410962029746155
13583140 156 13686303461172032381
13941206 138 18114188510336388650
14251740 79 18272101444132579034
14251757 5 18191037900585917286
14289585 56 17168431433500117894
14790565 3 18337685143275840153
14931854 50 18409725162180596879
15420108 30 17772206219512309409
15927050 60 18126288528419787733
16112460 7 18129398127317953073
16752209 62 18409722976173676009
20028762 73 17985267619706006519
20600515 1 18269253811742914008
20775438 99 16904932694109272343
20905425 154 18128817447686337575
21033650 10 17984173446574360292
21421861 104 17902234416392213953
23366157 5 17539421928834676738
23402539 116 18343581841235805557
23419403 2 12821003302106869373
23557571 272 18201437030201442712
23559900 14 18125996302612810629
3178227 256 18337408127450330385
335352 9 18343301479584234261
3383291 50 18263923404935921274
338550 245 18192437372803362558
43471831 8 18264488382165678987
59755656 215 18343298154915342543
602551 16 18342453734364508552
9709674 26 17836360828121157239

> <PUBCHEM_SHAPE_MULTIPOLES>
520.43
9.54
4.49
1.4
7.53
2.68
0.04
-0.53
3.87
-3.23
-2.32
0.4
0.61
-1.41

> <PUBCHEM_SHAPE_SELFOVERLAP>
1134.089

> <PUBCHEM_SHAPE_VOLUME>
283

> <PUBCHEM_COORDINATE_TYPE>
2
5
10

$$$$
