42608055
  -OEChem-11202006223D

 46 48  0     1  0  0  0  0  0999 V2000
   -0.5898    0.5457    0.1428 O   0  0  0  0  0  0  0  0  0  0  0  0
    1.1924    1.6657   -1.1691 O   0  0  0  0  0  0  0  0  0  0  0  0
    2.1758   -2.2374    1.4375 O   0  0  0  0  0  0  0  0  0  0  0  0
   -2.0902   -2.8904   -1.5222 O   0  0  0  0  0  0  0  0  0  0  0  0
   -4.5057   -2.1236   -0.9241 O   0  0  0  0  0  0  0  0  0  0  0  0
    5.6775    0.7194    0.1332 O   0  0  0  0  0  0  0  0  0  0  0  0
   -4.9477    2.1361    1.1235 O   0  0  0  0  0  0  0  0  0  0  0  0
    0.1838   -0.6641    0.1345 C   0  0  1  0  0  0  0  0  0  0  0  0
   -0.1657   -1.5298   -1.0744 C   0  0  0  0  0  0  0  0  0  0  0  0
    1.6520   -0.2938    0.1345 C   0  0  0  0  0  0  0  0  0  0  0  0
   -1.6342   -1.8642   -1.0320 C   0  0  0  0  0  0  0  0  0  0  0  0
   -2.5123   -0.8432   -0.4246 C   0  0  0  0  0  0  0  0  0  0  0  0
   -1.9410    0.3157    0.1090 C   0  0  0  0  0  0  0  0  0  0  0  0
    2.0807    0.8598   -0.5223 C   0  0  0  0  0  0  0  0  0  0  0  0
    2.5762   -1.1069    0.7907 C   0  0  0  0  0  0  0  0  0  0  0  0
   -3.8991   -1.0122   -0.4217 C   0  0  0  0  0  0  0  0  0  0  0  0
   -2.7621    1.3235    0.6163 C   0  0  0  0  0  0  0  0  0  0  0  0
    3.4335    1.2001   -0.5229 C   0  0  0  0  0  0  0  0  0  0  0  0
    3.9289   -0.7663    0.7904 C   0  0  0  0  0  0  0  0  0  0  0  0
   -4.1473    1.1576    0.6187 C   0  0  0  0  0  0  0  0  0  0  0  0
    4.3575    0.3872    0.1336 C   0  0  0  0  0  0  0  0  0  0  0  0
   -4.7139   -0.0096    0.1054 C   0  0  0  0  0  0  0  0  0  0  0  0
    1.7191    2.8240   -1.8133 C   0  0  0  0  0  0  0  0  0  0  0  0
    3.1885   -3.0082    2.0812 C   0  0  0  0  0  0  0  0  0  0  0  0
    6.0464    1.9121   -0.5577 C   0  0  0  0  0  0  0  0  0  0  0  0
   -4.3036    3.3029    1.6329 C   0  0  0  0  0  0  0  0  0  0  0  0
   -0.0501   -1.1934    1.0694 H   0  0  0  0  0  0  0  0  0  0  0  0
    0.4092   -2.4623   -1.0588 H   0  0  0  0  0  0  0  0  0  0  0  0
    0.0290   -1.0095   -2.0196 H   0  0  0  0  0  0  0  0  0  0  0  0
   -2.2657    2.2075    1.0030 H   0  0  0  0  0  0  0  0  0  0  0  0
    3.7705    2.0913   -1.0297 H   0  0  0  0  0  0  0  0  0  0  0  0
    4.6991   -1.3527    1.2801 H   0  0  0  0  0  0  0  0  0  0  0  0
   -5.7943   -0.1331    0.1102 H   0  0  0  0  0  0  0  0  0  0  0  0
   -3.8445   -2.7774   -1.1981 H   0  0  0  0  0  0  0  0  0  0  0  0
    0.8727    3.3448   -2.2737 H   0  0  0  0  0  0  0  0  0  0  0  0
    2.4041    2.5606   -2.6265 H   0  0  0  0  0  0  0  0  0  0  0  0
    2.1625    3.5223   -1.0949 H   0  0  0  0  0  0  0  0  0  0  0  0
    2.6925   -3.8685    2.5431 H   0  0  0  0  0  0  0  0  0  0  0  0
    3.6698   -2.4485    2.8905 H   0  0  0  0  0  0  0  0  0  0  0  0
    3.9109   -3.4083    1.3615 H   0  0  0  0  0  0  0  0  0  0  0  0
    7.1314    2.0199   -0.4542 H   0  0  0  0  0  0  0  0  0  0  0  0
    5.5962    2.8002   -0.1009 H   0  0  0  0  0  0  0  0  0  0  0  0
    5.8378    1.8392   -1.6306 H   0  0  0  0  0  0  0  0  0  0  0  0
   -5.0899    3.9746    1.9928 H   0  0  0  0  0  0  0  0  0  0  0  0
   -3.7610    3.8391    0.8468 H   0  0  0  0  0  0  0  0  0  0  0  0
   -3.6664    3.0683    2.4923 H   0  0  0  0  0  0  0  0  0  0  0  0
  1  8  1  0  0  0  0
  1 13  1  0  0  0  0
  2 14  1  0  0  0  0
  2 23  1  0  0  0  0
  3 15  1  0  0  0  0
  3 24  1  0  0  0  0
  4 11  2  0  0  0  0
  5 16  1  0  0  0  0
  5 34  1  0  0  0  0
  6 21  1  0  0  0  0
  6 25  1  0  0  0  0
  7 20  1  0  0  0  0
  7 26  1  0  0  0  0
  8  9  1  0  0  0  0
  8 10  1  0  0  0  0
  8 27  1  0  0  0  0
  9 11  1  0  0  0  0
  9 28  1  0  0  0  0
  9 29  1  0  0  0  0
 10 14  2  0  0  0  0
 10 15  1  0  0  0  0
 11 12  1  0  0  0  0
 12 13  1  0  0  0  0
 12 16  2  0  0  0  0
 13 17  2  0  0  0  0
 14 18  1  0  0  0  0
 15 19  2  0  0  0  0
 16 22  1  0  0  0  0
 17 20  1  0  0  0  0
 17 30  1  0  0  0  0
 18 21  2  0  0  0  0
 18 31  1  0  0  0  0
 19 21  1  0  0  0  0
 19 32  1  0  0  0  0
 20 22  2  0  0  0  0
 22 33  1  0  0  0  0
 23 35  1  0  0  0  0
 23 36  1  0  0  0  0
 23 37  1  0  0  0  0
 24 38  1  0  0  0  0
 24 39  1  0  0  0  0
 24 40  1  0  0  0  0
 25 41  1  0  0  0  0
 25 42  1  0  0  0  0
 25 43  1  0  0  0  0
 26 44  1  0  0  0  0
 26 45  1  0  0  0  0
 26 46  1  0  0  0  0
M  END
> <PUBCHEM_COMPOUND_CID>
42608055

> <PUBCHEM_CONFORMER_RMSD>
0.8

> <PUBCHEM_CONFORMER_DIVERSEORDER>
1
4
10
9
11
5
6
2
8
7
3

> <PUBCHEM_MMFF94_PARTIAL_CHARGES>
31
1 -0.36
10 -0.14
11 0.42
12 0.09
13 0.08
14 0.08
15 0.08
16 0.08
17 -0.15
18 -0.15
19 -0.15
2 -0.36
20 0.08
21 0.08
22 -0.15
23 0.28
24 0.28
25 0.28
26 0.28
3 -0.36
30 0.15
31 0.15
32 0.15
33 0.15
34 0.45
4 -0.57
5 -0.53
6 -0.36
7 -0.36
8 0.42
9 0.06

> <PUBCHEM_EFFECTIVE_ROTOR_COUNT>
5.6

> <PUBCHEM_PHARMACOPHORE_FEATURES>
10
1 1 acceptor
1 2 acceptor
1 3 acceptor
1 4 acceptor
1 5 donor
1 6 acceptor
1 7 acceptor
6 1 8 9 11 12 13 rings
6 10 14 15 18 19 21 rings
6 12 13 16 17 20 22 rings

> <PUBCHEM_HEAVY_ATOM_COUNT>
26

> <PUBCHEM_ATOM_DEF_STEREO_COUNT>
0

> <PUBCHEM_ATOM_UDEF_STEREO_COUNT>
1

> <PUBCHEM_BOND_DEF_STEREO_COUNT>
0

> <PUBCHEM_BOND_UDEF_STEREO_COUNT>
0

> <PUBCHEM_ISOTOPIC_ATOM_COUNT>
0

> <PUBCHEM_COMPONENT_COUNT>
1

> <PUBCHEM_CACTVS_TAUTO_COUNT>
9

> <PUBCHEM_CONFORMER_ID>
028A25B700000001

> <PUBCHEM_MMFF94_ENERGY>
116.3082

> <PUBCHEM_FEATURE_SELFOVERLAP>
50.802

> <PUBCHEM_SHAPE_FINGERPRINT>
10382601 240 18187929430964075266
10411042 1 17625533867801165127
10906281 52 18043262421780832724
12107183 9 17979350859203540059
12236239 1 18410572920495472974
12390115 104 17703523107879113665
12422481 6 17903639579668887561
12553582 1 17897992544047228442
12788726 201 18271237339678848451
13140716 1 18043539519389380764
13583140 156 17894353280965189803
13631057 29 18118400885205584171
13965767 371 18194412090959714957
14294032 229 17775568612180279841
14739800 52 17986933293805924208
14790565 3 18041849531758624188
15475509 8 18265073396247425812
16752209 62 17988915704443725919
17818456 19 18127975213242235113
20511986 3 18337659858787096289
20715895 44 17835520419566345449
20739085 24 18115875105153607846
21033648 29 15984813826886524858
21065198 48 18410288090869963315
21421861 104 18115865201428535186
23557571 272 17632585988645196508
23558518 356 17902802091168447484
23559900 14 17487903302483300214
23569914 2 16698031818848820504
25147074 1 18339348712910691831
34797466 226 17130719460320660100
34934 24 18408603652004253280
350125 39 18343584058214338001
3633792 109 18041823061848707647
38570 142 17825982413624031484
474 4 18041559268945846868
5104073 3 18409163286074221866
7064713 232 18129091234803307777
7097593 13 18335412426997446483
7808743 9 18202005391460047329
9849439 229 17556314864957153201

> <PUBCHEM_SHAPE_MULTIPOLES>
493.98
11.67
3.32
1.48
2.41
0.15
0.17
5.07
2.28
-0.74
0.34
-0.07
-0.21
-4.35

> <PUBCHEM_SHAPE_SELFOVERLAP>
1075.255

> <PUBCHEM_SHAPE_VOLUME>
269.4

> <PUBCHEM_COORDINATE_TYPE>
2
5
10

$$$$
