399491
  -OEChem-11202006083D

 44 46  0     0  0  0  0  0  0999 V2000
    1.1301   -0.6436   -0.1880 O   0  0  0  0  0  0  0  0  0  0  0  0
   -2.6137    2.4232   -0.1324 O   0  0  0  0  0  0  0  0  0  0  0  0
   -3.2497   -2.2056   -1.1014 O   0  0  0  0  0  0  0  0  0  0  0  0
   -0.1681    3.1808    0.3487 O   0  0  0  0  0  0  0  0  0  0  0  0
    3.8158    0.3588   -2.0857 O   0  0  0  0  0  0  0  0  0  0  0  0
    7.3717   -1.2543    0.6396 O   0  0  0  0  0  0  0  0  0  0  0  0
   -2.9363    0.1220   -0.6166 C   0  0  0  0  0  0  0  0  0  0  0  0
   -0.7147    0.9361   -0.1480 C   0  0  0  0  0  0  0  0  0  0  0  0
   -0.2033   -0.3492   -0.3197 C   0  0  0  0  0  0  0  0  0  0  0  0
   -2.0825    1.1779   -0.2955 C   0  0  0  0  0  0  0  0  0  0  0  0
   -4.4037    0.3654   -0.7759 C   0  0  0  0  0  0  0  0  0  0  0  0
   -2.4261   -1.1656   -0.7890 C   0  0  0  0  0  0  0  0  0  0  0  0
   -1.0593   -1.4029   -0.6411 C   0  0  0  0  0  0  0  0  0  0  0  0
    2.0038    0.3824    0.1382 C   0  0  0  0  0  0  0  0  0  0  0  0
    0.2106    2.0287    0.1885 C   0  0  0  0  0  0  0  0  0  0  0  0
    1.6344    1.6599    0.3224 C   0  0  0  0  0  0  0  0  0  0  0  0
    3.4136   -0.0428    0.2496 C   0  0  0  0  0  0  0  0  0  0  0  0
   -5.1660    0.2043    0.5147 C   0  0  0  0  0  0  0  0  0  0  0  0
   -6.1457   -0.6760    0.7955 C   0  0  0  0  0  0  0  0  0  0  0  0
    4.2638   -0.0390   -0.8606 C   0  0  0  0  0  0  0  0  0  0  0  0
    3.9043   -0.4569    1.4918 C   0  0  0  0  0  0  0  0  0  0  0  0
    5.5917   -0.4452   -0.7298 C   0  0  0  0  0  0  0  0  0  0  0  0
   -6.8663   -0.7824    2.1095 C   0  0  0  0  0  0  0  0  0  0  0  0
   -6.6124   -1.6550   -0.2491 C   0  0  0  0  0  0  0  0  0  0  0  0
    5.2322   -0.8632    1.6224 C   0  0  0  0  0  0  0  0  0  0  0  0
    6.0760   -0.8575    0.5117 C   0  0  0  0  0  0  0  0  0  0  0  0
   -4.5770    1.3904   -1.1308 H   0  0  0  0  0  0  0  0  0  0  0  0
   -4.7899   -0.2393   -1.5999 H   0  0  0  0  0  0  0  0  0  0  0  0
   -0.6565   -2.4039   -0.7742 H   0  0  0  0  0  0  0  0  0  0  0  0
    2.3411    2.4444    0.5691 H   0  0  0  0  0  0  0  0  0  0  0  0
   -4.8806    0.8987    1.3047 H   0  0  0  0  0  0  0  0  0  0  0  0
    3.2602   -0.4686    2.3680 H   0  0  0  0  0  0  0  0  0  0  0  0
   -1.9250    3.0650    0.0973 H   0  0  0  0  0  0  0  0  0  0  0  0
   -2.7209   -3.0181   -1.1791 H   0  0  0  0  0  0  0  0  0  0  0  0
    6.2510   -0.4414   -1.5944 H   0  0  0  0  0  0  0  0  0  0  0  0
   -6.5047   -0.0395    2.8280 H   0  0  0  0  0  0  0  0  0  0  0  0
   -7.9397   -0.6187    1.9705 H   0  0  0  0  0  0  0  0  0  0  0  0
   -6.7161   -1.7736    2.5491 H   0  0  0  0  0  0  0  0  0  0  0  0
   -5.9869   -1.7369   -1.1368 H   0  0  0  0  0  0  0  0  0  0  0  0
   -6.6518   -2.6615    0.1836 H   0  0  0  0  0  0  0  0  0  0  0  0
   -7.6240   -1.3916   -0.5764 H   0  0  0  0  0  0  0  0  0  0  0  0
    5.6037   -1.1835    2.5920 H   0  0  0  0  0  0  0  0  0  0  0  0
    4.5431    0.2945   -2.7280 H   0  0  0  0  0  0  0  0  0  0  0  0
    7.8092   -1.1872   -0.2265 H   0  0  0  0  0  0  0  0  0  0  0  0
  1  9  1  0  0  0  0
  1 14  1  0  0  0  0
  2 10  1  0  0  0  0
  2 33  1  0  0  0  0
  3 12  1  0  0  0  0
  3 34  1  0  0  0  0
  4 15  2  0  0  0  0
  5 20  1  0  0  0  0
  5 43  1  0  0  0  0
  6 26  1  0  0  0  0
  6 44  1  0  0  0  0
  7 10  2  0  0  0  0
  7 11  1  0  0  0  0
  7 12  1  0  0  0  0
  8  9  2  0  0  0  0
  8 10  1  0  0  0  0
  8 15  1  0  0  0  0
  9 13  1  0  0  0  0
 11 18  1  0  0  0  0
 11 27  1  0  0  0  0
 11 28  1  0  0  0  0
 12 13  2  0  0  0  0
 13 29  1  0  0  0  0
 14 16  2  0  0  0  0
 14 17  1  0  0  0  0
 15 16  1  0  0  0  0
 16 30  1  0  0  0  0
 17 20  2  0  0  0  0
 17 21  1  0  0  0  0
 18 19  2  0  0  0  0
 18 31  1  0  0  0  0
 19 23  1  0  0  0  0
 19 24  1  0  0  0  0
 20 22  1  0  0  0  0
 21 25  2  0  0  0  0
 21 32  1  0  0  0  0
 22 26  2  0  0  0  0
 22 35  1  0  0  0  0
 23 36  1  0  0  0  0
 23 37  1  0  0  0  0
 23 38  1  0  0  0  0
 24 39  1  0  0  0  0
 24 40  1  0  0  0  0
 24 41  1  0  0  0  0
 25 26  1  0  0  0  0
 25 42  1  0  0  0  0
M  END
> <PUBCHEM_COMPOUND_CID>
399491

> <PUBCHEM_CONFORMER_RMSD>
0.6

> <PUBCHEM_CONFORMER_DIVERSEORDER>
4
53
48
13
32
49
34
9
16
18
25
51
42
46
8
5
47
54
45
23
50
12
41
22
27
7
52
20
35
28
15
40
1
37
43
26
38
36
6
14
44
3
10
39
33
11
30
2
29
31
17
24
21
19

> <PUBCHEM_MMFF94_PARTIAL_CHARGES>
36
1 -0.16
10 0.08
11 0.28
12 0.08
13 -0.15
14 0.05
15 0.47
16 -0.14
17 0.03
18 -0.29
19 -0.28
2 -0.53
20 0.08
21 -0.15
22 -0.15
23 0.14
24 0.14
25 -0.15
26 0.08
29 0.15
3 -0.53
30 0.15
31 0.15
32 0.15
33 0.45
34 0.45
35 0.15
4 -0.57
42 0.15
43 0.45
44 0.45
5 -0.53
6 -0.53
7 -0.14
8 0.09
9 0.08

> <PUBCHEM_EFFECTIVE_ROTOR_COUNT>
3

> <PUBCHEM_PHARMACOPHORE_FEATURES>
10
1 1 acceptor
1 2 donor
1 3 donor
1 4 acceptor
1 5 donor
1 6 donor
3 19 23 24 hydrophobe
6 1 8 9 14 15 16 rings
6 17 20 21 22 25 26 rings
6 7 8 9 10 12 13 rings

> <PUBCHEM_HEAVY_ATOM_COUNT>
26

> <PUBCHEM_ATOM_DEF_STEREO_COUNT>
0

> <PUBCHEM_ATOM_UDEF_STEREO_COUNT>
0

> <PUBCHEM_BOND_DEF_STEREO_COUNT>
0

> <PUBCHEM_BOND_UDEF_STEREO_COUNT>
0

> <PUBCHEM_ISOTOPIC_ATOM_COUNT>
0

> <PUBCHEM_COMPONENT_COUNT>
1

> <PUBCHEM_CACTVS_TAUTO_COUNT>
171

> <PUBCHEM_CONFORMER_ID>
0006188300000004

> <PUBCHEM_MMFF94_ENERGY>
73.8456

> <PUBCHEM_FEATURE_SELFOVERLAP>
50.775

> <PUBCHEM_SHAPE_FINGERPRINT>
11646440 116 18059859467020923931
11963148 33 18408315588374819635
12035758 1 18060144245165283391
12166972 35 17676490549147582316
12236239 1 17967533446062529228
12553582 1 18340193146361718959
12788726 201 18264198128397349464
13140716 1 18199183078518840979
13257819 101 12966857788982283041
13540713 5 17913487124077440909
13668630 136 17458344100970801538
13685833 64 18410855477308076649
13782708 43 17458059374387291387
13862211 1 18411978083571147671
14251764 18 18130223856117606054
15348495 7 16916496072934903587
15537594 2 18409161108489320466
17492 89 18046058264458648810
1813 80 18114186323796660484
18335252 98 16951139485254935745
19141452 34 17489302022701485343
200 152 17313098610751833628
20028762 73 18059009601074941399
21033648 29 16199854142600582490
21150785 3 14634873050154997370
21267235 1 18410013221816431434
21298829 104 9583249352949026611
21403212 168 17988928843397030531
21637258 2 17023176141617387689
21781051 124 18189354457831607226
21792934 111 18341321241166350265
21792961 116 18114736036992859735
221357 26 14706922934995589830
22182313 1 18058456396254069461
2297311 6 18343302531539601804
23522609 53 18118716333563698709
23557571 272 17988642948508907060
23559900 14 18271512187626120336
23569914 152 12545414977581609107
23569943 247 17344920606984118263
23845131 108 17052476790584500681
2838139 119 13326850016144971883
3004659 81 18114177536815493414
312425 54 16630807707589692103
3178227 256 18336840766243716571
335352 9 18341887494429254589
3383291 50 18408882953786340547
3411729 13 17986101049582917480
34797466 226 17989212564784523348
351380 3 18333445439402418666
465052 167 18260835911833313499
469060 322 18269852942511399585
5104073 3 18058164110670529867
5385378 56 17632024048115273679
54039377 194 18333735693804257950
636775 8 18041288703228870506
7495541 125 18113621222328269885
8863177 126 18042131032330656163
999808 66 18041003942691518187

> <PUBCHEM_SHAPE_MULTIPOLES>
499.85
17.27
2.04
1.36
0.56
1.26
-0.26
-9.93
-5.44
1.13
-0.03
0.01
-0.38
-0.51

> <PUBCHEM_SHAPE_SELFOVERLAP>
1095.523

> <PUBCHEM_SHAPE_VOLUME>
269.7

> <PUBCHEM_COORDINATE_TYPE>
2
5
10

$$$$
