125181696
  -OEChem-09132004413D

 49 50  0     0  0  0  0  0  0999 V2000
   -1.9291   -0.5114   -1.2373 O   0  0  0  0  0  0  0  0  0  0  0  0
   -0.0862   -1.8851    0.6778 O   0  0  0  0  0  0  0  0  0  0  0  0
   -2.5711    2.4439   -0.6732 O   0  0  0  0  0  0  0  0  0  0  0  0
   -4.7959   -2.2158    0.0715 O   0  0  0  0  0  0  0  0  0  0  0  0
   -3.6436   -2.4526   -1.8719 O   0  0  0  0  0  0  0  0  0  0  0  0
   -2.9390    1.9798    1.5577 O   0  0  0  0  0  0  0  0  0  0  0  0
   -1.6912   -3.4747    1.1392 O   0  0  0  0  0  0  0  0  0  0  0  0
    3.6151    2.3230    0.3137 O   0  0  0  0  0  0  0  0  0  0  0  0
    5.8741   -0.5647   -0.7343 O   0  0  0  0  0  0  0  0  0  0  0  0
   -2.9481   -0.7456   -0.2659 C   0  0  0  0  0  0  0  0  0  0  0  0
   -3.8218    0.5153   -0.1522 C   0  0  0  0  0  0  0  0  0  0  0  0
   -2.2702   -1.1081    1.0664 C   0  0  0  0  0  0  0  0  0  0  0  0
   -3.8053   -1.8899   -0.7975 C   0  0  0  0  0  0  0  0  0  0  0  0
   -1.3472   -2.3106    0.9865 C   0  0  0  0  0  0  0  0  0  0  0  0
   -3.0624    1.7143    0.3690 C   0  0  0  0  0  0  0  0  0  0  0  0
   -1.8484    3.6248   -0.3117 C   0  0  0  0  0  0  0  0  0  0  0  0
    0.8932   -2.9176    0.5270 C   0  0  0  0  0  0  0  0  0  0  0  0
   -0.3976    3.2797   -0.1454 C   0  0  0  0  0  0  0  0  0  0  0  0
    2.2157   -2.2932    0.1916 C   0  0  0  0  0  0  0  0  0  0  0  0
    0.2332    3.4881    1.0812 C   0  0  0  0  0  0  0  0  0  0  0  0
    2.4474   -1.7954   -1.0907 C   0  0  0  0  0  0  0  0  0  0  0  0
    3.2136   -2.2101    1.1627 C   0  0  0  0  0  0  0  0  0  0  0  0
    0.3201    2.7497   -1.2176 C   0  0  0  0  0  0  0  0  0  0  0  0
    3.6769   -1.2148   -1.4020 C   0  0  0  0  0  0  0  0  0  0  0  0
    1.5818    3.1669    1.2354 C   0  0  0  0  0  0  0  0  0  0  0  0
    4.4432   -1.6296    0.8515 C   0  0  0  0  0  0  0  0  0  0  0  0
    1.6686    2.4287   -1.0635 C   0  0  0  0  0  0  0  0  0  0  0  0
    4.6747   -1.1320   -0.4308 C   0  0  0  0  0  0  0  0  0  0  0  0
    2.2995    2.6372    0.1629 C   0  0  0  0  0  0  0  0  0  0  0  0
   -4.6755    0.3556    0.5181 H   0  0  0  0  0  0  0  0  0  0  0  0
   -4.2519    0.7779   -1.1277 H   0  0  0  0  0  0  0  0  0  0  0  0
   -3.0121   -1.3178    1.8467 H   0  0  0  0  0  0  0  0  0  0  0  0
   -1.6620   -0.2774    1.4451 H   0  0  0  0  0  0  0  0  0  0  0  0
   -1.2744    0.0963   -0.8534 H   0  0  0  0  0  0  0  0  0  0  0  0
    0.5935   -3.6001   -0.2781 H   0  0  0  0  0  0  0  0  0  0  0  0
   -2.2747    4.1023    0.5790 H   0  0  0  0  0  0  0  0  0  0  0  0
   -1.9578    4.3456   -1.1302 H   0  0  0  0  0  0  0  0  0  0  0  0
    0.9620   -3.4955    1.4568 H   0  0  0  0  0  0  0  0  0  0  0  0
   -5.3528   -2.9490   -0.2669 H   0  0  0  0  0  0  0  0  0  0  0  0
    1.6760   -1.8527   -1.8542 H   0  0  0  0  0  0  0  0  0  0  0  0
   -0.3141    3.8989    1.9253 H   0  0  0  0  0  0  0  0  0  0  0  0
    3.0461   -2.5916    2.1664 H   0  0  0  0  0  0  0  0  0  0  0  0
   -0.1602    2.5833   -2.1782 H   0  0  0  0  0  0  0  0  0  0  0  0
    2.0676    3.3308    2.1933 H   0  0  0  0  0  0  0  0  0  0  0  0
    3.8507   -0.8269   -2.4019 H   0  0  0  0  0  0  0  0  0  0  0  0
    2.2165    2.0158   -1.9063 H   0  0  0  0  0  0  0  0  0  0  0  0
    5.2120   -1.5701    1.6172 H   0  0  0  0  0  0  0  0  0  0  0  0
    6.4430   -0.5900    0.0542 H   0  0  0  0  0  0  0  0  0  0  0  0
    3.9527    1.9688   -0.5269 H   0  0  0  0  0  0  0  0  0  0  0  0
  1 10  1  0  0  0  0
  1 34  1  0  0  0  0
  2 14  1  0  0  0  0
  2 17  1  0  0  0  0
  3 15  1  0  0  0  0
  3 16  1  0  0  0  0
  4 13  1  0  0  0  0
  4 39  1  0  0  0  0
  5 13  2  0  0  0  0
  6 15  2  0  0  0  0
  7 14  2  0  0  0  0
  8 29  1  0  0  0  0
  8 49  1  0  0  0  0
  9 28  1  0  0  0  0
  9 48  1  0  0  0  0
 10 11  1  0  0  0  0
 10 12  1  0  0  0  0
 10 13  1  0  0  0  0
 11 15  1  0  0  0  0
 11 30  1  0  0  0  0
 11 31  1  0  0  0  0
 12 14  1  0  0  0  0
 12 32  1  0  0  0  0
 12 33  1  0  0  0  0
 16 18  1  0  0  0  0
 16 36  1  0  0  0  0
 16 37  1  0  0  0  0
 17 19  1  0  0  0  0
 17 35  1  0  0  0  0
 17 38  1  0  0  0  0
 18 20  2  0  0  0  0
 18 23  1  0  0  0  0
 19 21  2  0  0  0  0
 19 22  1  0  0  0  0
 20 25  1  0  0  0  0
 20 41  1  0  0  0  0
 21 24  1  0  0  0  0
 21 40  1  0  0  0  0
 22 26  2  0  0  0  0
 22 42  1  0  0  0  0
 23 27  2  0  0  0  0
 23 43  1  0  0  0  0
 24 28  2  0  0  0  0
 24 45  1  0  0  0  0
 25 29  2  0  0  0  0
 25 44  1  0  0  0  0
 26 28  1  0  0  0  0
 26 47  1  0  0  0  0
 27 29  1  0  0  0  0
 27 46  1  0  0  0  0
M  END
> <PUBCHEM_COMPOUND_CID>
125181696

> <PUBCHEM_CONFORMER_RMSD>
1.2

> <PUBCHEM_CONFORMER_DIVERSEORDER>
1
42
121
44
100
94
101
105
23
67
26
5
97
73
11
119
68
117
34
96
60
123
52
35
83
59
95
82
107
77
89
104
63
17
66
19
106
84
39
74
98
90
120
75
49
51
86
113
114
57
32
25
53
99
69
7
111
36
37
92
55
47
8
76
102
10
14
91
48
118
41
103
28
61
30
110
12
70
112
78
20
71
79
9
13
65
93
24
108
50
54
122
85
115
21
38
81
88
80
45
27
87
18
31
6
46
22
29
72
40
43
58
62
64
109
116
33
4
15
3
2
56
16

> <PUBCHEM_MMFF94_PARTIAL_CHARGES>
41
1 -0.68
10 0.34
11 0.06
12 0.06
13 0.66
14 0.66
15 0.66
16 0.42
17 0.42
18 -0.14
19 -0.14
2 -0.43
20 -0.15
21 -0.15
22 -0.15
23 -0.15
24 -0.15
25 -0.15
26 -0.15
27 -0.15
28 0.08
29 0.08
3 -0.43
34 0.4
39 0.5
4 -0.65
40 0.15
41 0.15
42 0.15
43 0.15
44 0.15
45 0.15
46 0.15
47 0.15
48 0.45
49 0.45
5 -0.57
6 -0.57
7 -0.57
8 -0.53
9 -0.53

> <PUBCHEM_EFFECTIVE_ROTOR_COUNT>
11

> <PUBCHEM_PHARMACOPHORE_FEATURES>
11
1 1 acceptor
1 1 donor
1 4 acceptor
1 5 acceptor
1 6 acceptor
1 7 acceptor
1 8 donor
1 9 donor
3 4 5 13 anion
6 18 20 23 25 27 29 rings
6 19 21 22 24 26 28 rings

> <PUBCHEM_HEAVY_ATOM_COUNT>
29

> <PUBCHEM_ATOM_DEF_STEREO_COUNT>
0

> <PUBCHEM_ATOM_UDEF_STEREO_COUNT>
0

> <PUBCHEM_BOND_DEF_STEREO_COUNT>
0

> <PUBCHEM_BOND_UDEF_STEREO_COUNT>
0

> <PUBCHEM_ISOTOPIC_ATOM_COUNT>
0

> <PUBCHEM_COMPONENT_COUNT>
1

> <PUBCHEM_CACTVS_TAUTO_COUNT>
3

> <PUBCHEM_CONFORMER_ID>
07761F0000000001

> <PUBCHEM_MMFF94_ENERGY>
60.0256

> <PUBCHEM_FEATURE_SELFOVERLAP>
55.889

> <PUBCHEM_SHAPE_FINGERPRINT>
10871710 139 18264209102233760983
1100329 8 18338797797961990705
11513181 2 18201445779060127934
12156800 1 16449481657432470780
12788726 201 18194408796977768144
13122387 1 18265896847934105928
13402501 40 18338232769107014092
14081887 123 18124866859806068936
14117953 113 16749865820501304804
14251757 5 18335995168592203682
14765038 42 18055094085296205776
14790565 3 17331683448947644185
14931854 50 18264206898604445508
15297060 5 17049355242781298024
19319366 153 17680711419862977027
19930381 70 17977381969159857483
20764821 26 18262531380517827032
20775530 9 18411135870079817473
21344244 246 17764574805229813791
238918 7 17982436390085464528
25265897 201 17559138500525518863
3052486 1 18190448364979794698
3298306 158 17688866862562503175
35225 105 17469610602908900070
354706 35 16609967886393226373
392239 28 18339356350169354168
463206 1 18411426115332579296
469060 322 17826825562532021297

> <PUBCHEM_SHAPE_MULTIPOLES>
543.98
8.96
5.79
1.4
5.03
3.09
-0.11
-5.01
-1.42
-1.43
0.82
-0.02
-0.18
-0.46

> <PUBCHEM_SHAPE_SELFOVERLAP>
1149.468

> <PUBCHEM_SHAPE_VOLUME>
300.8

> <PUBCHEM_COORDINATE_TYPE>
2
5
10

$$$$
