23651847
  -OEChem-09132004503D

 31 32  0     0  0  0  0  0  0999 V2000
    0.0032    0.0000   -0.1036 S   0  0  0  0  0  0  0  0  0  0  0  0
   -6.4104   -0.0007    1.2589 O   0  0  0  0  0  0  0  0  0  0  0  0
    6.4129    0.0007    1.2564 O   0  0  0  0  0  0  0  0  0  0  0  0
   -1.3767    0.0002   -1.2887 C   0  0  0  0  0  0  0  0  0  0  0  0
    1.3649   -0.0003   -1.2914 C   0  0  0  0  0  0  0  0  0  0  0  0
   -2.7076    0.0005   -0.6164 C   0  0  0  0  0  0  0  0  0  0  0  0
    2.7079   -0.0006   -0.6148 C   0  0  0  0  0  0  0  0  0  0  0  0
   -3.3305    1.2083   -0.3016 C   0  0  0  0  0  0  0  0  0  0  0  0
    3.3311   -1.2084   -0.3007 C   0  0  0  0  0  0  0  0  0  0  0  0
   -3.3291   -1.2078   -0.3008 C   0  0  0  0  0  0  0  0  0  0  0  0
    3.3297    1.2077   -0.3000 C   0  0  0  0  0  0  0  0  0  0  0  0
   -4.5747    1.2080    0.3286 C   0  0  0  0  0  0  0  0  0  0  0  0
    4.5761   -1.2079    0.3282 C   0  0  0  0  0  0  0  0  0  0  0  0
   -4.5735   -1.2082    0.3295 C   0  0  0  0  0  0  0  0  0  0  0  0
    4.5748    1.2082    0.3289 C   0  0  0  0  0  0  0  0  0  0  0  0
   -5.1961   -0.0002    0.6443 C   0  0  0  0  0  0  0  0  0  0  0  0
    5.1979    0.0004    0.6431 C   0  0  0  0  0  0  0  0  0  0  0  0
   -1.2879   -0.8787   -1.9380 H   0  0  0  0  0  0  0  0  0  0  0  0
   -1.2876    0.8791   -1.9379 H   0  0  0  0  0  0  0  0  0  0  0  0
    1.2806    0.8792   -1.9402 H   0  0  0  0  0  0  0  0  0  0  0  0
    1.2803   -0.8801   -1.9399 H   0  0  0  0  0  0  0  0  0  0  0  0
   -2.8566    2.1567   -0.5408 H   0  0  0  0  0  0  0  0  0  0  0  0
    2.8567   -2.1566   -0.5395 H   0  0  0  0  0  0  0  0  0  0  0  0
   -2.8542   -2.1558   -0.5393 H   0  0  0  0  0  0  0  0  0  0  0  0
    2.8543    2.1556   -0.5384 H   0  0  0  0  0  0  0  0  0  0  0  0
   -5.0548    2.1520    0.5715 H   0  0  0  0  0  0  0  0  0  0  0  0
    5.0565   -2.1519    0.5707 H   0  0  0  0  0  0  0  0  0  0  0  0
   -5.0471   -2.1561    0.5703 H   0  0  0  0  0  0  0  0  0  0  0  0
    5.0487    2.1562    0.5691 H   0  0  0  0  0  0  0  0  0  0  0  0
   -6.6911   -0.9210    1.4016 H   0  0  0  0  0  0  0  0  0  0  0  0
    6.6937    0.9210    1.3987 H   0  0  0  0  0  0  0  0  0  0  0  0
  1  4  1  0  0  0  0
  1  5  1  0  0  0  0
  2 16  1  0  0  0  0
  2 30  1  0  0  0  0
  3 17  1  0  0  0  0
  3 31  1  0  0  0  0
  4  6  1  0  0  0  0
  4 18  1  0  0  0  0
  4 19  1  0  0  0  0
  5  7  1  0  0  0  0
  5 20  1  0  0  0  0
  5 21  1  0  0  0  0
  6  8  2  0  0  0  0
  6 10  1  0  0  0  0
  7  9  2  0  0  0  0
  7 11  1  0  0  0  0
  8 12  1  0  0  0  0
  8 22  1  0  0  0  0
  9 13  1  0  0  0  0
  9 23  1  0  0  0  0
 10 14  2  0  0  0  0
 10 24  1  0  0  0  0
 11 15  2  0  0  0  0
 11 25  1  0  0  0  0
 12 16  2  0  0  0  0
 12 26  1  0  0  0  0
 13 17  2  0  0  0  0
 13 27  1  0  0  0  0
 14 16  1  0  0  0  0
 14 28  1  0  0  0  0
 15 17  1  0  0  0  0
 15 29  1  0  0  0  0
M  END
> <PUBCHEM_COMPOUND_CID>
23651847

> <PUBCHEM_CONFORMER_RMSD>
0.6

> <PUBCHEM_CONFORMER_DIVERSEORDER>
1
23
17
22
10
8
24
20
18
11
9
6
21
15
12
19
2
4
3
5
16
7
14
13

> <PUBCHEM_MMFF94_PARTIAL_CHARGES>
27
1 -0.46
10 -0.15
11 -0.15
12 -0.15
13 -0.15
14 -0.15
15 -0.15
16 0.08
17 0.08
2 -0.53
22 0.15
23 0.15
24 0.15
25 0.15
26 0.15
27 0.15
28 0.15
29 0.15
3 -0.53
30 0.45
31 0.45
4 0.37
5 0.37
6 -0.14
7 -0.14
8 -0.15
9 -0.15

> <PUBCHEM_EFFECTIVE_ROTOR_COUNT>
4

> <PUBCHEM_PHARMACOPHORE_FEATURES>
4
1 2 donor
1 3 donor
6 6 8 10 12 14 16 rings
6 7 9 11 13 15 17 rings

> <PUBCHEM_HEAVY_ATOM_COUNT>
17

> <PUBCHEM_ATOM_DEF_STEREO_COUNT>
0

> <PUBCHEM_ATOM_UDEF_STEREO_COUNT>
0

> <PUBCHEM_BOND_DEF_STEREO_COUNT>
0

> <PUBCHEM_BOND_UDEF_STEREO_COUNT>
0

> <PUBCHEM_ISOTOPIC_ATOM_COUNT>
0

> <PUBCHEM_COMPONENT_COUNT>
1

> <PUBCHEM_CACTVS_TAUTO_COUNT>
3

> <PUBCHEM_CONFORMER_ID>
0168E60700000001

> <PUBCHEM_MMFF94_ENERGY>
40.6222

> <PUBCHEM_FEATURE_SELFOVERLAP>
20.297

> <PUBCHEM_SHAPE_FINGERPRINT>
10354089 29 18272369776588439620
11089746 13 12967126103989164126
117890 112 17060622183006630299
12107183 9 17690280413102080658
12596602 18 18411138030326814809
12616971 3 18336545005483001988
13167823 11 18334011692022303014
13533116 47 17775008930111817886
13668630 136 14201399378153929873
13675066 3 18410856533869986358
13862211 1 15719111357434914283
1420 363 16732703852318598234
14251764 18 18410856598294495286
14341114 176 18413110537392316628
14528608 73 10735872872391781380
14849402 71 18263643043289442276
15048467 5 15770057228655161217
15188451 53 17822008757194723595
15348495 7 18338517542164759009
15716309 27 17530400633760994698
15788980 27 16950277412267241911
17834076 25 14908180849956582902
17844677 252 15719393927607180567
17870717 6 11025797592057461713
1813 80 16660370255076646638
18222031 100 14851607695342087391
200 152 13767922429704952549
20281389 69 16702302334319924761
20369508 70 13767926845258322302
21150785 3 12391508685746978817
22061861 79 12324240563795043418
22289505 5 11167943559129519914
22646028 1 15719111357361061333
23402539 116 16225761900498737605
23402655 69 10519989279274434988
23559900 14 17986417549315690455
26918003 58 18408600361906284804
2767999 5 15697998530837018361
29717793 49 12540692600841217282
300161 21 13686296863727758460
312425 54 18334299738662980523
34797466 226 10737296722490677738
351380 3 15719110262181323896
42 15 18260267442857388678
4214541 1 18408603643398585525
465052 167 15213027046001507394
5104073 3 18338517413315740208
542803 24 17489869340699728812
5924683 9 18271239547313001655
960060 61 9583522027426237148

> <PUBCHEM_SHAPE_MULTIPOLES>
341.96
16.21
1.31
1.09
0.03
0
0.06
0
-7.24
0
-0.03
0
0
0

> <PUBCHEM_SHAPE_SELFOVERLAP>
710.43

> <PUBCHEM_SHAPE_VOLUME>
196

> <PUBCHEM_COORDINATE_TYPE>
2
5
10

$$$$
