122221900
  -OEChem-09132004343D

 59 60  0     1  0  0  0  0  0999 V2000
    4.3027    0.3993    0.7927 O   0  0  0  0  0  0  0  0  0  0  0  0
    6.5565   -2.4531    0.3476 O   0  0  0  0  0  0  0  0  0  0  0  0
    6.7700   -1.0334   -2.1613 O   0  0  0  0  0  0  0  0  0  0  0  0
    3.1665    1.7673   -0.7177 O   0  0  0  0  0  0  0  0  0  0  0  0
    4.1991    0.2273   -2.8554 O   0  0  0  0  0  0  0  0  0  0  0  0
    4.1940   -0.6215    3.3426 O   0  0  0  0  0  0  0  0  0  0  0  0
   -3.0103    1.2864    0.2183 O   0  0  0  0  0  0  0  0  0  0  0  0
   -6.3520    0.4559   -0.4619 O   0  0  0  0  0  0  0  0  0  0  0  0
   -4.9357    2.1844    1.1084 O   0  0  0  0  0  0  0  0  0  0  0  0
   -3.3098   -2.5159    0.8529 O   0  0  0  0  0  0  0  0  0  0  0  0
   -4.0099   -2.4387   -2.6163 O   0  0  0  0  0  0  0  0  0  0  0  0
   -3.1761   -0.8361    2.4305 O   0  0  0  0  0  0  0  0  0  0  0  0
   -6.1312   -1.9518   -1.9761 O   0  0  0  0  0  0  0  0  0  0  0  0
    6.0478   -1.1417    0.1180 C   0  0  1  0  0  0  0  0  0  0  0  0
    5.6019   -1.0204   -1.3393 C   0  0  1  0  0  0  0  0  0  0  0  0
    4.8768   -0.8797    1.0679 C   0  0  1  0  0  0  0  0  0  0  0  0
    4.8280    0.2767   -1.5750 C   0  0  2  0  0  0  0  0  0  0  0  0
    3.7438    0.4776   -0.5164 C   0  0  1  0  0  0  0  0  0  0  0  0
    5.3222   -0.8797    2.5269 C   0  0  0  0  0  0  0  0  0  0  0  0
    1.8589    1.9210   -0.3731 C   0  0  0  0  0  0  0  0  0  0  0  0
   -5.0284    0.0668   -0.0969 C   0  0  1  0  0  0  0  0  0  0  0  0
    1.3165    1.1598    0.6624 C   0  0  0  0  0  0  0  0  0  0  0  0
    1.0609    2.8389   -1.0561 C   0  0  0  0  0  0  0  0  0  0  0  0
   -0.8219    2.2346    0.3321 C   0  0  0  0  0  0  0  0  0  0  0  0
   -0.0239    1.3167    1.0149 C   0  0  0  0  0  0  0  0  0  0  0  0
   -0.2795    2.9956   -0.7035 C   0  0  0  0  0  0  0  0  0  0  0  0
   -5.1172   -1.0101    0.9987 C   0  0  0  0  0  0  0  0  0  0  0  0
   -4.3106   -0.4426   -1.3593 C   0  0  0  0  0  0  0  0  0  0  0  0
   -2.2640    2.4035    0.7109 C   0  0  0  0  0  0  0  0  0  0  0  0
   -4.3486    1.3044    0.4905 C   0  0  0  0  0  0  0  0  0  0  0  0
   -3.7644   -1.4244    1.5323 C   0  0  0  0  0  0  0  0  0  0  0  0
   -4.9409   -1.6719   -1.9887 C   0  0  0  0  0  0  0  0  0  0  0  0
   -2.0210   -2.9953    1.2492 C   0  0  0  0  0  0  0  0  0  0  0  0
    6.8640   -0.4355    0.3136 H   0  0  0  0  0  0  0  0  0  0  0  0
    5.0078   -1.8914   -1.6399 H   0  0  0  0  0  0  0  0  0  0  0  0
    4.0962   -1.6440    0.9523 H   0  0  0  0  0  0  0  0  0  0  0  0
    5.5113    1.1340   -1.5913 H   0  0  0  0  0  0  0  0  0  0  0  0
    2.9830   -0.3059   -0.6521 H   0  0  0  0  0  0  0  0  0  0  0  0
    6.0549   -0.0869    2.7110 H   0  0  0  0  0  0  0  0  0  0  0  0
    5.7516   -1.8437    2.8159 H   0  0  0  0  0  0  0  0  0  0  0  0
    5.8358   -3.0867    0.1901 H   0  0  0  0  0  0  0  0  0  0  0  0
    7.3116   -0.2596   -1.9296 H   0  0  0  0  0  0  0  0  0  0  0  0
    3.5893   -0.5301   -2.8635 H   0  0  0  0  0  0  0  0  0  0  0  0
    4.5007   -0.6217    4.2653 H   0  0  0  0  0  0  0  0  0  0  0  0
    1.8952    0.4477    1.2402 H   0  0  0  0  0  0  0  0  0  0  0  0
    1.4779    3.4337   -1.8642 H   0  0  0  0  0  0  0  0  0  0  0  0
   -5.6722   -1.8944    0.6645 H   0  0  0  0  0  0  0  0  0  0  0  0
   -5.6978   -0.6382    1.8541 H   0  0  0  0  0  0  0  0  0  0  0  0
   -3.2622   -0.6810   -1.1445 H   0  0  0  0  0  0  0  0  0  0  0  0
   -4.3171    0.3356   -2.1331 H   0  0  0  0  0  0  0  0  0  0  0  0
   -0.4364    0.7209    1.8250 H   0  0  0  0  0  0  0  0  0  0  0  0
   -0.8901    3.7129   -1.2455 H   0  0  0  0  0  0  0  0  0  0  0  0
   -2.3537    2.4586    1.8030 H   0  0  0  0  0  0  0  0  0  0  0  0
   -2.6700    3.3303    0.2874 H   0  0  0  0  0  0  0  0  0  0  0  0
   -6.8351    0.6879    0.3496 H   0  0  0  0  0  0  0  0  0  0  0  0
   -4.4112   -3.2288   -3.0370 H   0  0  0  0  0  0  0  0  0  0  0  0
   -1.7758   -3.8623    0.6301 H   0  0  0  0  0  0  0  0  0  0  0  0
   -2.0384   -3.3057    2.2982 H   0  0  0  0  0  0  0  0  0  0  0  0
   -1.2637   -2.2223    1.0866 H   0  0  0  0  0  0  0  0  0  0  0  0
  1 16  1  0  0  0  0
  1 18  1  0  0  0  0
  2 14  1  0  0  0  0
  2 41  1  0  0  0  0
  3 15  1  0  0  0  0
  3 42  1  0  0  0  0
  4 18  1  0  0  0  0
  4 20  1  0  0  0  0
  5 17  1  0  0  0  0
  5 43  1  0  0  0  0
  6 19  1  0  0  0  0
  6 44  1  0  0  0  0
  7 29  1  0  0  0  0
  7 30  1  0  0  0  0
  8 21  1  0  0  0  0
  8 55  1  0  0  0  0
  9 30  2  0  0  0  0
 10 31  1  0  0  0  0
 10 33  1  0  0  0  0
 11 32  1  0  0  0  0
 11 56  1  0  0  0  0
 12 31  2  0  0  0  0
 13 32  2  0  0  0  0
 14 15  1  0  0  0  0
 14 16  1  0  0  0  0
 14 34  1  0  0  0  0
 15 17  1  0  0  0  0
 15 35  1  0  0  0  0
 16 19  1  0  0  0  0
 16 36  1  0  0  0  0
 17 18  1  0  0  0  0
 17 37  1  0  0  0  0
 18 38  1  0  0  0  0
 19 39  1  0  0  0  0
 19 40  1  0  0  0  0
 20 22  2  0  0  0  0
 20 23  1  0  0  0  0
 21 27  1  0  0  0  0
 21 28  1  0  0  0  0
 21 30  1  0  0  0  0
 22 25  1  0  0  0  0
 22 45  1  0  0  0  0
 23 26  2  0  0  0  0
 23 46  1  0  0  0  0
 24 25  2  0  0  0  0
 24 26  1  0  0  0  0
 24 29  1  0  0  0  0
 25 51  1  0  0  0  0
 26 52  1  0  0  0  0
 27 31  1  0  0  0  0
 27 47  1  0  0  0  0
 27 48  1  0  0  0  0
 28 32  1  0  0  0  0
 28 49  1  0  0  0  0
 28 50  1  0  0  0  0
 29 53  1  0  0  0  0
 29 54  1  0  0  0  0
 33 57  1  0  0  0  0
 33 58  1  0  0  0  0
 33 59  1  0  0  0  0
M  END
> <PUBCHEM_COMPOUND_CID>
122221900

> <PUBCHEM_CONFORMER_RMSD>
1.2

> <PUBCHEM_CONFORMER_DIVERSEORDER>
74
65
9
99
79
69
81
109
91
97
31
94
101
32
40
102
87
41
110
4
46
16
104
63
98
80
24
7
75
39
106
57
95
15
105
84
34
103
45
72
11
22
56
52
62
113
10
29
93
83
20
17
73
82
112
76
59
89
48
54
12
37
44
21
86
68
3
66
100
55
6
33
42
64
51
36
60
49
35
26
47
70
92
90
1
53
43
88
13
107
67
5
50
38
58
27
78
23
14
61
85
18
71
8
111
19
25
108
28
2
30
77
96

> <PUBCHEM_MMFF94_PARTIAL_CHARGES>
43
1 -0.56
10 -0.43
11 -0.65
12 -0.57
13 -0.57
14 0.28
15 0.28
16 0.28
17 0.28
18 0.56
19 0.28
2 -0.68
20 0.08
21 0.34
22 -0.15
23 -0.15
24 -0.14
25 -0.15
26 -0.15
27 0.06
28 0.06
29 0.42
3 -0.68
30 0.66
31 0.66
32 0.66
33 0.28
4 -0.36
41 0.4
42 0.4
43 0.4
44 0.4
45 0.15
46 0.15
5 -0.68
51 0.15
52 0.15
55 0.4
56 0.5
6 -0.68
7 -0.43
8 -0.68
9 -0.57

> <PUBCHEM_EFFECTIVE_ROTOR_COUNT>
13.2

> <PUBCHEM_PHARMACOPHORE_FEATURES>
19
1 1 acceptor
1 11 acceptor
1 12 acceptor
1 13 acceptor
1 2 acceptor
1 2 donor
1 3 acceptor
1 3 donor
1 4 acceptor
1 5 acceptor
1 5 donor
1 6 acceptor
1 6 donor
1 8 acceptor
1 8 donor
1 9 acceptor
3 11 13 32 anion
6 1 14 15 16 17 18 rings
6 20 22 23 24 25 26 rings

> <PUBCHEM_HEAVY_ATOM_COUNT>
33

> <PUBCHEM_ATOM_DEF_STEREO_COUNT>
5

> <PUBCHEM_ATOM_UDEF_STEREO_COUNT>
1

> <PUBCHEM_BOND_DEF_STEREO_COUNT>
0

> <PUBCHEM_BOND_UDEF_STEREO_COUNT>
0

> <PUBCHEM_ISOTOPIC_ATOM_COUNT>
0

> <PUBCHEM_COMPONENT_COUNT>
1

> <PUBCHEM_CACTVS_TAUTO_COUNT>
1

> <PUBCHEM_CONFORMER_ID>
0748F54C0000004A

> <PUBCHEM_MMFF94_ENERGY>
84.3897

> <PUBCHEM_FEATURE_SELFOVERLAP>
96.565

> <PUBCHEM_SHAPE_FINGERPRINT>
10721379 63 12469180334823244832
11135609 149 15574978539473071160
11211813 140 17896859016003707130
12422481 6 17775567520361671708
12596602 18 14836121052901145101
13782708 43 17702951323420739478
14747281 78 15866577724815716679
15001296 14 18040714805313660352
15183329 4 17822014198369349744
15348495 7 16845567612929815144
18393751 57 11599732813708157309
19377110 9 12607399983856300160
19958102 18 17968093144261509591
20691028 202 8141821498982071287
21315763 87 17275100656425418478
21458453 9 17417808495941360948
21585480 29 16484976276457426550
21599406 157 16298393486798588354
23559900 14 18335705004602079385
3004659 81 17748829601198278448
312425 54 16845581889453678819
3383291 50 18342740737180822771
397830 11 17274809269049518888
559249 180 18340771451699572745
86090 222 17345214245697932246

> <PUBCHEM_SHAPE_MULTIPOLES>
602.82
18.21
3.31
2.57
8.67
0.41
-0.34
-11.02
-4.52
-1.78
0.11
1.14
-1.52
-2.24

> <PUBCHEM_SHAPE_SELFOVERLAP>
1253.132

> <PUBCHEM_SHAPE_VOLUME>
338.7

> <PUBCHEM_COORDINATE_TYPE>
2
5
10

$$$$
