91973797
  -OEChem-09132004303D

 56 57  0     1  0  0  0  0  0999 V2000
    4.5779    0.0865    0.8523 O   0  0  0  0  0  0  0  0  0  0  0  0
    6.7405   -2.8074    0.2506 O   0  0  0  0  0  0  0  0  0  0  0  0
    7.1763   -1.1505   -2.0777 O   0  0  0  0  0  0  0  0  0  0  0  0
    3.5998    1.6529   -0.5737 O   0  0  0  0  0  0  0  0  0  0  0  0
    4.7094    0.2927   -2.7932 O   0  0  0  0  0  0  0  0  0  0  0  0
    4.2598   -1.1831    3.2694 O   0  0  0  0  0  0  0  0  0  0  0  0
   -2.6397    1.3672   -0.0764 O   0  0  0  0  0  0  0  0  0  0  0  0
   -6.6480   -0.1007    0.7056 O   0  0  0  0  0  0  0  0  0  0  0  0
   -3.4895   -1.6545    1.3880 O   0  0  0  0  0  0  0  0  0  0  0  0
   -4.5914    2.2536    0.7798 O   0  0  0  0  0  0  0  0  0  0  0  0
   -5.0379   -0.6598    2.7059 O   0  0  0  0  0  0  0  0  0  0  0  0
   -6.2142   -2.9236   -2.5506 O   0  0  0  0  0  0  0  0  0  0  0  0
   -7.2717   -0.9912   -2.0109 O   0  0  0  0  0  0  0  0  0  0  0  0
    6.3010   -1.4571    0.1287 C   0  0  1  0  0  0  0  0  0  0  0  0
    5.9577   -1.1671   -1.3326 C   0  0  1  0  0  0  0  0  0  0  0  0
    5.0809   -1.2392    1.0267 C   0  0  1  0  0  0  0  0  0  0  0  0
    5.2536    0.1820   -1.4783 C   0  0  2  0  0  0  0  0  0  0  0  0
    4.1104    0.3240   -0.4735 C   0  0  1  0  0  0  0  0  0  0  0  0
    5.4284   -1.4088    2.5024 C   0  0  0  0  0  0  0  0  0  0  0  0
    2.2792    1.8314   -0.2963 C   0  0  0  0  0  0  0  0  0  0  0  0
    1.5656    2.8503   -0.9273 C   0  0  0  0  0  0  0  0  0  0  0  0
    1.6396    0.9946    0.6182 C   0  0  0  0  0  0  0  0  0  0  0  0
   -5.4120   -0.6911    0.2928 C   0  0  2  0  0  0  0  0  0  0  0  0
   -0.4276    2.1959    0.2710 C   0  0  0  0  0  0  0  0  0  0  0  0
   -4.6635    0.2871   -0.6268 C   0  0  0  0  0  0  0  0  0  0  0  0
    0.2121    3.0325   -0.6436 C   0  0  0  0  0  0  0  0  0  0  0  0
    0.2862    1.1769    0.9017 C   0  0  0  0  0  0  0  0  0  0  0  0
   -5.7493   -2.0247   -0.4011 C   0  0  0  0  0  0  0  0  0  0  0  0
   -1.8838    2.3922    0.5756 C   0  0  0  0  0  0  0  0  0  0  0  0
   -3.9887    1.4215    0.1141 C   0  0  0  0  0  0  0  0  0  0  0  0
   -4.6545   -0.9866    1.5889 C   0  0  0  0  0  0  0  0  0  0  0  0
   -6.5064   -1.8956   -1.7096 C   0  0  0  0  0  0  0  0  0  0  0  0
    7.1300   -0.8134    0.4473 H   0  0  0  0  0  0  0  0  0  0  0  0
    5.3505   -1.9743   -1.7589 H   0  0  0  0  0  0  0  0  0  0  0  0
    4.2798   -1.9507    0.7836 H   0  0  0  0  0  0  0  0  0  0  0  0
    5.9702    1.0037   -1.3625 H   0  0  0  0  0  0  0  0  0  0  0  0
    3.3297   -0.4054   -0.7374 H   0  0  0  0  0  0  0  0  0  0  0  0
    6.1783   -0.6739    2.8134 H   0  0  0  0  0  0  0  0  0  0  0  0
    5.7989   -2.4162    2.7147 H   0  0  0  0  0  0  0  0  0  0  0  0
    6.0071   -3.3873   -0.0168 H   0  0  0  0  0  0  0  0  0  0  0  0
    7.7318   -0.4306   -1.7332 H   0  0  0  0  0  0  0  0  0  0  0  0
    4.0718   -0.4308   -2.9183 H   0  0  0  0  0  0  0  0  0  0  0  0
    4.5045   -1.2917    4.2042 H   0  0  0  0  0  0  0  0  0  0  0  0
    2.0586    3.5044   -1.6412 H   0  0  0  0  0  0  0  0  0  0  0  0
    2.1500    0.2013    1.1529 H   0  0  0  0  0  0  0  0  0  0  0  0
   -3.8967   -0.2549   -1.1950 H   0  0  0  0  0  0  0  0  0  0  0  0
   -5.3360    0.7503   -1.3581 H   0  0  0  0  0  0  0  0  0  0  0  0
   -0.3320    3.8291   -1.1441 H   0  0  0  0  0  0  0  0  0  0  0  0
   -0.2024    0.5219    1.6185 H   0  0  0  0  0  0  0  0  0  0  0  0
   -4.8211   -2.5722   -0.6079 H   0  0  0  0  0  0  0  0  0  0  0  0
   -6.3658   -2.6509    0.2561 H   0  0  0  0  0  0  0  0  0  0  0  0
   -2.0435    2.3400    1.6598 H   0  0  0  0  0  0  0  0  0  0  0  0
   -2.2235    3.3754    0.2274 H   0  0  0  0  0  0  0  0  0  0  0  0
   -6.4533    0.7711    1.0898 H   0  0  0  0  0  0  0  0  0  0  0  0
   -3.0184   -1.8298    2.2304 H   0  0  0  0  0  0  0  0  0  0  0  0
   -6.6918   -2.8441   -3.4038 H   0  0  0  0  0  0  0  0  0  0  0  0
  1 16  1  0  0  0  0
  1 18  1  0  0  0  0
  2 14  1  0  0  0  0
  2 40  1  0  0  0  0
  3 15  1  0  0  0  0
  3 41  1  0  0  0  0
  4 18  1  0  0  0  0
  4 20  1  0  0  0  0
  5 17  1  0  0  0  0
  5 42  1  0  0  0  0
  6 19  1  0  0  0  0
  6 43  1  0  0  0  0
  7 29  1  0  0  0  0
  7 30  1  0  0  0  0
  8 23  1  0  0  0  0
  8 54  1  0  0  0  0
  9 31  1  0  0  0  0
  9 55  1  0  0  0  0
 10 30  2  0  0  0  0
 11 31  2  0  0  0  0
 12 32  1  0  0  0  0
 12 56  1  0  0  0  0
 13 32  2  0  0  0  0
 14 15  1  0  0  0  0
 14 16  1  0  0  0  0
 14 33  1  0  0  0  0
 15 17  1  0  0  0  0
 15 34  1  0  0  0  0
 16 19  1  0  0  0  0
 16 35  1  0  0  0  0
 17 18  1  0  0  0  0
 17 36  1  0  0  0  0
 18 37  1  0  0  0  0
 19 38  1  0  0  0  0
 19 39  1  0  0  0  0
 20 21  2  0  0  0  0
 20 22  1  0  0  0  0
 21 26  1  0  0  0  0
 21 44  1  0  0  0  0
 22 27  2  0  0  0  0
 22 45  1  0  0  0  0
 23 25  1  0  0  0  0
 23 28  1  0  0  0  0
 23 31  1  0  0  0  0
 24 26  2  0  0  0  0
 24 27  1  0  0  0  0
 24 29  1  0  0  0  0
 25 30  1  0  0  0  0
 25 46  1  0  0  0  0
 25 47  1  0  0  0  0
 26 48  1  0  0  0  0
 27 49  1  0  0  0  0
 28 32  1  0  0  0  0
 28 50  1  0  0  0  0
 28 51  1  0  0  0  0
 29 52  1  0  0  0  0
 29 53  1  0  0  0  0
M  END
> <PUBCHEM_COMPOUND_CID>
91973797

> <PUBCHEM_CONFORMER_RMSD>
1.2

> <PUBCHEM_CONFORMER_DIVERSEORDER>
1
108
67
82
117
83
3
59
76
74
103
66
36
38
30
10
49
2
34
14
79
106
112
60
48
47
118
58
92
25
35
42
11
51
61
50
73
102
68
109
15
71
65
24
54
113
32
115
114
110
75
33
19
70
84
94
62
31
39
89
87
4
101
52
78
80
95
23
13
81
55
120
40
98
107
111
18
116
56
29
26
27
77
99
6
88
96
45
97
37
90
21
104
91
7
69
46
8
119
5
86
53
85
41
12
28
9
93
22
105
64
57
20
17
100
72
43
63
16
44

> <PUBCHEM_MMFF94_PARTIAL_CHARGES>
43
1 -0.56
10 -0.57
11 -0.57
12 -0.65
13 -0.57
14 0.28
15 0.28
16 0.28
17 0.28
18 0.56
19 0.28
2 -0.68
20 0.08
21 -0.15
22 -0.15
23 0.34
24 -0.14
25 0.06
26 -0.15
27 -0.15
28 0.06
29 0.42
3 -0.68
30 0.66
31 0.66
32 0.66
4 -0.36
40 0.4
41 0.4
42 0.4
43 0.4
44 0.15
45 0.15
48 0.15
49 0.15
5 -0.68
54 0.4
55 0.5
56 0.5
6 -0.68
7 -0.43
8 -0.68
9 -0.65

> <PUBCHEM_EFFECTIVE_ROTOR_COUNT>
12.2

> <PUBCHEM_PHARMACOPHORE_FEATURES>
21
1 1 acceptor
1 10 acceptor
1 11 acceptor
1 12 acceptor
1 13 acceptor
1 2 acceptor
1 2 donor
1 3 acceptor
1 3 donor
1 4 acceptor
1 5 acceptor
1 5 donor
1 6 acceptor
1 6 donor
1 8 acceptor
1 8 donor
1 9 acceptor
3 12 13 32 anion
3 9 11 31 anion
6 1 14 15 16 17 18 rings
6 20 21 22 24 26 27 rings

> <PUBCHEM_HEAVY_ATOM_COUNT>
32

> <PUBCHEM_ATOM_DEF_STEREO_COUNT>
5

> <PUBCHEM_ATOM_UDEF_STEREO_COUNT>
1

> <PUBCHEM_BOND_DEF_STEREO_COUNT>
0

> <PUBCHEM_BOND_UDEF_STEREO_COUNT>
0

> <PUBCHEM_ISOTOPIC_ATOM_COUNT>
0

> <PUBCHEM_COMPONENT_COUNT>
1

> <PUBCHEM_CACTVS_TAUTO_COUNT>
4

> <PUBCHEM_CONFORMER_ID>
057B68A500000001

> <PUBCHEM_MMFF94_ENERGY>
79.7078

> <PUBCHEM_FEATURE_SELFOVERLAP>
106.783

> <PUBCHEM_SHAPE_FINGERPRINT>
10 15 13039189208348819945
10622 236 16880460486273758752
11963148 33 18268429040942169062
12422481 6 17775006756451690868
12596602 18 15769779061188630579
12988421 55 10303821964950048061
13627167 48 13768750289194261343
13782708 43 18060134340717575569
14931854 50 17967245404239163059
15183329 4 17603590716043257450
15188451 53 16845291705185430741
15519825 34 15697422443206497439
16989378 47 18186242839908351924
18393751 57 10951781806935019949
19841028 212 18198054975584387375
19958102 18 17749385992351516665
20028762 73 18273496771332576894
20691028 202 8574444144503149999
20775438 99 18118116111861924744
21033648 29 12678923207497070393
21315764 119 16443337676882756847
21585483 132 18336815485592140311
21599406 157 16226053326793756427
23522609 53 18048636713536293940
23559900 14 17969501683851892185
23569914 152 14638200060476325915
24983565 74 18052536870675346535
3004659 81 17821450136689363848
312425 54 16773809060495730787
397830 11 17418082231065556752
406291 66 18059569261241559263
5718773 13 18059850714589750727
5874358 3 18115848764277899010
59682541 52 15864064343823341954
6712543 237 16200154313854308599
86090 222 17273999977141799070

> <PUBCHEM_SHAPE_MULTIPOLES>
582.24
22.47
3.25
2.43
5.23
0.88
-0.22
-19.73
6.42
0.72
0.47
-0.76
-1.74
-3.13

> <PUBCHEM_SHAPE_SELFOVERLAP>
1213.252

> <PUBCHEM_SHAPE_VOLUME>
326.4

> <PUBCHEM_COORDINATE_TYPE>
2
5
10

$$$$
