636636
  -OEChem-09132003403D

 45 47  0     0  0  0  0  0  0999 V2000
    1.9636    1.4845    0.4727 O   0  0  0  0  0  0  0  0  0  0  0  0
   -3.9654    2.2388   -1.3906 O   0  0  0  0  0  0  0  0  0  0  0  0
   -3.6808   -4.5756   -0.6033 O   0  0  0  0  0  0  0  0  0  0  0  0
    6.3098   -2.7316   -1.0840 O   0  0  0  0  0  0  0  0  0  0  0  0
   -2.4562    1.6392    0.3713 C   0  0  0  0  0  0  0  0  0  0  0  0
   -3.5343    0.8172    1.0486 C   0  0  0  0  0  0  0  0  0  0  0  0
   -0.2035    2.4571    0.3528 C   0  0  0  0  0  0  0  0  0  0  0  0
   -1.2066    1.7040    0.9627 C   0  0  0  0  0  0  0  0  0  0  0  0
   -3.5730   -0.6079    0.6113 C   0  0  0  0  0  0  0  0  0  0  0  0
   -2.7347    2.3031   -0.8100 C   0  0  0  0  0  0  0  0  0  0  0  0
    1.1501    2.5385    0.9734 C   0  0  0  0  0  0  0  0  0  0  0  0
   -0.4660    3.1331   -0.8387 C   0  0  0  0  0  0  0  0  0  0  0  0
   -1.7315    3.0560   -1.4201 C   0  0  0  0  0  0  0  0  0  0  0  0
    3.2672    1.5202    1.0366 C   0  0  0  0  0  0  0  0  0  0  0  0
   -2.8163   -1.5652    1.2872 C   0  0  0  0  0  0  0  0  0  0  0  0
   -4.3662   -0.9841   -0.4726 C   0  0  0  0  0  0  0  0  0  0  0  0
    4.0759    0.3892    0.4727 C   0  0  0  0  0  0  0  0  0  0  0  0
   -2.8529   -2.8985    0.8791 C   0  0  0  0  0  0  0  0  0  0  0  0
   -4.4028   -2.3174   -0.8807 C   0  0  0  0  0  0  0  0  0  0  0  0
   -3.6460   -3.2747   -0.2048 C   0  0  0  0  0  0  0  0  0  0  0  0
    4.8169    0.5847   -0.6872 C   0  0  0  0  0  0  0  0  0  0  0  0
    4.0774   -0.8436    1.1155 C   0  0  0  0  0  0  0  0  0  0  0  0
    5.5695   -0.4663   -1.2112 C   0  0  0  0  0  0  0  0  0  0  0  0
    4.8300   -1.8946    0.5915 C   0  0  0  0  0  0  0  0  0  0  0  0
    5.5759   -1.7060   -0.5720 C   0  0  0  0  0  0  0  0  0  0  0  0
   -4.5169    1.2851    0.8975 H   0  0  0  0  0  0  0  0  0  0  0  0
   -3.3956    0.8661    2.1382 H   0  0  0  0  0  0  0  0  0  0  0  0
   -1.0026    1.1757    1.8902 H   0  0  0  0  0  0  0  0  0  0  0  0
    1.6128    3.5072    0.7464 H   0  0  0  0  0  0  0  0  0  0  0  0
    1.0711    2.4627    2.0653 H   0  0  0  0  0  0  0  0  0  0  0  0
    0.3080    3.7211   -1.3249 H   0  0  0  0  0  0  0  0  0  0  0  0
   -1.9219    3.5874   -2.3489 H   0  0  0  0  0  0  0  0  0  0  0  0
    3.2071    1.4332    2.1288 H   0  0  0  0  0  0  0  0  0  0  0  0
    3.7495    2.4792    0.8089 H   0  0  0  0  0  0  0  0  0  0  0  0
   -2.1945   -1.2867    2.1339 H   0  0  0  0  0  0  0  0  0  0  0  0
   -4.9684   -0.2538   -1.0053 H   0  0  0  0  0  0  0  0  0  0  0  0
   -2.2587   -3.6345    1.4140 H   0  0  0  0  0  0  0  0  0  0  0  0
   -5.0239   -2.6047   -1.7247 H   0  0  0  0  0  0  0  0  0  0  0  0
    4.8172    1.5456   -1.1943 H   0  0  0  0  0  0  0  0  0  0  0  0
    3.4982   -1.0020    2.0209 H   0  0  0  0  0  0  0  0  0  0  0  0
   -3.9589    2.7661   -2.2078 H   0  0  0  0  0  0  0  0  0  0  0  0
    6.1459   -0.3066   -2.1185 H   0  0  0  0  0  0  0  0  0  0  0  0
    4.8306   -2.8582    1.0936 H   0  0  0  0  0  0  0  0  0  0  0  0
   -3.0985   -5.0979   -0.0252 H   0  0  0  0  0  0  0  0  0  0  0  0
    6.7613   -2.4248   -1.8890 H   0  0  0  0  0  0  0  0  0  0  0  0
  1 11  1  0  0  0  0
  1 14  1  0  0  0  0
  2 10  1  0  0  0  0
  2 41  1  0  0  0  0
  3 20  1  0  0  0  0
  3 44  1  0  0  0  0
  4 25  1  0  0  0  0
  4 45  1  0  0  0  0
  5  6  1  0  0  0  0
  5  8  1  0  0  0  0
  5 10  2  0  0  0  0
  6  9  1  0  0  0  0
  6 26  1  0  0  0  0
  6 27  1  0  0  0  0
  7  8  2  0  0  0  0
  7 11  1  0  0  0  0
  7 12  1  0  0  0  0
  8 28  1  0  0  0  0
  9 15  2  0  0  0  0
  9 16  1  0  0  0  0
 10 13  1  0  0  0  0
 11 29  1  0  0  0  0
 11 30  1  0  0  0  0
 12 13  2  0  0  0  0
 12 31  1  0  0  0  0
 13 32  1  0  0  0  0
 14 17  1  0  0  0  0
 14 33  1  0  0  0  0
 14 34  1  0  0  0  0
 15 18  1  0  0  0  0
 15 35  1  0  0  0  0
 16 19  2  0  0  0  0
 16 36  1  0  0  0  0
 17 21  2  0  0  0  0
 17 22  1  0  0  0  0
 18 20  2  0  0  0  0
 18 37  1  0  0  0  0
 19 20  1  0  0  0  0
 19 38  1  0  0  0  0
 21 23  1  0  0  0  0
 21 39  1  0  0  0  0
 22 24  2  0  0  0  0
 22 40  1  0  0  0  0
 23 25  2  0  0  0  0
 23 42  1  0  0  0  0
 24 25  1  0  0  0  0
 24 43  1  0  0  0  0
M  END
> <PUBCHEM_COMPOUND_CID>
636636

> <PUBCHEM_CONFORMER_RMSD>
0.8

> <PUBCHEM_CONFORMER_DIVERSEORDER>
5
93
100
99
27
33
14
144
104
40
142
8
88
28
109
95
127
53
119
98
123
19
110
140
87
50
114
103
118
3
139
10
45
126
94
20
106
102
68
137
4
44
85
129
30
113
49
73
111
143
131
81
124
25
121
48
26
125
47
32
61
2
117
43
116
141
112
134
91
136
66
132
78
38
101
135
77
41
75
22
70
105
97
59
17
133
15
16
72
83
6
9
82
122
90
63
74
37
92
13
42
80
84
128
34
138
29
56
35
65
64
58
18
7
39
54
107
55
69
62
12
52
79
120
67
71
24
86
46
23
108
21
60
11
57
36
51
130
89
31
96
1
115
76

> <PUBCHEM_MMFF94_PARTIAL_CHARGES>
39
1 -0.56
10 0.08
11 0.42
12 -0.15
13 -0.15
14 0.42
15 -0.15
16 -0.15
17 -0.14
18 -0.15
19 -0.15
2 -0.53
20 0.08
21 -0.15
22 -0.15
23 -0.15
24 -0.15
25 0.08
28 0.15
3 -0.53
31 0.15
32 0.15
35 0.15
36 0.15
37 0.15
38 0.15
39 0.15
4 -0.53
40 0.15
41 0.45
42 0.15
43 0.15
44 0.45
45 0.45
5 -0.14
6 0.29
7 -0.14
8 -0.15
9 -0.14

> <PUBCHEM_EFFECTIVE_ROTOR_COUNT>
6

> <PUBCHEM_PHARMACOPHORE_FEATURES>
7
1 1 acceptor
1 2 donor
1 3 donor
1 4 donor
6 17 21 22 23 24 25 rings
6 5 7 8 10 12 13 rings
6 9 15 16 18 19 20 rings

> <PUBCHEM_HEAVY_ATOM_COUNT>
25

> <PUBCHEM_ATOM_DEF_STEREO_COUNT>
0

> <PUBCHEM_ATOM_UDEF_STEREO_COUNT>
0

> <PUBCHEM_BOND_DEF_STEREO_COUNT>
0

> <PUBCHEM_BOND_UDEF_STEREO_COUNT>
0

> <PUBCHEM_ISOTOPIC_ATOM_COUNT>
0

> <PUBCHEM_COMPONENT_COUNT>
1

> <PUBCHEM_CACTVS_TAUTO_COUNT>
12

> <PUBCHEM_CONFORMER_ID>
0009B6DC00000005

> <PUBCHEM_MMFF94_ENERGY>
66.2689

> <PUBCHEM_FEATURE_SELFOVERLAP>
35.522

> <PUBCHEM_SHAPE_FINGERPRINT>
10042902 136 18340495581000588164
10928967 22 18335986393721168394
11069576 57 17546722016539908055
11186622 123 18334288773759264346
11285246 1 18116994592506084211
11477941 20 17168439168752341196
12596602 18 13973382631416982404
12643181 29 18266456508464655602
12969540 37 17980475990401192953
13561361 72 18343300375334696262
1361 87 18129388103401620076
13690498 29 18260836972880393148
13965767 371 12318644053873352809
14251757 5 18334581200617710466
14866123 147 18341899572167187873
14910302 57 18409156710548168016
14950920 106 16630530669308813250
15250474 111 18187920626302516714
17627616 140 17973159530771532738
19246450 95 11524894374226900710
20775530 9 18265053703014939995
21196832 93 18343030961280073022
21307412 95 18340200778761684853
21344244 181 18193808567262346629
23379529 103 18410855477561556940
23559900 14 18341040926036557385
26353 1 17023733662811963677
2838139 119 7853588884809545856
312425 54 17846787316340241904
4280585 95 18115853269265802728
44062 13 18336544923947415552
4435113 14 17773897315324192222
463206 1 18407763650653053427
484985 159 18129108835542584681
5081480 168 15937244668187730935
508706 21 18411137987483169334
56633871 153 18339933735392137707
613672 6 17973149923071323915

> <PUBCHEM_SHAPE_MULTIPOLES>
491.01
13.9
5.09
1.37
18.95
2.28
0.08
12.52
3.3
-5.08
1.25
0.02
-0.25
1.2

> <PUBCHEM_SHAPE_SELFOVERLAP>
1063.455

> <PUBCHEM_SHAPE_VOLUME>
268.8

> <PUBCHEM_COORDINATE_TYPE>
2
5
10

$$$$
