10557926
  -OEChem-09132003432D

126131  0     1  0  0  0  0  0999 V2000
    5.1350   -6.8096    0.0000 O   0  0  0  0  0  0  0  0  0  0  0  0
   13.7953    4.1904    0.0000 O   0  0  0  0  0  0  0  0  0  0  0  0
    6.5991    7.8506    0.0000 O   0  0  0  0  0  0  0  0  0  0  0  0
    3.4030   -8.8096    0.0000 O   0  0  0  0  0  0  0  0  0  0  0  0
    5.1350   -9.8096    0.0000 O   0  0  0  0  0  0  0  0  0  0  0  0
   14.6613    6.6904    0.0000 O   0  0  0  0  0  0  0  0  0  0  0  0
    8.5991    9.5827    0.0000 O   0  0  0  0  0  0  0  0  0  0  0  0
   16.3933    5.6904    0.0000 O   0  0  0  0  0  0  0  0  0  0  0  0
    9.5991    7.8506    0.0000 O   0  0  0  0  0  0  0  0  0  0  0  0
    6.8671   -6.8096    0.0000 O   0  0  0  0  0  0  0  0  0  0  0  0
   14.6613    2.6904    0.0000 O   0  0  0  0  0  0  0  0  0  0  0  0
    6.5991    6.1186    0.0000 O   0  0  0  0  0  0  0  0  0  0  0  0
    6.8671   -8.8096    0.0000 O   0  0  0  0  0  0  0  0  0  0  0  0
   16.3933    3.6904    0.0000 O   0  0  0  0  0  0  0  0  0  0  0  0
    8.5991    6.1186    0.0000 O   0  0  0  0  0  0  0  0  0  0  0  0
    2.5369   -7.3096    0.0000 O   0  0  0  0  0  0  0  0  0  0  0  0
   12.9292    6.6904    0.0000 O   0  0  0  0  0  0  0  0  0  0  0  0
    5.5991    9.5827    0.0000 O   0  0  0  0  0  0  0  0  0  0  0  0
    7.7331   -2.3096    0.0000 O   0  0  0  0  0  0  0  0  0  0  0  0
   11.1972   -0.3096    0.0000 O   0  0  0  0  0  0  0  0  0  0  0  0
    8.0991    1.7885    0.0000 O   0  0  0  0  0  0  0  0  0  0  0  0
    9.0991   -1.6756    0.0000 O   0  0  0  0  0  0  0  0  0  0  0  0
    6.8671   -0.8096    0.0000 O   0  0  0  0  0  0  0  0  0  0  0  0
   10.3312   -1.8096    0.0000 O   0  0  0  0  0  0  0  0  0  0  0  0
    9.5991    0.9224    0.0000 O   0  0  0  0  0  0  0  0  0  0  0  0
    4.2690   -8.3096    0.0000 C   0  0  1  0  0  0  0  0  0  0  0  0
    5.1350   -8.8096    0.0000 C   0  0  1  0  0  0  0  0  0  0  0  0
   14.6613    5.6904    0.0000 C   0  0  1  0  0  0  0  0  0  0  0  0
    8.0991    8.7167    0.0000 C   0  0  1  0  0  0  0  0  0  0  0  0
   15.5273    5.1904    0.0000 C   0  0  1  0  0  0  0  0  0  0  0  0
    8.5991    7.8506    0.0000 C   0  0  1  0  0  0  0  0  0  0  0  0
    4.2690   -7.3096    0.0000 C   0  0  1  0  0  0  0  0  0  0  0  0
   13.7953    5.1904    0.0000 C   0  0  1  0  0  0  0  0  0  0  0  0
    7.0991    8.7167    0.0000 C   0  0  1  0  0  0  0  0  0  0  0  0
    6.0010   -8.3096    0.0000 C   0  0  2  0  0  0  0  0  0  0  0  0
   15.5273    4.1904    0.0000 C   0  0  2  0  0  0  0  0  0  0  0  0
    8.0991    6.9846    0.0000 C   0  0  2  0  0  0  0  0  0  0  0  0
    6.0010   -7.3096    0.0000 C   0  0  1  0  0  0  0  0  0  0  0  0
   14.6613    3.6904    0.0000 C   0  0  1  0  0  0  0  0  0  0  0  0
    7.0991    6.9846    0.0000 C   0  0  1  0  0  0  0  0  0  0  0  0
    3.4030   -6.8096    0.0000 C   0  0  0  0  0  0  0  0  0  0  0  0
   12.9292    5.6904    0.0000 C   0  0  0  0  0  0  0  0  0  0  0  0
    6.5991    9.5827    0.0000 C   0  0  0  0  0  0  0  0  0  0  0  0
    6.8671   -5.8096    0.0000 C   0  0  0  0  0  0  0  0  0  0  0  0
   13.7953    2.1904    0.0000 C   0  0  0  0  0  0  0  0  0  0  0  0
    7.0991    5.2526    0.0000 C   0  0  0  0  0  0  0  0  0  0  0  0
    7.7331   -5.3096    0.0000 C   0  0  0  0  0  0  0  0  0  0  0  0
    6.0010   -5.3096    0.0000 C   0  0  0  0  0  0  0  0  0  0  0  0
   13.7953    1.1904    0.0000 C   0  0  0  0  0  0  0  0  0  0  0  0
    6.5991    4.3865    0.0000 C   0  0  0  0  0  0  0  0  0  0  0  0
   12.9292    2.6904    0.0000 C   0  0  0  0  0  0  0  0  0  0  0  0
    8.0991    5.2526    0.0000 C   0  0  0  0  0  0  0  0  0  0  0  0
    6.8671   -3.8096    0.0000 C   0  0  0  0  0  0  0  0  0  0  0  0
    7.7331   -4.3096    0.0000 C   0  0  0  0  0  0  0  0  0  0  0  0
    6.0010   -4.3096    0.0000 C   0  0  0  0  0  0  0  0  0  0  0  0
   12.9292    0.6904    0.0000 C   0  0  0  0  0  0  0  0  0  0  0  0
    7.0991    3.5205    0.0000 C   0  0  0  0  0  0  0  0  0  0  0  0
   12.0632    2.1904    0.0000 C   0  0  0  0  0  0  0  0  0  0  0  0
    8.5991    4.3865    0.0000 C   0  0  0  0  0  0  0  0  0  0  0  0
   12.0632    1.1904    0.0000 C   0  0  0  0  0  0  0  0  0  0  0  0
    8.0991    3.5205    0.0000 C   0  0  0  0  0  0  0  0  0  0  0  0
    8.5991   -0.8096    0.0000 C   0  0  0  0  0  0  0  0  0  0  0  0
    6.8671   -2.8096    0.0000 C   0  0  0  0  0  0  0  0  0  0  0  0
   11.1972    0.6904    0.0000 C   0  0  0  0  0  0  0  0  0  0  0  0
    8.5991    2.6545    0.0000 C   0  0  0  0  0  0  0  0  0  0  0  0
    9.4651   -0.3096    0.0000 C   0  0  0  0  0  0  0  0  0  0  0  0
    8.0991    0.0564    0.0000 C   0  0  0  0  0  0  0  0  0  0  0  0
    7.7331   -1.3096    0.0000 C   0  0  0  0  0  0  0  0  0  0  0  0
   10.3312   -0.8096    0.0000 C   0  0  0  0  0  0  0  0  0  0  0  0
    8.5991    0.9224    0.0000 C   0  0  0  0  0  0  0  0  0  0  0  0
    4.2690   -8.9296    0.0000 H   0  0  0  0  0  0  0  0  0  0  0  0
    4.5981   -9.1196    0.0000 H   0  0  0  0  0  0  0  0  0  0  0  0
   14.1244    6.0004    0.0000 H   0  0  0  0  0  0  0  0  0  0  0  0
    7.7891    9.2536    0.0000 H   0  0  0  0  0  0  0  0  0  0  0  0
   15.5273    5.8104    0.0000 H   0  0  0  0  0  0  0  0  0  0  0  0
    8.9091    8.3876    0.0000 H   0  0  0  0  0  0  0  0  0  0  0  0
    4.2690   -6.6896    0.0000 H   0  0  0  0  0  0  0  0  0  0  0  0
   13.2583    4.8804    0.0000 H   0  0  0  0  0  0  0  0  0  0  0  0
    6.4791    8.7167    0.0000 H   0  0  0  0  0  0  0  0  0  0  0  0
    6.0010   -8.9296    0.0000 H   0  0  0  0  0  0  0  0  0  0  0  0
   15.5273    3.5704    0.0000 H   0  0  0  0  0  0  0  0  0  0  0  0
    8.7191    6.9846    0.0000 H   0  0  0  0  0  0  0  0  0  0  0  0
    6.0010   -6.6896    0.0000 H   0  0  0  0  0  0  0  0  0  0  0  0
   14.1244    3.3804    0.0000 H   0  0  0  0  0  0  0  0  0  0  0  0
    6.4791    6.9846    0.0000 H   0  0  0  0  0  0  0  0  0  0  0  0
    3.8015   -6.3347    0.0000 H   0  0  0  0  0  0  0  0  0  0  0  0
    3.0044   -6.3347    0.0000 H   0  0  0  0  0  0  0  0  0  0  0  0
   12.3187    5.7980    0.0000 H   0  0  0  0  0  0  0  0  0  0  0  0
   12.7172    5.1078    0.0000 H   0  0  0  0  0  0  0  0  0  0  0  0
    7.1817    9.7947    0.0000 H   0  0  0  0  0  0  0  0  0  0  0  0
    6.4915   10.1933    0.0000 H   0  0  0  0  0  0  0  0  0  0  0  0
    3.4030   -9.4296    0.0000 H   0  0  0  0  0  0  0  0  0  0  0  0
    5.6720  -10.1196    0.0000 H   0  0  0  0  0  0  0  0  0  0  0  0
   15.1982    7.0004    0.0000 H   0  0  0  0  0  0  0  0  0  0  0  0
    8.2891   10.1196    0.0000 H   0  0  0  0  0  0  0  0  0  0  0  0
   16.3933    6.3104    0.0000 H   0  0  0  0  0  0  0  0  0  0  0  0
    9.9091    8.3876    0.0000 H   0  0  0  0  0  0  0  0  0  0  0  0
    7.4040   -8.4996    0.0000 H   0  0  0  0  0  0  0  0  0  0  0  0
   16.9303    4.0004    0.0000 H   0  0  0  0  0  0  0  0  0  0  0  0
    9.2191    6.1186    0.0000 H   0  0  0  0  0  0  0  0  0  0  0  0
    2.0000   -6.9996    0.0000 H   0  0  0  0  0  0  0  0  0  0  0  0
   12.3923    7.0004    0.0000 H   0  0  0  0  0  0  0  0  0  0  0  0
    5.2891   10.1196    0.0000 H   0  0  0  0  0  0  0  0  0  0  0  0
    8.2700   -5.6196    0.0000 H   0  0  0  0  0  0  0  0  0  0  0  0
    5.4641   -5.6196    0.0000 H   0  0  0  0  0  0  0  0  0  0  0  0
   14.3322    0.8804    0.0000 H   0  0  0  0  0  0  0  0  0  0  0  0
    5.9791    4.3865    0.0000 H   0  0  0  0  0  0  0  0  0  0  0  0
   12.9292    3.3104    0.0000 H   0  0  0  0  0  0  0  0  0  0  0  0
    8.4091    5.7895    0.0000 H   0  0  0  0  0  0  0  0  0  0  0  0
    8.2700   -3.9996    0.0000 H   0  0  0  0  0  0  0  0  0  0  0  0
    5.4641   -3.9996    0.0000 H   0  0  0  0  0  0  0  0  0  0  0  0
   12.9292    0.0704    0.0000 H   0  0  0  0  0  0  0  0  0  0  0  0
    6.7891    2.9836    0.0000 H   0  0  0  0  0  0  0  0  0  0  0  0
   11.5263    2.5004    0.0000 H   0  0  0  0  0  0  0  0  0  0  0  0
    9.2191    4.3865    0.0000 H   0  0  0  0  0  0  0  0  0  0  0  0
    6.6550   -2.2270    0.0000 H   0  0  0  0  0  0  0  0  0  0  0  0
    6.2565   -2.9173    0.0000 H   0  0  0  0  0  0  0  0  0  0  0  0
   10.9851    1.2730    0.0000 H   0  0  0  0  0  0  0  0  0  0  0  0
   10.5866    0.5827    0.0000 H   0  0  0  0  0  0  0  0  0  0  0  0
    9.0741    2.2560    0.0000 H   0  0  0  0  0  0  0  0  0  0  0  0
    9.0741    3.0530    0.0000 H   0  0  0  0  0  0  0  0  0  0  0  0
    9.8637    0.1653    0.0000 H   0  0  0  0  0  0  0  0  0  0  0  0
    9.0666    0.1653    0.0000 H   0  0  0  0  0  0  0  0  0  0  0  0
    7.6242    0.4549    0.0000 H   0  0  0  0  0  0  0  0  0  0  0  0
    7.6242   -0.3421    0.0000 H   0  0  0  0  0  0  0  0  0  0  0  0
    9.7191   -1.6756    0.0000 H   0  0  0  0  0  0  0  0  0  0  0  0
  1 32  1  0  0  0  0
  1 38  1  0  0  0  0
  2 33  1  0  0  0  0
  2 39  1  0  0  0  0
  3 34  1  0  0  0  0
  3 40  1  0  0  0  0
 26  4  1  6  0  0  0
  4 92  1  0  0  0  0
 27  5  1  1  0  0  0
  5 93  1  0  0  0  0
 28  6  1  1  0  0  0
  6 94  1  0  0  0  0
 29  7  1  1  0  0  0
  7 95  1  0  0  0  0
 30  8  1  6  0  0  0
  8 96  1  0  0  0  0
 31  9  1  6  0  0  0
  9 97  1  0  0  0  0
 38 10  1  1  0  0  0
 10 44  1  0  0  0  0
 39 11  1  6  0  0  0
 11 45  1  0  0  0  0
 40 12  1  6  0  0  0
 12 46  1  0  0  0  0
 35 13  1  6  0  0  0
 13 98  1  0  0  0  0
 36 14  1  1  0  0  0
 14 99  1  0  0  0  0
 37 15  1  1  0  0  0
 15100  1  0  0  0  0
 16 41  1  0  0  0  0
 16101  1  0  0  0  0
 17 42  1  0  0  0  0
 17102  1  0  0  0  0
 18 43  1  0  0  0  0
 18103  1  0  0  0  0
 19 63  1  0  0  0  0
 19 68  1  0  0  0  0
 20 64  1  0  0  0  0
 20 69  1  0  0  0  0
 21 65  1  0  0  0  0
 21 70  1  0  0  0  0
 22 62  1  0  0  0  0
 22126  1  0  0  0  0
 23 68  2  0  0  0  0
 24 69  2  0  0  0  0
 25 70  2  0  0  0  0
 26 27  1  0  0  0  0
 26 32  1  0  0  0  0
 26 71  1  0  0  0  0
 27 35  1  0  0  0  0
 27 72  1  0  0  0  0
 28 30  1  0  0  0  0
 28 33  1  0  0  0  0
 28 73  1  0  0  0  0
 29 31  1  0  0  0  0
 29 34  1  0  0  0  0
 29 74  1  0  0  0  0
 30 36  1  0  0  0  0
 30 75  1  0  0  0  0
 31 37  1  0  0  0  0
 31 76  1  0  0  0  0
 32 41  1  1  0  0  0
 32 77  1  0  0  0  0
 33 42  1  6  0  0  0
 33 78  1  0  0  0  0
 34 43  1  6  0  0  0
 34 79  1  0  0  0  0
 35 38  1  0  0  0  0
 35 80  1  0  0  0  0
 36 39  1  0  0  0  0
 36 81  1  0  0  0  0
 37 40  1  0  0  0  0
 37 82  1  0  0  0  0
 38 83  1  0  0  0  0
 39 84  1  0  0  0  0
 40 85  1  0  0  0  0
 41 86  1  0  0  0  0
 41 87  1  0  0  0  0
 42 88  1  0  0  0  0
 42 89  1  0  0  0  0
 43 90  1  0  0  0  0
 43 91  1  0  0  0  0
 44 47  2  0  0  0  0
 44 48  1  0  0  0  0
 45 49  2  0  0  0  0
 45 51  1  0  0  0  0
 46 50  2  0  0  0  0
 46 52  1  0  0  0  0
 47 54  1  0  0  0  0
 47104  1  0  0  0  0
 48 55  2  0  0  0  0
 48105  1  0  0  0  0
 49 56  1  0  0  0  0
 49106  1  0  0  0  0
 50 57  1  0  0  0  0
 50107  1  0  0  0  0
 51 58  2  0  0  0  0
 51108  1  0  0  0  0
 52 59  2  0  0  0  0
 52109  1  0  0  0  0
 53 54  2  0  0  0  0
 53 55  1  0  0  0  0
 53 63  1  0  0  0  0
 54110  1  0  0  0  0
 55111  1  0  0  0  0
 56 60  2  0  0  0  0
 56112  1  0  0  0  0
 57 61  2  0  0  0  0
 57113  1  0  0  0  0
 58 60  1  0  0  0  0
 58114  1  0  0  0  0
 59 61  1  0  0  0  0
 59115  1  0  0  0  0
 60 64  1  0  0  0  0
 61 65  1  0  0  0  0
 62 66  1  0  0  0  0
 62 67  1  0  0  0  0
 62 68  1  0  0  0  0
 63116  1  0  0  0  0
 63117  1  0  0  0  0
 64118  1  0  0  0  0
 64119  1  0  0  0  0
 65120  1  0  0  0  0
 65121  1  0  0  0  0
 66 69  1  0  0  0  0
 66122  1  0  0  0  0
 66123  1  0  0  0  0
 67 70  1  0  0  0  0
 67124  1  0  0  0  0
 67125  1  0  0  0  0
M  END
> <PUBCHEM_COMPOUND_CID>
10557926

> <PUBCHEM_COMPOUND_CANONICALIZED>
1

> <PUBCHEM_CACTVS_COMPLEXITY>
1540

> <PUBCHEM_CACTVS_HBOND_ACCEPTOR>
25

> <PUBCHEM_CACTVS_HBOND_DONOR>
13

> <PUBCHEM_CACTVS_ROTATABLE_BOND>
23

> <PUBCHEM_CACTVS_SUBSKEYS>
AAADcfB8PgAAAAAAAAAAAAAAAAAAAAAAAAA0aNECAAAAAAABUAAAGgAACAAADFSwmAMwDoAABgCIAiDSCAICCAAgIAAIiAFGCIgdNjaEMRqieCCl4BEPqAfL5iwOIAAAAAAAAABAAAAAAAAAAAAAAAAAAA==

> <PUBCHEM_IUPAC_OPENEYE_NAME>
tris[[4-[(2S,3R,4S,5S,6R)-3,4,5-trihydroxy-6-(hydroxymethyl)tetrahydropyran-2-yl]oxyphenyl]methyl] 2-hydroxypropane-1,2,3-tricarboxylate

> <PUBCHEM_IUPAC_CAS_NAME>
2-hydroxypropane-1,2,3-tricarboxylic acid tris[[4-[[(2S,3R,4S,5S,6R)-3,4,5-trihydroxy-6-(hydroxymethyl)-2-oxanyl]oxy]phenyl]methyl] ester

> <PUBCHEM_IUPAC_NAME_MARKUP>
tris[[4-[(2<I>S</I>,3<I>R</I>,4<I>S</I>,5<I>S</I>,6<I>R</I>)-3,4,5-trihydroxy-6-(hydroxymethyl)oxan-2-yl]oxyphenyl]methyl] 2-hydroxypropane-1,2,3-tricarboxylate

> <PUBCHEM_IUPAC_NAME>
tris[[4-[(2S,3R,4S,5S,6R)-3,4,5-trihydroxy-6-(hydroxymethyl)oxan-2-yl]oxyphenyl]methyl] 2-hydroxypropane-1,2,3-tricarboxylate

> <PUBCHEM_IUPAC_SYSTEMATIC_NAME>
tris[[4-[(2S,3R,4S,5S,6R)-6-(hydroxymethyl)-3,4,5-tris(oxidanyl)oxan-2-yl]oxyphenyl]methyl] 2-oxidanylpropane-1,2,3-tricarboxylate

> <PUBCHEM_IUPAC_TRADITIONAL_NAME>
2-hydroxypropane-1,2,3-tricarboxylic acid tris[4-[(2S,3R,4S,5S,6R)-3,4,5-trihydroxy-6-methylol-tetrahydropyran-2-yl]oxybenzyl] ester

> <PUBCHEM_IUPAC_INCHI>
InChI=1S/C45H56O25/c46-15-27-32(51)35(54)38(57)41(68-27)65-24-7-1-21(2-8-24)18-62-30(49)13-45(61,44(60)64-20-23-5-11-26(12-6-23)67-43-40(59)37(56)34(53)29(17-48)70-43)14-31(50)63-19-22-3-9-25(10-4-22)66-42-39(58)36(55)33(52)28(16-47)69-42/h1-12,27-29,32-43,46-48,51-59,61H,13-20H2/t27-,28-,29-,32-,33-,34-,35+,36+,37+,38-,39-,40-,41-,42-,43-/m1/s1

> <PUBCHEM_IUPAC_INCHIKEY>
WYKQPGOKTKQHQG-SHGJSZTHSA-N

> <PUBCHEM_XLOGP3_AA>
-3

> <PUBCHEM_EXACT_MASS>
996.311067

> <PUBCHEM_MOLECULAR_FORMULA>
C45H56O25

> <PUBCHEM_MOLECULAR_WEIGHT>
996.9

> <PUBCHEM_OPENEYE_CAN_SMILES>
C1=CC(=CC=C1COC(=O)CC(CC(=O)OCC2=CC=C(C=C2)OC3C(C(C(C(O3)CO)O)O)O)(C(=O)OCC4=CC=C(C=C4)OC5C(C(C(C(O5)CO)O)O)O)O)OC6C(C(C(C(O6)CO)O)O)O

> <PUBCHEM_OPENEYE_ISO_SMILES>
C1=CC(=CC=C1COC(=O)CC(CC(=O)OCC2=CC=C(C=C2)O[C@H]3[C@@H]([C@H]([C@@H]([C@H](O3)CO)O)O)O)(C(=O)OCC4=CC=C(C=C4)O[C@H]5[C@@H]([C@H]([C@@H]([C@H](O5)CO)O)O)O)O)O[C@H]6[C@@H]([C@H]([C@@H]([C@H](O6)CO)O)O)O

> <PUBCHEM_CACTVS_TPSA>
397

> <PUBCHEM_MONOISOTOPIC_WEIGHT>
996.311067

> <PUBCHEM_TOTAL_CHARGE>
0

> <PUBCHEM_HEAVY_ATOM_COUNT>
70

> <PUBCHEM_ATOM_DEF_STEREO_COUNT>
15

> <PUBCHEM_ATOM_UDEF_STEREO_COUNT>
0

> <PUBCHEM_BOND_DEF_STEREO_COUNT>
0

> <PUBCHEM_BOND_UDEF_STEREO_COUNT>
0

> <PUBCHEM_ISOTOPIC_ATOM_COUNT>
0

> <PUBCHEM_COMPONENT_COUNT>
1

> <PUBCHEM_CACTVS_TAUTO_COUNT>
-1

> <PUBCHEM_COORDINATE_TYPE>
1
5
255

> <PUBCHEM_BONDANNOTATIONS>
38  10  5
39  11  6
40  12  6
35  13  6
36  14  5
37  15  5
32  41  5
33  42  6
34  43  6
26  4  6
44  47  8
44  48  8
45  49  8
45  51  8
46  50  8
46  52  8
47  54  8
48  55  8
49  56  8
27  5  5
50  57  8
51  58  8
52  59  8
53  54  8
53  55  8
56  60  8
57  61  8
58  60  8
59  61  8
28  6  5
29  7  5
30  8  6
31  9  6

$$$$
