10676408
  -OEChem-09132004372D

 91 94  0     1  0  0  0  0  0999 V2000
    5.1350   -2.9050    0.0000 O   0  0  0  0  0  0  0  0  0  0  0  0
   15.5991    0.6309    0.0000 O   0  0  0  0  0  0  0  0  0  0  0  0
    3.4030   -4.9050    0.0000 O   0  0  0  0  0  0  0  0  0  0  0  0
   17.5991   -1.1012    0.0000 O   0  0  0  0  0  0  0  0  0  0  0  0
    5.1350   -5.9050    0.0000 O   0  0  0  0  0  0  0  0  0  0  0  0
   18.5991    0.6309    0.0000 O   0  0  0  0  0  0  0  0  0  0  0  0
    6.8671   -2.9050    0.0000 O   0  0  0  0  0  0  0  0  0  0  0  0
   15.5991    2.3630    0.0000 O   0  0  0  0  0  0  0  0  0  0  0  0
    6.8671   -4.9050    0.0000 O   0  0  0  0  0  0  0  0  0  0  0  0
   17.5991    2.3630    0.0000 O   0  0  0  0  0  0  0  0  0  0  0  0
    2.5369   -3.4050    0.0000 O   0  0  0  0  0  0  0  0  0  0  0  0
   16.0991   -1.9672    0.0000 O   0  0  0  0  0  0  0  0  0  0  0  0
    7.7331    1.5950    0.0000 O   0  0  0  0  0  0  0  0  0  0  0  0
   11.0991    3.2290    0.0000 O   0  0  0  0  0  0  0  0  0  0  0  0
    7.5991    4.0950    0.0000 O   0  0  0  0  0  0  0  0  0  0  0  0
    9.4651    5.5950    0.0000 O   0  0  0  0  0  0  0  0  0  0  0  0
    6.8671    3.0950    0.0000 O   0  0  0  0  0  0  0  0  0  0  0  0
    9.5991    2.3630    0.0000 O   0  0  0  0  0  0  0  0  0  0  0  0
    7.7331    5.5950    0.0000 O   0  0  0  0  0  0  0  0  0  0  0  0
    4.2690   -4.4050    0.0000 C   0  0  1  0  0  0  0  0  0  0  0  0
   17.0991   -0.2351    0.0000 C   0  0  1  0  0  0  0  0  0  0  0  0
    5.1350   -4.9050    0.0000 C   0  0  1  0  0  0  0  0  0  0  0  0
   17.5991    0.6309    0.0000 C   0  0  1  0  0  0  0  0  0  0  0  0
    4.2690   -3.4050    0.0000 C   0  0  1  0  0  0  0  0  0  0  0  0
   16.0991   -0.2351    0.0000 C   0  0  1  0  0  0  0  0  0  0  0  0
    6.0010   -4.4050    0.0000 C   0  0  2  0  0  0  0  0  0  0  0  0
   17.0991    1.4969    0.0000 C   0  0  2  0  0  0  0  0  0  0  0  0
    6.0010   -3.4050    0.0000 C   0  0  1  0  0  0  0  0  0  0  0  0
   16.0991    1.4969    0.0000 C   0  0  1  0  0  0  0  0  0  0  0  0
    3.4030   -2.9050    0.0000 C   0  0  0  0  0  0  0  0  0  0  0  0
   15.5991   -1.1012    0.0000 C   0  0  0  0  0  0  0  0  0  0  0  0
    6.8671   -1.9050    0.0000 C   0  0  0  0  0  0  0  0  0  0  0  0
   14.5991    2.3630    0.0000 C   0  0  0  0  0  0  0  0  0  0  0  0
    7.7331   -1.4050    0.0000 C   0  0  0  0  0  0  0  0  0  0  0  0
   14.0991    3.2290    0.0000 C   0  0  0  0  0  0  0  0  0  0  0  0
    6.0010   -1.4050    0.0000 C   0  0  0  0  0  0  0  0  0  0  0  0
   14.0991    1.4969    0.0000 C   0  0  0  0  0  0  0  0  0  0  0  0
    6.8671    0.0950    0.0000 C   0  0  0  0  0  0  0  0  0  0  0  0
   12.5991    2.3630    0.0000 C   0  0  0  0  0  0  0  0  0  0  0  0
    7.7331   -0.4050    0.0000 C   0  0  0  0  0  0  0  0  0  0  0  0
   13.0991    3.2290    0.0000 C   0  0  0  0  0  0  0  0  0  0  0  0
    6.0010   -0.4050    0.0000 C   0  0  0  0  0  0  0  0  0  0  0  0
   13.0991    1.4969    0.0000 C   0  0  0  0  0  0  0  0  0  0  0  0
    8.5991    4.0950    0.0000 C   0  0  0  0  0  0  0  0  0  0  0  0
    6.8671    1.0950    0.0000 C   0  0  0  0  0  0  0  0  0  0  0  0
   11.5991    2.3630    0.0000 C   0  0  0  0  0  0  0  0  0  0  0  0
    8.5991    3.0950    0.0000 C   0  0  0  0  0  0  0  0  0  0  0  0
    9.5991    4.0950    0.0000 C   0  0  0  0  0  0  0  0  0  0  0  0
    7.7331    2.5950    0.0000 C   0  0  0  0  0  0  0  0  0  0  0  0
   10.0991    3.2290    0.0000 C   0  0  0  0  0  0  0  0  0  0  0  0
    8.5991    5.0950    0.0000 C   0  0  0  0  0  0  0  0  0  0  0  0
    4.2690   -5.0250    0.0000 H   0  0  0  0  0  0  0  0  0  0  0  0
   17.7191   -0.2351    0.0000 H   0  0  0  0  0  0  0  0  0  0  0  0
    4.5981   -5.2150    0.0000 H   0  0  0  0  0  0  0  0  0  0  0  0
   17.9091    0.0940    0.0000 H   0  0  0  0  0  0  0  0  0  0  0  0
    4.2690   -2.7850    0.0000 H   0  0  0  0  0  0  0  0  0  0  0  0
   15.4791   -0.2351    0.0000 H   0  0  0  0  0  0  0  0  0  0  0  0
    6.0010   -5.0250    0.0000 H   0  0  0  0  0  0  0  0  0  0  0  0
   17.7191    1.4969    0.0000 H   0  0  0  0  0  0  0  0  0  0  0  0
    6.0010   -2.7850    0.0000 H   0  0  0  0  0  0  0  0  0  0  0  0
   15.4791    1.4969    0.0000 H   0  0  0  0  0  0  0  0  0  0  0  0
    3.8015   -2.4300    0.0000 H   0  0  0  0  0  0  0  0  0  0  0  0
    3.0044   -2.4300    0.0000 H   0  0  0  0  0  0  0  0  0  0  0  0
   15.1242   -0.7026    0.0000 H   0  0  0  0  0  0  0  0  0  0  0  0
   15.1242   -1.4997    0.0000 H   0  0  0  0  0  0  0  0  0  0  0  0
    3.4030   -5.5250    0.0000 H   0  0  0  0  0  0  0  0  0  0  0  0
   18.2191   -1.1012    0.0000 H   0  0  0  0  0  0  0  0  0  0  0  0
    5.6720   -6.2150    0.0000 H   0  0  0  0  0  0  0  0  0  0  0  0
   18.9091    0.0940    0.0000 H   0  0  0  0  0  0  0  0  0  0  0  0
    7.4040   -4.5950    0.0000 H   0  0  0  0  0  0  0  0  0  0  0  0
   18.2191    2.3630    0.0000 H   0  0  0  0  0  0  0  0  0  0  0  0
    2.0000   -3.0950    0.0000 H   0  0  0  0  0  0  0  0  0  0  0  0
   15.7891   -2.5041    0.0000 H   0  0  0  0  0  0  0  0  0  0  0  0
    8.2700   -1.7150    0.0000 H   0  0  0  0  0  0  0  0  0  0  0  0
   14.4091    3.7659    0.0000 H   0  0  0  0  0  0  0  0  0  0  0  0
    5.4641   -1.7150    0.0000 H   0  0  0  0  0  0  0  0  0  0  0  0
   14.4091    0.9600    0.0000 H   0  0  0  0  0  0  0  0  0  0  0  0
    8.2700   -0.0950    0.0000 H   0  0  0  0  0  0  0  0  0  0  0  0
   12.7891    3.7659    0.0000 H   0  0  0  0  0  0  0  0  0  0  0  0
    5.4641   -0.0950    0.0000 H   0  0  0  0  0  0  0  0  0  0  0  0
   12.7891    0.9600    0.0000 H   0  0  0  0  0  0  0  0  0  0  0  0
    6.6550    1.6776    0.0000 H   0  0  0  0  0  0  0  0  0  0  0  0
    6.2565    0.9873    0.0000 H   0  0  0  0  0  0  0  0  0  0  0  0
   11.0165    2.1509    0.0000 H   0  0  0  0  0  0  0  0  0  0  0  0
   11.7068    1.7524    0.0000 H   0  0  0  0  0  0  0  0  0  0  0  0
    8.8112    2.5124    0.0000 H   0  0  0  0  0  0  0  0  0  0  0  0
    9.2097    3.2027    0.0000 H   0  0  0  0  0  0  0  0  0  0  0  0
   10.1817    4.3070    0.0000 H   0  0  0  0  0  0  0  0  0  0  0  0
    9.4914    4.7056    0.0000 H   0  0  0  0  0  0  0  0  0  0  0  0
    7.2891    4.6319    0.0000 H   0  0  0  0  0  0  0  0  0  0  0  0
    9.4651    6.2150    0.0000 H   0  0  0  0  0  0  0  0  0  0  0  0
  1 24  1  0  0  0  0
  1 28  1  0  0  0  0
  2 25  1  0  0  0  0
  2 29  1  0  0  0  0
 20  3  1  6  0  0  0
  3 66  1  0  0  0  0
 21  4  1  6  0  0  0
  4 67  1  0  0  0  0
 22  5  1  1  0  0  0
  5 68  1  0  0  0  0
 23  6  1  1  0  0  0
  6 69  1  0  0  0  0
 28  7  1  1  0  0  0
  7 32  1  0  0  0  0
 29  8  1  1  0  0  0
  8 33  1  0  0  0  0
 26  9  1  6  0  0  0
  9 70  1  0  0  0  0
 27 10  1  6  0  0  0
 10 71  1  0  0  0  0
 11 30  1  0  0  0  0
 11 72  1  0  0  0  0
 12 31  1  0  0  0  0
 12 73  1  0  0  0  0
 13 45  1  0  0  0  0
 13 49  1  0  0  0  0
 14 46  1  0  0  0  0
 14 50  1  0  0  0  0
 15 44  1  0  0  0  0
 15 90  1  0  0  0  0
 16 51  1  0  0  0  0
 16 91  1  0  0  0  0
 17 49  2  0  0  0  0
 18 50  2  0  0  0  0
 19 51  2  0  0  0  0
 20 22  1  0  0  0  0
 20 24  1  0  0  0  0
 20 52  1  0  0  0  0
 21 23  1  0  0  0  0
 21 25  1  0  0  0  0
 21 53  1  0  0  0  0
 22 26  1  0  0  0  0
 22 54  1  0  0  0  0
 23 27  1  0  0  0  0
 23 55  1  0  0  0  0
 24 30  1  1  0  0  0
 24 56  1  0  0  0  0
 25 31  1  1  0  0  0
 25 57  1  0  0  0  0
 26 28  1  0  0  0  0
 26 58  1  0  0  0  0
 27 29  1  0  0  0  0
 27 59  1  0  0  0  0
 28 60  1  0  0  0  0
 29 61  1  0  0  0  0
 30 62  1  0  0  0  0
 30 63  1  0  0  0  0
 31 64  1  0  0  0  0
 31 65  1  0  0  0  0
 32 34  2  0  0  0  0
 32 36  1  0  0  0  0
 33 35  2  0  0  0  0
 33 37  1  0  0  0  0
 34 40  1  0  0  0  0
 34 74  1  0  0  0  0
 35 41  1  0  0  0  0
 35 75  1  0  0  0  0
 36 42  2  0  0  0  0
 36 76  1  0  0  0  0
 37 43  2  0  0  0  0
 37 77  1  0  0  0  0
 38 40  2  0  0  0  0
 38 42  1  0  0  0  0
 38 45  1  0  0  0  0
 39 41  2  0  0  0  0
 39 43  1  0  0  0  0
 39 46  1  0  0  0  0
 40 78  1  0  0  0  0
 41 79  1  0  0  0  0
 42 80  1  0  0  0  0
 43 81  1  0  0  0  0
 44 47  1  0  0  0  0
 44 48  1  0  0  0  0
 44 51  1  0  0  0  0
 45 82  1  0  0  0  0
 45 83  1  0  0  0  0
 46 84  1  0  0  0  0
 46 85  1  0  0  0  0
 47 49  1  0  0  0  0
 47 86  1  0  0  0  0
 47 87  1  0  0  0  0
 48 50  1  0  0  0  0
 48 88  1  0  0  0  0
 48 89  1  0  0  0  0
M  END
> <PUBCHEM_COMPOUND_CID>
10676408

> <PUBCHEM_COMPOUND_CANONICALIZED>
1

> <PUBCHEM_CACTVS_COMPLEXITY>
1050

> <PUBCHEM_CACTVS_HBOND_ACCEPTOR>
19

> <PUBCHEM_CACTVS_HBOND_DONOR>
10

> <PUBCHEM_CACTVS_ROTATABLE_BOND>
17

> <PUBCHEM_CACTVS_SUBSKEYS>
AAADcfB8PgAAAAAAAAAAAAAAAAAAAAAAAAA0aIEAAAAAAAABQAAAGgAACAAADFSwmAMwDoAABgCIAiDSCAICCAAgIAAIiAFGCIgdNjaEMRqieCCl4BEPqAfL5iwOIAAAAAAAAABAAAAAAAAAAAAAAAAAAA==

> <PUBCHEM_IUPAC_OPENEYE_NAME>
2-hydroxy-4-oxo-2-[2-oxo-2-[[4-[(2S,3R,4S,5S,6R)-3,4,5-trihydroxy-6-(hydroxymethyl)tetrahydropyran-2-yl]oxyphenyl]methoxy]ethyl]-4-[[4-[(2S,3R,4S,5S,6R)-3,4,5-trihydroxy-6-(hydroxymethyl)tetrahydropyran-2-yl]oxyphenyl]methoxy]butanoic acid

> <PUBCHEM_IUPAC_CAS_NAME>
2-hydroxy-4-oxo-2-[2-oxo-2-[[4-[[(2S,3R,4S,5S,6R)-3,4,5-trihydroxy-6-(hydroxymethyl)-2-oxanyl]oxy]phenyl]methoxy]ethyl]-4-[[4-[[(2S,3R,4S,5S,6R)-3,4,5-trihydroxy-6-(hydroxymethyl)-2-oxanyl]oxy]phenyl]methoxy]butanoic acid

> <PUBCHEM_IUPAC_NAME_MARKUP>
2-hydroxy-4-oxo-2-[2-oxo-2-[[4-[(2<I>S</I>,3<I>R</I>,4<I>S</I>,5<I>S</I>,6<I>R</I>)-3,4,5-trihydroxy-6-(hydroxymethyl)oxan-2-yl]oxyphenyl]methoxy]ethyl]-4-[[4-[(2<I>S</I>,3<I>R</I>,4<I>S</I>,5<I>S</I>,6<I>R</I>)-3,4,5-trihydroxy-6-(hydroxymethyl)oxan-2-yl]oxyphenyl]methoxy]butanoic acid

> <PUBCHEM_IUPAC_NAME>
2-hydroxy-4-oxo-2-[2-oxo-2-[[4-[(2S,3R,4S,5S,6R)-3,4,5-trihydroxy-6-(hydroxymethyl)oxan-2-yl]oxyphenyl]methoxy]ethyl]-4-[[4-[(2S,3R,4S,5S,6R)-3,4,5-trihydroxy-6-(hydroxymethyl)oxan-2-yl]oxyphenyl]methoxy]butanoic acid

> <PUBCHEM_IUPAC_SYSTEMATIC_NAME>
4-[[4-[(2S,3R,4S,5S,6R)-6-(hydroxymethyl)-3,4,5-tris(oxidanyl)oxan-2-yl]oxyphenyl]methoxy]-2-[2-[[4-[(2S,3R,4S,5S,6R)-6-(hydroxymethyl)-3,4,5-tris(oxidanyl)oxan-2-yl]oxyphenyl]methoxy]-2-oxidanylidene-ethyl]-2-oxidanyl-4-oxidanylidene-butanoic acid

> <PUBCHEM_IUPAC_TRADITIONAL_NAME>
2-hydroxy-4-keto-2-[2-keto-2-[4-[(2S,3R,4S,5S,6R)-3,4,5-trihydroxy-6-methylol-tetrahydropyran-2-yl]oxybenzyl]oxy-ethyl]-4-[4-[(2S,3R,4S,5S,6R)-3,4,5-trihydroxy-6-methylol-tetrahydropyran-2-yl]oxybenzyl]oxy-butyric acid

> <PUBCHEM_IUPAC_INCHI>
InChI=1S/C32H40O19/c33-11-19-23(37)25(39)27(41)29(50-19)48-17-5-1-15(2-6-17)13-46-21(35)9-32(45,31(43)44)10-22(36)47-14-16-3-7-18(8-4-16)49-30-28(42)26(40)24(38)20(12-34)51-30/h1-8,19-20,23-30,33-34,37-42,45H,9-14H2,(H,43,44)/t19-,20-,23-,24-,25+,26+,27-,28-,29-,30-/m1/s1

> <PUBCHEM_IUPAC_INCHIKEY>
PMVCHAWVCIWVLP-KDSCYBBXSA-N

> <PUBCHEM_XLOGP3_AA>
-2.7

> <PUBCHEM_EXACT_MASS>
728.216379

> <PUBCHEM_MOLECULAR_FORMULA>
C32H40O19

> <PUBCHEM_MOLECULAR_WEIGHT>
728.6

> <PUBCHEM_OPENEYE_CAN_SMILES>
C1=CC(=CC=C1COC(=O)CC(CC(=O)OCC2=CC=C(C=C2)OC3C(C(C(C(O3)CO)O)O)O)(C(=O)O)O)OC4C(C(C(C(O4)CO)O)O)O

> <PUBCHEM_OPENEYE_ISO_SMILES>
C1=CC(=CC=C1COC(=O)CC(CC(=O)OCC2=CC=C(C=C2)O[C@H]3[C@@H]([C@H]([C@@H]([C@H](O3)CO)O)O)O)(C(=O)O)O)O[C@H]4[C@@H]([C@H]([C@@H]([C@H](O4)CO)O)O)O

> <PUBCHEM_CACTVS_TPSA>
309

> <PUBCHEM_MONOISOTOPIC_WEIGHT>
728.216379

> <PUBCHEM_TOTAL_CHARGE>
0

> <PUBCHEM_HEAVY_ATOM_COUNT>
51

> <PUBCHEM_ATOM_DEF_STEREO_COUNT>
10

> <PUBCHEM_ATOM_UDEF_STEREO_COUNT>
0

> <PUBCHEM_BOND_DEF_STEREO_COUNT>
0

> <PUBCHEM_BOND_UDEF_STEREO_COUNT>
0

> <PUBCHEM_ISOTOPIC_ATOM_COUNT>
0

> <PUBCHEM_COMPONENT_COUNT>
1

> <PUBCHEM_CACTVS_TAUTO_COUNT>
-1

> <PUBCHEM_COORDINATE_TYPE>
1
5
255

> <PUBCHEM_BONDANNOTATIONS>
27  10  6
24  30  5
25  31  5
20  3  6
32  34  8
32  36  8
33  35  8
33  37  8
34  40  8
35  41  8
36  42  8
37  43  8
38  40  8
38  42  8
39  41  8
39  43  8
21  4  6
22  5  5
23  6  5
28  7  5
29  8  5
26  9  6

$$$$
