9796304
  -OEChem-09132010483D

 55 54  0     1  0  0  0  0  0999 V2000
   -6.6464   -1.0710    1.1916 O   0  0  0  0  0  0  0  0  0  0  0  0
   -5.1213   -2.8712   -1.5253 O   0  0  0  0  0  0  0  0  0  0  0  0
   -5.1696   -3.3093    0.7025 O   0  0  0  0  0  0  0  0  0  0  0  0
    4.9878   -0.0263    0.1220 C   0  0  0  0  0  0  0  0  0  0  0  0
   -3.2421    1.3081   -0.2492 C   0  0  0  0  0  0  0  0  0  0  0  0
   -2.0177    1.5341    0.6403 C   0  0  0  0  0  0  0  0  0  0  0  0
    3.9219    0.6657   -0.7333 C   0  0  0  0  0  0  0  0  0  0  0  0
    5.4753   -1.3457   -0.4809 C   0  0  0  0  0  0  0  0  0  0  0  0
   -4.1159    0.1343    0.2051 C   0  0  0  0  0  0  0  0  0  0  0  0
   -1.1888    2.7279    0.1538 C   0  0  0  0  0  0  0  0  0  0  0  0
    3.4434    1.9974   -0.1396 C   0  0  0  0  0  0  0  0  0  0  0  0
    6.5471   -2.0391    0.3670 C   0  0  0  0  0  0  0  0  0  0  0  0
   -5.3980   -0.0954   -0.6081 C   0  0  0  0  0  0  0  0  0  0  0  0
    0.0649    2.9902    0.9974 C   0  0  0  0  0  0  0  0  0  0  0  0
    2.3204    2.6512   -0.9549 C   0  0  0  0  0  0  0  0  0  0  0  0
    7.0095   -3.4077   -0.1387 C   0  0  0  0  0  0  0  0  0  0  0  0
    0.8902    4.1270    0.4701 C   0  0  0  0  0  0  0  0  0  0  0  0
    1.8985    3.9813   -0.4017 C   0  0  0  0  0  0  0  0  0  0  0  0
   -6.2389   -1.2902   -0.1481 C   0  0  1  0  0  0  0  0  0  0  0  0
    8.0258   -4.0805    0.7704 C   0  0  0  0  0  0  0  0  0  0  0  0
   -5.4461   -2.5808   -0.2401 C   0  0  0  0  0  0  0  0  0  0  0  0
    4.5807   -0.2143    1.1231 H   0  0  0  0  0  0  0  0  0  0  0  0
    5.8425    0.6495    0.2483 H   0  0  0  0  0  0  0  0  0  0  0  0
   -2.9170    1.1313   -1.2818 H   0  0  0  0  0  0  0  0  0  0  0  0
   -3.8523    2.2197   -0.2612 H   0  0  0  0  0  0  0  0  0  0  0  0
   -1.3950    0.6315    0.6427 H   0  0  0  0  0  0  0  0  0  0  0  0
   -2.3388    1.7094    1.6739 H   0  0  0  0  0  0  0  0  0  0  0  0
    3.0627   -0.0069   -0.8467 H   0  0  0  0  0  0  0  0  0  0  0  0
    4.3215    0.8439   -1.7392 H   0  0  0  0  0  0  0  0  0  0  0  0
    5.8772   -1.1627   -1.4848 H   0  0  0  0  0  0  0  0  0  0  0  0
    4.6205   -2.0227   -0.6002 H   0  0  0  0  0  0  0  0  0  0  0  0
   -3.5010   -0.7735    0.1785 H   0  0  0  0  0  0  0  0  0  0  0  0
   -4.3879    0.2922    1.2562 H   0  0  0  0  0  0  0  0  0  0  0  0
   -1.8178    3.6276    0.1563 H   0  0  0  0  0  0  0  0  0  0  0  0
   -0.8987    2.5546   -0.8903 H   0  0  0  0  0  0  0  0  0  0  0  0
    3.0990    1.8269    0.8880 H   0  0  0  0  0  0  0  0  0  0  0  0
    4.2963    2.6851   -0.0740 H   0  0  0  0  0  0  0  0  0  0  0  0
    7.4189   -1.3771    0.4447 H   0  0  0  0  0  0  0  0  0  0  0  0
    6.1596   -2.1595    1.3869 H   0  0  0  0  0  0  0  0  0  0  0  0
   -5.1307   -0.2150   -1.6649 H   0  0  0  0  0  0  0  0  0  0  0  0
   -6.0105    0.8122   -0.5340 H   0  0  0  0  0  0  0  0  0  0  0  0
   -0.2350    3.2359    2.0240 H   0  0  0  0  0  0  0  0  0  0  0  0
    0.6556    2.0715    1.0826 H   0  0  0  0  0  0  0  0  0  0  0  0
    1.4749    1.9605   -1.0446 H   0  0  0  0  0  0  0  0  0  0  0  0
    2.6689    2.8134   -1.9830 H   0  0  0  0  0  0  0  0  0  0  0  0
    6.1394   -4.0666   -0.2433 H   0  0  0  0  0  0  0  0  0  0  0  0
    7.4439   -3.2945   -1.1389 H   0  0  0  0  0  0  0  0  0  0  0  0
   -7.1403   -1.3849   -0.7631 H   0  0  0  0  0  0  0  0  0  0  0  0
    0.6394    5.1261    0.8163 H   0  0  0  0  0  0  0  0  0  0  0  0
    2.4505    4.8599   -0.7236 H   0  0  0  0  0  0  0  0  0  0  0  0
    8.9256   -3.4654    0.8719 H   0  0  0  0  0  0  0  0  0  0  0  0
    8.3204   -5.0510    0.3592 H   0  0  0  0  0  0  0  0  0  0  0  0
    7.6081   -4.2454    1.7685 H   0  0  0  0  0  0  0  0  0  0  0  0
   -7.2563   -1.7890    1.4332 H   0  0  0  0  0  0  0  0  0  0  0  0
   -4.6298   -3.7172   -1.5962 H   0  0  0  0  0  0  0  0  0  0  0  0
  1 19  1  0  0  0  0
  1 54  1  0  0  0  0
  2 21  1  0  0  0  0
  2 55  1  0  0  0  0
  3 21  2  0  0  0  0
  4  7  1  0  0  0  0
  4  8  1  0  0  0  0
  4 22  1  0  0  0  0
  4 23  1  0  0  0  0
  5  6  1  0  0  0  0
  5  9  1  0  0  0  0
  5 24  1  0  0  0  0
  5 25  1  0  0  0  0
  6 10  1  0  0  0  0
  6 26  1  0  0  0  0
  6 27  1  0  0  0  0
  7 11  1  0  0  0  0
  7 28  1  0  0  0  0
  7 29  1  0  0  0  0
  8 12  1  0  0  0  0
  8 30  1  0  0  0  0
  8 31  1  0  0  0  0
  9 13  1  0  0  0  0
  9 32  1  0  0  0  0
  9 33  1  0  0  0  0
 10 14  1  0  0  0  0
 10 34  1  0  0  0  0
 10 35  1  0  0  0  0
 11 15  1  0  0  0  0
 11 36  1  0  0  0  0
 11 37  1  0  0  0  0
 12 16  1  0  0  0  0
 12 38  1  0  0  0  0
 12 39  1  0  0  0  0
 13 19  1  0  0  0  0
 13 40  1  0  0  0  0
 13 41  1  0  0  0  0
 14 17  1  0  0  0  0
 14 42  1  0  0  0  0
 14 43  1  0  0  0  0
 15 18  1  0  0  0  0
 15 44  1  0  0  0  0
 15 45  1  0  0  0  0
 16 20  1  0  0  0  0
 16 46  1  0  0  0  0
 16 47  1  0  0  0  0
 17 18  2  0  0  0  0
 17 49  1  0  0  0  0
 18 50  1  0  0  0  0
 19 21  1  0  0  0  0
 19 48  1  0  0  0  0
 20 51  1  0  0  0  0
 20 52  1  0  0  0  0
 20 53  1  0  0  0  0
M  END
> <PUBCHEM_COMPOUND_CID>
9796304

> <PUBCHEM_CONFORMER_RMSD>
1.4

> <PUBCHEM_CONFORMER_DIVERSEORDER>
1
14
9
38
55
17
5
19
27
43
47
71
6
16
32
50
18
2
68
75
33
15
77
35
4
22
69
80
23
76
44
20
45
90
63
21
62
59
94
39
88
95
85
56
61
79
74
26
93
91
31
46
87
60
49
41
10
28
67
37
25
65
70
48
8
81
30
13
72
24
64
58
66
57
86
92
34
7
51
73
78
40
42
12
82
11
84
52
53
54
83
36
29
3
89

> <PUBCHEM_MMFF94_PARTIAL_CHARGES>
13
1 -0.68
14 0.14
15 0.14
17 -0.29
18 -0.29
19 0.34
2 -0.65
21 0.66
3 -0.57
49 0.15
50 0.15
54 0.4
55 0.5

> <PUBCHEM_EFFECTIVE_ROTOR_COUNT>
15

> <PUBCHEM_PHARMACOPHORE_FEATURES>
6
1 1 acceptor
1 1 donor
1 2 acceptor
1 20 hydrophobe
1 3 acceptor
3 2 3 21 anion

> <PUBCHEM_HEAVY_ATOM_COUNT>
21

> <PUBCHEM_ATOM_DEF_STEREO_COUNT>
0

> <PUBCHEM_ATOM_UDEF_STEREO_COUNT>
1

> <PUBCHEM_BOND_DEF_STEREO_COUNT>
1

> <PUBCHEM_BOND_UDEF_STEREO_COUNT>
0

> <PUBCHEM_ISOTOPIC_ATOM_COUNT>
0

> <PUBCHEM_COMPONENT_COUNT>
1

> <PUBCHEM_CACTVS_TAUTO_COUNT>
1

> <PUBCHEM_CONFORMER_ID>
00957AD000000001

> <PUBCHEM_MMFF94_ENERGY>
3.8123

> <PUBCHEM_FEATURE_SELFOVERLAP>
30.51

> <PUBCHEM_SHAPE_FINGERPRINT>
11497681 19 18336550414091909532
11761917 116 18339368458062411766
12166972 35 18113341907725371476
12174731 88 18343578555971049975
13911852 28 18339923813664392117
13955234 65 17769092685412914761
14251764 30 18410290319899922068
14344974 204 18123188997106177278
14429380 30 18410577254238897894
14671636 106 18339644422706772878
15019793 15 17908142427614021815
15803439 3 14418430862466171648
17492 89 18411135840342795588
20843269 155 18337953373326855040
21585483 132 18267850843564754711
23523788 1 18125690561862377560
23569914 152 18125689419732768885
23569943 247 18410296926414588547
270888 7 9439392528651648492
32027 91 18341604954095204997
406291 66 18410292476264031674
5047190 6 17773004623540954311
5104073 3 17775015630229476417
5718773 13 18410291368367587000
6712543 237 15984820398281297452
7970288 3 18411136896882735478
88748 71 18339643442309549893

> <PUBCHEM_SHAPE_MULTIPOLES>
414.56
22.82
6.62
0.99
11.84
0.52
-0.04
-39.2
1.31
5.28
0.51
-0.46
-0.12
-1.91

> <PUBCHEM_SHAPE_SELFOVERLAP>
766.338

> <PUBCHEM_SHAPE_VOLUME>
259.9

> <PUBCHEM_COORDINATE_TYPE>
2
5
10

$$$$
