5280644
  -OEChem-09132010353D

 52 51  0     0  0  0  0  0  0999 V2000
    2.4717    4.0900   -0.6627 O   0  0  0  0  0  0  0  0  0  0  0  0
    0.4379    4.9543   -1.2042 O   0  0  0  0  0  0  0  0  0  0  0  0
   -2.9711    1.6104    1.1010 C   0  0  0  0  0  0  0  0  0  0  0  0
   -3.5402    0.4840    1.9700 C   0  0  0  0  0  0  0  0  0  0  0  0
   -1.4427    1.6895    1.0320 C   0  0  0  0  0  0  0  0  0  0  0  0
   -3.2073   -0.9403    1.5149 C   0  0  0  0  0  0  0  0  0  0  0  0
   -0.9332    2.8804    0.2134 C   0  0  0  0  0  0  0  0  0  0  0  0
    2.3392   -1.6595   -0.1658 C   0  0  0  0  0  0  0  0  0  0  0  0
   -3.7622   -1.2795    0.1296 C   0  0  0  0  0  0  0  0  0  0  0  0
    2.3138   -1.6852   -1.6980 C   0  0  0  0  0  0  0  0  0  0  0  0
    3.7294   -1.9243    0.4209 C   0  0  0  0  0  0  0  0  0  0  0  0
    0.5941    2.9391    0.1616 C   0  0  0  0  0  0  0  0  0  0  0  0
    0.9338   -1.3545   -2.2770 C   0  0  0  0  0  0  0  0  0  0  0  0
    3.7734   -1.8204    1.9459 C   0  0  0  0  0  0  0  0  0  0  0  0
   -3.4010   -2.6822   -0.2688 C   0  0  0  0  0  0  0  0  0  0  0  0
   -0.1174   -2.3560   -1.8918 C   0  0  0  0  0  0  0  0  0  0  0  0
    5.1859   -2.0190    2.4745 C   0  0  0  0  0  0  0  0  0  0  0  0
   -2.2616   -3.0053   -0.8987 C   0  0  0  0  0  0  0  0  0  0  0  0
   -1.2567   -2.0325   -1.2620 C   0  0  0  0  0  0  0  0  0  0  0  0
    1.1144    4.1112   -0.6348 C   0  0  0  0  0  0  0  0  0  0  0  0
   -3.3791    1.5446    0.0863 H   0  0  0  0  0  0  0  0  0  0  0  0
   -3.3434    2.5595    1.5083 H   0  0  0  0  0  0  0  0  0  0  0  0
   -3.1764    0.6139    2.9968 H   0  0  0  0  0  0  0  0  0  0  0  0
   -4.6309    0.5952    2.0128 H   0  0  0  0  0  0  0  0  0  0  0  0
   -1.0425    1.7560    2.0512 H   0  0  0  0  0  0  0  0  0  0  0  0
   -1.0453    0.7669    0.5960 H   0  0  0  0  0  0  0  0  0  0  0  0
   -3.6248   -1.6407    2.2504 H   0  0  0  0  0  0  0  0  0  0  0  0
   -2.1210   -1.0851    1.5408 H   0  0  0  0  0  0  0  0  0  0  0  0
   -1.3316    2.8188   -0.8071 H   0  0  0  0  0  0  0  0  0  0  0  0
   -1.3207    3.8123    0.6438 H   0  0  0  0  0  0  0  0  0  0  0  0
    1.6451   -2.4077    0.2347 H   0  0  0  0  0  0  0  0  0  0  0  0
    1.9853   -0.6803    0.1808 H   0  0  0  0  0  0  0  0  0  0  0  0
   -4.8573   -1.2082    0.1531 H   0  0  0  0  0  0  0  0  0  0  0  0
   -3.4486   -0.5561   -0.6281 H   0  0  0  0  0  0  0  0  0  0  0  0
    2.6392   -2.6714   -2.0522 H   0  0  0  0  0  0  0  0  0  0  0  0
    3.0369   -0.9561   -2.0835 H   0  0  0  0  0  0  0  0  0  0  0  0
    4.4380   -1.2047   -0.0080 H   0  0  0  0  0  0  0  0  0  0  0  0
    4.0665   -2.9218    0.1131 H   0  0  0  0  0  0  0  0  0  0  0  0
    0.9782    2.0205   -0.2967 H   0  0  0  0  0  0  0  0  0  0  0  0
    0.9918    3.0191    1.1796 H   0  0  0  0  0  0  0  0  0  0  0  0
    0.6442   -0.3418   -1.9701 H   0  0  0  0  0  0  0  0  0  0  0  0
    1.0070   -1.3413   -3.3711 H   0  0  0  0  0  0  0  0  0  0  0  0
    3.1095   -2.5722    2.3879 H   0  0  0  0  0  0  0  0  0  0  0  0
    3.4070   -0.8369    2.2620 H   0  0  0  0  0  0  0  0  0  0  0  0
   -4.1024   -3.4721   -0.0133 H   0  0  0  0  0  0  0  0  0  0  0  0
    0.0761   -3.3913   -2.1643 H   0  0  0  0  0  0  0  0  0  0  0  0
    5.5730   -3.0049    2.1980 H   0  0  0  0  0  0  0  0  0  0  0  0
    5.1956   -1.9440    3.5663 H   0  0  0  0  0  0  0  0  0  0  0  0
    5.8650   -1.2585    2.0758 H   0  0  0  0  0  0  0  0  0  0  0  0
   -2.0761   -4.0471   -1.1454 H   0  0  0  0  0  0  0  0  0  0  0  0
   -1.4127   -0.9895   -1.0123 H   0  0  0  0  0  0  0  0  0  0  0  0
    2.8384    4.8344   -1.1860 H   0  0  0  0  0  0  0  0  0  0  0  0
  1 20  1  0  0  0  0
  1 52  1  0  0  0  0
  2 20  2  0  0  0  0
  3  4  1  0  0  0  0
  3  5  1  0  0  0  0
  3 21  1  0  0  0  0
  3 22  1  0  0  0  0
  4  6  1  0  0  0  0
  4 23  1  0  0  0  0
  4 24  1  0  0  0  0
  5  7  1  0  0  0  0
  5 25  1  0  0  0  0
  5 26  1  0  0  0  0
  6  9  1  0  0  0  0
  6 27  1  0  0  0  0
  6 28  1  0  0  0  0
  7 12  1  0  0  0  0
  7 29  1  0  0  0  0
  7 30  1  0  0  0  0
  8 10  1  0  0  0  0
  8 11  1  0  0  0  0
  8 31  1  0  0  0  0
  8 32  1  0  0  0  0
  9 15  1  0  0  0  0
  9 33  1  0  0  0  0
  9 34  1  0  0  0  0
 10 13  1  0  0  0  0
 10 35  1  0  0  0  0
 10 36  1  0  0  0  0
 11 14  1  0  0  0  0
 11 37  1  0  0  0  0
 11 38  1  0  0  0  0
 12 20  1  0  0  0  0
 12 39  1  0  0  0  0
 12 40  1  0  0  0  0
 13 16  1  0  0  0  0
 13 41  1  0  0  0  0
 13 42  1  0  0  0  0
 14 17  1  0  0  0  0
 14 43  1  0  0  0  0
 14 44  1  0  0  0  0
 15 18  2  0  0  0  0
 15 45  1  0  0  0  0
 16 19  2  0  0  0  0
 16 46  1  0  0  0  0
 17 47  1  0  0  0  0
 17 48  1  0  0  0  0
 17 49  1  0  0  0  0
 18 19  1  0  0  0  0
 18 50  1  0  0  0  0
 19 51  1  0  0  0  0
M  END
> <PUBCHEM_COMPOUND_CID>
5280644

> <PUBCHEM_CONFORMER_RMSD>
1.4

> <PUBCHEM_CONFORMER_DIVERSEORDER>
1
59
53
42
10
73
70
5
24
56
3
57
38
54
21
28
75
20
23
74
72
71
40
18
39
16
45
25
31
35
41
30
76
68
37
8
12
14
2
60
58
50
36
33
63
15
19
13
67
32
29
26
9
47
66
61
62
64
55
22
52
51
6
34
77
48
4
44
43
65
7
17
11
49
27
69
46

> <PUBCHEM_MMFF94_PARTIAL_CHARGES>
15
1 -0.65
12 0.06
13 0.14
15 -0.29
16 -0.29
18 -0.15
19 -0.15
2 -0.57
20 0.66
45 0.15
46 0.15
50 0.15
51 0.15
52 0.5
9 0.14

> <PUBCHEM_EFFECTIVE_ROTOR_COUNT>
14

> <PUBCHEM_PHARMACOPHORE_FEATURES>
6
1 1 acceptor
1 17 hydrophobe
1 2 acceptor
3 1 2 20 anion
3 10 13 16 hydrophobe
3 8 11 14 hydrophobe

> <PUBCHEM_HEAVY_ATOM_COUNT>
20

> <PUBCHEM_ATOM_DEF_STEREO_COUNT>
0

> <PUBCHEM_ATOM_UDEF_STEREO_COUNT>
0

> <PUBCHEM_BOND_DEF_STEREO_COUNT>
2

> <PUBCHEM_BOND_UDEF_STEREO_COUNT>
0

> <PUBCHEM_ISOTOPIC_ATOM_COUNT>
0

> <PUBCHEM_COMPONENT_COUNT>
1

> <PUBCHEM_CACTVS_TAUTO_COUNT>
1

> <PUBCHEM_CONFORMER_ID>
0050938400000001

> <PUBCHEM_MMFF94_ENERGY>
5.5761

> <PUBCHEM_FEATURE_SELFOVERLAP>
30.515

> <PUBCHEM_SHAPE_FINGERPRINT>
12104220 1 18187632576147926098
13615921 28 17822307750915754226
13941206 138 17326897777479498932
14251740 79 16977897380765442157
15322534 239 17547589518377229388
16120349 306 17912086358410487328
17859628 97 17191238938134205119
19734167 9 17702669830636470762
19930381 70 12872828073680269046
21315764 21 17545835724094488685
21795232 40 12011415440097371523
23428019 142 16606596788428296068
3524813 1 17486788376217976467
445580 44 18267285574011988738
474144 1 17836633489603365386
5282940 2 18052545657586278279
57307002 19 18051683344255204065
90316 7 18338799992257794659

> <PUBCHEM_SHAPE_MULTIPOLES>
399.85
7.83
6.54
2.38
7.47
10.42
0.41
-6.06
7.33
-1.2
-3.6
1.84
-1.09
-1.58

> <PUBCHEM_SHAPE_SELFOVERLAP>
741.621

> <PUBCHEM_SHAPE_VOLUME>
250.1

> <PUBCHEM_COORDINATE_TYPE>
2
5
10

$$$$
