5362717
  -OEChem-09132010322D

 57 56  0     0  0  0  0  0  0999 V2000
    2.8660    4.1900    0.0000 O   0  0  0  0  0  0  0  0  0  0  0  0
    3.7320    2.6900    0.0000 O   0  0  0  0  0  0  0  0  0  0  0  0
   10.6603   -0.3100    0.0000 C   0  0  0  0  0  0  0  0  0  0  0  0
   11.5263   -0.8100    0.0000 C   0  0  0  0  0  0  0  0  0  0  0  0
   10.6603    0.6900    0.0000 C   0  0  0  0  0  0  0  0  0  0  0  0
   11.5263   -1.8100    0.0000 C   0  0  0  0  0  0  0  0  0  0  0  0
    9.7942    1.1900    0.0000 C   0  0  0  0  0  0  0  0  0  0  0  0
   12.3923   -2.3100    0.0000 C   0  0  0  0  0  0  0  0  0  0  0  0
    9.7942    2.1900    0.0000 C   0  0  0  0  0  0  0  0  0  0  0  0
   12.3923   -3.3100    0.0000 C   0  0  0  0  0  0  0  0  0  0  0  0
    8.9282    2.6900    0.0000 C   0  0  0  0  0  0  0  0  0  0  0  0
   13.2583   -3.8100    0.0000 C   0  0  0  0  0  0  0  0  0  0  0  0
    8.9282    3.6900    0.0000 C   0  0  0  0  0  0  0  0  0  0  0  0
    7.1962    3.6900    0.0000 C   0  0  0  0  0  0  0  0  0  0  0  0
    6.3301    4.1900    0.0000 C   0  0  0  0  0  0  0  0  0  0  0  0
   13.2583   -4.8100    0.0000 C   0  0  0  0  0  0  0  0  0  0  0  0
    8.0622    4.1900    0.0000 C   0  0  0  0  0  0  0  0  0  0  0  0
    5.4641    3.6900    0.0000 C   0  0  0  0  0  0  0  0  0  0  0  0
    4.5981    4.1900    0.0000 C   0  0  0  0  0  0  0  0  0  0  0  0
    3.7320    3.6900    0.0000 C   0  0  0  0  0  0  0  0  0  0  0  0
    2.0000    3.6900    0.0000 C   0  0  0  0  0  0  0  0  0  0  0  0
   10.0497   -0.2023    0.0000 H   0  0  0  0  0  0  0  0  0  0  0  0
   10.4482   -0.8926    0.0000 H   0  0  0  0  0  0  0  0  0  0  0  0
   12.1369   -0.9177    0.0000 H   0  0  0  0  0  0  0  0  0  0  0  0
   11.7383   -0.2274    0.0000 H   0  0  0  0  0  0  0  0  0  0  0  0
   11.2708    0.5823    0.0000 H   0  0  0  0  0  0  0  0  0  0  0  0
   10.8723    1.2726    0.0000 H   0  0  0  0  0  0  0  0  0  0  0  0
   10.9157   -1.7023    0.0000 H   0  0  0  0  0  0  0  0  0  0  0  0
   11.3142   -2.3926    0.0000 H   0  0  0  0  0  0  0  0  0  0  0  0
    9.1836    1.2977    0.0000 H   0  0  0  0  0  0  0  0  0  0  0  0
    9.5822    0.6074    0.0000 H   0  0  0  0  0  0  0  0  0  0  0  0
   13.0029   -2.4177    0.0000 H   0  0  0  0  0  0  0  0  0  0  0  0
   12.6044   -1.7274    0.0000 H   0  0  0  0  0  0  0  0  0  0  0  0
   10.4048    2.0823    0.0000 H   0  0  0  0  0  0  0  0  0  0  0  0
   10.0063    2.7726    0.0000 H   0  0  0  0  0  0  0  0  0  0  0  0
   11.7817   -3.2023    0.0000 H   0  0  0  0  0  0  0  0  0  0  0  0
   12.1803   -3.8926    0.0000 H   0  0  0  0  0  0  0  0  0  0  0  0
    8.3176    2.7977    0.0000 H   0  0  0  0  0  0  0  0  0  0  0  0
    8.7162    2.1074    0.0000 H   0  0  0  0  0  0  0  0  0  0  0  0
   13.8689   -3.9177    0.0000 H   0  0  0  0  0  0  0  0  0  0  0  0
   13.4704   -3.2274    0.0000 H   0  0  0  0  0  0  0  0  0  0  0  0
    9.4651    4.0000    0.0000 H   0  0  0  0  0  0  0  0  0  0  0  0
    6.7976    3.2151    0.0000 H   0  0  0  0  0  0  0  0  0  0  0  0
    7.5947    3.2151    0.0000 H   0  0  0  0  0  0  0  0  0  0  0  0
    6.7287    4.6650    0.0000 H   0  0  0  0  0  0  0  0  0  0  0  0
    5.9316    4.6650    0.0000 H   0  0  0  0  0  0  0  0  0  0  0  0
   12.6383   -4.8100    0.0000 H   0  0  0  0  0  0  0  0  0  0  0  0
   13.2583   -5.4300    0.0000 H   0  0  0  0  0  0  0  0  0  0  0  0
   13.8783   -4.8100    0.0000 H   0  0  0  0  0  0  0  0  0  0  0  0
    8.0622    4.8100    0.0000 H   0  0  0  0  0  0  0  0  0  0  0  0
    5.0656    3.2151    0.0000 H   0  0  0  0  0  0  0  0  0  0  0  0
    5.8626    3.2151    0.0000 H   0  0  0  0  0  0  0  0  0  0  0  0
    4.9966    4.6650    0.0000 H   0  0  0  0  0  0  0  0  0  0  0  0
    4.1996    4.6650    0.0000 H   0  0  0  0  0  0  0  0  0  0  0  0
    1.6900    4.2269    0.0000 H   0  0  0  0  0  0  0  0  0  0  0  0
    1.4631    3.3800    0.0000 H   0  0  0  0  0  0  0  0  0  0  0  0
    2.3100    3.1531    0.0000 H   0  0  0  0  0  0  0  0  0  0  0  0
  1 20  1  0  0  0  0
  1 21  1  0  0  0  0
  2 20  2  0  0  0  0
  3  4  1  0  0  0  0
  3  5  1  0  0  0  0
  3 22  1  0  0  0  0
  3 23  1  0  0  0  0
  4  6  1  0  0  0  0
  4 24  1  0  0  0  0
  4 25  1  0  0  0  0
  5  7  1  0  0  0  0
  5 26  1  0  0  0  0
  5 27  1  0  0  0  0
  6  8  1  0  0  0  0
  6 28  1  0  0  0  0
  6 29  1  0  0  0  0
  7  9  1  0  0  0  0
  7 30  1  0  0  0  0
  7 31  1  0  0  0  0
  8 10  1  0  0  0  0
  8 32  1  0  0  0  0
  8 33  1  0  0  0  0
  9 11  1  0  0  0  0
  9 34  1  0  0  0  0
  9 35  1  0  0  0  0
 10 12  1  0  0  0  0
 10 36  1  0  0  0  0
 10 37  1  0  0  0  0
 11 13  1  0  0  0  0
 11 38  1  0  0  0  0
 11 39  1  0  0  0  0
 12 16  1  0  0  0  0
 12 40  1  0  0  0  0
 12 41  1  0  0  0  0
 13 17  2  0  0  0  0
 13 42  1  0  0  0  0
 14 15  1  0  0  0  0
 14 17  1  0  0  0  0
 14 43  1  0  0  0  0
 14 44  1  0  0  0  0
 15 18  1  0  0  0  0
 15 45  1  0  0  0  0
 15 46  1  0  0  0  0
 16 47  1  0  0  0  0
 16 48  1  0  0  0  0
 16 49  1  0  0  0  0
 17 50  1  0  0  0  0
 18 19  1  0  0  0  0
 18 51  1  0  0  0  0
 18 52  1  0  0  0  0
 19 20  1  0  0  0  0
 19 53  1  0  0  0  0
 19 54  1  0  0  0  0
 21 55  1  0  0  0  0
 21 56  1  0  0  0  0
 21 57  1  0  0  0  0
M  END
> <PUBCHEM_COMPOUND_CID>
5362717

> <PUBCHEM_COMPOUND_CANONICALIZED>
1

> <PUBCHEM_CACTVS_COMPLEXITY>
246

> <PUBCHEM_CACTVS_HBOND_ACCEPTOR>
2

> <PUBCHEM_CACTVS_HBOND_DONOR>
0

> <PUBCHEM_CACTVS_ROTATABLE_BOND>
16

> <PUBCHEM_CACTVS_SUBSKEYS>
AAADcfB4MAAAAAAAAAAAAAAAAAAAAAAAAAAAAAAAAAAAAAAAAAAAGgAAAAAACACAgAICCAAABACIACDSCAAAAAAgAAAICAEAAAgAABIAAQAAAAAEgAAIAAOIyIAAAAAAAAAAAAAAAAAAAAAAAAAAAAAAAA==

> <PUBCHEM_IUPAC_OPENEYE_NAME>
methyl (Z)-octadec-6-enoate

> <PUBCHEM_IUPAC_CAS_NAME>
(Z)-6-octadecenoic acid methyl ester

> <PUBCHEM_IUPAC_NAME_MARKUP>
methyl (<I>Z</I>)-octadec-6-enoate

> <PUBCHEM_IUPAC_NAME>
methyl (Z)-octadec-6-enoate

> <PUBCHEM_IUPAC_SYSTEMATIC_NAME>
methyl (Z)-octadec-6-enoate

> <PUBCHEM_IUPAC_TRADITIONAL_NAME>
(Z)-octadec-6-enoic acid methyl ester

> <PUBCHEM_IUPAC_INCHI>
InChI=1S/C19H36O2/c1-3-4-5-6-7-8-9-10-11-12-13-14-15-16-17-18-19(20)21-2/h13-14H,3-12,15-18H2,1-2H3/b14-13-

> <PUBCHEM_IUPAC_INCHIKEY>
QRTVDKVXAFJVRU-YPKPFQOOSA-N

> <PUBCHEM_XLOGP3_AA>
7.6

> <PUBCHEM_EXACT_MASS>
296.27153

> <PUBCHEM_MOLECULAR_FORMULA>
C19H36O2

> <PUBCHEM_MOLECULAR_WEIGHT>
296.5

> <PUBCHEM_OPENEYE_CAN_SMILES>
CCCCCCCCCCCC=CCCCCC(=O)OC

> <PUBCHEM_OPENEYE_ISO_SMILES>
CCCCCCCCCCC/C=C\CCCCC(=O)OC

> <PUBCHEM_CACTVS_TPSA>
26.3

> <PUBCHEM_MONOISOTOPIC_WEIGHT>
296.27153

> <PUBCHEM_TOTAL_CHARGE>
0

> <PUBCHEM_HEAVY_ATOM_COUNT>
21

> <PUBCHEM_ATOM_DEF_STEREO_COUNT>
0

> <PUBCHEM_ATOM_UDEF_STEREO_COUNT>
0

> <PUBCHEM_BOND_DEF_STEREO_COUNT>
1

> <PUBCHEM_BOND_UDEF_STEREO_COUNT>
0

> <PUBCHEM_ISOTOPIC_ATOM_COUNT>
0

> <PUBCHEM_COMPONENT_COUNT>
1

> <PUBCHEM_CACTVS_TAUTO_COUNT>
-1

> <PUBCHEM_COORDINATE_TYPE>
1
5
255

$$$$
