53360079
  -OEChem-09282008553D

 74 78  0     1  0  0  0  0  0999 V2000
    2.4219   -0.4901   -0.4174 O   0  0  0  0  0  0  0  0  0  0  0  0
   -1.0454   -4.0893   -0.0189 O   0  0  0  0  0  0  0  0  0  0  0  0
    0.2445   -2.1542   -0.2069 O   0  0  0  0  0  0  0  0  0  0  0  0
    4.1526   -3.7075   -0.6746 O   0  0  0  0  0  0  0  0  0  0  0  0
    3.0562    1.6928   -0.9437 O   0  0  0  0  0  0  0  0  0  0  0  0
    6.3145   -1.7923   -0.5557 O   0  0  0  0  0  0  0  0  0  0  0  0
    5.5410    0.7203   -1.8858 O   0  0  0  0  0  0  0  0  0  0  0  0
   -1.7680   -0.7064    1.1574 O   0  0  0  0  0  0  0  0  0  0  0  0
   -4.4318   -1.9094    0.7860 O   0  0  0  0  0  0  0  0  0  0  0  0
   -4.3609   -4.7338    1.3974 O   0  0  0  0  0  0  0  0  0  0  0  0
   -0.8830   -6.8245    0.1983 O   0  0  0  0  0  0  0  0  0  0  0  0
    0.1876    3.5790    2.3631 O   0  0  0  0  0  0  0  0  0  0  0  0
    3.4083    1.7255    1.9030 O   0  0  0  0  0  0  0  0  0  0  0  0
   -1.5480    1.3859   -2.9399 O   0  0  0  0  0  0  0  0  0  0  0  0
   -2.3201    3.6669    1.8308 O   0  0  0  0  0  0  0  0  0  0  0  0
    3.1030    4.0054    1.9927 O   0  0  0  0  0  0  0  0  0  0  0  0
    2.5712   -1.8869   -0.6775 C   0  0  1  0  0  0  0  0  0  0  0  0
    3.9938   -2.3333   -0.3319 C   0  0  2  0  0  0  0  0  0  0  0  0
    5.0241   -1.5000   -1.0942 C   0  0  1  0  0  0  0  0  0  0  0  0
    4.7405   -0.0044   -0.9524 C   0  0  2  0  0  0  0  0  0  0  0  0
   -2.0379   -1.9272    0.4687 C   0  0  1  0  0  0  0  0  0  0  0  0
   -0.7865   -2.8024    0.5374 C   0  0  1  0  0  0  0  0  0  0  0  0
   -3.2373   -2.6202    1.1155 C   0  0  2  0  0  0  0  0  0  0  0  0
   -3.3862   -4.0552    0.6096 C   0  0  1  0  0  0  0  0  0  0  0  0
   -2.0540   -4.8033    0.6982 C   0  0  1  0  0  0  0  0  0  0  0  0
    3.2717    0.3121   -1.2341 C   0  0  1  0  0  0  0  0  0  0  0  0
    1.5294   -2.6242    0.1578 C   0  0  0  0  0  0  0  0  0  0  0  0
   -2.1488   -6.1994    0.0910 C   0  0  0  0  0  0  0  0  0  0  0  0
    1.8091    2.0489   -0.5235 C   0  0  0  0  0  0  0  0  0  0  0  0
    1.6152    2.6426    0.7222 C   0  0  0  0  0  0  0  0  0  0  0  0
    0.7198    1.8096   -1.3617 C   0  0  0  0  0  0  0  0  0  0  0  0
   -0.5704    2.1662   -0.9513 C   0  0  0  0  0  0  0  0  0  0  0  0
   -0.7646    2.7613    0.2969 C   0  0  0  0  0  0  0  0  0  0  0  0
    0.3312    2.9997    1.1349 C   0  0  0  0  0  0  0  0  0  0  0  0
   -1.7178    1.9084   -1.8452 C   0  0  0  0  0  0  0  0  0  0  0  0
   -2.1205    3.1428    0.7422 C   0  0  0  0  0  0  0  0  0  0  0  0
   -3.0736    2.2896   -1.3998 C   0  0  0  0  0  0  0  0  0  0  0  0
   -3.2680    2.8847   -0.1516 C   0  0  0  0  0  0  0  0  0  0  0  0
    2.7618    2.8882    1.5910 C   0  0  0  0  0  0  0  0  0  0  0  0
   -4.1696    2.0503   -2.2374 C   0  0  0  0  0  0  0  0  0  0  0  0
   -4.5582    3.2408    0.2589 C   0  0  0  0  0  0  0  0  0  0  0  0
   -5.4537    2.4065   -1.8244 C   0  0  0  0  0  0  0  0  0  0  0  0
   -5.6476    3.0004   -0.5788 C   0  0  0  0  0  0  0  0  0  0  0  0
    4.5545    1.8361    2.7536 C   0  0  0  0  0  0  0  0  0  0  0  0
    2.3470   -2.0694   -1.7374 H   0  0  0  0  0  0  0  0  0  0  0  0
    4.1718   -2.2421    0.7466 H   0  0  0  0  0  0  0  0  0  0  0  0
    5.0604   -1.7935   -2.1499 H   0  0  0  0  0  0  0  0  0  0  0  0
    5.0274    0.3456    0.0454 H   0  0  0  0  0  0  0  0  0  0  0  0
   -2.2625   -1.6596   -0.5707 H   0  0  0  0  0  0  0  0  0  0  0  0
   -0.4644   -2.9074    1.5830 H   0  0  0  0  0  0  0  0  0  0  0  0
   -3.1604   -2.5972    2.2089 H   0  0  0  0  0  0  0  0  0  0  0  0
   -3.7511   -4.0451   -0.4248 H   0  0  0  0  0  0  0  0  0  0  0  0
   -1.7299   -4.9094    1.7426 H   0  0  0  0  0  0  0  0  0  0  0  0
    3.0324    0.1542   -2.2941 H   0  0  0  0  0  0  0  0  0  0  0  0
    1.5928   -3.7050   -0.0104 H   0  0  0  0  0  0  0  0  0  0  0  0
    1.6948   -2.4149    1.2218 H   0  0  0  0  0  0  0  0  0  0  0  0
   -2.4048   -6.1456   -0.9724 H   0  0  0  0  0  0  0  0  0  0  0  0
   -2.8896   -6.8142    0.6110 H   0  0  0  0  0  0  0  0  0  0  0  0
    3.9827   -3.8011   -1.6275 H   0  0  0  0  0  0  0  0  0  0  0  0
    6.3197   -1.5253    0.3793 H   0  0  0  0  0  0  0  0  0  0  0  0
    5.3033    0.4236   -2.7809 H   0  0  0  0  0  0  0  0  0  0  0  0
   -1.5630   -0.9207    2.0835 H   0  0  0  0  0  0  0  0  0  0  0  0
   -4.5159   -1.8914   -0.1826 H   0  0  0  0  0  0  0  0  0  0  0  0
   -4.0403   -4.7600    2.3151 H   0  0  0  0  0  0  0  0  0  0  0  0
   -0.9650   -7.7089   -0.1974 H   0  0  0  0  0  0  0  0  0  0  0  0
    0.8815    1.3549   -2.3358 H   0  0  0  0  0  0  0  0  0  0  0  0
   -4.0450    1.5882   -3.2130 H   0  0  0  0  0  0  0  0  0  0  0  0
   -4.7378    3.7050    1.2249 H   0  0  0  0  0  0  0  0  0  0  0  0
   -0.7415    3.7777    2.5496 H   0  0  0  0  0  0  0  0  0  0  0  0
   -6.3035    2.2204   -2.4747 H   0  0  0  0  0  0  0  0  0  0  0  0
   -6.6485    3.2766   -0.2596 H   0  0  0  0  0  0  0  0  0  0  0  0
    5.3217    2.4504    2.2731 H   0  0  0  0  0  0  0  0  0  0  0  0
    4.2679    2.2603    3.7204 H   0  0  0  0  0  0  0  0  0  0  0  0
    4.9567    0.8323    2.9138 H   0  0  0  0  0  0  0  0  0  0  0  0
  1 17  1  0  0  0  0
  1 26  1  0  0  0  0
  2 22  1  0  0  0  0
  2 25  1  0  0  0  0
  3 22  1  0  0  0  0
  3 27  1  0  0  0  0
  4 18  1  0  0  0  0
  4 59  1  0  0  0  0
  5 26  1  0  0  0  0
  5 29  1  0  0  0  0
  6 19  1  0  0  0  0
  6 60  1  0  0  0  0
  7 20  1  0  0  0  0
  7 61  1  0  0  0  0
  8 21  1  0  0  0  0
  8 62  1  0  0  0  0
  9 23  1  0  0  0  0
  9 63  1  0  0  0  0
 10 24  1  0  0  0  0
 10 64  1  0  0  0  0
 11 28  1  0  0  0  0
 11 65  1  0  0  0  0
 12 34  1  0  0  0  0
 12 69  1  0  0  0  0
 13 39  1  0  0  0  0
 13 44  1  0  0  0  0
 14 35  2  0  0  0  0
 15 36  2  0  0  0  0
 16 39  2  0  0  0  0
 17 18  1  0  0  0  0
 17 27  1  0  0  0  0
 17 45  1  0  0  0  0
 18 19  1  0  0  0  0
 18 46  1  0  0  0  0
 19 20  1  0  0  0  0
 19 47  1  0  0  0  0
 20 26  1  0  0  0  0
 20 48  1  0  0  0  0
 21 22  1  0  0  0  0
 21 23  1  0  0  0  0
 21 49  1  0  0  0  0
 22 50  1  0  0  0  0
 23 24  1  0  0  0  0
 23 51  1  0  0  0  0
 24 25  1  0  0  0  0
 24 52  1  0  0  0  0
 25 28  1  0  0  0  0
 25 53  1  0  0  0  0
 26 54  1  0  0  0  0
 27 55  1  0  0  0  0
 27 56  1  0  0  0  0
 28 57  1  0  0  0  0
 28 58  1  0  0  0  0
 29 30  2  0  0  0  0
 29 31  1  0  0  0  0
 30 34  1  0  0  0  0
 30 39  1  0  0  0  0
 31 32  2  0  0  0  0
 31 66  1  0  0  0  0
 32 33  1  0  0  0  0
 32 35  1  0  0  0  0
 33 34  2  0  0  0  0
 33 36  1  0  0  0  0
 35 37  1  0  0  0  0
 36 38  1  0  0  0  0
 37 38  1  0  0  0  0
 37 40  2  0  0  0  0
 38 41  2  0  0  0  0
 40 42  1  0  0  0  0
 40 67  1  0  0  0  0
 41 43  1  0  0  0  0
 41 68  1  0  0  0  0
 42 43  2  0  0  0  0
 42 70  1  0  0  0  0
 43 71  1  0  0  0  0
 44 72  1  0  0  0  0
 44 73  1  0  0  0  0
 44 74  1  0  0  0  0
M  END
> <PUBCHEM_COMPOUND_CID>
53360079

> <PUBCHEM_CONFORMER_RMSD>
1.2

> <PUBCHEM_CONFORMER_DIVERSEORDER>
1
111
83
129
8
5
66
117
137
118
104
116
44
64
82
43
28
33
75
30
97
15
27
105
41
135
132
71
134
99
87
53
88
55
10
37
94
18
57
78
103
125
130
119
139
62
91
131
21
35
112
85
124
101
115
60
17
92
127
73
133
110
59
79
23
14
81
42
90
29
36
24
80
46
108
140
51
26
50
56
77
72
109
19
96
52
40
93
95
122
3
48
74
32
141
114
70
123
54
22
61
107
20
7
120
89
4
86
38
98
31
49
102
12
126
121
34
67
136
63
138
58
13
100
39
106
47
84
11
113
6
128
25
9
69
65
45
76
2
68
16

> <PUBCHEM_MMFF94_PARTIAL_CHARGES>
57
1 -0.56
10 -0.68
11 -0.68
12 -0.53
13 -0.43
14 -0.57
15 -0.57
16 -0.57
17 0.28
18 0.28
19 0.28
2 -0.56
20 0.28
21 0.28
22 0.56
23 0.28
24 0.28
25 0.28
26 0.56
27 0.28
28 0.28
29 0.08
3 -0.56
30 0.09
31 -0.15
32 0.09
33 0.09
34 0.08
35 0.4
36 0.4
37 0.09
38 0.09
39 0.63
4 -0.68
40 -0.15
41 -0.15
42 -0.15
43 -0.15
44 0.28
5 -0.36
59 0.4
6 -0.68
60 0.4
61 0.4
62 0.4
63 0.4
64 0.4
65 0.4
66 0.15
67 0.15
68 0.15
69 0.45
7 -0.68
70 0.15
71 0.15
8 -0.68
9 -0.68

> <PUBCHEM_EFFECTIVE_ROTOR_COUNT>
10.4

> <PUBCHEM_PHARMACOPHORE_FEATURES>
27
1 1 acceptor
1 10 acceptor
1 10 donor
1 11 acceptor
1 11 donor
1 12 donor
1 14 acceptor
1 15 acceptor
1 16 acceptor
1 2 acceptor
1 3 acceptor
1 4 acceptor
1 4 donor
1 5 acceptor
1 6 acceptor
1 6 donor
1 7 acceptor
1 7 donor
1 8 acceptor
1 8 donor
1 9 acceptor
1 9 donor
6 1 17 18 19 20 26 rings
6 2 21 22 23 24 25 rings
6 29 30 31 32 33 34 rings
6 32 33 35 36 37 38 rings
6 37 38 40 41 42 43 rings

> <PUBCHEM_HEAVY_ATOM_COUNT>
44

> <PUBCHEM_ATOM_DEF_STEREO_COUNT>
10

> <PUBCHEM_ATOM_UDEF_STEREO_COUNT>
0

> <PUBCHEM_BOND_DEF_STEREO_COUNT>
0

> <PUBCHEM_BOND_UDEF_STEREO_COUNT>
0

> <PUBCHEM_ISOTOPIC_ATOM_COUNT>
0

> <PUBCHEM_COMPONENT_COUNT>
1

> <PUBCHEM_CACTVS_TAUTO_COUNT>
6

> <PUBCHEM_CONFORMER_ID>
032E35CF00000001

> <PUBCHEM_MMFF94_ENERGY>
146.8969

> <PUBCHEM_FEATURE_SELFOVERLAP>
137.221

> <PUBCHEM_SHAPE_FINGERPRINT>
12107698 1 17487885731593081740
12156800 1 18189315974918419248
12977781 61 18270672186253912328
13692114 37 18336814348010589991
15775530 1 18268699683752135852
16993438 75 18260843583083118211
19319366 153 17477776675890244040
20028762 73 17764585417914680150
20764821 26 18265883666827232947
20775438 99 18125970919619816623
22223350 30 18408879620912161442
23559900 14 18409730659960898348
244849 19 18131063887792560216
437795 96 18195799898088292739
57527358 35 13968366929917539412
66674814 147 18048321037559768892

> <PUBCHEM_SHAPE_MULTIPOLES>
811.59
10.94
9.04
2.13
3.73
17.23
-0.14
-3.75
3.51
-6.37
-4.09
0.37
-2.3
3.96

> <PUBCHEM_SHAPE_SELFOVERLAP>
1770.154

> <PUBCHEM_SHAPE_VOLUME>
434.4

> <PUBCHEM_COORDINATE_TYPE>
2
5
10

$$$$
