53359958
  -OEChem-09282008453D

 72 76  0     1  0  0  0  0  0999 V2000
   -2.6065   -0.4382   -0.1867 O   0  0  0  0  0  0  0  0  0  0  0  0
   -0.3288    4.0281   -0.1482 O   0  0  0  0  0  0  0  0  0  0  0  0
   -1.0036    1.7947   -0.1745 O   0  0  0  0  0  0  0  0  0  0  0  0
   -5.2102    2.1187   -0.4976 O   0  0  0  0  0  0  0  0  0  0  0  0
   -2.5956   -2.7388   -0.5750 O   0  0  0  0  0  0  0  0  0  0  0  0
   -6.7120   -0.3294   -0.1706 O   0  0  0  0  0  0  0  0  0  0  0  0
   -5.2911   -2.5864   -1.4228 O   0  0  0  0  0  0  0  0  0  0  0  0
    1.3960    1.0770    1.1427 O   0  0  0  0  0  0  0  0  0  0  0  0
    3.5755    2.9749    0.5693 O   0  0  0  0  0  0  0  0  0  0  0  0
    2.7067    5.6895    1.0514 O   0  0  0  0  0  0  0  0  0  0  0  0
   -1.2746    6.6070   -0.0501 O   0  0  0  0  0  0  0  0  0  0  0  0
    0.8147   -3.5143    2.6576 O   0  0  0  0  0  0  0  0  0  0  0  0
   -2.6365   -2.5688    2.5541 O   0  0  0  0  0  0  0  0  0  0  0  0
    1.6432   -1.2361   -2.8266 O   0  0  0  0  0  0  0  0  0  0  0  0
    3.2210   -2.9057    1.9985 O   0  0  0  0  0  0  0  0  0  0  0  0
   -3.1673    0.8372   -0.5031 C   0  0  1  0  0  0  0  0  0  0  0  0
   -4.6436    0.8728   -0.1006 C   0  0  2  0  0  0  0  0  0  0  0  0
   -5.4146   -0.2678   -0.7651 C   0  0  1  0  0  0  0  0  0  0  0  0
   -4.7011   -1.6058   -0.5698 C   0  0  2  0  0  0  0  0  0  0  0  0
    1.2703    2.2796    0.3841 C   0  0  1  0  0  0  0  0  0  0  0  0
   -0.1785    2.7575    0.4808 C   0  0  1  0  0  0  0  0  0  0  0  0
    2.2393    3.3281    0.9306 C   0  0  2  0  0  0  0  0  0  0  0  0
    1.9426    4.7113    0.3510 C   0  0  1  0  0  0  0  0  0  0  0  0
   -3.2162   -1.4999   -0.9171 C   0  0  1  0  0  0  0  0  0  0  0  0
    0.4545    5.0456    0.4780 C   0  0  1  0  0  0  0  0  0  0  0  0
   -2.3543    1.8939    0.2383 C   0  0  0  0  0  0  0  0  0  0  0  0
    0.1135    6.3699   -0.1979 C   0  0  0  0  0  0  0  0  0  0  0  0
   -1.2837   -2.6929   -0.2081 C   0  0  0  0  0  0  0  0  0  0  0  0
   -0.8797   -3.1293    1.0520 C   0  0  0  0  0  0  0  0  0  0  0  0
   -0.3430   -2.2005   -1.1130 C   0  0  0  0  0  0  0  0  0  0  0  0
    1.0094   -2.1444   -0.7551 C   0  0  0  0  0  0  0  0  0  0  0  0
    1.4144   -2.5819    0.5077 C   0  0  0  0  0  0  0  0  0  0  0  0
    0.4670   -3.0752    1.4127 C   0  0  0  0  0  0  0  0  0  0  0  0
   -1.8963   -3.6553    2.0154 C   0  0  0  0  0  0  0  0  0  0  0  0
    1.9984   -1.6210   -1.7194 C   0  0  0  0  0  0  0  0  0  0  0  0
    2.8380   -2.5286    0.8982 C   0  0  0  0  0  0  0  0  0  0  0  0
    3.4219   -1.5672   -1.3288 C   0  0  0  0  0  0  0  0  0  0  0  0
    3.8269   -2.0048   -0.0660 C   0  0  0  0  0  0  0  0  0  0  0  0
    4.3691   -1.0729   -2.2334 C   0  0  0  0  0  0  0  0  0  0  0  0
    5.1792   -1.9480    0.2921 C   0  0  0  0  0  0  0  0  0  0  0  0
    5.7157   -1.0180   -1.8725 C   0  0  0  0  0  0  0  0  0  0  0  0
    6.1198   -1.4545   -0.6124 C   0  0  0  0  0  0  0  0  0  0  0  0
   -3.0479    1.0122   -1.5810 H   0  0  0  0  0  0  0  0  0  0  0  0
   -4.7446    0.7997    0.9892 H   0  0  0  0  0  0  0  0  0  0  0  0
   -5.5762   -0.0619   -1.8297 H   0  0  0  0  0  0  0  0  0  0  0  0
   -4.8302   -1.9632    0.4587 H   0  0  0  0  0  0  0  0  0  0  0  0
    1.5223    2.0260   -0.6525 H   0  0  0  0  0  0  0  0  0  0  0  0
   -0.4760    2.8280    1.5365 H   0  0  0  0  0  0  0  0  0  0  0  0
    2.2154    3.3502    2.0264 H   0  0  0  0  0  0  0  0  0  0  0  0
    2.2536    4.7446   -0.7004 H   0  0  0  0  0  0  0  0  0  0  0  0
   -3.0750   -1.3442   -1.9948 H   0  0  0  0  0  0  0  0  0  0  0  0
    0.1548    5.1164    1.5326 H   0  0  0  0  0  0  0  0  0  0  0  0
   -2.4095    1.7105    1.3184 H   0  0  0  0  0  0  0  0  0  0  0  0
   -2.7373    2.8977    0.0237 H   0  0  0  0  0  0  0  0  0  0  0  0
    0.6621    7.2032    0.2512 H   0  0  0  0  0  0  0  0  0  0  0  0
    0.3321    6.3281   -1.2702 H   0  0  0  0  0  0  0  0  0  0  0  0
   -5.1126    2.1995   -1.4617 H   0  0  0  0  0  0  0  0  0  0  0  0
   -6.6023   -0.5291    0.7748 H   0  0  0  0  0  0  0  0  0  0  0  0
   -5.1863   -2.2881   -2.3424 H   0  0  0  0  0  0  0  0  0  0  0  0
    1.1737    1.2785    2.0676 H   0  0  0  0  0  0  0  0  0  0  0  0
    3.6231    2.9232   -0.4006 H   0  0  0  0  0  0  0  0  0  0  0  0
    2.4287    5.6772    1.9831 H   0  0  0  0  0  0  0  0  0  0  0  0
   -0.6661   -1.8712   -2.0973 H   0  0  0  0  0  0  0  0  0  0  0  0
   -1.4700    7.4516   -0.4906 H   0  0  0  0  0  0  0  0  0  0  0  0
   -2.5875   -4.3371    1.5066 H   0  0  0  0  0  0  0  0  0  0  0  0
   -1.4531   -4.2180    2.8425 H   0  0  0  0  0  0  0  0  0  0  0  0
    1.7682   -3.4294    2.8037 H   0  0  0  0  0  0  0  0  0  0  0  0
    4.0795   -0.7260   -3.2217 H   0  0  0  0  0  0  0  0  0  0  0  0
    5.5216   -2.2817    1.2679 H   0  0  0  0  0  0  0  0  0  0  0  0
   -3.3074   -2.9465    3.1480 H   0  0  0  0  0  0  0  0  0  0  0  0
    6.4500   -0.6342   -2.5748 H   0  0  0  0  0  0  0  0  0  0  0  0
    7.1688   -1.4105   -0.3339 H   0  0  0  0  0  0  0  0  0  0  0  0
  1 16  1  0  0  0  0
  1 24  1  0  0  0  0
  2 21  1  0  0  0  0
  2 25  1  0  0  0  0
  3 21  1  0  0  0  0
  3 26  1  0  0  0  0
  4 17  1  0  0  0  0
  4 57  1  0  0  0  0
  5 24  1  0  0  0  0
  5 28  1  0  0  0  0
  6 18  1  0  0  0  0
  6 58  1  0  0  0  0
  7 19  1  0  0  0  0
  7 59  1  0  0  0  0
  8 20  1  0  0  0  0
  8 60  1  0  0  0  0
  9 22  1  0  0  0  0
  9 61  1  0  0  0  0
 10 23  1  0  0  0  0
 10 62  1  0  0  0  0
 11 27  1  0  0  0  0
 11 64  1  0  0  0  0
 12 33  1  0  0  0  0
 12 67  1  0  0  0  0
 13 34  1  0  0  0  0
 13 70  1  0  0  0  0
 14 35  2  0  0  0  0
 15 36  2  0  0  0  0
 16 17  1  0  0  0  0
 16 26  1  0  0  0  0
 16 43  1  0  0  0  0
 17 18  1  0  0  0  0
 17 44  1  0  0  0  0
 18 19  1  0  0  0  0
 18 45  1  0  0  0  0
 19 24  1  0  0  0  0
 19 46  1  0  0  0  0
 20 21  1  0  0  0  0
 20 22  1  0  0  0  0
 20 47  1  0  0  0  0
 21 48  1  0  0  0  0
 22 23  1  0  0  0  0
 22 49  1  0  0  0  0
 23 25  1  0  0  0  0
 23 50  1  0  0  0  0
 24 51  1  0  0  0  0
 25 27  1  0  0  0  0
 25 52  1  0  0  0  0
 26 53  1  0  0  0  0
 26 54  1  0  0  0  0
 27 55  1  0  0  0  0
 27 56  1  0  0  0  0
 28 29  2  0  0  0  0
 28 30  1  0  0  0  0
 29 33  1  0  0  0  0
 29 34  1  0  0  0  0
 30 31  2  0  0  0  0
 30 63  1  0  0  0  0
 31 32  1  0  0  0  0
 31 35  1  0  0  0  0
 32 33  2  0  0  0  0
 32 36  1  0  0  0  0
 34 65  1  0  0  0  0
 34 66  1  0  0  0  0
 35 37  1  0  0  0  0
 36 38  1  0  0  0  0
 37 38  1  0  0  0  0
 37 39  2  0  0  0  0
 38 40  2  0  0  0  0
 39 41  1  0  0  0  0
 39 68  1  0  0  0  0
 40 42  1  0  0  0  0
 40 69  1  0  0  0  0
 41 42  2  0  0  0  0
 41 71  1  0  0  0  0
 42 72  1  0  0  0  0
M  END
> <PUBCHEM_COMPOUND_CID>
53359958

> <PUBCHEM_CONFORMER_RMSD>
1.2

> <PUBCHEM_CONFORMER_DIVERSEORDER>
1
12
118
7
103
111
30
43
68
132
100
34
78
20
86
31
63
108
9
101
58
128
125
98
29
74
65
23
107
117
51
47
109
134
90
11
123
130
88
44
126
64
52
56
104
85
99
92
135
39
61
127
60
87
66
18
114
32
75
110
136
40
82
26
72
25
95
16
27
59
38
94
14
105
57
81
71
54
37
42
93
96
50
106
124
46
76
19
69
120
10
53
15
36
70
41
129
33
112
6
22
79
67
97
3
62
102
13
119
55
28
73
84
122
35
49
115
80
131
8
91
77
83
45
133
116
5
89
21
17
4
121
113
48
24
2

> <PUBCHEM_MMFF94_PARTIAL_CHARGES>
56
1 -0.56
10 -0.68
11 -0.68
12 -0.53
13 -0.68
14 -0.57
15 -0.57
16 0.28
17 0.28
18 0.28
19 0.28
2 -0.56
20 0.28
21 0.56
22 0.28
23 0.28
24 0.56
25 0.28
26 0.28
27 0.28
28 0.08
29 -0.14
3 -0.56
30 -0.15
31 0.09
32 0.09
33 0.08
34 0.42
35 0.4
36 0.4
37 0.09
38 0.09
39 -0.15
4 -0.68
40 -0.15
41 -0.15
42 -0.15
5 -0.36
57 0.4
58 0.4
59 0.4
6 -0.68
60 0.4
61 0.4
62 0.4
63 0.15
64 0.4
67 0.45
68 0.15
69 0.15
7 -0.68
70 0.4
71 0.15
72 0.15
8 -0.68
9 -0.68

> <PUBCHEM_EFFECTIVE_ROTOR_COUNT>
9.4

> <PUBCHEM_PHARMACOPHORE_FEATURES>
28
1 1 acceptor
1 10 acceptor
1 10 donor
1 11 acceptor
1 11 donor
1 12 donor
1 13 acceptor
1 13 donor
1 14 acceptor
1 15 acceptor
1 2 acceptor
1 3 acceptor
1 4 acceptor
1 4 donor
1 5 acceptor
1 6 acceptor
1 6 donor
1 7 acceptor
1 7 donor
1 8 acceptor
1 8 donor
1 9 acceptor
1 9 donor
6 1 16 17 18 19 24 rings
6 2 20 21 22 23 25 rings
6 28 29 30 31 32 33 rings
6 31 32 35 36 37 38 rings
6 37 38 39 40 41 42 rings

> <PUBCHEM_HEAVY_ATOM_COUNT>
42

> <PUBCHEM_ATOM_DEF_STEREO_COUNT>
10

> <PUBCHEM_ATOM_UDEF_STEREO_COUNT>
0

> <PUBCHEM_BOND_DEF_STEREO_COUNT>
0

> <PUBCHEM_BOND_UDEF_STEREO_COUNT>
0

> <PUBCHEM_ISOTOPIC_ATOM_COUNT>
0

> <PUBCHEM_COMPONENT_COUNT>
1

> <PUBCHEM_CACTVS_TAUTO_COUNT>
5

> <PUBCHEM_CONFORMER_ID>
032E355600000001

> <PUBCHEM_MMFF94_ENERGY>
135.773

> <PUBCHEM_FEATURE_SELFOVERLAP>
142.299

> <PUBCHEM_SHAPE_FINGERPRINT>
10032420 55 18187640245935389181
10675989 125 16536793635577389693
11421498 54 18116994382078858218
12107698 1 18272366495022975015
12788726 201 18193282884059468442
14028597 1 17969209046397689074
14279260 333 16961792843203316616
14394314 77 18338520712004311985
14725015 67 18340197480337324000
15200665 1 17260476872677301816
15439362 3 18267017435283622521
15968369 153 18059569235503013452
15968369 26 18121213453034229212
19319366 153 17753899312017925155
20642791 35 18412258437756806743
20764821 26 18335155192958040442
21814621 53 15289316459175691301
3298306 158 17909269422810643988
354706 35 16683705525455383085
463206 1 18338529568553774476
5081480 168 17913522235081845910
5171179 24 18120666978770579371
6086070 43 18265871641472919935

> <PUBCHEM_SHAPE_MULTIPOLES>
776.3
10.85
8.82
1.89
2.8
19.67
-0.18
-6.55
4.71
0.26
-3.43
-1.26
-2.16
0.59

> <PUBCHEM_SHAPE_SELFOVERLAP>
1693.038

> <PUBCHEM_SHAPE_VOLUME>
415.2

> <PUBCHEM_COORDINATE_TYPE>
2
5
10

$$$$
