53360078
  -OEChem-09282008563D

 79 83  0     1  0  0  0  0  0999 V2000
    2.8014   -0.7700    0.2161 O   0  0  0  0  0  0  0  0  0  0  0  0
    1.3080    4.0142    0.0825 O   0  0  0  0  0  0  0  0  0  0  0  0
    1.5985    1.7012    0.1817 O   0  0  0  0  0  0  0  0  0  0  0  0
    5.8117    1.3157    0.2580 O   0  0  0  0  0  0  0  0  0  0  0  0
    2.4285   -3.0181    0.7171 O   0  0  0  0  0  0  0  0  0  0  0  0
    6.8577   -1.3637   -0.0297 O   0  0  0  0  0  0  0  0  0  0  0  0
    5.1587   -3.2943    1.4077 O   0  0  0  0  0  0  0  0  0  0  0  0
   -0.9647    1.3521   -0.9655 O   0  0  0  0  0  0  0  0  0  0  0  0
   -2.7546    3.6149   -0.3677 O   0  0  0  0  0  0  0  0  0  0  0  0
   -1.4741    6.1205   -1.0296 O   0  0  0  0  0  0  0  0  0  0  0  0
    2.6653    6.3882   -0.1939 O   0  0  0  0  0  0  0  0  0  0  0  0
   -1.2538   -3.3288   -2.2836 O   0  0  0  0  0  0  0  0  0  0  0  0
    2.3036   -2.9808   -2.4132 O   0  0  0  0  0  0  0  0  0  0  0  0
   -1.3500   -0.7270    3.1199 O   0  0  0  0  0  0  0  0  0  0  0  0
   -3.4588   -2.3036   -1.5305 O   0  0  0  0  0  0  0  0  0  0  0  0
   -5.7435   -1.3186   -0.9287 O   0  0  0  0  0  0  0  0  0  0  0  0
    3.5870    0.4025    0.4382 C   0  0  1  0  0  0  0  0  0  0  0  0
    5.0203    0.1699   -0.0456 C   0  0  2  0  0  0  0  0  0  0  0  0
    5.6287   -1.0585    0.6311 C   0  0  1  0  0  0  0  0  0  0  0  0
    4.6899   -2.2618    0.5410 C   0  0  2  0  0  0  0  0  0  0  0  0
   -0.5919    2.5444   -0.2749 C   0  0  1  0  0  0  0  0  0  0  0  0
    0.9077    2.7642   -0.4741 C   0  0  1  0  0  0  0  0  0  0  0  0
   -1.4033    3.7205   -0.8186 C   0  0  2  0  0  0  0  0  0  0  0  0
   -0.8431    5.0545   -0.3248 C   0  0  1  0  0  0  0  0  0  0  0  0
    3.2684   -1.8908    0.9635 C   0  0  1  0  0  0  0  0  0  0  0  0
    0.6692    5.1249   -0.5494 C   0  0  1  0  0  0  0  0  0  0  0  0
    2.9184    1.5523   -0.3087 C   0  0  0  0  0  0  0  0  0  0  0  0
    1.2692    6.3972    0.0410 C   0  0  0  0  0  0  0  0  0  0  0  0
    1.1227   -2.7636    0.4207 C   0  0  0  0  0  0  0  0  0  0  0  0
    0.5737   -3.1740   -0.7926 C   0  0  0  0  0  0  0  0  0  0  0  0
    0.3358   -2.0828    1.3501 C   0  0  0  0  0  0  0  0  0  0  0  0
   -1.0074   -1.8111    1.0642 C   0  0  0  0  0  0  0  0  0  0  0  0
   -1.5577   -2.2226   -0.1515 C   0  0  0  0  0  0  0  0  0  0  0  0
   -0.7646   -2.9056   -1.0814 C   0  0  0  0  0  0  0  0  0  0  0  0
    1.4263   -3.9031   -1.7822 C   0  0  0  0  0  0  0  0  0  0  0  0
   -1.8326   -1.0885    2.0537 C   0  0  0  0  0  0  0  0  0  0  0  0
   -2.9736   -1.9426   -0.4660 C   0  0  0  0  0  0  0  0  0  0  0  0
   -3.7986   -1.2197    0.5233 C   0  0  0  0  0  0  0  0  0  0  0  0
   -3.2482   -0.8079    1.7389 C   0  0  0  0  0  0  0  0  0  0  0  0
   -5.1417   -0.9470    0.2369 C   0  0  0  0  0  0  0  0  0  0  0  0
   -4.0409   -0.1236    2.6682 C   0  0  0  0  0  0  0  0  0  0  0  0
   -5.9280   -0.2647    1.1657 C   0  0  0  0  0  0  0  0  0  0  0  0
   -5.3788    0.1459    2.3788 C   0  0  0  0  0  0  0  0  0  0  0  0
   -1.1489   -2.4220   -3.3779 C   0  0  0  0  0  0  0  0  0  0  0  0
   -5.6922   -0.3884   -2.0082 C   0  0  0  0  0  0  0  0  0  0  0  0
    3.5659    0.6374    1.5111 H   0  0  0  0  0  0  0  0  0  0  0  0
    5.0397    0.0380   -1.1344 H   0  0  0  0  0  0  0  0  0  0  0  0
    5.8885   -0.8416    1.6738 H   0  0  0  0  0  0  0  0  0  0  0  0
    4.6929   -2.6760   -0.4741 H   0  0  0  0  0  0  0  0  0  0  0  0
   -0.8180    2.3783    0.7851 H   0  0  0  0  0  0  0  0  0  0  0  0
    1.1465    2.7414   -1.5467 H   0  0  0  0  0  0  0  0  0  0  0  0
   -1.4443    3.6952   -1.9139 H   0  0  0  0  0  0  0  0  0  0  0  0
   -1.0780    5.1815    0.7391 H   0  0  0  0  0  0  0  0  0  0  0  0
    3.2226   -1.6711    2.0383 H   0  0  0  0  0  0  0  0  0  0  0  0
    0.9104    5.1023   -1.6209 H   0  0  0  0  0  0  0  0  0  0  0  0
    2.8746    1.3200   -1.3799 H   0  0  0  0  0  0  0  0  0  0  0  0
    3.4770    2.4838   -0.1651 H   0  0  0  0  0  0  0  0  0  0  0  0
    0.8413    7.2936   -0.4178 H   0  0  0  0  0  0  0  0  0  0  0  0
    1.1138    6.4354    1.1244 H   0  0  0  0  0  0  0  0  0  0  0  0
    5.7893    1.4497    1.2209 H   0  0  0  0  0  0  0  0  0  0  0  0
    6.6575   -1.5787   -0.9567 H   0  0  0  0  0  0  0  0  0  0  0  0
    5.1628   -2.9468    2.3160 H   0  0  0  0  0  0  0  0  0  0  0  0
   -0.7697    1.4760   -1.9100 H   0  0  0  0  0  0  0  0  0  0  0  0
   -2.7497    3.6097    0.6047 H   0  0  0  0  0  0  0  0  0  0  0  0
   -1.2606    6.0245   -1.9734 H   0  0  0  0  0  0  0  0  0  0  0  0
    0.7703   -1.7747    2.2979 H   0  0  0  0  0  0  0  0  0  0  0  0
    3.0269    7.2037    0.1930 H   0  0  0  0  0  0  0  0  0  0  0  0
    0.8506   -4.4259   -2.5516 H   0  0  0  0  0  0  0  0  0  0  0  0
    2.0264   -4.6672   -1.2743 H   0  0  0  0  0  0  0  0  0  0  0  0
   -3.6363    0.2075    3.6208 H   0  0  0  0  0  0  0  0  0  0  0  0
    2.8632   -3.4903   -3.0238 H   0  0  0  0  0  0  0  0  0  0  0  0
   -6.9718   -0.0495    0.9520 H   0  0  0  0  0  0  0  0  0  0  0  0
   -5.9931    0.6769    3.1003 H   0  0  0  0  0  0  0  0  0  0  0  0
   -1.4046   -1.3986   -3.0832 H   0  0  0  0  0  0  0  0  0  0  0  0
   -0.1364   -2.4415   -3.7906 H   0  0  0  0  0  0  0  0  0  0  0  0
   -1.8456   -2.7444   -4.1567 H   0  0  0  0  0  0  0  0  0  0  0  0
   -6.3986    0.4279   -1.8280 H   0  0  0  0  0  0  0  0  0  0  0  0
   -4.6848    0.0191   -2.1432 H   0  0  0  0  0  0  0  0  0  0  0  0
   -5.9858   -0.9087   -2.9239 H   0  0  0  0  0  0  0  0  0  0  0  0
  1 17  1  0  0  0  0
  1 25  1  0  0  0  0
  2 22  1  0  0  0  0
  2 26  1  0  0  0  0
  3 22  1  0  0  0  0
  3 27  1  0  0  0  0
  4 18  1  0  0  0  0
  4 60  1  0  0  0  0
  5 25  1  0  0  0  0
  5 29  1  0  0  0  0
  6 19  1  0  0  0  0
  6 61  1  0  0  0  0
  7 20  1  0  0  0  0
  7 62  1  0  0  0  0
  8 21  1  0  0  0  0
  8 63  1  0  0  0  0
  9 23  1  0  0  0  0
  9 64  1  0  0  0  0
 10 24  1  0  0  0  0
 10 65  1  0  0  0  0
 11 28  1  0  0  0  0
 11 67  1  0  0  0  0
 12 34  1  0  0  0  0
 12 44  1  0  0  0  0
 13 35  1  0  0  0  0
 13 71  1  0  0  0  0
 14 36  2  0  0  0  0
 15 37  2  0  0  0  0
 16 40  1  0  0  0  0
 16 45  1  0  0  0  0
 17 18  1  0  0  0  0
 17 27  1  0  0  0  0
 17 46  1  0  0  0  0
 18 19  1  0  0  0  0
 18 47  1  0  0  0  0
 19 20  1  0  0  0  0
 19 48  1  0  0  0  0
 20 25  1  0  0  0  0
 20 49  1  0  0  0  0
 21 22  1  0  0  0  0
 21 23  1  0  0  0  0
 21 50  1  0  0  0  0
 22 51  1  0  0  0  0
 23 24  1  0  0  0  0
 23 52  1  0  0  0  0
 24 26  1  0  0  0  0
 24 53  1  0  0  0  0
 25 54  1  0  0  0  0
 26 28  1  0  0  0  0
 26 55  1  0  0  0  0
 27 56  1  0  0  0  0
 27 57  1  0  0  0  0
 28 58  1  0  0  0  0
 28 59  1  0  0  0  0
 29 30  2  0  0  0  0
 29 31  1  0  0  0  0
 30 34  1  0  0  0  0
 30 35  1  0  0  0  0
 31 32  2  0  0  0  0
 31 66  1  0  0  0  0
 32 33  1  0  0  0  0
 32 36  1  0  0  0  0
 33 34  2  0  0  0  0
 33 37  1  0  0  0  0
 35 68  1  0  0  0  0
 35 69  1  0  0  0  0
 36 39  1  0  0  0  0
 37 38  1  0  0  0  0
 38 39  2  0  0  0  0
 38 40  1  0  0  0  0
 39 41  1  0  0  0  0
 40 42  2  0  0  0  0
 41 43  2  0  0  0  0
 41 70  1  0  0  0  0
 42 43  1  0  0  0  0
 42 72  1  0  0  0  0
 43 73  1  0  0  0  0
 44 74  1  0  0  0  0
 44 75  1  0  0  0  0
 44 76  1  0  0  0  0
 45 77  1  0  0  0  0
 45 78  1  0  0  0  0
 45 79  1  0  0  0  0
M  END
> <PUBCHEM_COMPOUND_CID>
53360078

> <PUBCHEM_CONFORMER_RMSD>
1.2

> <PUBCHEM_CONFORMER_DIVERSEORDER>
1
25
33
66
75
6
67
22
49
44
18
26
15
38
31
51
11
41
77
74
47
60
29
52
64
36
43
48
39
57
17
45
53
42
37
16
63
27
7
19
54
46
78
2
10
8
14
34
72
24
50
30
32
20
23
73
69
68
71
76
13
55
5
59
62
61
35
9
56
58
28
3
65
70
21
40
4
12

> <PUBCHEM_MMFF94_PARTIAL_CHARGES>
57
1 -0.56
10 -0.68
11 -0.68
12 -0.36
13 -0.68
14 -0.57
15 -0.57
16 -0.36
17 0.28
18 0.28
19 0.28
2 -0.56
20 0.28
21 0.28
22 0.56
23 0.28
24 0.28
25 0.56
26 0.28
27 0.28
28 0.28
29 0.08
3 -0.56
30 -0.14
31 -0.15
32 0.09
33 0.09
34 0.08
35 0.42
36 0.4
37 0.4
38 0.09
39 0.09
4 -0.68
40 0.08
41 -0.15
42 -0.15
43 -0.15
44 0.28
45 0.28
5 -0.36
6 -0.68
60 0.4
61 0.4
62 0.4
63 0.4
64 0.4
65 0.4
66 0.15
67 0.4
7 -0.68
70 0.15
71 0.4
72 0.15
73 0.15
8 -0.68
9 -0.68

> <PUBCHEM_EFFECTIVE_ROTOR_COUNT>
11.4

> <PUBCHEM_PHARMACOPHORE_FEATURES>
29
1 1 acceptor
1 10 acceptor
1 10 donor
1 11 acceptor
1 11 donor
1 12 acceptor
1 13 acceptor
1 13 donor
1 14 acceptor
1 15 acceptor
1 16 acceptor
1 2 acceptor
1 3 acceptor
1 4 acceptor
1 4 donor
1 5 acceptor
1 6 acceptor
1 6 donor
1 7 acceptor
1 7 donor
1 8 acceptor
1 8 donor
1 9 acceptor
1 9 donor
6 1 17 18 19 20 25 rings
6 2 21 22 23 24 26 rings
6 29 30 31 32 33 34 rings
6 32 33 36 37 38 39 rings
6 38 39 40 41 42 43 rings

> <PUBCHEM_HEAVY_ATOM_COUNT>
45

> <PUBCHEM_ATOM_DEF_STEREO_COUNT>
10

> <PUBCHEM_ATOM_UDEF_STEREO_COUNT>
0

> <PUBCHEM_BOND_DEF_STEREO_COUNT>
0

> <PUBCHEM_BOND_UDEF_STEREO_COUNT>
0

> <PUBCHEM_ISOTOPIC_ATOM_COUNT>
0

> <PUBCHEM_COMPONENT_COUNT>
1

> <PUBCHEM_CACTVS_TAUTO_COUNT>
1

> <PUBCHEM_CONFORMER_ID>
032E35CE00000001

> <PUBCHEM_MMFF94_ENERGY>
167.8805

> <PUBCHEM_FEATURE_SELFOVERLAP>
147.412

> <PUBCHEM_SHAPE_FINGERPRINT>
11513181 2 16844742923591108903
12107698 1 18261108513914584434
12156800 1 17902541210523161062
12422481 6 18269281161915176947
12655364 131 17622431063114819712
12788726 201 18114455661337925176
14040222 75 18267315222614501229
14289585 56 18270131092961727342
14394314 77 18338238283829542384
14840074 17 18413113874281602074
150020 26 17461739564375274565
15219462 58 17681581150408796435
15276724 80 18411983542870323534
15439362 3 18048589610819037577
15961568 22 18339648845436170507
15968369 153 18268125610086391562
16112460 7 18051695739520296560
16993438 75 18047470019717921713
20764821 26 18195267536765035165
20775438 99 17188389591883245119
21033648 29 16950279615749768219
21796203 349 18047226104378050976
4173938 77 18265624362376920772

> <PUBCHEM_SHAPE_MULTIPOLES>
832.17
11.53
8.45
2.29
2
18.95
-0.25
-5.86
3.37
5.26
-3.57
-2.77
-2.22
-0.83

> <PUBCHEM_SHAPE_SELFOVERLAP>
1806.479

> <PUBCHEM_SHAPE_VOLUME>
447.7

> <PUBCHEM_COORDINATE_TYPE>
2
5
10

$$$$
