53359959
  -OEChem-09282008533D

 75 79  0     1  0  0  0  0  0999 V2000
   -2.6155   -0.4471   -0.2640 O   0  0  0  0  0  0  0  0  0  0  0  0
   -0.4686    4.0808   -0.1016 O   0  0  0  0  0  0  0  0  0  0  0  0
   -1.0782    1.8305   -0.1936 O   0  0  0  0  0  0  0  0  0  0  0  0
   -5.2952    2.0407   -0.4728 O   0  0  0  0  0  0  0  0  0  0  0  0
   -2.5410   -2.7330   -0.7253 O   0  0  0  0  0  0  0  0  0  0  0  0
   -6.7221   -0.4596   -0.2119 O   0  0  0  0  0  0  0  0  0  0  0  0
   -5.2472   -2.6332   -1.5465 O   0  0  0  0  0  0  0  0  0  0  0  0
    1.3528    1.1424    1.0811 O   0  0  0  0  0  0  0  0  0  0  0  0
    3.4709    3.1207    0.5511 O   0  0  0  0  0  0  0  0  0  0  0  0
    2.5278    5.7920    1.1261 O   0  0  0  0  0  0  0  0  0  0  0  0
   -1.4881    6.6264    0.0859 O   0  0  0  0  0  0  0  0  0  0  0  0
    0.9189   -3.5095    2.4538 O   0  0  0  0  0  0  0  0  0  0  0  0
   -2.5591   -2.6630    2.4079 O   0  0  0  0  0  0  0  0  0  0  0  0
    1.6321   -1.0361   -2.9616 O   0  0  0  0  0  0  0  0  0  0  0  0
    3.3005   -2.8100    1.7955 O   0  0  0  0  0  0  0  0  0  0  0  0
   -3.2159    0.8206   -0.5352 C   0  0  1  0  0  0  0  0  0  0  0  0
   -4.6890    0.8000   -0.1201 C   0  0  2  0  0  0  0  0  0  0  0  0
   -5.4323   -0.3412   -0.8145 C   0  0  1  0  0  0  0  0  0  0  0  0
   -4.6785   -1.6630   -0.6674 C   0  0  2  0  0  0  0  0  0  0  0  0
    1.1854    2.3641    0.3622 C   0  0  1  0  0  0  0  0  0  0  0  0
   -0.2758    2.7959    0.4855 C   0  0  1  0  0  0  0  0  0  0  0  0
    2.1283    3.4228    0.9340 C   0  0  2  0  0  0  0  0  0  0  0  0
    1.7863    4.8143    0.4011 C   0  0  1  0  0  0  0  0  0  0  0  0
   -3.2005   -1.5027   -1.0229 C   0  0  1  0  0  0  0  0  0  0  0  0
    0.2902    5.1006    0.5504 C   0  0  1  0  0  0  0  0  0  0  0  0
   -2.4275    1.8768    0.2329 C   0  0  0  0  0  0  0  0  0  0  0  0
   -0.0951    6.4349   -0.0803 C   0  0  0  0  0  0  0  0  0  0  0  0
   -1.2278   -2.6602   -0.3676 C   0  0  0  0  0  0  0  0  0  0  0  0
   -0.8002   -3.1240    0.8748 C   0  0  0  0  0  0  0  0  0  0  0  0
   -0.3099   -2.1120   -1.2638 C   0  0  0  0  0  0  0  0  0  0  0  0
    1.0434   -2.0275   -0.9150 C   0  0  0  0  0  0  0  0  0  0  0  0
    1.4722   -2.4926    0.3300 C   0  0  0  0  0  0  0  0  0  0  0  0
    0.5475   -3.0418    1.2264 C   0  0  0  0  0  0  0  0  0  0  0  0
   -1.7924   -3.7098    1.8290 C   0  0  0  0  0  0  0  0  0  0  0  0
    2.0081   -1.4451   -1.8700 C   0  0  0  0  0  0  0  0  0  0  0  0
    2.8970   -2.4097    0.7107 C   0  0  0  0  0  0  0  0  0  0  0  0
    3.4329   -1.3619   -1.4891 C   0  0  0  0  0  0  0  0  0  0  0  0
    3.8617   -1.8270   -0.2441 C   0  0  0  0  0  0  0  0  0  0  0  0
    4.3573   -0.8116   -2.3850 C   0  0  0  0  0  0  0  0  0  0  0  0
    5.2148   -1.7418    0.1049 C   0  0  0  0  0  0  0  0  0  0  0  0
    5.7048   -0.7286   -2.0332 C   0  0  0  0  0  0  0  0  0  0  0  0
    6.1326   -1.1926   -0.7909 C   0  0  0  0  0  0  0  0  0  0  0  0
    0.8944   -2.5792    3.5332 C   0  0  0  0  0  0  0  0  0  0  0  0
   -3.1112    1.0329   -1.6080 H   0  0  0  0  0  0  0  0  0  0  0  0
   -4.7783    0.6897    0.9675 H   0  0  0  0  0  0  0  0  0  0  0  0
   -5.6093   -0.1066   -1.8707 H   0  0  0  0  0  0  0  0  0  0  0  0
   -4.7880   -2.0564    0.3502 H   0  0  0  0  0  0  0  0  0  0  0  0
    1.4355    2.1508   -0.6839 H   0  0  0  0  0  0  0  0  0  0  0  0
   -0.5658    2.8243    1.5452 H   0  0  0  0  0  0  0  0  0  0  0  0
    2.1135    3.4096    2.0301 H   0  0  0  0  0  0  0  0  0  0  0  0
    2.0869    4.8899   -0.6511 H   0  0  0  0  0  0  0  0  0  0  0  0
   -3.0734   -1.3090   -2.0963 H   0  0  0  0  0  0  0  0  0  0  0  0
   -0.0021    5.1293    1.6090 H   0  0  0  0  0  0  0  0  0  0  0  0
   -2.4678    1.6579    1.3070 H   0  0  0  0  0  0  0  0  0  0  0  0
   -2.8415    2.8752    0.0534 H   0  0  0  0  0  0  0  0  0  0  0  0
    0.4330    7.2694    0.3907 H   0  0  0  0  0  0  0  0  0  0  0  0
    0.1151    6.4335   -1.1551 H   0  0  0  0  0  0  0  0  0  0  0  0
   -5.2085    2.1548   -1.4346 H   0  0  0  0  0  0  0  0  0  0  0  0
   -6.5983   -0.6858    0.7257 H   0  0  0  0  0  0  0  0  0  0  0  0
   -5.1591   -2.3032   -2.4570 H   0  0  0  0  0  0  0  0  0  0  0  0
    1.1322    1.3075    2.0137 H   0  0  0  0  0  0  0  0  0  0  0  0
    3.5115    3.1010   -0.4203 H   0  0  0  0  0  0  0  0  0  0  0  0
    2.2584    5.7422    2.0592 H   0  0  0  0  0  0  0  0  0  0  0  0
   -0.6512   -1.7614   -2.2345 H   0  0  0  0  0  0  0  0  0  0  0  0
   -1.7120    7.4784   -0.3259 H   0  0  0  0  0  0  0  0  0  0  0  0
   -1.3323   -4.2952    2.6304 H   0  0  0  0  0  0  0  0  0  0  0  0
   -2.4700   -4.3902    1.3001 H   0  0  0  0  0  0  0  0  0  0  0  0
    4.0490   -0.4424   -3.3594 H   0  0  0  0  0  0  0  0  0  0  0  0
    5.5754   -2.0958    1.0669 H   0  0  0  0  0  0  0  0  0  0  0  0
   -3.2126   -3.0788    2.9957 H   0  0  0  0  0  0  0  0  0  0  0  0
    6.4214   -0.3014   -2.7288 H   0  0  0  0  0  0  0  0  0  0  0  0
    7.1823   -1.1265   -0.5194 H   0  0  0  0  0  0  0  0  0  0  0  0
    1.3107   -1.6089    3.2421 H   0  0  0  0  0  0  0  0  0  0  0  0
   -0.1291   -2.4446    3.8943 H   0  0  0  0  0  0  0  0  0  0  0  0
    1.4978   -2.9865    4.3491 H   0  0  0  0  0  0  0  0  0  0  0  0
  1 16  1  0  0  0  0
  1 24  1  0  0  0  0
  2 21  1  0  0  0  0
  2 25  1  0  0  0  0
  3 21  1  0  0  0  0
  3 26  1  0  0  0  0
  4 17  1  0  0  0  0
  4 58  1  0  0  0  0
  5 24  1  0  0  0  0
  5 28  1  0  0  0  0
  6 18  1  0  0  0  0
  6 59  1  0  0  0  0
  7 19  1  0  0  0  0
  7 60  1  0  0  0  0
  8 20  1  0  0  0  0
  8 61  1  0  0  0  0
  9 22  1  0  0  0  0
  9 62  1  0  0  0  0
 10 23  1  0  0  0  0
 10 63  1  0  0  0  0
 11 27  1  0  0  0  0
 11 65  1  0  0  0  0
 12 33  1  0  0  0  0
 12 43  1  0  0  0  0
 13 34  1  0  0  0  0
 13 70  1  0  0  0  0
 14 35  2  0  0  0  0
 15 36  2  0  0  0  0
 16 17  1  0  0  0  0
 16 26  1  0  0  0  0
 16 44  1  0  0  0  0
 17 18  1  0  0  0  0
 17 45  1  0  0  0  0
 18 19  1  0  0  0  0
 18 46  1  0  0  0  0
 19 24  1  0  0  0  0
 19 47  1  0  0  0  0
 20 21  1  0  0  0  0
 20 22  1  0  0  0  0
 20 48  1  0  0  0  0
 21 49  1  0  0  0  0
 22 23  1  0  0  0  0
 22 50  1  0  0  0  0
 23 25  1  0  0  0  0
 23 51  1  0  0  0  0
 24 52  1  0  0  0  0
 25 27  1  0  0  0  0
 25 53  1  0  0  0  0
 26 54  1  0  0  0  0
 26 55  1  0  0  0  0
 27 56  1  0  0  0  0
 27 57  1  0  0  0  0
 28 29  2  0  0  0  0
 28 30  1  0  0  0  0
 29 33  1  0  0  0  0
 29 34  1  0  0  0  0
 30 31  2  0  0  0  0
 30 64  1  0  0  0  0
 31 32  1  0  0  0  0
 31 35  1  0  0  0  0
 32 33  2  0  0  0  0
 32 36  1  0  0  0  0
 34 66  1  0  0  0  0
 34 67  1  0  0  0  0
 35 37  1  0  0  0  0
 36 38  1  0  0  0  0
 37 38  1  0  0  0  0
 37 39  2  0  0  0  0
 38 40  2  0  0  0  0
 39 41  1  0  0  0  0
 39 68  1  0  0  0  0
 40 42  1  0  0  0  0
 40 69  1  0  0  0  0
 41 42  2  0  0  0  0
 41 71  1  0  0  0  0
 42 72  1  0  0  0  0
 43 73  1  0  0  0  0
 43 74  1  0  0  0  0
 43 75  1  0  0  0  0
M  END
> <PUBCHEM_COMPOUND_CID>
53359959

> <PUBCHEM_CONFORMER_RMSD>
1.2

> <PUBCHEM_CONFORMER_DIVERSEORDER>
1
89
26
48
99
24
31
102
45
95
7
110
119
56
37
52
86
68
29
115
49
23
109
107
28
117
101
44
35
17
90
79
72
97
2
15
84
74
82
98
83
70
36
59
11
18
93
39
53
105
55
12
113
108
25
114
112
42
94
96
121
69
63
8
75
91
27
40
73
85
19
21
87
81
38
88
104
123
46
51
58
66
33
65
20
54
122
16
50
61
14
13
43
22
32
103
60
34
62
6
76
118
92
67
47
71
64
10
106
3
9
57
100
80
116
41
30
77
4
120
5
111
78

> <PUBCHEM_MMFF94_PARTIAL_CHARGES>
56
1 -0.56
10 -0.68
11 -0.68
12 -0.36
13 -0.68
14 -0.57
15 -0.57
16 0.28
17 0.28
18 0.28
19 0.28
2 -0.56
20 0.28
21 0.56
22 0.28
23 0.28
24 0.56
25 0.28
26 0.28
27 0.28
28 0.08
29 -0.14
3 -0.56
30 -0.15
31 0.09
32 0.09
33 0.08
34 0.42
35 0.4
36 0.4
37 0.09
38 0.09
39 -0.15
4 -0.68
40 -0.15
41 -0.15
42 -0.15
43 0.28
5 -0.36
58 0.4
59 0.4
6 -0.68
60 0.4
61 0.4
62 0.4
63 0.4
64 0.15
65 0.4
68 0.15
69 0.15
7 -0.68
70 0.4
71 0.15
72 0.15
8 -0.68
9 -0.68

> <PUBCHEM_EFFECTIVE_ROTOR_COUNT>
10.4

> <PUBCHEM_PHARMACOPHORE_FEATURES>
28
1 1 acceptor
1 10 acceptor
1 10 donor
1 11 acceptor
1 11 donor
1 12 acceptor
1 13 acceptor
1 13 donor
1 14 acceptor
1 15 acceptor
1 2 acceptor
1 3 acceptor
1 4 acceptor
1 4 donor
1 5 acceptor
1 6 acceptor
1 6 donor
1 7 acceptor
1 7 donor
1 8 acceptor
1 8 donor
1 9 acceptor
1 9 donor
6 1 16 17 18 19 24 rings
6 2 20 21 22 23 25 rings
6 28 29 30 31 32 33 rings
6 31 32 35 36 37 38 rings
6 37 38 39 40 41 42 rings

> <PUBCHEM_HEAVY_ATOM_COUNT>
43

> <PUBCHEM_ATOM_DEF_STEREO_COUNT>
10

> <PUBCHEM_ATOM_UDEF_STEREO_COUNT>
0

> <PUBCHEM_BOND_DEF_STEREO_COUNT>
0

> <PUBCHEM_BOND_UDEF_STEREO_COUNT>
0

> <PUBCHEM_ISOTOPIC_ATOM_COUNT>
0

> <PUBCHEM_COMPONENT_COUNT>
1

> <PUBCHEM_CACTVS_TAUTO_COUNT>
1

> <PUBCHEM_CONFORMER_ID>
032E355700000001

> <PUBCHEM_MMFF94_ENERGY>
149.2319

> <PUBCHEM_FEATURE_SELFOVERLAP>
142.315

> <PUBCHEM_SHAPE_FINGERPRINT>
10032420 55 18188205407833988700
11421498 54 18189333459657031618
12107698 1 18272647978589574887
12788726 201 18193563263740319366
14028597 1 17969209050655668066
14279260 333 16890297108154951248
14394314 77 18339084765796002793
14725015 67 18340761534076306240
15200665 1 17332534470920558736
15439362 3 18267300018367202781
15968369 153 18059850719064468484
15968369 26 18049436238677262684
19319366 153 17969789562250346963
20642791 35 18411976971385828999
20764821 26 18263098711358827160
21814621 53 15361655532532808997
463206 1 18338811052083535524
5081480 168 17913239669146525246
5171179 24 18120666987376338211
5776283 40 18191877940423252396
6086070 43 18266433496230760327

> <PUBCHEM_SHAPE_MULTIPOLES>
796.88
10.6
8.76
2.21
3.03
19.88
-0.75
-5.65
5.65
1.21
-3.99
-1.7
-2.58
0.07

> <PUBCHEM_SHAPE_SELFOVERLAP>
1732.375

> <PUBCHEM_SHAPE_VOLUME>
428

> <PUBCHEM_COORDINATE_TYPE>
2
5
10

$$$$
