6325021
  -OEChem-09282008413D

 52 54  0     1  0  0  0  0  0999 V2000
    0.8143   -0.4699   -1.0603 O   0  0  0  0  0  0  0  0  0  0  0  0
   -0.8683   -1.7764   -0.1186 O   0  0  0  0  0  0  0  0  0  0  0  0
    2.4026    0.6300    0.2481 O   0  0  0  0  0  0  0  0  0  0  0  0
   -2.4634    1.2878    1.8462 O   0  0  0  0  0  0  0  0  0  0  0  0
    2.5401   -2.7057   -1.2366 O   0  0  0  0  0  0  0  0  0  0  0  0
    5.3709   -1.9337   -0.9699 O   0  0  0  0  0  0  0  0  0  0  0  0
    5.7574   -0.3016    1.3843 O   0  0  0  0  0  0  0  0  0  0  0  0
   -0.3245    2.4030   -3.1683 O   0  0  0  0  0  0  0  0  0  0  0  0
   -5.3476   -0.5387   -0.0415 O   0  0  0  0  0  0  0  0  0  0  0  0
    2.6900    2.4779    2.2626 O   0  0  0  0  0  0  0  0  0  0  0  0
   -4.6847   -2.0688    1.5643 O   0  0  0  0  0  0  0  0  0  0  0  0
   -1.4382    0.4532   -1.0722 C   0  0  2  0  0  0  0  0  0  0  0  0
   -2.8380    0.3860   -0.4164 C   0  0  2  0  0  0  0  0  0  0  0  0
   -0.4157   -0.4318   -0.3345 C   0  0  2  0  0  0  0  0  0  0  0  0
   -2.9053    1.5981    0.5341 C   0  0  2  0  0  0  0  0  0  0  0  0
   -1.1332    1.9278   -0.9760 C   0  0  0  0  0  0  0  0  0  0  0  0
   -1.9375    2.5445   -0.0997 C   0  0  0  0  0  0  0  0  0  0  0  0
   -3.1032   -0.9452    0.2027 C   0  0  0  0  0  0  0  0  0  0  0  0
    1.9268   -0.6430   -0.1830 C   0  0  2  0  0  0  0  0  0  0  0  0
    3.0178   -1.3918   -0.9483 C   0  0  1  0  0  0  0  0  0  0  0  0
    4.3052   -1.4883   -0.1296 C   0  0  2  0  0  0  0  0  0  0  0  0
    4.6961   -0.1282    0.4490 C   0  0  1  0  0  0  0  0  0  0  0  0
    3.5042    0.5259    1.1518 C   0  0  1  0  0  0  0  0  0  0  0  0
   -0.0598    2.5662   -1.7830 C   0  0  0  0  0  0  0  0  0  0  0  0
   -2.1705   -1.8991    0.2835 C   0  0  0  0  0  0  0  0  0  0  0  0
    3.8370    1.9338    1.6355 C   0  0  0  0  0  0  0  0  0  0  0  0
   -4.4514   -1.2674    0.6718 C   0  0  0  0  0  0  0  0  0  0  0  0
   -6.7212   -0.7444    0.3042 C   0  0  0  0  0  0  0  0  0  0  0  0
   -1.5126    0.1400   -2.1217 H   0  0  0  0  0  0  0  0  0  0  0  0
   -3.5551    0.5589   -1.2341 H   0  0  0  0  0  0  0  0  0  0  0  0
   -0.2336    0.0097    0.6573 H   0  0  0  0  0  0  0  0  0  0  0  0
   -3.9190    2.0088    0.5779 H   0  0  0  0  0  0  0  0  0  0  0  0
   -1.8876    3.5963    0.1448 H   0  0  0  0  0  0  0  0  0  0  0  0
    1.6240   -1.2398    0.6895 H   0  0  0  0  0  0  0  0  0  0  0  0
    3.2157   -0.9077   -1.9120 H   0  0  0  0  0  0  0  0  0  0  0  0
    4.2025   -2.2386    0.6641 H   0  0  0  0  0  0  0  0  0  0  0  0
    5.0703    0.5162   -0.3559 H   0  0  0  0  0  0  0  0  0  0  0  0
    3.1864   -0.0647    2.0219 H   0  0  0  0  0  0  0  0  0  0  0  0
    0.0029    3.6397   -1.5750 H   0  0  0  0  0  0  0  0  0  0  0  0
    0.9143    2.1250   -1.5572 H   0  0  0  0  0  0  0  0  0  0  0  0
   -2.3465   -2.9016    0.6504 H   0  0  0  0  0  0  0  0  0  0  0  0
   -2.5106    2.1037    2.3735 H   0  0  0  0  0  0  0  0  0  0  0  0
    4.6567    1.9303    2.3595 H   0  0  0  0  0  0  0  0  0  0  0  0
    4.1050    2.5911    0.8016 H   0  0  0  0  0  0  0  0  0  0  0  0
    2.3590   -3.1532   -0.3925 H   0  0  0  0  0  0  0  0  0  0  0  0
    6.1754   -1.9713   -0.4246 H   0  0  0  0  0  0  0  0  0  0  0  0
    5.4324   -0.8664    2.1060 H   0  0  0  0  0  0  0  0  0  0  0  0
    0.4034    2.8305   -3.6510 H   0  0  0  0  0  0  0  0  0  0  0  0
    1.9676    2.4716    1.6115 H   0  0  0  0  0  0  0  0  0  0  0  0
   -6.8950   -0.4630    1.3472 H   0  0  0  0  0  0  0  0  0  0  0  0
   -7.3328   -0.1057   -0.3385 H   0  0  0  0  0  0  0  0  0  0  0  0
   -7.0024   -1.7879    0.1331 H   0  0  0  0  0  0  0  0  0  0  0  0
  1 14  1  0  0  0  0
  1 19  1  0  0  0  0
  2 14  1  0  0  0  0
  2 25  1  0  0  0  0
  3 19  1  0  0  0  0
  3 23  1  0  0  0  0
  4 15  1  0  0  0  0
  4 42  1  0  0  0  0
  5 20  1  0  0  0  0
  5 45  1  0  0  0  0
  6 21  1  0  0  0  0
  6 46  1  0  0  0  0
  7 22  1  0  0  0  0
  7 47  1  0  0  0  0
  8 24  1  0  0  0  0
  8 48  1  0  0  0  0
  9 27  1  0  0  0  0
  9 28  1  0  0  0  0
 10 26  1  0  0  0  0
 10 49  1  0  0  0  0
 11 27  2  0  0  0  0
 12 13  1  0  0  0  0
 12 14  1  0  0  0  0
 12 16  1  0  0  0  0
 12 29  1  0  0  0  0
 13 15  1  0  0  0  0
 13 18  1  0  0  0  0
 13 30  1  0  0  0  0
 14 31  1  0  0  0  0
 15 17  1  0  0  0  0
 15 32  1  0  0  0  0
 16 17  2  0  0  0  0
 16 24  1  0  0  0  0
 17 33  1  0  0  0  0
 18 25  2  0  0  0  0
 18 27  1  0  0  0  0
 19 20  1  0  0  0  0
 19 34  1  0  0  0  0
 20 21  1  0  0  0  0
 20 35  1  0  0  0  0
 21 22  1  0  0  0  0
 21 36  1  0  0  0  0
 22 23  1  0  0  0  0
 22 37  1  0  0  0  0
 23 26  1  0  0  0  0
 23 38  1  0  0  0  0
 24 39  1  0  0  0  0
 24 40  1  0  0  0  0
 25 41  1  0  0  0  0
 26 43  1  0  0  0  0
 26 44  1  0  0  0  0
 28 50  1  0  0  0  0
 28 51  1  0  0  0  0
 28 52  1  0  0  0  0
M  END
> <PUBCHEM_COMPOUND_CID>
6325021

> <PUBCHEM_CONFORMER_RMSD>
1

> <PUBCHEM_CONFORMER_DIVERSEORDER>
1
10
41
35
34
49
45
15
46
5
38
47
40
48
17
57
58
26
33
54
23
20
32
16
43
39
61
42
31
53
24
50
28
52
9
8
2
22
4
25
12
14
37
6
44
36
27
7
56
59
29
51
13
55
21
18
62
30
19
3
60
11

> <PUBCHEM_MMFF94_PARTIAL_CHARGES>
36
1 -0.56
10 -0.68
11 -0.57
12 0.14
13 0.14
14 0.56
15 0.42
16 -0.28
17 -0.29
18 -0.12
19 0.56
2 -0.36
20 0.28
21 0.28
22 0.28
23 0.28
24 0.42
25 -0.07
26 0.28
27 0.71
28 0.28
3 -0.56
33 0.15
4 -0.68
41 0.15
42 0.4
45 0.4
46 0.4
47 0.4
48 0.4
49 0.4
5 -0.68
6 -0.68
7 -0.68
8 -0.68
9 -0.43

> <PUBCHEM_EFFECTIVE_ROTOR_COUNT>
7.8

> <PUBCHEM_PHARMACOPHORE_FEATURES>
19
1 1 acceptor
1 10 acceptor
1 10 donor
1 11 acceptor
1 2 acceptor
1 3 acceptor
1 4 acceptor
1 4 donor
1 5 acceptor
1 5 donor
1 6 acceptor
1 6 donor
1 7 acceptor
1 7 donor
1 8 acceptor
1 8 donor
5 12 13 15 16 17 rings
6 2 12 13 14 18 25 rings
6 3 19 20 21 22 23 rings

> <PUBCHEM_HEAVY_ATOM_COUNT>
28

> <PUBCHEM_ATOM_DEF_STEREO_COUNT>
9

> <PUBCHEM_ATOM_UDEF_STEREO_COUNT>
0

> <PUBCHEM_BOND_DEF_STEREO_COUNT>
0

> <PUBCHEM_BOND_UDEF_STEREO_COUNT>
0

> <PUBCHEM_ISOTOPIC_ATOM_COUNT>
0

> <PUBCHEM_COMPONENT_COUNT>
1

> <PUBCHEM_CACTVS_TAUTO_COUNT>
1

> <PUBCHEM_CONFORMER_ID>
0060831D00000001

> <PUBCHEM_MMFF94_ENERGY>
71.9449

> <PUBCHEM_FEATURE_SELFOVERLAP>
96.662

> <PUBCHEM_SHAPE_FINGERPRINT>
10 15 18341040900825292922
10165383 225 17831589673517015412
10319926 262 18191856839523305314
10366900 7 18335991895669303914
11045977 3 18343301427411350761
11595378 159 17895461554036235978
11796584 16 16008751338049148091
12166972 35 16515686662570934270
12236239 1 16153707609053640399
12422481 6 18266203694211257497
12633257 1 17632293527163209146
12788726 201 16009019541439744445
13402501 40 18413106147962308746
13533116 47 18202846573404631211
13583140 156 18129657491712761638
13673619 4 18340215094351834334
13782708 43 18339930294896889462
14341114 176 18202004334897799994
1813 80 17749106729198833957
18222031 100 18040439901409935623
200 152 14706928436352797254
20600515 1 17678448882140167971
21033648 29 18271231781810975409
21792934 111 18412268329387996297
21792961 116 18272094839069334286
22122407 14 16701751539704538595
23557571 272 18260261928225070381
23559900 14 18335710484858308623
3004659 81 17458352961024135687
3009799 131 18261383452393701447
3411729 13 17316207114174667764
350125 39 18343022220393357792
392239 28 18130791187286024403
394222 165 16957611378353347965
469060 322 17894921693563253721
508706 21 18264197016053826796
5104073 3 18270957922012085074
6287921 2 18268146638262649180

> <PUBCHEM_SHAPE_MULTIPOLES>
511.66
11.97
2.94
1.81
1.11
0.98
0.3
-6.14
-4.56
-0.17
0.6
-0.94
1.35
2.37

> <PUBCHEM_SHAPE_SELFOVERLAP>
1079.711

> <PUBCHEM_SHAPE_VOLUME>
282.3

> <PUBCHEM_COORDINATE_TYPE>
2
5
10

$$$$
