216283
  -OEChem-09242008353D

 53 56  0     1  0  0  0  0  0999 V2000
    1.3934   -0.3094   -0.6098 O   0  0  0  0  0  0  0  0  0  0  0  0
    3.4365   -0.5681    0.4871 O   0  0  0  0  0  0  0  0  0  0  0  0
   -0.8891   -1.2667    0.7471 O   0  0  0  0  0  0  0  0  0  0  0  0
    2.4579    1.8975   -2.0256 O   0  0  0  0  0  0  0  0  0  0  0  0
    4.6061    3.2380   -0.5192 O   0  0  0  0  0  0  0  0  0  0  0  0
    6.5754    1.3150    0.3636 O   0  0  0  0  0  0  0  0  0  0  0  0
    4.8762   -0.4713    2.8551 O   0  0  0  0  0  0  0  0  0  0  0  0
   -5.2522    0.6432    1.5453 O   0  0  0  0  0  0  0  0  0  0  0  0
   -7.3348    1.5491    1.8394 O   0  0  0  0  0  0  0  0  0  0  0  0
    1.1261   -1.7116   -0.5138 C   0  0  0  0  0  0  0  0  0  0  0  0
   -0.3776   -1.9217   -0.4435 C   0  0  2  0  0  0  0  0  0  0  0  0
    2.7962   -0.0553   -0.6790 C   0  0  2  0  0  0  0  0  0  0  0  0
    2.9963    1.4569   -0.7792 C   0  0  1  0  0  0  0  0  0  0  0  0
    4.4776    1.8279   -0.7067 C   0  0  2  0  0  0  0  0  0  0  0  0
    5.1660    1.1302    0.4666 C   0  0  1  0  0  0  0  0  0  0  0  0
    4.8509   -0.3676    0.4685 C   0  0  1  0  0  0  0  0  0  0  0  0
   -1.1092   -1.3587   -1.6716 C   0  0  0  0  0  0  0  0  0  0  0  0
    1.7235   -2.3991   -1.7443 C   0  0  0  0  0  0  0  0  0  0  0  0
    1.8074   -2.2171    0.7595 C   0  0  0  0  0  0  0  0  0  0  0  0
   -2.3285   -0.8469   -1.0064 C   0  0  0  0  0  0  0  0  0  0  0  0
   -2.1204   -0.7992    0.3653 C   0  0  0  0  0  0  0  0  0  0  0  0
    5.4303   -1.0650    1.6953 C   0  0  0  0  0  0  0  0  0  0  0  0
   -3.5128   -0.3972   -1.5681 C   0  0  0  0  0  0  0  0  0  0  0  0
   -3.0719   -0.3033    1.2329 C   0  0  0  0  0  0  0  0  0  0  0  0
   -4.5035    0.0999   -0.7137 C   0  0  0  0  0  0  0  0  0  0  0  0
   -4.2676    0.1399    0.6679 C   0  0  0  0  0  0  0  0  0  0  0  0
   -5.7769    0.5877   -1.2174 C   0  0  0  0  0  0  0  0  0  0  0  0
   -6.6991    1.0609   -0.3757 C   0  0  0  0  0  0  0  0  0  0  0  0
   -6.4764    1.1123    1.0807 C   0  0  0  0  0  0  0  0  0  0  0  0
   -0.6096   -2.9919   -0.3384 H   0  0  0  0  0  0  0  0  0  0  0  0
    3.2244   -0.5008   -1.5839 H   0  0  0  0  0  0  0  0  0  0  0  0
    2.4348    1.9687    0.0123 H   0  0  0  0  0  0  0  0  0  0  0  0
    4.9771    1.5941   -1.6550 H   0  0  0  0  0  0  0  0  0  0  0  0
    4.8384    1.6129    1.3943 H   0  0  0  0  0  0  0  0  0  0  0  0
    5.2727   -0.8545   -0.4207 H   0  0  0  0  0  0  0  0  0  0  0  0
   -1.3189   -2.1410   -2.4069 H   0  0  0  0  0  0  0  0  0  0  0  0
   -0.5822   -0.5306   -2.1557 H   0  0  0  0  0  0  0  0  0  0  0  0
    2.8106   -2.5225   -1.6873 H   0  0  0  0  0  0  0  0  0  0  0  0
    1.3169   -3.4115   -1.8544 H   0  0  0  0  0  0  0  0  0  0  0  0
    1.5076   -1.8459   -2.6653 H   0  0  0  0  0  0  0  0  0  0  0  0
    1.7427   -1.5192    1.6029 H   0  0  0  0  0  0  0  0  0  0  0  0
    2.8225   -2.6030    0.6135 H   0  0  0  0  0  0  0  0  0  0  0  0
    1.2772   -3.1179    1.1028 H   0  0  0  0  0  0  0  0  0  0  0  0
    6.5221   -1.0020    1.7374 H   0  0  0  0  0  0  0  0  0  0  0  0
    5.1436   -2.1212    1.7026 H   0  0  0  0  0  0  0  0  0  0  0  0
   -3.6566   -0.4277   -2.6437 H   0  0  0  0  0  0  0  0  0  0  0  0
    2.6129    2.8556   -2.0861 H   0  0  0  0  0  0  0  0  0  0  0  0
    5.5561    3.4392   -0.4661 H   0  0  0  0  0  0  0  0  0  0  0  0
    6.8731    0.8994   -0.4636 H   0  0  0  0  0  0  0  0  0  0  0  0
   -2.8994   -0.2637    2.3021 H   0  0  0  0  0  0  0  0  0  0  0  0
    5.3886    0.3307    3.0526 H   0  0  0  0  0  0  0  0  0  0  0  0
   -5.9647    0.5608   -2.2851 H   0  0  0  0  0  0  0  0  0  0  0  0
   -7.6504    1.4255   -0.7477 H   0  0  0  0  0  0  0  0  0  0  0  0
  1 10  1  0  0  0  0
  1 12  1  0  0  0  0
  2 12  1  0  0  0  0
  2 16  1  0  0  0  0
  3 11  1  0  0  0  0
  3 21  1  0  0  0  0
  4 13  1  0  0  0  0
  4 47  1  0  0  0  0
  5 14  1  0  0  0  0
  5 48  1  0  0  0  0
  6 15  1  0  0  0  0
  6 49  1  0  0  0  0
  7 22  1  0  0  0  0
  7 51  1  0  0  0  0
  8 26  1  0  0  0  0
  8 29  1  0  0  0  0
  9 29  2  0  0  0  0
 10 11  1  0  0  0  0
 10 18  1  0  0  0  0
 10 19  1  0  0  0  0
 11 17  1  0  0  0  0
 11 30  1  0  0  0  0
 12 13  1  0  0  0  0
 12 31  1  0  0  0  0
 13 14  1  0  0  0  0
 13 32  1  0  0  0  0
 14 15  1  0  0  0  0
 14 33  1  0  0  0  0
 15 16  1  0  0  0  0
 15 34  1  0  0  0  0
 16 22  1  0  0  0  0
 16 35  1  0  0  0  0
 17 20  1  0  0  0  0
 17 36  1  0  0  0  0
 17 37  1  0  0  0  0
 18 38  1  0  0  0  0
 18 39  1  0  0  0  0
 18 40  1  0  0  0  0
 19 41  1  0  0  0  0
 19 42  1  0  0  0  0
 19 43  1  0  0  0  0
 20 21  2  0  0  0  0
 20 23  1  0  0  0  0
 21 24  1  0  0  0  0
 22 44  1  0  0  0  0
 22 45  1  0  0  0  0
 23 25  2  0  0  0  0
 23 46  1  0  0  0  0
 24 26  2  0  0  0  0
 24 50  1  0  0  0  0
 25 26  1  0  0  0  0
 25 27  1  0  0  0  0
 27 28  2  0  0  0  0
 27 52  1  0  0  0  0
 28 29  1  0  0  0  0
 28 53  1  0  0  0  0
M  END
> <PUBCHEM_COMPOUND_CID>
216283

> <PUBCHEM_CONFORMER_RMSD>
0.8

> <PUBCHEM_CONFORMER_DIVERSEORDER>
5
1
13
6
4
11
8
2
3
9
7
12
10

> <PUBCHEM_MMFF94_PARTIAL_CHARGES>
35
1 -0.56
10 0.28
11 0.28
12 0.56
13 0.28
14 0.28
15 0.28
16 0.28
17 0.14
2 -0.56
20 -0.14
21 0.08
22 0.28
23 -0.15
24 -0.15
25 0.03
26 0.08
27 -0.18
28 -0.14
29 0.71
3 -0.36
4 -0.68
46 0.15
47 0.4
48 0.4
49 0.4
5 -0.68
50 0.15
51 0.4
52 0.15
53 0.15
6 -0.68
7 -0.68
8 -0.23
9 -0.57

> <PUBCHEM_EFFECTIVE_ROTOR_COUNT>
5.8

> <PUBCHEM_PHARMACOPHORE_FEATURES>
17
1 1 acceptor
1 2 acceptor
1 3 acceptor
1 4 acceptor
1 4 donor
1 5 acceptor
1 5 donor
1 6 acceptor
1 6 donor
1 7 acceptor
1 7 donor
1 9 acceptor
3 10 18 19 hydrophobe
5 3 11 17 20 21 rings
6 2 12 13 14 15 16 rings
6 20 21 23 24 25 26 rings
6 8 25 26 27 28 29 rings

> <PUBCHEM_HEAVY_ATOM_COUNT>
29

> <PUBCHEM_ATOM_DEF_STEREO_COUNT>
6

> <PUBCHEM_ATOM_UDEF_STEREO_COUNT>
0

> <PUBCHEM_BOND_DEF_STEREO_COUNT>
0

> <PUBCHEM_BOND_UDEF_STEREO_COUNT>
0

> <PUBCHEM_ISOTOPIC_ATOM_COUNT>
0

> <PUBCHEM_COMPONENT_COUNT>
1

> <PUBCHEM_CACTVS_TAUTO_COUNT>
1

> <PUBCHEM_CONFORMER_ID>
00034CDB00000005

> <PUBCHEM_MMFF94_ENERGY>
115.5795

> <PUBCHEM_FEATURE_SELFOVERLAP>
86.472

> <PUBCHEM_SHAPE_FINGERPRINT>
10 15 18041001735083264451
10319926 262 15864069845729143807
10692045 39 18187081706950700211
10928967 22 11242242004555841808
11961588 58 15841545284307600991
12128747 34 16734092458316465110
12236239 1 17988921150546536423
12422481 6 18262790779246754340
12633257 1 18040711480750769738
13782708 43 16008744697792234107
14251764 30 13479399536484728464
14251764 75 18192440877043645300
14341114 176 17240481399227688782
14347332 77 8430322333461545127
14931854 50 12031519799657734356
15183329 4 17561361786341657585
15188451 53 14418138452549592747
15238133 3 18059852883284529720
15348495 7 17095812104515183153
15475509 35 15719659967136080792
1577012 14 18342453759559162934
19784866 240 8070026658232068395
20567600 247 9367343726010608565
21033648 29 16298926728236286111
21298829 104 18059860545464566033
21315759 148 15430305928623728492
21637258 2 10737284658228061263
21774942 28 16487259816084677840
21792934 111 16660365836821329965
21859007 373 16589133936807398567
22122407 14 18409456894497463497
22950370 63 8214153970562855302
23559900 14 16733558087598320535
23569914 152 12532290004328368081
2748736 6 18202281403270044865
2767999 5 18202279208383175985
2838139 119 18411132529006913045
312425 54 16877663465730788073
3178227 256 17676199153471475714
3383291 50 13768222605587280873
3472631 163 16988552528911642410
34797466 226 14620506865628185179
351380 3 11097854094741023869
3633792 109 17489595550474857566
3680242 22 18335134289336691356
392239 28 17822017497674509121
397830 11 18187661223320943907
465052 167 11386372534296479123
474 4 18412826888809187679
474113 269 13695875891867783257
5104073 3 18041837427896874466
513532 50 16559033770751396228
5385378 56 18410294684003647022
54039377 194 8646507223526246480
543368 44 17989488516248362733
57724786 102 18188492492549989748
59682541 52 15697732415001215868
6608658 132 16845024411832088121
7970288 3 11386359361468940689
960060 61 11312055439505427811

> <PUBCHEM_SHAPE_MULTIPOLES>
543.98
17.67
2.34
1.89
11.97
0.31
-0.48
12.03
-6.24
-2.51
0.69
-0.36
0
-2.18

> <PUBCHEM_SHAPE_SELFOVERLAP>
1184.13

> <PUBCHEM_SHAPE_VOLUME>
294.6

> <PUBCHEM_COORDINATE_TYPE>
2
5
10

$$$$
