5368766
  -OEChem-09172007143D

 20 19  0     0  0  0  0  0  0999 V2000
   -0.5728   -0.3486   -0.0007 C   0  0  0  0  0  0  0  0  0  0  0  0
    0.5729    0.3494   -0.0007 C   0  0  0  0  0  0  0  0  0  0  0  0
   -1.8766    0.2769   -0.0001 C   0  0  0  0  0  0  0  0  0  0  0  0
    1.8766   -0.2765   -0.0004 C   0  0  0  0  0  0  0  0  0  0  0  0
   -3.0236   -0.4181   -0.0002 C   0  0  0  0  0  0  0  0  0  0  0  0
    3.0239    0.4181   -0.0003 C   0  0  0  0  0  0  0  0  0  0  0  0
   -4.3762    0.2153    0.0011 C   0  0  0  0  0  0  0  0  0  0  0  0
    4.3759   -0.2165    0.0013 C   0  0  0  0  0  0  0  0  0  0  0  0
   -0.5464   -1.4361   -0.0008 H   0  0  0  0  0  0  0  0  0  0  0  0
    0.5467    1.4369   -0.0004 H   0  0  0  0  0  0  0  0  0  0  0  0
   -1.9088    1.3636    0.0008 H   0  0  0  0  0  0  0  0  0  0  0  0
    1.9084   -1.3632    0.0003 H   0  0  0  0  0  0  0  0  0  0  0  0
   -3.0020   -1.5053   -0.0010 H   0  0  0  0  0  0  0  0  0  0  0  0
    3.0028    1.5053   -0.0007 H   0  0  0  0  0  0  0  0  0  0  0  0
   -4.9350   -0.0983   -0.8859 H   0  0  0  0  0  0  0  0  0  0  0  0
   -4.3230    1.3086    0.0020 H   0  0  0  0  0  0  0  0  0  0  0  0
   -4.9339   -0.0997    0.8883 H   0  0  0  0  0  0  0  0  0  0  0  0
    4.9352    0.0966   -0.8856 H   0  0  0  0  0  0  0  0  0  0  0  0
    4.9337    0.0981    0.8886 H   0  0  0  0  0  0  0  0  0  0  0  0
    4.3220   -1.3098    0.0022 H   0  0  0  0  0  0  0  0  0  0  0  0
  1  2  2  0  0  0  0
  1  3  1  0  0  0  0
  1  9  1  0  0  0  0
  2  4  1  0  0  0  0
  2 10  1  0  0  0  0
  3  5  2  0  0  0  0
  3 11  1  0  0  0  0
  4  6  2  0  0  0  0
  4 12  1  0  0  0  0
  5  7  1  0  0  0  0
  5 13  1  0  0  0  0
  6  8  1  0  0  0  0
  6 14  1  0  0  0  0
  7 15  1  0  0  0  0
  7 16  1  0  0  0  0
  7 17  1  0  0  0  0
  8 18  1  0  0  0  0
  8 19  1  0  0  0  0
  8 20  1  0  0  0  0
M  END
> <PUBCHEM_COMPOUND_CID>
5368766

> <PUBCHEM_CONFORMER_RMSD>
0.4

> <PUBCHEM_CONFORMER_DIVERSEORDER>
1
2
4
3

> <PUBCHEM_MMFF94_PARTIAL_CHARGES>
14
1 -0.15
10 0.15
11 0.15
12 0.15
13 0.15
14 0.15
2 -0.15
3 -0.15
4 -0.15
5 -0.29
6 -0.29
7 0.14
8 0.14
9 0.15

> <PUBCHEM_EFFECTIVE_ROTOR_COUNT>
2

> <PUBCHEM_PHARMACOPHORE_FEATURES>
2
1 7 hydrophobe
1 8 hydrophobe

> <PUBCHEM_HEAVY_ATOM_COUNT>
8

> <PUBCHEM_ATOM_DEF_STEREO_COUNT>
0

> <PUBCHEM_ATOM_UDEF_STEREO_COUNT>
0

> <PUBCHEM_BOND_DEF_STEREO_COUNT>
3

> <PUBCHEM_BOND_UDEF_STEREO_COUNT>
0

> <PUBCHEM_ISOTOPIC_ATOM_COUNT>
0

> <PUBCHEM_COMPONENT_COUNT>
1

> <PUBCHEM_CACTVS_TAUTO_COUNT>
1

> <PUBCHEM_CONFORMER_ID>
0051EBBE00000001

> <PUBCHEM_MMFF94_ENERGY>
2.482

> <PUBCHEM_FEATURE_SELFOVERLAP>
10.149

> <PUBCHEM_SHAPE_FINGERPRINT>
11062470 55 18410575093258301249
12932764 1 18337935857563998566
14325111 11 18410856568250933603
190213 19 15769779065071861782
20645477 70 18200313204146658279
20719005 15 18410575088968628195
22485316 2 18201997733332709790
23402539 116 17489300872209444693
42788 4 18410575089221868268
5460574 1 9223234043850522624

> <PUBCHEM_SHAPE_MULTIPOLES>
164.64
8.65
0.72
0.62
0
0
0
0
0
0
0
0
0
0

> <PUBCHEM_SHAPE_SELFOVERLAP>
300.042

> <PUBCHEM_SHAPE_VOLUME>
105.2

> <PUBCHEM_COORDINATE_TYPE>
2
5
10

$$$$
