91747889
  -OEChem-08222005153D

 40 41  0     1  0  0  0  0  0999 V2000
   -2.0906    0.7007   -0.7694 O   0  0  0  0  0  0  0  0  0  0  0  0
   -3.2209    1.0642    0.0395 C   0  0  0  0  0  0  0  0  0  0  0  0
   -2.7989   -0.3813   -0.1501 C   0  0  2  0  0  0  0  0  0  0  0  0
   -2.0075   -1.1502    0.8636 C   0  0  0  0  0  0  0  0  0  0  0  0
   -4.3847    1.5792   -0.7482 C   0  0  0  0  0  0  0  0  0  0  0  0
   -2.8651    1.8243    1.2778 C   0  0  0  0  0  0  0  0  0  0  0  0
    0.9787   -0.6673    0.0872 C   0  0  1  0  0  0  0  0  0  0  0  0
   -1.0541   -2.1529    0.2756 C   0  0  0  0  0  0  0  0  0  0  0  0
    0.2345   -1.9597   -0.0638 C   0  0  0  0  0  0  0  0  0  0  0  0
    2.1686   -0.8194    1.0417 C   0  0  0  0  0  0  0  0  0  0  0  0
    1.4579   -0.1473   -1.2786 C   0  0  0  0  0  0  0  0  0  0  0  0
    2.8963    0.5144    1.2395 C   0  0  0  0  0  0  0  0  0  0  0  0
    3.1041    1.2859   -0.0389 C   0  0  0  0  0  0  0  0  0  0  0  0
    2.4594    0.9661   -1.1739 C   0  0  0  0  0  0  0  0  0  0  0  0
    1.0527   -3.0885   -0.6314 C   0  0  0  0  0  0  0  0  0  0  0  0
    4.0695    2.4320    0.0295 C   0  0  0  0  0  0  0  0  0  0  0  0
   -3.4042   -1.0187   -0.7830 H   0  0  0  0  0  0  0  0  0  0  0  0
   -1.4710   -0.4910    1.5523 H   0  0  0  0  0  0  0  0  0  0  0  0
   -2.7154   -1.6966    1.4999 H   0  0  0  0  0  0  0  0  0  0  0  0
   -4.5581    0.9905   -1.6554 H   0  0  0  0  0  0  0  0  0  0  0  0
   -5.2966    1.5418   -0.1437 H   0  0  0  0  0  0  0  0  0  0  0  0
   -1.8150    1.6984    1.5597 H   0  0  0  0  0  0  0  0  0  0  0  0
   -4.2151    2.6174   -1.0517 H   0  0  0  0  0  0  0  0  0  0  0  0
   -3.0291    2.8976    1.1341 H   0  0  0  0  0  0  0  0  0  0  0  0
   -3.4898    1.4956    2.1142 H   0  0  0  0  0  0  0  0  0  0  0  0
    0.3257    0.1039    0.5129 H   0  0  0  0  0  0  0  0  0  0  0  0
   -1.4863   -3.1397    0.1156 H   0  0  0  0  0  0  0  0  0  0  0  0
    2.9005   -1.5364    0.6498 H   0  0  0  0  0  0  0  0  0  0  0  0
    1.8404   -1.2006    2.0166 H   0  0  0  0  0  0  0  0  0  0  0  0
    0.5915    0.2116   -1.8480 H   0  0  0  0  0  0  0  0  0  0  0  0
    1.9309   -0.9238   -1.8872 H   0  0  0  0  0  0  0  0  0  0  0  0
    3.8638    0.3134    1.7152 H   0  0  0  0  0  0  0  0  0  0  0  0
    2.3218    1.1413    1.9328 H   0  0  0  0  0  0  0  0  0  0  0  0
    2.6491    1.5333   -2.0815 H   0  0  0  0  0  0  0  0  0  0  0  0
    1.3618   -2.9000   -1.6621 H   0  0  0  0  0  0  0  0  0  0  0  0
    1.9346   -3.3072   -0.0245 H   0  0  0  0  0  0  0  0  0  0  0  0
    0.4728   -4.0194   -0.6592 H   0  0  0  0  0  0  0  0  0  0  0  0
    3.7406    3.1598    0.7783 H   0  0  0  0  0  0  0  0  0  0  0  0
    4.1578    2.9557   -0.9281 H   0  0  0  0  0  0  0  0  0  0  0  0
    5.0660    2.0734    0.3067 H   0  0  0  0  0  0  0  0  0  0  0  0
  1  2  1  0  0  0  0
  1  3  1  0  0  0  0
  2  3  1  0  0  0  0
  2  5  1  0  0  0  0
  2  6  1  0  0  0  0
  3  4  1  0  0  0  0
  3 17  1  0  0  0  0
  4  8  1  0  0  0  0
  4 18  1  0  0  0  0
  4 19  1  0  0  0  0
  5 20  1  0  0  0  0
  5 21  1  0  0  0  0
  5 23  1  0  0  0  0
  6 22  1  0  0  0  0
  6 24  1  0  0  0  0
  6 25  1  0  0  0  0
  7  9  1  0  0  0  0
  7 10  1  0  0  0  0
  7 11  1  0  0  0  0
  7 26  1  0  0  0  0
  8  9  2  0  0  0  0
  8 27  1  0  0  0  0
  9 15  1  0  0  0  0
 10 12  1  0  0  0  0
 10 28  1  0  0  0  0
 10 29  1  0  0  0  0
 11 14  1  0  0  0  0
 11 30  1  0  0  0  0
 11 31  1  0  0  0  0
 12 13  1  0  0  0  0
 12 32  1  0  0  0  0
 12 33  1  0  0  0  0
 13 14  2  0  0  0  0
 13 16  1  0  0  0  0
 14 34  1  0  0  0  0
 15 35  1  0  0  0  0
 15 36  1  0  0  0  0
 15 37  1  0  0  0  0
 16 38  1  0  0  0  0
 16 39  1  0  0  0  0
 16 40  1  0  0  0  0
M  END
> <PUBCHEM_COMPOUND_CID>
91747889

> <PUBCHEM_CONFORMER_RMSD>
0.6

> <PUBCHEM_CONFORMER_DIVERSEORDER>
3
79
80
52
114
105
123
63
81
125
106
127
40
76
71
109
48
87
108
56
42
73
118
74
83
59
128
67
58
77
85
32
61
19
126
100
20
54
50
98
30
70
9
111
121
35
96
101
89
7
46
14
33
115
124
75
13
107
27
72
22
93
47
110
45
23
66
120
78
84
28
99
11
117
119
82
92
97
24
44
103
8
60
21
113
16
41
51
36
18
68
15
39
95
25
34
37
5
90
62
94
122
29
69
86
88
53
55
12
26
38
104
64
43
17
112
49
4
31
2
57
116
6
10
91
65
102
1

> <PUBCHEM_MMFF94_PARTIAL_CHARGES>
18
1 -0.3
11 0.14
12 0.14
13 -0.28
14 -0.29
15 0.14
16 0.14
17 0.1
2 -0.04
27 0.15
3 -0.05
34 0.15
4 0.23
5 0.09
6 0.09
7 0.14
8 -0.29
9 -0.28

> <PUBCHEM_EFFECTIVE_ROTOR_COUNT>
4.4

> <PUBCHEM_PHARMACOPHORE_FEATURES>
4
1 1 acceptor
1 15 hydrophobe
3 2 5 6 hydrophobe
6 7 10 11 12 13 14 rings

> <PUBCHEM_HEAVY_ATOM_COUNT>
16

> <PUBCHEM_ATOM_DEF_STEREO_COUNT>
0

> <PUBCHEM_ATOM_UDEF_STEREO_COUNT>
2

> <PUBCHEM_BOND_DEF_STEREO_COUNT>
1

> <PUBCHEM_BOND_UDEF_STEREO_COUNT>
0

> <PUBCHEM_ISOTOPIC_ATOM_COUNT>
0

> <PUBCHEM_COMPONENT_COUNT>
1

> <PUBCHEM_CACTVS_TAUTO_COUNT>
1

> <PUBCHEM_CONFORMER_ID>
0577F63100000003

> <PUBCHEM_MMFF94_ENERGY>
21.1385

> <PUBCHEM_FEATURE_SELFOVERLAP>
20.297

> <PUBCHEM_SHAPE_FINGERPRINT>
10498660 4 18412829096738797705
11140007 195 13840823237513320787
11471102 22 14997107224940448798
11640471 11 18410848858874223841
11725454 13 16341701072642715554
12382932 28 18187367627418794821
13134695 92 17833265316236786623
13464514 151 18128555772761919454
13618510 140 18411702075644796961
13764800 53 18337965574796219283
13965767 371 18041274370469277548
14123255 52 18409448098224852413
14250199 8 18125439705501283783
14251731 5 9367350348660463257
14957384 54 18261662783580636744
15209294 21 18042956774311480824
15342168 16 18409168771290971941
15775835 57 18187645833672211576
1741750 31 18339644550494956104
17834072 32 18409729603224343793
1798214 55 18409733958463411925
18186145 218 18272101465005976717
18981168 100 18195273090184115947
20291156 8 9871754597826397129
20361792 2 9151167641130115363
20510252 161 18196943385685460275
20621476 13 17975687290971652325
20645477 56 17911813667205768730
20671657 1 18267028258337081247
20715895 44 17754153307820568221
21524375 3 18409443704399513899
21713013 43 14045733833809554381
21947302 44 18269276772627307483
22749437 52 18337388241008223665
23402539 116 17696190691939968614
23557571 272 18055080010223873254
27216 239 18188775088212126849
305870 269 18408885152819651270
43658 37 18409725124169046549
474 4 18338230454093209465
526903 126 18342459261760708073
5902787 121 9151181930465515358
7364860 26 18197216953643346110
8050 44 18336548231393740021
81228 2 17336750488370822962
84936 182 18129662993507825929
94968 8 10807634723566490157
9981440 41 18338790212490557931

> <PUBCHEM_SHAPE_MULTIPOLES>
323.4
7.2
2.95
1.22
2.31
1.24
0.06
-6.66
-0.03
-0.62
-0.12
-0.2
-0.19
0.11

> <PUBCHEM_SHAPE_SELFOVERLAP>
646.018

> <PUBCHEM_SHAPE_VOLUME>
189.2

> <PUBCHEM_COORDINATE_TYPE>
2
5
10

$$$$
