6430608
  -OEChem-08222005243D

 40 43  0     1  0  0  0  0  0999 V2000
   -2.0621    1.2159   -1.2547 O   0  0  0  0  0  0  0  0  0  0  0  0
    1.2497   -0.1976    0.7480 C   0  0  2  0  0  0  0  0  0  0  0  0
    1.5797    1.2707    0.6527 C   0  0  1  0  0  0  0  0  0  0  0  0
    2.4571    0.2544   -0.0304 C   0  0  0  0  0  0  0  0  0  0  0  0
    0.0411   -0.7415    0.0393 C   0  0  2  0  0  0  0  0  0  0  0  0
   -1.2572   -0.1716    0.6495 C   0  0  1  0  0  0  0  0  0  0  0  0
   -1.6028    1.2011    0.1064 C   0  0  1  0  0  0  0  0  0  0  0  0
    0.7236    2.2051   -0.1475 C   0  0  0  0  0  0  0  0  0  0  0  0
   -0.0679   -2.2799    0.1809 C   0  0  1  0  0  0  0  0  0  0  0  0
   -0.6769    2.3492    0.4517 C   0  0  0  0  0  0  0  0  0  0  0  0
   -2.2689   -1.2828    0.3676 C   0  0  0  0  0  0  0  0  0  0  0  0
   -1.4919   -2.5518    0.6790 C   0  0  0  0  0  0  0  0  0  0  0  0
   -3.0341    1.5550   -0.2568 C   0  0  0  0  0  0  0  0  0  0  0  0
    3.8319   -0.0194    0.4787 C   0  0  0  0  0  0  0  0  0  0  0  0
    2.3653    0.1742   -1.5179 C   0  0  0  0  0  0  0  0  0  0  0  0
    0.2133   -2.9812   -1.1465 C   0  0  0  0  0  0  0  0  0  0  0  0
    1.3973   -0.6471    1.7245 H   0  0  0  0  0  0  0  0  0  0  0  0
    1.9469    1.7430    1.5579 H   0  0  0  0  0  0  0  0  0  0  0  0
    0.0153   -0.4994   -1.0236 H   0  0  0  0  0  0  0  0  0  0  0  0
   -1.1484   -0.0800    1.7397 H   0  0  0  0  0  0  0  0  0  0  0  0
    0.6299    1.9722   -1.2080 H   0  0  0  0  0  0  0  0  0  0  0  0
    1.2116    3.1877   -0.1090 H   0  0  0  0  0  0  0  0  0  0  0  0
    0.6456   -2.6718    0.9163 H   0  0  0  0  0  0  0  0  0  0  0  0
   -0.6208    2.4482    1.5427 H   0  0  0  0  0  0  0  0  0  0  0  0
   -1.1060    3.2879    0.0785 H   0  0  0  0  0  0  0  0  0  0  0  0
   -2.5834   -1.2896   -0.6828 H   0  0  0  0  0  0  0  0  0  0  0  0
   -3.1653   -1.1969    0.9895 H   0  0  0  0  0  0  0  0  0  0  0  0
   -1.4728   -2.7073    1.7649 H   0  0  0  0  0  0  0  0  0  0  0  0
   -1.9519   -3.4366    0.2280 H   0  0  0  0  0  0  0  0  0  0  0  0
   -3.8325    0.8495   -0.0716 H   0  0  0  0  0  0  0  0  0  0  0  0
   -3.3501    2.5897   -0.2007 H   0  0  0  0  0  0  0  0  0  0  0  0
    3.8778    0.0423    1.5715 H   0  0  0  0  0  0  0  0  0  0  0  0
    4.1596   -1.0237    0.1901 H   0  0  0  0  0  0  0  0  0  0  0  0
    4.5470    0.7056    0.0759 H   0  0  0  0  0  0  0  0  0  0  0  0
    1.4111    0.3656   -2.0051 H   0  0  0  0  0  0  0  0  0  0  0  0
    3.0704    0.8891   -1.9606 H   0  0  0  0  0  0  0  0  0  0  0  0
    2.6819   -0.8217   -1.8503 H   0  0  0  0  0  0  0  0  0  0  0  0
    0.1155   -4.0664   -1.0362 H   0  0  0  0  0  0  0  0  0  0  0  0
   -0.4838   -2.6594   -1.9277 H   0  0  0  0  0  0  0  0  0  0  0  0
    1.2312   -2.7716   -1.4887 H   0  0  0  0  0  0  0  0  0  0  0  0
  1  7  1  0  0  0  0
  1 13  1  0  0  0  0
  2  3  1  0  0  0  0
  2  4  1  0  0  0  0
  2  5  1  0  0  0  0
  2 17  1  0  0  0  0
  3  4  1  0  0  0  0
  3  8  1  0  0  0  0
  3 18  1  0  0  0  0
  4 14  1  0  0  0  0
  4 15  1  0  0  0  0
  5  6  1  0  0  0  0
  5  9  1  0  0  0  0
  5 19  1  0  0  0  0
  6  7  1  0  0  0  0
  6 11  1  0  0  0  0
  6 20  1  0  0  0  0
  7 10  1  0  0  0  0
  7 13  1  0  0  0  0
  8 10  1  0  0  0  0
  8 21  1  0  0  0  0
  8 22  1  0  0  0  0
  9 12  1  0  0  0  0
  9 16  1  0  0  0  0
  9 23  1  0  0  0  0
 10 24  1  0  0  0  0
 10 25  1  0  0  0  0
 11 12  1  0  0  0  0
 11 26  1  0  0  0  0
 11 27  1  0  0  0  0
 12 28  1  0  0  0  0
 12 29  1  0  0  0  0
 13 30  1  0  0  0  0
 13 31  1  0  0  0  0
 14 32  1  0  0  0  0
 14 33  1  0  0  0  0
 14 34  1  0  0  0  0
 15 35  1  0  0  0  0
 15 36  1  0  0  0  0
 15 37  1  0  0  0  0
 16 38  1  0  0  0  0
 16 39  1  0  0  0  0
 16 40  1  0  0  0  0
M  END
> <PUBCHEM_COMPOUND_CID>
6430608

> <PUBCHEM_CONFORMER_RMSD>
0.6

> <PUBCHEM_CONFORMER_DIVERSEORDER>
4
12
10
3
11
13
5
7
8
2
1
9
6

> <PUBCHEM_MMFF94_PARTIAL_CHARGES>
16
1 -0.3
10 0.09
13 -0.05
14 0.09
15 0.09
17 0.1
18 0.1
2 -0.19
3 -0.19
30 0.1
31 0.1
4 -0.19
5 0.09
6 0.09
7 -0.04
8 0.09

> <PUBCHEM_EFFECTIVE_ROTOR_COUNT>
1.6

> <PUBCHEM_PHARMACOPHORE_FEATURES>
4
1 1 acceptor
3 4 14 15 hydrophobe
5 5 6 9 11 12 rings
7 2 3 5 6 7 8 10 rings

> <PUBCHEM_HEAVY_ATOM_COUNT>
16

> <PUBCHEM_ATOM_DEF_STEREO_COUNT>
2

> <PUBCHEM_ATOM_UDEF_STEREO_COUNT>
4

> <PUBCHEM_BOND_DEF_STEREO_COUNT>
0

> <PUBCHEM_BOND_UDEF_STEREO_COUNT>
0

> <PUBCHEM_ISOTOPIC_ATOM_COUNT>
0

> <PUBCHEM_COMPONENT_COUNT>
1

> <PUBCHEM_CACTVS_TAUTO_COUNT>
1

> <PUBCHEM_CONFORMER_ID>
00621F9000000004

> <PUBCHEM_MMFF94_ENERGY>
48.4343

> <PUBCHEM_FEATURE_SELFOVERLAP>
20.32

> <PUBCHEM_SHAPE_FINGERPRINT>
10967382 1 18266176123824121251
11206711 2 18336266850658468143
11321824 6 18340472469850354426
12423570 1 10964246806163681176
13140716 1 18411141371996474569
13380535 76 18337948974594782123
14115302 16 18260553298922722468
14181834 199 17829885430403973230
14251711 518 17331688353899795310
14614273 12 18334575728887098567
15207287 21 17988630857991086156
15490181 8 18122909728802588192
15775835 57 18040997310760872080
15852999 172 18265039250291700390
15881359 60 17773873292880755287
161256 15 17833276693551996609
16945 1 18188209934824431555
193761 8 18049439549975468281
20588541 1 18338518521565235553
20645476 183 17822022994757861782
20871998 184 18341054132796708898
20905425 154 18053102822060756471
21501502 16 18192999446045625536
21524375 3 18334850576655502859
22344851 341 17476356098086825088
22802520 49 18057341504015901734
2334 1 18267024049200481441
23388829 49 16325689176453777739
23402539 116 18271228461622089044
23419403 2 14976259461775030618
23526113 38 17703508788368419264
23552423 10 16322033308939606811
23557571 272 18269567194485073964
23559900 14 18341334414853673028
25 1 18267298725470685789
257057 1 17621583343527318630
2748010 2 18339923826126950089
2897 32 17112982863804334252
3060560 45 18266436768589631517
465052 167 17750819777506009913
7364860 26 17694776320479959624
7832392 63 17187856857214784483
81228 2 18047741882789594715

> <PUBCHEM_SHAPE_MULTIPOLES>
323.4
4.12
3.15
1.07
2
1.24
0.3
-0.82
0.03
-1.56
0.3
0.22
0.15
0.49

> <PUBCHEM_SHAPE_SELFOVERLAP>
685.914

> <PUBCHEM_SHAPE_VOLUME>
183.3

> <PUBCHEM_COORDINATE_TYPE>
2
5
10

$$$$
