101688189
  -OEChem-09182005393D

 62 63  0     1  0  0  0  0  0999 V2000
    4.6002    0.2323   -0.0114 O   0  0  0  0  0  0  0  0  0  0  0  0
    2.3372    0.0013   -0.6877 O   0  0  0  0  0  0  0  0  0  0  0  0
    3.5343    4.1564   -0.8279 O   0  0  0  0  0  0  0  0  0  0  0  0
    4.8946    2.1237   -2.1553 O   0  0  0  0  0  0  0  0  0  0  0  0
    3.9871    3.3426    1.8700 O   0  0  0  0  0  0  0  0  0  0  0  0
    0.0771   -1.0537    0.3334 O   0  0  0  0  0  0  0  0  0  0  0  0
    1.5994   -3.0300   -2.5827 O   0  0  0  0  0  0  0  0  0  0  0  0
    2.8860   -3.0326    1.5138 O   0  0  0  0  0  0  0  0  0  0  0  0
    1.6113   -2.5757    3.9149 O   0  0  0  0  0  0  0  0  0  0  0  0
   -0.6753   -1.7038   -2.9705 O   0  0  0  0  0  0  0  0  0  0  0  0
   -1.3309   -2.7898   -0.2505 O   0  0  0  0  0  0  0  0  0  0  0  0
   -8.0616    0.3611   -0.8563 O   0  0  0  0  0  0  0  0  0  0  0  0
   -7.7418    2.6906    0.6267 O   0  0  0  0  0  0  0  0  0  0  0  0
    3.3891    2.8090   -0.3850 C   0  0  1  0  0  0  0  0  0  0  0  0
    3.6297    1.8488   -1.5510 C   0  0  2  0  0  0  0  0  0  0  0  0
    4.3744    2.5445    0.7542 C   0  0  2  0  0  0  0  0  0  0  0  0
    3.6496    0.3994   -1.0689 C   0  0  1  0  0  0  0  0  0  0  0  0
    4.3561    1.0570    1.1326 C   0  0  2  0  0  0  0  0  0  0  0  0
    2.1361   -1.3988   -0.9158 C   0  0  1  0  0  0  0  0  0  0  0  0
    1.2127   -1.9151    0.2013 C   0  0  1  0  0  0  0  0  0  0  0  0
    5.4277    0.7162    2.1645 C   0  0  0  0  0  0  0  0  0  0  0  0
    1.6736   -1.6256   -2.3614 C   0  0  2  0  0  0  0  0  0  0  0  0
    1.8582   -2.0340    1.5898 C   0  0  1  0  0  0  0  0  0  0  0  0
    0.8940   -2.4692    2.6881 C   0  0  0  0  0  0  0  0  0  0  0  0
    0.3110   -1.0392   -2.6682 C   0  0  0  0  0  0  0  0  0  0  0  0
   -1.1275   -1.6312    0.0760 C   0  0  0  0  0  0  0  0  0  0  0  0
   -2.1695   -0.5961    0.2628 C   0  0  0  0  0  0  0  0  0  0  0  0
   -3.4576   -0.9123    0.0682 C   0  0  0  0  0  0  0  0  0  0  0  0
   -4.5816    0.0294    0.2130 C   0  0  0  0  0  0  0  0  0  0  0  0
   -5.8060   -0.2481   -0.3949 C   0  0  0  0  0  0  0  0  0  0  0  0
   -4.4214    1.1982    0.9573 C   0  0  0  0  0  0  0  0  0  0  0  0
   -6.8705    0.6432   -0.2583 C   0  0  0  0  0  0  0  0  0  0  0  0
   -5.4857    2.0896    1.0936 C   0  0  0  0  0  0  0  0  0  0  0  0
   -6.7102    1.8120    0.4859 C   0  0  0  0  0  0  0  0  0  0  0  0
    2.3610    2.7047   -0.0163 H   0  0  0  0  0  0  0  0  0  0  0  0
    2.8591    2.0036   -2.3150 H   0  0  0  0  0  0  0  0  0  0  0  0
    5.3810    2.8619    0.4575 H   0  0  0  0  0  0  0  0  0  0  0  0
    4.0166   -0.2191   -1.8970 H   0  0  0  0  0  0  0  0  0  0  0  0
    3.3848    0.7985    1.5680 H   0  0  0  0  0  0  0  0  0  0  0  0
    3.0867   -1.9387   -0.7966 H   0  0  0  0  0  0  0  0  0  0  0  0
    0.9223   -2.9373   -0.0689 H   0  0  0  0  0  0  0  0  0  0  0  0
    6.4289    0.9248    1.7716 H   0  0  0  0  0  0  0  0  0  0  0  0
    5.3994   -0.3528    2.4027 H   0  0  0  0  0  0  0  0  0  0  0  0
    5.2886    1.2817    3.0906 H   0  0  0  0  0  0  0  0  0  0  0  0
    2.3754   -1.2012   -3.0851 H   0  0  0  0  0  0  0  0  0  0  0  0
    2.3318   -1.0938    1.8829 H   0  0  0  0  0  0  0  0  0  0  0  0
    2.9037    4.2945   -1.5552 H   0  0  0  0  0  0  0  0  0  0  0  0
    4.9843    1.5406   -2.9283 H   0  0  0  0  0  0  0  0  0  0  0  0
    3.1063    3.0493    2.1593 H   0  0  0  0  0  0  0  0  0  0  0  0
    0.0870   -1.7445    2.8287 H   0  0  0  0  0  0  0  0  0  0  0  0
    0.4671   -3.4531    2.4675 H   0  0  0  0  0  0  0  0  0  0  0  0
    0.2488    0.0614   -2.6126 H   0  0  0  0  0  0  0  0  0  0  0  0
    0.8579   -3.3898   -2.0687 H   0  0  0  0  0  0  0  0  0  0  0  0
    3.3061   -3.0838    2.3895 H   0  0  0  0  0  0  0  0  0  0  0  0
    0.9744   -2.8585    4.5930 H   0  0  0  0  0  0  0  0  0  0  0  0
   -1.8339    0.3978    0.5350 H   0  0  0  0  0  0  0  0  0  0  0  0
   -3.7337   -1.9212   -0.2301 H   0  0  0  0  0  0  0  0  0  0  0  0
   -5.9347   -1.1580   -0.9773 H   0  0  0  0  0  0  0  0  0  0  0  0
   -3.4935    1.4456    1.4643 H   0  0  0  0  0  0  0  0  0  0  0  0
   -5.3490    2.9945    1.6797 H   0  0  0  0  0  0  0  0  0  0  0  0
   -7.9875   -0.4868   -1.3270 H   0  0  0  0  0  0  0  0  0  0  0  0
   -7.4476    3.4397    1.1729 H   0  0  0  0  0  0  0  0  0  0  0  0
  1 17  1  0  0  0  0
  1 18  1  0  0  0  0
  2 17  1  0  0  0  0
  2 19  1  0  0  0  0
  3 14  1  0  0  0  0
  3 47  1  0  0  0  0
  4 15  1  0  0  0  0
  4 48  1  0  0  0  0
  5 16  1  0  0  0  0
  5 49  1  0  0  0  0
  6 20  1  0  0  0  0
  6 26  1  0  0  0  0
  7 22  1  0  0  0  0
  7 53  1  0  0  0  0
  8 23  1  0  0  0  0
  8 54  1  0  0  0  0
  9 24  1  0  0  0  0
  9 55  1  0  0  0  0
 10 25  2  0  0  0  0
 11 26  2  0  0  0  0
 12 32  1  0  0  0  0
 12 61  1  0  0  0  0
 13 34  1  0  0  0  0
 13 62  1  0  0  0  0
 14 15  1  0  0  0  0
 14 16  1  0  0  0  0
 14 35  1  0  0  0  0
 15 17  1  0  0  0  0
 15 36  1  0  0  0  0
 16 18  1  0  0  0  0
 16 37  1  0  0  0  0
 17 38  1  0  0  0  0
 18 21  1  0  0  0  0
 18 39  1  0  0  0  0
 19 20  1  0  0  0  0
 19 22  1  0  0  0  0
 19 40  1  0  0  0  0
 20 23  1  0  0  0  0
 20 41  1  0  0  0  0
 21 42  1  0  0  0  0
 21 43  1  0  0  0  0
 21 44  1  0  0  0  0
 22 25  1  0  0  0  0
 22 45  1  0  0  0  0
 23 24  1  0  0  0  0
 23 46  1  0  0  0  0
 24 50  1  0  0  0  0
 24 51  1  0  0  0  0
 25 52  1  0  0  0  0
 26 27  1  0  0  0  0
 27 28  2  0  0  0  0
 27 56  1  0  0  0  0
 28 29  1  0  0  0  0
 28 57  1  0  0  0  0
 29 30  2  0  0  0  0
 29 31  1  0  0  0  0
 30 32  1  0  0  0  0
 30 58  1  0  0  0  0
 31 33  2  0  0  0  0
 31 59  1  0  0  0  0
 32 34  2  0  0  0  0
 33 34  1  0  0  0  0
 33 60  1  0  0  0  0
M  END
> <PUBCHEM_COMPOUND_CID>
101688189

> <PUBCHEM_CONFORMER_RMSD>
1.2

> <PUBCHEM_CONFORMER_DIVERSEORDER>
3
10
60
62
7
12
57
49
40
38
35
31
22
45
53
63
9
51
16
56
24
37
59
52
50
21
27
44
15
36
18
54
43
48
23
55
29
25
46
30
42
33
34
13
17
1
64
11
41
20
8
61
28
19
58
5
26
32
14
6
39
47
2
4

> <PUBCHEM_MMFF94_PARTIAL_CHARGES>
47
1 -0.56
10 -0.57
11 -0.57
12 -0.53
13 -0.53
14 0.28
15 0.28
16 0.28
17 0.56
18 0.28
19 0.28
2 -0.56
20 0.28
22 0.34
23 0.28
24 0.28
25 0.45
26 0.71
27 -0.14
28 -0.18
29 0.03
3 -0.68
30 -0.15
31 -0.15
32 0.08
33 -0.15
34 0.08
4 -0.68
47 0.4
48 0.4
49 0.4
5 -0.68
52 0.06
53 0.4
54 0.4
55 0.4
56 0.15
57 0.15
58 0.15
59 0.15
6 -0.43
60 0.15
61 0.45
62 0.45
7 -0.68
8 -0.68
9 -0.68

> <PUBCHEM_EFFECTIVE_ROTOR_COUNT>
12.2

> <PUBCHEM_PHARMACOPHORE_FEATURES>
20
1 1 acceptor
1 10 acceptor
1 11 acceptor
1 12 donor
1 13 donor
1 2 acceptor
1 3 acceptor
1 3 donor
1 4 acceptor
1 4 donor
1 5 acceptor
1 5 donor
1 7 acceptor
1 7 donor
1 8 acceptor
1 8 donor
1 9 acceptor
1 9 donor
6 1 14 15 16 17 18 rings
6 29 30 31 32 33 34 rings

> <PUBCHEM_HEAVY_ATOM_COUNT>
34

> <PUBCHEM_ATOM_DEF_STEREO_COUNT>
9

> <PUBCHEM_ATOM_UDEF_STEREO_COUNT>
0

> <PUBCHEM_BOND_DEF_STEREO_COUNT>
1

> <PUBCHEM_BOND_UDEF_STEREO_COUNT>
0

> <PUBCHEM_ISOTOPIC_ATOM_COUNT>
0

> <PUBCHEM_COMPONENT_COUNT>
1

> <PUBCHEM_CACTVS_TAUTO_COUNT>
14

> <PUBCHEM_CONFORMER_ID>
060FA37D00000003

> <PUBCHEM_MMFF94_ENERGY>
90.6641

> <PUBCHEM_FEATURE_SELFOVERLAP>
101.592

> <PUBCHEM_SHAPE_FINGERPRINT>
10673678 19 17561365076038296855
117089 54 13336667499614411936
12047536 79 14995995549933675543
12633257 1 17604701300608470422
12661589 4 8141494939881587993
14347332 77 10663826269608109867
14400156 147 12723375981013112573
14739800 52 18410003330506827313
15082195 135 17704076149474728101
15238133 3 18117278271671188420
16096371 109 17313376816809987849
20715895 44 18202002144432954024
21475661 188 18336551619938515252
23559900 14 17630335134305104695
2748736 6 18410571804010256493
2838139 119 18201718491828443157
3472631 163 18411985762993895487
376196 1 18268437999952966094
44317340 157 18059590040292608967
5109719 28 18190757508215551561
5372103 7 16127512947814438904
57091435 61 18335704970284200921
57359948 33 17273692049561764329
58260988 393 18123190375073079375
6036956 94 16829230266111904313

> <PUBCHEM_SHAPE_MULTIPOLES>
623.4
16.76
4.14
2.81
35.73
1.47
-0.35
16.86
-2.14
-4.19
-0.68
-3.68
-2.2
-1.55

> <PUBCHEM_SHAPE_SELFOVERLAP>
1293.554

> <PUBCHEM_SHAPE_VOLUME>
351.1

> <PUBCHEM_COORDINATE_TYPE>
2
5
10

$$$$
