102277956
  -OEChem-09182005443D

 81 84  0     1  0  0  0  0  0999 V2000
    4.5842   -0.4842   -0.1729 O   0  0  0  0  0  0  0  0  0  0  0  0
    0.6488    0.6807   -0.3228 O   0  0  0  0  0  0  0  0  0  0  0  0
    5.3689   -2.6814   -0.6061 O   0  0  0  0  0  0  0  0  0  0  0  0
    2.4943   -2.4057    0.3712 O   0  0  0  0  0  0  0  0  0  0  0  0
    1.1893    2.6117   -1.5158 O   0  0  0  0  0  0  0  0  0  0  0  0
    3.6896    1.4700   -2.1883 O   0  0  0  0  0  0  0  0  0  0  0  0
    7.6594   -1.4621   -1.8418 O   0  0  0  0  0  0  0  0  0  0  0  0
    8.8382   -0.7383    0.5729 O   0  0  0  0  0  0  0  0  0  0  0  0
    7.6654   -2.7043    2.2775 O   0  0  0  0  0  0  0  0  0  0  0  0
   -1.4203   -1.3373    0.2985 O   0  0  0  0  0  0  0  0  0  0  0  0
   -1.6539    4.5142   -2.8006 O   0  0  0  0  0  0  0  0  0  0  0  0
   -2.3467   -2.0201    2.3020 O   0  0  0  0  0  0  0  0  0  0  0  0
   -2.9659    3.3260    2.0909 O   0  0  0  0  0  0  0  0  0  0  0  0
   -1.6398    5.3819    3.4100 O   0  0  0  0  0  0  0  0  0  0  0  0
   -9.6716   -2.5071    0.9721 O   0  0  0  0  0  0  0  0  0  0  0  0
   -9.7339   -2.7523   -1.7962 O   0  0  0  0  0  0  0  0  0  0  0  0
    3.2731   -0.4111   -0.7352 C   0  0  1  0  0  0  0  0  0  0  0  0
    2.2906   -0.9982    0.2781 C   0  0  1  0  0  0  0  0  0  0  0  0
    2.9360    1.0459   -1.0527 C   0  0  2  0  0  0  0  0  0  0  0  0
    0.8454   -0.7231   -0.1442 C   0  0  1  0  0  0  0  0  0  0  0  0
    5.4449   -1.2972   -0.9632 C   0  0  2  0  0  0  0  0  0  0  0  0
    6.8813   -0.7899   -0.8502 C   0  0  1  0  0  0  0  0  0  0  0  0
    1.4509    1.2159   -1.3729 C   0  0  1  0  0  0  0  0  0  0  0  0
    7.4524   -1.0720    0.5405 C   0  0  1  0  0  0  0  0  0  0  0  0
    7.2803   -2.5447    0.9144 C   0  0  2  0  0  0  0  0  0  0  0  0
    5.8180   -2.9703    0.7218 C   0  0  2  0  0  0  0  0  0  0  0  0
   -0.1507   -1.1966    0.9095 C   0  0  0  0  0  0  0  0  0  0  0  0
    5.6246   -4.4681    0.9419 C   0  0  0  0  0  0  0  0  0  0  0  0
   -0.0080    2.8404   -2.2424 C   0  0  0  0  0  0  0  0  0  0  0  0
   -0.4816    4.2768   -2.0239 C   0  0  2  0  0  0  0  0  0  0  0  0
   -0.7939    4.5701   -0.5730 C   0  0  0  0  0  0  0  0  0  0  0  0
   -2.4347   -1.7582    1.1128 C   0  0  0  0  0  0  0  0  0  0  0  0
   -1.7473    3.8087    0.1029 C   0  0  0  0  0  0  0  0  0  0  0  0
   -0.1276    5.6013    0.0891 C   0  0  0  0  0  0  0  0  0  0  0  0
   -3.6716   -1.8442    0.3038 C   0  0  0  0  0  0  0  0  0  0  0  0
   -2.0344    4.0783    1.4411 C   0  0  0  0  0  0  0  0  0  0  0  0
   -0.4149    5.8711    1.4272 C   0  0  0  0  0  0  0  0  0  0  0  0
   -1.3682    5.1095    2.1032 C   0  0  0  0  0  0  0  0  0  0  0  0
   -4.8144   -2.2380    0.8835 C   0  0  0  0  0  0  0  0  0  0  0  0
   -6.1045   -2.3723    0.1842 C   0  0  0  0  0  0  0  0  0  0  0  0
   -7.2945   -2.3769    0.9119 C   0  0  0  0  0  0  0  0  0  0  0  0
   -6.1361   -2.4951   -1.2049 C   0  0  0  0  0  0  0  0  0  0  0  0
   -8.5161   -2.5042    0.2506 C   0  0  0  0  0  0  0  0  0  0  0  0
   -7.3575   -2.6227   -1.8662 C   0  0  0  0  0  0  0  0  0  0  0  0
   -8.5476   -2.6271   -1.1385 C   0  0  0  0  0  0  0  0  0  0  0  0
    3.2074   -1.0029   -1.6590 H   0  0  0  0  0  0  0  0  0  0  0  0
    2.4896   -0.5716    1.2689 H   0  0  0  0  0  0  0  0  0  0  0  0
    3.2281    1.6939   -0.2178 H   0  0  0  0  0  0  0  0  0  0  0  0
    0.6192   -1.2341   -1.0903 H   0  0  0  0  0  0  0  0  0  0  0  0
    5.1705   -1.2362   -2.0241 H   0  0  0  0  0  0  0  0  0  0  0  0
    6.9417    0.2849   -1.0569 H   0  0  0  0  0  0  0  0  0  0  0  0
    1.2133    0.7100   -2.3196 H   0  0  0  0  0  0  0  0  0  0  0  0
    6.9559   -0.4404    1.2876 H   0  0  0  0  0  0  0  0  0  0  0  0
    7.9525   -3.1640    0.3089 H   0  0  0  0  0  0  0  0  0  0  0  0
    5.1736   -2.4478    1.4404 H   0  0  0  0  0  0  0  0  0  0  0  0
   -0.2197   -0.4698    1.7280 H   0  0  0  0  0  0  0  0  0  0  0  0
    0.1434   -2.1715    1.3138 H   0  0  0  0  0  0  0  0  0  0  0  0
    5.9081   -4.7655    1.9558 H   0  0  0  0  0  0  0  0  0  0  0  0
    4.5774   -4.7452    0.7785 H   0  0  0  0  0  0  0  0  0  0  0  0
    6.2182   -5.0477    0.2263 H   0  0  0  0  0  0  0  0  0  0  0  0
    2.3213   -2.7938   -0.5034 H   0  0  0  0  0  0  0  0  0  0  0  0
    3.4523    0.8987   -2.9386 H   0  0  0  0  0  0  0  0  0  0  0  0
    7.3112   -1.2062   -2.7129 H   0  0  0  0  0  0  0  0  0  0  0  0
    8.9191    0.1984    0.3246 H   0  0  0  0  0  0  0  0  0  0  0  0
    7.0557   -2.1821    2.8262 H   0  0  0  0  0  0  0  0  0  0  0  0
   -0.7911    2.1259   -1.9585 H   0  0  0  0  0  0  0  0  0  0  0  0
    0.1890    2.6760   -3.3091 H   0  0  0  0  0  0  0  0  0  0  0  0
    0.2946    4.9678   -2.3749 H   0  0  0  0  0  0  0  0  0  0  0  0
   -1.4282    4.3455   -3.7313 H   0  0  0  0  0  0  0  0  0  0  0  0
   -2.2770    3.0098   -0.4097 H   0  0  0  0  0  0  0  0  0  0  0  0
    0.6180    6.2028   -0.4238 H   0  0  0  0  0  0  0  0  0  0  0  0
   -3.5968   -1.5669   -0.7412 H   0  0  0  0  0  0  0  0  0  0  0  0
    0.1117    6.6772    1.9310 H   0  0  0  0  0  0  0  0  0  0  0  0
   -4.8346   -2.4810    1.9435 H   0  0  0  0  0  0  0  0  0  0  0  0
   -3.3185    2.6580    1.4781 H   0  0  0  0  0  0  0  0  0  0  0  0
   -1.0848    6.1260    3.7003 H   0  0  0  0  0  0  0  0  0  0  0  0
   -7.2743   -2.2801    1.9954 H   0  0  0  0  0  0  0  0  0  0  0  0
   -5.2346   -2.5167   -1.8102 H   0  0  0  0  0  0  0  0  0  0  0  0
   -7.3679   -2.7221   -2.9484 H   0  0  0  0  0  0  0  0  0  0  0  0
   -9.4567   -2.4126    1.9160 H   0  0  0  0  0  0  0  0  0  0  0  0
   -9.5609   -2.8254   -2.7506 H   0  0  0  0  0  0  0  0  0  0  0  0
  1 17  1  0  0  0  0
  1 21  1  0  0  0  0
  2 20  1  0  0  0  0
  2 23  1  0  0  0  0
  3 21  1  0  0  0  0
  3 26  1  0  0  0  0
  4 18  1  0  0  0  0
  4 61  1  0  0  0  0
  5 23  1  0  0  0  0
  5 29  1  0  0  0  0
  6 19  1  0  0  0  0
  6 62  1  0  0  0  0
  7 22  1  0  0  0  0
  7 63  1  0  0  0  0
  8 24  1  0  0  0  0
  8 64  1  0  0  0  0
  9 25  1  0  0  0  0
  9 65  1  0  0  0  0
 10 27  1  0  0  0  0
 10 32  1  0  0  0  0
 11 30  1  0  0  0  0
 11 69  1  0  0  0  0
 12 32  2  0  0  0  0
 13 36  1  0  0  0  0
 13 75  1  0  0  0  0
 14 38  1  0  0  0  0
 14 76  1  0  0  0  0
 15 43  1  0  0  0  0
 15 80  1  0  0  0  0
 16 45  1  0  0  0  0
 16 81  1  0  0  0  0
 17 18  1  0  0  0  0
 17 19  1  0  0  0  0
 17 46  1  0  0  0  0
 18 20  1  0  0  0  0
 18 47  1  0  0  0  0
 19 23  1  0  0  0  0
 19 48  1  0  0  0  0
 20 27  1  0  0  0  0
 20 49  1  0  0  0  0
 21 22  1  0  0  0  0
 21 50  1  0  0  0  0
 22 24  1  0  0  0  0
 22 51  1  0  0  0  0
 23 52  1  0  0  0  0
 24 25  1  0  0  0  0
 24 53  1  0  0  0  0
 25 26  1  0  0  0  0
 25 54  1  0  0  0  0
 26 28  1  0  0  0  0
 26 55  1  0  0  0  0
 27 56  1  0  0  0  0
 27 57  1  0  0  0  0
 28 58  1  0  0  0  0
 28 59  1  0  0  0  0
 28 60  1  0  0  0  0
 29 30  1  0  0  0  0
 29 66  1  0  0  0  0
 29 67  1  0  0  0  0
 30 31  1  0  0  0  0
 30 68  1  0  0  0  0
 31 33  2  0  0  0  0
 31 34  1  0  0  0  0
 32 35  1  0  0  0  0
 33 36  1  0  0  0  0
 33 70  1  0  0  0  0
 34 37  2  0  0  0  0
 34 71  1  0  0  0  0
 35 39  2  0  0  0  0
 35 72  1  0  0  0  0
 36 38  2  0  0  0  0
 37 38  1  0  0  0  0
 37 73  1  0  0  0  0
 39 40  1  0  0  0  0
 39 74  1  0  0  0  0
 40 41  2  0  0  0  0
 40 42  1  0  0  0  0
 41 43  1  0  0  0  0
 41 77  1  0  0  0  0
 42 44  2  0  0  0  0
 42 78  1  0  0  0  0
 43 45  2  0  0  0  0
 44 45  1  0  0  0  0
 44 79  1  0  0  0  0
M  END
> <PUBCHEM_COMPOUND_CID>
102277956

> <PUBCHEM_CONFORMER_RMSD>
1.2

> <PUBCHEM_CONFORMER_DIVERSEORDER>
1
50
58
80
25
133
103
116
40
136
43
128
39
64
141
126
63
22
34
111
101
85
31
62
114
140
18
35
137
91
70
65
86
15
12
121
127
84
44
102
96
60
79
112
28
37
132
113
71
83
110
104
109
115
105
97
92
131
99
54
76
61
59
95
4
67
13
124
27
73
120
16
106
42
100
89
125
108
69
6
53
117
74
72
14
68
29
20
77
94
21
51
30
46
32
134
118
57
78
41
7
123
98
87
55
107
9
17
66
122
56
129
82
139
36
23
75
10
52
49
119
26
130
93
135
8
47
33
138
90
45
48
11
81
88
19
3
5
2
24
38

> <PUBCHEM_MMFF94_PARTIAL_CHARGES>
62
1 -0.56
10 -0.43
11 -0.68
12 -0.57
13 -0.53
14 -0.53
15 -0.53
16 -0.53
17 0.28
18 0.28
19 0.28
2 -0.56
20 0.28
21 0.56
22 0.28
23 0.56
24 0.28
25 0.28
26 0.28
27 0.28
29 0.28
3 -0.56
30 0.42
31 -0.14
32 0.71
33 -0.15
34 -0.15
35 -0.14
36 0.08
37 -0.15
38 0.08
39 -0.18
4 -0.68
40 0.03
41 -0.15
42 -0.15
43 0.08
44 -0.15
45 0.08
5 -0.56
6 -0.68
61 0.4
62 0.4
63 0.4
64 0.4
65 0.4
69 0.4
7 -0.68
70 0.15
71 0.15
72 0.15
73 0.15
74 0.15
75 0.45
76 0.45
77 0.15
78 0.15
79 0.15
8 -0.68
80 0.45
81 0.45
9 -0.68

> <PUBCHEM_EFFECTIVE_ROTOR_COUNT>
13.4

> <PUBCHEM_PHARMACOPHORE_FEATURES>
25
1 1 acceptor
1 11 acceptor
1 11 donor
1 12 acceptor
1 13 donor
1 14 donor
1 15 donor
1 16 donor
1 2 acceptor
1 3 acceptor
1 4 acceptor
1 4 donor
1 5 acceptor
1 6 acceptor
1 6 donor
1 7 acceptor
1 7 donor
1 8 acceptor
1 8 donor
1 9 acceptor
1 9 donor
6 2 17 18 19 20 23 rings
6 3 21 22 24 25 26 rings
6 31 33 34 36 37 38 rings
6 40 41 42 43 44 45 rings

> <PUBCHEM_HEAVY_ATOM_COUNT>
45

> <PUBCHEM_ATOM_DEF_STEREO_COUNT>
10

> <PUBCHEM_ATOM_UDEF_STEREO_COUNT>
1

> <PUBCHEM_BOND_DEF_STEREO_COUNT>
1

> <PUBCHEM_BOND_UDEF_STEREO_COUNT>
0

> <PUBCHEM_ISOTOPIC_ATOM_COUNT>
0

> <PUBCHEM_COMPONENT_COUNT>
1

> <PUBCHEM_CACTVS_TAUTO_COUNT>
112

> <PUBCHEM_CONFORMER_ID>
0618A34400000001

> <PUBCHEM_MMFF94_ENERGY>
128.8817

> <PUBCHEM_FEATURE_SELFOVERLAP>
127.014

> <PUBCHEM_SHAPE_FINGERPRINT>
11115154 58 18409168827315067619
11331351 85 18342172297636302183
11720765 8 18266180724362544133
12440605 4 17606676912101898403
14068700 675 18412550920175521249
14400156 413 17969502791267633724
16993427 108 18412542128598882525
19301679 30 18339365163105466782
21133410 230 18264476468455180552
3882209 13 18411704304901771649
4066623 53 18410011065310514304
4408954 87 17552102618794610265
44317340 157 17978234087268193863
508180 173 18187077382904726033
5219985 9 18411138056429349679
58902169 19 18270399538126292999
59521099 67 18270961371055647481
6697151 62 18339644572197028931

> <PUBCHEM_SHAPE_MULTIPOLES>
832.17
25.31
9.1
2.35
17.52
17.85
-0.14
-49
2.02
5.62
-3.28
0.91
2.63
-4.12

> <PUBCHEM_SHAPE_SELFOVERLAP>
1764.025

> <PUBCHEM_SHAPE_VOLUME>
460.2

> <PUBCHEM_COORDINATE_TYPE>
2
5
10

$$$$
