102000758
  -OEChem-09182005483D

 81 84  0     1  0  0  0  0  0999 V2000
   -0.0259    1.1554    0.5817 O   0  0  0  0  0  0  0  0  0  0  0  0
   -1.8238   -2.5369    0.5595 O   0  0  0  0  0  0  0  0  0  0  0  0
    0.9536    2.4094   -1.1789 O   0  0  0  0  0  0  0  0  0  0  0  0
    1.5214   -1.1931   -0.0859 O   0  0  0  0  0  0  0  0  0  0  0  0
   -3.9516   -1.5820    0.4906 O   0  0  0  0  0  0  0  0  0  0  0  0
   -2.8034    0.8618   -0.3562 O   0  0  0  0  0  0  0  0  0  0  0  0
   -0.6618    4.6204   -0.3060 O   0  0  0  0  0  0  0  0  0  0  0  0
    0.9115    5.1596    1.9253 O   0  0  0  0  0  0  0  0  0  0  0  0
    3.3939    4.0773    1.0239 O   0  0  0  0  0  0  0  0  0  0  0  0
   -0.4709   -4.9105    0.2569 O   0  0  0  0  0  0  0  0  0  0  0  0
   -6.8749   -3.6120   -0.3366 O   0  0  0  0  0  0  0  0  0  0  0  0
    2.4492   -1.0448    2.0247 O   0  0  0  0  0  0  0  0  0  0  0  0
   -7.6955    0.9982   -2.5966 O   0  0  0  0  0  0  0  0  0  0  0  0
   -8.7400    2.3734   -0.4187 O   0  0  0  0  0  0  0  0  0  0  0  0
    9.8064   -1.5745    0.9059 O   0  0  0  0  0  0  0  0  0  0  0  0
   10.0301   -0.8545   -1.7699 O   0  0  0  0  0  0  0  0  0  0  0  0
   -0.5799   -0.0144   -0.0224 C   0  0  1  0  0  0  0  0  0  0  0  0
    0.2118   -1.2238    0.4753 C   0  0  1  0  0  0  0  0  0  0  0  0
   -2.0579   -0.1288    0.3512 C   0  0  2  0  0  0  0  0  0  0  0  0
   -0.4802   -2.5286    0.0740 C   0  0  1  0  0  0  0  0  0  0  0  0
   -0.1469    2.2887   -0.2711 C   0  0  2  0  0  0  0  0  0  0  0  0
   -0.2919    3.5550    0.5708 C   0  0  1  0  0  0  0  0  0  0  0  0
   -2.6193   -1.5027   -0.0151 C   0  0  1  0  0  0  0  0  0  0  0  0
    1.0214    3.8939    1.2782 C   0  0  1  0  0  0  0  0  0  0  0  0
    2.1832    3.9354    0.2849 C   0  0  2  0  0  0  0  0  0  0  0  0
    2.2148    2.6439   -0.5441 C   0  0  2  0  0  0  0  0  0  0  0  0
    0.2279   -3.7464    0.6591 C   0  0  0  0  0  0  0  0  0  0  0  0
    3.2663    2.6989   -1.6488 C   0  0  0  0  0  0  0  0  0  0  0  0
   -4.6950   -2.5938   -0.1708 C   0  0  0  0  0  0  0  0  0  0  0  0
    2.5455   -1.1018    0.8090 C   0  0  0  0  0  0  0  0  0  0  0  0
   -6.1348   -2.5990    0.3415 C   0  0  1  0  0  0  0  0  0  0  0  0
   -6.8292   -1.2708    0.1353 C   0  0  0  0  0  0  0  0  0  0  0  0
    3.8142   -1.0835    0.0463 C   0  0  0  0  0  0  0  0  0  0  0  0
   -6.9453   -0.7363   -1.1478 C   0  0  0  0  0  0  0  0  0  0  0  0
   -7.3541   -0.5813    1.2281 C   0  0  0  0  0  0  0  0  0  0  0  0
    4.9794   -0.9982    0.7036 C   0  0  0  0  0  0  0  0  0  0  0  0
   -7.5865    0.4878   -1.3381 C   0  0  0  0  0  0  0  0  0  0  0  0
   -7.9952    0.6430    1.0379 C   0  0  0  0  0  0  0  0  0  0  0  0
    6.3037   -0.9617    0.0583 C   0  0  0  0  0  0  0  0  0  0  0  0
   -8.1115    1.1775   -0.2452 C   0  0  0  0  0  0  0  0  0  0  0  0
    7.4451   -1.2880    0.7907 C   0  0  0  0  0  0  0  0  0  0  0  0
    6.4161   -0.6006   -1.2843 C   0  0  0  0  0  0  0  0  0  0  0  0
    8.6989   -1.2534    0.1804 C   0  0  0  0  0  0  0  0  0  0  0  0
    7.6700   -0.5658   -1.8945 C   0  0  0  0  0  0  0  0  0  0  0  0
    8.8114   -0.8923   -1.1622 C   0  0  0  0  0  0  0  0  0  0  0  0
   -0.4583    0.0491   -1.1136 H   0  0  0  0  0  0  0  0  0  0  0  0
    0.2317   -1.1671    1.5723 H   0  0  0  0  0  0  0  0  0  0  0  0
   -2.1961    0.0737    1.4199 H   0  0  0  0  0  0  0  0  0  0  0  0
   -0.5018   -2.6411   -1.0186 H   0  0  0  0  0  0  0  0  0  0  0  0
   -1.0280    2.2184   -0.9133 H   0  0  0  0  0  0  0  0  0  0  0  0
   -1.0898    3.4492    1.3148 H   0  0  0  0  0  0  0  0  0  0  0  0
   -2.6387   -1.6136   -1.1083 H   0  0  0  0  0  0  0  0  0  0  0  0
    1.2304    3.1538    2.0607 H   0  0  0  0  0  0  0  0  0  0  0  0
    2.0889    4.8153   -0.3623 H   0  0  0  0  0  0  0  0  0  0  0  0
    2.4571    1.7890    0.0980 H   0  0  0  0  0  0  0  0  0  0  0  0
    0.2205   -3.7140    1.7538 H   0  0  0  0  0  0  0  0  0  0  0  0
    1.2605   -3.8208    0.3059 H   0  0  0  0  0  0  0  0  0  0  0  0
    4.2720    2.8342   -1.2400 H   0  0  0  0  0  0  0  0  0  0  0  0
    3.2519    1.7728   -2.2340 H   0  0  0  0  0  0  0  0  0  0  0  0
    3.0570    3.5163   -2.3476 H   0  0  0  0  0  0  0  0  0  0  0  0
   -2.7379    0.6672   -1.3068 H   0  0  0  0  0  0  0  0  0  0  0  0
   -1.5303    4.4018   -0.6848 H   0  0  0  0  0  0  0  0  0  0  0  0
    0.1627    5.1076    2.5435 H   0  0  0  0  0  0  0  0  0  0  0  0
    3.5040    3.2850    1.5769 H   0  0  0  0  0  0  0  0  0  0  0  0
   -4.2416   -3.5745    0.0209 H   0  0  0  0  0  0  0  0  0  0  0  0
   -4.6707   -2.4431   -1.2573 H   0  0  0  0  0  0  0  0  0  0  0  0
   -0.0064   -5.6722    0.6436 H   0  0  0  0  0  0  0  0  0  0  0  0
   -6.1287   -2.8510    1.4088 H   0  0  0  0  0  0  0  0  0  0  0  0
    3.7415   -1.1517   -1.0329 H   0  0  0  0  0  0  0  0  0  0  0  0
   -7.8149   -3.5027   -0.1123 H   0  0  0  0  0  0  0  0  0  0  0  0
   -6.5476   -1.2738   -2.0049 H   0  0  0  0  0  0  0  0  0  0  0  0
   -7.2713   -0.9849    2.2336 H   0  0  0  0  0  0  0  0  0  0  0  0
    4.9923   -0.9552    1.7903 H   0  0  0  0  0  0  0  0  0  0  0  0
   -8.3995    1.1697    1.8982 H   0  0  0  0  0  0  0  0  0  0  0  0
    7.3615   -1.5714    1.8378 H   0  0  0  0  0  0  0  0  0  0  0  0
    5.5579   -0.3185   -1.8872 H   0  0  0  0  0  0  0  0  0  0  0  0
   -7.2751    0.3864   -3.2250 H   0  0  0  0  0  0  0  0  0  0  0  0
   -9.0377    2.7032    0.4465 H   0  0  0  0  0  0  0  0  0  0  0  0
    7.7441   -0.2782   -2.9399 H   0  0  0  0  0  0  0  0  0  0  0  0
    9.5376   -1.7978    1.8135 H   0  0  0  0  0  0  0  0  0  0  0  0
    9.9136   -0.5845   -2.6970 H   0  0  0  0  0  0  0  0  0  0  0  0
  1 17  1  0  0  0  0
  1 21  1  0  0  0  0
  2 20  1  0  0  0  0
  2 23  1  0  0  0  0
  3 21  1  0  0  0  0
  3 26  1  0  0  0  0
  4 18  1  0  0  0  0
  4 30  1  0  0  0  0
  5 23  1  0  0  0  0
  5 29  1  0  0  0  0
  6 19  1  0  0  0  0
  6 61  1  0  0  0  0
  7 22  1  0  0  0  0
  7 62  1  0  0  0  0
  8 24  1  0  0  0  0
  8 63  1  0  0  0  0
  9 25  1  0  0  0  0
  9 64  1  0  0  0  0
 10 27  1  0  0  0  0
 10 67  1  0  0  0  0
 11 31  1  0  0  0  0
 11 70  1  0  0  0  0
 12 30  2  0  0  0  0
 13 37  1  0  0  0  0
 13 77  1  0  0  0  0
 14 40  1  0  0  0  0
 14 78  1  0  0  0  0
 15 43  1  0  0  0  0
 15 80  1  0  0  0  0
 16 45  1  0  0  0  0
 16 81  1  0  0  0  0
 17 18  1  0  0  0  0
 17 19  1  0  0  0  0
 17 46  1  0  0  0  0
 18 20  1  0  0  0  0
 18 47  1  0  0  0  0
 19 23  1  0  0  0  0
 19 48  1  0  0  0  0
 20 27  1  0  0  0  0
 20 49  1  0  0  0  0
 21 22  1  0  0  0  0
 21 50  1  0  0  0  0
 22 24  1  0  0  0  0
 22 51  1  0  0  0  0
 23 52  1  0  0  0  0
 24 25  1  0  0  0  0
 24 53  1  0  0  0  0
 25 26  1  0  0  0  0
 25 54  1  0  0  0  0
 26 28  1  0  0  0  0
 26 55  1  0  0  0  0
 27 56  1  0  0  0  0
 27 57  1  0  0  0  0
 28 58  1  0  0  0  0
 28 59  1  0  0  0  0
 28 60  1  0  0  0  0
 29 31  1  0  0  0  0
 29 65  1  0  0  0  0
 29 66  1  0  0  0  0
 30 33  1  0  0  0  0
 31 32  1  0  0  0  0
 31 68  1  0  0  0  0
 32 34  2  0  0  0  0
 32 35  1  0  0  0  0
 33 36  2  0  0  0  0
 33 69  1  0  0  0  0
 34 37  1  0  0  0  0
 34 71  1  0  0  0  0
 35 38  2  0  0  0  0
 35 72  1  0  0  0  0
 36 39  1  0  0  0  0
 36 73  1  0  0  0  0
 37 40  2  0  0  0  0
 38 40  1  0  0  0  0
 38 74  1  0  0  0  0
 39 41  2  0  0  0  0
 39 42  1  0  0  0  0
 41 43  1  0  0  0  0
 41 75  1  0  0  0  0
 42 44  2  0  0  0  0
 42 76  1  0  0  0  0
 43 45  2  0  0  0  0
 44 45  1  0  0  0  0
 44 79  1  0  0  0  0
M  END
> <PUBCHEM_COMPOUND_CID>
102000758

> <PUBCHEM_CONFORMER_RMSD>
1.4

> <PUBCHEM_CONFORMER_DIVERSEORDER>
1
32
27
20
9
33
28
37
35
23
36
38
29
14
6
30
19
11
12
39
31
4
15
34
10
22
26
25
18
24
7
13
3
17
16
5
21
8
2

> <PUBCHEM_MMFF94_PARTIAL_CHARGES>
62
1 -0.56
10 -0.68
11 -0.68
12 -0.57
13 -0.53
14 -0.53
15 -0.53
16 -0.53
17 0.28
18 0.28
19 0.28
2 -0.56
20 0.28
21 0.56
22 0.28
23 0.56
24 0.28
25 0.28
26 0.28
27 0.28
29 0.28
3 -0.56
30 0.71
31 0.42
32 -0.14
33 -0.14
34 -0.15
35 -0.15
36 -0.18
37 0.08
38 -0.15
39 0.03
4 -0.43
40 0.08
41 -0.15
42 -0.15
43 0.08
44 -0.15
45 0.08
5 -0.56
6 -0.68
61 0.4
62 0.4
63 0.4
64 0.4
67 0.4
69 0.15
7 -0.68
70 0.4
71 0.15
72 0.15
73 0.15
74 0.15
75 0.15
76 0.15
77 0.45
78 0.45
79 0.15
8 -0.68
80 0.45
81 0.45
9 -0.68

> <PUBCHEM_EFFECTIVE_ROTOR_COUNT>
13.4

> <PUBCHEM_PHARMACOPHORE_FEATURES>
25
1 1 acceptor
1 10 acceptor
1 10 donor
1 11 acceptor
1 11 donor
1 12 acceptor
1 13 donor
1 14 donor
1 15 donor
1 16 donor
1 2 acceptor
1 3 acceptor
1 5 acceptor
1 6 acceptor
1 6 donor
1 7 acceptor
1 7 donor
1 8 acceptor
1 8 donor
1 9 acceptor
1 9 donor
6 2 17 18 19 20 23 rings
6 3 21 22 24 25 26 rings
6 32 34 35 37 38 40 rings
6 39 41 42 43 44 45 rings

> <PUBCHEM_HEAVY_ATOM_COUNT>
45

> <PUBCHEM_ATOM_DEF_STEREO_COUNT>
11

> <PUBCHEM_ATOM_UDEF_STEREO_COUNT>
0

> <PUBCHEM_BOND_DEF_STEREO_COUNT>
1

> <PUBCHEM_BOND_UDEF_STEREO_COUNT>
0

> <PUBCHEM_ISOTOPIC_ATOM_COUNT>
0

> <PUBCHEM_COMPONENT_COUNT>
1

> <PUBCHEM_CACTVS_TAUTO_COUNT>
112

> <PUBCHEM_CONFORMER_ID>
0614687600000001

> <PUBCHEM_MMFF94_ENERGY>
129.3296

> <PUBCHEM_FEATURE_SELFOVERLAP>
127.016

> <PUBCHEM_SHAPE_FINGERPRINT>
10050765 1 17979354484346406619
10864689 126 18335420205309917842
11828042 163 18197785410578661173
11828422 8 16768717454229060672
12089408 11 17967250914820016178
12741549 16 17489583447240817394
13811026 1 18413668015837133548
14068700 675 18272938253542331114
14117953 113 18341895186130236022
14395042 24 18260825974133598016
14937079 2 18338514252573556312
15131766 46 15624224711803668266
15198563 99 18341620261464247260
15439362 3 17974571600692182252
16087824 20 18337671911166714825
24771293 8 18129671794075163515
249057 3 18411139155930479854
4144715 1 18045221798055443859
484989 97 18334575771831620125
9961470 85 18197773521280530384

> <PUBCHEM_SHAPE_MULTIPOLES>
832.17
28.52
5.72
1.48
8.12
5.28
-0.39
-13.16
-9.13
-0.71
1.75
0.56
0.66
0.74

> <PUBCHEM_SHAPE_SELFOVERLAP>
1765.707

> <PUBCHEM_SHAPE_VOLUME>
459.5

> <PUBCHEM_COORDINATE_TYPE>
2
5
10

$$$$
