14032966
  -OEChem-09182005223D

 73 77  0     1  0  0  0  0  0999 V2000
   -3.0697    0.3757    0.6426 O   0  0  0  0  0  0  0  0  0  0  0  0
   -0.3747    3.7798    0.6232 O   0  0  0  0  0  0  0  0  0  0  0  0
   -1.3947    2.1059   -0.6432 O   0  0  0  0  0  0  0  0  0  0  0  0
   -5.5947    2.0583   -1.4506 O   0  0  0  0  0  0  0  0  0  0  0  0
   -7.1850    0.4391    0.3103 O   0  0  0  0  0  0  0  0  0  0  0  0
   -3.4051   -1.7625   -0.3248 O   0  0  0  0  0  0  0  0  0  0  0  0
    0.5157    2.5226   -2.6971 O   0  0  0  0  0  0  0  0  0  0  0  0
    3.0482    3.6047   -1.6965 O   0  0  0  0  0  0  0  0  0  0  0  0
   -5.8349   -2.0093    1.0573 O   0  0  0  0  0  0  0  0  0  0  0  0
    2.4492    3.6387    1.0015 O   0  0  0  0  0  0  0  0  0  0  0  0
   -0.8482    5.7507    2.4904 O   0  0  0  0  0  0  0  0  0  0  0  0
    1.3289   -1.9035    0.0780 O   0  0  0  0  0  0  0  0  0  0  0  0
   -1.2472   -5.9989   -0.2146 O   0  0  0  0  0  0  0  0  0  0  0  0
    1.3668   -5.9769    0.0084 O   0  0  0  0  0  0  0  0  0  0  0  0
    5.4529    0.8245   -1.6062 O   0  0  0  0  0  0  0  0  0  0  0  0
    7.1141    0.5882    0.6088 O   0  0  0  0  0  0  0  0  0  0  0  0
   -3.5741    1.1457   -0.4545 C   0  0  1  0  0  0  0  0  0  0  0  0
   -5.0763    1.4136   -0.2895 C   0  0  2  0  0  0  0  0  0  0  0  0
   -5.8514    0.1103   -0.0856 C   0  0  1  0  0  0  0  0  0  0  0  0
    0.7623    2.8732   -1.3357 C   0  0  1  0  0  0  0  0  0  0  0  0
    1.7553    4.0355   -1.2811 C   0  0  1  0  0  0  0  0  0  0  0  0
   -0.5705    3.2701   -0.6948 C   0  0  2  0  0  0  0  0  0  0  0  0
   -5.2007   -0.7363    1.0067 C   0  0  2  0  0  0  0  0  0  0  0  0
    1.8539    4.6062    0.1340 C   0  0  1  0  0  0  0  0  0  0  0  0
    0.4544    4.9481    0.6557 C   0  0  2  0  0  0  0  0  0  0  0  0
   -2.7635    2.4382   -0.5015 C   0  0  0  0  0  0  0  0  0  0  0  0
   -3.6980   -0.9011    0.7737 C   0  0  2  0  0  0  0  0  0  0  0  0
    0.4780    5.4497    2.0948 C   0  0  0  0  0  0  0  0  0  0  0  0
   -2.2528   -2.4955   -0.2393 C   0  0  0  0  0  0  0  0  0  0  0  0
   -1.0230   -1.8472   -0.1228 C   0  0  0  0  0  0  0  0  0  0  0  0
   -2.3098   -3.8897   -0.2674 C   0  0  0  0  0  0  0  0  0  0  0  0
    0.1504   -2.5966   -0.0343 C   0  0  0  0  0  0  0  0  0  0  0  0
   -1.1377   -4.6418   -0.1795 C   0  0  0  0  0  0  0  0  0  0  0  0
    0.0915   -3.9888   -0.0628 C   0  0  0  0  0  0  0  0  0  0  0  0
    1.3441   -4.7542    0.0304 C   0  0  0  0  0  0  0  0  0  0  0  0
    2.5110   -2.6220    0.1746 C   0  0  0  0  0  0  0  0  0  0  0  0
    2.5847   -3.9622    0.1520 C   0  0  0  0  0  0  0  0  0  0  0  0
    3.7182   -1.7788    0.2853 C   0  0  0  0  0  0  0  0  0  0  0  0
    4.0237   -0.8626   -0.7213 C   0  0  0  0  0  0  0  0  0  0  0  0
    4.5530   -1.8983    1.3963 C   0  0  0  0  0  0  0  0  0  0  0  0
    5.1638   -0.0658   -0.6166 C   0  0  0  0  0  0  0  0  0  0  0  0
    5.6932   -1.1016    1.5009 C   0  0  0  0  0  0  0  0  0  0  0  0
    5.9986   -0.1852    0.4945 C   0  0  0  0  0  0  0  0  0  0  0  0
   -3.3785    0.5955   -1.3845 H   0  0  0  0  0  0  0  0  0  0  0  0
   -5.2516    2.0832    0.5613 H   0  0  0  0  0  0  0  0  0  0  0  0
   -5.9379   -0.4546   -1.0209 H   0  0  0  0  0  0  0  0  0  0  0  0
    1.1805    1.9810   -0.8556 H   0  0  0  0  0  0  0  0  0  0  0  0
    1.4407    4.8206   -1.9800 H   0  0  0  0  0  0  0  0  0  0  0  0
   -1.0641    4.0328   -1.3132 H   0  0  0  0  0  0  0  0  0  0  0  0
   -5.3677   -0.2475    1.9751 H   0  0  0  0  0  0  0  0  0  0  0  0
    2.5058    5.4863    0.1449 H   0  0  0  0  0  0  0  0  0  0  0  0
   -0.0163    5.7125    0.0235 H   0  0  0  0  0  0  0  0  0  0  0  0
   -2.9003    2.9996    0.4305 H   0  0  0  0  0  0  0  0  0  0  0  0
   -3.0880    3.0575   -1.3455 H   0  0  0  0  0  0  0  0  0  0  0  0
   -3.2900   -1.3597    1.6854 H   0  0  0  0  0  0  0  0  0  0  0  0
    1.0899    6.3523    2.1868 H   0  0  0  0  0  0  0  0  0  0  0  0
    0.8561    4.6837    2.7794 H   0  0  0  0  0  0  0  0  0  0  0  0
   -5.4113    1.4888   -2.2172 H   0  0  0  0  0  0  0  0  0  0  0  0
   -7.1401    0.9326    1.1470 H   0  0  0  0  0  0  0  0  0  0  0  0
    0.1485    3.3019   -3.1482 H   0  0  0  0  0  0  0  0  0  0  0  0
    3.6427    4.3728   -1.6501 H   0  0  0  0  0  0  0  0  0  0  0  0
   -5.3956   -2.5282    1.7526 H   0  0  0  0  0  0  0  0  0  0  0  0
    1.8192    2.9085    1.1230 H   0  0  0  0  0  0  0  0  0  0  0  0
   -0.8084    6.0716    3.4074 H   0  0  0  0  0  0  0  0  0  0  0  0
   -0.9589   -0.7636   -0.1184 H   0  0  0  0  0  0  0  0  0  0  0  0
   -3.2716   -4.3889   -0.3580 H   0  0  0  0  0  0  0  0  0  0  0  0
    3.5228   -4.5022    0.2171 H   0  0  0  0  0  0  0  0  0  0  0  0
   -0.3734   -6.4127   -0.1452 H   0  0  0  0  0  0  0  0  0  0  0  0
    3.3753   -0.7685   -1.5899 H   0  0  0  0  0  0  0  0  0  0  0  0
    4.3291   -2.6029    2.1937 H   0  0  0  0  0  0  0  0  0  0  0  0
    6.3341   -1.2039    2.3725 H   0  0  0  0  0  0  0  0  0  0  0  0
    4.7643    0.7722   -2.2911 H   0  0  0  0  0  0  0  0  0  0  0  0
    7.5679    0.3687    1.4406 H   0  0  0  0  0  0  0  0  0  0  0  0
  1 17  1  0  0  0  0
  1 27  1  0  0  0  0
  2 22  1  0  0  0  0
  2 25  1  0  0  0  0
  3 22  1  0  0  0  0
  3 26  1  0  0  0  0
  4 18  1  0  0  0  0
  4 58  1  0  0  0  0
  5 19  1  0  0  0  0
  5 59  1  0  0  0  0
  6 27  1  0  0  0  0
  6 29  1  0  0  0  0
  7 20  1  0  0  0  0
  7 60  1  0  0  0  0
  8 21  1  0  0  0  0
  8 61  1  0  0  0  0
  9 23  1  0  0  0  0
  9 62  1  0  0  0  0
 10 24  1  0  0  0  0
 10 63  1  0  0  0  0
 11 28  1  0  0  0  0
 11 64  1  0  0  0  0
 12 32  1  0  0  0  0
 12 36  1  0  0  0  0
 13 33  1  0  0  0  0
 13 68  1  0  0  0  0
 14 35  2  0  0  0  0
 15 41  1  0  0  0  0
 15 72  1  0  0  0  0
 16 43  1  0  0  0  0
 16 73  1  0  0  0  0
 17 18  1  0  0  0  0
 17 26  1  0  0  0  0
 17 44  1  0  0  0  0
 18 19  1  0  0  0  0
 18 45  1  0  0  0  0
 19 23  1  0  0  0  0
 19 46  1  0  0  0  0
 20 21  1  0  0  0  0
 20 22  1  0  0  0  0
 20 47  1  0  0  0  0
 21 24  1  0  0  0  0
 21 48  1  0  0  0  0
 22 49  1  0  0  0  0
 23 27  1  0  0  0  0
 23 50  1  0  0  0  0
 24 25  1  0  0  0  0
 24 51  1  0  0  0  0
 25 28  1  0  0  0  0
 25 52  1  0  0  0  0
 26 53  1  0  0  0  0
 26 54  1  0  0  0  0
 27 55  1  0  0  0  0
 28 56  1  0  0  0  0
 28 57  1  0  0  0  0
 29 30  1  0  0  0  0
 29 31  2  0  0  0  0
 30 32  2  0  0  0  0
 30 65  1  0  0  0  0
 31 33  1  0  0  0  0
 31 66  1  0  0  0  0
 32 34  1  0  0  0  0
 33 34  2  0  0  0  0
 34 35  1  0  0  0  0
 35 37  1  0  0  0  0
 36 37  2  0  0  0  0
 36 38  1  0  0  0  0
 37 67  1  0  0  0  0
 38 39  2  0  0  0  0
 38 40  1  0  0  0  0
 39 41  1  0  0  0  0
 39 69  1  0  0  0  0
 40 42  2  0  0  0  0
 40 70  1  0  0  0  0
 41 43  2  0  0  0  0
 42 43  1  0  0  0  0
 42 71  1  0  0  0  0
M  END
> <PUBCHEM_COMPOUND_CID>
14032966

> <PUBCHEM_CONFORMER_RMSD>
1.2

> <PUBCHEM_CONFORMER_DIVERSEORDER>
1
77
215
203
194
153
305
156
155
274
212
44
248
335
334
276
301
279
94
281
50
277
201
171
11
360
282
230
295
213
82
364
193
223
352
241
272
161
135
70
316
84
95
232
268
174
315
220
108
186
73
357
126
96
267
166
302
129
278
307
293
292
358
222
365
123
159
149
66
211
231
60
353
254
112
36
57
169
20
151
86
243
337
165
300
63
284
258
345
287
177
297
120
124
62
338
117
160
111
172
74
54
104
55
187
304
310
37
244
233
107
224
141
332
98
341
139
79
163
15
340
355
237
130
336
192
288
202
23
257
363
314
219
269
89
204
214
348
262
119
64
35
362
180
343
97
19
249
154
218
9
134
235
80
309
368
190
85
148
366
197
205
286
122
291
296
182
32
285
251
290
242
306
91
69
46
234
88
90
137
322
175
10
350
150
208
68
71
330
140
29
303
143
261
114
247
250
238
25
344
3
317
260
131
331
136
191
195
116
283
349
115
178
342
26
252
210
179
72
347
256
216
270
369
142
56
209
48
183
31
328
239
121
4
7
346
298
184
22
78
102
327
105
326
185
8
81
33
47
245
75
189
196
118
93
52
351
152
221
320
59
146
259
354
289
158
162
199
45
265
263
39
87
228
361
147
198
206
12
229
58
207
225
128
264
266
253
333
324
168
13
319
92
103
127
42
100
318
101
359
30
5
329
67
240
16
53
294
313
2
325
138
61
125
275
145
40
43
323
157
164
167
34
110
176
200
236
28
113
106
49
188
181
246
280
144
356
217
99
83
339
18
311
312
41
6
17
132
321
226
308
24
21
76
273
299
27
271
14
133
109
51
173
227
367
255
65
38
170

> <PUBCHEM_MMFF94_PARTIAL_CHARGES>
59
1 -0.56
10 -0.68
11 -0.68
12 -0.16
13 -0.53
14 -0.57
15 -0.53
16 -0.53
17 0.28
18 0.28
19 0.28
2 -0.56
20 0.28
21 0.28
22 0.56
23 0.28
24 0.28
25 0.28
26 0.28
27 0.56
28 0.28
29 0.08
3 -0.56
30 -0.15
31 -0.15
32 0.08
33 0.08
34 0.09
35 0.47
36 0.05
37 -0.14
38 0.03
39 -0.15
4 -0.68
40 -0.15
41 0.08
42 -0.15
43 0.08
5 -0.68
58 0.4
59 0.4
6 -0.36
60 0.4
61 0.4
62 0.4
63 0.4
64 0.4
65 0.15
66 0.15
67 0.15
68 0.45
69 0.15
7 -0.68
70 0.15
71 0.15
72 0.45
73 0.45
8 -0.68
9 -0.68

> <PUBCHEM_EFFECTIVE_ROTOR_COUNT>
9.4

> <PUBCHEM_PHARMACOPHORE_FEATURES>
28
1 1 acceptor
1 10 acceptor
1 10 donor
1 11 acceptor
1 11 donor
1 12 acceptor
1 13 donor
1 14 acceptor
1 15 donor
1 16 donor
1 2 acceptor
1 3 acceptor
1 4 acceptor
1 4 donor
1 5 acceptor
1 5 donor
1 6 acceptor
1 7 acceptor
1 7 donor
1 8 acceptor
1 8 donor
1 9 acceptor
1 9 donor
6 1 17 18 19 23 27 rings
6 12 32 34 35 36 37 rings
6 2 20 21 22 24 25 rings
6 29 30 31 32 33 34 rings
6 38 39 40 41 42 43 rings

> <PUBCHEM_HEAVY_ATOM_COUNT>
43

> <PUBCHEM_ATOM_DEF_STEREO_COUNT>
8

> <PUBCHEM_ATOM_UDEF_STEREO_COUNT>
2

> <PUBCHEM_BOND_DEF_STEREO_COUNT>
0

> <PUBCHEM_BOND_UDEF_STEREO_COUNT>
0

> <PUBCHEM_ISOTOPIC_ATOM_COUNT>
0

> <PUBCHEM_COMPONENT_COUNT>
1

> <PUBCHEM_CACTVS_TAUTO_COUNT>
57

> <PUBCHEM_CONFORMER_ID>
00D6204600000001

> <PUBCHEM_MMFF94_ENERGY>
139.1397

> <PUBCHEM_FEATURE_SELFOVERLAP>
142.29

> <PUBCHEM_SHAPE_FINGERPRINT>
10581848 127 17981624666414274601
10864689 126 18338517422475692236
1100329 8 18338239378623696631
12677640 9 18195809802346232887
14394314 77 18411982434083400817
14747282 125 18125734614872147790
15274700 259 17604974942155938013
15320291 9 17473815135436785866
15320467 1 18410292493058187910
15927050 60 17977110389898709812
17627616 140 17904205071931133294
19611394 137 18042138672956845299
20764821 26 18337095865615226668
373842 8 18190739730580716662
45266715 3 16974750608677463271
463206 1 18267029529821409096
50677037 204 17908139876772551265
508180 173 18121802761934499570
6004065 56 18339066113432771653
9961470 85 17908694374002772123

> <PUBCHEM_SHAPE_MULTIPOLES>
791.01
12.95
10.13
1.47
1.73
2.07
-0.02
-1.42
-1.76
-1.9
-1.79
-0.55
2.28
-0.54

> <PUBCHEM_SHAPE_SELFOVERLAP>
1717.82

> <PUBCHEM_SHAPE_VOLUME>
424.7

> <PUBCHEM_COORDINATE_TYPE>
2
5
10

$$$$
