5317025
  -OEChem-09182005313D

 74 78  0     1  0  0  0  0  0999 V2000
   -3.2429   -0.7549    0.2225 O   0  0  0  0  0  0  0  0  0  0  0  0
   -1.8996    2.6942   -2.1920 O   0  0  0  0  0  0  0  0  0  0  0  0
   -3.0271    1.9833   -0.2287 O   0  0  0  0  0  0  0  0  0  0  0  0
   -6.3094    1.1818    0.7320 O   0  0  0  0  0  0  0  0  0  0  0  0
   -5.9443   -0.1709    3.2603 O   0  0  0  0  0  0  0  0  0  0  0  0
   -2.3971   -2.6744    1.2444 O   0  0  0  0  0  0  0  0  0  0  0  0
   -4.7257   -2.8211    2.8458 O   0  0  0  0  0  0  0  0  0  0  0  0
   -1.3454    5.1512   -0.8078 O   0  0  0  0  0  0  0  0  0  0  0  0
    0.6366    4.0418    0.8002 O   0  0  0  0  0  0  0  0  0  0  0  0
    1.4449    1.8768   -0.8748 O   0  0  0  0  0  0  0  0  0  0  0  0
    2.1078   -1.3797    0.4809 O   0  0  0  0  0  0  0  0  0  0  0  0
   -0.6113   -3.1165   -3.1364 O   0  0  0  0  0  0  0  0  0  0  0  0
    1.8843   -2.3756   -3.4635 O   0  0  0  0  0  0  0  0  0  0  0  0
    7.7798    0.8810    2.1228 O   0  0  0  0  0  0  0  0  0  0  0  0
   -4.3914    0.0117   -0.1442 C   0  0  1  0  0  0  0  0  0  0  0  0
   -5.1222    0.4910    1.1122 C   0  0  2  0  0  0  0  0  0  0  0  0
   -5.4904   -0.6907    2.0097 C   0  0  1  0  0  0  0  0  0  0  0  0
   -4.2867   -1.6033    2.2444 C   0  0  2  0  0  0  0  0  0  0  0  0
   -1.6010    3.9282   -0.1153 C   0  0  1  0  0  0  0  0  0  0  0  0
   -2.5453    3.0934   -0.9783 C   0  0  1  0  0  0  0  0  0  0  0  0
   -0.2873    3.1850    0.1328 C   0  0  1  0  0  0  0  0  0  0  0  0
    0.3287    2.7079   -1.1830 C   0  0  2  0  0  0  0  0  0  0  0  0
   -3.5830   -1.9445    0.9309 C   0  0  1  0  0  0  0  0  0  0  0  0
   -0.7094    1.9235   -1.9974 C   0  0  2  0  0  0  0  0  0  0  0  0
   -3.9106    1.1805   -0.9984 C   0  0  0  0  0  0  0  0  0  0  0  0
   -0.1875    1.5519   -3.3827 C   0  0  0  0  0  0  0  0  0  0  0  0
   -1.3480   -2.5323    0.3852 C   0  0  0  0  0  0  0  0  0  0  0  0
   -0.1332   -2.0262    0.8484 C   0  0  0  0  0  0  0  0  0  0  0  0
   -1.4906   -2.8942   -0.9551 C   0  0  0  0  0  0  0  0  0  0  0  0
    0.9393   -1.8830   -0.0322 C   0  0  0  0  0  0  0  0  0  0  0  0
   -0.4197   -2.7517   -1.8382 C   0  0  0  0  0  0  0  0  0  0  0  0
    0.7949   -2.2449   -1.3705 C   0  0  0  0  0  0  0  0  0  0  0  0
    1.9413   -2.0816   -2.2775 C   0  0  0  0  0  0  0  0  0  0  0  0
    3.1933   -1.2326   -0.3695 C   0  0  0  0  0  0  0  0  0  0  0  0
    3.1763   -1.5386   -1.6765 C   0  0  0  0  0  0  0  0  0  0  0  0
    4.3960   -0.6779    0.2835 C   0  0  0  0  0  0  0  0  0  0  0  0
    5.6679   -1.0108   -0.1889 C   0  0  0  0  0  0  0  0  0  0  0  0
    4.2671    0.1816    1.3774 C   0  0  0  0  0  0  0  0  0  0  0  0
    6.8039   -0.4873    0.4286 C   0  0  0  0  0  0  0  0  0  0  0  0
    5.4031    0.7051    1.9947 C   0  0  0  0  0  0  0  0  0  0  0  0
    6.6715    0.3708    1.5204 C   0  0  0  0  0  0  0  0  0  0  0  0
    7.5724    1.7520    3.2339 C   0  0  0  0  0  0  0  0  0  0  0  0
   -5.0541   -0.6054   -0.7654 H   0  0  0  0  0  0  0  0  0  0  0  0
   -4.5059    1.1928    1.6866 H   0  0  0  0  0  0  0  0  0  0  0  0
   -6.3269   -1.2622    1.5891 H   0  0  0  0  0  0  0  0  0  0  0  0
   -3.5902   -1.1303    2.9479 H   0  0  0  0  0  0  0  0  0  0  0  0
   -2.0626    4.1880    0.8436 H   0  0  0  0  0  0  0  0  0  0  0  0
   -3.3999    3.7165   -1.2698 H   0  0  0  0  0  0  0  0  0  0  0  0
   -0.4630    2.3284    0.7956 H   0  0  0  0  0  0  0  0  0  0  0  0
    0.7072    3.5697   -1.7460 H   0  0  0  0  0  0  0  0  0  0  0  0
   -4.2142   -2.5895    0.3055 H   0  0  0  0  0  0  0  0  0  0  0  0
   -0.9602    0.9874   -1.4821 H   0  0  0  0  0  0  0  0  0  0  0  0
   -3.3848    0.7776   -1.8712 H   0  0  0  0  0  0  0  0  0  0  0  0
   -4.7591    1.7816   -1.3443 H   0  0  0  0  0  0  0  0  0  0  0  0
    0.0879    2.4476   -3.9499 H   0  0  0  0  0  0  0  0  0  0  0  0
    0.6808    0.8894   -3.3271 H   0  0  0  0  0  0  0  0  0  0  0  0
   -0.9690    1.0435   -3.9583 H   0  0  0  0  0  0  0  0  0  0  0  0
   -6.8661    0.5662    0.2254 H   0  0  0  0  0  0  0  0  0  0  0  0
   -6.7000    0.4129    3.0758 H   0  0  0  0  0  0  0  0  0  0  0  0
   -3.9418   -3.3832    2.9704 H   0  0  0  0  0  0  0  0  0  0  0  0
   -1.0803    4.9383   -1.7184 H   0  0  0  0  0  0  0  0  0  0  0  0
    1.4624    3.5421    0.9201 H   0  0  0  0  0  0  0  0  0  0  0  0
    1.9234    1.7010   -1.7021 H   0  0  0  0  0  0  0  0  0  0  0  0
   -0.0255   -1.7439    1.8926 H   0  0  0  0  0  0  0  0  0  0  0  0
   -2.4338   -3.2964   -1.3171 H   0  0  0  0  0  0  0  0  0  0  0  0
    4.0167   -1.3964   -2.3456 H   0  0  0  0  0  0  0  0  0  0  0  0
    0.1945   -2.9669   -3.6542 H   0  0  0  0  0  0  0  0  0  0  0  0
    5.8144   -1.6928   -1.0221 H   0  0  0  0  0  0  0  0  0  0  0  0
    3.2907    0.4666    1.7618 H   0  0  0  0  0  0  0  0  0  0  0  0
    7.7897   -0.7551    0.0581 H   0  0  0  0  0  0  0  0  0  0  0  0
    5.2283    1.3669    2.8361 H   0  0  0  0  0  0  0  0  0  0  0  0
    8.5602    2.0632    3.5894 H   0  0  0  0  0  0  0  0  0  0  0  0
    7.0381    2.6612    2.9381 H   0  0  0  0  0  0  0  0  0  0  0  0
    7.0820    1.2341    4.0651 H   0  0  0  0  0  0  0  0  0  0  0  0
  1 15  1  0  0  0  0
  1 23  1  0  0  0  0
  2 20  1  0  0  0  0
  2 24  1  0  0  0  0
  3 20  1  0  0  0  0
  3 25  1  0  0  0  0
  4 16  1  0  0  0  0
  4 58  1  0  0  0  0
  5 17  1  0  0  0  0
  5 59  1  0  0  0  0
  6 23  1  0  0  0  0
  6 27  1  0  0  0  0
  7 18  1  0  0  0  0
  7 60  1  0  0  0  0
  8 19  1  0  0  0  0
  8 61  1  0  0  0  0
  9 21  1  0  0  0  0
  9 62  1  0  0  0  0
 10 22  1  0  0  0  0
 10 63  1  0  0  0  0
 11 30  1  0  0  0  0
 11 34  1  0  0  0  0
 12 31  1  0  0  0  0
 12 67  1  0  0  0  0
 13 33  2  0  0  0  0
 14 41  1  0  0  0  0
 14 42  1  0  0  0  0
 15 16  1  0  0  0  0
 15 25  1  0  0  0  0
 15 43  1  0  0  0  0
 16 17  1  0  0  0  0
 16 44  1  0  0  0  0
 17 18  1  0  0  0  0
 17 45  1  0  0  0  0
 18 23  1  0  0  0  0
 18 46  1  0  0  0  0
 19 20  1  0  0  0  0
 19 21  1  0  0  0  0
 19 47  1  0  0  0  0
 20 48  1  0  0  0  0
 21 22  1  0  0  0  0
 21 49  1  0  0  0  0
 22 24  1  0  0  0  0
 22 50  1  0  0  0  0
 23 51  1  0  0  0  0
 24 26  1  0  0  0  0
 24 52  1  0  0  0  0
 25 53  1  0  0  0  0
 25 54  1  0  0  0  0
 26 55  1  0  0  0  0
 26 56  1  0  0  0  0
 26 57  1  0  0  0  0
 27 28  1  0  0  0  0
 27 29  2  0  0  0  0
 28 30  2  0  0  0  0
 28 64  1  0  0  0  0
 29 31  1  0  0  0  0
 29 65  1  0  0  0  0
 30 32  1  0  0  0  0
 31 32  2  0  0  0  0
 32 33  1  0  0  0  0
 33 35  1  0  0  0  0
 34 35  2  0  0  0  0
 34 36  1  0  0  0  0
 35 66  1  0  0  0  0
 36 37  2  0  0  0  0
 36 38  1  0  0  0  0
 37 39  1  0  0  0  0
 37 68  1  0  0  0  0
 38 40  2  0  0  0  0
 38 69  1  0  0  0  0
 39 41  2  0  0  0  0
 39 70  1  0  0  0  0
 40 41  1  0  0  0  0
 40 71  1  0  0  0  0
 42 72  1  0  0  0  0
 42 73  1  0  0  0  0
 42 74  1  0  0  0  0
M  END
> <PUBCHEM_COMPOUND_CID>
5317025

> <PUBCHEM_CONFORMER_RMSD>
1.2

> <PUBCHEM_CONFORMER_DIVERSEORDER>
1
270
68
316
318
93
281
158
353
301
13
84
244
161
232
321
52
306
317
326
88
286
76
266
15
113
152
40
343
176
273
116
207
222
204
29
264
60
315
153
237
186
177
128
296
79
274
258
123
350
100
344
218
187
22
178
284
346
231
219
290
246
14
53
103
131
299
295
179
265
248
159
154
211
18
209
129
240
24
347
20
165
331
227
81
169
72
46
17
241
298
148
283
233
305
338
294
118
253
50
174
251
345
228
142
243
213
61
354
34
239
257
203
269
292
349
2
330
234
214
35
7
86
58
5
73
201
252
229
41
293
49
64
200
217
126
170
282
163
94
4
191
307
122
168
9
212
30
268
197
107
280
115
111
319
302
355
67
322
112
135
110
59
311
65
279
162
44
10
56
89
102
98
184
329
99
309
48
190
120
208
236
340
230
199
254
108
144
43
288
289
172
196
8
146
21
151
54
124
263
140
328
171
198
96
85
71
11
83
97
182
175
138
310
133
173
332
272
215
3
91
220
104
188
157
33
121
348
69
136
202
78
226
87
245
260
55
16
210
242
249
145
336
12
134
19
337
256
26
304
137
80
92
276
205
195
6
312
194
114
223
119
39
167
181
225
75
308
287
180
36
74
77
82
63
38
166
70
351
105
261
37
62
117
193
28
150
132
130
341
333
149
192
314
127
238
189
342
185
285
247
324
339
109
278
323
141
156
23
291
47
42
95
164
160
147
300
31
106
32
101
139
90
66
125
155
250
221
277
262
25
27
143
206
45
235
267
352
259
183
224
334
57
320
271
313
275
297
255
216
303
51
327
335
325

> <PUBCHEM_MMFF94_PARTIAL_CHARGES>
55
1 -0.56
10 -0.68
11 -0.16
12 -0.53
13 -0.57
14 -0.36
15 0.28
16 0.28
17 0.28
18 0.28
19 0.28
2 -0.56
20 0.56
21 0.28
22 0.28
23 0.56
24 0.28
25 0.28
27 0.08
28 -0.15
29 -0.15
3 -0.56
30 0.08
31 0.08
32 0.09
33 0.47
34 0.05
35 -0.14
36 0.03
37 -0.15
38 -0.15
39 -0.15
4 -0.68
40 -0.15
41 0.08
42 0.28
5 -0.68
58 0.4
59 0.4
6 -0.36
60 0.4
61 0.4
62 0.4
63 0.4
64 0.15
65 0.15
66 0.15
67 0.45
68 0.15
69 0.15
7 -0.68
70 0.15
71 0.15
8 -0.68
9 -0.68

> <PUBCHEM_EFFECTIVE_ROTOR_COUNT>
9.4

> <PUBCHEM_PHARMACOPHORE_FEATURES>
25
1 1 acceptor
1 10 acceptor
1 10 donor
1 11 acceptor
1 12 donor
1 13 acceptor
1 14 acceptor
1 2 acceptor
1 3 acceptor
1 4 acceptor
1 4 donor
1 5 acceptor
1 5 donor
1 6 acceptor
1 7 acceptor
1 7 donor
1 8 acceptor
1 8 donor
1 9 acceptor
1 9 donor
6 1 15 16 17 18 23 rings
6 11 30 32 33 34 35 rings
6 2 19 20 21 22 24 rings
6 27 28 29 30 31 32 rings
6 36 37 38 39 40 41 rings

> <PUBCHEM_HEAVY_ATOM_COUNT>
42

> <PUBCHEM_ATOM_DEF_STEREO_COUNT>
10

> <PUBCHEM_ATOM_UDEF_STEREO_COUNT>
0

> <PUBCHEM_BOND_DEF_STEREO_COUNT>
0

> <PUBCHEM_BOND_UDEF_STEREO_COUNT>
0

> <PUBCHEM_ISOTOPIC_ATOM_COUNT>
0

> <PUBCHEM_COMPONENT_COUNT>
1

> <PUBCHEM_CACTVS_TAUTO_COUNT>
5

> <PUBCHEM_CONFORMER_ID>
005121A100000001

> <PUBCHEM_MMFF94_ENERGY>
144.3696

> <PUBCHEM_FEATURE_SELFOVERLAP>
127.042

> <PUBCHEM_SHAPE_FINGERPRINT>
10006869 2 18192980535273005282
10256941 240 16811213170599740604
10675989 125 16747597545035486005
10838868 49 17969200305331600514
11456790 92 17458642133552522883
12013929 29 16773529814965666354
12128747 34 18117842093123611058
12422481 6 18339645641374438250
13402501 40 18340764858122498049
14028597 1 17240472603498586506
14415360 78 16987415686124248120
14904385 31 18272650164817586024
14930077 153 12894488053769178402
15324884 4 17985016801868329111
15840311 113 17200823024848633203
15968369 153 18343023285028757252
161222 619 18202278100434978156
18393751 57 18272937119946018055
19309040 13 15482406295152951502
20587220 17 16915393095827481585
20764821 26 18125422349517809676
21033648 29 18271538545339639419
21716022 299 16831190673721290975
21795232 40 17774428503540590416
22121540 332 18058181535531951100
24771293 8 18341055121662638657
25019877 29 17274546550232394567
25223398 141 18193010214193256222
469060 322 17168151078972066868
50009960 94 17752773708474837275

> <PUBCHEM_SHAPE_MULTIPOLES>
782.17
15.08
5.11
3.29
19.73
4.4
-0.38
1.68
17.4
-3.54
-2.06
0.04
-0.96
4.61

> <PUBCHEM_SHAPE_SELFOVERLAP>
1695.799

> <PUBCHEM_SHAPE_VOLUME>
422.3

> <PUBCHEM_COORDINATE_TYPE>
2
5
10

$$$$
