11105753
  -OEChem-09182005103D

 28 28  0     1  0  0  0  0  0999 V2000
   -2.9281   -0.1432    0.8707 O   0  0  0  0  0  0  0  0  0  0  0  0
    2.7000   -1.3998    0.7739 O   0  0  0  0  0  0  0  0  0  0  0  0
    0.4044    1.2674   -0.2708 C   0  0  0  0  0  0  0  0  0  0  0  0
   -0.9054    0.4135   -0.2480 C   0  0  1  0  0  0  0  0  0  0  0  0
    1.4590    0.6467    0.6660 C   0  0  0  0  0  0  0  0  0  0  0  0
   -0.6154   -1.0636   -0.4718 C   0  0  0  0  0  0  0  0  0  0  0  0
    0.9640    1.3311   -1.7151 C   0  0  0  0  0  0  0  0  0  0  0  0
    0.1472    2.7231    0.1701 C   0  0  0  0  0  0  0  0  0  0  0  0
   -1.7288    0.5697    1.0408 C   0  0  0  0  0  0  0  0  0  0  0  0
    1.6596   -0.8358    0.4369 C   0  0  0  0  0  0  0  0  0  0  0  0
    0.5605   -1.6304   -0.1605 C   0  0  0  0  0  0  0  0  0  0  0  0
   -1.7172   -1.8785   -1.0922 C   0  0  0  0  0  0  0  0  0  0  0  0
   -1.5327    0.7574   -1.0834 H   0  0  0  0  0  0  0  0  0  0  0  0
    1.1731    0.7734    1.7171 H   0  0  0  0  0  0  0  0  0  0  0  0
    2.4259    1.1449    0.5234 H   0  0  0  0  0  0  0  0  0  0  0  0
    1.2011    0.3429   -2.1209 H   0  0  0  0  0  0  0  0  0  0  0  0
    0.2404    1.7991   -2.3926 H   0  0  0  0  0  0  0  0  0  0  0  0
    1.8841    1.9258   -1.7546 H   0  0  0  0  0  0  0  0  0  0  0  0
    1.0408    3.3415    0.0247 H   0  0  0  0  0  0  0  0  0  0  0  0
   -0.6658    3.1732   -0.4104 H   0  0  0  0  0  0  0  0  0  0  0  0
   -0.1114    2.7916    1.2318 H   0  0  0  0  0  0  0  0  0  0  0  0
   -1.9948    1.6134    1.2258 H   0  0  0  0  0  0  0  0  0  0  0  0
   -1.2004    0.1776    1.9160 H   0  0  0  0  0  0  0  0  0  0  0  0
    0.7498   -2.6851   -0.3287 H   0  0  0  0  0  0  0  0  0  0  0  0
   -2.4744   -2.1613   -0.3569 H   0  0  0  0  0  0  0  0  0  0  0  0
   -1.3288   -2.8075   -1.5256 H   0  0  0  0  0  0  0  0  0  0  0  0
   -2.1984   -1.3284   -1.9072 H   0  0  0  0  0  0  0  0  0  0  0  0
   -3.4432   -0.0452    1.6895 H   0  0  0  0  0  0  0  0  0  0  0  0
  1  9  1  0  0  0  0
  1 28  1  0  0  0  0
  2 10  2  0  0  0  0
  3  4  1  0  0  0  0
  3  5  1  0  0  0  0
  3  7  1  0  0  0  0
  3  8  1  0  0  0  0
  4  6  1  0  0  0  0
  4  9  1  0  0  0  0
  4 13  1  0  0  0  0
  5 10  1  0  0  0  0
  5 14  1  0  0  0  0
  5 15  1  0  0  0  0
  6 11  2  0  0  0  0
  6 12  1  0  0  0  0
  7 16  1  0  0  0  0
  7 17  1  0  0  0  0
  7 18  1  0  0  0  0
  8 19  1  0  0  0  0
  8 20  1  0  0  0  0
  8 21  1  0  0  0  0
  9 22  1  0  0  0  0
  9 23  1  0  0  0  0
 10 11  1  0  0  0  0
 11 24  1  0  0  0  0
 12 25  1  0  0  0  0
 12 26  1  0  0  0  0
 12 27  1  0  0  0  0
M  END
> <PUBCHEM_COMPOUND_CID>
11105753

> <PUBCHEM_CONFORMER_RMSD>
0.4

> <PUBCHEM_CONFORMER_DIVERSEORDER>
2
1
3
4
5

> <PUBCHEM_MMFF94_PARTIAL_CHARGES>
11
1 -0.68
10 0.49
11 -0.14
12 0.14
2 -0.57
24 0.15
28 0.4
4 0.14
5 0.06
6 -0.28
9 0.28

> <PUBCHEM_EFFECTIVE_ROTOR_COUNT>
1.6

> <PUBCHEM_PHARMACOPHORE_FEATURES>
5
1 1 acceptor
1 1 donor
1 2 acceptor
3 3 7 8 hydrophobe
6 3 4 5 6 10 11 rings

> <PUBCHEM_HEAVY_ATOM_COUNT>
12

> <PUBCHEM_ATOM_DEF_STEREO_COUNT>
1

> <PUBCHEM_ATOM_UDEF_STEREO_COUNT>
0

> <PUBCHEM_BOND_DEF_STEREO_COUNT>
0

> <PUBCHEM_BOND_UDEF_STEREO_COUNT>
0

> <PUBCHEM_ISOTOPIC_ATOM_COUNT>
0

> <PUBCHEM_COMPONENT_COUNT>
1

> <PUBCHEM_CACTVS_TAUTO_COUNT>
8

> <PUBCHEM_CONFORMER_ID>
00A975D900000002

> <PUBCHEM_MMFF94_ENERGY>
28.3653

> <PUBCHEM_FEATURE_SELFOVERLAP>
25.371

> <PUBCHEM_SHAPE_FINGERPRINT>
10702982 57 17612346294544146420
12423570 1 8344570476485952652
12716758 59 16462765282614845212
13024252 1 14926210478773543850
13839132 238 16127826149149639353
14817 1 11229962624331488020
16945 1 18199177395871127818
18185500 45 18340198716939647970
20588541 1 16395224907260512870
20871998 184 18123463874141656746
22112679 90 18271813470311160902
23419403 2 16473387415120951475
23552423 10 17979629357846807975
241688 4 18267280128119778618
2748010 2 18266443348326359372
430814 3 17102303779857862045
4369600 1 16759999520699476255
5084963 1 16812063526546774140
528862 383 17968956295306983372

> <PUBCHEM_SHAPE_MULTIPOLES>
235.22
2.79
2.43
1.23
1.22
0.33
0.34
-0.64
-0.54
-0.78
-0.04
0
0.16
-0.99

> <PUBCHEM_SHAPE_SELFOVERLAP>
473.23

> <PUBCHEM_SHAPE_VOLUME>
137.5

> <PUBCHEM_COORDINATE_TYPE>
2
5
10

$$$$
