9851181
  -OEChem-09182005243D

 71 75  0     1  0  0  0  0  0999 V2000
    3.0522    0.4053    0.5305 O   0  0  0  0  0  0  0  0  0  0  0  0
    1.6832   -4.3438    1.0134 O   0  0  0  0  0  0  0  0  0  0  0  0
    1.6995   -1.9748    0.8755 O   0  0  0  0  0  0  0  0  0  0  0  0
    5.2698   -1.7789   -1.3997 O   0  0  0  0  0  0  0  0  0  0  0  0
    6.6840    0.7418   -1.3574 O   0  0  0  0  0  0  0  0  0  0  0  0
    2.7996    2.7232    0.6172 O   0  0  0  0  0  0  0  0  0  0  0  0
    4.7824    2.9921   -1.3839 O   0  0  0  0  0  0  0  0  0  0  0  0
   -0.4642   -4.0727    2.9043 O   0  0  0  0  0  0  0  0  0  0  0  0
   -2.3665   -3.4500    0.9710 O   0  0  0  0  0  0  0  0  0  0  0  0
   -1.1699   -4.7132   -1.2914 O   0  0  0  0  0  0  0  0  0  0  0  0
   -1.7229    1.4756   -0.1215 O   0  0  0  0  0  0  0  0  0  0  0  0
   -0.5568    6.0777    0.8563 O   0  0  0  0  0  0  0  0  0  0  0  0
   -3.0254    5.2959    0.4334 O   0  0  0  0  0  0  0  0  0  0  0  0
   -6.4204   -2.5552   -1.4115 O   0  0  0  0  0  0  0  0  0  0  0  0
    3.4317   -0.7403   -0.2342 C   0  0  1  0  0  0  0  0  0  0  0  0
    4.9240   -0.6748   -0.5674 C   0  0  2  0  0  0  0  0  0  0  0  0
    5.2616    0.6289   -1.2910 C   0  0  1  0  0  0  0  0  0  0  0  0
    4.6891    1.8373   -0.5501 C   0  0  2  0  0  0  0  0  0  0  0  0
   -0.1771   -3.0689    1.9294 C   0  0  1  0  0  0  0  0  0  0  0  0
    1.3234   -3.1109    1.6462 C   0  0  1  0  0  0  0  0  0  0  0  0
   -0.9809   -3.3342    0.6553 C   0  0  1  0  0  0  0  0  0  0  0  0
   -0.5118   -4.6179   -0.0305 C   0  0  2  0  0  0  0  0  0  0  0  0
    3.2186    1.6238   -0.1908 C   0  0  1  0  0  0  0  0  0  0  0  0
    1.0103   -4.5852   -0.2264 C   0  0  2  0  0  0  0  0  0  0  0  0
    3.0910   -1.9773    0.5908 C   0  0  0  0  0  0  0  0  0  0  0  0
    1.5449   -5.9057   -0.7739 C   0  0  0  0  0  0  0  0  0  0  0  0
    1.4850    3.0757    0.5338 C   0  0  0  0  0  0  0  0  0  0  0  0
    0.5221    2.1078    0.2471 C   0  0  0  0  0  0  0  0  0  0  0  0
    1.1051    4.4032    0.7366 C   0  0  0  0  0  0  0  0  0  0  0  0
   -0.8225    2.4705    0.1638 C   0  0  0  0  0  0  0  0  0  0  0  0
   -0.2388    4.7690    0.6533 C   0  0  0  0  0  0  0  0  0  0  0  0
   -1.1999    3.7970    0.3663 C   0  0  0  0  0  0  0  0  0  0  0  0
   -2.6240    4.1519    0.2706 C   0  0  0  0  0  0  0  0  0  0  0  0
   -3.0673    1.8053   -0.2040 C   0  0  0  0  0  0  0  0  0  0  0  0
   -3.5530    3.0455   -0.0359 C   0  0  0  0  0  0  0  0  0  0  0  0
   -3.9469    0.6623   -0.5210 C   0  0  0  0  0  0  0  0  0  0  0  0
   -5.2679    0.6460   -0.0670 C   0  0  0  0  0  0  0  0  0  0  0  0
   -3.4612   -0.4083   -1.2759 C   0  0  0  0  0  0  0  0  0  0  0  0
   -6.0983   -0.4342   -0.3661 C   0  0  0  0  0  0  0  0  0  0  0  0
   -4.2917   -1.4884   -1.5750 C   0  0  0  0  0  0  0  0  0  0  0  0
   -5.6102   -1.5013   -1.1201 C   0  0  0  0  0  0  0  0  0  0  0  0
    2.8234   -0.7663   -1.1487 H   0  0  0  0  0  0  0  0  0  0  0  0
    5.5270   -0.7511    0.3457 H   0  0  0  0  0  0  0  0  0  0  0  0
    4.9030    0.6113   -2.3276 H   0  0  0  0  0  0  0  0  0  0  0  0
    5.2840    2.0411    0.3489 H   0  0  0  0  0  0  0  0  0  0  0  0
   -0.4750   -2.1055    2.3571 H   0  0  0  0  0  0  0  0  0  0  0  0
    1.8631   -3.0813    2.6010 H   0  0  0  0  0  0  0  0  0  0  0  0
   -0.8813   -2.4845   -0.0315 H   0  0  0  0  0  0  0  0  0  0  0  0
   -0.8176   -5.4862    0.5657 H   0  0  0  0  0  0  0  0  0  0  0  0
    2.6421    1.5969   -1.1280 H   0  0  0  0  0  0  0  0  0  0  0  0
    1.2793   -3.8013   -0.9460 H   0  0  0  0  0  0  0  0  0  0  0  0
    3.6413   -1.9550    1.5394 H   0  0  0  0  0  0  0  0  0  0  0  0
    3.3721   -2.8790    0.0371 H   0  0  0  0  0  0  0  0  0  0  0  0
    2.6376   -5.8713   -0.8472 H   0  0  0  0  0  0  0  0  0  0  0  0
    1.1424   -6.1287   -1.7659 H   0  0  0  0  0  0  0  0  0  0  0  0
    1.3019   -6.7348   -0.1003 H   0  0  0  0  0  0  0  0  0  0  0  0
    4.7337   -1.7242   -2.2092 H   0  0  0  0  0  0  0  0  0  0  0  0
    7.0170   -0.0452   -1.8219 H   0  0  0  0  0  0  0  0  0  0  0  0
    4.3995    3.7384   -0.8916 H   0  0  0  0  0  0  0  0  0  0  0  0
   -0.0680   -4.9097    2.6086 H   0  0  0  0  0  0  0  0  0  0  0  0
   -2.8387   -3.6424    0.1429 H   0  0  0  0  0  0  0  0  0  0  0  0
   -0.9987   -5.6003   -1.6492 H   0  0  0  0  0  0  0  0  0  0  0  0
    0.7645    1.0605    0.1029 H   0  0  0  0  0  0  0  0  0  0  0  0
    1.8605    5.1531    0.9590 H   0  0  0  0  0  0  0  0  0  0  0  0
   -4.6007    3.3063   -0.1281 H   0  0  0  0  0  0  0  0  0  0  0  0
   -1.5135    6.2120    0.7751 H   0  0  0  0  0  0  0  0  0  0  0  0
   -5.6795    1.4467    0.5416 H   0  0  0  0  0  0  0  0  0  0  0  0
   -2.4402   -0.4229   -1.6494 H   0  0  0  0  0  0  0  0  0  0  0  0
   -7.1221   -0.4349   -0.0018 H   0  0  0  0  0  0  0  0  0  0  0  0
   -3.9056   -2.3170   -2.1625 H   0  0  0  0  0  0  0  0  0  0  0  0
   -7.2961   -2.3976   -1.0186 H   0  0  0  0  0  0  0  0  0  0  0  0
  1 15  1  0  0  0  0
  1 23  1  0  0  0  0
  2 20  1  0  0  0  0
  2 24  1  0  0  0  0
  3 20  1  0  0  0  0
  3 25  1  0  0  0  0
  4 16  1  0  0  0  0
  4 57  1  0  0  0  0
  5 17  1  0  0  0  0
  5 58  1  0  0  0  0
  6 23  1  0  0  0  0
  6 27  1  0  0  0  0
  7 18  1  0  0  0  0
  7 59  1  0  0  0  0
  8 19  1  0  0  0  0
  8 60  1  0  0  0  0
  9 21  1  0  0  0  0
  9 61  1  0  0  0  0
 10 22  1  0  0  0  0
 10 62  1  0  0  0  0
 11 30  1  0  0  0  0
 11 34  1  0  0  0  0
 12 31  1  0  0  0  0
 12 66  1  0  0  0  0
 13 33  2  0  0  0  0
 14 41  1  0  0  0  0
 14 71  1  0  0  0  0
 15 16  1  0  0  0  0
 15 25  1  0  0  0  0
 15 42  1  0  0  0  0
 16 17  1  0  0  0  0
 16 43  1  0  0  0  0
 17 18  1  0  0  0  0
 17 44  1  0  0  0  0
 18 23  1  0  0  0  0
 18 45  1  0  0  0  0
 19 20  1  0  0  0  0
 19 21  1  0  0  0  0
 19 46  1  0  0  0  0
 20 47  1  0  0  0  0
 21 22  1  0  0  0  0
 21 48  1  0  0  0  0
 22 24  1  0  0  0  0
 22 49  1  0  0  0  0
 23 50  1  0  0  0  0
 24 26  1  0  0  0  0
 24 51  1  0  0  0  0
 25 52  1  0  0  0  0
 25 53  1  0  0  0  0
 26 54  1  0  0  0  0
 26 55  1  0  0  0  0
 26 56  1  0  0  0  0
 27 28  1  0  0  0  0
 27 29  2  0  0  0  0
 28 30  2  0  0  0  0
 28 63  1  0  0  0  0
 29 31  1  0  0  0  0
 29 64  1  0  0  0  0
 30 32  1  0  0  0  0
 31 32  2  0  0  0  0
 32 33  1  0  0  0  0
 33 35  1  0  0  0  0
 34 35  2  0  0  0  0
 34 36  1  0  0  0  0
 35 65  1  0  0  0  0
 36 37  2  0  0  0  0
 36 38  1  0  0  0  0
 37 39  1  0  0  0  0
 37 67  1  0  0  0  0
 38 40  2  0  0  0  0
 38 68  1  0  0  0  0
 39 41  2  0  0  0  0
 39 69  1  0  0  0  0
 40 41  1  0  0  0  0
 40 70  1  0  0  0  0
M  END
> <PUBCHEM_COMPOUND_CID>
9851181

> <PUBCHEM_CONFORMER_RMSD>
1.2

> <PUBCHEM_CONFORMER_DIVERSEORDER>
4
181
292
670
279
432
309
46
384
552
324
437
435
347
241
13
381
19
650
352
154
155
29
32
399
532
73
396
597
513
323
622
157
24
75
322
540
254
484
44
422
234
16
434
418
383
198
145
548
76
505
40
18
589
87
673
45
407
314
308
52
375
423
143
89
58
411
235
179
428
212
100
39
9
178
653
632
405
457
296
144
21
343
364
93
503
2
110
80
665
495
534
98
246
208
267
509
544
346
362
190
291
515
129
504
5
644
210
351
1
163
431
416
114
8
43
25
584
313
605
273
281
120
295
655
135
546
239
451
69
140
78
97
374
238
648
661
250
150
116
332
300
22
33
244
168
187
237
104
186
10
293
3
95
7
335
547
96
202
159
447
30
170
20
617
37
67
531
17
115
28
260
70
438
94
138
55
311
209
378
101
61
51
304
6
430
188
195
134
242
440
270
256
588
85
121
680
317
616
36
35
171
220
229
107
12
370
326
493
31
71
243
64
175
231
128
301
228
27
459
298
340
481
225
42
594
23
124
74
264
675
684
571
56
63

> <PUBCHEM_MMFF94_PARTIAL_CHARGES>
55
1 -0.56
10 -0.68
11 -0.16
12 -0.53
13 -0.57
14 -0.53
15 0.28
16 0.28
17 0.28
18 0.28
19 0.28
2 -0.56
20 0.56
21 0.28
22 0.28
23 0.56
24 0.28
25 0.28
27 0.08
28 -0.15
29 -0.15
3 -0.56
30 0.08
31 0.08
32 0.09
33 0.47
34 0.05
35 -0.14
36 0.03
37 -0.15
38 -0.15
39 -0.15
4 -0.68
40 -0.15
41 0.08
5 -0.68
57 0.4
58 0.4
59 0.4
6 -0.36
60 0.4
61 0.4
62 0.4
63 0.15
64 0.15
65 0.15
66 0.45
67 0.15
68 0.15
69 0.15
7 -0.68
70 0.15
71 0.45
8 -0.68
9 -0.68

> <PUBCHEM_EFFECTIVE_ROTOR_COUNT>
8.4

> <PUBCHEM_PHARMACOPHORE_FEATURES>
25
1 1 acceptor
1 10 acceptor
1 10 donor
1 11 acceptor
1 12 donor
1 13 acceptor
1 14 donor
1 2 acceptor
1 3 acceptor
1 4 acceptor
1 4 donor
1 5 acceptor
1 5 donor
1 6 acceptor
1 7 acceptor
1 7 donor
1 8 acceptor
1 8 donor
1 9 acceptor
1 9 donor
6 1 15 16 17 18 23 rings
6 11 30 32 33 34 35 rings
6 2 19 20 21 22 24 rings
6 27 28 29 30 31 32 rings
6 36 37 38 39 40 41 rings

> <PUBCHEM_HEAVY_ATOM_COUNT>
41

> <PUBCHEM_ATOM_DEF_STEREO_COUNT>
10

> <PUBCHEM_ATOM_UDEF_STEREO_COUNT>
0

> <PUBCHEM_BOND_DEF_STEREO_COUNT>
0

> <PUBCHEM_BOND_UDEF_STEREO_COUNT>
0

> <PUBCHEM_ISOTOPIC_ATOM_COUNT>
0

> <PUBCHEM_COMPONENT_COUNT>
1

> <PUBCHEM_CACTVS_TAUTO_COUNT>
21

> <PUBCHEM_CONFORMER_ID>
0096512D00000004

> <PUBCHEM_MMFF94_ENERGY>
131.8008

> <PUBCHEM_FEATURE_SELFOVERLAP>
127.04

> <PUBCHEM_SHAPE_FINGERPRINT>
10864689 126 18338510941074357397
11285246 1 18199179762503414671
11513181 2 18125162632518509374
1361 2 18340198713198705235
15250474 111 18121494653074873704
15320291 9 18048869698183279347
15320467 1 18412259532461809735
15351339 4 18334283258620128091
15538507 32 18267022936978057468
15927050 60 18196375806359154505
16993438 75 18189915252148347928
17627616 140 18263640676128556447
19311894 1 18269550713999662518
20028762 73 18339641119365141510
20764821 26 18192142926629798627
20775438 99 17480556670649622661
437795 96 17401486447152406138
463206 1 18338797947774234077
4756261 7 17902192708877998122
50080093 196 17610340441769478378
5171179 24 17619351352076344494
54324442 115 18194971965842997150

> <PUBCHEM_SHAPE_MULTIPOLES>
761.59
11.86
10.04
1.49
1.13
1.45
0.4
-0.4
-7.11
0.82
2.5
-0.37
1.53
-2.31

> <PUBCHEM_SHAPE_SELFOVERLAP>
1655.084

> <PUBCHEM_SHAPE_VOLUME>
409.9

> <PUBCHEM_COORDINATE_TYPE>
2
5
10

$$$$
