197452
  -OEChem-09182005172D

163171  0     1  0  0  0  0  0999 V2000
    9.4651   -0.1941    0.0000 O   0  0  0  0  0  0  0  0  0  0  0  0
    7.0210    0.4975    0.0000 O   0  0  0  0  0  0  0  0  0  0  0  0
    7.7113    9.0853    0.0000 O   0  0  0  0  0  0  0  0  0  0  0  0
    7.7331   -0.1941    0.0000 O   0  0  0  0  0  0  0  0  0  0  0  0
    9.4651   -2.1941    0.0000 O   0  0  0  0  0  0  0  0  0  0  0  0
    7.7331   -3.1941    0.0000 O   0  0  0  0  0  0  0  0  0  0  0  0
    6.0010   -2.1941    0.0000 O   0  0  0  0  0  0  0  0  0  0  0  0
   10.3312   -0.6941    0.0000 O   0  0  0  0  0  0  0  0  0  0  0  0
    6.0010   -3.1941    0.0000 O   0  0  0  0  0  0  0  0  0  0  0  0
   11.1972   -3.1941    0.0000 O   0  0  0  0  0  0  0  0  0  0  0  0
    7.7331   -5.1941    0.0000 O   0  0  0  0  0  0  0  0  0  0  0  0
   12.9292   -2.1941    0.0000 O   0  0  0  0  0  0  0  0  0  0  0  0
   12.9292   -0.1941    0.0000 O   0  0  0  0  0  0  0  0  0  0  0  0
    6.0010   -6.1941    0.0000 O   0  0  0  0  0  0  0  0  0  0  0  0
    4.2690   -5.1941    0.0000 O   0  0  0  0  0  0  0  0  0  0  0  0
   12.0632    1.3059    0.0000 O   0  0  0  0  0  0  0  0  0  0  0  0
    3.4030   -3.6941    0.0000 O   0  0  0  0  0  0  0  0  0  0  0  0
    5.1350   -6.6941    0.0000 O   0  0  0  0  0  0  0  0  0  0  0  0
    2.5369   -6.1941    0.0000 O   0  0  0  0  0  0  0  0  0  0  0  0
    2.5369   -8.1941    0.0000 O   0  0  0  0  0  0  0  0  0  0  0  0
    4.2690   -9.1941    0.0000 O   0  0  0  0  0  0  0  0  0  0  0  0
    8.5641    4.5061    0.0000 C   0  0  3  0  0  0  0  0  0  0  0  0
    9.4402    2.9612    0.0000 C   0  0  3  0  0  0  0  0  0  0  0  0
    9.4282    4.0028    0.0000 C   0  0  3  0  0  0  0  0  0  0  0  0
    8.5402    2.4369    0.0000 C   0  0  3  0  0  0  0  0  0  0  0  0
    8.5679    5.5061    0.0000 C   0  0  3  0  0  0  0  0  0  0  0  0
    8.5276    1.3520    0.0000 C   0  0  3  0  0  0  0  0  0  0  0  0
    7.6521    4.0028    0.0000 C   0  0  0  0  0  0  0  0  0  0  0  0
    7.6401    2.9612    0.0000 C   0  0  0  0  0  0  0  0  0  0  0  0
   10.3901    2.4369    0.0000 C   0  0  0  0  0  0  0  0  0  0  0  0
    9.4359    6.0027    0.0000 C   0  0  0  0  0  0  0  0  0  0  0  0
    7.6599    6.0164    0.0000 C   0  0  0  0  0  0  0  0  0  0  0  0
    9.4651    0.8059    0.0000 C   0  0  3  0  0  0  0  0  0  0  0  0
   10.4027    1.3520    0.0000 C   0  0  0  0  0  0  0  0  0  0  0  0
    7.5800    4.6835    0.0000 C   0  0  0  0  0  0  0  0  0  0  0  0
   10.2961    4.4994    0.0000 C   0  0  0  0  0  0  0  0  0  0  0  0
    8.5600    7.5754    0.0000 C   0  0  3  0  0  0  0  0  0  0  0  0
   10.3043    3.4645    0.0000 C   0  0  0  0  0  0  0  0  0  0  0  0
    9.4560    7.0442    0.0000 C   0  0  0  0  0  0  0  0  0  0  0  0
    7.6559    7.0580    0.0000 C   0  0  0  0  0  0  0  0  0  0  0  0
    7.5825    5.3363    0.0000 C   0  0  0  0  0  0  0  0  0  0  0  0
   10.3000    5.4994    0.0000 C   0  0  0  0  0  0  0  0  0  0  0  0
    7.5276    1.3597    0.0000 C   0  0  0  0  0  0  0  0  0  0  0  0
    8.0209    0.4898    0.0000 C   0  0  0  0  0  0  0  0  0  0  0  0
    8.5558    8.6604    0.0000 C   0  0  0  0  0  0  0  0  0  0  0  0
   10.4099    7.5611    0.0000 C   0  0  0  0  0  0  0  0  0  0  0  0
   10.4308    8.6459    0.0000 C   0  0  0  0  0  0  0  0  0  0  0  0
    9.4975    9.1992    0.0000 C   0  0  0  0  0  0  0  0  0  0  0  0
    7.6998    8.0854    0.0000 C   0  0  0  0  0  0  0  0  0  0  0  0
    8.5991   -0.6941    0.0000 C   0  0  3  0  0  0  0  0  0  0  0  0
   10.9441    9.5041    0.0000 C   0  0  0  0  0  0  0  0  0  0  0  0
   11.4307    8.6305    0.0000 C   0  0  0  0  0  0  0  0  0  0  0  0
    8.5991   -1.6941    0.0000 C   0  0  3  0  0  0  0  0  0  0  0  0
    7.7331   -2.1941    0.0000 C   0  0  3  0  0  0  0  0  0  0  0  0
    6.8671   -0.6941    0.0000 C   0  0  3  0  0  0  0  0  0  0  0  0
    6.8671   -1.6941    0.0000 C   0  0  3  0  0  0  0  0  0  0  0  0
    6.0010   -0.1941    0.0000 C   0  0  0  0  0  0  0  0  0  0  0  0
   10.3312   -1.6941    0.0000 C   0  0  3  0  0  0  0  0  0  0  0  0
    6.8671   -3.6941    0.0000 C   0  0  3  0  0  0  0  0  0  0  0  0
   11.1972   -2.1941    0.0000 C   0  0  3  0  0  0  0  0  0  0  0  0
    6.8671   -4.6941    0.0000 C   0  0  3  0  0  0  0  0  0  0  0  0
   12.0632   -1.6941    0.0000 C   0  0  3  0  0  0  0  0  0  0  0  0
   11.1972   -0.1941    0.0000 C   0  0  3  0  0  0  0  0  0  0  0  0
   12.0632   -0.6941    0.0000 C   0  0  3  0  0  0  0  0  0  0  0  0
    6.0010   -5.1941    0.0000 C   0  0  3  0  0  0  0  0  0  0  0  0
    5.1350   -3.6941    0.0000 C   0  0  3  0  0  0  0  0  0  0  0  0
    5.1350   -4.6941    0.0000 C   0  0  3  0  0  0  0  0  0  0  0  0
   11.1972    0.8059    0.0000 C   0  0  0  0  0  0  0  0  0  0  0  0
    4.2690   -3.1941    0.0000 C   0  0  0  0  0  0  0  0  0  0  0  0
    4.2690   -6.1941    0.0000 C   0  0  3  0  0  0  0  0  0  0  0  0
    3.4030   -6.6941    0.0000 C   0  0  3  0  0  0  0  0  0  0  0  0
    3.4030   -7.6941    0.0000 C   0  0  3  0  0  0  0  0  0  0  0  0
    5.1350   -7.6941    0.0000 C   0  0  3  0  0  0  0  0  0  0  0  0
    4.2690   -8.1941    0.0000 C   0  0  3  0  0  0  0  0  0  0  0  0
    6.0010   -8.1941    0.0000 C   0  0  0  0  0  0  0  0  0  0  0  0
    9.9663    3.6948    0.0000 H   0  0  0  0  0  0  0  0  0  0  0  0
    8.0008    2.1310    0.0000 H   0  0  0  0  0  0  0  0  0  0  0  0
    7.4498    4.5888    0.0000 H   0  0  0  0  0  0  0  0  0  0  0  0
    7.0401    3.9037    0.0000 H   0  0  0  0  0  0  0  0  0  0  0  0
    7.0305    3.0743    0.0000 H   0  0  0  0  0  0  0  0  0  0  0  0
    7.4243    2.3800    0.0000 H   0  0  0  0  0  0  0  0  0  0  0  0
   11.0022    2.3379    0.0000 H   0  0  0  0  0  0  0  0  0  0  0  0
   10.5924    3.0230    0.0000 H   0  0  0  0  0  0  0  0  0  0  0  0
    7.0486    6.1202    0.0000 H   0  0  0  0  0  0  0  0  0  0  0  0
    7.4531    5.4319    0.0000 H   0  0  0  0  0  0  0  0  0  0  0  0
   10.0027    0.4969    0.0000 H   0  0  0  0  0  0  0  0  0  0  0  0
   10.6185    0.7707    0.0000 H   0  0  0  0  0  0  0  0  0  0  0  0
   11.0123    1.4651    0.0000 H   0  0  0  0  0  0  0  0  0  0  0  0
    7.6900    5.2937    0.0000 H   0  0  0  0  0  0  0  0  0  0  0  0
    6.9698    4.7936    0.0000 H   0  0  0  0  0  0  0  0  0  0  0  0
    7.4699    4.0734    0.0000 H   0  0  0  0  0  0  0  0  0  0  0  0
   10.8319    4.1873    0.0000 H   0  0  0  0  0  0  0  0  0  0  0  0
   10.6164    2.9288    0.0000 H   0  0  0  0  0  0  0  0  0  0  0  0
   10.8400    3.7766    0.0000 H   0  0  0  0  0  0  0  0  0  0  0  0
    9.9922    4.0003    0.0000 H   0  0  0  0  0  0  0  0  0  0  0  0
    7.4446    7.6409    0.0000 H   0  0  0  0  0  0  0  0  0  0  0  0
    7.0454    6.9496    0.0000 H   0  0  0  0  0  0  0  0  0  0  0  0
    7.4772    5.9473    0.0000 H   0  0  0  0  0  0  0  0  0  0  0  0
    6.9715    5.2310    0.0000 H   0  0  0  0  0  0  0  0  0  0  0  0
    7.6877    4.7253    0.0000 H   0  0  0  0  0  0  0  0  0  0  0  0
   10.8381    5.8073    0.0000 H   0  0  0  0  0  0  0  0  0  0  0  0
    7.6400    1.9694    0.0000 H   0  0  0  0  0  0  0  0  0  0  0  0
    6.9467    1.5762    0.0000 H   0  0  0  0  0  0  0  0  0  0  0  0
    7.4864    0.8040    0.0000 H   0  0  0  0  0  0  0  0  0  0  0  0
    7.7068   -0.0447    0.0000 H   0  0  0  0  0  0  0  0  0  0  0  0
    8.5555    0.1757    0.0000 H   0  0  0  0  0  0  0  0  0  0  0  0
    8.3445    9.2433    0.0000 H   0  0  0  0  0  0  0  0  0  0  0  0
    7.9453    8.5519    0.0000 H   0  0  0  0  0  0  0  0  0  0  0  0
   10.6076    6.9735    0.0000 H   0  0  0  0  0  0  0  0  0  0  0  0
   11.0227    7.6554    0.0000 H   0  0  0  0  0  0  0  0  0  0  0  0
    9.9003    9.6706    0.0000 H   0  0  0  0  0  0  0  0  0  0  0  0
    9.1020    9.6767    0.0000 H   0  0  0  0  0  0  0  0  0  0  0  0
    7.0905    8.2001    0.0000 H   0  0  0  0  0  0  0  0  0  0  0  0
    7.4810    7.5052    0.0000 H   0  0  0  0  0  0  0  0  0  0  0  0
    8.5991   -0.0741    0.0000 H   0  0  0  0  0  0  0  0  0  0  0  0
   11.4762    9.1859    0.0000 H   0  0  0  0  0  0  0  0  0  0  0  0
   11.2623   10.0362    0.0000 H   0  0  0  0  0  0  0  0  0  0  0  0
   10.4120    9.8224    0.0000 H   0  0  0  0  0  0  0  0  0  0  0  0
   11.4211    8.0106    0.0000 H   0  0  0  0  0  0  0  0  0  0  0  0
   12.0506    8.6209    0.0000 H   0  0  0  0  0  0  0  0  0  0  0  0
   11.4402    9.2504    0.0000 H   0  0  0  0  0  0  0  0  0  0  0  0
    6.4010    0.5023    0.0000 H   0  0  0  0  0  0  0  0  0  0  0  0
    8.5991   -2.3141    0.0000 H   0  0  0  0  0  0  0  0  0  0  0  0
    7.1780    9.4015    0.0000 H   0  0  0  0  0  0  0  0  0  0  0  0
    7.1962   -2.5041    0.0000 H   0  0  0  0  0  0  0  0  0  0  0  0
    6.8671   -0.0741    0.0000 H   0  0  0  0  0  0  0  0  0  0  0  0
    6.8671   -2.3141    0.0000 H   0  0  0  0  0  0  0  0  0  0  0  0
    6.3110    0.3428    0.0000 H   0  0  0  0  0  0  0  0  0  0  0  0
    5.4641    0.1159    0.0000 H   0  0  0  0  0  0  0  0  0  0  0  0
    5.6910   -0.7311    0.0000 H   0  0  0  0  0  0  0  0  0  0  0  0
   10.3312   -2.3141    0.0000 H   0  0  0  0  0  0  0  0  0  0  0  0
    5.4641   -1.8841    0.0000 H   0  0  0  0  0  0  0  0  0  0  0  0
    7.4040   -4.0041    0.0000 H   0  0  0  0  0  0  0  0  0  0  0  0
   11.7341   -2.5041    0.0000 H   0  0  0  0  0  0  0  0  0  0  0  0
    6.8671   -5.3141    0.0000 H   0  0  0  0  0  0  0  0  0  0  0  0
   12.0632   -2.3141    0.0000 H   0  0  0  0  0  0  0  0  0  0  0  0
   10.6603    0.1159    0.0000 H   0  0  0  0  0  0  0  0  0  0  0  0
   12.6002   -1.0041    0.0000 H   0  0  0  0  0  0  0  0  0  0  0  0
    5.4641   -5.5041    0.0000 H   0  0  0  0  0  0  0  0  0  0  0  0
    5.1350   -3.0741    0.0000 H   0  0  0  0  0  0  0  0  0  0  0  0
    5.1350   -5.3141    0.0000 H   0  0  0  0  0  0  0  0  0  0  0  0
   11.7341   -3.5041    0.0000 H   0  0  0  0  0  0  0  0  0  0  0  0
   10.9851    1.3885    0.0000 H   0  0  0  0  0  0  0  0  0  0  0  0
   10.5866    0.6982    0.0000 H   0  0  0  0  0  0  0  0  0  0  0  0
    7.7331   -5.8141    0.0000 H   0  0  0  0  0  0  0  0  0  0  0  0
   12.9292   -2.8141    0.0000 H   0  0  0  0  0  0  0  0  0  0  0  0
    4.6675   -2.7192    0.0000 H   0  0  0  0  0  0  0  0  0  0  0  0
    3.8705   -2.7192    0.0000 H   0  0  0  0  0  0  0  0  0  0  0  0
   13.4662   -0.5041    0.0000 H   0  0  0  0  0  0  0  0  0  0  0  0
    6.5380   -6.5041    0.0000 H   0  0  0  0  0  0  0  0  0  0  0  0
   12.6002    0.9959    0.0000 H   0  0  0  0  0  0  0  0  0  0  0  0
    3.7320   -5.8841    0.0000 H   0  0  0  0  0  0  0  0  0  0  0  0
    2.8660   -3.3841    0.0000 H   0  0  0  0  0  0  0  0  0  0  0  0
    3.9399   -7.0041    0.0000 H   0  0  0  0  0  0  0  0  0  0  0  0
    3.4030   -8.3141    0.0000 H   0  0  0  0  0  0  0  0  0  0  0  0
    5.6720   -7.3841    0.0000 H   0  0  0  0  0  0  0  0  0  0  0  0
    4.8059   -8.5041    0.0000 H   0  0  0  0  0  0  0  0  0  0  0  0
    2.0000   -6.5041    0.0000 H   0  0  0  0  0  0  0  0  0  0  0  0
    5.6910   -8.7311    0.0000 H   0  0  0  0  0  0  0  0  0  0  0  0
    6.5380   -8.5041    0.0000 H   0  0  0  0  0  0  0  0  0  0  0  0
    6.3110   -7.6572    0.0000 H   0  0  0  0  0  0  0  0  0  0  0  0
    2.5369   -8.8141    0.0000 H   0  0  0  0  0  0  0  0  0  0  0  0
    4.8059   -9.5041    0.0000 H   0  0  0  0  0  0  0  0  0  0  0  0
  1 33  1  0  0  0  0
  1 50  1  0  0  0  0
  2 43  1  0  0  0  0
  2122  1  0  0  0  0
  3 49  1  0  0  0  0
  3124  1  0  0  0  0
  4 50  1  0  0  0  0
  4 55  1  0  0  0  0
  5 53  1  0  0  0  0
  5 58  1  0  0  0  0
  6 54  1  0  0  0  0
  6 59  1  0  0  0  0
  7 56  1  0  0  0  0
  7132  1  0  0  0  0
  8 58  1  0  0  0  0
  8 63  1  0  0  0  0
  9 59  1  0  0  0  0
  9 66  1  0  0  0  0
 10 60  1  0  0  0  0
 10142  1  0  0  0  0
 11 61  1  0  0  0  0
 11145  1  0  0  0  0
 12 62  1  0  0  0  0
 12146  1  0  0  0  0
 13 64  1  0  0  0  0
 13149  1  0  0  0  0
 14 65  1  0  0  0  0
 14150  1  0  0  0  0
 15 67  1  0  0  0  0
 15 70  1  0  0  0  0
 16 68  1  0  0  0  0
 16151  1  0  0  0  0
 17 69  1  0  0  0  0
 17153  1  0  0  0  0
 18 70  1  0  0  0  0
 18 73  1  0  0  0  0
 19 71  1  0  0  0  0
 19158  1  0  0  0  0
 20 72  1  0  0  0  0
 20162  1  0  0  0  0
 21 74  1  0  0  0  0
 21163  1  0  0  0  0
 22 24  1  0  0  0  0
 22 26  1  0  0  0  0
 22 28  1  0  0  0  0
 22 35  1  0  0  0  0
 23 24  1  0  0  0  0
 23 25  1  0  0  0  0
 23 30  1  0  0  0  0
 23 38  1  0  0  0  0
 24 36  1  0  0  0  0
 24 76  1  0  0  0  0
 25 27  1  0  0  0  0
 25 29  1  0  0  0  0
 25 77  1  0  0  0  0
 26 31  1  0  0  0  0
 26 32  1  0  0  0  0
 26 41  1  0  0  0  0
 27 33  1  0  0  0  0
 27 43  1  0  0  0  0
 27 44  1  0  0  0  0
 28 29  1  0  0  0  0
 28 78  1  0  0  0  0
 28 79  1  0  0  0  0
 29 80  1  0  0  0  0
 29 81  1  0  0  0  0
 30 34  1  0  0  0  0
 30 82  1  0  0  0  0
 30 83  1  0  0  0  0
 31 39  2  0  0  0  0
 31 42  1  0  0  0  0
 32 40  1  0  0  0  0
 32 84  1  0  0  0  0
 32 85  1  0  0  0  0
 33 34  1  0  0  0  0
 33 86  1  0  0  0  0
 34 87  1  0  0  0  0
 34 88  1  0  0  0  0
 35 89  1  0  0  0  0
 35 90  1  0  0  0  0
 35 91  1  0  0  0  0
 36 42  2  0  0  0  0
 36 92  1  0  0  0  0
 37 39  1  0  0  0  0
 37 40  1  0  0  0  0
 37 45  1  0  0  0  0
 37 49  1  0  0  0  0
 38 93  1  0  0  0  0
 38 94  1  0  0  0  0
 38 95  1  0  0  0  0
 39 46  1  0  0  0  0
 40 96  1  0  0  0  0
 40 97  1  0  0  0  0
 41 98  1  0  0  0  0
 41 99  1  0  0  0  0
 41100  1  0  0  0  0
 42101  1  0  0  0  0
 43102  1  0  0  0  0
 43103  1  0  0  0  0
 44104  1  0  0  0  0
 44105  1  0  0  0  0
 44106  1  0  0  0  0
 45 48  1  0  0  0  0
 45107  1  0  0  0  0
 45108  1  0  0  0  0
 46 47  1  0  0  0  0
 46109  1  0  0  0  0
 46110  1  0  0  0  0
 47 48  1  0  0  0  0
 47 51  1  0  0  0  0
 47 52  1  0  0  0  0
 48111  1  0  0  0  0
 48112  1  0  0  0  0
 49113  1  0  0  0  0
 49114  1  0  0  0  0
 50 53  1  0  0  0  0
 50115  1  0  0  0  0
 51116  1  0  0  0  0
 51117  1  0  0  0  0
 51118  1  0  0  0  0
 52119  1  0  0  0  0
 52120  1  0  0  0  0
 52121  1  0  0  0  0
 53 54  1  0  0  0  0
 53123  1  0  0  0  0
 54 56  1  0  0  0  0
 54125  1  0  0  0  0
 55 56  1  0  0  0  0
 55 57  1  0  0  0  0
 55126  1  0  0  0  0
 56127  1  0  0  0  0
 57128  1  0  0  0  0
 57129  1  0  0  0  0
 57130  1  0  0  0  0
 58 60  1  0  0  0  0
 58131  1  0  0  0  0
 59 61  1  0  0  0  0
 59133  1  0  0  0  0
 60 62  1  0  0  0  0
 60134  1  0  0  0  0
 61 65  1  0  0  0  0
 61135  1  0  0  0  0
 62 64  1  0  0  0  0
 62136  1  0  0  0  0
 63 64  1  0  0  0  0
 63 68  1  0  0  0  0
 63137  1  0  0  0  0
 64138  1  0  0  0  0
 65 67  1  0  0  0  0
 65139  1  0  0  0  0
 66 67  1  0  0  0  0
 66 69  1  0  0  0  0
 66140  1  0  0  0  0
 67141  1  0  0  0  0
 68143  1  0  0  0  0
 68144  1  0  0  0  0
 69147  1  0  0  0  0
 69148  1  0  0  0  0
 70 71  1  0  0  0  0
 70152  1  0  0  0  0
 71 72  1  0  0  0  0
 71154  1  0  0  0  0
 72 74  1  0  0  0  0
 72155  1  0  0  0  0
 73 74  1  0  0  0  0
 73 75  1  0  0  0  0
 73156  1  0  0  0  0
 74157  1  0  0  0  0
 75159  1  0  0  0  0
 75160  1  0  0  0  0
 75161  1  0  0  0  0
M  END
> <PUBCHEM_COMPOUND_CID>
197452

> <PUBCHEM_COMPOUND_CANONICALIZED>
1

> <PUBCHEM_CACTVS_COMPLEXITY>
2080

> <PUBCHEM_CACTVS_HBOND_ACCEPTOR>
21

> <PUBCHEM_CACTVS_HBOND_DONOR>
13

> <PUBCHEM_CACTVS_ROTATABLE_BOND>
12

> <PUBCHEM_CACTVS_SUBSKEYS>
AAADcfB8PgAAAAAAAAAAAAAAAAAAAAAAAAA0aNEiAAAAAADAAAAAGgAACAAADxSwgAMCCAAABgCAAiBCAAAAAAAgAAAICAAAAAgZEAIAAQAiQAAFwAAPgAPA4PwPgAAAAAAAAADAAAYAADAAAAAAAAAAAA==

> <PUBCHEM_IUPAC_OPENEYE_NAME>
2-[6-[2-[[4,8a-bis(hydroxymethyl)-4,6a,6b,11,11,14b-hexamethyl-1,2,3,4a,5,6,7,8,9,10,12,14a-dodecahydropicen-3-yl]oxy]-5-hydroxy-6-methyl-3-[3,4,5-trihydroxy-6-(hydroxymethyl)tetrahydropyran-2-yl]oxy-tetrahydropyran-4-yl]oxy-4,5-dihydroxy-2-(hydroxymethyl)tetrahydropyran-3-yl]oxy-6-methyl-tetrahydropyran-3,4,5-triol

> <PUBCHEM_IUPAC_CAS_NAME>
2-[[6-[[2-[[4,8a-bis(hydroxymethyl)-4,6a,6b,11,11,14b-hexamethyl-1,2,3,4a,5,6,7,8,9,10,12,14a-dodecahydropicen-3-yl]oxy]-5-hydroxy-6-methyl-3-[[3,4,5-trihydroxy-6-(hydroxymethyl)-2-oxanyl]oxy]-4-oxanyl]oxy]-4,5-dihydroxy-2-(hydroxymethyl)-3-oxanyl]oxy]-6-methyloxane-3,4,5-triol

> <PUBCHEM_IUPAC_NAME_MARKUP>
2-[6-[2-[[4,8<I>a</I>-bis(hydroxymethyl)-4,6<I>a</I>,6<I>b</I>,11,11,14<I>b</I>-hexamethyl-1,2,3,4<I>a</I>,5,6,7,8,9,10,12,14<I>a</I>-dodecahydropicen-3-yl]oxy]-5-hydroxy-6-methyl-3-[3,4,5-trihydroxy-6-(hydroxymethyl)oxan-2-yl]oxyoxan-4-yl]oxy-4,5-dihydroxy-2-(hydroxymethyl)oxan-3-yl]oxy-6-methyloxane-3,4,5-triol

> <PUBCHEM_IUPAC_NAME>
2-[6-[2-[[4,8a-bis(hydroxymethyl)-4,6a,6b,11,11,14b-hexamethyl-1,2,3,4a,5,6,7,8,9,10,12,14a-dodecahydropicen-3-yl]oxy]-5-hydroxy-6-methyl-3-[3,4,5-trihydroxy-6-(hydroxymethyl)oxan-2-yl]oxyoxan-4-yl]oxy-4,5-dihydroxy-2-(hydroxymethyl)oxan-3-yl]oxy-6-methyloxane-3,4,5-triol

> <PUBCHEM_IUPAC_SYSTEMATIC_NAME>
2-[6-[2-[[4,8a-bis(hydroxymethyl)-4,6a,6b,11,11,14b-hexamethyl-1,2,3,4a,5,6,7,8,9,10,12,14a-dodecahydropicen-3-yl]oxy]-3-[6-(hydroxymethyl)-3,4,5-tris(oxidanyl)oxan-2-yl]oxy-6-methyl-5-oxidanyl-oxan-4-yl]oxy-2-(hydroxymethyl)-4,5-bis(oxidanyl)oxan-3-yl]oxy-6-methyl-oxane-3,4,5-triol

> <PUBCHEM_IUPAC_TRADITIONAL_NAME>
2-[6-[2-[(4,6a,6b,11,11,14b-hexamethyl-4,8a-dimethylol-1,2,3,4a,5,6,7,8,9,10,12,14a-dodecahydropicen-3-yl)oxy]-5-hydroxy-6-methyl-3-(3,4,5-trihydroxy-6-methylol-tetrahydropyran-2-yl)oxy-tetrahydropyran-4-yl]oxy-4,5-dihydroxy-2-methylol-tetrahydropyran-3-yl]oxy-6-methyl-tetrahydropyran-3,4,5-triol

> <PUBCHEM_IUPAC_INCHI>
InChI=1S/C54H88O21/c1-24-33(59)36(62)39(65)45(68-24)73-42-29(21-56)71-47(41(67)38(42)64)74-43-34(60)25(2)69-48(44(43)75-46-40(66)37(63)35(61)28(20-55)70-46)72-32-12-13-50(5)30(51(32,6)22-57)11-14-53(8)31(50)10-9-26-27-19-49(3,4)15-17-54(27,23-58)18-16-52(26,53)7/h9-10,24-25,28-48,55-67H,11-23H2,1-8H3

> <PUBCHEM_IUPAC_INCHIKEY>
QUZUQSXPOSEUDF-UHFFFAOYSA-N

> <PUBCHEM_XLOGP3_AA>
-0.1

> <PUBCHEM_EXACT_MASS>
1072.58181

> <PUBCHEM_MOLECULAR_FORMULA>
C54H88O21

> <PUBCHEM_MOLECULAR_WEIGHT>
1073.3

> <PUBCHEM_OPENEYE_CAN_SMILES>
CC1C(C(C(C(O1)OC2C(OC(C(C2O)O)OC3C(C(OC(C3OC4C(C(C(C(O4)CO)O)O)O)OC5CCC6(C(C5(C)CO)CCC7(C6C=CC8=C9CC(CCC9(CCC87C)CO)(C)C)C)C)C)O)CO)O)O)O

> <PUBCHEM_OPENEYE_ISO_SMILES>
CC1C(C(C(C(O1)OC2C(OC(C(C2O)O)OC3C(C(OC(C3OC4C(C(C(C(O4)CO)O)O)O)OC5CCC6(C(C5(C)CO)CCC7(C6C=CC8=C9CC(CCC9(CCC87C)CO)(C)C)C)C)C)O)CO)O)O)O

> <PUBCHEM_CACTVS_TPSA>
337

> <PUBCHEM_MONOISOTOPIC_WEIGHT>
1072.58181

> <PUBCHEM_TOTAL_CHARGE>
0

> <PUBCHEM_HEAVY_ATOM_COUNT>
75

> <PUBCHEM_ATOM_DEF_STEREO_COUNT>
0

> <PUBCHEM_ATOM_UDEF_STEREO_COUNT>
28

> <PUBCHEM_BOND_DEF_STEREO_COUNT>
0

> <PUBCHEM_BOND_UDEF_STEREO_COUNT>
0

> <PUBCHEM_ISOTOPIC_ATOM_COUNT>
0

> <PUBCHEM_COMPONENT_COUNT>
1

> <PUBCHEM_CACTVS_TAUTO_COUNT>
-1

> <PUBCHEM_COORDINATE_TYPE>
1
5
255

> <PUBCHEM_BONDANNOTATIONS>
33  1  3
50  1  3
60  10  3
61  11  3
62  12  3
64  13  3
65  14  3
67  15  3
70  15  3
71  19  3
72  20  3
74  21  3
22  35  3
23  38  3
24  36  3
25  29  3
26  41  3
27  44  3
37  49  3
53  5  3
58  5  3
55  57  3
54  6  3
59  6  3
63  68  3
66  69  3
56  7  3
73  75  3

$$$$
