101390415
  -OEChem-09182005492D

 97101  0     1  0  0  0  0  0999 V2000
    9.7942   -2.4045    0.0000 O   0  0  0  0  0  0  0  0  0  0  0  0
    9.7942    0.5955    0.0000 O   0  0  0  0  0  0  0  0  0  0  0  0
   11.5263   -1.4045    0.0000 O   0  0  0  0  0  0  0  0  0  0  0  0
    8.2942   -3.2704    0.0000 O   0  0  0  0  0  0  0  0  0  0  0  0
    8.0622   -1.4045    0.0000 O   0  0  0  0  0  0  0  0  0  0  0  0
   11.5263    0.5955    0.0000 O   0  0  0  0  0  0  0  0  0  0  0  0
   12.3923    0.0955    0.0000 O   0  0  0  0  0  0  0  0  0  0  0  0
   10.7943   -4.1365    0.0000 O   0  0  0  0  0  0  0  0  0  0  0  0
    9.7943   -5.8686    0.0000 O   0  0  0  0  0  0  0  0  0  0  0  0
    7.7942   -5.8686    0.0000 O   0  0  0  0  0  0  0  0  0  0  0  0
    8.0622    1.5955    0.0000 O   0  0  0  0  0  0  0  0  0  0  0  0
   13.2583   -2.4045    0.0000 O   0  0  0  0  0  0  0  0  0  0  0  0
   14.9904   -1.4045    0.0000 O   0  0  0  0  0  0  0  0  0  0  0  0
   14.9904    0.5955    0.0000 O   0  0  0  0  0  0  0  0  0  0  0  0
    7.1962    0.0955    0.0000 O   0  0  0  0  0  0  0  0  0  0  0  0
   12.3923    5.0955    0.0000 O   0  0  0  0  0  0  0  0  0  0  0  0
   10.6603    6.0955    0.0000 O   0  0  0  0  0  0  0  0  0  0  0  0
    2.0000   -0.9045    0.0000 O   0  0  0  0  0  0  0  0  0  0  0  0
    2.0000   -2.9045    0.0000 O   0  0  0  0  0  0  0  0  0  0  0  0
    9.7942   -1.4045    0.0000 C   0  0  2  0  0  0  0  0  0  0  0  0
   10.6603   -0.9045    0.0000 C   0  0  2  0  0  0  0  0  0  0  0  0
    8.9282   -0.9045    0.0000 C   0  0  1  0  0  0  0  0  0  0  0  0
    8.9282    0.0955    0.0000 C   0  0  1  0  0  0  0  0  0  0  0  0
   10.6603    0.0955    0.0000 C   0  0  1  0  0  0  0  0  0  0  0  0
    9.2942   -3.2705    0.0000 C   0  0  2  0  0  0  0  0  0  0  0  0
    9.7943   -4.1365    0.0000 C   0  0  1  0  0  0  0  0  0  0  0  0
    9.2942   -5.0026    0.0000 C   0  0  1  0  0  0  0  0  0  0  0  0
   12.3923   -0.9045    0.0000 C   0  0  2  0  0  0  0  0  0  0  0  0
    8.2942   -5.0025    0.0000 C   0  0  2  0  0  0  0  0  0  0  0  0
    7.7942   -4.1365    0.0000 C   0  0  2  0  0  0  0  0  0  0  0  0
    8.0622    0.5955    0.0000 C   0  0  0  0  0  0  0  0  0  0  0  0
   13.2583   -1.4045    0.0000 C   0  0  2  0  0  0  0  0  0  0  0  0
   14.1244   -0.9045    0.0000 C   0  0  1  0  0  0  0  0  0  0  0  0
   14.1244    0.0955    0.0000 C   0  0  2  0  0  0  0  0  0  0  0  0
   13.2583    0.5955    0.0000 C   0  0  0  0  0  0  0  0  0  0  0  0
    6.7942   -4.1364    0.0000 C   0  0  0  0  0  0  0  0  0  0  0  0
   11.5263    1.5955    0.0000 C   0  0  0  0  0  0  0  0  0  0  0  0
    7.1962   -0.9045    0.0000 C   0  0  0  0  0  0  0  0  0  0  0  0
   10.6603    2.0955    0.0000 C   0  0  0  0  0  0  0  0  0  0  0  0
    6.3301   -1.4045    0.0000 C   0  0  0  0  0  0  0  0  0  0  0  0
   10.6603    3.0955    0.0000 C   0  0  0  0  0  0  0  0  0  0  0  0
    5.4641   -0.9045    0.0000 C   0  0  0  0  0  0  0  0  0  0  0  0
   11.5263    3.5955    0.0000 C   0  0  0  0  0  0  0  0  0  0  0  0
    9.7942    3.5955    0.0000 C   0  0  0  0  0  0  0  0  0  0  0  0
   11.5263    4.5955    0.0000 C   0  0  0  0  0  0  0  0  0  0  0  0
    9.7942    4.5955    0.0000 C   0  0  0  0  0  0  0  0  0  0  0  0
    4.5981   -1.4045    0.0000 C   0  0  0  0  0  0  0  0  0  0  0  0
   10.6603    5.0955    0.0000 C   0  0  0  0  0  0  0  0  0  0  0  0
    3.7320   -0.9045    0.0000 C   0  0  0  0  0  0  0  0  0  0  0  0
    4.5981   -2.4045    0.0000 C   0  0  0  0  0  0  0  0  0  0  0  0
    2.8660   -1.4045    0.0000 C   0  0  0  0  0  0  0  0  0  0  0  0
    3.7320   -2.9045    0.0000 C   0  0  0  0  0  0  0  0  0  0  0  0
    2.8660   -2.4045    0.0000 C   0  0  0  0  0  0  0  0  0  0  0  0
   10.3312   -1.7145    0.0000 H   0  0  0  0  0  0  0  0  0  0  0  0
   10.6603   -1.5245    0.0000 H   0  0  0  0  0  0  0  0  0  0  0  0
    8.9282   -1.5245    0.0000 H   0  0  0  0  0  0  0  0  0  0  0  0
    8.9282    0.7155    0.0000 H   0  0  0  0  0  0  0  0  0  0  0  0
   11.1972   -0.2145    0.0000 H   0  0  0  0  0  0  0  0  0  0  0  0
    8.9842   -2.7335    0.0000 H   0  0  0  0  0  0  0  0  0  0  0  0
   10.1043   -4.6735    0.0000 H   0  0  0  0  0  0  0  0  0  0  0  0
    8.9842   -5.5395    0.0000 H   0  0  0  0  0  0  0  0  0  0  0  0
   12.3923   -1.5245    0.0000 H   0  0  0  0  0  0  0  0  0  0  0  0
    7.6742   -5.0025    0.0000 H   0  0  0  0  0  0  0  0  0  0  0  0
    7.4842   -3.5995    0.0000 H   0  0  0  0  0  0  0  0  0  0  0  0
    7.4516    0.7032    0.0000 H   0  0  0  0  0  0  0  0  0  0  0  0
    7.8501    0.0129    0.0000 H   0  0  0  0  0  0  0  0  0  0  0  0
   13.7953   -1.7145    0.0000 H   0  0  0  0  0  0  0  0  0  0  0  0
   14.6613   -0.5945    0.0000 H   0  0  0  0  0  0  0  0  0  0  0  0
   14.1244    0.7155    0.0000 H   0  0  0  0  0  0  0  0  0  0  0  0
   13.6569    1.0705    0.0000 H   0  0  0  0  0  0  0  0  0  0  0  0
   12.8598    1.0705    0.0000 H   0  0  0  0  0  0  0  0  0  0  0  0
    6.7942   -3.5164    0.0000 H   0  0  0  0  0  0  0  0  0  0  0  0
    6.1742   -4.1364    0.0000 H   0  0  0  0  0  0  0  0  0  0  0  0
    6.7942   -4.7564    0.0000 H   0  0  0  0  0  0  0  0  0  0  0  0
   12.1369    1.4879    0.0000 H   0  0  0  0  0  0  0  0  0  0  0  0
   11.7383    2.1781    0.0000 H   0  0  0  0  0  0  0  0  0  0  0  0
   11.1043   -4.6734    0.0000 H   0  0  0  0  0  0  0  0  0  0  0  0
    9.4842   -6.4055    0.0000 H   0  0  0  0  0  0  0  0  0  0  0  0
    7.1742   -5.8686    0.0000 H   0  0  0  0  0  0  0  0  0  0  0  0
    7.5252    1.9055    0.0000 H   0  0  0  0  0  0  0  0  0  0  0  0
   13.7953   -2.7145    0.0000 H   0  0  0  0  0  0  0  0  0  0  0  0
   10.0497    2.2032    0.0000 H   0  0  0  0  0  0  0  0  0  0  0  0
   10.4482    1.5129    0.0000 H   0  0  0  0  0  0  0  0  0  0  0  0
   15.5273   -1.0945    0.0000 H   0  0  0  0  0  0  0  0  0  0  0  0
   14.9904    1.2155    0.0000 H   0  0  0  0  0  0  0  0  0  0  0  0
    6.3301   -2.0245    0.0000 H   0  0  0  0  0  0  0  0  0  0  0  0
    5.4641   -0.2845    0.0000 H   0  0  0  0  0  0  0  0  0  0  0  0
   12.0632    3.2855    0.0000 H   0  0  0  0  0  0  0  0  0  0  0  0
    9.2573    3.2855    0.0000 H   0  0  0  0  0  0  0  0  0  0  0  0
    9.2573    4.9055    0.0000 H   0  0  0  0  0  0  0  0  0  0  0  0
    3.7320   -0.2845    0.0000 H   0  0  0  0  0  0  0  0  0  0  0  0
    5.1350   -2.7145    0.0000 H   0  0  0  0  0  0  0  0  0  0  0  0
   12.3923    5.7155    0.0000 H   0  0  0  0  0  0  0  0  0  0  0  0
   10.1233    6.4055    0.0000 H   0  0  0  0  0  0  0  0  0  0  0  0
    3.7320   -3.5245    0.0000 H   0  0  0  0  0  0  0  0  0  0  0  0
    2.0000   -0.2845    0.0000 H   0  0  0  0  0  0  0  0  0  0  0  0
    2.0000   -3.5245    0.0000 H   0  0  0  0  0  0  0  0  0  0  0  0
 20  1  1  1  0  0  0
 25  1  1  1  0  0  0
  2 23  1  0  0  0  0
  2 24  1  0  0  0  0
 21  3  1  6  0  0  0
 28  3  1  6  0  0  0
  4 25  1  0  0  0  0
  4 30  1  0  0  0  0
 22  5  1  6  0  0  0
  5 38  1  0  0  0  0
 24  6  1  1  0  0  0
  6 37  1  0  0  0  0
  7 28  1  0  0  0  0
  7 35  1  0  0  0  0
 26  8  1  6  0  0  0
  8 77  1  0  0  0  0
 27  9  1  6  0  0  0
  9 78  1  0  0  0  0
 29 10  1  1  0  0  0
 10 79  1  0  0  0  0
 11 31  1  0  0  0  0
 11 80  1  0  0  0  0
 32 12  1  6  0  0  0
 12 81  1  0  0  0  0
 33 13  1  1  0  0  0
 13 84  1  0  0  0  0
 34 14  1  6  0  0  0
 14 85  1  0  0  0  0
 15 38  2  0  0  0  0
 16 45  1  0  0  0  0
 16 93  1  0  0  0  0
 17 48  1  0  0  0  0
 17 94  1  0  0  0  0
 18 51  1  0  0  0  0
 18 96  1  0  0  0  0
 19 53  1  0  0  0  0
 19 97  1  0  0  0  0
 20 21  1  0  0  0  0
 20 22  1  0  0  0  0
 20 54  1  0  0  0  0
 21 24  1  0  0  0  0
 21 55  1  0  0  0  0
 22 23  1  0  0  0  0
 22 56  1  0  0  0  0
 23 31  1  1  0  0  0
 23 57  1  0  0  0  0
 24 58  1  0  0  0  0
 25 26  1  0  0  0  0
 25 59  1  0  0  0  0
 26 27  1  0  0  0  0
 26 60  1  0  0  0  0
 27 29  1  0  0  0  0
 27 61  1  0  0  0  0
 28 32  1  0  0  0  0
 28 62  1  0  0  0  0
 29 30  1  0  0  0  0
 29 63  1  0  0  0  0
 30 36  1  6  0  0  0
 30 64  1  0  0  0  0
 31 65  1  0  0  0  0
 31 66  1  0  0  0  0
 32 33  1  0  0  0  0
 32 67  1  0  0  0  0
 33 34  1  0  0  0  0
 33 68  1  0  0  0  0
 34 35  1  0  0  0  0
 34 69  1  0  0  0  0
 35 70  1  0  0  0  0
 35 71  1  0  0  0  0
 36 72  1  0  0  0  0
 36 73  1  0  0  0  0
 36 74  1  0  0  0  0
 37 39  1  0  0  0  0
 37 75  1  0  0  0  0
 37 76  1  0  0  0  0
 38 40  1  0  0  0  0
 39 41  1  0  0  0  0
 39 82  1  0  0  0  0
 39 83  1  0  0  0  0
 40 42  2  0  0  0  0
 40 86  1  0  0  0  0
 41 43  2  0  0  0  0
 41 44  1  0  0  0  0
 42 47  1  0  0  0  0
 42 87  1  0  0  0  0
 43 45  1  0  0  0  0
 43 88  1  0  0  0  0
 44 46  2  0  0  0  0
 44 89  1  0  0  0  0
 45 48  2  0  0  0  0
 46 48  1  0  0  0  0
 46 90  1  0  0  0  0
 47 49  2  0  0  0  0
 47 50  1  0  0  0  0
 49 51  1  0  0  0  0
 49 91  1  0  0  0  0
 50 52  2  0  0  0  0
 50 92  1  0  0  0  0
 51 53  2  0  0  0  0
 52 53  1  0  0  0  0
 52 95  1  0  0  0  0
M  END
> <PUBCHEM_COMPOUND_CID>
101390415

> <PUBCHEM_COMPOUND_CANONICALIZED>
1

> <PUBCHEM_CACTVS_COMPLEXITY>
1180

> <PUBCHEM_CACTVS_HBOND_ACCEPTOR>
19

> <PUBCHEM_CACTVS_HBOND_DONOR>
11

> <PUBCHEM_CACTVS_ROTATABLE_BOND>
13

> <PUBCHEM_CACTVS_SUBSKEYS>
AAADcfB8PgAAAAAAAAAAAAAAAAAAAAAAAAA0aJECAAAAAAABQAAAGgAACAAADBSwmAMyDoAABgCIAiDSCAACAAAgIAAIiAAGiMgZNiKCMRKicAElwBEPuYfA4LwOIAABAAAAQABAAAIAAACAAAAAAAAAAA==

> <PUBCHEM_IUPAC_OPENEYE_NAME>
[(2R,3R,4S,5R,6R)-6-[2-(3,4-dihydroxyphenyl)ethoxy]-2-(hydroxymethyl)-4-[(2S,3R,4R,5R,6S)-3,4,5-trihydroxy-6-methyl-tetrahydropyran-2-yl]oxy-5-[(2S,3S,4R,5S)-3,4,5-trihydroxytetrahydropyran-2-yl]oxy-tetrahydropyran-3-yl] (E)-3-(3,4-dihydroxyphenyl)prop-2-enoate

> <PUBCHEM_IUPAC_CAS_NAME>
(E)-3-(3,4-dihydroxyphenyl)-2-propenoic acid [(2R,3R,4S,5R,6R)-6-[2-(3,4-dihydroxyphenyl)ethoxy]-2-(hydroxymethyl)-4-[[(2S,3R,4R,5R,6S)-3,4,5-trihydroxy-6-methyl-2-oxanyl]oxy]-5-[[(2S,3S,4R,5S)-3,4,5-trihydroxy-2-oxanyl]oxy]-3-oxanyl] ester

> <PUBCHEM_IUPAC_NAME_MARKUP>
[(2<I>R</I>,3<I>R</I>,4<I>S</I>,5<I>R</I>,6<I>R</I>)-6-[2-(3,4-dihydroxyphenyl)ethoxy]-2-(hydroxymethyl)-4-[(2<I>S</I>,3<I>R</I>,4<I>R</I>,5<I>R</I>,6<I>S</I>)-3,4,5-trihydroxy-6-methyloxan-2-yl]oxy-5-[(2<I>S</I>,3<I>S</I>,4<I>R</I>,5<I>S</I>)-3,4,5-trihydroxyoxan-2-yl]oxyoxan-3-yl] (<I>E</I>)-3-(3,4-dihydroxyphenyl)prop-2-enoate

> <PUBCHEM_IUPAC_NAME>
[(2R,3R,4S,5R,6R)-6-[2-(3,4-dihydroxyphenyl)ethoxy]-2-(hydroxymethyl)-4-[(2S,3R,4R,5R,6S)-3,4,5-trihydroxy-6-methyloxan-2-yl]oxy-5-[(2S,3S,4R,5S)-3,4,5-trihydroxyoxan-2-yl]oxyoxan-3-yl] (E)-3-(3,4-dihydroxyphenyl)prop-2-enoate

> <PUBCHEM_IUPAC_SYSTEMATIC_NAME>
[(2R,3R,4S,5R,6R)-6-[2-[3,4-bis(oxidanyl)phenyl]ethoxy]-2-(hydroxymethyl)-4-[(2S,3R,4R,5R,6S)-6-methyl-3,4,5-tris(oxidanyl)oxan-2-yl]oxy-5-[(2S,3S,4R,5S)-3,4,5-tris(oxidanyl)oxan-2-yl]oxy-oxan-3-yl] (E)-3-[3,4-bis(oxidanyl)phenyl]prop-2-enoate

> <PUBCHEM_IUPAC_TRADITIONAL_NAME>
(E)-3-(3,4-dihydroxyphenyl)acrylic acid [(2R,3R,4S,5R,6R)-6-[2-(3,4-dihydroxyphenyl)ethoxy]-2-methylol-4-[(2S,3R,4R,5R,6S)-3,4,5-trihydroxy-6-methyl-tetrahydropyran-2-yl]oxy-5-[(2S,3S,4R,5S)-3,4,5-trihydroxytetrahydropyran-2-yl]oxy-tetrahydropyran-3-yl] ester

> <PUBCHEM_IUPAC_INCHI>
InChI=1S/C34H44O19/c1-14-24(42)26(44)28(46)33(49-14)52-30-29(51-23(41)7-4-15-2-5-17(36)19(38)10-15)22(12-35)50-34(47-9-8-16-3-6-18(37)20(39)11-16)31(30)53-32-27(45)25(43)21(40)13-48-32/h2-7,10-11,14,21-22,24-40,42-46H,8-9,12-13H2,1H3/b7-4+/t14-,21-,22+,24-,25+,26+,27-,28+,29+,30-,31+,32-,33-,34+/m0/s1

> <PUBCHEM_IUPAC_INCHIKEY>
HZUURLOSYMEMET-PSEDODGISA-N

> <PUBCHEM_XLOGP3_AA>
-2

> <PUBCHEM_EXACT_MASS>
756.247679

> <PUBCHEM_MOLECULAR_FORMULA>
C34H44O19

> <PUBCHEM_MOLECULAR_WEIGHT>
756.7

> <PUBCHEM_OPENEYE_CAN_SMILES>
CC1C(C(C(C(O1)OC2C(C(OC(C2OC3C(C(C(CO3)O)O)O)OCCC4=CC(=C(C=C4)O)O)CO)OC(=O)C=CC5=CC(=C(C=C5)O)O)O)O)O

> <PUBCHEM_OPENEYE_ISO_SMILES>
C[C@H]1[C@@H]([C@H]([C@H]([C@@H](O1)O[C@H]2[C@@H]([C@H](O[C@H]([C@@H]2O[C@H]3[C@H]([C@@H]([C@H](CO3)O)O)O)OCCC4=CC(=C(C=C4)O)O)CO)OC(=O)/C=C/C5=CC(=C(C=C5)O)O)O)O)O

> <PUBCHEM_CACTVS_TPSA>
304

> <PUBCHEM_MONOISOTOPIC_WEIGHT>
756.247679

> <PUBCHEM_TOTAL_CHARGE>
0

> <PUBCHEM_HEAVY_ATOM_COUNT>
53

> <PUBCHEM_ATOM_DEF_STEREO_COUNT>
14

> <PUBCHEM_ATOM_UDEF_STEREO_COUNT>
0

> <PUBCHEM_BOND_DEF_STEREO_COUNT>
1

> <PUBCHEM_BOND_UDEF_STEREO_COUNT>
0

> <PUBCHEM_ISOTOPIC_ATOM_COUNT>
0

> <PUBCHEM_COMPONENT_COUNT>
1

> <PUBCHEM_CACTVS_TAUTO_COUNT>
-1

> <PUBCHEM_COORDINATE_TYPE>
1
5
255

> <PUBCHEM_BONDANNOTATIONS>
20  1  5
25  1  5
29  10  5
32  12  6
33  13  5
34  14  6
23  31  5
21  3  6
28  3  6
30  36  6
41  43  8
41  44  8
43  45  8
44  46  8
45  48  8
46  48  8
47  49  8
47  50  8
49  51  8
22  5  6
50  52  8
51  53  8
52  53  8
24  6  5
26  8  6
27  9  6

$$$$
