102072501
  -OEChem-09182005522D

122127  0     1  0  0  0  0  0999 V2000
   10.3312    1.7500    0.0000 O   0  0  0  0  0  0  0  0  0  0  0  0
   12.0632    1.7500    0.0000 O   0  0  0  0  0  0  0  0  0  0  0  0
   13.7953   -0.2500    0.0000 O   0  0  0  0  0  0  0  0  0  0  0  0
   10.3312    4.7500    0.0000 O   0  0  0  0  0  0  0  0  0  0  0  0
   12.9292   -1.7500    0.0000 O   0  0  0  0  0  0  0  0  0  0  0  0
   12.0632   -1.2500    0.0000 O   0  0  0  0  0  0  0  0  0  0  0  0
   10.3312   -0.2500    0.0000 O   0  0  0  0  0  0  0  0  0  0  0  0
    8.5991    2.7500    0.0000 O   0  0  0  0  0  0  0  0  0  0  0  0
   12.0632    2.7500    0.0000 O   0  0  0  0  0  0  0  0  0  0  0  0
   12.0632    4.7500    0.0000 O   0  0  0  0  0  0  0  0  0  0  0  0
   15.5273   -1.2500    0.0000 O   0  0  0  0  0  0  0  0  0  0  0  0
   15.5273   -3.2500    0.0000 O   0  0  0  0  0  0  0  0  0  0  0  0
   13.7953   -4.2500    0.0000 O   0  0  0  0  0  0  0  0  0  0  0  0
    8.5991    5.7500    0.0000 O   0  0  0  0  0  0  0  0  0  0  0  0
   12.0632   -4.2500    0.0000 O   0  0  0  0  0  0  0  0  0  0  0  0
    7.7331    4.2500    0.0000 O   0  0  0  0  0  0  0  0  0  0  0  0
   10.3312   -4.2500    0.0000 O   0  0  0  0  0  0  0  0  0  0  0  0
   14.6613    9.2500    0.0000 O   0  0  0  0  0  0  0  0  0  0  0  0
   12.9292   10.2500    0.0000 O   0  0  0  0  0  0  0  0  0  0  0  0
    2.5369    3.2500    0.0000 O   0  0  0  0  0  0  0  0  0  0  0  0
    2.5369    1.2500    0.0000 O   0  0  0  0  0  0  0  0  0  0  0  0
   12.0632   -9.2500    0.0000 O   0  0  0  0  0  0  0  0  0  0  0  0
   10.3312  -10.2500    0.0000 O   0  0  0  0  0  0  0  0  0  0  0  0
   12.9292    0.2500    0.0000 C   0  0  2  0  0  0  0  0  0  0  0  0
   12.0632   -0.2500    0.0000 C   0  0  2  0  0  0  0  0  0  0  0  0
   10.3312    2.7500    0.0000 C   0  0  1  0  0  0  0  0  0  0  0  0
   11.1972    0.2500    0.0000 C   0  0  2  0  0  0  0  0  0  0  0  0
   11.1972    1.2500    0.0000 C   0  0  2  0  0  0  0  0  0  0  0  0
   12.9292    1.2500    0.0000 C   0  0  2  0  0  0  0  0  0  0  0  0
    9.4651    3.2500    0.0000 C   0  0  1  0  0  0  0  0  0  0  0  0
   11.1972    3.2500    0.0000 C   0  0  2  0  0  0  0  0  0  0  0  0
    9.4651    4.2500    0.0000 C   0  0  1  0  0  0  0  0  0  0  0  0
   13.7953   -1.2500    0.0000 C   0  0  2  0  0  0  0  0  0  0  0  0
   14.6613   -1.7500    0.0000 C   0  0  1  0  0  0  0  0  0  0  0  0
   11.1972    4.2500    0.0000 C   0  0  1  0  0  0  0  0  0  0  0  0
   14.6613   -2.7500    0.0000 C   0  0  2  0  0  0  0  0  0  0  0  0
   13.7953   -3.2500    0.0000 C   0  0  1  0  0  0  0  0  0  0  0  0
   12.9292   -2.7500    0.0000 C   0  0  1  0  0  0  0  0  0  0  0  0
   13.7953    1.7500    0.0000 C   0  0  0  0  0  0  0  0  0  0  0  0
    8.5991    4.7500    0.0000 C   0  0  0  0  0  0  0  0  0  0  0  0
   12.0632   -3.2500    0.0000 C   0  0  0  0  0  0  0  0  0  0  0  0
   12.0632    5.7500    0.0000 C   0  0  0  0  0  0  0  0  0  0  0  0
    7.7331    3.2500    0.0000 C   0  0  0  0  0  0  0  0  0  0  0  0
   12.9292    6.2500    0.0000 C   0  0  0  0  0  0  0  0  0  0  0  0
    6.8671    2.7500    0.0000 C   0  0  0  0  0  0  0  0  0  0  0  0
   12.9292    7.2500    0.0000 C   0  0  0  0  0  0  0  0  0  0  0  0
   11.1972   -4.7500    0.0000 C   0  0  0  0  0  0  0  0  0  0  0  0
    6.0010    3.2500    0.0000 C   0  0  0  0  0  0  0  0  0  0  0  0
   13.7953    7.7500    0.0000 C   0  0  0  0  0  0  0  0  0  0  0  0
   12.0632    7.7500    0.0000 C   0  0  0  0  0  0  0  0  0  0  0  0
   11.1972   -5.7500    0.0000 C   0  0  0  0  0  0  0  0  0  0  0  0
    5.1350    2.7500    0.0000 C   0  0  0  0  0  0  0  0  0  0  0  0
   13.7953    8.7500    0.0000 C   0  0  0  0  0  0  0  0  0  0  0  0
   12.0632    8.7500    0.0000 C   0  0  0  0  0  0  0  0  0  0  0  0
   12.9292    9.2500    0.0000 C   0  0  0  0  0  0  0  0  0  0  0  0
   10.3312   -6.2500    0.0000 C   0  0  0  0  0  0  0  0  0  0  0  0
    4.2690    3.2500    0.0000 C   0  0  0  0  0  0  0  0  0  0  0  0
    5.1350    1.7500    0.0000 C   0  0  0  0  0  0  0  0  0  0  0  0
   10.3312   -7.2500    0.0000 C   0  0  0  0  0  0  0  0  0  0  0  0
    3.4030    2.7500    0.0000 C   0  0  0  0  0  0  0  0  0  0  0  0
    4.2690    1.2500    0.0000 C   0  0  0  0  0  0  0  0  0  0  0  0
    3.4030    1.7500    0.0000 C   0  0  0  0  0  0  0  0  0  0  0  0
   11.1972   -7.7500    0.0000 C   0  0  0  0  0  0  0  0  0  0  0  0
    9.4651   -7.7500    0.0000 C   0  0  0  0  0  0  0  0  0  0  0  0
   11.1972   -8.7500    0.0000 C   0  0  0  0  0  0  0  0  0  0  0  0
    9.4651   -8.7500    0.0000 C   0  0  0  0  0  0  0  0  0  0  0  0
   10.3312   -9.2500    0.0000 C   0  0  0  0  0  0  0  0  0  0  0  0
   12.0632  -10.2500    0.0000 C   0  0  0  0  0  0  0  0  0  0  0  0
   12.9292   -0.3700    0.0000 H   0  0  0  0  0  0  0  0  0  0  0  0
   11.5263   -0.5600    0.0000 H   0  0  0  0  0  0  0  0  0  0  0  0
   10.8681    2.4400    0.0000 H   0  0  0  0  0  0  0  0  0  0  0  0
   11.1972   -0.3700    0.0000 H   0  0  0  0  0  0  0  0  0  0  0  0
   11.1972    1.8700    0.0000 H   0  0  0  0  0  0  0  0  0  0  0  0
   12.9292    1.8700    0.0000 H   0  0  0  0  0  0  0  0  0  0  0  0
    9.4651    2.6300    0.0000 H   0  0  0  0  0  0  0  0  0  0  0  0
   11.1972    2.6300    0.0000 H   0  0  0  0  0  0  0  0  0  0  0  0
    9.4651    4.8700    0.0000 H   0  0  0  0  0  0  0  0  0  0  0  0
   14.3322   -0.9400    0.0000 H   0  0  0  0  0  0  0  0  0  0  0  0
   15.1982   -2.0600    0.0000 H   0  0  0  0  0  0  0  0  0  0  0  0
   11.7341    3.9400    0.0000 H   0  0  0  0  0  0  0  0  0  0  0  0
   15.1982   -2.4400    0.0000 H   0  0  0  0  0  0  0  0  0  0  0  0
   14.3322   -3.5600    0.0000 H   0  0  0  0  0  0  0  0  0  0  0  0
   12.3923   -2.4400    0.0000 H   0  0  0  0  0  0  0  0  0  0  0  0
   14.1053    1.2131    0.0000 H   0  0  0  0  0  0  0  0  0  0  0  0
   14.3322    2.0600    0.0000 H   0  0  0  0  0  0  0  0  0  0  0  0
   13.4853    2.2869    0.0000 H   0  0  0  0  0  0  0  0  0  0  0  0
    7.9885    4.8577    0.0000 H   0  0  0  0  0  0  0  0  0  0  0  0
    8.3871    4.1674    0.0000 H   0  0  0  0  0  0  0  0  0  0  0  0
   11.5263   -1.5600    0.0000 H   0  0  0  0  0  0  0  0  0  0  0  0
    9.7942    0.0600    0.0000 H   0  0  0  0  0  0  0  0  0  0  0  0
   11.8512   -2.6674    0.0000 H   0  0  0  0  0  0  0  0  0  0  0  0
   11.4526   -3.3577    0.0000 H   0  0  0  0  0  0  0  0  0  0  0  0
   12.6002    3.0600    0.0000 H   0  0  0  0  0  0  0  0  0  0  0  0
   16.0643   -1.5600    0.0000 H   0  0  0  0  0  0  0  0  0  0  0  0
   15.5273   -3.8700    0.0000 H   0  0  0  0  0  0  0  0  0  0  0  0
   14.3322   -4.5600    0.0000 H   0  0  0  0  0  0  0  0  0  0  0  0
   11.8512    6.3326    0.0000 H   0  0  0  0  0  0  0  0  0  0  0  0
   11.4526    5.6423    0.0000 H   0  0  0  0  0  0  0  0  0  0  0  0
    8.0622    6.0600    0.0000 H   0  0  0  0  0  0  0  0  0  0  0  0
   13.1413    5.6674    0.0000 H   0  0  0  0  0  0  0  0  0  0  0  0
   13.5398    6.3577    0.0000 H   0  0  0  0  0  0  0  0  0  0  0  0
    6.8671    2.1300    0.0000 H   0  0  0  0  0  0  0  0  0  0  0  0
    6.0010    3.8700    0.0000 H   0  0  0  0  0  0  0  0  0  0  0  0
   14.3322    7.4400    0.0000 H   0  0  0  0  0  0  0  0  0  0  0  0
   11.5263    7.4400    0.0000 H   0  0  0  0  0  0  0  0  0  0  0  0
   11.7341   -6.0600    0.0000 H   0  0  0  0  0  0  0  0  0  0  0  0
   11.5263    9.0600    0.0000 H   0  0  0  0  0  0  0  0  0  0  0  0
    9.7942   -5.9400    0.0000 H   0  0  0  0  0  0  0  0  0  0  0  0
    4.2690    3.8700    0.0000 H   0  0  0  0  0  0  0  0  0  0  0  0
    5.6720    1.4400    0.0000 H   0  0  0  0  0  0  0  0  0  0  0  0
   15.1982    8.9400    0.0000 H   0  0  0  0  0  0  0  0  0  0  0  0
    4.2690    0.6300    0.0000 H   0  0  0  0  0  0  0  0  0  0  0  0
   12.3923   10.5600    0.0000 H   0  0  0  0  0  0  0  0  0  0  0  0
   11.7341   -7.4400    0.0000 H   0  0  0  0  0  0  0  0  0  0  0  0
    8.9282   -7.4400    0.0000 H   0  0  0  0  0  0  0  0  0  0  0  0
    8.9282   -9.0600    0.0000 H   0  0  0  0  0  0  0  0  0  0  0  0
    2.5369    3.8700    0.0000 H   0  0  0  0  0  0  0  0  0  0  0  0
    2.0000    1.5600    0.0000 H   0  0  0  0  0  0  0  0  0  0  0  0
    9.7942  -10.5600    0.0000 H   0  0  0  0  0  0  0  0  0  0  0  0
   11.4432  -10.2500    0.0000 H   0  0  0  0  0  0  0  0  0  0  0  0
   12.0632  -10.8700    0.0000 H   0  0  0  0  0  0  0  0  0  0  0  0
   12.6832  -10.2500    0.0000 H   0  0  0  0  0  0  0  0  0  0  0  0
 26  1  1  1  0  0  0
 28  1  1  6  0  0  0
  2 28  1  0  0  0  0
  2 29  1  0  0  0  0
 24  3  1  6  0  0  0
 33  3  1  1  0  0  0
  4 32  1  0  0  0  0
  4 35  1  0  0  0  0
  5 33  1  0  0  0  0
  5 38  1  0  0  0  0
 25  6  1  1  0  0  0
  6 89  1  0  0  0  0
 27  7  1  1  0  0  0
  7 90  1  0  0  0  0
 30  8  1  6  0  0  0
  8 43  1  0  0  0  0
 31  9  1  6  0  0  0
  9 93  1  0  0  0  0
 35 10  1  1  0  0  0
 10 42  1  0  0  0  0
 34 11  1  6  0  0  0
 11 94  1  0  0  0  0
 36 12  1  1  0  0  0
 12 95  1  0  0  0  0
 37 13  1  6  0  0  0
 13 96  1  0  0  0  0
 14 40  1  0  0  0  0
 14 99  1  0  0  0  0
 15 41  1  0  0  0  0
 15 47  1  0  0  0  0
 16 43  2  0  0  0  0
 17 47  2  0  0  0  0
 18 53  1  0  0  0  0
 18111  1  0  0  0  0
 19 55  1  0  0  0  0
 19113  1  0  0  0  0
 20 60  1  0  0  0  0
 20117  1  0  0  0  0
 21 62  1  0  0  0  0
 21118  1  0  0  0  0
 22 65  1  0  0  0  0
 22 68  1  0  0  0  0
 23 67  1  0  0  0  0
 23119  1  0  0  0  0
 24 25  1  0  0  0  0
 24 29  1  0  0  0  0
 24 69  1  0  0  0  0
 25 27  1  0  0  0  0
 25 70  1  0  0  0  0
 26 30  1  0  0  0  0
 26 31  1  0  0  0  0
 26 71  1  0  0  0  0
 27 28  1  0  0  0  0
 27 72  1  0  0  0  0
 28 73  1  0  0  0  0
 29 39  1  1  0  0  0
 29 74  1  0  0  0  0
 30 32  1  0  0  0  0
 30 75  1  0  0  0  0
 31 35  1  0  0  0  0
 31 76  1  0  0  0  0
 32 40  1  1  0  0  0
 32 77  1  0  0  0  0
 33 34  1  0  0  0  0
 33 78  1  0  0  0  0
 34 36  1  0  0  0  0
 34 79  1  0  0  0  0
 35 80  1  0  0  0  0
 36 37  1  0  0  0  0
 36 81  1  0  0  0  0
 37 38  1  0  0  0  0
 37 82  1  0  0  0  0
 38 41  1  1  0  0  0
 38 83  1  0  0  0  0
 39 84  1  0  0  0  0
 39 85  1  0  0  0  0
 39 86  1  0  0  0  0
 40 87  1  0  0  0  0
 40 88  1  0  0  0  0
 41 91  1  0  0  0  0
 41 92  1  0  0  0  0
 42 44  1  0  0  0  0
 42 97  1  0  0  0  0
 42 98  1  0  0  0  0
 43 45  1  0  0  0  0
 44 46  1  0  0  0  0
 44100  1  0  0  0  0
 44101  1  0  0  0  0
 45 48  2  0  0  0  0
 45102  1  0  0  0  0
 46 49  2  0  0  0  0
 46 50  1  0  0  0  0
 47 51  1  0  0  0  0
 48 52  1  0  0  0  0
 48103  1  0  0  0  0
 49 53  1  0  0  0  0
 49104  1  0  0  0  0
 50 54  2  0  0  0  0
 50105  1  0  0  0  0
 51 56  2  0  0  0  0
 51106  1  0  0  0  0
 52 57  2  0  0  0  0
 52 58  1  0  0  0  0
 53 55  2  0  0  0  0
 54 55  1  0  0  0  0
 54107  1  0  0  0  0
 56 59  1  0  0  0  0
 56108  1  0  0  0  0
 57 60  1  0  0  0  0
 57109  1  0  0  0  0
 58 61  2  0  0  0  0
 58110  1  0  0  0  0
 59 63  2  0  0  0  0
 59 64  1  0  0  0  0
 60 62  2  0  0  0  0
 61 62  1  0  0  0  0
 61112  1  0  0  0  0
 63 65  1  0  0  0  0
 63114  1  0  0  0  0
 64 66  2  0  0  0  0
 64115  1  0  0  0  0
 65 67  2  0  0  0  0
 66 67  1  0  0  0  0
 66116  1  0  0  0  0
 68120  1  0  0  0  0
 68121  1  0  0  0  0
 68122  1  0  0  0  0
M  END
> <PUBCHEM_COMPOUND_CID>
102072501

> <PUBCHEM_COMPOUND_CANONICALIZED>
1

> <PUBCHEM_CACTVS_COMPLEXITY>
1640

> <PUBCHEM_CACTVS_HBOND_ACCEPTOR>
23

> <PUBCHEM_CACTVS_HBOND_DONOR>
12

> <PUBCHEM_CACTVS_ROTATABLE_BOND>
19

> <PUBCHEM_CACTVS_SUBSKEYS>
AAADcfB8PgAAAAAAAAAAAAAAAAAAAAAAAAA0aNECAAAAAAABUAAAGgAACAAADBSwmAMyDoAABgCIAiDSCAACCAAgIAAIiAAGiMgdNiKGMRqicCMlwBEPuYfA4LwOIAABAAAAQABAAAIAAACAAAAAAAAAAA==

> <PUBCHEM_IUPAC_OPENEYE_NAME>
[(2R,3R,4R,5R,6R)-4-[(2S,3R,4S,5R,6S)-3,4-dihydroxy-6-methyl-5-[(2S,3R,4S,5S,6R)-3,4,5-trihydroxy-6-[[(E)-3-(4-hydroxy-3-methoxy-phenyl)prop-2-enoyl]oxymethyl]tetrahydropyran-2-yl]oxy-tetrahydropyran-2-yl]oxy-6-[2-(3,4-dihydroxyphenyl)ethoxy]-5-hydroxy-2-(hydroxymethyl)tetrahydropyran-3-yl] (E)-3-(3,4-dihydroxyphenyl)prop-2-enoate

> <PUBCHEM_IUPAC_CAS_NAME>
(E)-3-(3,4-dihydroxyphenyl)-2-propenoic acid [(2R,3R,4R,5R,6R)-4-[[(2S,3R,4S,5R,6S)-3,4-dihydroxy-6-methyl-5-[[(2S,3R,4S,5S,6R)-3,4,5-trihydroxy-6-[[(E)-3-(4-hydroxy-3-methoxyphenyl)-1-oxoprop-2-enoxy]methyl]-2-oxanyl]oxy]-2-oxanyl]oxy]-6-[2-(3,4-dihydroxyphenyl)ethoxy]-5-hydroxy-2-(hydroxymethyl)-3-oxanyl] ester

> <PUBCHEM_IUPAC_NAME_MARKUP>
[(2<I>R</I>,3<I>R</I>,4<I>R</I>,5<I>R</I>,6<I>R</I>)-4-[(2<I>S</I>,3<I>R</I>,4<I>S</I>,5<I>R</I>,6<I>S</I>)-3,4-dihydroxy-6-methyl-5-[(2<I>S</I>,3<I>R</I>,4<I>S</I>,5<I>S</I>,6<I>R</I>)-3,4,5-trihydroxy-6-[[(<I>E</I>)-3-(4-hydroxy-3-methoxyphenyl)prop-2-enoyl]oxymethyl]oxan-2-yl]oxyoxan-2-yl]oxy-6-[2-(3,4-dihydroxyphenyl)ethoxy]-5-hydroxy-2-(hydroxymethyl)oxan-3-yl] (<I>E</I>)-3-(3,4-dihydroxyphenyl)prop-2-enoate

> <PUBCHEM_IUPAC_NAME>
[(2R,3R,4R,5R,6R)-4-[(2S,3R,4S,5R,6S)-3,4-dihydroxy-6-methyl-5-[(2S,3R,4S,5S,6R)-3,4,5-trihydroxy-6-[[(E)-3-(4-hydroxy-3-methoxyphenyl)prop-2-enoyl]oxymethyl]oxan-2-yl]oxyoxan-2-yl]oxy-6-[2-(3,4-dihydroxyphenyl)ethoxy]-5-hydroxy-2-(hydroxymethyl)oxan-3-yl] (E)-3-(3,4-dihydroxyphenyl)prop-2-enoate

> <PUBCHEM_IUPAC_SYSTEMATIC_NAME>
[(2R,3R,4R,5R,6R)-6-[2-[3,4-bis(oxidanyl)phenyl]ethoxy]-2-(hydroxymethyl)-4-[(2S,3R,4S,5R,6S)-5-[(2S,3R,4S,5S,6R)-6-[[(E)-3-(3-methoxy-4-oxidanyl-phenyl)prop-2-enoyl]oxymethyl]-3,4,5-tris(oxidanyl)oxan-2-yl]oxy-6-methyl-3,4-bis(oxidanyl)oxan-2-yl]oxy-5-oxidanyl-oxan-3-yl] (E)-3-[3,4-bis(oxidanyl)phenyl]prop-2-enoate

> <PUBCHEM_IUPAC_TRADITIONAL_NAME>
(E)-3-(3,4-dihydroxyphenyl)acrylic acid [(2R,3R,4R,5R,6R)-4-[(2S,3R,4S,5R,6S)-3,4-dihydroxy-6-methyl-5-[(2S,3R,4S,5S,6R)-3,4,5-trihydroxy-6-[[(E)-3-(4-hydroxy-3-methoxy-phenyl)acryloyl]oxymethyl]tetrahydropyran-2-yl]oxy-tetrahydropyran-2-yl]oxy-6-[2-(3,4-dihydroxyphenyl)ethoxy]-5-hydroxy-2-methylol-tetrahydropyran-3-yl] ester

> <PUBCHEM_IUPAC_INCHI>
InChI=1S/C45H54O23/c1-20-40(67-45-37(57)35(55)34(54)31(65-45)19-62-32(52)11-6-22-5-10-26(49)29(17-22)60-2)36(56)38(58)44(63-20)68-42-39(59)43(61-14-13-23-4-9-25(48)28(51)16-23)64-30(18-46)41(42)66-33(53)12-7-21-3-8-24(47)27(50)15-21/h3-12,15-17,20,30-31,34-51,54-59H,13-14,18-19H2,1-2H3/b11-6+,12-7+/t20-,30+,31+,34+,35-,36-,37+,38+,39+,40-,41+,42+,43+,44-,45-/m0/s1

> <PUBCHEM_IUPAC_INCHIKEY>
IIXVRRKFYONRQH-LWTSUTKRSA-N

> <PUBCHEM_XLOGP3_AA>
-0.4

> <PUBCHEM_EXACT_MASS>
962.305588

> <PUBCHEM_MOLECULAR_FORMULA>
C45H54O23

> <PUBCHEM_MOLECULAR_WEIGHT>
962.9

> <PUBCHEM_OPENEYE_CAN_SMILES>
CC1C(C(C(C(O1)OC2C(C(OC(C2OC(=O)C=CC3=CC(=C(C=C3)O)O)CO)OCCC4=CC(=C(C=C4)O)O)O)O)O)OC5C(C(C(C(O5)COC(=O)C=CC6=CC(=C(C=C6)O)OC)O)O)O

> <PUBCHEM_OPENEYE_ISO_SMILES>
C[C@H]1[C@@H]([C@H]([C@H]([C@@H](O1)O[C@@H]2[C@H]([C@@H](O[C@@H]([C@H]2OC(=O)/C=C/C3=CC(=C(C=C3)O)O)CO)OCCC4=CC(=C(C=C4)O)O)O)O)O)O[C@H]5[C@@H]([C@H]([C@@H]([C@H](O5)COC(=O)/C=C/C6=CC(=C(C=C6)O)OC)O)O)O

> <PUBCHEM_CACTVS_TPSA>
360

> <PUBCHEM_MONOISOTOPIC_WEIGHT>
962.305588

> <PUBCHEM_TOTAL_CHARGE>
0

> <PUBCHEM_HEAVY_ATOM_COUNT>
68

> <PUBCHEM_ATOM_DEF_STEREO_COUNT>
15

> <PUBCHEM_ATOM_UDEF_STEREO_COUNT>
0

> <PUBCHEM_BOND_DEF_STEREO_COUNT>
2

> <PUBCHEM_BOND_UDEF_STEREO_COUNT>
0

> <PUBCHEM_ISOTOPIC_ATOM_COUNT>
0

> <PUBCHEM_COMPONENT_COUNT>
1

> <PUBCHEM_CACTVS_TAUTO_COUNT>
-1

> <PUBCHEM_COORDINATE_TYPE>
1
5
255

> <PUBCHEM_BONDANNOTATIONS>
26  1  5
28  1  6
35  10  5
34  11  6
36  12  5
37  13  6
29  39  5
24  3  6
33  3  5
32  40  5
38  41  5
46  49  8
46  50  8
49  53  8
50  54  8
52  57  8
52  58  8
53  55  8
54  55  8
57  60  8
58  61  8
59  63  8
59  64  8
25  6  5
60  62  8
61  62  8
63  65  8
64  66  8
65  67  8
66  67  8
27  7  5
30  8  6
31  9  6

$$$$
