12305336
  -OEChem-09092005273D

 82 87  0     1  0  0  0  0  0999 V2000
   -1.5987    0.4361    1.9473 O   0  0  0  0  0  0  0  0  0  0  0  0
   -3.3009    2.0994   -1.6347 O   0  0  0  0  0  0  0  0  0  0  0  0
    7.1265   -1.4628   -0.8949 O   0  0  0  0  0  0  0  0  0  0  0  0
   -6.0902   -2.8864    0.2667 O   0  0  0  0  0  0  0  0  0  0  0  0
   -0.6245    0.8370   -0.2662 C   0  0  2  0  0  0  0  0  0  0  0  0
   -1.4672   -0.1637    0.6159 C   0  0  2  0  0  0  0  0  0  0  0  0
    0.9155    0.9423    0.3198 C   0  0  1  0  0  0  0  0  0  0  0  0
   -2.9565   -0.3297    0.2769 C   0  0  1  0  0  0  0  0  0  0  0  0
    1.5385   -0.5107    0.3098 C   0  0  1  0  0  0  0  0  0  0  0  0
   -3.4792    1.0618    0.6181 C   0  0  2  0  0  0  0  0  0  0  0  0
    3.1121   -0.6115    0.5546 C   0  0  2  0  0  0  0  0  0  0  0  0
   -1.3269    2.2337   -0.2752 C   0  0  0  0  0  0  0  0  0  0  0  0
   -0.7836   -1.5324    0.7562 C   0  0  0  0  0  0  0  0  0  0  0  0
   -2.8678    2.1850   -0.2804 C   0  0  1  0  0  0  0  0  0  0  0  0
    0.6897   -1.4800    1.1673 C   0  0  0  0  0  0  0  0  0  0  0  0
    3.8062    0.3602   -0.4741 C   0  0  1  0  0  0  0  0  0  0  0  0
    1.7873    1.8965   -0.5518 C   0  0  0  0  0  0  0  0  0  0  0  0
   -2.8567    1.1567    2.0194 C   0  0  0  0  0  0  0  0  0  0  0  0
   -3.5396   -0.9069   -1.0024 C   0  0  0  0  0  0  0  0  0  0  0  0
   -5.0205    1.1106    0.6091 C   0  0  0  0  0  0  0  0  0  0  0  0
    3.2984    1.8060   -0.3077 C   0  0  0  0  0  0  0  0  0  0  0  0
   -0.6008    0.3384   -1.7468 C   0  0  0  0  0  0  0  0  0  0  0  0
    0.9588    1.5457    1.7609 C   0  0  0  0  0  0  0  0  0  0  0  0
    5.3687    0.2253   -0.6116 C   0  0  0  0  0  0  0  0  0  0  0  0
    3.5780   -2.0643    0.2251 C   0  0  0  0  0  0  0  0  0  0  0  0
   -5.0914   -1.0128   -0.8813 C   0  0  1  0  0  0  0  0  0  0  0  0
   -5.6725   -0.2527    0.3416 C   0  0  0  0  0  0  0  0  0  0  0  0
    3.4890   -0.3297    2.0292 C   0  0  0  0  0  0  0  0  0  0  0  0
    5.7125   -1.2671   -0.8870 C   0  0  2  0  0  0  0  0  0  0  0  0
    5.0914   -2.2338    0.1143 C   0  0  0  0  0  0  0  0  0  0  0  0
    6.1529    0.7722    0.5987 C   0  0  0  0  0  0  0  0  0  0  0  0
    5.8618    1.0389   -1.8415 C   0  0  0  0  0  0  0  0  0  0  0  0
   -5.7552   -0.5350   -2.1806 C   0  0  0  0  0  0  0  0  0  0  0  0
   -5.4550   -2.4665   -0.6948 C   0  0  0  0  0  0  0  0  0  0  0  0
   -3.3261   -1.0265    1.0519 H   0  0  0  0  0  0  0  0  0  0  0  0
    1.4274   -0.8750   -0.7200 H   0  0  0  0  0  0  0  0  0  0  0  0
   -0.9710    2.8202   -1.1324 H   0  0  0  0  0  0  0  0  0  0  0  0
   -1.0510    2.8122    0.6066 H   0  0  0  0  0  0  0  0  0  0  0  0
   -0.8626   -2.0903   -0.1839 H   0  0  0  0  0  0  0  0  0  0  0  0
   -1.3086   -2.1310    1.5124 H   0  0  0  0  0  0  0  0  0  0  0  0
   -3.2207    3.1585    0.0861 H   0  0  0  0  0  0  0  0  0  0  0  0
    0.7435   -1.2291    2.2298 H   0  0  0  0  0  0  0  0  0  0  0  0
    1.0786   -2.5001    1.0846 H   0  0  0  0  0  0  0  0  0  0  0  0
    3.4298    0.0432   -1.4618 H   0  0  0  0  0  0  0  0  0  0  0  0
    1.4683    2.9359   -0.4028 H   0  0  0  0  0  0  0  0  0  0  0  0
    1.6541    1.6974   -1.6159 H   0  0  0  0  0  0  0  0  0  0  0  0
   -2.6687    2.1822    2.3519 H   0  0  0  0  0  0  0  0  0  0  0  0
   -3.4676    0.6585    2.7809 H   0  0  0  0  0  0  0  0  0  0  0  0
   -3.3029   -0.2997   -1.8728 H   0  0  0  0  0  0  0  0  0  0  0  0
   -3.0928   -1.8898   -1.1944 H   0  0  0  0  0  0  0  0  0  0  0  0
   -5.3926    1.8123   -0.1444 H   0  0  0  0  0  0  0  0  0  0  0  0
   -5.3916    1.5022    1.5647 H   0  0  0  0  0  0  0  0  0  0  0  0
    3.7694    2.4676   -1.0411 H   0  0  0  0  0  0  0  0  0  0  0  0
    3.5622    2.2191    0.6686 H   0  0  0  0  0  0  0  0  0  0  0  0
   -0.3438   -0.7186   -1.8418 H   0  0  0  0  0  0  0  0  0  0  0  0
   -1.5567    0.4735   -2.2460 H   0  0  0  0  0  0  0  0  0  0  0  0
    0.0896    0.8991   -2.3772 H   0  0  0  0  0  0  0  0  0  0  0  0
    0.3817    2.4664    1.8557 H   0  0  0  0  0  0  0  0  0  0  0  0
    0.6101    0.8612    2.5345 H   0  0  0  0  0  0  0  0  0  0  0  0
    1.9645    1.8400    2.0597 H   0  0  0  0  0  0  0  0  0  0  0  0
    3.1317   -2.3859   -0.7253 H   0  0  0  0  0  0  0  0  0  0  0  0
    3.2187   -2.7644    0.9884 H   0  0  0  0  0  0  0  0  0  0  0  0
   -5.5542   -0.8369    1.2645 H   0  0  0  0  0  0  0  0  0  0  0  0
   -6.7559   -0.1156    0.2258 H   0  0  0  0  0  0  0  0  0  0  0  0
    3.6895    0.7235    2.2276 H   0  0  0  0  0  0  0  0  0  0  0  0
    2.7138   -0.6555    2.7262 H   0  0  0  0  0  0  0  0  0  0  0  0
    4.3860   -0.8682    2.3440 H   0  0  0  0  0  0  0  0  0  0  0  0
    5.3462   -1.5470   -1.8842 H   0  0  0  0  0  0  0  0  0  0  0  0
    5.5776   -2.1350    1.0909 H   0  0  0  0  0  0  0  0  0  0  0  0
    5.3149   -3.2624   -0.1982 H   0  0  0  0  0  0  0  0  0  0  0  0
   -4.2117    2.4318   -1.6854 H   0  0  0  0  0  0  0  0  0  0  0  0
    7.2270    0.8227    0.3829 H   0  0  0  0  0  0  0  0  0  0  0  0
    5.8376    1.7877    0.8578 H   0  0  0  0  0  0  0  0  0  0  0  0
    6.0518    0.1495    1.4876 H   0  0  0  0  0  0  0  0  0  0  0  0
    6.9272    0.8800   -2.0392 H   0  0  0  0  0  0  0  0  0  0  0  0
    5.3125    0.7598   -2.7476 H   0  0  0  0  0  0  0  0  0  0  0  0
    5.7423    2.1167   -1.6930 H   0  0  0  0  0  0  0  0  0  0  0  0
   -5.5754    0.5304   -2.3550 H   0  0  0  0  0  0  0  0  0  0  0  0
   -5.3736   -1.0884   -3.0467 H   0  0  0  0  0  0  0  0  0  0  0  0
   -6.8399   -0.6920   -2.1530 H   0  0  0  0  0  0  0  0  0  0  0  0
   -5.1226   -3.1566   -1.4903 H   0  0  0  0  0  0  0  0  0  0  0  0
    7.4709   -1.1283   -1.7395 H   0  0  0  0  0  0  0  0  0  0  0  0
  1  6  1  0  0  0  0
  1 18  1  0  0  0  0
  2 14  1  0  0  0  0
  2 71  1  0  0  0  0
  3 29  1  0  0  0  0
  3 82  1  0  0  0  0
  4 34  2  0  0  0  0
  5  6  1  0  0  0  0
  5  7  1  0  0  0  0
  5 12  1  0  0  0  0
  5 22  1  0  0  0  0
  6  8  1  0  0  0  0
  6 13  1  0  0  0  0
  7  9  1  0  0  0  0
  7 17  1  0  0  0  0
  7 23  1  0  0  0  0
  8 10  1  0  0  0  0
  8 19  1  0  0  0  0
  8 35  1  0  0  0  0
  9 11  1  0  0  0  0
  9 15  1  0  0  0  0
  9 36  1  0  0  0  0
 10 14  1  0  0  0  0
 10 18  1  0  0  0  0
 10 20  1  0  0  0  0
 11 16  1  0  0  0  0
 11 25  1  0  0  0  0
 11 28  1  0  0  0  0
 12 14  1  0  0  0  0
 12 37  1  0  0  0  0
 12 38  1  0  0  0  0
 13 15  1  0  0  0  0
 13 39  1  0  0  0  0
 13 40  1  0  0  0  0
 14 41  1  0  0  0  0
 15 42  1  0  0  0  0
 15 43  1  0  0  0  0
 16 21  1  0  0  0  0
 16 24  1  0  0  0  0
 16 44  1  0  0  0  0
 17 21  1  0  0  0  0
 17 45  1  0  0  0  0
 17 46  1  0  0  0  0
 18 47  1  0  0  0  0
 18 48  1  0  0  0  0
 19 26  1  0  0  0  0
 19 49  1  0  0  0  0
 19 50  1  0  0  0  0
 20 27  1  0  0  0  0
 20 51  1  0  0  0  0
 20 52  1  0  0  0  0
 21 53  1  0  0  0  0
 21 54  1  0  0  0  0
 22 55  1  0  0  0  0
 22 56  1  0  0  0  0
 22 57  1  0  0  0  0
 23 58  1  0  0  0  0
 23 59  1  0  0  0  0
 23 60  1  0  0  0  0
 24 29  1  0  0  0  0
 24 31  1  0  0  0  0
 24 32  1  0  0  0  0
 25 30  1  0  0  0  0
 25 61  1  0  0  0  0
 25 62  1  0  0  0  0
 26 27  1  0  0  0  0
 26 33  1  0  0  0  0
 26 34  1  0  0  0  0
 27 63  1  0  0  0  0
 27 64  1  0  0  0  0
 28 65  1  0  0  0  0
 28 66  1  0  0  0  0
 28 67  1  0  0  0  0
 29 30  1  0  0  0  0
 29 68  1  0  0  0  0
 30 69  1  0  0  0  0
 30 70  1  0  0  0  0
 31 72  1  0  0  0  0
 31 73  1  0  0  0  0
 31 74  1  0  0  0  0
 32 75  1  0  0  0  0
 32 76  1  0  0  0  0
 32 77  1  0  0  0  0
 33 78  1  0  0  0  0
 33 79  1  0  0  0  0
 33 80  1  0  0  0  0
 34 81  1  0  0  0  0
M  END
> <PUBCHEM_COMPOUND_CID>
12305336

> <PUBCHEM_CONFORMER_RMSD>
0.8

> <PUBCHEM_CONFORMER_DIVERSEORDER>
1

> <PUBCHEM_MMFF94_PARTIAL_CHARGES>
13
1 -0.56
14 0.28
18 0.28
2 -0.68
26 0.06
29 0.28
3 -0.68
34 0.45
4 -0.57
6 0.28
71 0.4
81 0.06
82 0.4

> <PUBCHEM_EFFECTIVE_ROTOR_COUNT>
4.2

> <PUBCHEM_PHARMACOPHORE_FEATURES>
12
1 1 acceptor
1 2 acceptor
1 2 donor
1 3 acceptor
1 3 donor
1 4 acceptor
3 24 31 32 hydrophobe
6 11 16 24 25 29 30 rings
6 5 6 7 9 13 15 rings
6 7 9 11 16 17 21 rings
6 8 10 19 20 26 27 rings
8 1 5 6 8 10 12 14 18 rings

> <PUBCHEM_HEAVY_ATOM_COUNT>
34

> <PUBCHEM_ATOM_DEF_STEREO_COUNT>
11

> <PUBCHEM_ATOM_UDEF_STEREO_COUNT>
0

> <PUBCHEM_BOND_DEF_STEREO_COUNT>
0

> <PUBCHEM_BOND_UDEF_STEREO_COUNT>
0

> <PUBCHEM_ISOTOPIC_ATOM_COUNT>
0

> <PUBCHEM_COMPONENT_COUNT>
1

> <PUBCHEM_CACTVS_TAUTO_COUNT>
1

> <PUBCHEM_CONFORMER_ID>
00BBC3B800000001

> <PUBCHEM_MMFF94_ENERGY>
194.5258

> <PUBCHEM_FEATURE_SELFOVERLAP>
60.966

> <PUBCHEM_SHAPE_FINGERPRINT>
10 15 9727635024937189447
10366900 7 17385724690449774840
10554248 39 15574705864483826090
11524674 6 16056879131002750839
11578080 2 17097762470939593279
12011746 2 17821730532970010396
12166972 35 18272936037613928648
12236239 1 18202568367088099200
12422481 6 13901913318954661721
12516196 113 18412263930677093408
12596602 18 17846499231894236800
12633257 1 16199591428441570463
13224815 77 17385444293451696656
13533116 47 18201438146496982416
13782708 43 16845570915775451270
13811026 1 18408598180010527686
14068700 675 17703784843001320425
14347332 77 18411416198321261789
14856354 85 17775293742282924301
14955137 171 17418373597151489808
15001296 14 18199461233385975718
15082195 135 17752216225903435604
15183329 4 18333730208545309318
15788980 27 18260553281985277272
15799311 1 18271539614675446870
17349148 13 18131635577508121329
17980427 23 17168435869906208125
18681886 176 18343017822420667578
18927931 339 17275103929944670869
19958102 18 18411978065869520062
20775438 99 17691946573030648759
21033648 29 16153422874381290637
21267235 1 18410859889157595275
21424621 283 14707756300738050813
221357 26 18335699438133974836
22393880 68 18261663801239699677
23516275 137 17842868575385321883
23522609 53 18124346910834042040
23559900 14 18338512066271743721
23569914 152 17105338032635143087
23569943 247 18051983524416252242
24771293 8 18409445925731530048
2838139 119 14851592289589906415
34797466 226 17060344067512152592
350125 39 18412826889162147737
3633792 109 18409158914182635717
4015057 19 18041007279327478528
497634 4 18272092669271955937
508706 21 17023188176026359780
5104073 3 17418378007998084931
7495541 125 17275382131523403336
9849439 229 13409285814923617639

> <PUBCHEM_SHAPE_MULTIPOLES>
676.23
15.85
2.48
1.71
5.66
0.5
-0.03
6.87
5.15
-1.06
0.14
-0.36
-0.29
-0.75

> <PUBCHEM_SHAPE_SELFOVERLAP>
1455.278

> <PUBCHEM_SHAPE_VOLUME>
370.3

> <PUBCHEM_COORDINATE_TYPE>
2
5
10

$$$$
