73192
  -OEChem-09092005213D

 36 38  0     1  0  0  0  0  0999 V2000
    1.2932   -1.1242   -0.0514 O   0  0  0  0  0  0  0  0  0  0  0  0
    0.3967    2.4195    0.2648 O   0  0  0  0  0  0  0  0  0  0  0  0
    3.0710    2.5159   -0.8303 O   0  0  0  0  0  0  0  0  0  0  0  0
    4.6911    0.2594    0.0410 O   0  0  0  0  0  0  0  0  0  0  0  0
    2.6819   -3.4538    0.4218 O   0  0  0  0  0  0  0  0  0  0  0  0
   -0.8977   -2.4946    0.2017 O   0  0  0  0  0  0  0  0  0  0  0  0
   -1.6052    3.4405    0.5416 O   0  0  0  0  0  0  0  0  0  0  0  0
   -3.5809   -2.5380   -0.2508 O   0  0  0  0  0  0  0  0  0  0  0  0
   -5.0087   -0.1788   -0.4262 O   0  0  0  0  0  0  0  0  0  0  0  0
    1.0873    1.2650   -0.2537 C   0  0  2  0  0  0  0  0  0  0  0  0
    0.5904    0.0106    0.4515 C   0  0  1  0  0  0  0  0  0  0  0  0
    2.5884    1.4391   -0.0259 C   0  0  1  0  0  0  0  0  0  0  0  0
    3.3379    0.1562   -0.3931 C   0  0  2  0  0  0  0  0  0  0  0  0
    2.6892   -1.0703    0.2602 C   0  0  2  0  0  0  0  0  0  0  0  0
   -0.8905   -0.0806    0.1954 C   0  0  0  0  0  0  0  0  0  0  0  0
    3.3200   -2.3699   -0.2287 C   0  0  0  0  0  0  0  0  0  0  0  0
   -1.6309    1.1102    0.1244 C   0  0  0  0  0  0  0  0  0  0  0  0
   -0.9632    2.4223    0.3194 C   0  0  0  0  0  0  0  0  0  0  0  0
   -1.5579   -1.3063    0.0793 C   0  0  0  0  0  0  0  0  0  0  0  0
   -3.0136    1.0730   -0.0855 C   0  0  0  0  0  0  0  0  0  0  0  0
   -2.9366   -1.3410   -0.1347 C   0  0  0  0  0  0  0  0  0  0  0  0
   -3.6618   -0.1542   -0.2208 C   0  0  0  0  0  0  0  0  0  0  0  0
    0.9018    1.2277   -1.3372 H   0  0  0  0  0  0  0  0  0  0  0  0
    0.7272    0.0777    1.5397 H   0  0  0  0  0  0  0  0  0  0  0  0
    2.7918    1.7201    1.0149 H   0  0  0  0  0  0  0  0  0  0  0  0
    3.3524    0.0475   -1.4845 H   0  0  0  0  0  0  0  0  0  0  0  0
    2.7969   -1.0333    1.3530 H   0  0  0  0  0  0  0  0  0  0  0  0
    4.3889   -2.4121   -0.0004 H   0  0  0  0  0  0  0  0  0  0  0  0
    3.1837   -2.5005   -1.3074 H   0  0  0  0  0  0  0  0  0  0  0  0
    2.5519    3.3054   -0.5999 H   0  0  0  0  0  0  0  0  0  0  0  0
    4.6897    0.3514    1.0090 H   0  0  0  0  0  0  0  0  0  0  0  0
   -3.5882    1.9943   -0.1414 H   0  0  0  0  0  0  0  0  0  0  0  0
    1.7326   -3.4027    0.2161 H   0  0  0  0  0  0  0  0  0  0  0  0
   -1.5372   -3.2203    0.0970 H   0  0  0  0  0  0  0  0  0  0  0  0
   -4.5279   -2.3651   -0.3923 H   0  0  0  0  0  0  0  0  0  0  0  0
   -5.3425    0.7342   -0.4563 H   0  0  0  0  0  0  0  0  0  0  0  0
  1 11  1  0  0  0  0
  1 14  1  0  0  0  0
  2 10  1  0  0  0  0
  2 18  1  0  0  0  0
  3 12  1  0  0  0  0
  3 30  1  0  0  0  0
  4 13  1  0  0  0  0
  4 31  1  0  0  0  0
  5 16  1  0  0  0  0
  5 33  1  0  0  0  0
  6 19  1  0  0  0  0
  6 34  1  0  0  0  0
  7 18  2  0  0  0  0
  8 21  1  0  0  0  0
  8 35  1  0  0  0  0
  9 22  1  0  0  0  0
  9 36  1  0  0  0  0
 10 11  1  0  0  0  0
 10 12  1  0  0  0  0
 10 23  1  0  0  0  0
 11 15  1  0  0  0  0
 11 24  1  0  0  0  0
 12 13  1  0  0  0  0
 12 25  1  0  0  0  0
 13 14  1  0  0  0  0
 13 26  1  0  0  0  0
 14 16  1  0  0  0  0
 14 27  1  0  0  0  0
 15 17  1  0  0  0  0
 15 19  2  0  0  0  0
 16 28  1  0  0  0  0
 16 29  1  0  0  0  0
 17 18  1  0  0  0  0
 17 20  2  0  0  0  0
 19 21  1  0  0  0  0
 20 22  1  0  0  0  0
 20 32  1  0  0  0  0
 21 22  2  0  0  0  0
M  END
> <PUBCHEM_COMPOUND_CID>
73192

> <PUBCHEM_CONFORMER_RMSD>
0.6

> <PUBCHEM_CONFORMER_DIVERSEORDER>
1

> <PUBCHEM_MMFF94_PARTIAL_CHARGES>
29
1 -0.56
10 0.28
11 0.42
12 0.28
13 0.28
14 0.28
15 -0.14
16 0.28
17 0.09
18 0.63
19 0.08
2 -0.43
20 -0.15
21 0.08
22 0.08
3 -0.68
30 0.4
31 0.4
32 0.15
33 0.4
34 0.45
35 0.45
36 0.45
4 -0.68
5 -0.68
6 -0.53
7 -0.57
8 -0.53
9 -0.53

> <PUBCHEM_EFFECTIVE_ROTOR_COUNT>
2

> <PUBCHEM_PHARMACOPHORE_FEATURES>
14
1 1 acceptor
1 3 acceptor
1 3 donor
1 4 acceptor
1 4 donor
1 5 acceptor
1 5 donor
1 6 donor
1 7 acceptor
1 8 donor
1 9 donor
6 1 10 11 12 13 14 rings
6 15 17 19 20 21 22 rings
6 2 10 11 15 17 18 rings

> <PUBCHEM_HEAVY_ATOM_COUNT>
22

> <PUBCHEM_ATOM_DEF_STEREO_COUNT>
5

> <PUBCHEM_ATOM_UDEF_STEREO_COUNT>
0

> <PUBCHEM_BOND_DEF_STEREO_COUNT>
0

> <PUBCHEM_BOND_UDEF_STEREO_COUNT>
0

> <PUBCHEM_ISOTOPIC_ATOM_COUNT>
0

> <PUBCHEM_COMPONENT_COUNT>
1

> <PUBCHEM_CACTVS_TAUTO_COUNT>
23

> <PUBCHEM_CONFORMER_ID>
00011DE800000001

> <PUBCHEM_MMFF94_ENERGY>
66.9574

> <PUBCHEM_FEATURE_SELFOVERLAP>
71.125

> <PUBCHEM_SHAPE_FINGERPRINT>
10616163 171 18413111662410153558
10693767 8 18057297593004121359
10967382 1 18410856598294514771
11578080 2 17242156956512273534
116883 192 18270121197367360230
12553582 1 18340483477719561267
12788726 201 18130796598749924057
13140716 1 18195810893177943720
138480 1 15024995843110114617
14178342 30 18338223857377026896
14790565 3 17761224605963465497
15042514 8 17617093603796673634
15196674 1 18410856572545797007
15442244 35 18194120716251737378
15536298 74 18341612586177834138
16945 1 18410022022046496728
17492 89 18338235955572503267
19591789 44 18050852418111468082
20510252 161 18200030633931928217
20905425 154 18343024371966296982
21267235 1 18410583902299723767
21421861 104 18261671480736171042
21501502 16 18267590104710461840
21634736 98 18409733924267028526
221490 88 18120376711963658411
23184049 29 18339925896564703422
2334 1 18339079401523644795
23402539 116 18342168998811047709
23463225 33 18411983541878416847
23557571 272 17988646246848591936
23558518 356 18264498290581468761
23559900 14 18341043026443616314
23566358 2 18337103458705923636
2748010 2 16895673762530599515
2871803 45 18411420618185416332
335352 9 18410573989652368061
34934 24 18341607182728998766
350125 39 18266464208835115313
394222 165 17389375236932755904
4280585 95 17836944304504593278
4409770 3 16673020970321442102
5104073 3 18338236097437585625
58051976 378 18412545405611424254
7364860 26 18411980269625033698
9709674 26 18341336595747929030

> <PUBCHEM_SHAPE_MULTIPOLES>
399.93
7.47
3.56
0.67
0.35
0.08
-0.01
2.33
-1.05
-0.73
0.26
-0.06
-0.08
-0.63

> <PUBCHEM_SHAPE_SELFOVERLAP>
876.533

> <PUBCHEM_SHAPE_VOLUME>
214.3

> <PUBCHEM_COORDINATE_TYPE>
2
5
10

$$$$
