44419566
  -OEChem-09092004352D

162171  0     1  0  0  0  0  0999 V2000
   12.9046    2.9287    0.0000 O   0  0  0  0  0  0  0  0  0  0  0  0
   15.0324    1.8205    0.0000 O   0  0  0  0  0  0  0  0  0  0  0  0
    6.8671    0.1850    0.0000 O   0  0  0  0  0  0  0  0  0  0  0  0
   15.6961    6.2590    0.0000 O   0  0  0  0  0  0  0  0  0  0  0  0
   14.1961    7.1250    0.0000 O   0  0  0  0  0  0  0  0  0  0  0  0
    7.7331   -1.3150    0.0000 O   0  0  0  0  0  0  0  0  0  0  0  0
    5.1350   -0.8150    0.0000 O   0  0  0  0  0  0  0  0  0  0  0  0
    5.1350   -2.8150    0.0000 O   0  0  0  0  0  0  0  0  0  0  0  0
    6.8671   -3.8150    0.0000 O   0  0  0  0  0  0  0  0  0  0  0  0
    6.0010    0.6850    0.0000 O   0  0  0  0  0  0  0  0  0  0  0  0
    3.4030    0.1850    0.0000 O   0  0  0  0  0  0  0  0  0  0  0  0
    5.1350   -3.8150    0.0000 O   0  0  0  0  0  0  0  0  0  0  0  0
    3.4030    2.1850    0.0000 O   0  0  0  0  0  0  0  0  0  0  0  0
    6.8671   -5.8150    0.0000 O   0  0  0  0  0  0  0  0  0  0  0  0
    5.1350    3.1850    0.0000 O   0  0  0  0  0  0  0  0  0  0  0  0
    5.1350   -6.8150    0.0000 O   0  0  0  0  0  0  0  0  0  0  0  0
    6.8671    3.1850    0.0000 O   0  0  0  0  0  0  0  0  0  0  0  0
    3.4030   -5.8150    0.0000 O   0  0  0  0  0  0  0  0  0  0  0  0
    7.7331   -4.3150    0.0000 O   0  0  0  0  0  0  0  0  0  0  0  0
    2.5369   -4.3150    0.0000 O   0  0  0  0  0  0  0  0  0  0  0  0
    8.5991   -6.8150    0.0000 O   0  0  0  0  0  0  0  0  0  0  0  0
   10.3312   -5.8150    0.0000 O   0  0  0  0  0  0  0  0  0  0  0  0
   10.3312   -3.8150    0.0000 O   0  0  0  0  0  0  0  0  0  0  0  0
   12.4363    2.3305    0.0000 C   0  0  2  0  0  0  0  0  0  0  0  0
   12.4401    3.3305    0.0000 C   0  0  2  0  0  0  0  0  0  0  0  0
   11.5403    1.7993    0.0000 C   0  0  1  0  0  0  0  0  0  0  0  0
   13.3081    3.8271    0.0000 C   0  0  1  0  0  0  0  0  0  0  0  0
   10.6362    2.3166    0.0000 C   0  0  1  0  0  0  0  0  0  0  0  0
   14.1722    3.3238    0.0000 C   0  0  2  0  0  0  0  0  0  0  0  0
    9.6903    1.7850    0.0000 C   0  0  2  0  0  0  0  0  0  0  0  0
   13.3004    1.8272    0.0000 C   0  0  0  0  0  0  0  0  0  0  0  0
   11.5482    3.8686    0.0000 C   0  0  0  0  0  0  0  0  0  0  0  0
   14.1683    2.3238    0.0000 C   0  0  1  0  0  0  0  0  0  0  0  0
   10.6402    3.3582    0.0000 C   0  0  0  0  0  0  0  0  0  0  0  0
    9.6862    0.7000    0.0000 C   0  0  1  0  0  0  0  0  0  0  0  0
   11.5612    0.7145    0.0000 C   0  0  0  0  0  0  0  0  0  0  0  0
   13.7046    2.9256    0.0000 C   0  0  0  0  0  0  0  0  0  0  0  0
   13.2960    4.8687    0.0000 C   0  0  0  0  0  0  0  0  0  0  0  0
   15.0841    3.8271    0.0000 C   0  0  0  0  0  0  0  0  0  0  0  0
   10.6279    0.1612    0.0000 C   0  0  0  0  0  0  0  0  0  0  0  0
   12.7748    1.3895    0.0000 C   0  0  0  0  0  0  0  0  0  0  0  0
   12.1860    1.0357    0.0000 C   0  0  0  0  0  0  0  0  0  0  0  0
    8.7140    0.1237    0.0000 C   0  0  0  0  0  0  0  0  0  0  0  0
    8.7227    2.3688    0.0000 C   0  0  0  0  0  0  0  0  0  0  0  0
   14.1961    5.3930    0.0000 C   0  0  1  0  0  0  0  0  0  0  0  0
   15.0961    4.8687    0.0000 C   0  0  0  0  0  0  0  0  0  0  0  0
    9.6942    2.7850    0.0000 C   0  0  0  0  0  0  0  0  0  0  0  0
    7.7331    0.6850    0.0000 C   0  0  2  0  0  0  0  0  0  0  0  0
    7.7374    1.8151    0.0000 C   0  0  0  0  0  0  0  0  0  0  0  0
    9.2207   -0.7385    0.0000 C   0  0  0  0  0  0  0  0  0  0  0  0
    8.2207   -0.7462    0.0000 C   0  0  0  0  0  0  0  0  0  0  0  0
   13.6961    6.2590    0.0000 C   0  0  0  0  0  0  0  0  0  0  0  0
   14.6961    6.2590    0.0000 C   0  0  0  0  0  0  0  0  0  0  0  0
    6.8671   -0.8150    0.0000 C   0  0  2  0  0  0  0  0  0  0  0  0
    6.0010   -1.3150    0.0000 C   0  0  1  0  0  0  0  0  0  0  0  0
    6.0010   -2.3150    0.0000 C   0  0  2  0  0  0  0  0  0  0  0  0
    7.7331   -2.3150    0.0000 C   0  0  0  0  0  0  0  0  0  0  0  0
    6.8671   -2.8150    0.0000 C   0  0  2  0  0  0  0  0  0  0  0  0
    5.1350    0.1850    0.0000 C   0  0  2  0  0  0  0  0  0  0  0  0
    4.2690    0.6850    0.0000 C   0  0  1  0  0  0  0  0  0  0  0  0
    6.0010   -4.3150    0.0000 C   0  0  2  0  0  0  0  0  0  0  0  0
    4.2690    1.6850    0.0000 C   0  0  2  0  0  0  0  0  0  0  0  0
    6.0010    1.6850    0.0000 C   0  0  1  0  0  0  0  0  0  0  0  0
    5.1350    2.1850    0.0000 C   0  0  1  0  0  0  0  0  0  0  0  0
    6.0010   -5.3150    0.0000 C   0  0  1  0  0  0  0  0  0  0  0  0
    5.1350   -5.8150    0.0000 C   0  0  2  0  0  0  0  0  0  0  0  0
    4.2690   -4.3150    0.0000 C   0  0  1  0  0  0  0  0  0  0  0  0
    6.8671    2.1850    0.0000 C   0  0  0  0  0  0  0  0  0  0  0  0
    4.2690   -5.3150    0.0000 C   0  0  1  0  0  0  0  0  0  0  0  0
    3.4030   -3.8150    0.0000 C   0  0  0  0  0  0  0  0  0  0  0  0
    7.7331   -5.3150    0.0000 C   0  0  2  0  0  0  0  0  0  0  0  0
    8.5991   -5.8150    0.0000 C   0  0  1  0  0  0  0  0  0  0  0  0
    9.4651   -5.3150    0.0000 C   0  0  1  0  0  0  0  0  0  0  0  0
    8.5991   -3.8150    0.0000 C   0  0  2  0  0  0  0  0  0  0  0  0
    9.4651   -4.3150    0.0000 C   0  0  2  0  0  0  0  0  0  0  0  0
    8.5991   -2.8150    0.0000 C   0  0  0  0  0  0  0  0  0  0  0  0
   12.5736    4.2550    0.0000 H   0  0  0  0  0  0  0  0  0  0  0  0
   11.3723    2.7416    0.0000 H   0  0  0  0  0  0  0  0  0  0  0  0
   12.9000    1.3537    0.0000 H   0  0  0  0  0  0  0  0  0  0  0  0
   13.6970    1.3507    0.0000 H   0  0  0  0  0  0  0  0  0  0  0  0
   11.9546    4.3368    0.0000 H   0  0  0  0  0  0  0  0  0  0  0  0
   11.1565    4.3491    0.0000 H   0  0  0  0  0  0  0  0  0  0  0  0
   14.1659    1.7038    0.0000 H   0  0  0  0  0  0  0  0  0  0  0  0
   10.4334    3.9427    0.0000 H   0  0  0  0  0  0  0  0  0  0  0  0
   10.0289    3.2545    0.0000 H   0  0  0  0  0  0  0  0  0  0  0  0
    9.6927   -0.1500    0.0000 H   0  0  0  0  0  0  0  0  0  0  0  0
   11.7814    0.1349    0.0000 H   0  0  0  0  0  0  0  0  0  0  0  0
   12.1699    0.8323    0.0000 H   0  0  0  0  0  0  0  0  0  0  0  0
   13.5267    2.3317    0.0000 H   0  0  0  0  0  0  0  0  0  0  0  0
   14.2238    2.5868    0.0000 H   0  0  0  0  0  0  0  0  0  0  0  0
   13.0802    5.4499    0.0000 H   0  0  0  0  0  0  0  0  0  0  0  0
   12.6864    4.7556    0.0000 H   0  0  0  0  0  0  0  0  0  0  0  0
   15.2864    3.2411    0.0000 H   0  0  0  0  0  0  0  0  0  0  0  0
   15.6961    3.9262    0.0000 H   0  0  0  0  0  0  0  0  0  0  0  0
   10.2324   -0.3163    0.0000 H   0  0  0  0  0  0  0  0  0  0  0  0
   11.0307   -0.3102    0.0000 H   0  0  0  0  0  0  0  0  0  0  0  0
   12.1913    1.1796    0.0000 H   0  0  0  0  0  0  0  0  0  0  0  0
   12.9846    0.8061    0.0000 H   0  0  0  0  0  0  0  0  0  0  0  0
   13.3582    1.5994    0.0000 H   0  0  0  0  0  0  0  0  0  0  0  0
   11.7126    0.6354    0.0000 H   0  0  0  0  0  0  0  0  0  0  0  0
   12.5864    0.5623    0.0000 H   0  0  0  0  0  0  0  0  0  0  0  0
   12.6594    1.4361    0.0000 H   0  0  0  0  0  0  0  0  0  0  0  0
    9.1291    2.8371    0.0000 H   0  0  0  0  0  0  0  0  0  0  0  0
    8.3309    2.8494    0.0000 H   0  0  0  0  0  0  0  0  0  0  0  0
   15.7057    4.7556    0.0000 H   0  0  0  0  0  0  0  0  0  0  0  0
   15.3119    5.4499    0.0000 H   0  0  0  0  0  0  0  0  0  0  0  0
   10.3142    2.7826    0.0000 H   0  0  0  0  0  0  0  0  0  0  0  0
    9.6966    3.4050    0.0000 H   0  0  0  0  0  0  0  0  0  0  0  0
    9.0742    2.7874    0.0000 H   0  0  0  0  0  0  0  0  0  0  0  0
    7.1968    0.9960    0.0000 H   0  0  0  0  0  0  0  0  0  0  0  0
    7.5306    2.3996    0.0000 H   0  0  0  0  0  0  0  0  0  0  0  0
    7.1262    1.7114    0.0000 H   0  0  0  0  0  0  0  0  0  0  0  0
   15.0300    1.2005    0.0000 H   0  0  0  0  0  0  0  0  0  0  0  0
    8.6861   -1.0526    0.0000 H   0  0  0  0  0  0  0  0  0  0  0  0
    9.5348   -1.2730    0.0000 H   0  0  0  0  0  0  0  0  0  0  0  0
    9.7552   -0.4244    0.0000 H   0  0  0  0  0  0  0  0  0  0  0  0
    7.6814   -0.4403    0.0000 H   0  0  0  0  0  0  0  0  0  0  0  0
    7.9148   -1.2855    0.0000 H   0  0  0  0  0  0  0  0  0  0  0  0
    8.7600   -1.0520    0.0000 H   0  0  0  0  0  0  0  0  0  0  0  0
   14.2330    6.5690    0.0000 H   0  0  0  0  0  0  0  0  0  0  0  0
   13.3861    6.7959    0.0000 H   0  0  0  0  0  0  0  0  0  0  0  0
   13.1591    5.9490    0.0000 H   0  0  0  0  0  0  0  0  0  0  0  0
    6.3301   -0.5050    0.0000 H   0  0  0  0  0  0  0  0  0  0  0  0
   16.0061    6.7959    0.0000 H   0  0  0  0  0  0  0  0  0  0  0  0
    6.0010   -0.6950    0.0000 H   0  0  0  0  0  0  0  0  0  0  0  0
    6.0010   -2.9350    0.0000 H   0  0  0  0  0  0  0  0  0  0  0  0
    7.9451   -2.8976    0.0000 H   0  0  0  0  0  0  0  0  0  0  0  0
    8.3437   -2.2074    0.0000 H   0  0  0  0  0  0  0  0  0  0  0  0
    7.4040   -3.1250    0.0000 H   0  0  0  0  0  0  0  0  0  0  0  0
    4.5981   -0.1250    0.0000 H   0  0  0  0  0  0  0  0  0  0  0  0
    4.5981   -2.5050    0.0000 H   0  0  0  0  0  0  0  0  0  0  0  0
    3.7320    0.9950    0.0000 H   0  0  0  0  0  0  0  0  0  0  0  0
    6.0010   -3.6950    0.0000 H   0  0  0  0  0  0  0  0  0  0  0  0
    4.2690    2.3050    0.0000 H   0  0  0  0  0  0  0  0  0  0  0  0
    6.5380    1.3750    0.0000 H   0  0  0  0  0  0  0  0  0  0  0  0
    5.6720    2.4950    0.0000 H   0  0  0  0  0  0  0  0  0  0  0  0
    6.0010   -5.9350    0.0000 H   0  0  0  0  0  0  0  0  0  0  0  0
    2.8660    0.4950    0.0000 H   0  0  0  0  0  0  0  0  0  0  0  0
    4.5981   -6.1250    0.0000 H   0  0  0  0  0  0  0  0  0  0  0  0
    4.2690   -3.6950    0.0000 H   0  0  0  0  0  0  0  0  0  0  0  0
    7.0791    1.6024    0.0000 H   0  0  0  0  0  0  0  0  0  0  0  0
    7.4776    2.2926    0.0000 H   0  0  0  0  0  0  0  0  0  0  0  0
    4.2690   -5.9350    0.0000 H   0  0  0  0  0  0  0  0  0  0  0  0
    3.4030    2.8050    0.0000 H   0  0  0  0  0  0  0  0  0  0  0  0
    5.6720    3.4950    0.0000 H   0  0  0  0  0  0  0  0  0  0  0  0
    3.8015   -3.3401    0.0000 H   0  0  0  0  0  0  0  0  0  0  0  0
    3.0044   -3.3401    0.0000 H   0  0  0  0  0  0  0  0  0  0  0  0
    7.1962   -5.0050    0.0000 H   0  0  0  0  0  0  0  0  0  0  0  0
    4.5981   -7.1250    0.0000 H   0  0  0  0  0  0  0  0  0  0  0  0
    7.4040    3.4950    0.0000 H   0  0  0  0  0  0  0  0  0  0  0  0
    3.4030   -6.4350    0.0000 H   0  0  0  0  0  0  0  0  0  0  0  0
    8.0622   -6.1250    0.0000 H   0  0  0  0  0  0  0  0  0  0  0  0
    2.0000   -4.0050    0.0000 H   0  0  0  0  0  0  0  0  0  0  0  0
    9.4651   -5.9350    0.0000 H   0  0  0  0  0  0  0  0  0  0  0  0
    8.0622   -3.5050    0.0000 H   0  0  0  0  0  0  0  0  0  0  0  0
   10.0021   -4.6250    0.0000 H   0  0  0  0  0  0  0  0  0  0  0  0
    9.1360   -7.1250    0.0000 H   0  0  0  0  0  0  0  0  0  0  0  0
    9.2191   -2.8150    0.0000 H   0  0  0  0  0  0  0  0  0  0  0  0
    8.5991   -2.1950    0.0000 H   0  0  0  0  0  0  0  0  0  0  0  0
    7.9791   -2.8150    0.0000 H   0  0  0  0  0  0  0  0  0  0  0  0
   10.8681   -5.5050    0.0000 H   0  0  0  0  0  0  0  0  0  0  0  0
   10.8681   -4.1250    0.0000 H   0  0  0  0  0  0  0  0  0  0  0  0
  1 25  1  0  0  0  0
  1 37  1  0  0  0  0
 33  2  1  6  0  0  0
  2113  1  0  0  0  0
 48  3  1  1  0  0  0
 54  3  1  6  0  0  0
  4 53  1  0  0  0  0
  4124  1  0  0  0  0
  5 53  2  0  0  0  0
  6 54  1  0  0  0  0
  6 57  1  0  0  0  0
 55  7  1  1  0  0  0
 59  7  1  1  0  0  0
 56  8  1  6  0  0  0
  8131  1  0  0  0  0
 58  9  1  6  0  0  0
 61  9  1  1  0  0  0
 10 59  1  0  0  0  0
 10 63  1  0  0  0  0
 60 11  1  6  0  0  0
 11138  1  0  0  0  0
 12 61  1  0  0  0  0
 12 67  1  0  0  0  0
 62 13  1  1  0  0  0
 13144  1  0  0  0  0
 65 14  1  6  0  0  0
 71 14  1  6  0  0  0
 64 15  1  6  0  0  0
 15145  1  0  0  0  0
 66 16  1  1  0  0  0
 16149  1  0  0  0  0
 17 68  1  0  0  0  0
 17150  1  0  0  0  0
 69 18  1  6  0  0  0
 18151  1  0  0  0  0
 19 71  1  0  0  0  0
 19 74  1  0  0  0  0
 20 70  1  0  0  0  0
 20153  1  0  0  0  0
 72 21  1  1  0  0  0
 21157  1  0  0  0  0
 73 22  1  1  0  0  0
 22161  1  0  0  0  0
 75 23  1  6  0  0  0
 23162  1  0  0  0  0
 24 25  1  0  0  0  0
 24 26  1  0  0  0  0
 24 31  1  0  0  0  0
 24 41  1  6  0  0  0
 25 27  1  0  0  0  0
 25 32  1  1  0  0  0
 26 28  1  0  0  0  0
 26 36  1  0  0  0  0
 26 42  1  1  0  0  0
 27 29  1  0  0  0  0
 27 38  1  0  0  0  0
 27 77  1  1  0  0  0
 28 30  1  0  0  0  0
 28 34  1  0  0  0  0
 28 78  1  6  0  0  0
 29 33  1  0  0  0  0
 29 37  1  0  0  0  0
 29 39  1  1  0  0  0
 30 35  1  0  0  0  0
 30 44  1  0  0  0  0
 30 47  1  1  0  0  0
 31 33  1  0  0  0  0
 31 79  1  0  0  0  0
 31 80  1  0  0  0  0
 32 34  1  0  0  0  0
 32 81  1  0  0  0  0
 32 82  1  0  0  0  0
 33 83  1  0  0  0  0
 34 84  1  0  0  0  0
 34 85  1  0  0  0  0
 35 40  1  0  0  0  0
 35 43  1  0  0  0  0
 35 86  1  6  0  0  0
 36 40  1  0  0  0  0
 36 87  1  0  0  0  0
 36 88  1  0  0  0  0
 37 89  1  0  0  0  0
 37 90  1  0  0  0  0
 38 45  1  0  0  0  0
 38 91  1  0  0  0  0
 38 92  1  0  0  0  0
 39 46  1  0  0  0  0
 39 93  1  0  0  0  0
 39 94  1  0  0  0  0
 40 95  1  0  0  0  0
 40 96  1  0  0  0  0
 41 97  1  0  0  0  0
 41 98  1  0  0  0  0
 41 99  1  0  0  0  0
 42100  1  0  0  0  0
 42101  1  0  0  0  0
 42102  1  0  0  0  0
 43 48  1  0  0  0  0
 43 50  1  0  0  0  0
 43 51  1  0  0  0  0
 44 49  1  0  0  0  0
 44103  1  0  0  0  0
 44104  1  0  0  0  0
 45 46  1  0  0  0  0
 45 52  1  6  0  0  0
 45 53  1  0  0  0  0
 46105  1  0  0  0  0
 46106  1  0  0  0  0
 47107  1  0  0  0  0
 47108  1  0  0  0  0
 47109  1  0  0  0  0
 48 49  1  0  0  0  0
 48110  1  0  0  0  0
 49111  1  0  0  0  0
 49112  1  0  0  0  0
 50114  1  0  0  0  0
 50115  1  0  0  0  0
 50116  1  0  0  0  0
 51117  1  0  0  0  0
 51118  1  0  0  0  0
 51119  1  0  0  0  0
 52120  1  0  0  0  0
 52121  1  0  0  0  0
 52122  1  0  0  0  0
 54 55  1  0  0  0  0
 54123  1  0  0  0  0
 55 56  1  0  0  0  0
 55125  1  0  0  0  0
 56 58  1  0  0  0  0
 56126  1  0  0  0  0
 57 58  1  0  0  0  0
 57127  1  0  0  0  0
 57128  1  0  0  0  0
 58129  1  0  0  0  0
 59 60  1  0  0  0  0
 59130  1  0  0  0  0
 60 62  1  0  0  0  0
 60132  1  0  0  0  0
 61 65  1  0  0  0  0
 61133  1  0  0  0  0
 62 64  1  0  0  0  0
 62134  1  0  0  0  0
 63 64  1  0  0  0  0
 63 68  1  1  0  0  0
 63135  1  0  0  0  0
 64136  1  0  0  0  0
 65 66  1  0  0  0  0
 65137  1  0  0  0  0
 66 69  1  0  0  0  0
 66139  1  0  0  0  0
 67 69  1  0  0  0  0
 67 70  1  1  0  0  0
 67140  1  0  0  0  0
 68141  1  0  0  0  0
 68142  1  0  0  0  0
 69143  1  0  0  0  0
 70146  1  0  0  0  0
 70147  1  0  0  0  0
 71 72  1  0  0  0  0
 71148  1  0  0  0  0
 72 73  1  0  0  0  0
 72152  1  0  0  0  0
 73 75  1  0  0  0  0
 73154  1  0  0  0  0
 74 75  1  0  0  0  0
 74 76  1  1  0  0  0
 74155  1  0  0  0  0
 75156  1  0  0  0  0
 76158  1  0  0  0  0
 76159  1  0  0  0  0
 76160  1  0  0  0  0
M  END
> <PUBCHEM_COMPOUND_CID>
44419566

> <PUBCHEM_COMPOUND_CANONICALIZED>
1

> <PUBCHEM_CACTVS_COMPLEXITY>
2110

> <PUBCHEM_CACTVS_HBOND_ACCEPTOR>
23

> <PUBCHEM_CACTVS_HBOND_DONOR>
13

> <PUBCHEM_CACTVS_ROTATABLE_BOND>
11

> <PUBCHEM_CACTVS_SUBSKEYS>
AAADcfB8PgAAAAAAAAAAAAAAAAAAASAAAAA0aNGjBIAAAEjAAAAAGgAACAAAD1SwgAMCCAAABgAIAACQCAAAAAAAAAAAAAEAAAAREBIAAAAiQAAFAAAHAAHI7PzPgAAAAAAAAADCAAYAADAAAAAAAAAAAA==

> <PUBCHEM_IUPAC_OPENEYE_NAME>
(1S,2R,4S,5R,8R,10S,13R,14R,17S,18R,20S)-10-[(2S,3R,4S,5S)-5-[(2S,3R,4S,5S,6R)-4,5-dihydroxy-6-(hydroxymethyl)-3-[(2S,3R,4R,5R,6S)-3,4,5-trihydroxy-6-methyl-tetrahydropyran-2-yl]oxy-tetrahydropyran-2-yl]oxy-4-hydroxy-3-[(2S,3R,4S,5S,6R)-3,4,5-trihydroxy-6-(hydroxymethyl)tetrahydropyran-2-yl]oxy-tetrahydropyran-2-yl]oxy-2-hydroxy-4,5,9,9,13,20-hexamethyl-24-oxahexacyclo[15.5.2.01,18.04,17.05,14.08,13]tetracosane-20-carboxylic acid

> <PUBCHEM_IUPAC_CAS_NAME>
(1S,2R,4S,5R,8R,10S,13R,14R,17S,18R,20S)-10-[[(2S,3R,4S,5S)-5-[[(2S,3R,4S,5S,6R)-4,5-dihydroxy-6-(hydroxymethyl)-3-[[(2S,3R,4R,5R,6S)-3,4,5-trihydroxy-6-methyl-2-oxanyl]oxy]-2-oxanyl]oxy]-4-hydroxy-3-[[(2S,3R,4S,5S,6R)-3,4,5-trihydroxy-6-(hydroxymethyl)-2-oxanyl]oxy]-2-oxanyl]oxy]-2-hydroxy-4,5,9,9,13,20-hexamethyl-24-oxahexacyclo[15.5.2.01,18.04,17.05,14.08,13]tetracosane-20-carboxylic acid

> <PUBCHEM_IUPAC_NAME_MARKUP>
(1<I>S</I>,2<I>R</I>,4<I>S</I>,5<I>R</I>,8<I>R</I>,10<I>S</I>,13<I>R</I>,14<I>R</I>,17<I>S</I>,18<I>R</I>,20<I>S</I>)-10-[(2<I>S</I>,3<I>R</I>,4<I>S</I>,5<I>S</I>)-5-[(2<I>S</I>,3<I>R</I>,4<I>S</I>,5<I>S</I>,6<I>R</I>)-4,5-dihydroxy-6-(hydroxymethyl)-3-[(2<I>S</I>,3<I>R</I>,4<I>R</I>,5<I>R</I>,6<I>S</I>)-3,4,5-trihydroxy-6-methyloxan-2-yl]oxyoxan-2-yl]oxy-4-hydroxy-3-[(2<I>S</I>,3<I>R</I>,4<I>S</I>,5<I>S</I>,6<I>R</I>)-3,4,5-trihydroxy-6-(hydroxymethyl)oxan-2-yl]oxyoxan-2-yl]oxy-2-hydroxy-4,5,9,9,13,20-hexamethyl-24-oxahexacyclo[15.5.2.0<SUP>1,18</SUP>.0<SUP>4,17</SUP>.0<SUP>5,14</SUP>.0<SUP>8,13</SUP>]tetracosane-20-carboxylic acid

> <PUBCHEM_IUPAC_NAME>
(1S,2R,4S,5R,8R,10S,13R,14R,17S,18R,20S)-10-[(2S,3R,4S,5S)-5-[(2S,3R,4S,5S,6R)-4,5-dihydroxy-6-(hydroxymethyl)-3-[(2S,3R,4R,5R,6S)-3,4,5-trihydroxy-6-methyloxan-2-yl]oxyoxan-2-yl]oxy-4-hydroxy-3-[(2S,3R,4S,5S,6R)-3,4,5-trihydroxy-6-(hydroxymethyl)oxan-2-yl]oxyoxan-2-yl]oxy-2-hydroxy-4,5,9,9,13,20-hexamethyl-24-oxahexacyclo[15.5.2.01,18.04,17.05,14.08,13]tetracosane-20-carboxylic acid

> <PUBCHEM_IUPAC_SYSTEMATIC_NAME>
(1S,2R,4S,5R,8R,10S,13R,14R,17S,18R,20S)-10-[(2S,3R,4S,5S)-5-[(2S,3R,4S,5S,6R)-6-(hydroxymethyl)-3-[(2S,3R,4R,5R,6S)-6-methyl-3,4,5-tris(oxidanyl)oxan-2-yl]oxy-4,5-bis(oxidanyl)oxan-2-yl]oxy-3-[(2S,3R,4S,5S,6R)-6-(hydroxymethyl)-3,4,5-tris(oxidanyl)oxan-2-yl]oxy-4-oxidanyl-oxan-2-yl]oxy-4,5,9,9,13,20-hexamethyl-2-oxidanyl-24-oxahexacyclo[15.5.2.01,18.04,17.05,14.08,13]tetracosane-20-carboxylic acid

> <PUBCHEM_IUPAC_TRADITIONAL_NAME>
(1S,2R,4S,5R,8R,10S,13R,14R,17S,18R,20S)-10-[(2S,3R,4S,5S)-5-[(2S,3R,4S,5S,6R)-4,5-dihydroxy-6-methylol-3-[(2S,3R,4R,5R,6S)-3,4,5-trihydroxy-6-methyl-tetrahydropyran-2-yl]oxy-tetrahydropyran-2-yl]oxy-4-hydroxy-3-[(2S,3R,4S,5S,6R)-3,4,5-trihydroxy-6-methylol-tetrahydropyran-2-yl]oxy-tetrahydropyran-2-yl]oxy-2-hydroxy-4,5,9,9,13,20-hexamethyl-24-oxahexacyclo[15.5.2.01,18.04,17.05,14.08,13]tetracosane-20-carboxylic acid

> <PUBCHEM_IUPAC_INCHI>
InChI=1S/C53H86O23/c1-22-31(57)35(61)38(64)42(70-22)76-41-37(63)33(59)24(19-55)72-45(41)73-25-20-68-44(40(34(25)60)75-43-39(65)36(62)32(58)23(18-54)71-43)74-30-10-11-49(5)26(47(30,2)3)8-12-50(6)27(49)9-13-53-28-16-48(4,46(66)67)14-15-52(28,21-69-53)29(56)17-51(50,53)7/h22-45,54-65H,8-21H2,1-7H3,(H,66,67)/t22-,23+,24+,25-,26-,27+,28+,29+,30-,31-,32+,33+,34-,35+,36-,37-,38+,39+,40+,41+,42-,43-,44-,45-,48-,49-,50+,51-,52+,53-/m0/s1

> <PUBCHEM_IUPAC_INCHIKEY>
GBIVVEOMDGPTFX-KORAFSQNSA-N

> <PUBCHEM_XLOGP3_AA>
-0.6

> <PUBCHEM_EXACT_MASS>
1090.555989

> <PUBCHEM_MOLECULAR_FORMULA>
C53H86O23

> <PUBCHEM_MOLECULAR_WEIGHT>
1091.2

> <PUBCHEM_OPENEYE_CAN_SMILES>
CC1C(C(C(C(O1)OC2C(C(C(OC2OC3COC(C(C3O)OC4C(C(C(C(O4)CO)O)O)O)OC5CCC6(C(C5(C)C)CCC7(C6CCC89C7(CC(C1(C8CC(CC1)(C)C(=O)O)CO9)O)C)C)C)CO)O)O)O)O)O

> <PUBCHEM_OPENEYE_ISO_SMILES>
C[C@H]1[C@@H]([C@H]([C@H]([C@@H](O1)O[C@@H]2[C@H]([C@@H]([C@H](O[C@H]2O[C@H]3CO[C@H]([C@@H]([C@H]3O)O[C@H]4[C@@H]([C@H]([C@@H]([C@H](O4)CO)O)O)O)O[C@H]5CC[C@@]6([C@H]7CC[C@@]89[C@@H]1C[C@@](CC[C@]1(CO8)[C@@H](C[C@]9([C@@]7(CC[C@H]6C5(C)C)C)C)O)(C)C(=O)O)C)CO)O)O)O)O)O

> <PUBCHEM_CACTVS_TPSA>
363

> <PUBCHEM_MONOISOTOPIC_WEIGHT>
1090.555989

> <PUBCHEM_TOTAL_CHARGE>
0

> <PUBCHEM_HEAVY_ATOM_COUNT>
76

> <PUBCHEM_ATOM_DEF_STEREO_COUNT>
30

> <PUBCHEM_ATOM_UDEF_STEREO_COUNT>
0

> <PUBCHEM_BOND_DEF_STEREO_COUNT>
0

> <PUBCHEM_BOND_UDEF_STEREO_COUNT>
0

> <PUBCHEM_ISOTOPIC_ATOM_COUNT>
0

> <PUBCHEM_COMPONENT_COUNT>
1

> <PUBCHEM_CACTVS_TAUTO_COUNT>
-1

> <PUBCHEM_COORDINATE_TYPE>
1
5
255

> <PUBCHEM_BONDANNOTATIONS>
60  11  6
62  13  5
65  14  6
71  14  6
64  15  6
66  16  5
69  18  6
33  2  6
72  21  5
73  22  5
75  23  6
24  41  6
25  32  5
26  42  5
27  77  5
28  78  6
29  39  5
48  3  5
54  3  6
30  47  5
35  86  6
45  52  6
63  68  5
67  70  5
55  7  5
59  7  5
74  76  5
56  8  6
58  9  6
61  9  5

$$$$
