44419578
  -OEChem-09092004352D

163171  0     1  0  0  0  0  0999 V2000
    6.8671    0.3115    0.0000 O   0  0  0  0  0  0  0  0  0  0  0  0
   14.9183    1.8707    0.0000 O   0  0  0  0  0  0  0  0  0  0  0  0
   15.7802    3.4324    0.0000 O   0  0  0  0  0  0  0  0  0  0  0  0
   15.5264    6.4568    0.0000 O   0  0  0  0  0  0  0  0  0  0  0  0
    7.7331   -1.1885    0.0000 O   0  0  0  0  0  0  0  0  0  0  0  0
    5.1350   -0.6885    0.0000 O   0  0  0  0  0  0  0  0  0  0  0  0
    5.1350   -2.6885    0.0000 O   0  0  0  0  0  0  0  0  0  0  0  0
    6.8671   -3.6885    0.0000 O   0  0  0  0  0  0  0  0  0  0  0  0
    6.0010    0.8115    0.0000 O   0  0  0  0  0  0  0  0  0  0  0  0
    5.1350   -3.6885    0.0000 O   0  0  0  0  0  0  0  0  0  0  0  0
    3.4030    0.3115    0.0000 O   0  0  0  0  0  0  0  0  0  0  0  0
    3.4030    2.3115    0.0000 O   0  0  0  0  0  0  0  0  0  0  0  0
    6.8671   -5.6885    0.0000 O   0  0  0  0  0  0  0  0  0  0  0  0
    5.1350    3.3115    0.0000 O   0  0  0  0  0  0  0  0  0  0  0  0
    5.1350   -6.6885    0.0000 O   0  0  0  0  0  0  0  0  0  0  0  0
    6.8671    3.3115    0.0000 O   0  0  0  0  0  0  0  0  0  0  0  0
    3.4030   -5.6885    0.0000 O   0  0  0  0  0  0  0  0  0  0  0  0
    7.7331   -4.1885    0.0000 O   0  0  0  0  0  0  0  0  0  0  0  0
    2.5369   -4.1885    0.0000 O   0  0  0  0  0  0  0  0  0  0  0  0
    8.5991   -6.6885    0.0000 O   0  0  0  0  0  0  0  0  0  0  0  0
   10.3312   -5.6885    0.0000 O   0  0  0  0  0  0  0  0  0  0  0  0
   10.3312   -3.6885    0.0000 O   0  0  0  0  0  0  0  0  0  0  0  0
   11.3881    1.8813    0.0000 C   0  0  2  0  0  0  0  0  0  0  0  0
   10.5202    2.3779    0.0000 C   0  0  1  0  0  0  0  0  0  0  0  0
    9.6121    1.8676    0.0000 C   0  0  2  0  0  0  0  0  0  0  0  0
   12.2522    2.3846    0.0000 C   0  0  1  0  0  0  0  0  0  0  0  0
    9.6081    0.8260    0.0000 C   0  0  1  0  0  0  0  0  0  0  0  0
   11.4082    0.8398    0.0000 C   0  0  0  0  0  0  0  0  0  0  0  0
   12.2483    3.3846    0.0000 C   0  0  0  0  0  0  0  0  0  0  0  0
   10.5122    0.3086    0.0000 C   0  0  0  0  0  0  0  0  0  0  0  0
   13.1402    3.9227    0.0000 C   0  0  1  0  0  0  0  0  0  0  0  0
    8.6748    0.2726    0.0000 C   0  0  0  0  0  0  0  0  0  0  0  0
   14.0483    3.4124    0.0000 C   0  0  1  0  0  0  0  0  0  0  0  0
   13.1482    1.8534    0.0000 C   0  0  0  0  0  0  0  0  0  0  0  0
   10.5163    3.3779    0.0000 C   0  0  0  0  0  0  0  0  0  0  0  0
    8.6831    2.4281    0.0000 C   0  0  0  0  0  0  0  0  0  0  0  0
   14.0523    2.3707    0.0000 C   0  0  1  0  0  0  0  0  0  0  0  0
   12.0338    1.1177    0.0000 C   0  0  0  0  0  0  0  0  0  0  0  0
    7.7331    0.8115    0.0000 C   0  0  2  0  0  0  0  0  0  0  0  0
   11.3804    3.8812    0.0000 C   0  0  0  0  0  0  0  0  0  0  0  0
    9.6160    2.8676    0.0000 C   0  0  0  0  0  0  0  0  0  0  0  0
    7.7373    1.8965    0.0000 C   0  0  0  0  0  0  0  0  0  0  0  0
   12.5978    1.4462    0.0000 C   0  0  0  0  0  0  0  0  0  0  0  0
   13.1109    5.0073    0.0000 C   0  0  0  0  0  0  0  0  0  0  0  0
   14.9900    3.9512    0.0000 C   0  0  0  0  0  0  0  0  0  0  0  0
   14.0399    5.5678    0.0000 C   0  0  2  0  0  0  0  0  0  0  0  0
   14.9858    5.0362    0.0000 C   0  0  0  0  0  0  0  0  0  0  0  0
   14.9200    2.9224    0.0000 C   0  0  0  0  0  0  0  0  0  0  0  0
    9.1815   -0.5895    0.0000 C   0  0  0  0  0  0  0  0  0  0  0  0
    8.1815   -0.5972    0.0000 C   0  0  0  0  0  0  0  0  0  0  0  0
   14.5265    6.4414    0.0000 C   0  0  0  0  0  0  0  0  0  0  0  0
   13.5267    6.4260    0.0000 C   0  0  0  0  0  0  0  0  0  0  0  0
    6.8671   -0.6885    0.0000 C   0  0  2  0  0  0  0  0  0  0  0  0
    6.0010   -1.1885    0.0000 C   0  0  1  0  0  0  0  0  0  0  0  0
    6.0010   -2.1885    0.0000 C   0  0  2  0  0  0  0  0  0  0  0  0
    7.7331   -2.1885    0.0000 C   0  0  0  0  0  0  0  0  0  0  0  0
    6.8671   -2.6885    0.0000 C   0  0  2  0  0  0  0  0  0  0  0  0
    5.1350    0.3115    0.0000 C   0  0  2  0  0  0  0  0  0  0  0  0
    4.2690    0.8115    0.0000 C   0  0  1  0  0  0  0  0  0  0  0  0
    6.0010   -4.1885    0.0000 C   0  0  2  0  0  0  0  0  0  0  0  0
    4.2690    1.8115    0.0000 C   0  0  2  0  0  0  0  0  0  0  0  0
    6.0010    1.8115    0.0000 C   0  0  1  0  0  0  0  0  0  0  0  0
    6.0010   -5.1885    0.0000 C   0  0  1  0  0  0  0  0  0  0  0  0
    5.1350    2.3115    0.0000 C   0  0  1  0  0  0  0  0  0  0  0  0
    5.1350   -5.6885    0.0000 C   0  0  2  0  0  0  0  0  0  0  0  0
    4.2690   -4.1885    0.0000 C   0  0  1  0  0  0  0  0  0  0  0  0
    6.8671    2.3115    0.0000 C   0  0  0  0  0  0  0  0  0  0  0  0
    4.2690   -5.1885    0.0000 C   0  0  1  0  0  0  0  0  0  0  0  0
    3.4030   -3.6885    0.0000 C   0  0  0  0  0  0  0  0  0  0  0  0
    7.7331   -5.1885    0.0000 C   0  0  2  0  0  0  0  0  0  0  0  0
    8.5991   -5.6885    0.0000 C   0  0  1  0  0  0  0  0  0  0  0  0
    9.4651   -5.1885    0.0000 C   0  0  1  0  0  0  0  0  0  0  0  0
    8.5991   -3.6885    0.0000 C   0  0  2  0  0  0  0  0  0  0  0  0
    9.4651   -4.1885    0.0000 C   0  0  2  0  0  0  0  0  0  0  0  0
    8.5991   -2.6885    0.0000 C   0  0  0  0  0  0  0  0  0  0  0  0
   11.2546    2.8058    0.0000 H   0  0  0  0  0  0  0  0  0  0  0  0
    9.6147   -0.0240    0.0000 H   0  0  0  0  0  0  0  0  0  0  0  0
   11.6284    0.2603    0.0000 H   0  0  0  0  0  0  0  0  0  0  0  0
   12.0169    0.9577    0.0000 H   0  0  0  0  0  0  0  0  0  0  0  0
   10.1167   -0.1689    0.0000 H   0  0  0  0  0  0  0  0  0  0  0  0
   10.9150   -0.1627    0.0000 H   0  0  0  0  0  0  0  0  0  0  0  0
   13.8680    4.3618    0.0000 H   0  0  0  0  0  0  0  0  0  0  0  0
   12.7454    1.3820    0.0000 H   0  0  0  0  0  0  0  0  0  0  0  0
   13.5437    1.3759    0.0000 H   0  0  0  0  0  0  0  0  0  0  0  0
   10.3020    3.9597    0.0000 H   0  0  0  0  0  0  0  0  0  0  0  0
    9.9061    3.2679    0.0000 H   0  0  0  0  0  0  0  0  0  0  0  0
    9.0895    2.8963    0.0000 H   0  0  0  0  0  0  0  0  0  0  0  0
    8.2913    2.9086    0.0000 H   0  0  0  0  0  0  0  0  0  0  0  0
   14.0511    1.7507    0.0000 H   0  0  0  0  0  0  0  0  0  0  0  0
   11.5604    0.7174    0.0000 H   0  0  0  0  0  0  0  0  0  0  0  0
   12.4342    0.6443    0.0000 H   0  0  0  0  0  0  0  0  0  0  0  0
   12.5072    1.5181    0.0000 H   0  0  0  0  0  0  0  0  0  0  0  0
    7.1968    1.1225    0.0000 H   0  0  0  0  0  0  0  0  0  0  0  0
   11.3780    4.5012    0.0000 H   0  0  0  0  0  0  0  0  0  0  0  0
   10.2360    2.8652    0.0000 H   0  0  0  0  0  0  0  0  0  0  0  0
    9.6184    3.4876    0.0000 H   0  0  0  0  0  0  0  0  0  0  0  0
    8.9960    2.8700    0.0000 H   0  0  0  0  0  0  0  0  0  0  0  0
    7.5305    2.4810    0.0000 H   0  0  0  0  0  0  0  0  0  0  0  0
    7.1260    1.7928    0.0000 H   0  0  0  0  0  0  0  0  0  0  0  0
   12.0160    1.2319    0.0000 H   0  0  0  0  0  0  0  0  0  0  0  0
   12.8121    0.8644    0.0000 H   0  0  0  0  0  0  0  0  0  0  0  0
   13.1796    1.6605    0.0000 H   0  0  0  0  0  0  0  0  0  0  0  0
   12.8862    5.5851    0.0000 H   0  0  0  0  0  0  0  0  0  0  0  0
   12.5032    4.8848    0.0000 H   0  0  0  0  0  0  0  0  0  0  0  0
   15.2013    3.3683    0.0000 H   0  0  0  0  0  0  0  0  0  0  0  0
   15.6004    4.0597    0.0000 H   0  0  0  0  0  0  0  0  0  0  0  0
   15.5971    4.9325    0.0000 H   0  0  0  0  0  0  0  0  0  0  0  0
   15.1926    5.6207    0.0000 H   0  0  0  0  0  0  0  0  0  0  0  0
   14.5270    2.4429    0.0000 H   0  0  0  0  0  0  0  0  0  0  0  0
   15.3240    2.4521    0.0000 H   0  0  0  0  0  0  0  0  0  0  0  0
    8.6469   -0.9036    0.0000 H   0  0  0  0  0  0  0  0  0  0  0  0
    9.4956   -1.1240    0.0000 H   0  0  0  0  0  0  0  0  0  0  0  0
    9.7160   -0.2754    0.0000 H   0  0  0  0  0  0  0  0  0  0  0  0
    7.6422   -0.2914    0.0000 H   0  0  0  0  0  0  0  0  0  0  0  0
    7.8756   -1.1365    0.0000 H   0  0  0  0  0  0  0  0  0  0  0  0
    8.7208   -0.9031    0.0000 H   0  0  0  0  0  0  0  0  0  0  0  0
   14.9183    1.2507    0.0000 H   0  0  0  0  0  0  0  0  0  0  0  0
   14.6248    7.0536    0.0000 H   0  0  0  0  0  0  0  0  0  0  0  0
   13.9407    6.6445    0.0000 H   0  0  0  0  0  0  0  0  0  0  0  0
   14.0587    6.7443    0.0000 H   0  0  0  0  0  0  0  0  0  0  0  0
   13.2084    6.9581    0.0000 H   0  0  0  0  0  0  0  0  0  0  0  0
   12.9946    6.1078    0.0000 H   0  0  0  0  0  0  0  0  0  0  0  0
    6.3301   -0.3785    0.0000 H   0  0  0  0  0  0  0  0  0  0  0  0
   16.3207    3.1286    0.0000 H   0  0  0  0  0  0  0  0  0  0  0  0
    6.0010   -0.5685    0.0000 H   0  0  0  0  0  0  0  0  0  0  0  0
   15.8281    6.9985    0.0000 H   0  0  0  0  0  0  0  0  0  0  0  0
    6.0010   -2.8085    0.0000 H   0  0  0  0  0  0  0  0  0  0  0  0
    7.9451   -2.7711    0.0000 H   0  0  0  0  0  0  0  0  0  0  0  0
    8.3437   -2.0808    0.0000 H   0  0  0  0  0  0  0  0  0  0  0  0
    7.4040   -2.9985    0.0000 H   0  0  0  0  0  0  0  0  0  0  0  0
    4.5981    0.0015    0.0000 H   0  0  0  0  0  0  0  0  0  0  0  0
    4.5981   -2.3785    0.0000 H   0  0  0  0  0  0  0  0  0  0  0  0
    3.7320    1.1215    0.0000 H   0  0  0  0  0  0  0  0  0  0  0  0
    6.0010   -3.5685    0.0000 H   0  0  0  0  0  0  0  0  0  0  0  0
    4.2690    2.4315    0.0000 H   0  0  0  0  0  0  0  0  0  0  0  0
    6.5380    1.5015    0.0000 H   0  0  0  0  0  0  0  0  0  0  0  0
    6.0010   -5.8085    0.0000 H   0  0  0  0  0  0  0  0  0  0  0  0
    4.5981    2.6215    0.0000 H   0  0  0  0  0  0  0  0  0  0  0  0
    3.4030   -0.3085    0.0000 H   0  0  0  0  0  0  0  0  0  0  0  0
    4.5981   -5.9985    0.0000 H   0  0  0  0  0  0  0  0  0  0  0  0
    4.2690   -3.5685    0.0000 H   0  0  0  0  0  0  0  0  0  0  0  0
    7.0791    1.7289    0.0000 H   0  0  0  0  0  0  0  0  0  0  0  0
    7.4776    2.4192    0.0000 H   0  0  0  0  0  0  0  0  0  0  0  0
    4.2690   -5.8085    0.0000 H   0  0  0  0  0  0  0  0  0  0  0  0
    3.4030    2.9315    0.0000 H   0  0  0  0  0  0  0  0  0  0  0  0
    5.6720    3.6215    0.0000 H   0  0  0  0  0  0  0  0  0  0  0  0
    3.8015   -3.2136    0.0000 H   0  0  0  0  0  0  0  0  0  0  0  0
    3.0044   -3.2136    0.0000 H   0  0  0  0  0  0  0  0  0  0  0  0
    7.1962   -4.8785    0.0000 H   0  0  0  0  0  0  0  0  0  0  0  0
    4.5981   -6.9985    0.0000 H   0  0  0  0  0  0  0  0  0  0  0  0
    7.4040    3.6215    0.0000 H   0  0  0  0  0  0  0  0  0  0  0  0
    3.4030   -6.3085    0.0000 H   0  0  0  0  0  0  0  0  0  0  0  0
    8.0622   -5.9985    0.0000 H   0  0  0  0  0  0  0  0  0  0  0  0
    2.0000   -3.8785    0.0000 H   0  0  0  0  0  0  0  0  0  0  0  0
   10.0021   -4.8785    0.0000 H   0  0  0  0  0  0  0  0  0  0  0  0
    8.0622   -3.3785    0.0000 H   0  0  0  0  0  0  0  0  0  0  0  0
    9.4651   -3.5685    0.0000 H   0  0  0  0  0  0  0  0  0  0  0  0
    9.1360   -6.9985    0.0000 H   0  0  0  0  0  0  0  0  0  0  0  0
    9.2191   -2.6885    0.0000 H   0  0  0  0  0  0  0  0  0  0  0  0
    8.5991   -2.0685    0.0000 H   0  0  0  0  0  0  0  0  0  0  0  0
    7.9791   -2.6885    0.0000 H   0  0  0  0  0  0  0  0  0  0  0  0
   10.8681   -5.3785    0.0000 H   0  0  0  0  0  0  0  0  0  0  0  0
   10.8681   -3.9985    0.0000 H   0  0  0  0  0  0  0  0  0  0  0  0
 39  1  1  1  0  0  0
 53  1  1  6  0  0  0
 37  2  1  6  0  0  0
  2117  1  0  0  0  0
  3 48  1  0  0  0  0
  3124  1  0  0  0  0
  4 51  1  0  0  0  0
  4126  1  0  0  0  0
  5 53  1  0  0  0  0
  5 56  1  0  0  0  0
 54  6  1  1  0  0  0
 58  6  1  1  0  0  0
 55  7  1  6  0  0  0
  7132  1  0  0  0  0
 57  8  1  6  0  0  0
 60  8  1  1  0  0  0
  9 58  1  0  0  0  0
  9 62  1  0  0  0  0
 10 60  1  0  0  0  0
 10 66  1  0  0  0  0
 59 11  1  6  0  0  0
 11139  1  0  0  0  0
 61 12  1  1  0  0  0
 12145  1  0  0  0  0
 63 13  1  6  0  0  0
 70 13  1  6  0  0  0
 64 14  1  6  0  0  0
 14146  1  0  0  0  0
 65 15  1  1  0  0  0
 15150  1  0  0  0  0
 16 67  1  0  0  0  0
 16151  1  0  0  0  0
 68 17  1  6  0  0  0
 17152  1  0  0  0  0
 18 70  1  0  0  0  0
 18 73  1  0  0  0  0
 19 69  1  0  0  0  0
 19154  1  0  0  0  0
 71 20  1  1  0  0  0
 20158  1  0  0  0  0
 72 21  1  1  0  0  0
 21162  1  0  0  0  0
 74 22  1  6  0  0  0
 22163  1  0  0  0  0
 23 24  1  0  0  0  0
 23 26  1  0  0  0  0
 23 28  1  0  0  0  0
 23 38  1  1  0  0  0
 24 25  1  0  0  0  0
 24 35  1  0  0  0  0
 24 76  1  6  0  0  0
 25 27  1  0  0  0  0
 25 36  1  0  0  0  0
 25 41  1  1  0  0  0
 26 29  1  0  0  0  0
 26 34  1  0  0  0  0
 26 43  1  6  0  0  0
 27 30  1  0  0  0  0
 27 32  1  0  0  0  0
 27 77  1  6  0  0  0
 28 30  1  0  0  0  0
 28 78  1  0  0  0  0
 28 79  1  0  0  0  0
 29 31  1  0  0  0  0
 29 40  2  0  0  0  0
 30 80  1  0  0  0  0
 30 81  1  0  0  0  0
 31 33  1  0  0  0  0
 31 44  1  0  0  0  0
 31 82  1  1  0  0  0
 32 39  1  0  0  0  0
 32 49  1  0  0  0  0
 32 50  1  0  0  0  0
 33 37  1  0  0  0  0
 33 45  1  0  0  0  0
 33 48  1  1  0  0  0
 34 37  1  0  0  0  0
 34 83  1  0  0  0  0
 34 84  1  0  0  0  0
 35 40  1  0  0  0  0
 35 85  1  0  0  0  0
 35 86  1  0  0  0  0
 36 42  1  0  0  0  0
 36 87  1  0  0  0  0
 36 88  1  0  0  0  0
 37 89  1  0  0  0  0
 38 90  1  0  0  0  0
 38 91  1  0  0  0  0
 38 92  1  0  0  0  0
 39 42  1  0  0  0  0
 39 93  1  0  0  0  0
 40 94  1  0  0  0  0
 41 95  1  0  0  0  0
 41 96  1  0  0  0  0
 41 97  1  0  0  0  0
 42 98  1  0  0  0  0
 42 99  1  0  0  0  0
 43100  1  0  0  0  0
 43101  1  0  0  0  0
 43102  1  0  0  0  0
 44 46  1  0  0  0  0
 44103  1  0  0  0  0
 44104  1  0  0  0  0
 45 47  1  0  0  0  0
 45105  1  0  0  0  0
 45106  1  0  0  0  0
 46 47  1  0  0  0  0
 46 51  1  0  0  0  0
 46 52  1  6  0  0  0
 47107  1  0  0  0  0
 47108  1  0  0  0  0
 48109  1  0  0  0  0
 48110  1  0  0  0  0
 49111  1  0  0  0  0
 49112  1  0  0  0  0
 49113  1  0  0  0  0
 50114  1  0  0  0  0
 50115  1  0  0  0  0
 50116  1  0  0  0  0
 51118  1  0  0  0  0
 51119  1  0  0  0  0
 52120  1  0  0  0  0
 52121  1  0  0  0  0
 52122  1  0  0  0  0
 53 54  1  0  0  0  0
 53123  1  0  0  0  0
 54 55  1  0  0  0  0
 54125  1  0  0  0  0
 55 57  1  0  0  0  0
 55127  1  0  0  0  0
 56 57  1  0  0  0  0
 56128  1  0  0  0  0
 56129  1  0  0  0  0
 57130  1  0  0  0  0
 58 59  1  0  0  0  0
 58131  1  0  0  0  0
 59 61  1  0  0  0  0
 59133  1  0  0  0  0
 60 63  1  0  0  0  0
 60134  1  0  0  0  0
 61 64  1  0  0  0  0
 61135  1  0  0  0  0
 62 64  1  0  0  0  0
 62 67  1  1  0  0  0
 62136  1  0  0  0  0
 63 65  1  0  0  0  0
 63137  1  0  0  0  0
 64138  1  0  0  0  0
 65 68  1  0  0  0  0
 65140  1  0  0  0  0
 66 68  1  0  0  0  0
 66 69  1  1  0  0  0
 66141  1  0  0  0  0
 67142  1  0  0  0  0
 67143  1  0  0  0  0
 68144  1  0  0  0  0
 69147  1  0  0  0  0
 69148  1  0  0  0  0
 70 71  1  0  0  0  0
 70149  1  0  0  0  0
 71 72  1  0  0  0  0
 71153  1  0  0  0  0
 72 74  1  0  0  0  0
 72155  1  0  0  0  0
 73 74  1  0  0  0  0
 73 75  1  1  0  0  0
 73156  1  0  0  0  0
 74157  1  0  0  0  0
 75159  1  0  0  0  0
 75160  1  0  0  0  0
 75161  1  0  0  0  0
M  END
> <PUBCHEM_COMPOUND_CID>
44419578

> <PUBCHEM_COMPOUND_CANONICALIZED>
1

> <PUBCHEM_CACTVS_COMPLEXITY>
2020

> <PUBCHEM_CACTVS_HBOND_ACCEPTOR>
22

> <PUBCHEM_CACTVS_HBOND_DONOR>
14

> <PUBCHEM_CACTVS_ROTATABLE_BOND>
12

> <PUBCHEM_CACTVS_SUBSKEYS>
AAADcfB8PgAAAAAAAAAAAAAAAAAAAAAAAAA0aNGiAAAAAADAAAAAGgAACAAADxSwgAMCCAAABgCAAiBCAAAAAAAgAAAACAAAAAgREAIAAQAiQAAFgAAPAAPA4PwPgAAAAAAAAADAAAYAADAAAAAAAAAAAA==

> <PUBCHEM_IUPAC_OPENEYE_NAME>
(2S,3R,4R,5R,6S)-2-[(2S,3R,4S,5S,6R)-2-[(3S,4S,5R,6S)-6-[[(3S,4aR,6aR,6bS,8R,8aS,11S,12aS,14aR,14bR)-8-hydroxy-8a,11-bis(hydroxymethyl)-4,4,6a,6b,11,14b-hexamethyl-1,2,3,4a,5,6,7,8,9,10,12,12a,14,14a-tetradecahydropicen-3-yl]oxy]-4-hydroxy-5-[(2S,3R,4S,5S,6R)-3,4,5-trihydroxy-6-(hydroxymethyl)tetrahydropyran-2-yl]oxy-tetrahydropyran-3-yl]oxy-4,5-dihydroxy-6-(hydroxymethyl)tetrahydropyran-3-yl]oxy-6-methyl-tetrahydropyran-3,4,5-triol

> <PUBCHEM_IUPAC_CAS_NAME>
(2S,3R,4R,5R,6S)-2-[[(2S,3R,4S,5S,6R)-2-[[(3S,4S,5R,6S)-6-[[(3S,4aR,6aR,6bS,8R,8aS,11S,12aS,14aR,14bR)-8-hydroxy-8a,11-bis(hydroxymethyl)-4,4,6a,6b,11,14b-hexamethyl-1,2,3,4a,5,6,7,8,9,10,12,12a,14,14a-tetradecahydropicen-3-yl]oxy]-4-hydroxy-5-[[(2S,3R,4S,5S,6R)-3,4,5-trihydroxy-6-(hydroxymethyl)-2-oxanyl]oxy]-3-oxanyl]oxy]-4,5-dihydroxy-6-(hydroxymethyl)-3-oxanyl]oxy]-6-methyloxane-3,4,5-triol

> <PUBCHEM_IUPAC_NAME_MARKUP>
(2<I>S</I>,3<I>R</I>,4<I>R</I>,5<I>R</I>,6<I>S</I>)-2-[(2<I>S</I>,3<I>R</I>,4<I>S</I>,5<I>S</I>,6<I>R</I>)-2-[(3<I>S</I>,4<I>S</I>,5<I>R</I>,6<I>S</I>)-6-[[(3<I>S</I>,4<I>a</I><I>R</I>,6<I>a</I><I>R</I>,6<I>b</I><I>S</I>,8<I>R</I>,8<I>a</I><I>S</I>,11<I>S</I>,12<I>a</I><I>S</I>,14<I>a</I><I>R</I>,14<I>b</I><I>R</I>)-8-hydroxy-8<I>a</I>,11-bis(hydroxymethyl)-4,4,6<I>a</I>,6<I>b</I>,11,14<I>b</I>-hexamethyl-1,2,3,4<I>a</I>,5,6,7,8,9,10,12,12<I>a</I>,14,14<I>a</I>-tetradecahydropicen-3-yl]oxy]-4-hydroxy-5-[(2<I>S</I>,3<I>R</I>,4<I>S</I>,5<I>S</I>,6<I>R</I>)-3,4,5-trihydroxy-6-(hydroxymethyl)oxan-2-yl]oxyoxan-3-yl]oxy-4,5-dihydroxy-6-(hydroxymethyl)oxan-3-yl]oxy-6-methyloxane-3,4,5-triol

> <PUBCHEM_IUPAC_NAME>
(2S,3R,4R,5R,6S)-2-[(2S,3R,4S,5S,6R)-2-[(3S,4S,5R,6S)-6-[[(3S,4aR,6aR,6bS,8R,8aS,11S,12aS,14aR,14bR)-8-hydroxy-8a,11-bis(hydroxymethyl)-4,4,6a,6b,11,14b-hexamethyl-1,2,3,4a,5,6,7,8,9,10,12,12a,14,14a-tetradecahydropicen-3-yl]oxy]-4-hydroxy-5-[(2S,3R,4S,5S,6R)-3,4,5-trihydroxy-6-(hydroxymethyl)oxan-2-yl]oxyoxan-3-yl]oxy-4,5-dihydroxy-6-(hydroxymethyl)oxan-3-yl]oxy-6-methyloxane-3,4,5-triol

> <PUBCHEM_IUPAC_SYSTEMATIC_NAME>
(2S,3R,4R,5R,6S)-2-[(2S,3R,4S,5S,6R)-2-[(3S,4S,5R,6S)-6-[[(3S,4aR,6aR,6bS,8R,8aS,11S,12aS,14aR,14bR)-8a,11-bis(hydroxymethyl)-4,4,6a,6b,11,14b-hexamethyl-8-oxidanyl-1,2,3,4a,5,6,7,8,9,10,12,12a,14,14a-tetradecahydropicen-3-yl]oxy]-5-[(2S,3R,4S,5S,6R)-6-(hydroxymethyl)-3,4,5-tris(oxidanyl)oxan-2-yl]oxy-4-oxidanyl-oxan-3-yl]oxy-6-(hydroxymethyl)-4,5-bis(oxidanyl)oxan-3-yl]oxy-6-methyl-oxane-3,4,5-triol

> <PUBCHEM_IUPAC_TRADITIONAL_NAME>
(2S,3R,4R,5R,6S)-2-[(2S,3R,4S,5S,6R)-2-[(3S,4S,5R,6S)-6-[[(3S,4aR,6aR,6bS,8R,8aS,11S,12aS,14aR,14bR)-8-hydroxy-4,4,6a,6b,11,14b-hexamethyl-8a,11-dimethylol-1,2,3,4a,5,6,7,8,9,10,12,12a,14,14a-tetradecahydropicen-3-yl]oxy]-4-hydroxy-5-[(2S,3R,4S,5S,6R)-3,4,5-trihydroxy-6-methylol-tetrahydropyran-2-yl]oxy-tetrahydropyran-3-yl]oxy-4,5-dihydroxy-6-methylol-tetrahydropyran-3-yl]oxy-6-methyl-tetrahydropyran-3,4,5-triol

> <PUBCHEM_IUPAC_INCHI>
InChI=1S/C53H88O22/c1-23-33(59)37(63)40(66)44(69-23)75-43-39(65)35(61)27(19-55)71-47(43)72-28-20-68-46(42(36(28)62)74-45-41(67)38(64)34(60)26(18-54)70-45)73-32-11-12-50(5)29(48(32,2)3)10-13-51(6)30(50)9-8-24-25-16-49(4,21-56)14-15-53(25,22-57)31(58)17-52(24,51)7/h8,23,25-47,54-67H,9-22H2,1-7H3/t23-,25-,26+,27+,28-,29-,30+,31+,32-,33-,34+,35+,36-,37+,38-,39-,40+,41+,42+,43+,44-,45-,46-,47-,49-,50-,51+,52+,53+/m0/s1

> <PUBCHEM_IUPAC_INCHIKEY>
FUEJSDQPLRTIHO-BVWKTBKYSA-N

> <PUBCHEM_XLOGP3_AA>
-0.4

> <PUBCHEM_EXACT_MASS>
1076.576724

> <PUBCHEM_MOLECULAR_FORMULA>
C53H88O22

> <PUBCHEM_MOLECULAR_WEIGHT>
1077.3

> <PUBCHEM_OPENEYE_CAN_SMILES>
CC1C(C(C(C(O1)OC2C(C(C(OC2OC3COC(C(C3O)OC4C(C(C(C(O4)CO)O)O)O)OC5CCC6(C(C5(C)C)CCC7(C6CC=C8C7(CC(C9(C8CC(CC9)(C)CO)CO)O)C)C)C)CO)O)O)O)O)O

> <PUBCHEM_OPENEYE_ISO_SMILES>
C[C@H]1[C@@H]([C@H]([C@H]([C@@H](O1)O[C@@H]2[C@H]([C@@H]([C@H](O[C@H]2O[C@H]3CO[C@H]([C@@H]([C@H]3O)O[C@H]4[C@@H]([C@H]([C@@H]([C@H](O4)CO)O)O)O)O[C@H]5CC[C@]6([C@H](C5(C)C)CC[C@@]7([C@@H]6CC=C8[C@]7(C[C@H]([C@@]9([C@H]8C[C@@](CC9)(C)CO)CO)O)C)C)C)CO)O)O)O)O)O

> <PUBCHEM_CACTVS_TPSA>
357

> <PUBCHEM_MONOISOTOPIC_WEIGHT>
1076.576724

> <PUBCHEM_TOTAL_CHARGE>
0

> <PUBCHEM_HEAVY_ATOM_COUNT>
75

> <PUBCHEM_ATOM_DEF_STEREO_COUNT>
29

> <PUBCHEM_ATOM_UDEF_STEREO_COUNT>
0

> <PUBCHEM_BOND_DEF_STEREO_COUNT>
0

> <PUBCHEM_BOND_UDEF_STEREO_COUNT>
0

> <PUBCHEM_ISOTOPIC_ATOM_COUNT>
0

> <PUBCHEM_COMPONENT_COUNT>
1

> <PUBCHEM_CACTVS_TAUTO_COUNT>
-1

> <PUBCHEM_COORDINATE_TYPE>
1
5
255

> <PUBCHEM_BONDANNOTATIONS>
39  1  5
53  1  6
59  11  6
61  12  5
63  13  6
70  13  6
64  14  6
65  15  5
68  17  6
37  2  6
71  20  5
72  21  5
74  22  6
23  38  5
24  76  6
25  41  5
26  43  6
27  77  6
31  82  5
33  48  5
46  52  6
54  6  5
58  6  5
62  67  5
66  69  5
55  7  6
73  75  5
57  8  6
60  8  5

$$$$
