11125847
  -OEChem-09092004342D

138146  0     1  0  0  0  0  0999 V2000
   12.2620    4.3850    0.0000 O   0  0  0  0  0  0  0  0  0  0  0  0
   12.3661    6.7818    0.0000 O   0  0  0  0  0  0  0  0  0  0  0  0
    6.8671    0.5282    0.0000 O   0  0  0  0  0  0  0  0  0  0  0  0
   16.5418    5.1373    0.0000 O   0  0  0  0  0  0  0  0  0  0  0  0
    7.7331   -0.9718    0.0000 O   0  0  0  0  0  0  0  0  0  0  0  0
    5.1350   -0.4718    0.0000 O   0  0  0  0  0  0  0  0  0  0  0  0
    5.1350   -2.4718    0.0000 O   0  0  0  0  0  0  0  0  0  0  0  0
    6.8671   -3.4718    0.0000 O   0  0  0  0  0  0  0  0  0  0  0  0
    5.1350   -3.4718    0.0000 O   0  0  0  0  0  0  0  0  0  0  0  0
    6.8671   -5.4718    0.0000 O   0  0  0  0  0  0  0  0  0  0  0  0
    5.1350   -6.4718    0.0000 O   0  0  0  0  0  0  0  0  0  0  0  0
    3.4030   -5.4718    0.0000 O   0  0  0  0  0  0  0  0  0  0  0  0
    7.7331   -3.9718    0.0000 O   0  0  0  0  0  0  0  0  0  0  0  0
    2.5369   -3.9718    0.0000 O   0  0  0  0  0  0  0  0  0  0  0  0
    8.5991   -6.4718    0.0000 O   0  0  0  0  0  0  0  0  0  0  0  0
   10.3312   -5.4718    0.0000 O   0  0  0  0  0  0  0  0  0  0  0  0
   10.3312   -3.4718    0.0000 O   0  0  0  0  0  0  0  0  0  0  0  0
   11.5097    4.2785    0.0000 C   0  0  2  0  0  0  0  0  0  0  0  0
   12.3777    3.7818    0.0000 C   0  0  2  0  0  0  0  0  0  0  0  0
   10.6017    3.7682    0.0000 C   0  0  1  0  0  0  0  0  0  0  0  0
   10.5977    2.7265    0.0000 C   0  0  1  0  0  0  0  0  0  0  0  0
   13.2418    4.2852    0.0000 C   0  0  1  0  0  0  0  0  0  0  0  0
    9.6644    2.1732    0.0000 C   0  0  2  0  0  0  0  0  0  0  0  0
   13.2379    5.2852    0.0000 C   0  0  1  0  0  0  0  0  0  0  0  0
   12.3978    2.7404    0.0000 C   0  0  0  0  0  0  0  0  0  0  0  0
    8.7227    2.7121    0.0000 C   0  0  1  0  0  0  0  0  0  0  0  0
   11.5018    2.2092    0.0000 C   0  0  0  0  0  0  0  0  0  0  0  0
    9.6727    4.3286    0.0000 C   0  0  0  0  0  0  0  0  0  0  0  0
   11.5059    5.2785    0.0000 C   0  0  0  0  0  0  0  0  0  0  0  0
    8.7268    3.7970    0.0000 C   0  0  0  0  0  0  0  0  0  0  0  0
   12.6593    5.0793    0.0000 C   0  0  0  0  0  0  0  0  0  0  0  0
   14.1378    3.7540    0.0000 C   0  0  0  0  0  0  0  0  0  0  0  0
   12.3700    5.7818    0.0000 C   0  0  0  0  0  0  0  0  0  0  0  0
    7.7374    2.1583    0.0000 C   0  0  0  0  0  0  0  0  0  0  0  0
   10.8640    5.0421    0.0000 C   0  0  0  0  0  0  0  0  0  0  0  0
   10.2633    4.7092    0.0000 C   0  0  0  0  0  0  0  0  0  0  0  0
    9.6862    1.0432    0.0000 C   0  0  0  0  0  0  0  0  0  0  0  0
   14.1298    5.8233    0.0000 C   0  0  0  0  0  0  0  0  0  0  0  0
   15.0418    4.2713    0.0000 C   0  0  1  0  0  0  0  0  0  0  0  0
   10.5323    1.6765    0.0000 C   0  0  0  0  0  0  0  0  0  0  0  0
   15.0378    5.3129    0.0000 C   0  0  0  0  0  0  0  0  0  0  0  0
    7.7331    1.0282    0.0000 C   0  0  2  0  0  0  0  0  0  0  0  0
    8.7140    0.4669    0.0000 C   0  0  0  0  0  0  0  0  0  0  0  0
    7.2441    3.0282    0.0000 C   0  0  0  0  0  0  0  0  0  0  0  0
    6.7375    2.1660    0.0000 C   0  0  0  0  0  0  0  0  0  0  0  0
   15.5418    3.4053    0.0000 C   0  0  0  0  0  0  0  0  0  0  0  0
   16.0418    4.2713    0.0000 C   0  0  0  0  0  0  0  0  0  0  0  0
    6.8671   -0.4718    0.0000 C   0  0  2  0  0  0  0  0  0  0  0  0
    6.0010   -0.9718    0.0000 C   0  0  1  0  0  0  0  0  0  0  0  0
    6.0010   -1.9718    0.0000 C   0  0  2  0  0  0  0  0  0  0  0  0
    7.7331   -1.9718    0.0000 C   0  0  0  0  0  0  0  0  0  0  0  0
    6.8671   -2.4718    0.0000 C   0  0  2  0  0  0  0  0  0  0  0  0
    6.0010   -3.9718    0.0000 C   0  0  2  0  0  0  0  0  0  0  0  0
    6.0010   -4.9718    0.0000 C   0  0  1  0  0  0  0  0  0  0  0  0
    5.1350   -5.4718    0.0000 C   0  0  2  0  0  0  0  0  0  0  0  0
    4.2690   -3.9718    0.0000 C   0  0  1  0  0  0  0  0  0  0  0  0
    4.2690   -4.9718    0.0000 C   0  0  1  0  0  0  0  0  0  0  0  0
    3.4030   -3.4718    0.0000 C   0  0  0  0  0  0  0  0  0  0  0  0
    7.7331   -4.9718    0.0000 C   0  0  2  0  0  0  0  0  0  0  0  0
    8.5991   -5.4718    0.0000 C   0  0  1  0  0  0  0  0  0  0  0  0
    9.4651   -4.9718    0.0000 C   0  0  1  0  0  0  0  0  0  0  0  0
    8.5991   -3.4718    0.0000 C   0  0  2  0  0  0  0  0  0  0  0  0
    9.4651   -3.9718    0.0000 C   0  0  2  0  0  0  0  0  0  0  0  0
    8.5991   -2.4718    0.0000 C   0  0  0  0  0  0  0  0  0  0  0  0
   10.6042    1.8766    0.0000 H   0  0  0  0  0  0  0  0  0  0  0  0
   13.2450    3.4352    0.0000 H   0  0  0  0  0  0  0  0  0  0  0  0
   12.6180    2.1608    0.0000 H   0  0  0  0  0  0  0  0  0  0  0  0
   13.0065    2.8582    0.0000 H   0  0  0  0  0  0  0  0  0  0  0  0
    7.9898    3.1427    0.0000 H   0  0  0  0  0  0  0  0  0  0  0  0
   11.1063    1.7317    0.0000 H   0  0  0  0  0  0  0  0  0  0  0  0
   11.9045    1.7378    0.0000 H   0  0  0  0  0  0  0  0  0  0  0  0
   10.0791    4.7969    0.0000 H   0  0  0  0  0  0  0  0  0  0  0  0
    9.2809    4.8092    0.0000 H   0  0  0  0  0  0  0  0  0  0  0  0
   11.2916    5.8603    0.0000 H   0  0  0  0  0  0  0  0  0  0  0  0
   10.8957    5.1685    0.0000 H   0  0  0  0  0  0  0  0  0  0  0  0
    8.5200    4.3816    0.0000 H   0  0  0  0  0  0  0  0  0  0  0  0
    8.1156    3.6933    0.0000 H   0  0  0  0  0  0  0  0  0  0  0  0
   12.6255    5.6984    0.0000 H   0  0  0  0  0  0  0  0  0  0  0  0
   12.0560    5.2222    0.0000 H   0  0  0  0  0  0  0  0  0  0  0  0
   13.7350    3.2826    0.0000 H   0  0  0  0  0  0  0  0  0  0  0  0
   14.5332    3.2765    0.0000 H   0  0  0  0  0  0  0  0  0  0  0  0
   11.3374    5.4424    0.0000 H   0  0  0  0  0  0  0  0  0  0  0  0
   10.4636    5.5155    0.0000 H   0  0  0  0  0  0  0  0  0  0  0  0
   10.3906    4.6417    0.0000 H   0  0  0  0  0  0  0  0  0  0  0  0
   10.8467    4.9190    0.0000 H   0  0  0  0  0  0  0  0  0  0  0  0
   10.0535    5.2926    0.0000 H   0  0  0  0  0  0  0  0  0  0  0  0
    9.6799    4.4993    0.0000 H   0  0  0  0  0  0  0  0  0  0  0  0
    9.9064    0.4637    0.0000 H   0  0  0  0  0  0  0  0  0  0  0  0
   10.2949    1.1611    0.0000 H   0  0  0  0  0  0  0  0  0  0  0  0
   14.5216    6.3038    0.0000 H   0  0  0  0  0  0  0  0  0  0  0  0
   13.7234    6.2915    0.0000 H   0  0  0  0  0  0  0  0  0  0  0  0
   10.2244    1.1384    0.0000 H   0  0  0  0  0  0  0  0  0  0  0  0
   11.0705    1.3686    0.0000 H   0  0  0  0  0  0  0  0  0  0  0  0
   10.8403    2.2147    0.0000 H   0  0  0  0  0  0  0  0  0  0  0  0
   15.6491    5.2092    0.0000 H   0  0  0  0  0  0  0  0  0  0  0  0
   15.2446    5.8974    0.0000 H   0  0  0  0  0  0  0  0  0  0  0  0
    7.1968    1.3392    0.0000 H   0  0  0  0  0  0  0  0  0  0  0  0
    8.3185   -0.0106    0.0000 H   0  0  0  0  0  0  0  0  0  0  0  0
    9.1168   -0.0045    0.0000 H   0  0  0  0  0  0  0  0  0  0  0  0
    7.7834    3.3340    0.0000 H   0  0  0  0  0  0  0  0  0  0  0  0
    6.9383    3.5675    0.0000 H   0  0  0  0  0  0  0  0  0  0  0  0
    6.7048    2.7223    0.0000 H   0  0  0  0  0  0  0  0  0  0  0  0
    6.7422    2.7860    0.0000 H   0  0  0  0  0  0  0  0  0  0  0  0
    6.1175    2.1708    0.0000 H   0  0  0  0  0  0  0  0  0  0  0  0
    6.7327    1.5461    0.0000 H   0  0  0  0  0  0  0  0  0  0  0  0
   15.0049    3.0953    0.0000 H   0  0  0  0  0  0  0  0  0  0  0  0
   15.8518    2.8683    0.0000 H   0  0  0  0  0  0  0  0  0  0  0  0
   16.0788    3.7153    0.0000 H   0  0  0  0  0  0  0  0  0  0  0  0
   16.3518    3.7344    0.0000 H   0  0  0  0  0  0  0  0  0  0  0  0
    6.3301   -0.1618    0.0000 H   0  0  0  0  0  0  0  0  0  0  0  0
    6.0010   -0.3518    0.0000 H   0  0  0  0  0  0  0  0  0  0  0  0
    6.0010   -2.5918    0.0000 H   0  0  0  0  0  0  0  0  0  0  0  0
    7.9451   -2.5544    0.0000 H   0  0  0  0  0  0  0  0  0  0  0  0
    8.3437   -1.8642    0.0000 H   0  0  0  0  0  0  0  0  0  0  0  0
    7.4040   -2.7818    0.0000 H   0  0  0  0  0  0  0  0  0  0  0  0
    5.1350    0.1482    0.0000 H   0  0  0  0  0  0  0  0  0  0  0  0
    4.5981   -2.1618    0.0000 H   0  0  0  0  0  0  0  0  0  0  0  0
    6.0010   -3.3518    0.0000 H   0  0  0  0  0  0  0  0  0  0  0  0
    6.0010   -5.5918    0.0000 H   0  0  0  0  0  0  0  0  0  0  0  0
    4.5981   -5.7818    0.0000 H   0  0  0  0  0  0  0  0  0  0  0  0
    4.2690   -3.3518    0.0000 H   0  0  0  0  0  0  0  0  0  0  0  0
    4.2690   -5.5918    0.0000 H   0  0  0  0  0  0  0  0  0  0  0  0
    3.8015   -2.9969    0.0000 H   0  0  0  0  0  0  0  0  0  0  0  0
    3.0044   -2.9969    0.0000 H   0  0  0  0  0  0  0  0  0  0  0  0
    7.1962   -4.6618    0.0000 H   0  0  0  0  0  0  0  0  0  0  0  0
    4.5981   -6.7818    0.0000 H   0  0  0  0  0  0  0  0  0  0  0  0
    3.4030   -6.0918    0.0000 H   0  0  0  0  0  0  0  0  0  0  0  0
    8.0622   -5.7818    0.0000 H   0  0  0  0  0  0  0  0  0  0  0  0
    9.4651   -5.5918    0.0000 H   0  0  0  0  0  0  0  0  0  0  0  0
    2.0000   -3.6618    0.0000 H   0  0  0  0  0  0  0  0  0  0  0  0
    8.0622   -3.1618    0.0000 H   0  0  0  0  0  0  0  0  0  0  0  0
   10.0021   -4.2818    0.0000 H   0  0  0  0  0  0  0  0  0  0  0  0
    9.1360   -6.7818    0.0000 H   0  0  0  0  0  0  0  0  0  0  0  0
    9.2191   -2.4718    0.0000 H   0  0  0  0  0  0  0  0  0  0  0  0
    8.5991   -1.8518    0.0000 H   0  0  0  0  0  0  0  0  0  0  0  0
    7.9791   -2.4718    0.0000 H   0  0  0  0  0  0  0  0  0  0  0  0
   10.8681   -5.1618    0.0000 H   0  0  0  0  0  0  0  0  0  0  0  0
   10.8681   -3.7818    0.0000 H   0  0  0  0  0  0  0  0  0  0  0  0
  1 19  1  0  0  0  0
  1 31  1  0  0  0  0
  2 33  2  0  0  0  0
 42  3  1  6  0  0  0
 48  3  1  6  0  0  0
  4 47  2  0  0  0  0
  5 48  1  0  0  0  0
  5 51  1  0  0  0  0
 49  6  1  1  0  0  0
  6116  1  0  0  0  0
 50  7  1  6  0  0  0
  7117  1  0  0  0  0
 52  8  1  6  0  0  0
 53  8  1  1  0  0  0
  9 53  1  0  0  0  0
  9 56  1  0  0  0  0
 54 10  1  6  0  0  0
 59 10  1  6  0  0  0
 55 11  1  1  0  0  0
 11126  1  0  0  0  0
 57 12  1  6  0  0  0
 12127  1  0  0  0  0
 13 59  1  0  0  0  0
 13 62  1  0  0  0  0
 14 58  1  0  0  0  0
 14130  1  0  0  0  0
 60 15  1  1  0  0  0
 15133  1  0  0  0  0
 61 16  1  1  0  0  0
 16137  1  0  0  0  0
 63 17  1  6  0  0  0
 17138  1  0  0  0  0
 18 19  1  0  0  0  0
 18 20  1  0  0  0  0
 18 29  1  0  0  0  0
 18 35  1  1  0  0  0
 19 22  1  0  0  0  0
 19 25  1  6  0  0  0
 20 21  1  0  0  0  0
 20 28  1  0  0  0  0
 20 36  1  6  0  0  0
 21 23  1  0  0  0  0
 21 27  1  0  0  0  0
 21 65  1  1  0  0  0
 22 24  1  0  0  0  0
 22 32  1  0  0  0  0
 22 66  1  6  0  0  0
 23 26  1  0  0  0  0
 23 37  1  0  0  0  0
 23 40  1  6  0  0  0
 24 31  1  0  0  0  0
 24 33  1  0  0  0  0
 24 38  1  6  0  0  0
 25 27  1  0  0  0  0
 25 67  1  0  0  0  0
 25 68  1  0  0  0  0
 26 30  1  0  0  0  0
 26 34  1  0  0  0  0
 26 69  1  1  0  0  0
 27 70  1  0  0  0  0
 27 71  1  0  0  0  0
 28 30  1  0  0  0  0
 28 72  1  0  0  0  0
 28 73  1  0  0  0  0
 29 33  1  0  0  0  0
 29 74  1  0  0  0  0
 29 75  1  0  0  0  0
 30 76  1  0  0  0  0
 30 77  1  0  0  0  0
 31 78  1  0  0  0  0
 31 79  1  0  0  0  0
 32 39  1  0  0  0  0
 32 80  1  0  0  0  0
 32 81  1  0  0  0  0
 34 42  1  0  0  0  0
 34 44  1  0  0  0  0
 34 45  1  0  0  0  0
 35 82  1  0  0  0  0
 35 83  1  0  0  0  0
 35 84  1  0  0  0  0
 36 85  1  0  0  0  0
 36 86  1  0  0  0  0
 36 87  1  0  0  0  0
 37 43  1  0  0  0  0
 37 88  1  0  0  0  0
 37 89  1  0  0  0  0
 38 41  1  0  0  0  0
 38 90  1  0  0  0  0
 38 91  1  0  0  0  0
 39 41  1  0  0  0  0
 39 46  1  1  0  0  0
 39 47  1  0  0  0  0
 40 92  1  0  0  0  0
 40 93  1  0  0  0  0
 40 94  1  0  0  0  0
 41 95  1  0  0  0  0
 41 96  1  0  0  0  0
 42 43  1  0  0  0  0
 42 97  1  0  0  0  0
 43 98  1  0  0  0  0
 43 99  1  0  0  0  0
 44100  1  0  0  0  0
 44101  1  0  0  0  0
 44102  1  0  0  0  0
 45103  1  0  0  0  0
 45104  1  0  0  0  0
 45105  1  0  0  0  0
 46106  1  0  0  0  0
 46107  1  0  0  0  0
 46108  1  0  0  0  0
 47109  1  0  0  0  0
 48 49  1  0  0  0  0
 48110  1  0  0  0  0
 49 50  1  0  0  0  0
 49111  1  0  0  0  0
 50 52  1  0  0  0  0
 50112  1  0  0  0  0
 51 52  1  0  0  0  0
 51113  1  0  0  0  0
 51114  1  0  0  0  0
 52115  1  0  0  0  0
 53 54  1  0  0  0  0
 53118  1  0  0  0  0
 54 55  1  0  0  0  0
 54119  1  0  0  0  0
 55 57  1  0  0  0  0
 55120  1  0  0  0  0
 56 57  1  0  0  0  0
 56 58  1  1  0  0  0
 56121  1  0  0  0  0
 57122  1  0  0  0  0
 58123  1  0  0  0  0
 58124  1  0  0  0  0
 59 60  1  0  0  0  0
 59125  1  0  0  0  0
 60 61  1  0  0  0  0
 60128  1  0  0  0  0
 61 63  1  0  0  0  0
 61129  1  0  0  0  0
 62 63  1  0  0  0  0
 62 64  1  1  0  0  0
 62131  1  0  0  0  0
 63132  1  0  0  0  0
 64134  1  0  0  0  0
 64135  1  0  0  0  0
 64136  1  0  0  0  0
M  END
> <PUBCHEM_COMPOUND_CID>
11125847

> <PUBCHEM_COMPOUND_CANONICALIZED>
1

> <PUBCHEM_CACTVS_COMPLEXITY>
1780

> <PUBCHEM_CACTVS_HBOND_ACCEPTOR>
17

> <PUBCHEM_CACTVS_HBOND_DONOR>
8

> <PUBCHEM_CACTVS_ROTATABLE_BOND>
8

> <PUBCHEM_CACTVS_SUBSKEYS>
AAADcfB8PgAAAAAAAAAAAAAAAAAAASAAAAA0aNGDBIAAAEjAAAAAGgAACAAAD1SwgAMCCAAABgAIAIgQgAAAAAAAAAAAAAEAAAAREBYAAAAiQAAFIAAHAAHK7PzPgAAAAAAAAADAAAYAADAAAAAAAAAAAA==

> <PUBCHEM_IUPAC_OPENEYE_NAME>
(1S,4S,5R,8R,10S,13R,14R,17S,18R,20S)-10-[(2S,3R,4R,5S)-5-[(2S,3R,4S,5S,6R)-4,5-dihydroxy-6-(hydroxymethyl)-3-[(2S,3R,4R,5R,6S)-3,4,5-trihydroxy-6-methyl-tetrahydropyran-2-yl]oxy-tetrahydropyran-2-yl]oxy-3,4-dihydroxy-tetrahydropyran-2-yl]oxy-4,5,9,9,13,20-hexamethyl-2-oxo-24-oxahexacyclo[15.5.2.01,18.04,17.05,14.08,13]tetracosane-20-carbaldehyde

> <PUBCHEM_IUPAC_CAS_NAME>
(1S,4S,5R,8R,10S,13R,14R,17S,18R,20S)-10-[[(2S,3R,4R,5S)-5-[[(2S,3R,4S,5S,6R)-4,5-dihydroxy-6-(hydroxymethyl)-3-[[(2S,3R,4R,5R,6S)-3,4,5-trihydroxy-6-methyl-2-oxanyl]oxy]-2-oxanyl]oxy]-3,4-dihydroxy-2-oxanyl]oxy]-4,5,9,9,13,20-hexamethyl-2-oxo-24-oxahexacyclo[15.5.2.01,18.04,17.05,14.08,13]tetracosane-20-carboxaldehyde

> <PUBCHEM_IUPAC_NAME_MARKUP>
(1<I>S</I>,4<I>S</I>,5<I>R</I>,8<I>R</I>,10<I>S</I>,13<I>R</I>,14<I>R</I>,17<I>S</I>,18<I>R</I>,20<I>S</I>)-10-[(2<I>S</I>,3<I>R</I>,4<I>R</I>,5<I>S</I>)-5-[(2<I>S</I>,3<I>R</I>,4<I>S</I>,5<I>S</I>,6<I>R</I>)-4,5-dihydroxy-6-(hydroxymethyl)-3-[(2<I>S</I>,3<I>R</I>,4<I>R</I>,5<I>R</I>,6<I>S</I>)-3,4,5-trihydroxy-6-methyloxan-2-yl]oxyoxan-2-yl]oxy-3,4-dihydroxyoxan-2-yl]oxy-4,5,9,9,13,20-hexamethyl-2-oxo-24-oxahexacyclo[15.5.2.0<SUP>1,18</SUP>.0<SUP>4,17</SUP>.0<SUP>5,14</SUP>.0<SUP>8,13</SUP>]tetracosane-20-carbaldehyde

> <PUBCHEM_IUPAC_NAME>
(1S,4S,5R,8R,10S,13R,14R,17S,18R,20S)-10-[(2S,3R,4R,5S)-5-[(2S,3R,4S,5S,6R)-4,5-dihydroxy-6-(hydroxymethyl)-3-[(2S,3R,4R,5R,6S)-3,4,5-trihydroxy-6-methyloxan-2-yl]oxyoxan-2-yl]oxy-3,4-dihydroxyoxan-2-yl]oxy-4,5,9,9,13,20-hexamethyl-2-oxo-24-oxahexacyclo[15.5.2.01,18.04,17.05,14.08,13]tetracosane-20-carbaldehyde

> <PUBCHEM_IUPAC_SYSTEMATIC_NAME>
(1S,4S,5R,8R,10S,13R,14R,17S,18R,20S)-10-[(2S,3R,4R,5S)-5-[(2S,3R,4S,5S,6R)-6-(hydroxymethyl)-3-[(2S,3R,4R,5R,6S)-6-methyl-3,4,5-tris(oxidanyl)oxan-2-yl]oxy-4,5-bis(oxidanyl)oxan-2-yl]oxy-3,4-bis(oxidanyl)oxan-2-yl]oxy-4,5,9,9,13,20-hexamethyl-2-oxidanylidene-24-oxahexacyclo[15.5.2.01,18.04,17.05,14.08,13]tetracosane-20-carbaldehyde

> <PUBCHEM_IUPAC_TRADITIONAL_NAME>
(1S,4S,5R,8R,10S,13R,14R,17S,18R,20S)-10-[(2S,3R,4R,5S)-5-[(2S,3R,4S,5S,6R)-4,5-dihydroxy-6-methylol-3-[(2S,3R,4R,5R,6S)-3,4,5-trihydroxy-6-methyl-tetrahydropyran-2-yl]oxy-tetrahydropyran-2-yl]oxy-3,4-dihydroxy-tetrahydropyran-2-yl]oxy-2-keto-4,5,9,9,13,20-hexamethyl-24-oxahexacyclo[15.5.2.01,18.04,17.05,14.08,13]tetracosane-20-carbaldehyde

> <PUBCHEM_IUPAC_INCHI>
InChI=1S/C47H74O17/c1-22-30(51)33(54)36(57)39(60-22)64-37-34(55)31(52)23(18-48)61-40(37)62-24-19-58-38(35(56)32(24)53)63-29-10-11-43(5)25(41(29,2)3)8-12-44(6)26(43)9-13-47-27-16-42(4,20-49)14-15-46(27,21-59-47)28(50)17-45(44,47)7/h20,22-27,29-40,48,51-57H,8-19,21H2,1-7H3/t22-,23+,24-,25-,26+,27+,29-,30-,31+,32-,33+,34-,35+,36+,37+,38-,39-,40-,42-,43-,44+,45-,46+,47-/m0/s1

> <PUBCHEM_IUPAC_INCHIKEY>
LDHINNKHMNWJCX-LOFXXVTMSA-N

> <PUBCHEM_XLOGP3_AA>
0.6

> <PUBCHEM_EXACT_MASS>
910.492601

> <PUBCHEM_MOLECULAR_FORMULA>
C47H74O17

> <PUBCHEM_MOLECULAR_WEIGHT>
911.1

> <PUBCHEM_OPENEYE_CAN_SMILES>
CC1C(C(C(C(O1)OC2C(C(C(OC2OC3COC(C(C3O)O)OC4CCC5(C(C4(C)C)CCC6(C5CCC78C6(CC(=O)C9(C7CC(CC9)(C)C=O)CO8)C)C)C)CO)O)O)O)O)O

> <PUBCHEM_OPENEYE_ISO_SMILES>
C[C@H]1[C@@H]([C@H]([C@H]([C@@H](O1)O[C@@H]2[C@H]([C@@H]([C@H](O[C@H]2O[C@H]3CO[C@H]([C@@H]([C@H]3O)O)O[C@H]4CC[C@@]5([C@H]6CC[C@@]78[C@@H]9C[C@@](CC[C@]9(CO7)C(=O)C[C@]8([C@@]6(CC[C@H]5C4(C)C)C)C)(C)C=O)C)CO)O)O)O)O)O

> <PUBCHEM_CACTVS_TPSA>
261

> <PUBCHEM_MONOISOTOPIC_WEIGHT>
910.492601

> <PUBCHEM_TOTAL_CHARGE>
0

> <PUBCHEM_HEAVY_ATOM_COUNT>
64

> <PUBCHEM_ATOM_DEF_STEREO_COUNT>
24

> <PUBCHEM_ATOM_UDEF_STEREO_COUNT>
0

> <PUBCHEM_BOND_DEF_STEREO_COUNT>
0

> <PUBCHEM_BOND_UDEF_STEREO_COUNT>
0

> <PUBCHEM_ISOTOPIC_ATOM_COUNT>
0

> <PUBCHEM_COMPONENT_COUNT>
1

> <PUBCHEM_CACTVS_TAUTO_COUNT>
-1

> <PUBCHEM_COORDINATE_TYPE>
1
5
255

> <PUBCHEM_BONDANNOTATIONS>
54  10  6
59  10  6
55  11  5
57  12  6
60  15  5
61  16  5
63  17  6
18  35  5
19  25  6
20  36  6
21  65  5
22  66  6
23  40  6
24  38  6
26  69  5
42  3  6
48  3  6
39  46  5
56  58  5
49  6  5
62  64  5
50  7  6
52  8  6
53  8  5

$$$$
