16109779
  -OEChem-09092004192D

222234  0     1  0  0  0  0  0999 V2000
   17.2347    6.3617    0.0000 O   0  0  0  0  0  0  0  0  0  0  0  0
   19.3625    5.2535    0.0000 O   0  0  0  0  0  0  0  0  0  0  0  0
   11.1972    3.6180    0.0000 O   0  0  0  0  0  0  0  0  0  0  0  0
   12.0632    2.1180    0.0000 O   0  0  0  0  0  0  0  0  0  0  0  0
    9.4651    2.6180    0.0000 O   0  0  0  0  0  0  0  0  0  0  0  0
    9.4651    0.6180    0.0000 O   0  0  0  0  0  0  0  0  0  0  0  0
   11.1972   -0.3820    0.0000 O   0  0  0  0  0  0  0  0  0  0  0  0
   10.3312    4.1180    0.0000 O   0  0  0  0  0  0  0  0  0  0  0  0
    7.7331    3.6180    0.0000 O   0  0  0  0  0  0  0  0  0  0  0  0
    9.4651   -0.3820    0.0000 O   0  0  0  0  0  0  0  0  0  0  0  0
    7.7331    5.6180    0.0000 O   0  0  0  0  0  0  0  0  0  0  0  0
   11.1972   -2.3820    0.0000 O   0  0  0  0  0  0  0  0  0  0  0  0
    9.4651    6.6180    0.0000 O   0  0  0  0  0  0  0  0  0  0  0  0
    9.4651   -3.3820    0.0000 O   0  0  0  0  0  0  0  0  0  0  0  0
   11.1972    6.6180    0.0000 O   0  0  0  0  0  0  0  0  0  0  0  0
    7.7331   -2.3820    0.0000 O   0  0  0  0  0  0  0  0  0  0  0  0
    7.7331    0.6180    0.0000 O   0  0  0  0  0  0  0  0  0  0  0  0
   12.0632   -0.8820    0.0000 O   0  0  0  0  0  0  0  0  0  0  0  0
    7.7331   -3.3820    0.0000 O   0  0  0  0  0  0  0  0  0  0  0  0
   12.9292   -3.3820    0.0000 O   0  0  0  0  0  0  0  0  0  0  0  0
    9.4651   -5.3820    0.0000 O   0  0  0  0  0  0  0  0  0  0  0  0
   14.6613   -2.3820    0.0000 O   0  0  0  0  0  0  0  0  0  0  0  0
    7.7331   -6.3820    0.0000 O   0  0  0  0  0  0  0  0  0  0  0  0
   14.6613   -0.3820    0.0000 O   0  0  0  0  0  0  0  0  0  0  0  0
    6.0010   -5.3820    0.0000 O   0  0  0  0  0  0  0  0  0  0  0  0
    6.0010   -2.3820    0.0000 O   0  0  0  0  0  0  0  0  0  0  0  0
    9.4651   -6.3820    0.0000 O   0  0  0  0  0  0  0  0  0  0  0  0
    5.1350   -3.8820    0.0000 O   0  0  0  0  0  0  0  0  0  0  0  0
    7.7331   -8.3820    0.0000 O   0  0  0  0  0  0  0  0  0  0  0  0
    4.2690   -6.3820    0.0000 O   0  0  0  0  0  0  0  0  0  0  0  0
    9.4651   -9.3820    0.0000 O   0  0  0  0  0  0  0  0  0  0  0  0
    2.5369   -5.3820    0.0000 O   0  0  0  0  0  0  0  0  0  0  0  0
   11.1972   -8.3820    0.0000 O   0  0  0  0  0  0  0  0  0  0  0  0
    2.5369   -3.3820    0.0000 O   0  0  0  0  0  0  0  0  0  0  0  0
   12.0632   -6.8820    0.0000 O   0  0  0  0  0  0  0  0  0  0  0  0
    3.4030   -1.8820    0.0000 O   0  0  0  0  0  0  0  0  0  0  0  0
   16.7664    5.7635    0.0000 C   0  0  2  0  0  0  0  0  0  0  0  0
   16.7702    6.7635    0.0000 C   0  0  2  0  0  0  0  0  0  0  0  0
   15.8704    5.2323    0.0000 C   0  0  1  0  0  0  0  0  0  0  0  0
   17.6382    7.2602    0.0000 C   0  0  1  0  0  0  0  0  0  0  0  0
   18.5023    6.7568    0.0000 C   0  0  2  0  0  0  0  0  0  0  0  0
   14.9663    5.7496    0.0000 C   0  0  1  0  0  0  0  0  0  0  0  0
   14.0205    5.2180    0.0000 C   0  0  2  0  0  0  0  0  0  0  0  0
   17.6305    5.2602    0.0000 C   0  0  0  0  0  0  0  0  0  0  0  0
   15.8784    7.3016    0.0000 C   0  0  0  0  0  0  0  0  0  0  0  0
   18.4984    5.7568    0.0000 C   0  0  1  0  0  0  0  0  0  0  0  0
   14.9703    6.7912    0.0000 C   0  0  0  0  0  0  0  0  0  0  0  0
   14.0163    4.1330    0.0000 C   0  0  1  0  0  0  0  0  0  0  0  0
   15.8913    4.1475    0.0000 C   0  0  0  0  0  0  0  0  0  0  0  0
   18.0347    6.3586    0.0000 C   0  0  0  0  0  0  0  0  0  0  0  0
   17.6261    8.3017    0.0000 C   0  0  0  0  0  0  0  0  0  0  0  0
   19.4142    7.2602    0.0000 C   0  0  0  0  0  0  0  0  0  0  0  0
   14.9580    3.5942    0.0000 C   0  0  0  0  0  0  0  0  0  0  0  0
   17.1049    4.8225    0.0000 C   0  0  0  0  0  0  0  0  0  0  0  0
   16.5161    4.4687    0.0000 C   0  0  0  0  0  0  0  0  0  0  0  0
   18.5262    8.8260    0.0000 C   0  0  0  0  0  0  0  0  0  0  0  0
   13.0441    3.5567    0.0000 C   0  0  0  0  0  0  0  0  0  0  0  0
   13.0528    5.8019    0.0000 C   0  0  0  0  0  0  0  0  0  0  0  0
   19.4263    8.3017    0.0000 C   0  0  0  0  0  0  0  0  0  0  0  0
   14.0243    6.2180    0.0000 C   0  0  0  0  0  0  0  0  0  0  0  0
   12.0632    4.1180    0.0000 C   0  0  2  0  0  0  0  0  0  0  0  0
   12.0676    5.2481    0.0000 C   0  0  0  0  0  0  0  0  0  0  0  0
   19.0262    9.6920    0.0000 C   0  0  0  0  0  0  0  0  0  0  0  0
   18.0262    9.6920    0.0000 C   0  0  0  0  0  0  0  0  0  0  0  0
   13.5508    2.6945    0.0000 C   0  0  0  0  0  0  0  0  0  0  0  0
   12.5508    2.6868    0.0000 C   0  0  0  0  0  0  0  0  0  0  0  0
   11.1972    2.6180    0.0000 C   0  0  2  0  0  0  0  0  0  0  0  0
   10.3312    2.1180    0.0000 C   0  0  1  0  0  0  0  0  0  0  0  0
   10.3312    1.1180    0.0000 C   0  0  2  0  0  0  0  0  0  0  0  0
   12.0632    1.1180    0.0000 C   0  0  0  0  0  0  0  0  0  0  0  0
   11.1972    0.6180    0.0000 C   0  0  2  0  0  0  0  0  0  0  0  0
    9.4651    3.6180    0.0000 C   0  0  2  0  0  0  0  0  0  0  0  0
    8.5991    4.1180    0.0000 C   0  0  1  0  0  0  0  0  0  0  0  0
   10.3312   -0.8820    0.0000 C   0  0  2  0  0  0  0  0  0  0  0  0
    8.5991    5.1180    0.0000 C   0  0  2  0  0  0  0  0  0  0  0  0
   10.3312    5.1180    0.0000 C   0  0  1  0  0  0  0  0  0  0  0  0
    9.4651    5.6180    0.0000 C   0  0  1  0  0  0  0  0  0  0  0  0
   10.3312   -1.8820    0.0000 C   0  0  1  0  0  0  0  0  0  0  0  0
    9.4651   -2.3820    0.0000 C   0  0  2  0  0  0  0  0  0  0  0  0
    8.5991   -0.8820    0.0000 C   0  0  1  0  0  0  0  0  0  0  0  0
   11.1972    5.6180    0.0000 C   0  0  0  0  0  0  0  0  0  0  0  0
    8.5991   -1.8820    0.0000 C   0  0  1  0  0  0  0  0  0  0  0  0
    7.7331   -0.3820    0.0000 C   0  0  0  0  0  0  0  0  0  0  0  0
   12.0632   -1.8820    0.0000 C   0  0  2  0  0  0  0  0  0  0  0  0
    8.5991   -3.8820    0.0000 C   0  0  2  0  0  0  0  0  0  0  0  0
   12.9292   -2.3820    0.0000 C   0  0  1  0  0  0  0  0  0  0  0  0
    8.5991   -4.8820    0.0000 C   0  0  1  0  0  0  0  0  0  0  0  0
   13.7953   -1.8820    0.0000 C   0  0  2  0  0  0  0  0  0  0  0  0
   12.9292   -0.3820    0.0000 C   0  0  0  0  0  0  0  0  0  0  0  0
   13.7953   -0.8820    0.0000 C   0  0  1  0  0  0  0  0  0  0  0  0
    7.7331   -5.3820    0.0000 C   0  0  2  0  0  0  0  0  0  0  0  0
    6.8671   -3.8820    0.0000 C   0  0  1  0  0  0  0  0  0  0  0  0
    6.8671   -4.8820    0.0000 C   0  0  1  0  0  0  0  0  0  0  0  0
    6.0010   -3.3820    0.0000 C   0  0  0  0  0  0  0  0  0  0  0  0
    8.5991   -6.8820    0.0000 C   0  0  2  0  0  0  0  0  0  0  0  0
    5.1350   -4.8820    0.0000 C   0  0  2  0  0  0  0  0  0  0  0  0
    8.5991   -7.8820    0.0000 C   0  0  1  0  0  0  0  0  0  0  0  0
    4.2690   -5.3820    0.0000 C   0  0  1  0  0  0  0  0  0  0  0  0
    9.4651   -8.3820    0.0000 C   0  0  2  0  0  0  0  0  0  0  0  0
   10.3312   -6.8820    0.0000 C   0  0  1  0  0  0  0  0  0  0  0  0
    3.4030   -4.8820    0.0000 C   0  0  2  0  0  0  0  0  0  0  0  0
   10.3312   -7.8820    0.0000 C   0  0  1  0  0  0  0  0  0  0  0  0
    4.2690   -3.3820    0.0000 C   0  0  1  0  0  0  0  0  0  0  0  0
    3.4030   -3.8820    0.0000 C   0  0  1  0  0  0  0  0  0  0  0  0
   11.1972   -6.3820    0.0000 C   0  0  0  0  0  0  0  0  0  0  0  0
    4.2690   -2.3820    0.0000 C   0  0  0  0  0  0  0  0  0  0  0  0
   16.9037    7.6880    0.0000 H   0  0  0  0  0  0  0  0  0  0  0  0
   15.7024    6.1746    0.0000 H   0  0  0  0  0  0  0  0  0  0  0  0
   17.2301    4.7867    0.0000 H   0  0  0  0  0  0  0  0  0  0  0  0
   18.0272    4.7837    0.0000 H   0  0  0  0  0  0  0  0  0  0  0  0
   16.2848    7.7698    0.0000 H   0  0  0  0  0  0  0  0  0  0  0  0
   15.4866    7.7821    0.0000 H   0  0  0  0  0  0  0  0  0  0  0  0
   18.4960    5.1368    0.0000 H   0  0  0  0  0  0  0  0  0  0  0  0
   14.7635    7.3757    0.0000 H   0  0  0  0  0  0  0  0  0  0  0  0
   14.3591    6.6875    0.0000 H   0  0  0  0  0  0  0  0  0  0  0  0
   14.0228    3.2831    0.0000 H   0  0  0  0  0  0  0  0  0  0  0  0
   16.1116    3.5679    0.0000 H   0  0  0  0  0  0  0  0  0  0  0  0
   16.5000    4.2653    0.0000 H   0  0  0  0  0  0  0  0  0  0  0  0
   17.8568    5.7647    0.0000 H   0  0  0  0  0  0  0  0  0  0  0  0
   18.5539    6.0198    0.0000 H   0  0  0  0  0  0  0  0  0  0  0  0
   17.4104    8.8829    0.0000 H   0  0  0  0  0  0  0  0  0  0  0  0
   17.0166    8.1886    0.0000 H   0  0  0  0  0  0  0  0  0  0  0  0
   19.6165    6.6741    0.0000 H   0  0  0  0  0  0  0  0  0  0  0  0
   20.0263    7.3592    0.0000 H   0  0  0  0  0  0  0  0  0  0  0  0
   14.5625    3.1167    0.0000 H   0  0  0  0  0  0  0  0  0  0  0  0
   15.3608    3.1228    0.0000 H   0  0  0  0  0  0  0  0  0  0  0  0
   16.5215    4.6127    0.0000 H   0  0  0  0  0  0  0  0  0  0  0  0
   17.3147    4.2391    0.0000 H   0  0  0  0  0  0  0  0  0  0  0  0
   17.6883    5.0324    0.0000 H   0  0  0  0  0  0  0  0  0  0  0  0
   16.0427    4.0684    0.0000 H   0  0  0  0  0  0  0  0  0  0  0  0
   16.9165    3.9953    0.0000 H   0  0  0  0  0  0  0  0  0  0  0  0
   16.9895    4.8691    0.0000 H   0  0  0  0  0  0  0  0  0  0  0  0
   13.4592    6.2701    0.0000 H   0  0  0  0  0  0  0  0  0  0  0  0
   12.6610    6.2824    0.0000 H   0  0  0  0  0  0  0  0  0  0  0  0
   20.0359    8.1886    0.0000 H   0  0  0  0  0  0  0  0  0  0  0  0
   19.6421    8.8829    0.0000 H   0  0  0  0  0  0  0  0  0  0  0  0
   14.6443    6.2156    0.0000 H   0  0  0  0  0  0  0  0  0  0  0  0
   14.0267    6.8380    0.0000 H   0  0  0  0  0  0  0  0  0  0  0  0
   13.4043    6.2204    0.0000 H   0  0  0  0  0  0  0  0  0  0  0  0
   12.0644    3.4980    0.0000 H   0  0  0  0  0  0  0  0  0  0  0  0
   11.8608    5.8326    0.0000 H   0  0  0  0  0  0  0  0  0  0  0  0
   11.4563    5.1444    0.0000 H   0  0  0  0  0  0  0  0  0  0  0  0
   19.3601    4.6335    0.0000 H   0  0  0  0  0  0  0  0  0  0  0  0
   19.5631    9.3820    0.0000 H   0  0  0  0  0  0  0  0  0  0  0  0
   19.3362   10.2290    0.0000 H   0  0  0  0  0  0  0  0  0  0  0  0
   18.4893   10.0020    0.0000 H   0  0  0  0  0  0  0  0  0  0  0  0
   18.5631   10.0020    0.0000 H   0  0  0  0  0  0  0  0  0  0  0  0
   17.7162   10.2290    0.0000 H   0  0  0  0  0  0  0  0  0  0  0  0
   17.4893    9.3820    0.0000 H   0  0  0  0  0  0  0  0  0  0  0  0
   13.0163    2.3804    0.0000 H   0  0  0  0  0  0  0  0  0  0  0  0
   13.8649    2.1600    0.0000 H   0  0  0  0  0  0  0  0  0  0  0  0
   14.0853    3.0087    0.0000 H   0  0  0  0  0  0  0  0  0  0  0  0
   12.0115    2.9927    0.0000 H   0  0  0  0  0  0  0  0  0  0  0  0
   12.2450    2.1475    0.0000 H   0  0  0  0  0  0  0  0  0  0  0  0
   13.0901    2.3810    0.0000 H   0  0  0  0  0  0  0  0  0  0  0  0
   10.6603    2.9280    0.0000 H   0  0  0  0  0  0  0  0  0  0  0  0
    9.7942    1.8080    0.0000 H   0  0  0  0  0  0  0  0  0  0  0  0
   10.3312    0.4980    0.0000 H   0  0  0  0  0  0  0  0  0  0  0  0
   12.2753    0.5354    0.0000 H   0  0  0  0  0  0  0  0  0  0  0  0
   12.6738    1.2256    0.0000 H   0  0  0  0  0  0  0  0  0  0  0  0
   11.7341    0.3080    0.0000 H   0  0  0  0  0  0  0  0  0  0  0  0
    8.9282    3.3080    0.0000 H   0  0  0  0  0  0  0  0  0  0  0  0
    8.9282    0.9280    0.0000 H   0  0  0  0  0  0  0  0  0  0  0  0
    8.0622    4.4280    0.0000 H   0  0  0  0  0  0  0  0  0  0  0  0
   10.3312   -0.2620    0.0000 H   0  0  0  0  0  0  0  0  0  0  0  0
    8.5991    5.7380    0.0000 H   0  0  0  0  0  0  0  0  0  0  0  0
   10.8681    4.8080    0.0000 H   0  0  0  0  0  0  0  0  0  0  0  0
   10.0021    5.9280    0.0000 H   0  0  0  0  0  0  0  0  0  0  0  0
   10.3312   -2.5020    0.0000 H   0  0  0  0  0  0  0  0  0  0  0  0
    7.1962    3.9280    0.0000 H   0  0  0  0  0  0  0  0  0  0  0  0
    8.9282   -2.6920    0.0000 H   0  0  0  0  0  0  0  0  0  0  0  0
    8.5991   -0.2620    0.0000 H   0  0  0  0  0  0  0  0  0  0  0  0
   11.4092    5.0354    0.0000 H   0  0  0  0  0  0  0  0  0  0  0  0
   11.8078    5.7256    0.0000 H   0  0  0  0  0  0  0  0  0  0  0  0
    8.5991   -2.5020    0.0000 H   0  0  0  0  0  0  0  0  0  0  0  0
    7.7331    6.2380    0.0000 H   0  0  0  0  0  0  0  0  0  0  0  0
   10.0021    6.9280    0.0000 H   0  0  0  0  0  0  0  0  0  0  0  0
    7.1225   -0.2744    0.0000 H   0  0  0  0  0  0  0  0  0  0  0  0
    7.5210   -0.9646    0.0000 H   0  0  0  0  0  0  0  0  0  0  0  0
   11.5263   -1.5720    0.0000 H   0  0  0  0  0  0  0  0  0  0  0  0
   11.7341    6.9280    0.0000 H   0  0  0  0  0  0  0  0  0  0  0  0
    7.1962   -2.0720    0.0000 H   0  0  0  0  0  0  0  0  0  0  0  0
    8.5991   -3.2620    0.0000 H   0  0  0  0  0  0  0  0  0  0  0  0
   12.3923   -2.6920    0.0000 H   0  0  0  0  0  0  0  0  0  0  0  0
    7.1962    0.9280    0.0000 H   0  0  0  0  0  0  0  0  0  0  0  0
    8.5991   -5.5020    0.0000 H   0  0  0  0  0  0  0  0  0  0  0  0
   13.7953   -2.5020    0.0000 H   0  0  0  0  0  0  0  0  0  0  0  0
   13.3278    0.0929    0.0000 H   0  0  0  0  0  0  0  0  0  0  0  0
   12.5307    0.0929    0.0000 H   0  0  0  0  0  0  0  0  0  0  0  0
   14.3322   -1.1920    0.0000 H   0  0  0  0  0  0  0  0  0  0  0  0
    7.1962   -5.6920    0.0000 H   0  0  0  0  0  0  0  0  0  0  0  0
    6.8671   -3.2620    0.0000 H   0  0  0  0  0  0  0  0  0  0  0  0
   13.4662   -3.6920    0.0000 H   0  0  0  0  0  0  0  0  0  0  0  0
    6.3301   -4.5720    0.0000 H   0  0  0  0  0  0  0  0  0  0  0  0
   10.0021   -5.0720    0.0000 H   0  0  0  0  0  0  0  0  0  0  0  0
   15.1982   -2.0720    0.0000 H   0  0  0  0  0  0  0  0  0  0  0  0
    5.3905   -3.2744    0.0000 H   0  0  0  0  0  0  0  0  0  0  0  0
    5.7890   -3.9646    0.0000 H   0  0  0  0  0  0  0  0  0  0  0  0
   14.6613    0.2380    0.0000 H   0  0  0  0  0  0  0  0  0  0  0  0
    8.5991   -6.2620    0.0000 H   0  0  0  0  0  0  0  0  0  0  0  0
    5.1350   -5.5020    0.0000 H   0  0  0  0  0  0  0  0  0  0  0  0
    6.5380   -2.0720    0.0000 H   0  0  0  0  0  0  0  0  0  0  0  0
    8.5991   -8.5020    0.0000 H   0  0  0  0  0  0  0  0  0  0  0  0
    3.7320   -5.6920    0.0000 H   0  0  0  0  0  0  0  0  0  0  0  0
    8.9282   -8.6920    0.0000 H   0  0  0  0  0  0  0  0  0  0  0  0
   10.3312   -6.2620    0.0000 H   0  0  0  0  0  0  0  0  0  0  0  0
    2.8660   -4.5720    0.0000 H   0  0  0  0  0  0  0  0  0  0  0  0
   10.3312   -8.5020    0.0000 H   0  0  0  0  0  0  0  0  0  0  0  0
    4.8059   -3.0720    0.0000 H   0  0  0  0  0  0  0  0  0  0  0  0
    3.4030   -3.2620    0.0000 H   0  0  0  0  0  0  0  0  0  0  0  0
    7.7331   -9.0020    0.0000 H   0  0  0  0  0  0  0  0  0  0  0  0
    3.7320   -6.6920    0.0000 H   0  0  0  0  0  0  0  0  0  0  0  0
   11.5957   -5.9071    0.0000 H   0  0  0  0  0  0  0  0  0  0  0  0
   10.7987   -5.9071    0.0000 H   0  0  0  0  0  0  0  0  0  0  0  0
   10.0021   -9.6920    0.0000 H   0  0  0  0  0  0  0  0  0  0  0  0
    4.8796   -2.4897    0.0000 H   0  0  0  0  0  0  0  0  0  0  0  0
    4.4810   -1.7994    0.0000 H   0  0  0  0  0  0  0  0  0  0  0  0
    2.0000   -5.0720    0.0000 H   0  0  0  0  0  0  0  0  0  0  0  0
   11.1972   -9.0020    0.0000 H   0  0  0  0  0  0  0  0  0  0  0  0
    2.0000   -3.6920    0.0000 H   0  0  0  0  0  0  0  0  0  0  0  0
   12.6002   -6.5720    0.0000 H   0  0  0  0  0  0  0  0  0  0  0  0
    3.4030   -1.2620    0.0000 H   0  0  0  0  0  0  0  0  0  0  0  0
  1 38  1  0  0  0  0
  1 50  1  0  0  0  0
 46  2  1  6  0  0  0
  2143  1  0  0  0  0
 61  3  1  1  0  0  0
 67  3  1  6  0  0  0
  4 67  1  0  0  0  0
  4 70  1  0  0  0  0
 68  5  1  1  0  0  0
 72  5  1  1  0  0  0
 69  6  1  6  0  0  0
  6163  1  0  0  0  0
 71  7  1  6  0  0  0
 74  7  1  1  0  0  0
  8 72  1  0  0  0  0
  8 76  1  0  0  0  0
 73  9  1  6  0  0  0
  9170  1  0  0  0  0
 10 74  1  0  0  0  0
 10 80  1  0  0  0  0
 75 11  1  1  0  0  0
 11176  1  0  0  0  0
 78 12  1  6  0  0  0
 84 12  1  6  0  0  0
 77 13  1  6  0  0  0
 13177  1  0  0  0  0
 79 14  1  1  0  0  0
 85 14  1  1  0  0  0
 15 81  1  0  0  0  0
 15181  1  0  0  0  0
 82 16  1  6  0  0  0
 16182  1  0  0  0  0
 17 83  1  0  0  0  0
 17185  1  0  0  0  0
 18 84  1  0  0  0  0
 18 89  1  0  0  0  0
 19 85  1  0  0  0  0
 19 92  1  0  0  0  0
 86 20  1  1  0  0  0
 20193  1  0  0  0  0
 87 21  1  6  0  0  0
 21195  1  0  0  0  0
 88 22  1  6  0  0  0
 22196  1  0  0  0  0
 91 23  1  1  0  0  0
 95 23  1  6  0  0  0
 90 24  1  1  0  0  0
 24199  1  0  0  0  0
 93 25  1  6  0  0  0
 96 25  1  1  0  0  0
 26 94  1  0  0  0  0
 26202  1  0  0  0  0
 27 95  1  0  0  0  0
 27100  1  0  0  0  0
 28 96  1  0  0  0  0
 28103  1  0  0  0  0
 97 29  1  1  0  0  0
 29211  1  0  0  0  0
 98 30  1  6  0  0  0
 30212  1  0  0  0  0
 99 31  1  6  0  0  0
 31215  1  0  0  0  0
101 32  1  1  0  0  0
 32218  1  0  0  0  0
102 33  1  1  0  0  0
 33219  1  0  0  0  0
104 34  1  6  0  0  0
 34220  1  0  0  0  0
 35105  1  0  0  0  0
 35221  1  0  0  0  0
 36106  1  0  0  0  0
 36222  1  0  0  0  0
 37 38  1  0  0  0  0
 37 39  1  0  0  0  0
 37 44  1  0  0  0  0
 37 54  1  6  0  0  0
 38 40  1  0  0  0  0
 38 45  1  1  0  0  0
 39 42  1  0  0  0  0
 39 49  1  0  0  0  0
 39 55  1  1  0  0  0
 40 41  1  0  0  0  0
 40 51  1  0  0  0  0
 40107  1  1  0  0  0
 41 46  1  0  0  0  0
 41 50  1  0  0  0  0
 41 52  1  1  0  0  0
 42 43  1  0  0  0  0
 42 47  1  0  0  0  0
 42108  1  6  0  0  0
 43 48  1  0  0  0  0
 43 58  1  0  0  0  0
 43 60  1  1  0  0  0
 44 46  1  0  0  0  0
 44109  1  0  0  0  0
 44110  1  0  0  0  0
 45 47  1  0  0  0  0
 45111  1  0  0  0  0
 45112  1  0  0  0  0
 46113  1  0  0  0  0
 47114  1  0  0  0  0
 47115  1  0  0  0  0
 48 53  1  0  0  0  0
 48 57  1  0  0  0  0
 48116  1  6  0  0  0
 49 53  1  0  0  0  0
 49117  1  0  0  0  0
 49118  1  0  0  0  0
 50119  1  0  0  0  0
 50120  1  0  0  0  0
 51 56  1  0  0  0  0
 51121  1  0  0  0  0
 51122  1  0  0  0  0
 52 59  1  0  0  0  0
 52123  1  0  0  0  0
 52124  1  0  0  0  0
 53125  1  0  0  0  0
 53126  1  0  0  0  0
 54127  1  0  0  0  0
 54128  1  0  0  0  0
 54129  1  0  0  0  0
 55130  1  0  0  0  0
 55131  1  0  0  0  0
 55132  1  0  0  0  0
 56 59  1  0  0  0  0
 56 63  1  0  0  0  0
 56 64  1  0  0  0  0
 57 61  1  0  0  0  0
 57 65  1  0  0  0  0
 57 66  1  0  0  0  0
 58 62  1  0  0  0  0
 58133  1  0  0  0  0
 58134  1  0  0  0  0
 59135  1  0  0  0  0
 59136  1  0  0  0  0
 60137  1  0  0  0  0
 60138  1  0  0  0  0
 60139  1  0  0  0  0
 61 62  1  0  0  0  0
 61140  1  0  0  0  0
 62141  1  0  0  0  0
 62142  1  0  0  0  0
 63144  1  0  0  0  0
 63145  1  0  0  0  0
 63146  1  0  0  0  0
 64147  1  0  0  0  0
 64148  1  0  0  0  0
 64149  1  0  0  0  0
 65150  1  0  0  0  0
 65151  1  0  0  0  0
 65152  1  0  0  0  0
 66153  1  0  0  0  0
 66154  1  0  0  0  0
 66155  1  0  0  0  0
 67 68  1  0  0  0  0
 67156  1  0  0  0  0
 68 69  1  0  0  0  0
 68157  1  0  0  0  0
 69 71  1  0  0  0  0
 69158  1  0  0  0  0
 70 71  1  0  0  0  0
 70159  1  0  0  0  0
 70160  1  0  0  0  0
 71161  1  0  0  0  0
 72 73  1  0  0  0  0
 72162  1  0  0  0  0
 73 75  1  0  0  0  0
 73164  1  0  0  0  0
 74 78  1  0  0  0  0
 74165  1  0  0  0  0
 75 77  1  0  0  0  0
 75166  1  0  0  0  0
 76 77  1  0  0  0  0
 76 81  1  1  0  0  0
 76167  1  0  0  0  0
 77168  1  0  0  0  0
 78 79  1  0  0  0  0
 78169  1  0  0  0  0
 79 82  1  0  0  0  0
 79171  1  0  0  0  0
 80 82  1  0  0  0  0
 80 83  1  1  0  0  0
 80172  1  0  0  0  0
 81173  1  0  0  0  0
 81174  1  0  0  0  0
 82175  1  0  0  0  0
 83178  1  0  0  0  0
 83179  1  0  0  0  0
 84 86  1  0  0  0  0
 84180  1  0  0  0  0
 85 87  1  0  0  0  0
 85183  1  0  0  0  0
 86 88  1  0  0  0  0
 86184  1  0  0  0  0
 87 91  1  0  0  0  0
 87186  1  0  0  0  0
 88 90  1  0  0  0  0
 88187  1  0  0  0  0
 89 90  1  0  0  0  0
 89188  1  0  0  0  0
 89189  1  0  0  0  0
 90190  1  0  0  0  0
 91 93  1  0  0  0  0
 91191  1  0  0  0  0
 92 93  1  0  0  0  0
 92 94  1  1  0  0  0
 92192  1  0  0  0  0
 93194  1  0  0  0  0
 94197  1  0  0  0  0
 94198  1  0  0  0  0
 95 97  1  0  0  0  0
 95200  1  0  0  0  0
 96 98  1  0  0  0  0
 96201  1  0  0  0  0
 97 99  1  0  0  0  0
 97203  1  0  0  0  0
 98101  1  0  0  0  0
 98204  1  0  0  0  0
 99102  1  0  0  0  0
 99205  1  0  0  0  0
100102  1  0  0  0  0
100105  1  6  0  0  0
100206  1  0  0  0  0
101104  1  0  0  0  0
101207  1  0  0  0  0
102208  1  0  0  0  0
103104  1  0  0  0  0
103106  1  1  0  0  0
103209  1  0  0  0  0
104210  1  0  0  0  0
105213  1  0  0  0  0
105214  1  0  0  0  0
106216  1  0  0  0  0
106217  1  0  0  0  0
M  END
> <PUBCHEM_COMPOUND_CID>
16109779

> <PUBCHEM_COMPOUND_CANONICALIZED>
1

> <PUBCHEM_CACTVS_COMPLEXITY>
2950

> <PUBCHEM_CACTVS_HBOND_ACCEPTOR>
36

> <PUBCHEM_CACTVS_HBOND_DONOR>
21

> <PUBCHEM_CACTVS_ROTATABLE_BOND>
19

> <PUBCHEM_CACTVS_SUBSKEYS>
AAADcfB8PgAAAAAAAAAAAAAAAAAAASAAAAA0aNGjRIAAAEjAAAAAGgAACAAAD1SwgAMCCAAABgAAAAAAAAAAAAAAAAAAAAAAAAAREAIAAAAiQAAFAAAHAAHA4PwPgAAAAAAAAADCAAYAADAAAAAAAAAAAA==

> <PUBCHEM_IUPAC_OPENEYE_NAME>
(2S,3R,4S,5S,6R)-2-[(2R,3R,4R,5R,6S)-5-hydroxy-6-[(2S,3R,4S,5R,6R)-5-hydroxy-2-[(3S,4S,5R,6S)-4-hydroxy-6-[[(1S,2R,4S,5R,8R,10S,13R,14R,17S,18R)-2-hydroxy-4,5,9,9,13,20,20-heptamethyl-24-oxahexacyclo[15.5.2.01,18.04,17.05,14.08,13]tetracosan-10-yl]oxy]-5-[(2S,3R,4S,5S,6R)-3,4,5-trihydroxy-6-(hydroxymethyl)tetrahydropyran-2-yl]oxy-tetrahydropyran-3-yl]oxy-6-(hydroxymethyl)-3-[(2S,3R,4S,5R)-3,4,5-trihydroxytetrahydropyran-2-yl]oxy-tetrahydropyran-4-yl]oxy-2-(hydroxymethyl)-4-[(2S,3R,4S,5S,6R)-3,4,5-trihydroxy-6-(hydroxymethyl)tetrahydropyran-2-yl]oxy-tetrahydropyran-3-yl]oxy-6-(hydroxymethyl)tetrahydropyran-3,4,5-triol

> <PUBCHEM_IUPAC_CAS_NAME>
(2S,3R,4S,5S,6R)-2-[[(2R,3R,4R,5R,6S)-5-hydroxy-6-[[(2S,3R,4S,5R,6R)-5-hydroxy-2-[[(3S,4S,5R,6S)-4-hydroxy-6-[[(1S,2R,4S,5R,8R,10S,13R,14R,17S,18R)-2-hydroxy-4,5,9,9,13,20,20-heptamethyl-24-oxahexacyclo[15.5.2.01,18.04,17.05,14.08,13]tetracosan-10-yl]oxy]-5-[[(2S,3R,4S,5S,6R)-3,4,5-trihydroxy-6-(hydroxymethyl)-2-oxanyl]oxy]-3-oxanyl]oxy]-6-(hydroxymethyl)-3-[[(2S,3R,4S,5R)-3,4,5-trihydroxy-2-oxanyl]oxy]-4-oxanyl]oxy]-2-(hydroxymethyl)-4-[[(2S,3R,4S,5S,6R)-3,4,5-trihydroxy-6-(hydroxymethyl)-2-oxanyl]oxy]-3-oxanyl]oxy]-6-(hydroxymethyl)oxane-3,4,5-triol

> <PUBCHEM_IUPAC_NAME_MARKUP>
(2<I>S</I>,3<I>R</I>,4<I>S</I>,5<I>S</I>,6<I>R</I>)-2-[(2<I>R</I>,3<I>R</I>,4<I>R</I>,5<I>R</I>,6<I>S</I>)-5-hydroxy-6-[(2<I>S</I>,3<I>R</I>,4<I>S</I>,5<I>R</I>,6<I>R</I>)-5-hydroxy-2-[(3<I>S</I>,4<I>S</I>,5<I>R</I>,6<I>S</I>)-4-hydroxy-6-[[(1<I>S</I>,2<I>R</I>,4<I>S</I>,5<I>R</I>,8<I>R</I>,10<I>S</I>,13<I>R</I>,14<I>R</I>,17<I>S</I>,18<I>R</I>)-2-hydroxy-4,5,9,9,13,20,20-heptamethyl-24-oxahexacyclo[15.5.2.0<SUP>1,18</SUP>.0<SUP>4,17</SUP>.0<SUP>5,14</SUP>.0<SUP>8,13</SUP>]tetracosan-10-yl]oxy]-5-[(2<I>S</I>,3<I>R</I>,4<I>S</I>,5<I>S</I>,6<I>R</I>)-3,4,5-trihydroxy-6-(hydroxymethyl)oxan-2-yl]oxyoxan-3-yl]oxy-6-(hydroxymethyl)-3-[(2<I>S</I>,3<I>R</I>,4<I>S</I>,5<I>R</I>)-3,4,5-trihydroxyoxan-2-yl]oxyoxan-4-yl]oxy-2-(hydroxymethyl)-4-[(2<I>S</I>,3<I>R</I>,4<I>S</I>,5<I>S</I>,6<I>R</I>)-3,4,5-trihydroxy-6-(hydroxymethyl)oxan-2-yl]oxyoxan-3-yl]oxy-6-(hydroxymethyl)oxane-3,4,5-triol

> <PUBCHEM_IUPAC_NAME>
(2S,3R,4S,5S,6R)-2-[(2R,3R,4R,5R,6S)-5-hydroxy-6-[(2S,3R,4S,5R,6R)-5-hydroxy-2-[(3S,4S,5R,6S)-4-hydroxy-6-[[(1S,2R,4S,5R,8R,10S,13R,14R,17S,18R)-2-hydroxy-4,5,9,9,13,20,20-heptamethyl-24-oxahexacyclo[15.5.2.01,18.04,17.05,14.08,13]tetracosan-10-yl]oxy]-5-[(2S,3R,4S,5S,6R)-3,4,5-trihydroxy-6-(hydroxymethyl)oxan-2-yl]oxyoxan-3-yl]oxy-6-(hydroxymethyl)-3-[(2S,3R,4S,5R)-3,4,5-trihydroxyoxan-2-yl]oxyoxan-4-yl]oxy-2-(hydroxymethyl)-4-[(2S,3R,4S,5S,6R)-3,4,5-trihydroxy-6-(hydroxymethyl)oxan-2-yl]oxyoxan-3-yl]oxy-6-(hydroxymethyl)oxane-3,4,5-triol

> <PUBCHEM_IUPAC_SYSTEMATIC_NAME>
(2S,3R,4S,5S,6R)-2-[(2R,3R,4R,5R,6S)-6-[(2S,3R,4S,5R,6R)-2-[(3S,4S,5R,6S)-6-[[(1S,2R,4S,5R,8R,10S,13R,14R,17S,18R)-4,5,9,9,13,20,20-heptamethyl-2-oxidanyl-24-oxahexacyclo[15.5.2.01,18.04,17.05,14.08,13]tetracosan-10-yl]oxy]-5-[(2S,3R,4S,5S,6R)-6-(hydroxymethyl)-3,4,5-tris(oxidanyl)oxan-2-yl]oxy-4-oxidanyl-oxan-3-yl]oxy-6-(hydroxymethyl)-5-oxidanyl-3-[(2S,3R,4S,5R)-3,4,5-tris(oxidanyl)oxan-2-yl]oxy-oxan-4-yl]oxy-2-(hydroxymethyl)-4-[(2S,3R,4S,5S,6R)-6-(hydroxymethyl)-3,4,5-tris(oxidanyl)oxan-2-yl]oxy-5-oxidanyl-oxan-3-yl]oxy-6-(hydroxymethyl)oxane-3,4,5-triol

> <PUBCHEM_IUPAC_TRADITIONAL_NAME>
(2S,3R,4S,5S,6R)-2-[(2R,3R,4R,5R,6S)-5-hydroxy-6-[(2S,3R,4S,5R,6R)-5-hydroxy-2-[(3S,4S,5R,6S)-4-hydroxy-6-[[(1S,2R,4S,5R,8R,10S,13R,14R,17S,18R)-2-hydroxy-4,5,9,9,13,20,20-heptamethyl-24-oxahexacyclo[15.5.2.01,18.04,17.05,14.08,13]tetracosan-10-yl]oxy]-5-[(2S,3R,4S,5S,6R)-3,4,5-trihydroxy-6-methylol-tetrahydropyran-2-yl]oxy-tetrahydropyran-3-yl]oxy-6-methylol-3-[(2S,3R,4S,5R)-3,4,5-trihydroxytetrahydropyran-2-yl]oxy-tetrahydropyran-4-yl]oxy-2-methylol-4-[(2S,3R,4S,5S,6R)-3,4,5-trihydroxy-6-methylol-tetrahydropyran-2-yl]oxy-tetrahydropyran-3-yl]oxy-6-methylol-tetrahydropyran-3,4,5-triol

> <PUBCHEM_IUPAC_INCHI>
InChI=1S/C70H116O36/c1-64(2)14-15-69-25-94-70(35(69)16-64)13-9-34-66(5)11-10-37(65(3,4)33(66)8-12-67(34,6)68(70,7)17-36(69)77)101-62-55(105-60-50(90)46(86)41(81)29(20-73)97-60)43(83)32(24-93-62)100-63-56(106-57-47(87)38(78)26(76)23-92-57)53(42(82)30(21-74)98-63)103-61-51(91)54(104-59-49(89)45(85)40(80)28(19-72)96-59)52(31(22-75)99-61)102-58-48(88)44(84)39(79)27(18-71)95-58/h26-63,71-91H,8-25H2,1-7H3/t26-,27-,28-,29-,30-,31-,32+,33+,34-,35-,36-,37+,38+,39-,40-,41-,42-,43+,44+,45+,46+,47-,48-,49-,50-,51-,52-,53+,54-,55-,56-,57+,58+,59+,60+,61+,62+,63+,66+,67-,68+,69-,70+/m1/s1

> <PUBCHEM_IUPAC_INCHIKEY>
YRTDPWGTGFRWCS-NVSDYHLPSA-N

> <PUBCHEM_XLOGP3_AA>
-4.9

> <PUBCHEM_EXACT_MASS>
1532.72463

> <PUBCHEM_MOLECULAR_FORMULA>
C70H116O36

> <PUBCHEM_MOLECULAR_WEIGHT>
1533.6

> <PUBCHEM_OPENEYE_CAN_SMILES>
CC1(CCC23COC4(C2C1)CCC5C6(CCC(C(C6CCC5(C4(CC3O)C)C)(C)C)OC7C(C(C(CO7)OC8C(C(C(C(O8)CO)O)OC9C(C(C(C(O9)CO)OC1C(C(C(C(O1)CO)O)O)O)OC1C(C(C(C(O1)CO)O)O)O)O)OC1C(C(C(CO1)O)O)O)O)OC1C(C(C(C(O1)CO)O)O)O)C)C

> <PUBCHEM_OPENEYE_ISO_SMILES>
C[C@]12CC[C@@H](C([C@@H]1CC[C@@]3([C@@H]2CC[C@@]45[C@]3(C[C@H]([C@@]6([C@H]4CC(CC6)(C)C)CO5)O)C)C)(C)C)O[C@H]7[C@@H]([C@H]([C@H](CO7)O[C@H]8[C@@H]([C@H]([C@@H]([C@H](O8)CO)O)O[C@H]9[C@@H]([C@H]([C@@H]([C@H](O9)CO)O[C@H]1[C@@H]([C@H]([C@@H]([C@H](O1)CO)O)O)O)O[C@H]1[C@@H]([C@H]([C@@H]([C@H](O1)CO)O)O)O)O)O[C@H]1[C@@H]([C@H]([C@@H](CO1)O)O)O)O)O[C@H]1[C@@H]([C@H]([C@@H]([C@H](O1)CO)O)O)O

> <PUBCHEM_CACTVS_TPSA>
563

> <PUBCHEM_MONOISOTOPIC_WEIGHT>
1532.72463

> <PUBCHEM_TOTAL_CHARGE>
0

> <PUBCHEM_HEAVY_ATOM_COUNT>
106

> <PUBCHEM_ATOM_DEF_STEREO_COUNT>
43

> <PUBCHEM_ATOM_UDEF_STEREO_COUNT>
0

> <PUBCHEM_BOND_DEF_STEREO_COUNT>
0

> <PUBCHEM_BOND_UDEF_STEREO_COUNT>
0

> <PUBCHEM_ISOTOPIC_ATOM_COUNT>
0

> <PUBCHEM_COMPONENT_COUNT>
1

> <PUBCHEM_CACTVS_TAUTO_COUNT>
-1

> <PUBCHEM_COORDINATE_TYPE>
1
5
255

> <PUBCHEM_BONDANNOTATIONS>
100  105  6
103  106  5
75  11  5
78  12  6
84  12  6
77  13  6
79  14  5
85  14  5
82  16  6
46  2  6
86  20  5
87  21  6
88  22  6
91  23  5
95  23  6
90  24  5
93  25  6
96  25  5
97  29  5
61  3  5
67  3  6
98  30  6
99  31  6
101  32  5
102  33  5
104  34  6
37  54  6
38  45  5
39  55  5
40  107  5
41  52  5
42  108  6
43  60  5
48  116  6
68  5  5
72  5  5
69  6  6
71  7  6
74  7  5
76  81  5
80  83  5
73  9  6
92  94  5

$$$$
