44419565
  -OEChem-09092004322D

137145  0     1  0  0  0  0  0999 V2000
   12.2620    4.2310    0.0000 O   0  0  0  0  0  0  0  0  0  0  0  0
   12.3661    6.6278    0.0000 O   0  0  0  0  0  0  0  0  0  0  0  0
    6.8671    0.3742    0.0000 O   0  0  0  0  0  0  0  0  0  0  0  0
   16.5418    4.9834    0.0000 O   0  0  0  0  0  0  0  0  0  0  0  0
    7.7331   -1.1258    0.0000 O   0  0  0  0  0  0  0  0  0  0  0  0
    5.1350   -0.6258    0.0000 O   0  0  0  0  0  0  0  0  0  0  0  0
    5.1350   -2.6258    0.0000 O   0  0  0  0  0  0  0  0  0  0  0  0
    6.8671   -3.6258    0.0000 O   0  0  0  0  0  0  0  0  0  0  0  0
    5.1350   -3.6258    0.0000 O   0  0  0  0  0  0  0  0  0  0  0  0
    6.8671   -5.6258    0.0000 O   0  0  0  0  0  0  0  0  0  0  0  0
    5.1350   -6.6258    0.0000 O   0  0  0  0  0  0  0  0  0  0  0  0
    3.4030   -5.6258    0.0000 O   0  0  0  0  0  0  0  0  0  0  0  0
    7.7331   -4.1258    0.0000 O   0  0  0  0  0  0  0  0  0  0  0  0
    2.5369   -4.1258    0.0000 O   0  0  0  0  0  0  0  0  0  0  0  0
    8.5991   -6.6258    0.0000 O   0  0  0  0  0  0  0  0  0  0  0  0
   10.3312   -5.6258    0.0000 O   0  0  0  0  0  0  0  0  0  0  0  0
   10.3312   -3.6258    0.0000 O   0  0  0  0  0  0  0  0  0  0  0  0
   11.5097    4.1245    0.0000 C   0  0  2  0  0  0  0  0  0  0  0  0
   12.3777    3.6279    0.0000 C   0  0  2  0  0  0  0  0  0  0  0  0
   10.6017    3.6142    0.0000 C   0  0  1  0  0  0  0  0  0  0  0  0
   13.2418    4.1312    0.0000 C   0  0  1  0  0  0  0  0  0  0  0  0
   10.5977    2.5726    0.0000 C   0  0  1  0  0  0  0  0  0  0  0  0
   13.2379    5.1312    0.0000 C   0  0  2  0  0  0  0  0  0  0  0  0
    9.6644    2.0192    0.0000 C   0  0  2  0  0  0  0  0  0  0  0  0
   11.5059    5.1245    0.0000 C   0  0  0  0  0  0  0  0  0  0  0  0
   12.3978    2.5864    0.0000 C   0  0  0  0  0  0  0  0  0  0  0  0
   12.3700    5.6279    0.0000 C   0  0  1  0  0  0  0  0  0  0  0  0
   11.5018    2.0552    0.0000 C   0  0  0  0  0  0  0  0  0  0  0  0
    8.7227    2.5581    0.0000 C   0  0  1  0  0  0  0  0  0  0  0  0
    9.6727    4.1747    0.0000 C   0  0  0  0  0  0  0  0  0  0  0  0
   12.6593    4.9254    0.0000 C   0  0  0  0  0  0  0  0  0  0  0  0
   14.1378    3.6000    0.0000 C   0  0  0  0  0  0  0  0  0  0  0  0
   14.1298    5.6693    0.0000 C   0  0  0  0  0  0  0  0  0  0  0  0
    8.7268    3.6431    0.0000 C   0  0  0  0  0  0  0  0  0  0  0  0
   10.8640    4.8881    0.0000 C   0  0  0  0  0  0  0  0  0  0  0  0
   10.2633    4.5552    0.0000 C   0  0  0  0  0  0  0  0  0  0  0  0
    7.7374    2.0044    0.0000 C   0  0  0  0  0  0  0  0  0  0  0  0
    9.6862    0.8893    0.0000 C   0  0  0  0  0  0  0  0  0  0  0  0
   15.0418    4.1173    0.0000 C   0  0  1  0  0  0  0  0  0  0  0  0
   15.0378    5.1590    0.0000 C   0  0  0  0  0  0  0  0  0  0  0  0
   10.5323    1.5226    0.0000 C   0  0  0  0  0  0  0  0  0  0  0  0
    7.7331    0.8742    0.0000 C   0  0  2  0  0  0  0  0  0  0  0  0
    8.7140    0.3129    0.0000 C   0  0  0  0  0  0  0  0  0  0  0  0
    7.2441    2.8742    0.0000 C   0  0  0  0  0  0  0  0  0  0  0  0
    6.7375    2.0121    0.0000 C   0  0  0  0  0  0  0  0  0  0  0  0
   15.5418    3.2513    0.0000 C   0  0  0  0  0  0  0  0  0  0  0  0
   16.0418    4.1173    0.0000 C   0  0  0  0  0  0  0  0  0  0  0  0
    6.8671   -0.6258    0.0000 C   0  0  2  0  0  0  0  0  0  0  0  0
    6.0010   -1.1258    0.0000 C   0  0  1  0  0  0  0  0  0  0  0  0
    6.0010   -2.1258    0.0000 C   0  0  2  0  0  0  0  0  0  0  0  0
    7.7331   -2.1258    0.0000 C   0  0  0  0  0  0  0  0  0  0  0  0
    6.8671   -2.6258    0.0000 C   0  0  2  0  0  0  0  0  0  0  0  0
    6.0010   -4.1258    0.0000 C   0  0  2  0  0  0  0  0  0  0  0  0
    6.0010   -5.1258    0.0000 C   0  0  1  0  0  0  0  0  0  0  0  0
    5.1350   -5.6258    0.0000 C   0  0  2  0  0  0  0  0  0  0  0  0
    4.2690   -4.1258    0.0000 C   0  0  1  0  0  0  0  0  0  0  0  0
    4.2690   -5.1258    0.0000 C   0  0  1  0  0  0  0  0  0  0  0  0
    3.4030   -3.6258    0.0000 C   0  0  0  0  0  0  0  0  0  0  0  0
    7.7331   -5.1258    0.0000 C   0  0  2  0  0  0  0  0  0  0  0  0
    8.5991   -5.6258    0.0000 C   0  0  1  0  0  0  0  0  0  0  0  0
    9.4651   -5.1258    0.0000 C   0  0  2  0  0  0  0  0  0  0  0  0
    8.5991   -3.6258    0.0000 C   0  0  0  0  0  0  0  0  0  0  0  0
    9.4651   -4.1258    0.0000 C   0  0  1  0  0  0  0  0  0  0  0  0
   13.2450    3.2812    0.0000 H   0  0  0  0  0  0  0  0  0  0  0  0
   10.6042    1.7226    0.0000 H   0  0  0  0  0  0  0  0  0  0  0  0
   11.2916    5.7063    0.0000 H   0  0  0  0  0  0  0  0  0  0  0  0
   10.8957    5.0145    0.0000 H   0  0  0  0  0  0  0  0  0  0  0  0
   12.6180    2.0069    0.0000 H   0  0  0  0  0  0  0  0  0  0  0  0
   13.0065    2.7043    0.0000 H   0  0  0  0  0  0  0  0  0  0  0  0
   12.9057    5.9399    0.0000 H   0  0  0  0  0  0  0  0  0  0  0  0
   11.1063    1.5777    0.0000 H   0  0  0  0  0  0  0  0  0  0  0  0
   11.9045    1.5839    0.0000 H   0  0  0  0  0  0  0  0  0  0  0  0
    7.9898    2.9888    0.0000 H   0  0  0  0  0  0  0  0  0  0  0  0
   10.0791    4.6429    0.0000 H   0  0  0  0  0  0  0  0  0  0  0  0
    9.2809    4.6552    0.0000 H   0  0  0  0  0  0  0  0  0  0  0  0
   12.6255    5.5445    0.0000 H   0  0  0  0  0  0  0  0  0  0  0  0
   12.0560    5.0683    0.0000 H   0  0  0  0  0  0  0  0  0  0  0  0
   13.7350    3.1286    0.0000 H   0  0  0  0  0  0  0  0  0  0  0  0
   14.5332    3.1225    0.0000 H   0  0  0  0  0  0  0  0  0  0  0  0
   14.5216    6.1498    0.0000 H   0  0  0  0  0  0  0  0  0  0  0  0
   13.7234    6.1375    0.0000 H   0  0  0  0  0  0  0  0  0  0  0  0
    8.5200    4.2276    0.0000 H   0  0  0  0  0  0  0  0  0  0  0  0
    8.1156    3.5394    0.0000 H   0  0  0  0  0  0  0  0  0  0  0  0
   11.3374    5.2884    0.0000 H   0  0  0  0  0  0  0  0  0  0  0  0
   10.4636    5.3615    0.0000 H   0  0  0  0  0  0  0  0  0  0  0  0
   10.3906    4.4877    0.0000 H   0  0  0  0  0  0  0  0  0  0  0  0
   10.8467    4.7650    0.0000 H   0  0  0  0  0  0  0  0  0  0  0  0
   10.0535    5.1386    0.0000 H   0  0  0  0  0  0  0  0  0  0  0  0
    9.6799    4.3454    0.0000 H   0  0  0  0  0  0  0  0  0  0  0  0
    9.9064    0.3097    0.0000 H   0  0  0  0  0  0  0  0  0  0  0  0
   10.2949    1.0071    0.0000 H   0  0  0  0  0  0  0  0  0  0  0  0
   15.6491    5.0552    0.0000 H   0  0  0  0  0  0  0  0  0  0  0  0
   15.2446    5.7434    0.0000 H   0  0  0  0  0  0  0  0  0  0  0  0
   10.2244    0.9844    0.0000 H   0  0  0  0  0  0  0  0  0  0  0  0
   11.0705    1.2146    0.0000 H   0  0  0  0  0  0  0  0  0  0  0  0
   10.8403    2.0607    0.0000 H   0  0  0  0  0  0  0  0  0  0  0  0
    7.1968    1.1853    0.0000 H   0  0  0  0  0  0  0  0  0  0  0  0
    8.3185   -0.1646    0.0000 H   0  0  0  0  0  0  0  0  0  0  0  0
    9.1168   -0.1584    0.0000 H   0  0  0  0  0  0  0  0  0  0  0  0
   11.8280    6.9358    0.0000 H   0  0  0  0  0  0  0  0  0  0  0  0
    7.7834    3.1801    0.0000 H   0  0  0  0  0  0  0  0  0  0  0  0
    6.9383    3.4135    0.0000 H   0  0  0  0  0  0  0  0  0  0  0  0
    6.7048    2.5684    0.0000 H   0  0  0  0  0  0  0  0  0  0  0  0
    6.7422    2.6321    0.0000 H   0  0  0  0  0  0  0  0  0  0  0  0
    6.1175    2.0169    0.0000 H   0  0  0  0  0  0  0  0  0  0  0  0
    6.7327    1.3921    0.0000 H   0  0  0  0  0  0  0  0  0  0  0  0
   15.0049    2.9413    0.0000 H   0  0  0  0  0  0  0  0  0  0  0  0
   15.8518    2.7144    0.0000 H   0  0  0  0  0  0  0  0  0  0  0  0
   16.0788    3.5613    0.0000 H   0  0  0  0  0  0  0  0  0  0  0  0
   16.3518    3.5804    0.0000 H   0  0  0  0  0  0  0  0  0  0  0  0
    6.3301   -0.3158    0.0000 H   0  0  0  0  0  0  0  0  0  0  0  0
    6.0010   -0.5058    0.0000 H   0  0  0  0  0  0  0  0  0  0  0  0
    6.0010   -2.7458    0.0000 H   0  0  0  0  0  0  0  0  0  0  0  0
    7.9451   -2.7084    0.0000 H   0  0  0  0  0  0  0  0  0  0  0  0
    8.3437   -2.0181    0.0000 H   0  0  0  0  0  0  0  0  0  0  0  0
    7.4040   -2.9358    0.0000 H   0  0  0  0  0  0  0  0  0  0  0  0
    5.1350   -0.0058    0.0000 H   0  0  0  0  0  0  0  0  0  0  0  0
    4.5981   -2.3158    0.0000 H   0  0  0  0  0  0  0  0  0  0  0  0
    6.0010   -3.5058    0.0000 H   0  0  0  0  0  0  0  0  0  0  0  0
    6.0010   -5.7458    0.0000 H   0  0  0  0  0  0  0  0  0  0  0  0
    4.5981   -5.9358    0.0000 H   0  0  0  0  0  0  0  0  0  0  0  0
    4.2690   -3.5058    0.0000 H   0  0  0  0  0  0  0  0  0  0  0  0
    4.2690   -5.7458    0.0000 H   0  0  0  0  0  0  0  0  0  0  0  0
    3.8015   -3.1508    0.0000 H   0  0  0  0  0  0  0  0  0  0  0  0
    3.0044   -3.1508    0.0000 H   0  0  0  0  0  0  0  0  0  0  0  0
    7.1962   -4.8158    0.0000 H   0  0  0  0  0  0  0  0  0  0  0  0
    4.5981   -6.9358    0.0000 H   0  0  0  0  0  0  0  0  0  0  0  0
    3.4030   -6.2458    0.0000 H   0  0  0  0  0  0  0  0  0  0  0  0
    8.0622   -5.9358    0.0000 H   0  0  0  0  0  0  0  0  0  0  0  0
    2.0000   -3.8158    0.0000 H   0  0  0  0  0  0  0  0  0  0  0  0
   10.0021   -4.8158    0.0000 H   0  0  0  0  0  0  0  0  0  0  0  0
    8.9976   -3.1508    0.0000 H   0  0  0  0  0  0  0  0  0  0  0  0
    8.2006   -3.1508    0.0000 H   0  0  0  0  0  0  0  0  0  0  0  0
    9.4651   -3.5058    0.0000 H   0  0  0  0  0  0  0  0  0  0  0  0
    8.0622   -6.9358    0.0000 H   0  0  0  0  0  0  0  0  0  0  0  0
   10.8681   -5.3158    0.0000 H   0  0  0  0  0  0  0  0  0  0  0  0
   10.3312   -3.0058    0.0000 H   0  0  0  0  0  0  0  0  0  0  0  0
  1 19  1  0  0  0  0
  1 31  1  0  0  0  0
 27  2  1  1  0  0  0
  2100  1  0  0  0  0
 42  3  1  6  0  0  0
 48  3  1  6  0  0  0
  4 47  2  0  0  0  0
  5 48  1  0  0  0  0
  5 51  1  0  0  0  0
 49  6  1  1  0  0  0
  6117  1  0  0  0  0
 50  7  1  6  0  0  0
  7118  1  0  0  0  0
 52  8  1  6  0  0  0
 53  8  1  1  0  0  0
  9 53  1  0  0  0  0
  9 56  1  0  0  0  0
 54 10  1  6  0  0  0
 59 10  1  6  0  0  0
 55 11  1  1  0  0  0
 11127  1  0  0  0  0
 57 12  1  6  0  0  0
 12128  1  0  0  0  0
 13 59  1  0  0  0  0
 13 62  1  0  0  0  0
 14 58  1  0  0  0  0
 14130  1  0  0  0  0
 60 15  1  1  0  0  0
 15135  1  0  0  0  0
 61 16  1  6  0  0  0
 16136  1  0  0  0  0
 63 17  1  1  0  0  0
 17137  1  0  0  0  0
 18 19  1  0  0  0  0
 18 20  1  0  0  0  0
 18 25  1  0  0  0  0
 18 35  1  1  0  0  0
 19 21  1  0  0  0  0
 19 26  1  6  0  0  0
 20 22  1  0  0  0  0
 20 30  1  0  0  0  0
 20 36  1  6  0  0  0
 21 23  1  0  0  0  0
 21 32  1  0  0  0  0
 21 64  1  6  0  0  0
 22 24  1  0  0  0  0
 22 28  1  0  0  0  0
 22 65  1  1  0  0  0
 23 27  1  0  0  0  0
 23 31  1  0  0  0  0
 23 33  1  6  0  0  0
 24 29  1  0  0  0  0
 24 38  1  0  0  0  0
 24 41  1  6  0  0  0
 25 27  1  0  0  0  0
 25 66  1  0  0  0  0
 25 67  1  0  0  0  0
 26 28  1  0  0  0  0
 26 68  1  0  0  0  0
 26 69  1  0  0  0  0
 27 70  1  0  0  0  0
 28 71  1  0  0  0  0
 28 72  1  0  0  0  0
 29 34  1  0  0  0  0
 29 37  1  0  0  0  0
 29 73  1  1  0  0  0
 30 34  1  0  0  0  0
 30 74  1  0  0  0  0
 30 75  1  0  0  0  0
 31 76  1  0  0  0  0
 31 77  1  0  0  0  0
 32 39  1  0  0  0  0
 32 78  1  0  0  0  0
 32 79  1  0  0  0  0
 33 40  1  0  0  0  0
 33 80  1  0  0  0  0
 33 81  1  0  0  0  0
 34 82  1  0  0  0  0
 34 83  1  0  0  0  0
 35 84  1  0  0  0  0
 35 85  1  0  0  0  0
 35 86  1  0  0  0  0
 36 87  1  0  0  0  0
 36 88  1  0  0  0  0
 36 89  1  0  0  0  0
 37 42  1  0  0  0  0
 37 44  1  0  0  0  0
 37 45  1  0  0  0  0
 38 43  1  0  0  0  0
 38 90  1  0  0  0  0
 38 91  1  0  0  0  0
 39 40  1  0  0  0  0
 39 46  1  1  0  0  0
 39 47  1  0  0  0  0
 40 92  1  0  0  0  0
 40 93  1  0  0  0  0
 41 94  1  0  0  0  0
 41 95  1  0  0  0  0
 41 96  1  0  0  0  0
 42 43  1  0  0  0  0
 42 97  1  0  0  0  0
 43 98  1  0  0  0  0
 43 99  1  0  0  0  0
 44101  1  0  0  0  0
 44102  1  0  0  0  0
 44103  1  0  0  0  0
 45104  1  0  0  0  0
 45105  1  0  0  0  0
 45106  1  0  0  0  0
 46107  1  0  0  0  0
 46108  1  0  0  0  0
 46109  1  0  0  0  0
 47110  1  0  0  0  0
 48 49  1  0  0  0  0
 48111  1  0  0  0  0
 49 50  1  0  0  0  0
 49112  1  0  0  0  0
 50 52  1  0  0  0  0
 50113  1  0  0  0  0
 51 52  1  0  0  0  0
 51114  1  0  0  0  0
 51115  1  0  0  0  0
 52116  1  0  0  0  0
 53 54  1  0  0  0  0
 53119  1  0  0  0  0
 54 55  1  0  0  0  0
 54120  1  0  0  0  0
 55 57  1  0  0  0  0
 55121  1  0  0  0  0
 56 57  1  0  0  0  0
 56 58  1  1  0  0  0
 56122  1  0  0  0  0
 57123  1  0  0  0  0
 58124  1  0  0  0  0
 58125  1  0  0  0  0
 59 60  1  0  0  0  0
 59126  1  0  0  0  0
 60 61  1  0  0  0  0
 60129  1  0  0  0  0
 61 63  1  0  0  0  0
 61131  1  0  0  0  0
 62 63  1  0  0  0  0
 62132  1  0  0  0  0
 62133  1  0  0  0  0
 63134  1  0  0  0  0
M  END
> <PUBCHEM_COMPOUND_CID>
44419565

> <PUBCHEM_COMPOUND_CANONICALIZED>
1

> <PUBCHEM_CACTVS_COMPLEXITY>
1700

> <PUBCHEM_CACTVS_HBOND_ACCEPTOR>
17

> <PUBCHEM_CACTVS_HBOND_DONOR>
9

> <PUBCHEM_CACTVS_ROTATABLE_BOND>
8

> <PUBCHEM_CACTVS_SUBSKEYS>
AAADcfB8PgAAAAAAAAAAAAAAAAAAASAAAAA0aNGDBIAAAEjAAAAAGgAACAAAD1SwgAMCCAAABgAIAAgQgAAAAAAAAAAAAAEAAAAREBIAAAAiQAAFAAAHAAHI7PzPgAAAAAAAAADCAAYAADAAAAAAAAAAAA==

> <PUBCHEM_IUPAC_OPENEYE_NAME>
(1S,2R,4S,5R,8R,10S,13R,14R,17S,18R,20S)-10-[(2S,3R,4R,5S)-5-[(2S,3R,4S,5S,6R)-4,5-dihydroxy-6-(hydroxymethyl)-3-[(2S,3R,4S,5R)-3,4,5-trihydroxytetrahydropyran-2-yl]oxy-tetrahydropyran-2-yl]oxy-3,4-dihydroxy-tetrahydropyran-2-yl]oxy-2-hydroxy-4,5,9,9,13,20-hexamethyl-24-oxahexacyclo[15.5.2.01,18.04,17.05,14.08,13]tetracosane-20-carbaldehyde

> <PUBCHEM_IUPAC_CAS_NAME>
(1S,2R,4S,5R,8R,10S,13R,14R,17S,18R,20S)-10-[[(2S,3R,4R,5S)-5-[[(2S,3R,4S,5S,6R)-4,5-dihydroxy-6-(hydroxymethyl)-3-[[(2S,3R,4S,5R)-3,4,5-trihydroxy-2-oxanyl]oxy]-2-oxanyl]oxy]-3,4-dihydroxy-2-oxanyl]oxy]-2-hydroxy-4,5,9,9,13,20-hexamethyl-24-oxahexacyclo[15.5.2.01,18.04,17.05,14.08,13]tetracosane-20-carboxaldehyde

> <PUBCHEM_IUPAC_NAME_MARKUP>
(1<I>S</I>,2<I>R</I>,4<I>S</I>,5<I>R</I>,8<I>R</I>,10<I>S</I>,13<I>R</I>,14<I>R</I>,17<I>S</I>,18<I>R</I>,20<I>S</I>)-10-[(2<I>S</I>,3<I>R</I>,4<I>R</I>,5<I>S</I>)-5-[(2<I>S</I>,3<I>R</I>,4<I>S</I>,5<I>S</I>,6<I>R</I>)-4,5-dihydroxy-6-(hydroxymethyl)-3-[(2<I>S</I>,3<I>R</I>,4<I>S</I>,5<I>R</I>)-3,4,5-trihydroxyoxan-2-yl]oxyoxan-2-yl]oxy-3,4-dihydroxyoxan-2-yl]oxy-2-hydroxy-4,5,9,9,13,20-hexamethyl-24-oxahexacyclo[15.5.2.0<SUP>1,18</SUP>.0<SUP>4,17</SUP>.0<SUP>5,14</SUP>.0<SUP>8,13</SUP>]tetracosane-20-carbaldehyde

> <PUBCHEM_IUPAC_NAME>
(1S,2R,4S,5R,8R,10S,13R,14R,17S,18R,20S)-10-[(2S,3R,4R,5S)-5-[(2S,3R,4S,5S,6R)-4,5-dihydroxy-6-(hydroxymethyl)-3-[(2S,3R,4S,5R)-3,4,5-trihydroxyoxan-2-yl]oxyoxan-2-yl]oxy-3,4-dihydroxyoxan-2-yl]oxy-2-hydroxy-4,5,9,9,13,20-hexamethyl-24-oxahexacyclo[15.5.2.01,18.04,17.05,14.08,13]tetracosane-20-carbaldehyde

> <PUBCHEM_IUPAC_SYSTEMATIC_NAME>
(1S,2R,4S,5R,8R,10S,13R,14R,17S,18R,20S)-10-[(2S,3R,4R,5S)-5-[(2S,3R,4S,5S,6R)-6-(hydroxymethyl)-4,5-bis(oxidanyl)-3-[(2S,3R,4S,5R)-3,4,5-tris(oxidanyl)oxan-2-yl]oxy-oxan-2-yl]oxy-3,4-bis(oxidanyl)oxan-2-yl]oxy-4,5,9,9,13,20-hexamethyl-2-oxidanyl-24-oxahexacyclo[15.5.2.01,18.04,17.05,14.08,13]tetracosane-20-carbaldehyde

> <PUBCHEM_IUPAC_TRADITIONAL_NAME>
(1S,2R,4S,5R,8R,10S,13R,14R,17S,18R,20S)-10-[(2S,3R,4R,5S)-5-[(2S,3R,4S,5S,6R)-4,5-dihydroxy-6-methylol-3-[(2S,3R,4S,5R)-3,4,5-trihydroxytetrahydropyran-2-yl]oxy-tetrahydropyran-2-yl]oxy-3,4-dihydroxy-tetrahydropyran-2-yl]oxy-2-hydroxy-4,5,9,9,13,20-hexamethyl-24-oxahexacyclo[15.5.2.01,18.04,17.05,14.08,13]tetracosane-20-carbaldehyde

> <PUBCHEM_IUPAC_INCHI>
InChI=1S/C46H74O17/c1-40(2)25-7-11-43(5)26(8-12-46-27-15-41(3,20-48)13-14-45(27,21-59-46)28(50)16-44(43,46)6)42(25,4)10-9-29(40)62-37-35(56)32(53)24(19-58-37)61-39-36(33(54)31(52)23(17-47)60-39)63-38-34(55)30(51)22(49)18-57-38/h20,22-39,47,49-56H,7-19,21H2,1-6H3/t22-,23-,24+,25+,26-,27-,28-,29+,30+,31-,32+,33+,34-,35-,36-,37+,38+,39+,41+,42+,43-,44+,45-,46+/m1/s1

> <PUBCHEM_IUPAC_INCHIKEY>
JFAKXPCWZPQXLP-KASLOCEDSA-N

> <PUBCHEM_XLOGP3_AA>
0.5

> <PUBCHEM_EXACT_MASS>
898.492601

> <PUBCHEM_MOLECULAR_FORMULA>
C46H74O17

> <PUBCHEM_MOLECULAR_WEIGHT>
899.1

> <PUBCHEM_OPENEYE_CAN_SMILES>
CC1(C2CCC3(C(C2(CCC1OC4C(C(C(CO4)OC5C(C(C(C(O5)CO)O)O)OC6C(C(C(CO6)O)O)O)O)O)C)CCC78C3(CC(C9(C7CC(CC9)(C)C=O)CO8)O)C)C)C

> <PUBCHEM_OPENEYE_ISO_SMILES>
C[C@@]1(CC[C@@]23CO[C@]4([C@@H]2C1)CC[C@@H]5[C@]6(CC[C@@H](C([C@@H]6CC[C@]5([C@@]4(C[C@H]3O)C)C)(C)C)O[C@H]7[C@@H]([C@H]([C@H](CO7)O[C@H]8[C@@H]([C@H]([C@@H]([C@H](O8)CO)O)O)O[C@H]9[C@@H]([C@H]([C@@H](CO9)O)O)O)O)O)C)C=O

> <PUBCHEM_CACTVS_TPSA>
264

> <PUBCHEM_MONOISOTOPIC_WEIGHT>
898.492601

> <PUBCHEM_TOTAL_CHARGE>
0

> <PUBCHEM_HEAVY_ATOM_COUNT>
63

> <PUBCHEM_ATOM_DEF_STEREO_COUNT>
24

> <PUBCHEM_ATOM_UDEF_STEREO_COUNT>
0

> <PUBCHEM_BOND_DEF_STEREO_COUNT>
0

> <PUBCHEM_BOND_UDEF_STEREO_COUNT>
0

> <PUBCHEM_ISOTOPIC_ATOM_COUNT>
0

> <PUBCHEM_COMPONENT_COUNT>
1

> <PUBCHEM_CACTVS_TAUTO_COUNT>
-1

> <PUBCHEM_COORDINATE_TYPE>
1
5
255

> <PUBCHEM_BONDANNOTATIONS>
54  10  6
59  10  6
55  11  5
57  12  6
60  15  5
61  16  6
63  17  5
18  35  5
19  26  6
27  2  5
20  36  6
21  64  6
22  65  5
23  33  6
24  41  6
29  73  5
42  3  6
48  3  6
39  46  5
56  58  5
49  6  5
50  7  6
52  8  6
53  8  5

$$$$
