76955678
  -OEChem-11202003253D

 28 29  0     0  0  0  0  0  0999 V2000
    0.9715    1.9247   -0.0904 O   0  0  0  0  0  0  0  0  0  0  0  0
   -3.6046    0.6626    0.0122 O   0  0  0  0  0  0  0  0  0  0  0  0
    0.1381   -3.3754   -0.9143 O   0  0  0  0  0  0  0  0  0  0  0  0
    2.2314   -1.9337    0.2627 O   0  0  0  0  0  0  0  0  0  0  0  0
    0.3947   -0.4262    0.1214 C   0  0  0  0  0  0  0  0  0  0  0  0
   -0.5931   -1.4098    0.2077 C   0  0  0  0  0  0  0  0  0  0  0  0
    0.0437    0.9176   -0.0014 C   0  0  0  0  0  0  0  0  0  0  0  0
   -1.9375   -1.0385    0.1702 C   0  0  0  0  0  0  0  0  0  0  0  0
   -1.3015    1.2857   -0.0382 C   0  0  0  0  0  0  0  0  0  0  0  0
    1.8207   -0.7864    0.1576 C   0  0  0  0  0  0  0  0  0  0  0  0
   -2.2912    0.3060    0.0478 C   0  0  0  0  0  0  0  0  0  0  0  0
   -0.2966   -2.8684    0.3404 C   0  0  0  0  0  0  0  0  0  0  0  0
    2.3149    1.5874   -0.0568 C   0  0  0  0  0  0  0  0  0  0  0  0
    2.7764    0.3334    0.0581 C   0  0  0  0  0  0  0  0  0  0  0  0
    3.2291    2.7672   -0.1624 C   0  0  0  0  0  0  0  0  0  0  0  0
   -3.8960    2.0536   -0.1143 C   0  0  0  0  0  0  0  0  0  0  0  0
   -2.7238   -1.7874    0.2332 H   0  0  0  0  0  0  0  0  0  0  0  0
   -1.5150    2.3451   -0.1346 H   0  0  0  0  0  0  0  0  0  0  0  0
    0.4354   -3.0796    1.1257 H   0  0  0  0  0  0  0  0  0  0  0  0
   -1.1977   -3.4264    0.6222 H   0  0  0  0  0  0  0  0  0  0  0  0
    3.8353    0.1035    0.0812 H   0  0  0  0  0  0  0  0  0  0  0  0
    3.0519    3.2992   -1.1027 H   0  0  0  0  0  0  0  0  0  0  0  0
    4.2845    2.4770   -0.1341 H   0  0  0  0  0  0  0  0  0  0  0  0
    3.0486    3.4601    0.6657 H   0  0  0  0  0  0  0  0  0  0  0  0
    0.3138   -4.3241   -0.7932 H   0  0  0  0  0  0  0  0  0  0  0  0
   -4.9862    2.1553   -0.1263 H   0  0  0  0  0  0  0  0  0  0  0  0
   -3.5275    2.4576   -1.0634 H   0  0  0  0  0  0  0  0  0  0  0  0
   -3.5322    2.6214    0.7487 H   0  0  0  0  0  0  0  0  0  0  0  0
  1  7  1  0  0  0  0
  1 13  1  0  0  0  0
  2 11  1  0  0  0  0
  2 16  1  0  0  0  0
  3 12  1  0  0  0  0
  3 25  1  0  0  0  0
  4 10  2  0  0  0  0
  5  6  2  0  0  0  0
  5  7  1  0  0  0  0
  5 10  1  0  0  0  0
  6  8  1  0  0  0  0
  6 12  1  0  0  0  0
  7  9  2  0  0  0  0
  8 11  2  0  0  0  0
  8 17  1  0  0  0  0
  9 11  1  0  0  0  0
  9 18  1  0  0  0  0
 10 14  1  0  0  0  0
 12 19  1  0  0  0  0
 12 20  1  0  0  0  0
 13 14  2  0  0  0  0
 13 15  1  0  0  0  0
 14 21  1  0  0  0  0
 15 22  1  0  0  0  0
 15 23  1  0  0  0  0
 15 24  1  0  0  0  0
 16 26  1  0  0  0  0
 16 27  1  0  0  0  0
 16 28  1  0  0  0  0
M  END
> <PUBCHEM_COMPOUND_CID>
76955678

> <PUBCHEM_CONFORMER_RMSD>
0.6

> <PUBCHEM_CONFORMER_DIVERSEORDER>
1
2

> <PUBCHEM_MMFF94_PARTIAL_CHARGES>
20
1 -0.16
10 0.47
11 0.08
12 0.42
13 -0.06
14 -0.14
15 0.14
16 0.28
17 0.15
18 0.15
2 -0.36
21 0.15
25 0.4
3 -0.68
4 -0.57
5 0.09
6 -0.14
7 0.08
8 -0.15
9 -0.15

> <PUBCHEM_EFFECTIVE_ROTOR_COUNT>
2

> <PUBCHEM_PHARMACOPHORE_FEATURES>
7
1 1 acceptor
1 2 acceptor
1 3 acceptor
1 3 donor
1 4 acceptor
6 1 5 7 10 13 14 rings
6 5 6 7 8 9 11 rings

> <PUBCHEM_HEAVY_ATOM_COUNT>
16

> <PUBCHEM_ATOM_DEF_STEREO_COUNT>
0

> <PUBCHEM_ATOM_UDEF_STEREO_COUNT>
0

> <PUBCHEM_BOND_DEF_STEREO_COUNT>
0

> <PUBCHEM_BOND_UDEF_STEREO_COUNT>
0

> <PUBCHEM_ISOTOPIC_ATOM_COUNT>
0

> <PUBCHEM_COMPONENT_COUNT>
1

> <PUBCHEM_CACTVS_TAUTO_COUNT>
3

> <PUBCHEM_CONFORMER_ID>
0496401E00000001

> <PUBCHEM_MMFF94_ENERGY>
52.671

> <PUBCHEM_FEATURE_SELFOVERLAP>
35.554

> <PUBCHEM_SHAPE_FINGERPRINT>
1 1 18337670811048315303
10411042 1 17257370744234947099
10608611 8 18408603690516930385
10967382 1 18265895744058809145
11471102 20 18265045826282483925
11680986 33 18335709355361102490
12500047 106 18268144434580520384
13140716 1 18408604738620293649
13380535 76 18338230574077850666
13380536 305 18338521833011186566
13897977 150 18408602535381315069
14178342 30 18048864484335913192
14614273 12 17899116493568588646
14648413 74 18336268938001998579
14817 1 17833010586005240551
16945 1 18195815067864809243
18186145 218 18342746178260541957
193761 8 18337673147558256834
20510252 161 18198350756527338497
20511035 2 18187659027832856842
20645477 70 18264764377381402301
20871998 184 17979084004300688099
21501502 16 18337101388568538354
21524375 3 18335132124609604393
2334 1 18338234967892691505
23559900 14 18199759201702247788
238 59 17539364840583300229
25 1 18335983047951966197
2748010 2 18408893953001574655
3060560 45 18268990895140138478
3071541 12 18195532489202985137
3091708 16 9119506108512588707
5939293 188 18192988214700534050
7364860 26 18196371416400729543
81228 2 17760359294537898643
8272917 22 18268433426103147589
84936 182 18201432549991566033

> <PUBCHEM_SHAPE_MULTIPOLES>
305.8
5.1
3.48
0.65
1.38
1.77
-0.03
-4.57
-0.05
-0.39
-0.41
0
0.16
-0.05

> <PUBCHEM_SHAPE_SELFOVERLAP>
660.482

> <PUBCHEM_SHAPE_VOLUME>
168.9

> <PUBCHEM_COORDINATE_TYPE>
2
5
10

$$$$
