5242842
  -OEChem-11202003283D

 30 31  0     0  0  0  0  0  0999 V2000
   -0.9504   -1.3862    0.0870 O   0  0  0  0  0  0  0  0  0  0  0  0
    1.0614   -0.1454   -2.3982 O   0  0  0  0  0  0  0  0  0  0  0  0
   -3.4426    1.9166   -0.1298 O   0  0  0  0  0  0  0  0  0  0  0  0
    5.1774    0.2776   -0.0449 O   0  0  0  0  0  0  0  0  0  0  0  0
   -2.7572   -2.7628    0.1627 O   0  0  0  0  0  0  0  0  0  0  0  0
    1.0342    0.0274    0.0007 C   0  0  0  0  0  0  0  0  0  0  0  0
    1.7381    0.1577    1.1979 C   0  0  0  0  0  0  0  0  0  0  0  0
   -0.4376   -0.0645    0.0105 C   0  0  0  0  0  0  0  0  0  0  0  0
    1.7224   -0.0187   -1.2118 C   0  0  0  0  0  0  0  0  0  0  0  0
    3.1303    0.2420    1.1826 C   0  0  0  0  0  0  0  0  0  0  0  0
    3.1146    0.0656   -1.2270 C   0  0  0  0  0  0  0  0  0  0  0  0
    1.0368    0.2086    2.5175 C   0  0  0  0  0  0  0  0  0  0  0  0
   -1.2582    0.9933   -0.0638 C   0  0  0  0  0  0  0  0  0  0  0  0
    3.8185    0.1959   -0.0298 C   0  0  0  0  0  0  0  0  0  0  0  0
   -2.6769    0.7768   -0.0549 C   0  0  0  0  0  0  0  0  0  0  0  0
   -3.1917   -0.4553    0.0195 C   0  0  0  0  0  0  0  0  0  0  0  0
   -2.2978   -1.6276    0.0959 C   0  0  0  0  0  0  0  0  0  0  0  0
   -4.8211    1.5989   -0.1141 C   0  0  0  0  0  0  0  0  0  0  0  0
    3.6903    0.3439    2.1091 H   0  0  0  0  0  0  0  0  0  0  0  0
   -0.8793    2.0076   -0.1300 H   0  0  0  0  0  0  0  0  0  0  0  0
    3.6457    0.0292   -2.1750 H   0  0  0  0  0  0  0  0  0  0  0  0
    1.7446    0.2501    3.3529 H   0  0  0  0  0  0  0  0  0  0  0  0
    0.4221   -0.6855    2.6654 H   0  0  0  0  0  0  0  0  0  0  0  0
    0.4056    1.1008    2.5840 H   0  0  0  0  0  0  0  0  0  0  0  0
   -4.2444   -0.7076    0.0308 H   0  0  0  0  0  0  0  0  0  0  0  0
    0.1073   -0.2481   -2.2564 H   0  0  0  0  0  0  0  0  0  0  0  0
    5.4859    0.2295   -0.9661 H   0  0  0  0  0  0  0  0  0  0  0  0
   -5.1343    1.1353    0.8291 H   0  0  0  0  0  0  0  0  0  0  0  0
   -5.3653    2.5484   -0.1750 H   0  0  0  0  0  0  0  0  0  0  0  0
   -5.1287    1.0213   -0.9941 H   0  0  0  0  0  0  0  0  0  0  0  0
  1  8  1  0  0  0  0
  1 17  1  0  0  0  0
  2  9  1  0  0  0  0
  2 26  1  0  0  0  0
  3 15  1  0  0  0  0
  3 18  1  0  0  0  0
  4 14  1  0  0  0  0
  4 27  1  0  0  0  0
  5 17  2  0  0  0  0
  6  7  1  0  0  0  0
  6  8  1  0  0  0  0
  6  9  2  0  0  0  0
  7 10  2  0  0  0  0
  7 12  1  0  0  0  0
  8 13  2  0  0  0  0
  9 11  1  0  0  0  0
 10 14  1  0  0  0  0
 10 19  1  0  0  0  0
 11 14  2  0  0  0  0
 11 21  1  0  0  0  0
 12 22  1  0  0  0  0
 12 23  1  0  0  0  0
 12 24  1  0  0  0  0
 13 15  1  0  0  0  0
 13 20  1  0  0  0  0
 15 16  2  0  0  0  0
 16 17  1  0  0  0  0
 16 25  1  0  0  0  0
 18 28  1  0  0  0  0
 18 29  1  0  0  0  0
 18 30  1  0  0  0  0
M  END
> <PUBCHEM_COMPOUND_CID>
5242842

> <PUBCHEM_CONFORMER_RMSD>
0.6

> <PUBCHEM_CONFORMER_DIVERSEORDER>
1
3
2

> <PUBCHEM_MMFF94_PARTIAL_CHARGES>
24
1 -0.23
10 -0.15
11 -0.15
12 0.14
13 -0.15
14 0.08
15 0.08
16 -0.14
17 0.71
18 0.28
19 0.15
2 -0.53
20 0.15
21 0.15
25 0.15
26 0.45
27 0.45
3 -0.36
4 -0.53
5 -0.57
6 0.03
7 -0.14
8 0.05
9 0.08

> <PUBCHEM_EFFECTIVE_ROTOR_COUNT>
2

> <PUBCHEM_PHARMACOPHORE_FEATURES>
6
1 2 donor
1 3 acceptor
1 4 donor
1 5 acceptor
6 1 8 13 15 16 17 rings
6 6 7 9 10 11 14 rings

> <PUBCHEM_HEAVY_ATOM_COUNT>
18

> <PUBCHEM_ATOM_DEF_STEREO_COUNT>
0

> <PUBCHEM_ATOM_UDEF_STEREO_COUNT>
0

> <PUBCHEM_BOND_DEF_STEREO_COUNT>
0

> <PUBCHEM_BOND_UDEF_STEREO_COUNT>
0

> <PUBCHEM_ISOTOPIC_ATOM_COUNT>
0

> <PUBCHEM_COMPONENT_COUNT>
1

> <PUBCHEM_CACTVS_TAUTO_COUNT>
33

> <PUBCHEM_CONFORMER_ID>
004FFFDA00000001

> <PUBCHEM_MMFF94_ENERGY>
62.8727

> <PUBCHEM_FEATURE_SELFOVERLAP>
30.446

> <PUBCHEM_SHAPE_FINGERPRINT>
10366900 7 17561079185598095113
11471102 20 16272204180903321728
11796584 16 18342179930321195022
12236239 1 17603585235554178504
124424 183 17775564221805675674
12500047 106 18412541002974618031
13134695 92 16415480433096313080
13538477 17 18040432209329165113
13583140 156 18060129968794348014
13760787 19 18335137583771688994
13760787 5 15791729716031773166
13965767 371 17102565047019479973
15219456 202 17703506692033943224
15309172 13 15140963967290251616
15375358 24 17775003470622380245
15653759 3 18202282545520017626
15775835 57 17967251970695642593
16752209 62 18262506105015481451
16945 1 18342469114077789009
18219364 16 16773798138077386086
19049666 15 17774735151193820163
19422 9 17749387087489328874
200 152 16081363098710836267
20279233 1 17847065479870740943
20645477 56 18410295791962596157
20645477 70 16629969819757754668
21639500 275 15697707220443248410
22112679 90 17894351111410704181
23175994 123 17131844182915450648
23402539 116 18342450430848946804
23493267 7 18272086080480550122
23526113 38 17417535696160317134
23557571 272 18271812357977915013
23559900 14 18271250430891472238
2748010 2 15696294421691187608
3472631 163 18334859419967266245
474 4 16951700288126142868
6049 1 17917147333265588417
77492 1 17530962509777523626

> <PUBCHEM_SHAPE_MULTIPOLES>
341.08
8.09
1.6
1.57
0.03
0.66
0.19
-2.17
-1.13
2.28
0.29
-1.01
-0.03
1.37

> <PUBCHEM_SHAPE_SELFOVERLAP>
737.535

> <PUBCHEM_SHAPE_VOLUME>
187.6

> <PUBCHEM_COORDINATE_TYPE>
2
5
10

$$$$
