14989
  -OEChem-11202003323D

 52 55  0     1  0  0  0  0  0999 V2000
   -1.9344    0.8837    0.8232 O   0  0  0  0  0  0  0  0  0  0  0  0
    0.9950    2.0165   -1.0873 O   0  0  0  0  0  0  0  0  0  0  0  0
   -1.1648    2.3365   -2.9460 O   0  0  0  0  0  0  0  0  0  0  0  0
   -3.6275    3.0449   -1.6214 O   0  0  0  0  0  0  0  0  0  0  0  0
   -4.3174    1.1533    2.1500 O   0  0  0  0  0  0  0  0  0  0  0  0
    2.8348   -1.4086   -1.5421 O   0  0  0  0  0  0  0  0  0  0  0  0
    1.4248   -3.5706   -1.6703 O   0  0  0  0  0  0  0  0  0  0  0  0
    4.8502    0.0137   -0.7695 O   0  0  0  0  0  0  0  0  0  0  0  0
   -3.7445   -3.3260    0.0048 O   0  0  0  0  0  0  0  0  0  0  0  0
   -0.5874    1.3177    0.6185 C   0  0  1  0  0  0  0  0  0  0  0  0
    0.3233    0.2843    1.2739 C   0  0  1  0  0  0  0  0  0  0  0  0
   -0.3054    1.4714   -0.8800 C   0  0  1  0  0  0  0  0  0  0  0  0
   -1.3234    2.4103   -1.5277 C   0  0  2  0  0  0  0  0  0  0  0  0
   -2.7552    2.0159   -1.1622 C   0  0  1  0  0  0  0  0  0  0  0  0
   -2.8966    1.8309    0.3522 C   0  0  1  0  0  0  0  0  0  0  0  0
    0.0439   -1.0885    0.6967 C   0  0  0  0  0  0  0  0  0  0  0  0
    1.7696    0.7185    1.1497 C   0  0  0  0  0  0  0  0  0  0  0  0
    0.9127   -1.6928   -0.2202 C   0  0  0  0  0  0  0  0  0  0  0  0
   -4.2745    1.3055    0.7427 C   0  0  0  0  0  0  0  0  0  0  0  0
    2.6427    0.1185    0.2339 C   0  0  0  0  0  0  0  0  0  0  0  0
    2.1833   -1.0280   -0.5779 C   0  0  0  0  0  0  0  0  0  0  0  0
   -1.1345   -1.7659    1.0516 C   0  0  0  0  0  0  0  0  0  0  0  0
    2.2487    1.7769    1.9394 C   0  0  0  0  0  0  0  0  0  0  0  0
    0.6051   -2.9376   -0.7835 C   0  0  0  0  0  0  0  0  0  0  0  0
    3.9599    0.5745    0.0974 C   0  0  0  0  0  0  0  0  0  0  0  0
   -1.4391   -3.0093    0.4965 C   0  0  0  0  0  0  0  0  0  0  0  0
   -0.5718   -3.5921   -0.4233 C   0  0  0  0  0  0  0  0  0  0  0  0
    3.5626    2.2282    1.8091 C   0  0  0  0  0  0  0  0  0  0  0  0
    4.4158    1.6297    0.8861 C   0  0  0  0  0  0  0  0  0  0  0  0
   -2.6960   -3.7113    0.8855 C   0  0  0  0  0  0  0  0  0  0  0  0
   -0.4505    2.2851    1.1219 H   0  0  0  0  0  0  0  0  0  0  0  0
    0.0920    0.2169    2.3471 H   0  0  0  0  0  0  0  0  0  0  0  0
   -0.3555    0.5103   -1.4037 H   0  0  0  0  0  0  0  0  0  0  0  0
   -1.1312    3.4536   -1.2466 H   0  0  0  0  0  0  0  0  0  0  0  0
   -3.0264    1.0903   -1.6857 H   0  0  0  0  0  0  0  0  0  0  0  0
   -2.7361    2.7822    0.8773 H   0  0  0  0  0  0  0  0  0  0  0  0
   -4.4708    0.3256    0.2947 H   0  0  0  0  0  0  0  0  0  0  0  0
   -5.0686    1.9957    0.4442 H   0  0  0  0  0  0  0  0  0  0  0  0
   -1.8112   -1.3388    1.7883 H   0  0  0  0  0  0  0  0  0  0  0  0
    1.1942    1.9562   -2.0365 H   0  0  0  0  0  0  0  0  0  0  0  0
    1.5941    2.2623    2.6594 H   0  0  0  0  0  0  0  0  0  0  0  0
   -0.3007    2.7225   -3.1669 H   0  0  0  0  0  0  0  0  0  0  0  0
   -3.4939    3.1344   -2.5805 H   0  0  0  0  0  0  0  0  0  0  0  0
   -0.8061   -4.5602   -0.8599 H   0  0  0  0  0  0  0  0  0  0  0  0
    3.9177    3.0489    2.4254 H   0  0  0  0  0  0  0  0  0  0  0  0
    5.4361    1.9941    0.7980 H   0  0  0  0  0  0  0  0  0  0  0  0
   -3.6054    0.5403    2.4012 H   0  0  0  0  0  0  0  0  0  0  0  0
   -2.5720   -4.7986    0.8336 H   0  0  0  0  0  0  0  0  0  0  0  0
   -2.9862   -3.4606    1.9119 H   0  0  0  0  0  0  0  0  0  0  0  0
    2.2537   -3.0801   -1.7789 H   0  0  0  0  0  0  0  0  0  0  0  0
    5.7039    0.4746   -0.7036 H   0  0  0  0  0  0  0  0  0  0  0  0
   -4.5443   -3.8002    0.2894 H   0  0  0  0  0  0  0  0  0  0  0  0
  1 10  1  0  0  0  0
  1 15  1  0  0  0  0
  2 12  1  0  0  0  0
  2 40  1  0  0  0  0
  3 13  1  0  0  0  0
  3 42  1  0  0  0  0
  4 14  1  0  0  0  0
  4 43  1  0  0  0  0
  5 19  1  0  0  0  0
  5 47  1  0  0  0  0
  6 21  2  0  0  0  0
  7 24  1  0  0  0  0
  7 50  1  0  0  0  0
  8 25  1  0  0  0  0
  8 51  1  0  0  0  0
  9 30  1  0  0  0  0
  9 52  1  0  0  0  0
 10 11  1  0  0  0  0
 10 12  1  0  0  0  0
 10 31  1  0  0  0  0
 11 16  1  0  0  0  0
 11 17  1  0  0  0  0
 11 32  1  0  0  0  0
 12 13  1  0  0  0  0
 12 33  1  0  0  0  0
 13 14  1  0  0  0  0
 13 34  1  0  0  0  0
 14 15  1  0  0  0  0
 14 35  1  0  0  0  0
 15 19  1  0  0  0  0
 15 36  1  0  0  0  0
 16 18  2  0  0  0  0
 16 22  1  0  0  0  0
 17 20  2  0  0  0  0
 17 23  1  0  0  0  0
 18 21  1  0  0  0  0
 18 24  1  0  0  0  0
 19 37  1  0  0  0  0
 19 38  1  0  0  0  0
 20 21  1  0  0  0  0
 20 25  1  0  0  0  0
 22 26  2  0  0  0  0
 22 39  1  0  0  0  0
 23 28  2  0  0  0  0
 23 41  1  0  0  0  0
 24 27  2  0  0  0  0
 25 29  2  0  0  0  0
 26 27  1  0  0  0  0
 26 30  1  0  0  0  0
 27 44  1  0  0  0  0
 28 29  1  0  0  0  0
 28 45  1  0  0  0  0
 29 46  1  0  0  0  0
 30 48  1  0  0  0  0
 30 49  1  0  0  0  0
M  END
> <PUBCHEM_COMPOUND_CID>
14989

> <PUBCHEM_CONFORMER_RMSD>
0.8

> <PUBCHEM_CONFORMER_DIVERSEORDER>
1
2
3

> <PUBCHEM_MMFF94_PARTIAL_CHARGES>
42
1 -0.56
10 0.28
11 0.29
12 0.28
13 0.28
14 0.28
15 0.28
16 -0.14
17 -0.14
18 0.09
19 0.28
2 -0.68
20 0.09
21 0.4
22 -0.15
23 -0.15
24 0.08
25 0.08
26 -0.14
27 -0.15
28 -0.15
29 -0.15
3 -0.68
30 0.42
39 0.15
4 -0.68
40 0.4
41 0.15
42 0.4
43 0.4
44 0.15
45 0.15
46 0.15
47 0.4
5 -0.68
50 0.45
51 0.45
52 0.4
6 -0.57
7 -0.53
8 -0.53
9 -0.68

> <PUBCHEM_EFFECTIVE_ROTOR_COUNT>
4.4

> <PUBCHEM_PHARMACOPHORE_FEATURES>
18
1 1 acceptor
1 2 acceptor
1 2 donor
1 3 acceptor
1 3 donor
1 4 acceptor
1 4 donor
1 5 acceptor
1 5 donor
1 6 acceptor
1 7 donor
1 8 donor
1 9 acceptor
1 9 donor
6 1 10 12 13 14 15 rings
6 11 16 17 18 20 21 rings
6 16 18 22 24 26 27 rings
6 17 20 23 25 28 29 rings

> <PUBCHEM_HEAVY_ATOM_COUNT>
30

> <PUBCHEM_ATOM_DEF_STEREO_COUNT>
6

> <PUBCHEM_ATOM_UDEF_STEREO_COUNT>
0

> <PUBCHEM_BOND_DEF_STEREO_COUNT>
0

> <PUBCHEM_BOND_UDEF_STEREO_COUNT>
0

> <PUBCHEM_ISOTOPIC_ATOM_COUNT>
0

> <PUBCHEM_COMPONENT_COUNT>
1

> <PUBCHEM_CACTVS_TAUTO_COUNT>
89

> <PUBCHEM_CONFORMER_ID>
00003A8D00000001

> <PUBCHEM_MMFF94_ENERGY>
99.4174

> <PUBCHEM_FEATURE_SELFOVERLAP>
91.413

> <PUBCHEM_SHAPE_FINGERPRINT>
10064457 181 18270135534332210913
10165383 225 18267041495584426056
10871710 139 17610927946562835068
11578080 2 18127422348473898720
11640471 11 13481711770334907565
12035758 1 18341047411758401898
12035759 4 17468775433644171556
12156800 1 18123502558891214719
12160290 23 17979601796930789594
12422481 6 18194141796120291907
12788726 201 17826221080555901960
13004483 165 17760348282141602952
13140716 1 18342458132147418778
13149001 5 18198912400810838062
13583140 156 16588287402484236904
13681431 1 17259880941822546664
13911987 19 17545054701530537598
140371 6 18048045356795231811
14840074 17 16822194495864437600
15324884 4 18043263340297003257
16945 1 17914602865758958600
17357779 13 18125427859570317191
1813 80 17612299054610333834
20600515 1 16598678014936359264
21033648 29 18337942407532635168
21285901 2 18126571347252393814
22182313 1 18058727052440152784
22907989 373 18265329706351352796
23419403 2 17343820141888412788
23559900 14 18202005422326340296
238 59 17978768143784092629
3052486 1 18187365492630170611
3380486 77 17462544423913825707
350125 39 18127701632953205320
4340502 62 18272941505302241505
4409770 3 18123726889475763630
469060 322 17604978390038437321
495365 180 17830711193975822469
5845 1 11008179064356017096
6287921 2 18265352632987044277
633830 44 17775281638511781256
81228 2 18045771544883024098
9925002 15 17971202662367165917
9981440 41 15834176503919065480

> <PUBCHEM_SHAPE_MULTIPOLES>
564.56
7.07
4.82
1.93
1.98
3.76
0.47
-3.18
-1.84
-4.36
1.43
-0.29
-1.2
2.28

> <PUBCHEM_SHAPE_SELFOVERLAP>
1249.552

> <PUBCHEM_SHAPE_VOLUME>
296.9

> <PUBCHEM_COORDINATE_TYPE>
2
5
10

$$$$
