102435797
  -OEChem-11202003303D

 69 72  0     1  0  0  0  0  0999 V2000
    3.6641    0.4507    1.1781 O   0  0  0  0  0  0  0  0  0  0  0  0
    1.4231   -0.1725    0.9939 O   0  0  0  0  0  0  0  0  0  0  0  0
    0.8243    2.3786   -0.0744 O   0  0  0  0  0  0  0  0  0  0  0  0
    2.7169    4.4342    0.8601 O   0  0  0  0  0  0  0  0  0  0  0  0
    5.4421    3.5665    0.4407 O   0  0  0  0  0  0  0  0  0  0  0  0
    6.2293   -0.5349    1.1225 O   0  0  0  0  0  0  0  0  0  0  0  0
   -0.2791    1.7518    0.6409 O   0  0  0  0  0  0  0  0  0  0  0  0
    1.4007   -0.9512   -2.3489 O   0  0  0  0  0  0  0  0  0  0  0  0
    3.2080   -4.2020    2.8003 O   0  0  0  0  0  0  0  0  0  0  0  0
   -1.4683    2.5599   -1.1716 O   0  0  0  0  0  0  0  0  0  0  0  0
   -2.7179   -0.5358   -2.5289 O   0  0  0  0  0  0  0  0  0  0  0  0
    1.6185    0.2277   -4.2797 O   0  0  0  0  0  0  0  0  0  0  0  0
   -8.3753   -0.8102    2.4071 O   0  0  0  0  0  0  0  0  0  0  0  0
    3.0709    3.1413    0.3668 C   0  0  1  0  0  0  0  0  0  0  0  0
    4.4113    2.7487    0.9883 C   0  0  1  0  0  0  0  0  0  0  0  0
    1.9762    2.1392    0.7339 C   0  0  2  0  0  0  0  0  0  0  0  0
    4.7299    1.2781    0.7085 C   0  0  1  0  0  0  0  0  0  0  0  0
    2.4368    0.7009    0.4972 C   0  0  1  0  0  0  0  0  0  0  0  0
    6.0050    0.8318    1.4169 C   0  0  0  0  0  0  0  0  0  0  0  0
    1.6542   -1.5147    0.8646 C   0  0  0  0  0  0  0  0  0  0  0  0
    1.2450   -2.2151   -0.2700 C   0  0  0  0  0  0  0  0  0  0  0  0
    2.3138   -2.1824    1.8963 C   0  0  0  0  0  0  0  0  0  0  0  0
    1.4952   -3.5835   -0.3729 C   0  0  0  0  0  0  0  0  0  0  0  0
    0.5478   -1.5039   -1.3576 C   0  0  0  0  0  0  0  0  0  0  0  0
    2.5642   -3.5508    1.7935 C   0  0  0  0  0  0  0  0  0  0  0  0
    2.1549   -4.2514    0.6588 C   0  0  0  0  0  0  0  0  0  0  0  0
    1.0716   -4.3693   -1.5725 C   0  0  0  0  0  0  0  0  0  0  0  0
   -1.3967    1.9641   -0.1085 C   0  0  0  0  0  0  0  0  0  0  0  0
   -0.7829   -1.3558   -1.4280 C   0  0  0  0  0  0  0  0  0  0  0  0
   -2.5335    1.3342    0.6007 C   0  0  0  0  0  0  0  0  0  0  0  0
   -1.3463   -0.6344   -2.5333 C   0  0  0  0  0  0  0  0  0  0  0  0
    0.8960   -0.2553   -3.4142 C   0  0  0  0  0  0  0  0  0  0  0  0
   -0.5707   -0.1044   -3.4852 C   0  0  0  0  0  0  0  0  0  0  0  0
   -3.7621    1.3987    0.0682 C   0  0  0  0  0  0  0  0  0  0  0  0
   -4.9709    0.8199    0.6807 C   0  0  0  0  0  0  0  0  0  0  0  0
   -3.1771    0.1904   -3.6544 C   0  0  0  0  0  0  0  0  0  0  0  0
   -4.8529   -0.1825    1.6434 C   0  0  0  0  0  0  0  0  0  0  0  0
   -6.2329    1.2743    0.2978 C   0  0  0  0  0  0  0  0  0  0  0  0
   -5.9970   -0.7306    2.2233 C   0  0  0  0  0  0  0  0  0  0  0  0
   -7.3769    0.7261    0.8776 C   0  0  0  0  0  0  0  0  0  0  0  0
   -7.2591   -0.2763    1.8404 C   0  0  0  0  0  0  0  0  0  0  0  0
    3.1555    3.2413   -0.7217 H   0  0  0  0  0  0  0  0  0  0  0  0
    4.3853    2.9351    2.0689 H   0  0  0  0  0  0  0  0  0  0  0  0
    1.6996    2.2838    1.7879 H   0  0  0  0  0  0  0  0  0  0  0  0
    4.8603    1.1005   -0.3678 H   0  0  0  0  0  0  0  0  0  0  0  0
    2.5689    0.5201   -0.5762 H   0  0  0  0  0  0  0  0  0  0  0  0
    5.9008    0.9258    2.5030 H   0  0  0  0  0  0  0  0  0  0  0  0
    6.8726    1.4099    1.0849 H   0  0  0  0  0  0  0  0  0  0  0  0
    2.6185    4.3737    1.8256 H   0  0  0  0  0  0  0  0  0  0  0  0
    5.4820    3.3988   -0.5163 H   0  0  0  0  0  0  0  0  0  0  0  0
    7.0415   -0.7992    1.5873 H   0  0  0  0  0  0  0  0  0  0  0  0
    2.6295   -1.6407    2.7845 H   0  0  0  0  0  0  0  0  0  0  0  0
    2.3521   -5.3181    0.5840 H   0  0  0  0  0  0  0  0  0  0  0  0
    1.4053   -5.4114   -1.5151 H   0  0  0  0  0  0  0  0  0  0  0  0
    1.5037   -3.9471   -2.4858 H   0  0  0  0  0  0  0  0  0  0  0  0
   -0.0199   -4.3833   -1.6576 H   0  0  0  0  0  0  0  0  0  0  0  0
   -1.4451   -1.7663   -0.6730 H   0  0  0  0  0  0  0  0  0  0  0  0
   -2.3185    0.8535    1.5480 H   0  0  0  0  0  0  0  0  0  0  0  0
    3.2971   -5.1410    2.5628 H   0  0  0  0  0  0  0  0  0  0  0  0
   -0.9116    0.4534   -4.3481 H   0  0  0  0  0  0  0  0  0  0  0  0
   -3.9232    1.9166   -0.8745 H   0  0  0  0  0  0  0  0  0  0  0  0
   -4.2701    0.2275   -3.5818 H   0  0  0  0  0  0  0  0  0  0  0  0
   -2.9559   -0.3186   -4.6001 H   0  0  0  0  0  0  0  0  0  0  0  0
   -2.8411    1.2341   -3.6447 H   0  0  0  0  0  0  0  0  0  0  0  0
   -3.8929   -0.5816    1.9571 H   0  0  0  0  0  0  0  0  0  0  0  0
   -6.3436    2.0554   -0.4503 H   0  0  0  0  0  0  0  0  0  0  0  0
   -5.8924   -1.5141    2.9691 H   0  0  0  0  0  0  0  0  0  0  0  0
   -8.3574    1.0843    0.5756 H   0  0  0  0  0  0  0  0  0  0  0  0
   -8.1082   -1.4886    3.0509 H   0  0  0  0  0  0  0  0  0  0  0  0
  1 17  1  0  0  0  0
  1 18  1  0  0  0  0
  2 18  1  0  0  0  0
  2 20  1  0  0  0  0
  3  7  1  0  0  0  0
  3 16  1  0  0  0  0
  4 14  1  0  0  0  0
  4 49  1  0  0  0  0
  5 15  1  0  0  0  0
  5 50  1  0  0  0  0
  6 19  1  0  0  0  0
  6 51  1  0  0  0  0
  7 28  1  0  0  0  0
  8 24  1  0  0  0  0
  8 32  1  0  0  0  0
  9 25  1  0  0  0  0
  9 59  1  0  0  0  0
 10 28  2  0  0  0  0
 11 31  1  0  0  0  0
 11 36  1  0  0  0  0
 12 32  2  0  0  0  0
 13 41  1  0  0  0  0
 13 69  1  0  0  0  0
 14 15  1  0  0  0  0
 14 16  1  0  0  0  0
 14 42  1  0  0  0  0
 15 17  1  0  0  0  0
 15 43  1  0  0  0  0
 16 18  1  0  0  0  0
 16 44  1  0  0  0  0
 17 19  1  0  0  0  0
 17 45  1  0  0  0  0
 18 46  1  0  0  0  0
 19 47  1  0  0  0  0
 19 48  1  0  0  0  0
 20 21  2  0  0  0  0
 20 22  1  0  0  0  0
 21 23  1  0  0  0  0
 21 24  1  0  0  0  0
 22 25  2  0  0  0  0
 22 52  1  0  0  0  0
 23 26  2  0  0  0  0
 23 27  1  0  0  0  0
 24 29  2  0  0  0  0
 25 26  1  0  0  0  0
 26 53  1  0  0  0  0
 27 54  1  0  0  0  0
 27 55  1  0  0  0  0
 27 56  1  0  0  0  0
 28 30  1  0  0  0  0
 29 31  1  0  0  0  0
 29 57  1  0  0  0  0
 30 34  2  0  0  0  0
 30 58  1  0  0  0  0
 31 33  2  0  0  0  0
 32 33  1  0  0  0  0
 33 60  1  0  0  0  0
 34 35  1  0  0  0  0
 34 61  1  0  0  0  0
 35 37  2  0  0  0  0
 35 38  1  0  0  0  0
 36 62  1  0  0  0  0
 36 63  1  0  0  0  0
 36 64  1  0  0  0  0
 37 39  1  0  0  0  0
 37 65  1  0  0  0  0
 38 40  2  0  0  0  0
 38 66  1  0  0  0  0
 39 41  2  0  0  0  0
 39 67  1  0  0  0  0
 40 41  1  0  0  0  0
 40 68  1  0  0  0  0
M  END
> <PUBCHEM_COMPOUND_CID>
102435797

> <PUBCHEM_CONFORMER_RMSD>
1.2

> <PUBCHEM_CONFORMER_DIVERSEORDER>
1
58
51
24
34
13
31
40
10
35
44
67
43
60
11
66
22
49
48
3
33
32
65
54
28
59
16
64
21
39
46
56
52
27
15
8
61
23
9
20
25
19
62
41
45
37
57
50
4
42
30
63
47
55
14
53
5
36
6
29
7
12
38
18
2
26
17

> <PUBCHEM_MMFF94_PARTIAL_CHARGES>
56
1 -0.56
10 -0.57
11 -0.36
12 -0.57
13 -0.53
14 0.28
15 0.28
16 0.28
17 0.28
18 0.56
19 0.28
2 -0.36
20 0.08
21 0.03
22 -0.15
23 -0.14
24 0.05
25 0.08
26 -0.15
27 0.14
28 0.71
29 -0.15
3 -0.28
30 -0.14
31 0.08
32 0.71
33 -0.14
34 -0.18
35 0.03
36 0.28
37 -0.15
38 -0.15
39 -0.15
4 -0.68
40 -0.15
41 0.08
49 0.4
5 -0.68
50 0.4
51 0.4
52 0.15
53 0.15
57 0.15
58 0.15
59 0.45
6 -0.68
60 0.15
61 0.15
65 0.15
66 0.15
67 0.15
68 0.15
69 0.45
7 -0.15
8 -0.23
9 -0.53

> <PUBCHEM_EFFECTIVE_ROTOR_COUNT>
11.2

> <PUBCHEM_PHARMACOPHORE_FEATURES>
17
1 1 acceptor
1 10 acceptor
1 11 acceptor
1 12 acceptor
1 13 donor
1 2 acceptor
1 4 acceptor
1 4 donor
1 5 acceptor
1 5 donor
1 6 acceptor
1 6 donor
1 9 donor
6 1 14 15 16 17 18 rings
6 20 21 22 23 25 26 rings
6 35 37 38 39 40 41 rings
6 8 24 29 31 32 33 rings

> <PUBCHEM_HEAVY_ATOM_COUNT>
41

> <PUBCHEM_ATOM_DEF_STEREO_COUNT>
5

> <PUBCHEM_ATOM_UDEF_STEREO_COUNT>
0

> <PUBCHEM_BOND_DEF_STEREO_COUNT>
1

> <PUBCHEM_BOND_UDEF_STEREO_COUNT>
0

> <PUBCHEM_ISOTOPIC_ATOM_COUNT>
0

> <PUBCHEM_COMPONENT_COUNT>
1

> <PUBCHEM_CACTVS_TAUTO_COUNT>
72

> <PUBCHEM_CONFORMER_ID>
061B0BD500000001

> <PUBCHEM_MMFF94_ENERGY>
133.4507

> <PUBCHEM_FEATURE_SELFOVERLAP>
86.335

> <PUBCHEM_SHAPE_FINGERPRINT>
10190108 129 18335425655596542346
11578080 2 16952801758016042228
1200032 147 17132126748861476431
12047536 79 18057907762112760129
12156800 1 17613187429650668598
12373685 5 18201994414594205197
12422481 6 18060423546593266812
12633046 712 17465651299986917979
12655387 17 17905339434137704169
13383668 1 18338512054552516587
13383668 40 18042399141564287421
15297060 5 16272205301541399020
16114785 44 17693090078108138864
19319366 153 18272363209130140792
20771845 35 17386003897451884927
244849 19 17969209059123893613
25222932 49 18340775944261458867
27425 322 18199468955537201052
3178227 256 18410292527877408616
3411729 13 17917444120312859921
469060 322 16228271119330256568
563151 248 17704069603649241356
57527293 21 18060138705380372543
6523845 18 18260555532869894412
6669772 16 18200885049646814324

> <PUBCHEM_SHAPE_MULTIPOLES>
767.46
14.56
4.97
3.56
26.82
2.2
-4.18
-5.83
14.21
-8.72
1.84
1.59
1.98
0.02

> <PUBCHEM_SHAPE_SELFOVERLAP>
1651.538

> <PUBCHEM_SHAPE_VOLUME>
420.8

> <PUBCHEM_COORDINATE_TYPE>
2
5
10

$$$$
