14889736
  -OEChem-11202003313D

 53 56  0     1  0  0  0  0  0999 V2000
   -2.3220    0.6120    0.8085 O   0  0  0  0  0  0  0  0  0  0  0  0
   -0.2690    0.2485    2.4651 O   0  0  0  0  0  0  0  0  0  0  0  0
    0.2813    1.0101   -1.7564 O   0  0  0  0  0  0  0  0  0  0  0  0
   -2.1426    0.9372   -3.2867 O   0  0  0  0  0  0  0  0  0  0  0  0
   -4.3517    2.1212   -1.8590 O   0  0  0  0  0  0  0  0  0  0  0  0
   -4.4586    1.3704    2.3484 O   0  0  0  0  0  0  0  0  0  0  0  0
    2.5091   -2.4356   -1.1426 O   0  0  0  0  0  0  0  0  0  0  0  0
    4.4231   -0.7666   -1.0431 O   0  0  0  0  0  0  0  0  0  0  0  0
    1.0108   -4.4653   -0.8387 O   0  0  0  0  0  0  0  0  0  0  0  0
    3.2966    4.4289    0.0564 O   0  0  0  0  0  0  0  0  0  0  0  0
   -1.0187    0.8950    0.2926 C   0  0  1  0  0  0  0  0  0  0  0  0
   -0.0302    0.0277    1.0657 C   0  0  1  0  0  0  0  0  0  0  0  0
   -0.9772    0.6185   -1.2142 C   0  0  1  0  0  0  0  0  0  0  0  0
   -2.0717    1.4033   -1.9376 C   0  0  2  0  0  0  0  0  0  0  0  0
   -3.4326    1.2071   -1.2675 C   0  0  1  0  0  0  0  0  0  0  0  0
   -3.3331    1.4496    0.2421 C   0  0  1  0  0  0  0  0  0  0  0  0
    1.3899    0.4448    0.7017 C   0  0  0  0  0  0  0  0  0  0  0  0
   -0.3484   -1.4379    0.8050 C   0  0  0  0  0  0  0  0  0  0  0  0
    2.2510   -0.3991   -0.0098 C   0  0  0  0  0  0  0  0  0  0  0  0
    0.5224   -2.2707    0.0917 C   0  0  0  0  0  0  0  0  0  0  0  0
   -4.6386    1.1312    0.9643 C   0  0  0  0  0  0  0  0  0  0  0  0
    1.8140   -1.7534   -0.3998 C   0  0  0  0  0  0  0  0  0  0  0  0
    1.8627    1.7262    1.0493 C   0  0  0  0  0  0  0  0  0  0  0  0
   -1.5589   -1.9933    1.2667 C   0  0  0  0  0  0  0  0  0  0  0  0
    3.5428    0.0217   -0.3611 C   0  0  0  0  0  0  0  0  0  0  0  0
    0.1925   -3.6116   -0.1584 C   0  0  0  0  0  0  0  0  0  0  0  0
    3.1483    2.1451    0.7031 C   0  0  0  0  0  0  0  0  0  0  0  0
    3.9879    1.2921   -0.0030 C   0  0  0  0  0  0  0  0  0  0  0  0
   -1.8871   -3.3274    1.0208 C   0  0  0  0  0  0  0  0  0  0  0  0
   -1.0111   -4.1360    0.3068 C   0  0  0  0  0  0  0  0  0  0  0  0
    3.6188    3.5062    1.0898 C   0  0  0  0  0  0  0  0  0  0  0  0
   -0.8140    1.9565    0.4878 H   0  0  0  0  0  0  0  0  0  0  0  0
   -1.1189   -0.4436   -1.4411 H   0  0  0  0  0  0  0  0  0  0  0  0
   -1.8149    2.4678   -1.9956 H   0  0  0  0  0  0  0  0  0  0  0  0
   -3.8003    0.1917   -1.4630 H   0  0  0  0  0  0  0  0  0  0  0  0
   -3.0779    2.4972    0.4521 H   0  0  0  0  0  0  0  0  0  0  0  0
   -4.9183    0.0798    0.8405 H   0  0  0  0  0  0  0  0  0  0  0  0
   -5.4599    1.7593    0.6078 H   0  0  0  0  0  0  0  0  0  0  0  0
    0.5453    0.5496    2.9001 H   0  0  0  0  0  0  0  0  0  0  0  0
    1.2156    2.4078    1.5984 H   0  0  0  0  0  0  0  0  0  0  0  0
    0.2576    0.8285   -2.7114 H   0  0  0  0  0  0  0  0  0  0  0  0
   -2.2537   -1.4219    1.8755 H   0  0  0  0  0  0  0  0  0  0  0  0
   -2.3891   -0.0032   -3.2695 H   0  0  0  0  0  0  0  0  0  0  0  0
   -4.3730    1.9370   -2.8137 H   0  0  0  0  0  0  0  0  0  0  0  0
    4.9887    1.6214   -0.2726 H   0  0  0  0  0  0  0  0  0  0  0  0
   -2.8204   -3.7353    1.3976 H   0  0  0  0  0  0  0  0  0  0  0  0
   -1.2694   -5.1751    0.1214 H   0  0  0  0  0  0  0  0  0  0  0  0
   -3.7241    0.8091    2.6507 H   0  0  0  0  0  0  0  0  0  0  0  0
    3.1448    3.8374    2.0203 H   0  0  0  0  0  0  0  0  0  0  0  0
    4.7028    3.5178    1.2492 H   0  0  0  0  0  0  0  0  0  0  0  0
    5.2569   -0.2856   -1.1808 H   0  0  0  0  0  0  0  0  0  0  0  0
    1.8738   -4.0563   -1.0019 H   0  0  0  0  0  0  0  0  0  0  0  0
    3.6171    5.3011    0.3431 H   0  0  0  0  0  0  0  0  0  0  0  0
  1 11  1  0  0  0  0
  1 16  1  0  0  0  0
  2 12  1  0  0  0  0
  2 39  1  0  0  0  0
  3 13  1  0  0  0  0
  3 41  1  0  0  0  0
  4 14  1  0  0  0  0
  4 43  1  0  0  0  0
  5 15  1  0  0  0  0
  5 44  1  0  0  0  0
  6 21  1  0  0  0  0
  6 48  1  0  0  0  0
  7 22  2  0  0  0  0
  8 25  1  0  0  0  0
  8 51  1  0  0  0  0
  9 26  1  0  0  0  0
  9 52  1  0  0  0  0
 10 31  1  0  0  0  0
 10 53  1  0  0  0  0
 11 12  1  0  0  0  0
 11 13  1  0  0  0  0
 11 32  1  0  0  0  0
 12 17  1  0  0  0  0
 12 18  1  0  0  0  0
 13 14  1  0  0  0  0
 13 33  1  0  0  0  0
 14 15  1  0  0  0  0
 14 34  1  0  0  0  0
 15 16  1  0  0  0  0
 15 35  1  0  0  0  0
 16 21  1  0  0  0  0
 16 36  1  0  0  0  0
 17 19  2  0  0  0  0
 17 23  1  0  0  0  0
 18 20  2  0  0  0  0
 18 24  1  0  0  0  0
 19 22  1  0  0  0  0
 19 25  1  0  0  0  0
 20 22  1  0  0  0  0
 20 26  1  0  0  0  0
 21 37  1  0  0  0  0
 21 38  1  0  0  0  0
 23 27  2  0  0  0  0
 23 40  1  0  0  0  0
 24 29  2  0  0  0  0
 24 42  1  0  0  0  0
 25 28  2  0  0  0  0
 26 30  2  0  0  0  0
 27 28  1  0  0  0  0
 27 31  1  0  0  0  0
 28 45  1  0  0  0  0
 29 30  1  0  0  0  0
 29 46  1  0  0  0  0
 30 47  1  0  0  0  0
 31 49  1  0  0  0  0
 31 50  1  0  0  0  0
M  END
> <PUBCHEM_COMPOUND_CID>
14889736

> <PUBCHEM_CONFORMER_RMSD>
0.8

> <PUBCHEM_CONFORMER_DIVERSEORDER>
1
3
2

> <PUBCHEM_MMFF94_PARTIAL_CHARGES>
44
1 -0.56
10 -0.68
11 0.28
12 0.57
13 0.28
14 0.28
15 0.28
16 0.28
17 -0.14
18 -0.14
19 0.09
2 -0.68
20 0.09
21 0.28
22 0.4
23 -0.15
24 -0.15
25 0.08
26 0.08
27 -0.14
28 -0.15
29 -0.15
3 -0.68
30 -0.15
31 0.42
39 0.4
4 -0.68
40 0.15
41 0.4
42 0.15
43 0.4
44 0.4
45 0.15
46 0.15
47 0.15
48 0.4
5 -0.68
51 0.45
52 0.45
53 0.4
6 -0.68
7 -0.57
8 -0.53
9 -0.53

> <PUBCHEM_EFFECTIVE_ROTOR_COUNT>
4.4

> <PUBCHEM_PHARMACOPHORE_FEATURES>
20
1 1 acceptor
1 10 acceptor
1 10 donor
1 2 acceptor
1 2 donor
1 3 acceptor
1 3 donor
1 4 acceptor
1 4 donor
1 5 acceptor
1 5 donor
1 6 acceptor
1 6 donor
1 7 acceptor
1 8 donor
1 9 donor
6 1 11 13 14 15 16 rings
6 12 17 18 19 20 22 rings
6 17 19 23 25 27 28 rings
6 18 20 24 26 29 30 rings

> <PUBCHEM_HEAVY_ATOM_COUNT>
31

> <PUBCHEM_ATOM_DEF_STEREO_COUNT>
6

> <PUBCHEM_ATOM_UDEF_STEREO_COUNT>
0

> <PUBCHEM_BOND_DEF_STEREO_COUNT>
0

> <PUBCHEM_BOND_UDEF_STEREO_COUNT>
0

> <PUBCHEM_ISOTOPIC_ATOM_COUNT>
0

> <PUBCHEM_COMPONENT_COUNT>
1

> <PUBCHEM_CACTVS_TAUTO_COUNT>
24

> <PUBCHEM_CONFORMER_ID>
00E3330800000001

> <PUBCHEM_MMFF94_ENERGY>
108.8614

> <PUBCHEM_FEATURE_SELFOVERLAP>
101.574

> <PUBCHEM_SHAPE_FINGERPRINT>
10165383 225 18190765088225660556
10871710 139 17248392591532390596
11115154 58 16464689917379112637
11370993 70 18412548729631222907
11488393 25 17972317309375589555
11578080 2 18122648273011900572
11582403 64 17750217180034187291
11725454 13 17822004281279378873
12035758 1 18336544915853301802
12156800 1 17903393555241410455
12160290 23 17977639207462167267
12422481 6 17971780966992013027
12788726 201 17694473220390769919
13004483 165 17616238626073535434
13140716 1 18339643442704721376
13149001 5 18341060644410371526
13583140 156 17241586434078530080
13681431 1 17326589432981610538
13911987 19 18120673335665043198
14840074 17 16891740796627606676
15131766 46 14295222676780229071
15324884 4 17895197662640044645
15575132 122 17252302506689998804
16945 1 18197769995165094827
17357779 13 17763727089864005639
1813 80 17196567793762367423
19319366 153 18060139812980729977
19930381 70 18267030444501412641
20600515 1 16256753070215038664
21033648 29 18260822683377136261
21285901 2 17979910841313811350
21857420 4 16026994108048126700
22182313 1 18126849524453434376
22907989 373 17691672803082595212
23419403 2 17413072894559193191
23559900 14 18272096011336488408
238 59 18046880724677518143
3380486 145 17545597219912925263
350125 39 17980775041111578664
3729539 64 18048046168623152550
376196 1 16522102197081907149
4340502 62 18341626905888728969
4409770 3 17835212912269905898
469060 322 16879339224657424683
474 4 18271515464085007768
6287921 2 18189636968242751477
633830 44 18131354085594628433
81228 2 17825947314639214722
9981440 41 16551948702347710480

> <PUBCHEM_SHAPE_MULTIPOLES>
579.27
7.18
4.99
1.98
0.52
4.06
0.67
-7.29
-0.36
0.69
0.1
-1.87
-1.03
1.98

> <PUBCHEM_SHAPE_SELFOVERLAP>
1285.461

> <PUBCHEM_SHAPE_VOLUME>
304.3

> <PUBCHEM_COORDINATE_TYPE>
2
5
10

$$$$
