6442939
  -OEChem-11202003372D

 89 93  0     1  0  0  0  0  0999 V2000
    5.1350   -0.0950    0.0000 O   0  0  0  0  0  0  0  0  0  0  0  0
    6.0010    4.4050    0.0000 O   0  0  0  0  0  0  0  0  0  0  0  0
    6.8671   -0.0950    0.0000 O   0  0  0  0  0  0  0  0  0  0  0  0
    6.8671   -2.0950    0.0000 O   0  0  0  0  0  0  0  0  0  0  0  0
    5.1350   -3.0950    0.0000 O   0  0  0  0  0  0  0  0  0  0  0  0
    3.4030   -2.0950    0.0000 O   0  0  0  0  0  0  0  0  0  0  0  0
    5.1350    2.9050    0.0000 O   0  0  0  0  0  0  0  0  0  0  0  0
    3.4030    5.9050    0.0000 O   0  0  0  0  0  0  0  0  0  0  0  0
    5.1350    6.9050    0.0000 O   0  0  0  0  0  0  0  0  0  0  0  0
    3.4030    3.9050    0.0000 O   0  0  0  0  0  0  0  0  0  0  0  0
    2.5369   -0.5950    0.0000 O   0  0  0  0  0  0  0  0  0  0  0  0
    6.8671    6.9050    0.0000 O   0  0  0  0  0  0  0  0  0  0  0  0
    9.4651    1.4050    0.0000 O   0  0  0  0  0  0  0  0  0  0  0  0
    6.0010   -3.5950    0.0000 O   0  0  0  0  0  0  0  0  0  0  0  0
    9.4651   -1.5950    0.0000 O   0  0  0  0  0  0  0  0  0  0  0  0
   11.1972    1.4050    0.0000 O   0  0  0  0  0  0  0  0  0  0  0  0
   11.1972   -6.5950    0.0000 O   0  0  0  0  0  0  0  0  0  0  0  0
    5.1350   -2.0950    0.0000 C   0  0  1  0  0  0  0  0  0  0  0  0
    4.2690   -1.5950    0.0000 C   0  0  1  0  0  0  0  0  0  0  0  0
    6.0010   -1.5950    0.0000 C   0  0  2  0  0  0  0  0  0  0  0  0
    4.2690   -0.5950    0.0000 C   0  0  1  0  0  0  0  0  0  0  0  0
    6.0010   -0.5950    0.0000 C   0  0  1  0  0  0  0  0  0  0  0  0
    4.2690    5.4050    0.0000 C   0  0  1  0  0  0  0  0  0  0  0  0
    5.1350    5.9050    0.0000 C   0  0  1  0  0  0  0  0  0  0  0  0
    4.2690    4.4050    0.0000 C   0  0  2  0  0  0  0  0  0  0  0  0
    6.0010    5.4050    0.0000 C   0  0  1  0  0  0  0  0  0  0  0  0
    5.1350    3.9050    0.0000 C   0  0  1  0  0  0  0  0  0  0  0  0
    3.4030   -0.0950    0.0000 C   0  0  0  0  0  0  0  0  0  0  0  0
    6.8671    5.9050    0.0000 C   0  0  0  0  0  0  0  0  0  0  0  0
    6.8671    0.9050    0.0000 C   0  0  0  0  0  0  0  0  0  0  0  0
    6.0010    2.4050    0.0000 C   0  0  0  0  0  0  0  0  0  0  0  0
    6.0010    1.4050    0.0000 C   0  0  0  0  0  0  0  0  0  0  0  0
    7.7331    1.4050    0.0000 C   0  0  0  0  0  0  0  0  0  0  0  0
    7.7331    2.4050    0.0000 C   0  0  0  0  0  0  0  0  0  0  0  0
    6.8671    2.9050    0.0000 C   0  0  0  0  0  0  0  0  0  0  0  0
    6.8671   -3.0950    0.0000 C   0  0  0  0  0  0  0  0  0  0  0  0
    8.5991    0.9050    0.0000 C   0  0  0  0  0  0  0  0  0  0  0  0
    8.5991    2.9050    0.0000 C   0  0  0  0  0  0  0  0  0  0  0  0
    7.7331   -3.5950    0.0000 C   0  0  0  0  0  0  0  0  0  0  0  0
    8.5991   -0.0950    0.0000 C   0  0  0  0  0  0  0  0  0  0  0  0
    7.7331   -4.5950    0.0000 C   0  0  0  0  0  0  0  0  0  0  0  0
    9.4651   -0.5950    0.0000 C   0  0  0  0  0  0  0  0  0  0  0  0
   10.3312    0.9050    0.0000 C   0  0  0  0  0  0  0  0  0  0  0  0
   10.3312   -0.0950    0.0000 C   0  0  0  0  0  0  0  0  0  0  0  0
    8.5991   -5.0950    0.0000 C   0  0  0  0  0  0  0  0  0  0  0  0
    9.4651   -4.5950    0.0000 C   0  0  0  0  0  0  0  0  0  0  0  0
    8.5991   -6.0950    0.0000 C   0  0  0  0  0  0  0  0  0  0  0  0
   10.3312   -2.0950    0.0000 C   0  0  0  0  0  0  0  0  0  0  0  0
   10.3312   -5.0950    0.0000 C   0  0  0  0  0  0  0  0  0  0  0  0
    9.4651   -6.5950    0.0000 C   0  0  0  0  0  0  0  0  0  0  0  0
   10.3312   -6.0950    0.0000 C   0  0  0  0  0  0  0  0  0  0  0  0
    4.5981   -2.4050    0.0000 H   0  0  0  0  0  0  0  0  0  0  0  0
    4.2690   -2.2150    0.0000 H   0  0  0  0  0  0  0  0  0  0  0  0
    6.0010   -2.2150    0.0000 H   0  0  0  0  0  0  0  0  0  0  0  0
    4.2690    0.0250    0.0000 H   0  0  0  0  0  0  0  0  0  0  0  0
    6.0010    0.0250    0.0000 H   0  0  0  0  0  0  0  0  0  0  0  0
    4.2690    6.0250    0.0000 H   0  0  0  0  0  0  0  0  0  0  0  0
    5.6720    6.2150    0.0000 H   0  0  0  0  0  0  0  0  0  0  0  0
    3.7320    4.7150    0.0000 H   0  0  0  0  0  0  0  0  0  0  0  0
    6.5380    5.0950    0.0000 H   0  0  0  0  0  0  0  0  0  0  0  0
    4.5981    3.5950    0.0000 H   0  0  0  0  0  0  0  0  0  0  0  0
    3.8015    0.3799    0.0000 H   0  0  0  0  0  0  0  0  0  0  0  0
    3.0044    0.3799    0.0000 H   0  0  0  0  0  0  0  0  0  0  0  0
    7.0791    5.3224    0.0000 H   0  0  0  0  0  0  0  0  0  0  0  0
    7.4776    6.0127    0.0000 H   0  0  0  0  0  0  0  0  0  0  0  0
    4.5981   -3.4050    0.0000 H   0  0  0  0  0  0  0  0  0  0  0  0
    3.4030   -2.7150    0.0000 H   0  0  0  0  0  0  0  0  0  0  0  0
    3.4030    6.5250    0.0000 H   0  0  0  0  0  0  0  0  0  0  0  0
    4.5981    7.2150    0.0000 H   0  0  0  0  0  0  0  0  0  0  0  0
    2.8660    4.2150    0.0000 H   0  0  0  0  0  0  0  0  0  0  0  0
    5.4641    1.0950    0.0000 H   0  0  0  0  0  0  0  0  0  0  0  0
    6.8671    3.5250    0.0000 H   0  0  0  0  0  0  0  0  0  0  0  0
    2.0000   -0.2850    0.0000 H   0  0  0  0  0  0  0  0  0  0  0  0
    7.4040    7.2150    0.0000 H   0  0  0  0  0  0  0  0  0  0  0  0
    8.9091    2.3681    0.0000 H   0  0  0  0  0  0  0  0  0  0  0  0
    9.1360    3.2150    0.0000 H   0  0  0  0  0  0  0  0  0  0  0  0
    8.2891    3.4419    0.0000 H   0  0  0  0  0  0  0  0  0  0  0  0
    8.2700   -3.2850    0.0000 H   0  0  0  0  0  0  0  0  0  0  0  0
    8.0622   -0.4050    0.0000 H   0  0  0  0  0  0  0  0  0  0  0  0
    7.1962   -4.9050    0.0000 H   0  0  0  0  0  0  0  0  0  0  0  0
   10.8681   -0.4050    0.0000 H   0  0  0  0  0  0  0  0  0  0  0  0
    9.4651   -3.9750    0.0000 H   0  0  0  0  0  0  0  0  0  0  0  0
    8.0622   -6.4050    0.0000 H   0  0  0  0  0  0  0  0  0  0  0  0
   10.0212   -2.6319    0.0000 H   0  0  0  0  0  0  0  0  0  0  0  0
   10.8681   -2.4050    0.0000 H   0  0  0  0  0  0  0  0  0  0  0  0
   10.6412   -1.5581    0.0000 H   0  0  0  0  0  0  0  0  0  0  0  0
   10.8681   -4.7850    0.0000 H   0  0  0  0  0  0  0  0  0  0  0  0
    9.4651   -7.2150    0.0000 H   0  0  0  0  0  0  0  0  0  0  0  0
   11.1972   -7.2150    0.0000 H   0  0  0  0  0  0  0  0  0  0  0  0
  1 21  1  0  0  0  0
  1 22  1  0  0  0  0
  2 26  1  0  0  0  0
  2 27  1  0  0  0  0
 22  3  1  1  0  0  0
  3 30  1  0  0  0  0
 20  4  1  6  0  0  0
  4 36  1  0  0  0  0
 18  5  1  1  0  0  0
  5 66  1  0  0  0  0
 19  6  1  6  0  0  0
  6 67  1  0  0  0  0
 27  7  1  1  0  0  0
  7 31  1  0  0  0  0
 23  8  1  1  0  0  0
  8 68  1  0  0  0  0
 24  9  1  6  0  0  0
  9 69  1  0  0  0  0
 25 10  1  6  0  0  0
 10 70  1  0  0  0  0
 11 28  1  0  0  0  0
 11 73  1  0  0  0  0
 12 29  1  0  0  0  0
 12 74  1  0  0  0  0
 13 37  1  0  0  0  0
 13 43  1  0  0  0  0
 14 36  2  0  0  0  0
 15 42  1  0  0  0  0
 15 48  1  0  0  0  0
 16 43  2  0  0  0  0
 17 51  1  0  0  0  0
 17 89  1  0  0  0  0
 18 19  1  0  0  0  0
 18 20  1  0  0  0  0
 18 52  1  0  0  0  0
 19 21  1  0  0  0  0
 19 53  1  0  0  0  0
 20 22  1  0  0  0  0
 20 54  1  0  0  0  0
 21 28  1  1  0  0  0
 21 55  1  0  0  0  0
 22 56  1  0  0  0  0
 23 24  1  0  0  0  0
 23 25  1  0  0  0  0
 23 57  1  0  0  0  0
 24 26  1  0  0  0  0
 24 58  1  0  0  0  0
 25 27  1  0  0  0  0
 25 59  1  0  0  0  0
 26 29  1  1  0  0  0
 26 60  1  0  0  0  0
 27 61  1  0  0  0  0
 28 62  1  0  0  0  0
 28 63  1  0  0  0  0
 29 64  1  0  0  0  0
 29 65  1  0  0  0  0
 30 32  1  0  0  0  0
 30 33  2  0  0  0  0
 31 32  2  0  0  0  0
 31 35  1  0  0  0  0
 32 71  1  0  0  0  0
 33 34  1  0  0  0  0
 33 37  1  0  0  0  0
 34 35  2  0  0  0  0
 34 38  1  0  0  0  0
 35 72  1  0  0  0  0
 36 39  1  0  0  0  0
 37 40  2  0  0  0  0
 38 75  1  0  0  0  0
 38 76  1  0  0  0  0
 38 77  1  0  0  0  0
 39 41  2  0  0  0  0
 39 78  1  0  0  0  0
 40 42  1  0  0  0  0
 40 79  1  0  0  0  0
 41 45  1  0  0  0  0
 41 80  1  0  0  0  0
 42 44  2  0  0  0  0
 43 44  1  0  0  0  0
 44 81  1  0  0  0  0
 45 46  2  0  0  0  0
 45 47  1  0  0  0  0
 46 49  1  0  0  0  0
 46 82  1  0  0  0  0
 47 50  2  0  0  0  0
 47 83  1  0  0  0  0
 48 84  1  0  0  0  0
 48 85  1  0  0  0  0
 48 86  1  0  0  0  0
 49 51  2  0  0  0  0
 49 87  1  0  0  0  0
 50 51  1  0  0  0  0
 50 88  1  0  0  0  0
M  END
> <PUBCHEM_COMPOUND_CID>
6442939

> <PUBCHEM_COMPOUND_CANONICALIZED>
1

> <PUBCHEM_CACTVS_COMPLEXITY>
1280

> <PUBCHEM_CACTVS_HBOND_ACCEPTOR>
17

> <PUBCHEM_CACTVS_HBOND_DONOR>
8

> <PUBCHEM_CACTVS_ROTATABLE_BOND>
12

> <PUBCHEM_CACTVS_SUBSKEYS>
AAADcfB8PgAAAAAAAAAAAAAAAAAAAAAAAAA0aIECAAAAAAABQAAAGgAACAAADBSwmAMyDoAABgCIAiDSCAACCAAgIAAIiAAGCMgdNyKGMRqieCClwBUPuYfA4LwOoAABCAAYAABAAAIQADAAAAAAAAAAAA==

> <PUBCHEM_IUPAC_OPENEYE_NAME>
[(2S,3R,4S,5S,6R)-4,5-dihydroxy-6-(hydroxymethyl)-2-[2-(4-methoxy-6-oxo-pyran-2-yl)-3-methyl-5-[(2S,3R,4S,5S,6R)-3,4,5-trihydroxy-6-(hydroxymethyl)tetrahydropyran-2-yl]oxy-phenoxy]tetrahydropyran-3-yl] (E)-3-(4-hydroxyphenyl)prop-2-enoate

> <PUBCHEM_IUPAC_CAS_NAME>
(E)-3-(4-hydroxyphenyl)-2-propenoic acid [(2S,3R,4S,5S,6R)-4,5-dihydroxy-6-(hydroxymethyl)-2-[2-(4-methoxy-6-oxo-2-pyranyl)-3-methyl-5-[[(2S,3R,4S,5S,6R)-3,4,5-trihydroxy-6-(hydroxymethyl)-2-oxanyl]oxy]phenoxy]-3-oxanyl] ester

> <PUBCHEM_IUPAC_NAME_MARKUP>
[(2<I>S</I>,3<I>R</I>,4<I>S</I>,5<I>S</I>,6<I>R</I>)-4,5-dihydroxy-6-(hydroxymethyl)-2-[2-(4-methoxy-6-oxopyran-2-yl)-3-methyl-5-[(2<I>S</I>,3<I>R</I>,4<I>S</I>,5<I>S</I>,6<I>R</I>)-3,4,5-trihydroxy-6-(hydroxymethyl)oxan-2-yl]oxyphenoxy]oxan-3-yl] (<I>E</I>)-3-(4-hydroxyphenyl)prop-2-enoate

> <PUBCHEM_IUPAC_NAME>
[(2S,3R,4S,5S,6R)-4,5-dihydroxy-6-(hydroxymethyl)-2-[2-(4-methoxy-6-oxopyran-2-yl)-3-methyl-5-[(2S,3R,4S,5S,6R)-3,4,5-trihydroxy-6-(hydroxymethyl)oxan-2-yl]oxyphenoxy]oxan-3-yl] (E)-3-(4-hydroxyphenyl)prop-2-enoate

> <PUBCHEM_IUPAC_SYSTEMATIC_NAME>
[(2S,3R,4S,5S,6R)-6-(hydroxymethyl)-2-[5-[(2S,3R,4S,5S,6R)-6-(hydroxymethyl)-3,4,5-tris(oxidanyl)oxan-2-yl]oxy-2-(4-methoxy-6-oxidanylidene-pyran-2-yl)-3-methyl-phenoxy]-4,5-bis(oxidanyl)oxan-3-yl] (E)-3-(4-hydroxyphenyl)prop-2-enoate

> <PUBCHEM_IUPAC_TRADITIONAL_NAME>
(E)-3-(4-hydroxyphenyl)acrylic acid [(2S,3R,4S,5S,6R)-4,5-dihydroxy-2-[2-(6-keto-4-methoxy-pyran-2-yl)-3-methyl-5-[(2S,3R,4S,5S,6R)-3,4,5-trihydroxy-6-methylol-tetrahydropyran-2-yl]oxy-phenoxy]-6-methylol-tetrahydropyran-3-yl] ester

> <PUBCHEM_IUPAC_INCHI>
InChI=1S/C34H38O17/c1-15-9-19(46-33-31(44)29(42)27(40)22(13-35)49-33)11-21(26(15)20-10-18(45-2)12-25(39)47-20)48-34-32(30(43)28(41)23(14-36)50-34)51-24(38)8-5-16-3-6-17(37)7-4-16/h3-12,22-23,27-37,40-44H,13-14H2,1-2H3/b8-5+/t22-,23-,27-,28-,29+,30+,31-,32-,33-,34-/m1/s1

> <PUBCHEM_IUPAC_INCHIKEY>
IZBGWXJOIXZDBF-WLFSTHIVSA-N

> <PUBCHEM_XLOGP3_AA>
0.5

> <PUBCHEM_EXACT_MASS>
718.2109

> <PUBCHEM_MOLECULAR_FORMULA>
C34H38O17

> <PUBCHEM_MOLECULAR_WEIGHT>
718.7

> <PUBCHEM_OPENEYE_CAN_SMILES>
CC1=CC(=CC(=C1C2=CC(=CC(=O)O2)OC)OC3C(C(C(C(O3)CO)O)O)OC(=O)C=CC4=CC=C(C=C4)O)OC5C(C(C(C(O5)CO)O)O)O

> <PUBCHEM_OPENEYE_ISO_SMILES>
CC1=CC(=CC(=C1C2=CC(=CC(=O)O2)OC)O[C@H]3[C@@H]([C@H]([C@@H]([C@H](O3)CO)O)O)OC(=O)/C=C/C4=CC=C(C=C4)O)O[C@H]5[C@@H]([C@H]([C@@H]([C@H](O5)CO)O)O)O

> <PUBCHEM_CACTVS_TPSA>
261

> <PUBCHEM_MONOISOTOPIC_WEIGHT>
718.2109

> <PUBCHEM_TOTAL_CHARGE>
0

> <PUBCHEM_HEAVY_ATOM_COUNT>
51

> <PUBCHEM_ATOM_DEF_STEREO_COUNT>
10

> <PUBCHEM_ATOM_UDEF_STEREO_COUNT>
0

> <PUBCHEM_BOND_DEF_STEREO_COUNT>
1

> <PUBCHEM_BOND_UDEF_STEREO_COUNT>
0

> <PUBCHEM_ISOTOPIC_ATOM_COUNT>
0

> <PUBCHEM_COMPONENT_COUNT>
1

> <PUBCHEM_CACTVS_TAUTO_COUNT>
-1

> <PUBCHEM_COORDINATE_TYPE>
1
5
255

> <PUBCHEM_BONDANNOTATIONS>
25  10  6
13  37  8
13  43  8
21  28  5
26  29  5
22  3  5
30  32  8
30  33  8
31  32  8
31  35  8
33  34  8
34  35  8
37  40  8
20  4  6
40  42  8
42  44  8
43  44  8
45  46  8
45  47  8
46  49  8
47  50  8
49  51  8
18  5  5
50  51  8
19  6  6
27  7  5
23  8  5
24  9  6

$$$$
