101381938
  -OEChem-09012016233D

 41 42  0     1  0  0  0  0  0999 V2000
    1.5263    2.0509    1.3788 O   0  0  0  0  0  0  0  0  0  0  0  0
   -4.7547   -0.7635   -0.2385 O   0  0  0  0  0  0  0  0  0  0  0  0
   -0.0726    1.1885   -0.2598 C   0  0  2  0  0  0  0  0  0  0  0  0
    0.0637   -0.2834    0.2452 C   0  0  2  0  0  0  0  0  0  0  0  0
    1.2417   -0.9830   -0.4859 C   0  0  1  0  0  0  0  0  0  0  0  0
    1.2348    1.9893   -0.0198 C   0  0  2  0  0  0  0  0  0  0  0  0
    2.5423   -0.1858   -0.2842 C   0  0  0  0  0  0  0  0  0  0  0  0
    2.4081    1.2734   -0.7106 C   0  0  0  0  0  0  0  0  0  0  0  0
   -1.3269    1.8258    0.3685 C   0  0  0  0  0  0  0  0  0  0  0  0
    1.4793   -2.4240   -0.0155 C   0  0  0  0  0  0  0  0  0  0  0  0
   -1.2518   -1.0280    0.1308 C   0  0  0  0  0  0  0  0  0  0  0  0
   -2.5931    1.0795   -0.0647 C   0  0  0  0  0  0  0  0  0  0  0  0
    1.1565    3.4280   -0.5459 C   0  0  0  0  0  0  0  0  0  0  0  0
   -2.4306   -0.4063   -0.0176 C   0  0  0  0  0  0  0  0  0  0  0  0
    2.5786   -3.0777   -0.8451 C   0  0  0  0  0  0  0  0  0  0  0  0
    1.8325   -2.4454    1.4674 C   0  0  0  0  0  0  0  0  0  0  0  0
   -3.6342   -1.2383   -0.1033 C   0  0  0  0  0  0  0  0  0  0  0  0
   -0.2379    1.1606   -1.3485 H   0  0  0  0  0  0  0  0  0  0  0  0
    0.2882   -0.2324    1.3177 H   0  0  0  0  0  0  0  0  0  0  0  0
    1.0107   -1.0026   -1.5607 H   0  0  0  0  0  0  0  0  0  0  0  0
    3.3644   -0.6107   -0.8686 H   0  0  0  0  0  0  0  0  0  0  0  0
    2.8606   -0.1818    0.7624 H   0  0  0  0  0  0  0  0  0  0  0  0
    3.3523    1.7833   -0.4797 H   0  0  0  0  0  0  0  0  0  0  0  0
    2.2798    1.3148   -1.8001 H   0  0  0  0  0  0  0  0  0  0  0  0
   -1.4337    2.8735    0.0699 H   0  0  0  0  0  0  0  0  0  0  0  0
   -1.2448    1.8131    1.4629 H   0  0  0  0  0  0  0  0  0  0  0  0
    0.5792   -3.0261   -0.1725 H   0  0  0  0  0  0  0  0  0  0  0  0
   -1.2381   -2.1087    0.2232 H   0  0  0  0  0  0  0  0  0  0  0  0
   -2.8529    1.3720   -1.0897 H   0  0  0  0  0  0  0  0  0  0  0  0
   -3.4198    1.3976    0.5816 H   0  0  0  0  0  0  0  0  0  0  0  0
    0.4622    4.0336    0.0456 H   0  0  0  0  0  0  0  0  0  0  0  0
    0.8478    3.4574   -1.5957 H   0  0  0  0  0  0  0  0  0  0  0  0
    2.1292    3.9270   -0.4612 H   0  0  0  0  0  0  0  0  0  0  0  0
    2.3550    2.5465    1.4941 H   0  0  0  0  0  0  0  0  0  0  0  0
    3.5796   -2.7144   -0.5928 H   0  0  0  0  0  0  0  0  0  0  0  0
    2.5881   -4.1584   -0.6602 H   0  0  0  0  0  0  0  0  0  0  0  0
    1.0708   -1.9885    2.1026 H   0  0  0  0  0  0  0  0  0  0  0  0
    2.4119   -2.9342   -1.9178 H   0  0  0  0  0  0  0  0  0  0  0  0
    2.8042   -2.0004    1.6967 H   0  0  0  0  0  0  0  0  0  0  0  0
    1.9049   -3.4899    1.7971 H   0  0  0  0  0  0  0  0  0  0  0  0
   -3.4826   -2.3292   -0.0436 H   0  0  0  0  0  0  0  0  0  0  0  0
  1  6  1  0  0  0  0
  1 34  1  0  0  0  0
  2 17  2  0  0  0  0
  3  4  1  0  0  0  0
  3  6  1  0  0  0  0
  3  9  1  0  0  0  0
  3 18  1  0  0  0  0
  4  5  1  0  0  0  0
  4 11  1  0  0  0  0
  4 19  1  0  0  0  0
  5  7  1  0  0  0  0
  5 10  1  0  0  0  0
  5 20  1  0  0  0  0
  6  8  1  0  0  0  0
  6 13  1  0  0  0  0
  7  8  1  0  0  0  0
  7 21  1  0  0  0  0
  7 22  1  0  0  0  0
  8 23  1  0  0  0  0
  8 24  1  0  0  0  0
  9 12  1  0  0  0  0
  9 25  1  0  0  0  0
  9 26  1  0  0  0  0
 10 15  1  0  0  0  0
 10 16  1  0  0  0  0
 10 27  1  0  0  0  0
 11 14  2  0  0  0  0
 11 28  1  0  0  0  0
 12 14  1  0  0  0  0
 12 29  1  0  0  0  0
 12 30  1  0  0  0  0
 13 31  1  0  0  0  0
 13 32  1  0  0  0  0
 13 33  1  0  0  0  0
 14 17  1  0  0  0  0
 15 35  1  0  0  0  0
 15 36  1  0  0  0  0
 15 38  1  0  0  0  0
 16 37  1  0  0  0  0
 16 39  1  0  0  0  0
 16 40  1  0  0  0  0
 17 41  1  0  0  0  0
M  END
> <PUBCHEM_COMPOUND_CID>
101381938

> <PUBCHEM_CONFORMER_RMSD>
0.6

> <PUBCHEM_CONFORMER_DIVERSEORDER>
1
2

> <PUBCHEM_MMFF94_PARTIAL_CHARGES>
11
1 -0.68
11 -0.29
12 0.14
14 -0.12
17 0.5
2 -0.57
28 0.15
34 0.4
4 0.14
41 0.06
6 0.28

> <PUBCHEM_EFFECTIVE_ROTOR_COUNT>
3.2

> <PUBCHEM_PHARMACOPHORE_FEATURES>
6
1 1 acceptor
1 1 donor
1 2 acceptor
3 10 15 16 hydrophobe
6 3 4 5 6 7 8 rings
6 3 4 9 11 12 14 rings

> <PUBCHEM_HEAVY_ATOM_COUNT>
17

> <PUBCHEM_ATOM_DEF_STEREO_COUNT>
4

> <PUBCHEM_ATOM_UDEF_STEREO_COUNT>
0

> <PUBCHEM_BOND_DEF_STEREO_COUNT>
0

> <PUBCHEM_BOND_UDEF_STEREO_COUNT>
0

> <PUBCHEM_ISOTOPIC_ATOM_COUNT>
0

> <PUBCHEM_COMPONENT_COUNT>
1

> <PUBCHEM_CACTVS_TAUTO_COUNT>
1

> <PUBCHEM_CONFORMER_ID>
060AF73200000001

> <PUBCHEM_MMFF94_ENERGY>
40.1696

> <PUBCHEM_FEATURE_SELFOVERLAP>
30.463

> <PUBCHEM_SHAPE_FINGERPRINT>
1 1 18266458895912610348
10967382 1 18338801220470306615
10980938 120 18340204219283390583
10989021 7 18339360760620822787
11471102 20 18338234976699008029
11578080 2 17169814588683300150
11680986 33 18268700637187519529
116883 192 17908422459327843991
12553582 1 18048038463156229331
13140716 1 18122623031013861379
14178342 30 18412821365571117400
1420 336 17905051352297823083
15001771 113 18122916330251756934
15042514 8 17617947933000245051
15375462 189 17899148113028527754
15442244 35 18268718203793449929
15906896 17 17109872899671328866
16945 1 18338812202706944164
17990270 104 18411139099821377551
19591789 44 17762909057470899543
20510252 161 17189248302043122288
20559304 39 18411979156743350251
20600515 1 17688287020365089064
20645476 183 17466796303907981916
20645477 70 18410289246759712287
20905425 154 18341053991326448132
21452121 199 18262788558795939986
21501502 16 18339084791776250953
21524375 3 18050565449992677760
22112679 90 18053682286168445626
221490 88 18336275595417981163
2255824 54 18338239391508793269
23184049 29 18192707843493599003
2334 1 17690565607573398423
23419403 2 17683758269440783950
23526113 38 18113907047827354843
23530152 11 17906739454902303932
23552423 10 18409733984364902573
23557571 272 17622429555501702946
23559900 14 18410006671796158725
23598291 2 18198917924243840363
257057 1 18120929516929902922
2748010 2 18266734675720494868
3060560 45 18265615570626098660
3071541 250 18339649944879220055
33824 294 18266175213734393291
34934 24 18265895752875642604
352729 6 17905053894992152896
54173680 148 17690564087266011902
5902787 121 18191300477247732595
6138700 20 18410018745698255876
6992083 37 17910973343695228009
7364860 26 18341893008560568130
7832392 63 18267590096110062185
81228 2 17619907258040677410
81539 233 18190455154837799159
9709674 26 18335987545057512331

> <PUBCHEM_SHAPE_MULTIPOLES>
338.11
5.23
3.75
0.95
5.88
1.08
-0.24
-3.3
0.69
-2.72
0.07
-0.56
-0.15
-0.15

> <PUBCHEM_SHAPE_SELFOVERLAP>
693.591

> <PUBCHEM_SHAPE_VOLUME>
193.1

> <PUBCHEM_COORDINATE_TYPE>
2
5
10

$$$$
