75528892
  -OEChem-09012016163D

 57 58  0     1  0  0  0  0  0999 V2000
   -4.0136    2.1731   -0.2068 O   0  0  0  0  0  0  0  0  0  0  0  0
   -1.6600   -1.5534    0.3784 O   0  0  0  0  0  0  0  0  0  0  0  0
   -3.5376    3.6248   -1.9342 O   0  0  0  0  0  0  0  0  0  0  0  0
    5.5348    0.1855    0.1808 O   0  0  0  0  0  0  0  0  0  0  0  0
   -1.0954   -2.3015   -1.7290 O   0  0  0  0  0  0  0  0  0  0  0  0
    6.3162    0.7327   -1.9233 O   0  0  0  0  0  0  0  0  0  0  0  0
   -2.3661    0.5507   -0.5495 C   0  0  2  0  0  0  0  0  0  0  0  0
   -3.2612    1.1693    0.5079 C   0  0  1  0  0  0  0  0  0  0  0  0
   -1.1965   -0.2420    0.0362 C   0  0  1  0  0  0  0  0  0  0  0  0
   -0.5547    0.3383    1.2792 C   0  0  0  0  0  0  0  0  0  0  0  0
   -2.5190    1.8531    1.6637 C   0  0  0  0  0  0  0  0  0  0  0  0
   -1.1609    1.2919    2.0201 C   0  0  0  0  0  0  0  0  0  0  0  0
    0.8007   -0.2543    1.5787 C   0  0  2  0  0  0  0  0  0  0  0  0
   -2.0950    1.7606   -1.3795 C   0  0  0  0  0  0  0  0  0  0  0  0
    1.7884   -0.0167    0.4283 C   0  0  0  0  0  0  0  0  0  0  0  0
   -3.2667    2.6575   -1.2469 C   0  0  0  0  0  0  0  0  0  0  0  0
   -0.5911    1.9083    3.2729 C   0  0  0  0  0  0  0  0  0  0  0  0
    0.6508   -1.7459    1.8618 C   0  0  0  0  0  0  0  0  0  0  0  0
    3.2544   -0.0780    0.8648 C   0  0  0  0  0  0  0  0  0  0  0  0
   -1.0305    2.0994   -2.1096 C   0  0  0  0  0  0  0  0  0  0  0  0
   -1.5484   -2.4916   -0.6078 C   0  0  0  0  0  0  0  0  0  0  0  0
    4.1951    0.2437   -0.2889 C   0  0  0  0  0  0  0  0  0  0  0  0
   -2.0880   -3.8188   -0.1042 C   0  0  0  0  0  0  0  0  0  0  0  0
   -1.3361   -4.9852   -0.7400 C   0  0  0  0  0  0  0  0  0  0  0  0
   -3.5816   -3.9100   -0.3929 C   0  0  0  0  0  0  0  0  0  0  0  0
    6.5037    0.4532   -0.7469 C   0  0  0  0  0  0  0  0  0  0  0  0
    7.8583    0.3552   -0.1133 C   0  0  0  0  0  0  0  0  0  0  0  0
   -2.9831   -0.1156   -1.1703 H   0  0  0  0  0  0  0  0  0  0  0  0
   -3.9634    0.4235    0.8988 H   0  0  0  0  0  0  0  0  0  0  0  0
   -0.4376   -0.3140   -0.7474 H   0  0  0  0  0  0  0  0  0  0  0  0
   -3.1693    1.8045    2.5474 H   0  0  0  0  0  0  0  0  0  0  0  0
   -2.3994    2.9246    1.4528 H   0  0  0  0  0  0  0  0  0  0  0  0
    1.2252    0.1880    2.4819 H   0  0  0  0  0  0  0  0  0  0  0  0
    1.6388   -0.7418   -0.3815 H   0  0  0  0  0  0  0  0  0  0  0  0
    1.6129    0.9787   -0.0020 H   0  0  0  0  0  0  0  0  0  0  0  0
   -0.7203    2.9965    3.2457 H   0  0  0  0  0  0  0  0  0  0  0  0
    0.4757    1.7403    3.4204 H   0  0  0  0  0  0  0  0  0  0  0  0
   -1.1219    1.5260    4.1509 H   0  0  0  0  0  0  0  0  0  0  0  0
    1.5344   -2.1015    2.4066 H   0  0  0  0  0  0  0  0  0  0  0  0
   -0.2115   -1.9659    2.5011 H   0  0  0  0  0  0  0  0  0  0  0  0
    0.6038   -2.3565    0.9564 H   0  0  0  0  0  0  0  0  0  0  0  0
    3.4365    0.6284    1.6844 H   0  0  0  0  0  0  0  0  0  0  0  0
    3.4945   -1.0709    1.2636 H   0  0  0  0  0  0  0  0  0  0  0  0
   -0.1712    1.4439   -2.1939 H   0  0  0  0  0  0  0  0  0  0  0  0
   -0.9868    3.0404   -2.6477 H   0  0  0  0  0  0  0  0  0  0  0  0
    4.0593   -0.4845   -1.0973 H   0  0  0  0  0  0  0  0  0  0  0  0
    3.9877    1.2493   -0.6735 H   0  0  0  0  0  0  0  0  0  0  0  0
   -1.9202   -3.8691    0.9790 H   0  0  0  0  0  0  0  0  0  0  0  0
   -3.7826   -3.8562   -1.4687 H   0  0  0  0  0  0  0  0  0  0  0  0
   -1.4794   -5.0110   -1.8259 H   0  0  0  0  0  0  0  0  0  0  0  0
   -4.1208   -3.0831    0.0822 H   0  0  0  0  0  0  0  0  0  0  0  0
   -3.9975   -4.8487   -0.0130 H   0  0  0  0  0  0  0  0  0  0  0  0
   -1.6799   -5.9402   -0.3293 H   0  0  0  0  0  0  0  0  0  0  0  0
   -0.2603   -4.9014   -0.5511 H   0  0  0  0  0  0  0  0  0  0  0  0
    7.9433    1.0868    0.6941 H   0  0  0  0  0  0  0  0  0  0  0  0
    8.6257    0.5718   -0.8620 H   0  0  0  0  0  0  0  0  0  0  0  0
    8.0175   -0.6574    0.2658 H   0  0  0  0  0  0  0  0  0  0  0  0
  1  8  1  0  0  0  0
  1 16  1  0  0  0  0
  2  9  1  0  0  0  0
  2 21  1  0  0  0  0
  3 16  2  0  0  0  0
  4 22  1  0  0  0  0
  4 26  1  0  0  0  0
  5 21  2  0  0  0  0
  6 26  2  0  0  0  0
  7  8  1  0  0  0  0
  7  9  1  0  0  0  0
  7 14  1  0  0  0  0
  7 28  1  0  0  0  0
  8 11  1  0  0  0  0
  8 29  1  0  0  0  0
  9 10  1  0  0  0  0
  9 30  1  0  0  0  0
 10 12  2  0  0  0  0
 10 13  1  0  0  0  0
 11 12  1  0  0  0  0
 11 31  1  0  0  0  0
 11 32  1  0  0  0  0
 12 17  1  0  0  0  0
 13 15  1  0  0  0  0
 13 18  1  0  0  0  0
 13 33  1  0  0  0  0
 14 16  1  0  0  0  0
 14 20  2  0  0  0  0
 15 19  1  0  0  0  0
 15 34  1  0  0  0  0
 15 35  1  0  0  0  0
 17 36  1  0  0  0  0
 17 37  1  0  0  0  0
 17 38  1  0  0  0  0
 18 39  1  0  0  0  0
 18 40  1  0  0  0  0
 18 41  1  0  0  0  0
 19 22  1  0  0  0  0
 19 42  1  0  0  0  0
 19 43  1  0  0  0  0
 20 44  1  0  0  0  0
 20 45  1  0  0  0  0
 21 23  1  0  0  0  0
 22 46  1  0  0  0  0
 22 47  1  0  0  0  0
 23 24  1  0  0  0  0
 23 25  1  0  0  0  0
 23 48  1  0  0  0  0
 24 50  1  0  0  0  0
 24 53  1  0  0  0  0
 24 54  1  0  0  0  0
 25 49  1  0  0  0  0
 25 51  1  0  0  0  0
 25 52  1  0  0  0  0
 26 27  1  0  0  0  0
 27 55  1  0  0  0  0
 27 56  1  0  0  0  0
 27 57  1  0  0  0  0
M  END
> <PUBCHEM_COMPOUND_CID>
75528892

> <PUBCHEM_CONFORMER_RMSD>
1

> <PUBCHEM_CONFORMER_DIVERSEORDER>
1
61
90
6
52
64
72
36
2
43
81
39
100
48
22
34
76
95
54
66
88
62
50
40
87
32
17
70
60
18
58
83
21
19
11
44
75
65
91
94
93
68
74
55
42
38
102
23
16
67
27
41
35
49
37
30
20
86
77
46
53
59
3
84
56
12
24
10
57
82
51
63
99
103
97
28
9
31
89
98
80
71
47
73
33
92
13
101
25
45
96
79
14
4
26
78
69
15
5
85
8
7
29

> <PUBCHEM_MMFF94_PARTIAL_CHARGES>
24
1 -0.43
10 -0.28
11 0.14
12 -0.28
13 0.14
14 -0.12
16 0.71
17 0.14
2 -0.43
20 -0.3
21 0.66
22 0.28
23 0.06
26 0.66
27 0.06
3 -0.57
4 -0.43
44 0.15
45 0.15
5 -0.57
6 -0.57
7 0.14
8 0.28
9 0.42

> <PUBCHEM_EFFECTIVE_ROTOR_COUNT>
9.6

> <PUBCHEM_PHARMACOPHORE_FEATURES>
7
1 18 hydrophobe
1 3 acceptor
1 5 acceptor
1 6 acceptor
3 23 24 25 hydrophobe
5 1 7 8 14 16 rings
6 7 8 9 10 11 12 rings

> <PUBCHEM_HEAVY_ATOM_COUNT>
27

> <PUBCHEM_ATOM_DEF_STEREO_COUNT>
4

> <PUBCHEM_ATOM_UDEF_STEREO_COUNT>
0

> <PUBCHEM_BOND_DEF_STEREO_COUNT>
0

> <PUBCHEM_BOND_UDEF_STEREO_COUNT>
0

> <PUBCHEM_ISOTOPIC_ATOM_COUNT>
0

> <PUBCHEM_COMPONENT_COUNT>
1

> <PUBCHEM_CACTVS_TAUTO_COUNT>
1

> <PUBCHEM_CONFORMER_ID>
04807ABC00000001

> <PUBCHEM_MMFF94_ENERGY>
48.2157

> <PUBCHEM_FEATURE_SELFOVERLAP>
35.707

> <PUBCHEM_SHAPE_FINGERPRINT>
10165383 225 18341333297645698937
10369192 42 18339370639172710953
105312 117 18340207393132399468
10764073 3 14758225026213390107
107951 10 17988653934428517335
12788726 201 18336537339088646546
12895836 83 18335694997132821228
12895837 130 18040724679792088348
13149001 5 17843653725655587121
13257819 37 18338786845774118503
133893 2 17335898994129587867
13911987 19 18340199670855534657
14114211 68 18124004890377658399
14251757 5 18342173431307662922
14713325 29 18411984697499556278
15163728 17 18121511145717759013
15463212 79 18260541221648772674
17980427 26 16372676346215439203
19958102 18 18412824673001747638
21033650 10 16845011178926806408
21756936 100 17458064855124120752
23198884 109 18202285762904456080
23419403 2 14328126902850255291
23559900 14 17846490457692893432
3610482 184 17604166891071428078
4015057 19 16415181404641115600
4058900 60 18054513500291294073
437815 12 17701821205402850723
4409770 3 18272368710994068767
44802255 64 18334297522507172542
484985 159 17775018906956966618
497634 4 18340778155947960068
531348 171 18261391118878968250
58260988 587 17833550094713319165
59444896 2 17328915300308175681
59755656 520 18272097045627132224
7237137 82 18340491170443636954

> <PUBCHEM_SHAPE_MULTIPOLES>
520.43
11.42
4.88
2.33
37.13
6.35
-0.89
-3.42
5.39
-9.17
1.94
-0.71
-1.94
0.09

> <PUBCHEM_SHAPE_SELFOVERLAP>
1067.422

> <PUBCHEM_SHAPE_VOLUME>
299.9

> <PUBCHEM_COORDINATE_TYPE>
2
5
10

$$$$
