23426951
  -OEChem-09012016003D

 40 41  0     1  0  0  0  0  0999 V2000
    2.8534    2.2573    0.1629 O   0  0  0  0  0  0  0  0  0  0  0  0
    0.9252    0.7604   -0.0714 C   0  0  1  0  0  0  0  0  0  0  0  0
    0.4322   -0.6490    0.3970 C   0  0  1  0  0  0  0  0  0  0  0  0
   -0.0440    1.8335    0.4874 C   0  0  0  0  0  0  0  0  0  0  0  0
   -1.0168   -0.9102   -0.0650 C   0  0  0  0  0  0  0  0  0  0  0  0
    2.3482    0.9721    0.5174 C   0  0  1  0  0  0  0  0  0  0  0  0
   -1.9765    0.1755    0.4550 C   0  0  1  0  0  0  0  0  0  0  0  0
   -1.5037    1.5894    0.0964 C   0  0  0  0  0  0  0  0  0  0  0  0
    1.4338   -1.7521    0.0737 C   0  0  0  0  0  0  0  0  0  0  0  0
    0.9705    0.8955   -1.6187 C   0  0  0  0  0  0  0  0  0  0  0  0
    3.3376   -0.1028    0.0462 C   0  0  0  0  0  0  0  0  0  0  0  0
    2.7434   -1.4747   -0.0724 C   0  0  0  0  0  0  0  0  0  0  0  0
   -3.3702   -0.0606   -0.0472 C   0  0  0  0  0  0  0  0  0  0  0  0
    0.9470   -3.1714   -0.0035 C   0  0  0  0  0  0  0  0  0  0  0  0
   -4.4131   -0.3288    0.9970 C   0  0  0  0  0  0  0  0  0  0  0  0
   -3.6668   -0.0341   -1.3549 C   0  0  0  0  0  0  0  0  0  0  0  0
    0.3900   -0.6343    1.4985 H   0  0  0  0  0  0  0  0  0  0  0  0
    0.2512    2.8339    0.1474 H   0  0  0  0  0  0  0  0  0  0  0  0
    0.0225    1.8500    1.5834 H   0  0  0  0  0  0  0  0  0  0  0  0
   -1.0492   -0.9958   -1.1574 H   0  0  0  0  0  0  0  0  0  0  0  0
   -1.3625   -1.8773    0.3233 H   0  0  0  0  0  0  0  0  0  0  0  0
    2.2893    0.9437    1.6137 H   0  0  0  0  0  0  0  0  0  0  0  0
   -1.9788    0.1051    1.5522 H   0  0  0  0  0  0  0  0  0  0  0  0
   -2.1319    2.3272    0.6129 H   0  0  0  0  0  0  0  0  0  0  0  0
   -1.6244    1.7957   -0.9732 H   0  0  0  0  0  0  0  0  0  0  0  0
    1.6413    0.1677   -2.0845 H   0  0  0  0  0  0  0  0  0  0  0  0
   -0.0092    0.7522   -2.0823 H   0  0  0  0  0  0  0  0  0  0  0  0
    1.3171    1.8924   -1.9140 H   0  0  0  0  0  0  0  0  0  0  0  0
    4.1820   -0.1344    0.7458 H   0  0  0  0  0  0  0  0  0  0  0  0
    3.7716    0.1784   -0.9216 H   0  0  0  0  0  0  0  0  0  0  0  0
    3.4434   -2.2782   -0.2878 H   0  0  0  0  0  0  0  0  0  0  0  0
    0.4220   -3.4445    0.9176 H   0  0  0  0  0  0  0  0  0  0  0  0
    1.7687   -3.8840   -0.1331 H   0  0  0  0  0  0  0  0  0  0  0  0
    0.2675   -3.3001   -0.8517 H   0  0  0  0  0  0  0  0  0  0  0  0
    3.7368    2.3441    0.5598 H   0  0  0  0  0  0  0  0  0  0  0  0
   -4.1533   -1.2231    1.5729 H   0  0  0  0  0  0  0  0  0  0  0  0
   -4.4896    0.5196    1.6848 H   0  0  0  0  0  0  0  0  0  0  0  0
   -5.4033   -0.4917    0.5585 H   0  0  0  0  0  0  0  0  0  0  0  0
   -4.6802   -0.2071   -1.7027 H   0  0  0  0  0  0  0  0  0  0  0  0
   -2.9161    0.1580   -2.1136 H   0  0  0  0  0  0  0  0  0  0  0  0
  1  6  1  0  0  0  0
  1 35  1  0  0  0  0
  2  3  1  0  0  0  0
  2  4  1  0  0  0  0
  2  6  1  0  0  0  0
  2 10  1  0  0  0  0
  3  5  1  0  0  0  0
  3  9  1  0  0  0  0
  3 17  1  0  0  0  0
  4  8  1  0  0  0  0
  4 18  1  0  0  0  0
  4 19  1  0  0  0  0
  5  7  1  0  0  0  0
  5 20  1  0  0  0  0
  5 21  1  0  0  0  0
  6 11  1  0  0  0  0
  6 22  1  0  0  0  0
  7  8  1  0  0  0  0
  7 13  1  0  0  0  0
  7 23  1  0  0  0  0
  8 24  1  0  0  0  0
  8 25  1  0  0  0  0
  9 12  2  0  0  0  0
  9 14  1  0  0  0  0
 10 26  1  0  0  0  0
 10 27  1  0  0  0  0
 10 28  1  0  0  0  0
 11 12  1  0  0  0  0
 11 29  1  0  0  0  0
 11 30  1  0  0  0  0
 12 31  1  0  0  0  0
 13 15  1  0  0  0  0
 13 16  2  0  0  0  0
 14 32  1  0  0  0  0
 14 33  1  0  0  0  0
 14 34  1  0  0  0  0
 15 36  1  0  0  0  0
 15 37  1  0  0  0  0
 15 38  1  0  0  0  0
 16 39  1  0  0  0  0
 16 40  1  0  0  0  0
M  END
> <PUBCHEM_COMPOUND_CID>
23426951

> <PUBCHEM_CONFORMER_RMSD>
0.6

> <PUBCHEM_CONFORMER_DIVERSEORDER>
1
3
2

> <PUBCHEM_MMFF94_PARTIAL_CHARGES>
15
1 -0.68
11 0.14
12 -0.29
13 -0.28
14 0.14
15 0.14
16 -0.3
3 0.14
31 0.15
35 0.4
39 0.15
40 0.15
6 0.28
7 0.14
9 -0.28

> <PUBCHEM_EFFECTIVE_ROTOR_COUNT>
2.2

> <PUBCHEM_PHARMACOPHORE_FEATURES>
4
1 1 acceptor
1 1 donor
6 2 3 4 5 7 8 rings
6 2 3 6 9 11 12 rings

> <PUBCHEM_HEAVY_ATOM_COUNT>
16

> <PUBCHEM_ATOM_DEF_STEREO_COUNT>
4

> <PUBCHEM_ATOM_UDEF_STEREO_COUNT>
0

> <PUBCHEM_BOND_DEF_STEREO_COUNT>
0

> <PUBCHEM_BOND_UDEF_STEREO_COUNT>
0

> <PUBCHEM_ISOTOPIC_ATOM_COUNT>
0

> <PUBCHEM_COMPONENT_COUNT>
1

> <PUBCHEM_CACTVS_TAUTO_COUNT>
1

> <PUBCHEM_CONFORMER_ID>
0165778700000001

> <PUBCHEM_MMFF94_ENERGY>
39.2547

> <PUBCHEM_FEATURE_SELFOVERLAP>
20.313

> <PUBCHEM_SHAPE_FINGERPRINT>
10618630 7 18337395950474123729
10922523 26 18113613461433032213
10967382 1 18411418427462029410
10980938 120 18412820300328933163
11132069 177 18340472465359825224
11471102 20 18410569574436316007
11806522 49 18410573959508540254
12423570 1 8282877918676133108
12654215 9 18260818268107642189
13140716 1 18338797930694572554
13705890 14 17748830704466789947
14178342 30 18052811451911867392
14251717 144 18412816993278104719
14787075 74 17845355795614897216
15219456 202 18259982674147170309
15375462 189 18131350813087479211
15501101 241 18335140843398425110
15536298 74 18272651229641823464
15775835 57 18201442522920716881
15852999 172 18114176479668093371
16945 1 18411135788575548786
18186145 218 18341053003125267237
200 152 18201143374427922461
20201158 50 18334856087056417163
20559304 39 18339929207831592314
20645477 70 18341604885517776671
21267235 1 18340779169048629635
21501502 16 18194683653146157544
21730867 7 18408322189769889827
22445834 79 18270685242737739619
22802520 49 17970336032387451117
22854114 111 18411702097166904833
2334 1 18122905592707221754
23388829 49 18270959046818379005
23402539 116 17846212258895338685
23419403 2 16749516373166322297
23559900 14 18266730282343452042
23598291 2 17917708007266157319
2748010 2 18265343991306960482
33824 294 18410009957388338955
581208 293 18341322362094181320
633830 44 18130237046099712101
7364860 26 18341896255677085274
77492 1 17632293484587978483
81228 2 17042596523262021755

> <PUBCHEM_SHAPE_MULTIPOLES>
323.4
6.11
2.42
1.02
5.08
0.97
-0.34
0.28
0.32
-1.92
0.13
0.52
-0.16
0.1

> <PUBCHEM_SHAPE_SELFOVERLAP>
662.514

> <PUBCHEM_SHAPE_VOLUME>
185

> <PUBCHEM_COORDINATE_TYPE>
2
5
10

$$$$
