101238033
  -OEChem-09012015393D

 38 40  0     1  0  0  0  0  0999 V2000
    1.2100    1.6091    0.1611 O   0  0  0  0  0  0  0  0  0  0  0  0
   -3.5928    1.5849   -1.2071 O   0  0  0  0  0  0  0  0  0  0  0  0
    3.4188    2.2072    0.1898 O   0  0  0  0  0  0  0  0  0  0  0  0
   -0.7849    0.3283    0.5931 C   0  0  2  0  0  0  0  0  0  0  0  0
    0.4301    0.5016   -0.3419 C   0  0  2  0  0  0  0  0  0  0  0  0
   -1.6358   -0.9357    0.3302 C   0  0  1  0  0  0  0  0  0  0  0  0
    1.4335   -0.6514   -0.4499 C   0  0  1  0  0  0  0  0  0  0  0  0
   -1.7870    1.4970    0.4045 C   0  0  1  0  0  0  0  0  0  0  0  0
   -2.5127   -0.5437   -0.8679 C   0  0  0  0  0  0  0  0  0  0  0  0
    2.7126    0.1084   -0.8248 C   0  0  1  0  0  0  0  0  0  0  0  0
    1.5427   -1.5099    0.8246 C   0  0  0  0  0  0  0  0  0  0  0  0
   -0.8574   -2.2269    0.2152 C   0  0  0  0  0  0  0  0  0  0  0  0
    0.3123   -2.3752    1.1581 C   0  0  0  0  0  0  0  0  0  0  0  0
   -2.7385    0.9265   -0.6265 C   0  0  0  0  0  0  0  0  0  0  0  0
    2.5360    1.4145   -0.0983 C   0  0  0  0  0  0  0  0  0  0  0  0
   -2.5478    1.8463    1.6760 C   0  0  0  0  0  0  0  0  0  0  0  0
    4.0318   -0.5671   -0.4958 C   0  0  0  0  0  0  0  0  0  0  0  0
   -1.1710   -3.2138   -0.6405 C   0  0  0  0  0  0  0  0  0  0  0  0
   -0.4254    0.3409    1.6309 H   0  0  0  0  0  0  0  0  0  0  0  0
    0.0952    0.7866   -1.3483 H   0  0  0  0  0  0  0  0  0  0  0  0
   -2.3004   -1.0636    1.1983 H   0  0  0  0  0  0  0  0  0  0  0  0
    1.1669   -1.3132   -1.2834 H   0  0  0  0  0  0  0  0  0  0  0  0
   -1.3009    2.3895   -0.0022 H   0  0  0  0  0  0  0  0  0  0  0  0
   -3.4648   -1.0810   -0.8670 H   0  0  0  0  0  0  0  0  0  0  0  0
   -1.9988   -0.6662   -1.8264 H   0  0  0  0  0  0  0  0  0  0  0  0
    2.6881    0.3413   -1.8977 H   0  0  0  0  0  0  0  0  0  0  0  0
    1.7779   -0.8754    1.6889 H   0  0  0  0  0  0  0  0  0  0  0  0
    2.3905   -2.1987    0.7256 H   0  0  0  0  0  0  0  0  0  0  0  0
   -0.0226   -2.1498    2.1792 H   0  0  0  0  0  0  0  0  0  0  0  0
    0.6334   -3.4249    1.1993 H   0  0  0  0  0  0  0  0  0  0  0  0
   -3.1141    0.9937    2.0652 H   0  0  0  0  0  0  0  0  0  0  0  0
   -3.2667    2.6503    1.4840 H   0  0  0  0  0  0  0  0  0  0  0  0
   -1.8605    2.1868    2.4571 H   0  0  0  0  0  0  0  0  0  0  0  0
    4.0851   -1.5637   -0.9451 H   0  0  0  0  0  0  0  0  0  0  0  0
    4.8683    0.0218   -0.8888 H   0  0  0  0  0  0  0  0  0  0  0  0
    4.1905   -0.6558    0.5842 H   0  0  0  0  0  0  0  0  0  0  0  0
   -2.0162   -3.1445   -1.3157 H   0  0  0  0  0  0  0  0  0  0  0  0
   -0.5863   -4.1271   -0.6835 H   0  0  0  0  0  0  0  0  0  0  0  0
  1  5  1  0  0  0  0
  1 15  1  0  0  0  0
  2 14  2  0  0  0  0
  3 15  2  0  0  0  0
  4  5  1  0  0  0  0
  4  6  1  0  0  0  0
  4  8  1  0  0  0  0
  4 19  1  0  0  0  0
  5  7  1  0  0  0  0
  5 20  1  0  0  0  0
  6  9  1  0  0  0  0
  6 12  1  0  0  0  0
  6 21  1  0  0  0  0
  7 10  1  0  0  0  0
  7 11  1  0  0  0  0
  7 22  1  0  0  0  0
  8 14  1  0  0  0  0
  8 16  1  0  0  0  0
  8 23  1  0  0  0  0
  9 14  1  0  0  0  0
  9 24  1  0  0  0  0
  9 25  1  0  0  0  0
 10 15  1  0  0  0  0
 10 17  1  0  0  0  0
 10 26  1  0  0  0  0
 11 13  1  0  0  0  0
 11 27  1  0  0  0  0
 11 28  1  0  0  0  0
 12 13  1  0  0  0  0
 12 18  2  0  0  0  0
 13 29  1  0  0  0  0
 13 30  1  0  0  0  0
 16 31  1  0  0  0  0
 16 32  1  0  0  0  0
 16 33  1  0  0  0  0
 17 34  1  0  0  0  0
 17 35  1  0  0  0  0
 17 36  1  0  0  0  0
 18 37  1  0  0  0  0
 18 38  1  0  0  0  0
M  END
> <PUBCHEM_COMPOUND_CID>
101238033

> <PUBCHEM_CONFORMER_RMSD>
0.6

> <PUBCHEM_CONFORMER_DIVERSEORDER>
1
7
2
3
10
8
6
5
9
11
4

> <PUBCHEM_MMFF94_PARTIAL_CHARGES>
15
1 -0.43
10 0.06
12 -0.28
13 0.14
14 0.45
15 0.66
18 -0.3
2 -0.57
3 -0.57
37 0.15
38 0.15
5 0.28
6 0.14
8 0.06
9 0.06

> <PUBCHEM_EFFECTIVE_ROTOR_COUNT>
1.2

> <PUBCHEM_PHARMACOPHORE_FEATURES>
5
1 2 acceptor
1 3 acceptor
5 1 5 7 10 15 rings
5 4 6 8 9 14 rings
7 4 5 6 7 11 12 13 rings

> <PUBCHEM_HEAVY_ATOM_COUNT>
18

> <PUBCHEM_ATOM_DEF_STEREO_COUNT>
4

> <PUBCHEM_ATOM_UDEF_STEREO_COUNT>
2

> <PUBCHEM_BOND_DEF_STEREO_COUNT>
0

> <PUBCHEM_BOND_UDEF_STEREO_COUNT>
0

> <PUBCHEM_ISOTOPIC_ATOM_COUNT>
0

> <PUBCHEM_COMPONENT_COUNT>
1

> <PUBCHEM_CACTVS_TAUTO_COUNT>
6

> <PUBCHEM_CONFORMER_ID>
0608C51100000001

> <PUBCHEM_MMFF94_ENERGY>
45.1736

> <PUBCHEM_FEATURE_SELFOVERLAP>
25.457

> <PUBCHEM_SHAPE_FINGERPRINT>
10967382 1 18192994820566021934
12491281 212 18339656580698371642
12592029 89 18114177476459104715
12730499 353 18188770527584943741
13140716 1 18336835199238022784
14181834 199 17682681718534521575
14614273 12 18115299119805488903
14817 1 16899833068889420371
14955137 171 17836102073310673482
15309172 13 18335711489943991721
15490181 7 18334576858136573259
15490181 8 18197783193900405715
15775835 57 18187365376718612935
16945 1 18343310279233407206
17134986 127 18261946367101193437
18186145 218 18412268302642570804
18219364 16 18188504462270155593
20510252 161 18121221140866868066
21501502 16 18266467679753746188
21524375 3 18334585598505952699
21639500 275 18118673327944523461
2334 1 18409172142217482152
23388829 49 17689705368557806587
23419403 2 16972768184965185773
23557571 272 17982746464853493838
23559900 14 18341622495537642590
238 59 17683206245704992021
25 1 18190462666693414733
2748010 2 18335715935002904463
3060560 45 18264482888786495615
353137 74 18337666546209158755
526903 126 18339920540598294433
5845 1 17335100065424038251
63268167 104 18190740834482010371
69090 78 18340206387978254455
7364860 26 18049439245000972751
74978 22 18411140251241702636
81228 2 17974862970524047683
8272917 22 17978231556967765773
9709674 26 18271811284631749822
9981440 41 17982718977495563400

> <PUBCHEM_SHAPE_MULTIPOLES>
352.82
5.4
2.99
1.15
2.37
1.56
-0.18
-2.97
1.2
-0.58
-0.38
-0.65
-0.06
-0.34

> <PUBCHEM_SHAPE_SELFOVERLAP>
752.062

> <PUBCHEM_SHAPE_VOLUME>
197.8

> <PUBCHEM_COORDINATE_TYPE>
2
5
10

$$$$
