6710676
  -OEChem-09012016043D

 38 40  0     1  0  0  0  0  0999 V2000
    3.0707   -1.1454   -0.6607 O   0  0  0  0  0  0  0  0  0  0  0  0
    0.0776    2.6747   -0.7746 O   0  0  0  0  0  0  0  0  0  0  0  0
   -1.1589   -0.4078   -0.4156 C   0  0  1  0  0  0  0  0  0  0  0  0
   -2.6537   -0.2283   -0.0359 C   0  0  0  0  0  0  0  0  0  0  0  0
   -0.8620    0.8017    0.5447 C   0  0  2  0  0  0  0  0  0  0  0  0
   -2.3384    1.2305    0.3198 C   0  0  0  0  0  0  0  0  0  0  0  0
    1.7958   -1.1927   -0.0043 C   0  0  1  0  0  0  0  0  0  0  0  0
   -0.6336   -1.8007   -0.0568 C   0  0  0  0  0  0  0  0  0  0  0  0
    2.2487    0.0212   -0.7667 C   0  0  1  0  0  0  0  0  0  0  0  0
    0.7640   -2.0772   -0.6153 C   0  0  0  0  0  0  0  0  0  0  0  0
    0.2301    1.8395    0.1253 C   0  0  0  0  0  0  0  0  0  0  0  0
    2.6794    1.2369   -0.0176 C   0  0  0  0  0  0  0  0  0  0  0  0
   -3.6966   -0.3338   -1.1324 C   0  0  0  0  0  0  0  0  0  0  0  0
   -3.0762   -1.0608    1.1548 C   0  0  0  0  0  0  0  0  0  0  0  0
    1.5585    1.7816    0.8665 C   0  0  0  0  0  0  0  0  0  0  0  0
    1.9944   -1.3393    1.4688 C   0  0  0  0  0  0  0  0  0  0  0  0
   -0.9704   -0.1660   -1.4720 H   0  0  0  0  0  0  0  0  0  0  0  0
   -0.7086    0.4816    1.5850 H   0  0  0  0  0  0  0  0  0  0  0  0
   -2.8449    1.6341    1.2023 H   0  0  0  0  0  0  0  0  0  0  0  0
   -2.4759    1.9426   -0.5035 H   0  0  0  0  0  0  0  0  0  0  0  0
   -1.2983   -2.5527   -0.5018 H   0  0  0  0  0  0  0  0  0  0  0  0
   -0.6398   -1.9747    1.0236 H   0  0  0  0  0  0  0  0  0  0  0  0
    1.8039    0.2425   -1.7280 H   0  0  0  0  0  0  0  0  0  0  0  0
    1.0251   -3.1247   -0.4204 H   0  0  0  0  0  0  0  0  0  0  0  0
    0.7502   -1.9606   -1.7063 H   0  0  0  0  0  0  0  0  0  0  0  0
    2.9657    2.0028   -0.7489 H   0  0  0  0  0  0  0  0  0  0  0  0
    3.5714    1.0463    0.5899 H   0  0  0  0  0  0  0  0  0  0  0  0
   -3.8093   -1.3706   -1.4679 H   0  0  0  0  0  0  0  0  0  0  0  0
   -4.6755    0.0191   -0.7894 H   0  0  0  0  0  0  0  0  0  0  0  0
   -3.4192    0.2618   -2.0093 H   0  0  0  0  0  0  0  0  0  0  0  0
   -2.3994   -0.9765    2.0115 H   0  0  0  0  0  0  0  0  0  0  0  0
   -4.0606   -0.7390    1.5171 H   0  0  0  0  0  0  0  0  0  0  0  0
   -3.1707   -2.1223    0.9002 H   0  0  0  0  0  0  0  0  0  0  0  0
    1.8044    2.7994    1.1925 H   0  0  0  0  0  0  0  0  0  0  0  0
    1.4381    1.2057    1.7857 H   0  0  0  0  0  0  0  0  0  0  0  0
    2.1401   -2.3958    1.7227 H   0  0  0  0  0  0  0  0  0  0  0  0
    2.8789   -0.8082    1.8358 H   0  0  0  0  0  0  0  0  0  0  0  0
    1.1312   -0.9863    2.0380 H   0  0  0  0  0  0  0  0  0  0  0  0
  1  7  1  0  0  0  0
  1  9  1  0  0  0  0
  2 11  2  0  0  0  0
  3  4  1  0  0  0  0
  3  5  1  0  0  0  0
  3  8  1  0  0  0  0
  3 17  1  0  0  0  0
  4  6  1  0  0  0  0
  4 13  1  0  0  0  0
  4 14  1  0  0  0  0
  5  6  1  0  0  0  0
  5 11  1  0  0  0  0
  5 18  1  0  0  0  0
  6 19  1  0  0  0  0
  6 20  1  0  0  0  0
  7  9  1  0  0  0  0
  7 10  1  0  0  0  0
  7 16  1  0  0  0  0
  8 10  1  0  0  0  0
  8 21  1  0  0  0  0
  8 22  1  0  0  0  0
  9 12  1  0  0  0  0
  9 23  1  0  0  0  0
 10 24  1  0  0  0  0
 10 25  1  0  0  0  0
 11 15  1  0  0  0  0
 12 15  1  0  0  0  0
 12 26  1  0  0  0  0
 12 27  1  0  0  0  0
 13 28  1  0  0  0  0
 13 29  1  0  0  0  0
 13 30  1  0  0  0  0
 14 31  1  0  0  0  0
 14 32  1  0  0  0  0
 14 33  1  0  0  0  0
 15 34  1  0  0  0  0
 15 35  1  0  0  0  0
 16 36  1  0  0  0  0
 16 37  1  0  0  0  0
 16 38  1  0  0  0  0
M  END
> <PUBCHEM_COMPOUND_CID>
6710676

> <PUBCHEM_CONFORMER_RMSD>
0.6

> <PUBCHEM_CONFORMER_DIVERSEORDER>
1
3
2

> <PUBCHEM_MMFF94_PARTIAL_CHARGES>
11
1 -0.3
10 0.09
11 0.46
12 0.09
15 0.06
16 0.09
2 -0.57
23 0.1
5 0.05
7 -0.04
9 -0.05

> <PUBCHEM_EFFECTIVE_ROTOR_COUNT>
1.4

> <PUBCHEM_PHARMACOPHORE_FEATURES>
4
1 1 acceptor
1 2 acceptor
3 4 13 14 hydrophobe
4 3 4 5 6 rings

> <PUBCHEM_HEAVY_ATOM_COUNT>
16

> <PUBCHEM_ATOM_DEF_STEREO_COUNT>
4

> <PUBCHEM_ATOM_UDEF_STEREO_COUNT>
0

> <PUBCHEM_BOND_DEF_STEREO_COUNT>
0

> <PUBCHEM_BOND_UDEF_STEREO_COUNT>
0

> <PUBCHEM_ISOTOPIC_ATOM_COUNT>
0

> <PUBCHEM_COMPONENT_COUNT>
1

> <PUBCHEM_CACTVS_TAUTO_COUNT>
3

> <PUBCHEM_CONFORMER_ID>
0066659400000001

> <PUBCHEM_MMFF94_ENERGY>
39.3984

> <PUBCHEM_FEATURE_SELFOVERLAP>
20.297

> <PUBCHEM_SHAPE_FINGERPRINT>
104564 63 18195817266756384420
10967382 1 18340770462996569589
10980938 120 18411981398763660591
11086676 242 18264494983620077408
11132069 177 18200026227321583122
12524768 44 18413389855957964375
12654215 9 18408595968080992020
13140716 1 18339925887779843777
13172582 1 18343300349089638467
13897977 150 18268991054243650091
14251711 518 18339635775724198602
14251717 144 18342729754368574575
15536298 74 18059856181587349720
15757776 16 18409722971952542204
15775835 57 18337676420280742118
15881359 60 17911762900175443420
16945 1 18198345245757113288
17990270 104 18341333292727901354
20645477 70 18341325673898939263
21501502 16 18338795598569489401
22721475 48 18268996396956229944
22802520 49 17555194457764387606
2334 1 18411702084182068481
23388829 49 18272088318554299285
23402539 116 18200589190576988758
23419403 2 16743896765020711322
23463225 33 18410013195577155224
2748010 2 18411133628022512485
2897 32 18340770462986156516
3060560 45 18272647965277171231
528862 383 18338230587015532619
63268167 104 18342742943901891088
66348 1 18412266163769631528
7364860 26 18130504244631426600
81228 2 17978229357443389457

> <PUBCHEM_SHAPE_MULTIPOLES>
317.53
4.97
2.45
1.11
2.23
0.62
-0.18
-0.75
0.33
-0.94
0.05
0.09
-0.19
0.11

> <PUBCHEM_SHAPE_SELFOVERLAP>
660.04

> <PUBCHEM_SHAPE_VOLUME>
181.3

> <PUBCHEM_COORDINATE_TYPE>
2
5
10

$$$$
