382536
  -OEChem-09012016093D

 43 45  0     1  0  0  0  0  0999 V2000
    0.0848    2.9535   -0.5056 O   0  0  0  0  0  0  0  0  0  0  0  0
    2.7911   -1.5859    1.2689 O   0  0  0  0  0  0  0  0  0  0  0  0
   -1.1488    0.9299   -0.3070 C   0  0  2  0  0  0  0  0  0  0  0  0
   -1.3702   -0.5608   -0.7188 C   0  0  2  0  0  0  0  0  0  0  0  0
   -2.7077   -0.4933    0.0675 C   0  0  0  0  0  0  0  0  0  0  0  0
    0.2335    1.5699   -0.1245 C   0  0  1  0  0  0  0  0  0  0  0  0
   -2.1057    0.6619    0.8895 C   0  0  0  0  0  0  0  0  0  0  0  0
    1.8626   -0.3887   -0.6769 C   0  0  2  0  0  0  0  0  0  0  0  0
    1.2532    0.9703   -1.1014 C   0  0  0  0  0  0  0  0  0  0  0  0
   -0.4268   -1.6595   -0.2618 C   0  0  0  0  0  0  0  0  0  0  0  0
    0.9143   -1.5840   -0.9808 C   0  0  0  0  0  0  0  0  0  0  0  0
    0.7757    1.5946    1.3077 C   0  0  0  0  0  0  0  0  0  0  0  0
    2.3558   -0.3128    0.7960 C   0  0  1  0  0  0  0  0  0  0  0  0
    1.3650    0.2831    1.7935 C   0  0  0  0  0  0  0  0  0  0  0  0
   -3.1035   -1.6809    0.9167 C   0  0  0  0  0  0  0  0  0  0  0  0
   -3.8860   -0.0690   -0.7912 C   0  0  0  0  0  0  0  0  0  0  0  0
    3.1127   -0.6284   -1.5718 C   0  0  0  0  0  0  0  0  0  0  0  0
   -1.6654    1.5550   -1.0574 H   0  0  0  0  0  0  0  0  0  0  0  0
   -1.5204   -0.6623   -1.8042 H   0  0  0  0  0  0  0  0  0  0  0  0
   -1.6197    0.3388    1.8157 H   0  0  0  0  0  0  0  0  0  0  0  0
   -2.7814    1.4870    1.1359 H   0  0  0  0  0  0  0  0  0  0  0  0
    2.0713    1.6979   -1.2146 H   0  0  0  0  0  0  0  0  0  0  0  0
    0.8153    0.8914   -2.1063 H   0  0  0  0  0  0  0  0  0  0  0  0
   -0.8743   -2.6286   -0.5199 H   0  0  0  0  0  0  0  0  0  0  0  0
   -0.2857   -1.6843    0.8166 H   0  0  0  0  0  0  0  0  0  0  0  0
    1.4492   -2.5185   -0.7621 H   0  0  0  0  0  0  0  0  0  0  0  0
    0.7193   -1.6090   -2.0624 H   0  0  0  0  0  0  0  0  0  0  0  0
    0.0134    1.9508    2.0107 H   0  0  0  0  0  0  0  0  0  0  0  0
    1.5689    2.3549    1.3626 H   0  0  0  0  0  0  0  0  0  0  0  0
    3.2439    0.3342    0.8161 H   0  0  0  0  0  0  0  0  0  0  0  0
    1.8868    0.4603    2.7438 H   0  0  0  0  0  0  0  0  0  0  0  0
    0.5818   -0.4265    2.0611 H   0  0  0  0  0  0  0  0  0  0  0  0
   -4.0081   -1.4650    1.4975 H   0  0  0  0  0  0  0  0  0  0  0  0
   -3.3134   -2.5587    0.2955 H   0  0  0  0  0  0  0  0  0  0  0  0
   -2.3335   -1.9627    1.6417 H   0  0  0  0  0  0  0  0  0  0  0  0
   -3.6750    0.8059   -1.4142 H   0  0  0  0  0  0  0  0  0  0  0  0
   -4.1855   -0.8781   -1.4673 H   0  0  0  0  0  0  0  0  0  0  0  0
   -4.7548    0.1829   -0.1719 H   0  0  0  0  0  0  0  0  0  0  0  0
    3.8588    0.1634   -1.4378 H   0  0  0  0  0  0  0  0  0  0  0  0
    3.5983   -1.5820   -1.3355 H   0  0  0  0  0  0  0  0  0  0  0  0
    2.8415   -0.6458   -2.6339 H   0  0  0  0  0  0  0  0  0  0  0  0
   -0.0944    2.9906   -1.4608 H   0  0  0  0  0  0  0  0  0  0  0  0
    3.1356   -1.4649    2.1701 H   0  0  0  0  0  0  0  0  0  0  0  0
  1  6  1  0  0  0  0
  1 42  1  0  0  0  0
  2 13  1  0  0  0  0
  2 43  1  0  0  0  0
  3  4  1  0  0  0  0
  3  6  1  0  0  0  0
  3  7  1  0  0  0  0
  3 18  1  0  0  0  0
  4  5  1  0  0  0  0
  4 10  1  0  0  0  0
  4 19  1  0  0  0  0
  5  7  1  0  0  0  0
  5 15  1  0  0  0  0
  5 16  1  0  0  0  0
  6  9  1  0  0  0  0
  6 12  1  0  0  0  0
  7 20  1  0  0  0  0
  7 21  1  0  0  0  0
  8  9  1  0  0  0  0
  8 11  1  0  0  0  0
  8 13  1  0  0  0  0
  8 17  1  0  0  0  0
  9 22  1  0  0  0  0
  9 23  1  0  0  0  0
 10 11  1  0  0  0  0
 10 24  1  0  0  0  0
 10 25  1  0  0  0  0
 11 26  1  0  0  0  0
 11 27  1  0  0  0  0
 12 14  1  0  0  0  0
 12 28  1  0  0  0  0
 12 29  1  0  0  0  0
 13 14  1  0  0  0  0
 13 30  1  0  0  0  0
 14 31  1  0  0  0  0
 14 32  1  0  0  0  0
 15 33  1  0  0  0  0
 15 34  1  0  0  0  0
 15 35  1  0  0  0  0
 16 36  1  0  0  0  0
 16 37  1  0  0  0  0
 16 38  1  0  0  0  0
 17 39  1  0  0  0  0
 17 40  1  0  0  0  0
 17 41  1  0  0  0  0
M  END
> <PUBCHEM_COMPOUND_CID>
382536

> <PUBCHEM_CONFORMER_RMSD>
0.6

> <PUBCHEM_CONFORMER_DIVERSEORDER>
1
11
5
7
8
3
9
6
2
4
10

> <PUBCHEM_MMFF94_PARTIAL_CHARGES>
6
1 -0.68
13 0.28
2 -0.68
42 0.4
43 0.4
6 0.28

> <PUBCHEM_EFFECTIVE_ROTOR_COUNT>
1.6

> <PUBCHEM_PHARMACOPHORE_FEATURES>
8
1 1 acceptor
1 1 donor
1 2 acceptor
1 2 donor
3 5 15 16 hydrophobe
4 3 4 5 7 rings
6 6 8 9 12 13 14 rings
7 3 4 6 8 9 10 11 rings

> <PUBCHEM_HEAVY_ATOM_COUNT>
17

> <PUBCHEM_ATOM_DEF_STEREO_COUNT>
2

> <PUBCHEM_ATOM_UDEF_STEREO_COUNT>
3

> <PUBCHEM_BOND_DEF_STEREO_COUNT>
0

> <PUBCHEM_BOND_UDEF_STEREO_COUNT>
0

> <PUBCHEM_ISOTOPIC_ATOM_COUNT>
0

> <PUBCHEM_COMPONENT_COUNT>
1

> <PUBCHEM_CACTVS_TAUTO_COUNT>
1

> <PUBCHEM_CONFORMER_ID>
0005D64800000001

> <PUBCHEM_MMFF94_ENERGY>
65.6628

> <PUBCHEM_FEATURE_SELFOVERLAP>
41.438

> <PUBCHEM_SHAPE_FINGERPRINT>
104564 63 18056493750380607141
10863032 1 15357707413055410194
10948715 1 17389952480125452836
11086676 242 18410854343589717442
11578080 2 17024840789390277836
11640471 11 13182434716970877250
12011746 2 18059842991837735736
12382932 28 18200314299378486611
12696612 119 18268986660323372739
12716301 132 17978770347171010720
13172582 1 18343576369468393607
14115302 16 17531237323412965115
14181834 199 18126544937630015325
144361 1 18270981118639547370
14817 1 12798348066663898512
15881359 60 17626622190310393637
16945 1 18193565471147768396
17990270 104 18265902534697555207
20511035 2 17984410012771337910
20645477 70 18194404631192118847
21524375 3 17257653850824457077
22344851 341 17904770234051252872
22721475 48 18200600198097671967
23419403 2 14249157864076095758
23493267 7 18042418949262282151
23559900 14 17986680256087306670
2748010 2 18342168977473634037
3286 77 16630525090214880174
528886 8 18338533948987321725
568465 68 18060135431634085242
5845 1 9186779714362223352
7364860 26 18056486281316818061
74978 22 18260828245896945305
81228 2 18124036732590392009

> <PUBCHEM_SHAPE_MULTIPOLES>
338.11
4.81
2.11
1.51
2.65
0.76
-0.33
-1.94
0.12
-0.27
0.09
-0.8
-0.03
0.29

> <PUBCHEM_SHAPE_SELFOVERLAP>
710.034

> <PUBCHEM_SHAPE_VOLUME>
190

> <PUBCHEM_COORDINATE_TYPE>
2
5
10

$$$$
