102054514
  -OEChem-09012016123D

 38 39  0     1  0  0  0  0  0999 V2000
    3.9693   -0.9471   -0.2094 O   0  0  0  0  0  0  0  0  0  0  0  0
   -4.4857    1.2967    0.3994 O   0  0  0  0  0  0  0  0  0  0  0  0
    0.6387    0.1140    0.9429 C   0  0  2  0  0  0  0  0  0  0  0  0
   -0.0045   -1.2443    0.8305 C   0  0  1  0  0  0  0  0  0  0  0  0
   -0.4688   -0.1219   -0.0645 C   0  0  1  0  0  0  0  0  0  0  0  0
    2.0705    0.3209    0.5269 C   0  0  1  0  0  0  0  0  0  0  0  0
    0.7929   -2.3936    0.3032 C   0  0  0  0  0  0  0  0  0  0  0  0
   -1.8085    0.4943    0.1502 C   0  0  0  0  0  0  0  0  0  0  0  0
    1.8703   -1.9779   -0.6854 C   0  0  0  0  0  0  0  0  0  0  0  0
    2.7422   -0.8913   -0.1013 C   0  0  0  0  0  0  0  0  0  0  0  0
    2.2130    1.5264   -0.3968 C   0  0  0  0  0  0  0  0  0  0  0  0
   -2.9360   -0.3725   -0.4108 C   0  0  0  0  0  0  0  0  0  0  0  0
    1.5144    2.7470    0.1994 C   0  0  0  0  0  0  0  0  0  0  0  0
    3.6863    1.8293   -0.6630 C   0  0  0  0  0  0  0  0  0  0  0  0
   -4.3130    0.2177   -0.1652 C   0  0  0  0  0  0  0  0  0  0  0  0
   -5.4811   -0.5975   -0.6560 C   0  0  0  0  0  0  0  0  0  0  0  0
    0.3967    0.6906    1.8307 H   0  0  0  0  0  0  0  0  0  0  0  0
   -0.6616   -1.5546    1.6354 H   0  0  0  0  0  0  0  0  0  0  0  0
   -0.2161   -0.1562   -1.1165 H   0  0  0  0  0  0  0  0  0  0  0  0
    2.6290    0.5033    1.4565 H   0  0  0  0  0  0  0  0  0  0  0  0
    0.1192   -3.1167   -0.1701 H   0  0  0  0  0  0  0  0  0  0  0  0
    1.2620   -2.9024    1.1544 H   0  0  0  0  0  0  0  0  0  0  0  0
   -1.8281    1.4793   -0.3320 H   0  0  0  0  0  0  0  0  0  0  0  0
   -1.9851    0.6729    1.2187 H   0  0  0  0  0  0  0  0  0  0  0  0
    1.4440   -1.6083   -1.6234 H   0  0  0  0  0  0  0  0  0  0  0  0
    2.4970   -2.8434   -0.9272 H   0  0  0  0  0  0  0  0  0  0  0  0
    1.7411    1.3166   -1.3657 H   0  0  0  0  0  0  0  0  0  0  0  0
   -2.8063   -0.4984   -1.4917 H   0  0  0  0  0  0  0  0  0  0  0  0
   -2.9086   -1.3654    0.0526 H   0  0  0  0  0  0  0  0  0  0  0  0
    1.8874    2.9676    1.2056 H   0  0  0  0  0  0  0  0  0  0  0  0
    0.4295    2.6224    0.2542 H   0  0  0  0  0  0  0  0  0  0  0  0
    1.6930    3.6331   -0.4204 H   0  0  0  0  0  0  0  0  0  0  0  0
    4.2757    1.8384    0.2601 H   0  0  0  0  0  0  0  0  0  0  0  0
    3.7968    2.8152   -1.1296 H   0  0  0  0  0  0  0  0  0  0  0  0
    4.1320    1.1190   -1.3652 H   0  0  0  0  0  0  0  0  0  0  0  0
   -6.4156   -0.0757   -0.4319 H   0  0  0  0  0  0  0  0  0  0  0  0
   -5.4037   -0.7342   -1.7374 H   0  0  0  0  0  0  0  0  0  0  0  0
   -5.4884   -1.5672   -0.1523 H   0  0  0  0  0  0  0  0  0  0  0  0
  1 10  2  0  0  0  0
  2 15  2  0  0  0  0
  3  4  1  0  0  0  0
  3  5  1  0  0  0  0
  3  6  1  0  0  0  0
  3 17  1  0  0  0  0
  4  5  1  0  0  0  0
  4  7  1  0  0  0  0
  4 18  1  0  0  0  0
  5  8  1  0  0  0  0
  5 19  1  0  0  0  0
  6 10  1  0  0  0  0
  6 11  1  0  0  0  0
  6 20  1  0  0  0  0
  7  9  1  0  0  0  0
  7 21  1  0  0  0  0
  7 22  1  0  0  0  0
  8 12  1  0  0  0  0
  8 23  1  0  0  0  0
  8 24  1  0  0  0  0
  9 10  1  0  0  0  0
  9 25  1  0  0  0  0
  9 26  1  0  0  0  0
 11 13  1  0  0  0  0
 11 14  1  0  0  0  0
 11 27  1  0  0  0  0
 12 15  1  0  0  0  0
 12 28  1  0  0  0  0
 12 29  1  0  0  0  0
 13 30  1  0  0  0  0
 13 31  1  0  0  0  0
 13 32  1  0  0  0  0
 14 33  1  0  0  0  0
 14 34  1  0  0  0  0
 14 35  1  0  0  0  0
 15 16  1  0  0  0  0
 16 36  1  0  0  0  0
 16 37  1  0  0  0  0
 16 38  1  0  0  0  0
M  END
> <PUBCHEM_COMPOUND_CID>
102054514

> <PUBCHEM_CONFORMER_RMSD>
0.6

> <PUBCHEM_CONFORMER_DIVERSEORDER>
1
66
51
40
65
46
17
37
21
14
42
15
63
32
64
27
16
44
55
67
18
60
61
56
4
53
7
38
50
54
22
48
58
30
34
19
41
2
39
45
47
26
9
57
3
12
24
49
59
33
13
11
52
31
6
8
36
5
25
28
35
62
10
69
23
43
68
20
29

> <PUBCHEM_MMFF94_PARTIAL_CHARGES>
16
1 -0.57
10 0.45
12 0.06
15 0.45
16 0.06
17 0.1
18 0.1
19 0.1
2 -0.57
3 -0.19
4 -0.19
5 -0.19
6 0.16
7 0.09
8 0.09
9 0.06

> <PUBCHEM_EFFECTIVE_ROTOR_COUNT>
4.8

> <PUBCHEM_PHARMACOPHORE_FEATURES>
4
1 1 acceptor
1 2 acceptor
3 11 13 14 hydrophobe
7 3 4 5 6 7 9 10 rings

> <PUBCHEM_HEAVY_ATOM_COUNT>
16

> <PUBCHEM_ATOM_DEF_STEREO_COUNT>
4

> <PUBCHEM_ATOM_UDEF_STEREO_COUNT>
0

> <PUBCHEM_BOND_DEF_STEREO_COUNT>
0

> <PUBCHEM_BOND_UDEF_STEREO_COUNT>
0

> <PUBCHEM_ISOTOPIC_ATOM_COUNT>
0

> <PUBCHEM_COMPONENT_COUNT>
1

> <PUBCHEM_CACTVS_TAUTO_COUNT>
9

> <PUBCHEM_CONFORMER_ID>
06153A7200000001

> <PUBCHEM_MMFF94_ENERGY>
30.5009

> <PUBCHEM_FEATURE_SELFOVERLAP>
20.297

> <PUBCHEM_SHAPE_FINGERPRINT>
11471102 20 18409728465009965921
116883 192 18126009252155440492
12730499 353 18335991972957278515
12824470 246 13253148626364167396
13380536 305 18408885144255830674
13836976 161 18343861117300134383
14251717 144 18410572881487397895
14252887 29 12031788075941000695
14415576 193 18409449180767289165
14911166 2 18337118895288104414
15219456 202 18261121823521979115
15477762 27 18342175523024969966
16945 1 18337969887191563994
17134986 127 18120377807185834076
17834072 33 18341608248756679223
18186145 218 18113613482870821609
19422 9 18202001010909493843
20606313 2 18410012130704873164
20612939 158 18408888433842096396
20645477 70 18412826871855957447
20708731 107 18413106152009089754
20820808 20 18411136961059357834
21524375 3 18189047754057932376
21709351 56 18410566258932606045
221490 88 18409455816486987035
22289505 5 18263352608361501941
2255824 54 18337952294636481723
23402539 116 18268985402219942198
23402655 69 18413390955506437621
23557571 272 14764351505018773338
23558518 356 17539403641169930978
23590187 302 18343863316402153469
23598291 2 17915759594962176961
25 1 18408887373269913292
2748010 2 18194702564462213682
29717793 49 18060132116625889837
3060560 45 18411135848763223942
4047638 21 18186521016265724746
474 4 18188490288952009765
4990 188 18131074822494089063
5281201 14 18410855417716565925
543358 83 18268153050437351321
58051976 378 18340484568894273727
633830 44 18334574633807640119
7364860 26 18413386544522367889
77779 3 18413107239226652839
81539 233 18260264174339900878
8272917 22 18341337703965282567
84936 182 18130505356859606424
9999458 23 18040433291656110238

> <PUBCHEM_SHAPE_MULTIPOLES>
317.53
8.62
2.41
0.85
12.76
0.29
-0.04
1.69
2.06
-2.34
0.06
-0.07
-0.05
-0.32

> <PUBCHEM_SHAPE_SELFOVERLAP>
641.742

> <PUBCHEM_SHAPE_VOLUME>
185.6

> <PUBCHEM_COORDINATE_TYPE>
2
5
10

$$$$
