71719409
  -OEChem-09012015503D

 43 44  0     1  0  0  0  0  0999 V2000
    1.4450    3.0326    0.4593 O   0  0  0  0  0  0  0  0  0  0  0  0
    0.7329   -1.6640   -1.4545 O   0  0  0  0  0  0  0  0  0  0  0  0
    0.6042    0.7299    0.4984 C   0  0  1  0  0  0  0  0  0  0  0  0
    1.3280   -0.6377    0.6709 C   0  0  1  0  0  0  0  0  0  0  0  0
    1.6736    1.7185   -0.0423 C   0  0  2  0  0  0  0  0  0  0  0  0
    0.7775   -1.8940   -0.0475 C   0  0  1  0  0  0  0  0  0  0  0  0
    2.8098   -0.3406    0.3374 C   0  0  0  0  0  0  0  0  0  0  0  0
    2.9711    1.1558    0.5316 C   0  0  0  0  0  0  0  0  0  0  0  0
   -0.7265    0.7952   -0.2565 C   0  0  0  0  0  0  0  0  0  0  0  0
   -1.8442   -0.0325    0.3888 C   0  0  2  0  0  0  0  0  0  0  0  0
   -0.6195   -2.2986    0.4711 C   0  0  0  0  0  0  0  0  0  0  0  0
   -1.8127   -1.4982   -0.0436 C   0  0  0  0  0  0  0  0  0  0  0  0
    1.7358    1.8321   -1.5680 C   0  0  0  0  0  0  0  0  0  0  0  0
    1.7225   -3.0931    0.1816 C   0  0  0  0  0  0  0  0  0  0  0  0
   -3.1796    0.5442    0.0070 C   0  0  0  0  0  0  0  0  0  0  0  0
   -4.0349    1.0366    1.1366 C   0  0  0  0  0  0  0  0  0  0  0  0
   -3.5830    0.6137   -1.2702 C   0  0  0  0  0  0  0  0  0  0  0  0
    0.3694    1.0724    1.5196 H   0  0  0  0  0  0  0  0  0  0  0  0
    1.3001   -0.8585    1.7495 H   0  0  0  0  0  0  0  0  0  0  0  0
    3.0485   -0.6071   -0.6984 H   0  0  0  0  0  0  0  0  0  0  0  0
    3.4913   -0.8990    0.9878 H   0  0  0  0  0  0  0  0  0  0  0  0
    3.0625    1.4017    1.5971 H   0  0  0  0  0  0  0  0  0  0  0  0
    3.8654    1.5460    0.0349 H   0  0  0  0  0  0  0  0  0  0  0  0
   -0.5937    0.5027   -1.3043 H   0  0  0  0  0  0  0  0  0  0  0  0
   -1.0286    1.8523   -0.2766 H   0  0  0  0  0  0  0  0  0  0  0  0
   -1.7412    0.0130    1.4810 H   0  0  0  0  0  0  0  0  0  0  0  0
   -0.6236   -2.3055    1.5687 H   0  0  0  0  0  0  0  0  0  0  0  0
   -0.8145   -3.3367    0.1671 H   0  0  0  0  0  0  0  0  0  0  0  0
   -1.8530   -1.5916   -1.1364 H   0  0  0  0  0  0  0  0  0  0  0  0
   -2.7176   -1.9988    0.3298 H   0  0  0  0  0  0  0  0  0  0  0  0
    2.5925    2.4443   -1.8739 H   0  0  0  0  0  0  0  0  0  0  0  0
    0.8496    2.3423   -1.9620 H   0  0  0  0  0  0  0  0  0  0  0  0
    1.8226    0.8599   -2.0608 H   0  0  0  0  0  0  0  0  0  0  0  0
    2.7034   -2.9310   -0.2774 H   0  0  0  0  0  0  0  0  0  0  0  0
    1.3274   -3.9991   -0.2936 H   0  0  0  0  0  0  0  0  0  0  0  0
    1.8609   -3.2979    1.2483 H   0  0  0  0  0  0  0  0  0  0  0  0
    2.2064    3.5843    0.2105 H   0  0  0  0  0  0  0  0  0  0  0  0
    0.3819   -2.4651   -1.8796 H   0  0  0  0  0  0  0  0  0  0  0  0
   -4.2565    0.2189    1.8301 H   0  0  0  0  0  0  0  0  0  0  0  0
   -3.5183    1.8304    1.6860 H   0  0  0  0  0  0  0  0  0  0  0  0
   -4.9892    1.4423    0.7846 H   0  0  0  0  0  0  0  0  0  0  0  0
   -4.5502    1.0321   -1.5296 H   0  0  0  0  0  0  0  0  0  0  0  0
   -2.9661    0.2646   -2.0910 H   0  0  0  0  0  0  0  0  0  0  0  0
  1  5  1  0  0  0  0
  1 37  1  0  0  0  0
  2  6  1  0  0  0  0
  2 38  1  0  0  0  0
  3  4  1  0  0  0  0
  3  5  1  0  0  0  0
  3  9  1  0  0  0  0
  3 18  1  0  0  0  0
  4  6  1  0  0  0  0
  4  7  1  0  0  0  0
  4 19  1  0  0  0  0
  5  8  1  0  0  0  0
  5 13  1  0  0  0  0
  6 11  1  0  0  0  0
  6 14  1  0  0  0  0
  7  8  1  0  0  0  0
  7 20  1  0  0  0  0
  7 21  1  0  0  0  0
  8 22  1  0  0  0  0
  8 23  1  0  0  0  0
  9 10  1  0  0  0  0
  9 24  1  0  0  0  0
  9 25  1  0  0  0  0
 10 12  1  0  0  0  0
 10 15  1  0  0  0  0
 10 26  1  0  0  0  0
 11 12  1  0  0  0  0
 11 27  1  0  0  0  0
 11 28  1  0  0  0  0
 12 29  1  0  0  0  0
 12 30  1  0  0  0  0
 13 31  1  0  0  0  0
 13 32  1  0  0  0  0
 13 33  1  0  0  0  0
 14 34  1  0  0  0  0
 14 35  1  0  0  0  0
 14 36  1  0  0  0  0
 15 16  1  0  0  0  0
 15 17  2  0  0  0  0
 16 39  1  0  0  0  0
 16 40  1  0  0  0  0
 16 41  1  0  0  0  0
 17 42  1  0  0  0  0
 17 43  1  0  0  0  0
M  END
> <PUBCHEM_COMPOUND_CID>
71719409

> <PUBCHEM_CONFORMER_RMSD>
0.6

> <PUBCHEM_CONFORMER_DIVERSEORDER>
1
3
4
2
5

> <PUBCHEM_MMFF94_PARTIAL_CHARGES>
12
1 -0.68
10 0.14
15 -0.28
16 0.14
17 -0.3
2 -0.68
37 0.4
38 0.4
42 0.15
43 0.15
5 0.28
6 0.28

> <PUBCHEM_EFFECTIVE_ROTOR_COUNT>
2.6

> <PUBCHEM_PHARMACOPHORE_FEATURES>
6
1 1 acceptor
1 1 donor
1 2 acceptor
1 2 donor
5 3 4 5 7 8 rings
7 3 4 6 9 10 11 12 rings

> <PUBCHEM_HEAVY_ATOM_COUNT>
17

> <PUBCHEM_ATOM_DEF_STEREO_COUNT>
5

> <PUBCHEM_ATOM_UDEF_STEREO_COUNT>
0

> <PUBCHEM_BOND_DEF_STEREO_COUNT>
0

> <PUBCHEM_BOND_UDEF_STEREO_COUNT>
0

> <PUBCHEM_ISOTOPIC_ATOM_COUNT>
0

> <PUBCHEM_COMPONENT_COUNT>
1

> <PUBCHEM_CACTVS_TAUTO_COUNT>
1

> <PUBCHEM_CONFORMER_ID>
044659F100000001

> <PUBCHEM_MMFF94_ENERGY>
62.188

> <PUBCHEM_FEATURE_SELFOVERLAP>
30.464

> <PUBCHEM_SHAPE_FINGERPRINT>
1 1 18410852183163093060
104564 63 17330842318246053527
10465860 228 18270128898613078209
10967382 1 18410571751837061666
10980938 120 18409445860620373897
11680986 33 18410297981984811490
116883 192 17620745090217329845
12553582 1 17907296550995337227
12654215 9 18044365029124811447
13134695 92 18194949764861307284
13140716 1 18337389460435810952
13380535 21 18336278919717055875
13380535 76 18410004472736200851
13897977 150 18410006654679606067
14181834 199 18341325583314521751
14251717 144 18339349778431443711
14817 1 17474404941667722494
15775835 57 18263649626555792020
16945 1 18410285887414336970
18186145 218 18342741848864981345
18219364 16 18259982648366914513
19868273 325 16681475724553883982
20510252 161 17765437930109162785
20511035 2 18264486368031829786
20645476 183 17898299548108202788
20645477 70 18265038155787229167
20671657 1 18413112740526046463
21029758 27 17975987461687372370
21041028 32 17980770328915341705
21130352 189 18192707834903904795
21501502 16 18337110184740993659
21524375 3 18337106899006499219
21639500 275 18338782464854644197
21731228 192 18264767834149470410
22094290 62 18336259132655004216
22802520 49 17332834019657181670
2334 1 18048877686611394785
23402539 116 17838042707054788607
23419403 2 17683218306263425998
23558518 356 17973159814391828626
23559900 14 18271537506927965244
23598291 2 17844237433407333415
238 59 17830691518709158077
25 1 18409451379516179659
2748010 2 18193278713424548098
3060560 45 18411409609809638574
3071541 158 18189618237267985374
350125 39 18120098530831010571
458136 41 18191329197941577433
474 4 18412543215325945753
49207404 50 18189074112831332779
6049 1 17822864048523937765
7364860 26 18340486673043165819
81228 2 17257374570506845947
8272917 22 18340768122914801973

> <PUBCHEM_SHAPE_MULTIPOLES>
338.11
5.29
3.06
1.13
5.01
0.93
-0.33
-2
0.5
-2.15
-0.07
0.25
-0.28
-0.12

> <PUBCHEM_SHAPE_SELFOVERLAP>
691.225

> <PUBCHEM_SHAPE_VOLUME>
196.6

> <PUBCHEM_COORDINATE_TYPE>
2
5
10

$$$$
