10681421
  -OEChem-09012016063D

 43 45  0     1  0  0  0  0  0999 V2000
    1.5938    2.7795    0.3482 O   0  0  0  0  0  0  0  0  0  0  0  0
   -3.4855    0.8935    0.2672 O   0  0  0  0  0  0  0  0  0  0  0  0
    0.2136    0.7478    0.1177 C   0  0  1  0  0  0  0  0  0  0  0  0
    0.9688   -0.2685   -0.7816 C   0  0  1  0  0  0  0  0  0  0  0  0
   -1.7547   -0.8158    0.3862 C   0  0  2  0  0  0  0  0  0  0  0  0
    2.2745   -0.6466   -0.0233 C   0  0  0  0  0  0  0  0  0  0  0  0
   -0.7295    0.0588    1.1222 C   0  0  0  0  0  0  0  0  0  0  0  0
    1.3492    1.4802    0.8800 C   0  0  1  0  0  0  0  0  0  0  0  0
   -0.6601    1.7101   -0.7298 C   0  0  0  0  0  0  0  0  0  0  0  0
    0.1331   -1.4467   -1.3018 C   0  0  0  0  0  0  0  0  0  0  0  0
    2.6315    0.6477    0.7342 C   0  0  0  0  0  0  0  0  0  0  0  0
   -0.9926   -1.9197   -0.3844 C   0  0  0  0  0  0  0  0  0  0  0  0
   -2.6242    0.0809   -0.5419 C   0  0  2  0  0  0  0  0  0  0  0  0
   -1.8311    1.0300   -1.4455 C   0  0  0  0  0  0  0  0  0  0  0  0
   -2.6572   -1.5124    1.4299 C   0  0  0  0  0  0  0  0  0  0  0  0
    2.1773   -1.8309    0.9526 C   0  0  0  0  0  0  0  0  0  0  0  0
    3.3932   -0.9880   -1.0301 C   0  0  0  0  0  0  0  0  0  0  0  0
    1.2925    0.2844   -1.6777 H   0  0  0  0  0  0  0  0  0  0  0  0
   -0.1754   -0.5441    1.8450 H   0  0  0  0  0  0  0  0  0  0  0  0
   -1.2349    0.8176    1.7346 H   0  0  0  0  0  0  0  0  0  0  0  0
    1.1115    1.6082    1.9425 H   0  0  0  0  0  0  0  0  0  0  0  0
   -0.0509    2.2219   -1.4856 H   0  0  0  0  0  0  0  0  0  0  0  0
   -1.0651    2.4971   -0.0799 H   0  0  0  0  0  0  0  0  0  0  0  0
    0.7771   -2.2982   -1.5518 H   0  0  0  0  0  0  0  0  0  0  0  0
   -0.3064   -1.1693   -2.2656 H   0  0  0  0  0  0  0  0  0  0  0  0
    3.3960    1.2240    0.1977 H   0  0  0  0  0  0  0  0  0  0  0  0
    3.0522    0.4284    1.7230 H   0  0  0  0  0  0  0  0  0  0  0  0
   -1.7001   -2.5183   -0.9729 H   0  0  0  0  0  0  0  0  0  0  0  0
   -0.5547   -2.6173    0.3416 H   0  0  0  0  0  0  0  0  0  0  0  0
   -3.2816   -0.5421   -1.1588 H   0  0  0  0  0  0  0  0  0  0  0  0
   -2.4965    1.8148   -1.8284 H   0  0  0  0  0  0  0  0  0  0  0  0
   -1.4680    0.5014   -2.3294 H   0  0  0  0  0  0  0  0  0  0  0  0
   -2.0757   -2.1823    2.0737 H   0  0  0  0  0  0  0  0  0  0  0  0
   -3.1548   -0.7915    2.0876 H   0  0  0  0  0  0  0  0  0  0  0  0
   -3.4314   -2.1121    0.9385 H   0  0  0  0  0  0  0  0  0  0  0  0
    3.1514   -2.0230    1.4195 H   0  0  0  0  0  0  0  0  0  0  0  0
    1.4792   -1.6579    1.7707 H   0  0  0  0  0  0  0  0  0  0  0  0
    1.8852   -2.7549    0.4440 H   0  0  0  0  0  0  0  0  0  0  0  0
    4.3478   -1.1528   -0.5174 H   0  0  0  0  0  0  0  0  0  0  0  0
    3.1562   -1.8951   -1.5964 H   0  0  0  0  0  0  0  0  0  0  0  0
    3.5466   -0.1774   -1.7515 H   0  0  0  0  0  0  0  0  0  0  0  0
    0.8745    3.3601    0.6488 H   0  0  0  0  0  0  0  0  0  0  0  0
   -2.9502    1.5594    0.7283 H   0  0  0  0  0  0  0  0  0  0  0  0
  1  8  1  0  0  0  0
  1 42  1  0  0  0  0
  2 13  1  0  0  0  0
  2 43  1  0  0  0  0
  3  4  1  0  0  0  0
  3  7  1  0  0  0  0
  3  8  1  0  0  0  0
  3  9  1  0  0  0  0
  4  6  1  0  0  0  0
  4 10  1  0  0  0  0
  4 18  1  0  0  0  0
  5  7  1  0  0  0  0
  5 12  1  0  0  0  0
  5 13  1  0  0  0  0
  5 15  1  0  0  0  0
  6 11  1  0  0  0  0
  6 16  1  0  0  0  0
  6 17  1  0  0  0  0
  7 19  1  0  0  0  0
  7 20  1  0  0  0  0
  8 11  1  0  0  0  0
  8 21  1  0  0  0  0
  9 14  1  0  0  0  0
  9 22  1  0  0  0  0
  9 23  1  0  0  0  0
 10 12  1  0  0  0  0
 10 24  1  0  0  0  0
 10 25  1  0  0  0  0
 11 26  1  0  0  0  0
 11 27  1  0  0  0  0
 12 28  1  0  0  0  0
 12 29  1  0  0  0  0
 13 14  1  0  0  0  0
 13 30  1  0  0  0  0
 14 31  1  0  0  0  0
 14 32  1  0  0  0  0
 15 33  1  0  0  0  0
 15 34  1  0  0  0  0
 15 35  1  0  0  0  0
 16 36  1  0  0  0  0
 16 37  1  0  0  0  0
 16 38  1  0  0  0  0
 17 39  1  0  0  0  0
 17 40  1  0  0  0  0
 17 41  1  0  0  0  0
M  END
> <PUBCHEM_COMPOUND_CID>
10681421

> <PUBCHEM_CONFORMER_RMSD>
0.6

> <PUBCHEM_CONFORMER_DIVERSEORDER>
1
2

> <PUBCHEM_MMFF94_PARTIAL_CHARGES>
6
1 -0.68
13 0.28
2 -0.68
42 0.4
43 0.4
8 0.28

> <PUBCHEM_EFFECTIVE_ROTOR_COUNT>
1.8

> <PUBCHEM_PHARMACOPHORE_FEATURES>
8
1 1 acceptor
1 1 donor
1 2 acceptor
1 2 donor
3 6 16 17 hydrophobe
5 3 4 6 8 11 rings
6 3 4 5 7 10 12 rings
6 3 5 7 9 13 14 rings

> <PUBCHEM_HEAVY_ATOM_COUNT>
17

> <PUBCHEM_ATOM_DEF_STEREO_COUNT>
5

> <PUBCHEM_ATOM_UDEF_STEREO_COUNT>
0

> <PUBCHEM_BOND_DEF_STEREO_COUNT>
0

> <PUBCHEM_BOND_UDEF_STEREO_COUNT>
0

> <PUBCHEM_ISOTOPIC_ATOM_COUNT>
0

> <PUBCHEM_COMPONENT_COUNT>
1

> <PUBCHEM_CACTVS_TAUTO_COUNT>
1

> <PUBCHEM_CONFORMER_ID>
00A2FC4D00000001

> <PUBCHEM_MMFF94_ENERGY>
78.7215

> <PUBCHEM_FEATURE_SELFOVERLAP>
42.201

> <PUBCHEM_SHAPE_FINGERPRINT>
10863032 1 16951134941185025558
12138202 97 17896033252595524159
12423570 1 11926794078543393617
12524768 44 18262785380404258661
12716301 132 17826492406266714873
13024252 1 16009041557178138279
13172582 1 18273210880928674470
13296908 3 18410296929854629578
13464514 151 17326872003486497893
13538477 17 16732699454472488597
14223421 5 18051978309402099962
144361 1 17914589860487229510
14817 1 15976400651937205823
15219456 202 18338236071509642408
15309172 13 17918279748585480454
15775835 57 18408324362955010126
15881359 60 17843936222612727406
16945 1 18114454578731911245
17844478 74 18261680371170669635
18186145 218 18271796883464078733
19049666 15 18189323602558855057
20511035 2 18409449219369254045
20588541 1 18265623086924361359
21061003 4 18129958783689706958
21501502 16 18268981158475495941
22721475 48 18410012104750459636
22802520 49 18260261962595228321
2334 1 18193552508910056215
23493267 7 18043821891850446606
23559900 14 18047173169707915834
25 1 18050278164189291389
2748010 2 18337383958645871541
296302 2 18412258450140321272
31174 14 18268158728247031779
3286 77 18342733018691334653
598444 67 18115022987910707507
74978 22 18343582966495955695
77492 1 16056880238581910241
81228 2 17676479592902066565

> <PUBCHEM_SHAPE_MULTIPOLES>
338.11
4.5
2.23
1.35
0.01
0.52
0.06
-0.63
-0.25
-0.39
-0.18
0.15
-0.2
0.8

> <PUBCHEM_SHAPE_SELFOVERLAP>
715.085

> <PUBCHEM_SHAPE_VOLUME>
189.5

> <PUBCHEM_COORDINATE_TYPE>
2
5
10

$$$$
