11031884
  -OEChem-09012015523D

 41 42  0     1  0  0  0  0  0999 V2000
   -0.4286   -3.1226    0.8725 O   0  0  0  0  0  0  0  0  0  0  0  0
   -3.6691    2.2874    0.6240 O   0  0  0  0  0  0  0  0  0  0  0  0
    0.3012   -1.3500   -0.5930 C   0  0  1  0  0  0  0  0  0  0  0  0
    0.4443    0.1872   -0.6557 C   0  0  2  0  0  0  0  0  0  0  0  0
    1.4405    0.5337    0.4733 C   0  0  1  0  0  0  0  0  0  0  0  0
    1.7746   -1.7495   -0.3644 C   0  0  0  0  0  0  0  0  0  0  0  0
    2.3135   -0.7223    0.6330 C   0  0  0  0  0  0  0  0  0  0  0  0
    2.2725    1.7789    0.1798 C   0  0  0  0  0  0  0  0  0  0  0  0
   -0.5420   -1.9356    0.5486 C   0  0  0  0  0  0  0  0  0  0  0  0
   -0.2247   -1.9383   -1.9079 C   0  0  0  0  0  0  0  0  0  0  0  0
   -0.7635    1.0810   -0.7099 C   0  0  0  0  0  0  0  0  0  0  0  0
   -1.5281   -1.0625    1.2832 C   0  0  0  0  0  0  0  0  0  0  0  0
   -2.0338    0.8440   -0.3392 C   0  0  0  0  0  0  0  0  0  0  0  0
   -2.5319   -0.3949    0.3583 C   0  0  0  0  0  0  0  0  0  0  0  0
    3.2344    2.0666    1.3308 C   0  0  0  0  0  0  0  0  0  0  0  0
    3.0387    1.6173   -1.1316 C   0  0  0  0  0  0  0  0  0  0  0  0
   -3.0978    1.8795   -0.6018 C   0  0  0  0  0  0  0  0  0  0  0  0
    0.9221    0.3628   -1.6274 H   0  0  0  0  0  0  0  0  0  0  0  0
    0.8989    0.7018    1.4127 H   0  0  0  0  0  0  0  0  0  0  0  0
    2.3429   -1.6720   -1.3006 H   0  0  0  0  0  0  0  0  0  0  0  0
    1.9074   -2.7701    0.0094 H   0  0  0  0  0  0  0  0  0  0  0  0
    2.1834   -1.1103    1.6517 H   0  0  0  0  0  0  0  0  0  0  0  0
    3.3888   -0.5858    0.4979 H   0  0  0  0  0  0  0  0  0  0  0  0
    1.6061    2.6452    0.0842 H   0  0  0  0  0  0  0  0  0  0  0  0
   -1.2585   -1.6345   -2.1002 H   0  0  0  0  0  0  0  0  0  0  0  0
    0.3804   -1.6184   -2.7635 H   0  0  0  0  0  0  0  0  0  0  0  0
   -0.2075   -3.0342   -1.8854 H   0  0  0  0  0  0  0  0  0  0  0  0
   -0.5556    2.0482   -1.1691 H   0  0  0  0  0  0  0  0  0  0  0  0
   -2.0796   -1.7175    1.9704 H   0  0  0  0  0  0  0  0  0  0  0  0
   -0.9945   -0.3444    1.9119 H   0  0  0  0  0  0  0  0  0  0  0  0
   -3.3965   -0.1342    0.9811 H   0  0  0  0  0  0  0  0  0  0  0  0
   -2.9042   -1.1018   -0.3930 H   0  0  0  0  0  0  0  0  0  0  0  0
    4.0215    1.3128    1.4256 H   0  0  0  0  0  0  0  0  0  0  0  0
    3.7299    3.0319    1.1769 H   0  0  0  0  0  0  0  0  0  0  0  0
    2.6986    2.1234    2.2843 H   0  0  0  0  0  0  0  0  0  0  0  0
    3.5981    0.6826   -1.2132 H   0  0  0  0  0  0  0  0  0  0  0  0
    3.7703    2.4286   -1.2331 H   0  0  0  0  0  0  0  0  0  0  0  0
    2.3859    1.7085   -2.0045 H   0  0  0  0  0  0  0  0  0  0  0  0
   -3.8881    1.4524   -1.2281 H   0  0  0  0  0  0  0  0  0  0  0  0
   -2.7135    2.7663   -1.1168 H   0  0  0  0  0  0  0  0  0  0  0  0
   -2.9666    2.6959    1.1585 H   0  0  0  0  0  0  0  0  0  0  0  0
  1  9  2  0  0  0  0
  2 17  1  0  0  0  0
  2 41  1  0  0  0  0
  3  4  1  0  0  0  0
  3  6  1  0  0  0  0
  3  9  1  0  0  0  0
  3 10  1  0  0  0  0
  4  5  1  0  0  0  0
  4 11  1  0  0  0  0
  4 18  1  0  0  0  0
  5  7  1  0  0  0  0
  5  8  1  0  0  0  0
  5 19  1  0  0  0  0
  6  7  1  0  0  0  0
  6 20  1  0  0  0  0
  6 21  1  0  0  0  0
  7 22  1  0  0  0  0
  7 23  1  0  0  0  0
  8 15  1  0  0  0  0
  8 16  1  0  0  0  0
  8 24  1  0  0  0  0
  9 12  1  0  0  0  0
 10 25  1  0  0  0  0
 10 26  1  0  0  0  0
 10 27  1  0  0  0  0
 11 13  2  0  0  0  0
 11 28  1  0  0  0  0
 12 14  1  0  0  0  0
 12 29  1  0  0  0  0
 12 30  1  0  0  0  0
 13 14  1  0  0  0  0
 13 17  1  0  0  0  0
 14 31  1  0  0  0  0
 14 32  1  0  0  0  0
 15 33  1  0  0  0  0
 15 34  1  0  0  0  0
 15 35  1  0  0  0  0
 16 36  1  0  0  0  0
 16 37  1  0  0  0  0
 16 38  1  0  0  0  0
 17 39  1  0  0  0  0
 17 40  1  0  0  0  0
M  END
> <PUBCHEM_COMPOUND_CID>
11031884

> <PUBCHEM_CONFORMER_RMSD>
0.6

> <PUBCHEM_CONFORMER_DIVERSEORDER>
1
16
12
7
13
14
5
8
3
4
11
10
9
15
6
2

> <PUBCHEM_MMFF94_PARTIAL_CHARGES>
12
1 -0.57
11 -0.29
12 0.06
13 -0.28
14 0.14
17 0.42
2 -0.68
28 0.15
3 0.06
4 0.14
41 0.4
9 0.45

> <PUBCHEM_EFFECTIVE_ROTOR_COUNT>
3

> <PUBCHEM_PHARMACOPHORE_FEATURES>
6
1 1 acceptor
1 2 acceptor
1 2 donor
3 8 15 16 hydrophobe
5 3 4 5 6 7 rings
7 3 4 9 11 12 13 14 rings

> <PUBCHEM_HEAVY_ATOM_COUNT>
17

> <PUBCHEM_ATOM_DEF_STEREO_COUNT>
3

> <PUBCHEM_ATOM_UDEF_STEREO_COUNT>
0

> <PUBCHEM_BOND_DEF_STEREO_COUNT>
0

> <PUBCHEM_BOND_UDEF_STEREO_COUNT>
0

> <PUBCHEM_ISOTOPIC_ATOM_COUNT>
0

> <PUBCHEM_COMPONENT_COUNT>
1

> <PUBCHEM_CACTVS_TAUTO_COUNT>
2

> <PUBCHEM_CONFORMER_ID>
00A8554C00000001

> <PUBCHEM_MMFF94_ENERGY>
47.7513

> <PUBCHEM_FEATURE_SELFOVERLAP>
30.519

> <PUBCHEM_SHAPE_FINGERPRINT>
10948715 1 18341604923644883385
12423570 1 14363494179825926710
13024252 1 11893257285963678254
13134695 92 17617358598809166327
13140716 1 18336543811645760257
13538477 17 17752480134126047932
13764800 53 18191585465581297424
14614273 12 17841992483781661274
14817 1 12887796622964270095
15490181 7 18200312263822496612
15906896 17 18267575991152651751
16945 1 18118409680949627978
18981168 100 17130431405142237680
20511035 2 18409731759508435998
20525323 117 18048581905452107408
21296965 12 18128824216507225614
21501502 16 18407759235400207839
21524375 3 18340475712350066509
21731228 192 18409720764133903328
220403 375 18411693313805966163
22112679 90 17256272838455045167
2334 1 18335421283282937533
23419403 2 17405208002007704694
23526113 38 17834986095036656455
23558518 356 18337662105018029863
25 1 18270125603972287196
2748010 2 18261402130504728039
474 4 18338511924807101457
53812653 166 18045788888187896155
5939293 188 17692521217905502257
7364860 26 18055913195303661085
81228 2 17977936114045174077

> <PUBCHEM_SHAPE_MULTIPOLES>
338.11
4.8
3.07
1.34
0.22
0.6
0.2
-4.51
-0.81
-0.73
-0.19
0.2
0.3
0.43

> <PUBCHEM_SHAPE_SELFOVERLAP>
695.716

> <PUBCHEM_SHAPE_VOLUME>
195.2

> <PUBCHEM_COORDINATE_TYPE>
2
5
10

$$$$
