11230158
  -OEChem-09012015583D

 43 44  0     1  0  0  0  0  0999 V2000
   -1.0766   -2.7666   -0.8274 O   0  0  0  0  0  0  0  0  0  0  0  0
   -2.6462    2.5479   -0.0117 O   0  0  0  0  0  0  0  0  0  0  0  0
   -0.7740    0.9461    0.1139 C   0  0  2  0  0  0  0  0  0  0  0  0
   -0.3743   -0.4934   -0.3546 C   0  0  2  0  0  0  0  0  0  0  0  0
   -1.4173   -1.6072   -0.0424 C   0  0  1  0  0  0  0  0  0  0  0  0
   -2.1907    1.2678   -0.4445 C   0  0  1  0  0  0  0  0  0  0  0  0
    0.2506    1.9445   -0.5005 C   0  0  0  0  0  0  0  0  0  0  0  0
    1.0761   -0.8477    0.0418 C   0  0  0  0  0  0  0  0  0  0  0  0
    2.0760    0.1805   -0.5146 C   0  0  1  0  0  0  0  0  0  0  0  0
   -2.8115   -1.1797   -0.5387 C   0  0  0  0  0  0  0  0  0  0  0  0
    1.7008    1.6164   -0.1356 C   0  0  0  0  0  0  0  0  0  0  0  0
   -3.2340    0.2086   -0.0775 C   0  0  0  0  0  0  0  0  0  0  0  0
   -0.7451    1.1444    1.6500 C   0  0  0  0  0  0  0  0  0  0  0  0
   -1.4731   -2.0827    1.4129 C   0  0  0  0  0  0  0  0  0  0  0  0
    3.4709   -0.1309   -0.0653 C   0  0  0  0  0  0  0  0  0  0  0  0
    3.7657   -1.5725    0.2261 C   0  0  0  0  0  0  0  0  0  0  0  0
    4.4028    0.8246    0.0681 C   0  0  0  0  0  0  0  0  0  0  0  0
   -0.3475   -0.4526   -1.4574 H   0  0  0  0  0  0  0  0  0  0  0  0
   -2.1432    1.3115   -1.5410 H   0  0  0  0  0  0  0  0  0  0  0  0
    0.0365    2.9711   -0.1790 H   0  0  0  0  0  0  0  0  0  0  0  0
    0.1567    1.9407   -1.5948 H   0  0  0  0  0  0  0  0  0  0  0  0
    1.2946   -1.8434   -0.3617 H   0  0  0  0  0  0  0  0  0  0  0  0
    1.1613   -0.9187    1.1317 H   0  0  0  0  0  0  0  0  0  0  0  0
    2.0559    0.0954   -1.6104 H   0  0  0  0  0  0  0  0  0  0  0  0
   -3.5669   -1.9152   -0.2331 H   0  0  0  0  0  0  0  0  0  0  0  0
   -2.8240   -1.2023   -1.6376 H   0  0  0  0  0  0  0  0  0  0  0  0
    2.3156    2.3409   -0.6828 H   0  0  0  0  0  0  0  0  0  0  0  0
    1.8609    1.7995    0.9342 H   0  0  0  0  0  0  0  0  0  0  0  0
   -4.1927    0.4720   -0.5424 H   0  0  0  0  0  0  0  0  0  0  0  0
   -3.4329    0.2147    0.9998 H   0  0  0  0  0  0  0  0  0  0  0  0
    0.1518    0.7298    2.1166 H   0  0  0  0  0  0  0  0  0  0  0  0
   -0.7688    2.2115    1.9031 H   0  0  0  0  0  0  0  0  0  0  0  0
   -1.6083    0.7049    2.1502 H   0  0  0  0  0  0  0  0  0  0  0  0
   -2.1322   -2.9549    1.5061 H   0  0  0  0  0  0  0  0  0  0  0  0
   -0.4904   -2.4207    1.7574 H   0  0  0  0  0  0  0  0  0  0  0  0
   -1.8451   -1.3290    2.1048 H   0  0  0  0  0  0  0  0  0  0  0  0
   -1.7611   -3.4425   -0.6848 H   0  0  0  0  0  0  0  0  0  0  0  0
   -2.0975    3.2225   -0.4449 H   0  0  0  0  0  0  0  0  0  0  0  0
    3.2314   -1.9285    1.1119 H   0  0  0  0  0  0  0  0  0  0  0  0
    3.5183   -2.2045   -0.6332 H   0  0  0  0  0  0  0  0  0  0  0  0
    4.8330   -1.7262    0.4253 H   0  0  0  0  0  0  0  0  0  0  0  0
    5.4044    0.5638    0.3994 H   0  0  0  0  0  0  0  0  0  0  0  0
    4.2507    1.8730   -0.1487 H   0  0  0  0  0  0  0  0  0  0  0  0
  1  5  1  0  0  0  0
  1 37  1  0  0  0  0
  2  6  1  0  0  0  0
  2 38  1  0  0  0  0
  3  4  1  0  0  0  0
  3  6  1  0  0  0  0
  3  7  1  0  0  0  0
  3 13  1  0  0  0  0
  4  5  1  0  0  0  0
  4  8  1  0  0  0  0
  4 18  1  0  0  0  0
  5 10  1  0  0  0  0
  5 14  1  0  0  0  0
  6 12  1  0  0  0  0
  6 19  1  0  0  0  0
  7 11  1  0  0  0  0
  7 20  1  0  0  0  0
  7 21  1  0  0  0  0
  8  9  1  0  0  0  0
  8 22  1  0  0  0  0
  8 23  1  0  0  0  0
  9 11  1  0  0  0  0
  9 15  1  0  0  0  0
  9 24  1  0  0  0  0
 10 12  1  0  0  0  0
 10 25  1  0  0  0  0
 10 26  1  0  0  0  0
 11 27  1  0  0  0  0
 11 28  1  0  0  0  0
 12 29  1  0  0  0  0
 12 30  1  0  0  0  0
 13 31  1  0  0  0  0
 13 32  1  0  0  0  0
 13 33  1  0  0  0  0
 14 34  1  0  0  0  0
 14 35  1  0  0  0  0
 14 36  1  0  0  0  0
 15 16  1  0  0  0  0
 15 17  2  0  0  0  0
 16 39  1  0  0  0  0
 16 40  1  0  0  0  0
 16 41  1  0  0  0  0
 17 42  1  0  0  0  0
 17 43  1  0  0  0  0
M  END
> <PUBCHEM_COMPOUND_CID>
11230158

> <PUBCHEM_CONFORMER_RMSD>
0.6

> <PUBCHEM_CONFORMER_DIVERSEORDER>
3
2
1

> <PUBCHEM_MMFF94_PARTIAL_CHARGES>
12
1 -0.68
15 -0.28
16 0.14
17 -0.3
2 -0.68
37 0.4
38 0.4
42 0.15
43 0.15
5 0.28
6 0.28
9 0.14

> <PUBCHEM_EFFECTIVE_ROTOR_COUNT>
2.6

> <PUBCHEM_PHARMACOPHORE_FEATURES>
6
1 1 acceptor
1 1 donor
1 2 acceptor
1 2 donor
6 3 4 5 6 10 12 rings
6 3 4 7 8 9 11 rings

> <PUBCHEM_HEAVY_ATOM_COUNT>
17

> <PUBCHEM_ATOM_DEF_STEREO_COUNT>
5

> <PUBCHEM_ATOM_UDEF_STEREO_COUNT>
0

> <PUBCHEM_BOND_DEF_STEREO_COUNT>
0

> <PUBCHEM_BOND_UDEF_STEREO_COUNT>
0

> <PUBCHEM_ISOTOPIC_ATOM_COUNT>
0

> <PUBCHEM_COMPONENT_COUNT>
1

> <PUBCHEM_CACTVS_TAUTO_COUNT>
1

> <PUBCHEM_CONFORMER_ID>
00AB5BCE00000003

> <PUBCHEM_MMFF94_ENERGY>
60.1799

> <PUBCHEM_FEATURE_SELFOVERLAP>
30.46

> <PUBCHEM_SHAPE_FINGERPRINT>
10062212 137 18339912706588456911
10616163 171 18410858793608709966
10948715 1 18192431862075563001
10967382 1 17978228262025995948
11132069 177 18339354180788733288
11315181 36 18060138696800681970
11578080 2 17272841263389025707
12403814 3 17748825211304196381
12500047 106 18412255117383167840
12592029 89 18044379314312638905
12715332 25 18272650173412541959
13024252 1 14779266419062333333
13140716 1 18121507013842467601
13380535 76 18338797797450086479
14115302 16 17677055757931976071
14144814 61 18409449176561986062
14713566 1 18342453712224754521
14817 1 8213865963130661923
15196674 1 18410291385009366612
15309172 13 18193846946145850888
15442244 35 18337106770537054652
15775835 57 18262239906641018756
16752209 62 18411691076170332847
16945 1 18338796818350380837
200 152 18059854004170715150
20510252 161 18201440255009394217
21267235 1 18409455773679563350
21501502 16 18267026239602069461
21524375 3 18191867829848223589
22802520 49 18118967137935244539
2334 1 17761497293103817869
23402539 116 18342165687887141391
23419403 2 14258209039844099527
23463225 33 18408323272412865412
23557571 272 18272097114969075092
23559900 14 18271519794239626002
2748010 2 18196387926191881071
3312278 4 18337112383901256322
335352 9 18122060906079204964
34934 24 18335976549813971406
5104073 3 18410291385405051736
559249 180 18191017916409212978
69090 78 18411696578097006261
7364860 26 18051973911714525196
81228 2 18261948664998438849
8809292 202 18261113035966065794
9709674 26 18411984654829263358

> <PUBCHEM_SHAPE_MULTIPOLES>
338.11
5.99
2.6
1
5.59
0.33
-0.37
0.21
0.23
-1.26
0
-0.38
0.13
-0.1

> <PUBCHEM_SHAPE_SELFOVERLAP>
691.669

> <PUBCHEM_SHAPE_VOLUME>
194.3

> <PUBCHEM_COORDINATE_TYPE>
2
5
10

$$$$
