44566761
  -OEChem-09012015533D

 41 42  0     1  0  0  0  0  0999 V2000
   -0.6137   -3.2832    0.7093 O   0  0  0  0  0  0  0  0  0  0  0  0
   -3.8708    2.2038    0.1203 O   0  0  0  0  0  0  0  0  0  0  0  0
    0.2721   -1.4001   -0.5382 C   0  0  1  0  0  0  0  0  0  0  0  0
    0.4902    0.1280   -0.6852 C   0  0  2  0  0  0  0  0  0  0  0  0
    1.4680    0.4758    0.4552 C   0  0  1  0  0  0  0  0  0  0  0  0
    1.7404   -1.8465   -0.3103 C   0  0  0  0  0  0  0  0  0  0  0  0
    2.3663   -0.7676    0.5819 C   0  0  0  0  0  0  0  0  0  0  0  0
   -0.5869   -1.8480    0.6802 C   0  0  1  0  0  0  0  0  0  0  0  0
    2.2702    1.7476    0.2043 C   0  0  0  0  0  0  0  0  0  0  0  0
   -0.2555   -2.0091   -1.8511 C   0  0  0  0  0  0  0  0  0  0  0  0
   -0.6896    1.0491   -0.8029 C   0  0  0  0  0  0  0  0  0  0  0  0
   -2.0393   -1.3680    0.6980 C   0  0  0  0  0  0  0  0  0  0  0  0
   -2.1984    0.1132    1.0162 C   0  0  0  0  0  0  0  0  0  0  0  0
   -1.8259    1.0418   -0.0930 C   0  0  0  0  0  0  0  0  0  0  0  0
    3.0463    1.6458   -1.1078 C   0  0  0  0  0  0  0  0  0  0  0  0
    3.2209    2.0242    1.3681 C   0  0  0  0  0  0  0  0  0  0  0  0
   -2.7942    2.0931   -0.4449 C   0  0  0  0  0  0  0  0  0  0  0  0
    1.0059    0.2362   -1.6485 H   0  0  0  0  0  0  0  0  0  0  0  0
    0.9101    0.5997    1.3935 H   0  0  0  0  0  0  0  0  0  0  0  0
    1.8343   -2.8422    0.1346 H   0  0  0  0  0  0  0  0  0  0  0  0
    2.2858   -1.8706   -1.2630 H   0  0  0  0  0  0  0  0  0  0  0  0
    3.4197   -0.6315    0.3278 H   0  0  0  0  0  0  0  0  0  0  0  0
    2.3529   -1.1066    1.6256 H   0  0  0  0  0  0  0  0  0  0  0  0
   -0.1066   -1.5399    1.6161 H   0  0  0  0  0  0  0  0  0  0  0  0
    1.5831    2.5999    0.1309 H   0  0  0  0  0  0  0  0  0  0  0  0
   -1.2609   -1.6488   -2.0891 H   0  0  0  0  0  0  0  0  0  0  0  0
   -0.2887   -3.1027   -1.8036 H   0  0  0  0  0  0  0  0  0  0  0  0
    0.3875   -1.7467   -2.6993 H   0  0  0  0  0  0  0  0  0  0  0  0
   -0.5548    1.8182   -1.5642 H   0  0  0  0  0  0  0  0  0  0  0  0
   -2.5533   -1.6273   -0.2350 H   0  0  0  0  0  0  0  0  0  0  0  0
   -2.5754   -1.9319    1.4742 H   0  0  0  0  0  0  0  0  0  0  0  0
   -1.6191    0.3732    1.9112 H   0  0  0  0  0  0  0  0  0  0  0  0
   -3.2476    0.2573    1.3006 H   0  0  0  0  0  0  0  0  0  0  0  0
    3.6541    0.7441   -1.2069 H   0  0  0  0  0  0  0  0  0  0  0  0
    3.7346    2.4958   -1.1943 H   0  0  0  0  0  0  0  0  0  0  0  0
    2.3885    1.7168   -1.9789 H   0  0  0  0  0  0  0  0  0  0  0  0
    4.0115    1.2722    1.4524 H   0  0  0  0  0  0  0  0  0  0  0  0
    2.6768    2.0558    2.3181 H   0  0  0  0  0  0  0  0  0  0  0  0
    3.7093    2.9963    1.2373 H   0  0  0  0  0  0  0  0  0  0  0  0
   -1.0512   -3.5535    1.5346 H   0  0  0  0  0  0  0  0  0  0  0  0
   -2.5035    2.7845   -1.2537 H   0  0  0  0  0  0  0  0  0  0  0  0
  1  8  1  0  0  0  0
  1 40  1  0  0  0  0
  2 17  2  0  0  0  0
  3  4  1  0  0  0  0
  3  6  1  0  0  0  0
  3  8  1  0  0  0  0
  3 10  1  0  0  0  0
  4  5  1  0  0  0  0
  4 11  1  0  0  0  0
  4 18  1  0  0  0  0
  5  7  1  0  0  0  0
  5  9  1  0  0  0  0
  5 19  1  0  0  0  0
  6  7  1  0  0  0  0
  6 20  1  0  0  0  0
  6 21  1  0  0  0  0
  7 22  1  0  0  0  0
  7 23  1  0  0  0  0
  8 12  1  0  0  0  0
  8 24  1  0  0  0  0
  9 15  1  0  0  0  0
  9 16  1  0  0  0  0
  9 25  1  0  0  0  0
 10 26  1  0  0  0  0
 10 27  1  0  0  0  0
 10 28  1  0  0  0  0
 11 14  2  0  0  0  0
 11 29  1  0  0  0  0
 12 13  1  0  0  0  0
 12 30  1  0  0  0  0
 12 31  1  0  0  0  0
 13 14  1  0  0  0  0
 13 32  1  0  0  0  0
 13 33  1  0  0  0  0
 14 17  1  0  0  0  0
 15 34  1  0  0  0  0
 15 35  1  0  0  0  0
 15 36  1  0  0  0  0
 16 37  1  0  0  0  0
 16 38  1  0  0  0  0
 16 39  1  0  0  0  0
 17 41  1  0  0  0  0
M  END
> <PUBCHEM_COMPOUND_CID>
44566761

> <PUBCHEM_CONFORMER_RMSD>
0.6

> <PUBCHEM_CONFORMER_DIVERSEORDER>
1
10
11
6
7
13
8
12
4
3
9
5
2

> <PUBCHEM_MMFF94_PARTIAL_CHARGES>
11
1 -0.68
11 -0.29
13 0.14
14 -0.12
17 0.5
2 -0.57
29 0.15
4 0.14
40 0.4
41 0.06
8 0.28

> <PUBCHEM_EFFECTIVE_ROTOR_COUNT>
3.2

> <PUBCHEM_PHARMACOPHORE_FEATURES>
6
1 1 acceptor
1 1 donor
1 2 acceptor
3 9 15 16 hydrophobe
5 3 4 5 6 7 rings
7 3 4 8 11 12 13 14 rings

> <PUBCHEM_HEAVY_ATOM_COUNT>
17

> <PUBCHEM_ATOM_DEF_STEREO_COUNT>
4

> <PUBCHEM_ATOM_UDEF_STEREO_COUNT>
0

> <PUBCHEM_BOND_DEF_STEREO_COUNT>
0

> <PUBCHEM_BOND_UDEF_STEREO_COUNT>
0

> <PUBCHEM_ISOTOPIC_ATOM_COUNT>
0

> <PUBCHEM_COMPONENT_COUNT>
1

> <PUBCHEM_CACTVS_TAUTO_COUNT>
1

> <PUBCHEM_CONFORMER_ID>
02A808E900000001

> <PUBCHEM_MMFF94_ENERGY>
53.1119

> <PUBCHEM_FEATURE_SELFOVERLAP>
30.513

> <PUBCHEM_SHAPE_FINGERPRINT>
12423570 1 15969580905043413887
12507560 14 17618212915170715651
13134695 92 17545300991923240277
13140716 1 18337105662050598065
14614273 12 18126281076266491722
14817 1 12254124565711178635
15490181 7 18200311155726228452
15906896 17 18268138932542460271
16945 1 18118972622318376499
18981168 100 17417249982551967672
20511035 2 18410572873045117478
20525323 117 18121202436532220024
20645477 70 18054218835770808333
21296965 12 18200318843364299302
21501502 16 18407758140167736095
21524375 3 18341040844141618885
21731228 192 18411128139096499968
220403 375 18412257350444057715
22112679 90 15756293868638248631
2334 1 18408608075730916845
23419403 2 16969496832977554414
23526113 38 17835265353789058927
23558518 356 18337379526181976551
2748010 2 18262249845416699463
3060560 45 17556285173240768671
350125 39 18337121115152992347
474 4 18267299833736135857
53812653 166 18046070350269122963
5939293 188 17763734395518778416
7364860 26 18055632811243407797
7832392 63 16974773148787833529
81228 2 17979908642268910724

> <PUBCHEM_SHAPE_MULTIPOLES>
338.11
4.74
3.22
1.28
0.46
0.84
0.22
-4.3
-0.87
-1.09
0
0.28
0.23
0.53

> <PUBCHEM_SHAPE_SELFOVERLAP>
694.914

> <PUBCHEM_SHAPE_VOLUME>
195.7

> <PUBCHEM_COORDINATE_TYPE>
2
5
10

$$$$
