6431302
  -OEChem-09012016193D

 42 43  0     1  0  0  0  0  0999 V2000
    0.4951   -3.2761    0.6749 O   0  0  0  0  0  0  0  0  0  0  0  0
    0.7706   -0.8986    0.2490 C   0  0  1  0  0  0  0  0  0  0  0  0
    0.0805    0.4069   -0.2398 C   0  0  1  0  0  0  0  0  0  0  0  0
   -1.2876    0.5819    0.4755 C   0  0  2  0  0  0  0  0  0  0  0  0
   -0.1082   -2.1539    0.0157 C   0  0  2  0  0  0  0  0  0  0  0  0
   -2.1698   -0.6641    0.2728 C   0  0  0  0  0  0  0  0  0  0  0  0
   -1.4700   -1.9485    0.6982 C   0  0  0  0  0  0  0  0  0  0  0  0
    2.1808   -0.9954   -0.3568 C   0  0  0  0  0  0  0  0  0  0  0  0
   -2.0684    1.8116   -0.0061 C   0  0  0  0  0  0  0  0  0  0  0  0
    1.0048    1.5975   -0.0832 C   0  0  0  0  0  0  0  0  0  0  0  0
    3.0505    0.1774    0.1056 C   0  0  0  0  0  0  0  0  0  0  0  0
   -0.2831   -2.5301   -1.4614 C   0  0  0  0  0  0  0  0  0  0  0  0
    2.3361    1.5029    0.0836 C   0  0  0  0  0  0  0  0  0  0  0  0
   -2.3908    1.6861   -1.4908 C   0  0  0  0  0  0  0  0  0  0  0  0
   -3.3422    1.9847    0.8135 C   0  0  0  0  0  0  0  0  0  0  0  0
    3.2017    2.7178    0.2493 C   0  0  0  0  0  0  0  0  0  0  0  0
    0.9163   -0.8213    1.3390 H   0  0  0  0  0  0  0  0  0  0  0  0
   -0.0868    0.3000   -1.3171 H   0  0  0  0  0  0  0  0  0  0  0  0
   -1.0936    0.6941    1.5522 H   0  0  0  0  0  0  0  0  0  0  0  0
   -2.4700   -0.7922   -0.7704 H   0  0  0  0  0  0  0  0  0  0  0  0
   -3.0894   -0.5963    0.8628 H   0  0  0  0  0  0  0  0  0  0  0  0
   -1.3307   -1.9355    1.7883 H   0  0  0  0  0  0  0  0  0  0  0  0
   -2.1229   -2.8100    0.5065 H   0  0  0  0  0  0  0  0  0  0  0  0
    2.1221   -0.9884   -1.4525 H   0  0  0  0  0  0  0  0  0  0  0  0
    2.6756   -1.9292   -0.0696 H   0  0  0  0  0  0  0  0  0  0  0  0
   -1.4779    2.7194    0.1497 H   0  0  0  0  0  0  0  0  0  0  0  0
    0.5749    2.5916   -0.1468 H   0  0  0  0  0  0  0  0  0  0  0  0
    3.9403    0.2216   -0.5339 H   0  0  0  0  0  0  0  0  0  0  0  0
    3.3990   -0.0115    1.1287 H   0  0  0  0  0  0  0  0  0  0  0  0
    0.6755   -2.7941   -1.9209 H   0  0  0  0  0  0  0  0  0  0  0  0
   -0.9131   -3.4226   -1.5560 H   0  0  0  0  0  0  0  0  0  0  0  0
   -0.7383   -1.7320   -2.0531 H   0  0  0  0  0  0  0  0  0  0  0  0
    1.2801   -3.5447    0.1691 H   0  0  0  0  0  0  0  0  0  0  0  0
   -3.1084    0.8949   -1.7224 H   0  0  0  0  0  0  0  0  0  0  0  0
   -2.8652    2.6169   -1.8275 H   0  0  0  0  0  0  0  0  0  0  0  0
   -1.5070    1.5630   -2.1199 H   0  0  0  0  0  0  0  0  0  0  0  0
   -4.1167    1.2538    0.5612 H   0  0  0  0  0  0  0  0  0  0  0  0
   -3.7760    2.9726    0.6186 H   0  0  0  0  0  0  0  0  0  0  0  0
   -3.1397    1.9262    1.8880 H   0  0  0  0  0  0  0  0  0  0  0  0
    3.7381    2.6728    1.2027 H   0  0  0  0  0  0  0  0  0  0  0  0
    2.6206    3.6458    0.2381 H   0  0  0  0  0  0  0  0  0  0  0  0
    3.9360    2.7746   -0.5608 H   0  0  0  0  0  0  0  0  0  0  0  0
  1  5  1  0  0  0  0
  1 33  1  0  0  0  0
  2  3  1  0  0  0  0
  2  5  1  0  0  0  0
  2  8  1  0  0  0  0
  2 17  1  0  0  0  0
  3  4  1  0  0  0  0
  3 10  1  0  0  0  0
  3 18  1  0  0  0  0
  4  6  1  0  0  0  0
  4  9  1  0  0  0  0
  4 19  1  0  0  0  0
  5  7  1  0  0  0  0
  5 12  1  0  0  0  0
  6  7  1  0  0  0  0
  6 20  1  0  0  0  0
  6 21  1  0  0  0  0
  7 22  1  0  0  0  0
  7 23  1  0  0  0  0
  8 11  1  0  0  0  0
  8 24  1  0  0  0  0
  8 25  1  0  0  0  0
  9 14  1  0  0  0  0
  9 15  1  0  0  0  0
  9 26  1  0  0  0  0
 10 13  2  0  0  0  0
 10 27  1  0  0  0  0
 11 13  1  0  0  0  0
 11 28  1  0  0  0  0
 11 29  1  0  0  0  0
 12 30  1  0  0  0  0
 12 31  1  0  0  0  0
 12 32  1  0  0  0  0
 13 16  1  0  0  0  0
 14 34  1  0  0  0  0
 14 35  1  0  0  0  0
 14 36  1  0  0  0  0
 15 37  1  0  0  0  0
 15 38  1  0  0  0  0
 15 39  1  0  0  0  0
 16 40  1  0  0  0  0
 16 41  1  0  0  0  0
 16 42  1  0  0  0  0
M  END
> <PUBCHEM_COMPOUND_CID>
6431302

> <PUBCHEM_CONFORMER_RMSD>
0.6

> <PUBCHEM_CONFORMER_DIVERSEORDER>
1
7
4
5
8
6
2
9
10
3

> <PUBCHEM_MMFF94_PARTIAL_CHARGES>
9
1 -0.68
10 -0.29
11 0.14
13 -0.28
16 0.14
27 0.15
3 0.14
33 0.4
5 0.28

> <PUBCHEM_EFFECTIVE_ROTOR_COUNT>
2.2

> <PUBCHEM_PHARMACOPHORE_FEATURES>
5
1 1 acceptor
1 1 donor
3 9 14 15 hydrophobe
6 2 3 4 5 6 7 rings
6 2 3 8 10 11 13 rings

> <PUBCHEM_HEAVY_ATOM_COUNT>
16

> <PUBCHEM_ATOM_DEF_STEREO_COUNT>
2

> <PUBCHEM_ATOM_UDEF_STEREO_COUNT>
2

> <PUBCHEM_BOND_DEF_STEREO_COUNT>
0

> <PUBCHEM_BOND_UDEF_STEREO_COUNT>
0

> <PUBCHEM_ISOTOPIC_ATOM_COUNT>
0

> <PUBCHEM_COMPONENT_COUNT>
1

> <PUBCHEM_CACTVS_TAUTO_COUNT>
1

> <PUBCHEM_CONFORMER_ID>
0062224600000001

> <PUBCHEM_MMFF94_ENERGY>
39.3206

> <PUBCHEM_FEATURE_SELFOVERLAP>
25.388

> <PUBCHEM_SHAPE_FINGERPRINT>
1 1 18337672992701856020
10967382 1 18121783824627203856
12423570 1 10796774726733340414
12730499 353 18116992179399042989
13140716 1 18410295783077314808
13380535 76 18337954493791079913
13897977 150 18337390414140115729
14614273 12 18122624122115025716
15490181 7 18409728469442310646
15490181 8 18341049618796526393
16945 1 18192144884929072681
18186145 218 18342175510092751244
18219364 16 18262805051417985801
19868273 325 17546163464242659062
20510252 161 18197785603028789089
20511035 2 18335152985255257030
20525323 117 18051689151118890488
20645477 70 17908133288466493421
20871998 184 18053111901621321111
21041028 32 17186728216960648945
21339142 126 17909829078555583134
21501502 16 18338234976678012784
21524375 3 18411416202489491991
21639500 275 18120922920081896965
220403 375 18261661610864186483
2334 1 18410576227251285528
23388829 49 16829251169584643670
23402539 116 17838049665049254407
23419403 2 15810683002465189122
23558518 356 18336267958833980794
23559900 14 18342187618776307270
23598291 2 17339549407130563293
238 59 17757799309420177861
25 1 18194124010191070549
2748010 2 18409738360736078212
3060560 45 18196927773458117156
31174 14 17830476993898915249
350125 39 18337120041543089064
353137 74 18119795052773830599
474 4 18269553853863309897
5939293 188 17834957464652525865
7364860 26 18053950549973479169
81228 2 17977380864968043145
8272917 22 17981894043095676705

> <PUBCHEM_SHAPE_MULTIPOLES>
323.4
4.51
3.63
1.02
1.17
1.4
0.33
-3.99
-0.41
-0.15
0.01
-0.55
0.13
0.23

> <PUBCHEM_SHAPE_SELFOVERLAP>
657.351

> <PUBCHEM_SHAPE_VOLUME>
187.7

> <PUBCHEM_COORDINATE_TYPE>
2
5
10

$$$$
