14589063
  -OEChem-09012015402D

 39 41  0     1  0  0  0  0  0999 V2000
    3.7230   -0.8445    0.0000 O   0  0  0  0  0  0  0  0  0  0  0  0
    4.5447    2.3208    0.0000 O   0  0  0  0  0  0  0  0  0  0  0  0
    7.0268   -2.8331    0.0000 O   0  0  0  0  0  0  0  0  0  0  0  0
    2.0000   -0.4124    0.0000 O   0  0  0  0  0  0  0  0  0  0  0  0
    5.4786   -0.7708    0.0000 C   0  0  3  0  0  0  0  0  0  0  0  0
    4.5777   -0.3369    0.0000 C   0  0  3  0  0  0  0  0  0  0  0  0
    4.3551    0.6380    0.0000 C   0  0  3  0  0  0  0  0  0  0  0  0
    6.3796   -0.3369    0.0000 C   0  0  3  0  0  0  0  0  0  0  0  0
    5.6146   -1.7555    0.0000 C   0  0  3  0  0  0  0  0  0  0  0  0
    4.9786    1.4199    0.0000 C   0  0  3  0  0  0  0  0  0  0  0  0
    3.3648    0.7246    0.0000 C   0  0  3  0  0  0  0  0  0  0  0  0
    7.0647   -1.0572    0.0000 C   0  0  0  0  0  0  0  0  0  0  0  0
    6.6021    0.6380    0.0000 C   0  0  0  0  0  0  0  0  0  0  0  0
    5.9786    1.4199    0.0000 C   0  0  0  0  0  0  0  0  0  0  0  0
    6.5929   -1.9322    0.0000 C   0  0  0  0  0  0  0  0  0  0  0  0
    2.9749   -0.1898    0.0000 C   0  0  0  0  0  0  0  0  0  0  0  0
    4.8930   -2.4478    0.0000 C   0  0  0  0  0  0  0  0  0  0  0  0
    2.8504    1.5822    0.0000 C   0  0  0  0  0  0  0  0  0  0  0  0
    7.5770    0.8606    0.0000 C   0  0  0  0  0  0  0  0  0  0  0  0
    4.9775   -1.1358    0.0000 H   0  0  0  0  0  0  0  0  0  0  0  0
    4.6047   -0.9563    0.0000 H   0  0  0  0  0  0  0  0  0  0  0  0
    4.9596    0.5001    0.0000 H   0  0  0  0  0  0  0  0  0  0  0  0
    6.9775   -0.1727    0.0000 H   0  0  0  0  0  0  0  0  0  0  0  0
    5.0290   -1.5520    0.0000 H   0  0  0  0  0  0  0  0  0  0  0  0
    4.3625    1.4893    0.0000 H   0  0  0  0  0  0  0  0  0  0  0  0
    3.6936    1.2503    0.0000 H   0  0  0  0  0  0  0  0  0  0  0  0
    7.5765   -1.4072    0.0000 H   0  0  0  0  0  0  0  0  0  0  0  0
    7.4666   -0.5850    0.0000 H   0  0  0  0  0  0  0  0  0  0  0  0
    6.5372    1.6889    0.0000 H   0  0  0  0  0  0  0  0  0  0  0  0
    5.8407    2.0243    0.0000 H   0  0  0  0  0  0  0  0  0  0  0  0
    4.4638   -2.0004    0.0000 H   0  0  0  0  0  0  0  0  0  0  0  0
    4.4456   -2.8770    0.0000 H   0  0  0  0  0  0  0  0  0  0  0  0
    5.3223   -2.8952    0.0000 H   0  0  0  0  0  0  0  0  0  0  0  0
    3.3821    1.9011    0.0000 H   0  0  0  0  0  0  0  0  0  0  0  0
    2.5315    2.1138    0.0000 H   0  0  0  0  0  0  0  0  0  0  0  0
    2.3188    1.2632    0.0000 H   0  0  0  0  0  0  0  0  0  0  0  0
    7.9988    0.4061    0.0000 H   0  0  0  0  0  0  0  0  0  0  0  0
    7.7598    1.4530    0.0000 H   0  0  0  0  0  0  0  0  0  0  0  0
    4.8940    2.8331    0.0000 H   0  0  0  0  0  0  0  0  0  0  0  0
  1  6  1  0  0  0  0
  1 16  1  0  0  0  0
  2 10  1  0  0  0  0
  2 39  1  0  0  0  0
  3 15  2  0  0  0  0
  4 16  2  0  0  0  0
  5  6  1  0  0  0  0
  5  8  1  0  0  0  0
  5  9  1  0  0  0  0
  5 20  1  0  0  0  0
  6  7  1  0  0  0  0
  6 21  1  0  0  0  0
  7 10  1  0  0  0  0
  7 11  1  0  0  0  0
  7 22  1  0  0  0  0
  8 12  1  0  0  0  0
  8 13  1  0  0  0  0
  8 23  1  0  0  0  0
  9 15  1  0  0  0  0
  9 17  1  0  0  0  0
  9 24  1  0  0  0  0
 10 14  1  0  0  0  0
 10 25  1  0  0  0  0
 11 16  1  0  0  0  0
 11 18  1  0  0  0  0
 11 26  1  0  0  0  0
 12 15  1  0  0  0  0
 12 27  1  0  0  0  0
 12 28  1  0  0  0  0
 13 14  1  0  0  0  0
 13 19  2  0  0  0  0
 14 29  1  0  0  0  0
 14 30  1  0  0  0  0
 17 31  1  0  0  0  0
 17 32  1  0  0  0  0
 17 33  1  0  0  0  0
 18 34  1  0  0  0  0
 18 35  1  0  0  0  0
 18 36  1  0  0  0  0
 19 37  1  0  0  0  0
 19 38  1  0  0  0  0
M  END
> <PUBCHEM_COMPOUND_CID>
14589063

> <PUBCHEM_COMPOUND_CANONICALIZED>
1

> <PUBCHEM_CACTVS_COMPLEXITY>
455

> <PUBCHEM_CACTVS_HBOND_ACCEPTOR>
4

> <PUBCHEM_CACTVS_HBOND_DONOR>
1

> <PUBCHEM_CACTVS_ROTATABLE_BOND>
0

> <PUBCHEM_CACTVS_SUBSKEYS>
AAADceBwOAAAAAAAAAAAAAAAAAAAAaIAAAAAAAAABgAAAADQAAAAGgAACAAADRSggAICCAAABgCIAoDSCAAAAAAgAAAAAAEAAAgAEBIAAQACQAAFwAAAAAHKzPDOgAAAAAAAAAAAAAAAAAAAAQAACAAAAA==

> <PUBCHEM_IUPAC_OPENEYE_NAME>
4-hydroxy-3,9-dimethyl-6-methylene-3a,4,5,6a,7,9,9a,9b-octahydro-3H-azuleno[4,5-b]furan-2,8-dione

> <PUBCHEM_IUPAC_CAS_NAME>
4-hydroxy-3,9-dimethyl-6-methylene-3a,4,5,6a,7,9,9a,9b-octahydro-3H-azuleno[4,5-b]furan-2,8-dione

> <PUBCHEM_IUPAC_NAME_MARKUP>
4-hydroxy-3,9-dimethyl-6-methylidene-3<I>a</I>,4,5,6<I>a</I>,7,9,9<I>a</I>,9<I>b</I>-octahydro-3<I>H</I>-azuleno[4,5-b]furan-2,8-dione

> <PUBCHEM_IUPAC_NAME>
4-hydroxy-3,9-dimethyl-6-methylidene-3a,4,5,6a,7,9,9a,9b-octahydro-3H-azuleno[4,5-b]furan-2,8-dione

> <PUBCHEM_IUPAC_SYSTEMATIC_NAME>
3,9-dimethyl-6-methylidene-4-oxidanyl-3a,4,5,6a,7,9,9a,9b-octahydro-3H-azuleno[4,5-b]furan-2,8-dione

> <PUBCHEM_IUPAC_TRADITIONAL_NAME>
4-hydroxy-3,9-dimethyl-6-methylene-3a,4,5,6a,7,9,9a,9b-octahydro-3H-azuleno[4,5-b]furan-2,8-quinone

> <PUBCHEM_IUPAC_INCHI>
InChI=1S/C15H20O4/c1-6-4-11(17)13-8(3)15(18)19-14(13)12-7(2)10(16)5-9(6)12/h7-9,11-14,17H,1,4-5H2,2-3H3

> <PUBCHEM_IUPAC_INCHIKEY>
ZAPNUFCAIXITRW-UHFFFAOYSA-N

> <PUBCHEM_XLOGP3_AA>
0.9

> <PUBCHEM_EXACT_MASS>
264.136159

> <PUBCHEM_MOLECULAR_FORMULA>
C15H20O4

> <PUBCHEM_MOLECULAR_WEIGHT>
264.32

> <PUBCHEM_OPENEYE_CAN_SMILES>
CC1C2C(CC1=O)C(=C)CC(C3C2OC(=O)C3C)O

> <PUBCHEM_OPENEYE_ISO_SMILES>
CC1C2C(CC1=O)C(=C)CC(C3C2OC(=O)C3C)O

> <PUBCHEM_CACTVS_TPSA>
63.6

> <PUBCHEM_MONOISOTOPIC_WEIGHT>
264.136159

> <PUBCHEM_TOTAL_CHARGE>
0

> <PUBCHEM_HEAVY_ATOM_COUNT>
19

> <PUBCHEM_ATOM_DEF_STEREO_COUNT>
0

> <PUBCHEM_ATOM_UDEF_STEREO_COUNT>
7

> <PUBCHEM_BOND_DEF_STEREO_COUNT>
0

> <PUBCHEM_BOND_UDEF_STEREO_COUNT>
0

> <PUBCHEM_ISOTOPIC_ATOM_COUNT>
0

> <PUBCHEM_COMPONENT_COUNT>
1

> <PUBCHEM_CACTVS_TAUTO_COUNT>
-1

> <PUBCHEM_COORDINATE_TYPE>
1
5
255

> <PUBCHEM_BONDANNOTATIONS>
6  1  3
11  18  3
10  2  3
5  9  3
7  11  3
8  12  3
9  17  3

$$$$
