15385516
  -OEChem-11212012223D

 83 87  0     1  0  0  0  0  0999 V2000
   -7.1585   -0.9703    0.3526 O   0  0  0  0  0  0  0  0  0  0  0  0
   -5.4859   -3.1269   -0.3542 O   0  0  0  0  0  0  0  0  0  0  0  0
    3.4053   -1.5750    1.8733 O   0  0  0  0  0  0  0  0  0  0  0  0
    4.5550    2.9535   -0.8437 O   0  0  0  0  0  0  0  0  0  0  0  0
    3.3938    1.5328   -2.1960 O   0  0  0  0  0  0  0  0  0  0  0  0
   -0.6877    1.0098   -0.0033 C   0  0  2  0  0  0  0  0  0  0  0  0
   -1.4361   -0.3480   -0.2868 C   0  0  1  0  0  0  0  0  0  0  0  0
   -2.9923   -0.2671   -0.6318 C   0  0  2  0  0  0  0  0  0  0  0  0
    0.7736    0.6672    0.6546 C   0  0  1  0  0  0  0  0  0  0  0  0
   -3.6740    0.5941    0.4940 C   0  0  1  0  0  0  0  0  0  0  0  0
   -1.5467    1.8876    0.9495 C   0  0  0  0  0  0  0  0  0  0  0  0
    1.5344   -0.3323   -0.2348 C   0  0  0  0  0  0  0  0  0  0  0  0
   -3.0269    1.9929    0.5720 C   0  0  0  0  0  0  0  0  0  0  0  0
   -5.2488    0.5838    0.5199 C   0  0  0  0  0  0  0  0  0  0  0  0
    3.0691   -0.3880   -0.2504 C   0  0  1  0  0  0  0  0  0  0  0  0
   -0.6155   -1.2477   -1.2362 C   0  0  0  0  0  0  0  0  0  0  0  0
   -3.5853   -1.7035   -0.5563 C   0  0  0  0  0  0  0  0  0  0  0  0
    1.5941    1.9720    0.8615 C   0  0  0  0  0  0  0  0  0  0  0  0
    3.7991    0.9334    0.1302 C   0  0  1  0  0  0  0  0  0  0  0  0
   -0.4908    1.8228   -1.3195 C   0  0  0  0  0  0  0  0  0  0  0  0
    3.0669    1.7487    1.2066 C   0  0  0  0  0  0  0  0  0  0  0  0
   -5.7398   -0.8968    0.5228 C   0  0  2  0  0  0  0  0  0  0  0  0
    0.8698   -1.1697   -1.0572 C   0  0  0  0  0  0  0  0  0  0  0  0
   -3.2626    0.2744   -2.0582 C   0  0  0  0  0  0  0  0  0  0  0  0
   -5.1127   -1.7613   -0.5709 C   0  0  2  0  0  0  0  0  0  0  0  0
    0.6268   -0.0041    2.0534 C   0  0  0  0  0  0  0  0  0  0  0  0
    3.6452   -1.6391    0.4710 C   0  0  1  0  0  0  0  0  0  0  0  0
    5.2613    0.6837    0.5840 C   0  0  0  0  0  0  0  0  0  0  0  0
    5.1649   -1.8483    0.1593 C   0  0  0  0  0  0  0  0  0  0  0  0
    5.8869   -0.5069   -0.1387 C   0  0  0  0  0  0  0  0  0  0  0  0
   -5.7457    1.2418    1.8389 C   0  0  0  0  0  0  0  0  0  0  0  0
   -5.8972    1.3889   -0.6244 C   0  0  0  0  0  0  0  0  0  0  0  0
    3.8748    1.8113   -1.1077 C   0  0  0  0  0  0  0  0  0  0  0  0
    5.8822   -2.5697    1.3200 C   0  0  0  0  0  0  0  0  0  0  0  0
    5.3034   -2.7439   -1.0934 C   0  0  0  0  0  0  0  0  0  0  0  0
   -1.4295   -0.8815    0.6730 H   0  0  0  0  0  0  0  0  0  0  0  0
   -3.3963    0.0988    1.4400 H   0  0  0  0  0  0  0  0  0  0  0  0
   -1.1295    2.8998    1.0156 H   0  0  0  0  0  0  0  0  0  0  0  0
   -1.5253    1.4885    1.9667 H   0  0  0  0  0  0  0  0  0  0  0  0
   -3.5076    2.5973    1.3473 H   0  0  0  0  0  0  0  0  0  0  0  0
   -3.1442    2.5543   -0.3582 H   0  0  0  0  0  0  0  0  0  0  0  0
    3.3190   -0.5870   -1.3043 H   0  0  0  0  0  0  0  0  0  0  0  0
   -0.8131   -1.0116   -2.2845 H   0  0  0  0  0  0  0  0  0  0  0  0
   -0.9126   -2.2930   -1.0912 H   0  0  0  0  0  0  0  0  0  0  0  0
   -3.2281   -2.2032    0.3554 H   0  0  0  0  0  0  0  0  0  0  0  0
   -3.2084   -2.3198   -1.3831 H   0  0  0  0  0  0  0  0  0  0  0  0
    1.1418    2.5718    1.6613 H   0  0  0  0  0  0  0  0  0  0  0  0
    1.5724    2.6023   -0.0302 H   0  0  0  0  0  0  0  0  0  0  0  0
   -0.1207    2.8334   -1.1201 H   0  0  0  0  0  0  0  0  0  0  0  0
    0.2106    1.3484   -2.0110 H   0  0  0  0  0  0  0  0  0  0  0  0
   -1.4185    1.9784   -1.8644 H   0  0  0  0  0  0  0  0  0  0  0  0
    3.5381    2.7288    1.3564 H   0  0  0  0  0  0  0  0  0  0  0  0
    3.1444    1.2513    2.1791 H   0  0  0  0  0  0  0  0  0  0  0  0
   -5.5252   -1.3456    1.5019 H   0  0  0  0  0  0  0  0  0  0  0  0
    1.4371   -1.8556   -1.6838 H   0  0  0  0  0  0  0  0  0  0  0  0
   -3.3851    1.3581   -2.0891 H   0  0  0  0  0  0  0  0  0  0  0  0
   -2.4730    0.0187   -2.7665 H   0  0  0  0  0  0  0  0  0  0  0  0
   -4.1716   -0.1406   -2.4998 H   0  0  0  0  0  0  0  0  0  0  0  0
   -5.5182   -1.4978   -1.5517 H   0  0  0  0  0  0  0  0  0  0  0  0
    1.5921   -0.2006    2.5213 H   0  0  0  0  0  0  0  0  0  0  0  0
    0.0983    0.6319    2.7677 H   0  0  0  0  0  0  0  0  0  0  0  0
    0.1143   -0.9692    2.0119 H   0  0  0  0  0  0  0  0  0  0  0  0
    3.0996   -2.5306    0.1380 H   0  0  0  0  0  0  0  0  0  0  0  0
    5.3076    0.5010    1.6640 H   0  0  0  0  0  0  0  0  0  0  0  0
    5.9052    1.5566    0.4258 H   0  0  0  0  0  0  0  0  0  0  0  0
    5.8739   -0.2970   -1.2166 H   0  0  0  0  0  0  0  0  0  0  0  0
    6.9478   -0.5783    0.1329 H   0  0  0  0  0  0  0  0  0  0  0  0
   -5.5671    2.3215    1.8532 H   0  0  0  0  0  0  0  0  0  0  0  0
   -6.8250    1.1009    1.9698 H   0  0  0  0  0  0  0  0  0  0  0  0
   -5.2510    0.8033    2.7126 H   0  0  0  0  0  0  0  0  0  0  0  0
   -5.4647    2.3907   -0.7094 H   0  0  0  0  0  0  0  0  0  0  0  0
   -5.8069    0.8964   -1.5931 H   0  0  0  0  0  0  0  0  0  0  0  0
   -6.9718    1.5242   -0.4511 H   0  0  0  0  0  0  0  0  0  0  0  0
    5.3723   -3.5047    1.5780 H   0  0  0  0  0  0  0  0  0  0  0  0
    5.9270   -1.9465    2.2194 H   0  0  0  0  0  0  0  0  0  0  0  0
    6.9147   -2.8217    1.0511 H   0  0  0  0  0  0  0  0  0  0  0  0
    6.3565   -2.8885   -1.3613 H   0  0  0  0  0  0  0  0  0  0  0  0
    4.7980   -2.3052   -1.9605 H   0  0  0  0  0  0  0  0  0  0  0  0
    4.8667   -3.7342   -0.9211 H   0  0  0  0  0  0  0  0  0  0  0  0
   -7.4095   -1.9091    0.3916 H   0  0  0  0  0  0  0  0  0  0  0  0
   -5.1700   -3.3905    0.5269 H   0  0  0  0  0  0  0  0  0  0  0  0
    3.9112   -0.8401    2.2509 H   0  0  0  0  0  0  0  0  0  0  0  0
    4.6153    3.5342   -1.6318 H   0  0  0  0  0  0  0  0  0  0  0  0
  1 22  1  0  0  0  0
  1 80  1  0  0  0  0
  2 25  1  0  0  0  0
  2 81  1  0  0  0  0
  3 27  1  0  0  0  0
  3 82  1  0  0  0  0
  4 33  1  0  0  0  0
  4 83  1  0  0  0  0
  5 33  2  0  0  0  0
  6  7  1  0  0  0  0
  6  9  1  0  0  0  0
  6 11  1  0  0  0  0
  6 20  1  0  0  0  0
  7  8  1  0  0  0  0
  7 16  1  0  0  0  0
  7 36  1  0  0  0  0
  8 10  1  0  0  0  0
  8 17  1  0  0  0  0
  8 24  1  0  0  0  0
  9 12  1  0  0  0  0
  9 18  1  0  0  0  0
  9 26  1  0  0  0  0
 10 13  1  0  0  0  0
 10 14  1  0  0  0  0
 10 37  1  0  0  0  0
 11 13  1  0  0  0  0
 11 38  1  0  0  0  0
 11 39  1  0  0  0  0
 12 15  1  0  0  0  0
 12 23  2  0  0  0  0
 13 40  1  0  0  0  0
 13 41  1  0  0  0  0
 14 22  1  0  0  0  0
 14 31  1  0  0  0  0
 14 32  1  0  0  0  0
 15 19  1  0  0  0  0
 15 27  1  0  0  0  0
 15 42  1  0  0  0  0
 16 23  1  0  0  0  0
 16 43  1  0  0  0  0
 16 44  1  0  0  0  0
 17 25  1  0  0  0  0
 17 45  1  0  0  0  0
 17 46  1  0  0  0  0
 18 21  1  0  0  0  0
 18 47  1  0  0  0  0
 18 48  1  0  0  0  0
 19 21  1  0  0  0  0
 19 28  1  0  0  0  0
 19 33  1  0  0  0  0
 20 49  1  0  0  0  0
 20 50  1  0  0  0  0
 20 51  1  0  0  0  0
 21 52  1  0  0  0  0
 21 53  1  0  0  0  0
 22 25  1  0  0  0  0
 22 54  1  0  0  0  0
 23 55  1  0  0  0  0
 24 56  1  0  0  0  0
 24 57  1  0  0  0  0
 24 58  1  0  0  0  0
 25 59  1  0  0  0  0
 26 60  1  0  0  0  0
 26 61  1  0  0  0  0
 26 62  1  0  0  0  0
 27 29  1  0  0  0  0
 27 63  1  0  0  0  0
 28 30  1  0  0  0  0
 28 64  1  0  0  0  0
 28 65  1  0  0  0  0
 29 30  1  0  0  0  0
 29 34  1  0  0  0  0
 29 35  1  0  0  0  0
 30 66  1  0  0  0  0
 30 67  1  0  0  0  0
 31 68  1  0  0  0  0
 31 69  1  0  0  0  0
 31 70  1  0  0  0  0
 32 71  1  0  0  0  0
 32 72  1  0  0  0  0
 32 73  1  0  0  0  0
 34 74  1  0  0  0  0
 34 75  1  0  0  0  0
 34 76  1  0  0  0  0
 35 77  1  0  0  0  0
 35 78  1  0  0  0  0
 35 79  1  0  0  0  0
M  END
> <PUBCHEM_COMPOUND_CID>
15385516

> <PUBCHEM_CONFORMER_RMSD>
0.8

> <PUBCHEM_CONFORMER_DIVERSEORDER>
2
1

> <PUBCHEM_MMFF94_PARTIAL_CHARGES>
20
1 -0.68
12 -0.28
15 0.14
16 0.14
19 0.06
2 -0.68
22 0.28
23 -0.29
25 0.28
27 0.28
3 -0.68
33 0.66
4 -0.65
5 -0.57
55 0.15
80 0.4
81 0.4
82 0.4
83 0.5
9 0.14

> <PUBCHEM_EFFECTIVE_ROTOR_COUNT>
3.6

> <PUBCHEM_PHARMACOPHORE_FEATURES>
16
1 1 acceptor
1 1 donor
1 2 acceptor
1 2 donor
1 3 acceptor
1 3 donor
1 4 acceptor
1 5 acceptor
3 14 31 32 hydrophobe
3 29 34 35 hydrophobe
3 4 5 33 anion
6 15 19 27 28 29 30 rings
6 6 7 8 10 11 13 rings
6 6 7 9 12 16 23 rings
6 8 10 14 17 22 25 rings
6 9 12 15 18 19 21 rings

> <PUBCHEM_HEAVY_ATOM_COUNT>
35

> <PUBCHEM_ATOM_DEF_STEREO_COUNT>
10

> <PUBCHEM_ATOM_UDEF_STEREO_COUNT>
0

> <PUBCHEM_BOND_DEF_STEREO_COUNT>
0

> <PUBCHEM_BOND_UDEF_STEREO_COUNT>
0

> <PUBCHEM_ISOTOPIC_ATOM_COUNT>
0

> <PUBCHEM_COMPONENT_COUNT>
1

> <PUBCHEM_CACTVS_TAUTO_COUNT>
1

> <PUBCHEM_CONFORMER_ID>
00EAC3AC00000002

> <PUBCHEM_MMFF94_ENERGY>
165.8553

> <PUBCHEM_FEATURE_SELFOVERLAP>
81.319

> <PUBCHEM_SHAPE_FINGERPRINT>
10319926 262 18059850636895457835
10554248 39 18341607097262456301
10595046 47 18410294756464112068
11135609 12 18129946672246176294
11578080 2 17169578370198901862
117089 54 17755591787084632979
11756154 67 17767978528447657038
12107698 1 18186801336223475308
12166972 35 18186804686023887348
12236239 1 18409168805070312057
12422481 6 17988645151331023943
12616971 3 18412263917427986797
12633046 712 18272076223968683061
12633257 1 18131354077146755017
12788726 201 17417824932449368296
13224815 77 18343017800381607797
13533116 47 18335140912413508688
13782708 43 17530680996072553659
13811026 1 18272363153047671390
14068700 675 18337672989340396706
14341114 176 18413389821598037689
14790565 3 18202569509602342345
14856354 85 18272097136475586159
14955137 171 17988078881832145314
15001296 14 18187079602411626058
15131766 46 18116441538463521197
15183329 4 18343865506603274861
15238133 3 17274827904712071881
15788980 27 18409446968558399305
15799311 1 18341625844668277307
17349148 13 18059853931356659652
17492 89 18270399387390739958
17844677 252 18040433270054543621
1813 80 17748823024981265453
1979834 28 16774083942808568462
20028762 73 18412261710084744346
21033648 29 16588020212615998508
21267235 1 18272373032432379190
21792934 111 18201149976156880921
22950370 63 18412262856787400929
23522609 53 18197528240347371809
23559900 14 18343292665725481465
23569914 152 15943671072881815567
23569943 247 17532926100032654027
3004659 81 18341898472349695518
338550 245 18342739602829142518
3411729 13 16915926565310201176
34797466 226 16805605918679167149
350125 39 18341612594783612564
3680242 22 18202292372262655688
392239 28 18273221902405742907
4073 2 18189056558651446178
4098825 35 18186238424766738244
4144715 1 18343029882499605955
439807 62 18410293644811433091
46194498 28 17458345260632798084
465052 167 18343585131423229998
5104073 3 18131347527015615507
6081469 158 18409161109543608629
6086070 43 16987979666685690401
70251023 43 18040995099358948120
7495541 125 18272368689344684960

> <PUBCHEM_SHAPE_MULTIPOLES>
690.94
16.23
2.87
1.61
7.27
0.58
-0.05
6.25
1.99
-1.49
-0.18
-0.37
-0.27
-1.48

> <PUBCHEM_SHAPE_SELFOVERLAP>
1471.494

> <PUBCHEM_SHAPE_VOLUME>
380

> <PUBCHEM_COORDINATE_TYPE>
2
5
10

$$$$
