52951052
  -OEChem-11212012473D

104109  0     1  0  0  0  0  0999 V2000
    8.3147    1.4774    0.5972 O   0  0  0  0  0  0  0  0  0  0  0  0
    7.4368   -0.6427    2.2352 O   0  0  0  0  0  0  0  0  0  0  0  0
    6.7681    0.5869   -2.4264 O   0  0  0  0  0  0  0  0  0  0  0  0
   -3.6162    0.0388   -0.7142 O   0  0  0  0  0  0  0  0  0  0  0  0
   -2.2601   -0.1522    1.1463 O   0  0  0  0  0  0  0  0  0  0  0  0
   -5.1558    0.9438    0.7873 O   0  0  0  0  0  0  0  0  0  0  0  0
   -3.7406    2.4177   -2.2416 O   0  0  0  0  0  0  0  0  0  0  0  0
   -6.3291    3.7902   -1.9308 O   0  0  0  0  0  0  0  0  0  0  0  0
   -6.9669    4.1260    0.8685 O   0  0  0  0  0  0  0  0  0  0  0  0
   -5.9241    0.9205    3.4263 O   0  0  0  0  0  0  0  0  0  0  0  0
    1.7436    0.1936   -0.4335 C   0  0  2  0  0  0  0  0  0  0  0  0
    2.8303   -0.3828    0.5513 C   0  0  1  0  0  0  0  0  0  0  0  0
    4.0868    0.5454    0.8773 C   0  0  2  0  0  0  0  0  0  0  0  0
    0.7665   -1.0373   -0.8922 C   0  0  1  0  0  0  0  0  0  0  0  0
    4.6796    1.0266   -0.4976 C   0  0  1  0  0  0  0  0  0  0  0  0
    2.4365    0.8547   -1.6576 C   0  0  0  0  0  0  0  0  0  0  0  0
    3.6081    1.7785   -1.3151 C   0  0  0  0  0  0  0  0  0  0  0  0
    6.0888    1.7275   -0.4402 C   0  0  1  0  0  0  0  0  0  0  0  0
    0.2056   -1.7493    0.3554 C   0  0  0  0  0  0  0  0  0  0  0  0
   -1.1240   -2.5090    0.2909 C   0  0  1  0  0  0  0  0  0  0  0  0
    2.1695   -1.0272    1.7916 C   0  0  0  0  0  0  0  0  0  0  0  0
    5.1660   -0.3251    1.5827 C   0  0  0  0  0  0  0  0  0  0  0  0
   -0.3661   -0.5154   -1.8276 C   0  0  0  0  0  0  0  0  0  0  0  0
   -2.1770   -1.8203   -0.6093 C   0  0  1  0  0  0  0  0  0  0  0  0
    0.8985    1.3050    0.2647 C   0  0  0  0  0  0  0  0  0  0  0  0
   -1.5709   -1.4515   -1.9740 C   0  0  0  0  0  0  0  0  0  0  0  0
    7.0748    0.8091    0.3463 C   0  0  2  0  0  0  0  0  0  0  0  0
    6.5404    0.3363    1.6980 C   0  0  2  0  0  0  0  0  0  0  0  0
    3.7365    1.7162    1.8301 C   0  0  0  0  0  0  0  0  0  0  0  0
    0.8697   -1.7258    1.5280 C   0  0  0  0  0  0  0  0  0  0  0  0
    1.5427   -2.1229   -1.7006 C   0  0  0  0  0  0  0  0  0  0  0  0
   -0.8925   -3.9948   -0.0689 C   0  0  0  0  0  0  0  0  0  0  0  0
   -3.4429   -2.6893   -0.7823 C   0  0  0  0  0  0  0  0  0  0  0  0
   -2.1852   -4.8318   -0.1716 C   0  0  0  0  0  0  0  0  0  0  0  0
    6.6461    1.8793   -1.8848 C   0  0  0  0  0  0  0  0  0  0  0  0
    6.0544    3.1514    0.1512 C   0  0  0  0  0  0  0  0  0  0  0  0
   -3.1582   -4.1438   -1.1469 C   0  0  0  0  0  0  0  0  0  0  0  0
   -2.6688   -0.5554    0.0658 C   0  0  0  0  0  0  0  0  0  0  0  0
   -1.8750   -6.2724   -0.6206 C   0  0  0  0  0  0  0  0  0  0  0  0
   -2.8452   -4.9052    1.2196 C   0  0  0  0  0  0  0  0  0  0  0  0
   -4.1679    1.2482   -0.1946 C   0  0  2  0  0  0  0  0  0  0  0  0
   -4.7891    2.0204   -1.3583 C   0  0  1  0  0  0  0  0  0  0  0  0
   -5.5362    3.2604   -0.8672 C   0  0  2  0  0  0  0  0  0  0  0  0
   -5.7316    2.1159    1.3670 C   0  0  1  0  0  0  0  0  0  0  0  0
   -6.4699    2.9200    0.2944 C   0  0  1  0  0  0  0  0  0  0  0  0
   -6.6709    1.6641    2.4807 C   0  0  0  0  0  0  0  0  0  0  0  0
    3.2839   -1.2247    0.0104 H   0  0  0  0  0  0  0  0  0  0  0  0
    4.8595    0.0937   -1.0557 H   0  0  0  0  0  0  0  0  0  0  0  0
    2.8406    0.0974   -2.3331 H   0  0  0  0  0  0  0  0  0  0  0  0
    1.7050    1.4198   -2.2486 H   0  0  0  0  0  0  0  0  0  0  0  0
    3.2497    2.6731   -0.7998 H   0  0  0  0  0  0  0  0  0  0  0  0
    4.0132    2.1290   -2.2678 H   0  0  0  0  0  0  0  0  0  0  0  0
   -1.5292   -2.5104    1.3130 H   0  0  0  0  0  0  0  0  0  0  0  0
    2.8579   -1.7608    2.2272 H   0  0  0  0  0  0  0  0  0  0  0  0
    1.9698   -0.2883    2.5711 H   0  0  0  0  0  0  0  0  0  0  0  0
    4.8306   -0.6083    2.5890 H   0  0  0  0  0  0  0  0  0  0  0  0
    5.2879   -1.2765    1.0457 H   0  0  0  0  0  0  0  0  0  0  0  0
   -0.7596    0.4434   -1.4858 H   0  0  0  0  0  0  0  0  0  0  0  0
    0.0413   -0.3177   -2.8277 H   0  0  0  0  0  0  0  0  0  0  0  0
    1.5138    2.1014    0.6773 H   0  0  0  0  0  0  0  0  0  0  0  0
    0.2304    1.8157   -0.4347 H   0  0  0  0  0  0  0  0  0  0  0  0
    0.2848    0.9237    1.0841 H   0  0  0  0  0  0  0  0  0  0  0  0
   -1.2710   -2.3538   -2.5180 H   0  0  0  0  0  0  0  0  0  0  0  0
   -2.3123   -0.9576   -2.6153 H   0  0  0  0  0  0  0  0  0  0  0  0
    7.3258   -0.0901   -0.2301 H   0  0  0  0  0  0  0  0  0  0  0  0
    6.5364    1.1635    2.4144 H   0  0  0  0  0  0  0  0  0  0  0  0
    3.4288    2.6207    1.3033 H   0  0  0  0  0  0  0  0  0  0  0  0
    4.5780    2.0102    2.4616 H   0  0  0  0  0  0  0  0  0  0  0  0
    2.9406    1.4680    2.5338 H   0  0  0  0  0  0  0  0  0  0  0  0
    0.4461   -2.2417    2.3875 H   0  0  0  0  0  0  0  0  0  0  0  0
    2.0780   -1.7105   -2.5580 H   0  0  0  0  0  0  0  0  0  0  0  0
    0.8726   -2.8703   -2.1318 H   0  0  0  0  0  0  0  0  0  0  0  0
    2.2618   -2.6747   -1.0873 H   0  0  0  0  0  0  0  0  0  0  0  0
   -0.2220   -4.4486    0.6740 H   0  0  0  0  0  0  0  0  0  0  0  0
   -0.3703   -4.0766   -1.0259 H   0  0  0  0  0  0  0  0  0  0  0  0
   -4.0546   -2.6577    0.1288 H   0  0  0  0  0  0  0  0  0  0  0  0
   -4.0876   -2.2724   -1.5683 H   0  0  0  0  0  0  0  0  0  0  0  0
    7.6373    2.3456   -1.8846 H   0  0  0  0  0  0  0  0  0  0  0  0
    6.0095    2.4913   -2.5284 H   0  0  0  0  0  0  0  0  0  0  0  0
    7.0083    3.6690   -0.0067 H   0  0  0  0  0  0  0  0  0  0  0  0
    5.8819    3.1594    1.2276 H   0  0  0  0  0  0  0  0  0  0  0  0
    5.2826    3.7657   -0.3230 H   0  0  0  0  0  0  0  0  0  0  0  0
   -4.1074   -4.6938   -1.1834 H   0  0  0  0  0  0  0  0  0  0  0  0
   -2.7463   -4.1855   -2.1633 H   0  0  0  0  0  0  0  0  0  0  0  0
    8.7788    1.5730   -0.2509 H   0  0  0  0  0  0  0  0  0  0  0  0
    7.0980   -0.9022    3.1091 H   0  0  0  0  0  0  0  0  0  0  0  0
   -1.1908   -6.7667    0.0779 H   0  0  0  0  0  0  0  0  0  0  0  0
   -1.4045   -6.2797   -1.6100 H   0  0  0  0  0  0  0  0  0  0  0  0
   -2.7887   -6.8738   -0.6818 H   0  0  0  0  0  0  0  0  0  0  0  0
   -3.1149   -3.9332    1.6390 H   0  0  0  0  0  0  0  0  0  0  0  0
   -2.1757   -5.3893    1.9405 H   0  0  0  0  0  0  0  0  0  0  0  0
   -3.7645   -5.5018    1.1810 H   0  0  0  0  0  0  0  0  0  0  0  0
    7.1234    0.6820   -3.3264 H   0  0  0  0  0  0  0  0  0  0  0  0
   -3.3645    1.8469    0.2575 H   0  0  0  0  0  0  0  0  0  0  0  0
   -5.4589    1.3713   -1.9348 H   0  0  0  0  0  0  0  0  0  0  0  0
   -4.8347    4.0543   -0.5850 H   0  0  0  0  0  0  0  0  0  0  0  0
   -4.9276    2.7103    1.8222 H   0  0  0  0  0  0  0  0  0  0  0  0
   -7.3331    2.3560   -0.0798 H   0  0  0  0  0  0  0  0  0  0  0  0
   -3.1301    2.9908   -1.7470 H   0  0  0  0  0  0  0  0  0  0  0  0
   -7.1312    2.5169    2.9887 H   0  0  0  0  0  0  0  0  0  0  0  0
   -7.4561    1.0098    2.0873 H   0  0  0  0  0  0  0  0  0  0  0  0
   -6.9522    3.1003   -2.2162 H   0  0  0  0  0  0  0  0  0  0  0  0
   -6.2097    4.6277    1.2159 H   0  0  0  0  0  0  0  0  0  0  0  0
   -6.5415    0.6397    4.1230 H   0  0  0  0  0  0  0  0  0  0  0  0
  1 27  1  0  0  0  0
  1 85  1  0  0  0  0
  2 28  1  0  0  0  0
  2 86  1  0  0  0  0
  3 35  1  0  0  0  0
  3 93  1  0  0  0  0
  4 38  1  0  0  0  0
  4 41  1  0  0  0  0
  5 38  2  0  0  0  0
  6 41  1  0  0  0  0
  6 44  1  0  0  0  0
  7 42  1  0  0  0  0
  7 99  1  0  0  0  0
  8 43  1  0  0  0  0
  8102  1  0  0  0  0
  9 45  1  0  0  0  0
  9103  1  0  0  0  0
 10 46  1  0  0  0  0
 10104  1  0  0  0  0
 11 12  1  0  0  0  0
 11 14  1  0  0  0  0
 11 16  1  0  0  0  0
 11 25  1  0  0  0  0
 12 13  1  0  0  0  0
 12 21  1  0  0  0  0
 12 47  1  0  0  0  0
 13 15  1  0  0  0  0
 13 22  1  0  0  0  0
 13 29  1  0  0  0  0
 14 19  1  0  0  0  0
 14 23  1  0  0  0  0
 14 31  1  0  0  0  0
 15 17  1  0  0  0  0
 15 18  1  0  0  0  0
 15 48  1  0  0  0  0
 16 17  1  0  0  0  0
 16 49  1  0  0  0  0
 16 50  1  0  0  0  0
 17 51  1  0  0  0  0
 17 52  1  0  0  0  0
 18 27  1  0  0  0  0
 18 35  1  0  0  0  0
 18 36  1  0  0  0  0
 19 20  1  0  0  0  0
 19 30  2  0  0  0  0
 20 24  1  0  0  0  0
 20 32  1  0  0  0  0
 20 53  1  0  0  0  0
 21 30  1  0  0  0  0
 21 54  1  0  0  0  0
 21 55  1  0  0  0  0
 22 28  1  0  0  0  0
 22 56  1  0  0  0  0
 22 57  1  0  0  0  0
 23 26  1  0  0  0  0
 23 58  1  0  0  0  0
 23 59  1  0  0  0  0
 24 26  1  0  0  0  0
 24 33  1  0  0  0  0
 24 38  1  0  0  0  0
 25 60  1  0  0  0  0
 25 61  1  0  0  0  0
 25 62  1  0  0  0  0
 26 63  1  0  0  0  0
 26 64  1  0  0  0  0
 27 28  1  0  0  0  0
 27 65  1  0  0  0  0
 28 66  1  0  0  0  0
 29 67  1  0  0  0  0
 29 68  1  0  0  0  0
 29 69  1  0  0  0  0
 30 70  1  0  0  0  0
 31 71  1  0  0  0  0
 31 72  1  0  0  0  0
 31 73  1  0  0  0  0
 32 34  1  0  0  0  0
 32 74  1  0  0  0  0
 32 75  1  0  0  0  0
 33 37  1  0  0  0  0
 33 76  1  0  0  0  0
 33 77  1  0  0  0  0
 34 37  1  0  0  0  0
 34 39  1  0  0  0  0
 34 40  1  0  0  0  0
 35 78  1  0  0  0  0
 35 79  1  0  0  0  0
 36 80  1  0  0  0  0
 36 81  1  0  0  0  0
 36 82  1  0  0  0  0
 37 83  1  0  0  0  0
 37 84  1  0  0  0  0
 39 88  1  0  0  0  0
 39 89  1  0  0  0  0
 39 90  1  0  0  0  0
 40 87  1  0  0  0  0
 40 91  1  0  0  0  0
 40 92  1  0  0  0  0
 41 42  1  0  0  0  0
 41 94  1  0  0  0  0
 42 43  1  0  0  0  0
 42 95  1  0  0  0  0
 43 45  1  0  0  0  0
 43 96  1  0  0  0  0
 44 45  1  0  0  0  0
 44 46  1  0  0  0  0
 44 97  1  0  0  0  0
 45 98  1  0  0  0  0
 46100  1  0  0  0  0
 46101  1  0  0  0  0
M  END
> <PUBCHEM_COMPOUND_CID>
52951052

> <PUBCHEM_CONFORMER_RMSD>
1.2

> <PUBCHEM_CONFORMER_DIVERSEORDER>
1
11
5
10
12
6
7
3
9
8
2
4

> <PUBCHEM_MMFF94_PARTIAL_CHARGES>
34
1 -0.68
10 -0.68
102 0.4
103 0.4
104 0.4
14 0.14
19 -0.28
2 -0.68
20 0.14
21 0.14
24 0.06
27 0.28
28 0.28
3 -0.68
30 -0.29
35 0.28
38 0.66
4 -0.43
41 0.56
42 0.28
43 0.28
44 0.28
45 0.28
46 0.28
5 -0.57
6 -0.56
7 -0.68
70 0.15
8 -0.68
85 0.4
86 0.4
9 -0.68
93 0.4
99 0.4

> <PUBCHEM_EFFECTIVE_ROTOR_COUNT>
8.8

> <PUBCHEM_PHARMACOPHORE_FEATURES>
23
1 1 acceptor
1 1 donor
1 10 acceptor
1 10 donor
1 2 acceptor
1 2 donor
1 3 acceptor
1 3 donor
1 5 acceptor
1 6 acceptor
1 7 acceptor
1 7 donor
1 8 acceptor
1 8 donor
1 9 acceptor
1 9 donor
3 34 39 40 hydrophobe
6 11 12 13 15 16 17 rings
6 11 12 14 19 21 30 rings
6 13 15 18 22 27 28 rings
6 14 19 20 23 24 26 rings
6 20 24 32 33 34 37 rings
6 6 41 42 43 44 45 rings

> <PUBCHEM_HEAVY_ATOM_COUNT>
46

> <PUBCHEM_ATOM_DEF_STEREO_COUNT>
15

> <PUBCHEM_ATOM_UDEF_STEREO_COUNT>
0

> <PUBCHEM_BOND_DEF_STEREO_COUNT>
0

> <PUBCHEM_BOND_UDEF_STEREO_COUNT>
0

> <PUBCHEM_ISOTOPIC_ATOM_COUNT>
0

> <PUBCHEM_COMPONENT_COUNT>
1

> <PUBCHEM_CACTVS_TAUTO_COUNT>
1

> <PUBCHEM_CONFORMER_ID>
0327F80C00000001

> <PUBCHEM_MMFF94_ENERGY>
188.1003

> <PUBCHEM_FEATURE_SELFOVERLAP>
116.838

> <PUBCHEM_SHAPE_FINGERPRINT>
10675989 125 17982737376671072863
11007060 377 18412261753355170383
11475781 23 17775281665056616024
11578080 2 18271260368829201486
11763715 3 17540827517228704215
11991303 11 18408888451122049367
1200032 147 17274269340378942051
12013929 112 18338809901686000102
12107183 9 18261096449482993786
12788726 201 18267851960878588143
12988421 55 18339924814755236197
13782708 43 17700981200463604342
14068700 675 17903065982359956687
14294032 229 18337400421777944971
14856354 85 18263360463909706734
15439362 3 18269274565030104302
15448158 71 18262796264336475449
15484559 13 14896439010976334930
15890870 6 18338790122908518213
16990350 14 17908989798775557529
18393751 57 18335986368547475901
21033648 29 18337400335910195813
21772528 278 17844553087902630265
21814621 53 18131349765648436282
23522609 53 17822867493251344220
255183 313 18261112976348266053
3418910 222 17541665353652792580
3552219 110 17533216608016696343
3610482 184 17823148968053721582
4058900 60 18198629839465526665
4144715 1 18268149941102587986
42767 28 13470397856020720493
44880568 143 18194976351864846204
504843 32 18411135849064345675
508180 173 15769773542171526019
6009941 240 18202002149313158662
6058803 2 17970064663663745982
6086070 43 16558455470769618030
6691757 9 18411975884221000215
6695519 79 18053696641036106003
6698420 124 17987537951901601489
6700243 42 17694257694805870910
9555976 147 18263923409778962214
9896288 288 18335144253872536115

> <PUBCHEM_SHAPE_MULTIPOLES>
887.97
19.75
6.17
2.34
15.64
7.57
-0.51
-24.03
-4.98
-13.47
0.9
-0.4
-0.86
-1.45

> <PUBCHEM_SHAPE_SELFOVERLAP>
1886.77

> <PUBCHEM_SHAPE_VOLUME>
486.9

> <PUBCHEM_COORDINATE_TYPE>
2
5
10

$$$$
