44567150
  -OEChem-11212012473D

105110  0     1  0  0  0  0  0999 V2000
   -3.6111    2.9442    0.4132 O   0  0  0  0  0  0  0  0  0  0  0  0
   -7.3340    1.2587   -2.1221 O   0  0  0  0  0  0  0  0  0  0  0  0
   -6.9635   -1.6725   -0.0096 O   0  0  0  0  0  0  0  0  0  0  0  0
   -8.4134    1.7643    1.3977 O   0  0  0  0  0  0  0  0  0  0  0  0
    3.8233    0.1579    0.8054 O   0  0  0  0  0  0  0  0  0  0  0  0
    2.5966   -0.2193   -1.1155 O   0  0  0  0  0  0  0  0  0  0  0  0
    5.5677    0.6138   -0.6755 O   0  0  0  0  0  0  0  0  0  0  0  0
    4.1172    2.7450    1.9137 O   0  0  0  0  0  0  0  0  0  0  0  0
    6.8672    3.7611    1.6208 O   0  0  0  0  0  0  0  0  0  0  0  0
    7.7474    3.5229   -1.1223 O   0  0  0  0  0  0  0  0  0  0  0  0
    6.5221    0.0392   -3.1882 O   0  0  0  0  0  0  0  0  0  0  0  0
   -1.9015    0.3319    0.3715 C   0  0  2  0  0  0  0  0  0  0  0  0
   -2.8940   -0.4540   -0.5668 C   0  0  1  0  0  0  0  0  0  0  0  0
   -4.2805    0.2357   -0.9669 C   0  0  2  0  0  0  0  0  0  0  0  0
   -0.7942   -0.7319    0.9540 C   0  0  1  0  0  0  0  0  0  0  0  0
   -4.9248    0.8446    0.3265 C   0  0  1  0  0  0  0  0  0  0  0  0
   -2.6967    0.9975    1.5315 C   0  0  0  0  0  0  0  0  0  0  0  0
   -3.9578    1.7642    1.1171 C   0  0  1  0  0  0  0  0  0  0  0  0
   -6.3990    1.4028    0.1660 C   0  0  1  0  0  0  0  0  0  0  0  0
   -0.1950   -1.5728   -0.1881 C   0  0  0  0  0  0  0  0  0  0  0  0
   -5.2219   -0.8988   -1.5297 C   0  0  0  0  0  0  0  0  0  0  0  0
   -2.1248   -1.0650   -1.7566 C   0  0  0  0  0  0  0  0  0  0  0  0
    1.1538   -2.2760   -0.0123 C   0  0  1  0  0  0  0  0  0  0  0  0
    0.3404    0.0274    1.7032 C   0  0  0  0  0  0  0  0  0  0  0  0
    2.1839   -1.5290    0.8811 C   0  0  1  0  0  0  0  0  0  0  0  0
   -1.1547    1.4498   -0.4179 C   0  0  0  0  0  0  0  0  0  0  0  0
   -7.2341    0.5760   -0.8716 C   0  0  2  0  0  0  0  0  0  0  0  0
    1.5304   -0.8484    2.0971 C   0  0  0  0  0  0  0  0  0  0  0  0
   -6.7042   -0.8322   -1.1336 C   0  0  2  0  0  0  0  0  0  0  0  0
   -4.1204    1.2709   -2.1062 C   0  0  0  0  0  0  0  0  0  0  0  0
   -0.8177   -1.6922   -1.3784 C   0  0  0  0  0  0  0  0  0  0  0  0
   -1.4331   -1.7257    1.9694 C   0  0  0  0  0  0  0  0  0  0  0  0
    1.0064   -3.7444    0.4368 C   0  0  0  0  0  0  0  0  0  0  0  0
    3.3054   -2.4776    1.3868 C   0  0  0  0  0  0  0  0  0  0  0  0
    2.3255   -4.5437    0.2499 C   0  0  0  0  0  0  0  0  0  0  0  0
   -7.1108    1.2573    1.5452 C   0  0  0  0  0  0  0  0  0  0  0  0
   -6.4603    2.9094   -0.1726 C   0  0  0  0  0  0  0  0  0  0  0  0
    3.5667   -3.6316    0.4183 C   0  0  0  0  0  0  0  0  0  0  0  0
    2.8723   -0.4636    0.0513 C   0  0  0  0  0  0  0  0  0  0  0  0
    2.3645   -5.6826    1.2876 C   0  0  0  0  0  0  0  0  0  0  0  0
    2.3629   -5.1797   -1.1529 C   0  0  0  0  0  0  0  0  0  0  0  0
    4.5529    1.1904    0.1432 C   0  0  2  0  0  0  0  0  0  0  0  0
    5.1735    2.0886    1.2131 C   0  0  1  0  0  0  0  0  0  0  0  0
    6.0981    3.1359    0.5921 C   0  0  2  0  0  0  0  0  0  0  0  0
    6.3211    1.5966   -1.3880 C   0  0  1  0  0  0  0  0  0  0  0  0
    7.0683    2.4975   -0.4020 C   0  0  1  0  0  0  0  0  0  0  0  0
    7.2800    0.8573   -2.3158 C   0  0  0  0  0  0  0  0  0  0  0  0
   -3.2208   -1.3120    0.0345 H   0  0  0  0  0  0  0  0  0  0  0  0
   -5.0453   -0.0303    0.9877 H   0  0  0  0  0  0  0  0  0  0  0  0
   -2.0354    1.6708    2.0905 H   0  0  0  0  0  0  0  0  0  0  0  0
   -3.0354    0.2370    2.2404 H   0  0  0  0  0  0  0  0  0  0  0  0
   -4.4499    2.0924    2.0388 H   0  0  0  0  0  0  0  0  0  0  0  0
   -4.8473   -1.8849   -1.2285 H   0  0  0  0  0  0  0  0  0  0  0  0
   -5.1611   -0.8940   -2.6267 H   0  0  0  0  0  0  0  0  0  0  0  0
   -2.7390   -1.8312   -2.2424 H   0  0  0  0  0  0  0  0  0  0  0  0
   -1.9021   -0.3097   -2.5162 H   0  0  0  0  0  0  0  0  0  0  0  0
    1.5850   -2.3431   -1.0227 H   0  0  0  0  0  0  0  0  0  0  0  0
    0.7394    0.8460    1.0973 H   0  0  0  0  0  0  0  0  0  0  0  0
   -0.0601    0.4932    2.6120 H   0  0  0  0  0  0  0  0  0  0  0  0
   -1.8020    2.0206   -1.0760 H   0  0  0  0  0  0  0  0  0  0  0  0
   -0.7000    2.1815    0.2595 H   0  0  0  0  0  0  0  0  0  0  0  0
   -0.3534    1.0550   -1.0502 H   0  0  0  0  0  0  0  0  0  0  0  0
   -8.2689    0.4753   -0.5257 H   0  0  0  0  0  0  0  0  0  0  0  0
    1.2022   -1.6030    2.8214 H   0  0  0  0  0  0  0  0  0  0  0  0
    2.2524   -0.2256    2.6408 H   0  0  0  0  0  0  0  0  0  0  0  0
   -7.2772   -1.2719   -1.9603 H   0  0  0  0  0  0  0  0  0  0  0  0
   -3.5666    0.8639   -2.9565 H   0  0  0  0  0  0  0  0  0  0  0  0
   -5.0796    1.5780   -2.5218 H   0  0  0  0  0  0  0  0  0  0  0  0
   -3.6265    2.1905   -1.8053 H   0  0  0  0  0  0  0  0  0  0  0  0
   -0.3506   -2.2814   -2.1653 H   0  0  0  0  0  0  0  0  0  0  0  0
   -0.7343   -2.4976    2.2969 H   0  0  0  0  0  0  0  0  0  0  0  0
   -2.2943   -2.2602    1.5613 H   0  0  0  0  0  0  0  0  0  0  0  0
   -1.7497   -1.2222    2.8881 H   0  0  0  0  0  0  0  0  0  0  0  0
    0.1901   -4.2386   -0.1058 H   0  0  0  0  0  0  0  0  0  0  0  0
    0.7207   -3.7713    1.4941 H   0  0  0  0  0  0  0  0  0  0  0  0
    3.0198   -2.9100    2.3550 H   0  0  0  0  0  0  0  0  0  0  0  0
    4.2547   -1.9640    1.5750 H   0  0  0  0  0  0  0  0  0  0  0  0
   -7.1720    0.2115    1.8625 H   0  0  0  0  0  0  0  0  0  0  0  0
   -6.6068    1.8274    2.3310 H   0  0  0  0  0  0  0  0  0  0  0  0
   -6.1067    3.5284    0.6592 H   0  0  0  0  0  0  0  0  0  0  0  0
   -5.8559    3.1580   -1.0488 H   0  0  0  0  0  0  0  0  0  0  0  0
   -7.4835    3.2367   -0.3927 H   0  0  0  0  0  0  0  0  0  0  0  0
    3.8691   -3.2094   -0.5491 H   0  0  0  0  0  0  0  0  0  0  0  0
    4.4249   -4.2178    0.7698 H   0  0  0  0  0  0  0  0  0  0  0  0
   -3.0236    3.4688    0.9832 H   0  0  0  0  0  0  0  0  0  0  0  0
   -7.9200    0.7404   -2.6994 H   0  0  0  0  0  0  0  0  0  0  0  0
   -6.6988   -2.5771   -0.2485 H   0  0  0  0  0  0  0  0  0  0  0  0
    3.2565   -6.3063    1.1595 H   0  0  0  0  0  0  0  0  0  0  0  0
    2.3785   -5.2910    2.3106 H   0  0  0  0  0  0  0  0  0  0  0  0
    1.4877   -6.3330    1.1917 H   0  0  0  0  0  0  0  0  0  0  0  0
    2.3040   -4.4201   -1.9398 H   0  0  0  0  0  0  0  0  0  0  0  0
    3.2899   -5.7443   -1.3046 H   0  0  0  0  0  0  0  0  0  0  0  0
    1.5253   -5.8714   -1.2976 H   0  0  0  0  0  0  0  0  0  0  0  0
   -8.8602    1.6710    2.2561 H   0  0  0  0  0  0  0  0  0  0  0  0
    3.8630    1.7797   -0.4773 H   0  0  0  0  0  0  0  0  0  0  0  0
    5.7160    1.4864    1.9515 H   0  0  0  0  0  0  0  0  0  0  0  0
    5.5196    3.9357    0.1150 H   0  0  0  0  0  0  0  0  0  0  0  0
    5.6301    2.1811   -2.0108 H   0  0  0  0  0  0  0  0  0  0  0  0
    7.8275    1.9222    0.1418 H   0  0  0  0  0  0  0  0  0  0  0  0
    3.6197    3.2830    1.2744 H   0  0  0  0  0  0  0  0  0  0  0  0
    7.9497    0.2052   -1.7452 H   0  0  0  0  0  0  0  0  0  0  0  0
    7.8756    1.5527   -2.9149 H   0  0  0  0  0  0  0  0  0  0  0  0
    7.3803    3.0719    2.0762 H   0  0  0  0  0  0  0  0  0  0  0  0
    7.0837    4.0310   -1.6192 H   0  0  0  0  0  0  0  0  0  0  0  0
    7.1517   -0.4247   -3.7660 H   0  0  0  0  0  0  0  0  0  0  0  0
  1 18  1  0  0  0  0
  1 85  1  0  0  0  0
  2 27  1  0  0  0  0
  2 86  1  0  0  0  0
  3 29  1  0  0  0  0
  3 87  1  0  0  0  0
  4 36  1  0  0  0  0
  4 94  1  0  0  0  0
  5 39  1  0  0  0  0
  5 42  1  0  0  0  0
  6 39  2  0  0  0  0
  7 42  1  0  0  0  0
  7 45  1  0  0  0  0
  8 43  1  0  0  0  0
  8100  1  0  0  0  0
  9 44  1  0  0  0  0
  9103  1  0  0  0  0
 10 46  1  0  0  0  0
 10104  1  0  0  0  0
 11 47  1  0  0  0  0
 11105  1  0  0  0  0
 12 13  1  0  0  0  0
 12 15  1  0  0  0  0
 12 17  1  0  0  0  0
 12 26  1  0  0  0  0
 13 14  1  0  0  0  0
 13 22  1  0  0  0  0
 13 48  1  0  0  0  0
 14 16  1  0  0  0  0
 14 21  1  0  0  0  0
 14 30  1  0  0  0  0
 15 20  1  0  0  0  0
 15 24  1  0  0  0  0
 15 32  1  0  0  0  0
 16 18  1  0  0  0  0
 16 19  1  0  0  0  0
 16 49  1  0  0  0  0
 17 18  1  0  0  0  0
 17 50  1  0  0  0  0
 17 51  1  0  0  0  0
 18 52  1  0  0  0  0
 19 27  1  0  0  0  0
 19 36  1  0  0  0  0
 19 37  1  0  0  0  0
 20 23  1  0  0  0  0
 20 31  2  0  0  0  0
 21 29  1  0  0  0  0
 21 53  1  0  0  0  0
 21 54  1  0  0  0  0
 22 31  1  0  0  0  0
 22 55  1  0  0  0  0
 22 56  1  0  0  0  0
 23 25  1  0  0  0  0
 23 33  1  0  0  0  0
 23 57  1  0  0  0  0
 24 28  1  0  0  0  0
 24 58  1  0  0  0  0
 24 59  1  0  0  0  0
 25 28  1  0  0  0  0
 25 34  1  0  0  0  0
 25 39  1  0  0  0  0
 26 60  1  0  0  0  0
 26 61  1  0  0  0  0
 26 62  1  0  0  0  0
 27 29  1  0  0  0  0
 27 63  1  0  0  0  0
 28 64  1  0  0  0  0
 28 65  1  0  0  0  0
 29 66  1  0  0  0  0
 30 67  1  0  0  0  0
 30 68  1  0  0  0  0
 30 69  1  0  0  0  0
 31 70  1  0  0  0  0
 32 71  1  0  0  0  0
 32 72  1  0  0  0  0
 32 73  1  0  0  0  0
 33 35  1  0  0  0  0
 33 74  1  0  0  0  0
 33 75  1  0  0  0  0
 34 38  1  0  0  0  0
 34 76  1  0  0  0  0
 34 77  1  0  0  0  0
 35 38  1  0  0  0  0
 35 40  1  0  0  0  0
 35 41  1  0  0  0  0
 36 78  1  0  0  0  0
 36 79  1  0  0  0  0
 37 80  1  0  0  0  0
 37 81  1  0  0  0  0
 37 82  1  0  0  0  0
 38 83  1  0  0  0  0
 38 84  1  0  0  0  0
 40 88  1  0  0  0  0
 40 89  1  0  0  0  0
 40 90  1  0  0  0  0
 41 91  1  0  0  0  0
 41 92  1  0  0  0  0
 41 93  1  0  0  0  0
 42 43  1  0  0  0  0
 42 95  1  0  0  0  0
 43 44  1  0  0  0  0
 43 96  1  0  0  0  0
 44 46  1  0  0  0  0
 44 97  1  0  0  0  0
 45 46  1  0  0  0  0
 45 47  1  0  0  0  0
 45 98  1  0  0  0  0
 46 99  1  0  0  0  0
 47101  1  0  0  0  0
 47102  1  0  0  0  0
M  END
> <PUBCHEM_COMPOUND_CID>
44567150

> <PUBCHEM_CONFORMER_RMSD>
1.2

> <PUBCHEM_CONFORMER_DIVERSEORDER>
1
7
17
6
21
4
3
9
20
14
16
22
11
5
18
19
13
12
15
10
8
2

> <PUBCHEM_MMFF94_PARTIAL_CHARGES>
37
1 -0.68
10 -0.68
100 0.4
103 0.4
104 0.4
105 0.4
11 -0.68
15 0.14
18 0.28
2 -0.68
20 -0.28
22 0.14
23 0.14
25 0.06
27 0.28
29 0.28
3 -0.68
31 -0.29
36 0.28
39 0.66
4 -0.68
42 0.56
43 0.28
44 0.28
45 0.28
46 0.28
47 0.28
5 -0.43
6 -0.57
7 -0.56
70 0.15
8 -0.68
85 0.4
86 0.4
87 0.4
9 -0.68
94 0.4

> <PUBCHEM_EFFECTIVE_ROTOR_COUNT>
8.8

> <PUBCHEM_PHARMACOPHORE_FEATURES>
25
1 1 acceptor
1 1 donor
1 10 acceptor
1 10 donor
1 11 acceptor
1 11 donor
1 2 acceptor
1 2 donor
1 3 acceptor
1 3 donor
1 4 acceptor
1 4 donor
1 6 acceptor
1 7 acceptor
1 8 acceptor
1 8 donor
1 9 acceptor
1 9 donor
3 35 40 41 hydrophobe
6 12 13 14 16 17 18 rings
6 12 13 15 20 22 31 rings
6 14 16 19 21 27 29 rings
6 15 20 23 24 25 28 rings
6 23 25 33 34 35 38 rings
6 7 42 43 44 45 46 rings

> <PUBCHEM_HEAVY_ATOM_COUNT>
47

> <PUBCHEM_ATOM_DEF_STEREO_COUNT>
16

> <PUBCHEM_ATOM_UDEF_STEREO_COUNT>
0

> <PUBCHEM_BOND_DEF_STEREO_COUNT>
0

> <PUBCHEM_BOND_UDEF_STEREO_COUNT>
0

> <PUBCHEM_ISOTOPIC_ATOM_COUNT>
0

> <PUBCHEM_COMPONENT_COUNT>
1

> <PUBCHEM_CACTVS_TAUTO_COUNT>
1

> <PUBCHEM_CONFORMER_ID>
02A80A6E00000001

> <PUBCHEM_MMFF94_ENERGY>
210.378

> <PUBCHEM_FEATURE_SELFOVERLAP>
126.971

> <PUBCHEM_SHAPE_FINGERPRINT>
10554248 39 17985246497140221279
10673678 19 18408601470372168762
10721379 63 18269558235204763766
11062273 23 17827922055426049106
11135609 187 18337944675422306745
11181472 205 18128818530983908297
11445158 3 18053928568247203798
11505856 67 17174360270891294862
11578080 2 18187374224272875322
1200032 147 18260824930356188904
12440610 7 17968106321179736274
12522641 126 18337668620884740702
13726171 33 17703796942193316307
13782708 43 11599999973078509993
14394314 77 18341615910984610417
14664723 55 18042138690711473964
15064981 194 17829055647666154636
15082195 135 18341329990357669010
15131766 46 18340475717220443061
15183329 4 17346887749407937784
15198563 99 17621318370079464086
15276724 80 18340199675630634333
15439362 3 18411135853971041270
15685185 35 18192151710112849244
16993427 108 11095622043735975796
16994733 274 18259696801124643857
18365409 1 18123750017811798046
18393751 57 17022902371564092753
19304144 158 18041542694677978445
19304671 126 17989211460577111700
19319366 153 18270666632650383306
21033648 29 18336547248353066672
23522609 53 17775013332711577913
24771293 8 18114178657681236245
27425 322 18269272538406661316
3918712 181 18337665434235531664
3986486 107 18060150864375116380
4073 2 18335139791828393779
4098825 35 17561372776661801692
44317340 157 18263923242232604369
4516262 110 18409722963231122556
6057620 51 18339912823280879895
6697151 62 17467602937590174679

> <PUBCHEM_SHAPE_MULTIPOLES>
902.68
21.95
5.5
2.15
8.12
6.3
-0.59
-23.65
-6.22
-10.57
1.17
-1.02
-0.34
-1.14

> <PUBCHEM_SHAPE_SELFOVERLAP>
1917.182

> <PUBCHEM_SHAPE_VOLUME>
493.8

> <PUBCHEM_COORDINATE_TYPE>
2
5
10

$$$$
