102193746
  -OEChem-11212012202D

104110  0     1  0  0  0  0  0999 V2000
    7.0649   -0.0604    0.0000 O   0  0  0  0  0  0  0  0  0  0  0  0
    8.9654   -1.5784    0.0000 O   0  0  0  0  0  0  0  0  0  0  0  0
    9.4313    0.9607    0.0000 O   0  0  0  0  0  0  0  0  0  0  0  0
    9.3324    1.5084    0.0000 O   0  0  0  0  0  0  0  0  0  0  0  0
    6.6525    1.1422    0.0000 O   0  0  0  0  0  0  0  0  0  0  0  0
   11.8238   -4.7148    0.0000 O   0  0  0  0  0  0  0  0  0  0  0  0
    5.8264   -0.0052    0.0000 O   0  0  0  0  0  0  0  0  0  0  0  0
   10.4654   -0.7123    0.0000 O   0  0  0  0  0  0  0  0  0  0  0  0
    9.9444   -5.3988    0.0000 O   0  0  0  0  0  0  0  0  0  0  0  0
   11.5627   -1.0828    0.0000 O   0  0  0  0  0  0  0  0  0  0  0  0
    9.3521   -3.7713    0.0000 O   0  0  0  0  0  0  0  0  0  0  0  0
   13.5296   -5.0156    0.0000 O   0  0  0  0  0  0  0  0  0  0  0  0
    8.4654   -4.1764    0.0000 O   0  0  0  0  0  0  0  0  0  0  0  0
   10.0385    2.4266    0.0000 O   0  0  0  0  0  0  0  0  0  0  0  0
   13.4821   -0.3674    0.0000 O   0  0  0  0  0  0  0  0  0  0  0  0
    8.4654   -2.4444    0.0000 O   0  0  0  0  0  0  0  0  0  0  0  0
   15.0511   -1.6840    0.0000 O   0  0  0  0  0  0  0  0  0  0  0  0
    6.0601   -0.4854    0.0000 O   0  0  0  0  0  0  0  0  0  0  0  0
    4.5676    0.9607    0.0000 O   0  0  0  0  0  0  0  0  0  0  0  0
    6.3033    4.3065    0.0000 O   0  0  0  0  0  0  0  0  0  0  0  0
    6.8625    4.4564    0.0000 O   0  0  0  0  0  0  0  0  0  0  0  0
    9.6612    5.0714    0.0000 O   0  0  0  0  0  0  0  0  0  0  0  0
    7.6827    5.6015    0.0000 O   0  0  0  0  0  0  0  0  0  0  0  0
    5.0204    4.8882    0.0000 O   0  0  0  0  0  0  0  0  0  0  0  0
    3.5720    3.4398    0.0000 O   0  0  0  0  0  0  0  0  0  0  0  0
    4.7018   -2.7559    0.0000 O   0  0  0  0  0  0  0  0  0  0  0  0
    2.4749   -0.1022    0.0000 O   0  0  0  0  0  0  0  0  0  0  0  0
    2.8223   -2.0718    0.0000 O   0  0  0  0  0  0  0  0  0  0  0  0
    8.4654   -0.7123    0.0000 C   0  0  1  0  0  0  0  0  0  0  0  0
    9.1725   -0.0052    0.0000 C   0  0  1  0  0  0  0  0  0  0  0  0
    7.4995   -0.9712    0.0000 C   0  0  1  0  0  0  0  0  0  0  0  0
    8.6010    0.8265    0.0000 C   0  0  2  0  0  0  0  0  0  0  0  0
   11.2314   -3.0872    0.0000 C   0  0  3  0  0  0  0  0  0  0  0  0
   10.4654   -2.4444    0.0000 C   0  0  3  0  0  0  0  0  0  0  0  0
    7.5922    0.8001    0.0000 C   0  0  1  0  0  0  0  0  0  0  0  0
   11.0578   -4.0720    0.0000 C   0  0  1  0  0  0  0  0  0  0  0  0
    6.5335   -0.7123    0.0000 C   0  0  0  0  0  0  0  0  0  0  0  0
    9.9654   -1.5784    0.0000 C   0  0  0  0  0  0  0  0  0  0  0  0
   12.1711   -2.7452    0.0000 C   0  0  0  0  0  0  0  0  0  0  0  0
    9.9654   -3.3104    0.0000 C   0  0  0  0  0  0  0  0  0  0  0  0
   12.9372   -3.3880    0.0000 C   0  0  0  0  0  0  0  0  0  0  0  0
   12.3362   -1.7167    0.0000 C   0  0  0  0  0  0  0  0  0  0  0  0
   10.1181   -4.4140    0.0000 C   0  0  0  0  0  0  0  0  0  0  0  0
   12.7635   -4.3728    0.0000 C   0  0  0  0  0  0  0  0  0  0  0  0
    9.1725    1.9266    0.0000 C   0  0  0  0  0  0  0  0  0  0  0  0
    8.9654   -3.3104    0.0000 C   0  0  0  0  0  0  0  0  0  0  0  0
   13.9214   -3.0468    0.0000 C   0  0  0  0  0  0  0  0  0  0  0  0
   13.3122   -1.3529    0.0000 C   0  0  0  0  0  0  0  0  0  0  0  0
   14.1101   -2.0224    0.0000 C   0  0  0  0  0  0  0  0  0  0  0  0
    8.4654    2.6337    0.0000 C   0  0  0  0  0  0  0  0  0  0  0  0
    5.8864    0.4994    0.0000 C   0  0  0  0  0  0  0  0  0  0  0  0
    5.5676    0.9607    0.0000 C   0  0  0  0  0  0  0  0  0  0  0  0
    7.4995    2.8925    0.0000 C   0  0  0  0  0  0  0  0  0  0  0  0
    5.8264    1.9266    0.0000 C   0  0  0  0  0  0  0  0  0  0  0  0
    6.5335    2.6337    0.0000 C   0  0  0  0  0  0  0  0  0  0  0  0
    5.1204   -0.1434    0.0000 C   0  0  0  0  0  0  0  0  0  0  0  0
    9.2132    3.3588    0.0000 C   0  0  0  0  0  0  0  0  0  0  0  0
    7.2144    3.8944    0.0000 C   0  0  0  0  0  0  0  0  0  0  0  0
    6.2795    3.6439    0.0000 C   0  0  0  0  0  0  0  0  0  0  0  0
    4.8163    2.1807    0.0000 C   0  0  0  0  0  0  0  0  0  0  0  0
   10.7105   -6.0416    0.0000 C   0  0  0  0  0  0  0  0  0  0  0  0
    8.9514    4.3670    0.0000 C   0  0  0  0  0  0  0  0  0  0  0  0
    7.9452    4.6366    0.0000 C   0  0  0  0  0  0  0  0  0  0  0  0
    4.1807    0.1986    0.0000 C   0  0  0  0  0  0  0  0  0  0  0  0
    5.2941   -1.1282    0.0000 C   0  0  0  0  0  0  0  0  0  0  0  0
    5.2755    3.9212    0.0000 C   0  0  0  0  0  0  0  0  0  0  0  0
    4.5389    3.1847    0.0000 C   0  0  0  0  0  0  0  0  0  0  0  0
    4.5281   -1.7711    0.0000 C   0  0  0  0  0  0  0  0  0  0  0  0
    3.4147   -0.4442    0.0000 C   0  0  0  0  0  0  0  0  0  0  0  0
    3.5883   -1.4290    0.0000 C   0  0  0  0  0  0  0  0  0  0  0  0
    9.0801   -0.7933    0.0000 H   0  0  0  0  0  0  0  0  0  0  0  0
    9.6539   -0.7058    0.0000 H   0  0  0  0  0  0  0  0  0  0  0  0
    7.4995   -1.8212    0.0000 H   0  0  0  0  0  0  0  0  0  0  0  0
    8.3663    1.4003    0.0000 H   0  0  0  0  0  0  0  0  0  0  0  0
   11.3391   -2.4766    0.0000 H   0  0  0  0  0  0  0  0  0  0  0  0
    9.8454   -2.4444    0.0000 H   0  0  0  0  0  0  0  0  0  0  0  0
    7.6919    1.4120    0.0000 H   0  0  0  0  0  0  0  0  0  0  0  0
   10.9501   -4.6826    0.0000 H   0  0  0  0  0  0  0  0  0  0  0  0
    5.9716   -0.9744    0.0000 H   0  0  0  0  0  0  0  0  0  0  0  0
    6.8435   -0.1754    0.0000 H   0  0  0  0  0  0  0  0  0  0  0  0
    9.8577   -3.9210    0.0000 H   0  0  0  0  0  0  0  0  0  0  0  0
   10.5480   -3.5225    0.0000 H   0  0  0  0  0  0  0  0  0  0  0  0
    9.9253    1.3271    0.0000 H   0  0  0  0  0  0  0  0  0  0  0  0
   14.3917   -3.4508    0.0000 H   0  0  0  0  0  0  0  0  0  0  0  0
   11.6633   -0.4710    0.0000 H   0  0  0  0  0  0  0  0  0  0  0  0
    9.8102    3.1914    0.0000 H   0  0  0  0  0  0  0  0  0  0  0  0
    7.8454   -4.1764    0.0000 H   0  0  0  0  0  0  0  0  0  0  0  0
   14.0638   -0.1531    0.0000 H   0  0  0  0  0  0  0  0  0  0  0  0
    4.3830    1.7372    0.0000 H   0  0  0  0  0  0  0  0  0  0  0  0
   15.5246   -2.0844    0.0000 H   0  0  0  0  0  0  0  0  0  0  0  0
   10.3120   -6.5166    0.0000 H   0  0  0  0  0  0  0  0  0  0  0  0
   11.1854   -6.4401    0.0000 H   0  0  0  0  0  0  0  0  0  0  0  0
   11.1090   -5.5667    0.0000 H   0  0  0  0  0  0  0  0  0  0  0  0
    4.0730    0.8092    0.0000 H   0  0  0  0  0  0  0  0  0  0  0  0
    5.8768   -1.3403    0.0000 H   0  0  0  0  0  0  0  0  0  0  0  0
    6.0348    4.8654    0.0000 H   0  0  0  0  0  0  0  0  0  0  0  0
    6.8156    5.0746    0.0000 H   0  0  0  0  0  0  0  0  0  0  0  0
   10.2595    4.9086    0.0000 H   0  0  0  0  0  0  0  0  0  0  0  0
    8.1194    6.0416    0.0000 H   0  0  0  0  0  0  0  0  0  0  0  0
    4.4221    5.0509    0.0000 H   0  0  0  0  0  0  0  0  0  0  0  0
    3.1353    2.9997    0.0000 H   0  0  0  0  0  0  0  0  0  0  0  0
    4.2268   -3.1544    0.0000 H   0  0  0  0  0  0  0  0  0  0  0  0
    2.0000   -0.5007    0.0000 H   0  0  0  0  0  0  0  0  0  0  0  0
    2.9300   -2.6824    0.0000 H   0  0  0  0  0  0  0  0  0  0  0  0
  1 31  1  0  0  0  0
  1 35  1  0  0  0  0
 29  2  1  6  0  0  0
  2 38  1  0  0  0  0
  3 30  1  0  0  0  0
  3 45  1  0  0  0  0
 32  4  1  6  0  0  0
  4 83  1  0  0  0  0
 35  5  1  1  0  0  0
  5 51  1  0  0  0  0
  6 36  1  0  0  0  0
  6 44  1  0  0  0  0
  7 37  1  0  0  0  0
  7 52  1  0  0  0  0
  8 38  2  0  0  0  0
  9 43  1  0  0  0  0
  9 61  1  0  0  0  0
 10 42  1  0  0  0  0
 10 85  1  0  0  0  0
 11 43  2  0  0  0  0
 12 44  2  0  0  0  0
 13 46  1  0  0  0  0
 13 87  1  0  0  0  0
 14 45  2  0  0  0  0
 15 48  1  0  0  0  0
 15 88  1  0  0  0  0
 16 46  2  0  0  0  0
 17 49  1  0  0  0  0
 17 90  1  0  0  0  0
 18 51  2  0  0  0  0
 19 52  2  0  0  0  0
 20 58  1  0  0  0  0
 20 96  1  0  0  0  0
 21 59  1  0  0  0  0
 21 97  1  0  0  0  0
 22 62  1  0  0  0  0
 22 98  1  0  0  0  0
 23 63  1  0  0  0  0
 23 99  1  0  0  0  0
 24 66  1  0  0  0  0
 24100  1  0  0  0  0
 25 67  1  0  0  0  0
 25101  1  0  0  0  0
 26 68  1  0  0  0  0
 26102  1  0  0  0  0
 27 69  1  0  0  0  0
 27103  1  0  0  0  0
 28 70  1  0  0  0  0
 28104  1  0  0  0  0
 29 30  1  0  0  0  0
 29 31  1  0  0  0  0
 29 71  1  0  0  0  0
 30 32  1  0  0  0  0
 30 72  1  6  0  0  0
 31 37  1  0  0  0  0
 31 73  1  6  0  0  0
 32 35  1  0  0  0  0
 32 74  1  0  0  0  0
 33 34  1  0  0  0  0
 33 36  1  0  0  0  0
 33 39  1  0  0  0  0
 33 75  1  0  0  0  0
 34 38  1  0  0  0  0
 34 40  1  0  0  0  0
 34 76  1  0  0  0  0
 35 77  1  0  0  0  0
 36 43  1  6  0  0  0
 36 78  1  0  0  0  0
 37 79  1  0  0  0  0
 37 80  1  0  0  0  0
 39 41  1  0  0  0  0
 39 42  2  0  0  0  0
 40 46  1  0  0  0  0
 40 81  1  0  0  0  0
 40 82  1  0  0  0  0
 41 44  1  0  0  0  0
 41 47  2  0  0  0  0
 42 48  1  0  0  0  0
 45 50  1  0  0  0  0
 47 49  1  0  0  0  0
 47 84  1  0  0  0  0
 48 49  2  0  0  0  0
 50 53  1  0  0  0  0
 50 57  2  0  0  0  0
 51 56  1  0  0  0  0
 52 54  1  0  0  0  0
 53 55  1  0  0  0  0
 53 58  2  0  0  0  0
 54 55  1  0  0  0  0
 54 60  2  0  0  0  0
 55 59  2  0  0  0  0
 56 64  2  0  0  0  0
 56 65  1  0  0  0  0
 57 62  1  0  0  0  0
 57 86  1  0  0  0  0
 58 63  1  0  0  0  0
 59 66  1  0  0  0  0
 60 67  1  0  0  0  0
 60 89  1  0  0  0  0
 61 91  1  0  0  0  0
 61 92  1  0  0  0  0
 61 93  1  0  0  0  0
 62 63  2  0  0  0  0
 64 69  1  0  0  0  0
 64 94  1  0  0  0  0
 65 68  2  0  0  0  0
 65 95  1  0  0  0  0
 66 67  2  0  0  0  0
 68 70  1  0  0  0  0
 69 70  2  0  0  0  0
M  END
> <PUBCHEM_COMPOUND_CID>
102193746

> <PUBCHEM_COMPOUND_CANONICALIZED>
1

> <PUBCHEM_CACTVS_COMPLEXITY>
1970

> <PUBCHEM_CACTVS_HBOND_ACCEPTOR>
28

> <PUBCHEM_CACTVS_HBOND_DONOR>
14

> <PUBCHEM_CACTVS_ROTATABLE_BOND>
11

> <PUBCHEM_CACTVS_SUBSKEYS>
AAADcfB8PgAAAAAAAAAAAAAAAAAAAAAAAAA0aMGCAAAAAACRVAAAGgAACAAADRSwmAMyDoAABgCIAiDSCAICAAAkIAAAiAFGiMgZNzKCNR6icQElwBUPuYfL7vzOoAABCAAYQABAAAIQADCAAAAAAAAAAA==

> <PUBCHEM_IUPAC_OPENEYE_NAME>
4-[[(1R,19R,21S,22R,23R)-6,7,8,11,12,13,22-heptahydroxy-3,16-dioxo-21-(3,4,5-trihydroxybenzoyl)oxy-2,17,20-trioxatetracyclo[17.3.1.04,9.010,15]tricosa-4,6,8,10,12,14-hexaen-23-yl]oxy]-4-oxo-3-[(3S)-5,6,7-trihydroxy-3-methoxycarbonyl-1-oxo-isochroman-4-yl]butanoic acid

> <PUBCHEM_IUPAC_CAS_NAME>
4-[[(1R,19R,21S,22R,23R)-6,7,8,11,12,13,22-heptahydroxy-3,16-dioxo-21-[oxo-(3,4,5-trihydroxyphenyl)methoxy]-2,17,20-trioxatetracyclo[17.3.1.04,9.010,15]tricosa-4,6,8,10,12,14-hexaen-23-yl]oxy]-4-oxo-3-[(3S)-5,6,7-trihydroxy-3-methoxycarbonyl-1-oxo-3,4-dihydro-1H-2-benzopyran-4-yl]butanoic acid

> <PUBCHEM_IUPAC_NAME_MARKUP>
4-[[(1<I>R</I>,19<I>R</I>,21<I>S</I>,22<I>R</I>,23<I>R</I>)-6,7,8,11,12,13,22-heptahydroxy-3,16-dioxo-21-(3,4,5-trihydroxybenzoyl)oxy-2,17,20-trioxatetracyclo[17.3.1.0<SUP>4,9</SUP>.0<SUP>10,15</SUP>]tricosa-4,6,8,10,12,14-hexaen-23-yl]oxy]-4-oxo-3-[(3<I>S</I>)-5,6,7-trihydroxy-3-methoxycarbonyl-1-oxo-3,4-dihydroisochromen-4-yl]butanoic acid

> <PUBCHEM_IUPAC_NAME>
4-[[(1R,19R,21S,22R,23R)-6,7,8,11,12,13,22-heptahydroxy-3,16-dioxo-21-(3,4,5-trihydroxybenzoyl)oxy-2,17,20-trioxatetracyclo[17.3.1.04,9.010,15]tricosa-4,6,8,10,12,14-hexaen-23-yl]oxy]-4-oxo-3-[(3S)-5,6,7-trihydroxy-3-methoxycarbonyl-1-oxo-3,4-dihydroisochromen-4-yl]butanoic acid

> <PUBCHEM_IUPAC_SYSTEMATIC_NAME>
4-[[(1R,19R,21S,22R,23R)-6,7,8,11,12,13,22-heptakis(oxidanyl)-3,16-bis(oxidanylidene)-21-[3,4,5-tris(oxidanyl)phenyl]carbonyloxy-2,17,20-trioxatetracyclo[17.3.1.04,9.010,15]tricosa-4,6,8,10,12,14-hexaen-23-yl]oxy]-3-[(3S)-3-methoxycarbonyl-5,6,7-tris(oxidanyl)-1-oxidanylidene-3,4-dihydroisochromen-4-yl]-4-oxidanylidene-butanoic acid

> <PUBCHEM_IUPAC_TRADITIONAL_NAME>
3-[(3S)-3-carbomethoxy-5,6,7-trihydroxy-1-keto-isochroman-4-yl]-4-[[(1R,19R,21S,22R,23R)-21-galloyloxy-6,7,8,11,12,13,22-heptahydroxy-3,16-diketo-2,17,20-trioxatetracyclo[17.3.1.04,9.010,15]tricosa-4,6,8,10,12,14-hexaen-23-yl]oxy]-4-keto-butyric acid

> <PUBCHEM_IUPAC_INCHI>
InChI=1S/C42H34O28/c1-64-41(63)34-24(23-12(38(60)68-34)6-18(47)28(53)31(23)56)13(7-20(48)49)40(62)67-33-19-8-65-37(59)10-4-16(45)26(51)29(54)21(10)22-11(5-17(46)27(52)30(22)55)39(61)69-35(33)32(57)42(66-19)70-36(58)9-2-14(43)25(50)15(44)3-9/h2-6,13,19,24,32-35,42-47,50-57H,7-8H2,1H3,(H,48,49)/t13?,19-,24?,32-,33-,34+,35-,42+/m1/s1

> <PUBCHEM_IUPAC_INCHIKEY>
MSOALRYEOUDOTB-CRQHAJNRSA-N

> <PUBCHEM_XLOGP3_AA>
0.4

> <PUBCHEM_EXACT_MASS>
986.12366

> <PUBCHEM_MOLECULAR_FORMULA>
C42H34O28

> <PUBCHEM_MOLECULAR_WEIGHT>
986.7

> <PUBCHEM_OPENEYE_CAN_SMILES>
COC(=O)C1C(C2=C(C(=C(C=C2C(=O)O1)O)O)O)C(CC(=O)O)C(=O)OC3C4COC(=O)C5=CC(=C(C(=C5C6=C(C(=C(C=C6C(=O)OC3C(C(O4)OC(=O)C7=CC(=C(C(=C7)O)O)O)O)O)O)O)O)O)O

> <PUBCHEM_OPENEYE_ISO_SMILES>
COC(=O)[C@@H]1C(C2=C(C(=C(C=C2C(=O)O1)O)O)O)C(CC(=O)O)C(=O)O[C@@H]3[C@H]4COC(=O)C5=CC(=C(C(=C5C6=C(C(=C(C=C6C(=O)O[C@@H]3[C@H]([C@@H](O4)OC(=O)C7=CC(=C(C(=C7)O)O)O)O)O)O)O)O)O)O

> <PUBCHEM_CACTVS_TPSA>
467

> <PUBCHEM_MONOISOTOPIC_WEIGHT>
986.12366

> <PUBCHEM_TOTAL_CHARGE>
0

> <PUBCHEM_HEAVY_ATOM_COUNT>
70

> <PUBCHEM_ATOM_DEF_STEREO_COUNT>
6

> <PUBCHEM_ATOM_UDEF_STEREO_COUNT>
2

> <PUBCHEM_BOND_DEF_STEREO_COUNT>
0

> <PUBCHEM_BOND_UDEF_STEREO_COUNT>
0

> <PUBCHEM_ISOTOPIC_ATOM_COUNT>
0

> <PUBCHEM_COMPONENT_COUNT>
1

> <PUBCHEM_CACTVS_TAUTO_COUNT>
-1

> <PUBCHEM_COORDINATE_TYPE>
1
5
255

> <PUBCHEM_BONDANNOTATIONS>
29  2  6
30  72  6
31  73  6
33  39  3
34  40  3
36  43  6
39  41  8
39  42  8
32  4  6
41  47  8
42  48  8
47  49  8
48  49  8
35  5  5
50  53  8
50  57  8
53  58  8
54  55  8
54  60  8
55  59  8
56  64  8
56  65  8
57  62  8
58  63  8
59  66  8
60  67  8
62  63  8
64  69  8
65  68  8
66  67  8
68  70  8
69  70  8

$$$$
