75034370
  -OEChem-11212012582D

 70 74  0     1  0  0  0  0  0999 V2000
    7.9632   -0.6321    0.0000 O   0  0  0  0  0  0  0  0  0  0  0  0
    8.3746    2.0928    0.0000 O   0  0  0  0  0  0  0  0  0  0  0  0
    5.5048    0.6134    0.0000 O   0  0  0  0  0  0  0  0  0  0  0  0
    8.1497   -0.2476    0.0000 O   0  0  0  0  0  0  0  0  0  0  0  0
    6.4650   -1.4789    0.0000 O   0  0  0  0  0  0  0  0  0  0  0  0
    5.0764    5.1626    0.0000 O   0  0  0  0  0  0  0  0  0  0  0  0
    7.3282    5.3948    0.0000 O   0  0  0  0  0  0  0  0  0  0  0  0
    9.9331   -0.8145    0.0000 O   0  0  0  0  0  0  0  0  0  0  0  0
    9.0430    3.1329    0.0000 O   0  0  0  0  0  0  0  0  0  0  0  0
    3.9798    1.1009    0.0000 O   0  0  0  0  0  0  0  0  0  0  0  0
    6.3368    6.3515    0.0000 O   0  0  0  0  0  0  0  0  0  0  0  0
    3.3321    5.0788    0.0000 O   0  0  0  0  0  0  0  0  0  0  0  0
    8.9946    5.6551    0.0000 O   0  0  0  0  0  0  0  0  0  0  0  0
    2.3079    3.3049    0.0000 O   0  0  0  0  0  0  0  0  0  0  0  0
    9.5513    4.3550    0.0000 O   0  0  0  0  0  0  0  0  0  0  0  0
    7.9690   -2.3379    0.0000 O   0  0  0  0  0  0  0  0  0  0  0  0
    6.9853   -5.8067    0.0000 O   0  0  0  0  0  0  0  0  0  0  0  0
    3.9772   -4.0887    0.0000 O   0  0  0  0  0  0  0  0  0  0  0  0
    4.9853   -5.8160    0.0000 O   0  0  0  0  0  0  0  0  0  0  0  0
    8.1388    1.1210    0.0000 C   0  0  3  0  0  0  0  0  0  0  0  0
    7.4151    0.4310    0.0000 C   0  0  3  0  0  0  0  0  0  0  0  0
    6.4332    0.2417    0.0000 C   0  0  3  0  0  0  0  0  0  0  0  0
    6.2660    3.7511    0.0000 C   0  0  3  0  0  0  0  0  0  0  0  0
    8.5270    0.1968    0.0000 C   0  0  3  0  0  0  0  0  0  0  0  0
    7.2615    3.6560    0.0000 C   0  0  3  0  0  0  0  0  0  0  0  0
    6.9609   -0.6106    0.0000 C   0  0  3  0  0  0  0  0  0  0  0  0
    5.3772    3.2928    0.0000 C   0  0  0  0  0  0  0  0  0  0  0  0
    6.6614    4.6495    0.0000 C   0  0  3  0  0  0  0  0  0  0  0  0
    8.0475    3.0378    0.0000 C   0  0  0  0  0  0  0  0  0  0  0  0
    7.6332    4.5844    0.0000 C   0  0  0  0  0  0  0  0  0  0  0  0
    9.5220    0.0971    0.0000 C   0  0  0  0  0  0  0  0  0  0  0  0
    4.8772    2.4268    0.0000 C   0  0  0  0  0  0  0  0  0  0  0  0
    4.8703    4.2028    0.0000 C   0  0  0  0  0  0  0  0  0  0  0  0
    4.9248    1.4279    0.0000 C   0  0  0  0  0  0  0  0  0  0  0  0
    6.0288    5.4001    0.0000 C   0  0  0  0  0  0  0  0  0  0  0  0
    3.8357    2.4108    0.0000 C   0  0  0  0  0  0  0  0  0  0  0  0
    3.8287    4.2109    0.0000 C   0  0  0  0  0  0  0  0  0  0  0  0
    8.6230    4.7267    0.0000 C   0  0  0  0  0  0  0  0  0  0  0  0
    3.3079    3.3088    0.0000 C   0  0  0  0  0  0  0  0  0  0  0  0
    6.9691   -2.3426    0.0000 C   0  0  0  0  0  0  0  0  0  0  0  0
    6.4731   -3.2110    0.0000 C   0  0  0  0  0  0  0  0  0  0  0  0
    5.4731   -3.2156    0.0000 C   0  0  0  0  0  0  0  0  0  0  0  0
    6.9772   -4.0746    0.0000 C   0  0  0  0  0  0  0  0  0  0  0  0
    6.4813   -4.9430    0.0000 C   0  0  0  0  0  0  0  0  0  0  0  0
    4.9772   -4.0840    0.0000 C   0  0  0  0  0  0  0  0  0  0  0  0
    5.4813   -4.9477    0.0000 C   0  0  0  0  0  0  0  0  0  0  0  0
    8.7569    1.1704    0.0000 H   0  0  0  0  0  0  0  0  0  0  0  0
    7.2452   -0.1653    0.0000 H   0  0  0  0  0  0  0  0  0  0  0  0
    6.0344   -0.2331    0.0000 H   0  0  0  0  0  0  0  0  0  0  0  0
    6.8008    4.0648    0.0000 H   0  0  0  0  0  0  0  0  0  0  0  0
    8.7892   -0.3650    0.0000 H   0  0  0  0  0  0  0  0  0  0  0  0
    6.9388    4.1854    0.0000 H   0  0  0  0  0  0  0  0  0  0  0  0
    7.2664   -1.1501    0.0000 H   0  0  0  0  0  0  0  0  0  0  0  0
    7.1827    4.3138    0.0000 H   0  0  0  0  0  0  0  0  0  0  0  0
    7.6528    5.2041    0.0000 H   0  0  0  0  0  0  0  0  0  0  0  0
    7.0263    4.7114    0.0000 H   0  0  0  0  0  0  0  0  0  0  0  0
   10.1228    0.2499    0.0000 H   0  0  0  0  0  0  0  0  0  0  0  0
    9.4758    0.7153    0.0000 H   0  0  0  0  0  0  0  0  0  0  0  0
    8.7545   -0.3841    0.0000 H   0  0  0  0  0  0  0  0  0  0  0  0
    3.5319    1.8703    0.0000 H   0  0  0  0  0  0  0  0  0  0  0  0
    7.1347    5.9838    0.0000 H   0  0  0  0  0  0  0  0  0  0  0  0
   10.5500   -0.8764    0.0000 H   0  0  0  0  0  0  0  0  0  0  0  0
    2.7121    5.0812    0.0000 H   0  0  0  0  0  0  0  0  0  0  0  0
    9.6083    5.7433    0.0000 H   0  0  0  0  0  0  0  0  0  0  0  0
    2.0000    2.7668    0.0000 H   0  0  0  0  0  0  0  0  0  0  0  0
    5.1606   -2.6802    0.0000 H   0  0  0  0  0  0  0  0  0  0  0  0
    7.5972   -4.0717    0.0000 H   0  0  0  0  0  0  0  0  0  0  0  0
    7.6053   -5.8038    0.0000 H   0  0  0  0  0  0  0  0  0  0  0  0
    3.6697   -4.6271    0.0000 H   0  0  0  0  0  0  0  0  0  0  0  0
    5.2979   -6.3515    0.0000 H   0  0  0  0  0  0  0  0  0  0  0  0
  1 24  1  0  0  0  0
  1 26  1  0  0  0  0
  2 20  1  0  0  0  0
  2 29  1  0  0  0  0
  3 22  1  0  0  0  0
  3 34  1  0  0  0  0
  4 21  1  0  0  0  0
  4 59  1  0  0  0  0
  5 26  1  0  0  0  0
  5 40  1  0  0  0  0
  6 33  1  0  0  0  0
  6 35  1  0  0  0  0
  7 28  1  0  0  0  0
  7 61  1  0  0  0  0
  8 31  1  0  0  0  0
  8 62  1  0  0  0  0
  9 29  2  0  0  0  0
 10 34  2  0  0  0  0
 11 35  2  0  0  0  0
 12 37  1  0  0  0  0
 12 63  1  0  0  0  0
 13 38  1  0  0  0  0
 13 64  1  0  0  0  0
 14 39  1  0  0  0  0
 14 65  1  0  0  0  0
 15 38  2  0  0  0  0
 16 40  2  0  0  0  0
 17 44  1  0  0  0  0
 17 68  1  0  0  0  0
 18 45  1  0  0  0  0
 18 69  1  0  0  0  0
 19 46  1  0  0  0  0
 19 70  1  0  0  0  0
 20 21  1  0  0  0  0
 20 24  1  0  0  0  0
 20 47  1  0  0  0  0
 21 22  1  0  0  0  0
 21 48  1  0  0  0  0
 22 26  1  0  0  0  0
 22 49  1  0  0  0  0
 23 25  1  0  0  0  0
 23 27  1  0  0  0  0
 23 28  1  0  0  0  0
 23 50  1  0  0  0  0
 24 31  1  0  0  0  0
 24 51  1  0  0  0  0
 25 29  1  0  0  0  0
 25 30  1  0  0  0  0
 25 52  1  0  0  0  0
 26 53  1  0  0  0  0
 27 32  1  0  0  0  0
 27 33  2  0  0  0  0
 28 35  1  0  0  0  0
 28 54  1  0  0  0  0
 30 38  1  0  0  0  0
 30 55  1  0  0  0  0
 30 56  1  0  0  0  0
 31 57  1  0  0  0  0
 31 58  1  0  0  0  0
 32 34  1  0  0  0  0
 32 36  2  0  0  0  0
 33 37  1  0  0  0  0
 36 39  1  0  0  0  0
 36 60  1  0  0  0  0
 37 39  2  0  0  0  0
 40 41  1  0  0  0  0
 41 42  2  0  0  0  0
 41 43  1  0  0  0  0
 42 45  1  0  0  0  0
 42 66  1  0  0  0  0
 43 44  2  0  0  0  0
 43 67  1  0  0  0  0
 44 46  1  0  0  0  0
 45 46  2  0  0  0  0
M  END
> <PUBCHEM_COMPOUND_CID>
75034370

> <PUBCHEM_COMPOUND_CANONICALIZED>
1

> <PUBCHEM_CACTVS_COMPLEXITY>
1200

> <PUBCHEM_CACTVS_HBOND_ACCEPTOR>
19

> <PUBCHEM_CACTVS_HBOND_DONOR>
9

> <PUBCHEM_CACTVS_ROTATABLE_BOND>
6

> <PUBCHEM_CACTVS_SUBSKEYS>
AAADceB4PgAAAAAAAAAAAAAAAAAAAAAAAAA0aIEAAAAAAACRQAAAGgAACAAADRSwmAMwDoAABgCIAiDSCAICCAAkIAAAiAFGiMgdNzKGNRqieyOlwBUPuYfL7vzOoAABCAAYQABAAAIQADCAAAAAAAAAAA==

> <PUBCHEM_IUPAC_OPENEYE_NAME>
2-[13,17,18,21-tetrahydroxy-7-(hydroxymethyl)-2,10,14-trioxo-5-(3,4,5-trihydroxybenzoyl)oxy-3,6,9,15-tetraoxatetracyclo[10.7.1.14,8.016,20]henicosa-1(19),16(20),17-trien-11-yl]acetic acid

> <PUBCHEM_IUPAC_CAS_NAME>
2-[13,17,18,21-tetrahydroxy-7-(hydroxymethyl)-2,10,14-trioxo-5-[oxo-(3,4,5-trihydroxyphenyl)methoxy]-3,6,9,15-tetraoxatetracyclo[10.7.1.14,8.016,20]heneicosa-1(19),16(20),17-trien-11-yl]acetic acid

> <PUBCHEM_IUPAC_NAME_MARKUP>
2-[13,17,18,21-tetrahydroxy-7-(hydroxymethyl)-2,10,14-trioxo-5-(3,4,5-trihydroxybenzoyl)oxy-3,6,9,15-tetraoxatetracyclo[10.7.1.1<SUP>4,8</SUP>.0<SUP>16,20</SUP>]henicosa-1(19),16(20),17-trien-11-yl]acetic acid

> <PUBCHEM_IUPAC_NAME>
2-[13,17,18,21-tetrahydroxy-7-(hydroxymethyl)-2,10,14-trioxo-5-(3,4,5-trihydroxybenzoyl)oxy-3,6,9,15-tetraoxatetracyclo[10.7.1.14,8.016,20]henicosa-1(19),16(20),17-trien-11-yl]acetic acid

> <PUBCHEM_IUPAC_SYSTEMATIC_NAME>
2-[7-(hydroxymethyl)-13,17,18,21-tetrakis(oxidanyl)-2,10,14-tris(oxidanylidene)-5-[3,4,5-tris(oxidanyl)phenyl]carbonyloxy-3,6,9,15-tetraoxatetracyclo[10.7.1.14,8.016,20]henicosa-1(19),16(20),17-trien-11-yl]ethanoic acid

> <PUBCHEM_IUPAC_TRADITIONAL_NAME>
2-(5-galloyloxy-13,17,18,21-tetrahydroxy-2,10,14-triketo-7-methylol-3,6,9,15-tetraoxatetracyclo[10.7.1.14,8.016,20]heneicosa-1(19),16(20),17-trien-11-yl)acetic acid

> <PUBCHEM_IUPAC_INCHI>
InChI=1S/C27H24O19/c28-5-12-20-19(37)22(27(42-12)46-23(38)6-1-9(29)16(34)10(30)2-6)45-24(39)7-3-11(31)17(35)21-15(7)14(18(36)26(41)44-21)8(4-13(32)33)25(40)43-20/h1-3,8,12,14,18-20,22,27-31,34-37H,4-5H2,(H,32,33)

> <PUBCHEM_IUPAC_INCHIKEY>
HPQIRFXIDGVWBA-UHFFFAOYSA-N

> <PUBCHEM_XLOGP3_AA>
-1.7

> <PUBCHEM_EXACT_MASS>
652.091179

> <PUBCHEM_MOLECULAR_FORMULA>
C27H24O19

> <PUBCHEM_MOLECULAR_WEIGHT>
652.5

> <PUBCHEM_OPENEYE_CAN_SMILES>
C1=C(C=C(C(=C1O)O)O)C(=O)OC2C3C(C(C(O2)CO)OC(=O)C(C4C(C(=O)OC5=C4C(=CC(=C5O)O)C(=O)O3)O)CC(=O)O)O

> <PUBCHEM_OPENEYE_ISO_SMILES>
C1=C(C=C(C(=C1O)O)O)C(=O)OC2C3C(C(C(O2)CO)OC(=O)C(C4C(C(=O)OC5=C4C(=CC(=C5O)O)C(=O)O3)O)CC(=O)O)O

> <PUBCHEM_CACTVS_TPSA>
314

> <PUBCHEM_MONOISOTOPIC_WEIGHT>
652.091179

> <PUBCHEM_TOTAL_CHARGE>
0

> <PUBCHEM_HEAVY_ATOM_COUNT>
46

> <PUBCHEM_ATOM_DEF_STEREO_COUNT>
0

> <PUBCHEM_ATOM_UDEF_STEREO_COUNT>
8

> <PUBCHEM_BOND_DEF_STEREO_COUNT>
0

> <PUBCHEM_BOND_UDEF_STEREO_COUNT>
0

> <PUBCHEM_ISOTOPIC_ATOM_COUNT>
0

> <PUBCHEM_COMPONENT_COUNT>
1

> <PUBCHEM_CACTVS_TAUTO_COUNT>
-1

> <PUBCHEM_COORDINATE_TYPE>
1
5
255

> <PUBCHEM_BONDANNOTATIONS>
20  2  3
23  27  3
24  31  3
25  30  3
27  32  8
27  33  8
22  3  3
32  36  8
33  37  8
36  39  8
37  39  8
21  4  3
41  42  8
41  43  8
42  45  8
43  44  8
44  46  8
45  46  8
26  5  3
28  7  3

$$$$
