198016
  -OEChem-08232006012D

179189  0     1  0  0  0  0  0999 V2000
    6.2799    4.2310    0.0000 O   0  0  0  0  0  0  0  0  0  0  0  0
    6.1757    6.6278    0.0000 O   0  0  0  0  0  0  0  0  0  0  0  0
   11.6748    0.3742    0.0000 O   0  0  0  0  0  0  0  0  0  0  0  0
    2.0000    4.9834    0.0000 O   0  0  0  0  0  0  0  0  0  0  0  0
   12.5408    1.8742    0.0000 O   0  0  0  0  0  0  0  0  0  0  0  0
   13.4068   -0.6258    0.0000 O   0  0  0  0  0  0  0  0  0  0  0  0
   15.1389    0.3742    0.0000 O   0  0  0  0  0  0  0  0  0  0  0  0
   15.1389    2.3742    0.0000 O   0  0  0  0  0  0  0  0  0  0  0  0
   11.6748   -0.6258    0.0000 O   0  0  0  0  0  0  0  0  0  0  0  0
   16.0049    1.8742    0.0000 O   0  0  0  0  0  0  0  0  0  0  0  0
   13.4068   -2.6258    0.0000 O   0  0  0  0  0  0  0  0  0  0  0  0
   16.0049    3.8742    0.0000 O   0  0  0  0  0  0  0  0  0  0  0  0
   11.6748   -3.6258    0.0000 O   0  0  0  0  0  0  0  0  0  0  0  0
   16.8709   -0.6258    0.0000 O   0  0  0  0  0  0  0  0  0  0  0  0
    9.9427   -2.6258    0.0000 O   0  0  0  0  0  0  0  0  0  0  0  0
   13.4068    3.3742    0.0000 O   0  0  0  0  0  0  0  0  0  0  0  0
   18.6030    0.3742    0.0000 O   0  0  0  0  0  0  0  0  0  0  0  0
   18.6030    2.3742    0.0000 O   0  0  0  0  0  0  0  0  0  0  0  0
   13.4068    5.3742    0.0000 O   0  0  0  0  0  0  0  0  0  0  0  0
   12.5408   -4.1258    0.0000 O   0  0  0  0  0  0  0  0  0  0  0  0
    9.0767   -1.1258    0.0000 O   0  0  0  0  0  0  0  0  0  0  0  0
   15.1389    6.3742    0.0000 O   0  0  0  0  0  0  0  0  0  0  0  0
   17.7370    3.8742    0.0000 O   0  0  0  0  0  0  0  0  0  0  0  0
   15.1389   -3.6258    0.0000 O   0  0  0  0  0  0  0  0  0  0  0  0
   15.1389   -5.6258    0.0000 O   0  0  0  0  0  0  0  0  0  0  0  0
   13.4068   -6.6258    0.0000 O   0  0  0  0  0  0  0  0  0  0  0  0
   10.8088   -5.1258    0.0000 O   0  0  0  0  0  0  0  0  0  0  0  0
    7.0321    4.1245    0.0000 C   0  0  2  0  0  0  0  0  0  0  0  0
    6.1642    3.6279    0.0000 C   0  0  3  0  0  0  0  0  0  0  0  0
    7.9402    3.6142    0.0000 C   0  0  1  0  0  0  0  0  0  0  0  0
    5.3001    4.1312    0.0000 C   0  0  2  0  0  0  0  0  0  0  0  0
    7.9442    2.5726    0.0000 C   0  0  1  0  0  0  0  0  0  0  0  0
    5.3039    5.1312    0.0000 C   0  0  3  0  0  0  0  0  0  0  0  0
    8.8775    2.0192    0.0000 C   0  0  2  0  0  0  0  0  0  0  0  0
    7.0360    5.1245    0.0000 C   0  0  0  0  0  0  0  0  0  0  0  0
    6.1441    2.5864    0.0000 C   0  0  0  0  0  0  0  0  0  0  0  0
    6.1719    5.6279    0.0000 C   0  0  1  0  0  0  0  0  0  0  0  0
    7.0401    2.0552    0.0000 C   0  0  0  0  0  0  0  0  0  0  0  0
    9.8192    2.5581    0.0000 C   0  0  3  0  0  0  0  0  0  0  0  0
    8.8692    4.1747    0.0000 C   0  0  0  0  0  0  0  0  0  0  0  0
    5.8826    4.9254    0.0000 C   0  0  0  0  0  0  0  0  0  0  0  0
    4.4041    3.6000    0.0000 C   0  0  0  0  0  0  0  0  0  0  0  0
    4.4121    5.6693    0.0000 C   0  0  0  0  0  0  0  0  0  0  0  0
    9.8150    3.6431    0.0000 C   0  0  0  0  0  0  0  0  0  0  0  0
    7.6778    4.8881    0.0000 C   0  0  0  0  0  0  0  0  0  0  0  0
    8.2785    4.5552    0.0000 C   0  0  0  0  0  0  0  0  0  0  0  0
   10.8044    2.0044    0.0000 C   0  0  0  0  0  0  0  0  0  0  0  0
    8.8557    0.8893    0.0000 C   0  0  0  0  0  0  0  0  0  0  0  0
    3.5000    4.1173    0.0000 C   0  0  2  0  0  0  0  0  0  0  0  0
    3.5040    5.1590    0.0000 C   0  0  0  0  0  0  0  0  0  0  0  0
    8.0095    1.5226    0.0000 C   0  0  0  0  0  0  0  0  0  0  0  0
   10.8088    0.8742    0.0000 C   0  0  2  0  0  0  0  0  0  0  0  0
    9.8278    0.3129    0.0000 C   0  0  0  0  0  0  0  0  0  0  0  0
   11.2977    2.8742    0.0000 C   0  0  0  0  0  0  0  0  0  0  0  0
   11.8044    2.0121    0.0000 C   0  0  0  0  0  0  0  0  0  0  0  0
    3.0000    3.2513    0.0000 C   0  0  0  0  0  0  0  0  0  0  0  0
    2.5000    4.1173    0.0000 C   0  0  0  0  0  0  0  0  0  0  0  0
   12.5408    0.8742    0.0000 C   0  0  2  0  0  0  0  0  0  0  0  0
   13.4068    0.3742    0.0000 C   0  0  1  0  0  0  0  0  0  0  0  0
   14.2729    0.8742    0.0000 C   0  0  2  0  0  0  0  0  0  0  0  0
   13.4068    2.3742    0.0000 C   0  0  0  0  0  0  0  0  0  0  0  0
   14.2729    1.8742    0.0000 C   0  0  2  0  0  0  0  0  0  0  0  0
   12.5408   -1.1258    0.0000 C   0  0  2  0  0  0  0  0  0  0  0  0
   16.0049    0.8742    0.0000 C   0  0  1  0  0  0  0  0  0  0  0  0
   12.5408   -2.1258    0.0000 C   0  0  1  0  0  0  0  0  0  0  0  0
   15.1389    3.3742    0.0000 C   0  0  2  0  0  0  0  0  0  0  0  0
   11.6748   -2.6258    0.0000 C   0  0  2  0  0  0  0  0  0  0  0  0
   16.8709    0.3742    0.0000 C   0  0  1  0  0  0  0  0  0  0  0  0
   10.8088   -1.1258    0.0000 C   0  0  1  0  0  0  0  0  0  0  0  0
   10.8088   -2.1258    0.0000 C   0  0  1  0  0  0  0  0  0  0  0  0
   14.2729    3.8742    0.0000 C   0  0  1  0  0  0  0  0  0  0  0  0
   17.7370    0.8742    0.0000 C   0  0  2  0  0  0  0  0  0  0  0  0
   16.8709    2.3742    0.0000 C   0  0  1  0  0  0  0  0  0  0  0  0
   17.7370    1.8742    0.0000 C   0  0  1  0  0  0  0  0  0  0  0  0
   14.2729    4.8742    0.0000 C   0  0  2  0  0  0  0  0  0  0  0  0
    9.9427   -0.6258    0.0000 C   0  0  0  0  0  0  0  0  0  0  0  0
   13.4068   -3.6258    0.0000 C   0  0  1  0  0  0  0  0  0  0  0  0
   16.0049    4.8742    0.0000 C   0  0  0  0  0  0  0  0  0  0  0  0
   15.1389    5.3742    0.0000 C   0  0  1  0  0  0  0  0  0  0  0  0
   16.8709    3.3742    0.0000 C   0  0  0  0  0  0  0  0  0  0  0  0
   14.2729   -4.1258    0.0000 C   0  0  1  0  0  0  0  0  0  0  0  0
   14.2729   -5.1258    0.0000 C   0  0  2  0  0  0  0  0  0  0  0  0
   12.5408   -5.1258    0.0000 C   0  0  1  0  0  0  0  0  0  0  0  0
   13.4068   -5.6258    0.0000 C   0  0  1  0  0  0  0  0  0  0  0  0
   11.6748   -5.6258    0.0000 C   0  0  0  0  0  0  0  0  0  0  0  0
    5.2968    3.2812    0.0000 H   0  0  0  0  0  0  0  0  0  0  0  0
    7.9376    1.7226    0.0000 H   0  0  0  0  0  0  0  0  0  0  0  0
    7.6461    5.0145    0.0000 H   0  0  0  0  0  0  0  0  0  0  0  0
    7.2503    5.7063    0.0000 H   0  0  0  0  0  0  0  0  0  0  0  0
    5.5354    2.7043    0.0000 H   0  0  0  0  0  0  0  0  0  0  0  0
    5.9238    2.0069    0.0000 H   0  0  0  0  0  0  0  0  0  0  0  0
    6.7100    5.9358    0.0000 H   0  0  0  0  0  0  0  0  0  0  0  0
    6.6373    1.5839    0.0000 H   0  0  0  0  0  0  0  0  0  0  0  0
    7.4356    1.5777    0.0000 H   0  0  0  0  0  0  0  0  0  0  0  0
   10.3537    2.8722    0.0000 H   0  0  0  0  0  0  0  0  0  0  0  0
    9.2609    4.6552    0.0000 H   0  0  0  0  0  0  0  0  0  0  0  0
    8.4628    4.6429    0.0000 H   0  0  0  0  0  0  0  0  0  0  0  0
    6.4859    5.0683    0.0000 H   0  0  0  0  0  0  0  0  0  0  0  0
    5.9164    5.5445    0.0000 H   0  0  0  0  0  0  0  0  0  0  0  0
    4.0086    3.1225    0.0000 H   0  0  0  0  0  0  0  0  0  0  0  0
    4.8069    3.1286    0.0000 H   0  0  0  0  0  0  0  0  0  0  0  0
    4.8185    6.1375    0.0000 H   0  0  0  0  0  0  0  0  0  0  0  0
    4.0203    6.1498    0.0000 H   0  0  0  0  0  0  0  0  0  0  0  0
   10.4263    3.5394    0.0000 H   0  0  0  0  0  0  0  0  0  0  0  0
   10.0218    4.2276    0.0000 H   0  0  0  0  0  0  0  0  0  0  0  0
    8.1513    4.4877    0.0000 H   0  0  0  0  0  0  0  0  0  0  0  0
    8.0782    5.3615    0.0000 H   0  0  0  0  0  0  0  0  0  0  0  0
    7.2044    5.2884    0.0000 H   0  0  0  0  0  0  0  0  0  0  0  0
    8.8620    4.3454    0.0000 H   0  0  0  0  0  0  0  0  0  0  0  0
    8.4884    5.1386    0.0000 H   0  0  0  0  0  0  0  0  0  0  0  0
    7.6951    4.7650    0.0000 H   0  0  0  0  0  0  0  0  0  0  0  0
    8.2470    1.0071    0.0000 H   0  0  0  0  0  0  0  0  0  0  0  0
    8.6354    0.3097    0.0000 H   0  0  0  0  0  0  0  0  0  0  0  0
    3.2972    5.7434    0.0000 H   0  0  0  0  0  0  0  0  0  0  0  0
    2.8928    5.0552    0.0000 H   0  0  0  0  0  0  0  0  0  0  0  0
    7.7016    2.0607    0.0000 H   0  0  0  0  0  0  0  0  0  0  0  0
    7.4714    1.2146    0.0000 H   0  0  0  0  0  0  0  0  0  0  0  0
    8.3174    0.9844    0.0000 H   0  0  0  0  0  0  0  0  0  0  0  0
   11.3451    1.1853    0.0000 H   0  0  0  0  0  0  0  0  0  0  0  0
    9.4250   -0.1584    0.0000 H   0  0  0  0  0  0  0  0  0  0  0  0
   10.2233   -0.1646    0.0000 H   0  0  0  0  0  0  0  0  0  0  0  0
    6.7139    6.9358    0.0000 H   0  0  0  0  0  0  0  0  0  0  0  0
   11.8370    2.5684    0.0000 H   0  0  0  0  0  0  0  0  0  0  0  0
   11.6036    3.4135    0.0000 H   0  0  0  0  0  0  0  0  0  0  0  0
   10.7584    3.1801    0.0000 H   0  0  0  0  0  0  0  0  0  0  0  0
   11.8092    1.3921    0.0000 H   0  0  0  0  0  0  0  0  0  0  0  0
   12.4244    2.0169    0.0000 H   0  0  0  0  0  0  0  0  0  0  0  0
   11.7996    2.6321    0.0000 H   0  0  0  0  0  0  0  0  0  0  0  0
    2.4631    3.5613    0.0000 H   0  0  0  0  0  0  0  0  0  0  0  0
    2.6900    2.7144    0.0000 H   0  0  0  0  0  0  0  0  0  0  0  0
    3.5369    2.9413    0.0000 H   0  0  0  0  0  0  0  0  0  0  0  0
    2.1900    3.5804    0.0000 H   0  0  0  0  0  0  0  0  0  0  0  0
   12.5408    0.2542    0.0000 H   0  0  0  0  0  0  0  0  0  0  0  0
   13.9438    0.0642    0.0000 H   0  0  0  0  0  0  0  0  0  0  0  0
   14.8098    1.1842    0.0000 H   0  0  0  0  0  0  0  0  0  0  0  0
   13.8054    2.8492    0.0000 H   0  0  0  0  0  0  0  0  0  0  0  0
   13.0083    2.8492    0.0000 H   0  0  0  0  0  0  0  0  0  0  0  0
   14.2729    2.4942    0.0000 H   0  0  0  0  0  0  0  0  0  0  0  0
   13.0777   -1.4358    0.0000 H   0  0  0  0  0  0  0  0  0  0  0  0
   15.4680    1.1842    0.0000 H   0  0  0  0  0  0  0  0  0  0  0  0
   12.5408   -2.7458    0.0000 H   0  0  0  0  0  0  0  0  0  0  0  0
   14.6020    3.0642    0.0000 H   0  0  0  0  0  0  0  0  0  0  0  0
   12.2117   -2.9358    0.0000 H   0  0  0  0  0  0  0  0  0  0  0  0
   17.4079    0.0642    0.0000 H   0  0  0  0  0  0  0  0  0  0  0  0
   10.8088   -0.5058    0.0000 H   0  0  0  0  0  0  0  0  0  0  0  0
   10.8088   -2.7458    0.0000 H   0  0  0  0  0  0  0  0  0  0  0  0
   13.7359    4.1842    0.0000 H   0  0  0  0  0  0  0  0  0  0  0  0
   17.7370    0.2542    0.0000 H   0  0  0  0  0  0  0  0  0  0  0  0
   16.3340    2.6842    0.0000 H   0  0  0  0  0  0  0  0  0  0  0  0
   18.2739    1.5642    0.0000 H   0  0  0  0  0  0  0  0  0  0  0  0
   14.2729    5.4942    0.0000 H   0  0  0  0  0  0  0  0  0  0  0  0
   10.3413   -0.1508    0.0000 H   0  0  0  0  0  0  0  0  0  0  0  0
    9.5442   -0.1508    0.0000 H   0  0  0  0  0  0  0  0  0  0  0  0
   12.8699   -3.3158    0.0000 H   0  0  0  0  0  0  0  0  0  0  0  0
   16.6155    4.7666    0.0000 H   0  0  0  0  0  0  0  0  0  0  0  0
   16.2170    5.4568    0.0000 H   0  0  0  0  0  0  0  0  0  0  0  0
   11.1378   -3.9358    0.0000 H   0  0  0  0  0  0  0  0  0  0  0  0
   17.4079   -0.9358    0.0000 H   0  0  0  0  0  0  0  0  0  0  0  0
   15.6758    5.6842    0.0000 H   0  0  0  0  0  0  0  0  0  0  0  0
    9.4058   -2.3158    0.0000 H   0  0  0  0  0  0  0  0  0  0  0  0
   12.8699    3.6842    0.0000 H   0  0  0  0  0  0  0  0  0  0  0  0
   16.6589    3.9568    0.0000 H   0  0  0  0  0  0  0  0  0  0  0  0
   16.2604    3.2666    0.0000 H   0  0  0  0  0  0  0  0  0  0  0  0
   19.1399    0.6842    0.0000 H   0  0  0  0  0  0  0  0  0  0  0  0
   14.8098   -4.4358    0.0000 H   0  0  0  0  0  0  0  0  0  0  0  0
   19.1399    2.0642    0.0000 H   0  0  0  0  0  0  0  0  0  0  0  0
   13.4068    5.9942    0.0000 H   0  0  0  0  0  0  0  0  0  0  0  0
    8.5398   -0.8158    0.0000 H   0  0  0  0  0  0  0  0  0  0  0  0
   14.2729   -5.7458    0.0000 H   0  0  0  0  0  0  0  0  0  0  0  0
   15.6758    6.6842    0.0000 H   0  0  0  0  0  0  0  0  0  0  0  0
   12.0039   -4.8158    0.0000 H   0  0  0  0  0  0  0  0  0  0  0  0
   12.8699   -5.9358    0.0000 H   0  0  0  0  0  0  0  0  0  0  0  0
   17.7370    4.4942    0.0000 H   0  0  0  0  0  0  0  0  0  0  0  0
   15.6758   -3.9358    0.0000 H   0  0  0  0  0  0  0  0  0  0  0  0
   11.2763   -6.1007    0.0000 H   0  0  0  0  0  0  0  0  0  0  0  0
   12.0733   -6.1007    0.0000 H   0  0  0  0  0  0  0  0  0  0  0  0
   15.1389   -6.2458    0.0000 H   0  0  0  0  0  0  0  0  0  0  0  0
   12.8699   -6.9358    0.0000 H   0  0  0  0  0  0  0  0  0  0  0  0
   10.2718   -5.4358    0.0000 H   0  0  0  0  0  0  0  0  0  0  0  0
  1 29  1  0  0  0  0
  1 41  1  0  0  0  0
 37  2  1  6  0  0  0
  2122  1  0  0  0  0
 52  3  1  1  0  0  0
 58  3  1  6  0  0  0
  4 57  2  0  0  0  0
  5 58  1  0  0  0  0
  5 61  1  0  0  0  0
 59  6  1  1  0  0  0
 63  6  1  1  0  0  0
 60  7  1  6  0  0  0
 64  7  1  1  0  0  0
 62  8  1  6  0  0  0
 66  8  1  1  0  0  0
  9 63  1  0  0  0  0
  9 69  1  0  0  0  0
 10 64  1  0  0  0  0
 10 73  1  0  0  0  0
 65 11  1  6  0  0  0
 77 11  1  6  0  0  0
 12 66  1  0  0  0  0
 12 78  1  0  0  0  0
 67 13  1  1  0  0  0
 13157  1  0  0  0  0
 68 14  1  1  0  0  0
 14158  1  0  0  0  0
 70 15  1  6  0  0  0
 15160  1  0  0  0  0
 71 16  1  6  0  0  0
 16161  1  0  0  0  0
 72 17  1  6  0  0  0
 17164  1  0  0  0  0
 74 18  1  1  0  0  0
 18166  1  0  0  0  0
 75 19  1  1  0  0  0
 19167  1  0  0  0  0
 20 77  1  0  0  0  0
 20 83  1  0  0  0  0
 21 76  1  0  0  0  0
 21168  1  0  0  0  0
 79 22  1  6  0  0  0
 22170  1  0  0  0  0
 23 80  1  0  0  0  0
 23173  1  0  0  0  0
 81 24  1  6  0  0  0
 24174  1  0  0  0  0
 82 25  1  1  0  0  0
 25177  1  0  0  0  0
 84 26  1  6  0  0  0
 26178  1  0  0  0  0
 27 85  1  0  0  0  0
 27179  1  0  0  0  0
 28 29  1  0  0  0  0
 28 30  1  0  0  0  0
 28 35  1  0  0  0  0
 28 45  1  6  0  0  0
 29 31  1  0  0  0  0
 29 36  1  0  0  0  0
 30 32  1  0  0  0  0
 30 40  1  0  0  0  0
 30 46  1  1  0  0  0
 31 33  1  0  0  0  0
 31 42  1  0  0  0  0
 31 86  1  6  0  0  0
 32 34  1  0  0  0  0
 32 38  1  0  0  0  0
 32 87  1  6  0  0  0
 33 37  1  0  0  0  0
 33 41  1  0  0  0  0
 33 43  1  0  0  0  0
 34 39  1  0  0  0  0
 34 48  1  0  0  0  0
 34 51  1  1  0  0  0
 35 37  1  0  0  0  0
 35 88  1  0  0  0  0
 35 89  1  0  0  0  0
 36 38  1  0  0  0  0
 36 90  1  0  0  0  0
 36 91  1  0  0  0  0
 37 92  1  0  0  0  0
 38 93  1  0  0  0  0
 38 94  1  0  0  0  0
 39 44  1  0  0  0  0
 39 47  1  0  0  0  0
 39 95  1  0  0  0  0
 40 44  1  0  0  0  0
 40 96  1  0  0  0  0
 40 97  1  0  0  0  0
 41 98  1  0  0  0  0
 41 99  1  0  0  0  0
 42 49  1  0  0  0  0
 42100  1  0  0  0  0
 42101  1  0  0  0  0
 43 50  1  0  0  0  0
 43102  1  0  0  0  0
 43103  1  0  0  0  0
 44104  1  0  0  0  0
 44105  1  0  0  0  0
 45106  1  0  0  0  0
 45107  1  0  0  0  0
 45108  1  0  0  0  0
 46109  1  0  0  0  0
 46110  1  0  0  0  0
 46111  1  0  0  0  0
 47 52  1  0  0  0  0
 47 54  1  0  0  0  0
 47 55  1  0  0  0  0
 48 53  1  0  0  0  0
 48112  1  0  0  0  0
 48113  1  0  0  0  0
 49 50  1  0  0  0  0
 49 56  1  1  0  0  0
 49 57  1  0  0  0  0
 50114  1  0  0  0  0
 50115  1  0  0  0  0
 51116  1  0  0  0  0
 51117  1  0  0  0  0
 51118  1  0  0  0  0
 52 53  1  0  0  0  0
 52119  1  0  0  0  0
 53120  1  0  0  0  0
 53121  1  0  0  0  0
 54123  1  0  0  0  0
 54124  1  0  0  0  0
 54125  1  0  0  0  0
 55126  1  0  0  0  0
 55127  1  0  0  0  0
 55128  1  0  0  0  0
 56129  1  0  0  0  0
 56130  1  0  0  0  0
 56131  1  0  0  0  0
 57132  1  0  0  0  0
 58 59  1  0  0  0  0
 58133  1  0  0  0  0
 59 60  1  0  0  0  0
 59134  1  0  0  0  0
 60 62  1  0  0  0  0
 60135  1  0  0  0  0
 61 62  1  0  0  0  0
 61136  1  0  0  0  0
 61137  1  0  0  0  0
 62138  1  0  0  0  0
 63 65  1  0  0  0  0
 63139  1  0  0  0  0
 64 68  1  0  0  0  0
 64140  1  0  0  0  0
 65 67  1  0  0  0  0
 65141  1  0  0  0  0
 66 71  1  0  0  0  0
 66142  1  0  0  0  0
 67 70  1  0  0  0  0
 67143  1  0  0  0  0
 68 72  1  0  0  0  0
 68144  1  0  0  0  0
 69 70  1  0  0  0  0
 69 76  1  1  0  0  0
 69145  1  0  0  0  0
 70146  1  0  0  0  0
 71 75  1  0  0  0  0
 71147  1  0  0  0  0
 72 74  1  0  0  0  0
 72148  1  0  0  0  0
 73 74  1  0  0  0  0
 73 80  1  6  0  0  0
 73149  1  0  0  0  0
 74150  1  0  0  0  0
 75 79  1  0  0  0  0
 75151  1  0  0  0  0
 76152  1  0  0  0  0
 76153  1  0  0  0  0
 77 81  1  0  0  0  0
 77154  1  0  0  0  0
 78 79  1  0  0  0  0
 78155  1  0  0  0  0
 78156  1  0  0  0  0
 79159  1  0  0  0  0
 80162  1  0  0  0  0
 80163  1  0  0  0  0
 81 82  1  0  0  0  0
 81165  1  0  0  0  0
 82 84  1  0  0  0  0
 82169  1  0  0  0  0
 83 84  1  0  0  0  0
 83 85  1  1  0  0  0
 83171  1  0  0  0  0
 84172  1  0  0  0  0
 85175  1  0  0  0  0
 85176  1  0  0  0  0
M  END
> <PUBCHEM_COMPOUND_CID>
198016

> <PUBCHEM_COMPOUND_CANONICALIZED>
1

> <PUBCHEM_CACTVS_COMPLEXITY>
2340

> <PUBCHEM_CACTVS_HBOND_ACCEPTOR>
27

> <PUBCHEM_CACTVS_HBOND_DONOR>
15

> <PUBCHEM_CACTVS_ROTATABLE_BOND>
14

> <PUBCHEM_CACTVS_SUBSKEYS>
AAADcfB8PgAAAAAAAAAAAAAAAAAAASAAAAA0aNGjRIAAAEjAAAAAGgAACAAAD1SwgAMCCAAABgAIAAgQgAAAAAAAAAAAAAEAAAAREBIAAAAiQAAFAAAHAAHI7PzPgAAAAAAAAADCAAYAADAAAAAAAAAAAA==

> <PUBCHEM_IUPAC_OPENEYE_NAME>
(2R,4S,5R,10S,13R,14R,18S,20R)-10-[(2S,3R,4S,5S)-3-[(2S,3R,4S,5S,6R)-4,5-dihydroxy-6-(hydroxymethyl)-3-[(2R,3R,4S,5S,6R)-3,4,5-trihydroxy-6-(hydroxymethyl)tetrahydropyran-2-yl]oxy-tetrahydropyran-2-yl]oxy-4-[(2R,3R,4S,5S,6R)-3,4,5-trihydroxy-6-(hydroxymethyl)tetrahydropyran-2-yl]oxy-5-[(2S,3R,4S,5R)-3,4,5-trihydroxytetrahydropyran-2-yl]oxy-tetrahydropyran-2-yl]oxy-2-hydroxy-4,5,9,9,13,20-hexamethyl-24-oxahexacyclo[15.5.2.01,18.04,17.05,14.08,13]tetracosane-20-carbaldehyde

> <PUBCHEM_IUPAC_CAS_NAME>
(2R,4S,5R,10S,13R,14R,18S,20R)-10-[[(2S,3R,4S,5S)-3-[[(2S,3R,4S,5S,6R)-4,5-dihydroxy-6-(hydroxymethyl)-3-[[(2R,3R,4S,5S,6R)-3,4,5-trihydroxy-6-(hydroxymethyl)-2-oxanyl]oxy]-2-oxanyl]oxy]-4-[[(2R,3R,4S,5S,6R)-3,4,5-trihydroxy-6-(hydroxymethyl)-2-oxanyl]oxy]-5-[[(2S,3R,4S,5R)-3,4,5-trihydroxy-2-oxanyl]oxy]-2-oxanyl]oxy]-2-hydroxy-4,5,9,9,13,20-hexamethyl-24-oxahexacyclo[15.5.2.01,18.04,17.05,14.08,13]tetracosane-20-carboxaldehyde

> <PUBCHEM_IUPAC_NAME_MARKUP>
(2<I>R</I>,4<I>S</I>,5<I>R</I>,10<I>S</I>,13<I>R</I>,14<I>R</I>,18<I>S</I>,20<I>R</I>)-10-[(2<I>S</I>,3<I>R</I>,4<I>S</I>,5<I>S</I>)-3-[(2<I>S</I>,3<I>R</I>,4<I>S</I>,5<I>S</I>,6<I>R</I>)-4,5-dihydroxy-6-(hydroxymethyl)-3-[(2<I>R</I>,3<I>R</I>,4<I>S</I>,5<I>S</I>,6<I>R</I>)-3,4,5-trihydroxy-6-(hydroxymethyl)oxan-2-yl]oxyoxan-2-yl]oxy-4-[(2<I>R</I>,3<I>R</I>,4<I>S</I>,5<I>S</I>,6<I>R</I>)-3,4,5-trihydroxy-6-(hydroxymethyl)oxan-2-yl]oxy-5-[(2<I>S</I>,3<I>R</I>,4<I>S</I>,5<I>R</I>)-3,4,5-trihydroxyoxan-2-yl]oxyoxan-2-yl]oxy-2-hydroxy-4,5,9,9,13,20-hexamethyl-24-oxahexacyclo[15.5.2.0<SUP>1,18</SUP>.0<SUP>4,17</SUP>.0<SUP>5,14</SUP>.0<SUP>8,13</SUP>]tetracosane-20-carbaldehyde

> <PUBCHEM_IUPAC_NAME>
(2R,4S,5R,10S,13R,14R,18S,20R)-10-[(2S,3R,4S,5S)-3-[(2S,3R,4S,5S,6R)-4,5-dihydroxy-6-(hydroxymethyl)-3-[(2R,3R,4S,5S,6R)-3,4,5-trihydroxy-6-(hydroxymethyl)oxan-2-yl]oxyoxan-2-yl]oxy-4-[(2R,3R,4S,5S,6R)-3,4,5-trihydroxy-6-(hydroxymethyl)oxan-2-yl]oxy-5-[(2S,3R,4S,5R)-3,4,5-trihydroxyoxan-2-yl]oxyoxan-2-yl]oxy-2-hydroxy-4,5,9,9,13,20-hexamethyl-24-oxahexacyclo[15.5.2.01,18.04,17.05,14.08,13]tetracosane-20-carbaldehyde

> <PUBCHEM_IUPAC_SYSTEMATIC_NAME>
(2R,4S,5R,10S,13R,14R,18S,20R)-10-[(2S,3R,4S,5S)-3-[(2S,3R,4S,5S,6R)-6-(hydroxymethyl)-3-[(2R,3R,4S,5S,6R)-6-(hydroxymethyl)-3,4,5-tris(oxidanyl)oxan-2-yl]oxy-4,5-bis(oxidanyl)oxan-2-yl]oxy-4-[(2R,3R,4S,5S,6R)-6-(hydroxymethyl)-3,4,5-tris(oxidanyl)oxan-2-yl]oxy-5-[(2S,3R,4S,5R)-3,4,5-tris(oxidanyl)oxan-2-yl]oxy-oxan-2-yl]oxy-4,5,9,9,13,20-hexamethyl-2-oxidanyl-24-oxahexacyclo[15.5.2.01,18.04,17.05,14.08,13]tetracosane-20-carbaldehyde

> <PUBCHEM_IUPAC_TRADITIONAL_NAME>
(2R,4S,5R,10S,13R,14R,18S,20R)-10-[(2S,3R,4S,5S)-3-[(2S,3R,4S,5S,6R)-4,5-dihydroxy-6-methylol-3-[(2R,3R,4S,5S,6R)-3,4,5-trihydroxy-6-methylol-tetrahydropyran-2-yl]oxy-tetrahydropyran-2-yl]oxy-4-[(2R,3R,4S,5S,6R)-3,4,5-trihydroxy-6-methylol-tetrahydropyran-2-yl]oxy-5-[(2S,3R,4S,5R)-3,4,5-trihydroxytetrahydropyran-2-yl]oxy-tetrahydropyran-2-yl]oxy-2-hydroxy-4,5,9,9,13,20-hexamethyl-24-oxahexacyclo[15.5.2.01,18.04,17.05,14.08,13]tetracosane-20-carbaldehyde

> <PUBCHEM_IUPAC_INCHI>
InChI=1S/C58H94O27/c1-52(2)29-7-11-55(5)30(8-12-58-31-15-53(3,22-62)13-14-57(31,23-77-58)32(64)16-56(55,58)6)54(29,4)10-9-33(52)82-50-46(85-51-45(40(71)37(68)27(19-61)80-51)84-49-43(74)39(70)36(67)26(18-60)79-49)44(83-48-42(73)38(69)35(66)25(17-59)78-48)28(21-76-50)81-47-41(72)34(65)24(63)20-75-47/h22,24-51,59-61,63-74H,7-21,23H2,1-6H3/t24-,25-,26-,27-,28+,29?,30-,31+,32-,33+,34+,35-,36-,37-,38+,39+,40+,41-,42-,43-,44+,45-,46-,47+,48-,49-,50+,51+,53-,54+,55-,56+,57?,58?/m1/s1

> <PUBCHEM_IUPAC_INCHIKEY>
MAEBCGDGGATMSC-OSHGGGOQSA-N

> <PUBCHEM_XLOGP3_AA>
-2.7

> <PUBCHEM_EXACT_MASS>
1222.598248

> <PUBCHEM_MOLECULAR_FORMULA>
C58H94O27

> <PUBCHEM_MOLECULAR_WEIGHT>
1223.3

> <PUBCHEM_OPENEYE_CAN_SMILES>
CC1(C2CCC3(C(C2(CCC1OC4C(C(C(CO4)OC5C(C(C(CO5)O)O)O)OC6C(C(C(C(O6)CO)O)O)O)OC7C(C(C(C(O7)CO)O)O)OC8C(C(C(C(O8)CO)O)O)O)C)CCC91C3(CC(C2(C9CC(CC2)(C)C=O)CO1)O)C)C)C

> <PUBCHEM_OPENEYE_ISO_SMILES>
C[C@]1(CCC23COC4([C@H]2C1)CC[C@@H]5[C@]6(CC[C@@H](C(C6CC[C@]5([C@@]4(C[C@H]3O)C)C)(C)C)O[C@H]7[C@@H]([C@H]([C@H](CO7)O[C@H]8[C@@H]([C@H]([C@@H](CO8)O)O)O)O[C@@H]9[C@@H]([C@H]([C@@H]([C@H](O9)CO)O)O)O)O[C@H]1[C@@H]([C@H]([C@@H]([C@H](O1)CO)O)O)O[C@@H]1[C@@H]([C@H]([C@@H]([C@H](O1)CO)O)O)O)C)C=O

> <PUBCHEM_CACTVS_TPSA>
422

> <PUBCHEM_MONOISOTOPIC_WEIGHT>
1222.598248

> <PUBCHEM_TOTAL_CHARGE>
0

> <PUBCHEM_HEAVY_ATOM_COUNT>
85

> <PUBCHEM_ATOM_DEF_STEREO_COUNT>
31

> <PUBCHEM_ATOM_UDEF_STEREO_COUNT>
3

> <PUBCHEM_BOND_DEF_STEREO_COUNT>
0

> <PUBCHEM_BOND_UDEF_STEREO_COUNT>
0

> <PUBCHEM_ISOTOPIC_ATOM_COUNT>
0

> <PUBCHEM_COMPONENT_COUNT>
1

> <PUBCHEM_CACTVS_TAUTO_COUNT>
-1

> <PUBCHEM_COORDINATE_TYPE>
1
5
255

> <PUBCHEM_BONDANNOTATIONS>
65  11  6
77  11  6
67  13  5
68  14  5
70  15  6
71  16  6
72  17  6
74  18  5
75  19  5
37  2  6
79  22  6
81  24  6
82  25  5
84  26  6
28  45  6
29  36  3
52  3  5
58  3  6
30  46  5
31  86  6
32  87  6
33  43  3
34  51  5
39  44  3
49  56  5
59  6  5
63  6  5
69  76  5
60  7  6
64  7  5
73  80  6
62  8  6
66  8  5
83  85  5

$$$$
