6325794
  -OEChem-11212000043D

 52 55  0     1  0  0  0  0  0999 V2000
   -1.2164   -2.3759    0.7796 O   0  0  0  0  0  0  0  0  0  0  0  0
   -0.7737   -0.6569   -0.7922 O   0  0  0  0  0  0  0  0  0  0  0  0
   -4.9709   -1.7247   -0.8821 O   0  0  0  0  0  0  0  0  0  0  0  0
   -3.8704   -3.5886    0.8650 O   0  0  0  0  0  0  0  0  0  0  0  0
   -3.6271   -0.8677    1.4421 O   0  0  0  0  0  0  0  0  0  0  0  0
    2.0183    1.6146    0.0033 O   0  0  0  0  0  0  0  0  0  0  0  0
    1.4222   -2.3595   -0.6715 O   0  0  0  0  0  0  0  0  0  0  0  0
    3.9738   -2.8081   -0.3182 O   0  0  0  0  0  0  0  0  0  0  0  0
    6.6752    0.9720    0.6603 O   0  0  0  0  0  0  0  0  0  0  0  0
   -2.6407    3.7484    2.0125 O   0  0  0  0  0  0  0  0  0  0  0  0
   -3.2283    5.0788   -0.3562 O   0  0  0  0  0  0  0  0  0  0  0  0
   -3.5574   -1.8515   -0.7824 C   0  0  2  0  0  0  0  0  0  0  0  0
   -3.1902   -3.2726   -0.3490 C   0  0  1  0  0  0  0  0  0  0  0  0
   -2.9831   -0.7985    0.1709 C   0  0  2  0  0  0  0  0  0  0  0  0
   -1.6702   -3.3660   -0.1534 C   0  0  2  0  0  0  0  0  0  0  0  0
   -1.4851   -1.0250    0.3852 C   0  0  1  0  0  0  0  0  0  0  0  0
   -1.2232   -4.7235    0.3771 C   0  0  0  0  0  0  0  0  0  0  0  0
    0.4893   -0.1897   -0.4994 C   0  0  0  0  0  0  0  0  0  0  0  0
    0.7560    1.1075   -0.2612 C   0  0  0  0  0  0  0  0  0  0  0  0
    1.6039   -1.1671   -0.4646 C   0  0  0  0  0  0  0  0  0  0  0  0
    2.9390   -0.6247   -0.1698 C   0  0  0  0  0  0  0  0  0  0  0  0
    3.0764    0.7442    0.0494 C   0  0  0  0  0  0  0  0  0  0  0  0
   -0.2882    2.1472   -0.2827 C   0  0  0  0  0  0  0  0  0  0  0  0
    4.0542   -1.4642   -0.1114 C   0  0  0  0  0  0  0  0  0  0  0  0
    4.3326    1.2834    0.3284 C   0  0  0  0  0  0  0  0  0  0  0  0
   -0.9820    2.4641    0.8856 C   0  0  0  0  0  0  0  0  0  0  0  0
   -0.5839    2.8151   -1.4714 C   0  0  0  0  0  0  0  0  0  0  0  0
    5.3093   -0.9225    0.1684 C   0  0  0  0  0  0  0  0  0  0  0  0
    5.4485    0.4485    0.3879 C   0  0  0  0  0  0  0  0  0  0  0  0
   -1.9704    3.4481    0.8652 C   0  0  0  0  0  0  0  0  0  0  0  0
   -1.5723    3.7991   -1.4918 C   0  0  0  0  0  0  0  0  0  0  0  0
   -2.2655    4.1156   -0.3235 C   0  0  0  0  0  0  0  0  0  0  0  0
   -3.1511   -1.6763   -1.7860 H   0  0  0  0  0  0  0  0  0  0  0  0
   -3.5336   -3.9951   -1.0971 H   0  0  0  0  0  0  0  0  0  0  0  0
   -3.1808    0.1991   -0.2379 H   0  0  0  0  0  0  0  0  0  0  0  0
   -1.1698   -3.1975   -1.1151 H   0  0  0  0  0  0  0  0  0  0  0  0
   -1.1705   -0.4117    1.2388 H   0  0  0  0  0  0  0  0  0  0  0  0
   -1.6168   -4.9089    1.3823 H   0  0  0  0  0  0  0  0  0  0  0  0
   -1.5458   -5.5332   -0.2841 H   0  0  0  0  0  0  0  0  0  0  0  0
   -0.1314   -4.7565    0.4611 H   0  0  0  0  0  0  0  0  0  0  0  0
   -5.3412   -1.8698    0.0054 H   0  0  0  0  0  0  0  0  0  0  0  0
   -3.5050   -3.0275    1.5698 H   0  0  0  0  0  0  0  0  0  0  0  0
   -3.2794   -0.1418    1.9879 H   0  0  0  0  0  0  0  0  0  0  0  0
    4.4435    2.3512    0.4995 H   0  0  0  0  0  0  0  0  0  0  0  0
   -0.7492    1.9499    1.8155 H   0  0  0  0  0  0  0  0  0  0  0  0
   -0.0518    2.5794   -2.3899 H   0  0  0  0  0  0  0  0  0  0  0  0
    6.1839   -1.5674    0.2162 H   0  0  0  0  0  0  0  0  0  0  0  0
   -1.7975    4.3154   -2.4211 H   0  0  0  0  0  0  0  0  0  0  0  0
    4.8584   -3.2031   -0.2328 H   0  0  0  0  0  0  0  0  0  0  0  0
    7.3316    0.2543    0.6626 H   0  0  0  0  0  0  0  0  0  0  0  0
   -2.3063    3.1856    2.7318 H   0  0  0  0  0  0  0  0  0  0  0  0
   -3.6031    5.1669    0.5374 H   0  0  0  0  0  0  0  0  0  0  0  0
  1 15  1  0  0  0  0
  1 16  1  0  0  0  0
  2 16  1  0  0  0  0
  2 18  1  0  0  0  0
  3 12  1  0  0  0  0
  3 41  1  0  0  0  0
  4 13  1  0  0  0  0
  4 42  1  0  0  0  0
  5 14  1  0  0  0  0
  5 43  1  0  0  0  0
  6 19  1  0  0  0  0
  6 22  1  0  0  0  0
  7 20  2  0  0  0  0
  8 24  1  0  0  0  0
  8 49  1  0  0  0  0
  9 29  1  0  0  0  0
  9 50  1  0  0  0  0
 10 30  1  0  0  0  0
 10 51  1  0  0  0  0
 11 32  1  0  0  0  0
 11 52  1  0  0  0  0
 12 13  1  0  0  0  0
 12 14  1  0  0  0  0
 12 33  1  0  0  0  0
 13 15  1  0  0  0  0
 13 34  1  0  0  0  0
 14 16  1  0  0  0  0
 14 35  1  0  0  0  0
 15 17  1  0  0  0  0
 15 36  1  0  0  0  0
 16 37  1  0  0  0  0
 17 38  1  0  0  0  0
 17 39  1  0  0  0  0
 17 40  1  0  0  0  0
 18 19  2  0  0  0  0
 18 20  1  0  0  0  0
 19 23  1  0  0  0  0
 20 21  1  0  0  0  0
 21 22  1  0  0  0  0
 21 24  2  0  0  0  0
 22 25  2  0  0  0  0
 23 26  2  0  0  0  0
 23 27  1  0  0  0  0
 24 28  1  0  0  0  0
 25 29  1  0  0  0  0
 25 44  1  0  0  0  0
 26 30  1  0  0  0  0
 26 45  1  0  0  0  0
 27 31  2  0  0  0  0
 27 46  1  0  0  0  0
 28 29  2  0  0  0  0
 28 47  1  0  0  0  0
 30 32  2  0  0  0  0
 31 32  1  0  0  0  0
 31 48  1  0  0  0  0
M  END
> <PUBCHEM_COMPOUND_CID>
6325794

> <PUBCHEM_CONFORMER_RMSD>
0.8

> <PUBCHEM_CONFORMER_DIVERSEORDER>
1
16
47
28
53
46
49
29
39
24
35
6
8
32
33
12
18
45
50
48
41
34
25
30
5
40
23
21
26
14
3
44
13
9
42
31
36
51
37
19
17
15
7
10
38
43
27
2
4
22
20
52
11

> <PUBCHEM_MMFF94_PARTIAL_CHARGES>
43
1 -0.56
10 -0.53
11 -0.53
12 0.28
13 0.28
14 0.28
15 0.28
16 0.56
18 0.09
19 0.05
2 -0.36
20 0.47
21 0.09
22 0.08
23 0.03
24 0.08
25 -0.15
26 -0.15
27 -0.15
28 -0.15
29 0.08
3 -0.68
30 0.08
31 -0.15
32 0.08
4 -0.68
41 0.4
42 0.4
43 0.4
44 0.15
45 0.15
46 0.15
47 0.15
48 0.15
49 0.45
5 -0.68
50 0.45
51 0.45
52 0.45
6 -0.16
7 -0.57
8 -0.53
9 -0.53

> <PUBCHEM_EFFECTIVE_ROTOR_COUNT>
4.2

> <PUBCHEM_PHARMACOPHORE_FEATURES>
18
1 1 acceptor
1 10 donor
1 11 donor
1 2 acceptor
1 3 acceptor
1 3 donor
1 4 acceptor
1 4 donor
1 5 acceptor
1 5 donor
1 6 acceptor
1 7 acceptor
1 8 donor
1 9 donor
6 1 12 13 14 15 16 rings
6 21 22 24 25 28 29 rings
6 23 26 27 30 31 32 rings
6 6 18 19 20 21 22 rings

> <PUBCHEM_HEAVY_ATOM_COUNT>
32

> <PUBCHEM_ATOM_DEF_STEREO_COUNT>
5

> <PUBCHEM_ATOM_UDEF_STEREO_COUNT>
0

> <PUBCHEM_BOND_DEF_STEREO_COUNT>
0

> <PUBCHEM_BOND_UDEF_STEREO_COUNT>
0

> <PUBCHEM_ISOTOPIC_ATOM_COUNT>
0

> <PUBCHEM_COMPONENT_COUNT>
1

> <PUBCHEM_CACTVS_TAUTO_COUNT>
162

> <PUBCHEM_CONFORMER_ID>
0060862200000001

> <PUBCHEM_MMFF94_ENERGY>
101.282

> <PUBCHEM_FEATURE_SELFOVERLAP>
91.456

> <PUBCHEM_SHAPE_FINGERPRINT>
10050765 1 18338514141764106414
10930396 42 17907259442857001016
11115154 58 17844785132638645613
11456790 92 18192723448302471475
12156800 1 18049969296027108073
12160290 23 18122658017933778201
12422481 6 17977702764831468657
12553582 1 18193577746227902743
12788726 201 18262225703474204922
13004483 165 18338508741835155186
13140716 1 18051126192960559018
13540713 4 18201719510611515518
13692114 37 18052233138892108821
138480 1 16176505643384586957
14028597 1 17677309707064505250
140371 6 18335706095617847636
14790565 3 17906732497039947285
14866123 147 18194402186628058442
14955137 171 17401203873060258664
15131766 46 15265068168885630024
15230672 131 17830746353274875302
15775530 1 17843701966822805238
15927050 60 17835518219988818799
17138139 8 17624651780212962213
17980427 23 17631465625542093963
20600515 1 18196388110901867943
20642791 13 18411979139605497548
21049683 118 17975107882555529080
21641784 216 18188784941173559828
21796203 349 17395890977130019578
23558518 356 18261115128142516602
23559900 14 17617649299761334851
23845131 108 18048598110453769313
255183 313 18269288876256858297
283562 15 18410003313179335935
3027735 51 18268703922958761999
3380486 145 18264777734355594675
350125 39 18412544345182380480
3886686 26 17760046707382891434
4015057 19 17905595954811092639
4058900 60 17620483406782806512
4409770 3 18261660524506791725
463206 1 18047472519642485106
5104073 3 18339346472108336874
6004065 56 17981308299286585767
6086070 43 18045762728312969979
653340 110 18411131403603700834
6669772 16 17548136628074785102
9777508 108 18339073779469743000

> <PUBCHEM_SHAPE_MULTIPOLES>
593.98
9.76
6.7
1.11
13.72
2.68
0.13
-2.94
1.38
-9.6
0.08
-0.87
0.76
0.25

> <PUBCHEM_SHAPE_SELFOVERLAP>
1311.11

> <PUBCHEM_SHAPE_VOLUME>
314.9

> <PUBCHEM_COORDINATE_TYPE>
2
5
10

$$$$
