1794425
  -OEChem-11212000073D

 43 44  0     1  0  0  0  0  0999 V2000
   -1.1839    1.1789   -0.7544 O   0  0  0  0  0  0  0  0  0  0  0  0
   -5.2023   -0.3891    0.0978 O   0  0  0  0  0  0  0  0  0  0  0  0
   -1.6740   -2.2779   -1.8422 O   0  0  0  0  0  0  0  0  0  0  0  0
   -1.1267   -2.8078    0.8496 O   0  0  0  0  0  0  0  0  0  0  0  0
   -4.0944    2.0489    0.6503 O   0  0  0  0  0  0  0  0  0  0  0  0
   -2.8937    0.8005    2.1320 O   0  0  0  0  0  0  0  0  0  0  0  0
    0.9035    0.5524   -1.5211 O   0  0  0  0  0  0  0  0  0  0  0  0
    3.0960   -2.1923    1.1211 O   0  0  0  0  0  0  0  0  0  0  0  0
    5.5667   -1.7039   -0.0552 O   0  0  0  0  0  0  0  0  0  0  0  0
   -3.7851   -0.2379    0.1128 C   0  0  2  0  0  0  0  0  0  0  0  0
   -1.7863    0.1042   -1.4690 C   0  0  2  0  0  0  0  0  0  0  0  0
   -3.3094    0.1653   -1.2875 C   0  0  0  0  0  0  0  0  0  0  0  0
   -3.1442   -1.5293    0.6160 C   0  0  0  0  0  0  0  0  0  0  0  0
   -1.2065   -1.2311   -0.9915 C   0  0  1  0  0  0  0  0  0  0  0  0
   -1.6237   -1.5326    0.4526 C   0  0  2  0  0  0  0  0  0  0  0  0
   -3.5252    0.9002    1.0905 C   0  0  0  0  0  0  0  0  0  0  0  0
    0.1707    1.2819   -0.8721 C   0  0  0  0  0  0  0  0  0  0  0  0
    0.6097    2.4442   -0.0670 C   0  0  0  0  0  0  0  0  0  0  0  0
    1.8344    2.4454    0.4782 C   0  0  0  0  0  0  0  0  0  0  0  0
    2.8131    1.3525    0.3395 C   0  0  0  0  0  0  0  0  0  0  0  0
    2.4870    0.0873    0.8003 C   0  0  0  0  0  0  0  0  0  0  0  0
    4.0404    1.6117   -0.2486 C   0  0  0  0  0  0  0  0  0  0  0  0
    3.4135   -0.9470    0.6691 C   0  0  0  0  0  0  0  0  0  0  0  0
    4.9670    0.5774   -0.3799 C   0  0  0  0  0  0  0  0  0  0  0  0
    4.6534   -0.7020    0.0790 C   0  0  0  0  0  0  0  0  0  0  0  0
   -1.5817    0.2398   -2.5395 H   0  0  0  0  0  0  0  0  0  0  0  0
   -3.6714    1.1650   -1.5575 H   0  0  0  0  0  0  0  0  0  0  0  0
   -3.7764   -0.5130   -2.0150 H   0  0  0  0  0  0  0  0  0  0  0  0
   -3.5761   -2.3871    0.0814 H   0  0  0  0  0  0  0  0  0  0  0  0
   -3.4031   -1.7201    1.6664 H   0  0  0  0  0  0  0  0  0  0  0  0
   -0.1207   -1.3002   -1.0456 H   0  0  0  0  0  0  0  0  0  0  0  0
   -1.1736   -0.7971    1.1275 H   0  0  0  0  0  0  0  0  0  0  0  0
   -5.4807   -0.7296    0.9653 H   0  0  0  0  0  0  0  0  0  0  0  0
   -1.3405   -3.1182   -1.4839 H   0  0  0  0  0  0  0  0  0  0  0  0
   -0.1589   -2.7872    0.7557 H   0  0  0  0  0  0  0  0  0  0  0  0
   -3.9371    2.7954    1.2669 H   0  0  0  0  0  0  0  0  0  0  0  0
   -0.0793    3.2655    0.0920 H   0  0  0  0  0  0  0  0  0  0  0  0
    2.1615    3.3061    1.0552 H   0  0  0  0  0  0  0  0  0  0  0  0
    1.5306   -0.1147    1.2770 H   0  0  0  0  0  0  0  0  0  0  0  0
    4.2957    2.6041   -0.6105 H   0  0  0  0  0  0  0  0  0  0  0  0
    5.9312    0.7746   -0.8407 H   0  0  0  0  0  0  0  0  0  0  0  0
    3.9084   -2.6966    1.2887 H   0  0  0  0  0  0  0  0  0  0  0  0
    5.1157   -2.5632   -0.0303 H   0  0  0  0  0  0  0  0  0  0  0  0
  1 11  1  0  0  0  0
  1 17  1  0  0  0  0
  2 10  1  0  0  0  0
  2 33  1  0  0  0  0
  3 14  1  0  0  0  0
  3 34  1  0  0  0  0
  4 15  1  0  0  0  0
  4 35  1  0  0  0  0
  5 16  1  0  0  0  0
  5 36  1  0  0  0  0
  6 16  2  0  0  0  0
  7 17  2  0  0  0  0
  8 23  1  0  0  0  0
  8 42  1  0  0  0  0
  9 25  1  0  0  0  0
  9 43  1  0  0  0  0
 10 12  1  0  0  0  0
 10 13  1  0  0  0  0
 10 16  1  0  0  0  0
 11 12  1  0  0  0  0
 11 14  1  0  0  0  0
 11 26  1  0  0  0  0
 12 27  1  0  0  0  0
 12 28  1  0  0  0  0
 13 15  1  0  0  0  0
 13 29  1  0  0  0  0
 13 30  1  0  0  0  0
 14 15  1  0  0  0  0
 14 31  1  0  0  0  0
 15 32  1  0  0  0  0
 17 18  1  0  0  0  0
 18 19  2  0  0  0  0
 18 37  1  0  0  0  0
 19 20  1  0  0  0  0
 19 38  1  0  0  0  0
 20 21  2  0  0  0  0
 20 22  1  0  0  0  0
 21 23  1  0  0  0  0
 21 39  1  0  0  0  0
 22 24  2  0  0  0  0
 22 40  1  0  0  0  0
 23 25  2  0  0  0  0
 24 25  1  0  0  0  0
 24 41  1  0  0  0  0
M  END
> <PUBCHEM_COMPOUND_CID>
1794425

> <PUBCHEM_CONFORMER_RMSD>
0.8

> <PUBCHEM_CONFORMER_DIVERSEORDER>
1
74
130
41
126
55
76
128
105
52
152
38
64
78
117
26
97
141
99
102
143
151
3
47
100
115
118
70
46
120
133
145
135
131
113
93
54
43
19
148
60
86
103
153
12
27
23
94
40
88
69
134
7
98
37
101
61
53
49
32
8
112
139
114
13
77
42
66
106
51
132
20
80
35
57
36
81
96
144
129
73
71
91
138
45
5
124
63
90
109
30
65
6
140
18
146
44
10
33
116
127
79
58
149
25
104
125
34
107
2
31
67
136
119
75
17
72
83
14
122
9
4
87
137
147
62
111
92
15
95
29
48
28
150
59
108
24
82
84
56
123
11
22
89
110
68
39
142
85
16
21
121
50

> <PUBCHEM_MMFF94_PARTIAL_CHARGES>
34
1 -0.43
10 0.34
11 0.28
14 0.28
15 0.28
16 0.66
17 0.71
18 -0.14
19 -0.18
2 -0.68
20 0.03
21 -0.15
22 -0.15
23 0.08
24 -0.15
25 0.08
3 -0.68
33 0.4
34 0.4
35 0.4
36 0.5
37 0.15
38 0.15
39 0.15
4 -0.68
40 0.15
41 0.15
42 0.45
43 0.45
5 -0.65
6 -0.57
7 -0.57
8 -0.53
9 -0.53

> <PUBCHEM_EFFECTIVE_ROTOR_COUNT>
6.2

> <PUBCHEM_PHARMACOPHORE_FEATURES>
14
1 2 acceptor
1 2 donor
1 3 acceptor
1 3 donor
1 4 acceptor
1 4 donor
1 5 acceptor
1 6 acceptor
1 7 acceptor
1 8 donor
1 9 donor
3 5 6 16 anion
6 10 11 12 13 14 15 rings
6 20 21 22 23 24 25 rings

> <PUBCHEM_HEAVY_ATOM_COUNT>
25

> <PUBCHEM_ATOM_DEF_STEREO_COUNT>
4

> <PUBCHEM_ATOM_UDEF_STEREO_COUNT>
0

> <PUBCHEM_BOND_DEF_STEREO_COUNT>
1

> <PUBCHEM_BOND_UDEF_STEREO_COUNT>
0

> <PUBCHEM_ISOTOPIC_ATOM_COUNT>
0

> <PUBCHEM_COMPONENT_COUNT>
1

> <PUBCHEM_CACTVS_TAUTO_COUNT>
10

> <PUBCHEM_CONFORMER_ID>
001B617900000001

> <PUBCHEM_MMFF94_ENERGY>
74.2554

> <PUBCHEM_FEATURE_SELFOVERLAP>
71.124

> <PUBCHEM_SHAPE_FINGERPRINT>
10042902 136 14347801632785317329
107951 10 16226883325382207129
11552529 35 18055353792993498958
11615756 56 11023838296437845570
12011746 2 17967526866267590071
12107183 9 18197503913187805649
121448 382 10087643688961286797
12553582 1 18337094706000365328
12596602 18 17989203793490393288
12633257 1 18336819815103355978
12670546 177 13551193281928230468
12670546 56 17988637544801868569
12788726 201 17917160411615857744
128620 24 14996278137243643884
13224815 77 17749381585931446200
13533116 47 18268427013605964481
13583140 156 18264491865758864657
14617045 38 18113903775252100974
15537594 2 18409731790053261686
17349148 13 17561078146421803085
1813 80 17095239246024925884
19930381 70 18189890912036659027
21033648 29 18115286956606475517
21403212 168 18268431235817636881
22950370 63 18409733950268966932
23557571 272 15482395352214195237
23559900 14 18267015236317980321
345986 75 18266729199816762200
3633792 109 18262504992692584349
6287921 2 17608095587202896396
7097593 13 18269551817790199197

> <PUBCHEM_SHAPE_MULTIPOLES>
461.66
10.29
2.64
1.4
5.06
0.33
0.11
1.33
-1.38
0.62
-0.37
-1.09
0.13
-0.76

> <PUBCHEM_SHAPE_SELFOVERLAP>
987.282

> <PUBCHEM_SHAPE_VOLUME>
251.7

> <PUBCHEM_COORDINATE_TYPE>
2
5
10

$$$$
