44259269
  -OEChem-11212000212D

 93 98  0     1  0  0  0  0  0999 V2000
    6.8779   -3.1330    0.0000 O   0  0  0  0  0  0  0  0  0  0  0  0
    5.1459   -1.1329    0.0000 O   0  0  0  0  0  0  0  0  0  0  0  0
    6.0119   -4.6330    0.0000 O   0  0  0  0  0  0  0  0  0  0  0  0
    6.8779   -1.1329    0.0000 O   0  0  0  0  0  0  0  0  0  0  0  0
    5.1459   -4.1330    0.0000 O   0  0  0  0  0  0  0  0  0  0  0  0
    3.4138   -3.1330    0.0000 O   0  0  0  0  0  0  0  0  0  0  0  0
    8.6100   -4.1330    0.0000 O   0  0  0  0  0  0  0  0  0  0  0  0
    8.6100   -6.1330    0.0000 O   0  0  0  0  0  0  0  0  0  0  0  0
    6.8779   -7.1330    0.0000 O   0  0  0  0  0  0  0  0  0  0  0  0
    5.1396    5.9396    0.0000 O   0  0  0  0  0  0  0  0  0  0  0  0
    2.5478   -1.6329    0.0000 O   0  0  0  0  0  0  0  0  0  0  0  0
    5.9998    4.4363    0.0000 O   0  0  0  0  0  0  0  0  0  0  0  0
    2.5357    4.4496    0.0000 O   0  0  0  0  0  0  0  0  0  0  0  0
    2.5434    6.4496    0.0000 O   0  0  0  0  0  0  0  0  0  0  0  0
    4.2639    3.4430    0.0000 O   0  0  0  0  0  0  0  0  0  0  0  0
    7.7440    1.3671    0.0000 O   0  0  0  0  0  0  0  0  0  0  0  0
    5.1459   -0.1330    0.0000 O   0  0  0  0  0  0  0  0  0  0  0  0
    4.2417    1.3639    0.0000 O   0  0  0  0  0  0  0  0  0  0  0  0
   11.2081    0.3670    0.0000 O   0  0  0  0  0  0  0  0  0  0  0  0
   11.2081   -1.6329    0.0000 O   0  0  0  0  0  0  0  0  0  0  0  0
    6.0119   -2.6330    0.0000 C   0  0  3  0  0  0  0  0  0  0  0  0
    5.1459   -3.1330    0.0000 C   0  0  1  0  0  0  0  0  0  0  0  0
    4.2799   -2.6330    0.0000 C   0  0  1  0  0  0  0  0  0  0  0  0
    6.8779   -4.1330    0.0000 C   0  0  2  0  0  0  0  0  0  0  0  0
    6.0119   -1.6329    0.0000 C   0  0  1  0  0  0  0  0  0  0  0  0
    7.7440   -4.6330    0.0000 C   0  0  3  0  0  0  0  0  0  0  0  0
    4.2799   -1.6329    0.0000 C   0  0  3  0  0  0  0  0  0  0  0  0
    7.7440   -5.6330    0.0000 C   0  0  3  0  0  0  0  0  0  0  0  0
    6.8779   -6.1330    0.0000 C   0  0  2  0  0  0  0  0  0  0  0  0
    6.0119   -5.6330    0.0000 C   0  0  1  0  0  0  0  0  0  0  0  0
    3.4138   -1.1329    0.0000 C   0  0  0  0  0  0  0  0  0  0  0  0
    5.1459   -6.1330    0.0000 C   0  0  0  0  0  0  0  0  0  0  0  0
    3.4037    4.9463    0.0000 C   0  0  3  0  0  0  0  0  0  0  0  0
    3.4075    5.9463    0.0000 C   0  0  2  0  0  0  0  0  0  0  0  0
    4.2678    4.4430    0.0000 C   0  0  3  0  0  0  0  0  0  0  0  0
    4.2755    6.4430    0.0000 C   0  0  3  0  0  0  0  0  0  0  0  0
    5.1357    4.9396    0.0000 C   0  0  1  0  0  0  0  0  0  0  0  0
    6.8779   -0.1330    0.0000 C   0  0  0  0  0  0  0  0  0  0  0  0
    4.2793    7.4430    0.0000 C   0  0  0  0  0  0  0  0  0  0  0  0
    7.7440    0.3670    0.0000 C   0  0  0  0  0  0  0  0  0  0  0  0
    6.0119    0.3670    0.0000 C   0  0  0  0  0  0  0  0  0  0  0  0
    6.0119    1.3671    0.0000 C   0  0  0  0  0  0  0  0  0  0  0  0
    5.9960    3.4363    0.0000 C   0  0  0  0  0  0  0  0  0  0  0  0
    6.8779    1.8670    0.0000 C   0  0  0  0  0  0  0  0  0  0  0  0
    6.8940    2.9086    0.0000 C   0  0  0  0  0  0  0  0  0  0  0  0
    5.1019    1.8739    0.0000 C   0  0  0  0  0  0  0  0  0  0  0  0
    8.6100   -0.1330    0.0000 C   0  0  0  0  0  0  0  0  0  0  0  0
    5.0939    2.9155    0.0000 C   0  0  0  0  0  0  0  0  0  0  0  0
    9.4760    0.3670    0.0000 C   0  0  0  0  0  0  0  0  0  0  0  0
    8.6100   -1.1329    0.0000 C   0  0  0  0  0  0  0  0  0  0  0  0
   10.3420   -0.1330    0.0000 C   0  0  0  0  0  0  0  0  0  0  0  0
    9.4760   -1.6329    0.0000 C   0  0  0  0  0  0  0  0  0  0  0  0
   10.3420   -1.1329    0.0000 C   0  0  0  0  0  0  0  0  0  0  0  0
    6.0119   -3.2529    0.0000 H   0  0  0  0  0  0  0  0  0  0  0  0
    4.6090   -3.4430    0.0000 H   0  0  0  0  0  0  0  0  0  0  0  0
    3.7429   -2.3230    0.0000 H   0  0  0  0  0  0  0  0  0  0  0  0
    7.4149   -3.8230    0.0000 H   0  0  0  0  0  0  0  0  0  0  0  0
    6.0119   -1.0130    0.0000 H   0  0  0  0  0  0  0  0  0  0  0  0
    8.2809   -4.9430    0.0000 H   0  0  0  0  0  0  0  0  0  0  0  0
    4.2799   -1.0130    0.0000 H   0  0  0  0  0  0  0  0  0  0  0  0
    8.2809   -5.3229    0.0000 H   0  0  0  0  0  0  0  0  0  0  0  0
    7.4149   -6.4430    0.0000 H   0  0  0  0  0  0  0  0  0  0  0  0
    5.4750   -5.3229    0.0000 H   0  0  0  0  0  0  0  0  0  0  0  0
    3.8124   -0.6580    0.0000 H   0  0  0  0  0  0  0  0  0  0  0  0
    3.0153   -0.6580    0.0000 H   0  0  0  0  0  0  0  0  0  0  0  0
    4.8359   -5.5960    0.0000 H   0  0  0  0  0  0  0  0  0  0  0  0
    4.6090   -6.4430    0.0000 H   0  0  0  0  0  0  0  0  0  0  0  0
    5.4559   -6.6699    0.0000 H   0  0  0  0  0  0  0  0  0  0  0  0
    4.6090   -4.4430    0.0000 H   0  0  0  0  0  0  0  0  0  0  0  0
    3.9418    5.2542    0.0000 H   0  0  0  0  0  0  0  0  0  0  0  0
    2.8694    5.6384    0.0000 H   0  0  0  0  0  0  0  0  0  0  0  0
    3.4138   -3.7530    0.0000 H   0  0  0  0  0  0  0  0  0  0  0  0
    3.7296    4.1350    0.0000 H   0  0  0  0  0  0  0  0  0  0  0  0
    4.8136    6.7509    0.0000 H   0  0  0  0  0  0  0  0  0  0  0  0
    9.1469   -4.4430    0.0000 H   0  0  0  0  0  0  0  0  0  0  0  0
    5.1333    4.3196    0.0000 H   0  0  0  0  0  0  0  0  0  0  0  0
    8.6100   -6.7530    0.0000 H   0  0  0  0  0  0  0  0  0  0  0  0
    6.3410   -7.4430    0.0000 H   0  0  0  0  0  0  0  0  0  0  0  0
    4.8993    7.4406    0.0000 H   0  0  0  0  0  0  0  0  0  0  0  0
    4.2817    8.0630    0.0000 H   0  0  0  0  0  0  0  0  0  0  0  0
    3.6593    7.4453    0.0000 H   0  0  0  0  0  0  0  0  0  0  0  0
    2.0109   -1.3230    0.0000 H   0  0  0  0  0  0  0  0  0  0  0  0
    2.0000    4.7617    0.0000 H   0  0  0  0  0  0  0  0  0  0  0  0
    2.5458    7.0696    0.0000 H   0  0  0  0  0  0  0  0  0  0  0  0
    3.7258    3.1351    0.0000 H   0  0  0  0  0  0  0  0  0  0  0  0
    7.4345    3.2123    0.0000 H   0  0  0  0  0  0  0  0  0  0  0  0
    4.5558    3.2234    0.0000 H   0  0  0  0  0  0  0  0  0  0  0  0
    9.4760    0.9870    0.0000 H   0  0  0  0  0  0  0  0  0  0  0  0
    8.0730   -1.4430    0.0000 H   0  0  0  0  0  0  0  0  0  0  0  0
    3.7012    1.6677    0.0000 H   0  0  0  0  0  0  0  0  0  0  0  0
    9.4760   -2.2529    0.0000 H   0  0  0  0  0  0  0  0  0  0  0  0
   11.2081    0.9870    0.0000 H   0  0  0  0  0  0  0  0  0  0  0  0
   11.2081   -2.2529    0.0000 H   0  0  0  0  0  0  0  0  0  0  0  0
  1 21  1  0  0  0  0
 24  1  1  1  0  0  0
  2 25  1  0  0  0  0
  2 27  1  0  0  0  0
  3 24  1  0  0  0  0
  3 30  1  0  0  0  0
 25  4  1  1  0  0  0
  4 38  1  0  0  0  0
 22  5  1  6  0  0  0
  5 69  1  0  0  0  0
 23  6  1  6  0  0  0
  6 72  1  0  0  0  0
  7 26  1  0  0  0  0
  7 75  1  0  0  0  0
  8 28  1  0  0  0  0
  8 77  1  0  0  0  0
 29  9  1  1  0  0  0
  9 78  1  0  0  0  0
 10 36  1  0  0  0  0
 10 37  1  0  0  0  0
 11 31  1  0  0  0  0
 11 82  1  0  0  0  0
 37 12  1  1  0  0  0
 12 43  1  0  0  0  0
 13 33  1  0  0  0  0
 13 83  1  0  0  0  0
 34 14  1  1  0  0  0
 14 84  1  0  0  0  0
 15 35  1  0  0  0  0
 15 85  1  0  0  0  0
 16 40  1  0  0  0  0
 16 44  1  0  0  0  0
 17 41  2  0  0  0  0
 18 46  1  0  0  0  0
 18 90  1  0  0  0  0
 19 51  1  0  0  0  0
 19 92  1  0  0  0  0
 20 53  1  0  0  0  0
 20 93  1  0  0  0  0
 21 22  1  0  0  0  0
 21 25  1  0  0  0  0
 21 54  1  0  0  0  0
 22 23  1  0  0  0  0
 22 55  1  0  0  0  0
 23 27  1  0  0  0  0
 23 56  1  0  0  0  0
 24 26  1  0  0  0  0
 24 57  1  0  0  0  0
 25 58  1  0  0  0  0
 26 28  1  0  0  0  0
 26 59  1  0  0  0  0
 27 31  1  0  0  0  0
 27 60  1  0  0  0  0
 28 29  1  0  0  0  0
 28 61  1  0  0  0  0
 29 30  1  0  0  0  0
 29 62  1  0  0  0  0
 30 32  1  1  0  0  0
 30 63  1  0  0  0  0
 31 64  1  0  0  0  0
 31 65  1  0  0  0  0
 32 66  1  0  0  0  0
 32 67  1  0  0  0  0
 32 68  1  0  0  0  0
 33 34  1  0  0  0  0
 33 35  1  0  0  0  0
 33 70  1  0  0  0  0
 34 36  1  0  0  0  0
 34 71  1  0  0  0  0
 35 37  1  0  0  0  0
 35 73  1  0  0  0  0
 36 39  1  0  0  0  0
 36 74  1  0  0  0  0
 37 76  1  0  0  0  0
 38 40  2  0  0  0  0
 38 41  1  0  0  0  0
 39 79  1  0  0  0  0
 39 80  1  0  0  0  0
 39 81  1  0  0  0  0
 40 47  1  0  0  0  0
 41 42  1  0  0  0  0
 42 44  1  0  0  0  0
 42 46  2  0  0  0  0
 43 45  1  0  0  0  0
 43 48  2  0  0  0  0
 44 45  2  0  0  0  0
 45 86  1  0  0  0  0
 46 48  1  0  0  0  0
 47 49  2  0  0  0  0
 47 50  1  0  0  0  0
 48 87  1  0  0  0  0
 49 51  1  0  0  0  0
 49 88  1  0  0  0  0
 50 52  2  0  0  0  0
 50 89  1  0  0  0  0
 51 53  2  0  0  0  0
 52 53  1  0  0  0  0
 52 91  1  0  0  0  0
M  END
> <PUBCHEM_COMPOUND_CID>
44259269

> <PUBCHEM_COMPOUND_CANONICALIZED>
1

> <PUBCHEM_CACTVS_COMPLEXITY>
1300

> <PUBCHEM_CACTVS_HBOND_ACCEPTOR>
20

> <PUBCHEM_CACTVS_HBOND_DONOR>
12

> <PUBCHEM_CACTVS_ROTATABLE_BOND>
8

> <PUBCHEM_CACTVS_SUBSKEYS>
AAADcfB8PgAAAAAAAAAAAAAAAAAAAAAAAAA0aJECAAAAAACBQAAAGgAACAAADBSwmAMyDoAABgCIAqBSAAICCAAkIAAIiAFGiMgdNzaGNR6ieWGl4BUPuQfI7LzOIAABCAAIQABAAAIQABCAAAAAAAAAAA==

> <PUBCHEM_IUPAC_OPENEYE_NAME>
3-[(2S,4R,5S)-4,5-dihydroxy-6-(hydroxymethyl)-3-[(2S,5R,6R)-3,4,5-trihydroxy-6-methyl-tetrahydropyran-2-yl]oxy-tetrahydropyran-2-yl]oxy-2-(3,4-dihydroxyphenyl)-5-hydroxy-7-[(2S,5R)-3,4,5-trihydroxy-6-methyl-tetrahydropyran-2-yl]oxy-chromen-4-one

> <PUBCHEM_IUPAC_CAS_NAME>
3-[[(2S,4R,5S)-4,5-dihydroxy-6-(hydroxymethyl)-3-[[(2S,5R,6R)-3,4,5-trihydroxy-6-methyl-2-oxanyl]oxy]-2-oxanyl]oxy]-2-(3,4-dihydroxyphenyl)-5-hydroxy-7-[[(2S,5R)-3,4,5-trihydroxy-6-methyl-2-oxanyl]oxy]-1-benzopyran-4-one

> <PUBCHEM_IUPAC_NAME_MARKUP>
3-[(2<I>S</I>,4<I>R</I>,5<I>S</I>)-4,5-dihydroxy-6-(hydroxymethyl)-3-[(2<I>S</I>,5<I>R</I>,6<I>R</I>)-3,4,5-trihydroxy-6-methyloxan-2-yl]oxyoxan-2-yl]oxy-2-(3,4-dihydroxyphenyl)-5-hydroxy-7-[(2<I>S</I>,5<I>R</I>)-3,4,5-trihydroxy-6-methyloxan-2-yl]oxychromen-4-one

> <PUBCHEM_IUPAC_NAME>
3-[(2S,4R,5S)-4,5-dihydroxy-6-(hydroxymethyl)-3-[(2S,5R,6R)-3,4,5-trihydroxy-6-methyloxan-2-yl]oxyoxan-2-yl]oxy-2-(3,4-dihydroxyphenyl)-5-hydroxy-7-[(2S,5R)-3,4,5-trihydroxy-6-methyloxan-2-yl]oxychromen-4-one

> <PUBCHEM_IUPAC_SYSTEMATIC_NAME>
2-[3,4-bis(oxidanyl)phenyl]-3-[(2S,4R,5S)-6-(hydroxymethyl)-3-[(2S,5R,6R)-6-methyl-3,4,5-tris(oxidanyl)oxan-2-yl]oxy-4,5-bis(oxidanyl)oxan-2-yl]oxy-7-[(2S,5R)-6-methyl-3,4,5-tris(oxidanyl)oxan-2-yl]oxy-5-oxidanyl-chromen-4-one

> <PUBCHEM_IUPAC_TRADITIONAL_NAME>
3-[(2S,4R,5S)-4,5-dihydroxy-6-methylol-3-[(2S,5R,6R)-3,4,5-trihydroxy-6-methyl-tetrahydropyran-2-yl]oxy-tetrahydropyran-2-yl]oxy-2-(3,4-dihydroxyphenyl)-5-hydroxy-7-[(2S,5R)-3,4,5-trihydroxy-6-methyl-tetrahydropyran-2-yl]oxy-chromone

> <PUBCHEM_IUPAC_INCHI>
InChI=1S/C33H40O20/c1-9-19(38)23(42)26(45)31(47-9)49-12-6-15(37)18-16(7-12)50-28(11-3-4-13(35)14(36)5-11)29(22(18)41)52-33-30(25(44)21(40)17(8-34)51-33)53-32-27(46)24(43)20(39)10(2)48-32/h3-7,9-10,17,19-21,23-27,30-40,42-46H,8H2,1-2H3/t9?,10-,17?,19+,20+,21-,23?,24?,25-,26?,27?,30?,31+,32+,33+/m1/s1

> <PUBCHEM_IUPAC_INCHIKEY>
WLPJMCCYDZFCBL-RYPUSYMJSA-N

> <PUBCHEM_XLOGP3_AA>
-2

> <PUBCHEM_EXACT_MASS>
756.211294

> <PUBCHEM_MOLECULAR_FORMULA>
C33H40O20

> <PUBCHEM_MOLECULAR_WEIGHT>
756.7

> <PUBCHEM_OPENEYE_CAN_SMILES>
CC1C(C(C(C(O1)OC2C(C(C(OC2OC3=C(OC4=CC(=CC(=C4C3=O)O)OC5C(C(C(C(O5)C)O)O)O)C6=CC(=C(C=C6)O)O)CO)O)O)O)O)O

> <PUBCHEM_OPENEYE_ISO_SMILES>
C[C@@H]1[C@@H](C(C([C@@H](O1)OC2[C@@H]([C@@H](C(O[C@H]2OC3=C(OC4=CC(=CC(=C4C3=O)O)O[C@H]5C(C([C@H](C(O5)C)O)O)O)C6=CC(=C(C=C6)O)O)CO)O)O)O)O)O

> <PUBCHEM_CACTVS_TPSA>
324

> <PUBCHEM_MONOISOTOPIC_WEIGHT>
756.211294

> <PUBCHEM_TOTAL_CHARGE>
0

> <PUBCHEM_HEAVY_ATOM_COUNT>
53

> <PUBCHEM_ATOM_DEF_STEREO_COUNT>
8

> <PUBCHEM_ATOM_UDEF_STEREO_COUNT>
7

> <PUBCHEM_BOND_DEF_STEREO_COUNT>
0

> <PUBCHEM_BOND_UDEF_STEREO_COUNT>
0

> <PUBCHEM_ISOTOPIC_ATOM_COUNT>
0

> <PUBCHEM_COMPONENT_COUNT>
1

> <PUBCHEM_CACTVS_TAUTO_COUNT>
-1

> <PUBCHEM_COORDINATE_TYPE>
1
5
255

> <PUBCHEM_BONDANNOTATIONS>
21  1  3
24  1  5
37  12  5
33  13  3
34  14  5
35  15  3
16  40  8
16  44  8
27  31  3
30  32  5
36  39  3
38  40  8
38  41  8
25  4  5
41  42  8
42  44  8
42  46  8
43  45  8
43  48  8
44  45  8
46  48  8
47  49  8
47  50  8
49  51  8
22  5  6
50  52  8
51  53  8
52  53  8
23  6  6
26  7  3
28  8  3
29  9  5

$$$$
