328789
  -OEChem-10012001413D

 32 32  0     1  0  0  0  0  0999 V2000
    0.7860    1.0398   -0.5680 O   0  0  0  0  0  0  0  0  0  0  0  0
    0.2892   -0.9058   -1.7954 O   0  0  0  0  0  0  0  0  0  0  0  0
    2.5638    2.3619    0.0323 O   0  0  0  0  0  0  0  0  0  0  0  0
    0.4815   -0.3602   -0.4954 C   0  0  2  0  0  0  0  0  0  0  0  0
   -0.7718   -0.5434    0.3551 C   0  0  0  0  0  0  0  0  0  0  0  0
   -2.0004    0.0455   -0.3333 C   0  0  0  0  0  0  0  0  0  0  0  0
    1.7070   -0.9511    0.1152 C   0  0  0  0  0  0  0  0  0  0  0  0
   -3.2599   -0.1690    0.5077 C   0  0  0  0  0  0  0  0  0  0  0  0
    2.6131   -0.0065    0.3797 C   0  0  0  0  0  0  0  0  0  0  0  0
   -4.4875    0.4483   -0.1617 C   0  0  0  0  0  0  0  0  0  0  0  0
    2.0264    1.2709   -0.0529 C   0  0  0  0  0  0  0  0  0  0  0  0
    1.8205   -2.4191    0.3522 C   0  0  0  0  0  0  0  0  0  0  0  0
    3.9675   -0.0777    0.9772 C   0  0  0  0  0  0  0  0  0  0  0  0
   -5.7355    0.2664    0.6872 C   0  0  0  0  0  0  0  0  0  0  0  0
   -0.6432   -0.0667    1.3353 H   0  0  0  0  0  0  0  0  0  0  0  0
   -0.9581   -1.6113    0.5243 H   0  0  0  0  0  0  0  0  0  0  0  0
   -1.8555    1.1193   -0.5021 H   0  0  0  0  0  0  0  0  0  0  0  0
   -2.1477   -0.4191   -1.3154 H   0  0  0  0  0  0  0  0  0  0  0  0
   -3.4246   -1.2427    0.6595 H   0  0  0  0  0  0  0  0  0  0  0  0
   -3.1195    0.2795    1.4989 H   0  0  0  0  0  0  0  0  0  0  0  0
   -4.3219    1.5189   -0.3298 H   0  0  0  0  0  0  0  0  0  0  0  0
   -4.6480   -0.0132   -1.1429 H   0  0  0  0  0  0  0  0  0  0  0  0
    1.6488   -2.9731   -0.5760 H   0  0  0  0  0  0  0  0  0  0  0  0
    1.0843   -2.7477    1.0919 H   0  0  0  0  0  0  0  0  0  0  0  0
    2.8083   -2.7063    0.7228 H   0  0  0  0  0  0  0  0  0  0  0  0
    1.1521   -1.1508   -2.1696 H   0  0  0  0  0  0  0  0  0  0  0  0
    4.2446   -1.0951    1.2645 H   0  0  0  0  0  0  0  0  0  0  0  0
    4.0198    0.5453    1.8760 H   0  0  0  0  0  0  0  0  0  0  0  0
    4.7167    0.2835    0.2654 H   0  0  0  0  0  0  0  0  0  0  0  0
   -5.9482   -0.7952    0.8495 H   0  0  0  0  0  0  0  0  0  0  0  0
   -6.6013    0.7140    0.1892 H   0  0  0  0  0  0  0  0  0  0  0  0
   -5.6194    0.7471    1.6638 H   0  0  0  0  0  0  0  0  0  0  0  0
  1  4  1  0  0  0  0
  1 11  1  0  0  0  0
  2  4  1  0  0  0  0
  2 26  1  0  0  0  0
  3 11  2  0  0  0  0
  4  5  1  0  0  0  0
  4  7  1  0  0  0  0
  5  6  1  0  0  0  0
  5 15  1  0  0  0  0
  5 16  1  0  0  0  0
  6  8  1  0  0  0  0
  6 17  1  0  0  0  0
  6 18  1  0  0  0  0
  7  9  2  0  0  0  0
  7 12  1  0  0  0  0
  8 10  1  0  0  0  0
  8 19  1  0  0  0  0
  8 20  1  0  0  0  0
  9 11  1  0  0  0  0
  9 13  1  0  0  0  0
 10 14  1  0  0  0  0
 10 21  1  0  0  0  0
 10 22  1  0  0  0  0
 12 23  1  0  0  0  0
 12 24  1  0  0  0  0
 12 25  1  0  0  0  0
 13 27  1  0  0  0  0
 13 28  1  0  0  0  0
 13 29  1  0  0  0  0
 14 30  1  0  0  0  0
 14 31  1  0  0  0  0
 14 32  1  0  0  0  0
M  END
> <PUBCHEM_COMPOUND_CID>
328789

> <PUBCHEM_CONFORMER_RMSD>
0.6

> <PUBCHEM_CONFORMER_DIVERSEORDER>
1
18
22
3
13
15
21
8
14
2
16
20
9
12
10
4
17
6
5
19
11
7

> <PUBCHEM_MMFF94_PARTIAL_CHARGES>
10
1 -0.43
11 0.71
12 0.14
13 0.14
2 -0.68
26 0.4
3 -0.57
4 0.7
7 -0.28
9 -0.12

> <PUBCHEM_EFFECTIVE_ROTOR_COUNT>
4.4

> <PUBCHEM_PHARMACOPHORE_FEATURES>
6
1 14 hydrophobe
1 2 acceptor
1 2 donor
1 3 acceptor
4 5 6 8 10 hydrophobe
5 1 4 7 9 11 rings

> <PUBCHEM_HEAVY_ATOM_COUNT>
14

> <PUBCHEM_ATOM_DEF_STEREO_COUNT>
0

> <PUBCHEM_ATOM_UDEF_STEREO_COUNT>
1

> <PUBCHEM_BOND_DEF_STEREO_COUNT>
0

> <PUBCHEM_BOND_UDEF_STEREO_COUNT>
0

> <PUBCHEM_ISOTOPIC_ATOM_COUNT>
0

> <PUBCHEM_COMPONENT_COUNT>
1

> <PUBCHEM_CACTVS_TAUTO_COUNT>
1

> <PUBCHEM_CONFORMER_ID>
0005045500000001

> <PUBCHEM_MMFF94_ENERGY>
5.878

> <PUBCHEM_FEATURE_SELFOVERLAP>
30.446

> <PUBCHEM_SHAPE_FINGERPRINT>
10498660 4 14979409361325981515
11471102 20 18408882927709665076
12251169 10 18411415107447008759
12346645 6 18272369745901436326
13922767 16 18334855009051124937
14252887 29 18040999492614749915
15775835 57 18129662031424816036
16945 1 18409719656480473862
18186145 218 18342183220086178407
19050596 39 18411418445037504963
20279233 1 18041006133182737683
20559304 39 18411984628621395168
20645477 70 18411702041717932663
20871998 22 18123748652233619790
21637258 2 14274001222422149008
23402539 116 18340195341854924341
4047638 21 18202006521073031307
42 15 17603869988223886921
449060 62 18342461469178712753
8272917 22 18411421682894473227
9999458 23 18334016116255109278

> <PUBCHEM_SHAPE_MULTIPOLES>
270.51
8.7
1.69
0.97
14.22
0.01
-0.24
-1.48
2.94
-2.02
0.02
-0.09
0.16
-0.05

> <PUBCHEM_SHAPE_SELFOVERLAP>
540.479

> <PUBCHEM_SHAPE_VOLUME>
162.5

> <PUBCHEM_COORDINATE_TYPE>
2
5
10

$$$$
