284647
  -OEChem-08302011093D

 38 39  0     0  0  0  0  0  0999 V2000
    5.0133   -0.8818   -1.5580 O   0  0  0  0  0  0  0  0  0  0  0  0
    6.1811    0.5917    0.4890 O   0  0  0  0  0  0  0  0  0  0  0  0
   -2.3833   -1.3356    1.1480 O   0  0  0  0  0  0  0  0  0  0  0  0
    0.3974   -1.9785    0.3346 O   0  0  0  0  0  0  0  0  0  0  0  0
    0.2692   -0.6891    2.2004 O   0  0  0  0  0  0  0  0  0  0  0  0
   -1.6115    0.3921   -0.2043 N   0  0  0  0  0  0  0  0  0  0  0  0
    2.1220    0.9032   -0.2423 C   0  0  0  0  0  0  0  0  0  0  0  0
    2.8895    0.0569   -1.0290 C   0  0  0  0  0  0  0  0  0  0  0  0
    0.6788    1.0169   -0.4981 C   0  0  0  0  0  0  0  0  0  0  0  0
    4.2588   -0.0515   -0.7853 C   0  0  0  0  0  0  0  0  0  0  0  0
    2.6929    1.6433    0.7826 C   0  0  0  0  0  0  0  0  0  0  0  0
   -0.2777    0.2451    0.0466 C   0  0  0  0  0  0  0  0  0  0  0  0
    4.8449    0.6877    0.2422 C   0  0  0  0  0  0  0  0  0  0  0  0
    4.0618    1.5350    1.0263 C   0  0  0  0  0  0  0  0  0  0  0  0
   -3.9890   -0.0859   -0.0117 C   0  0  0  0  0  0  0  0  0  0  0  0
   -2.6189   -0.4048    0.3564 C   0  0  0  0  0  0  0  0  0  0  0  0
   -4.9658   -1.0817    0.0064 C   0  0  0  0  0  0  0  0  0  0  0  0
   -4.3268    1.2157   -0.3823 C   0  0  0  0  0  0  0  0  0  0  0  0
    0.1494   -0.8200    0.9918 C   0  0  0  0  0  0  0  0  0  0  0  0
   -6.2802   -0.7758   -0.3464 C   0  0  0  0  0  0  0  0  0  0  0  0
   -5.6413    1.5215   -0.7348 C   0  0  0  0  0  0  0  0  0  0  0  0
   -6.6180    0.5257   -0.7169 C   0  0  0  0  0  0  0  0  0  0  0  0
    5.1533   -2.2302   -1.1151 C   0  0  0  0  0  0  0  0  0  0  0  0
    2.4382   -0.5207   -1.8323 H   0  0  0  0  0  0  0  0  0  0  0  0
    0.4050    1.8117   -1.1889 H   0  0  0  0  0  0  0  0  0  0  0  0
    2.0936    2.3070    1.4006 H   0  0  0  0  0  0  0  0  0  0  0  0
    4.5124    2.1134    1.8283 H   0  0  0  0  0  0  0  0  0  0  0  0
   -1.8573    1.1165   -0.8728 H   0  0  0  0  0  0  0  0  0  0  0  0
   -4.7221   -2.1029    0.2879 H   0  0  0  0  0  0  0  0  0  0  0  0
   -3.6068    2.0287   -0.3787 H   0  0  0  0  0  0  0  0  0  0  0  0
   -7.0407   -1.5511   -0.3332 H   0  0  0  0  0  0  0  0  0  0  0  0
   -5.9067    2.5365   -1.0162 H   0  0  0  0  0  0  0  0  0  0  0  0
   -7.6418    0.7642   -0.9900 H   0  0  0  0  0  0  0  0  0  0  0  0
    6.5752   -0.0055   -0.1699 H   0  0  0  0  0  0  0  0  0  0  0  0
    4.1799   -2.7310   -1.1038 H   0  0  0  0  0  0  0  0  0  0  0  0
    5.6054   -2.2673   -0.1188 H   0  0  0  0  0  0  0  0  0  0  0  0
    5.8083   -2.7548   -1.8160 H   0  0  0  0  0  0  0  0  0  0  0  0
    0.6834   -2.6920    0.9440 H   0  0  0  0  0  0  0  0  0  0  0  0
  1 10  1  0  0  0  0
  1 23  1  0  0  0  0
  2 13  1  0  0  0  0
  2 34  1  0  0  0  0
  3 16  2  0  0  0  0
  4 19  1  0  0  0  0
  4 38  1  0  0  0  0
  5 19  2  0  0  0  0
  6 12  1  0  0  0  0
  6 16  1  0  0  0  0
  6 28  1  0  0  0  0
  7  8  2  0  0  0  0
  7  9  1  0  0  0  0
  7 11  1  0  0  0  0
  8 10  1  0  0  0  0
  8 24  1  0  0  0  0
  9 12  2  3  0  0  0
  9 25  1  0  0  0  0
 10 13  2  0  0  0  0
 11 14  2  0  0  0  0
 11 26  1  0  0  0  0
 12 19  1  0  0  0  0
 13 14  1  0  0  0  0
 14 27  1  0  0  0  0
 15 16  1  0  0  0  0
 15 17  2  0  0  0  0
 15 18  1  0  0  0  0
 17 20  1  0  0  0  0
 17 29  1  0  0  0  0
 18 21  2  0  0  0  0
 18 30  1  0  0  0  0
 20 22  2  0  0  0  0
 20 31  1  0  0  0  0
 21 22  1  0  0  0  0
 21 32  1  0  0  0  0
 22 33  1  0  0  0  0
 23 35  1  0  0  0  0
 23 36  1  0  0  0  0
 23 37  1  0  0  0  0
M  END
> <PUBCHEM_COMPOUND_CID>
284647

> <PUBCHEM_CONFORMER_RMSD>
0.8

> <PUBCHEM_CONFORMER_DIVERSEORDER>
1
12
8
13
11
7
14
4
9
5
6
3
10
2

> <PUBCHEM_MMFF94_PARTIAL_CHARGES>
35
1 -0.36
10 0.08
11 -0.15
12 0.12
13 0.08
14 -0.15
15 0.09
16 0.54
17 -0.15
18 -0.15
19 0.71
2 -0.53
20 -0.15
21 -0.15
22 -0.15
23 0.28
24 0.15
25 0.15
26 0.15
27 0.15
28 0.37
29 0.15
3 -0.57
30 0.15
31 0.15
32 0.15
33 0.15
34 0.45
38 0.5
4 -0.65
5 -0.57
6 -0.54
7 0.03
8 -0.15
9 -0.18

> <PUBCHEM_EFFECTIVE_ROTOR_COUNT>
6

> <PUBCHEM_PHARMACOPHORE_FEATURES>
9
1 1 acceptor
1 2 donor
1 3 acceptor
1 4 acceptor
1 5 acceptor
1 6 donor
3 4 5 19 anion
6 15 17 18 20 21 22 rings
6 7 8 10 11 13 14 rings

> <PUBCHEM_HEAVY_ATOM_COUNT>
23

> <PUBCHEM_ATOM_DEF_STEREO_COUNT>
0

> <PUBCHEM_ATOM_UDEF_STEREO_COUNT>
0

> <PUBCHEM_BOND_DEF_STEREO_COUNT>
0

> <PUBCHEM_BOND_UDEF_STEREO_COUNT>
1

> <PUBCHEM_ISOTOPIC_ATOM_COUNT>
0

> <PUBCHEM_COMPONENT_COUNT>
1

> <PUBCHEM_CACTVS_TAUTO_COUNT>
9

> <PUBCHEM_CONFORMER_ID>
000457E700000001

> <PUBCHEM_MMFF94_ENERGY>
86.0695

> <PUBCHEM_FEATURE_SELFOVERLAP>
45.732

> <PUBCHEM_SHAPE_FINGERPRINT>
10447042 23 16630528427483499260
10670039 82 17458909232187231077
11646440 116 18335147505447297465
11796584 16 18187086178533791130
12166972 35 14189584044078024416
12236239 1 16081087104038626628
12670543 26 18334580109674664847
13533116 47 17131837543233770366
13899415 154 8142080996574367046
14251764 75 8500357900231909278
14573314 32 18410295804457082133
15183329 4 18339646641917305647
15475509 8 17677061130972779212
15788980 27 17703789232431744109
1601671 61 17530679905177097533
1813 80 13326856634235874579
19377110 9 14692582013129113855
19489759 90 18334010610402674925
200 152 16988567896093669697
20157964 124 17988924500673612144
20197701 30 18272650172953911487
20281389 69 15936405654731970197
20645477 70 17917999360593867326
21267235 1 18187372064995392959
21279426 13 18338796689396126933
21285901 2 18261681372483437462
21315759 40 16226042319029661275
21521239 73 18272928328258441023
22061861 79 18131634473981049581
221357 26 18343300349174398081
2215653 11 18412269423924252558
23035841 295 10735882772170430461
23081809 10 16128661851296650433
23198884 109 17989208127940621553
23402539 116 18335977653678809933
23536379 177 17847063277016845433
23559900 14 18342171198335813905
23569943 247 18192434056746602675
3004659 81 18186525380617278870
34797466 226 18201438116606160993
3545911 37 18260547819250951061
38695281 34 18413669106421827415
4073 2 18338797943537159114
4325135 7 12247679396174004984
4340502 62 17561078142390326190
439807 62 16701726281418387775
5385378 56 17895755085212961115
542803 24 15864069875577812349
59682541 35 10735862972587422086
59682541 52 18341326683042538047
59755656 215 18260546697415329759
59755656 520 17822001047612571331
633830 44 17749670808564974255
7495541 125 15841264960819650393
8272917 22 14418125206406598896
8988823 20 17203888570255925880

> <PUBCHEM_SHAPE_MULTIPOLES>
439
16.43
1.74
1.24
9.45
0.4
0.28
-0.16
-4.54
-1.17
-0.04
-0.75
0.23
1.88

> <PUBCHEM_SHAPE_SELFOVERLAP>
945.704

> <PUBCHEM_SHAPE_VOLUME>
240.8

> <PUBCHEM_COORDINATE_TYPE>
2
5
10

$$$$
