610892
  -OEChem-08302011203D

 29 29  0     0  0  0  0  0  0999 V2000
    0.4413   -2.3448   -0.4029 O   0  0  0  0  0  0  0  0  0  0  0  0
    2.0640    0.5744    0.3004 O   0  0  0  0  0  0  0  0  0  0  0  0
   -3.2765    1.6946    0.1020 O   0  0  0  0  0  0  0  0  0  0  0  0
    3.9412    1.0104   -0.9736 O   0  0  0  0  0  0  0  0  0  0  0  0
   -0.0968   -0.0110   -0.5025 C   0  0  0  0  0  0  0  0  0  0  0  0
   -0.4678   -1.3373   -0.2808 C   0  0  0  0  0  0  0  0  0  0  0  0
    1.3057    0.3360   -0.8785 C   0  0  0  0  0  0  0  0  0  0  0  0
   -1.0407    1.0080   -0.3740 C   0  0  0  0  0  0  0  0  0  0  0  0
   -2.3556    0.7006   -0.0239 C   0  0  0  0  0  0  0  0  0  0  0  0
   -1.7827   -1.6445    0.0693 C   0  0  0  0  0  0  0  0  0  0  0  0
   -2.7266   -0.6256    0.1977 C   0  0  0  0  0  0  0  0  0  0  0  0
    1.1732   -2.7024    0.7677 C   0  0  0  0  0  0  0  0  0  0  0  0
    3.3767    0.9050    0.1069 C   0  0  0  0  0  0  0  0  0  0  0  0
   -4.6023    1.3099    0.4631 C   0  0  0  0  0  0  0  0  0  0  0  0
    4.0467    1.1267    1.4291 C   0  0  0  0  0  0  0  0  0  0  0  0
    1.7650   -0.4685   -1.4661 H   0  0  0  0  0  0  0  0  0  0  0  0
    1.3126    1.2361   -1.5067 H   0  0  0  0  0  0  0  0  0  0  0  0
   -0.7589    2.0445   -0.5427 H   0  0  0  0  0  0  0  0  0  0  0  0
   -2.0780   -2.6759    0.2425 H   0  0  0  0  0  0  0  0  0  0  0  0
   -3.7294   -0.9347    0.4719 H   0  0  0  0  0  0  0  0  0  0  0  0
    0.5189   -3.2305    1.4684 H   0  0  0  0  0  0  0  0  0  0  0  0
    1.6079   -1.8268    1.2574 H   0  0  0  0  0  0  0  0  0  0  0  0
    1.9830   -3.3752    0.4725 H   0  0  0  0  0  0  0  0  0  0  0  0
   -5.0597    0.6748   -0.3032 H   0  0  0  0  0  0  0  0  0  0  0  0
   -5.2006    2.2252    0.5184 H   0  0  0  0  0  0  0  0  0  0  0  0
   -4.6311    0.8487    1.4561 H   0  0  0  0  0  0  0  0  0  0  0  0
    4.0015    0.2116    2.0248 H   0  0  0  0  0  0  0  0  0  0  0  0
    3.5629    1.9534    1.9552 H   0  0  0  0  0  0  0  0  0  0  0  0
    5.0970    1.3842    1.2651 H   0  0  0  0  0  0  0  0  0  0  0  0
  1  6  1  0  0  0  0
  1 12  1  0  0  0  0
  2  7  1  0  0  0  0
  2 13  1  0  0  0  0
  3  9  1  0  0  0  0
  3 14  1  0  0  0  0
  4 13  2  0  0  0  0
  5  6  2  0  0  0  0
  5  7  1  0  0  0  0
  5  8  1  0  0  0  0
  6 10  1  0  0  0  0
  7 16  1  0  0  0  0
  7 17  1  0  0  0  0
  8  9  2  0  0  0  0
  8 18  1  0  0  0  0
  9 11  1  0  0  0  0
 10 11  2  0  0  0  0
 10 19  1  0  0  0  0
 11 20  1  0  0  0  0
 12 21  1  0  0  0  0
 12 22  1  0  0  0  0
 12 23  1  0  0  0  0
 13 15  1  0  0  0  0
 14 24  1  0  0  0  0
 14 25  1  0  0  0  0
 14 26  1  0  0  0  0
 15 27  1  0  0  0  0
 15 28  1  0  0  0  0
 15 29  1  0  0  0  0
M  END
> <PUBCHEM_COMPOUND_CID>
610892

> <PUBCHEM_CONFORMER_RMSD>
0.6

> <PUBCHEM_CONFORMER_DIVERSEORDER>
1
26
55
52
46
45
57
28
42
47
22
17
30
53
58
6
24
27
15
56
3
14
10
48
40
18
16
35
9
50
51
44
13
36
12
49
37
54
4
43
25
41
11
7
34
2
31
33
20
38
21
39
29
23
8
19
32
5

> <PUBCHEM_MMFF94_PARTIAL_CHARGES>
18
1 -0.36
10 -0.15
11 -0.15
12 0.28
13 0.66
14 0.28
15 0.06
18 0.15
19 0.15
2 -0.43
20 0.15
3 -0.36
4 -0.57
5 -0.14
6 0.08
7 0.42
8 -0.15
9 0.08

> <PUBCHEM_EFFECTIVE_ROTOR_COUNT>
5

> <PUBCHEM_PHARMACOPHORE_FEATURES>
4
1 1 acceptor
1 3 acceptor
1 4 acceptor
6 5 6 8 9 10 11 rings

> <PUBCHEM_HEAVY_ATOM_COUNT>
15

> <PUBCHEM_ATOM_DEF_STEREO_COUNT>
0

> <PUBCHEM_ATOM_UDEF_STEREO_COUNT>
0

> <PUBCHEM_BOND_DEF_STEREO_COUNT>
0

> <PUBCHEM_BOND_UDEF_STEREO_COUNT>
0

> <PUBCHEM_ISOTOPIC_ATOM_COUNT>
0

> <PUBCHEM_COMPONENT_COUNT>
1

> <PUBCHEM_CACTVS_TAUTO_COUNT>
1

> <PUBCHEM_CONFORMER_ID>
0009524C00000001

> <PUBCHEM_MMFF94_ENERGY>
52.1313

> <PUBCHEM_FEATURE_SELFOVERLAP>
20.297

> <PUBCHEM_SHAPE_FINGERPRINT>
11132069 177 18407758148868719885
11543360 7 15697991951137473277
11680986 33 18262812756795010635
122479 349 18130221670248686992
12346645 44 18413108346848206257
12644460 14 18117852001037279803
13380535 76 18408324376288226983
14022349 108 18190172395703141226
14897335 6 18411135806045470943
15536298 74 18340771433722832879
15775835 57 18410857659183143992
16945 1 18267875071316333791
18186145 218 17775297087809194864
19422 9 17749384931795287888
20510252 161 18198630032169310248
20671657 1 18198060274687768083
212916 134 18271508871520750720
21452121 103 18192144894067880449
21501502 16 18339634551980324631
21524375 3 18413105060981908191
23382010 3 14117505575987432036
23402539 116 18198895006430614407
23559900 14 18272941535746898556
2748010 2 18263380100742491087
276578 36 18410294679381164384
305870 269 18408604738372672162
43471831 8 18334008423737223066
53812653 166 18342459235874723249
5706482 22 18337943584279028219
58807428 26 18333725806166953370
633830 44 18273213110212140188
69474 34 17830999248757924482
7364860 26 18198063573301857278
77492 1 17531806986600723772
81228 2 17905595958709764662
81539 233 18260267404266044799
90316 7 17894897551526307068

> <PUBCHEM_SHAPE_MULTIPOLES>
285.22
7.19
2.36
0.95
1.09
1.79
-0.11
-5.43
-1.79
-0.11
-0.36
0.79
-0.13
-0.12

> <PUBCHEM_SHAPE_SELFOVERLAP>
582.572

> <PUBCHEM_SHAPE_VOLUME>
166.1

> <PUBCHEM_COORDINATE_TYPE>
2
5
10

$$$$
