597469
  -OEChem-08302011193D

 30 30  0     1  0  0  0  0  0999 V2000
    2.1079   -0.8054    2.0772 O   0  0  0  0  0  0  0  0  0  0  0  0
   -1.9913   -1.7963   -0.9431 O   0  0  0  0  0  0  0  0  0  0  0  0
   -3.4592    0.5170   -0.4734 O   0  0  0  0  0  0  0  0  0  0  0  0
    2.8561    0.9702   -0.9457 O   0  0  0  0  0  0  0  0  0  0  0  0
    3.5911   -1.0666   -0.1519 O   0  0  0  0  0  0  0  0  0  0  0  0
    0.5212    0.2994    0.6872 C   0  0  0  0  0  0  0  0  0  0  0  0
    1.9508    0.2261    1.1051 C   0  0  2  0  0  0  0  0  0  0  0  0
   -0.0790   -0.7922    0.0596 C   0  0  0  0  0  0  0  0  0  0  0  0
   -0.2157    1.4601    0.9231 C   0  0  0  0  0  0  0  0  0  0  0  0
   -1.4159   -0.7232   -0.3320 C   0  0  0  0  0  0  0  0  0  0  0  0
   -2.1527    0.4374   -0.0961 C   0  0  0  0  0  0  0  0  0  0  0  0
   -1.5526    1.5292    0.5314 C   0  0  0  0  0  0  0  0  0  0  0  0
    2.9034   -0.0587   -0.0487 C   0  0  0  0  0  0  0  0  0  0  0  0
   -2.6191   -2.7616   -0.1015 C   0  0  0  0  0  0  0  0  0  0  0  0
   -4.1408    1.7387   -0.1957 C   0  0  0  0  0  0  0  0  0  0  0  0
    3.6958    0.8259   -2.0955 C   0  0  0  0  0  0  0  0  0  0  0  0
    2.2775    1.1588    1.5806 H   0  0  0  0  0  0  0  0  0  0  0  0
    0.4871   -1.7017   -0.1270 H   0  0  0  0  0  0  0  0  0  0  0  0
    0.2392    2.3183    1.4106 H   0  0  0  0  0  0  0  0  0  0  0  0
   -2.0626    2.4618    0.7466 H   0  0  0  0  0  0  0  0  0  0  0  0
    3.0126   -0.7405    2.4286 H   0  0  0  0  0  0  0  0  0  0  0  0
   -3.4332   -2.3042    0.4695 H   0  0  0  0  0  0  0  0  0  0  0  0
   -1.8883   -3.2099    0.5789 H   0  0  0  0  0  0  0  0  0  0  0  0
   -3.0360   -3.5492   -0.7353 H   0  0  0  0  0  0  0  0  0  0  0  0
   -3.6993    2.5801   -0.7405 H   0  0  0  0  0  0  0  0  0  0  0  0
   -4.2076    1.9278    0.8811 H   0  0  0  0  0  0  0  0  0  0  0  0
   -5.1664    1.6258   -0.5624 H   0  0  0  0  0  0  0  0  0  0  0  0
    3.4045   -0.0599   -2.6680 H   0  0  0  0  0  0  0  0  0  0  0  0
    4.7453    0.7633   -1.7927 H   0  0  0  0  0  0  0  0  0  0  0  0
    3.5643    1.7097   -2.7255 H   0  0  0  0  0  0  0  0  0  0  0  0
  1  7  1  0  0  0  0
  1 21  1  0  0  0  0
  2 10  1  0  0  0  0
  2 14  1  0  0  0  0
  3 11  1  0  0  0  0
  3 15  1  0  0  0  0
  4 13  1  0  0  0  0
  4 16  1  0  0  0  0
  5 13  2  0  0  0  0
  6  7  1  0  0  0  0
  6  8  2  0  0  0  0
  6  9  1  0  0  0  0
  7 13  1  0  0  0  0
  7 17  1  0  0  0  0
  8 10  1  0  0  0  0
  8 18  1  0  0  0  0
  9 12  2  0  0  0  0
  9 19  1  0  0  0  0
 10 11  2  0  0  0  0
 11 12  1  0  0  0  0
 12 20  1  0  0  0  0
 14 22  1  0  0  0  0
 14 23  1  0  0  0  0
 14 24  1  0  0  0  0
 15 25  1  0  0  0  0
 15 26  1  0  0  0  0
 15 27  1  0  0  0  0
 16 28  1  0  0  0  0
 16 29  1  0  0  0  0
 16 30  1  0  0  0  0
M  END
> <PUBCHEM_COMPOUND_CID>
597469

> <PUBCHEM_CONFORMER_RMSD>
0.6

> <PUBCHEM_CONFORMER_DIVERSEORDER>
9
57
33
8
60
1
17
46
29
5
43
58
47
44
64
49
32
40
53
14
63
42
45
51
4
62
23
50
15
59
48
37
21
13
41
12
30
18
39
55
24
7
54
36
38
31
28
6
25
56
20
10
61
26
34
11
3
2
22
27
35
52
16
19

> <PUBCHEM_MMFF94_PARTIAL_CHARGES>
20
1 -0.68
10 0.08
11 0.08
12 -0.15
13 0.66
14 0.28
15 0.28
16 0.28
18 0.15
19 0.15
2 -0.36
20 0.15
21 0.4
3 -0.36
4 -0.43
5 -0.57
6 -0.14
7 0.48
8 -0.15
9 -0.15

> <PUBCHEM_EFFECTIVE_ROTOR_COUNT>
5

> <PUBCHEM_PHARMACOPHORE_FEATURES>
6
1 1 acceptor
1 1 donor
1 2 acceptor
1 3 acceptor
1 5 acceptor
6 6 8 9 10 11 12 rings

> <PUBCHEM_HEAVY_ATOM_COUNT>
16

> <PUBCHEM_ATOM_DEF_STEREO_COUNT>
0

> <PUBCHEM_ATOM_UDEF_STEREO_COUNT>
1

> <PUBCHEM_BOND_DEF_STEREO_COUNT>
0

> <PUBCHEM_BOND_UDEF_STEREO_COUNT>
0

> <PUBCHEM_ISOTOPIC_ATOM_COUNT>
0

> <PUBCHEM_COMPONENT_COUNT>
1

> <PUBCHEM_CACTVS_TAUTO_COUNT>
1

> <PUBCHEM_CONFORMER_ID>
00091DDD00000009

> <PUBCHEM_MMFF94_ENERGY>
53.6597

> <PUBCHEM_FEATURE_SELFOVERLAP>
30.459

> <PUBCHEM_SHAPE_FINGERPRINT>
10465860 71 18200883962424236132
11127187 94 18131081453738789437
11725454 13 12976103766400753086
12186901 62 18341345464929066559
12202030 40 16701742760416571862
12553582 1 17980193407428642167
13296908 3 17774435104720479898
13538477 17 18335973207891662970
14115302 16 18340767044534982754
14911166 2 18201994400680850005
15342168 16 16299253326382008140
15375358 24 17346302804863346032
15775835 57 17967260805654386964
16752209 62 18199742540690280073
16945 1 18272079479390298049
18186145 218 17346030083267705873
19422 9 18186518825658557859
19786989 88 16081365280353717288
19868273 293 18411422803849061772
20279233 1 17060615603501835094
20523700 14 18272934916537267294
20645476 183 18260265209712011659
20715346 28 17345744330012704515
20871999 31 18340772649272158039
21639500 275 16443342113510062124
22802520 49 17846503638171895090
23402539 116 17916852513725677637
23526113 38 16845575279857641650
23557571 272 18058167400673519984
23559900 14 18131063823768392824
23598291 2 18040428888950394726
2748010 2 17986092235845204377
3082319 5 18334863848331125710
33382 64 14332544779447346789
474 4 17023476351284083476
4990 188 16916776345726888181
53748568 43 18113899372699522154
6049 1 17702947079180466251
633830 44 17095533902477430390
74978 22 18342733039791930041
7615 1 17750213933049505994
77492 1 18040988553317001578
81228 2 17131000767081354032
88987 49 18341316868772896642

> <PUBCHEM_SHAPE_MULTIPOLES>
299.93
6.68
2.08
1.4
1.07
1.08
0.04
-1.03
2.58
-2.36
0.12
1.67
-0.14
-0.73

> <PUBCHEM_SHAPE_SELFOVERLAP>
616.756

> <PUBCHEM_SHAPE_VOLUME>
173.6

> <PUBCHEM_COORDINATE_TYPE>
2
5
10

$$$$
