602019
  -OEChem-08302011073D

 25 25  0     0  0  0  0  0  0999 V2000
   -2.9468    0.3081    0.0006 O   0  0  0  0  0  0  0  0  0  0  0  0
    2.4865   -0.6367    0.0002 O   0  0  0  0  0  0  0  0  0  0  0  0
    2.7907    1.9867    0.0007 O   0  0  0  0  0  0  0  0  0  0  0  0
   -1.1168   -1.2395   -0.0001 C   0  0  0  0  0  0  0  0  0  0  0  0
   -1.6060    0.0667   -0.0003 C   0  0  0  0  0  0  0  0  0  0  0  0
    1.1458   -0.3922   -0.0003 C   0  0  0  0  0  0  0  0  0  0  0  0
    0.2591   -1.4690    0.0000 C   0  0  0  0  0  0  0  0  0  0  0  0
    0.6566    0.9140   -0.0003 C   0  0  0  0  0  0  0  0  0  0  0  0
   -0.7193    1.1434   -0.0004 C   0  0  0  0  0  0  0  0  0  0  0  0
   -2.0511   -2.4041   -0.0001 C   0  0  0  0  0  0  0  0  0  0  0  0
    1.5651    2.0522   -0.0006 C   0  0  0  0  0  0  0  0  0  0  0  0
   -3.3594    1.6733    0.0004 C   0  0  0  0  0  0  0  0  0  0  0  0
    2.8956   -2.0028    0.0003 C   0  0  0  0  0  0  0  0  0  0  0  0
    0.5824   -2.5043    0.0002 H   0  0  0  0  0  0  0  0  0  0  0  0
   -1.0447    2.1784   -0.0004 H   0  0  0  0  0  0  0  0  0  0  0  0
   -2.6859   -2.3811   -0.8920 H   0  0  0  0  0  0  0  0  0  0  0  0
   -1.5189   -3.3614   -0.0004 H   0  0  0  0  0  0  0  0  0  0  0  0
   -2.6855   -2.3815    0.8921 H   0  0  0  0  0  0  0  0  0  0  0  0
    1.0814    3.0446   -0.0014 H   0  0  0  0  0  0  0  0  0  0  0  0
   -3.0411    2.1924    0.9110 H   0  0  0  0  0  0  0  0  0  0  0  0
   -4.4545    1.6778    0.0007 H   0  0  0  0  0  0  0  0  0  0  0  0
   -3.0417    2.1918   -0.9108 H   0  0  0  0  0  0  0  0  0  0  0  0
    2.5769   -2.5210   -0.9107 H   0  0  0  0  0  0  0  0  0  0  0  0
    2.5766   -2.5209    0.9112 H   0  0  0  0  0  0  0  0  0  0  0  0
    3.9906   -2.0098    0.0005 H   0  0  0  0  0  0  0  0  0  0  0  0
  1  5  1  0  0  0  0
  1 12  1  0  0  0  0
  2  6  1  0  0  0  0
  2 13  1  0  0  0  0
  3 11  2  0  0  0  0
  4  5  1  0  0  0  0
  4  7  2  0  0  0  0
  4 10  1  0  0  0  0
  5  9  2  0  0  0  0
  6  7  1  0  0  0  0
  6  8  2  0  0  0  0
  7 14  1  0  0  0  0
  8  9  1  0  0  0  0
  8 11  1  0  0  0  0
  9 15  1  0  0  0  0
 10 16  1  0  0  0  0
 10 17  1  0  0  0  0
 10 18  1  0  0  0  0
 11 19  1  0  0  0  0
 12 20  1  0  0  0  0
 12 21  1  0  0  0  0
 12 22  1  0  0  0  0
 13 23  1  0  0  0  0
 13 24  1  0  0  0  0
 13 25  1  0  0  0  0
M  END
> <PUBCHEM_COMPOUND_CID>
602019

> <PUBCHEM_CONFORMER_RMSD>
0.6

> <PUBCHEM_CONFORMER_DIVERSEORDER>
5
1
2
3
4

> <PUBCHEM_MMFF94_PARTIAL_CHARGES>
16
1 -0.36
10 0.14
11 0.42
12 0.28
13 0.28
14 0.15
15 0.15
19 0.06
2 -0.36
3 -0.57
4 -0.14
5 0.08
6 0.08
7 -0.15
8 0.09
9 -0.15

> <PUBCHEM_EFFECTIVE_ROTOR_COUNT>
3

> <PUBCHEM_PHARMACOPHORE_FEATURES>
4
1 1 acceptor
1 2 acceptor
1 3 acceptor
6 4 5 6 7 8 9 rings

> <PUBCHEM_HEAVY_ATOM_COUNT>
13

> <PUBCHEM_ATOM_DEF_STEREO_COUNT>
0

> <PUBCHEM_ATOM_UDEF_STEREO_COUNT>
0

> <PUBCHEM_BOND_DEF_STEREO_COUNT>
0

> <PUBCHEM_BOND_UDEF_STEREO_COUNT>
0

> <PUBCHEM_ISOTOPIC_ATOM_COUNT>
0

> <PUBCHEM_COMPONENT_COUNT>
1

> <PUBCHEM_CACTVS_TAUTO_COUNT>
1

> <PUBCHEM_CONFORMER_ID>
00092FA300000005

> <PUBCHEM_MMFF94_ENERGY>
53.0557

> <PUBCHEM_FEATURE_SELFOVERLAP>
20.307

> <PUBCHEM_SHAPE_FINGERPRINT>
10130415 120 18189053084297119026
10967382 1 18410575041729327652
11680986 33 18411981368925723474
13140716 1 18410011039514213523
13380535 21 18337401542189357109
13380535 76 18338228387791836376
14325111 11 18410856564372892577
14648413 74 18410014351086979258
14897335 6 18339636840902331901
14911166 2 18266743489009301695
14993402 34 18267023842994299071
15279308 100 18409735036315405237
15442244 35 18411417280547564235
16945 1 18338517430532681511
17990270 104 18410572928932654122
18511873 20 18199746947220775705
193761 8 18338517542212458663
19973954 147 18338516455638389355
20510252 161 17766847499531710904
20511035 2 18201991153421576886
20588541 1 18195531389369747007
21501502 16 18338514247924972471
22344851 341 18335132137468243394
2334 1 18266740357999287011
23402539 116 17982997960789933174
23552423 10 18263082265755210878
23559900 14 18269557153210453102
241688 4 17404309494701454466
2748010 2 18338519745530590711
3071541 12 18411140234046359940
3071541 158 18189619341296282604
43471831 8 18120366825122815034
528886 8 18194958539832875291
57177213 63 17974013039630497380
68250623 7 18339080496434570983
7364860 26 18342176691588039470
74978 22 18411139121306705063

> <PUBCHEM_SHAPE_MULTIPOLES>
249.93
4.6
2.73
0.59
0.65
0.23
0
-0.58
0
-0.48
0
0.02
0.01
0

> <PUBCHEM_SHAPE_SELFOVERLAP>
518.974

> <PUBCHEM_SHAPE_VOLUME>
143.8

> <PUBCHEM_COORDINATE_TYPE>
2
5
10

$$$$
