548483
  -OEChem-08302010463D

 15 14  0     0  0  0  0  0  0999 V2000
   -0.9638   -0.0058   -0.0923 S   0  0  0  0  0  0  0  0  0  0  0  0
   -1.0890    0.0105   -1.5288 O   0  0  0  0  0  0  0  0  0  0  0  0
    2.9314   -0.1690    0.1650 O   0  0  0  0  0  0  0  0  0  0  0  0
   -2.0987   -1.1276    0.6607 C   0  0  0  0  0  0  0  0  0  0  0  0
   -1.2318    1.5835    0.6260 C   0  0  0  0  0  0  0  0  0  0  0  0
    0.6279   -0.5160    0.3253 C   0  0  0  0  0  0  0  0  0  0  0  0
    1.8240    0.2244   -0.1559 C   0  0  0  0  0  0  0  0  0  0  0  0
   -1.9092   -2.1288    0.2693 H   0  0  0  0  0  0  0  0  0  0  0  0
   -1.9527   -1.1060    1.7419 H   0  0  0  0  0  0  0  0  0  0  0  0
   -3.1133   -0.8153    0.4065 H   0  0  0  0  0  0  0  0  0  0  0  0
   -2.2521    1.8973    0.3974 H   0  0  0  0  0  0  0  0  0  0  0  0
   -1.0883    1.5121    1.7054 H   0  0  0  0  0  0  0  0  0  0  0  0
   -0.5221    2.2897    0.1915 H   0  0  0  0  0  0  0  0  0  0  0  0
    0.8190   -1.3964    0.9567 H   0  0  0  0  0  0  0  0  0  0  0  0
    1.6240    1.1017   -0.7894 H   0  0  0  0  0  0  0  0  0  0  0  0
  1  2  2  0  0  0  0
  1  4  1  0  0  0  0
  1  5  1  0  0  0  0
  1  6  2  0  0  0  0
  3  7  2  0  0  0  0
  4  8  1  0  0  0  0
  4  9  1  0  0  0  0
  4 10  1  0  0  0  0
  5 11  1  0  0  0  0
  5 12  1  0  0  0  0
  5 13  1  0  0  0  0
  6  7  1  0  0  0  0
  6 14  1  0  0  0  0
  7 15  1  0  0  0  0
M  END
> <PUBCHEM_COMPOUND_CID>
548483

> <PUBCHEM_CONFORMER_RMSD>
0.4

> <PUBCHEM_CONFORMER_DIVERSEORDER>
1
2

> <PUBCHEM_MMFF94_PARTIAL_CHARGES>
9
1 0.42
14 0.06
15 0.06
2 -0.65
3 -0.57
4 0.11
5 0.11
6 -0.04
7 0.51

> <PUBCHEM_EFFECTIVE_ROTOR_COUNT>
1

> <PUBCHEM_PHARMACOPHORE_FEATURES>
2
1 2 acceptor
1 3 acceptor

> <PUBCHEM_HEAVY_ATOM_COUNT>
7

> <PUBCHEM_ATOM_DEF_STEREO_COUNT>
0

> <PUBCHEM_ATOM_UDEF_STEREO_COUNT>
0

> <PUBCHEM_BOND_DEF_STEREO_COUNT>
0

> <PUBCHEM_BOND_UDEF_STEREO_COUNT>
0

> <PUBCHEM_ISOTOPIC_ATOM_COUNT>
0

> <PUBCHEM_COMPONENT_COUNT>
1

> <PUBCHEM_CACTVS_TAUTO_COUNT>
1

> <PUBCHEM_CONFORMER_ID>
00085E8300000001

> <PUBCHEM_MMFF94_ENERGY>
9.256

> <PUBCHEM_FEATURE_SELFOVERLAP>
10.149

> <PUBCHEM_SHAPE_FINGERPRINT>
12932764 1 17346876746012604514
15310529 11 18059864956379556886
16714656 1 17489869340752547685
21040471 1 18051984623003869176
24536 1 18337380544241868642
29004967 10 18272657886683084666
5084963 1 17676206896548241618
5460574 1 12319745760603625298
5943 1 13195897094544401077

> <PUBCHEM_SHAPE_MULTIPOLES>
136.17
3.28
1.22
1
2.38
0.39
-0.36
-0.51
0.44
-0.79
0.33
-0.41
0.01
0

> <PUBCHEM_SHAPE_SELFOVERLAP>
231.88

> <PUBCHEM_SHAPE_VOLUME>
92.1

> <PUBCHEM_COORDINATE_TYPE>
2
5
10

$$$$
