20831071
  -OEChem-08302011422D

131134  0     1  0  0  0  0  0999 V2000
   14.1474   -0.7061    0.0000 O   0  0  0  0  0  0  0  0  0  0  0  0
   13.2872    0.7973    0.0000 O   0  0  0  0  0  0  0  0  0  0  0  0
   19.5405    2.3463    0.0000 C   0  0  1  0  0  0  0  0  0  0  0  0
   19.5405    1.3463    0.0000 C   0  0  2  0  0  0  0  0  0  0  0  0
   18.6745    0.8463    0.0000 C   0  0  1  0  0  0  0  0  0  0  0  0
   17.8084    1.3463    0.0000 C   0  0  1  0  0  0  0  0  0  0  0  0
   20.4867    2.6510    0.0000 C   0  0  2  0  0  0  0  0  0  0  0  0
   18.6745    2.8463    0.0000 C   0  0  0  0  0  0  0  0  0  0  0  0
   16.8984    0.8394    0.0000 C   0  0  2  0  0  0  0  0  0  0  0  0
   20.4867    1.0415    0.0000 C   0  0  0  0  0  0  0  0  0  0  0  0
   17.8084    2.3463    0.0000 C   0  0  0  0  0  0  0  0  0  0  0  0
   21.0703    1.8463    0.0000 C   0  0  0  0  0  0  0  0  0  0  0  0
   18.6905   -0.1952    0.0000 C   0  0  0  0  0  0  0  0  0  0  0  0
   20.7974    3.6015    0.0000 C   0  0  1  0  0  0  0  0  0  0  0  0
   19.5405    3.3463    0.0000 C   0  0  0  0  0  0  0  0  0  0  0  0
   16.8904   -0.2022    0.0000 C   0  0  0  0  0  0  0  0  0  0  0  0
   15.9716    1.4035    0.0000 C   0  0  0  0  0  0  0  0  0  0  0  0
   17.7925   -0.7230    0.0000 C   0  0  0  0  0  0  0  0  0  0  0  0
   16.9061    1.8394    0.0000 C   0  0  0  0  0  0  0  0  0  0  0  0
   15.9550   -0.7519    0.0000 C   0  0  0  0  0  0  0  0  0  0  0  0
   15.0237    0.8756    0.0000 C   0  0  0  0  0  0  0  0  0  0  0  0
   21.7759    3.8077    0.0000 C   0  0  0  0  0  0  0  0  0  0  0  0
   15.0153   -0.2094    0.0000 C   0  0  3  0  0  0  0  0  0  0  0  0
   20.1295    4.3458    0.0000 C   0  0  0  0  0  0  0  0  0  0  0  0
   22.0865    4.7582    0.0000 C   0  0  0  0  0  0  0  0  0  0  0  0
   23.0650    4.9645    0.0000 C   0  0  2  0  0  0  0  0  0  0  0  0
   23.3757    5.9150    0.0000 C   0  0  0  0  0  0  0  0  0  0  0  0
   23.7329    4.2202    0.0000 C   0  0  0  0  0  0  0  0  0  0  0  0
   13.2833   -0.2027    0.0000 C   0  0  0  0  0  0  0  0  0  0  0  0
   24.3542    6.1212    0.0000 C   0  0  0  0  0  0  0  0  0  0  0  0
   22.7079    6.6593    0.0000 C   0  0  0  0  0  0  0  0  0  0  0  0
   24.7114    4.4264    0.0000 C   0  0  0  0  0  0  0  0  0  0  0  0
   12.4154   -0.6994    0.0000 C   0  0  0  0  0  0  0  0  0  0  0  0
   11.5513   -0.1961    0.0000 C   0  0  0  0  0  0  0  0  0  0  0  0
   10.6833   -0.6927    0.0000 C   0  0  0  0  0  0  0  0  0  0  0  0
    9.8192   -0.1894    0.0000 C   0  0  0  0  0  0  0  0  0  0  0  0
    8.9513   -0.6860    0.0000 C   0  0  0  0  0  0  0  0  0  0  0  0
    8.0872   -0.1827    0.0000 C   0  0  0  0  0  0  0  0  0  0  0  0
    7.2192   -0.6794    0.0000 C   0  0  0  0  0  0  0  0  0  0  0  0
    6.3552   -0.1760    0.0000 C   0  0  0  0  0  0  0  0  0  0  0  0
    5.4872   -0.6727    0.0000 C   0  0  0  0  0  0  0  0  0  0  0  0
    5.4834   -1.6727    0.0000 C   0  0  0  0  0  0  0  0  0  0  0  0
    4.6154   -2.1693    0.0000 C   0  0  0  0  0  0  0  0  0  0  0  0
    4.6116   -3.1693    0.0000 C   0  0  0  0  0  0  0  0  0  0  0  0
    3.7436   -3.6660    0.0000 C   0  0  0  0  0  0  0  0  0  0  0  0
    3.7398   -4.6660    0.0000 C   0  0  0  0  0  0  0  0  0  0  0  0
    2.8718   -5.1626    0.0000 C   0  0  0  0  0  0  0  0  0  0  0  0
    2.8680   -6.1626    0.0000 C   0  0  0  0  0  0  0  0  0  0  0  0
    2.0000   -6.6593    0.0000 C   0  0  0  0  0  0  0  0  0  0  0  0
   19.6304    0.5010    0.0000 H   0  0  0  0  0  0  0  0  0  0  0  0
   19.4138    0.4269    0.0000 H   0  0  0  0  0  0  0  0  0  0  0  0
   18.5445    1.7713    0.0000 H   0  0  0  0  0  0  0  0  0  0  0  0
   21.3264    2.7829    0.0000 H   0  0  0  0  0  0  0  0  0  0  0  0
   19.0730    3.3212    0.0000 H   0  0  0  0  0  0  0  0  0  0  0  0
   18.2759    3.3212    0.0000 H   0  0  0  0  0  0  0  0  0  0  0  0
   20.2357    0.4746    0.0000 H   0  0  0  0  0  0  0  0  0  0  0  0
   21.0241    0.7323    0.0000 H   0  0  0  0  0  0  0  0  0  0  0  0
   17.5964    2.9289    0.0000 H   0  0  0  0  0  0  0  0  0  0  0  0
   17.1978    2.2386    0.0000 H   0  0  0  0  0  0  0  0  0  0  0  0
   21.5312    1.4315    0.0000 H   0  0  0  0  0  0  0  0  0  0  0  0
   21.5312    2.2610    0.0000 H   0  0  0  0  0  0  0  0  0  0  0  0
   18.9085   -0.7756    0.0000 H   0  0  0  0  0  0  0  0  0  0  0  0
   19.2997   -0.0797    0.0000 H   0  0  0  0  0  0  0  0  0  0  0  0
   20.9900    4.1908    0.0000 H   0  0  0  0  0  0  0  0  0  0  0  0
   20.1605    3.3463    0.0000 H   0  0  0  0  0  0  0  0  0  0  0  0
   19.5405    3.9663    0.0000 H   0  0  0  0  0  0  0  0  0  0  0  0
   18.9205    3.3463    0.0000 H   0  0  0  0  0  0  0  0  0  0  0  0
   16.3798    1.8702    0.0000 H   0  0  0  0  0  0  0  0  0  0  0  0
   15.5817    1.8855    0.0000 H   0  0  0  0  0  0  0  0  0  0  0  0
   17.7949   -1.3430    0.0000 H   0  0  0  0  0  0  0  0  0  0  0  0
   17.5261    1.8346    0.0000 H   0  0  0  0  0  0  0  0  0  0  0  0
   16.9109    2.4594    0.0000 H   0  0  0  0  0  0  0  0  0  0  0  0
   16.2862    1.8442    0.0000 H   0  0  0  0  0  0  0  0  0  0  0  0
   15.5577   -1.2279    0.0000 H   0  0  0  0  0  0  0  0  0  0  0  0
   16.3559   -1.2248    0.0000 H   0  0  0  0  0  0  0  0  0  0  0  0
   14.8192    1.4608    0.0000 H   0  0  0  0  0  0  0  0  0  0  0  0
   14.4120    0.7742    0.0000 H   0  0  0  0  0  0  0  0  0  0  0  0
   21.7964    3.1881    0.0000 H   0  0  0  0  0  0  0  0  0  0  0  0
   22.3897    3.7204    0.0000 H   0  0  0  0  0  0  0  0  0  0  0  0
   15.0141   -0.8294    0.0000 H   0  0  0  0  0  0  0  0  0  0  0  0
   20.5910    4.7599    0.0000 H   0  0  0  0  0  0  0  0  0  0  0  0
   19.7155    4.8073    0.0000 H   0  0  0  0  0  0  0  0  0  0  0  0
   19.6680    3.9318    0.0000 H   0  0  0  0  0  0  0  0  0  0  0  0
   22.0660    5.3779    0.0000 H   0  0  0  0  0  0  0  0  0  0  0  0
   21.4727    4.8456    0.0000 H   0  0  0  0  0  0  0  0  0  0  0  0
   22.6510    5.4259    0.0000 H   0  0  0  0  0  0  0  0  0  0  0  0
   23.5683    6.5043    0.0000 H   0  0  0  0  0  0  0  0  0  0  0  0
   23.2065    3.8925    0.0000 H   0  0  0  0  0  0  0  0  0  0  0  0
   23.9641    3.6449    0.0000 H   0  0  0  0  0  0  0  0  0  0  0  0
   24.4821    5.5145    0.0000 H   0  0  0  0  0  0  0  0  0  0  0  0
   24.9609    6.2491    0.0000 H   0  0  0  0  0  0  0  0  0  0  0  0
   24.2263    6.7279    0.0000 H   0  0  0  0  0  0  0  0  0  0  0  0
   23.1693    7.0734    0.0000 H   0  0  0  0  0  0  0  0  0  0  0  0
   22.2938    7.1208    0.0000 H   0  0  0  0  0  0  0  0  0  0  0  0
   22.2464    6.2452    0.0000 H   0  0  0  0  0  0  0  0  0  0  0  0
   24.8392    3.8197    0.0000 H   0  0  0  0  0  0  0  0  0  0  0  0
   25.3181    4.5542    0.0000 H   0  0  0  0  0  0  0  0  0  0  0  0
   24.5835    5.0331    0.0000 H   0  0  0  0  0  0  0  0  0  0  0  0
   12.0150   -1.1728    0.0000 H   0  0  0  0  0  0  0  0  0  0  0  0
   12.8120   -1.1759    0.0000 H   0  0  0  0  0  0  0  0  0  0  0  0
   11.9516    0.2773    0.0000 H   0  0  0  0  0  0  0  0  0  0  0  0
   11.1546    0.2804    0.0000 H   0  0  0  0  0  0  0  0  0  0  0  0
   10.2830   -1.1661    0.0000 H   0  0  0  0  0  0  0  0  0  0  0  0
   11.0800   -1.1692    0.0000 H   0  0  0  0  0  0  0  0  0  0  0  0
   10.2196    0.2840    0.0000 H   0  0  0  0  0  0  0  0  0  0  0  0
    9.4225    0.2871    0.0000 H   0  0  0  0  0  0  0  0  0  0  0  0
    8.5509   -1.1595    0.0000 H   0  0  0  0  0  0  0  0  0  0  0  0
    9.3480   -1.1625    0.0000 H   0  0  0  0  0  0  0  0  0  0  0  0
    8.4875    0.2907    0.0000 H   0  0  0  0  0  0  0  0  0  0  0  0
    7.6905    0.2938    0.0000 H   0  0  0  0  0  0  0  0  0  0  0  0
    6.8189   -1.1528    0.0000 H   0  0  0  0  0  0  0  0  0  0  0  0
    7.6159   -1.1558    0.0000 H   0  0  0  0  0  0  0  0  0  0  0  0
    6.3575    0.4440    0.0000 H   0  0  0  0  0  0  0  0  0  0  0  0
    4.9515   -0.3606    0.0000 H   0  0  0  0  0  0  0  0  0  0  0  0
    5.6932   -2.2561    0.0000 H   0  0  0  0  0  0  0  0  0  0  0  0
    6.0943   -1.5674    0.0000 H   0  0  0  0  0  0  0  0  0  0  0  0
    4.4056   -1.5859    0.0000 H   0  0  0  0  0  0  0  0  0  0  0  0
    4.0044   -2.2746    0.0000 H   0  0  0  0  0  0  0  0  0  0  0  0
    4.8214   -3.7528    0.0000 H   0  0  0  0  0  0  0  0  0  0  0  0
    5.2225   -3.0640    0.0000 H   0  0  0  0  0  0  0  0  0  0  0  0
    3.5338   -3.0826    0.0000 H   0  0  0  0  0  0  0  0  0  0  0  0
    3.1326   -3.7713    0.0000 H   0  0  0  0  0  0  0  0  0  0  0  0
    3.9496   -5.2494    0.0000 H   0  0  0  0  0  0  0  0  0  0  0  0
    4.3507   -4.5607    0.0000 H   0  0  0  0  0  0  0  0  0  0  0  0
    2.6620   -4.5792    0.0000 H   0  0  0  0  0  0  0  0  0  0  0  0
    2.2608   -5.2680    0.0000 H   0  0  0  0  0  0  0  0  0  0  0  0
    3.0778   -6.7461    0.0000 H   0  0  0  0  0  0  0  0  0  0  0  0
    3.4789   -6.0573    0.0000 H   0  0  0  0  0  0  0  0  0  0  0  0
    1.6921   -6.1212    0.0000 H   0  0  0  0  0  0  0  0  0  0  0  0
    1.4619   -6.9672    0.0000 H   0  0  0  0  0  0  0  0  0  0  0  0
    2.3079   -7.1974    0.0000 H   0  0  0  0  0  0  0  0  0  0  0  0
  1 23  1  0  0  0  0
  1 29  1  0  0  0  0
  2 29  2  0  0  0  0
  3  4  1  0  0  0  0
  3  7  1  0  0  0  0
  3  8  1  0  0  0  0
  3 15  1  1  0  0  0
  4  5  1  0  0  0  0
  4 10  1  0  0  0  0
  4 50  1  6  0  0  0
  5  6  1  0  0  0  0
  5 13  1  0  0  0  0
  5 51  1  1  0  0  0
  6  9  1  0  0  0  0
  6 11  1  0  0  0  0
  6 52  1  6  0  0  0
  7 12  1  0  0  0  0
  7 14  1  0  0  0  0
  7 53  1  6  0  0  0
  8 11  1  0  0  0  0
  8 54  1  0  0  0  0
  8 55  1  0  0  0  0
  9 16  1  0  0  0  0
  9 17  1  0  0  0  0
  9 19  1  1  0  0  0
 10 12  1  0  0  0  0
 10 56  1  0  0  0  0
 10 57  1  0  0  0  0
 11 58  1  0  0  0  0
 11 59  1  0  0  0  0
 12 60  1  0  0  0  0
 12 61  1  0  0  0  0
 13 18  1  0  0  0  0
 13 62  1  0  0  0  0
 13 63  1  0  0  0  0
 14 22  1  0  0  0  0
 14 24  1  6  0  0  0
 14 64  1  0  0  0  0
 15 65  1  0  0  0  0
 15 66  1  0  0  0  0
 15 67  1  0  0  0  0
 16 18  2  0  0  0  0
 16 20  1  0  0  0  0
 17 21  1  0  0  0  0
 17 68  1  0  0  0  0
 17 69  1  0  0  0  0
 18 70  1  0  0  0  0
 19 71  1  0  0  0  0
 19 72  1  0  0  0  0
 19 73  1  0  0  0  0
 20 23  1  0  0  0  0
 20 74  1  0  0  0  0
 20 75  1  0  0  0  0
 21 23  1  0  0  0  0
 21 76  1  0  0  0  0
 21 77  1  0  0  0  0
 22 25  1  0  0  0  0
 22 78  1  0  0  0  0
 22 79  1  0  0  0  0
 23 80  1  0  0  0  0
 24 81  1  0  0  0  0
 24 82  1  0  0  0  0
 24 83  1  0  0  0  0
 26 25  1  6  0  0  0
 25 84  1  0  0  0  0
 25 85  1  0  0  0  0
 26 27  1  0  0  0  0
 26 28  1  0  0  0  0
 26 86  1  0  0  0  0
 27 30  1  0  0  0  0
 27 31  1  0  0  0  0
 27 87  1  0  0  0  0
 28 32  1  0  0  0  0
 28 88  1  0  0  0  0
 28 89  1  0  0  0  0
 29 33  1  0  0  0  0
 30 90  1  0  0  0  0
 30 91  1  0  0  0  0
 30 92  1  0  0  0  0
 31 93  1  0  0  0  0
 31 94  1  0  0  0  0
 31 95  1  0  0  0  0
 32 96  1  0  0  0  0
 32 97  1  0  0  0  0
 32 98  1  0  0  0  0
 33 34  1  0  0  0  0
 33 99  1  0  0  0  0
 33100  1  0  0  0  0
 34 35  1  0  0  0  0
 34101  1  0  0  0  0
 34102  1  0  0  0  0
 35 36  1  0  0  0  0
 35103  1  0  0  0  0
 35104  1  0  0  0  0
 36 37  1  0  0  0  0
 36105  1  0  0  0  0
 36106  1  0  0  0  0
 37 38  1  0  0  0  0
 37107  1  0  0  0  0
 37108  1  0  0  0  0
 38 39  1  0  0  0  0
 38109  1  0  0  0  0
 38110  1  0  0  0  0
 39 40  1  0  0  0  0
 39111  1  0  0  0  0
 39112  1  0  0  0  0
 40 41  2  0  0  0  0
 40113  1  0  0  0  0
 41 42  1  0  0  0  0
 41114  1  0  0  0  0
 42 43  1  0  0  0  0
 42115  1  0  0  0  0
 42116  1  0  0  0  0
 43 44  1  0  0  0  0
 43117  1  0  0  0  0
 43118  1  0  0  0  0
 44 45  1  0  0  0  0
 44119  1  0  0  0  0
 44120  1  0  0  0  0
 45 46  1  0  0  0  0
 45121  1  0  0  0  0
 45122  1  0  0  0  0
 46 47  1  0  0  0  0
 46123  1  0  0  0  0
 46124  1  0  0  0  0
 47 48  1  0  0  0  0
 47125  1  0  0  0  0
 47126  1  0  0  0  0
 48 49  1  0  0  0  0
 48127  1  0  0  0  0
 48128  1  0  0  0  0
 49129  1  0  0  0  0
 49130  1  0  0  0  0
 49131  1  0  0  0  0
M  END
> <PUBCHEM_COMPOUND_CID>
20831071

> <PUBCHEM_COMPOUND_CANONICALIZED>
1

> <PUBCHEM_CACTVS_COMPLEXITY>
1020

> <PUBCHEM_CACTVS_HBOND_ACCEPTOR>
2

> <PUBCHEM_CACTVS_HBOND_DONOR>
0

> <PUBCHEM_CACTVS_ROTATABLE_BOND>
23

> <PUBCHEM_CACTVS_SUBSKEYS>
AAADcfB8MAAAAAAAAAAAAAAAAAAAAYAAAAAwYIAAAAAAAGCAAAAAGgAAAAAADxSggAICCAAABACIAiDSCAAAAAAgAAAICAEAAAgAABIAAQACAAAEwAAIAAOIyPCPgAAAAAAAAADAAAQAACAAAQAACAAAAA==

> <PUBCHEM_IUPAC_OPENEYE_NAME>
[(8S,9S,10R,13R,14S,17R)-17-[(1R,4R)-4-ethyl-1,5-dimethyl-hexyl]-10,13-dimethyl-2,3,4,7,8,9,11,12,14,15,16,17-dodecahydro-1H-cyclopenta[a]phenanthren-3-yl] (Z)-octadec-9-enoate

> <PUBCHEM_IUPAC_CAS_NAME>
(Z)-9-octadecenoic acid [(8S,9S,10R,13R,14S,17R)-17-[(2R,5R)-5-ethyl-6-methylheptan-2-yl]-10,13-dimethyl-2,3,4,7,8,9,11,12,14,15,16,17-dodecahydro-1H-cyclopenta[a]phenanthren-3-yl] ester

> <PUBCHEM_IUPAC_NAME_MARKUP>
[(8<I>S</I>,9<I>S</I>,10<I>R</I>,13<I>R</I>,14<I>S</I>,17<I>R</I>)-17-[(2<I>R</I>,5<I>R</I>)-5-ethyl-6-methylheptan-2-yl]-10,13-dimethyl-2,3,4,7,8,9,11,12,14,15,16,17-dodecahydro-1<I>H</I>-cyclopenta[a]phenanthren-3-yl] (<I>Z</I>)-octadec-9-enoate

> <PUBCHEM_IUPAC_NAME>
[(8S,9S,10R,13R,14S,17R)-17-[(2R,5R)-5-ethyl-6-methylheptan-2-yl]-10,13-dimethyl-2,3,4,7,8,9,11,12,14,15,16,17-dodecahydro-1H-cyclopenta[a]phenanthren-3-yl] (Z)-octadec-9-enoate

> <PUBCHEM_IUPAC_SYSTEMATIC_NAME>
[(8S,9S,10R,13R,14S,17R)-17-[(2R,5R)-5-ethyl-6-methyl-heptan-2-yl]-10,13-dimethyl-2,3,4,7,8,9,11,12,14,15,16,17-dodecahydro-1H-cyclopenta[a]phenanthren-3-yl] (Z)-octadec-9-enoate

> <PUBCHEM_IUPAC_TRADITIONAL_NAME>
(Z)-octadec-9-enoic acid [(8S,9S,10R,13R,14S,17R)-17-[(1R,4R)-4-ethyl-1,5-dimethyl-hexyl]-10,13-dimethyl-2,3,4,7,8,9,11,12,14,15,16,17-dodecahydro-1H-cyclopenta[a]phenanthren-3-yl] ester

> <PUBCHEM_IUPAC_INCHI>
InChI=1S/C47H82O2/c1-8-10-11-12-13-14-15-16-17-18-19-20-21-22-23-24-45(48)49-40-31-33-46(6)39(35-40)27-28-41-43-30-29-42(47(43,7)34-32-44(41)46)37(5)25-26-38(9-2)36(3)4/h16-17,27,36-38,40-44H,8-15,18-26,28-35H2,1-7H3/b17-16-/t37-,38-,40?,41+,42-,43+,44+,46+,47-/m1/s1

> <PUBCHEM_IUPAC_INCHIKEY>
YVDXIVLWTCSVDW-ZYISOHIXSA-N

> <PUBCHEM_XLOGP3_AA>
17.4

> <PUBCHEM_EXACT_MASS>
678.631482

> <PUBCHEM_MOLECULAR_FORMULA>
C47H82O2

> <PUBCHEM_MOLECULAR_WEIGHT>
679.2

> <PUBCHEM_OPENEYE_CAN_SMILES>
CCCCCCCCC=CCCCCCCCC(=O)OC1CCC2(C3CCC4(C(C3CC=C2C1)CCC4C(C)CCC(CC)C(C)C)C)C

> <PUBCHEM_OPENEYE_ISO_SMILES>
CCCCCCCC/C=C\CCCCCCCC(=O)OC1CC[C@@]2([C@H]3CC[C@]4([C@H]([C@@H]3CC=C2C1)CC[C@@H]4[C@H](C)CC[C@@H](CC)C(C)C)C)C

> <PUBCHEM_CACTVS_TPSA>
26.3

> <PUBCHEM_MONOISOTOPIC_WEIGHT>
678.631482

> <PUBCHEM_TOTAL_CHARGE>
0

> <PUBCHEM_HEAVY_ATOM_COUNT>
49

> <PUBCHEM_ATOM_DEF_STEREO_COUNT>
8

> <PUBCHEM_ATOM_UDEF_STEREO_COUNT>
1

> <PUBCHEM_BOND_DEF_STEREO_COUNT>
1

> <PUBCHEM_BOND_UDEF_STEREO_COUNT>
0

> <PUBCHEM_ISOTOPIC_ATOM_COUNT>
0

> <PUBCHEM_COMPONENT_COUNT>
1

> <PUBCHEM_CACTVS_TAUTO_COUNT>
-1

> <PUBCHEM_COORDINATE_TYPE>
1
5
255

> <PUBCHEM_BONDANNOTATIONS>
23  1  3
14  24  6
26  25  6
3  15  5
4  50  6
5  51  5
6  52  6
7  53  6
9  19  5

$$$$
