591903
  -OEChem-08272011413D

 30 29  0     1  0  0  0  0  0999 V2000
    3.5386    1.0245   -0.3936 O   0  0  0  0  0  0  0  0  0  0  0  0
   -1.6562    1.3610    0.2934 C   0  0  0  0  0  0  0  0  0  0  0  0
   -1.0899   -0.0436    0.0663 C   0  0  0  0  0  0  0  0  0  0  0  0
   -0.6974    2.2644    1.0818 C   0  0  0  0  0  0  0  0  0  0  0  0
   -2.0373    2.0176   -1.0361 C   0  0  0  0  0  0  0  0  0  0  0  0
   -1.8550   -1.1640    0.0196 C   0  0  0  0  0  0  0  0  0  0  0  0
   -3.3600   -1.1724    0.1808 C   0  0  0  0  0  0  0  0  0  0  0  0
   -1.3019   -2.5544   -0.1874 C   0  0  0  0  0  0  0  0  0  0  0  0
    0.3326   -0.1500   -0.0991 C   0  0  0  0  0  0  0  0  0  0  0  0
    2.9801   -0.2861   -0.4066 C   0  0  2  0  0  0  0  0  0  0  0  0
    1.5243   -0.2135   -0.2373 C   0  0  0  0  0  0  0  0  0  0  0  0
    3.6222   -1.0836    0.7180 C   0  0  0  0  0  0  0  0  0  0  0  0
   -2.5589    1.2921    0.9115 H   0  0  0  0  0  0  0  0  0  0  0  0
   -1.1949    3.2060    1.3411 H   0  0  0  0  0  0  0  0  0  0  0  0
   -0.3846    1.7901    2.0187 H   0  0  0  0  0  0  0  0  0  0  0  0
    0.1980    2.5219    0.5055 H   0  0  0  0  0  0  0  0  0  0  0  0
   -2.7654    1.4111   -1.5854 H   0  0  0  0  0  0  0  0  0  0  0  0
   -1.1615    2.1562   -1.6798 H   0  0  0  0  0  0  0  0  0  0  0  0
   -2.4869    3.0018   -0.8654 H   0  0  0  0  0  0  0  0  0  0  0  0
   -3.6311   -1.6332    1.1362 H   0  0  0  0  0  0  0  0  0  0  0  0
   -3.8189   -1.7565   -0.6249 H   0  0  0  0  0  0  0  0  0  0  0  0
   -3.8182   -0.1826    0.1395 H   0  0  0  0  0  0  0  0  0  0  0  0
   -1.7081   -2.9846   -1.1092 H   0  0  0  0  0  0  0  0  0  0  0  0
   -0.2129   -2.6007   -0.2618 H   0  0  0  0  0  0  0  0  0  0  0  0
   -1.5926   -3.1992    0.6493 H   0  0  0  0  0  0  0  0  0  0  0  0
    3.2301   -0.7484   -1.3675 H   0  0  0  0  0  0  0  0  0  0  0  0
    4.7096   -1.1184    0.5900 H   0  0  0  0  0  0  0  0  0  0  0  0
    3.2412   -2.1097    0.7509 H   0  0  0  0  0  0  0  0  0  0  0  0
    3.4350   -0.6165    1.6922 H   0  0  0  0  0  0  0  0  0  0  0  0
    3.1733    1.5076   -1.1547 H   0  0  0  0  0  0  0  0  0  0  0  0
  1 10  1  0  0  0  0
  1 30  1  0  0  0  0
  2  3  1  0  0  0  0
  2  4  1  0  0  0  0
  2  5  1  0  0  0  0
  2 13  1  0  0  0  0
  3  6  2  0  0  0  0
  3  9  1  0  0  0  0
  4 14  1  0  0  0  0
  4 15  1  0  0  0  0
  4 16  1  0  0  0  0
  5 17  1  0  0  0  0
  5 18  1  0  0  0  0
  5 19  1  0  0  0  0
  6  7  1  0  0  0  0
  6  8  1  0  0  0  0
  7 20  1  0  0  0  0
  7 21  1  0  0  0  0
  7 22  1  0  0  0  0
  8 23  1  0  0  0  0
  8 24  1  0  0  0  0
  8 25  1  0  0  0  0
  9 11  3  0  0  0  0
 10 11  1  0  0  0  0
 10 12  1  0  0  0  0
 10 26  1  0  0  0  0
 12 27  1  0  0  0  0
 12 28  1  0  0  0  0
 12 29  1  0  0  0  0
M  END
> <PUBCHEM_COMPOUND_CID>
591903

> <PUBCHEM_CONFORMER_RMSD>
0.4

> <PUBCHEM_CONFORMER_DIVERSEORDER>
2
3
4
1

> <PUBCHEM_MMFF94_PARTIAL_CHARGES>
10
1 -0.68
10 0.48
11 -0.2
2 0.14
3 -0.07
30 0.4
6 -0.28
7 0.14
8 0.14
9 -0.06

> <PUBCHEM_EFFECTIVE_ROTOR_COUNT>
1

> <PUBCHEM_PHARMACOPHORE_FEATURES>
4
1 1 acceptor
1 1 donor
3 2 4 5 hydrophobe
3 6 7 8 hydrophobe

> <PUBCHEM_HEAVY_ATOM_COUNT>
12

> <PUBCHEM_ATOM_DEF_STEREO_COUNT>
0

> <PUBCHEM_ATOM_UDEF_STEREO_COUNT>
1

> <PUBCHEM_BOND_DEF_STEREO_COUNT>
0

> <PUBCHEM_BOND_UDEF_STEREO_COUNT>
0

> <PUBCHEM_ISOTOPIC_ATOM_COUNT>
0

> <PUBCHEM_COMPONENT_COUNT>
1

> <PUBCHEM_CACTVS_TAUTO_COUNT>
1

> <PUBCHEM_CONFORMER_ID>
0009081F00000002

> <PUBCHEM_MMFF94_ENERGY>
12.6977

> <PUBCHEM_FEATURE_SELFOVERLAP>
20.297

> <PUBCHEM_SHAPE_FINGERPRINT>
12716758 59 18340478972229984410
12932764 1 18114475461385117884
14614273 12 18263364690299287949
15490181 8 17765151666328377731
15669948 3 18412263973494930118
18342897 69 18411418431857392346
20510252 161 18342741797219476266
20711985 365 18409445864889207654
20871998 184 18272657852465907679
21524375 3 17681552537309711317
23382010 3 18120062067018156061
23402539 116 18272076172223126279
23552423 10 17329716929909830671
23557571 272 18201732772937918556
23559900 14 18199741467396537058
23598294 1 18411144618928056962
2748010 2 18124609582422214807
305870 269 17547576972355582328
3248919 1 18058729092259344396
58051976 100 18115025191123487366
6333449 129 18340768152351754053
6992083 37 18043818576394176532
7364860 26 17407682178301159035
74978 22 18337675188015498838
81228 2 18339940263161736915

> <PUBCHEM_SHAPE_MULTIPOLES>
241.09
5.59
2.52
0.89
5.41
0.12
0.03
-1.04
-0.01
-1.94
0.12
-0.05
0.36
-0.1

> <PUBCHEM_SHAPE_SELFOVERLAP>
455.446

> <PUBCHEM_SHAPE_VOLUME>
148.9

> <PUBCHEM_COORDINATE_TYPE>
2
5
10

$$$$
