140084
  -OEChem-08272011353D

 23 24  0     1  0  0  0  0  0999 V2000
    2.9482   -0.1625    0.3599 O   0  0  0  0  0  0  0  0  0  0  0  0
   -2.9482    0.1627    0.3599 O   0  0  0  0  0  0  0  0  0  0  0  0
    0.9142   -0.8373   -0.7187 C   0  0  2  0  0  0  0  0  0  0  0  0
   -0.9142    0.8373   -0.7187 C   0  0  2  0  0  0  0  0  0  0  0  0
    0.0000    0.0000   -1.6007 C   0  0  0  0  0  0  0  0  0  0  0  0
    0.0943   -1.8313    0.1074 C   0  0  0  0  0  0  0  0  0  0  0  0
   -0.0941    1.8312    0.1073 C   0  0  0  0  0  0  0  0  0  0  0  0
   -1.0620   -1.2110    0.8895 C   0  0  0  0  0  0  0  0  0  0  0  0
    1.0619    1.2109    0.8898 C   0  0  0  0  0  0  0  0  0  0  0  0
    1.7550    0.0749    0.1621 C   0  0  0  0  0  0  0  0  0  0  0  0
   -1.7551   -0.0748    0.1622 C   0  0  0  0  0  0  0  0  0  0  0  0
    1.6063   -1.3951   -1.3618 H   0  0  0  0  0  0  0  0  0  0  0  0
   -1.6063    1.3951   -1.3619 H   0  0  0  0  0  0  0  0  0  0  0  0
    0.5929    0.6538   -2.2525 H   0  0  0  0  0  0  0  0  0  0  0  0
   -0.5929   -0.6539   -2.2524 H   0  0  0  0  0  0  0  0  0  0  0  0
    0.7438   -2.3779    0.8018 H   0  0  0  0  0  0  0  0  0  0  0  0
   -0.3226   -2.5800   -0.5794 H   0  0  0  0  0  0  0  0  0  0  0  0
   -0.7437    2.3781    0.8014 H   0  0  0  0  0  0  0  0  0  0  0  0
    0.3230    2.5796   -0.5796 H   0  0  0  0  0  0  0  0  0  0  0  0
   -0.7120   -0.8299    1.8532 H   0  0  0  0  0  0  0  0  0  0  0  0
    1.8041    1.9880    1.1058 H   0  0  0  0  0  0  0  0  0  0  0  0
   -1.8043   -1.9882    1.1052 H   0  0  0  0  0  0  0  0  0  0  0  0
    0.7115    0.8295    1.8532 H   0  0  0  0  0  0  0  0  0  0  0  0
  1 10  2  0  0  0  0
  2 11  2  0  0  0  0
  3  5  1  0  0  0  0
  3  6  1  0  0  0  0
  3 10  1  0  0  0  0
  3 12  1  0  0  0  0
  4  5  1  0  0  0  0
  4  7  1  0  0  0  0
  4 11  1  0  0  0  0
  4 13  1  0  0  0  0
  5 14  1  0  0  0  0
  5 15  1  0  0  0  0
  6  8  1  0  0  0  0
  6 16  1  0  0  0  0
  6 17  1  0  0  0  0
  7  9  1  0  0  0  0
  7 18  1  0  0  0  0
  7 19  1  0  0  0  0
  8 11  1  0  0  0  0
  8 20  1  0  0  0  0
  8 22  1  0  0  0  0
  9 10  1  0  0  0  0
  9 21  1  0  0  0  0
  9 23  1  0  0  0  0
M  END
> <PUBCHEM_COMPOUND_CID>
140084

> <PUBCHEM_CONFORMER_RMSD>
0.4

> <PUBCHEM_CONFORMER_DIVERSEORDER>
1
3
2

> <PUBCHEM_MMFF94_PARTIAL_CHARGES>
8
1 -0.57
10 0.45
11 0.45
2 -0.57
3 0.06
4 0.06
8 0.06
9 0.06

> <PUBCHEM_EFFECTIVE_ROTOR_COUNT>
1

> <PUBCHEM_PHARMACOPHORE_FEATURES>
4
1 1 acceptor
1 2 acceptor
6 3 4 5 6 8 11 rings
6 3 4 5 7 9 10 rings

> <PUBCHEM_HEAVY_ATOM_COUNT>
11

> <PUBCHEM_ATOM_DEF_STEREO_COUNT>
0

> <PUBCHEM_ATOM_UDEF_STEREO_COUNT>
2

> <PUBCHEM_BOND_DEF_STEREO_COUNT>
0

> <PUBCHEM_BOND_UDEF_STEREO_COUNT>
0

> <PUBCHEM_ISOTOPIC_ATOM_COUNT>
0

> <PUBCHEM_COMPONENT_COUNT>
1

> <PUBCHEM_CACTVS_TAUTO_COUNT>
3

> <PUBCHEM_CONFORMER_ID>
0002233400000001

> <PUBCHEM_MMFF94_ENERGY>
17.7823

> <PUBCHEM_FEATURE_SELFOVERLAP>
21.809

> <PUBCHEM_SHAPE_FINGERPRINT>
12423570 1 17417804015726079372
13024252 1 18187915162855663214
137420 1 17409074803860615389
15557651 10 17774989168460243568
16945 1 18410856542459920469
18185500 45 15527699182015410689
21040471 1 18265905841690413375
241688 4 17247251993967774967
2748010 2 18194682798273462303
29004967 10 18272937093832497968
369184 2 18340472418342018570
5084963 1 17916858140132445561
68250623 7 17771897504945483527

> <PUBCHEM_SHAPE_MULTIPOLES>
214.64
2.76
1.66
1.12
0
0
-0.31
0
0.65
0
0.22
0
0
0.29

> <PUBCHEM_SHAPE_SELFOVERLAP>
450.067

> <PUBCHEM_SHAPE_VOLUME>
119.3

> <PUBCHEM_COORDINATE_TYPE>
2
5
10

$$$$
