21778194
  -OEChem-08272005563D

 36 36  0     1  0  0  0  0  0999 V2000
    2.8428    0.7225    0.0038 O   0  0  0  0  0  0  0  0  0  0  0  0
    4.8156    1.8479   -0.3235 O   0  0  0  0  0  0  0  0  0  0  0  0
    2.4856   -0.6018    0.4230 C   0  0  1  0  0  0  0  0  0  0  0  0
    1.1894   -1.0214   -0.2437 C   0  0  0  0  0  0  0  0  0  0  0  0
    0.0163   -0.1580    0.2193 C   0  0  0  0  0  0  0  0  0  0  0  0
   -1.2944   -0.6060   -0.4298 C   0  0  0  0  0  0  0  0  0  0  0  0
    3.6681   -1.4546    0.0218 C   0  0  0  0  0  0  0  0  0  0  0  0
   -2.4747    0.2372    0.0590 C   0  0  0  0  0  0  0  0  0  0  0  0
   -3.7908   -0.2383   -0.5637 C   0  0  0  0  0  0  0  0  0  0  0  0
    4.8281   -0.5107    0.2300 C   0  0  0  0  0  0  0  0  0  0  0  0
   -5.0241    0.5291   -0.0523 C   0  0  0  0  0  0  0  0  0  0  0  0
    4.2059    0.8197   -0.0742 C   0  0  0  0  0  0  0  0  0  0  0  0
   -6.3171    0.0781   -0.7331 C   0  0  0  0  0  0  0  0  0  0  0  0
   -5.1507    0.3563    1.4634 C   0  0  0  0  0  0  0  0  0  0  0  0
    2.3694   -0.5883    1.5142 H   0  0  0  0  0  0  0  0  0  0  0  0
    0.9829   -2.0742   -0.0168 H   0  0  0  0  0  0  0  0  0  0  0  0
    1.2821   -0.9292   -1.3333 H   0  0  0  0  0  0  0  0  0  0  0  0
   -0.0762   -0.2210    1.3105 H   0  0  0  0  0  0  0  0  0  0  0  0
    0.2023    0.8938   -0.0286 H   0  0  0  0  0  0  0  0  0  0  0  0
   -1.2121   -0.5263   -1.5205 H   0  0  0  0  0  0  0  0  0  0  0  0
   -1.4763   -1.6620   -0.1952 H   0  0  0  0  0  0  0  0  0  0  0  0
    3.6103   -1.7297   -1.0389 H   0  0  0  0  0  0  0  0  0  0  0  0
    3.7507   -2.3759    0.6053 H   0  0  0  0  0  0  0  0  0  0  0  0
   -2.3092    1.2924   -0.1888 H   0  0  0  0  0  0  0  0  0  0  0  0
   -2.5129    0.1597    1.1500 H   0  0  0  0  0  0  0  0  0  0  0  0
   -3.9219   -1.3102   -0.3669 H   0  0  0  0  0  0  0  0  0  0  0  0
   -3.7290   -0.1271   -1.6538 H   0  0  0  0  0  0  0  0  0  0  0  0
    5.6506   -0.7281   -0.4552 H   0  0  0  0  0  0  0  0  0  0  0  0
    5.1755   -0.5145    1.2670 H   0  0  0  0  0  0  0  0  0  0  0  0
   -4.8882    1.5966   -0.2670 H   0  0  0  0  0  0  0  0  0  0  0  0
   -6.2483    0.2121   -1.8177 H   0  0  0  0  0  0  0  0  0  0  0  0
   -7.1720    0.6623   -0.3768 H   0  0  0  0  0  0  0  0  0  0  0  0
   -6.5208   -0.9797   -0.5350 H   0  0  0  0  0  0  0  0  0  0  0  0
   -6.0933    0.7850    1.8223 H   0  0  0  0  0  0  0  0  0  0  0  0
   -4.3511    0.8747    2.0005 H   0  0  0  0  0  0  0  0  0  0  0  0
   -5.1352   -0.7007    1.7502 H   0  0  0  0  0  0  0  0  0  0  0  0
  1  3  1  0  0  0  0
  1 12  1  0  0  0  0
  2 12  2  0  0  0  0
  3  4  1  0  0  0  0
  3  7  1  0  0  0  0
  3 15  1  0  0  0  0
  4  5  1  0  0  0  0
  4 16  1  0  0  0  0
  4 17  1  0  0  0  0
  5  6  1  0  0  0  0
  5 18  1  0  0  0  0
  5 19  1  0  0  0  0
  6  8  1  0  0  0  0
  6 20  1  0  0  0  0
  6 21  1  0  0  0  0
  7 10  1  0  0  0  0
  7 22  1  0  0  0  0
  7 23  1  0  0  0  0
  8  9  1  0  0  0  0
  8 24  1  0  0  0  0
  8 25  1  0  0  0  0
  9 11  1  0  0  0  0
  9 26  1  0  0  0  0
  9 27  1  0  0  0  0
 10 12  1  0  0  0  0
 10 28  1  0  0  0  0
 10 29  1  0  0  0  0
 11 13  1  0  0  0  0
 11 14  1  0  0  0  0
 11 30  1  0  0  0  0
 13 31  1  0  0  0  0
 13 32  1  0  0  0  0
 13 33  1  0  0  0  0
 14 34  1  0  0  0  0
 14 35  1  0  0  0  0
 14 36  1  0  0  0  0
M  END
> <PUBCHEM_COMPOUND_CID>
21778194

> <PUBCHEM_CONFORMER_RMSD>
0.8

> <PUBCHEM_CONFORMER_DIVERSEORDER>
1
44
80
89
5
16
91
74
68
73
2
28
18
84
66
14
3
95
4
24
43
94
76
71
36
10
88
45
39
26
55
60
13
83
22
48
35
82
34
87
53
77
6
93
8
81
42
61
19
65
15
70
96
23
67
17
90
12
62
78
63
92
11
59
75
64
9
40
37
33
38
69
27
54
56
85
86
46
50
21
30
7
58
41
25
72
20
31
51
32
79
29
47
52
49
57

> <PUBCHEM_MMFF94_PARTIAL_CHARGES>
5
1 -0.43
10 0.06
12 0.66
2 -0.57
3 0.28

> <PUBCHEM_EFFECTIVE_ROTOR_COUNT>
6.8

> <PUBCHEM_PHARMACOPHORE_FEATURES>
5
1 2 acceptor
3 11 13 14 hydrophobe
3 4 5 6 hydrophobe
3 8 9 11 hydrophobe
5 1 3 7 10 12 rings

> <PUBCHEM_HEAVY_ATOM_COUNT>
14

> <PUBCHEM_ATOM_DEF_STEREO_COUNT>
0

> <PUBCHEM_ATOM_UDEF_STEREO_COUNT>
1

> <PUBCHEM_BOND_DEF_STEREO_COUNT>
0

> <PUBCHEM_BOND_UDEF_STEREO_COUNT>
0

> <PUBCHEM_ISOTOPIC_ATOM_COUNT>
0

> <PUBCHEM_COMPONENT_COUNT>
1

> <PUBCHEM_CACTVS_TAUTO_COUNT>
2

> <PUBCHEM_CONFORMER_ID>
014C4F1200000001

> <PUBCHEM_MMFF94_ENERGY>
8.9371

> <PUBCHEM_FEATURE_SELFOVERLAP>
25.786

> <PUBCHEM_SHAPE_FINGERPRINT>
10354089 29 18408324393262237872
10912923 1 18202561761729169331
11287383 113 18187086169627098283
11858739 19 9439412314990721561
13081056 2 18259982652308441204
13167372 99 18341614746536133625
13533116 47 16950834800343698810
13955234 65 18261669282145925906
14123238 8 18131068230051462391
1420 363 17603873282337338827
14251718 22 15482948363412683731
14251732 16 18335140955542646747
14251764 75 17246134173391205484
14528608 73 18060134370882443517
16079462 125 17385711496716235349
17834072 33 18131345337020124383
17834076 25 17775283859294111863
17844677 252 18335143038232500837
18785283 64 16879365612446355941
19433438 28 17603583002213493229
19489759 90 16081085962036132061
20281389 69 17989205915673800929
20645477 56 17967531293851455591
20645477 70 18341049610375981718
212847 35 18201998828823475640
21652331 79 18408321081573843245
23402539 116 16271920489807778361
23402655 69 18201437017131463142
23532345 1 18407762534415392578
23557571 272 16371285502925096383
270888 7 18119811572157879572
29717793 49 17561370560980481100
300161 21 18412536635029742791
3545911 37 18333733524476183582
4047638 21 18260548931362696082
42 15 8214145165948307519
42788 4 18409728448273234463
449060 50 18259985980734100119
465052 167 8646772218185460344
4990 188 14189573039765215215
5104073 3 18336824294537994458
522135 26 18413387618802268574
5374978 207 17894624842862092624
542803 24 18131915953316024115
57483677 66 9583513218379975157
7062679 6 17346046567605317961
8272917 22 18271810082051943622
90127 26 18188214191464030281

> <PUBCHEM_SHAPE_MULTIPOLES>
276.37
15.34
1.21
0.87
10.83
0.19
-0.19
3.11
0.1
-1.86
0.09
1.06
0.04
-0.6

> <PUBCHEM_SHAPE_SELFOVERLAP>
530.992

> <PUBCHEM_SHAPE_VOLUME>
171.2

> <PUBCHEM_COORDINATE_TYPE>
2
5
10

$$$$
