573576
  -OEChem-08272010533D

 34 36  0     1  0  0  0  0  0999 V2000
    2.4950   -2.2443   -0.9595 O   0  0  0  0  0  0  0  0  0  0  0  0
   -0.0723   -2.0828    0.9468 O   0  0  0  0  0  0  0  0  0  0  0  0
   -0.1742    2.4339   -0.1475 O   0  0  0  0  0  0  0  0  0  0  0  0
   -0.5396    0.1379    0.2863 N   0  0  0  0  0  0  0  0  0  0  0  0
    1.7124   -0.4957    0.5560 C   0  0  2  0  0  0  0  0  0  0  0  0
    1.5763    1.0272    0.7492 C   0  0  2  0  0  0  0  0  0  0  0  0
    2.2607   -0.8408   -0.8520 C   0  0  1  0  0  0  0  0  0  0  0  0
    0.2610   -0.9479    0.6305 C   0  0  0  0  0  0  0  0  0  0  0  0
    3.5611   -0.0959   -1.1733 C   0  0  0  0  0  0  0  0  0  0  0  0
    2.5332   -1.1287    1.6863 C   0  0  0  0  0  0  0  0  0  0  0  0
    0.1835    1.3263    0.2307 C   0  0  0  0  0  0  0  0  0  0  0  0
    2.6093    1.8562    0.0499 C   0  0  0  0  0  0  0  0  0  0  0  0
    3.5156    1.3500   -0.7961 C   0  0  0  0  0  0  0  0  0  0  0  0
   -1.9469    0.0429    0.0398 C   0  0  0  0  0  0  0  0  0  0  0  0
   -2.7837    1.1216    0.3337 C   0  0  0  0  0  0  0  0  0  0  0  0
   -2.4870   -1.1282   -0.4959 C   0  0  0  0  0  0  0  0  0  0  0  0
   -4.1546    1.0294    0.0933 C   0  0  0  0  0  0  0  0  0  0  0  0
   -3.8579   -1.2201   -0.7364 C   0  0  0  0  0  0  0  0  0  0  0  0
   -4.6917   -0.1412   -0.4417 C   0  0  0  0  0  0  0  0  0  0  0  0
    1.5770    1.2841    1.8169 H   0  0  0  0  0  0  0  0  0  0  0  0
    1.5190   -0.5877   -1.6218 H   0  0  0  0  0  0  0  0  0  0  0  0
    3.7577   -0.1854   -2.2489 H   0  0  0  0  0  0  0  0  0  0  0  0
    4.4146   -0.5739   -0.6771 H   0  0  0  0  0  0  0  0  0  0  0  0
    2.5793   -2.2193    1.5951 H   0  0  0  0  0  0  0  0  0  0  0  0
    3.5589   -0.7465    1.7001 H   0  0  0  0  0  0  0  0  0  0  0  0
    2.0848   -0.9155    2.6638 H   0  0  0  0  0  0  0  0  0  0  0  0
    2.6366    2.9200    0.2711 H   0  0  0  0  0  0  0  0  0  0  0  0
    4.2579    2.0097   -1.2356 H   0  0  0  0  0  0  0  0  0  0  0  0
    1.6467   -2.6975   -0.8173 H   0  0  0  0  0  0  0  0  0  0  0  0
   -2.4069    2.0365    0.7806 H   0  0  0  0  0  0  0  0  0  0  0  0
   -1.8639   -1.9757   -0.7653 H   0  0  0  0  0  0  0  0  0  0  0  0
   -4.8052    1.8665    0.3291 H   0  0  0  0  0  0  0  0  0  0  0  0
   -4.2758   -2.1290   -1.1593 H   0  0  0  0  0  0  0  0  0  0  0  0
   -5.7591   -0.2129   -0.6289 H   0  0  0  0  0  0  0  0  0  0  0  0
  1  7  1  0  0  0  0
  1 29  1  0  0  0  0
  2  8  2  0  0  0  0
  3 11  2  0  0  0  0
  4  8  1  0  0  0  0
  4 11  1  0  0  0  0
  4 14  1  0  0  0  0
  5  6  1  0  0  0  0
  5  7  1  0  0  0  0
  5  8  1  0  0  0  0
  5 10  1  0  0  0  0
  6 11  1  0  0  0  0
  6 12  1  0  0  0  0
  6 20  1  0  0  0  0
  7  9  1  0  0  0  0
  7 21  1  0  0  0  0
  9 13  1  0  0  0  0
  9 22  1  0  0  0  0
  9 23  1  0  0  0  0
 10 24  1  0  0  0  0
 10 25  1  0  0  0  0
 10 26  1  0  0  0  0
 12 13  2  0  0  0  0
 12 27  1  0  0  0  0
 13 28  1  0  0  0  0
 14 15  2  0  0  0  0
 14 16  1  0  0  0  0
 15 17  1  0  0  0  0
 15 30  1  0  0  0  0
 16 18  2  0  0  0  0
 16 31  1  0  0  0  0
 17 19  2  0  0  0  0
 17 32  1  0  0  0  0
 18 19  1  0  0  0  0
 18 33  1  0  0  0  0
 19 34  1  0  0  0  0
M  END
> <PUBCHEM_COMPOUND_CID>
573576

> <PUBCHEM_CONFORMER_RMSD>
0.6

> <PUBCHEM_CONFORMER_DIVERSEORDER>
4
3
5
1
2
8
7
6

> <PUBCHEM_MMFF94_PARTIAL_CHARGES>
26
1 -0.68
11 0.57
12 -0.29
13 -0.29
14 0.12
15 -0.15
16 -0.15
17 -0.15
18 -0.15
19 -0.15
2 -0.57
27 0.15
28 0.15
29 0.4
3 -0.57
30 0.15
31 0.15
32 0.15
33 0.15
34 0.15
4 -0.24
5 0.06
6 0.2
7 0.28
8 0.57
9 0.14

> <PUBCHEM_EFFECTIVE_ROTOR_COUNT>
1.6

> <PUBCHEM_PHARMACOPHORE_FEATURES>
7
1 1 acceptor
1 1 donor
1 2 acceptor
1 3 acceptor
5 4 5 6 8 11 rings
6 14 15 16 17 18 19 rings
6 5 6 7 9 12 13 rings

> <PUBCHEM_HEAVY_ATOM_COUNT>
19

> <PUBCHEM_ATOM_DEF_STEREO_COUNT>
0

> <PUBCHEM_ATOM_UDEF_STEREO_COUNT>
3

> <PUBCHEM_BOND_DEF_STEREO_COUNT>
0

> <PUBCHEM_BOND_UDEF_STEREO_COUNT>
0

> <PUBCHEM_ISOTOPIC_ATOM_COUNT>
0

> <PUBCHEM_COMPONENT_COUNT>
1

> <PUBCHEM_CACTVS_TAUTO_COUNT>
2

> <PUBCHEM_CONFORMER_ID>
0008C08800000004

> <PUBCHEM_MMFF94_ENERGY>
53.9601

> <PUBCHEM_FEATURE_SELFOVERLAP>
35.672

> <PUBCHEM_SHAPE_FINGERPRINT>
10498660 4 18186512203378228565
10980938 120 18409164420008838673
116883 192 18127977399290911340
11796584 16 15984833639960999701
12670546 177 18410014351108013693
13140716 1 18409161082956283353
13224815 77 17967812752012053513
13464514 151 18335708286082894688
13583140 156 15792292746767134185
15536298 74 18273212023421721201
16752209 62 17987511512389330353
16945 1 18193268585823209305
1813 80 17316747786554873794
18186145 218 18114180826285747023
19422 9 18201160966518949685
19862831 5 18413673521679147917
20645477 70 18411695478844133799
21267235 1 18413114965614504903
21452121 103 18130215064974147016
21634736 98 18341618109205103124
21637258 2 15195020297419747340
22182313 1 17979657932754663122
2255824 54 18259981557081432602
22854114 111 17968092006168912313
231179 274 17313376863827982140
2334 1 18409163346340815905
23402539 116 18409164416135812772
23402655 69 18341617014062464517
23557571 272 17987789697225439464
23559900 14 18130224848540031142
25 1 18333733537023442826
2748010 2 17400645316383237817
2838139 119 16806459191801306852
2871803 45 18410290324284586309
3060560 45 18201156650113747486
3082319 5 18342740736541908509
3323516 105 18342181102113283813
4280585 95 17626968382445866822
474 4 17822858722089543652
4990 188 18272376381583535284
5104073 3 18410853270475635041
633830 44 18335423439699301095
7364860 26 18058444481651046369
9709674 26 18269836578791249311

> <PUBCHEM_SHAPE_MULTIPOLES>
368.42
7.61
2.12
1.12
6.31
0.1
-0.12
0.29
2.08
-0.8
0
-0.87
-0.38
-0.43

> <PUBCHEM_SHAPE_SELFOVERLAP>
807.71

> <PUBCHEM_SHAPE_VOLUME>
198.5

> <PUBCHEM_COORDINATE_TYPE>
2
5
10

$$$$
