318158
  -OEChem-08272004143D

 16 16  0     1  0  0  0  0  0999 V2000
    0.6825    1.0908    0.2590 O   0  0  0  0  0  0  0  0  0  0  0  0
   -1.5137    1.6116   -0.1808 O   0  0  0  0  0  0  0  0  0  0  0  0
    1.4247   -0.1246    0.4293 C   0  0  1  0  0  0  0  0  0  0  0  0
    0.4028   -1.1807    0.2661 C   0  0  0  0  0  0  0  0  0  0  0  0
   -0.7989   -0.6623    0.0251 C   0  0  0  0  0  0  0  0  0  0  0  0
    2.5257   -0.1919   -0.6152 C   0  0  0  0  0  0  0  0  0  0  0  0
   -0.6287    0.7961    0.0137 C   0  0  0  0  0  0  0  0  0  0  0  0
   -2.0945   -1.3390   -0.1973 C   0  0  0  0  0  0  0  0  0  0  0  0
    1.8473   -0.1369    1.4394 H   0  0  0  0  0  0  0  0  0  0  0  0
    0.6097   -2.2390    0.3412 H   0  0  0  0  0  0  0  0  0  0  0  0
    3.2113    0.6543   -0.4972 H   0  0  0  0  0  0  0  0  0  0  0  0
    3.0997   -1.1201   -0.5310 H   0  0  0  0  0  0  0  0  0  0  0  0
    2.1189   -0.1238   -1.6308 H   0  0  0  0  0  0  0  0  0  0  0  0
   -2.8224   -1.0326    0.5605 H   0  0  0  0  0  0  0  0  0  0  0  0
   -1.9916   -2.4276   -0.1450 H   0  0  0  0  0  0  0  0  0  0  0  0
   -2.4951   -1.0856   -1.1838 H   0  0  0  0  0  0  0  0  0  0  0  0
  1  3  1  0  0  0  0
  1  7  1  0  0  0  0
  2  7  2  0  0  0  0
  3  4  1  0  0  0  0
  3  6  1  0  0  0  0
  3  9  1  0  0  0  0
  4  5  2  0  0  0  0
  4 10  1  0  0  0  0
  5  7  1  0  0  0  0
  5  8  1  0  0  0  0
  6 11  1  0  0  0  0
  6 12  1  0  0  0  0
  6 13  1  0  0  0  0
  8 14  1  0  0  0  0
  8 15  1  0  0  0  0
  8 16  1  0  0  0  0
M  END
> <PUBCHEM_COMPOUND_CID>
318158

> <PUBCHEM_CONFORMER_RMSD>
0.4

> <PUBCHEM_CONFORMER_DIVERSEORDER>
1
2

> <PUBCHEM_MMFF94_PARTIAL_CHARGES>
8
1 -0.43
10 0.15
2 -0.57
3 0.42
4 -0.29
5 -0.12
7 0.71
8 0.14

> <PUBCHEM_EFFECTIVE_ROTOR_COUNT>
0.4

> <PUBCHEM_PHARMACOPHORE_FEATURES>
2
1 2 acceptor
5 1 3 4 5 7 rings

> <PUBCHEM_HEAVY_ATOM_COUNT>
8

> <PUBCHEM_ATOM_DEF_STEREO_COUNT>
0

> <PUBCHEM_ATOM_UDEF_STEREO_COUNT>
1

> <PUBCHEM_BOND_DEF_STEREO_COUNT>
0

> <PUBCHEM_BOND_UDEF_STEREO_COUNT>
0

> <PUBCHEM_ISOTOPIC_ATOM_COUNT>
0

> <PUBCHEM_COMPONENT_COUNT>
1

> <PUBCHEM_CACTVS_TAUTO_COUNT>
1

> <PUBCHEM_CONFORMER_ID>
0004DACE00000001

> <PUBCHEM_MMFF94_ENERGY>
2.8721

> <PUBCHEM_FEATURE_SELFOVERLAP>
10.148

> <PUBCHEM_SHAPE_FINGERPRINT>
16714656 1 18411707607446623174
21040471 1 18122617254282880464
23552423 10 18188494562576532850
29004967 10 18121778597620544643

> <PUBCHEM_SHAPE_MULTIPOLES>
152.9
2.74
1.52
0.69
0.68
0.33
-0.02
-0.57
-0.54
-0.75
-0.02
0.15
-0.05
0.03

> <PUBCHEM_SHAPE_SELFOVERLAP>
310.746

> <PUBCHEM_SHAPE_VOLUME>
92.1

> <PUBCHEM_COORDINATE_TYPE>
2
5
10

$$$$
