573520
  -OEChem-08272010323D

 22 21  0     0  0  0  0  0  0999 V2000
   -0.1738    0.1489   -0.3808 P   0  0  0  0  0  0  0  0  0  0  0  0
   -0.7315   -1.3652   -0.5089 O   0  0  0  0  0  0  0  0  0  0  0  0
   -1.1913    0.8477    0.6664 O   0  0  0  0  0  0  0  0  0  0  0  0
   -0.0565    0.8572   -1.7000 O   0  0  0  0  0  0  0  0  0  0  0  0
    1.3702    0.0085    0.4991 C   0  0  0  0  0  0  0  0  0  0  0  0
    1.9507    1.3843    0.7963 C   0  0  0  0  0  0  0  0  0  0  0  0
    2.3622   -0.8435   -0.2809 C   0  0  0  0  0  0  0  0  0  0  0  0
   -1.0045   -2.1401    0.6449 C   0  0  0  0  0  0  0  0  0  0  0  0
   -2.5255    1.1023    0.2639 C   0  0  0  0  0  0  0  0  0  0  0  0
    1.1796   -0.4836    1.4596 H   0  0  0  0  0  0  0  0  0  0  0  0
    2.8840    1.3048    1.3630 H   0  0  0  0  0  0  0  0  0  0  0  0
    2.1556    1.9332   -0.1287 H   0  0  0  0  0  0  0  0  0  0  0  0
    1.2464    1.9820    1.3835 H   0  0  0  0  0  0  0  0  0  0  0  0
    3.3052   -0.9488    0.2649 H   0  0  0  0  0  0  0  0  0  0  0  0
    2.5785   -0.3983   -1.2577 H   0  0  0  0  0  0  0  0  0  0  0  0
    1.9612   -1.8458   -0.4594 H   0  0  0  0  0  0  0  0  0  0  0  0
   -0.0700   -2.5099    1.0732 H   0  0  0  0  0  0  0  0  0  0  0  0
   -1.6165   -2.9963    0.3501 H   0  0  0  0  0  0  0  0  0  0  0  0
   -1.5511   -1.5603    1.3919 H   0  0  0  0  0  0  0  0  0  0  0  0
   -3.0080    0.1755   -0.0566 H   0  0  0  0  0  0  0  0  0  0  0  0
   -2.5324    1.8263   -0.5549 H   0  0  0  0  0  0  0  0  0  0  0  0
   -3.0754    1.5166    1.1122 H   0  0  0  0  0  0  0  0  0  0  0  0
  1  2  1  0  0  0  0
  1  3  1  0  0  0  0
  1  4  2  0  0  0  0
  1  5  1  0  0  0  0
  2  8  1  0  0  0  0
  3  9  1  0  0  0  0
  5  6  1  0  0  0  0
  5  7  1  0  0  0  0
  5 10  1  0  0  0  0
  6 11  1  0  0  0  0
  6 12  1  0  0  0  0
  6 13  1  0  0  0  0
  7 14  1  0  0  0  0
  7 15  1  0  0  0  0
  7 16  1  0  0  0  0
  8 17  1  0  0  0  0
  8 18  1  0  0  0  0
  8 19  1  0  0  0  0
  9 20  1  0  0  0  0
  9 21  1  0  0  0  0
  9 22  1  0  0  0  0
M  END
> <PUBCHEM_COMPOUND_CID>
573520

> <PUBCHEM_CONFORMER_RMSD>
0.6

> <PUBCHEM_CONFORMER_DIVERSEORDER>
1
6
5
3
2
4

> <PUBCHEM_MMFF94_PARTIAL_CHARGES>
6
1 1.24
2 -0.55
3 -0.55
4 -0.7
8 0.28
9 0.28

> <PUBCHEM_EFFECTIVE_ROTOR_COUNT>
3

> <PUBCHEM_PHARMACOPHORE_FEATURES>
2
1 4 acceptor
3 5 6 7 hydrophobe

> <PUBCHEM_HEAVY_ATOM_COUNT>
9

> <PUBCHEM_ATOM_DEF_STEREO_COUNT>
0

> <PUBCHEM_ATOM_UDEF_STEREO_COUNT>
0

> <PUBCHEM_BOND_DEF_STEREO_COUNT>
0

> <PUBCHEM_BOND_UDEF_STEREO_COUNT>
0

> <PUBCHEM_ISOTOPIC_ATOM_COUNT>
0

> <PUBCHEM_COMPONENT_COUNT>
1

> <PUBCHEM_CACTVS_TAUTO_COUNT>
1

> <PUBCHEM_CONFORMER_ID>
0008C05000000001

> <PUBCHEM_MMFF94_ENERGY>
7.6786

> <PUBCHEM_FEATURE_SELFOVERLAP>
10.148

> <PUBCHEM_SHAPE_FINGERPRINT>
12423570 1 15660810071178813108
21040471 1 18410859841005424769
23552333 60 16883296465441976011
24536 1 18056733590202767856
5084963 1 17631727149810236961
5943 1 16260611836232001149
68250623 7 17703777141892902279

> <PUBCHEM_SHAPE_MULTIPOLES>
171.46
3
1.89
1.1
0.16
0.84
0.34
-0.72
-0.52
-0.52
-0.37
0.04
-0.21
0.31

> <PUBCHEM_SHAPE_SELFOVERLAP>
294.861

> <PUBCHEM_SHAPE_VOLUME>
115.5

> <PUBCHEM_COORDINATE_TYPE>
2
5
10

$$$$
