240796
  -OEChem-08272002313D

 14 13  0     0  0  0  0  0  0999 V2000
    1.3349    1.2499   -0.5144 O   0  0  0  0  0  0  0  0  0  0  0  0
    0.3486   -0.8244   -0.1351 N   0  0  0  0  0  0  0  0  0  0  0  0
   -0.8797   -0.5949   -0.8611 C   0  0  0  0  0  0  0  0  0  0  0  0
    1.3519    0.1232   -0.0258 C   0  0  0  0  0  0  0  0  0  0  0  0
    2.5085   -0.3648    0.8048 C   0  0  0  0  0  0  0  0  0  0  0  0
   -1.9084   -0.0273    0.0099 C   0  0  0  0  0  0  0  0  0  0  0  0
   -2.7557    0.4384    0.7217 C   0  0  0  0  0  0  0  0  0  0  0  0
   -0.6788    0.0746   -1.7040 H   0  0  0  0  0  0  0  0  0  0  0  0
   -1.2038   -1.5600   -1.2627 H   0  0  0  0  0  0  0  0  0  0  0  0
    0.4600   -1.7192    0.3333 H   0  0  0  0  0  0  0  0  0  0  0  0
    3.3586    0.3127    0.6862 H   0  0  0  0  0  0  0  0  0  0  0  0
    2.2146   -0.3931    1.8576 H   0  0  0  0  0  0  0  0  0  0  0  0
    2.8119   -1.3654    0.4838 H   0  0  0  0  0  0  0  0  0  0  0  0
   -3.5071    0.8515    1.3533 H   0  0  0  0  0  0  0  0  0  0  0  0
  1  4  2  0  0  0  0
  2  3  1  0  0  0  0
  2  4  1  0  0  0  0
  2 10  1  0  0  0  0
  3  6  1  0  0  0  0
  3  8  1  0  0  0  0
  3  9  1  0  0  0  0
  4  5  1  0  0  0  0
  5 11  1  0  0  0  0
  5 12  1  0  0  0  0
  5 13  1  0  0  0  0
  6  7  3  0  0  0  0
  7 14  1  0  0  0  0
M  END
> <PUBCHEM_COMPOUND_CID>
240796

> <PUBCHEM_CONFORMER_RMSD>
0.4

> <PUBCHEM_CONFORMER_DIVERSEORDER>
2
3
1

> <PUBCHEM_MMFF94_PARTIAL_CHARGES>
9
1 -0.57
10 0.37
14 0.18
2 -0.73
3 0.5
4 0.57
5 0.06
6 -0.2
7 -0.18

> <PUBCHEM_EFFECTIVE_ROTOR_COUNT>
2

> <PUBCHEM_PHARMACOPHORE_FEATURES>
3
1 1 acceptor
1 2 donor
1 7 hydrophobe

> <PUBCHEM_HEAVY_ATOM_COUNT>
7

> <PUBCHEM_ATOM_DEF_STEREO_COUNT>
0

> <PUBCHEM_ATOM_UDEF_STEREO_COUNT>
0

> <PUBCHEM_BOND_DEF_STEREO_COUNT>
0

> <PUBCHEM_BOND_UDEF_STEREO_COUNT>
0

> <PUBCHEM_ISOTOPIC_ATOM_COUNT>
0

> <PUBCHEM_COMPONENT_COUNT>
1

> <PUBCHEM_CACTVS_TAUTO_COUNT>
2

> <PUBCHEM_CONFORMER_ID>
0003AC9C00000002

> <PUBCHEM_MMFF94_ENERGY>
3.4428

> <PUBCHEM_FEATURE_SELFOVERLAP>
15.223

> <PUBCHEM_SHAPE_FINGERPRINT>
12897270 3 11239992360794100675
12932741 1 15574979702433547983
14390081 3 16702303425637185371
20096714 4 18271529783494767037
21040471 1 17703795824937459567
23552449 11 12974459949409211599
29004967 10 17530954757619919898
5460574 1 15719109145679808859

> <PUBCHEM_SHAPE_MULTIPOLES>
133.21
3.91
0.96
0.9
0.66
0.06
-0.04
-0.99
1.01
0.19
-0.1
-0.32
-0.11
-0.31

> <PUBCHEM_SHAPE_SELFOVERLAP>
242.804

> <PUBCHEM_SHAPE_VOLUME>
84.3

> <PUBCHEM_COORDINATE_TYPE>
2
5
10

$$$$
