229937
  -OEChem-08272012343D

 37 39  0     0  0  0  0  0  0999 V2000
    3.3178    1.1018   -0.4012 N   0  0  0  0  0  0  0  0  0  0  0  0
   -2.2115    0.8026    0.4219 N   0  0  0  0  0  0  0  0  0  0  0  0
    1.9253    1.0274   -0.1925 C   0  0  0  0  0  0  0  0  0  0  0  0
    4.3652    0.1847   -0.1858 C   0  0  0  0  0  0  0  0  0  0  0  0
    1.0582    1.7521   -1.0102 C   0  0  0  0  0  0  0  0  0  0  0  0
    1.4147    0.2280    0.8302 C   0  0  0  0  0  0  0  0  0  0  0  0
   -0.8233    0.8786    0.2165 C   0  0  0  0  0  0  0  0  0  0  0  0
   -0.3196    1.6776   -0.8052 C   0  0  0  0  0  0  0  0  0  0  0  0
    0.0370    0.1534    1.0352 C   0  0  0  0  0  0  0  0  0  0  0  0
    5.6460    0.6462    0.1223 C   0  0  0  0  0  0  0  0  0  0  0  0
    4.1243   -1.1868   -0.2792 C   0  0  0  0  0  0  0  0  0  0  0  0
   -4.2844   -0.3325   -0.1150 C   0  0  0  0  0  0  0  0  0  0  0  0
    6.6832   -0.2616    0.3364 C   0  0  0  0  0  0  0  0  0  0  0  0
    5.1614   -2.0946   -0.0650 C   0  0  0  0  0  0  0  0  0  0  0  0
   -2.8486   -0.1324   -0.2283 C   0  0  0  0  0  0  0  0  0  0  0  0
    6.4409   -1.6320    0.2428 C   0  0  0  0  0  0  0  0  0  0  0  0
   -4.9063   -1.3501   -0.8385 C   0  0  0  0  0  0  0  0  0  0  0  0
   -5.0399    0.4934    0.7172 C   0  0  0  0  0  0  0  0  0  0  0  0
   -6.2836   -1.5418   -0.7298 C   0  0  0  0  0  0  0  0  0  0  0  0
   -6.4174    0.3017    0.8260 C   0  0  0  0  0  0  0  0  0  0  0  0
   -7.0392   -0.7158    0.1023 C   0  0  0  0  0  0  0  0  0  0  0  0
    3.6261    1.9921   -0.7819 H   0  0  0  0  0  0  0  0  0  0  0  0
    1.4439    2.3776   -1.8112 H   0  0  0  0  0  0  0  0  0  0  0  0
    2.0670   -0.3299    1.4963 H   0  0  0  0  0  0  0  0  0  0  0  0
   -0.9880    2.2455   -1.4467 H   0  0  0  0  0  0  0  0  0  0  0  0
   -0.3524   -0.4677    1.8374 H   0  0  0  0  0  0  0  0  0  0  0  0
    5.8474    1.7118    0.1992 H   0  0  0  0  0  0  0  0  0  0  0  0
    3.1435   -1.5755   -0.5392 H   0  0  0  0  0  0  0  0  0  0  0  0
    7.6794    0.0985    0.5760 H   0  0  0  0  0  0  0  0  0  0  0  0
    4.9742   -3.1617   -0.1428 H   0  0  0  0  0  0  0  0  0  0  0  0
   -2.3005   -0.8181   -0.9020 H   0  0  0  0  0  0  0  0  0  0  0  0
    7.2487   -2.3388    0.4083 H   0  0  0  0  0  0  0  0  0  0  0  0
   -4.3311   -2.0018   -1.4911 H   0  0  0  0  0  0  0  0  0  0  0  0
   -4.5828    1.2940    1.2926 H   0  0  0  0  0  0  0  0  0  0  0  0
   -6.7680   -2.3341   -1.2932 H   0  0  0  0  0  0  0  0  0  0  0  0
   -7.0060    0.9446    1.4739 H   0  0  0  0  0  0  0  0  0  0  0  0
   -8.1117   -0.8650    0.1869 H   0  0  0  0  0  0  0  0  0  0  0  0
  1  3  1  0  0  0  0
  1  4  1  0  0  0  0
  1 22  1  0  0  0  0
  2  7  1  0  0  0  0
  2 15  2  0  0  0  0
  3  5  2  0  0  0  0
  3  6  1  0  0  0  0
  4 10  2  0  0  0  0
  4 11  1  0  0  0  0
  5  8  1  0  0  0  0
  5 23  1  0  0  0  0
  6  9  2  0  0  0  0
  6 24  1  0  0  0  0
  7  8  2  0  0  0  0
  7  9  1  0  0  0  0
  8 25  1  0  0  0  0
  9 26  1  0  0  0  0
 10 13  1  0  0  0  0
 10 27  1  0  0  0  0
 11 14  2  0  0  0  0
 11 28  1  0  0  0  0
 12 15  1  0  0  0  0
 12 17  2  0  0  0  0
 12 18  1  0  0  0  0
 13 16  2  0  0  0  0
 13 29  1  0  0  0  0
 14 16  1  0  0  0  0
 14 30  1  0  0  0  0
 15 31  1  0  0  0  0
 16 32  1  0  0  0  0
 17 19  1  0  0  0  0
 17 33  1  0  0  0  0
 18 20  2  0  0  0  0
 18 34  1  0  0  0  0
 19 21  2  0  0  0  0
 19 35  1  0  0  0  0
 20 21  1  0  0  0  0
 20 36  1  0  0  0  0
 21 37  1  0  0  0  0
M  END
> <PUBCHEM_COMPOUND_CID>
229937

> <PUBCHEM_CONFORMER_RMSD>
0.6

> <PUBCHEM_CONFORMER_DIVERSEORDER>
1
14
2
7
10
16
5
3
15
17
4
11
13
8
9
6
12

> <PUBCHEM_MMFF94_PARTIAL_CHARGES>
37
1 -0.6
10 -0.15
11 -0.15
12 0.09
13 -0.15
14 -0.15
15 0.3
16 -0.15
17 -0.15
18 -0.15
19 -0.15
2 -0.63
20 -0.15
21 -0.15
22 0.4
23 0.15
24 0.15
25 0.15
26 0.15
27 0.15
28 0.15
29 0.15
3 0.1
30 0.15
31 0.06
32 0.15
33 0.15
34 0.15
35 0.15
36 0.15
37 0.15
4 0.1
5 -0.15
6 -0.15
7 0.18
8 -0.15
9 -0.15

> <PUBCHEM_EFFECTIVE_ROTOR_COUNT>
4

> <PUBCHEM_PHARMACOPHORE_FEATURES>
6
1 1 cation
1 1 donor
1 2 acceptor
6 12 17 18 19 20 21 rings
6 3 5 6 7 8 9 rings
6 4 10 11 13 14 16 rings

> <PUBCHEM_HEAVY_ATOM_COUNT>
21

> <PUBCHEM_ATOM_DEF_STEREO_COUNT>
0

> <PUBCHEM_ATOM_UDEF_STEREO_COUNT>
0

> <PUBCHEM_BOND_DEF_STEREO_COUNT>
0

> <PUBCHEM_BOND_UDEF_STEREO_COUNT>
0

> <PUBCHEM_ISOTOPIC_ATOM_COUNT>
0

> <PUBCHEM_COMPONENT_COUNT>
1

> <PUBCHEM_CACTVS_TAUTO_COUNT>
1

> <PUBCHEM_CONFORMER_ID>
0003823100000001

> <PUBCHEM_MMFF94_ENERGY>
76.1423

> <PUBCHEM_FEATURE_SELFOVERLAP>
30.446

> <PUBCHEM_SHAPE_FINGERPRINT>
10 15 15339114658724086386
10299344 5 18343867718516914962
106641 1 15195278759433956590
10670039 82 14707198894901963759
10693767 8 18114172021730099298
10753850 27 18187079538339875144
11315181 36 17917995001666298465
11524674 6 16200148811795604103
11796584 16 17846503663915604839
11991303 11 14996294646918797299
12236239 1 18412830200819563129
12516196 113 18201999932461512592
12596602 18 17346882234754222322
12670543 26 17022616451222500844
12760667 363 18335140877964041097
13533116 47 18411983589761847848
13540713 4 16300096716040957176
13540713 5 16228276376291826904
13668630 136 18040716991631472219
13685833 64 18335140890416283386
13862211 1 18259702285591502906
13885169 127 18410009897923655757
13968360 50 14707200003399165304
14251752 14 18411980231192081925
14251764 18 18131632304943521503
14347332 77 18261669268690953804
15119646 104 18409171012941737934
15183329 4 17894345579466725963
15348495 7 15338544046438654639
15475509 35 17988915648878267634
15716309 27 18202001036352224023
17492 89 18048875196417314002
1768 124 18202563973342376398
17857418 61 18343022194127850739
19784866 140 17749104470104025801
20028762 73 18343301453276717518
20526848 3 9295286157637164710
20567600 247 18412821399999303667
21150785 3 15430043158182060534
21267235 1 18259990361595454200
21637258 2 18343012294180637389
21641784 216 15430312482263775191
22224240 67 13398628351145601725
22956985 138 17556878927301745318
23035841 295 18409448089977523371
23081809 10 18411146848021793093
23522609 53 18196121951784718881
23536379 177 18343022190086123769
23559900 14 18188490314658698601
23569943 247 18116711815985555867
2767999 5 11024105443066170211
2838139 119 10737287947983398079
28498 318 18335417950994763093
29717793 49 18040436598543376172
3004659 81 18113335323519186176
3009799 131 16950563298650294428
33382 64 18343301440417500490
3472631 163 8286190669890654978
34797466 226 12901552312418291195
351380 3 18410007736758371423
397830 11 15122927638567440935
4073 2 18264489670703613602
4325135 7 18413671318898884958
4340502 62 16487258763986417276
465052 167 18131915957832505382
5104073 3 15122647267586963055
543368 44 9079118856771796319
559249 180 18343019996048801943
5718773 13 18116145568531095434
59682541 35 18272078427888169458
59755656 215 17168141226090171763
999808 66 18114191878081197123

> <PUBCHEM_SHAPE_MULTIPOLES>
422.21
20.43
1.75
0.93
6.14
0.34
0.01
10.45
1.07
-1.18
-0.41
0.5
-0.1
-0.96

> <PUBCHEM_SHAPE_SELFOVERLAP>
917.776

> <PUBCHEM_SHAPE_VOLUME>
228.9

> <PUBCHEM_COORDINATE_TYPE>
2
5
10

$$$$
