573432
  -OEChem-08272010433D

 41 40  0     0  0  0  0  0  0999 V2000
   -6.0332   -0.6837   -0.5346 O   0  0  0  0  0  0  0  0  0  0  0  0
   -1.6634    1.6713   -0.1585 C   0  0  0  0  0  0  0  0  0  0  0  0
   -0.2586    1.6457    0.4482 C   0  0  0  0  0  0  0  0  0  0  0  0
   -2.5216    0.4669    0.2454 C   0  0  0  0  0  0  0  0  0  0  0  0
    0.5850    2.8826    0.1051 C   0  0  0  0  0  0  0  0  0  0  0  0
   -3.9193    0.4685   -0.3806 C   0  0  0  0  0  0  0  0  0  0  0  0
    2.0292    2.8629    0.6152 C   0  0  0  0  0  0  0  0  0  0  0  0
    2.1059   -2.0311    0.2410 C   0  0  0  0  0  0  0  0  0  0  0  0
    2.9014   -1.6251   -1.0061 C   0  0  0  0  0  0  0  0  0  0  0  0
   -4.7422   -0.7390    0.0554 C   0  0  0  0  0  0  0  0  0  0  0  0
    1.0978   -3.1525   -0.0216 C   0  0  0  0  0  0  0  0  0  0  0  0
    3.9508   -0.5479   -0.7135 C   0  0  0  0  0  0  0  0  0  0  0  0
    2.7722    1.6933    0.1295 C   0  0  0  0  0  0  0  0  0  0  0  0
    0.3655   -3.6138    1.2295 C   0  0  0  0  0  0  0  0  0  0  0  0
    3.3305    0.7020   -0.2545 C   0  0  0  0  0  0  0  0  0  0  0  0
   -1.5824    1.7063   -1.2518 H   0  0  0  0  0  0  0  0  0  0  0  0
   -2.1732    2.5919    0.1511 H   0  0  0  0  0  0  0  0  0  0  0  0
   -0.3332    1.5595    1.5390 H   0  0  0  0  0  0  0  0  0  0  0  0
    0.2441    0.7405    0.0923 H   0  0  0  0  0  0  0  0  0  0  0  0
   -2.0010   -0.4550   -0.0429 H   0  0  0  0  0  0  0  0  0  0  0  0
   -2.6163    0.4473    1.3383 H   0  0  0  0  0  0  0  0  0  0  0  0
    0.0867    3.7748    0.5042 H   0  0  0  0  0  0  0  0  0  0  0  0
    0.6007    2.9988   -0.9868 H   0  0  0  0  0  0  0  0  0  0  0  0
   -4.4518    1.3880   -0.1081 H   0  0  0  0  0  0  0  0  0  0  0  0
   -3.8423    0.4800   -1.4748 H   0  0  0  0  0  0  0  0  0  0  0  0
    2.5357    3.7812    0.2973 H   0  0  0  0  0  0  0  0  0  0  0  0
    2.0253    2.8634    1.7114 H   0  0  0  0  0  0  0  0  0  0  0  0
    1.5677   -1.1691    0.6490 H   0  0  0  0  0  0  0  0  0  0  0  0
    2.8076   -2.3602    1.0179 H   0  0  0  0  0  0  0  0  0  0  0  0
    3.4095   -2.5075   -1.4135 H   0  0  0  0  0  0  0  0  0  0  0  0
    2.2075   -1.2698   -1.7784 H   0  0  0  0  0  0  0  0  0  0  0  0
   -4.2577   -1.6694   -0.2579 H   0  0  0  0  0  0  0  0  0  0  0  0
   -4.8607   -0.7526    1.1437 H   0  0  0  0  0  0  0  0  0  0  0  0
    0.3622   -2.8126   -0.7604 H   0  0  0  0  0  0  0  0  0  0  0  0
    1.6167   -4.0125   -0.4614 H   0  0  0  0  0  0  0  0  0  0  0  0
    4.5274   -0.3548   -1.6254 H   0  0  0  0  0  0  0  0  0  0  0  0
    4.6578   -0.9125    0.0405 H   0  0  0  0  0  0  0  0  0  0  0  0
   -0.3405   -4.4131    0.9842 H   0  0  0  0  0  0  0  0  0  0  0  0
    1.0694   -3.9967    1.9752 H   0  0  0  0  0  0  0  0  0  0  0  0
   -0.1958   -2.7883    1.6785 H   0  0  0  0  0  0  0  0  0  0  0  0
   -6.5199   -1.4688   -0.2306 H   0  0  0  0  0  0  0  0  0  0  0  0
  1 10  1  0  0  0  0
  1 41  1  0  0  0  0
  2  3  1  0  0  0  0
  2  4  1  0  0  0  0
  2 16  1  0  0  0  0
  2 17  1  0  0  0  0
  3  5  1  0  0  0  0
  3 18  1  0  0  0  0
  3 19  1  0  0  0  0
  4  6  1  0  0  0  0
  4 20  1  0  0  0  0
  4 21  1  0  0  0  0
  5  7  1  0  0  0  0
  5 22  1  0  0  0  0
  5 23  1  0  0  0  0
  6 10  1  0  0  0  0
  6 24  1  0  0  0  0
  6 25  1  0  0  0  0
  7 13  1  0  0  0  0
  7 26  1  0  0  0  0
  7 27  1  0  0  0  0
  8  9  1  0  0  0  0
  8 11  1  0  0  0  0
  8 28  1  0  0  0  0
  8 29  1  0  0  0  0
  9 12  1  0  0  0  0
  9 30  1  0  0  0  0
  9 31  1  0  0  0  0
 10 32  1  0  0  0  0
 10 33  1  0  0  0  0
 11 14  1  0  0  0  0
 11 34  1  0  0  0  0
 11 35  1  0  0  0  0
 12 15  1  0  0  0  0
 12 36  1  0  0  0  0
 12 37  1  0  0  0  0
 13 15  3  0  0  0  0
 14 38  1  0  0  0  0
 14 39  1  0  0  0  0
 14 40  1  0  0  0  0
M  END
> <PUBCHEM_COMPOUND_CID>
573432

> <PUBCHEM_CONFORMER_RMSD>
1

> <PUBCHEM_CONFORMER_DIVERSEORDER>
2
209
146
561
8
14
626
125
17
102
596
202
600
149
615
180
48
311
296
355
479
59
577
7
122
337
1
607
372
361
439
12
415
139
402
493
609
382
22
446
269
34
449
407
535
397
585
276
104
340
567
35
491
452
524
574
6
417
71
612
69
192
511
44
557
393
606
28
51
173
396
447
118
514
475
205
53
588
536
77
191
598
170
3
221
492
373
15
115
78
9
616
43
356
11
197
346
465
387
18
618
107
207
123
414
281
312
554
498
215
31
47
462
405
445
593
566
64
128
575
114
160
453
422
50
177
260
151
622
363
56
272
250
497
433
185
45
121
259
96
217
293
543
500
169
66
374
454
145
369
499
459
541
352
458
343

> <PUBCHEM_MMFF94_PARTIAL_CHARGES>
7
1 -0.68
10 0.28
12 0.2
13 -0.2
15 -0.2
41 0.4
7 0.2

> <PUBCHEM_EFFECTIVE_ROTOR_COUNT>
9

> <PUBCHEM_PHARMACOPHORE_FEATURES>
4
1 1 acceptor
1 1 donor
1 14 hydrophobe
5 8 9 11 12 15 hydrophobe

> <PUBCHEM_HEAVY_ATOM_COUNT>
15

> <PUBCHEM_ATOM_DEF_STEREO_COUNT>
0

> <PUBCHEM_ATOM_UDEF_STEREO_COUNT>
0

> <PUBCHEM_BOND_DEF_STEREO_COUNT>
0

> <PUBCHEM_BOND_UDEF_STEREO_COUNT>
0

> <PUBCHEM_ISOTOPIC_ATOM_COUNT>
0

> <PUBCHEM_COMPONENT_COUNT>
1

> <PUBCHEM_CACTVS_TAUTO_COUNT>
1

> <PUBCHEM_CONFORMER_ID>
0008BFF800000002

> <PUBCHEM_MMFF94_ENERGY>
-1.2069

> <PUBCHEM_FEATURE_SELFOVERLAP>
20.297

> <PUBCHEM_SHAPE_FINGERPRINT>
10316853 100 18190186865796413323
114674 6 18411415141754064848
12596599 1 17485947241163727762
13464513 79 18201721743414130716
13533116 47 18059013999200151033
1420 336 16823626558055646434
14251705 54 18195525896274997134
14251717 144 18411700997470784113
14251757 5 15891954224550473519
14916288 52 17331404168904125046
15110567 62 18408888430016731363
20645477 70 18336823190657785889
21197605 99 17909552001694812975
23596394 208 18261940878681511549
2871803 45 18410576162715759644
3323516 105 18409166614895310977
33824 294 18340484560193868096
4283 87 18271514377769141887
5283384 97 18271793654038978359
556388 4 18338796710865461023
59682541 52 18121467247790216901
8199 65 18410295787783478480
94968 8 18342461426424270700
9795274 37 17972880254701402731

> <PUBCHEM_SHAPE_MULTIPOLES>
302.82
9.17
4.47
0.9
15.04
2.03
0.05
1.92
-2.59
-3.15
1.41
-0.29
0.39
0.39

> <PUBCHEM_SHAPE_SELFOVERLAP>
547.259

> <PUBCHEM_SHAPE_VOLUME>
191.5

> <PUBCHEM_COORDINATE_TYPE>
2
5
10

$$$$
