77200
  -OEChem-08272004103D

 13 13  0     0  0  0  0  0  0999 V2000
   -2.1363   -1.4146   -0.0009 O   0  0  0  0  0  0  0  0  0  0  0  0
   -2.6632    0.7965   -0.0003 O   0  0  0  0  0  0  0  0  0  0  0  0
    0.2701    1.3214   -0.0001 N   0  0  0  0  0  0  0  0  0  0  0  0
    0.5159   -0.8500    0.0012 N   0  0  0  0  0  0  0  0  0  0  0  0
    1.6024    1.1631   -0.0004 N   0  0  0  0  0  0  0  0  0  0  0  0
    2.8561   -0.8792   -0.0007 N   0  0  0  0  0  0  0  0  0  0  0  0
   -0.3683    0.1204    0.0007 C   0  0  0  0  0  0  0  0  0  0  0  0
    1.6990   -0.1682    0.0001 C   0  0  0  0  0  0  0  0  0  0  0  0
   -1.7758   -0.0892    0.0003 C   0  0  0  0  0  0  0  0  0  0  0  0
   -0.1179    2.2574   -0.0007 H   0  0  0  0  0  0  0  0  0  0  0  0
    2.8672   -1.8942   -0.0004 H   0  0  0  0  0  0  0  0  0  0  0  0
    3.7666   -0.4307   -0.0016 H   0  0  0  0  0  0  0  0  0  0  0  0
   -3.1113   -1.5235   -0.0017 H   0  0  0  0  0  0  0  0  0  0  0  0
  1  9  1  0  0  0  0
  1 13  1  0  0  0  0
  2  9  2  0  0  0  0
  3  5  1  0  0  0  0
  3  7  1  0  0  0  0
  3 10  1  0  0  0  0
  4  7  2  0  0  0  0
  4  8  1  0  0  0  0
  5  8  2  0  0  0  0
  6  8  1  0  0  0  0
  6 11  1  0  0  0  0
  6 12  1  0  0  0  0
  7  9  1  0  0  0  0
M  END
> <PUBCHEM_COMPOUND_CID>
77200

> <PUBCHEM_CONFORMER_RMSD>
0.4

> <PUBCHEM_CONFORMER_DIVERSEORDER>
1
2

> <PUBCHEM_MMFF94_PARTIAL_CHARGES>
13
1 -0.65
10 0.27
11 0.4
12 0.4
13 0.5
2 -0.57
3 0.3
4 -0.57
5 -0.71
6 -0.88
7 0.1
8 0.6
9 0.81

> <PUBCHEM_EFFECTIVE_ROTOR_COUNT>
1

> <PUBCHEM_PHARMACOPHORE_FEATURES>
7
1 1 acceptor
1 2 acceptor
1 3 donor
1 6 donor
3 1 2 9 anion
4 4 5 6 8 cation
5 3 4 5 7 8 rings

> <PUBCHEM_HEAVY_ATOM_COUNT>
9

> <PUBCHEM_ATOM_DEF_STEREO_COUNT>
0

> <PUBCHEM_ATOM_UDEF_STEREO_COUNT>
0

> <PUBCHEM_BOND_DEF_STEREO_COUNT>
0

> <PUBCHEM_BOND_UDEF_STEREO_COUNT>
0

> <PUBCHEM_ISOTOPIC_ATOM_COUNT>
0

> <PUBCHEM_COMPONENT_COUNT>
1

> <PUBCHEM_CACTVS_TAUTO_COUNT>
7

> <PUBCHEM_CONFORMER_ID>
00012D9000000001

> <PUBCHEM_MMFF94_ENERGY>
6.802

> <PUBCHEM_FEATURE_SELFOVERLAP>
35.578

> <PUBCHEM_SHAPE_FINGERPRINT>
14128692 85 18410017658343594518
14325111 11 18410574019553491456
21040471 1 18266460004151458912
23552423 10 18260268585387351838
29004967 10 18343585135633690882

> <PUBCHEM_SHAPE_MULTIPOLES>
153.55
3.62
1.28
0.55
0.15
0.04
0
-0.61
0
0.05
0
0
0
0

> <PUBCHEM_SHAPE_SELFOVERLAP>
321.355

> <PUBCHEM_SHAPE_VOLUME>
87.6

> <PUBCHEM_COORDINATE_TYPE>
2
5
10

$$$$
