17262
  -OEChem-08272011483D

 25 25  0     0  0  0  0  0  0999 V2000
   -2.4349    1.4246   -0.5311 O   0  0  0  0  0  0  0  0  0  0  0  0
   -3.2779   -1.0250    0.4749 O   0  0  0  0  0  0  0  0  0  0  0  0
    2.5490    0.4718    1.3799 O   0  0  0  0  0  0  0  0  0  0  0  0
    0.7072   -0.4433   -0.5345 C   0  0  0  0  0  0  0  0  0  0  0  0
    2.1394   -0.2386   -0.8958 C   0  0  0  0  0  0  0  0  0  0  0  0
   -0.2093    0.5950   -0.7013 C   0  0  0  0  0  0  0  0  0  0  0  0
    0.2840   -1.6728   -0.0294 C   0  0  0  0  0  0  0  0  0  0  0  0
   -1.5490    0.4036   -0.3630 C   0  0  0  0  0  0  0  0  0  0  0  0
   -1.9720   -0.8259    0.1421 C   0  0  0  0  0  0  0  0  0  0  0  0
   -1.0555   -1.8641    0.3090 C   0  0  0  0  0  0  0  0  0  0  0  0
    2.9957    0.2865    0.2486 C   0  0  0  0  0  0  0  0  0  0  0  0
    4.4402    0.5751   -0.0691 C   0  0  0  0  0  0  0  0  0  0  0  0
   -2.6167    2.3132    0.5698 C   0  0  0  0  0  0  0  0  0  0  0  0
    2.5783   -1.1825   -1.2412 H   0  0  0  0  0  0  0  0  0  0  0  0
    2.2156    0.4699   -1.7296 H   0  0  0  0  0  0  0  0  0  0  0  0
    0.1152    1.5559   -1.0934 H   0  0  0  0  0  0  0  0  0  0  0  0
    0.9888   -2.4889    0.1071 H   0  0  0  0  0  0  0  0  0  0  0  0
   -1.3716   -2.8268    0.7018 H   0  0  0  0  0  0  0  0  0  0  0  0
    4.9510    0.9355    0.8281 H   0  0  0  0  0  0  0  0  0  0  0  0
    4.9293   -0.3405   -0.4105 H   0  0  0  0  0  0  0  0  0  0  0  0
    4.4977    1.3451   -0.8424 H   0  0  0  0  0  0  0  0  0  0  0  0
   -1.6772    2.8197    0.8126 H   0  0  0  0  0  0  0  0  0  0  0  0
   -2.9889    1.7716    1.4451 H   0  0  0  0  0  0  0  0  0  0  0  0
   -3.3563    3.0660    0.2839 H   0  0  0  0  0  0  0  0  0  0  0  0
   -3.3853   -1.9328    0.8069 H   0  0  0  0  0  0  0  0  0  0  0  0
  1  8  1  0  0  0  0
  1 13  1  0  0  0  0
  2  9  1  0  0  0  0
  2 25  1  0  0  0  0
  3 11  2  0  0  0  0
  4  5  1  0  0  0  0
  4  6  2  0  0  0  0
  4  7  1  0  0  0  0
  5 11  1  0  0  0  0
  5 14  1  0  0  0  0
  5 15  1  0  0  0  0
  6  8  1  0  0  0  0
  6 16  1  0  0  0  0
  7 10  2  0  0  0  0
  7 17  1  0  0  0  0
  8  9  2  0  0  0  0
  9 10  1  0  0  0  0
 10 18  1  0  0  0  0
 11 12  1  0  0  0  0
 12 19  1  0  0  0  0
 12 20  1  0  0  0  0
 12 21  1  0  0  0  0
 13 22  1  0  0  0  0
 13 23  1  0  0  0  0
 13 24  1  0  0  0  0
M  END
> <PUBCHEM_COMPOUND_CID>
17262

> <PUBCHEM_CONFORMER_RMSD>
0.6

> <PUBCHEM_CONFORMER_DIVERSEORDER>
1
27
15
13
31
12
20
23
29
6
19
30
26
4
11
5
18
24
22
14
17
3
16
28
21
2
25
9
10
8
7

> <PUBCHEM_MMFF94_PARTIAL_CHARGES>
17
1 -0.36
10 -0.15
11 0.45
12 0.06
13 0.28
16 0.15
17 0.15
18 0.15
2 -0.53
25 0.45
3 -0.57
4 -0.14
5 0.2
6 -0.15
7 -0.15
8 0.08
9 0.08

> <PUBCHEM_EFFECTIVE_ROTOR_COUNT>
3

> <PUBCHEM_PHARMACOPHORE_FEATURES>
4
1 1 acceptor
1 2 donor
1 3 acceptor
6 4 6 7 8 9 10 rings

> <PUBCHEM_HEAVY_ATOM_COUNT>
13

> <PUBCHEM_ATOM_DEF_STEREO_COUNT>
0

> <PUBCHEM_ATOM_UDEF_STEREO_COUNT>
0

> <PUBCHEM_BOND_DEF_STEREO_COUNT>
0

> <PUBCHEM_BOND_UDEF_STEREO_COUNT>
0

> <PUBCHEM_ISOTOPIC_ATOM_COUNT>
0

> <PUBCHEM_COMPONENT_COUNT>
1

> <PUBCHEM_CACTVS_TAUTO_COUNT>
17

> <PUBCHEM_CONFORMER_ID>
0000436E00000001

> <PUBCHEM_MMFF94_ENERGY>
37.7518

> <PUBCHEM_FEATURE_SELFOVERLAP>
20.297

> <PUBCHEM_SHAPE_FINGERPRINT>
10608611 8 18343581863174722240
12251169 10 18187927326218895748
12382932 28 18261392191686881773
124424 183 17988638572000217438
12932764 1 17775562061500552886
13024252 1 12685079389505540127
13380535 21 18265626376674215679
13764800 53 18340494374125431561
13839132 238 18342460292167392974
14325111 11 18409166589183477678
15219456 202 18272658904933322846
15279308 16 18131635551944150012
15775835 57 18186517670623500728
16945 1 18336836389128917591
18186145 218 16128651972971998838
19049666 15 18201167542119375582
19422 9 17821445768654889058
20510252 161 18411986879120844513
20645464 45 18272374174102252886
20871998 184 18268154329905595735
21501502 16 18337946771086888962
21524375 3 18197488537336384045
22445834 79 17530952605957576698
23402539 116 18339635750249807375
23500284 214 18271250408783853737
23559900 14 18270688555038753150
2748010 2 18190754033175363895
305870 269 18263079916318500730
53812653 166 18341333297017652361
6333449 129 18411417302196344229
7364860 26 17981887436760664511
77492 1 17240485840387468310
81228 2 18263092148649188159
90316 7 17604136061168871340

> <PUBCHEM_SHAPE_MULTIPOLES>
249.93
5.92
1.9
0.92
4.61
0.24
0.07
2.17
0.87
-1.87
0.29
0.28
0.11
0.23

> <PUBCHEM_SHAPE_SELFOVERLAP>
513.413

> <PUBCHEM_SHAPE_VOLUME>
144.6

> <PUBCHEM_COORDINATE_TYPE>
2
5
10

$$$$
