560083
  -OEChem-08272012083D

 44 43  0     1  0  0  0  0  0999 V2000
    0.4423   -0.9622   -1.0783 O   0  0  0  0  0  0  0  0  0  0  0  0
   -0.6935    0.7855    1.8812 O   0  0  0  0  0  0  0  0  0  0  0  0
    1.6233    1.5724   -0.6166 O   0  0  0  0  0  0  0  0  0  0  0  0
   -3.1712    0.2980    0.2270 O   0  0  0  0  0  0  0  0  0  0  0  0
    3.2782   -1.3675    0.7550 O   0  0  0  0  0  0  0  0  0  0  0  0
    0.6339   -3.0825   -0.1816 O   0  0  0  0  0  0  0  0  0  0  0  0
    2.9011    2.9370    0.7406 O   0  0  0  0  0  0  0  0  0  0  0  0
   -2.8851    0.3969   -2.0632 O   0  0  0  0  0  0  0  0  0  0  0  0
   -2.3400   -2.2233    2.3411 N   0  0  0  0  0  0  0  0  0  0  0  0
    0.5572   -0.3936    0.2347 C   0  0  2  0  0  0  0  0  0  0  0  0
   -0.7706    0.3351    0.5189 C   0  0  1  0  0  0  0  0  0  0  0  0
    1.8200    0.4797    0.2897 C   0  0  1  0  0  0  0  0  0  0  0  0
   -2.0234   -0.5391    0.3433 C   0  0  1  0  0  0  0  0  0  0  0  0
    3.0990   -0.2515   -0.1125 C   0  0  0  0  0  0  0  0  0  0  0  0
   -1.5639    1.8797    2.1026 C   0  0  0  0  0  0  0  0  0  0  0  0
    0.4980   -2.3216   -1.1301 C   0  0  0  0  0  0  0  0  0  0  0  0
   -2.2000   -1.4802    1.4610 C   0  0  0  0  0  0  0  0  0  0  0  0
    2.2246    2.7419   -0.2603 C   0  0  0  0  0  0  0  0  0  0  0  0
    4.4685   -2.0776    0.4468 C   0  0  0  0  0  0  0  0  0  0  0  0
   -3.4889    0.6936   -1.0412 C   0  0  0  0  0  0  0  0  0  0  0  0
    0.3651   -2.7705   -2.5538 C   0  0  0  0  0  0  0  0  0  0  0  0
    1.9350    3.7874   -1.2943 C   0  0  0  0  0  0  0  0  0  0  0  0
   -4.7095    1.5626   -1.0100 C   0  0  0  0  0  0  0  0  0  0  0  0
    0.6809   -1.1645    1.0065 H   0  0  0  0  0  0  0  0  0  0  0  0
   -0.8372    1.1955   -0.1603 H   0  0  0  0  0  0  0  0  0  0  0  0
    1.9163    0.8397    1.3228 H   0  0  0  0  0  0  0  0  0  0  0  0
   -1.9460   -1.1462   -0.5652 H   0  0  0  0  0  0  0  0  0  0  0  0
    3.0498   -0.5844   -1.1564 H   0  0  0  0  0  0  0  0  0  0  0  0
    3.9590    0.4238   -0.0284 H   0  0  0  0  0  0  0  0  0  0  0  0
   -1.4771    2.6425    1.3224 H   0  0  0  0  0  0  0  0  0  0  0  0
   -2.5996    1.5503    2.2112 H   0  0  0  0  0  0  0  0  0  0  0  0
   -1.2769    2.3435    3.0514 H   0  0  0  0  0  0  0  0  0  0  0  0
    4.4285   -2.4675   -0.5750 H   0  0  0  0  0  0  0  0  0  0  0  0
    5.3439   -1.4328    0.5708 H   0  0  0  0  0  0  0  0  0  0  0  0
    4.5554   -2.9203    1.1378 H   0  0  0  0  0  0  0  0  0  0  0  0
   -0.5961   -2.4422   -2.9575 H   0  0  0  0  0  0  0  0  0  0  0  0
    0.4053   -3.8627   -2.5948 H   0  0  0  0  0  0  0  0  0  0  0  0
    1.1904   -2.3690   -3.1472 H   0  0  0  0  0  0  0  0  0  0  0  0
    2.3375    3.4742   -2.2609 H   0  0  0  0  0  0  0  0  0  0  0  0
    2.4146    4.7267   -1.0047 H   0  0  0  0  0  0  0  0  0  0  0  0
    0.8568    3.9534   -1.3610 H   0  0  0  0  0  0  0  0  0  0  0  0
   -5.5556    0.9986   -0.6096 H   0  0  0  0  0  0  0  0  0  0  0  0
   -4.9531    1.8827   -2.0270 H   0  0  0  0  0  0  0  0  0  0  0  0
   -4.5158    2.4504   -0.4026 H   0  0  0  0  0  0  0  0  0  0  0  0
  1 10  1  0  0  0  0
  1 16  1  0  0  0  0
  2 11  1  0  0  0  0
  2 15  1  0  0  0  0
  3 12  1  0  0  0  0
  3 18  1  0  0  0  0
  4 13  1  0  0  0  0
  4 20  1  0  0  0  0
  5 14  1  0  0  0  0
  5 19  1  0  0  0  0
  6 16  2  0  0  0  0
  7 18  2  0  0  0  0
  8 20  2  0  0  0  0
  9 17  3  0  0  0  0
 10 11  1  0  0  0  0
 10 12  1  0  0  0  0
 10 24  1  0  0  0  0
 11 13  1  0  0  0  0
 11 25  1  0  0  0  0
 12 14  1  0  0  0  0
 12 26  1  0  0  0  0
 13 17  1  0  0  0  0
 13 27  1  0  0  0  0
 14 28  1  0  0  0  0
 14 29  1  0  0  0  0
 15 30  1  0  0  0  0
 15 31  1  0  0  0  0
 15 32  1  0  0  0  0
 16 21  1  0  0  0  0
 18 22  1  0  0  0  0
 19 33  1  0  0  0  0
 19 34  1  0  0  0  0
 19 35  1  0  0  0  0
 20 23  1  0  0  0  0
 21 36  1  0  0  0  0
 21 37  1  0  0  0  0
 21 38  1  0  0  0  0
 22 39  1  0  0  0  0
 22 40  1  0  0  0  0
 22 41  1  0  0  0  0
 23 42  1  0  0  0  0
 23 43  1  0  0  0  0
 23 44  1  0  0  0  0
M  END
> <PUBCHEM_COMPOUND_CID>
560083

> <PUBCHEM_CONFORMER_RMSD>
1

> <PUBCHEM_CONFORMER_DIVERSEORDER>
11
211
50
274
223
180
254
153
207
150
332
39
236
5
284
275
45
233
25
255
269
224
280
205
93
202
229
304
314
292
201
24
102
334
277
193
78
337
86
35
181
339
169
126
305
247
107
352
73
216
328
209
47
311
59
34
152
28
225
183
96
199
143
188
186
338
227
315
320
300
57
239
246
100
168
64
106
343
87
136
344
301
173
3
271
7
190
132
287
29
335
129
113
350
321
313
210
167
194
278
68
112
297
110
310
342
353
120
283
133
111
101
291
65
348
23
222
139
319
161
295
149
273
91
182
308
331
317
296
171
208
142
286
206
215
189
67
104
122
326
267
174
170
109
329
327
242
220
232
31
288
74
134
192
16
79
309
179
33
6
114
198
219
154
95
43
279
318
140
340
123
164
103
351
99
53
324
144
217
214
203
294
13
127
349
256
76
157
289
27
66
61
89
21
60
84
85
302
49
264
191
263
58
293
117
36
240
92
248
44
185
4
197
72
15
40
238
128
30
241
196
62
162
213
165
303
56
160
226
218
187
212
231
38
46
234
177
130
257
285
204
51
270
80
281
69
253
251
147
83
26
333
272
88
178
98
266
41
75
355
18
63
265
230
323
108
131
243
8
37
82
81
94
10
52
268
105
250
345
124
299
77
330
158
118
245
354
235
137
116
336
1
282
141
48
70
306
172
90
155
17
135
316
115
14
42
261
346
175
258
166
125
138
307
97
260
195
55
159
119
312
22
145
176
290
322
156
341
12
146
20
244
347
71
151
54
325
184
252
249
228
259
262
163
32
276
2
19
298
9
237
221
200
148
121

> <PUBCHEM_MMFF94_PARTIAL_CHARGES>
23
1 -0.43
10 0.28
11 0.28
12 0.28
13 0.48
14 0.28
15 0.28
16 0.66
17 0.36
18 0.66
19 0.28
2 -0.56
20 0.66
21 0.06
22 0.06
23 0.06
3 -0.43
4 -0.43
5 -0.56
6 -0.57
7 -0.57
8 -0.57
9 -0.56

> <PUBCHEM_EFFECTIVE_ROTOR_COUNT>
12

> <PUBCHEM_PHARMACOPHORE_FEATURES>
6
1 2 acceptor
1 5 acceptor
1 6 acceptor
1 7 acceptor
1 8 acceptor
1 9 acceptor

> <PUBCHEM_HEAVY_ATOM_COUNT>
23

> <PUBCHEM_ATOM_DEF_STEREO_COUNT>
0

> <PUBCHEM_ATOM_UDEF_STEREO_COUNT>
4

> <PUBCHEM_BOND_DEF_STEREO_COUNT>
0

> <PUBCHEM_BOND_UDEF_STEREO_COUNT>
0

> <PUBCHEM_ISOTOPIC_ATOM_COUNT>
0

> <PUBCHEM_COMPONENT_COUNT>
1

> <PUBCHEM_CACTVS_TAUTO_COUNT>
1

> <PUBCHEM_CONFORMER_ID>
00088BD30000000B

> <PUBCHEM_MMFF94_ENERGY>
49.2941

> <PUBCHEM_FEATURE_SELFOVERLAP>
30.452

> <PUBCHEM_SHAPE_FINGERPRINT>
10906281 52 18194135022677199360
11578080 2 17460059394285317629
12403814 3 17541663154766141249
12553582 1 18120958121797008512
12788726 201 17683228176251330890
13134695 92 18261385607934689956
13140716 1 18270984378594033544
13583140 156 18187930637549341434
16945 1 17917165926100274278
17349148 13 18271806757388125155
17980427 23 18059013874176666304
192875 21 18271520901544856928
20600515 1 17753067015726822710
229495 10 18120657100049866507
23557571 272 17024602315799902371
23559900 14 18335695048909325400
2748010 2 18266190589263638817
352729 6 18060143175412848430
59554788 248 18129395941105719718
81228 2 17403480480451421516

> <PUBCHEM_SHAPE_MULTIPOLES>
421.39
6.55
3.99
2.07
1.55
1.53
0.02
0.97
0.41
-3.27
1.11
1.47
-0.68
0.42

> <PUBCHEM_SHAPE_SELFOVERLAP>
824.543

> <PUBCHEM_SHAPE_VOLUME>
249.6

> <PUBCHEM_COORDINATE_TYPE>
2
5
10

$$$$
