5363139
  -OEChem-08272010003D

 37 38  0     1  0  0  0  0  0999 V2000
    1.6775   -2.8089   -0.0304 O   0  0  0  0  0  0  0  0  0  0  0  0
    0.5038   -1.2808   -1.9363 O   0  0  0  0  0  0  0  0  0  0  0  0
   -3.4715    0.5181    1.4664 O   0  0  0  0  0  0  0  0  0  0  0  0
    1.3003   -1.4555    0.2835 C   0  0  1  0  0  0  0  0  0  0  0  0
    1.4512    1.4782    0.2634 C   0  0  0  0  0  0  0  0  0  0  0  0
    0.3386    0.7569   -0.5979 C   0  0  2  0  0  0  0  0  0  0  0  0
    2.2928   -0.7727    1.1759 C   0  0  0  0  0  0  0  0  0  0  0  0
    1.8132    0.6336    1.5203 C   0  0  0  0  0  0  0  0  0  0  0  0
    0.7196   -0.7087   -0.8724 C   0  0  0  0  0  0  0  0  0  0  0  0
    0.5372   -2.6522    0.8184 C   0  0  0  0  0  0  0  0  0  0  0  0
    2.7363    1.7170   -0.5685 C   0  0  0  0  0  0  0  0  0  0  0  0
    0.9817    2.8649    0.7692 C   0  0  0  0  0  0  0  0  0  0  0  0
    0.0930    1.4534   -1.9536 C   0  0  0  0  0  0  0  0  0  0  0  0
   -0.9918    0.6710    0.1152 C   0  0  0  0  0  0  0  0  0  0  0  0
   -2.0820    0.1113   -0.4253 C   0  0  0  0  0  0  0  0  0  0  0  0
   -3.3637    0.0609    0.3306 C   0  0  0  0  0  0  0  0  0  0  0  0
   -4.5362   -0.5866   -0.3586 C   0  0  0  0  0  0  0  0  0  0  0  0
    3.2658   -0.7297    0.6733 H   0  0  0  0  0  0  0  0  0  0  0  0
    2.4489   -1.3369    2.1032 H   0  0  0  0  0  0  0  0  0  0  0  0
    0.9440    0.5573    2.1860 H   0  0  0  0  0  0  0  0  0  0  0  0
    2.5948    1.1383    2.1029 H   0  0  0  0  0  0  0  0  0  0  0  0
    0.6463   -2.9199    1.8617 H   0  0  0  0  0  0  0  0  0  0  0  0
   -0.4348   -2.8809    0.3995 H   0  0  0  0  0  0  0  0  0  0  0  0
    3.5612    2.0521    0.0713 H   0  0  0  0  0  0  0  0  0  0  0  0
    3.0676    0.8113   -1.0862 H   0  0  0  0  0  0  0  0  0  0  0  0
    2.5884    2.4960   -1.3244 H   0  0  0  0  0  0  0  0  0  0  0  0
    1.7948    3.3757    1.2999 H   0  0  0  0  0  0  0  0  0  0  0  0
    0.6816    3.5185   -0.0558 H   0  0  0  0  0  0  0  0  0  0  0  0
    0.1458    2.8021    1.4716 H   0  0  0  0  0  0  0  0  0  0  0  0
    1.0019    1.4699   -2.5650 H   0  0  0  0  0  0  0  0  0  0  0  0
   -0.6554    0.9466   -2.5740 H   0  0  0  0  0  0  0  0  0  0  0  0
   -0.2459    2.4869   -1.8263 H   0  0  0  0  0  0  0  0  0  0  0  0
   -1.0620    1.0639    1.1242 H   0  0  0  0  0  0  0  0  0  0  0  0
   -2.0818   -0.3253   -1.4169 H   0  0  0  0  0  0  0  0  0  0  0  0
   -5.4185    0.0479   -0.2362 H   0  0  0  0  0  0  0  0  0  0  0  0
   -4.7173   -1.5686    0.0855 H   0  0  0  0  0  0  0  0  0  0  0  0
   -4.3543   -0.7062   -1.4299 H   0  0  0  0  0  0  0  0  0  0  0  0
  1  4  1  0  0  0  0
  1 10  1  0  0  0  0
  2  9  2  0  0  0  0
  3 16  2  0  0  0  0
  4  7  1  0  0  0  0
  4  9  1  0  0  0  0
  4 10  1  0  0  0  0
  5  6  1  0  0  0  0
  5  8  1  0  0  0  0
  5 11  1  0  0  0  0
  5 12  1  0  0  0  0
  6  9  1  0  0  0  0
  6 13  1  0  0  0  0
  6 14  1  0  0  0  0
  7  8  1  0  0  0  0
  7 18  1  0  0  0  0
  7 19  1  0  0  0  0
  8 20  1  0  0  0  0
  8 21  1  0  0  0  0
 10 22  1  0  0  0  0
 10 23  1  0  0  0  0
 11 24  1  0  0  0  0
 11 25  1  0  0  0  0
 11 26  1  0  0  0  0
 12 27  1  0  0  0  0
 12 28  1  0  0  0  0
 12 29  1  0  0  0  0
 13 30  1  0  0  0  0
 13 31  1  0  0  0  0
 13 32  1  0  0  0  0
 14 15  2  0  0  0  0
 14 33  1  0  0  0  0
 15 16  1  0  0  0  0
 15 34  1  0  0  0  0
 16 17  1  0  0  0  0
 17 35  1  0  0  0  0
 17 36  1  0  0  0  0
 17 37  1  0  0  0  0
M  END
> <PUBCHEM_COMPOUND_CID>
5363139

> <PUBCHEM_CONFORMER_RMSD>
0.6

> <PUBCHEM_CONFORMER_DIVERSEORDER>
6
9
22
49
56
58
61
36
13
12
29
7
46
57
47
11
44
50
42
59
55
26
3
28
38
35
32
17
51
27
24
62
8
41
52
1
25
34
39
16
21
63
23
48
53
2
19
33
30
5
43
20
60
31
4
10
18
15
45
14
54
40
37

> <PUBCHEM_MMFF94_PARTIAL_CHARGES>
16
1 -0.3
10 -0.05
14 -0.29
15 -0.14
16 0.49
17 0.06
2 -0.57
22 0.1
23 0.1
3 -0.57
33 0.15
34 0.15
4 0.05
6 0.2
7 0.09
9 0.51

> <PUBCHEM_EFFECTIVE_ROTOR_COUNT>
3.2

> <PUBCHEM_PHARMACOPHORE_FEATURES>
5
1 1 acceptor
1 2 acceptor
1 3 acceptor
3 5 11 12 hydrophobe
6 4 5 6 7 8 9 rings

> <PUBCHEM_HEAVY_ATOM_COUNT>
17

> <PUBCHEM_ATOM_DEF_STEREO_COUNT>
0

> <PUBCHEM_ATOM_UDEF_STEREO_COUNT>
2

> <PUBCHEM_BOND_DEF_STEREO_COUNT>
1

> <PUBCHEM_BOND_UDEF_STEREO_COUNT>
0

> <PUBCHEM_ISOTOPIC_ATOM_COUNT>
0

> <PUBCHEM_COMPONENT_COUNT>
1

> <PUBCHEM_CACTVS_TAUTO_COUNT>
2

> <PUBCHEM_CONFORMER_ID>
0051D5C300000006

> <PUBCHEM_MMFF94_ENERGY>
47.1905

> <PUBCHEM_FEATURE_SELFOVERLAP>
25.379

> <PUBCHEM_SHAPE_FINGERPRINT>
12326174 3 18342470213499713621
12346645 6 18187922919292566029
12423570 1 11548614318529053972
12725867 57 17968098581827211237
14787075 74 18262242114792714330
14817 1 12476019554175226604
15501101 241 18334010562572316421
15852999 172 17823132492379897139
16945 1 18339346522466444588
18721546 61 17554606575383089350
20559304 39 18272371962436844529
20645477 70 18187637003947360279
21524375 3 18057042629989888485
21730867 7 18334294292596670609
23419403 2 17097739462483484654
23558518 356 17406540884820330820
2748010 2 17834368156738068518
276578 36 18339640165259792576
298252 57 16987444302848249628
3060560 45 18336546135059589140
3250762 1 17899681384816164044
4175511 376 14563687373048382822
427121 178 18127702727716295675
430814 3 17702374229348786176
549884 4 9943530734410147611
568465 68 18046596007000466440
7364860 26 18411704274757723271
7495541 125 11455888113655199309
81228 2 17186144376148779448
8272917 22 18408601461834721869
9981440 41 16049256465737552728
9999458 23 18267867357391793245

> <PUBCHEM_SHAPE_MULTIPOLES>
332.24
4.93
2.73
1.52
7.74
1
-0.34
-0.44
1.16
-2.15
0.24
-0.21
-0.23
-0.18

> <PUBCHEM_SHAPE_SELFOVERLAP>
685.78

> <PUBCHEM_SHAPE_VOLUME>
190.6

> <PUBCHEM_COORDINATE_TYPE>
2
5
10

$$$$
