12992
  -OEChem-08272011103D

 22 21  0     0  0  0  0  0  0999 V2000
   -1.8703    0.0010   -0.0001 C   0  0  0  0  0  0  0  0  0  0  0  0
    1.8843    0.0438    0.0000 C   0  0  0  0  0  0  0  0  0  0  0  0
   -0.5826   -0.3989    0.0012 C   0  0  0  0  0  0  0  0  0  0  0  0
    0.5967    0.4440   -0.0013 C   0  0  0  0  0  0  0  0  0  0  0  0
   -2.9773   -1.0230   -0.0035 C   0  0  0  0  0  0  0  0  0  0  0  0
   -2.3619    1.4232    0.0032 C   0  0  0  0  0  0  0  0  0  0  0  0
    3.0952    0.9371   -0.0027 C   0  0  0  0  0  0  0  0  0  0  0  0
    2.2159   -1.4273    0.0032 C   0  0  0  0  0  0  0  0  0  0  0  0
   -0.4020   -1.4709   -0.0107 H   0  0  0  0  0  0  0  0  0  0  0  0
    0.4278    1.5171   -0.0037 H   0  0  0  0  0  0  0  0  0  0  0  0
   -3.6064   -0.9034    0.8849 H   0  0  0  0  0  0  0  0  0  0  0  0
   -2.5987   -2.0505   -0.0049 H   0  0  0  0  0  0  0  0  0  0  0  0
   -3.6041   -0.8998   -0.8929 H   0  0  0  0  0  0  0  0  0  0  0  0
   -1.5643    2.1683    0.0122 H   0  0  0  0  0  0  0  0  0  0  0  0
   -2.9714    1.6103   -0.8874 H   0  0  0  0  0  0  0  0  0  0  0  0
   -2.9827    1.6024    0.8876 H   0  0  0  0  0  0  0  0  0  0  0  0
    3.7164    0.7357   -0.8813 H   0  0  0  0  0  0  0  0  0  0  0  0
    2.8107    1.9941   -0.0291 H   0  0  0  0  0  0  0  0  0  0  0  0
    3.6942    0.7742    0.8990 H   0  0  0  0  0  0  0  0  0  0  0  0
    1.6007   -1.9930    0.7098 H   0  0  0  0  0  0  0  0  0  0  0  0
    3.2541   -1.5918    0.3140 H   0  0  0  0  0  0  0  0  0  0  0  0
    2.1029   -1.8477   -1.0014 H   0  0  0  0  0  0  0  0  0  0  0  0
  1  3  2  0  0  0  0
  1  5  1  0  0  0  0
  1  6  1  0  0  0  0
  2  4  2  0  0  0  0
  2  7  1  0  0  0  0
  2  8  1  0  0  0  0
  3  4  1  0  0  0  0
  3  9  1  0  0  0  0
  4 10  1  0  0  0  0
  5 11  1  0  0  0  0
  5 12  1  0  0  0  0
  5 13  1  0  0  0  0
  6 14  1  0  0  0  0
  6 15  1  0  0  0  0
  6 16  1  0  0  0  0
  7 17  1  0  0  0  0
  7 18  1  0  0  0  0
  7 19  1  0  0  0  0
  8 20  1  0  0  0  0
  8 21  1  0  0  0  0
  8 22  1  0  0  0  0
M  END
> <PUBCHEM_COMPOUND_CID>
12992

> <PUBCHEM_CONFORMER_RMSD>
0.4

> <PUBCHEM_CONFORMER_DIVERSEORDER>
1

> <PUBCHEM_MMFF94_PARTIAL_CHARGES>
10
1 -0.28
10 0.15
2 -0.28
3 -0.15
4 -0.15
5 0.14
6 0.14
7 0.14
8 0.14
9 0.15

> <PUBCHEM_EFFECTIVE_ROTOR_COUNT>
1

> <PUBCHEM_PHARMACOPHORE_FEATURES>
2
3 1 5 6 hydrophobe
3 2 7 8 hydrophobe

> <PUBCHEM_HEAVY_ATOM_COUNT>
8

> <PUBCHEM_ATOM_DEF_STEREO_COUNT>
0

> <PUBCHEM_ATOM_UDEF_STEREO_COUNT>
0

> <PUBCHEM_BOND_DEF_STEREO_COUNT>
0

> <PUBCHEM_BOND_UDEF_STEREO_COUNT>
0

> <PUBCHEM_ISOTOPIC_ATOM_COUNT>
0

> <PUBCHEM_COMPONENT_COUNT>
1

> <PUBCHEM_CACTVS_TAUTO_COUNT>
1

> <PUBCHEM_CONFORMER_ID>
000032C000000001

> <PUBCHEM_MMFF94_ENERGY>
11.2554

> <PUBCHEM_FEATURE_SELFOVERLAP>
10.149

> <PUBCHEM_SHAPE_FINGERPRINT>
11062470 55 16588296233031280447
12897270 3 18411135882864291245
12932764 1 17489298711276210343
14325111 11 18410575076078419073
14390081 3 18412824698475865928
15310529 11 18343580754666802727
19973954 147 18411139108374538261
23552423 10 18261675878566449090
29004967 10 18334017202691878936
3248919 1 18335692832379068050
5460574 1 9295296040235203714

> <PUBCHEM_SHAPE_MULTIPOLES>
164.64
5.2
1.41
0.62
0.14
0.03
0
-0.13
0
-0.08
0
0
0
0

> <PUBCHEM_SHAPE_SELFOVERLAP>
300.603

> <PUBCHEM_SHAPE_VOLUME>
104.8

> <PUBCHEM_COORDINATE_TYPE>
2
5
10

$$$$
