534313
  -OEChem-08272012193D

 29 30  0     1  0  0  0  0  0999 V2000
   -1.5093   -1.7675    0.3286 O   0  0  0  0  0  0  0  0  0  0  0  0
   -3.1318    0.4091   -0.1582 O   0  0  0  0  0  0  0  0  0  0  0  0
    0.9352    1.1430    0.2646 C   0  0  2  0  0  0  0  0  0  0  0  0
    2.2277    1.1367   -0.5749 C   0  0  0  0  0  0  0  0  0  0  0  0
    0.3309   -0.2479    0.3860 C   0  0  0  0  0  0  0  0  0  0  0  0
   -0.0384    2.1631   -0.3462 C   0  0  0  0  0  0  0  0  0  0  0  0
    3.2146    0.0643   -0.1257 C   0  0  0  0  0  0  0  0  0  0  0  0
    1.3156   -1.3443    0.7353 C   0  0  0  0  0  0  0  0  0  0  0  0
    2.5602   -1.3121   -0.1469 C   0  0  0  0  0  0  0  0  0  0  0  0
   -1.4273    2.0389    0.2481 C   0  0  0  0  0  0  0  0  0  0  0  0
   -0.9853   -0.4947    0.2443 C   0  0  0  0  0  0  0  0  0  0  0  0
   -1.9429    0.6335    0.0619 C   0  0  0  0  0  0  0  0  0  0  0  0
   -1.5492   -2.4220   -0.9169 C   0  0  0  0  0  0  0  0  0  0  0  0
    1.1879    1.4723    1.2822 H   0  0  0  0  0  0  0  0  0  0  0  0
    2.7111    2.1194   -0.5149 H   0  0  0  0  0  0  0  0  0  0  0  0
    1.9870    0.9689   -1.6332 H   0  0  0  0  0  0  0  0  0  0  0  0
   -0.1054    2.0130   -1.4325 H   0  0  0  0  0  0  0  0  0  0  0  0
    0.3419    3.1799   -0.1913 H   0  0  0  0  0  0  0  0  0  0  0  0
    3.5737    0.2910    0.8855 H   0  0  0  0  0  0  0  0  0  0  0  0
    4.0890    0.0678   -0.7861 H   0  0  0  0  0  0  0  0  0  0  0  0
    1.6173   -1.2059    1.7820 H   0  0  0  0  0  0  0  0  0  0  0  0
    0.8706   -2.3430    0.6771 H   0  0  0  0  0  0  0  0  0  0  0  0
    3.2770   -2.0640    0.2025 H   0  0  0  0  0  0  0  0  0  0  0  0
    2.2921   -1.5789   -1.1769 H   0  0  0  0  0  0  0  0  0  0  0  0
   -2.1053    2.7330   -0.2602 H   0  0  0  0  0  0  0  0  0  0  0  0
   -1.4293    2.2746    1.3177 H   0  0  0  0  0  0  0  0  0  0  0  0
   -1.9586   -3.4254   -0.7661 H   0  0  0  0  0  0  0  0  0  0  0  0
   -0.5495   -2.5280   -1.3519 H   0  0  0  0  0  0  0  0  0  0  0  0
   -2.2025   -1.8936   -1.6198 H   0  0  0  0  0  0  0  0  0  0  0  0
  1 11  1  0  0  0  0
  1 13  1  0  0  0  0
  2 12  2  0  0  0  0
  3  4  1  0  0  0  0
  3  5  1  0  0  0  0
  3  6  1  0  0  0  0
  3 14  1  0  0  0  0
  4  7  1  0  0  0  0
  4 15  1  0  0  0  0
  4 16  1  0  0  0  0
  5  8  1  0  0  0  0
  5 11  2  0  0  0  0
  6 10  1  0  0  0  0
  6 17  1  0  0  0  0
  6 18  1  0  0  0  0
  7  9  1  0  0  0  0
  7 19  1  0  0  0  0
  7 20  1  0  0  0  0
  8  9  1  0  0  0  0
  8 21  1  0  0  0  0
  8 22  1  0  0  0  0
  9 23  1  0  0  0  0
  9 24  1  0  0  0  0
 10 12  1  0  0  0  0
 10 25  1  0  0  0  0
 10 26  1  0  0  0  0
 11 12  1  0  0  0  0
 13 27  1  0  0  0  0
 13 28  1  0  0  0  0
 13 29  1  0  0  0  0
M  END
> <PUBCHEM_COMPOUND_CID>
534313

> <PUBCHEM_CONFORMER_RMSD>
0.6

> <PUBCHEM_CONFORMER_DIVERSEORDER>
1
4
3
5
2

> <PUBCHEM_MMFF94_PARTIAL_CHARGES>
9
1 -0.36
10 0.06
11 0.09
12 0.49
13 0.28
2 -0.57
3 0.14
5 -0.28
8 0.14

> <PUBCHEM_EFFECTIVE_ROTOR_COUNT>
2.2

> <PUBCHEM_PHARMACOPHORE_FEATURES>
4
1 1 acceptor
1 2 acceptor
6 3 4 5 7 8 9 rings
6 3 5 6 10 11 12 rings

> <PUBCHEM_HEAVY_ATOM_COUNT>
13

> <PUBCHEM_ATOM_DEF_STEREO_COUNT>
0

> <PUBCHEM_ATOM_UDEF_STEREO_COUNT>
1

> <PUBCHEM_BOND_DEF_STEREO_COUNT>
0

> <PUBCHEM_BOND_UDEF_STEREO_COUNT>
0

> <PUBCHEM_ISOTOPIC_ATOM_COUNT>
0

> <PUBCHEM_COMPONENT_COUNT>
1

> <PUBCHEM_CACTVS_TAUTO_COUNT>
8

> <PUBCHEM_CONFORMER_ID>
0008272900000001

> <PUBCHEM_MMFF94_ENERGY>
20.5284

> <PUBCHEM_FEATURE_SELFOVERLAP>
20.324

> <PUBCHEM_SHAPE_FINGERPRINT>
10967382 1 18409730638368906304
11206711 2 18119533394781407820
12202030 40 16486711241402626950
12423570 1 8896478408081083956
12524768 44 18411706447847599238
14251711 518 18408599283843470538
14993402 34 18411697647686339829
15775835 57 18117852001090247716
16945 1 18411704274720858528
193761 8 18122343746649962361
20645476 183 17532396230069773918
20871998 184 18343308058629813775
21501502 16 18337953518780847036
22802520 49 18269854059281666310
2334 1 18049162468871419240
23402539 116 18271230634732986277
23419403 2 16611309092815295033
23463225 33 17758395171480952498
23552423 10 18190181380563454644
23559900 14 18342459240976773028
241688 4 18266177416630577880
2748010 2 18121498226350228064
2897 32 18190462658119297736
353137 74 18261671472072447728
5084963 1 17985258582392221017
528886 8 18408321099006445840
53812654 25 18265596724330748050
66348 1 18337392643038173368

> <PUBCHEM_SHAPE_MULTIPOLES>
255.8
4
2.52
0.79
1.04
0.31
0.04
0.3
0.4
-0.91
0.37
0.03
0.16
-0.43

> <PUBCHEM_SHAPE_SELFOVERLAP>
528.536

> <PUBCHEM_SHAPE_VOLUME>
144.2

> <PUBCHEM_COORDINATE_TYPE>
2
5
10

$$$$
