5367784
  -OEChem-08272012383D

 54 53  0     0  0  0  0  0  0999 V2000
    5.2179    4.4775    0.6110 Cl  0  0  0  0  0  0  0  0  0  0  0  0
    3.1898   -0.6409    0.3655 C   0  0  0  0  0  0  0  0  0  0  0  0
    2.6007   -1.8287   -0.4005 C   0  0  0  0  0  0  0  0  0  0  0  0
   -3.9666    0.1350    0.3312 C   0  0  0  0  0  0  0  0  0  0  0  0
   -3.2017   -0.8942   -0.5034 C   0  0  0  0  0  0  0  0  0  0  0  0
    4.2045    0.1195   -0.4927 C   0  0  0  0  0  0  0  0  0  0  0  0
   -4.4472    1.3412   -0.4812 C   0  0  0  0  0  0  0  0  0  0  0  0
    1.5565   -2.6126    0.4007 C   0  0  0  0  0  0  0  0  0  0  0  0
   -2.6673   -2.0306    0.3721 C   0  0  0  0  0  0  0  0  0  0  0  0
    4.8385    1.3161    0.2247 C   0  0  0  0  0  0  0  0  0  0  0  0
   -5.1460    2.4460    0.3182 C   0  0  0  0  0  0  0  0  0  0  0  0
    0.9871   -3.8149   -0.3565 C   0  0  0  0  0  0  0  0  0  0  0  0
   -1.9297   -3.0770   -0.4659 C   0  0  0  0  0  0  0  0  0  0  0  0
    5.8014    2.1149   -0.6603 C   0  0  0  0  0  0  0  0  0  0  0  0
   -5.6858    3.6179   -0.5049 C   0  0  0  0  0  0  0  0  0  0  0  0
   -0.0793   -4.5038    0.4457 C   0  0  0  0  0  0  0  0  0  0  0  0
   -1.3785   -4.1748    0.3967 C   0  0  0  0  0  0  0  0  0  0  0  0
    6.4343    3.3024    0.0599 C   0  0  0  0  0  0  0  0  0  0  0  0
   -6.3286    4.7070    0.3398 C   0  0  0  0  0  0  0  0  0  0  0  0
    3.6757   -0.9979    1.2811 H   0  0  0  0  0  0  0  0  0  0  0  0
    2.3837    0.0376    0.6689 H   0  0  0  0  0  0  0  0  0  0  0  0
    2.1395   -1.4685   -1.3285 H   0  0  0  0  0  0  0  0  0  0  0  0
    3.4112   -2.5080   -0.6923 H   0  0  0  0  0  0  0  0  0  0  0  0
   -4.8307   -0.3467    0.8050 H   0  0  0  0  0  0  0  0  0  0  0  0
   -3.3203    0.4934    1.1421 H   0  0  0  0  0  0  0  0  0  0  0  0
   -2.3656   -0.4028   -1.0155 H   0  0  0  0  0  0  0  0  0  0  0  0
   -3.8631   -1.2999   -1.2783 H   0  0  0  0  0  0  0  0  0  0  0  0
    4.9992   -0.5669   -0.8105 H   0  0  0  0  0  0  0  0  0  0  0  0
    3.7084    0.4730   -1.4053 H   0  0  0  0  0  0  0  0  0  0  0  0
   -3.5883    1.7832   -1.0020 H   0  0  0  0  0  0  0  0  0  0  0  0
   -5.1317    0.9859   -1.2619 H   0  0  0  0  0  0  0  0  0  0  0  0
    0.7445   -1.9279    0.6769 H   0  0  0  0  0  0  0  0  0  0  0  0
    2.0090   -2.9556    1.3403 H   0  0  0  0  0  0  0  0  0  0  0  0
   -3.4997   -2.5036    0.9085 H   0  0  0  0  0  0  0  0  0  0  0  0
   -1.9897   -1.6180    1.1304 H   0  0  0  0  0  0  0  0  0  0  0  0
    4.0295    1.9630    0.5819 H   0  0  0  0  0  0  0  0  0  0  0  0
    5.3745    0.9591    1.1127 H   0  0  0  0  0  0  0  0  0  0  0  0
   -5.9772    1.9996    0.8787 H   0  0  0  0  0  0  0  0  0  0  0  0
   -4.4418    2.8321    1.0660 H   0  0  0  0  0  0  0  0  0  0  0  0
    0.6356   -3.5250   -1.3517 H   0  0  0  0  0  0  0  0  0  0  0  0
    1.7917   -4.5385   -0.5403 H   0  0  0  0  0  0  0  0  0  0  0  0
   -2.6305   -3.5276   -1.1797 H   0  0  0  0  0  0  0  0  0  0  0  0
   -1.1686   -2.5691   -1.0627 H   0  0  0  0  0  0  0  0  0  0  0  0
    5.2698    2.4685   -1.5523 H   0  0  0  0  0  0  0  0  0  0  0  0
    6.6009    1.4514   -1.0116 H   0  0  0  0  0  0  0  0  0  0  0  0
   -4.8668    4.0581   -1.0860 H   0  0  0  0  0  0  0  0  0  0  0  0
   -6.4221    3.2442   -1.2262 H   0  0  0  0  0  0  0  0  0  0  0  0
    0.2338   -5.3058    1.1090 H   0  0  0  0  0  0  0  0  0  0  0  0
   -2.0813   -4.7325    1.0102 H   0  0  0  0  0  0  0  0  0  0  0  0
    7.1213    3.8286   -0.6094 H   0  0  0  0  0  0  0  0  0  0  0  0
    6.9976    2.9707    0.9374 H   0  0  0  0  0  0  0  0  0  0  0  0
   -5.6072    5.1301    1.0459 H   0  0  0  0  0  0  0  0  0  0  0  0
   -7.1748    4.3103    0.9094 H   0  0  0  0  0  0  0  0  0  0  0  0
   -6.6961    5.5164   -0.2986 H   0  0  0  0  0  0  0  0  0  0  0  0
  1 18  1  0  0  0  0
  2  3  1  0  0  0  0
  2  6  1  0  0  0  0
  2 20  1  0  0  0  0
  2 21  1  0  0  0  0
  3  8  1  0  0  0  0
  3 22  1  0  0  0  0
  3 23  1  0  0  0  0
  4  5  1  0  0  0  0
  4  7  1  0  0  0  0
  4 24  1  0  0  0  0
  4 25  1  0  0  0  0
  5  9  1  0  0  0  0
  5 26  1  0  0  0  0
  5 27  1  0  0  0  0
  6 10  1  0  0  0  0
  6 28  1  0  0  0  0
  6 29  1  0  0  0  0
  7 11  1  0  0  0  0
  7 30  1  0  0  0  0
  7 31  1  0  0  0  0
  8 12  1  0  0  0  0
  8 32  1  0  0  0  0
  8 33  1  0  0  0  0
  9 13  1  0  0  0  0
  9 34  1  0  0  0  0
  9 35  1  0  0  0  0
 10 14  1  0  0  0  0
 10 36  1  0  0  0  0
 10 37  1  0  0  0  0
 11 15  1  0  0  0  0
 11 38  1  0  0  0  0
 11 39  1  0  0  0  0
 12 16  1  0  0  0  0
 12 40  1  0  0  0  0
 12 41  1  0  0  0  0
 13 17  1  0  0  0  0
 13 42  1  0  0  0  0
 13 43  1  0  0  0  0
 14 18  1  0  0  0  0
 14 44  1  0  0  0  0
 14 45  1  0  0  0  0
 15 19  1  0  0  0  0
 15 46  1  0  0  0  0
 15 47  1  0  0  0  0
 16 17  2  0  0  0  0
 16 48  1  0  0  0  0
 17 49  1  0  0  0  0
 18 50  1  0  0  0  0
 18 51  1  0  0  0  0
 19 52  1  0  0  0  0
 19 53  1  0  0  0  0
 19 54  1  0  0  0  0
M  END
> <PUBCHEM_COMPOUND_CID>
5367784

> <PUBCHEM_CONFORMER_RMSD>
1.4

> <PUBCHEM_CONFORMER_DIVERSEORDER>
1
82
65
29
37
18
12
28
13
32
5
44
77
21
14
35
16
58
66
34
73
49
67
7
30
2
3
27
48
43
45
24
63
64
59
20
46
80
31
23
4
40
72
61
70
60
11
6
50
9
47
42
15
41
51
81
71
57
56
55
22
19
78
10
8
36
62
26
74
54
68
79
33
52
76
39
75
17
69
25
53
38

> <PUBCHEM_MMFF94_PARTIAL_CHARGES>
8
1 -0.29
12 0.14
13 0.14
16 -0.29
17 -0.29
18 0.29
48 0.15
49 0.15

> <PUBCHEM_EFFECTIVE_ROTOR_COUNT>
15

> <PUBCHEM_PHARMACOPHORE_FEATURES>
1
1 19 hydrophobe

> <PUBCHEM_HEAVY_ATOM_COUNT>
19

> <PUBCHEM_ATOM_DEF_STEREO_COUNT>
0

> <PUBCHEM_ATOM_UDEF_STEREO_COUNT>
0

> <PUBCHEM_BOND_DEF_STEREO_COUNT>
1

> <PUBCHEM_BOND_UDEF_STEREO_COUNT>
0

> <PUBCHEM_ISOTOPIC_ATOM_COUNT>
0

> <PUBCHEM_COMPONENT_COUNT>
1

> <PUBCHEM_CACTVS_TAUTO_COUNT>
1

> <PUBCHEM_CONFORMER_ID>
0051E7E800000001

> <PUBCHEM_MMFF94_ENERGY>
0.5096

> <PUBCHEM_FEATURE_SELFOVERLAP>
5.074

> <PUBCHEM_SHAPE_FINGERPRINT>
10675989 125 18194966231850725497
10864689 126 18411145710525652436
10917259 69 18409732855785750340
10937287 8 18410292488964460123
11059845 2 18122311754166608362
11761917 142 18124586742345830408
12107183 9 18261658326053761834
14223995 32 18342166800648226680
14251764 75 18339366266821585529
14429114 114 18410853244442300573
15142526 21 18116436938896080867
155225 5 18194682807211985264
155225 6 18338520720937202857
1768 85 17975132042400261005
21388113 180 18337957788046956541
23569914 152 9772963998969529956
437795 171 18116425943152530165
5047190 36 17895208717475039100
5047190 47 17038368910150736237
5047190 92 18410576163517918005
5283173 99 18052540165035322032
9849439 229 18335704918754954687

> <PUBCHEM_SHAPE_MULTIPOLES>
392.88
17.57
8.96
0.8
4.02
1.33
-0.01
36.21
-0.38
-4.12
1.14
0.07
0.05
0.52

> <PUBCHEM_SHAPE_SELFOVERLAP>
701.491

> <PUBCHEM_SHAPE_VOLUME>
250.4

> <PUBCHEM_COORDINATE_TYPE>
2
5
10

$$$$
