559248
  -OEChem-08272006373D

 42 44  0     1  0  0  0  0  0999 V2000
   -1.0142    0.2879    0.0779 O   0  0  0  0  0  0  0  0  0  0  0  0
    2.5161    2.6557   -0.5489 O   0  0  0  0  0  0  0  0  0  0  0  0
   -2.7651   -1.2294    0.5932 O   0  0  0  0  0  0  0  0  0  0  0  0
    1.2166   -0.6200   -0.5758 C   0  0  1  0  0  0  0  0  0  0  0  0
    2.5479   -0.7445    0.2331 C   0  0  0  0  0  0  0  0  0  0  0  0
    2.3748    0.6637    0.8553 C   0  0  2  0  0  0  0  0  0  0  0  0
    0.1845   -0.2999    0.5533 C   0  0  1  0  0  0  0  0  0  0  0  0
    0.9743    0.6386    1.4972 C   0  0  0  0  0  0  0  0  0  0  0  0
    1.4289    0.6662   -1.4316 C   0  0  0  0  0  0  0  0  0  0  0  0
    2.1695    1.4942   -0.4028 C   0  0  0  0  0  0  0  0  0  0  0  0
    0.8178   -1.8111   -1.4274 C   0  0  0  0  0  0  0  0  0  0  0  0
    2.5896   -1.8808    1.2742 C   0  0  0  0  0  0  0  0  0  0  0  0
    3.8326   -0.8858   -0.6110 C   0  0  0  0  0  0  0  0  0  0  0  0
   -2.1172   -0.0010    0.9320 C   0  0  2  0  0  0  0  0  0  0  0  0
   -3.1074    1.1626    0.9022 C   0  0  0  0  0  0  0  0  0  0  0  0
   -3.8386    1.2363   -0.4355 C   0  0  0  0  0  0  0  0  0  0  0  0
   -4.4338   -0.1210   -0.7888 C   0  0  0  0  0  0  0  0  0  0  0  0
   -3.3761   -1.2117   -0.6965 C   0  0  0  0  0  0  0  0  0  0  0  0
    3.1895    1.0228    1.4842 H   0  0  0  0  0  0  0  0  0  0  0  0
   -0.0596   -1.2361    1.0728 H   0  0  0  0  0  0  0  0  0  0  0  0
    1.0153    0.2191    2.5078 H   0  0  0  0  0  0  0  0  0  0  0  0
    0.5230    1.6352    1.5615 H   0  0  0  0  0  0  0  0  0  0  0  0
    0.4937    1.1491   -1.7235 H   0  0  0  0  0  0  0  0  0  0  0  0
    2.0589    0.4947   -2.3077 H   0  0  0  0  0  0  0  0  0  0  0  0
    1.5818   -2.0380   -2.1778 H   0  0  0  0  0  0  0  0  0  0  0  0
    0.6715   -2.7080   -0.8171 H   0  0  0  0  0  0  0  0  0  0  0  0
   -0.1197   -1.6146   -1.9583 H   0  0  0  0  0  0  0  0  0  0  0  0
    2.5961   -2.8583    0.7791 H   0  0  0  0  0  0  0  0  0  0  0  0
    3.5018   -1.8095    1.8784 H   0  0  0  0  0  0  0  0  0  0  0  0
    1.7562   -1.8843    1.9794 H   0  0  0  0  0  0  0  0  0  0  0  0
    3.8445   -1.8449   -1.1402 H   0  0  0  0  0  0  0  0  0  0  0  0
    3.9672   -0.1013   -1.3598 H   0  0  0  0  0  0  0  0  0  0  0  0
    4.7187   -0.8505    0.0338 H   0  0  0  0  0  0  0  0  0  0  0  0
   -1.7708   -0.0940    1.9694 H   0  0  0  0  0  0  0  0  0  0  0  0
   -2.5920    2.1114    1.0883 H   0  0  0  0  0  0  0  0  0  0  0  0
   -3.8529    1.0194    1.6942 H   0  0  0  0  0  0  0  0  0  0  0  0
   -3.1396    1.5464   -1.2218 H   0  0  0  0  0  0  0  0  0  0  0  0
   -4.6286    1.9939   -0.3906 H   0  0  0  0  0  0  0  0  0  0  0  0
   -5.2425   -0.3439   -0.0819 H   0  0  0  0  0  0  0  0  0  0  0  0
   -4.8694   -0.0964   -1.7931 H   0  0  0  0  0  0  0  0  0  0  0  0
   -3.8384   -2.1909   -0.8573 H   0  0  0  0  0  0  0  0  0  0  0  0
   -2.6067   -1.0843   -1.4664 H   0  0  0  0  0  0  0  0  0  0  0  0
  1  7  1  0  0  0  0
  1 14  1  0  0  0  0
  2 10  2  0  0  0  0
  3 14  1  0  0  0  0
  3 18  1  0  0  0  0
  4  5  1  0  0  0  0
  4  7  1  0  0  0  0
  4  9  1  0  0  0  0
  4 11  1  0  0  0  0
  5  6  1  0  0  0  0
  5 12  1  0  0  0  0
  5 13  1  0  0  0  0
  6  8  1  0  0  0  0
  6 10  1  0  0  0  0
  6 19  1  0  0  0  0
  7  8  1  0  0  0  0
  7 20  1  0  0  0  0
  8 21  1  0  0  0  0
  8 22  1  0  0  0  0
  9 10  1  0  0  0  0
  9 23  1  0  0  0  0
  9 24  1  0  0  0  0
 11 25  1  0  0  0  0
 11 26  1  0  0  0  0
 11 27  1  0  0  0  0
 12 28  1  0  0  0  0
 12 29  1  0  0  0  0
 12 30  1  0  0  0  0
 13 31  1  0  0  0  0
 13 32  1  0  0  0  0
 13 33  1  0  0  0  0
 14 15  1  0  0  0  0
 14 34  1  0  0  0  0
 15 16  1  0  0  0  0
 15 35  1  0  0  0  0
 15 36  1  0  0  0  0
 16 17  1  0  0  0  0
 16 37  1  0  0  0  0
 16 38  1  0  0  0  0
 17 18  1  0  0  0  0
 17 39  1  0  0  0  0
 17 40  1  0  0  0  0
 18 41  1  0  0  0  0
 18 42  1  0  0  0  0
M  END
> <PUBCHEM_COMPOUND_CID>
559248

> <PUBCHEM_CONFORMER_RMSD>
0.6

> <PUBCHEM_CONFORMER_DIVERSEORDER>
8
55
11
51
56
15
57
53
2
46
24
14
54
45
44
38
48
3
28
39
9
27
41
17
37
36
32
43
26
21
12
13
35
49
18
16
20
5
33
34
7
23
50
47
6
19
29
25
10
4
22
40
1
52
30
31
42

> <PUBCHEM_MMFF94_PARTIAL_CHARGES>
9
1 -0.56
10 0.45
14 0.56
18 0.28
2 -0.57
3 -0.56
6 0.06
7 0.28
9 0.06

> <PUBCHEM_EFFECTIVE_ROTOR_COUNT>
4

> <PUBCHEM_PHARMACOPHORE_FEATURES>
6
1 1 acceptor
1 2 acceptor
1 3 acceptor
3 5 12 13 hydrophobe
6 3 14 15 16 17 18 rings
7 4 5 6 7 8 9 10 rings

> <PUBCHEM_HEAVY_ATOM_COUNT>
18

> <PUBCHEM_ATOM_DEF_STEREO_COUNT>
0

> <PUBCHEM_ATOM_UDEF_STEREO_COUNT>
4

> <PUBCHEM_BOND_DEF_STEREO_COUNT>
0

> <PUBCHEM_BOND_UDEF_STEREO_COUNT>
0

> <PUBCHEM_ISOTOPIC_ATOM_COUNT>
0

> <PUBCHEM_COMPONENT_COUNT>
1

> <PUBCHEM_CACTVS_TAUTO_COUNT>
2

> <PUBCHEM_CONFORMER_ID>
0008889000000008

> <PUBCHEM_MMFF94_ENERGY>
66.0166

> <PUBCHEM_FEATURE_SELFOVERLAP>
30.483

> <PUBCHEM_SHAPE_FINGERPRINT>
10759866 29 18267581492953062510
116883 192 18053386500445490540
12500047 106 17603305959748787067
128620 24 15195276539199569701
13134695 92 18186799137131537724
13224815 77 17917996109282453347
13296908 3 17095530612469184633
14115302 16 18060139821285482913
16945 1 18259703398183152954
17349148 13 18131060494678478639
17492 89 18409164433184715979
18186145 218 17240761791978181369
200 152 16486965181713150391
20233049 118 17988922271374394272
20279233 1 15482670152653407053
20645477 70 18411983572154502887
21524375 3 18051418658442640620
2255824 54 18334858320566031114
22892500 29 17967809457518904094
23402539 116 18337666399942841884
23557571 272 16845013386255536161
23559900 14 18273208677594549499
296302 2 16515406282742006702
3082319 5 18341897411234258473
312423 11 18343032111629174667
3286 77 17704063006241923089
474 4 17823702056034724213
7364860 26 18334013908557607352
74978 22 18186804677549652787
93112 12 18334294271095453875
9709674 26 18343868797129096263

> <PUBCHEM_SHAPE_MULTIPOLES>
352.82
7.26
1.92
1.38
6.61
0.35
-0.05
-0.2
0.79
-0.95
0.3
-0.4
-0.11
-0.53

> <PUBCHEM_SHAPE_SELFOVERLAP>
746.778

> <PUBCHEM_SHAPE_VOLUME>
202.8

> <PUBCHEM_COORDINATE_TYPE>
2
5
10

$$$$
