75351
  -OEChem-08272011513D

 16 16  0     0  0  0  0  0  0999 V2000
    2.0747    1.3245    0.2207 F   0  0  0  0  0  0  0  0  0  0  0  0
   -0.8221   -2.4314    0.1472 F   0  0  0  0  0  0  0  0  0  0  0  0
   -2.9645   -0.7682   -0.1539 F   0  0  0  0  0  0  0  0  0  0  0  0
   -0.0724    2.9815   -0.0797 F   0  0  0  0  0  0  0  0  0  0  0  0
    1.7220   -1.4020    0.3360 O   0  0  0  0  0  0  0  0  0  0  0  0
    0.6525   -0.5735    0.1872 C   0  0  0  0  0  0  0  0  0  0  0  0
    0.8418    0.8071    0.1296 C   0  0  0  0  0  0  0  0  0  0  0  0
   -0.6334   -1.1058    0.0918 C   0  0  0  0  0  0  0  0  0  0  0  0
   -1.7298   -0.2571   -0.0609 C   0  0  0  0  0  0  0  0  0  0  0  0
   -0.2546    1.6557   -0.0232 C   0  0  0  0  0  0  0  0  0  0  0  0
   -1.5405    1.1236   -0.1183 C   0  0  0  0  0  0  0  0  0  0  0  0
    2.7262   -1.3543   -0.6764 C   0  0  0  0  0  0  0  0  0  0  0  0
   -2.3940    1.7842   -0.2378 H   0  0  0  0  0  0  0  0  0  0  0  0
    3.4337   -0.5456   -0.4718 H   0  0  0  0  0  0  0  0  0  0  0  0
    2.2865   -1.2333   -1.6723 H   0  0  0  0  0  0  0  0  0  0  0  0
    3.2738   -2.3009   -0.6546 H   0  0  0  0  0  0  0  0  0  0  0  0
  1  7  1  0  0  0  0
  2  8  1  0  0  0  0
  3  9  1  0  0  0  0
  4 10  1  0  0  0  0
  5  6  1  0  0  0  0
  5 12  1  0  0  0  0
  6  7  2  0  0  0  0
  6  8  1  0  0  0  0
  7 10  1  0  0  0  0
  8  9  2  0  0  0  0
  9 11  1  0  0  0  0
 10 11  2  0  0  0  0
 11 13  1  0  0  0  0
 12 14  1  0  0  0  0
 12 15  1  0  0  0  0
 12 16  1  0  0  0  0
M  END
> <PUBCHEM_COMPOUND_CID>
75351

> <PUBCHEM_CONFORMER_RMSD>
0.4

> <PUBCHEM_CONFORMER_DIVERSEORDER>
1
2

> <PUBCHEM_MMFF94_PARTIAL_CHARGES>
13
1 -0.19
10 0.19
11 -0.15
12 0.28
13 0.15
2 -0.19
3 -0.19
4 -0.19
5 -0.36
6 0.08
7 0.19
8 0.19
9 0.19

> <PUBCHEM_EFFECTIVE_ROTOR_COUNT>
1

> <PUBCHEM_PHARMACOPHORE_FEATURES>
2
1 5 acceptor
6 6 7 8 9 10 11 rings

> <PUBCHEM_HEAVY_ATOM_COUNT>
12

> <PUBCHEM_ATOM_DEF_STEREO_COUNT>
0

> <PUBCHEM_ATOM_UDEF_STEREO_COUNT>
0

> <PUBCHEM_BOND_DEF_STEREO_COUNT>
0

> <PUBCHEM_BOND_UDEF_STEREO_COUNT>
0

> <PUBCHEM_ISOTOPIC_ATOM_COUNT>
0

> <PUBCHEM_COMPONENT_COUNT>
1

> <PUBCHEM_CACTVS_TAUTO_COUNT>
1

> <PUBCHEM_CONFORMER_ID>
0001265700000001

> <PUBCHEM_MMFF94_ENERGY>
28.8644

> <PUBCHEM_FEATURE_SELFOVERLAP>
10.148

> <PUBCHEM_SHAPE_FINGERPRINT>
11206711 2 18192991513187879981
12423570 1 15530786615156397481
12524768 44 18341327885358969762
12716758 59 17836652916151960294
161256 15 18412544310247031496
16945 1 18194684997518426329
193761 8 18050005798616435259
20588541 1 18265050425807206025
21040471 1 18337386170659575865
2334 1 18410289216161892153
23552423 10 18261396619971990428
23559900 14 17335617515412661790
241688 4 18338797810392984817
2748010 2 18410003317374121949
5084963 1 18059006177304906795
66348 1 18265329504149928570

> <PUBCHEM_SHAPE_MULTIPOLES>
211.99
3.09
2.52
0.63
1.37
0.64
-0.03
-0.8
-0.51
-0.74
0.07
0.13
-0.02
0.07

> <PUBCHEM_SHAPE_SELFOVERLAP>
450.133

> <PUBCHEM_SHAPE_VOLUME>
119.1

> <PUBCHEM_COORDINATE_TYPE>
2
5
10

$$$$
