539828
  -OEChem-08272010403D

 32 33  0     1  0  0  0  0  0999 V2000
    1.8101   -0.2582    0.8035 O   0  0  0  0  0  0  0  0  0  0  0  0
    2.1833    0.3040   -1.4252 O   0  0  0  0  0  0  0  0  0  0  0  0
   -1.9322   -0.2082    0.1679 C   0  0  1  0  0  0  0  0  0  0  0  0
   -2.5624   -1.4935   -0.3902 C   0  0  0  0  0  0  0  0  0  0  0  0
   -0.4731   -0.5814    0.3125 C   0  0  0  0  0  0  0  0  0  0  0  0
   -2.2249    0.9782   -0.7525 C   0  0  0  0  0  0  0  0  0  0  0  0
   -1.6969   -2.6084    0.1720 C   0  0  0  0  0  0  0  0  0  0  0  0
   -0.2872   -2.0537    0.0413 C   0  0  0  0  0  0  0  0  0  0  0  0
   -1.8190    2.3317   -0.1761 C   0  0  0  0  0  0  0  0  0  0  0  0
    0.5203    0.2376    0.6941 C   0  0  0  0  0  0  0  0  0  0  0  0
   -0.3123    2.5369   -0.0436 C   0  0  0  0  0  0  0  0  0  0  0  0
    0.3380    1.6888    1.0488 C   0  0  0  0  0  0  0  0  0  0  0  0
    2.5420   -0.1599   -0.3504 C   0  0  0  0  0  0  0  0  0  0  0  0
    3.9144   -0.7139   -0.1021 C   0  0  0  0  0  0  0  0  0  0  0  0
   -2.3489   -0.0251    1.1674 H   0  0  0  0  0  0  0  0  0  0  0  0
   -2.5262   -1.5116   -1.4872 H   0  0  0  0  0  0  0  0  0  0  0  0
   -3.6097   -1.5985   -0.0891 H   0  0  0  0  0  0  0  0  0  0  0  0
   -3.3045    1.0098   -0.9488 H   0  0  0  0  0  0  0  0  0  0  0  0
   -1.7376    0.8362   -1.7261 H   0  0  0  0  0  0  0  0  0  0  0  0
    0.0836   -2.1982   -0.9799 H   0  0  0  0  0  0  0  0  0  0  0  0
    0.3942   -2.5412    0.7448 H   0  0  0  0  0  0  0  0  0  0  0  0
   -1.8241   -3.5482   -0.3733 H   0  0  0  0  0  0  0  0  0  0  0  0
   -1.9440   -2.7888    1.2255 H   0  0  0  0  0  0  0  0  0  0  0  0
   -2.3057    2.4859    0.7947 H   0  0  0  0  0  0  0  0  0  0  0  0
   -2.2078    3.1115   -0.8430 H   0  0  0  0  0  0  0  0  0  0  0  0
   -0.1428    3.5919    0.2069 H   0  0  0  0  0  0  0  0  0  0  0  0
    0.1788    2.3661   -1.0093 H   0  0  0  0  0  0  0  0  0  0  0  0
   -0.2274    1.7673    1.9855 H   0  0  0  0  0  0  0  0  0  0  0  0
    1.3254    2.1201    1.2601 H   0  0  0  0  0  0  0  0  0  0  0  0
    3.8420   -1.7612    0.2022 H   0  0  0  0  0  0  0  0  0  0  0  0
    4.4194   -0.1228    0.6658 H   0  0  0  0  0  0  0  0  0  0  0  0
    4.4992   -0.6608   -1.0249 H   0  0  0  0  0  0  0  0  0  0  0  0
  1 10  1  0  0  0  0
  1 13  1  0  0  0  0
  2 13  2  0  0  0  0
  3  4  1  0  0  0  0
  3  5  1  0  0  0  0
  3  6  1  0  0  0  0
  3 15  1  0  0  0  0
  4  7  1  0  0  0  0
  4 16  1  0  0  0  0
  4 17  1  0  0  0  0
  5  8  1  0  0  0  0
  5 10  2  0  0  0  0
  6  9  1  0  0  0  0
  6 18  1  0  0  0  0
  6 19  1  0  0  0  0
  7  8  1  0  0  0  0
  7 22  1  0  0  0  0
  7 23  1  0  0  0  0
  8 20  1  0  0  0  0
  8 21  1  0  0  0  0
  9 11  1  0  0  0  0
  9 24  1  0  0  0  0
  9 25  1  0  0  0  0
 10 12  1  0  0  0  0
 11 12  1  0  0  0  0
 11 26  1  0  0  0  0
 11 27  1  0  0  0  0
 12 28  1  0  0  0  0
 12 29  1  0  0  0  0
 13 14  1  0  0  0  0
 14 30  1  0  0  0  0
 14 31  1  0  0  0  0
 14 32  1  0  0  0  0
M  END
> <PUBCHEM_COMPOUND_CID>
539828

> <PUBCHEM_CONFORMER_RMSD>
0.6

> <PUBCHEM_CONFORMER_DIVERSEORDER>
1
14
17
8
10
12
7
15
2
13
11
6
9
5
3
16
4

> <PUBCHEM_MMFF94_PARTIAL_CHARGES>
9
1 -0.23
10 -0.06
12 0.14
13 0.66
14 0.06
2 -0.57
3 0.14
5 -0.28
8 0.14

> <PUBCHEM_EFFECTIVE_ROTOR_COUNT>
3.4

> <PUBCHEM_PHARMACOPHORE_FEATURES>
3
1 2 acceptor
5 3 4 5 7 8 rings
7 3 5 6 9 10 11 12 rings

> <PUBCHEM_HEAVY_ATOM_COUNT>
14

> <PUBCHEM_ATOM_DEF_STEREO_COUNT>
0

> <PUBCHEM_ATOM_UDEF_STEREO_COUNT>
1

> <PUBCHEM_BOND_DEF_STEREO_COUNT>
0

> <PUBCHEM_BOND_UDEF_STEREO_COUNT>
0

> <PUBCHEM_ISOTOPIC_ATOM_COUNT>
0

> <PUBCHEM_COMPONENT_COUNT>
1

> <PUBCHEM_CACTVS_TAUTO_COUNT>
1

> <PUBCHEM_CONFORMER_ID>
00083CB400000001

> <PUBCHEM_MMFF94_ENERGY>
22.5728

> <PUBCHEM_FEATURE_SELFOVERLAP>
15.248

> <PUBCHEM_SHAPE_FINGERPRINT>
1 1 17473266470265087660
11206711 2 18337941359818168119
12138202 78 17908135826227272741
12423570 1 17034424978455971209
12524768 44 17690551305643662659
12716758 59 18340201895431679562
14614273 12 18191586350365692021
14817 1 13813500884384874529
15279308 128 18343019956423366473
15775835 57 17750804246440342156
161256 15 17978227484847924881
16945 1 18337663144431387201
17990270 104 17690553508866933483
19868273 325 18336826484875979295
20645476 183 17968374533465370851
20645477 70 16895944242555783959
20711985 344 18411693292394452899
20871998 22 18050846916479830267
20871999 31 18411135852846993221
22802520 49 18272932695891540422
2334 1 17977938313527151187
23402539 116 18341601586381350711
23419403 2 17201894089879287954
23552423 10 17546728613330501987
23557571 272 18272097127685275596
23559900 14 18200024037885424290
241688 4 18265611168463890257
2748010 2 18122326133263134689
2897 32 17187277968447472689
353137 74 18124033420980364817
7364860 26 17476643547447316865
81228 2 18340779190444007472

> <PUBCHEM_SHAPE_MULTIPOLES>
276.37
4.3
2.84
0.94
3.98
0.32
-0.06
-1.23
-0.97
-2.04
0.11
0.25
0.18
0.18

> <PUBCHEM_SHAPE_SELFOVERLAP>
567.675

> <PUBCHEM_SHAPE_VOLUME>
157.8

> <PUBCHEM_COORDINATE_TYPE>
2
5
10

$$$$
