78232
  -OEChem-08272001083D

 12 12  0     0  0  0  0  0  0999 V2000
    0.0000   -1.6433    0.3663 O   0  0  0  0  0  0  0  0  0  0  0  0
    0.0000    1.0388    0.0808 O   0  0  0  0  0  0  0  0  0  0  0  0
    2.2522    1.0035    0.0205 O   0  0  0  0  0  0  0  0  0  0  0  0
   -2.2523    1.0034    0.0208 O   0  0  0  0  0  0  0  0  0  0  0  0
    1.1512   -1.0929   -0.2246 C   0  0  0  0  0  0  0  0  0  0  0  0
   -1.1512   -1.0928   -0.2252 C   0  0  0  0  0  0  0  0  0  0  0  0
    1.1870    0.3916   -0.0194 C   0  0  0  0  0  0  0  0  0  0  0  0
   -1.1870    0.3916   -0.0193 C   0  0  0  0  0  0  0  0  0  0  0  0
    1.1961   -1.3235   -1.2942 H   0  0  0  0  0  0  0  0  0  0  0  0
    2.0204   -1.5356    0.2708 H   0  0  0  0  0  0  0  0  0  0  0  0
   -2.0207   -1.5359    0.2697 H   0  0  0  0  0  0  0  0  0  0  0  0
   -1.1954   -1.3231   -1.2950 H   0  0  0  0  0  0  0  0  0  0  0  0
  1  5  1  0  0  0  0
  1  6  1  0  0  0  0
  2  7  1  0  0  0  0
  2  8  1  0  0  0  0
  3  7  2  0  0  0  0
  4  8  2  0  0  0  0
  5  7  1  0  0  0  0
  5  9  1  0  0  0  0
  5 10  1  0  0  0  0
  6  8  1  0  0  0  0
  6 11  1  0  0  0  0
  6 12  1  0  0  0  0
M  END
> <PUBCHEM_COMPOUND_CID>
78232

> <PUBCHEM_CONFORMER_RMSD>
0.4

> <PUBCHEM_CONFORMER_DIVERSEORDER>
1

> <PUBCHEM_MMFF94_PARTIAL_CHARGES>
8
1 -0.56
2 -0.3
3 -0.57
4 -0.57
5 0.34
6 0.34
7 0.66
8 0.66

> <PUBCHEM_EFFECTIVE_ROTOR_COUNT>
0.8

> <PUBCHEM_PHARMACOPHORE_FEATURES>
4
1 1 acceptor
1 3 acceptor
1 4 acceptor
6 1 2 5 6 7 8 rings

> <PUBCHEM_HEAVY_ATOM_COUNT>
8

> <PUBCHEM_ATOM_DEF_STEREO_COUNT>
0

> <PUBCHEM_ATOM_UDEF_STEREO_COUNT>
0

> <PUBCHEM_BOND_DEF_STEREO_COUNT>
0

> <PUBCHEM_BOND_UDEF_STEREO_COUNT>
0

> <PUBCHEM_ISOTOPIC_ATOM_COUNT>
0

> <PUBCHEM_COMPONENT_COUNT>
1

> <PUBCHEM_CACTVS_TAUTO_COUNT>
1

> <PUBCHEM_CONFORMER_ID>
0001319800000001

> <PUBCHEM_MMFF94_ENERGY>
17.5576

> <PUBCHEM_FEATURE_SELFOVERLAP>
20.297

> <PUBCHEM_SHAPE_FINGERPRINT>
16714656 1 18050573142300139022
18185500 45 17546164099866313283
20096714 4 18339361864094907135
21040471 1 18410575097621924804
23552423 10 18261395593780982702
29004967 10 17899991438573242585

> <PUBCHEM_SHAPE_MULTIPOLES>
141.16
2.42
1.56
0.59
0
0.38
-0.02
-0.89
-0.06
0
0.06
0
0.06
0

> <PUBCHEM_SHAPE_SELFOVERLAP>
287.42

> <PUBCHEM_SHAPE_VOLUME>
81.2

> <PUBCHEM_COORDINATE_TYPE>
2
5
10

$$$$
