551617
  -OEChem-08272011593D

 38 38  0     1  0  0  0  0  0999 V2000
   -0.0124    2.5267    1.3971 F   0  0  0  0  0  0  0  0  0  0  0  0
   -1.1374    2.0209   -2.1681 O   0  0  0  0  0  0  0  0  0  0  0  0
    2.3862   -1.6496   -1.2428 O   0  0  0  0  0  0  0  0  0  0  0  0
    3.5936   -0.5315    0.9969 O   0  0  0  0  0  0  0  0  0  0  0  0
   -2.6377   -0.1841    0.4382 N   0  0  0  0  0  0  0  0  0  0  0  0
   -1.3404    1.4775   -0.8644 C   0  0  1  0  0  0  0  0  0  0  0  0
   -2.4140    0.3831   -0.9059 C   0  0  0  0  0  0  0  0  0  0  0  0
   -3.6408   -1.2480    0.4195 C   0  0  0  0  0  0  0  0  0  0  0  0
   -0.0179    0.9376   -0.3660 C   0  0  0  0  0  0  0  0  0  0  0  0
   -4.9852   -0.6993   -0.0496 C   0  0  0  0  0  0  0  0  0  0  0  0
   -3.7551   -1.8626    1.8108 C   0  0  0  0  0  0  0  0  0  0  0  0
    0.5766   -0.1153   -1.0399 C   0  0  0  0  0  0  0  0  0  0  0  0
    0.5692    1.5065    0.7510 C   0  0  0  0  0  0  0  0  0  0  0  0
    1.7960   -0.6146   -0.5827 C   0  0  0  0  0  0  0  0  0  0  0  0
    1.7888    1.0072    1.2082 C   0  0  0  0  0  0  0  0  0  0  0  0
    2.4022   -0.0533    0.5412 C   0  0  0  0  0  0  0  0  0  0  0  0
    2.0517   -2.9678   -0.8129 C   0  0  0  0  0  0  0  0  0  0  0  0
    4.7763    0.0664    0.4696 C   0  0  0  0  0  0  0  0  0  0  0  0
   -1.6849    2.3019   -0.2285 H   0  0  0  0  0  0  0  0  0  0  0  0
   -2.1480   -0.4056   -1.6198 H   0  0  0  0  0  0  0  0  0  0  0  0
   -3.3249    0.8521   -1.2944 H   0  0  0  0  0  0  0  0  0  0  0  0
   -3.3195   -2.0429   -0.2651 H   0  0  0  0  0  0  0  0  0  0  0  0
   -2.9256    0.5589    1.0747 H   0  0  0  0  0  0  0  0  0  0  0  0
   -5.7738   -1.4452    0.1037 H   0  0  0  0  0  0  0  0  0  0  0  0
   -5.2757    0.1992    0.5067 H   0  0  0  0  0  0  0  0  0  0  0  0
   -4.9895   -0.4643   -1.1185 H   0  0  0  0  0  0  0  0  0  0  0  0
   -2.7903   -2.2616    2.1438 H   0  0  0  0  0  0  0  0  0  0  0  0
   -4.4733   -2.6897    1.8114 H   0  0  0  0  0  0  0  0  0  0  0  0
   -4.0902   -1.1262    2.5501 H   0  0  0  0  0  0  0  0  0  0  0  0
    0.1217   -0.5515   -1.9246 H   0  0  0  0  0  0  0  0  0  0  0  0
    2.2548    1.4492    2.0846 H   0  0  0  0  0  0  0  0  0  0  0  0
   -1.9928    2.3629   -2.4795 H   0  0  0  0  0  0  0  0  0  0  0  0
    2.3392   -3.1167    0.2327 H   0  0  0  0  0  0  0  0  0  0  0  0
    2.6032   -3.6804   -1.4322 H   0  0  0  0  0  0  0  0  0  0  0  0
    0.9797   -3.1511   -0.9378 H   0  0  0  0  0  0  0  0  0  0  0  0
    5.6407   -0.4264    0.9230 H   0  0  0  0  0  0  0  0  0  0  0  0
    4.8107    1.1319    0.7178 H   0  0  0  0  0  0  0  0  0  0  0  0
    4.8257   -0.0688   -0.6155 H   0  0  0  0  0  0  0  0  0  0  0  0
  1 13  1  0  0  0  0
  2  6  1  0  0  0  0
  2 32  1  0  0  0  0
  3 14  1  0  0  0  0
  3 17  1  0  0  0  0
  4 16  1  0  0  0  0
  4 18  1  0  0  0  0
  5  7  1  0  0  0  0
  5  8  1  0  0  0  0
  5 23  1  0  0  0  0
  6  7  1  0  0  0  0
  6  9  1  0  0  0  0
  6 19  1  0  0  0  0
  7 20  1  0  0  0  0
  7 21  1  0  0  0  0
  8 10  1  0  0  0  0
  8 11  1  0  0  0  0
  8 22  1  0  0  0  0
  9 12  2  0  0  0  0
  9 13  1  0  0  0  0
 10 24  1  0  0  0  0
 10 25  1  0  0  0  0
 10 26  1  0  0  0  0
 11 27  1  0  0  0  0
 11 28  1  0  0  0  0
 11 29  1  0  0  0  0
 12 14  1  0  0  0  0
 12 30  1  0  0  0  0
 13 15  2  0  0  0  0
 14 16  2  0  0  0  0
 15 16  1  0  0  0  0
 15 31  1  0  0  0  0
 17 33  1  0  0  0  0
 17 34  1  0  0  0  0
 17 35  1  0  0  0  0
 18 36  1  0  0  0  0
 18 37  1  0  0  0  0
 18 38  1  0  0  0  0
M  END
> <PUBCHEM_COMPOUND_CID>
551617

> <PUBCHEM_CONFORMER_RMSD>
0.8

> <PUBCHEM_CONFORMER_DIVERSEORDER>
3
10
41
13
37
17
40
38
27
18
15
9
22
19
24
32
14
30
20
34
35
31
12
6
39
11
2
25
23
21
28
8
26
4
7
16
36
33
5
29
1

> <PUBCHEM_MMFF94_PARTIAL_CHARGES>
20
1 -0.19
12 -0.15
13 0.19
14 0.08
15 -0.15
16 0.08
17 0.28
18 0.28
2 -0.68
23 0.36
3 -0.36
30 0.15
31 0.15
32 0.4
4 -0.36
5 -0.9
6 0.42
7 0.27
8 0.27
9 -0.14

> <PUBCHEM_EFFECTIVE_ROTOR_COUNT>
6

> <PUBCHEM_PHARMACOPHORE_FEATURES>
8
1 2 acceptor
1 2 donor
1 3 acceptor
1 4 acceptor
1 5 cation
1 5 donor
3 8 10 11 hydrophobe
6 9 12 13 14 15 16 rings

> <PUBCHEM_HEAVY_ATOM_COUNT>
18

> <PUBCHEM_ATOM_DEF_STEREO_COUNT>
0

> <PUBCHEM_ATOM_UDEF_STEREO_COUNT>
1

> <PUBCHEM_BOND_DEF_STEREO_COUNT>
0

> <PUBCHEM_BOND_UDEF_STEREO_COUNT>
0

> <PUBCHEM_ISOTOPIC_ATOM_COUNT>
0

> <PUBCHEM_COMPONENT_COUNT>
1

> <PUBCHEM_CACTVS_TAUTO_COUNT>
1

> <PUBCHEM_CONFORMER_ID>
00086AC100000003

> <PUBCHEM_MMFF94_ENERGY>
54.2153

> <PUBCHEM_FEATURE_SELFOVERLAP>
40.599

> <PUBCHEM_SHAPE_FINGERPRINT>
11471102 22 17988639696643449481
12202030 40 18265333915139429023
12251169 10 17704070733156997039
12363563 72 17677053555062068219
12596602 18 16199861873425488651
12633257 1 18130231574575134283
13140716 1 17773012362966051290
13583140 156 17681510906650582576
14115302 16 15574714724689841979
14252887 29 17703798006881144214
14386348 63 18407760343945226139
15422964 175 18272089348924327156
16752209 62 16806143524837514245
16945 1 17630579294594936332
192875 21 14201400469413311110
20645477 70 18338512062451406543
21061003 4 18059563715594455264
21069387 34 15719396088429553338
22224240 67 17988070209908306314
231179 274 10015591583716898195
23402539 116 17167854253723990492
23526113 38 18052230952468905565
23557571 272 18113613456653060612
23559900 14 18190738622980320950
23598291 2 13841917273168810965
2748010 2 17271715080325837044
568465 68 18342176699803590299
57100710 210 17604131663148337282
81228 2 18114465544390397925

> <PUBCHEM_SHAPE_MULTIPOLES>
340.57
7.79
2.42
1.58
3.68
0.58
-0.05
4.22
2.32
-0.13
-0.29
0.3
-0.23
1.82

> <PUBCHEM_SHAPE_SELFOVERLAP>
688.474

> <PUBCHEM_SHAPE_VOLUME>
202.6

> <PUBCHEM_COORDINATE_TYPE>
2
5
10

$$$$
