5380833
  -OEChem-08272013093D

 19 19  0     0  0  0  0  0  0999 V2000
   -3.8622   -0.7930    0.0157 O   0  5  0  0  0  0  0  0  0  0  0  0
   -2.9298    1.2022   -0.0119 O   0  0  0  0  0  0  0  0  0  0  0  0
    1.8465    0.7284    0.0027 N   0  0  0  0  0  0  0  0  0  0  0  0
   -2.8789   -0.0370    0.0014 N   0  3  0  0  0  0  0  0  0  0  0  0
    0.8556   -0.2182   -0.0048 C   0  0  0  0  0  0  0  0  0  0  0  0
    3.0705    0.1119    0.0065 C   0  0  0  0  0  0  0  0  0  0  0  0
    1.4563   -1.4578   -0.0066 C   0  0  0  0  0  0  0  0  0  0  0  0
    2.8576   -1.2489    0.0003 C   0  0  0  0  0  0  0  0  0  0  0  0
    1.6700    2.1660    0.0070 C   0  0  0  0  0  0  0  0  0  0  0  0
   -0.4919    0.1840   -0.0095 C   0  0  0  0  0  0  0  0  0  0  0  0
   -1.5936   -0.6377   -0.0007 C   0  0  0  0  0  0  0  0  0  0  0  0
    3.9898    0.6822    0.0129 H   0  0  0  0  0  0  0  0  0  0  0  0
    0.9506   -2.4139   -0.0125 H   0  0  0  0  0  0  0  0  0  0  0  0
    3.6281   -2.0069    0.0010 H   0  0  0  0  0  0  0  0  0  0  0  0
    2.6498    2.6517    0.0170 H   0  0  0  0  0  0  0  0  0  0  0  0
    1.1344    2.4575   -0.9002 H   0  0  0  0  0  0  0  0  0  0  0  0
    1.1195    2.4506    0.9074 H   0  0  0  0  0  0  0  0  0  0  0  0
   -0.6660    1.2563   -0.0187 H   0  0  0  0  0  0  0  0  0  0  0  0
   -1.6047   -1.7181    0.0101 H   0  0  0  0  0  0  0  0  0  0  0  0
  1  4  1  0  0  0  0
  2  4  2  0  0  0  0
  3  5  1  0  0  0  0
  3  6  1  0  0  0  0
  3  9  1  0  0  0  0
  4 11  1  0  0  0  0
  5  7  2  0  0  0  0
  5 10  1  0  0  0  0
  6  8  2  0  0  0  0
  6 12  1  0  0  0  0
  7  8  1  0  0  0  0
  7 13  1  0  0  0  0
  8 14  1  0  0  0  0
  9 15  1  0  0  0  0
  9 16  1  0  0  0  0
  9 17  1  0  0  0  0
 10 11  2  0  0  0  0
 10 18  1  0  0  0  0
 11 19  1  0  0  0  0
M  CHG  2   1  -1   4   1
M  END
> <PUBCHEM_COMPOUND_CID>
5380833

> <PUBCHEM_CONFORMER_RMSD>
0.4

> <PUBCHEM_CONFORMER_DIVERSEORDER>
1
4
5
7
2
6
3
8

> <PUBCHEM_MMFF94_PARTIAL_CHARGES>
16
1 -0.52
10 -0.11
11 0.05
12 0.15
13 0.15
14 0.15
18 0.15
19 0.15
2 -0.52
3 0.05
4 0.84
5 -0.2
6 -0.3
7 -0.15
8 -0.15
9 0.26

> <PUBCHEM_EFFECTIVE_ROTOR_COUNT>
2

> <PUBCHEM_PHARMACOPHORE_FEATURES>
5
1 1 acceptor
1 1 anion
1 2 acceptor
1 3 cation
5 3 5 6 7 8 rings

> <PUBCHEM_HEAVY_ATOM_COUNT>
11

> <PUBCHEM_ATOM_DEF_STEREO_COUNT>
0

> <PUBCHEM_ATOM_UDEF_STEREO_COUNT>
0

> <PUBCHEM_BOND_DEF_STEREO_COUNT>
1

> <PUBCHEM_BOND_UDEF_STEREO_COUNT>
0

> <PUBCHEM_ISOTOPIC_ATOM_COUNT>
0

> <PUBCHEM_COMPONENT_COUNT>
1

> <PUBCHEM_CACTVS_TAUTO_COUNT>
2

> <PUBCHEM_CONFORMER_ID>
00521AE100000001

> <PUBCHEM_MMFF94_ENERGY>
22.7119

> <PUBCHEM_FEATURE_SELFOVERLAP>
25.451

> <PUBCHEM_SHAPE_FINGERPRINT>
10219947 1 18343584014831998846
10608611 8 18408037420701326461
12032990 46 18340491045800187470
12932764 1 17561074834954174275
14144814 61 18412263908906597979
14325111 11 18410575080589748647
15477762 27 18412544314436679262
15501101 241 18259985976565746548
19973954 147 18410294705193529873
20201158 50 18335421257328627923
20645477 70 18411413986809211135
20871998 22 18127131862523750190
23402655 69 18412257320732786213
3248919 1 17385450933502706683
7364860 26 18271807973117168056

> <PUBCHEM_SHAPE_MULTIPOLES>
204.67
5.73
1.66
0.58
4.78
0.68
0
-0.62
-0.02
-0.91
0
-0.08
-0.01
0.01

> <PUBCHEM_SHAPE_SELFOVERLAP>
422.484

> <PUBCHEM_SHAPE_VOLUME>
119.6

> <PUBCHEM_COORDINATE_TYPE>
2
5
10

$$$$
