606599
  -OEChem-08272012023D

 32 34  0     0  0  0  0  0  0999 V2000
    1.4334   -0.6595    1.2384 N   0  0  0  0  0  0  0  0  0  0  0  0
    1.4343   -0.6596   -1.2378 N   0  0  0  0  0  0  0  0  0  0  0  0
   -2.0051    1.1319    0.0005 N   0  0  0  0  0  0  0  0  0  0  0  0
   -3.0173    0.2458    0.0002 N   0  0  0  0  0  0  0  0  0  0  0  0
    0.4968    1.2965   -0.0001 C   0  0  0  0  0  0  0  0  0  0  0  0
   -0.7079   -0.9661   -0.0003 C   0  0  0  0  0  0  0  0  0  0  0  0
    1.2515    0.8089    1.2586 C   0  0  0  0  0  0  0  0  0  0  0  0
    0.1122   -1.3251    1.2584 C   0  0  0  0  0  0  0  0  0  0  0  0
    1.2524    0.8088   -1.2583 C   0  0  0  0  0  0  0  0  0  0  0  0
    0.1129   -1.3250   -1.2587 C   0  0  0  0  0  0  0  0  0  0  0  0
   -0.8472    0.5590   -0.0002 C   0  0  0  0  0  0  0  0  0  0  0  0
    2.1494   -1.0416    0.0007 C   0  0  0  0  0  0  0  0  0  0  0  0
    0.3856    2.8192   -0.0006 C   0  0  0  0  0  0  0  0  0  0  0  0
   -2.0510   -1.6932   -0.0008 C   0  0  0  0  0  0  0  0  0  0  0  0
    2.2364    1.2896    1.3258 H   0  0  0  0  0  0  0  0  0  0  0  0
    0.7116    1.0950    2.1710 H   0  0  0  0  0  0  0  0  0  0  0  0
   -0.4262   -1.0352    2.1705 H   0  0  0  0  0  0  0  0  0  0  0  0
    0.2600   -2.4108    1.3255 H   0  0  0  0  0  0  0  0  0  0  0  0
    0.7130    1.0948   -2.1711 H   0  0  0  0  0  0  0  0  0  0  0  0
    2.2372    1.2896   -1.3248 H   0  0  0  0  0  0  0  0  0  0  0  0
    0.2608   -2.4108   -1.3258 H   0  0  0  0  0  0  0  0  0  0  0  0
   -0.4249   -1.0349   -2.1711 H   0  0  0  0  0  0  0  0  0  0  0  0
    3.1504   -0.5900    0.0009 H   0  0  0  0  0  0  0  0  0  0  0  0
    2.3310   -2.1246    0.0008 H   0  0  0  0  0  0  0  0  0  0  0  0
    1.3738    3.2917   -0.0006 H   0  0  0  0  0  0  0  0  0  0  0  0
   -0.1583    3.1741   -0.8832 H   0  0  0  0  0  0  0  0  0  0  0  0
   -0.1587    3.1746    0.8814 H   0  0  0  0  0  0  0  0  0  0  0  0
   -2.6246   -1.6447    0.9366 H   0  0  0  0  0  0  0  0  0  0  0  0
   -2.6243   -1.6438   -0.9383 H   0  0  0  0  0  0  0  0  0  0  0  0
   -1.7954   -2.7683   -0.0013 H   0  0  0  0  0  0  0  0  0  0  0  0
   -3.6181    0.4595   -0.7983 H   0  0  0  0  0  0  0  0  0  0  0  0
   -3.6184    0.4593    0.7985 H   0  0  0  0  0  0  0  0  0  0  0  0
  1  7  1  0  0  0  0
  1  8  1  0  0  0  0
  1 12  1  0  0  0  0
  2  9  1  0  0  0  0
  2 10  1  0  0  0  0
  2 12  1  0  0  0  0
  3  4  1  0  0  0  0
  3 11  2  0  0  0  0
  4 31  1  0  0  0  0
  4 32  1  0  0  0  0
  5  7  1  0  0  0  0
  5  9  1  0  0  0  0
  5 11  1  0  0  0  0
  5 13  1  0  0  0  0
  6  8  1  0  0  0  0
  6 10  1  0  0  0  0
  6 11  1  0  0  0  0
  6 14  1  0  0  0  0
  7 15  1  0  0  0  0
  7 16  1  0  0  0  0
  8 17  1  0  0  0  0
  8 18  1  0  0  0  0
  9 19  1  0  0  0  0
  9 20  1  0  0  0  0
 10 21  1  0  0  0  0
 10 22  1  0  0  0  0
 12 23  1  0  0  0  0
 12 24  1  0  0  0  0
 13 25  1  0  0  0  0
 13 26  1  0  0  0  0
 13 27  1  0  0  0  0
 14 28  1  0  0  0  0
 14 29  1  0  0  0  0
 14 30  1  0  0  0  0
M  END
> <PUBCHEM_COMPOUND_CID>
606599

> <PUBCHEM_CONFORMER_RMSD>
0.4

> <PUBCHEM_CONFORMER_DIVERSEORDER>
1

> <PUBCHEM_MMFF94_PARTIAL_CHARGES>
14
1 -0.81
10 0.27
11 0.33
12 0.54
2 -0.81
3 -0.5
31 0.36
32 0.36
4 -0.67
5 0.06
6 0.06
7 0.27
8 0.27
9 0.27

> <PUBCHEM_EFFECTIVE_ROTOR_COUNT>
1

> <PUBCHEM_PHARMACOPHORE_FEATURES>
7
1 1 cation
1 2 cation
1 3 acceptor
6 1 2 5 7 9 12 rings
6 1 2 6 8 10 12 rings
6 1 5 6 7 8 11 rings
6 2 5 6 9 10 11 rings

> <PUBCHEM_HEAVY_ATOM_COUNT>
14

> <PUBCHEM_ATOM_DEF_STEREO_COUNT>
0

> <PUBCHEM_ATOM_UDEF_STEREO_COUNT>
0

> <PUBCHEM_BOND_DEF_STEREO_COUNT>
0

> <PUBCHEM_BOND_UDEF_STEREO_COUNT>
0

> <PUBCHEM_ISOTOPIC_ATOM_COUNT>
0

> <PUBCHEM_COMPONENT_COUNT>
1

> <PUBCHEM_CACTVS_TAUTO_COUNT>
1

> <PUBCHEM_CONFORMER_ID>
0009418700000001

> <PUBCHEM_MMFF94_ENERGY>
87.8266

> <PUBCHEM_FEATURE_SELFOVERLAP>
48.871

> <PUBCHEM_SHAPE_FINGERPRINT>
12423570 1 15736297471675461722
13024252 1 17170144502443813526
137420 1 15153676211524516138
141345 1 15400404589067117834
144361 1 18126586727466392349
14817 1 12151852465272181806
15557651 10 17557956499571102370
16945 1 18194682558056129954
20511035 2 18201146767140843259
23419403 2 16695526942117738474
23559900 14 18126283039905952526
241688 4 18339930307290427209
2748010 2 18342172284487415741
5084963 1 18408324367444928851
528886 8 18200330839234246517
54276843 12 17824547361559310482
68250623 7 18265898145093370034

> <PUBCHEM_SHAPE_MULTIPOLES>
268.19
2.66
2.21
1.26
1.74
1.05
0
-0.02
0
-0.31
0
-0.51
-0.36
0

> <PUBCHEM_SHAPE_SELFOVERLAP>
585.223

> <PUBCHEM_SHAPE_VOLUME>
137.6

> <PUBCHEM_COORDINATE_TYPE>
2
5
10

$$$$
