69322
  -OEChem-08272003323D

 17 17  0     0  0  0  0  0  0999 V2000
    1.2069   -0.0001   -0.8621 O   0  0  0  0  0  0  0  0  0  0  0  0
    1.8321    0.0007    1.3827 O   0  0  0  0  0  0  0  0  0  0  0  0
    3.4271   -0.0002   -0.2733 N   0  0  0  0  0  0  0  0  0  0  0  0
   -0.0971    0.0000   -0.4730 C   0  0  0  0  0  0  0  0  0  0  0  0
   -0.7656    1.2079   -0.2735 C   0  0  0  0  0  0  0  0  0  0  0  0
   -0.7652   -1.2081   -0.2730 C   0  0  0  0  0  0  0  0  0  0  0  0
   -2.1019    1.2080    0.1261 C   0  0  0  0  0  0  0  0  0  0  0  0
   -2.1017   -1.2081    0.1265 C   0  0  0  0  0  0  0  0  0  0  0  0
   -2.7700    0.0000    0.3260 C   0  0  0  0  0  0  0  0  0  0  0  0
    2.1353   -0.0001    0.1936 C   0  0  0  0  0  0  0  0  0  0  0  0
   -0.2512    2.1526   -0.4279 H   0  0  0  0  0  0  0  0  0  0  0  0
   -0.2507   -2.1528   -0.4270 H   0  0  0  0  0  0  0  0  0  0  0  0
   -2.6224    2.1485    0.2814 H   0  0  0  0  0  0  0  0  0  0  0  0
   -2.6220   -2.1486    0.2822 H   0  0  0  0  0  0  0  0  0  0  0  0
   -3.8105   -0.0001    0.6370 H   0  0  0  0  0  0  0  0  0  0  0  0
    3.6294   -0.0005   -1.2674 H   0  0  0  0  0  0  0  0  0  0  0  0
    4.2183    0.0001    0.3615 H   0  0  0  0  0  0  0  0  0  0  0  0
  1  4  1  0  0  0  0
  1 10  1  0  0  0  0
  2 10  2  0  0  0  0
  3 10  1  0  0  0  0
  3 16  1  0  0  0  0
  3 17  1  0  0  0  0
  4  5  2  0  0  0  0
  4  6  1  0  0  0  0
  5  7  1  0  0  0  0
  5 11  1  0  0  0  0
  6  8  2  0  0  0  0
  6 12  1  0  0  0  0
  7  9  2  0  0  0  0
  7 13  1  0  0  0  0
  8  9  1  0  0  0  0
  8 14  1  0  0  0  0
  9 15  1  0  0  0  0
M  END
> <PUBCHEM_COMPOUND_CID>
69322

> <PUBCHEM_CONFORMER_RMSD>
0.4

> <PUBCHEM_CONFORMER_DIVERSEORDER>
1
18
10
11
13
2
17
3
12
14
16
15
6
7
8
9
4
5

> <PUBCHEM_MMFF94_PARTIAL_CHARGES>
17
1 -0.23
10 0.78
11 0.15
12 0.15
13 0.15
14 0.15
15 0.15
16 0.37
17 0.37
2 -0.57
3 -0.8
4 0.08
5 -0.15
6 -0.15
7 -0.15
8 -0.15
9 -0.15

> <PUBCHEM_EFFECTIVE_ROTOR_COUNT>
2

> <PUBCHEM_PHARMACOPHORE_FEATURES>
3
1 2 acceptor
1 3 donor
6 4 5 6 7 8 9 rings

> <PUBCHEM_HEAVY_ATOM_COUNT>
10

> <PUBCHEM_ATOM_DEF_STEREO_COUNT>
0

> <PUBCHEM_ATOM_UDEF_STEREO_COUNT>
0

> <PUBCHEM_BOND_DEF_STEREO_COUNT>
0

> <PUBCHEM_BOND_UDEF_STEREO_COUNT>
0

> <PUBCHEM_ISOTOPIC_ATOM_COUNT>
0

> <PUBCHEM_COMPONENT_COUNT>
1

> <PUBCHEM_CACTVS_TAUTO_COUNT>
2

> <PUBCHEM_CONFORMER_ID>
00010ECA00000001

> <PUBCHEM_MMFF94_ENERGY>
29.0123

> <PUBCHEM_FEATURE_SELFOVERLAP>
15.223

> <PUBCHEM_SHAPE_FINGERPRINT>
10857977 72 18342173405721812793
11062470 55 15791449327075101005
12932764 1 17603299349820284244
13024252 1 14923943440473927669
14325111 11 18340208501012252964
16945 1 18410573985541782863
20645464 45 17918276441381209854
20653085 51 15195564598023528881
20871998 184 18200038463878965263
21040471 1 18266468598613068509
23235685 24 18342175518745703477
23552423 10 17753054074837476365
2748010 2 18049175367143213749
29004967 10 16702311143303149350
369184 2 18411693288199523715
5084963 1 17989209265099172003

> <PUBCHEM_SHAPE_MULTIPOLES>
189.08
4.32
1.22
0.86
2.44
0
-0.15
0
-0.49
-0.86
0.05
0.31
0
0

> <PUBCHEM_SHAPE_SELFOVERLAP>
392.685

> <PUBCHEM_SHAPE_VOLUME>
105.8

> <PUBCHEM_COORDINATE_TYPE>
2
5
10

$$$$
