520295
  -OEChem-08272012293D

 37 37  0     1  0  0  0  0  0999 V2000
    3.3748    1.8419    0.1743 O   0  0  0  0  0  0  0  0  0  0  0  0
   -3.8715   -0.6381   -0.7180 O   0  0  0  0  0  0  0  0  0  0  0  0
    0.7742   -1.4273    0.0209 C   0  0  0  0  0  0  0  0  0  0  0  0
    0.3308    0.0088   -0.3140 C   0  0  0  0  0  0  0  0  0  0  0  0
    2.0367   -1.4069    0.9111 C   0  0  0  0  0  0  0  0  0  0  0  0
    3.1241   -0.5139    0.3520 C   0  0  0  0  0  0  0  0  0  0  0  0
   -1.1001    0.1566   -0.7876 C   0  0  0  0  0  0  0  0  0  0  0  0
    1.1560    1.0779   -0.2188 C   0  0  0  0  0  0  0  0  0  0  0  0
   -0.3086   -2.1953    0.8129 C   0  0  0  0  0  0  0  0  0  0  0  0
    1.0622   -2.1964   -1.2852 C   0  0  0  0  0  0  0  0  0  0  0  0
    2.6043    0.8820    0.1299 C   0  0  0  0  0  0  0  0  0  0  0  0
   -2.0316    0.4691    0.3768 C   0  0  0  0  0  0  0  0  0  0  0  0
   -3.4865    0.5814   -0.0899 C   0  0  2  0  0  0  0  0  0  0  0  0
    0.7578    2.5118   -0.4456 C   0  0  0  0  0  0  0  0  0  0  0  0
   -4.4225    0.8485    1.0812 C   0  0  0  0  0  0  0  0  0  0  0  0
    2.4327   -2.4219    1.0430 H   0  0  0  0  0  0  0  0  0  0  0  0
    1.7729   -1.0460    1.9156 H   0  0  0  0  0  0  0  0  0  0  0  0
   -1.4169   -0.7478   -1.3179 H   0  0  0  0  0  0  0  0  0  0  0  0
   -1.1749    0.9436   -1.5480 H   0  0  0  0  0  0  0  0  0  0  0  0
    3.5225   -0.8949   -0.5933 H   0  0  0  0  0  0  0  0  0  0  0  0
    3.9493   -0.4645    1.0715 H   0  0  0  0  0  0  0  0  0  0  0  0
    0.0458   -3.2063    1.0521 H   0  0  0  0  0  0  0  0  0  0  0  0
   -0.5295   -1.7122    1.7706 H   0  0  0  0  0  0  0  0  0  0  0  0
   -1.2392   -2.3276    0.2526 H   0  0  0  0  0  0  0  0  0  0  0  0
    1.7716   -1.6627   -1.9269 H   0  0  0  0  0  0  0  0  0  0  0  0
    1.4834   -3.1863   -1.0748 H   0  0  0  0  0  0  0  0  0  0  0  0
    0.1500   -2.3518   -1.8722 H   0  0  0  0  0  0  0  0  0  0  0  0
   -1.7382    1.4098    0.8586 H   0  0  0  0  0  0  0  0  0  0  0  0
   -1.9799   -0.2999    1.1496 H   0  0  0  0  0  0  0  0  0  0  0  0
   -3.5861    1.3829   -0.8297 H   0  0  0  0  0  0  0  0  0  0  0  0
   -0.3137    2.6610   -0.5913 H   0  0  0  0  0  0  0  0  0  0  0  0
    1.2688    2.9080   -1.3296 H   0  0  0  0  0  0  0  0  0  0  0  0
    1.0409    3.1229    0.4188 H   0  0  0  0  0  0  0  0  0  0  0  0
   -5.4599    0.9011    0.7338 H   0  0  0  0  0  0  0  0  0  0  0  0
   -4.1738    1.7891    1.5818 H   0  0  0  0  0  0  0  0  0  0  0  0
   -4.3789    0.0370    1.8161 H   0  0  0  0  0  0  0  0  0  0  0  0
   -3.7787   -1.3535   -0.0659 H   0  0  0  0  0  0  0  0  0  0  0  0
  1 11  2  0  0  0  0
  2 13  1  0  0  0  0
  2 37  1  0  0  0  0
  3  4  1  0  0  0  0
  3  5  1  0  0  0  0
  3  9  1  0  0  0  0
  3 10  1  0  0  0  0
  4  7  1  0  0  0  0
  4  8  2  0  0  0  0
  5  6  1  0  0  0  0
  5 16  1  0  0  0  0
  5 17  1  0  0  0  0
  6 11  1  0  0  0  0
  6 20  1  0  0  0  0
  6 21  1  0  0  0  0
  7 12  1  0  0  0  0
  7 18  1  0  0  0  0
  7 19  1  0  0  0  0
  8 11  1  0  0  0  0
  8 14  1  0  0  0  0
  9 22  1  0  0  0  0
  9 23  1  0  0  0  0
  9 24  1  0  0  0  0
 10 25  1  0  0  0  0
 10 26  1  0  0  0  0
 10 27  1  0  0  0  0
 12 13  1  0  0  0  0
 12 28  1  0  0  0  0
 12 29  1  0  0  0  0
 13 15  1  0  0  0  0
 13 30  1  0  0  0  0
 14 31  1  0  0  0  0
 14 32  1  0  0  0  0
 14 33  1  0  0  0  0
 15 34  1  0  0  0  0
 15 35  1  0  0  0  0
 15 36  1  0  0  0  0
M  END
> <PUBCHEM_COMPOUND_CID>
520295

> <PUBCHEM_CONFORMER_RMSD>
0.6

> <PUBCHEM_CONFORMER_DIVERSEORDER>
2
16
7
14
13
15
1
9
6
10
5
12
3
8
4
11

> <PUBCHEM_MMFF94_PARTIAL_CHARGES>
11
1 -0.57
11 0.49
13 0.28
14 0.14
2 -0.68
3 0.14
37 0.4
4 -0.28
6 0.06
7 0.14
8 -0.12

> <PUBCHEM_EFFECTIVE_ROTOR_COUNT>
3.6

> <PUBCHEM_PHARMACOPHORE_FEATURES>
5
1 1 acceptor
1 2 acceptor
1 2 donor
3 3 9 10 hydrophobe
6 3 4 5 6 8 11 rings

> <PUBCHEM_HEAVY_ATOM_COUNT>
15

> <PUBCHEM_ATOM_DEF_STEREO_COUNT>
0

> <PUBCHEM_ATOM_UDEF_STEREO_COUNT>
1

> <PUBCHEM_BOND_DEF_STEREO_COUNT>
0

> <PUBCHEM_BOND_UDEF_STEREO_COUNT>
0

> <PUBCHEM_ISOTOPIC_ATOM_COUNT>
0

> <PUBCHEM_COMPONENT_COUNT>
1

> <PUBCHEM_CACTVS_TAUTO_COUNT>
5

> <PUBCHEM_CONFORMER_ID>
0007F06700000002

> <PUBCHEM_MMFF94_ENERGY>
29.0775

> <PUBCHEM_FEATURE_SELFOVERLAP>
25.371

> <PUBCHEM_SHAPE_FINGERPRINT>
10219947 1 18334573533842403053
10465860 228 18130235839366596761
10980938 120 18410290306867255629
11067466 332 17968672505406268918
11132069 177 18339630192160868106
11471102 22 18260833648380274049
12346645 6 18341895164713142220
12390115 104 17832441052384476916
12423570 1 10911207014001673286
13140716 1 18263351646763133136
13380535 76 18337670922533010895
14251717 144 18335975415837194775
15219456 202 17968648329251826045
15501101 241 18114180809032135381
15502708 68 18335416846491965483
15775835 57 18272933851343458969
161256 15 18196096529988286268
16945 1 18262501603773379250
18186145 218 18411700976143653861
20279233 1 17530685386325253395
20511035 2 18192997243038223278
20645477 70 18338507535608403599
20871998 22 18052540967434784758
21501502 16 18263922301123479162
21503847 285 18055652632870731529
21524375 3 18266737072307185669
23557571 272 16371001842068007647
23558518 356 17686900926954946244
2748010 2 18044079164644201062
276578 36 18410014359766675480
3060560 45 18273217469561526942
474 4 18410577322705400929
633830 44 18272940431185942493
7364860 26 18129668495487519463
77492 1 17988350521048801165
81539 233 18335139799510492740
9999458 23 17458069270223789734

> <PUBCHEM_SHAPE_MULTIPOLES>
296.95
6.19
2.41
1.02
6.86
0.04
0.05
1.65
-1.34
-1.58
0.17
0.21
-0.35
-0.23

> <PUBCHEM_SHAPE_SELFOVERLAP>
591.072

> <PUBCHEM_SHAPE_VOLUME>
176.3

> <PUBCHEM_COORDINATE_TYPE>
2
5
10

$$$$
