572997
  -OEChem-08272005583D

 21 22  0     1  0  0  0  0  0999 V2000
    0.7866   -0.9132    0.8864 O   0  0  0  0  0  0  0  0  0  0  0  0
   -0.7932    2.0933    1.1530 O   0  0  0  0  0  0  0  0  0  0  0  0
   -3.3564   -1.3489   -0.4722 O   0  0  0  0  0  0  0  0  0  0  0  0
   -1.2411   -0.5432   -1.0669 N   0  0  0  0  0  0  0  0  0  0  0  0
   -2.3473    0.4629    0.5847 N   0  0  0  0  0  0  0  0  0  0  0  0
   -0.3577    0.5234   -0.6600 C   0  0  2  0  0  0  0  0  0  0  0  0
    0.8992   -0.0330   -0.1439 C   0  0  0  0  0  0  0  0  0  0  0  0
   -1.1588    1.1458    0.4712 C   0  0  0  0  0  0  0  0  0  0  0  0
    2.2224    0.1439   -0.4821 C   0  0  0  0  0  0  0  0  0  0  0  0
   -2.4282   -0.5648   -0.3302 C   0  0  0  0  0  0  0  0  0  0  0  0
    2.9674   -0.6794    0.3955 C   0  0  0  0  0  0  0  0  0  0  0  0
    2.7588    1.0146   -1.5437 C   0  0  0  0  0  0  0  0  0  0  0  0
    2.0484   -1.3014    1.2083 C   0  0  0  0  0  0  0  0  0  0  0  0
   -0.2390    1.2282   -1.4861 H   0  0  0  0  0  0  0  0  0  0  0  0
   -1.0409   -1.1905   -1.8232 H   0  0  0  0  0  0  0  0  0  0  0  0
   -3.0689    0.6816    1.2619 H   0  0  0  0  0  0  0  0  0  0  0  0
    4.0398   -0.8068    0.4347 H   0  0  0  0  0  0  0  0  0  0  0  0
    3.8514    0.9615   -1.5906 H   0  0  0  0  0  0  0  0  0  0  0  0
    2.3661    0.7175   -2.5216 H   0  0  0  0  0  0  0  0  0  0  0  0
    2.4810    2.0583   -1.3638 H   0  0  0  0  0  0  0  0  0  0  0  0
    2.1266   -2.0095    2.0201 H   0  0  0  0  0  0  0  0  0  0  0  0
  1  7  1  0  0  0  0
  1 13  1  0  0  0  0
  2  8  2  0  0  0  0
  3 10  2  0  0  0  0
  4  6  1  0  0  0  0
  4 10  1  0  0  0  0
  4 15  1  0  0  0  0
  5  8  1  0  0  0  0
  5 10  1  0  0  0  0
  5 16  1  0  0  0  0
  6  7  1  0  0  0  0
  6  8  1  0  0  0  0
  6 14  1  0  0  0  0
  7  9  2  0  0  0  0
  9 11  1  0  0  0  0
  9 12  1  0  0  0  0
 11 13  2  0  0  0  0
 11 17  1  0  0  0  0
 12 18  1  0  0  0  0
 12 19  1  0  0  0  0
 12 20  1  0  0  0  0
 13 21  1  0  0  0  0
M  END
> <PUBCHEM_COMPOUND_CID>
572997

> <PUBCHEM_CONFORMER_RMSD>
0.6

> <PUBCHEM_CONFORMER_DIVERSEORDER>
2
8
12
11
9
3
6
5
1
10
7
4

> <PUBCHEM_MMFF94_PARTIAL_CHARGES>
17
1 -0.28
10 0.69
11 -0.15
12 0.18
13 -0.01
15 0.37
16 0.37
17 0.15
2 -0.57
21 0.15
3 -0.57
4 -0.73
5 -0.49
6 0.54
7 -0.04
8 0.57
9 -0.18

> <PUBCHEM_EFFECTIVE_ROTOR_COUNT>
1.6

> <PUBCHEM_PHARMACOPHORE_FEATURES>
7
1 1 acceptor
1 2 acceptor
1 3 acceptor
1 4 donor
1 5 donor
5 1 7 9 11 13 rings
5 4 5 6 8 10 rings

> <PUBCHEM_HEAVY_ATOM_COUNT>
13

> <PUBCHEM_ATOM_DEF_STEREO_COUNT>
0

> <PUBCHEM_ATOM_UDEF_STEREO_COUNT>
1

> <PUBCHEM_BOND_DEF_STEREO_COUNT>
0

> <PUBCHEM_BOND_UDEF_STEREO_COUNT>
0

> <PUBCHEM_ISOTOPIC_ATOM_COUNT>
0

> <PUBCHEM_COMPONENT_COUNT>
1

> <PUBCHEM_CACTVS_TAUTO_COUNT>
8

> <PUBCHEM_CONFORMER_ID>
0008BE4500000002

> <PUBCHEM_MMFF94_ENERGY>
14.1996

> <PUBCHEM_FEATURE_SELFOVERLAP>
35.592

> <PUBCHEM_SHAPE_FINGERPRINT>
10857977 72 17632853140122064237
12423570 1 11124218910269557961
12897270 3 16877938338947287679
13380536 127 18272933791240134640
13538477 17 18340489950156116129
15375462 189 18336270136609312003
16945 1 17968662738487048845
17844478 74 16272212985164071082
19422 9 18410581677464518534
20201158 50 16153422822762373194
20645464 45 16128363844674384214
20715346 28 16128654145777135621
21922407 69 18262525783974947800
22802520 49 16557641711515693412
228727 97 18338250356729144004
23552423 10 18188490164171124218
25610 171 17416952959334813617
369184 2 17676490497328132845
5084963 1 18187077326410618470
77492 1 18335708225573577004
81228 2 17845937312638293873

> <PUBCHEM_SHAPE_MULTIPOLES>
239.96
4.67
1.5
1.23
0.56
0.06
-0.12
-0.96
0.92
-0.43
-0.28
0.13
0.32
-1.24

> <PUBCHEM_SHAPE_SELFOVERLAP>
520.54

> <PUBCHEM_SHAPE_VOLUME>
134

> <PUBCHEM_COORDINATE_TYPE>
2
5
10

$$$$
