544210
  -OEChem-08272004063D

 27 27  0     1  0  0  0  0  0999 V2000
   -0.4219    0.3794   -0.6715 N   0  0  2  0  0  0  0  0  0  0  0  0
    0.6627    0.0570    0.2110 C   0  0  2  0  0  0  0  0  0  0  0  0
    0.5076    1.4378   -0.2981 C   0  0  2  0  0  0  0  0  0  0  0  0
    1.8465   -0.7670   -0.2903 C   0  0  0  0  0  0  0  0  0  0  0  0
    0.0262    2.4781    0.6421 C   0  0  0  0  0  0  0  0  0  0  0  0
   -1.7095    0.5553   -0.0204 C   0  0  0  0  0  0  0  0  0  0  0  0
    3.1640   -0.0667    0.0343 C   0  0  0  0  0  0  0  0  0  0  0  0
    1.8200   -2.1686    0.3154 C   0  0  0  0  0  0  0  0  0  0  0  0
   -2.6715   -0.5285   -0.3985 C   0  0  0  0  0  0  0  0  0  0  0  0
   -3.2240   -1.3769    0.4761 C   0  0  0  0  0  0  0  0  0  0  0  0
    0.4540   -0.1279    1.2590 H   0  0  0  0  0  0  0  0  0  0  0  0
    1.1113    1.8185   -1.1085 H   0  0  0  0  0  0  0  0  0  0  0  0
    1.7793   -0.8697   -1.3815 H   0  0  0  0  0  0  0  0  0  0  0  0
   -0.3136    2.1071    1.6144 H   0  0  0  0  0  0  0  0  0  0  0  0
    0.8642    3.1499    0.8655 H   0  0  0  0  0  0  0  0  0  0  0  0
   -0.7512    3.1064    0.1949 H   0  0  0  0  0  0  0  0  0  0  0  0
   -2.1778    1.4889   -0.3585 H   0  0  0  0  0  0  0  0  0  0  0  0
   -1.6610    0.5903    1.0759 H   0  0  0  0  0  0  0  0  0  0  0  0
    3.2627    0.1106    1.1110 H   0  0  0  0  0  0  0  0  0  0  0  0
    4.0170   -0.6719   -0.2904 H   0  0  0  0  0  0  0  0  0  0  0  0
    3.2382    0.9029   -0.4684 H   0  0  0  0  0  0  0  0  0  0  0  0
    1.9103   -2.1335    1.4067 H   0  0  0  0  0  0  0  0  0  0  0  0
    2.6407   -2.7794   -0.0749 H   0  0  0  0  0  0  0  0  0  0  0  0
    0.8778   -2.6744    0.0777 H   0  0  0  0  0  0  0  0  0  0  0  0
   -2.9369   -0.6211   -1.4490 H   0  0  0  0  0  0  0  0  0  0  0  0
   -3.9172   -2.1393    0.1376 H   0  0  0  0  0  0  0  0  0  0  0  0
   -2.9975   -1.3301    1.5354 H   0  0  0  0  0  0  0  0  0  0  0  0
  1  2  1  0  0  0  0
  1  3  1  0  0  0  0
  1  6  1  0  0  0  0
  2  3  1  0  0  0  0
  2  4  1  0  0  0  0
  2 11  1  0  0  0  0
  3  5  1  0  0  0  0
  3 12  1  0  0  0  0
  4  7  1  0  0  0  0
  4  8  1  0  0  0  0
  4 13  1  0  0  0  0
  5 14  1  0  0  0  0
  5 15  1  0  0  0  0
  5 16  1  0  0  0  0
  6  9  1  0  0  0  0
  6 17  1  0  0  0  0
  6 18  1  0  0  0  0
  7 19  1  0  0  0  0
  7 20  1  0  0  0  0
  7 21  1  0  0  0  0
  8 22  1  0  0  0  0
  8 23  1  0  0  0  0
  8 24  1  0  0  0  0
  9 10  2  0  0  0  0
  9 25  1  0  0  0  0
 10 26  1  0  0  0  0
 10 27  1  0  0  0  0
M  END
> <PUBCHEM_COMPOUND_CID>
544210

> <PUBCHEM_CONFORMER_RMSD>
0.6

> <PUBCHEM_CONFORMER_DIVERSEORDER>
2
9
10
16
14
4
17
21
15
8
1
18
11
7
19
20
12
6
13
3
5

> <PUBCHEM_MMFF94_PARTIAL_CHARGES>
13
1 -0.59
10 -0.3
11 0.1
12 0.1
2 -0.04
25 0.15
26 0.15
27 0.15
3 -0.04
4 0.09
5 0.09
6 0.41
9 -0.29

> <PUBCHEM_EFFECTIVE_ROTOR_COUNT>
3.6

> <PUBCHEM_PHARMACOPHORE_FEATURES>
3
1 1 cation
1 10 hydrophobe
3 4 7 8 hydrophobe

> <PUBCHEM_HEAVY_ATOM_COUNT>
10

> <PUBCHEM_ATOM_DEF_STEREO_COUNT>
0

> <PUBCHEM_ATOM_UDEF_STEREO_COUNT>
2

> <PUBCHEM_BOND_DEF_STEREO_COUNT>
0

> <PUBCHEM_BOND_UDEF_STEREO_COUNT>
0

> <PUBCHEM_ISOTOPIC_ATOM_COUNT>
0

> <PUBCHEM_COMPONENT_COUNT>
1

> <PUBCHEM_CACTVS_TAUTO_COUNT>
1

> <PUBCHEM_CONFORMER_ID>
00084DD200000002

> <PUBCHEM_MMFF94_ENERGY>
23.2932

> <PUBCHEM_FEATURE_SELFOVERLAP>
15.223

> <PUBCHEM_SHAPE_FINGERPRINT>
108231 29 18410577331258198034
10857977 72 18341599413333646504
14128692 85 18260556627268831573
14252887 29 18059869371221244151
20201158 50 18260829323570142643
20645477 70 18197776807648261175
20653091 64 18271253831930648521
20711985 344 17768831783001399709
20711985 365 17977099063700262493
20871998 22 18271818894855011703
21061003 4 18342453763753961888
23500284 5 18264491676495564747
23552423 10 18117002074475502910
25610 137 18410859862934000340
29004967 10 18411978053015746520
3312278 4 18337392638753690604
5493415 88 18335699502547850339
58734985 188 18200027477204838048
81228 2 18053378799542826489

> <PUBCHEM_SHAPE_MULTIPOLES>
200.81
4.5
2.26
0.76
1.48
0.55
-0.02
-2.68
-0.19
-0.35
-0.53
0.09
0.06
0.06

> <PUBCHEM_SHAPE_SELFOVERLAP>
380.479

> <PUBCHEM_SHAPE_VOLUME>
127

> <PUBCHEM_COORDINATE_TYPE>
2
5
10

$$$$
