91729851
  -OEChem-08272012143D

 43 42  0     1  0  0  0  0  0999 V2000
    2.2166    0.1924   -0.0662 O   0  0  0  0  0  0  0  0  0  0  0  0
   -1.8610    1.8174    0.3309 O   0  0  0  0  0  0  0  0  0  0  0  0
   -3.3807    1.1607   -1.2651 O   0  0  0  0  0  0  0  0  0  0  0  0
    1.4500   -0.3979   -2.1491 O   0  0  0  0  0  0  0  0  0  0  0  0
   -0.0001    0.1923   -0.4363 N   0  0  0  0  0  0  0  0  0  0  0  0
   -1.7822   -1.3931   -1.0475 C   0  0  0  0  0  0  0  0  0  0  0  0
   -1.2428    0.0392   -1.1506 C   0  0  1  0  0  0  0  0  0  0  0  0
   -2.1611   -1.8115    0.3794 C   0  0  0  0  0  0  0  0  0  0  0  0
   -2.6376   -3.2644    0.4200 C   0  0  0  0  0  0  0  0  0  0  0  0
    4.5394    0.2859    0.6303 C   0  0  0  0  0  0  0  0  0  0  0  0
   -2.2881    1.0582   -0.7169 C   0  0  0  0  0  0  0  0  0  0  0  0
    3.5628   -0.0096   -0.5113 C   0  0  0  0  0  0  0  0  0  0  0  0
   -2.9792   -3.6993    1.8363 C   0  0  0  0  0  0  0  0  0  0  0  0
    1.2413   -0.0389   -0.9948 C   0  0  0  0  0  0  0  0  0  0  0  0
    4.2879   -0.6299    1.8301 C   0  0  0  0  0  0  0  0  0  0  0  0
    5.9814    0.1446    0.1477 C   0  0  0  0  0  0  0  0  0  0  0  0
   -2.7862    2.8021    0.8031 C   0  0  0  0  0  0  0  0  0  0  0  0
   -2.1606    3.5518    1.9600 C   0  0  0  0  0  0  0  0  0  0  0  0
   -2.6664   -1.4930   -1.6900 H   0  0  0  0  0  0  0  0  0  0  0  0
   -1.0290   -2.0898   -1.4373 H   0  0  0  0  0  0  0  0  0  0  0  0
   -1.0331    0.2571   -2.2056 H   0  0  0  0  0  0  0  0  0  0  0  0
   -2.9531   -1.1593    0.7655 H   0  0  0  0  0  0  0  0  0  0  0  0
   -1.2959   -1.6981    1.0433 H   0  0  0  0  0  0  0  0  0  0  0  0
   -1.8578   -3.9239    0.0217 H   0  0  0  0  0  0  0  0  0  0  0  0
   -3.5212   -3.3840   -0.2176 H   0  0  0  0  0  0  0  0  0  0  0  0
   -0.0347    0.4775    0.5380 H   0  0  0  0  0  0  0  0  0  0  0  0
    4.3793    1.3181    0.9670 H   0  0  0  0  0  0  0  0  0  0  0  0
    3.7621    0.6643   -1.3533 H   0  0  0  0  0  0  0  0  0  0  0  0
    3.6778   -1.0461   -0.8517 H   0  0  0  0  0  0  0  0  0  0  0  0
   -3.7779   -3.0788    2.2551 H   0  0  0  0  0  0  0  0  0  0  0  0
   -2.1055   -3.6237    2.4915 H   0  0  0  0  0  0  0  0  0  0  0  0
   -3.3188   -4.7397    1.8418 H   0  0  0  0  0  0  0  0  0  0  0  0
    3.2781   -0.4911    2.2298 H   0  0  0  0  0  0  0  0  0  0  0  0
    6.1806    0.8252   -0.6867 H   0  0  0  0  0  0  0  0  0  0  0  0
    6.6859    0.3862    0.9507 H   0  0  0  0  0  0  0  0  0  0  0  0
    6.1901   -0.8763   -0.1901 H   0  0  0  0  0  0  0  0  0  0  0  0
    4.9950   -0.4129    2.6379 H   0  0  0  0  0  0  0  0  0  0  0  0
    4.4021   -1.6840    1.5551 H   0  0  0  0  0  0  0  0  0  0  0  0
   -3.0208    3.5011   -0.0074 H   0  0  0  0  0  0  0  0  0  0  0  0
   -3.7059    2.3084    1.1361 H   0  0  0  0  0  0  0  0  0  0  0  0
   -1.9034    2.8628    2.7713 H   0  0  0  0  0  0  0  0  0  0  0  0
   -1.2295    4.0357    1.6470 H   0  0  0  0  0  0  0  0  0  0  0  0
   -2.8425    4.3142    2.3467 H   0  0  0  0  0  0  0  0  0  0  0  0
  1 12  1  0  0  0  0
  1 14  1  0  0  0  0
  2 11  1  0  0  0  0
  2 17  1  0  0  0  0
  3 11  2  0  0  0  0
  4 14  2  0  0  0  0
  5  7  1  0  0  0  0
  5 14  1  0  0  0  0
  5 26  1  0  0  0  0
  6  7  1  0  0  0  0
  6  8  1  0  0  0  0
  6 19  1  0  0  0  0
  6 20  1  0  0  0  0
  7 11  1  0  0  0  0
  7 21  1  0  0  0  0
  8  9  1  0  0  0  0
  8 22  1  0  0  0  0
  8 23  1  0  0  0  0
  9 13  1  0  0  0  0
  9 24  1  0  0  0  0
  9 25  1  0  0  0  0
 10 12  1  0  0  0  0
 10 15  1  0  0  0  0
 10 16  1  0  0  0  0
 10 27  1  0  0  0  0
 12 28  1  0  0  0  0
 12 29  1  0  0  0  0
 13 30  1  0  0  0  0
 13 31  1  0  0  0  0
 13 32  1  0  0  0  0
 15 33  1  0  0  0  0
 15 37  1  0  0  0  0
 15 38  1  0  0  0  0
 16 34  1  0  0  0  0
 16 35  1  0  0  0  0
 16 36  1  0  0  0  0
 17 18  1  0  0  0  0
 17 39  1  0  0  0  0
 17 40  1  0  0  0  0
 18 41  1  0  0  0  0
 18 42  1  0  0  0  0
 18 43  1  0  0  0  0
M  END
> <PUBCHEM_COMPOUND_CID>
91729851

> <PUBCHEM_CONFORMER_RMSD>
1

> <PUBCHEM_CONFORMER_DIVERSEORDER>
1
75
66
27
18
20
100
31
76
96
35
56
114
89
95
30
58
103
41
111
86
23
97
122
47
28
91
73
129
128
81
113
50
104
102
61
9
34
33
24
45
121
55
98
79
6
72
17
119
62
77
120
16
39
131
36
25
84
11
26
69
92
67
108
118
43
78
112
123
134
44
22
38
101
70
115
106
83
125
10
32
82
63
40
52
71
88
110
8
117
68
85
49
57
116
99
48
19
109
3
133
74
105
46
51
37
107
132
29
7
2
13
53
127
124
90
12
21
80
87
5
14
126
54
65
42
15
130
59
4
94
64
93
60

> <PUBCHEM_MMFF94_PARTIAL_CHARGES>
11
1 -0.43
11 0.66
12 0.28
14 0.78
17 0.28
2 -0.43
26 0.37
3 -0.57
4 -0.57
5 -0.73
7 0.36

> <PUBCHEM_EFFECTIVE_ROTOR_COUNT>
11

> <PUBCHEM_PHARMACOPHORE_FEATURES>
5
1 13 hydrophobe
1 3 acceptor
1 4 acceptor
1 5 donor
3 10 15 16 hydrophobe

> <PUBCHEM_HEAVY_ATOM_COUNT>
18

> <PUBCHEM_ATOM_DEF_STEREO_COUNT>
0

> <PUBCHEM_ATOM_UDEF_STEREO_COUNT>
1

> <PUBCHEM_BOND_DEF_STEREO_COUNT>
0

> <PUBCHEM_BOND_UDEF_STEREO_COUNT>
0

> <PUBCHEM_ISOTOPIC_ATOM_COUNT>
0

> <PUBCHEM_COMPONENT_COUNT>
1

> <PUBCHEM_CACTVS_TAUTO_COUNT>
2

> <PUBCHEM_CONFORMER_ID>
0577AFBB00000001

> <PUBCHEM_MMFF94_ENERGY>
14.3356

> <PUBCHEM_FEATURE_SELFOVERLAP>
25.372

> <PUBCHEM_SHAPE_FINGERPRINT>
10366900 7 18130490999046893298
11036077 4 18261945254894730434
11036077 51 18267019457927681115
11552529 35 18337383937609320218
12523318 42 18115568474600865874
12549972 3 17843144535839633542
12788726 201 18118705428240261550
12824470 246 17604986094946398762
13275264 69 18266470978056664107
13631057 29 17896878957885112458
14178342 30 18335994090339518038
15099037 8 17604711208612933870
15842332 3 17532112616315128710
20681651 13 17822836646453014072
21401589 2 17845378743388114449
21650355 55 18268716180790214767
23402539 116 18201139002140926085
23557571 272 18342462564184104094
23558518 356 18199198295435113757
23598288 3 18337113487423041455
394222 165 17122835622446493873
5104073 3 18336816555803024760
57265010 4 18410003330448713548
59554788 281 18264773164662775101
7226269 152 18410849976277825359
81228 2 18338537295389396103
90127 26 17775277279973913792
9981440 41 17774430573609311878

> <PUBCHEM_SHAPE_MULTIPOLES>
341.97
9.47
3.9
1.84
17.61
0.21
-0.32
1.03
-3.03
-8.26
-3.36
-0.41
0
0.19

> <PUBCHEM_SHAPE_SELFOVERLAP>
643.254

> <PUBCHEM_SHAPE_VOLUME>
212.7

> <PUBCHEM_COORDINATE_TYPE>
2
5
10

$$$$
