141895
  -OEChem-08272006133D

 20 23  0     1  0  0  0  0  0999 V2000
    0.7504   -0.0001    1.2685 C   0  0  0  0  0  0  0  0  0  0  0  0
   -0.7503    0.0000    1.2686 C   0  0  0  0  0  0  0  0  0  0  0  0
    0.7903   -1.2096    0.2879 C   0  0  1  0  0  0  0  0  0  0  0  0
    0.7904    1.2095    0.2880 C   0  0  2  0  0  0  0  0  0  0  0  0
   -0.7904   -1.2096    0.2879 C   0  0  2  0  0  0  0  0  0  0  0  0
   -0.7903    1.2096    0.2880 C   0  0  1  0  0  0  0  0  0  0  0  0
    1.4840   -0.6722   -0.9224 C   0  0  0  0  0  0  0  0  0  0  0  0
    1.4842    0.6722   -0.9222 C   0  0  0  0  0  0  0  0  0  0  0  0
   -1.4841   -0.6721   -0.9223 C   0  0  0  0  0  0  0  0  0  0  0  0
   -1.4841    0.6723   -0.9222 C   0  0  0  0  0  0  0  0  0  0  0  0
    1.3195   -0.0003    2.1948 H   0  0  0  0  0  0  0  0  0  0  0  0
   -1.3194   -0.0001    2.1949 H   0  0  0  0  0  0  0  0  0  0  0  0
    1.2473   -2.1159    0.6961 H   0  0  0  0  0  0  0  0  0  0  0  0
    1.2474    2.1157    0.6964 H   0  0  0  0  0  0  0  0  0  0  0  0
   -1.2474   -2.1159    0.6963 H   0  0  0  0  0  0  0  0  0  0  0  0
   -1.2474    2.1159    0.6963 H   0  0  0  0  0  0  0  0  0  0  0  0
    1.9235   -1.2915   -1.6906 H   0  0  0  0  0  0  0  0  0  0  0  0
    1.9238    1.2915   -1.6903 H   0  0  0  0  0  0  0  0  0  0  0  0
   -1.9237   -1.2913   -1.6905 H   0  0  0  0  0  0  0  0  0  0  0  0
   -1.9236    1.2916   -1.6904 H   0  0  0  0  0  0  0  0  0  0  0  0
  1  2  1  0  0  0  0
  1  3  1  0  0  0  0
  1  4  1  0  0  0  0
  1 11  1  0  0  0  0
  2  5  1  0  0  0  0
  2  6  1  0  0  0  0
  2 12  1  0  0  0  0
  3  5  1  0  0  0  0
  3  7  1  0  0  0  0
  3 13  1  0  0  0  0
  4  6  1  0  0  0  0
  4  8  1  0  0  0  0
  4 14  1  0  0  0  0
  5  9  1  0  0  0  0
  5 15  1  0  0  0  0
  6 10  1  0  0  0  0
  6 16  1  0  0  0  0
  7  8  2  0  0  0  0
  7 17  1  0  0  0  0
  8 18  1  0  0  0  0
  9 10  2  0  0  0  0
  9 19  1  0  0  0  0
 10 20  1  0  0  0  0
M  END
> <PUBCHEM_COMPOUND_CID>
141895

> <PUBCHEM_CONFORMER_RMSD>
0.4

> <PUBCHEM_CONFORMER_DIVERSEORDER>
1

> <PUBCHEM_MMFF94_PARTIAL_CHARGES>
12
10 -0.27
17 0.15
18 0.15
19 0.15
20 0.15
3 0.12
4 0.12
5 0.12
6 0.12
7 -0.27
8 -0.27
9 -0.27

> <PUBCHEM_EFFECTIVE_ROTOR_COUNT>
0

> <PUBCHEM_PHARMACOPHORE_FEATURES>
1
10 1 2 3 4 5 6 7 8 9 10 rings

> <PUBCHEM_HEAVY_ATOM_COUNT>
10

> <PUBCHEM_ATOM_DEF_STEREO_COUNT>
0

> <PUBCHEM_ATOM_UDEF_STEREO_COUNT>
4

> <PUBCHEM_BOND_DEF_STEREO_COUNT>
0

> <PUBCHEM_BOND_UDEF_STEREO_COUNT>
0

> <PUBCHEM_ISOTOPIC_ATOM_COUNT>
0

> <PUBCHEM_COMPONENT_COUNT>
1

> <PUBCHEM_CACTVS_TAUTO_COUNT>
1

> <PUBCHEM_CONFORMER_ID>
00022A4700000001

> <PUBCHEM_MMFF94_ENERGY>
48.4713

> <PUBCHEM_FEATURE_SELFOVERLAP>
5.074

> <PUBCHEM_SHAPE_FINGERPRINT>
12423570 1 12924179033336045507
13024252 1 17464586122643457604
137420 1 14891771527959726458
15557651 10 15503805999722004847
16945 1 18410855460128161854
21040471 1 18187629306843590005
29004967 10 15912746388867923991
369184 2 18268174031457983446
5084963 1 16298385759914760047

> <PUBCHEM_SHAPE_MULTIPOLES>
205.8
1.86
1.38
1.31
0
0
-0.1
0
0.6
0
0
0
0
0

> <PUBCHEM_SHAPE_SELFOVERLAP>
482.829

> <PUBCHEM_SHAPE_VOLUME>
105.3

> <PUBCHEM_COORDINATE_TYPE>
2
5
10

$$$$
