557256
  -OEChem-08272004393D

 18 18  0     0  0  0  0  0  0999 V2000
   -2.3682   -1.2201    0.0004 O   0  0  0  0  0  0  0  0  0  0  0  0
   -0.1673    1.5715    0.0000 C   0  0  0  0  0  0  0  0  0  0  0  0
    0.6637    0.3243    0.0000 C   0  0  0  0  0  0  0  0  0  0  0  0
   -1.6085    1.0753    0.0001 C   0  0  0  0  0  0  0  0  0  0  0  0
    2.1494    0.4239    0.0002 C   0  0  0  0  0  0  0  0  0  0  0  0
   -0.0345   -0.8147   -0.0005 C   0  0  0  0  0  0  0  0  0  0  0  0
   -1.4477   -0.4166   -0.0003 C   0  0  0  0  0  0  0  0  0  0  0  0
    2.8132   -0.9436    0.0001 C   0  0  0  0  0  0  0  0  0  0  0  0
    0.0345    2.1807    0.8875 H   0  0  0  0  0  0  0  0  0  0  0  0
    0.0344    2.1806   -0.8877 H   0  0  0  0  0  0  0  0  0  0  0  0
   -2.1439    1.3963   -0.8978 H   0  0  0  0  0  0  0  0  0  0  0  0
   -2.1436    1.3959    0.8983 H   0  0  0  0  0  0  0  0  0  0  0  0
    2.4782    0.9829   -0.8833 H   0  0  0  0  0  0  0  0  0  0  0  0
    2.4778    0.9824    0.8842 H   0  0  0  0  0  0  0  0  0  0  0  0
    0.3008   -1.8368   -0.0006 H   0  0  0  0  0  0  0  0  0  0  0  0
    3.9020   -0.8213    0.0003 H   0  0  0  0  0  0  0  0  0  0  0  0
    2.5552   -1.5246   -0.8922 H   0  0  0  0  0  0  0  0  0  0  0  0
    2.5548   -1.5250    0.8920 H   0  0  0  0  0  0  0  0  0  0  0  0
  1  7  2  0  0  0  0
  2  3  1  0  0  0  0
  2  4  1  0  0  0  0
  2  9  1  0  0  0  0
  2 10  1  0  0  0  0
  3  5  1  0  0  0  0
  3  6  2  0  0  0  0
  4  7  1  0  0  0  0
  4 11  1  0  0  0  0
  4 12  1  0  0  0  0
  5  8  1  0  0  0  0
  5 13  1  0  0  0  0
  5 14  1  0  0  0  0
  6  7  1  0  0  0  0
  6 15  1  0  0  0  0
  8 16  1  0  0  0  0
  8 17  1  0  0  0  0
  8 18  1  0  0  0  0
M  END
> <PUBCHEM_COMPOUND_CID>
557256

> <PUBCHEM_CONFORMER_RMSD>
0.4

> <PUBCHEM_CONFORMER_DIVERSEORDER>
1
4
2
3

> <PUBCHEM_MMFF94_PARTIAL_CHARGES>
8
1 -0.57
15 0.15
2 0.14
3 -0.28
4 0.06
5 0.14
6 -0.14
7 0.49

> <PUBCHEM_EFFECTIVE_ROTOR_COUNT>
1.4

> <PUBCHEM_PHARMACOPHORE_FEATURES>
3
1 1 acceptor
1 8 hydrophobe
5 2 3 4 6 7 rings

> <PUBCHEM_HEAVY_ATOM_COUNT>
8

> <PUBCHEM_ATOM_DEF_STEREO_COUNT>
0

> <PUBCHEM_ATOM_UDEF_STEREO_COUNT>
0

> <PUBCHEM_BOND_DEF_STEREO_COUNT>
0

> <PUBCHEM_BOND_UDEF_STEREO_COUNT>
0

> <PUBCHEM_ISOTOPIC_ATOM_COUNT>
0

> <PUBCHEM_COMPONENT_COUNT>
1

> <PUBCHEM_CACTVS_TAUTO_COUNT>
10

> <PUBCHEM_CONFORMER_ID>
000880C800000001

> <PUBCHEM_MMFF94_ENERGY>
2.4794

> <PUBCHEM_FEATURE_SELFOVERLAP>
15.223

> <PUBCHEM_SHAPE_FINGERPRINT>
10857977 72 18341037614415610408
16714656 1 18338237063673351012
21040471 1 18050568443426887365
23552423 10 18259989258131685494
29004967 10 18337955721882688298
369184 2 18272646823000148480
5084963 1 18411700980433300896

> <PUBCHEM_SHAPE_MULTIPOLES>
158.77
3.42
1.47
0.6
1.58
0.18
0
-1.04
0
-0.45
0
0.03
0.02
0

> <PUBCHEM_SHAPE_SELFOVERLAP>
318.275

> <PUBCHEM_SHAPE_VOLUME>
96.3

> <PUBCHEM_COORDINATE_TYPE>
2
5
10

$$$$
