541807
  -OEChem-08272005283D

 26 25  0     1  0  0  0  0  0999 V2000
   -1.6875   -0.7020    0.2002 N   0  0  0  0  0  0  0  0  0  0  0  0
   -1.9614    0.7171    0.1669 N   0  0  0  0  0  0  0  0  0  0  0  0
    0.7185   -0.2550    0.4803 N   0  0  0  0  0  0  0  0  0  0  0  0
    1.7461   -0.0296   -0.1910 N   0  0  0  0  0  0  0  0  0  0  0  0
   -0.3270   -0.9441   -0.3011 C   0  0  1  0  0  0  0  0  0  0  0  0
   -0.0421   -2.4443   -0.1981 C   0  0  0  0  0  0  0  0  0  0  0  0
   -3.2994    0.9179    0.7208 C   0  0  0  0  0  0  0  0  0  0  0  0
   -1.9025    1.1969   -1.2155 C   0  0  0  0  0  0  0  0  0  0  0  0
    2.7652    0.6578    0.5997 C   0  0  0  0  0  0  0  0  0  0  0  0
    3.9901    0.8852   -0.2621 C   0  0  0  0  0  0  0  0  0  0  0  0
   -0.2484   -0.6977   -1.3679 H   0  0  0  0  0  0  0  0  0  0  0  0
   -2.3602   -1.2059   -0.3784 H   0  0  0  0  0  0  0  0  0  0  0  0
   -0.0724   -2.7868    0.8431 H   0  0  0  0  0  0  0  0  0  0  0  0
   -0.7731   -3.0264   -0.7704 H   0  0  0  0  0  0  0  0  0  0  0  0
    0.9522   -2.6836   -0.5917 H   0  0  0  0  0  0  0  0  0  0  0  0
   -3.3496    0.5535    1.7538 H   0  0  0  0  0  0  0  0  0  0  0  0
   -4.0783    0.4099    0.1389 H   0  0  0  0  0  0  0  0  0  0  0  0
   -3.5419    1.9861    0.7562 H   0  0  0  0  0  0  0  0  0  0  0  0
   -2.4763    0.5723   -1.9110 H   0  0  0  0  0  0  0  0  0  0  0  0
   -0.8734    1.2904   -1.5774 H   0  0  0  0  0  0  0  0  0  0  0  0
   -2.3109    2.2136   -1.2770 H   0  0  0  0  0  0  0  0  0  0  0  0
    2.3842    1.6225    0.9551 H   0  0  0  0  0  0  0  0  0  0  0  0
    3.0405    0.0557    1.4737 H   0  0  0  0  0  0  0  0  0  0  0  0
    4.7701    1.3998    0.3071 H   0  0  0  0  0  0  0  0  0  0  0  0
    4.3972   -0.0657   -0.6218 H   0  0  0  0  0  0  0  0  0  0  0  0
    3.7443    1.4948   -1.1380 H   0  0  0  0  0  0  0  0  0  0  0  0
  1  2  1  0  0  0  0
  1  5  1  0  0  0  0
  1 12  1  0  0  0  0
  2  7  1  0  0  0  0
  2  8  1  0  0  0  0
  3  4  2  0  0  0  0
  3  5  1  0  0  0  0
  4  9  1  0  0  0  0
  5  6  1  0  0  0  0
  5 11  1  0  0  0  0
  6 13  1  0  0  0  0
  6 14  1  0  0  0  0
  6 15  1  0  0  0  0
  7 16  1  0  0  0  0
  7 17  1  0  0  0  0
  7 18  1  0  0  0  0
  8 19  1  0  0  0  0
  8 20  1  0  0  0  0
  8 21  1  0  0  0  0
  9 10  1  0  0  0  0
  9 22  1  0  0  0  0
  9 23  1  0  0  0  0
 10 24  1  0  0  0  0
 10 25  1  0  0  0  0
 10 26  1  0  0  0  0
M  END
> <PUBCHEM_COMPOUND_CID>
541807

> <PUBCHEM_CONFORMER_RMSD>
0.6

> <PUBCHEM_CONFORMER_DIVERSEORDER>
1
6
24
19
10
17
7
4
8
9
15
11
21
5
20
14
2
12
16
3
23
25
13
26
22
18

> <PUBCHEM_MMFF94_PARTIAL_CHARGES>
9
1 -0.63
12 0.36
2 -0.54
3 -0.25
4 -0.25
5 0.52
7 0.27
8 0.27
9 0.25

> <PUBCHEM_EFFECTIVE_ROTOR_COUNT>
4

> <PUBCHEM_PHARMACOPHORE_FEATURES>
1
1 1 donor

> <PUBCHEM_HEAVY_ATOM_COUNT>
10

> <PUBCHEM_ATOM_DEF_STEREO_COUNT>
0

> <PUBCHEM_ATOM_UDEF_STEREO_COUNT>
1

> <PUBCHEM_BOND_DEF_STEREO_COUNT>
0

> <PUBCHEM_BOND_UDEF_STEREO_COUNT>
0

> <PUBCHEM_ISOTOPIC_ATOM_COUNT>
0

> <PUBCHEM_COMPONENT_COUNT>
1

> <PUBCHEM_CACTVS_TAUTO_COUNT>
1

> <PUBCHEM_CONFORMER_ID>
0008446F00000001

> <PUBCHEM_MMFF94_ENERGY>
10.7156

> <PUBCHEM_FEATURE_SELFOVERLAP>
5.074

> <PUBCHEM_SHAPE_FINGERPRINT>
10857977 72 17459210507532699401
12932764 1 18115014312350998376
14325111 11 18412826884677321754
14390081 3 18272367568279001768
15775835 57 18335421270340045912
18380122 1 18114473245224132585
20211469 26 13045941330334170513
20645477 56 18340206405564344512
20653085 51 16845569854786530064
21028194 46 18334858281583998368
21119208 17 15195288611994267560
21524375 3 18411411804443305746
23211744 41 17968939669741885763
23235685 24 18343017774643543505
81228 2 17978779439543078994

> <PUBCHEM_SHAPE_MULTIPOLES>
185.87
5.67
1.82
0.89
3.66
1.34
0.13
-3.69
-0.55
-0.4
0.24
-0.36
-0.26
0.05

> <PUBCHEM_SHAPE_SELFOVERLAP>
330.605

> <PUBCHEM_SHAPE_VOLUME>
122.5

> <PUBCHEM_COORDINATE_TYPE>
2
5
10

$$$$
