79083
  -OEChem-08272003553D

 19 18  0     1  0  0  0  0  0999 V2000
   -1.6980   -1.3507   -0.2450 O   0  0  0  0  0  0  0  0  0  0  0  0
    3.3200   -0.2980    0.0996 O   0  0  0  0  0  0  0  0  0  0  0  0
   -0.3149    0.6369   -0.1156 C   0  0  0  0  0  0  0  0  0  0  0  0
   -1.6031   -0.0554    0.3415 C   0  0  1  0  0  0  0  0  0  0  0  0
    0.9316   -0.1794    0.2314 C   0  0  0  0  0  0  0  0  0  0  0  0
    2.2012    0.4985   -0.2652 C   0  0  0  0  0  0  0  0  0  0  0  0
   -2.8368    0.7481   -0.0468 C   0  0  0  0  0  0  0  0  0  0  0  0
   -0.2465    1.6322    0.3396 H   0  0  0  0  0  0  0  0  0  0  0  0
   -0.3455    0.7740   -1.2042 H   0  0  0  0  0  0  0  0  0  0  0  0
   -1.5797   -0.1848    1.4297 H   0  0  0  0  0  0  0  0  0  0  0  0
    0.8702   -1.1838   -0.2050 H   0  0  0  0  0  0  0  0  0  0  0  0
    0.9961   -0.3273    1.3166 H   0  0  0  0  0  0  0  0  0  0  0  0
    2.3233    1.4856    0.1910 H   0  0  0  0  0  0  0  0  0  0  0  0
    2.1957    0.6171   -1.3533 H   0  0  0  0  0  0  0  0  0  0  0  0
   -2.9176    0.8401   -1.1355 H   0  0  0  0  0  0  0  0  0  0  0  0
   -2.8120    1.7510    0.3901 H   0  0  0  0  0  0  0  0  0  0  0  0
   -3.7471    0.2430    0.2943 H   0  0  0  0  0  0  0  0  0  0  0  0
   -2.5113   -1.7659    0.0893 H   0  0  0  0  0  0  0  0  0  0  0  0
    3.2199   -1.1621   -0.3352 H   0  0  0  0  0  0  0  0  0  0  0  0
  1  4  1  0  0  0  0
  1 18  1  0  0  0  0
  2  6  1  0  0  0  0
  2 19  1  0  0  0  0
  3  4  1  0  0  0  0
  3  5  1  0  0  0  0
  3  8  1  0  0  0  0
  3  9  1  0  0  0  0
  4  7  1  0  0  0  0
  4 10  1  0  0  0  0
  5  6  1  0  0  0  0
  5 11  1  0  0  0  0
  5 12  1  0  0  0  0
  6 13  1  0  0  0  0
  6 14  1  0  0  0  0
  7 15  1  0  0  0  0
  7 16  1  0  0  0  0
  7 17  1  0  0  0  0
M  END
> <PUBCHEM_COMPOUND_CID>
79083

> <PUBCHEM_CONFORMER_RMSD>
0.4

> <PUBCHEM_CONFORMER_DIVERSEORDER>
1
33
13
21
29
25
18
27
6
4
30
11
32
26
7
16
3
19
28
12
31
5
15
22
17
10
2
23
24
9
8
14
20

> <PUBCHEM_MMFF94_PARTIAL_CHARGES>
6
1 -0.68
18 0.4
19 0.4
2 -0.68
4 0.28
6 0.28

> <PUBCHEM_EFFECTIVE_ROTOR_COUNT>
3

> <PUBCHEM_PHARMACOPHORE_FEATURES>
4
1 1 acceptor
1 1 donor
1 2 acceptor
1 2 donor

> <PUBCHEM_HEAVY_ATOM_COUNT>
7

> <PUBCHEM_ATOM_DEF_STEREO_COUNT>
0

> <PUBCHEM_ATOM_UDEF_STEREO_COUNT>
1

> <PUBCHEM_BOND_DEF_STEREO_COUNT>
0

> <PUBCHEM_BOND_UDEF_STEREO_COUNT>
0

> <PUBCHEM_ISOTOPIC_ATOM_COUNT>
0

> <PUBCHEM_COMPONENT_COUNT>
1

> <PUBCHEM_CACTVS_TAUTO_COUNT>
1

> <PUBCHEM_CONFORMER_ID>
000134EB00000001

> <PUBCHEM_MMFF94_ENERGY>
4.2285

> <PUBCHEM_FEATURE_SELFOVERLAP>
20.297

> <PUBCHEM_SHAPE_FINGERPRINT>
11062470 55 16487254348459525025
12932741 1 17560514105235166072
12932764 1 17530674416446152852
14325111 11 18409450306075068408
14390081 3 18413386544517255689
16714656 1 18408604742915422933
23552423 10 18188490297383376868
29004967 10 16559040401969807026
3248919 1 17346889952625628464
5460574 1 9367345929165242600

> <PUBCHEM_SHAPE_MULTIPOLES>
132.32
4.69
0.99
0.64
1.92
0.18
-0.01
-0.24
0.05
-0.46
0.08
-0.04
-0.01
-0.11

> <PUBCHEM_SHAPE_SELFOVERLAP>
230.795

> <PUBCHEM_SHAPE_VOLUME>
88.1

> <PUBCHEM_COORDINATE_TYPE>
2
5
10

$$$$
