5363147
  -OEChem-08272011533D

 38 38  0     1  0  0  0  0  0999 V2000
    1.1413    1.0479    1.6604 O   0  0  0  0  0  0  0  0  0  0  0  0
    3.1545    1.8394   -0.7416 O   0  0  0  0  0  0  0  0  0  0  0  0
    0.8461   -1.5363   -0.0650 C   0  0  0  0  0  0  0  0  0  0  0  0
    0.2164   -0.1147   -0.2957 C   0  0  2  0  0  0  0  0  0  0  0  0
    1.0722    1.0700    0.2388 C   0  0  2  0  0  0  0  0  0  0  0  0
    2.3011   -1.5344   -0.5996 C   0  0  0  0  0  0  0  0  0  0  0  0
    3.1655   -0.4305   -0.0112 C   0  0  0  0  0  0  0  0  0  0  0  0
    2.5157    0.9131   -0.2421 C   0  0  0  0  0  0  0  0  0  0  0  0
    0.8296   -1.9904    1.4105 C   0  0  0  0  0  0  0  0  0  0  0  0
    0.0593   -2.5971   -0.8748 C   0  0  0  0  0  0  0  0  0  0  0  0
   -1.2069   -0.0347    0.1919 C   0  0  0  0  0  0  0  0  0  0  0  0
    0.5048    2.4291   -0.1927 C   0  0  0  0  0  0  0  0  0  0  0  0
   -2.2835    0.1591   -0.5885 C   0  0  0  0  0  0  0  0  0  0  0  0
   -3.6706    0.2404   -0.1509 C   0  0  0  0  0  0  0  0  0  0  0  0
   -3.9960    0.1006    1.3104 C   0  0  0  0  0  0  0  0  0  0  0  0
   -4.6495    0.4386   -1.0498 C   0  0  0  0  0  0  0  0  0  0  0  0
    0.1948    0.0163   -1.3901 H   0  0  0  0  0  0  0  0  0  0  0  0
    2.2814   -1.4127   -1.6915 H   0  0  0  0  0  0  0  0  0  0  0  0
    2.7786   -2.5034   -0.4067 H   0  0  0  0  0  0  0  0  0  0  0  0
    4.1468   -0.4355   -0.4986 H   0  0  0  0  0  0  0  0  0  0  0  0
    3.3321   -0.5649    1.0617 H   0  0  0  0  0  0  0  0  0  0  0  0
    1.2880   -2.9817    1.5118 H   0  0  0  0  0  0  0  0  0  0  0  0
    1.3855   -1.3209    2.0697 H   0  0  0  0  0  0  0  0  0  0  0  0
   -0.1900   -2.0743    1.8006 H   0  0  0  0  0  0  0  0  0  0  0  0
    0.5441   -3.5784   -0.8119 H   0  0  0  0  0  0  0  0  0  0  0  0
   -0.9640   -2.7170   -0.5032 H   0  0  0  0  0  0  0  0  0  0  0  0
    0.0022   -2.3257   -1.9350 H   0  0  0  0  0  0  0  0  0  0  0  0
   -1.3419   -0.1270    1.2666 H   0  0  0  0  0  0  0  0  0  0  0  0
    0.4113    2.4986   -1.2816 H   0  0  0  0  0  0  0  0  0  0  0  0
   -0.4737    2.6194    0.2608 H   0  0  0  0  0  0  0  0  0  0  0  0
    1.1515    3.2496    0.1408 H   0  0  0  0  0  0  0  0  0  0  0  0
    1.6184    1.8421    1.9555 H   0  0  0  0  0  0  0  0  0  0  0  0
   -2.1186    0.2605   -1.6603 H   0  0  0  0  0  0  0  0  0  0  0  0
   -3.6703   -0.8743    1.6892 H   0  0  0  0  0  0  0  0  0  0  0  0
   -5.0725    0.1780    1.5005 H   0  0  0  0  0  0  0  0  0  0  0  0
   -3.5074    0.8885    1.8939 H   0  0  0  0  0  0  0  0  0  0  0  0
   -5.6896    0.5022   -0.7458 H   0  0  0  0  0  0  0  0  0  0  0  0
   -4.4438    0.5429   -2.1107 H   0  0  0  0  0  0  0  0  0  0  0  0
  1  5  1  0  0  0  0
  1 32  1  0  0  0  0
  2  8  2  0  0  0  0
  3  4  1  0  0  0  0
  3  6  1  0  0  0  0
  3  9  1  0  0  0  0
  3 10  1  0  0  0  0
  4  5  1  0  0  0  0
  4 11  1  0  0  0  0
  4 17  1  0  0  0  0
  5  8  1  0  0  0  0
  5 12  1  0  0  0  0
  6  7  1  0  0  0  0
  6 18  1  0  0  0  0
  6 19  1  0  0  0  0
  7  8  1  0  0  0  0
  7 20  1  0  0  0  0
  7 21  1  0  0  0  0
  9 22  1  0  0  0  0
  9 23  1  0  0  0  0
  9 24  1  0  0  0  0
 10 25  1  0  0  0  0
 10 26  1  0  0  0  0
 10 27  1  0  0  0  0
 11 13  2  0  0  0  0
 11 28  1  0  0  0  0
 12 29  1  0  0  0  0
 12 30  1  0  0  0  0
 12 31  1  0  0  0  0
 13 14  1  0  0  0  0
 13 33  1  0  0  0  0
 14 15  1  0  0  0  0
 14 16  2  0  0  0  0
 15 34  1  0  0  0  0
 15 35  1  0  0  0  0
 15 36  1  0  0  0  0
 16 37  1  0  0  0  0
 16 38  1  0  0  0  0
M  END
> <PUBCHEM_COMPOUND_CID>
5363147

> <PUBCHEM_CONFORMER_RMSD>
0.6

> <PUBCHEM_CONFORMER_DIVERSEORDER>
7
33
15
29
20
16
30
19
26
28
27
35
39
8
4
23
21
1
2
32
11
3
38
37
18
6
13
25
22
31
17
12
36
14
9
10
24
34
5

> <PUBCHEM_MMFF94_PARTIAL_CHARGES>
16
1 -0.68
11 -0.29
13 -0.15
14 -0.14
15 0.14
16 -0.3
2 -0.57
28 0.15
32 0.4
33 0.15
37 0.15
38 0.15
4 0.14
5 0.34
7 0.06
8 0.45

> <PUBCHEM_EFFECTIVE_ROTOR_COUNT>
3

> <PUBCHEM_PHARMACOPHORE_FEATURES>
5
1 1 acceptor
1 1 donor
1 2 acceptor
3 3 9 10 hydrophobe
6 3 4 5 6 7 8 rings

> <PUBCHEM_HEAVY_ATOM_COUNT>
16

> <PUBCHEM_ATOM_DEF_STEREO_COUNT>
0

> <PUBCHEM_ATOM_UDEF_STEREO_COUNT>
2

> <PUBCHEM_BOND_DEF_STEREO_COUNT>
1

> <PUBCHEM_BOND_UDEF_STEREO_COUNT>
0

> <PUBCHEM_ISOTOPIC_ATOM_COUNT>
0

> <PUBCHEM_COMPONENT_COUNT>
1

> <PUBCHEM_CACTVS_TAUTO_COUNT>
2

> <PUBCHEM_CONFORMER_ID>
0051D5CB00000007

> <PUBCHEM_MMFF94_ENERGY>
38.7537

> <PUBCHEM_FEATURE_SELFOVERLAP>
25.372

> <PUBCHEM_SHAPE_FINGERPRINT>
10219947 1 18409730659907176309
10980938 120 18341328916367171423
11471102 20 18410571773454446429
116883 192 17692807095487266853
12654215 9 18335132051526718629
14251717 144 18341889671645195087
15219456 202 18114187445094016163
15375358 24 17676482839992203445
15775835 57 18339644541693999047
16945 1 18337118856480359350
18186145 218 18342749532450347013
20279233 1 17603587405256468059
20606313 2 18411134718907022725
20645477 70 18338229376267460527
20820808 20 18335422387184432616
21501502 16 18193835066582912174
21524375 3 18264204897033451885
21730867 7 18408040706503970463
22289505 5 18191006934104030133
231179 274 18113892758528929821
23402655 69 18342734096812814389
23526113 38 17825667751403173899
23557571 272 16008747970942201575
23598291 2 17917714544327675085
25 1 18410862100279652220
2748010 2 18124612013885114862
3060560 45 18272643533044917119
528886 8 18411416245708248736
543358 83 18196371408196085789
77492 1 17632861897755566131
81228 2 17042876898805920459
81539 233 18187363242088198775
8272917 22 18270966722531618215
9999458 23 17894629253640726414

> <PUBCHEM_SHAPE_MULTIPOLES>
317.53
6.45
2.35
1.18
8.01
0.31
0.38
-1.32
-0.79
-1.85
-0.22
0.4
0.19
-0.02

> <PUBCHEM_SHAPE_SELFOVERLAP>
637.754

> <PUBCHEM_SHAPE_VOLUME>
187

> <PUBCHEM_COORDINATE_TYPE>
2
5
10

$$$$
