519466
  -OEChem-08272005213D

 15 15  0     0  0  0  0  0  0999 V2000
   -0.9095    1.0852   -0.0024 O   0  0  0  0  0  0  0  0  0  0  0  0
    3.2779    0.5131    0.0115 O   0  0  0  0  0  0  0  0  0  0  0  0
    1.5567   -1.4859   -0.0042 O   0  0  0  0  0  0  0  0  0  0  0  0
   -0.4300   -0.1861   -0.0009 C   0  0  0  0  0  0  0  0  0  0  0  0
    0.9817   -0.3652   -0.0036 C   0  0  0  0  0  0  0  0  0  0  0  0
   -1.4646   -1.0926    0.0030 C   0  0  0  0  0  0  0  0  0  0  0  0
    1.9091    0.8712   -0.0078 C   0  0  0  0  0  0  0  0  0  0  0  0
   -2.6563   -0.3292    0.0039 C   0  0  0  0  0  0  0  0  0  0  0  0
   -2.2650    0.9894    0.0004 C   0  0  0  0  0  0  0  0  0  0  0  0
   -1.3765   -2.1699    0.0050 H   0  0  0  0  0  0  0  0  0  0  0  0
    1.7020    1.4690    0.8847 H   0  0  0  0  0  0  0  0  0  0  0  0
    1.7134    1.4703   -0.9023 H   0  0  0  0  0  0  0  0  0  0  0  0
   -3.6731   -0.6942    0.0066 H   0  0  0  0  0  0  0  0  0  0  0  0
   -2.7997    1.9279   -0.0005 H   0  0  0  0  0  0  0  0  0  0  0  0
    3.4662    0.0426   -0.8184 H   0  0  0  0  0  0  0  0  0  0  0  0
  1  4  1  0  0  0  0
  1  9  1  0  0  0  0
  2  7  1  0  0  0  0
  2 15  1  0  0  0  0
  3  5  2  0  0  0  0
  4  5  1  0  0  0  0
  4  6  2  0  0  0  0
  5  7  1  0  0  0  0
  6  8  1  0  0  0  0
  6 10  1  0  0  0  0
  7 11  1  0  0  0  0
  7 12  1  0  0  0  0
  8  9  2  0  0  0  0
  8 13  1  0  0  0  0
  9 14  1  0  0  0  0
M  END
> <PUBCHEM_COMPOUND_CID>
519466

> <PUBCHEM_CONFORMER_RMSD>
0.4

> <PUBCHEM_CONFORMER_DIVERSEORDER>
1
14
16
9
12
2
15
7
13
8
6
10
3
11
5
4

> <PUBCHEM_MMFF94_PARTIAL_CHARGES>
13
1 -0.28
10 0.15
13 0.15
14 0.15
15 0.4
2 -0.68
3 -0.57
4 0.05
5 0.59
6 -0.15
7 0.34
8 -0.15
9 -0.01

> <PUBCHEM_EFFECTIVE_ROTOR_COUNT>
2

> <PUBCHEM_PHARMACOPHORE_FEATURES>
5
1 1 acceptor
1 2 acceptor
1 2 donor
1 3 acceptor
5 1 4 6 8 9 rings

> <PUBCHEM_HEAVY_ATOM_COUNT>
9

> <PUBCHEM_ATOM_DEF_STEREO_COUNT>
0

> <PUBCHEM_ATOM_UDEF_STEREO_COUNT>
0

> <PUBCHEM_BOND_DEF_STEREO_COUNT>
0

> <PUBCHEM_BOND_UDEF_STEREO_COUNT>
0

> <PUBCHEM_ISOTOPIC_ATOM_COUNT>
0

> <PUBCHEM_COMPONENT_COUNT>
1

> <PUBCHEM_CACTVS_TAUTO_COUNT>
3

> <PUBCHEM_CONFORMER_ID>
0007ED2A00000001

> <PUBCHEM_MMFF94_ENERGY>
4.1525

> <PUBCHEM_FEATURE_SELFOVERLAP>
25.382

> <PUBCHEM_SHAPE_FINGERPRINT>
10857977 72 18265046006454572873
12897270 3 18411981394415893860
12932764 1 17418084425556116659
14325111 11 18410574015664719040
14390081 3 18342737429195700384
19973954 147 18339082579498899821
20871998 184 18129105696058900895
21040471 1 18410575089026721935
23235685 24 18335697269133142764
23552423 10 18334576789549108075
29004967 10 18260274074482065875
369184 2 16226040115484571785
5084963 1 18129666429687384264

> <PUBCHEM_SHAPE_MULTIPOLES>
167.61
4.14
1.3
0.58
1.57
0.13
0
-0.64
-0.01
-0.02
0
-0.05
0
0

> <PUBCHEM_SHAPE_SELFOVERLAP>
345.335

> <PUBCHEM_SHAPE_VOLUME>
97.3

> <PUBCHEM_COORDINATE_TYPE>
2
5
10

$$$$
