586611
  -OEChem-08272011163D

 20 20  0     0  0  0  0  0  0999 V2000
    2.9108    0.1007   -0.0151 O   0  0  0  0  0  0  0  0  0  0  0  0
    0.9119    1.1822    0.0025 N   0  0  0  0  0  0  0  0  0  0  0  0
    1.0222   -1.1809    0.0011 N   0  0  0  0  0  0  0  0  0  0  0  0
   -1.1447    0.0247   -0.0021 C   0  0  0  0  0  0  0  0  0  0  0  0
   -0.4648    1.1863    0.0044 C   0  0  0  0  0  0  0  0  0  0  0  0
   -0.2742   -1.1977    0.0074 C   0  0  0  0  0  0  0  0  0  0  0  0
   -2.6314   -0.1469   -0.0360 C   0  0  0  0  0  0  0  0  0  0  0  0
   -1.0730    2.5595    0.0213 C   0  0  0  0  0  0  0  0  0  0  0  0
   -0.9380   -2.5567    0.0220 C   0  0  0  0  0  0  0  0  0  0  0  0
    1.6813    0.0288   -0.0055 C   0  0  0  0  0  0  0  0  0  0  0  0
   -2.9867   -0.5772    0.9057 H   0  0  0  0  0  0  0  0  0  0  0  0
   -2.9244   -0.8104   -0.8563 H   0  0  0  0  0  0  0  0  0  0  0  0
   -3.1710    0.7893   -0.1942 H   0  0  0  0  0  0  0  0  0  0  0  0
    1.3910    2.0784    0.0034 H   0  0  0  0  0  0  0  0  0  0  0  0
   -2.1470    2.5588    0.2180 H   0  0  0  0  0  0  0  0  0  0  0  0
   -0.9053    3.0581   -0.9392 H   0  0  0  0  0  0  0  0  0  0  0  0
   -0.6134    3.1693    0.8077 H   0  0  0  0  0  0  0  0  0  0  0  0
   -0.1893   -3.3446    0.1494 H   0  0  0  0  0  0  0  0  0  0  0  0
   -1.4570   -2.7233   -0.9259 H   0  0  0  0  0  0  0  0  0  0  0  0
   -1.6477   -2.6230    0.8507 H   0  0  0  0  0  0  0  0  0  0  0  0
  1 10  2  0  0  0  0
  2  5  1  0  0  0  0
  2 10  1  0  0  0  0
  2 14  1  0  0  0  0
  3  6  2  0  0  0  0
  3 10  1  0  0  0  0
  4  5  2  0  0  0  0
  4  6  1  0  0  0  0
  4  7  1  0  0  0  0
  5  8  1  0  0  0  0
  6  9  1  0  0  0  0
  7 11  1  0  0  0  0
  7 12  1  0  0  0  0
  7 13  1  0  0  0  0
  8 15  1  0  0  0  0
  8 16  1  0  0  0  0
  8 17  1  0  0  0  0
  9 18  1  0  0  0  0
  9 19  1  0  0  0  0
  9 20  1  0  0  0  0
M  END
> <PUBCHEM_COMPOUND_CID>
586611

> <PUBCHEM_CONFORMER_RMSD>
0.4

> <PUBCHEM_CONFORMER_DIVERSEORDER>
1

> <PUBCHEM_MMFF94_PARTIAL_CHARGES>
11
1 -0.57
10 0.84
14 0.37
2 -0.54
3 -0.66
4 -0.12
5 -0.03
6 0.37
7 0.14
8 0.14
9 0.06

> <PUBCHEM_EFFECTIVE_ROTOR_COUNT>
0

> <PUBCHEM_PHARMACOPHORE_FEATURES>
5
1 1 acceptor
1 2 donor
1 3 acceptor
1 3 donor
6 2 3 4 5 6 10 rings

> <PUBCHEM_HEAVY_ATOM_COUNT>
10

> <PUBCHEM_ATOM_DEF_STEREO_COUNT>
0

> <PUBCHEM_ATOM_UDEF_STEREO_COUNT>
0

> <PUBCHEM_BOND_DEF_STEREO_COUNT>
0

> <PUBCHEM_BOND_UDEF_STEREO_COUNT>
0

> <PUBCHEM_ISOTOPIC_ATOM_COUNT>
0

> <PUBCHEM_COMPONENT_COUNT>
1

> <PUBCHEM_CACTVS_TAUTO_COUNT>
2

> <PUBCHEM_CONFORMER_ID>
0008F37300000001

> <PUBCHEM_MMFF94_ENERGY>
23.1988

> <PUBCHEM_FEATURE_SELFOVERLAP>
25.464

> <PUBCHEM_SHAPE_FINGERPRINT>
16945 1 18410575093384895298
18185500 45 18193275410542053798
193761 8 17762055441526557639
21040471 1 18266459810983334688
23552423 10 17904205823624425535
23552449 1 18267020742233665542
2748010 2 18122064204286949350
5084963 1 18058729096121795002

> <PUBCHEM_SHAPE_MULTIPOLES>
189.96
2.83
2.55
0.59
1
0.06
0
-0.12
0.03
-1.09
-0.03
-0.05
0
0

> <PUBCHEM_SHAPE_SELFOVERLAP>
386.202

> <PUBCHEM_SHAPE_VOLUME>
111.1

> <PUBCHEM_COORDINATE_TYPE>
2
5
10

$$$$
