70258
  -OEChem-08272003343D

 11 11  0     0  0  0  0  0  0999 V2000
    2.3386    0.4824   -0.0002 O   0  0  0  0  0  0  0  0  0  0  0  0
   -2.3386    0.4824   -0.0001 O   0  0  0  0  0  0  0  0  0  0  0  0
   -0.0001    1.1293    0.0000 C   0  0  0  0  0  0  0  0  0  0  0  0
    1.1583    0.1744    0.0002 C   0  0  0  0  0  0  0  0  0  0  0  0
   -1.1583    0.1743    0.0001 C   0  0  0  0  0  0  0  0  0  0  0  0
    0.6685   -1.2214   -0.0001 C   0  0  0  0  0  0  0  0  0  0  0  0
   -0.6684   -1.2214    0.0000 C   0  0  0  0  0  0  0  0  0  0  0  0
   -0.0002    1.7290    0.9117 H   0  0  0  0  0  0  0  0  0  0  0  0
   -0.0001    1.7288   -0.9118 H   0  0  0  0  0  0  0  0  0  0  0  0
    1.3141   -2.0839   -0.0002 H   0  0  0  0  0  0  0  0  0  0  0  0
   -1.3140   -2.0839   -0.0001 H   0  0  0  0  0  0  0  0  0  0  0  0
  1  4  2  0  0  0  0
  2  5  2  0  0  0  0
  3  4  1  0  0  0  0
  3  5  1  0  0  0  0
  3  8  1  0  0  0  0
  3  9  1  0  0  0  0
  4  6  1  0  0  0  0
  5  7  1  0  0  0  0
  6  7  2  0  0  0  0
  6 10  1  0  0  0  0
  7 11  1  0  0  0  0
M  END
> <PUBCHEM_COMPOUND_CID>
70258

> <PUBCHEM_CONFORMER_RMSD>
0.4

> <PUBCHEM_CONFORMER_DIVERSEORDER>
1

> <PUBCHEM_MMFF94_PARTIAL_CHARGES>
9
1 -0.57
10 0.15
11 0.15
2 -0.57
3 0.12
4 0.49
5 0.49
6 -0.14
7 -0.14

> <PUBCHEM_EFFECTIVE_ROTOR_COUNT>
0.2

> <PUBCHEM_PHARMACOPHORE_FEATURES>
4
1 1 acceptor
1 2 acceptor
1 3 anion
5 3 4 5 6 7 rings

> <PUBCHEM_HEAVY_ATOM_COUNT>
7

> <PUBCHEM_ATOM_DEF_STEREO_COUNT>
0

> <PUBCHEM_ATOM_UDEF_STEREO_COUNT>
0

> <PUBCHEM_BOND_DEF_STEREO_COUNT>
0

> <PUBCHEM_BOND_UDEF_STEREO_COUNT>
0

> <PUBCHEM_ISOTOPIC_ATOM_COUNT>
0

> <PUBCHEM_COMPONENT_COUNT>
1

> <PUBCHEM_CACTVS_TAUTO_COUNT>
2

> <PUBCHEM_CONFORMER_ID>
0001127200000001

> <PUBCHEM_MMFF94_ENERGY>
4.511

> <PUBCHEM_FEATURE_SELFOVERLAP>
20.297

> <PUBCHEM_SHAPE_FINGERPRINT>
16714656 1 18409452509277311764
20096714 4 18410855468723390642
21040471 1 18410856563961143618
23552423 10 18260551164592865142
29004967 10 18113910324929411121

> <PUBCHEM_SHAPE_MULTIPOLES>
132.32
2.36
1.31
0.59
0
0.27
0
-0.55
0
0
0
0
0.01
0

> <PUBCHEM_SHAPE_SELFOVERLAP>
273.762

> <PUBCHEM_SHAPE_VOLUME>
76.8

> <PUBCHEM_COORDINATE_TYPE>
2
5
10

$$$$
