183540
  -OEChem-08272010303D

 26 26  0     0  0  0  0  0  0999 V2000
   -1.8213   -1.6985    0.4174 O   0  0  0  0  0  0  0  0  0  0  0  0
   -2.5390    0.9292   -0.0632 O   0  0  0  0  0  0  0  0  0  0  0  0
    1.4660   -0.1027    0.3215 C   0  0  0  0  0  0  0  0  0  0  0  0
    2.9033   -0.4747    0.4619 C   0  0  0  0  0  0  0  0  0  0  0  0
   -0.2357    1.5717   -0.0517 C   0  0  0  0  0  0  0  0  0  0  0  0
    1.1090    1.2237    0.0783 C   0  0  0  0  0  0  0  0  0  0  0  0
    0.4781   -1.0811    0.4342 C   0  0  0  0  0  0  0  0  0  0  0  0
   -0.8665   -0.7333    0.3045 C   0  0  0  0  0  0  0  0  0  0  0  0
   -1.2234    0.5932    0.0617 C   0  0  0  0  0  0  0  0  0  0  0  0
    3.5379   -0.8552   -0.8734 C   0  0  0  0  0  0  0  0  0  0  0  0
   -0.5987    2.9966   -0.3114 C   0  0  0  0  0  0  0  0  0  0  0  0
   -2.2097   -2.3689   -0.7799 C   0  0  0  0  0  0  0  0  0  0  0  0
    3.4638    0.3567    0.9074 H   0  0  0  0  0  0  0  0  0  0  0  0
    3.0067   -1.3107    1.1651 H   0  0  0  0  0  0  0  0  0  0  0  0
    1.8821    1.9833   -0.0108 H   0  0  0  0  0  0  0  0  0  0  0  0
    0.7507   -2.1169    0.6227 H   0  0  0  0  0  0  0  0  0  0  0  0
    3.0279   -1.7134   -1.3238 H   0  0  0  0  0  0  0  0  0  0  0  0
    4.5897   -1.1214   -0.7295 H   0  0  0  0  0  0  0  0  0  0  0  0
    3.4913   -0.0240   -1.5850 H   0  0  0  0  0  0  0  0  0  0  0  0
   -1.1289    3.0926   -1.2647 H   0  0  0  0  0  0  0  0  0  0  0  0
   -1.2217    3.3903    0.4986 H   0  0  0  0  0  0  0  0  0  0  0  0
    0.2895    3.6354   -0.3725 H   0  0  0  0  0  0  0  0  0  0  0  0
   -2.6461    1.8780   -0.2315 H   0  0  0  0  0  0  0  0  0  0  0  0
   -1.3566   -2.8971   -1.2174 H   0  0  0  0  0  0  0  0  0  0  0  0
   -2.6232   -1.6589   -1.5031 H   0  0  0  0  0  0  0  0  0  0  0  0
   -2.9821   -3.1007   -0.5277 H   0  0  0  0  0  0  0  0  0  0  0  0
  1  8  1  0  0  0  0
  1 12  1  0  0  0  0
  2  9  1  0  0  0  0
  2 23  1  0  0  0  0
  3  4  1  0  0  0  0
  3  6  1  0  0  0  0
  3  7  2  0  0  0  0
  4 10  1  0  0  0  0
  4 13  1  0  0  0  0
  4 14  1  0  0  0  0
  5  6  2  0  0  0  0
  5  9  1  0  0  0  0
  5 11  1  0  0  0  0
  6 15  1  0  0  0  0
  7  8  1  0  0  0  0
  7 16  1  0  0  0  0
  8  9  2  0  0  0  0
 10 17  1  0  0  0  0
 10 18  1  0  0  0  0
 10 19  1  0  0  0  0
 11 20  1  0  0  0  0
 11 21  1  0  0  0  0
 11 22  1  0  0  0  0
 12 24  1  0  0  0  0
 12 25  1  0  0  0  0
 12 26  1  0  0  0  0
M  END
> <PUBCHEM_COMPOUND_CID>
183540

> <PUBCHEM_CONFORMER_RMSD>
0.6

> <PUBCHEM_CONFORMER_DIVERSEORDER>
1
4
3
2

> <PUBCHEM_MMFF94_PARTIAL_CHARGES>
14
1 -0.36
11 0.14
12 0.28
15 0.15
16 0.15
2 -0.53
23 0.45
3 -0.14
4 0.14
5 -0.14
6 -0.15
7 -0.15
8 0.08
9 0.08

> <PUBCHEM_EFFECTIVE_ROTOR_COUNT>
2

> <PUBCHEM_PHARMACOPHORE_FEATURES>
4
1 1 acceptor
1 10 hydrophobe
1 2 donor
6 3 5 6 7 8 9 rings

> <PUBCHEM_HEAVY_ATOM_COUNT>
12

> <PUBCHEM_ATOM_DEF_STEREO_COUNT>
0

> <PUBCHEM_ATOM_UDEF_STEREO_COUNT>
0

> <PUBCHEM_BOND_DEF_STEREO_COUNT>
0

> <PUBCHEM_BOND_UDEF_STEREO_COUNT>
0

> <PUBCHEM_ISOTOPIC_ATOM_COUNT>
0

> <PUBCHEM_COMPONENT_COUNT>
1

> <PUBCHEM_CACTVS_TAUTO_COUNT>
3

> <PUBCHEM_CONFORMER_ID>
0002CCF400000001

> <PUBCHEM_MMFF94_ENERGY>
38.3778

> <PUBCHEM_FEATURE_SELFOVERLAP>
20.297

> <PUBCHEM_SHAPE_FINGERPRINT>
1 1 17184462119105506428
11206711 2 18260822734836973222
12138202 97 18266178323063843278
12716758 59 18124316008801874626
13024252 1 16878522149683264880
14128692 85 18339929341070458962
14817 1 7911949896738427856
15669948 3 18335701586050139386
16945 1 18337665300568377208
193761 8 18193274319858068817
20645476 183 17387152891613941386
20645477 70 17617929679505937839
20711985 344 18336541638360633858
20871998 184 18341337703633038047
20871998 22 18268713990140642058
21040471 1 17976251340430588544
21524375 3 17612027084148452664
2334 1 18264768950899145240
23402539 116 18269258080744739989
23419403 2 16972733962491918561
23552423 10 18187648067345056984
23557571 272 18271253802361437724
23559900 14 17911236123629468790
241688 4 18337104661143896105
2748010 2 18338227292628053392
3071541 250 18120105127895567342
53812653 8 18118125762284491832
7364860 26 17837493320628673824
81228 2 18409164389886013136

> <PUBCHEM_SHAPE_MULTIPOLES>
235.22
4.01
2.72
0.79
2.92
1.03
-0.08
-2.01
-0.76
-1.95
-0.53
0.19
-0.19
-0.02

> <PUBCHEM_SHAPE_SELFOVERLAP>
481.439

> <PUBCHEM_SHAPE_VOLUME>
138.4

> <PUBCHEM_COORDINATE_TYPE>
2
5
10

$$$$
