5363265
  -OEChem-08272012283D

 52 51  0     0  0  0  0  0  0999 V2000
    4.8967   -0.1455   -0.1034 O   0  0  0  0  0  0  0  0  0  0  0  0
    5.9034    0.2030    1.9466 O   0  0  0  0  0  0  0  0  0  0  0  0
    0.4720    1.5963   -1.5553 C   0  0  0  0  0  0  0  0  0  0  0  0
    1.5264    1.5246   -0.4459 C   0  0  0  0  0  0  0  0  0  0  0  0
   -0.7801    2.4207   -1.2319 C   0  0  0  0  0  0  0  0  0  0  0  0
    2.7607    0.7039   -0.8327 C   0  0  0  0  0  0  0  0  0  0  0  0
   -1.5614    1.9700    0.0066 C   0  0  0  0  0  0  0  0  0  0  0  0
    3.7829    0.6398    0.2965 C   0  0  0  0  0  0  0  0  0  0  0  0
   -2.7503    2.8403    0.2993 C   0  0  0  0  0  0  0  0  0  0  0  0
   -4.4888    0.9758    0.1104 C   0  0  0  0  0  0  0  0  0  0  0  0
   -4.0119    2.3861    0.3389 C   0  0  0  0  0  0  0  0  0  0  0  0
   -4.5280    0.0154    1.3072 C   0  0  0  0  0  0  0  0  0  0  0  0
   -2.0022   -2.5434   -0.7062 C   0  0  0  0  0  0  0  0  0  0  0  0
   -2.6406   -2.2441    0.6541 C   0  0  0  0  0  0  0  0  0  0  0  0
   -0.4754   -2.4351   -0.6875 C   0  0  0  0  0  0  0  0  0  0  0  0
   -4.9760   -1.3680    0.9263 C   0  0  0  0  0  0  0  0  0  0  0  0
   -4.1362   -2.3725    0.6358 C   0  0  0  0  0  0  0  0  0  0  0  0
    0.1205   -2.7510   -2.0504 C   0  0  0  0  0  0  0  0  0  0  0  0
    5.8929   -0.2839    0.8241 C   0  0  0  0  0  0  0  0  0  0  0  0
    6.9955   -1.1325    0.2672 C   0  0  0  0  0  0  0  0  0  0  0  0
    0.9348    2.0167   -2.4569 H   0  0  0  0  0  0  0  0  0  0  0  0
    0.1605    0.5778   -1.8167 H   0  0  0  0  0  0  0  0  0  0  0  0
    1.8349    2.5423   -0.1780 H   0  0  0  0  0  0  0  0  0  0  0  0
    1.0841    1.0770    0.4513 H   0  0  0  0  0  0  0  0  0  0  0  0
   -1.4446    2.3932   -2.1051 H   0  0  0  0  0  0  0  0  0  0  0  0
   -0.4802    3.4693   -1.1060 H   0  0  0  0  0  0  0  0  0  0  0  0
    2.4628   -0.3150   -1.1096 H   0  0  0  0  0  0  0  0  0  0  0  0
    3.2327    1.1309   -1.7261 H   0  0  0  0  0  0  0  0  0  0  0  0
   -1.8291    0.9159   -0.1068 H   0  0  0  0  0  0  0  0  0  0  0  0
   -0.9109    2.0235    0.8874 H   0  0  0  0  0  0  0  0  0  0  0  0
    4.1228    1.6521    0.5458 H   0  0  0  0  0  0  0  0  0  0  0  0
    3.3245    0.1907    1.1856 H   0  0  0  0  0  0  0  0  0  0  0  0
   -2.5643    3.8916    0.5028 H   0  0  0  0  0  0  0  0  0  0  0  0
   -3.8957    0.5255   -0.6964 H   0  0  0  0  0  0  0  0  0  0  0  0
   -5.5017    1.0472   -0.3106 H   0  0  0  0  0  0  0  0  0  0  0  0
   -4.7912    3.1057    0.5835 H   0  0  0  0  0  0  0  0  0  0  0  0
   -3.5719    0.0207    1.8384 H   0  0  0  0  0  0  0  0  0  0  0  0
   -5.2471    0.4021    2.0421 H   0  0  0  0  0  0  0  0  0  0  0  0
   -2.2891   -3.5523   -1.0298 H   0  0  0  0  0  0  0  0  0  0  0  0
   -2.4024   -1.8464   -1.4540 H   0  0  0  0  0  0  0  0  0  0  0  0
   -2.2885   -1.2660    0.9862 H   0  0  0  0  0  0  0  0  0  0  0  0
   -2.2576   -2.9635    1.3891 H   0  0  0  0  0  0  0  0  0  0  0  0
   -0.0648   -3.1296    0.0545 H   0  0  0  0  0  0  0  0  0  0  0  0
   -0.1776   -1.4255   -0.3839 H   0  0  0  0  0  0  0  0  0  0  0  0
   -6.0464   -1.5482    0.8736 H   0  0  0  0  0  0  0  0  0  0  0  0
   -4.5523   -3.3408    0.3704 H   0  0  0  0  0  0  0  0  0  0  0  0
   -0.1338   -3.7684   -2.3641 H   0  0  0  0  0  0  0  0  0  0  0  0
   -0.2477   -2.0540   -2.8100 H   0  0  0  0  0  0  0  0  0  0  0  0
    1.2113   -2.6687   -2.0147 H   0  0  0  0  0  0  0  0  0  0  0  0
    7.4170   -0.6557   -0.6212 H   0  0  0  0  0  0  0  0  0  0  0  0
    7.7864   -1.2366    1.0154 H   0  0  0  0  0  0  0  0  0  0  0  0
    6.6115   -2.1267    0.0257 H   0  0  0  0  0  0  0  0  0  0  0  0
  1  8  1  0  0  0  0
  1 19  1  0  0  0  0
  2 19  2  0  0  0  0
  3  4  1  0  0  0  0
  3  5  1  0  0  0  0
  3 21  1  0  0  0  0
  3 22  1  0  0  0  0
  4  6  1  0  0  0  0
  4 23  1  0  0  0  0
  4 24  1  0  0  0  0
  5  7  1  0  0  0  0
  5 25  1  0  0  0  0
  5 26  1  0  0  0  0
  6  8  1  0  0  0  0
  6 27  1  0  0  0  0
  6 28  1  0  0  0  0
  7  9  1  0  0  0  0
  7 29  1  0  0  0  0
  7 30  1  0  0  0  0
  8 31  1  0  0  0  0
  8 32  1  0  0  0  0
  9 11  2  0  0  0  0
  9 33  1  0  0  0  0
 10 11  1  0  0  0  0
 10 12  1  0  0  0  0
 10 34  1  0  0  0  0
 10 35  1  0  0  0  0
 11 36  1  0  0  0  0
 12 16  1  0  0  0  0
 12 37  1  0  0  0  0
 12 38  1  0  0  0  0
 13 14  1  0  0  0  0
 13 15  1  0  0  0  0
 13 39  1  0  0  0  0
 13 40  1  0  0  0  0
 14 17  1  0  0  0  0
 14 41  1  0  0  0  0
 14 42  1  0  0  0  0
 15 18  1  0  0  0  0
 15 43  1  0  0  0  0
 15 44  1  0  0  0  0
 16 17  2  0  0  0  0
 16 45  1  0  0  0  0
 17 46  1  0  0  0  0
 18 47  1  0  0  0  0
 18 48  1  0  0  0  0
 18 49  1  0  0  0  0
 19 20  1  0  0  0  0
 20 50  1  0  0  0  0
 20 51  1  0  0  0  0
 20 52  1  0  0  0  0
M  END
> <PUBCHEM_COMPOUND_CID>
5363265

> <PUBCHEM_CONFORMER_RMSD>
1.4

> <PUBCHEM_CONFORMER_DIVERSEORDER>
6
86
12
111
102
63
108
74
104
54
77
57
70
46
75
22
89
7
93
79
48
5
99
98
55
37
39
110
90
14
50
32
30
9
49
103
24
10
58
109
83
36
65
67
35
69
23
40
27
96
94
68
21
51
101
85
28
18
66
52
44
56
88
1
17
38
59
71
11
3
2
15
80
81
47
25
33
97
62
31
42
45
92
64
72
91
107
53
13
84
87
60
43
41
73
8
100
61
4
105
95
78
76
106
82
20
19
26
16
29
34

> <PUBCHEM_MMFF94_PARTIAL_CHARGES>
17
1 -0.43
10 0.14
11 -0.29
12 0.14
14 0.14
16 -0.29
17 -0.29
19 0.66
2 -0.57
20 0.06
33 0.15
36 0.15
45 0.15
46 0.15
7 0.14
8 0.28
9 -0.29

> <PUBCHEM_EFFECTIVE_ROTOR_COUNT>
14

> <PUBCHEM_PHARMACOPHORE_FEATURES>
6
1 18 hydrophobe
1 2 acceptor
3 3 4 6 hydrophobe
3 5 7 9 hydrophobe
4 10 11 12 16 hydrophobe
4 13 14 15 17 hydrophobe

> <PUBCHEM_HEAVY_ATOM_COUNT>
20

> <PUBCHEM_ATOM_DEF_STEREO_COUNT>
0

> <PUBCHEM_ATOM_UDEF_STEREO_COUNT>
0

> <PUBCHEM_BOND_DEF_STEREO_COUNT>
2

> <PUBCHEM_BOND_UDEF_STEREO_COUNT>
0

> <PUBCHEM_ISOTOPIC_ATOM_COUNT>
0

> <PUBCHEM_COMPONENT_COUNT>
1

> <PUBCHEM_CACTVS_TAUTO_COUNT>
1

> <PUBCHEM_CONFORMER_ID>
0051D64100000006

> <PUBCHEM_MMFF94_ENERGY>
7.7006

> <PUBCHEM_FEATURE_SELFOVERLAP>
30.45

> <PUBCHEM_SHAPE_FINGERPRINT>
10759866 29 17609517260222560413
10939801 23 18194126437507177172
11524674 6 18059850627994124509
12422481 6 18411420575183417906
12523318 42 18412262818080539257
12633257 1 17560245863152966696
12717326 150 15505714714065489826
12838863 1 18339917217080000391
12839892 36 18410297986395277613
14251751 18 18411139164467628568
14251764 30 15864069926727380907
14647877 51 17981897345318931302
15042514 8 18335139774057511812
16110190 28 18337110167798364940
19319366 153 16747359531027132325
21795232 338 18272081743734608206
229767 44 18413108393982674398
238918 7 18201447955912409431
559249 180 17967816025173382641

> <PUBCHEM_SHAPE_MULTIPOLES>
399.85
14.51
3.91
1.49
24.85
0.66
0.25
3.03
-8.66
-4.84
1.17
0.65
0.4
0.16

> <PUBCHEM_SHAPE_SELFOVERLAP>
738.454

> <PUBCHEM_SHAPE_VOLUME>
250.9

> <PUBCHEM_COORDINATE_TYPE>
2
5
10

$$$$
