544776
  -OEChem-08272006163D

 21 21  0     1  0  0  0  0  0999 V2000
    0.2208   -1.5643   -0.0035 O   0  0  0  0  0  0  0  0  0  0  0  0
    2.3499   -0.8626    0.2934 O   0  0  0  0  0  0  0  0  0  0  0  0
   -1.6000    0.0021    0.3951 C   0  0  2  0  0  0  0  0  0  0  0  0
   -0.5629    1.1362    0.3930 C   0  0  0  0  0  0  0  0  0  0  0  0
    0.6992    0.7779   -0.3958 C   0  0  2  0  0  0  0  0  0  0  0  0
   -1.1103   -1.1974   -0.4104 C   0  0  0  0  0  0  0  0  0  0  0  0
   -2.9631    0.4759   -0.1000 C   0  0  0  0  0  0  0  0  0  0  0  0
    1.1860   -0.6031    0.0085 C   0  0  0  0  0  0  0  0  0  0  0  0
    1.7804    1.8352   -0.1802 C   0  0  0  0  0  0  0  0  0  0  0  0
   -1.7171   -0.3226    1.4381 H   0  0  0  0  0  0  0  0  0  0  0  0
   -0.2950    1.3550    1.4358 H   0  0  0  0  0  0  0  0  0  0  0  0
   -0.9917    2.0632   -0.0077 H   0  0  0  0  0  0  0  0  0  0  0  0
    0.4772    0.7450   -1.4699 H   0  0  0  0  0  0  0  0  0  0  0  0
   -1.7557   -2.0638   -0.2297 H   0  0  0  0  0  0  0  0  0  0  0  0
   -1.1126   -1.0113   -1.4909 H   0  0  0  0  0  0  0  0  0  0  0  0
   -3.3334    1.3029    0.5149 H   0  0  0  0  0  0  0  0  0  0  0  0
   -2.9097    0.8214   -1.1381 H   0  0  0  0  0  0  0  0  0  0  0  0
   -3.6980   -0.3343   -0.0499 H   0  0  0  0  0  0  0  0  0  0  0  0
    1.4230    2.8256   -0.4806 H   0  0  0  0  0  0  0  0  0  0  0  0
    2.0866    1.8857    0.8706 H   0  0  0  0  0  0  0  0  0  0  0  0
    2.6728    1.6060   -0.7728 H   0  0  0  0  0  0  0  0  0  0  0  0
  1  6  1  0  0  0  0
  1  8  1  0  0  0  0
  2  8  2  0  0  0  0
  3  4  1  0  0  0  0
  3  6  1  0  0  0  0
  3  7  1  0  0  0  0
  3 10  1  0  0  0  0
  4  5  1  0  0  0  0
  4 11  1  0  0  0  0
  4 12  1  0  0  0  0
  5  8  1  0  0  0  0
  5  9  1  0  0  0  0
  5 13  1  0  0  0  0
  6 14  1  0  0  0  0
  6 15  1  0  0  0  0
  7 16  1  0  0  0  0
  7 17  1  0  0  0  0
  7 18  1  0  0  0  0
  9 19  1  0  0  0  0
  9 20  1  0  0  0  0
  9 21  1  0  0  0  0
M  END
> <PUBCHEM_COMPOUND_CID>
544776

> <PUBCHEM_CONFORMER_RMSD>
0.4

> <PUBCHEM_CONFORMER_DIVERSEORDER>
1
2
3
6
7
4
5
8

> <PUBCHEM_MMFF94_PARTIAL_CHARGES>
5
1 -0.43
2 -0.57
5 0.06
6 0.28
8 0.66

> <PUBCHEM_EFFECTIVE_ROTOR_COUNT>
1

> <PUBCHEM_PHARMACOPHORE_FEATURES>
2
1 2 acceptor
6 1 3 4 5 6 8 rings

> <PUBCHEM_HEAVY_ATOM_COUNT>
9

> <PUBCHEM_ATOM_DEF_STEREO_COUNT>
0

> <PUBCHEM_ATOM_UDEF_STEREO_COUNT>
2

> <PUBCHEM_BOND_DEF_STEREO_COUNT>
0

> <PUBCHEM_BOND_UDEF_STEREO_COUNT>
0

> <PUBCHEM_ISOTOPIC_ATOM_COUNT>
0

> <PUBCHEM_COMPONENT_COUNT>
1

> <PUBCHEM_CACTVS_TAUTO_COUNT>
1

> <PUBCHEM_CONFORMER_ID>
0008500800000001

> <PUBCHEM_MMFF94_ENERGY>
15.8257

> <PUBCHEM_FEATURE_SELFOVERLAP>
10.148

> <PUBCHEM_SHAPE_FINGERPRINT>
12423570 1 9967298915600701445
16945 1 18338520733483805979
18185500 45 18412544284282055419
21040471 1 18267025152948813708
23552423 10 18263643025227760534
241688 4 17547300999084161427
2748010 2 18338803441026446935
29004967 10 18115595837515631571
5084963 1 18130788910715746305

> <PUBCHEM_SHAPE_MULTIPOLES>
173.48
3.2
1.72
0.68
1.07
0.05
0.01
0.57
0
-0.65
0.06
0.04
0.03
-0.23

> <PUBCHEM_SHAPE_SELFOVERLAP>
340.591

> <PUBCHEM_SHAPE_VOLUME>
103.7

> <PUBCHEM_COORDINATE_TYPE>
2
5
10

$$$$
