20949
  -OEChem-08272009393D

 23 23  0     0  0  0  0  0  0999 V2000
    1.1768   -0.2004   -0.6124 O   0  0  0  0  0  0  0  0  0  0  0  0
   -0.6357   -2.2860   -0.3100 O   0  0  0  0  0  0  0  0  0  0  0  0
    2.1658    0.2426    0.3149 C   0  0  0  0  0  0  0  0  0  0  0  0
    2.9384   -0.9598    0.8354 C   0  0  0  0  0  0  0  0  0  0  0  0
    3.0780    1.2498   -0.3687 C   0  0  0  0  0  0  0  0  0  0  0  0
   -0.1242    0.0529   -0.2982 C   0  0  0  0  0  0  0  0  0  0  0  0
   -1.0340   -0.9937   -0.1471 C   0  0  0  0  0  0  0  0  0  0  0  0
   -0.5443    1.3722   -0.1277 C   0  0  0  0  0  0  0  0  0  0  0  0
   -2.3636   -0.7209    0.1746 C   0  0  0  0  0  0  0  0  0  0  0  0
   -1.8738    1.6449    0.1940 C   0  0  0  0  0  0  0  0  0  0  0  0
   -2.7834    0.5983    0.3451 C   0  0  0  0  0  0  0  0  0  0  0  0
    1.7056    0.7322    1.1840 H   0  0  0  0  0  0  0  0  0  0  0  0
    3.7111   -0.6596    1.5497 H   0  0  0  0  0  0  0  0  0  0  0  0
    2.2610   -1.6646    1.3296 H   0  0  0  0  0  0  0  0  0  0  0  0
    3.4135   -1.5051    0.0124 H   0  0  0  0  0  0  0  0  0  0  0  0
    3.8541    1.6103    0.3134 H   0  0  0  0  0  0  0  0  0  0  0  0
    2.5081    2.1110   -0.7316 H   0  0  0  0  0  0  0  0  0  0  0  0
    3.5626    0.8041   -1.2446 H   0  0  0  0  0  0  0  0  0  0  0  0
    0.1463    2.2012   -0.2514 H   0  0  0  0  0  0  0  0  0  0  0  0
   -3.0773   -1.5315    0.2939 H   0  0  0  0  0  0  0  0  0  0  0  0
   -2.2015    2.6721    0.3245 H   0  0  0  0  0  0  0  0  0  0  0  0
   -3.8189    0.8107    0.5950 H   0  0  0  0  0  0  0  0  0  0  0  0
    0.3127   -2.2886   -0.5278 H   0  0  0  0  0  0  0  0  0  0  0  0
  1  3  1  0  0  0  0
  1  6  1  0  0  0  0
  2  7  1  0  0  0  0
  2 23  1  0  0  0  0
  3  4  1  0  0  0  0
  3  5  1  0  0  0  0
  3 12  1  0  0  0  0
  4 13  1  0  0  0  0
  4 14  1  0  0  0  0
  4 15  1  0  0  0  0
  5 16  1  0  0  0  0
  5 17  1  0  0  0  0
  5 18  1  0  0  0  0
  6  7  1  0  0  0  0
  6  8  2  0  0  0  0
  7  9  2  0  0  0  0
  8 10  1  0  0  0  0
  8 19  1  0  0  0  0
  9 11  1  0  0  0  0
  9 20  1  0  0  0  0
 10 11  2  0  0  0  0
 10 21  1  0  0  0  0
 11 22  1  0  0  0  0
M  END
> <PUBCHEM_COMPOUND_CID>
20949

> <PUBCHEM_CONFORMER_RMSD>
0.4

> <PUBCHEM_CONFORMER_DIVERSEORDER>
1
11
13
5
10
7
12
8
9
4
3
2
6

> <PUBCHEM_MMFF94_PARTIAL_CHARGES>
14
1 -0.36
10 -0.15
11 -0.15
19 0.15
2 -0.53
20 0.15
21 0.15
22 0.15
23 0.45
3 0.28
6 0.08
7 0.08
8 -0.15
9 -0.15

> <PUBCHEM_EFFECTIVE_ROTOR_COUNT>
2

> <PUBCHEM_PHARMACOPHORE_FEATURES>
4
1 1 acceptor
1 2 donor
3 3 4 5 hydrophobe
6 6 7 8 9 10 11 rings

> <PUBCHEM_HEAVY_ATOM_COUNT>
11

> <PUBCHEM_ATOM_DEF_STEREO_COUNT>
0

> <PUBCHEM_ATOM_UDEF_STEREO_COUNT>
0

> <PUBCHEM_BOND_DEF_STEREO_COUNT>
0

> <PUBCHEM_BOND_UDEF_STEREO_COUNT>
0

> <PUBCHEM_ISOTOPIC_ATOM_COUNT>
0

> <PUBCHEM_COMPONENT_COUNT>
1

> <PUBCHEM_CACTVS_TAUTO_COUNT>
3

> <PUBCHEM_CONFORMER_ID>
000051D500000001

> <PUBCHEM_MMFF94_ENERGY>
31.7234

> <PUBCHEM_FEATURE_SELFOVERLAP>
20.297

> <PUBCHEM_SHAPE_FINGERPRINT>
10857977 72 18343017821977796105
12251169 10 18408878521516350720
12932764 1 17749388135661659548
13024252 1 14923939050938327285
14144814 61 18409448081282080632
14325111 11 18410857633387135176
15076042 46 18410292471673028792
15669948 3 18269835466310083366
15775835 57 18408610249005604232
16945 1 18342455992921031669
193761 8 17547854513500731437
20645464 45 17918270944023446514
20871998 184 18129106795443765719
21040471 1 18340496564495156493
22445834 79 18041553633795962538
23463225 33 18335137531941853026
23552423 10 17902231439990764693
2748010 2 18050581638119938615
29004967 10 15502374538799148300
369184 2 18187080650435899665
5084963 1 17987802895264385176

> <PUBCHEM_SHAPE_MULTIPOLES>
214.64
4.66
1.82
0.75
2.36
0.34
-0.05
-0.68
-0.75
-0.33
0.09
0.2
0.04
-0.46

> <PUBCHEM_SHAPE_SELFOVERLAP>
436.673

> <PUBCHEM_SHAPE_VOLUME>
126

> <PUBCHEM_COORDINATE_TYPE>
2
5
10

$$$$
