9601757
  -OEChem-08272004463D

 24 23  0     0  0  0  0  0  0999 V2000
   -2.4437   -1.8736    0.1857 O   0  0  0  0  0  0  0  0  0  0  0  0
   -1.3428   -1.1716   -0.3104 N   0  0  0  0  0  0  0  0  0  0  0  0
   -0.1815    0.9877   -0.0084 C   0  0  0  0  0  0  0  0  0  0  0  0
    1.1220    0.3394   -0.5373 C   0  0  0  0  0  0  0  0  0  0  0  0
    1.7755   -0.6722    0.4130 C   0  0  0  0  0  0  0  0  0  0  0  0
   -0.7636    1.9008   -1.1006 C   0  0  0  0  0  0  0  0  0  0  0  0
    0.0743    1.8225    1.2548 C   0  0  0  0  0  0  0  0  0  0  0  0
   -1.2586   -0.0422    0.3133 C   0  0  0  0  0  0  0  0  0  0  0  0
    3.0186   -1.2909   -0.2101 C   0  0  0  0  0  0  0  0  0  0  0  0
    1.8493    1.1298   -0.7668 H   0  0  0  0  0  0  0  0  0  0  0  0
    0.9140   -0.1675   -1.4895 H   0  0  0  0  0  0  0  0  0  0  0  0
    2.0655   -0.1779    1.3464 H   0  0  0  0  0  0  0  0  0  0  0  0
    1.0807   -1.4757    0.6752 H   0  0  0  0  0  0  0  0  0  0  0  0
   -1.7038    2.3622   -0.7759 H   0  0  0  0  0  0  0  0  0  0  0  0
   -0.9813    1.3375   -2.0155 H   0  0  0  0  0  0  0  0  0  0  0  0
   -0.0656    2.7052   -1.3581 H   0  0  0  0  0  0  0  0  0  0  0  0
    0.3578    1.1914    2.1041 H   0  0  0  0  0  0  0  0  0  0  0  0
    0.8724    2.5547    1.0913 H   0  0  0  0  0  0  0  0  0  0  0  0
   -0.8251    2.3718    1.5577 H   0  0  0  0  0  0  0  0  0  0  0  0
   -2.0089    0.2423    1.0748 H   0  0  0  0  0  0  0  0  0  0  0  0
    3.4778   -2.0005    0.4854 H   0  0  0  0  0  0  0  0  0  0  0  0
    3.7607   -0.5231   -0.4509 H   0  0  0  0  0  0  0  0  0  0  0  0
    2.7695   -1.8299   -1.1297 H   0  0  0  0  0  0  0  0  0  0  0  0
   -2.4098   -2.6888   -0.3428 H   0  0  0  0  0  0  0  0  0  0  0  0
  1  2  1  0  0  0  0
  1 24  1  0  0  0  0
  2  8  2  0  0  0  0
  3  4  1  0  0  0  0
  3  6  1  0  0  0  0
  3  7  1  0  0  0  0
  3  8  1  0  0  0  0
  4  5  1  0  0  0  0
  4 10  1  0  0  0  0
  4 11  1  0  0  0  0
  5  9  1  0  0  0  0
  5 12  1  0  0  0  0
  5 13  1  0  0  0  0
  6 14  1  0  0  0  0
  6 15  1  0  0  0  0
  6 16  1  0  0  0  0
  7 17  1  0  0  0  0
  7 18  1  0  0  0  0
  7 19  1  0  0  0  0
  8 20  1  0  0  0  0
  9 21  1  0  0  0  0
  9 22  1  0  0  0  0
  9 23  1  0  0  0  0
M  END
> <PUBCHEM_COMPOUND_CID>
9601757

> <PUBCHEM_CONFORMER_RMSD>
0.6

> <PUBCHEM_CONFORMER_DIVERSEORDER>
1
4
5
6
3
2

> <PUBCHEM_MMFF94_PARTIAL_CHARGES>
6
1 -0.34
2 -0.51
20 0.06
24 0.4
3 0.06
8 0.33

> <PUBCHEM_EFFECTIVE_ROTOR_COUNT>
3

> <PUBCHEM_PHARMACOPHORE_FEATURES>
4
1 1 anion
1 2 acceptor
1 9 hydrophobe
3 3 6 7 hydrophobe

> <PUBCHEM_HEAVY_ATOM_COUNT>
9

> <PUBCHEM_ATOM_DEF_STEREO_COUNT>
0

> <PUBCHEM_ATOM_UDEF_STEREO_COUNT>
0

> <PUBCHEM_BOND_DEF_STEREO_COUNT>
1

> <PUBCHEM_BOND_UDEF_STEREO_COUNT>
0

> <PUBCHEM_ISOTOPIC_ATOM_COUNT>
0

> <PUBCHEM_COMPONENT_COUNT>
1

> <PUBCHEM_CACTVS_TAUTO_COUNT>
2

> <PUBCHEM_CONFORMER_ID>
009282DD00000001

> <PUBCHEM_MMFF94_ENERGY>
13.1929

> <PUBCHEM_FEATURE_SELFOVERLAP>
20.297

> <PUBCHEM_SHAPE_FINGERPRINT>
12932764 1 17898023326293421110
13024252 1 14925380428967310060
137420 1 13033526967867459161
14128692 85 18334584567903426558
18185500 45 18336273434737967590
20653091 64 18051708929321982499
20711978 78 17913754274636592525
20711985 344 18188475892105283659
21040471 1 17758667854764986164
23552423 10 18186524310642797350
23552449 11 17843405334722039299
29004967 10 17971473150474369033

> <PUBCHEM_SHAPE_MULTIPOLES>
174.37
3.15
2.16
1.01
3.06
0.48
-0.06
1.72
0.23
-1.62
-0.11
-0.17
-0.55
0.2

> <PUBCHEM_SHAPE_SELFOVERLAP>
317.784

> <PUBCHEM_SHAPE_VOLUME>
112.7

> <PUBCHEM_COORDINATE_TYPE>
2
5
10

$$$$
