524765
  -OEChem-08272004193D

 19 18  0     0  0  0  0  0  0999 V2000
   -2.3047    1.8054    0.0375 N   0  0  0  0  0  0  0  0  0  0  0  0
    1.1659    0.0016   -0.2209 C   0  0  0  0  0  0  0  0  0  0  0  0
    2.5630   -0.1978    0.3683 C   0  0  0  0  0  0  0  0  0  0  0  0
    0.1124   -0.7772    0.5740 C   0  0  0  0  0  0  0  0  0  0  0  0
    3.6085    0.5998   -0.3949 C   0  0  0  0  0  0  0  0  0  0  0  0
   -1.2811   -0.5719    0.0298 C   0  0  0  0  0  0  0  0  0  0  0  0
   -2.0153   -1.5984   -0.4264 C   0  0  0  0  0  0  0  0  0  0  0  0
   -1.8486    0.7385    0.0326 C   0  0  0  0  0  0  0  0  0  0  0  0
    1.1580   -0.3271   -1.2679 H   0  0  0  0  0  0  0  0  0  0  0  0
    0.9284    1.0726   -0.2189 H   0  0  0  0  0  0  0  0  0  0  0  0
    2.8298   -1.2606    0.3419 H   0  0  0  0  0  0  0  0  0  0  0  0
    2.5721    0.1136    1.4193 H   0  0  0  0  0  0  0  0  0  0  0  0
    0.1308   -0.4571    1.6239 H   0  0  0  0  0  0  0  0  0  0  0  0
    0.3752   -1.8428    0.5722 H   0  0  0  0  0  0  0  0  0  0  0  0
    3.3889    1.6716   -0.3579 H   0  0  0  0  0  0  0  0  0  0  0  0
    4.5995    0.4410    0.0417 H   0  0  0  0  0  0  0  0  0  0  0  0
    3.6465    0.2928   -1.4450 H   0  0  0  0  0  0  0  0  0  0  0  0
   -1.6249   -2.6110   -0.4330 H   0  0  0  0  0  0  0  0  0  0  0  0
   -3.0228   -1.4570   -0.8061 H   0  0  0  0  0  0  0  0  0  0  0  0
  1  8  3  0  0  0  0
  2  3  1  0  0  0  0
  2  4  1  0  0  0  0
  2  9  1  0  0  0  0
  2 10  1  0  0  0  0
  3  5  1  0  0  0  0
  3 11  1  0  0  0  0
  3 12  1  0  0  0  0
  4  6  1  0  0  0  0
  4 13  1  0  0  0  0
  4 14  1  0  0  0  0
  5 15  1  0  0  0  0
  5 16  1  0  0  0  0
  5 17  1  0  0  0  0
  6  7  2  0  0  0  0
  6  8  1  0  0  0  0
  7 18  1  0  0  0  0
  7 19  1  0  0  0  0
M  END
> <PUBCHEM_COMPOUND_CID>
524765

> <PUBCHEM_CONFORMER_RMSD>
0.6

> <PUBCHEM_CONFORMER_DIVERSEORDER>
1
18
14
11
21
22
2
10
20
9
19
16
15
17
3
8
4
6
12
5
13
7

> <PUBCHEM_MMFF94_PARTIAL_CHARGES>
7
1 -0.56
18 0.15
19 0.15
4 0.14
6 -0.07
7 -0.3
8 0.49

> <PUBCHEM_EFFECTIVE_ROTOR_COUNT>
3

> <PUBCHEM_PHARMACOPHORE_FEATURES>
4
1 1 acceptor
1 5 hydrophobe
1 7 hydrophobe
4 2 3 4 6 hydrophobe

> <PUBCHEM_HEAVY_ATOM_COUNT>
8

> <PUBCHEM_ATOM_DEF_STEREO_COUNT>
0

> <PUBCHEM_ATOM_UDEF_STEREO_COUNT>
0

> <PUBCHEM_BOND_DEF_STEREO_COUNT>
0

> <PUBCHEM_BOND_UDEF_STEREO_COUNT>
0

> <PUBCHEM_ISOTOPIC_ATOM_COUNT>
0

> <PUBCHEM_COMPONENT_COUNT>
1

> <PUBCHEM_CACTVS_TAUTO_COUNT>
1

> <PUBCHEM_CONFORMER_ID>
000801DD00000001

> <PUBCHEM_MMFF94_ENERGY>
0.7007

> <PUBCHEM_FEATURE_SELFOVERLAP>
20.299

> <PUBCHEM_SHAPE_FINGERPRINT>
12716758 59 18272930492589317330
12897270 3 18269831068063235470
12932741 1 17275095159136220762
12932764 1 17989204884602074618
14325111 11 18409730664560794138
14390081 3 18411416224291519104
15310529 11 18273214218239764830
19973954 147 18340767156109511856
20653085 51 18337966583949944912
21040471 1 18196926682815907491
3248919 1 17676767660584998370

> <PUBCHEM_SHAPE_MULTIPOLES>
159.66
5
1.49
0.72
4.36
0.3
0.01
1.08
-0.59
-1.5
-0.07
0.09
-0.08
-0.32

> <PUBCHEM_SHAPE_SELFOVERLAP>
290.694

> <PUBCHEM_SHAPE_VOLUME>
100.5

> <PUBCHEM_COORDINATE_TYPE>
2
5
10

$$$$
