70633
  -OEChem-08272011253D

 17 17  0     0  0  0  0  0  0999 V2000
    3.4391    0.0322   -0.0001 O   0  5  0  0  0  0  0  0  0  0  0  0
   -2.5613    1.4946   -0.0002 O   0  5  0  0  0  0  0  0  0  0  0  0
   -2.7182   -0.6950    0.0000 O   0  0  0  0  0  0  0  0  0  0  0  0
    2.1674    0.1020    0.0000 N   0  3  0  0  0  0  0  0  0  0  0  0
   -2.0354    0.3566    0.0002 N   0  3  0  0  0  0  0  0  0  0  0  0
    0.0120   -0.9852    0.0003 C   0  0  0  0  0  0  0  0  0  0  0  0
   -0.6169    0.2550    0.0003 C   0  0  0  0  0  0  0  0  0  0  0  0
    1.4015   -1.0478    0.0001 C   0  0  0  0  0  0  0  0  0  0  0  0
    0.1444    1.4189    0.0000 C   0  0  0  0  0  0  0  0  0  0  0  0
   -0.7651   -2.2602   -0.0003 C   0  0  0  0  0  0  0  0  0  0  0  0
    1.5325    1.3290   -0.0002 C   0  0  0  0  0  0  0  0  0  0  0  0
    1.9747   -1.9644    0.0000 H   0  0  0  0  0  0  0  0  0  0  0  0
   -0.3017    2.4093   -0.0001 H   0  0  0  0  0  0  0  0  0  0  0  0
   -0.0809   -3.1191   -0.0005 H   0  0  0  0  0  0  0  0  0  0  0  0
   -1.3637   -2.3768    0.9091 H   0  0  0  0  0  0  0  0  0  0  0  0
   -1.3632   -2.3761   -0.9102 H   0  0  0  0  0  0  0  0  0  0  0  0
    2.1923    2.1844   -0.0003 H   0  0  0  0  0  0  0  0  0  0  0  0
  1  4  1  0  0  0  0
  2  5  1  0  0  0  0
  3  5  2  0  0  0  0
  4  8  2  0  0  0  0
  4 11  1  0  0  0  0
  5  7  1  0  0  0  0
  6  7  2  0  0  0  0
  6  8  1  0  0  0  0
  6 10  1  0  0  0  0
  7  9  1  0  0  0  0
  8 12  1  0  0  0  0
  9 11  2  0  0  0  0
  9 13  1  0  0  0  0
 10 14  1  0  0  0  0
 10 15  1  0  0  0  0
 10 16  1  0  0  0  0
 11 17  1  0  0  0  0
M  CHG  4   1  -1   2  -1   4   1   5   1
M  END
> <PUBCHEM_COMPOUND_CID>
70633

> <PUBCHEM_CONFORMER_RMSD>
0.4

> <PUBCHEM_CONFORMER_DIVERSEORDER>
1

> <PUBCHEM_MMFF94_PARTIAL_CHARGES>
14
1 -0.75
10 0.14
11 -0.06
12 0.15
13 0.15
17 0.15
2 -0.52
3 -0.52
4 0.57
5 0.91
6 -0.14
7 0.13
8 -0.06
9 -0.15

> <PUBCHEM_EFFECTIVE_ROTOR_COUNT>
1

> <PUBCHEM_PHARMACOPHORE_FEATURES>
5
1 1 anion
1 2 acceptor
1 2 anion
1 3 acceptor
6 4 6 7 8 9 11 rings

> <PUBCHEM_HEAVY_ATOM_COUNT>
11

> <PUBCHEM_ATOM_DEF_STEREO_COUNT>
0

> <PUBCHEM_ATOM_UDEF_STEREO_COUNT>
0

> <PUBCHEM_BOND_DEF_STEREO_COUNT>
0

> <PUBCHEM_BOND_UDEF_STEREO_COUNT>
0

> <PUBCHEM_ISOTOPIC_ATOM_COUNT>
0

> <PUBCHEM_COMPONENT_COUNT>
1

> <PUBCHEM_CACTVS_TAUTO_COUNT>
1

> <PUBCHEM_CONFORMER_ID>
000113E900000001

> <PUBCHEM_MMFF94_ENERGY>
37.3541

> <PUBCHEM_FEATURE_SELFOVERLAP>
25.453

> <PUBCHEM_SHAPE_FINGERPRINT>
14325111 11 18410573972424960704
16945 1 18338797921972385414
193761 8 17834114521454455876
20871998 184 18128823129854412006
21040471 1 18410575106254011904
23235685 24 18412258411374904168
23402655 69 18196637516096699757
23552423 10 17900257803950003254
23559900 14 18343026576186431092
241688 4 16105009891240722739
2748010 2 18266462005432132726
5084963 1 18201720686488172505
528886 8 18338792317119257033

> <PUBCHEM_SHAPE_MULTIPOLES>
198.8
3.72
1.92
0.57
0.64
0.48
0
-0.54
0
-0.59
0
0.02
0.01
0

> <PUBCHEM_SHAPE_SELFOVERLAP>
416.302

> <PUBCHEM_SHAPE_VOLUME>
113

> <PUBCHEM_COORDINATE_TYPE>
2
5
10

$$$$
