593005
  -OEChem-08272011023D

 21 21  0     0  0  0  0  0  0999 V2000
    1.5632    1.5932   -0.0008 O   0  0  0  0  0  0  0  0  0  0  0  0
   -2.6174   -0.3989    0.0002 O   0  0  0  0  0  0  0  0  0  0  0  0
   -0.5204    0.5932    0.0003 N   0  0  0  0  0  0  0  0  0  0  0  0
    2.8651   -0.8934    0.0011 N   0  0  0  0  0  0  0  0  0  0  0  0
    1.4627   -0.7896    0.0003 C   0  0  0  0  0  0  0  0  0  0  0  0
    0.8227    0.4393    0.0004 C   0  0  0  0  0  0  0  0  0  0  0  0
    0.6735   -1.9342   -0.0005 C   0  0  0  0  0  0  0  0  0  0  0  0
   -1.2547   -0.5418   -0.0004 C   0  0  0  0  0  0  0  0  0  0  0  0
   -0.7121   -1.8166   -0.0009 C   0  0  0  0  0  0  0  0  0  0  0  0
    0.8391    2.8175   -0.0005 C   0  0  0  0  0  0  0  0  0  0  0  0
   -3.1217    0.9314    0.0008 C   0  0  0  0  0  0  0  0  0  0  0  0
    1.1256   -2.9225   -0.0007 H   0  0  0  0  0  0  0  0  0  0  0  0
   -1.3417   -2.6997   -0.0013 H   0  0  0  0  0  0  0  0  0  0  0  0
    3.4324   -0.0561    0.0010 H   0  0  0  0  0  0  0  0  0  0  0  0
    3.3078   -1.8026    0.0003 H   0  0  0  0  0  0  0  0  0  0  0  0
    0.2258    2.9120    0.9020 H   0  0  0  0  0  0  0  0  0  0  0  0
    0.2247    2.9117   -0.9022 H   0  0  0  0  0  0  0  0  0  0  0  0
    1.5644    3.6367   -0.0010 H   0  0  0  0  0  0  0  0  0  0  0  0
   -2.8103    1.4691    0.9026 H   0  0  0  0  0  0  0  0  0  0  0  0
   -4.2144    0.8773    0.0009 H   0  0  0  0  0  0  0  0  0  0  0  0
   -2.8106    1.4698   -0.9009 H   0  0  0  0  0  0  0  0  0  0  0  0
  1  6  1  0  0  0  0
  1 10  1  0  0  0  0
  2  8  1  0  0  0  0
  2 11  1  0  0  0  0
  3  6  1  0  0  0  0
  3  8  2  0  0  0  0
  4  5  1  0  0  0  0
  4 14  1  0  0  0  0
  4 15  1  0  0  0  0
  5  6  2  0  0  0  0
  5  7  1  0  0  0  0
  7  9  2  0  0  0  0
  7 12  1  0  0  0  0
  8  9  1  0  0  0  0
  9 13  1  0  0  0  0
 10 16  1  0  0  0  0
 10 17  1  0  0  0  0
 10 18  1  0  0  0  0
 11 19  1  0  0  0  0
 11 20  1  0  0  0  0
 11 21  1  0  0  0  0
M  END
> <PUBCHEM_COMPOUND_CID>
593005

> <PUBCHEM_CONFORMER_RMSD>
0.4

> <PUBCHEM_CONFORMER_DIVERSEORDER>
1
5
3
4
2
6

> <PUBCHEM_MMFF94_PARTIAL_CHARGES>
15
1 -0.36
10 0.28
11 0.28
12 0.15
13 0.15
14 0.4
15 0.4
2 -0.36
3 -0.62
4 -0.9
5 0.1
6 0.39
7 -0.15
8 0.39
9 -0.15

> <PUBCHEM_EFFECTIVE_ROTOR_COUNT>
2

> <PUBCHEM_PHARMACOPHORE_FEATURES>
4
1 1 acceptor
1 4 cation
1 4 donor
6 3 5 6 7 8 9 rings

> <PUBCHEM_HEAVY_ATOM_COUNT>
11

> <PUBCHEM_ATOM_DEF_STEREO_COUNT>
0

> <PUBCHEM_ATOM_UDEF_STEREO_COUNT>
0

> <PUBCHEM_BOND_DEF_STEREO_COUNT>
0

> <PUBCHEM_BOND_UDEF_STEREO_COUNT>
0

> <PUBCHEM_ISOTOPIC_ATOM_COUNT>
0

> <PUBCHEM_COMPONENT_COUNT>
1

> <PUBCHEM_CACTVS_TAUTO_COUNT>
1

> <PUBCHEM_CONFORMER_ID>
00090C6D00000001

> <PUBCHEM_MMFF94_ENERGY>
46.1229

> <PUBCHEM_FEATURE_SELFOVERLAP>
20.297

> <PUBCHEM_SHAPE_FINGERPRINT>
16945 1 18410855447359655239
193761 8 18050286165396761410
19973954 147 18266178516347810219
21040471 1 18194683902116993602
23402655 69 18123735471406120469
23552423 10 18192990649973604918
23559900 14 18053966201832313116
241688 4 17835528119687657618
2748010 2 18265899240199260823
5084963 1 18202562908211072259

> <PUBCHEM_SHAPE_MULTIPOLES>
204.67
3.49
2.57
0.58
1.89
1.42
0
0.18
0
-0.91
0
0.01
-0.01
0

> <PUBCHEM_SHAPE_SELFOVERLAP>
419.684

> <PUBCHEM_SHAPE_VOLUME>
118.9

> <PUBCHEM_COORDINATE_TYPE>
2
5
10

$$$$
