5369930
  -OEChem-08272006223D

 33 32  0     0  0  0  0  0  0999 V2000
    4.3653   -0.0825    0.8036 O   0  0  0  0  0  0  0  0  0  0  0  0
    1.8041    0.9391    0.3362 C   0  0  0  0  0  0  0  0  0  0  0  0
    0.3879    1.3121   -0.0381 C   0  0  0  0  0  0  0  0  0  0  0  0
    2.2349   -0.3823   -0.3008 C   0  0  0  0  0  0  0  0  0  0  0  0
   -0.7043    1.0039    0.6888 C   0  0  0  0  0  0  0  0  0  0  0  0
   -2.1388    1.3405    0.3902 C   0  0  0  0  0  0  0  0  0  0  0  0
    0.2476    2.0875   -1.3226 C   0  0  0  0  0  0  0  0  0  0  0  0
    3.6579   -0.7665    0.0654 C   0  0  0  0  0  0  0  0  0  0  0  0
   -2.7855    0.2847   -0.4615 C   0  0  0  0  0  0  0  0  0  0  0  0
   -3.4735   -0.8010   -0.0588 C   0  0  0  0  0  0  0  0  0  0  0  0
    4.1790   -2.0409   -0.5465 C   0  0  0  0  0  0  0  0  0  0  0  0
   -4.0985   -1.8238   -0.9649 C   0  0  0  0  0  0  0  0  0  0  0  0
   -3.6763   -1.0709    1.4090 C   0  0  0  0  0  0  0  0  0  0  0  0
    1.8825    0.8561    1.4284 H   0  0  0  0  0  0  0  0  0  0  0  0
    2.4896    1.7477    0.0529 H   0  0  0  0  0  0  0  0  0  0  0  0
    1.5741   -1.1930    0.0273 H   0  0  0  0  0  0  0  0  0  0  0  0
    2.1809   -0.3126   -1.3931 H   0  0  0  0  0  0  0  0  0  0  0  0
   -0.5511    0.4315    1.6031 H   0  0  0  0  0  0  0  0  0  0  0  0
   -2.2288    2.3103   -0.1118 H   0  0  0  0  0  0  0  0  0  0  0  0
   -2.6753    1.4880    1.3339 H   0  0  0  0  0  0  0  0  0  0  0  0
    0.7771    1.5717   -2.1311 H   0  0  0  0  0  0  0  0  0  0  0  0
    0.6935    3.0812   -1.2066 H   0  0  0  0  0  0  0  0  0  0  0  0
   -0.7792    2.2226   -1.6670 H   0  0  0  0  0  0  0  0  0  0  0  0
   -2.6618    0.4267   -1.5346 H   0  0  0  0  0  0  0  0  0  0  0  0
    5.1970   -2.2299   -0.1948 H   0  0  0  0  0  0  0  0  0  0  0  0
    3.5426   -2.8776   -0.2480 H   0  0  0  0  0  0  0  0  0  0  0  0
    4.1919   -1.9458   -1.6350 H   0  0  0  0  0  0  0  0  0  0  0  0
   -5.1783   -1.8773   -0.7930 H   0  0  0  0  0  0  0  0  0  0  0  0
   -3.6644   -2.8122   -0.7837 H   0  0  0  0  0  0  0  0  0  0  0  0
   -3.9392   -1.5765   -2.0197 H   0  0  0  0  0  0  0  0  0  0  0  0
   -3.4126   -2.1105    1.6347 H   0  0  0  0  0  0  0  0  0  0  0  0
   -4.7287   -0.9233    1.6734 H   0  0  0  0  0  0  0  0  0  0  0  0
   -3.0715   -0.4524    2.0749 H   0  0  0  0  0  0  0  0  0  0  0  0
  1  8  2  0  0  0  0
  2  3  1  0  0  0  0
  2  4  1  0  0  0  0
  2 14  1  0  0  0  0
  2 15  1  0  0  0  0
  3  5  2  0  0  0  0
  3  7  1  0  0  0  0
  4  8  1  0  0  0  0
  4 16  1  0  0  0  0
  4 17  1  0  0  0  0
  5  6  1  0  0  0  0
  5 18  1  0  0  0  0
  6  9  1  0  0  0  0
  6 19  1  0  0  0  0
  6 20  1  0  0  0  0
  7 21  1  0  0  0  0
  7 22  1  0  0  0  0
  7 23  1  0  0  0  0
  8 11  1  0  0  0  0
  9 10  2  0  0  0  0
  9 24  1  0  0  0  0
 10 12  1  0  0  0  0
 10 13  1  0  0  0  0
 11 25  1  0  0  0  0
 11 26  1  0  0  0  0
 11 27  1  0  0  0  0
 12 28  1  0  0  0  0
 12 29  1  0  0  0  0
 12 30  1  0  0  0  0
 13 31  1  0  0  0  0
 13 32  1  0  0  0  0
 13 33  1  0  0  0  0
M  END
> <PUBCHEM_COMPOUND_CID>
5369930

> <PUBCHEM_CONFORMER_RMSD>
0.6

> <PUBCHEM_CONFORMER_DIVERSEORDER>
2
254
428
279
367
128
145
122
362
471
83
366
363
464
460
228
331
65
413
411
382
184
454
272
148
403
298
457
159
153
80
345
364
267
386
247
348
196
310
369
381
47
447
164
74
328
238
307
121
463
383
194
126
420
393
444
39
316
387
129
41
432
451
480
37
198
141
62
102
375
349
64
368
470
320
104
474
251
430
336
203
265
282
404
389
468
273
306
78
332
436
229
380
177
317
40
346
242
59
140
221
197
435
354
373
416
379
48
329
407
277
50
308
294
350
57
94
150
270
333
16
211
388
143
423
181
60
5
476
85
113
462
191
398
216
446
437
21
278
291
45
469
401
232
98
370
131
33
358
179
280
268
343
223
25
438
372
326
71
233
445
114
30
192
384
90
359
241
285
356
453
339
139
305
244
84
296
344
163
51
405
101
109
206
422
137
360
418
442
297
327
174
217
338
284
172
440
312
302
61
182
246
220
209
66
376
134
459
27
427
478
110
377
458
29
53
106
151
18
208
301
173
424
283
97
342
266
304
234
92
408
255
281
337
52
426
56
421
24
259
417
406
276
49
171
183
481
160
225
361
12
7
115
154
4
269
467
107
262
319
180
271
374
258
118
187
156
185
157
75
412
300
357
193
239
36
17
116
325
252
149
44
455
124
170
409
230
260
105
461
236
205
70
6
215
249
86
465
77
31
123
315
231
439
202
168
188
287
378
72
263
261
479
397
199
352
473
245
136
26
289
127
186
390
253
218
433
213
46
240
347
190
275
290
292
235
175
335
311
293
178
355
144
147
69
87
318
248
299
477
452
224
96
112
415
142
200
414
313
125
167
475
402
286
28
425
472
385
95
219
353
23
324
43
54
419
32
169
155
396
482
365
395
341
130
334
264
108
55
111
295
3
138
257
330
35
42
466
450
10
19
161
165
222
34
237
400
256
443
99
8
392
13
120
38
410
119
189
227
195
448
15
89
133
322
429
303
91
162
274
158
309
93
243
351
214
117
207
132
67
204
176
20
340
146
9
456
250
210
79
1
212
441
226
58
166
103
14
22
135
434
321
399
201
100
314
76
68
63
152
81
323
11
449
371
394
73
288
88
431
391
82

> <PUBCHEM_MMFF94_PARTIAL_CHARGES>
15
1 -0.57
10 -0.28
11 0.06
12 0.14
13 0.14
18 0.15
2 0.14
24 0.15
3 -0.28
4 0.06
5 -0.29
6 0.28
7 0.14
8 0.45
9 -0.29

> <PUBCHEM_EFFECTIVE_ROTOR_COUNT>
5

> <PUBCHEM_PHARMACOPHORE_FEATURES>
3
1 1 acceptor
1 7 hydrophobe
3 10 12 13 hydrophobe

> <PUBCHEM_HEAVY_ATOM_COUNT>
13

> <PUBCHEM_ATOM_DEF_STEREO_COUNT>
0

> <PUBCHEM_ATOM_UDEF_STEREO_COUNT>
0

> <PUBCHEM_BOND_DEF_STEREO_COUNT>
1

> <PUBCHEM_BOND_UDEF_STEREO_COUNT>
0

> <PUBCHEM_ISOTOPIC_ATOM_COUNT>
0

> <PUBCHEM_COMPONENT_COUNT>
1

> <PUBCHEM_CACTVS_TAUTO_COUNT>
3

> <PUBCHEM_CONFORMER_ID>
0051F04A00000002

> <PUBCHEM_MMFF94_ENERGY>
13.6889

> <PUBCHEM_FEATURE_SELFOVERLAP>
15.223

> <PUBCHEM_SHAPE_FINGERPRINT>
11137873 295 18334292093879370175
11543360 7 14562823186857586274
11769659 78 18413387657129946125
117890 22 17986963942297207886
11806522 49 18411696625479017400
12006461 19 18342175570137461998
122479 349 9655280554216988028
12346645 44 10303812068654145661
14123255 352 9871458799434584202
14123260 362 7781517040254557359
1420 369 18341897402349243095
14251710 61 18409174315544962451
14252887 29 18342738520628908314
17834072 14 18260827115919678392
18186145 218 15791734126314671077
193927 3 18335994120082373219
20112054 13 11383824957386365114
20281475 54 18339648845599629356
20432913 95 18202001040357320570
20645477 70 18189327043276052039
20671657 53 17821447988588855357
20693207 138 16661785447338521099
20871999 31 17603866684919438621
21713013 43 16733270174470466459
22485316 2 18338231570663419520
22620623 9 17750223708326844965
231179 274 10375879558280535642
23402539 116 17386285398720242308
23402655 69 11458427925454202874
23403322 49 18411416202874867239
23500284 214 10375577218569011364
25 1 9007064573415253300
27216 239 9943518635719429063
305870 269 11455896836185307060
449060 23 18408885118153555201

> <PUBCHEM_SHAPE_MULTIPOLES>
261.66
9.11
2.17
1.12
2.86
0.1
0
7.21
-0.38
0.02
0.61
-0.63
0
0.03

> <PUBCHEM_SHAPE_SELFOVERLAP>
489.767

> <PUBCHEM_SHAPE_VOLUME>
164

> <PUBCHEM_COORDINATE_TYPE>
2
5
10

$$$$
