74095
  -OEChem-08272003173D

 18 17  0     0  0  0  0  0  0999 V2000
    0.4831   -0.1283   -0.2471 O   0  0  0  0  0  0  0  0  0  0  0  0
    2.4722    0.8569    0.3929 O   0  0  0  0  0  0  0  0  0  0  0  0
   -1.6671    0.9398   -0.4438 C   0  0  0  0  0  0  0  0  0  0  0  0
   -0.1928    1.1136   -0.0986 C   0  0  0  0  0  0  0  0  0  0  0  0
   -2.3426   -0.0394    0.4728 C   0  0  0  0  0  0  0  0  0  0  0  0
    1.8215   -0.1148    0.0328 C   0  0  0  0  0  0  0  0  0  0  0  0
    2.3977   -1.4840   -0.1652 C   0  0  0  0  0  0  0  0  0  0  0  0
   -2.9719   -1.1439    0.0562 C   0  0  0  0  0  0  0  0  0  0  0  0
   -1.7565    0.6041   -1.4842 H   0  0  0  0  0  0  0  0  0  0  0  0
   -2.1765    1.9068   -0.3651 H   0  0  0  0  0  0  0  0  0  0  0  0
    0.2512    1.8520   -0.7766 H   0  0  0  0  0  0  0  0  0  0  0  0
   -0.0834    1.4712    0.9328 H   0  0  0  0  0  0  0  0  0  0  0  0
   -2.3275    0.1805    1.5372 H   0  0  0  0  0  0  0  0  0  0  0  0
    2.2683   -1.7932   -1.2054 H   0  0  0  0  0  0  0  0  0  0  0  0
    1.9111   -2.1917    0.5106 H   0  0  0  0  0  0  0  0  0  0  0  0
    3.4674   -1.4640    0.0622 H   0  0  0  0  0  0  0  0  0  0  0  0
   -3.4476   -1.8072    0.7703 H   0  0  0  0  0  0  0  0  0  0  0  0
   -3.0234   -1.4059   -0.9948 H   0  0  0  0  0  0  0  0  0  0  0  0
  1  4  1  0  0  0  0
  1  6  1  0  0  0  0
  2  6  2  0  0  0  0
  3  4  1  0  0  0  0
  3  5  1  0  0  0  0
  3  9  1  0  0  0  0
  3 10  1  0  0  0  0
  4 11  1  0  0  0  0
  4 12  1  0  0  0  0
  5  8  2  0  0  0  0
  5 13  1  0  0  0  0
  6  7  1  0  0  0  0
  7 14  1  0  0  0  0
  7 15  1  0  0  0  0
  7 16  1  0  0  0  0
  8 17  1  0  0  0  0
  8 18  1  0  0  0  0
M  END
> <PUBCHEM_COMPOUND_CID>
74095

> <PUBCHEM_CONFORMER_RMSD>
0.6

> <PUBCHEM_CONFORMER_DIVERSEORDER>
1
24
10
12
23
15
26
11
16
3
19
21
2
7
13
22
18
17
14
8
25
9
20
5
4
6

> <PUBCHEM_MMFF94_PARTIAL_CHARGES>
11
1 -0.43
13 0.15
17 0.15
18 0.15
2 -0.57
3 0.14
4 0.28
5 -0.29
6 0.66
7 0.06
8 -0.3

> <PUBCHEM_EFFECTIVE_ROTOR_COUNT>
4

> <PUBCHEM_PHARMACOPHORE_FEATURES>
2
1 2 acceptor
1 8 hydrophobe

> <PUBCHEM_HEAVY_ATOM_COUNT>
8

> <PUBCHEM_ATOM_DEF_STEREO_COUNT>
0

> <PUBCHEM_ATOM_UDEF_STEREO_COUNT>
0

> <PUBCHEM_BOND_DEF_STEREO_COUNT>
0

> <PUBCHEM_BOND_UDEF_STEREO_COUNT>
0

> <PUBCHEM_ISOTOPIC_ATOM_COUNT>
0

> <PUBCHEM_COMPONENT_COUNT>
1

> <PUBCHEM_CACTVS_TAUTO_COUNT>
1

> <PUBCHEM_CONFORMER_ID>
0001216F00000001

> <PUBCHEM_MMFF94_ENERGY>
4.4034

> <PUBCHEM_FEATURE_SELFOVERLAP>
10.148

> <PUBCHEM_SHAPE_FINGERPRINT>
10857977 72 18338506534264039769
12932741 1 18336256830399643804
12932764 1 17603866633205841924
20201158 50 18334293210127989419
20653085 51 8430323462953002415
23552423 10 18041566849109469622
29004967 10 18411699893648475329

> <PUBCHEM_SHAPE_MULTIPOLES>
152.9
4.72
1.42
0.67
0.35
0.23
0
1.67
0.33
-0.1
-0.07
0.08
-0.02
0.29

> <PUBCHEM_SHAPE_SELFOVERLAP>
278.234

> <PUBCHEM_SHAPE_VOLUME>
97.5

> <PUBCHEM_COORDINATE_TYPE>
2
5
10

$$$$
