91692872
  -OEChem-08272004213D

 35 34  0     0  0  0  0  0  0999 V2000
    2.2232   -0.8311   -1.6752 F   0  0  0  0  0  0  0  0  0  0  0  0
    3.3027   -1.8281   -0.0706 F   0  0  0  0  0  0  0  0  0  0  0  0
    4.2111    0.6922   -0.5966 F   0  0  0  0  0  0  0  0  0  0  0  0
    2.2325    1.5249   -0.1972 F   0  0  0  0  0  0  0  0  0  0  0  0
    3.3269    0.5016    1.3873 F   0  0  0  0  0  0  0  0  0  0  0  0
    0.0808   -0.5059   -0.2654 O   0  0  0  0  0  0  0  0  0  0  0  0
    1.0654   -1.6236    1.4977 O   0  0  0  0  0  0  0  0  0  0  0  0
   -2.2734    0.0252   -0.5188 C   0  0  0  0  0  0  0  0  0  0  0  0
   -3.6929   -0.2453    0.0217 C   0  0  0  0  0  0  0  0  0  0  0  0
   -2.0348    1.5400   -0.7314 C   0  0  0  0  0  0  0  0  0  0  0  0
   -1.1925   -0.6282    0.3552 C   0  0  0  0  0  0  0  0  0  0  0  0
   -2.0901    2.3926    0.5393 C   0  0  0  0  0  0  0  0  0  0  0  0
   -4.2098   -1.6497   -0.3040 C   0  0  0  0  0  0  0  0  0  0  0  0
   -5.6373   -1.8418    0.1861 C   0  0  0  0  0  0  0  0  0  0  0  0
   -1.9154    3.8702    0.2192 C   0  0  0  0  0  0  0  0  0  0  0  0
    1.1321   -1.0511    0.4176 C   0  0  0  0  0  0  0  0  0  0  0  0
    2.4190   -0.8265   -0.3293 C   0  0  0  0  0  0  0  0  0  0  0  0
    3.0525    0.4846    0.0644 C   0  0  0  0  0  0  0  0  0  0  0  0
   -2.1977   -0.4204   -1.5208 H   0  0  0  0  0  0  0  0  0  0  0  0
   -3.7191   -0.0856    1.1068 H   0  0  0  0  0  0  0  0  0  0  0  0
   -4.3900    0.4787   -0.4197 H   0  0  0  0  0  0  0  0  0  0  0  0
   -1.0600    1.6841   -1.2148 H   0  0  0  0  0  0  0  0  0  0  0  0
   -2.7818    1.9128   -1.4446 H   0  0  0  0  0  0  0  0  0  0  0  0
   -1.4119   -1.6951    0.4761 H   0  0  0  0  0  0  0  0  0  0  0  0
   -1.1667   -0.1733    1.3518 H   0  0  0  0  0  0  0  0  0  0  0  0
   -3.0484    2.2556    1.0511 H   0  0  0  0  0  0  0  0  0  0  0  0
   -4.1785   -1.8160   -1.3870 H   0  0  0  0  0  0  0  0  0  0  0  0
   -3.5704   -2.4077    0.1603 H   0  0  0  0  0  0  0  0  0  0  0  0
   -1.3003    2.0905    1.2350 H   0  0  0  0  0  0  0  0  0  0  0  0
   -2.7092    4.2242   -0.4464 H   0  0  0  0  0  0  0  0  0  0  0  0
   -0.9514    4.0551   -0.2655 H   0  0  0  0  0  0  0  0  0  0  0  0
   -1.9530    4.4638    1.1380 H   0  0  0  0  0  0  0  0  0  0  0  0
   -6.3154   -1.1250   -0.2880 H   0  0  0  0  0  0  0  0  0  0  0  0
   -5.7003   -1.7097    1.2709 H   0  0  0  0  0  0  0  0  0  0  0  0
   -5.9877   -2.8504   -0.0544 H   0  0  0  0  0  0  0  0  0  0  0  0
  1 17  1  0  0  0  0
  2 17  1  0  0  0  0
  3 18  1  0  0  0  0
  4 18  1  0  0  0  0
  5 18  1  0  0  0  0
  6 11  1  0  0  0  0
  6 16  1  0  0  0  0
  7 16  2  0  0  0  0
  8  9  1  0  0  0  0
  8 10  1  0  0  0  0
  8 11  1  0  0  0  0
  8 19  1  0  0  0  0
  9 13  1  0  0  0  0
  9 20  1  0  0  0  0
  9 21  1  0  0  0  0
 10 12  1  0  0  0  0
 10 22  1  0  0  0  0
 10 23  1  0  0  0  0
 11 24  1  0  0  0  0
 11 25  1  0  0  0  0
 12 15  1  0  0  0  0
 12 26  1  0  0  0  0
 12 29  1  0  0  0  0
 13 14  1  0  0  0  0
 13 27  1  0  0  0  0
 13 28  1  0  0  0  0
 14 33  1  0  0  0  0
 14 34  1  0  0  0  0
 14 35  1  0  0  0  0
 15 30  1  0  0  0  0
 15 31  1  0  0  0  0
 15 32  1  0  0  0  0
 16 17  1  0  0  0  0
 17 18  1  0  0  0  0
M  END
> <PUBCHEM_COMPOUND_CID>
91692872

> <PUBCHEM_CONFORMER_RMSD>
0.8

> <PUBCHEM_CONFORMER_DIVERSEORDER>
1
31
109
97
162
102
64
158
179
185
187
177
73
77
176
99
22
112
124
71
193
41
66
82
56
14
195
119
183
116
142
75
161
29
90
144
166
25
44
111
113
68
89
117
141
188
93
17
70
55
103
123
86
147
191
181
192
96
194
30
74
134
175
139
76
28
135
42
104
84
154
72
155
125
69
52
10
169
43
81
57
65
67
58
110
35
149
118
3
91
105
136
13
182
122
62
130
114
190
60
50
163
8
92
78
63
167
180
20
121
36
157
126
129
26
106
140
5
143
120
186
95
168
18
49
150
159
152
189
24
11
151
54
48
15
107
12
174
39
32
61
170
85
98
153
115
37
80
47
165
46
40
128
2
34
138
132
6
148
173
45
88
38
196
164
100
133
59
4
94
184
27
16
33
131
23
108
21
146
127
9
172
101
19
53
83
160
51
145
7
156
178
79
137
171
87

> <PUBCHEM_MMFF94_PARTIAL_CHARGES>
11
1 -0.34
11 0.28
16 0.66
17 0.74
18 1.02
2 -0.34
3 -0.34
4 -0.34
5 -0.34
6 -0.43
7 -0.57

> <PUBCHEM_EFFECTIVE_ROTOR_COUNT>
9

> <PUBCHEM_PHARMACOPHORE_FEATURES>
4
1 14 hydrophobe
1 15 hydrophobe
1 7 acceptor
5 8 9 10 12 13 hydrophobe

> <PUBCHEM_HEAVY_ATOM_COUNT>
18

> <PUBCHEM_ATOM_DEF_STEREO_COUNT>
0

> <PUBCHEM_ATOM_UDEF_STEREO_COUNT>
0

> <PUBCHEM_BOND_DEF_STEREO_COUNT>
0

> <PUBCHEM_BOND_UDEF_STEREO_COUNT>
0

> <PUBCHEM_ISOTOPIC_ATOM_COUNT>
0

> <PUBCHEM_COMPONENT_COUNT>
1

> <PUBCHEM_CACTVS_TAUTO_COUNT>
1

> <PUBCHEM_CONFORMER_ID>
05771F4800000001

> <PUBCHEM_MMFF94_ENERGY>
9.7754

> <PUBCHEM_FEATURE_SELFOVERLAP>
20.298

> <PUBCHEM_SHAPE_FINGERPRINT>
10366900 7 18261680366896769202
10498660 4 18409444757009340901
11715629 250 17988631995951840600
12173636 292 18196927782549386821
12596602 18 17605809548237125112
12916754 54 18341335500531268379
14178342 30 18191854639644870792
14787075 74 18116714221535596231
15375358 24 11169908390112167240
17492 89 18338796702307973919
18785283 64 17685215376225859609
192875 21 16732982050456866943
200 152 18186797007007295143
20510252 161 18411698764615135641
21618674 68 18341898531935899389
22182937 141 18056482742722910369
23402539 116 18409721889673752223
23557571 272 18412550916001581231
23558518 356 18190186693759714347
23559900 14 18338507530707131671
25610 137 18409728487006970423
312423 11 18335424517219426451
3286 77 18334290933974787598
6049 1 17916876698633449309
621550 34 18060418040487267703
6333272 397 18113898316248363082
7097593 13 17466778291200342387
7615 1 17824252709733692795
7832392 63 18122624946706756368

> <PUBCHEM_SHAPE_MULTIPOLES>
322.32
8.82
3.02
1
3.33
3.53
-0.03
-4.31
0.25
2.83
-0.4
-0.56
-0.15
-0.05

> <PUBCHEM_SHAPE_SELFOVERLAP>
626.289

> <PUBCHEM_SHAPE_VOLUME>
195

> <PUBCHEM_COORDINATE_TYPE>
2
5
10

$$$$
