558564
  -OEChem-08272011113D

 28 29  0     1  0  0  0  0  0999 V2000
   -0.8824    1.1147   -0.2941 O   0  0  0  0  0  0  0  0  0  0  0  0
   -3.1147    1.3887   -0.3474 O   0  0  0  0  0  0  0  0  0  0  0  0
    0.6709   -0.8116   -0.3624 C   0  0  1  0  0  0  0  0  0  0  0  0
    0.3132    0.5365    0.2948 C   0  0  1  0  0  0  0  0  0  0  0  0
    2.1205   -1.2353   -0.0484 C   0  0  0  0  0  0  0  0  0  0  0  0
    1.3939    1.6016    0.0580 C   0  0  0  0  0  0  0  0  0  0  0  0
   -0.2523   -1.9635    0.0803 C   0  0  0  0  0  0  0  0  0  0  0  0
    3.1387   -0.1402   -0.3334 C   0  0  0  0  0  0  0  0  0  0  0  0
    2.7898    1.1296    0.4266 C   0  0  0  0  0  0  0  0  0  0  0  0
   -1.7410   -1.7379   -0.1489 C   0  0  0  0  0  0  0  0  0  0  0  0
   -2.2948   -0.5985    0.6907 C   0  0  0  0  0  0  0  0  0  0  0  0
   -2.1418    0.7159   -0.0158 C   0  0  0  0  0  0  0  0  0  0  0  0
    0.5667   -0.7013   -1.4507 H   0  0  0  0  0  0  0  0  0  0  0  0
    0.1695    0.4228    1.3763 H   0  0  0  0  0  0  0  0  0  0  0  0
    2.3800   -2.1254   -0.6347 H   0  0  0  0  0  0  0  0  0  0  0  0
    2.2010   -1.5219    1.0085 H   0  0  0  0  0  0  0  0  0  0  0  0
    1.1443    2.5052    0.6284 H   0  0  0  0  0  0  0  0  0  0  0  0
    1.3793    1.9104   -0.9962 H   0  0  0  0  0  0  0  0  0  0  0  0
   -0.0888   -2.1781    1.1448 H   0  0  0  0  0  0  0  0  0  0  0  0
    0.0382   -2.8735   -0.4612 H   0  0  0  0  0  0  0  0  0  0  0  0
    3.1696    0.0653   -1.4103 H   0  0  0  0  0  0  0  0  0  0  0  0
    4.1387   -0.4817   -0.0427 H   0  0  0  0  0  0  0  0  0  0  0  0
    2.8479    0.9479    1.5065 H   0  0  0  0  0  0  0  0  0  0  0  0
    3.5193    1.9130    0.1923 H   0  0  0  0  0  0  0  0  0  0  0  0
   -2.2656   -2.6603    0.1295 H   0  0  0  0  0  0  0  0  0  0  0  0
   -1.9342   -1.5728   -1.2158 H   0  0  0  0  0  0  0  0  0  0  0  0
   -1.8665   -0.5483    1.6962 H   0  0  0  0  0  0  0  0  0  0  0  0
   -3.3721   -0.7599    0.8251 H   0  0  0  0  0  0  0  0  0  0  0  0
  1  4  1  0  0  0  0
  1 12  1  0  0  0  0
  2 12  2  0  0  0  0
  3  4  1  0  0  0  0
  3  5  1  0  0  0  0
  3  7  1  0  0  0  0
  3 13  1  0  0  0  0
  4  6  1  0  0  0  0
  4 14  1  0  0  0  0
  5  8  1  0  0  0  0
  5 15  1  0  0  0  0
  5 16  1  0  0  0  0
  6  9  1  0  0  0  0
  6 17  1  0  0  0  0
  6 18  1  0  0  0  0
  7 10  1  0  0  0  0
  7 19  1  0  0  0  0
  7 20  1  0  0  0  0
  8  9  1  0  0  0  0
  8 21  1  0  0  0  0
  8 22  1  0  0  0  0
  9 23  1  0  0  0  0
  9 24  1  0  0  0  0
 10 11  1  0  0  0  0
 10 25  1  0  0  0  0
 10 26  1  0  0  0  0
 11 12  1  0  0  0  0
 11 27  1  0  0  0  0
 11 28  1  0  0  0  0
M  END
> <PUBCHEM_COMPOUND_CID>
558564

> <PUBCHEM_CONFORMER_RMSD>
0.4

> <PUBCHEM_CONFORMER_DIVERSEORDER>
1
4
8
12
10
7
5
3
9
6
11
2

> <PUBCHEM_MMFF94_PARTIAL_CHARGES>
5
1 -0.43
11 0.06
12 0.66
2 -0.57
4 0.28

> <PUBCHEM_EFFECTIVE_ROTOR_COUNT>
1.6

> <PUBCHEM_PHARMACOPHORE_FEATURES>
3
1 2 acceptor
6 3 4 5 6 8 9 rings
7 1 3 4 7 10 11 12 rings

> <PUBCHEM_HEAVY_ATOM_COUNT>
12

> <PUBCHEM_ATOM_DEF_STEREO_COUNT>
0

> <PUBCHEM_ATOM_UDEF_STEREO_COUNT>
2

> <PUBCHEM_BOND_DEF_STEREO_COUNT>
0

> <PUBCHEM_BOND_UDEF_STEREO_COUNT>
0

> <PUBCHEM_ISOTOPIC_ATOM_COUNT>
0

> <PUBCHEM_COMPONENT_COUNT>
1

> <PUBCHEM_CACTVS_TAUTO_COUNT>
1

> <PUBCHEM_CONFORMER_ID>
000885E400000001

> <PUBCHEM_MMFF94_ENERGY>
19.8253

> <PUBCHEM_FEATURE_SELFOVERLAP>
15.23

> <PUBCHEM_SHAPE_FINGERPRINT>
10608611 8 18412260674812392576
11206711 2 18339081621710572294
12382932 28 18341889723200613960
12932764 1 18339089271263597442
13380535 21 18339092556902905910
13380535 76 18411694370457689183
13897977 150 18410854322183432957
14325111 11 18411136956748767360
15219456 202 18413390955712074896
15279308 100 18409730621162858396
15775835 57 18334018263369478834
16945 1 18193557993757496366
17844478 74 18189068649216356387
19973954 147 18338800142554776046
20201158 50 18342176618241435542
20871998 184 18199475548253588199
21501502 16 18339078301927601438
2334 1 18339080496423709642
23402655 69 18270388392232134549
23552423 10 18189898789079837382
23559900 14 18343027667092449486
241688 4 16538767262795178747
25 1 18120651336467590485
2748010 2 18411141350331343830
5084963 1 18200878507704747010
528886 8 18411413977733414536
53812653 166 18411700954573767896
63268167 104 18342182132968855330
6333449 129 18411698811369308279
66348 1 18194685856321851594

> <PUBCHEM_SHAPE_MULTIPOLES>
235.22
4.54
2.02
0.7
0.48
0.31
-0.04
-0.98
0
-0.41
0.07
-0.03
0.01
0.34

> <PUBCHEM_SHAPE_SELFOVERLAP>
477.179

> <PUBCHEM_SHAPE_VOLUME>
133.6

> <PUBCHEM_COORDINATE_TYPE>
2
5
10

$$$$
