787657
  -OEChem-08272012353D

 31 32  0     0  0  0  0  0  0999 V2000
   -3.7906    3.1899    0.1446 S   0  0  0  0  0  0  0  0  0  0  0  0
   -4.1132   -1.7679   -0.0788 O   0  0  0  0  0  0  0  0  0  0  0  0
    4.5121    0.1862    0.0068 N   0  0  0  0  0  0  0  0  0  0  0  0
   -1.7471    1.4751    0.0693 N   0  0  0  0  0  0  0  0  0  0  0  0
   -3.8799    0.5206    0.0254 N   0  0  0  0  0  0  0  0  0  0  0  0
   -0.8464   -3.2552   -0.1639 N   0  0  0  0  0  0  0  0  0  0  0  0
    0.3149    0.2191    0.0129 C   0  0  0  0  0  0  0  0  0  0  0  0
   -1.1589    0.2308    0.0152 C   0  0  0  0  0  0  0  0  0  0  0  0
    3.1019    0.1973    0.0089 C   0  0  0  0  0  0  0  0  0  0  0  0
    1.0081    0.2724   -1.1946 C   0  0  0  0  0  0  0  0  0  0  0  0
    1.0109    0.1549    1.2186 C   0  0  0  0  0  0  0  0  0  0  0  0
    2.4030    0.2614   -1.1967 C   0  0  0  0  0  0  0  0  0  0  0  0
    2.4057    0.1440    1.2166 C   0  0  0  0  0  0  0  0  0  0  0  0
   -1.8970   -0.8955   -0.0390 C   0  0  0  0  0  0  0  0  0  0  0  0
    5.2499    0.8571   -1.0451 C   0  0  0  0  0  0  0  0  0  0  0  0
    5.2424   -0.4844    1.0641 C   0  0  0  0  0  0  0  0  0  0  0  0
   -3.3895   -0.7756   -0.0332 C   0  0  0  0  0  0  0  0  0  0  0  0
   -3.1086    1.6664    0.0770 C   0  0  0  0  0  0  0  0  0  0  0  0
   -1.3177   -2.1966   -0.1081 C   0  0  0  0  0  0  0  0  0  0  0  0
    0.4770    0.3206   -2.1420 H   0  0  0  0  0  0  0  0  0  0  0  0
    0.4818    0.1160    2.1676 H   0  0  0  0  0  0  0  0  0  0  0  0
    2.9141    0.2919   -2.1548 H   0  0  0  0  0  0  0  0  0  0  0  0
    2.9187    0.1057    2.1734 H   0  0  0  0  0  0  0  0  0  0  0  0
   -1.1426    2.2912    0.1062 H   0  0  0  0  0  0  0  0  0  0  0  0
    4.8097    1.8315   -1.2851 H   0  0  0  0  0  0  0  0  0  0  0  0
    5.2786    0.2431   -1.9513 H   0  0  0  0  0  0  0  0  0  0  0  0
    6.2861    1.0459   -0.7428 H   0  0  0  0  0  0  0  0  0  0  0  0
    5.2855    0.1400    1.9626 H   0  0  0  0  0  0  0  0  0  0  0  0
    6.2739   -0.6948    0.7595 H   0  0  0  0  0  0  0  0  0  0  0  0
    4.7871   -1.4485    1.3176 H   0  0  0  0  0  0  0  0  0  0  0  0
   -4.8892    0.6366    0.0303 H   0  0  0  0  0  0  0  0  0  0  0  0
  1 18  2  0  0  0  0
  2 17  2  0  0  0  0
  3  9  1  0  0  0  0
  3 15  1  0  0  0  0
  3 16  1  0  0  0  0
  4  8  1  0  0  0  0
  4 18  1  0  0  0  0
  4 24  1  0  0  0  0
  5 17  1  0  0  0  0
  5 18  1  0  0  0  0
  5 31  1  0  0  0  0
  6 19  3  0  0  0  0
  7  8  1  0  0  0  0
  7 10  2  0  0  0  0
  7 11  1  0  0  0  0
  8 14  2  0  0  0  0
  9 12  2  0  0  0  0
  9 13  1  0  0  0  0
 10 12  1  0  0  0  0
 10 20  1  0  0  0  0
 11 13  2  0  0  0  0
 11 21  1  0  0  0  0
 12 22  1  0  0  0  0
 13 23  1  0  0  0  0
 14 17  1  0  0  0  0
 14 19  1  0  0  0  0
 15 25  1  0  0  0  0
 15 26  1  0  0  0  0
 15 27  1  0  0  0  0
 16 28  1  0  0  0  0
 16 29  1  0  0  0  0
 16 30  1  0  0  0  0
M  END
> <PUBCHEM_COMPOUND_CID>
787657

> <PUBCHEM_CONFORMER_RMSD>
0.6

> <PUBCHEM_CONFORMER_DIVERSEORDER>
1
2
3

> <PUBCHEM_MMFF94_PARTIAL_CHARGES>
25
1 -0.38
10 -0.15
11 -0.15
12 -0.15
13 -0.15
14 0.08
15 0.37
16 0.37
17 0.62
18 0.5
19 0.49
2 -0.57
20 0.15
21 0.15
22 0.15
23 0.15
24 0.37
3 -0.84
31 0.37
4 -0.54
5 -0.49
6 -0.56
7 0.03
8 0.08
9 0.1

> <PUBCHEM_EFFECTIVE_ROTOR_COUNT>
2

> <PUBCHEM_PHARMACOPHORE_FEATURES>
8
1 1 acceptor
1 2 acceptor
1 3 cation
1 4 donor
1 5 donor
1 6 acceptor
6 4 5 8 14 17 18 rings
6 7 9 10 11 12 13 rings

> <PUBCHEM_HEAVY_ATOM_COUNT>
19

> <PUBCHEM_ATOM_DEF_STEREO_COUNT>
0

> <PUBCHEM_ATOM_UDEF_STEREO_COUNT>
0

> <PUBCHEM_BOND_DEF_STEREO_COUNT>
0

> <PUBCHEM_BOND_UDEF_STEREO_COUNT>
0

> <PUBCHEM_ISOTOPIC_ATOM_COUNT>
0

> <PUBCHEM_COMPONENT_COUNT>
1

> <PUBCHEM_CACTVS_TAUTO_COUNT>
6

> <PUBCHEM_CONFORMER_ID>
000C04C900000001

> <PUBCHEM_MMFF94_ENERGY>
62.503

> <PUBCHEM_FEATURE_SELFOVERLAP>
40.639

> <PUBCHEM_SHAPE_FINGERPRINT>
10912923 1 18040152920723222088
11315181 36 18187362156026020536
12107183 9 17902223421819320096
12173636 292 18411130329682873117
12236239 1 17821446859175785393
12390115 104 18200047144171426737
12403259 415 17846777420767486752
12500047 106 18342172254728645102
13140716 1 18049729812903607579
13167823 11 18260827103467429698
13583140 156 17846201255653083802
13760787 19 18408606976889169590
13760787 5 16370729214840048676
13862211 1 18267302222223443911
14739800 52 18266453403552486720
15042514 8 18265900340344540931
15375358 24 17632858629306637334
16752209 62 18338504314177378227
16945 1 18339642347377362007
17804303 29 18270961353036495011
18186145 218 17916599638978129109
19026448 5 18259704497832092944
200 152 16877938364943749765
20510252 161 18272091612847002097
20645477 56 18341900649756040529
20645477 70 15069164741816574784
20871999 31 18342177777766723316
212916 134 18270103618182242928
23175994 123 16917072178314948712
23366157 5 17899980426451877019
23402539 116 18341604945473070119
23557571 272 18201731664736265740
23559900 14 18057892351268525774
23598291 2 17822017535654014484
34797466 226 17986969616560883524
4214541 1 18410292497638258064
474 4 17097501049208009116
5104073 3 18186800279767224112
559249 180 18337104558782365418
573450 72 18334569127532881792
59755656 215 18412542120273290007
7364860 26 17838334078152581151
77492 1 17749108889588378545
9709674 26 18343310279318180454

> <PUBCHEM_SHAPE_MULTIPOLES>
369.07
9.81
2.51
1.05
8.08
0.51
-0.02
-3.18
-0.18
-4.22
0.09
1.17
-0.12
-0.67

> <PUBCHEM_SHAPE_SELFOVERLAP>
777.951

> <PUBCHEM_SHAPE_VOLUME>
209.6

> <PUBCHEM_COORDINATE_TYPE>
2
5
10

$$$$
