586459
  -OEChem-08272002483D

 26 26  0     0  0  0  0  0  0999 V2000
   -2.5974    1.6627    0.1799 O   0  0  0  0  0  0  0  0  0  0  0  0
   -3.6888   -0.8230    0.7773 O   0  0  0  0  0  0  0  0  0  0  0  0
    2.8370   -1.1748    0.7494 O   0  0  0  0  0  0  0  0  0  0  0  0
    4.4013    0.9902    0.9305 O   0  0  0  0  0  0  0  0  0  0  0  0
    0.1931   -0.5411   -0.6678 C   0  0  0  0  0  0  0  0  0  0  0  0
    1.5882   -0.4447   -1.1859 C   0  0  0  0  0  0  0  0  0  0  0  0
   -0.5635    0.6159   -0.4818 C   0  0  0  0  0  0  0  0  0  0  0  0
   -0.3549   -1.7884   -0.3683 C   0  0  0  0  0  0  0  0  0  0  0  0
   -1.8680    0.5256    0.0036 C   0  0  0  0  0  0  0  0  0  0  0  0
    2.6438   -0.3023   -0.0963 C   0  0  0  0  0  0  0  0  0  0  0  0
   -2.4159   -0.7216    0.3030 C   0  0  0  0  0  0  0  0  0  0  0  0
   -1.6593   -1.8787    0.1172 C   0  0  0  0  0  0  0  0  0  0  0  0
    3.4480    0.9831   -0.1109 C   0  0  0  0  0  0  0  0  0  0  0  0
   -1.9636    2.8970   -0.1498 C   0  0  0  0  0  0  0  0  0  0  0  0
    1.8457   -1.3314   -1.7789 H   0  0  0  0  0  0  0  0  0  0  0  0
    1.6735    0.3985   -1.8827 H   0  0  0  0  0  0  0  0  0  0  0  0
   -0.0837    1.5571   -0.7292 H   0  0  0  0  0  0  0  0  0  0  0  0
    0.2249   -2.6970   -0.5073 H   0  0  0  0  0  0  0  0  0  0  0  0
   -2.0737   -2.8567    0.3469 H   0  0  0  0  0  0  0  0  0  0  0  0
    3.9702    1.0643   -1.0684 H   0  0  0  0  0  0  0  0  0  0  0  0
    2.7679    1.8287    0.0247 H   0  0  0  0  0  0  0  0  0  0  0  0
   -3.8971   -1.7611    0.9277 H   0  0  0  0  0  0  0  0  0  0  0  0
   -1.7185    2.9531   -1.2159 H   0  0  0  0  0  0  0  0  0  0  0  0
   -1.0949    3.0884    0.4893 H   0  0  0  0  0  0  0  0  0  0  0  0
   -2.6870    3.6941    0.0514 H   0  0  0  0  0  0  0  0  0  0  0  0
    4.8828    1.8331    0.8739 H   0  0  0  0  0  0  0  0  0  0  0  0
  1  9  1  0  0  0  0
  1 14  1  0  0  0  0
  2 11  1  0  0  0  0
  2 22  1  0  0  0  0
  3 10  2  0  0  0  0
  4 13  1  0  0  0  0
  4 26  1  0  0  0  0
  5  6  1  0  0  0  0
  5  7  2  0  0  0  0
  5  8  1  0  0  0  0
  6 10  1  0  0  0  0
  6 15  1  0  0  0  0
  6 16  1  0  0  0  0
  7  9  1  0  0  0  0
  7 17  1  0  0  0  0
  8 12  2  0  0  0  0
  8 18  1  0  0  0  0
  9 11  2  0  0  0  0
 10 13  1  0  0  0  0
 11 12  1  0  0  0  0
 12 19  1  0  0  0  0
 13 20  1  0  0  0  0
 13 21  1  0  0  0  0
 14 23  1  0  0  0  0
 14 24  1  0  0  0  0
 14 25  1  0  0  0  0
M  END
> <PUBCHEM_COMPOUND_CID>
586459

> <PUBCHEM_CONFORMER_RMSD>
0.6

> <PUBCHEM_CONFORMER_DIVERSEORDER>
32
22
38
57
43
3
11
35
30
53
50
46
42
10
56
14
2
26
24
21
52
29
55
23
4
51
8
58
44
36
37
45
31
7
17
54
20
25
47
28
40
49
5
6
33
39
19
1
41
27
13
16
48
18
34
9
12
15

> <PUBCHEM_MMFF94_PARTIAL_CHARGES>
19
1 -0.36
10 0.45
11 0.08
12 -0.15
13 0.34
14 0.28
17 0.15
18 0.15
19 0.15
2 -0.53
22 0.45
26 0.4
3 -0.57
4 -0.68
5 -0.14
6 0.2
7 -0.15
8 -0.15
9 0.08

> <PUBCHEM_EFFECTIVE_ROTOR_COUNT>
4

> <PUBCHEM_PHARMACOPHORE_FEATURES>
6
1 1 acceptor
1 2 donor
1 3 acceptor
1 4 acceptor
1 4 donor
6 5 7 8 9 11 12 rings

> <PUBCHEM_HEAVY_ATOM_COUNT>
14

> <PUBCHEM_ATOM_DEF_STEREO_COUNT>
0

> <PUBCHEM_ATOM_UDEF_STEREO_COUNT>
0

> <PUBCHEM_BOND_DEF_STEREO_COUNT>
0

> <PUBCHEM_BOND_UDEF_STEREO_COUNT>
0

> <PUBCHEM_ISOTOPIC_ATOM_COUNT>
0

> <PUBCHEM_COMPONENT_COUNT>
1

> <PUBCHEM_CACTVS_TAUTO_COUNT>
47

> <PUBCHEM_CONFORMER_ID>
0008F2DB00000020

> <PUBCHEM_MMFF94_ENERGY>
37.7312

> <PUBCHEM_FEATURE_SELFOVERLAP>
30.455

> <PUBCHEM_SHAPE_FINGERPRINT>
10608611 8 18342740676475682932
11132069 177 18201727304890428711
12251169 10 18335420209720292710
12507560 40 18412543185350682870
13296909 8 18334009492972576645
13380535 76 18120654626591575461
13764800 53 18342743983305290144
15219456 202 18131078095417476238
16945 1 18337688472138706247
17804303 29 18192719942923309502
18186145 218 17916315939282082334
20388701 513 18410864269301290909
20510252 161 18342182145932859025
20871998 184 18343027726346688047
20871999 31 10087628300135149705
21524375 3 18050283670294926397
21650355 55 18192428795231653859
22445834 79 17967808319537661202
23402539 116 18342450491590464175
2748010 2 18049462361068796159
58734987 124 18410009970262463801
6049 1 18057907769625917108
7097593 13 18042674019270745690
81228 2 18264512649158136547

> <PUBCHEM_SHAPE_MULTIPOLES>
264.64
6.19
2.3
0.88
4.88
1.24
-0.06
1.54
2.06
-1.72
0.02
0.36
-0.08
0.38

> <PUBCHEM_SHAPE_SELFOVERLAP>
544.245

> <PUBCHEM_SHAPE_VOLUME>
152.2

> <PUBCHEM_COORDINATE_TYPE>
2
5
10

$$$$
