137726
  -OEChem-08272004203D

 22 22  0     1  0  0  0  0  0999 V2000
   -1.2315   -0.6190    0.4462 C   0  0  2  0  0  0  0  0  0  0  0  0
   -1.3516    0.9069    0.5962 C   0  0  0  0  0  0  0  0  0  0  0  0
   -0.4358    1.6491   -0.3721 C   0  0  0  0  0  0  0  0  0  0  0  0
    1.0263    1.2421   -0.1777 C   0  0  0  0  0  0  0  0  0  0  0  0
    1.2241   -0.2390    0.0246 C   0  0  0  0  0  0  0  0  0  0  0  0
    0.1993   -1.0676    0.2907 C   0  0  0  0  0  0  0  0  0  0  0  0
   -2.0669   -1.1373   -0.7265 C   0  0  0  0  0  0  0  0  0  0  0  0
    2.6361   -0.7352   -0.0812 C   0  0  0  0  0  0  0  0  0  0  0  0
   -1.6301   -1.0721    1.3631 H   0  0  0  0  0  0  0  0  0  0  0  0
   -1.0794    1.1882    1.6223 H   0  0  0  0  0  0  0  0  0  0  0  0
   -2.3897    1.2283    0.4515 H   0  0  0  0  0  0  0  0  0  0  0  0
   -0.5368    2.7309   -0.2280 H   0  0  0  0  0  0  0  0  0  0  0  0
   -0.7413    1.4411   -1.4049 H   0  0  0  0  0  0  0  0  0  0  0  0
    1.4348    1.7666    0.6952 H   0  0  0  0  0  0  0  0  0  0  0  0
    1.5978    1.5794   -1.0507 H   0  0  0  0  0  0  0  0  0  0  0  0
    0.3889   -2.1308    0.4196 H   0  0  0  0  0  0  0  0  0  0  0  0
   -1.7133   -0.7442   -1.6858 H   0  0  0  0  0  0  0  0  0  0  0  0
   -2.0275   -2.2312   -0.7808 H   0  0  0  0  0  0  0  0  0  0  0  0
   -3.1176   -0.8504   -0.6106 H   0  0  0  0  0  0  0  0  0  0  0  0
    3.0366   -0.5315   -1.0796 H   0  0  0  0  0  0  0  0  0  0  0  0
    2.7098   -1.8136    0.0938 H   0  0  0  0  0  0  0  0  0  0  0  0
    3.2701   -0.2337    0.6571 H   0  0  0  0  0  0  0  0  0  0  0  0
  1  2  1  0  0  0  0
  1  6  1  0  0  0  0
  1  7  1  0  0  0  0
  1  9  1  0  0  0  0
  2  3  1  0  0  0  0
  2 10  1  0  0  0  0
  2 11  1  0  0  0  0
  3  4  1  0  0  0  0
  3 12  1  0  0  0  0
  3 13  1  0  0  0  0
  4  5  1  0  0  0  0
  4 14  1  0  0  0  0
  4 15  1  0  0  0  0
  5  6  2  0  0  0  0
  5  8  1  0  0  0  0
  6 16  1  0  0  0  0
  7 17  1  0  0  0  0
  7 18  1  0  0  0  0
  7 19  1  0  0  0  0
  8 20  1  0  0  0  0
  8 21  1  0  0  0  0
  8 22  1  0  0  0  0
M  END
> <PUBCHEM_COMPOUND_CID>
137726

> <PUBCHEM_CONFORMER_RMSD>
0.4

> <PUBCHEM_CONFORMER_DIVERSEORDER>
1
2

> <PUBCHEM_MMFF94_PARTIAL_CHARGES>
6
1 0.14
16 0.15
4 0.14
5 -0.28
6 -0.29
8 0.14

> <PUBCHEM_EFFECTIVE_ROTOR_COUNT>
0.8

> <PUBCHEM_PHARMACOPHORE_FEATURES>
1
6 1 2 3 4 5 6 rings

> <PUBCHEM_HEAVY_ATOM_COUNT>
8

> <PUBCHEM_ATOM_DEF_STEREO_COUNT>
0

> <PUBCHEM_ATOM_UDEF_STEREO_COUNT>
1

> <PUBCHEM_BOND_DEF_STEREO_COUNT>
0

> <PUBCHEM_BOND_UDEF_STEREO_COUNT>
0

> <PUBCHEM_ISOTOPIC_ATOM_COUNT>
0

> <PUBCHEM_COMPONENT_COUNT>
1

> <PUBCHEM_CACTVS_TAUTO_COUNT>
1

> <PUBCHEM_CONFORMER_ID>
000219FE00000001

> <PUBCHEM_MMFF94_ENERGY>
1.6726

> <PUBCHEM_FEATURE_SELFOVERLAP>
5.074

> <PUBCHEM_SHAPE_FINGERPRINT>
14128692 85 18200310060151034223
16714656 1 18193286195352549168
18185500 45 18339644554579017559
21040471 1 17832704573964620128
23552423 10 18115879511911587230
241688 4 18409165515062021049
29004967 10 18118404174949267235
5084963 1 18343864420129646890

> <PUBCHEM_SHAPE_MULTIPOLES>
164.64
2.78
1.68
0.78
1
0.48
-0.01
-1
-0.26
-0.27
-0.16
-0.23
-0.03
-0.25

> <PUBCHEM_SHAPE_SELFOVERLAP>
318.466

> <PUBCHEM_SHAPE_VOLUME>
99.4

> <PUBCHEM_COORDINATE_TYPE>
2
5
10

$$$$
