543846
  -OEChem-08272011283D

 42 41  0     0  0  0  0  0  0999 V2000
   -9.1567   -0.5159    0.0828 Br  0  0  0  0  0  0  0  0  0  0  0  0
    0.0485    0.4509    0.0075 C   0  0  0  0  0  0  0  0  0  0  0  0
   -1.2338   -0.3823    0.0654 C   0  0  0  0  0  0  0  0  0  0  0  0
    1.2911   -0.4439    0.0104 C   0  0  0  0  0  0  0  0  0  0  0  0
   -2.5105    0.4600   -0.0072 C   0  0  0  0  0  0  0  0  0  0  0  0
    2.5718    0.3876   -0.0860 C   0  0  0  0  0  0  0  0  0  0  0  0
   -3.7926   -0.3713    0.0752 C   0  0  0  0  0  0  0  0  0  0  0  0
    3.8484   -0.4586   -0.1088 C   0  0  0  0  0  0  0  0  0  0  0  0
   -5.0356    0.5159   -0.0257 C   0  0  0  0  0  0  0  0  0  0  0  0
    5.1653    0.3211   -0.1820 C   0  0  0  0  0  0  0  0  0  0  0  0
   -6.3182   -0.3158    0.0225 C   0  0  0  0  0  0  0  0  0  0  0  0
    6.4005   -0.5787   -0.2658 C   0  0  0  0  0  0  0  0  0  0  0  0
   -7.5481    0.5742   -0.0377 C   0  0  0  0  0  0  0  0  0  0  0  0
    7.6639    0.2313   -0.2470 C   0  0  0  0  0  0  0  0  0  0  0  0
    8.6061    0.1255    0.6966 C   0  0  0  0  0  0  0  0  0  0  0  0
    0.0810    1.1355    0.8634 H   0  0  0  0  0  0  0  0  0  0  0  0
    0.0417    1.0666   -0.9000 H   0  0  0  0  0  0  0  0  0  0  0  0
   -1.2369   -1.1017   -0.7629 H   0  0  0  0  0  0  0  0  0  0  0  0
   -1.2411   -0.9681    0.9930 H   0  0  0  0  0  0  0  0  0  0  0  0
    1.2457   -1.1415   -0.8347 H   0  0  0  0  0  0  0  0  0  0  0  0
    1.3113   -1.0457    0.9268 H   0  0  0  0  0  0  0  0  0  0  0  0
   -2.5027    1.1927    0.8094 H   0  0  0  0  0  0  0  0  0  0  0  0
   -2.5080    1.0306   -0.9443 H   0  0  0  0  0  0  0  0  0  0  0  0
    2.6191    1.0795    0.7639 H   0  0  0  0  0  0  0  0  0  0  0  0
    2.5390    1.0032   -0.9934 H   0  0  0  0  0  0  0  0  0  0  0  0
   -3.8098   -0.9269    1.0205 H   0  0  0  0  0  0  0  0  0  0  0  0
   -3.8006   -1.1103   -0.7351 H   0  0  0  0  0  0  0  0  0  0  0  0
    3.8666   -1.0916    0.7876 H   0  0  0  0  0  0  0  0  0  0  0  0
    3.7978   -1.1409   -0.9670 H   0  0  0  0  0  0  0  0  0  0  0  0
   -5.0062    1.0881   -0.9611 H   0  0  0  0  0  0  0  0  0  0  0  0
   -5.0349    1.2409    0.7974 H   0  0  0  0  0  0  0  0  0  0  0  0
    5.2388    0.9683    0.7016 H   0  0  0  0  0  0  0  0  0  0  0  0
    5.1381    0.9855   -1.0553 H   0  0  0  0  0  0  0  0  0  0  0  0
   -6.3323   -0.9111    0.9441 H   0  0  0  0  0  0  0  0  0  0  0  0
   -6.3278   -1.0273   -0.8128 H   0  0  0  0  0  0  0  0  0  0  0  0
    6.3701   -1.1631   -1.1929 H   0  0  0  0  0  0  0  0  0  0  0  0
    6.3889   -1.2961    0.5637 H   0  0  0  0  0  0  0  0  0  0  0  0
   -7.6104    1.1237   -0.9809 H   0  0  0  0  0  0  0  0  0  0  0  0
   -7.5865    1.2775    0.7988 H   0  0  0  0  0  0  0  0  0  0  0  0
    7.8177    0.9360   -1.0601 H   0  0  0  0  0  0  0  0  0  0  0  0
    9.5008    0.7366    0.6502 H   0  0  0  0  0  0  0  0  0  0  0  0
    8.5038   -0.5655    1.5259 H   0  0  0  0  0  0  0  0  0  0  0  0
  1 13  1  0  0  0  0
  2  3  1  0  0  0  0
  2  4  1  0  0  0  0
  2 16  1  0  0  0  0
  2 17  1  0  0  0  0
  3  5  1  0  0  0  0
  3 18  1  0  0  0  0
  3 19  1  0  0  0  0
  4  6  1  0  0  0  0
  4 20  1  0  0  0  0
  4 21  1  0  0  0  0
  5  7  1  0  0  0  0
  5 22  1  0  0  0  0
  5 23  1  0  0  0  0
  6  8  1  0  0  0  0
  6 24  1  0  0  0  0
  6 25  1  0  0  0  0
  7  9  1  0  0  0  0
  7 26  1  0  0  0  0
  7 27  1  0  0  0  0
  8 10  1  0  0  0  0
  8 28  1  0  0  0  0
  8 29  1  0  0  0  0
  9 11  1  0  0  0  0
  9 30  1  0  0  0  0
  9 31  1  0  0  0  0
 10 12  1  0  0  0  0
 10 32  1  0  0  0  0
 10 33  1  0  0  0  0
 11 13  1  0  0  0  0
 11 34  1  0  0  0  0
 11 35  1  0  0  0  0
 12 14  1  0  0  0  0
 12 36  1  0  0  0  0
 12 37  1  0  0  0  0
 13 38  1  0  0  0  0
 13 39  1  0  0  0  0
 14 15  2  0  0  0  0
 14 40  1  0  0  0  0
 15 41  1  0  0  0  0
 15 42  1  0  0  0  0
M  END
> <PUBCHEM_COMPOUND_CID>
543846

> <PUBCHEM_CONFORMER_RMSD>
1.2

> <PUBCHEM_CONFORMER_DIVERSEORDER>
1
290
77
81
60
5
79
78
123
229
267
491
29
8
13
136
51
15
139
27
147
90
3
202
110
448
11
183
41
475
438
40
221
269
130
483
88
218
156
425
23
250
381
356
433
257
16
268
59
167
194
164
181
4
92
476
2
264
258
64
426
296
103
17
44
104
214
387
178
212
351
280

> <PUBCHEM_MMFF94_PARTIAL_CHARGES>
8
1 -0.23
12 0.14
13 0.23
14 -0.29
15 -0.3
40 0.15
41 0.15
42 0.15

> <PUBCHEM_EFFECTIVE_ROTOR_COUNT>
12

> <PUBCHEM_PHARMACOPHORE_FEATURES>
2
1 1 hydrophobe
1 15 hydrophobe

> <PUBCHEM_HEAVY_ATOM_COUNT>
15

> <PUBCHEM_ATOM_DEF_STEREO_COUNT>
0

> <PUBCHEM_ATOM_UDEF_STEREO_COUNT>
0

> <PUBCHEM_BOND_DEF_STEREO_COUNT>
0

> <PUBCHEM_BOND_UDEF_STEREO_COUNT>
0

> <PUBCHEM_ISOTOPIC_ATOM_COUNT>
0

> <PUBCHEM_COMPONENT_COUNT>
1

> <PUBCHEM_CACTVS_TAUTO_COUNT>
1

> <PUBCHEM_CONFORMER_ID>
00084C6600000001

> <PUBCHEM_MMFF94_ENERGY>
-0.1447

> <PUBCHEM_FEATURE_SELFOVERLAP>
10.149

> <PUBCHEM_SHAPE_FINGERPRINT>
11315181 36 17060340738806996755
12091667 2 18410294710105266385
14123256 10 18410575080368111619
14251764 18 18334576823929692248
14251764 46 18334295370870819138
14428016 248 14117801344483636923
155225 1 15697991978220268872
16120349 18 18261392291109738700
17834076 25 18410293605391400974
18006028 8 17489587857117629849
20621476 8 11241968187647731147
21150785 3 18131632283415859339
22224240 67 18335419075880958298
232437 2 18408886234861214058
23521765 1 18341895190345678853
33684 2 18410573980856490346
59567204 34 17895187746341904373
59682541 35 17989486342135061651
67123 10 18410856576819658757
8209 1 18410856559645070837

> <PUBCHEM_SHAPE_MULTIPOLES>
314.64
31.73
0.81
0.67
4.27
0.01
0.02
1.16
1.73
0.32
-0.01
-0.27
0
0.12

> <PUBCHEM_SHAPE_SELFOVERLAP>
551.173

> <PUBCHEM_SHAPE_VOLUME>
206.6

> <PUBCHEM_COORDINATE_TYPE>
2
5
10

$$$$
