68103
  -OEChem-08272012123D

 20 20  0     0  0  0  0  0  0999 V2000
    1.0891   -2.3976    0.0000 O   0  0  0  0  0  0  0  0  0  0  0  0
    1.0893    2.3977    0.0002 O   0  0  0  0  0  0  0  0  0  0  0  0
    1.1222   -0.0001    0.0000 C   0  0  0  0  0  0  0  0  0  0  0  0
   -1.6677    0.0000    0.0000 C   0  0  0  0  0  0  0  0  0  0  0  0
    0.4246   -1.2080    0.0000 C   0  0  0  0  0  0  0  0  0  0  0  0
    0.4248    1.2080   -0.0001 C   0  0  0  0  0  0  0  0  0  0  0  0
   -0.9703   -1.2079    0.0000 C   0  0  0  0  0  0  0  0  0  0  0  0
   -0.9702    1.2079   -0.0002 C   0  0  0  0  0  0  0  0  0  0  0  0
    2.6172   -0.0001    0.0000 C   0  0  0  0  0  0  0  0  0  0  0  0
   -3.1590    0.0001    0.0001 C   0  0  0  0  0  0  0  0  0  0  0  0
   -1.5086   -2.1526    0.0020 H   0  0  0  0  0  0  0  0  0  0  0  0
   -1.5159    2.1486    0.0017 H   0  0  0  0  0  0  0  0  0  0  0  0
    2.9993   -0.5040   -0.8945 H   0  0  0  0  0  0  0  0  0  0  0  0
    3.0451    1.0071   -0.0001 H   0  0  0  0  0  0  0  0  0  0  0  0
    2.9993   -0.5038    0.8945 H   0  0  0  0  0  0  0  0  0  0  0  0
   -3.5345    0.0257    1.0279 H   0  0  0  0  0  0  0  0  0  0  0  0
   -3.5535    0.8675   -0.5401 H   0  0  0  0  0  0  0  0  0  0  0  0
   -3.5553   -0.8927   -0.4955 H   0  0  0  0  0  0  0  0  0  0  0  0
    2.0494   -2.2647    0.0001 H   0  0  0  0  0  0  0  0  0  0  0  0
    0.4421    3.1236    0.0001 H   0  0  0  0  0  0  0  0  0  0  0  0
  1  5  1  0  0  0  0
  1 19  1  0  0  0  0
  2  6  1  0  0  0  0
  2 20  1  0  0  0  0
  3  5  2  0  0  0  0
  3  6  1  0  0  0  0
  3  9  1  0  0  0  0
  4  7  2  0  0  0  0
  4  8  1  0  0  0  0
  4 10  1  0  0  0  0
  5  7  1  0  0  0  0
  6  8  2  0  0  0  0
  7 11  1  0  0  0  0
  8 12  1  0  0  0  0
  9 13  1  0  0  0  0
  9 14  1  0  0  0  0
  9 15  1  0  0  0  0
 10 16  1  0  0  0  0
 10 17  1  0  0  0  0
 10 18  1  0  0  0  0
M  END
> <PUBCHEM_COMPOUND_CID>
68103

> <PUBCHEM_CONFORMER_RMSD>
0.4

> <PUBCHEM_CONFORMER_DIVERSEORDER>
1

> <PUBCHEM_MMFF94_PARTIAL_CHARGES>
14
1 -0.53
10 0.14
11 0.15
12 0.15
19 0.45
2 -0.53
20 0.45
3 -0.14
4 -0.14
5 0.08
6 0.08
7 -0.15
8 -0.15
9 0.14

> <PUBCHEM_EFFECTIVE_ROTOR_COUNT>
0

> <PUBCHEM_PHARMACOPHORE_FEATURES>
3
1 1 donor
1 2 donor
6 3 4 5 6 7 8 rings

> <PUBCHEM_HEAVY_ATOM_COUNT>
10

> <PUBCHEM_ATOM_DEF_STEREO_COUNT>
0

> <PUBCHEM_ATOM_UDEF_STEREO_COUNT>
0

> <PUBCHEM_BOND_DEF_STEREO_COUNT>
0

> <PUBCHEM_BOND_UDEF_STEREO_COUNT>
0

> <PUBCHEM_ISOTOPIC_ATOM_COUNT>
0

> <PUBCHEM_COMPONENT_COUNT>
1

> <PUBCHEM_CACTVS_TAUTO_COUNT>
10

> <PUBCHEM_CONFORMER_ID>
00010A0700000001

> <PUBCHEM_MMFF94_ENERGY>
25.5762

> <PUBCHEM_FEATURE_SELFOVERLAP>
15.223

> <PUBCHEM_SHAPE_FINGERPRINT>
12423570 1 10069466502516409919
16945 1 18410573989652133767
18185500 45 18340204098607548911
193761 8 17690279309459041220
21040471 1 17906453581826496805
23235685 24 18410288129355662305
23402655 69 18195509430209655181
23552423 10 17973170525781658782
241688 4 17906173953669620217
2748010 2 18121220049997779239
29004967 10 18335708204262205955
5084963 1 18130789022332141993
528886 8 18411133675224707947

> <PUBCHEM_SHAPE_MULTIPOLES>
194.06
3.22
2.09
0.6
1.31
0
0
0
0
-0.86
0
0.02
0
0

> <PUBCHEM_SHAPE_SELFOVERLAP>
404.733

> <PUBCHEM_SHAPE_VOLUME>
111.8

> <PUBCHEM_COORDINATE_TYPE>
2
5
10

$$$$
