91711065
  -OEChem-08272009453D

 44 44  0     1  0  0  0  0  0999 V2000
   -1.3285   -0.5791   -0.3868 O   0  0  0  0  0  0  0  0  0  0  0  0
   -2.5615   -2.0809    0.8547 O   0  0  0  0  0  0  0  0  0  0  0  0
   -4.8586   -1.1394   -0.1629 O   0  0  0  0  0  0  0  0  0  0  0  0
    1.5968    0.8872    0.2169 C   0  0  0  0  0  0  0  0  0  0  0  0
    1.0497   -0.3875   -0.4038 C   0  0  1  0  0  0  0  0  0  0  0  0
    2.3801   -0.4153    0.3096 C   0  0  1  0  0  0  0  0  0  0  0  0
    0.8640    1.4329    1.4198 C   0  0  0  0  0  0  0  0  0  0  0  0
    2.1638    1.9751   -0.6615 C   0  0  0  0  0  0  0  0  0  0  0  0
   -0.1207   -1.1159    0.1619 C   0  0  0  0  0  0  0  0  0  0  0  0
    3.5923   -0.6156   -0.4722 C   0  0  0  0  0  0  0  0  0  0  0  0
    4.8503   -0.2613   -0.1470 C   0  0  0  0  0  0  0  0  0  0  0  0
    6.0015   -0.5422   -1.0724 C   0  0  0  0  0  0  0  0  0  0  0  0
    5.2190    0.4295    1.1354 C   0  0  0  0  0  0  0  0  0  0  0  0
   -2.4835   -1.1608    0.0509 C   0  0  0  0  0  0  0  0  0  0  0  0
   -3.6780   -0.4737   -0.5869 C   0  0  2  0  0  0  0  0  0  0  0  0
   -3.7574    1.0222   -0.2266 C   0  0  0  0  0  0  0  0  0  0  0  0
   -4.6125    1.8202   -1.2171 C   0  0  0  0  0  0  0  0  0  0  0  0
   -4.3168    1.2047    1.1881 C   0  0  0  0  0  0  0  0  0  0  0  0
    1.0508   -0.4500   -1.4883 H   0  0  0  0  0  0  0  0  0  0  0  0
    2.4001   -0.9122    1.2757 H   0  0  0  0  0  0  0  0  0  0  0  0
    2.5097    1.5988   -1.6299 H   0  0  0  0  0  0  0  0  0  0  0  0
    3.0018    2.4739   -0.1635 H   0  0  0  0  0  0  0  0  0  0  0  0
    1.3961    2.7287   -0.8693 H   0  0  0  0  0  0  0  0  0  0  0  0
    0.7443    0.6871    2.2115 H   0  0  0  0  0  0  0  0  0  0  0  0
    1.4218    2.2683    1.8575 H   0  0  0  0  0  0  0  0  0  0  0  0
   -0.1261    1.8006    1.1311 H   0  0  0  0  0  0  0  0  0  0  0  0
   -0.0448   -2.1700   -0.1314 H   0  0  0  0  0  0  0  0  0  0  0  0
   -0.1583   -1.0738    1.2553 H   0  0  0  0  0  0  0  0  0  0  0  0
    3.4508   -1.1225   -1.4257 H   0  0  0  0  0  0  0  0  0  0  0  0
    5.9294   -0.1810    1.7023 H   0  0  0  0  0  0  0  0  0  0  0  0
    6.4943    0.3928   -1.3583 H   0  0  0  0  0  0  0  0  0  0  0  0
    6.7364   -1.1861   -0.5784 H   0  0  0  0  0  0  0  0  0  0  0  0
    5.6840   -1.0449   -1.9920 H   0  0  0  0  0  0  0  0  0  0  0  0
    5.6864    1.3963    0.9216 H   0  0  0  0  0  0  0  0  0  0  0  0
    4.3565    0.6171    1.7816 H   0  0  0  0  0  0  0  0  0  0  0  0
   -3.5906   -0.6063   -1.6719 H   0  0  0  0  0  0  0  0  0  0  0  0
   -2.7525    1.4614   -0.2527 H   0  0  0  0  0  0  0  0  0  0  0  0
   -5.3630    0.8895    1.2626 H   0  0  0  0  0  0  0  0  0  0  0  0
   -4.2729    2.2599    1.4801 H   0  0  0  0  0  0  0  0  0  0  0  0
   -3.7326    0.6387    1.9212 H   0  0  0  0  0  0  0  0  0  0  0  0
   -5.6431    1.4506   -1.2402 H   0  0  0  0  0  0  0  0  0  0  0  0
   -4.6370    2.8809   -0.9456 H   0  0  0  0  0  0  0  0  0  0  0  0
   -4.2019    1.7426   -2.2293 H   0  0  0  0  0  0  0  0  0  0  0  0
   -4.8257   -2.0463   -0.5127 H   0  0  0  0  0  0  0  0  0  0  0  0
  1  9  1  0  0  0  0
  1 14  1  0  0  0  0
  2 14  2  0  0  0  0
  3 15  1  0  0  0  0
  3 44  1  0  0  0  0
  4  5  1  0  0  0  0
  4  6  1  0  0  0  0
  4  7  1  0  0  0  0
  4  8  1  0  0  0  0
  5  6  1  0  0  0  0
  5  9  1  0  0  0  0
  5 19  1  0  0  0  0
  6 10  1  0  0  0  0
  6 20  1  0  0  0  0
  7 24  1  0  0  0  0
  7 25  1  0  0  0  0
  7 26  1  0  0  0  0
  8 21  1  0  0  0  0
  8 22  1  0  0  0  0
  8 23  1  0  0  0  0
  9 27  1  0  0  0  0
  9 28  1  0  0  0  0
 10 11  2  0  0  0  0
 10 29  1  0  0  0  0
 11 12  1  0  0  0  0
 11 13  1  0  0  0  0
 12 31  1  0  0  0  0
 12 32  1  0  0  0  0
 12 33  1  0  0  0  0
 13 30  1  0  0  0  0
 13 34  1  0  0  0  0
 13 35  1  0  0  0  0
 14 15  1  0  0  0  0
 15 16  1  0  0  0  0
 15 36  1  0  0  0  0
 16 17  1  0  0  0  0
 16 18  1  0  0  0  0
 16 37  1  0  0  0  0
 17 41  1  0  0  0  0
 17 42  1  0  0  0  0
 17 43  1  0  0  0  0
 18 38  1  0  0  0  0
 18 39  1  0  0  0  0
 18 40  1  0  0  0  0
M  END
> <PUBCHEM_COMPOUND_CID>
91711065

> <PUBCHEM_CONFORMER_RMSD>
1.4

> <PUBCHEM_CONFORMER_DIVERSEORDER>
1
32
47
33
19
36
34
28
12
31
55
54
4
29
17
38
27
35
53
24
30
44
18
13
42
41
8
46
2
22
21
23
52
26
14
43
11
3
39
10
50
25
16
9
49
37
5
7
15
45
20
51
40
48
6
56

> <PUBCHEM_MMFF94_PARTIAL_CHARGES>
19
1 -0.43
10 -0.19
11 -0.28
12 0.14
13 0.14
14 0.66
15 0.34
19 0.1
2 -0.57
20 0.1
29 0.15
3 -0.68
4 -0.19
44 0.4
5 -0.19
6 -0.06
7 0.09
8 0.09
9 0.38

> <PUBCHEM_EFFECTIVE_ROTOR_COUNT>
6.6

> <PUBCHEM_PHARMACOPHORE_FEATURES>
6
1 2 acceptor
1 3 acceptor
1 3 donor
3 11 12 13 hydrophobe
3 16 17 18 hydrophobe
3 4 7 8 hydrophobe

> <PUBCHEM_HEAVY_ATOM_COUNT>
18

> <PUBCHEM_ATOM_DEF_STEREO_COUNT>
0

> <PUBCHEM_ATOM_UDEF_STEREO_COUNT>
3

> <PUBCHEM_BOND_DEF_STEREO_COUNT>
0

> <PUBCHEM_BOND_UDEF_STEREO_COUNT>
0

> <PUBCHEM_ISOTOPIC_ATOM_COUNT>
0

> <PUBCHEM_COMPONENT_COUNT>
1

> <PUBCHEM_CACTVS_TAUTO_COUNT>
1

> <PUBCHEM_CONFORMER_ID>
0577665900000001

> <PUBCHEM_MMFF94_ENERGY>
28.5823

> <PUBCHEM_FEATURE_SELFOVERLAP>
30.454

> <PUBCHEM_SHAPE_FINGERPRINT>
10366900 7 15502367955057557685
10912923 1 16950280741378839266
11552529 35 15502957314728056969
124424 183 18273496783969110083
12507557 5 18341891900970760753
12916754 54 17631164367998882535
13134695 92 16917063404008096896
13590594 115 17603588504526263652
13675066 3 18201437029958316674
14251731 8 18408604738520222524
14251752 14 18114744820580866046
14573314 32 18060702767197131644
15048467 5 17822013103717094478
15375358 24 18060137635252929750
15788980 27 17917993897173894446
1601671 61 18335420141174882862
17349148 13 13686296911172858514
17834072 14 17846780715323719056
17834072 8 18343021069089032060
17980427 23 13901913344671750994
18927931 339 11455890291013460741
200 152 16415478242283099211
20281389 69 18186799162706240484
20621476 66 18270690774708949225
20645477 70 17632302233547670110
21033648 29 17417798556954651930
21267235 1 18409738391191362767
21503847 285 17167863092719609612
21709351 56 18413384354231303479
23175994 123 18060143158348582008
23402539 116 12319736951314614219
23557571 272 9583253759147473147
23559900 14 18337101393195873459
3545911 37 18341613698785256511
4214541 1 18409167727328738007
5104073 3 18261956361811929512
5283173 99 18201157642241247440
542803 24 14548740624759795851
6430166 295 18335136483848409575
68521 5 18272093756115057248
9971528 1 18272089405444749772

> <PUBCHEM_SHAPE_MULTIPOLES>
352.82
12.89
1.81
1.15
3.83
0.27
0.12
0.55
-1.82
-1.56
0.06
0.01
0.37
0.77

> <PUBCHEM_SHAPE_SELFOVERLAP>
690.643

> <PUBCHEM_SHAPE_VOLUME>
213.8

> <PUBCHEM_COORDINATE_TYPE>
2
5
10

$$$$
