534042
  -OEChem-08272010073D

 18 19  0     1  0  0  0  0  0999 V2000
   -0.7331   -1.4645   -0.6861 O   0  0  0  0  0  0  0  0  0  0  0  0
   -1.2648   -0.7664    0.4426 C   0  0  1  0  0  0  0  0  0  0  0  0
    0.2053   -1.0939    0.3443 C   0  0  2  0  0  0  0  0  0  0  0  0
   -1.7659    0.6160    0.1725 C   0  0  0  0  0  0  0  0  0  0  0  0
    1.1762   -0.0012    0.1408 C   0  0  0  0  0  0  0  0  0  0  0  0
   -0.7202    1.5149   -0.4875 C   0  0  0  0  0  0  0  0  0  0  0  0
    0.6317    1.4085    0.2215 C   0  0  0  0  0  0  0  0  0  0  0  0
    2.4707   -0.2136   -0.1481 C   0  0  0  0  0  0  0  0  0  0  0  0
   -1.8892   -1.3247    1.1263 H   0  0  0  0  0  0  0  0  0  0  0  0
    0.5630   -1.8950    0.9838 H   0  0  0  0  0  0  0  0  0  0  0  0
   -2.0653    1.0640    1.1278 H   0  0  0  0  0  0  0  0  0  0  0  0
   -2.6649    0.5706   -0.4521 H   0  0  0  0  0  0  0  0  0  0  0  0
   -1.0701    2.5535   -0.4691 H   0  0  0  0  0  0  0  0  0  0  0  0
   -0.6056    1.2364   -1.5430 H   0  0  0  0  0  0  0  0  0  0  0  0
    0.5216    1.6906    1.2759 H   0  0  0  0  0  0  0  0  0  0  0  0
    1.3264    2.1249   -0.2333 H   0  0  0  0  0  0  0  0  0  0  0  0
    2.8665   -1.2209   -0.2276 H   0  0  0  0  0  0  0  0  0  0  0  0
    3.1596    0.6087   -0.3091 H   0  0  0  0  0  0  0  0  0  0  0  0
  1  2  1  0  0  0  0
  1  3  1  0  0  0  0
  2  3  1  0  0  0  0
  2  4  1  0  0  0  0
  2  9  1  0  0  0  0
  3  5  1  0  0  0  0
  3 10  1  0  0  0  0
  4  6  1  0  0  0  0
  4 11  1  0  0  0  0
  4 12  1  0  0  0  0
  5  7  1  0  0  0  0
  5  8  2  0  0  0  0
  6  7  1  0  0  0  0
  6 13  1  0  0  0  0
  6 14  1  0  0  0  0
  7 15  1  0  0  0  0
  7 16  1  0  0  0  0
  8 17  1  0  0  0  0
  8 18  1  0  0  0  0
M  END
> <PUBCHEM_COMPOUND_CID>
534042

> <PUBCHEM_CONFORMER_RMSD>
0.4

> <PUBCHEM_CONFORMER_DIVERSEORDER>
1
3
2
4

> <PUBCHEM_MMFF94_PARTIAL_CHARGES>
11
1 -0.3
10 0.1
17 0.15
18 0.15
2 -0.05
3 0.09
4 0.09
5 -0.18
7 0.14
8 -0.3
9 0.1

> <PUBCHEM_EFFECTIVE_ROTOR_COUNT>
0.8

> <PUBCHEM_PHARMACOPHORE_FEATURES>
2
1 1 acceptor
7 1 2 3 4 5 6 7 rings

> <PUBCHEM_HEAVY_ATOM_COUNT>
8

> <PUBCHEM_ATOM_DEF_STEREO_COUNT>
0

> <PUBCHEM_ATOM_UDEF_STEREO_COUNT>
2

> <PUBCHEM_BOND_DEF_STEREO_COUNT>
0

> <PUBCHEM_BOND_UDEF_STEREO_COUNT>
0

> <PUBCHEM_ISOTOPIC_ATOM_COUNT>
0

> <PUBCHEM_COMPONENT_COUNT>
1

> <PUBCHEM_CACTVS_TAUTO_COUNT>
1

> <PUBCHEM_CONFORMER_ID>
0008261A00000001

> <PUBCHEM_MMFF94_ENERGY>
8.6842

> <PUBCHEM_FEATURE_SELFOVERLAP>
10.148

> <PUBCHEM_SHAPE_FINGERPRINT>
137420 1 11115773647297914625
16714656 1 18409737226901544324
16945 1 18261678077589535809
18185500 45 17405428191958652039
21040471 1 18193269698304173936
23552423 10 18187370904753213090
241688 4 18265046014886368833
29004967 10 17899701450913322584
5084963 1 18409732837323629193

> <PUBCHEM_SHAPE_MULTIPOLES>
158.77
2.36
1.64
0.73
1.02
0.16
-0.02
0.04
-0.01
-0.36
-0.13
-0.06
-0.04
0.06

> <PUBCHEM_SHAPE_SELFOVERLAP>
322.314

> <PUBCHEM_SHAPE_VOLUME>
92.8

> <PUBCHEM_COORDINATE_TYPE>
2
5
10

$$$$
