69954911
  -OEChem-08272000193D

 32 34  0     0  0  0  0  0  0999 V2000
    5.0203   -1.4723    0.9109 F   0  0  0  0  0  0  0  0  0  0  0  0
    4.5931   -1.7577   -1.2019 F   0  0  0  0  0  0  0  0  0  0  0  0
    5.6724    0.0051   -0.5452 F   0  0  0  0  0  0  0  0  0  0  0  0
   -2.3650    1.1177   -0.7545 N   0  0  0  0  0  0  0  0  0  0  0  0
   -1.5985    1.1417    0.3796 C   0  0  0  0  0  0  0  0  0  0  0  0
   -0.4021    1.9981    0.4780 C   0  0  0  0  0  0  0  0  0  0  0  0
   -3.4178    0.2447   -0.5978 C   0  0  0  0  0  0  0  0  0  0  0  0
   -3.3110   -0.3023    0.6828 C   0  0  0  0  0  0  0  0  0  0  0  0
    0.9181    1.2622    0.2956 C   0  0  0  0  0  0  0  0  0  0  0  0
   -2.1585    0.2730    1.2877 C   0  0  0  0  0  0  0  0  0  0  0  0
    1.4640    0.5369    1.3547 C   0  0  0  0  0  0  0  0  0  0  0  0
    1.5815    1.3124   -0.9304 C   0  0  0  0  0  0  0  0  0  0  0  0
   -4.4459   -0.0994   -1.4826 C   0  0  0  0  0  0  0  0  0  0  0  0
   -4.2763   -1.2388    1.1030 C   0  0  0  0  0  0  0  0  0  0  0  0
    3.3366   -0.0874   -0.0381 C   0  0  0  0  0  0  0  0  0  0  0  0
    2.6732   -0.1379    1.1880 C   0  0  0  0  0  0  0  0  0  0  0  0
    2.7908    0.6377   -1.0974 C   0  0  0  0  0  0  0  0  0  0  0  0
   -5.3922   -1.0299   -1.0438 C   0  0  0  0  0  0  0  0  0  0  0  0
   -5.3106   -1.5921    0.2287 C   0  0  0  0  0  0  0  0  0  0  0  0
    4.6279   -0.8117   -0.2172 C   0  0  0  0  0  0  0  0  0  0  0  0
   -0.3866    2.4928    1.4588 H   0  0  0  0  0  0  0  0  0  0  0  0
   -0.4581    2.8208   -0.2476 H   0  0  0  0  0  0  0  0  0  0  0  0
   -2.1866    1.6595   -1.5891 H   0  0  0  0  0  0  0  0  0  0  0  0
   -1.7832    0.0713    2.2820 H   0  0  0  0  0  0  0  0  0  0  0  0
    0.9586    0.4921    2.3157 H   0  0  0  0  0  0  0  0  0  0  0  0
    1.1655    1.8718   -1.7641 H   0  0  0  0  0  0  0  0  0  0  0  0
   -4.5102    0.3376   -2.4734 H   0  0  0  0  0  0  0  0  0  0  0  0
   -4.2246   -1.6849    2.0920 H   0  0  0  0  0  0  0  0  0  0  0  0
    3.0814   -0.6969    2.0254 H   0  0  0  0  0  0  0  0  0  0  0  0
    3.2998    0.6818   -2.0565 H   0  0  0  0  0  0  0  0  0  0  0  0
   -6.2039   -1.3188   -1.7066 H   0  0  0  0  0  0  0  0  0  0  0  0
   -6.0581   -2.3138    0.5475 H   0  0  0  0  0  0  0  0  0  0  0  0
  1 20  1  0  0  0  0
  2 20  1  0  0  0  0
  3 20  1  0  0  0  0
  4  5  1  0  0  0  0
  4  7  1  0  0  0  0
  4 23  1  0  0  0  0
  5  6  1  0  0  0  0
  5 10  2  0  0  0  0
  6  9  1  0  0  0  0
  6 21  1  0  0  0  0
  6 22  1  0  0  0  0
  7  8  1  0  0  0  0
  7 13  2  0  0  0  0
  8 10  1  0  0  0  0
  8 14  2  0  0  0  0
  9 11  2  0  0  0  0
  9 12  1  0  0  0  0
 10 24  1  0  0  0  0
 11 16  1  0  0  0  0
 11 25  1  0  0  0  0
 12 17  2  0  0  0  0
 12 26  1  0  0  0  0
 13 18  1  0  0  0  0
 13 27  1  0  0  0  0
 14 19  1  0  0  0  0
 14 28  1  0  0  0  0
 15 16  2  0  0  0  0
 15 17  1  0  0  0  0
 15 20  1  0  0  0  0
 16 29  1  0  0  0  0
 17 30  1  0  0  0  0
 18 19  2  0  0  0  0
 18 31  1  0  0  0  0
 19 32  1  0  0  0  0
M  END
> <PUBCHEM_COMPOUND_CID>
69954911

> <PUBCHEM_CONFORMER_RMSD>
0.6

> <PUBCHEM_CONFORMER_DIVERSEORDER>
1
6
5
4
7
2
9
3
8

> <PUBCHEM_MMFF94_PARTIAL_CHARGES>
29
1 -0.34
10 -0.15
11 -0.15
12 -0.15
13 -0.15
14 -0.15
15 -0.14
16 -0.15
17 -0.15
18 -0.15
19 -0.15
2 -0.34
20 1.16
23 0.27
24 0.15
25 0.15
26 0.15
27 0.15
28 0.15
29 0.15
3 -0.34
30 0.15
31 0.15
32 0.15
4 0.03
5 -0.33
6 0.32
7 -0.15
9 -0.14

> <PUBCHEM_EFFECTIVE_ROTOR_COUNT>
3

> <PUBCHEM_PHARMACOPHORE_FEATURES>
5
1 4 cation
1 4 donor
5 4 5 7 8 10 rings
6 7 8 13 14 18 19 rings
6 9 11 12 15 16 17 rings

> <PUBCHEM_HEAVY_ATOM_COUNT>
20

> <PUBCHEM_ATOM_DEF_STEREO_COUNT>
0

> <PUBCHEM_ATOM_UDEF_STEREO_COUNT>
0

> <PUBCHEM_BOND_DEF_STEREO_COUNT>
0

> <PUBCHEM_BOND_UDEF_STEREO_COUNT>
0

> <PUBCHEM_ISOTOPIC_ATOM_COUNT>
0

> <PUBCHEM_COMPONENT_COUNT>
1

> <PUBCHEM_CACTVS_TAUTO_COUNT>
1

> <PUBCHEM_CONFORMER_ID>
042B6D5F00000001

> <PUBCHEM_MMFF94_ENERGY>
35.4622

> <PUBCHEM_FEATURE_SELFOVERLAP>
25.464

> <PUBCHEM_SHAPE_FINGERPRINT>
10319926 262 13829866733055043869
10447042 23 18408318891657168622
10498660 4 12107787410679884055
10670039 82 11747205823852582366
11046707 91 18342457023729202009
11089746 13 11674881134551402614
11796584 16 18409727331244263743
12251169 10 13973965428388106137
12363563 72 18342744030782116881
12403259 118 12751238125525533819
12596602 18 14979954783048894594
12633257 1 15267058176940282541
12670546 177 16949995937570183671
12892183 10 13901922093651935901
12954195 1 18261097540890165805
13103583 49 16271935908476718043
13583140 156 14620512281782535585
13675066 3 12895079508824547425
13955234 65 17915454124061739120
14123255 352 8214141845811941691
14178342 30 16916244168955621465
1420 369 18130792252063347502
14251752 14 18261387802963638805
14251764 30 16916801643326497972
14341114 176 14117807916089248844
14341114 328 14261349201934269947
14576447 43 18040434387025277466
14848178 5 18412824651373747942
14849402 71 14979374293240049178
15183329 4 16660635233178736131
15188451 53 16415189135951344367
15209294 21 11167936952852510168
15210252 30 13045944603421322734
15238133 3 12967138249639758434
17870717 6 17894910733365948351
1798214 20 18113896065463824024
1813 80 17703801335238621097
18222031 100 18201715167508236872
19050596 39 14620792738725363761
193927 3 18412270531645870031
19784866 170 11959737066029876288
19784866 240 18342178882074211925
19862831 5 17168144546210797433
200 152 18408040710630295049
20028762 73 16773507875766692871
20325693 3 16877657972989764167
20374829 77 18408037403637274497
204376 136 8430322333572276049
20645477 70 18261113023091778293
20871999 31 17167858660634911549
21065199 12 13829864503940610781
21637258 2 18342731914515578178
21713013 43 17603865658801971827
221357 26 17168139057606362957
22393880 68 17023180565217444155
22646028 28 18413392033537999561
231179 274 7997970171963335052
23198884 109 15213014951621489051
23402539 116 18408889503294396641
23402655 69 15792004558967257053
23403322 49 18408040710777786737
23503953 91 13973963224948291025
23559900 14 17822568425608696397
26918003 58 16343983611526664561
270888 7 7925914772564382007
2767999 5 10737283558521306471
2838139 119 12396293776977190814
2871803 45 18040995154623680977
2916195 48 10881409741634059127
29717793 49 18334294275295631797
3004659 81 18040148535007529993
312423 11 18341624736398241313
314194 84 18130508621176402452
3472631 163 11818992993906577371
351380 3 18202001036083504167
3737641 26 17202217222113528798
38570 142 14044317779176333634
4028521 119 13623527956990813237
4259306 186 18410012134852251343
44062 13 18261668290203658587
463206 1 18340201994475150163
465052 167 18269282433926927759
474 4 12035447246506672077
5924683 9 13254502198514261053
59682541 52 15574976348043244595
59755656 520 17912082742771301321
633830 44 12613294431855399241
7808743 9 8718537311690789831
7970288 3 18272370914507555103
960060 61 16660362567491322290

> <PUBCHEM_SHAPE_MULTIPOLES>
384.79
13.02
1.64
1.39
1.9
0
-0.02
-8.26
-2.96
0.25
0
-0.33
-0.07
0.24

> <PUBCHEM_SHAPE_SELFOVERLAP>
851.592

> <PUBCHEM_SHAPE_VOLUME>
208.9

> <PUBCHEM_COORDINATE_TYPE>
2
5
10

$$$$
