528702
  -OEChem-08272003483D

 16 16  0     1  0  0  0  0  0999 V2000
   -1.9391    1.4062    0.1625 O   0  0  0  0  0  0  0  0  0  0  0  0
   -1.6902   -1.4835    0.2156 O   0  0  0  0  0  0  0  0  0  0  0  0
    1.4675    0.0576   -0.4253 C   0  0  1  0  0  0  0  0  0  0  0  0
    0.6697   -1.2461   -0.2713 C   0  0  0  0  0  0  0  0  0  0  0  0
    0.4410    1.1438   -0.2733 C   0  0  0  0  0  0  0  0  0  0  0  0
   -0.7275   -0.7627    0.0030 C   0  0  0  0  0  0  0  0  0  0  0  0
    2.5733    0.1820    0.6164 C   0  0  0  0  0  0  0  0  0  0  0  0
   -0.7946    0.7026   -0.0276 C   0  0  0  0  0  0  0  0  0  0  0  0
    1.9115    0.1065   -1.4265 H   0  0  0  0  0  0  0  0  0  0  0  0
    1.0201   -1.8659    0.5592 H   0  0  0  0  0  0  0  0  0  0  0  0
    0.6764   -1.8233   -1.2011 H   0  0  0  0  0  0  0  0  0  0  0  0
    0.6901    2.1936   -0.3587 H   0  0  0  0  0  0  0  0  0  0  0  0
    3.1148    1.1272    0.4995 H   0  0  0  0  0  0  0  0  0  0  0  0
    2.1745    0.1487    1.6367 H   0  0  0  0  0  0  0  0  0  0  0  0
    3.2956   -0.6343    0.5098 H   0  0  0  0  0  0  0  0  0  0  0  0
   -2.6527    0.7626    0.3146 H   0  0  0  0  0  0  0  0  0  0  0  0
  1  8  1  0  0  0  0
  1 16  1  0  0  0  0
  2  6  2  0  0  0  0
  3  4  1  0  0  0  0
  3  5  1  0  0  0  0
  3  7  1  0  0  0  0
  3  9  1  0  0  0  0
  4  6  1  0  0  0  0
  4 10  1  0  0  0  0
  4 11  1  0  0  0  0
  5  8  2  0  0  0  0
  5 12  1  0  0  0  0
  6  8  1  0  0  0  0
  7 13  1  0  0  0  0
  7 14  1  0  0  0  0
  7 15  1  0  0  0  0
M  END
> <PUBCHEM_COMPOUND_CID>
528702

> <PUBCHEM_CONFORMER_RMSD>
0.4

> <PUBCHEM_CONFORMER_DIVERSEORDER>
1

> <PUBCHEM_MMFF94_PARTIAL_CHARGES>
9
1 -0.53
12 0.15
16 0.45
2 -0.57
3 0.14
4 0.06
5 -0.29
6 0.49
8 0.09

> <PUBCHEM_EFFECTIVE_ROTOR_COUNT>
0.4

> <PUBCHEM_PHARMACOPHORE_FEATURES>
3
1 1 donor
1 2 acceptor
5 3 4 5 6 8 rings

> <PUBCHEM_HEAVY_ATOM_COUNT>
8

> <PUBCHEM_ATOM_DEF_STEREO_COUNT>
0

> <PUBCHEM_ATOM_UDEF_STEREO_COUNT>
1

> <PUBCHEM_BOND_DEF_STEREO_COUNT>
0

> <PUBCHEM_BOND_UDEF_STEREO_COUNT>
0

> <PUBCHEM_ISOTOPIC_ATOM_COUNT>
0

> <PUBCHEM_COMPONENT_COUNT>
1

> <PUBCHEM_CACTVS_TAUTO_COUNT>
10

> <PUBCHEM_CONFORMER_ID>
0008113E00000001

> <PUBCHEM_MMFF94_ENERGY>
6.643

> <PUBCHEM_FEATURE_SELFOVERLAP>
15.223

> <PUBCHEM_SHAPE_FINGERPRINT>
18185500 45 17546729717020786286
21040471 1 18265904553052713468
23552423 10 18187370917622303870
29004967 10 18046067334943715850
5084963 1 18059024993846637810

> <PUBCHEM_SHAPE_MULTIPOLES>
152.9
2.63
1.53
0.69
0.8
0.11
0
-0.22
-0.53
-0.69
0.01
0.18
0
0.05

> <PUBCHEM_SHAPE_SELFOVERLAP>
311.059

> <PUBCHEM_SHAPE_VOLUME>
89.9

> <PUBCHEM_COORDINATE_TYPE>
2
5
10

$$$$
