556700
  -OEChem-08272004183D

 26 28  0     1  0  0  0  0  0999 V2000
    0.6556    1.1630   -0.4345 C   0  0  2  0  0  0  0  0  0  0  0  0
   -0.6559    1.1629    0.4344 C   0  0  2  0  0  0  0  0  0  0  0  0
    0.6559   -1.1630   -0.4344 C   0  0  1  0  0  0  0  0  0  0  0  0
   -0.6557   -1.1630    0.4344 C   0  0  1  0  0  0  0  0  0  0  0  0
    0.6533    0.0000   -1.4318 C   0  0  0  0  0  0  0  0  0  0  0  0
   -0.6533    0.0001    1.4317 C   0  0  0  0  0  0  0  0  0  0  0  0
    1.9015    0.7769    0.3957 C   0  0  0  0  0  0  0  0  0  0  0  0
   -1.9016    0.7766   -0.3958 C   0  0  0  0  0  0  0  0  0  0  0  0
    1.9016   -0.7767    0.3959 C   0  0  0  0  0  0  0  0  0  0  0  0
   -1.9015   -0.7768   -0.3957 C   0  0  0  0  0  0  0  0  0  0  0  0
    0.7758    2.1269   -0.9385 H   0  0  0  0  0  0  0  0  0  0  0  0
   -0.7761    2.1268    0.9383 H   0  0  0  0  0  0  0  0  0  0  0  0
    0.7761   -2.1269   -0.9383 H   0  0  0  0  0  0  0  0  0  0  0  0
   -0.7759   -2.1268    0.9386 H   0  0  0  0  0  0  0  0  0  0  0  0
   -0.1788   -0.0001   -2.1373 H   0  0  0  0  0  0  0  0  0  0  0  0
    1.5666    0.0000   -2.0423 H   0  0  0  0  0  0  0  0  0  0  0  0
    0.1788    0.0001    2.1372 H   0  0  0  0  0  0  0  0  0  0  0  0
   -1.5666    0.0000    2.0423 H   0  0  0  0  0  0  0  0  0  0  0  0
    1.8964    1.2030    1.4034 H   0  0  0  0  0  0  0  0  0  0  0  0
    2.8114    1.1353   -0.1014 H   0  0  0  0  0  0  0  0  0  0  0  0
   -1.8965    1.2027   -1.4035 H   0  0  0  0  0  0  0  0  0  0  0  0
   -2.8116    1.1350    0.1012 H   0  0  0  0  0  0  0  0  0  0  0  0
    2.8116   -1.1351   -0.1010 H   0  0  0  0  0  0  0  0  0  0  0  0
    1.8965   -1.2027    1.4036 H   0  0  0  0  0  0  0  0  0  0  0  0
   -2.8113   -1.1353    0.1012 H   0  0  0  0  0  0  0  0  0  0  0  0
   -1.8964   -1.2030   -1.4034 H   0  0  0  0  0  0  0  0  0  0  0  0
  1  2  1  0  0  0  0
  1  5  1  0  0  0  0
  1  7  1  0  0  0  0
  1 11  1  0  0  0  0
  2  6  1  0  0  0  0
  2  8  1  0  0  0  0
  2 12  1  0  0  0  0
  3  4  1  0  0  0  0
  3  5  1  0  0  0  0
  3  9  1  0  0  0  0
  3 13  1  0  0  0  0
  4  6  1  0  0  0  0
  4 10  1  0  0  0  0
  4 14  1  0  0  0  0
  5 15  1  0  0  0  0
  5 16  1  0  0  0  0
  6 17  1  0  0  0  0
  6 18  1  0  0  0  0
  7  9  1  0  0  0  0
  7 19  1  0  0  0  0
  7 20  1  0  0  0  0
  8 10  1  0  0  0  0
  8 21  1  0  0  0  0
  8 22  1  0  0  0  0
  9 23  1  0  0  0  0
  9 24  1  0  0  0  0
 10 25  1  0  0  0  0
 10 26  1  0  0  0  0
M  END
> <PUBCHEM_COMPOUND_CID>
556700

> <PUBCHEM_CONFORMER_RMSD>
0.4

> <PUBCHEM_CONFORMER_DIVERSEORDER>
1
2

> <PUBCHEM_MMFF94_PARTIAL_CHARGES>
0

> <PUBCHEM_EFFECTIVE_ROTOR_COUNT>
1.2

> <PUBCHEM_PHARMACOPHORE_FEATURES>
1
10 1 2 3 4 5 6 7 8 9 10 rings

> <PUBCHEM_HEAVY_ATOM_COUNT>
10

> <PUBCHEM_ATOM_DEF_STEREO_COUNT>
0

> <PUBCHEM_ATOM_UDEF_STEREO_COUNT>
4

> <PUBCHEM_BOND_DEF_STEREO_COUNT>
0

> <PUBCHEM_BOND_UDEF_STEREO_COUNT>
0

> <PUBCHEM_ISOTOPIC_ATOM_COUNT>
0

> <PUBCHEM_COMPONENT_COUNT>
1

> <PUBCHEM_CACTVS_TAUTO_COUNT>
1

> <PUBCHEM_CONFORMER_ID>
00087E9C00000001

> <PUBCHEM_MMFF94_ENERGY>
46.9586

> <PUBCHEM_FEATURE_SELFOVERLAP>
5.074

> <PUBCHEM_SHAPE_FINGERPRINT>
12423570 1 17677876006390660246
13024252 1 15575549129561505482
137420 1 16744174971416410118
16945 1 18410843365500256262
21040471 1 18335711481227398069
21922407 69 15913053088103129047
241688 4 17977107859724713000
29004967 10 18338236071588562355
369184 2 18412536617897164618
5084963 1 17988365961387625832

> <PUBCHEM_SHAPE_MULTIPOLES>
205.8
2.32
1.4
1.16
0
0
0
0
0
0
0
0
0
0

> <PUBCHEM_SHAPE_SELFOVERLAP>
448.078

> <PUBCHEM_SHAPE_VOLUME>
108.6

> <PUBCHEM_COORDINATE_TYPE>
2
5
10

$$$$
