5363273
  -OEChem-08272012333D

 51 50  0     1  0  0  0  0  0999 V2000
   -3.4876   -0.3180    0.6121 O   0  0  0  0  0  0  0  0  0  0  0  0
   -4.3967    1.1371   -0.9349 O   0  0  0  0  0  0  0  0  0  0  0  0
    1.8649   -1.7181   -1.0871 C   0  0  0  0  0  0  0  0  0  0  0  0
    3.3477   -1.7441   -0.6908 C   0  0  0  0  0  0  0  0  0  0  0  0
    0.8770   -2.1485    0.0021 C   0  0  0  0  0  0  0  0  0  0  0  0
    3.7492   -0.7781    0.4419 C   0  0  2  0  0  0  0  0  0  0  0  0
   -0.5951   -2.1967   -0.4205 C   0  0  0  0  0  0  0  0  0  0  0  0
   -1.5420   -2.5518    0.7284 C   0  0  0  0  0  0  0  0  0  0  0  0
   -3.0043   -2.6569    0.2925 C   0  0  0  0  0  0  0  0  0  0  0  0
    3.3940    0.6502    0.1097 C   0  0  0  0  0  0  0  0  0  0  0  0
    5.2547   -0.8791    0.7041 C   0  0  0  0  0  0  0  0  0  0  0  0
    2.5725    1.4057    0.8541 C   0  0  0  0  0  0  0  0  0  0  0  0
    2.2040    2.8201    0.5135 C   0  0  0  0  0  0  0  0  0  0  0  0
   -3.5476   -1.3785   -0.3339 C   0  0  0  0  0  0  0  0  0  0  0  0
    0.6900    3.0356    0.4099 C   0  0  0  0  0  0  0  0  0  0  0  0
   -0.0335    2.1487   -0.6089 C   0  0  0  0  0  0  0  0  0  0  0  0
    0.4243    2.3699   -2.0420 C   0  0  0  0  0  0  0  0  0  0  0  0
   -3.9474    0.8938    0.1769 C   0  0  0  0  0  0  0  0  0  0  0  0
   -3.8241    1.9087    1.2728 C   0  0  0  0  0  0  0  0  0  0  0  0
    1.5918   -0.7216   -1.4526 H   0  0  0  0  0  0  0  0  0  0  0  0
    1.7396   -2.3931   -1.9438 H   0  0  0  0  0  0  0  0  0  0  0  0
    3.6140   -2.7680   -0.3982 H   0  0  0  0  0  0  0  0  0  0  0  0
    3.9399   -1.5184   -1.5879 H   0  0  0  0  0  0  0  0  0  0  0  0
    0.9657   -1.4626    0.8527 H   0  0  0  0  0  0  0  0  0  0  0  0
    1.1692   -3.1396    0.3713 H   0  0  0  0  0  0  0  0  0  0  0  0
    3.2352   -1.0867    1.3609 H   0  0  0  0  0  0  0  0  0  0  0  0
   -0.8559   -1.2158   -0.8315 H   0  0  0  0  0  0  0  0  0  0  0  0
   -0.7119   -2.9258   -1.2313 H   0  0  0  0  0  0  0  0  0  0  0  0
   -1.4460   -1.8037    1.5245 H   0  0  0  0  0  0  0  0  0  0  0  0
   -1.2383   -3.5118    1.1636 H   0  0  0  0  0  0  0  0  0  0  0  0
   -3.6030   -2.9062    1.1770 H   0  0  0  0  0  0  0  0  0  0  0  0
   -3.1156   -3.4826   -0.4198 H   0  0  0  0  0  0  0  0  0  0  0  0
    3.8285    1.0694   -0.7951 H   0  0  0  0  0  0  0  0  0  0  0  0
    5.5313   -1.9026    0.9792 H   0  0  0  0  0  0  0  0  0  0  0  0
    5.5545   -0.2211    1.5276 H   0  0  0  0  0  0  0  0  0  0  0  0
    5.8383   -0.5989   -0.1802 H   0  0  0  0  0  0  0  0  0  0  0  0
    2.1408    0.9913    1.7617 H   0  0  0  0  0  0  0  0  0  0  0  0
    2.5953    3.4740    1.3024 H   0  0  0  0  0  0  0  0  0  0  0  0
    2.6874    3.1393   -0.4172 H   0  0  0  0  0  0  0  0  0  0  0  0
   -4.5961   -1.5446   -0.6100 H   0  0  0  0  0  0  0  0  0  0  0  0
   -2.9992   -1.1106   -1.2430 H   0  0  0  0  0  0  0  0  0  0  0  0
    0.2377    2.8628    1.3951 H   0  0  0  0  0  0  0  0  0  0  0  0
    0.5025    4.0889    0.1671 H   0  0  0  0  0  0  0  0  0  0  0  0
   -1.1064    2.3680   -0.5526 H   0  0  0  0  0  0  0  0  0  0  0  0
    0.0784    1.0921   -0.3449 H   0  0  0  0  0  0  0  0  0  0  0  0
    0.3271    3.4222   -2.3271 H   0  0  0  0  0  0  0  0  0  0  0  0
   -0.1882    1.7749   -2.7271 H   0  0  0  0  0  0  0  0  0  0  0  0
    1.4662    2.0681   -2.1820 H   0  0  0  0  0  0  0  0  0  0  0  0
   -4.4641    1.6261    2.1122 H   0  0  0  0  0  0  0  0  0  0  0  0
   -4.1443    2.8859    0.9001 H   0  0  0  0  0  0  0  0  0  0  0  0
   -2.7815    1.9851    1.5921 H   0  0  0  0  0  0  0  0  0  0  0  0
  1 14  1  0  0  0  0
  1 18  1  0  0  0  0
  2 18  2  0  0  0  0
  3  4  1  0  0  0  0
  3  5  1  0  0  0  0
  3 20  1  0  0  0  0
  3 21  1  0  0  0  0
  4  6  1  0  0  0  0
  4 22  1  0  0  0  0
  4 23  1  0  0  0  0
  5  7  1  0  0  0  0
  5 24  1  0  0  0  0
  5 25  1  0  0  0  0
  6 10  1  0  0  0  0
  6 11  1  0  0  0  0
  6 26  1  0  0  0  0
  7  8  1  0  0  0  0
  7 27  1  0  0  0  0
  7 28  1  0  0  0  0
  8  9  1  0  0  0  0
  8 29  1  0  0  0  0
  8 30  1  0  0  0  0
  9 14  1  0  0  0  0
  9 31  1  0  0  0  0
  9 32  1  0  0  0  0
 10 12  2  0  0  0  0
 10 33  1  0  0  0  0
 11 34  1  0  0  0  0
 11 35  1  0  0  0  0
 11 36  1  0  0  0  0
 12 13  1  0  0  0  0
 12 37  1  0  0  0  0
 13 15  1  0  0  0  0
 13 38  1  0  0  0  0
 13 39  1  0  0  0  0
 14 40  1  0  0  0  0
 14 41  1  0  0  0  0
 15 16  1  0  0  0  0
 15 42  1  0  0  0  0
 15 43  1  0  0  0  0
 16 17  1  0  0  0  0
 16 44  1  0  0  0  0
 16 45  1  0  0  0  0
 17 46  1  0  0  0  0
 17 47  1  0  0  0  0
 17 48  1  0  0  0  0
 18 19  1  0  0  0  0
 19 49  1  0  0  0  0
 19 50  1  0  0  0  0
 19 51  1  0  0  0  0
M  END
> <PUBCHEM_COMPOUND_CID>
5363273

> <PUBCHEM_CONFORMER_RMSD>
1.4

> <PUBCHEM_CONFORMER_DIVERSEORDER>
2
58
15
77
45
12
35
3
75
54
11
51
8
38
41
6
29
4
72
50
64
52
39
48
49
42
44
36
69
20
67
71
73
61
46
30
19
17
31
7
63
62
26
5
13
56
43
34
24
53
76
33
18
22
10
70
55
1
74
32
47
28
57
14
27
60
23
37
68
25
40
16
21
59
9
65
66
78

> <PUBCHEM_MMFF94_PARTIAL_CHARGES>
11
1 -0.43
10 -0.29
12 -0.29
13 0.14
14 0.28
18 0.66
19 0.06
2 -0.57
33 0.15
37 0.15
6 0.14

> <PUBCHEM_EFFECTIVE_ROTOR_COUNT>
13

> <PUBCHEM_PHARMACOPHORE_FEATURES>
4
1 11 hydrophobe
1 17 hydrophobe
1 2 acceptor
4 12 13 15 16 hydrophobe

> <PUBCHEM_HEAVY_ATOM_COUNT>
19

> <PUBCHEM_ATOM_DEF_STEREO_COUNT>
0

> <PUBCHEM_ATOM_UDEF_STEREO_COUNT>
1

> <PUBCHEM_BOND_DEF_STEREO_COUNT>
1

> <PUBCHEM_BOND_UDEF_STEREO_COUNT>
0

> <PUBCHEM_ISOTOPIC_ATOM_COUNT>
0

> <PUBCHEM_COMPONENT_COUNT>
1

> <PUBCHEM_CACTVS_TAUTO_COUNT>
1

> <PUBCHEM_CONFORMER_ID>
0051D64900000002

> <PUBCHEM_MMFF94_ENERGY>
6.4145

> <PUBCHEM_FEATURE_SELFOVERLAP>
20.315

> <PUBCHEM_SHAPE_FINGERPRINT>
10708813 3 17984716514807566361
12038231 1 17980486663478929745
12422481 6 18194377100604869384
12633257 1 18410853226871918088
13402501 40 18337950091180660669
14251764 38 18343021124902397409
14466204 15 18410284805584271338
14790565 3 17832707155926507812
17093844 170 18340762633588012232
17859628 37 18411418457664074286
20567600 299 18060416945275875728
20600515 1 18335150756262072566
20621476 13 18340199782181175756
21585483 110 17545326276919029345
21673915 165 18271807852605038832
22749437 52 18339359798574307893
23558518 356 18117844519652811731
3014063 31 18124033429570182468
3680242 22 18192434069377497938

> <PUBCHEM_SHAPE_MULTIPOLES>
379.27
9.16
4.27
1.23
1.7
0.98
0.4
-1.16
-1.99
0.55
0.08
0.02
0.61
0.25

> <PUBCHEM_SHAPE_SELFOVERLAP>
700.315

> <PUBCHEM_SHAPE_VOLUME>
238.8

> <PUBCHEM_COORDINATE_TYPE>
2
5
10

$$$$
