70265
  -OEChem-08272004173D

 12 12  0     0  0  0  0  0  0999 V2000
   -2.2352    1.0282    0.0002 O   0  0  0  0  0  0  0  0  0  0  0  0
   -1.1726   -0.9723    0.0000 N   0  0  0  0  0  0  0  0  0  0  0  0
    0.0413    1.0663   -0.0001 N   0  0  0  0  0  0  0  0  0  0  0  0
   -0.0624   -1.7368    0.0000 N   0  0  0  0  0  0  0  0  0  0  0  0
    2.3959    0.9285    0.0001 N   0  0  0  0  0  0  0  0  0  0  0  0
    1.1412    0.3822   -0.0001 C   0  0  0  0  0  0  0  0  0  0  0  0
    1.0601   -1.1077    0.0000 C   0  0  0  0  0  0  0  0  0  0  0  0
   -1.1683    0.4116   -0.0002 C   0  0  0  0  0  0  0  0  0  0  0  0
    2.0191   -1.6490    0.0000 H   0  0  0  0  0  0  0  0  0  0  0  0
   -2.0471   -1.4872    0.0002 H   0  0  0  0  0  0  0  0  0  0  0  0
    3.2336    0.3561   -0.0001 H   0  0  0  0  0  0  0  0  0  0  0  0
    2.5263    1.9344   -0.0002 H   0  0  0  0  0  0  0  0  0  0  0  0
  1  8  2  0  0  0  0
  2  4  1  0  0  0  0
  2  8  1  0  0  0  0
  2 10  1  0  0  0  0
  3  6  2  0  0  0  0
  3  8  1  0  0  0  0
  4  7  2  0  0  0  0
  5  6  1  0  0  0  0
  5 11  1  0  0  0  0
  5 12  1  0  0  0  0
  6  7  1  0  0  0  0
  7  9  1  0  0  0  0
M  END
> <PUBCHEM_COMPOUND_CID>
70265

> <PUBCHEM_CONFORMER_RMSD>
0.4

> <PUBCHEM_CONFORMER_DIVERSEORDER>
1

> <PUBCHEM_MMFF94_PARTIAL_CHARGES>
12
1 -0.57
10 0.37
11 0.4
12 0.4
2 -0.37
3 -0.66
4 -0.51
5 -0.85
6 0.5
7 0.39
8 0.84
9 0.06

> <PUBCHEM_EFFECTIVE_ROTOR_COUNT>
0

> <PUBCHEM_PHARMACOPHORE_FEATURES>
6
1 1 acceptor
1 2 donor
1 3 donor
1 4 acceptor
1 5 donor
6 2 3 4 6 7 8 rings

> <PUBCHEM_HEAVY_ATOM_COUNT>
8

> <PUBCHEM_ATOM_DEF_STEREO_COUNT>
0

> <PUBCHEM_ATOM_UDEF_STEREO_COUNT>
0

> <PUBCHEM_BOND_DEF_STEREO_COUNT>
0

> <PUBCHEM_BOND_UDEF_STEREO_COUNT>
0

> <PUBCHEM_ISOTOPIC_ATOM_COUNT>
0

> <PUBCHEM_COMPONENT_COUNT>
1

> <PUBCHEM_CACTVS_TAUTO_COUNT>
9

> <PUBCHEM_CONFORMER_ID>
0001127900000001

> <PUBCHEM_MMFF94_ENERGY>
20.1558

> <PUBCHEM_FEATURE_SELFOVERLAP>
30.521

> <PUBCHEM_SHAPE_FINGERPRINT>
16714656 1 18194407924861945678
18185500 45 17330556440964631843
20096714 4 18411137995961827050
21040471 1 18410573998173581028
23552423 10 18188493587787449966
29004967 10 17903084334738517419

> <PUBCHEM_SHAPE_MULTIPOLES>
138.84
2.45
1.57
0.56
0.01
0.49
0
-0.99
0
0.07
0
0.02
0.01
0

> <PUBCHEM_SHAPE_SELFOVERLAP>
285.101

> <PUBCHEM_SHAPE_VOLUME>
79

> <PUBCHEM_COORDINATE_TYPE>
2
5
10

$$$$
