543051
  -OEChem-08272012203D

 21 22  0     0  0  0  0  0  0999 V2000
   -2.3305    0.3132    1.1657 O   0  0  0  0  0  0  0  0  0  0  0  0
   -4.9802    0.4258    0.7994 O   0  0  0  0  0  0  0  0  0  0  0  0
    1.7875    0.6243   -0.2265 N   0  0  0  0  0  0  0  0  0  0  0  0
    1.4498   -1.7054    0.2344 N   0  0  0  0  0  0  0  0  0  0  0  0
    2.7959    1.5192   -0.1300 N   0  0  0  0  0  0  0  0  0  0  0  0
    3.5193   -0.4606    0.5756 N   0  0  0  0  0  0  0  0  0  0  0  0
    3.8330    0.8534    0.3542 N   0  0  0  0  0  0  0  0  0  0  0  0
   -0.3600   -0.2440   -0.6834 C   0  0  0  0  0  0  0  0  0  0  0  0
   -1.7782   -0.2242   -1.1294 C   0  0  0  0  0  0  0  0  0  0  0  0
    0.4864    0.7947   -0.6724 C   0  0  0  0  0  0  0  0  0  0  0  0
   -2.7213    0.1027    0.0182 C   0  0  0  0  0  0  0  0  0  0  0  0
    0.2351   -1.5208   -0.1884 C   0  0  0  0  0  0  0  0  0  0  0  0
    2.2591   -0.6093    0.2196 C   0  0  0  0  0  0  0  0  0  0  0  0
   -4.1957    0.1311   -0.3369 C   0  0  0  0  0  0  0  0  0  0  0  0
   -1.9193    0.5361   -1.9063 H   0  0  0  0  0  0  0  0  0  0  0  0
   -2.0629   -1.1925   -1.5546 H   0  0  0  0  0  0  0  0  0  0  0  0
    0.2037    1.7878   -1.0007 H   0  0  0  0  0  0  0  0  0  0  0  0
   -0.4473   -2.3873   -0.1876 H   0  0  0  0  0  0  0  0  0  0  0  0
   -4.4979   -0.8403   -0.7379 H   0  0  0  0  0  0  0  0  0  0  0  0
   -4.3659    0.9088   -1.0861 H   0  0  0  0  0  0  0  0  0  0  0  0
   -4.8800   -0.3132    1.4235 H   0  0  0  0  0  0  0  0  0  0  0  0
  1 11  2  0  0  0  0
  2 14  1  0  0  0  0
  2 21  1  0  0  0  0
  3  5  1  0  0  0  0
  3 10  1  0  0  0  0
  3 13  1  0  0  0  0
  4 12  2  0  0  0  0
  4 13  1  0  0  0  0
  5  7  2  0  0  0  0
  6  7  1  0  0  0  0
  6 13  2  0  0  0  0
  8  9  1  0  0  0  0
  8 10  2  0  0  0  0
  8 12  1  0  0  0  0
  9 11  1  0  0  0  0
  9 15  1  0  0  0  0
  9 16  1  0  0  0  0
 10 17  1  0  0  0  0
 11 14  1  0  0  0  0
 12 18  1  0  0  0  0
 14 19  1  0  0  0  0
 14 20  1  0  0  0  0
M  END
> <PUBCHEM_COMPOUND_CID>
543051

> <PUBCHEM_CONFORMER_RMSD>
0.6

> <PUBCHEM_CONFORMER_DIVERSEORDER>
2
8
28
35
17
22
27
5
40
37
12
33
23
13
24
21
31
16
29
38
15
6
20
18
7
19
4
25
30
1
26
34
39
3
36
9
11
32
10
14

> <PUBCHEM_MMFF94_PARTIAL_CHARGES>
16
1 -0.57
10 -0.18
11 0.45
12 0.38
13 0.31
14 0.34
17 0.15
18 0.06
2 -0.68
21 0.4
3 0.6
4 -0.58
5 -0.42
6 -0.34
8 -0.12
9 0.2

> <PUBCHEM_EFFECTIVE_ROTOR_COUNT>
3

> <PUBCHEM_PHARMACOPHORE_FEATURES>
7
1 1 acceptor
1 2 acceptor
1 2 donor
1 4 acceptor
4 3 4 6 13 cation
5 3 5 6 7 13 rings
6 3 4 8 10 12 13 rings

> <PUBCHEM_HEAVY_ATOM_COUNT>
14

> <PUBCHEM_ATOM_DEF_STEREO_COUNT>
0

> <PUBCHEM_ATOM_UDEF_STEREO_COUNT>
0

> <PUBCHEM_BOND_DEF_STEREO_COUNT>
0

> <PUBCHEM_BOND_UDEF_STEREO_COUNT>
0

> <PUBCHEM_ISOTOPIC_ATOM_COUNT>
0

> <PUBCHEM_COMPONENT_COUNT>
1

> <PUBCHEM_CACTVS_TAUTO_COUNT>
4

> <PUBCHEM_CONFORMER_ID>
0008494B00000002

> <PUBCHEM_MMFF94_ENERGY>
17.3238

> <PUBCHEM_FEATURE_SELFOVERLAP>
35.665

> <PUBCHEM_SHAPE_FINGERPRINT>
10219947 1 18259983777473776180
10498660 4 15410345330166486163
10980938 120 18412260614524276631
11471102 20 18335976510874435878
11471102 22 18186522077022420026
12251169 10 18040155140841239599
12346645 6 18343019960908549886
13581323 91 14707204413982235599
13705890 14 9655570811990407893
14252887 29 17749394728262327227
14943859 89 16702300173993696175
15219456 202 17968085370671235157
15775835 57 18130786780449020521
16945 1 18335125480611864638
17844478 74 17604140458956432308
18175812 5 17530965808233298815
18186145 218 18342733044355805844
20201158 50 17676205745417982579
20279233 1 17385443207136161523
20645477 70 18190159218912464159
21119208 17 8286200548273146449
21293036 1 11527946768064356140
22854114 59 18333448750827394053
23048698 100 18272370854166217091
23402539 116 15984813831371486765
2748010 2 17904178362162697910
276578 36 18344146994570603398
4047638 21 15482670186564752522
77492 1 17988912380033147671

> <PUBCHEM_SHAPE_MULTIPOLES>
251.47
7.58
1.27
0.91
5.14
0.26
-0.02
-1.88
2.03
-1.03
-0.01
0.52
-0.03
-0.29

> <PUBCHEM_SHAPE_SELFOVERLAP>
531.203

> <PUBCHEM_SHAPE_VOLUME>
138.7

> <PUBCHEM_COORDINATE_TYPE>
2
5
10

$$$$
