535156
  -OEChem-08272011052D

 42 43  0     1  0  0  0  0  0999 V2000
    4.4778   -2.2735    0.0000 C   0  0  0  0  0  0  0  0  0  0  0  0
    4.7366   -1.3076    0.0000 C   0  0  0  0  0  0  0  0  0  0  0  0
    5.7495   -3.0681    0.0000 C   0  0  0  0  0  0  0  0  0  0  0  0
    3.2568   -3.1392    0.0000 C   0  0  0  0  0  0  0  0  0  0  0  0
    6.1683   -1.5052    0.0000 C   0  0  0  0  0  0  0  0  0  0  0  0
    2.7034   -1.6187    0.0000 C   0  0  0  0  0  0  0  0  0  0  0  0
    3.5000    0.5411    0.0000 C   0  0  3  0  0  0  0  0  0  0  0  0
    6.5266   -2.4388    0.0000 C   0  0  0  0  0  0  0  0  0  0  0  0
    2.4277   -2.5800    0.0000 C   0  0  0  0  0  0  0  0  0  0  0  0
    4.0000    1.4071    0.0000 C   0  0  0  0  0  0  0  0  0  0  0  0
    2.5000    0.5411    0.0000 C   0  0  0  0  0  0  0  0  0  0  0  0
    3.5000    2.2731    0.0000 C   0  0  0  0  0  0  0  0  0  0  0  0
    2.0000    1.4071    0.0000 C   0  0  0  0  0  0  0  0  0  0  0  0
    4.0000    3.1392    0.0000 C   0  0  0  0  0  0  0  0  0  0  0  0
    4.0000   -0.3250    0.0000 B   0  0  0  0  0  0  0  0  0  0  0  0
    4.9801   -1.9100    0.0000 H   0  0  0  0  0  0  0  0  0  0  0  0
    4.7412   -1.9276    0.0000 H   0  0  0  0  0  0  0  0  0  0  0  0
    5.3649   -3.5545    0.0000 H   0  0  0  0  0  0  0  0  0  0  0  0
    6.1904   -3.5040    0.0000 H   0  0  0  0  0  0  0  0  0  0  0  0
    2.8509   -3.6079    0.0000 H   0  0  0  0  0  0  0  0  0  0  0  0
    3.6734   -3.5983    0.0000 H   0  0  0  0  0  0  0  0  0  0  0  0
    6.7761   -1.3829    0.0000 H   0  0  0  0  0  0  0  0  0  0  0  0
    6.1492   -0.8855    0.0000 H   0  0  0  0  0  0  0  0  0  0  0  0
    2.6983   -0.9987    0.0000 H   0  0  0  0  0  0  0  0  0  0  0  0
    2.0891   -1.5349    0.0000 H   0  0  0  0  0  0  0  0  0  0  0  0
    4.1200    0.5411    0.0000 H   0  0  0  0  0  0  0  0  0  0  0  0
    6.8643   -2.9588    0.0000 H   0  0  0  0  0  0  0  0  0  0  0  0
    7.0790   -2.1573    0.0000 H   0  0  0  0  0  0  0  0  0  0  0  0
    1.8529   -2.3477    0.0000 H   0  0  0  0  0  0  0  0  0  0  0  0
    2.1367   -3.1274    0.0000 H   0  0  0  0  0  0  0  0  0  0  0  0
    4.4750    1.0086    0.0000 H   0  0  0  0  0  0  0  0  0  0  0  0
    4.4750    1.8056    0.0000 H   0  0  0  0  0  0  0  0  0  0  0  0
    1.9174    0.3290    0.0000 H   0  0  0  0  0  0  0  0  0  0  0  0
    2.6077   -0.0695    0.0000 H   0  0  0  0  0  0  0  0  0  0  0  0
    3.0250    2.6716    0.0000 H   0  0  0  0  0  0  0  0  0  0  0  0
    3.0250    1.8746    0.0000 H   0  0  0  0  0  0  0  0  0  0  0  0
    2.5369    1.7171    0.0000 H   0  0  0  0  0  0  0  0  0  0  0  0
    1.6900    1.9440    0.0000 H   0  0  0  0  0  0  0  0  0  0  0  0
    1.4631    1.0971    0.0000 H   0  0  0  0  0  0  0  0  0  0  0  0
    4.5369    2.8292    0.0000 H   0  0  0  0  0  0  0  0  0  0  0  0
    4.3100    3.6761    0.0000 H   0  0  0  0  0  0  0  0  0  0  0  0
    3.4631    3.4492    0.0000 H   0  0  0  0  0  0  0  0  0  0  0  0
  1  3  1  0  0  0  0
  1  4  1  0  0  0  0
  1 15  1  0  0  0  0
  1 16  1  0  0  0  0
  2  5  1  0  0  0  0
  2  6  1  0  0  0  0
  2 15  1  0  0  0  0
  2 17  1  0  0  0  0
  3  8  1  0  0  0  0
  3 18  1  0  0  0  0
  3 19  1  0  0  0  0
  4  9  1  0  0  0  0
  4 20  1  0  0  0  0
  4 21  1  0  0  0  0
  5  8  1  0  0  0  0
  5 22  1  0  0  0  0
  5 23  1  0  0  0  0
  6  9  1  0  0  0  0
  6 24  1  0  0  0  0
  6 25  1  0  0  0  0
  7 10  1  0  0  0  0
  7 11  1  0  0  0  0
  7 15  1  0  0  0  0
  7 26  1  0  0  0  0
  8 27  1  0  0  0  0
  8 28  1  0  0  0  0
  9 29  1  0  0  0  0
  9 30  1  0  0  0  0
 10 12  1  0  0  0  0
 10 31  1  0  0  0  0
 10 32  1  0  0  0  0
 11 13  1  0  0  0  0
 11 33  1  0  0  0  0
 11 34  1  0  0  0  0
 12 14  1  0  0  0  0
 12 35  1  0  0  0  0
 12 36  1  0  0  0  0
 13 37  1  0  0  0  0
 13 38  1  0  0  0  0
 13 39  1  0  0  0  0
 14 40  1  0  0  0  0
 14 41  1  0  0  0  0
 14 42  1  0  0  0  0
M  END
> <PUBCHEM_COMPOUND_CID>
535156

> <PUBCHEM_COMPOUND_CANONICALIZED>
1

> <PUBCHEM_CACTVS_COMPLEXITY>
168

> <PUBCHEM_CACTVS_HBOND_ACCEPTOR>
0

> <PUBCHEM_CACTVS_HBOND_DONOR>
0

> <PUBCHEM_CACTVS_ROTATABLE_BOND>
4

> <PUBCHEM_CACTVS_SUBSKEYS>
AAADceJwAAAAAAAAAAAAAAAAAAAAAAAAAAAkSAAAAAAYAAAAAAAgGAAAAAAACACAAAACAAAAAAAAAAAAAAAAAAAAAAAAAAAAAAAAAAIAAAAAAAAAAAAAAAEAgIAAAAAAAAAAAAAAAAAAAAAAAAAAAAAAAA==

> <PUBCHEM_IUPAC_OPENEYE_NAME>
9-(1-ethylbutyl)-9-borabicyclo[3.3.1]nonane

> <PUBCHEM_IUPAC_CAS_NAME>
9-hexan-3-yl-9-borabicyclo[3.3.1]nonane

> <PUBCHEM_IUPAC_NAME_MARKUP>
9-hexan-3-yl-9-borabicyclo[3.3.1]nonane

> <PUBCHEM_IUPAC_NAME>
9-hexan-3-yl-9-borabicyclo[3.3.1]nonane

> <PUBCHEM_IUPAC_SYSTEMATIC_NAME>
9-hexan-3-yl-9-borabicyclo[3.3.1]nonane

> <PUBCHEM_IUPAC_TRADITIONAL_NAME>
9-(1-ethylbutyl)-9-borabicyclo[3.3.1]nonane

> <PUBCHEM_IUPAC_INCHI>
InChI=1S/C14H27B/c1-3-7-12(4-2)15-13-8-5-9-14(15)11-6-10-13/h12-14H,3-11H2,1-2H3

> <PUBCHEM_IUPAC_INCHIKEY>
MVBQJSUQTODJLN-UHFFFAOYSA-N

> <PUBCHEM_EXACT_MASS>
206.220581

> <PUBCHEM_MOLECULAR_FORMULA>
C14H27B

> <PUBCHEM_MOLECULAR_WEIGHT>
206.18

> <PUBCHEM_OPENEYE_CAN_SMILES>
B1(C2CCCC1CCC2)C(CC)CCC

> <PUBCHEM_OPENEYE_ISO_SMILES>
B1(C2CCCC1CCC2)C(CC)CCC

> <PUBCHEM_CACTVS_TPSA>
0

> <PUBCHEM_MONOISOTOPIC_WEIGHT>
206.220581

> <PUBCHEM_TOTAL_CHARGE>
0

> <PUBCHEM_HEAVY_ATOM_COUNT>
15

> <PUBCHEM_ATOM_DEF_STEREO_COUNT>
0

> <PUBCHEM_ATOM_UDEF_STEREO_COUNT>
1

> <PUBCHEM_BOND_DEF_STEREO_COUNT>
0

> <PUBCHEM_BOND_UDEF_STEREO_COUNT>
0

> <PUBCHEM_ISOTOPIC_ATOM_COUNT>
0

> <PUBCHEM_COMPONENT_COUNT>
1

> <PUBCHEM_CACTVS_TAUTO_COUNT>
-1

> <PUBCHEM_COORDINATE_TYPE>
1
5
255

> <PUBCHEM_BONDANNOTATIONS>
7  10  3

$$$$
