22213879
  -OEChem-08272006402D

 18 20  0     1  0  0  0  0  0999 V2000
    3.7017    0.6338    0.0000 O   0  0  0  0  0  0  0  0  0  0  0  0
    5.0107   -0.3173    0.0000 O   0  0  0  0  0  0  0  0  0  0  0  0
    2.8980   -1.8488    0.0000 O   0  0  0  0  0  0  0  0  0  0  0  0
    2.6134    1.2831    0.0000 O   0  0  0  0  0  0  0  0  0  0  0  0
    3.3927   -0.3173    0.0000 C   0  0  1  0  0  0  0  0  0  0  0  0
    2.5900   -0.9037    0.0000 C   0  0  1  0  0  0  0  0  0  0  0  0
    4.2017   -0.9051    0.0000 C   0  0  1  0  0  0  0  0  0  0  0  0
    3.2020    0.4746    0.0000 C   0  0  2  0  0  0  0  0  0  0  0  0
    4.7017    0.6338    0.0000 C   0  0  2  0  0  0  0  0  0  0  0  0
    3.8921   -1.8497    0.0000 C   0  0  0  0  0  0  0  0  0  0  0  0
    2.5756   -0.0830    0.0000 H   0  0  0  0  0  0  0  0  0  0  0  0
    1.7811   -0.6424    0.0000 H   0  0  0  0  0  0  0  0  0  0  0  0
    4.8894   -1.4047    0.0000 H   0  0  0  0  0  0  0  0  0  0  0  0
    3.4536    1.0413    0.0000 H   0  0  0  0  0  0  0  0  0  0  0  0
    5.2013    1.3214    0.0000 H   0  0  0  0  0  0  0  0  0  0  0  0
    3.8264   -2.4662    0.0000 H   0  0  0  0  0  0  0  0  0  0  0  0
    4.4983   -1.9798    0.0000 H   0  0  0  0  0  0  0  0  0  0  0  0
    2.8651    1.8497    0.0000 H   0  0  0  0  0  0  0  0  0  0  0  0
  1  5  1  0  0  0  0
  1  9  1  0  0  0  0
  2  7  1  0  0  0  0
  2  9  1  0  0  0  0
  3  6  1  0  0  0  0
  3 10  1  0  0  0  0
  8  4  1  1  0  0  0
  4 18  1  0  0  0  0
  5  6  1  0  0  0  0
  5  7  1  0  0  0  0
  5 11  1  1  0  0  0
  6  8  1  0  0  0  0
  6 12  1  1  0  0  0
  7 10  1  0  0  0  0
  7 13  1  1  0  0  0
  8  9  1  0  0  0  0
  8 14  1  0  0  0  0
  9 15  1  1  0  0  0
 10 16  1  0  0  0  0
 10 17  1  0  0  0  0
M  END
> <PUBCHEM_COMPOUND_CID>
22213879

> <PUBCHEM_COMPOUND_CANONICALIZED>
1

> <PUBCHEM_CACTVS_COMPLEXITY>
171

> <PUBCHEM_CACTVS_HBOND_ACCEPTOR>
4

> <PUBCHEM_CACTVS_HBOND_DONOR>
1

> <PUBCHEM_CACTVS_ROTATABLE_BOND>
0

> <PUBCHEM_CACTVS_SUBSKEYS>
AAADccBgOAAAAAAAAAAAAAAAAAAAASJEgAAAAAAABIAAAAAAAAAAGgAACAAACBSwgAMACAAABgAAAAAAAAAAAAAAAAAAAAAAAAAREAIAAAAiQAAFAAAHAAHAYAQAAAAAAAAAAAAAAAAAAAAAAAAAAAAAAA==

> <PUBCHEM_IUPAC_OPENEYE_NAME>
(1S,3R,6R,7R,9R)-2,5,8-trioxatricyclo[4.2.1.03,7]nonan-9-ol

> <PUBCHEM_IUPAC_CAS_NAME>
(1S,3R,6R,7R,9R)-2,5,8-trioxatricyclo[4.2.1.03,7]nonan-9-ol

> <PUBCHEM_IUPAC_NAME_MARKUP>
(1<I>S</I>,3<I>R</I>,6<I>R</I>,7<I>R</I>,9<I>R</I>)-2,5,8-trioxatricyclo[4.2.1.0<SUP>3,7</SUP>]nonan-9-ol

> <PUBCHEM_IUPAC_NAME>
(1S,3R,6R,7R,9R)-2,5,8-trioxatricyclo[4.2.1.03,7]nonan-9-ol

> <PUBCHEM_IUPAC_SYSTEMATIC_NAME>
(1S,3R,6R,7R,9R)-2,5,8-trioxatricyclo[4.2.1.03,7]nonan-9-ol

> <PUBCHEM_IUPAC_TRADITIONAL_NAME>
(1S,3R,6R,7R,9R)-2,5,8-trioxatricyclo[4.2.1.03,7]nonan-9-ol

> <PUBCHEM_IUPAC_INCHI>
InChI=1S/C6H8O4/c7-3-5-4-2(1-8-5)9-6(3)10-4/h2-7H,1H2/t2-,3-,4-,5-,6+/m1/s1

> <PUBCHEM_IUPAC_INCHIKEY>
XOTJGHCMZOLIPX-UKFBFLRUSA-N

> <PUBCHEM_XLOGP3_AA>
-1.2

> <PUBCHEM_EXACT_MASS>
144.042259

> <PUBCHEM_MOLECULAR_FORMULA>
C6H8O4

> <PUBCHEM_MOLECULAR_WEIGHT>
144.12

> <PUBCHEM_OPENEYE_CAN_SMILES>
C1C2C3C(O1)C(C(O2)O3)O

> <PUBCHEM_OPENEYE_ISO_SMILES>
C1[C@@H]2[C@@H]3[C@H](O1)[C@H]([C@@H](O2)O3)O

> <PUBCHEM_CACTVS_TPSA>
47.9

> <PUBCHEM_MONOISOTOPIC_WEIGHT>
144.042259

> <PUBCHEM_TOTAL_CHARGE>
0

> <PUBCHEM_HEAVY_ATOM_COUNT>
10

> <PUBCHEM_ATOM_DEF_STEREO_COUNT>
5

> <PUBCHEM_ATOM_UDEF_STEREO_COUNT>
0

> <PUBCHEM_BOND_DEF_STEREO_COUNT>
0

> <PUBCHEM_BOND_UDEF_STEREO_COUNT>
0

> <PUBCHEM_ISOTOPIC_ATOM_COUNT>
0

> <PUBCHEM_COMPONENT_COUNT>
1

> <PUBCHEM_CACTVS_TAUTO_COUNT>
-1

> <PUBCHEM_COORDINATE_TYPE>
1
5
255

> <PUBCHEM_BONDANNOTATIONS>
8  4  5
5  11  5
6  12  5
7  13  5
9  15  5

$$$$
