5320644
  -OEChem-08312003483D

 61 66  0     0  0  0  0  0  0999 V2000
   -2.5193   -0.0184   -0.0184 O   0  0  0  0  0  0  0  0  0  0  0  0
    2.7631    0.3266    0.2613 O   0  0  0  0  0  0  0  0  0  0  0  0
   -1.2813    4.5489   -0.5879 O   0  0  0  0  0  0  0  0  0  0  0  0
   -4.8884    3.5175    2.3006 O   0  0  0  0  0  0  0  0  0  0  0  0
   -2.3302    1.9909   -3.1029 O   0  0  0  0  0  0  0  0  0  0  0  0
   -5.5144    0.9823    2.5559 O   0  0  0  0  0  0  0  0  0  0  0  0
    7.5955   -0.0515    0.2562 O   0  0  0  0  0  0  0  0  0  0  0  0
    6.2380    0.8494   -1.8004 O   0  0  0  0  0  0  0  0  0  0  0  0
    5.0667   -1.3327    4.0667 O   0  0  0  0  0  0  0  0  0  0  0  0
   -2.1130   -6.2515   -1.0028 O   0  0  0  0  0  0  0  0  0  0  0  0
   -1.9043    2.2437   -0.3007 C   0  0  0  0  0  0  0  0  0  0  0  0
   -2.7390    1.2986    0.2962 C   0  0  0  0  0  0  0  0  0  0  0  0
   -0.8531    1.8287   -1.2135 C   0  0  0  0  0  0  0  0  0  0  0  0
   -3.7443    1.7100    1.1697 C   0  0  0  0  0  0  0  0  0  0  0  0
    1.4327    1.1404   -1.5649 C   0  0  0  0  0  0  0  0  0  0  0  0
   -2.0791    3.5992   -0.0201 C   0  0  0  0  0  0  0  0  0  0  0  0
    0.4112    1.5415   -0.7038 C   0  0  0  0  0  0  0  0  0  0  0  0
   -3.9228    3.0660    1.4531 C   0  0  0  0  0  0  0  0  0  0  0  0
   -1.1011    1.7171   -2.5798 C   0  0  0  0  0  0  0  0  0  0  0  0
   -3.3292   -0.9809    0.5651 C   0  0  0  0  0  0  0  0  0  0  0  0
    2.7744    0.8346   -1.0289 C   0  0  0  0  0  0  0  0  0  0  0  0
   -4.6112    0.6926    1.7834 C   0  0  0  0  0  0  0  0  0  0  0  0
   -3.0861    4.0091    0.8549 C   0  0  0  0  0  0  0  0  0  0  0  0
    1.1874    1.0278   -2.9333 C   0  0  0  0  0  0  0  0  0  0  0  0
   -4.3328   -0.7101    1.4147 C   0  0  0  0  0  0  0  0  0  0  0  0
   -0.0795    1.3161   -3.4407 C   0  0  0  0  0  0  0  0  0  0  0  0
   -3.0106   -2.3629    0.1534 C   0  0  0  0  0  0  0  0  0  0  0  0
    5.1856    0.1605    0.2000 C   0  0  0  0  0  0  0  0  0  0  0  0
    3.9611    0.0054    0.8476 C   0  0  0  0  0  0  0  0  0  0  0  0
    3.8862    1.0231   -1.7572 C   0  0  0  0  0  0  0  0  0  0  0  0
    5.2007    0.6905   -1.1719 C   0  0  0  0  0  0  0  0  0  0  0  0
    6.3750   -0.1841    0.8461 C   0  0  0  0  0  0  0  0  0  0  0  0
    3.9189   -0.4968    2.1485 C   0  0  0  0  0  0  0  0  0  0  0  0
   -4.0198   -3.3268    0.0898 C   0  0  0  0  0  0  0  0  0  0  0  0
   -1.6981   -2.7126   -0.1736 C   0  0  0  0  0  0  0  0  0  0  0  0
    5.1048   -0.8420    2.7973 C   0  0  0  0  0  0  0  0  0  0  0  0
    6.3300   -0.6858    2.1474 C   0  0  0  0  0  0  0  0  0  0  0  0
   -3.7183   -4.6323   -0.2984 C   0  0  0  0  0  0  0  0  0  0  0  0
   -1.3967   -4.0179   -0.5620 C   0  0  0  0  0  0  0  0  0  0  0  0
   -2.4068   -4.9778   -0.6243 C   0  0  0  0  0  0  0  0  0  0  0  0
   -0.7518   -6.5366   -1.3223 C   0  0  0  0  0  0  0  0  0  0  0  0
    0.5945    1.6403    0.3645 H   0  0  0  0  0  0  0  0  0  0  0  0
   -3.2252    5.0649    1.0759 H   0  0  0  0  0  0  0  0  0  0  0  0
    1.9495    0.6969   -3.6336 H   0  0  0  0  0  0  0  0  0  0  0  0
   -4.9565   -1.4651    1.8789 H   0  0  0  0  0  0  0  0  0  0  0  0
   -0.2577    1.2189   -4.5084 H   0  0  0  0  0  0  0  0  0  0  0  0
    3.8938    1.4322   -2.7607 H   0  0  0  0  0  0  0  0  0  0  0  0
    2.9658   -0.6196    2.6567 H   0  0  0  0  0  0  0  0  0  0  0  0
   -5.0570   -3.0926    0.3144 H   0  0  0  0  0  0  0  0  0  0  0  0
   -0.8905   -1.9857   -0.1258 H   0  0  0  0  0  0  0  0  0  0  0  0
   -1.5555    5.4271   -0.2728 H   0  0  0  0  0  0  0  0  0  0  0  0
    7.2551   -0.9548    2.6520 H   0  0  0  0  0  0  0  0  0  0  0  0
   -5.4020    2.7767    2.6569 H   0  0  0  0  0  0  0  0  0  0  0  0
   -2.3045    1.8555   -4.0656 H   0  0  0  0  0  0  0  0  0  0  0  0
   -4.5099   -5.3749   -0.3498 H   0  0  0  0  0  0  0  0  0  0  0  0
   -0.3576   -4.2185   -0.7997 H   0  0  0  0  0  0  0  0  0  0  0  0
    7.5032    0.3064   -0.6401 H   0  0  0  0  0  0  0  0  0  0  0  0
    5.9752   -1.5183    4.3605 H   0  0  0  0  0  0  0  0  0  0  0  0
   -0.0982   -6.4035   -0.4534 H   0  0  0  0  0  0  0  0  0  0  0  0
   -0.4126   -5.9594   -2.1892 H   0  0  0  0  0  0  0  0  0  0  0  0
   -0.7001   -7.5940   -1.6021 H   0  0  0  0  0  0  0  0  0  0  0  0
  1 12  1  0  0  0  0
  1 20  1  0  0  0  0
  2 21  1  0  0  0  0
  2 29  1  0  0  0  0
  3 16  1  0  0  0  0
  3 51  1  0  0  0  0
  4 18  1  0  0  0  0
  4 53  1  0  0  0  0
  5 19  1  0  0  0  0
  5 54  1  0  0  0  0
  6 22  2  0  0  0  0
  7 32  1  0  0  0  0
  7 57  1  0  0  0  0
  8 31  2  0  0  0  0
  9 36  1  0  0  0  0
  9 58  1  0  0  0  0
 10 40  1  0  0  0  0
 10 41  1  0  0  0  0
 11 12  1  0  0  0  0
 11 13  1  0  0  0  0
 11 16  2  0  0  0  0
 12 14  2  0  0  0  0
 13 17  1  0  0  0  0
 13 19  2  0  0  0  0
 14 18  1  0  0  0  0
 14 22  1  0  0  0  0
 15 17  2  0  0  0  0
 15 21  1  0  0  0  0
 15 24  1  0  0  0  0
 16 23  1  0  0  0  0
 17 42  1  0  0  0  0
 18 23  2  0  0  0  0
 19 26  1  0  0  0  0
 20 25  2  0  0  0  0
 20 27  1  0  0  0  0
 21 30  2  0  0  0  0
 22 25  1  0  0  0  0
 23 43  1  0  0  0  0
 24 26  2  0  0  0  0
 24 44  1  0  0  0  0
 25 45  1  0  0  0  0
 26 46  1  0  0  0  0
 27 34  2  0  0  0  0
 27 35  1  0  0  0  0
 28 29  1  0  0  0  0
 28 31  1  0  0  0  0
 28 32  2  0  0  0  0
 29 33  2  0  0  0  0
 30 31  1  0  0  0  0
 30 47  1  0  0  0  0
 32 37  1  0  0  0  0
 33 36  1  0  0  0  0
 33 48  1  0  0  0  0
 34 38  1  0  0  0  0
 34 49  1  0  0  0  0
 35 39  2  0  0  0  0
 35 50  1  0  0  0  0
 36 37  2  0  0  0  0
 37 52  1  0  0  0  0
 38 40  2  0  0  0  0
 38 55  1  0  0  0  0
 39 40  1  0  0  0  0
 39 56  1  0  0  0  0
 41 59  1  0  0  0  0
 41 60  1  0  0  0  0
 41 61  1  0  0  0  0
M  END
> <PUBCHEM_COMPOUND_CID>
5320644

> <PUBCHEM_CONFORMER_RMSD>
0.8

> <PUBCHEM_CONFORMER_DIVERSEORDER>
1
12
11
6
5
7
2
3
9
10
8
4

> <PUBCHEM_MMFF94_PARTIAL_CHARGES>
56
1 -0.16
10 -0.36
12 0.08
14 0.09
15 0.03
16 0.08
17 -0.15
18 0.08
19 0.08
2 -0.16
20 0.05
21 0.05
22 0.47
23 -0.15
24 -0.15
25 -0.14
26 -0.15
27 0.03
28 0.09
29 0.08
3 -0.53
30 -0.14
31 0.47
32 0.08
33 -0.15
34 -0.15
35 -0.15
36 0.08
37 -0.15
38 -0.15
39 -0.15
4 -0.53
40 0.08
41 0.28
42 0.15
43 0.15
44 0.15
45 0.15
46 0.15
47 0.15
48 0.15
49 0.15
5 -0.53
50 0.15
51 0.45
52 0.15
53 0.45
54 0.45
55 0.15
56 0.15
57 0.45
58 0.45
6 -0.57
7 -0.53
8 -0.57
9 -0.53

> <PUBCHEM_EFFECTIVE_ROTOR_COUNT>
4

> <PUBCHEM_PHARMACOPHORE_FEATURES>
16
1 1 acceptor
1 10 acceptor
1 2 acceptor
1 3 donor
1 4 donor
1 5 donor
1 6 acceptor
1 7 donor
1 8 acceptor
1 9 donor
6 1 12 14 20 22 25 rings
6 11 12 14 16 18 23 rings
6 13 15 17 19 24 26 rings
6 2 21 28 29 30 31 rings
6 27 34 35 38 39 40 rings
6 28 29 32 33 36 37 rings

> <PUBCHEM_HEAVY_ATOM_COUNT>
41

> <PUBCHEM_ATOM_DEF_STEREO_COUNT>
0

> <PUBCHEM_ATOM_UDEF_STEREO_COUNT>
0

> <PUBCHEM_BOND_DEF_STEREO_COUNT>
0

> <PUBCHEM_BOND_UDEF_STEREO_COUNT>
0

> <PUBCHEM_ISOTOPIC_ATOM_COUNT>
0

> <PUBCHEM_COMPONENT_COUNT>
1

> <PUBCHEM_CACTVS_TAUTO_COUNT>
994

> <PUBCHEM_CONFORMER_ID>
00512FC400000001

> <PUBCHEM_MMFF94_ENERGY>
147.0811

> <PUBCHEM_FEATURE_SELFOVERLAP>
81.26

> <PUBCHEM_SHAPE_FINGERPRINT>
10074138 170 18343863333719127343
10290309 65 18051985727190291881
10462674 125 17546137054826768882
10622 236 17971749123561745439
10928967 22 18114173138747987490
11135926 11 16443918313917574980
11552529 35 18336254717713577484
12128747 34 17559415569002966094
12422481 6 17897733067296207209
12559416 138 17312812776278401946
14040221 299 18201732738329981020
14068700 675 18197492042657834943
14395042 24 18337963398140039379
14674994 50 18189032309788059879
14705955 166 17417266350619884641
14856354 85 18342739620299233740
14950920 106 18411974797789907992
15320294 125 18187094957488998747
15361156 5 15142098535137910876
15444296 9 17676489386182084101
15484559 13 15295438496230185614
16728300 4 17894640240762928721
19319366 153 16598762673611580377
20775530 9 17900819658523786175
21033648 29 18057622983467512593
21133410 221 17252852867683013874
23516275 137 17757590415597007594
3882209 13 17699281381040575935
4394409 98 18409448125023363183
44880168 125 18337392635139933022
484985 159 18335969939769827535
50080093 196 18040987458533943498
5171179 24 17039234213079579149
581034 39 18412267211805514178

> <PUBCHEM_SHAPE_MULTIPOLES>
785.07
14.24
7.21
3.18
25.43
12.33
-0.12
0.56
-10.39
-13.79
2.26
2.39
-1.25
-4.41

> <PUBCHEM_SHAPE_SELFOVERLAP>
1788.352

> <PUBCHEM_SHAPE_VOLUME>
406

> <PUBCHEM_COORDINATE_TYPE>
2
5
10

$$$$
