10414856
  -OEChem-08312003463D

 58 63  0     0  0  0  0  0  0999 V2000
    2.4703   -0.9113    1.2596 O   0  0  0  0  0  0  0  0  0  0  0  0
   -1.2574    0.7255   -0.5448 O   0  0  0  0  0  0  0  0  0  0  0  0
    0.3559   -3.6262   -1.6299 O   0  0  0  0  0  0  0  0  0  0  0  0
    1.6245   -0.2522   -2.6692 O   0  0  0  0  0  0  0  0  0  0  0  0
   -4.1623   -2.5776   -2.5809 O   0  0  0  0  0  0  0  0  0  0  0  0
    3.9934    0.7580   -3.0241 O   0  0  0  0  0  0  0  0  0  0  0  0
   -4.9774   -0.1657   -1.9468 O   0  0  0  0  0  0  0  0  0  0  0  0
    6.8390    0.8769    0.7738 O   0  0  0  0  0  0  0  0  0  0  0  0
   -2.1891   -3.4466    4.6028 O   0  0  0  0  0  0  0  0  0  0  0  0
   -0.8332    6.6184    1.7090 O   0  0  0  0  0  0  0  0  0  0  0  0
    0.8694   -1.0541   -0.5585 C   0  0  0  0  0  0  0  0  0  0  0  0
   -0.4566   -1.4298   -1.0824 C   0  0  0  0  0  0  0  0  0  0  0  0
   -1.5124   -0.5180   -1.0651 C   0  0  0  0  0  0  0  0  0  0  0  0
    1.2324   -1.2340    0.7300 C   0  0  0  0  0  0  0  0  0  0  0  0
   -2.7607   -0.8882   -1.5626 C   0  0  0  0  0  0  0  0  0  0  0  0
    1.8680   -0.4465   -1.4848 C   0  0  0  0  0  0  0  0  0  0  0  0
    3.1740   -0.0916   -0.9095 C   0  0  0  0  0  0  0  0  0  0  0  0
   -0.6547   -2.7105   -1.5991 C   0  0  0  0  0  0  0  0  0  0  0  0
    3.4079   -0.3452    0.4383 C   0  0  0  0  0  0  0  0  0  0  0  0
   -2.9632   -2.1695   -2.0805 C   0  0  0  0  0  0  0  0  0  0  0  0
    0.3365   -1.8138    1.7449 C   0  0  0  0  0  0  0  0  0  0  0  0
   -1.9053   -3.0793   -2.0970 C   0  0  0  0  0  0  0  0  0  0  0  0
   -3.8566    0.0922   -1.5304 C   0  0  0  0  0  0  0  0  0  0  0  0
   -2.2860    1.6550   -0.5207 C   0  0  0  0  0  0  0  0  0  0  0  0
    4.1694    0.4892   -1.7002 C   0  0  0  0  0  0  0  0  0  0  0  0
   -3.5308    1.4164   -0.9631 C   0  0  0  0  0  0  0  0  0  0  0  0
    4.6400   -0.0202    1.0069 C   0  0  0  0  0  0  0  0  0  0  0  0
   -1.9052    2.9562    0.0645 C   0  0  0  0  0  0  0  0  0  0  0  0
    5.4007    0.8143   -1.1299 C   0  0  0  0  0  0  0  0  0  0  0  0
    5.6361    0.5598    0.2215 C   0  0  0  0  0  0  0  0  0  0  0  0
    0.3224   -3.1917    1.9550 C   0  0  0  0  0  0  0  0  0  0  0  0
   -0.4963   -0.9833    2.4933 C   0  0  0  0  0  0  0  0  0  0  0  0
   -0.5268   -3.7406    2.9160 C   0  0  0  0  0  0  0  0  0  0  0  0
   -1.3453   -1.5322    3.4542 C   0  0  0  0  0  0  0  0  0  0  0  0
   -2.8539    3.7262    0.7418 C   0  0  0  0  0  0  0  0  0  0  0  0
   -0.5940    3.4234   -0.0571 C   0  0  0  0  0  0  0  0  0  0  0  0
   -1.3607   -2.9108    3.6656 C   0  0  0  0  0  0  0  0  0  0  0  0
   -2.4939    4.9557    1.2938 C   0  0  0  0  0  0  0  0  0  0  0  0
   -0.2341    4.6527    0.4951 C   0  0  0  0  0  0  0  0  0  0  0  0
   -1.1840    5.4189    1.1705 C   0  0  0  0  0  0  0  0  0  0  0  0
   -2.0631   -4.0768   -2.5005 H   0  0  0  0  0  0  0  0  0  0  0  0
   -4.3297    2.1485   -0.9545 H   0  0  0  0  0  0  0  0  0  0  0  0
    4.8251   -0.2178    2.0598 H   0  0  0  0  0  0  0  0  0  0  0  0
    6.1816    1.2666   -1.7371 H   0  0  0  0  0  0  0  0  0  0  0  0
    0.9680   -3.8511    1.3802 H   0  0  0  0  0  0  0  0  0  0  0  0
   -0.4943    0.0933    2.3414 H   0  0  0  0  0  0  0  0  0  0  0  0
    0.0256   -4.4542   -2.0185 H   0  0  0  0  0  0  0  0  0  0  0  0
   -0.5291   -4.8161    3.0711 H   0  0  0  0  0  0  0  0  0  0  0  0
   -1.9925   -0.8806    4.0348 H   0  0  0  0  0  0  0  0  0  0  0  0
   -3.8785    3.3908    0.8785 H   0  0  0  0  0  0  0  0  0  0  0  0
    0.1649    2.8503   -0.5846 H   0  0  0  0  0  0  0  0  0  0  0  0
   -4.8164   -1.8646   -2.5210 H   0  0  0  0  0  0  0  0  0  0  0  0
    4.8027    1.1587   -3.3845 H   0  0  0  0  0  0  0  0  0  0  0  0
   -3.2419    5.5411    1.8219 H   0  0  0  0  0  0  0  0  0  0  0  0
    0.7876    5.0091    0.3945 H   0  0  0  0  0  0  0  0  0  0  0  0
    7.4078    1.2683    0.0887 H   0  0  0  0  0  0  0  0  0  0  0  0
   -2.0693   -4.4118    4.6145 H   0  0  0  0  0  0  0  0  0  0  0  0
   -1.6128    7.0115    2.1377 H   0  0  0  0  0  0  0  0  0  0  0  0
  1 14  1  0  0  0  0
  1 19  1  0  0  0  0
  2 13  1  0  0  0  0
  2 24  1  0  0  0  0
  3 18  1  0  0  0  0
  3 47  1  0  0  0  0
  4 16  2  0  0  0  0
  5 20  1  0  0  0  0
  5 52  1  0  0  0  0
  6 25  1  0  0  0  0
  6 53  1  0  0  0  0
  7 23  2  0  0  0  0
  8 30  1  0  0  0  0
  8 56  1  0  0  0  0
  9 37  1  0  0  0  0
  9 57  1  0  0  0  0
 10 40  1  0  0  0  0
 10 58  1  0  0  0  0
 11 12  1  0  0  0  0
 11 14  2  0  0  0  0
 11 16  1  0  0  0  0
 12 13  1  0  0  0  0
 12 18  2  0  0  0  0
 13 15  2  0  0  0  0
 14 21  1  0  0  0  0
 15 20  1  0  0  0  0
 15 23  1  0  0  0  0
 16 17  1  0  0  0  0
 17 19  1  0  0  0  0
 17 25  2  0  0  0  0
 18 22  1  0  0  0  0
 19 27  2  0  0  0  0
 20 22  2  0  0  0  0
 21 31  2  0  0  0  0
 21 32  1  0  0  0  0
 22 41  1  0  0  0  0
 23 26  1  0  0  0  0
 24 26  2  0  0  0  0
 24 28  1  0  0  0  0
 25 29  1  0  0  0  0
 26 42  1  0  0  0  0
 27 30  1  0  0  0  0
 27 43  1  0  0  0  0
 28 35  2  0  0  0  0
 28 36  1  0  0  0  0
 29 30  2  0  0  0  0
 29 44  1  0  0  0  0
 31 33  1  0  0  0  0
 31 45  1  0  0  0  0
 32 34  2  0  0  0  0
 32 46  1  0  0  0  0
 33 37  2  0  0  0  0
 33 48  1  0  0  0  0
 34 37  1  0  0  0  0
 34 49  1  0  0  0  0
 35 38  1  0  0  0  0
 35 50  1  0  0  0  0
 36 39  2  0  0  0  0
 36 51  1  0  0  0  0
 38 40  2  0  0  0  0
 38 54  1  0  0  0  0
 39 40  1  0  0  0  0
 39 55  1  0  0  0  0
M  END
> <PUBCHEM_COMPOUND_CID>
10414856

> <PUBCHEM_CONFORMER_RMSD>
0.8

> <PUBCHEM_CONFORMER_DIVERSEORDER>
1
2

> <PUBCHEM_MMFF94_PARTIAL_CHARGES>
58
1 -0.16
10 -0.53
11 -0.01
12 0.03
13 0.08
14 0.05
15 0.09
16 0.47
17 0.09
18 0.08
19 0.08
2 -0.16
20 0.08
21 0.03
22 -0.15
23 0.47
24 0.05
25 0.08
26 -0.14
27 -0.15
28 0.03
29 -0.15
3 -0.53
30 0.08
31 -0.15
32 -0.15
33 -0.15
34 -0.15
35 -0.15
36 -0.15
37 0.08
38 -0.15
39 -0.15
4 -0.57
40 0.08
41 0.15
42 0.15
43 0.15
44 0.15
45 0.15
46 0.15
47 0.45
48 0.15
49 0.15
5 -0.53
50 0.15
51 0.15
52 0.45
53 0.45
54 0.15
55 0.15
56 0.45
57 0.45
58 0.45
6 -0.53
7 -0.57
8 -0.53
9 -0.53

> <PUBCHEM_EFFECTIVE_ROTOR_COUNT>
3

> <PUBCHEM_PHARMACOPHORE_FEATURES>
16
1 1 acceptor
1 10 donor
1 2 acceptor
1 3 donor
1 4 acceptor
1 5 donor
1 6 donor
1 7 acceptor
1 8 donor
1 9 donor
6 1 11 14 16 17 19 rings
6 12 13 15 18 20 22 rings
6 17 19 25 27 29 30 rings
6 2 13 15 23 24 26 rings
6 21 31 32 33 34 37 rings
6 28 35 36 38 39 40 rings

> <PUBCHEM_HEAVY_ATOM_COUNT>
40

> <PUBCHEM_ATOM_DEF_STEREO_COUNT>
0

> <PUBCHEM_ATOM_UDEF_STEREO_COUNT>
0

> <PUBCHEM_BOND_DEF_STEREO_COUNT>
0

> <PUBCHEM_BOND_UDEF_STEREO_COUNT>
0

> <PUBCHEM_ISOTOPIC_ATOM_COUNT>
0

> <PUBCHEM_COMPONENT_COUNT>
1

> <PUBCHEM_CACTVS_TAUTO_COUNT>
998

> <PUBCHEM_CONFORMER_ID>
009EEB0800000001

> <PUBCHEM_MMFF94_ENERGY>
132.7735

> <PUBCHEM_FEATURE_SELFOVERLAP>
81.26

> <PUBCHEM_SHAPE_FINGERPRINT>
10032420 55 17970317473991728551
11049842 53 17266920062519226111
11421498 54 18190438525041310283
11763715 3 17403956775266803807
12058002 1 18041857129175917318
12160290 23 16953702403888958330
12741549 16 16701165551330542211
12788726 201 18410567388488158800
133893 2 17264422414513698944
13965767 371 17328583921436818804
15775530 1 17467634140336753666
15968369 153 18127433330346766792
18681886 176 17914307295301229807
19319366 153 17970340426318232465
21033650 10 18340220613569224788
22121540 332 17408016116002476529
22149856 69 16692435073368688857
244849 19 17105651853316650795
4616759 239 17751625775754693312
469060 322 18129115578736548079
50150288 127 17105154689155373260
5171179 24 17687186804415937307
550186 7 17977988693293093066
56638632 10 16754110549887083544
57527306 92 18338498824971694021
6376802 137 18263921210333473194

> <PUBCHEM_SHAPE_MULTIPOLES>
764.49
8.5
7.01
3.81
12.93
9.58
2.91
5
-3.85
-7.74
5.45
-1.92
-4.99
-2.18

> <PUBCHEM_SHAPE_SELFOVERLAP>
1748.727

> <PUBCHEM_SHAPE_VOLUME>
392.6

> <PUBCHEM_COORDINATE_TYPE>
2
5
10

$$$$
