3568969
  -OEChem-11202013433D

 60 63  0     1  0  0  0  0  0999 V2000
    0.5931    1.8975   -0.3346 O   0  0  0  0  0  0  0  0  0  0  0  0
    0.2518    0.5325    1.5440 O   0  0  0  0  0  0  0  0  0  0  0  0
    3.4084    4.1693    1.6786 O   0  0  0  0  0  0  0  0  0  0  0  0
    2.1650    5.1959   -0.7188 O   0  0  0  0  0  0  0  0  0  0  0  0
    2.8599    1.4612    1.2971 O   0  0  0  0  0  0  0  0  0  0  0  0
   -0.4387    2.5591   -2.7840 O   0  0  0  0  0  0  0  0  0  0  0  0
   -1.9395   -1.6541   -0.4816 O   0  3  0  0  0  0  0  0  0  0  0  0
   -4.7377    1.7191    1.6144 O   0  0  0  0  0  0  0  0  0  0  0  0
    3.2355   -1.6471   -2.4004 O   0  0  0  0  0  0  0  0  0  0  0  0
    2.4514   -4.4713    1.3874 O   0  0  0  0  0  0  0  0  0  0  0  0
   -6.6589   -1.5125   -1.3005 O   0  0  0  0  0  0  0  0  0  0  0  0
    4.0719   -3.6798   -0.7146 O   0  0  0  0  0  0  0  0  0  0  0  0
    2.1210    3.7631    1.2223 C   0  0  1  0  0  0  0  0  0  0  0  0
    2.0835    3.8339   -0.3065 C   0  0  1  0  0  0  0  0  0  0  0  0
    1.8143    2.3471    1.7091 C   0  0  1  0  0  0  0  0  0  0  0  0
    0.7798    3.2236   -0.8397 C   0  0  1  0  0  0  0  0  0  0  0  0
    0.5040    1.8593    1.0916 C   0  0  1  0  0  0  0  0  0  0  0  0
    0.7826    3.1384   -2.3627 C   0  0  0  0  0  0  0  0  0  0  0  0
   -0.9172    0.0303    1.0204 C   0  0  0  0  0  0  0  0  0  0  0  0
   -0.8926   -1.1716    0.1276 C   0  0  0  0  0  0  0  0  0  0  0  0
   -2.1119    0.5992    1.2272 C   0  0  0  0  0  0  0  0  0  0  0  0
   -3.3118    0.0644    0.5937 C   0  0  0  0  0  0  0  0  0  0  0  0
    0.4155   -1.8313   -0.0931 C   0  0  0  0  0  0  0  0  0  0  0  0
   -3.1861   -1.0415   -0.2533 C   0  0  0  0  0  0  0  0  0  0  0  0
   -4.5698    0.6383    0.7999 C   0  0  0  0  0  0  0  0  0  0  0  0
    0.8247   -2.8509    0.7586 C   0  0  0  0  0  0  0  0  0  0  0  0
    1.2205   -1.4256   -1.1516 C   0  0  0  0  0  0  0  0  0  0  0  0
   -4.3095   -1.5710   -0.8892 C   0  0  0  0  0  0  0  0  0  0  0  0
   -5.6924    0.1062    0.1632 C   0  0  0  0  0  0  0  0  0  0  0  0
   -5.5623   -0.9965   -0.6808 C   0  0  0  0  0  0  0  0  0  0  0  0
    2.4511   -2.0479   -1.3611 C   0  0  0  0  0  0  0  0  0  0  0  0
    2.0556   -3.4732    0.5492 C   0  0  0  0  0  0  0  0  0  0  0  0
    2.8687   -3.0716   -0.5107 C   0  0  0  0  0  0  0  0  0  0  0  0
    4.1701   -0.6014   -2.1413 C   0  0  0  0  0  0  0  0  0  0  0  0
    3.2000   -4.0909    2.5403 C   0  0  0  0  0  0  0  0  0  0  0  0
    1.3983    4.4695    1.6477 H   0  0  0  0  0  0  0  0  0  0  0  0
    2.9539    3.3143   -0.7248 H   0  0  0  0  0  0  0  0  0  0  0  0
    1.7850    2.3085    2.8035 H   0  0  0  0  0  0  0  0  0  0  0  0
   -0.0862    3.8283   -0.5377 H   0  0  0  0  0  0  0  0  0  0  0  0
   -0.2997    2.5289    1.4261 H   0  0  0  0  0  0  0  0  0  0  0  0
    1.5961    2.5014   -2.7257 H   0  0  0  0  0  0  0  0  0  0  0  0
    0.8747    4.1258   -2.8239 H   0  0  0  0  0  0  0  0  0  0  0  0
    4.0569    3.5221    1.3524 H   0  0  0  0  0  0  0  0  0  0  0  0
    1.3938    5.6659   -0.3584 H   0  0  0  0  0  0  0  0  0  0  0  0
    2.6078    0.5642    1.5761 H   0  0  0  0  0  0  0  0  0  0  0  0
   -0.5114    1.6858   -2.3619 H   0  0  0  0  0  0  0  0  0  0  0  0
   -2.1873    1.4550    1.8857 H   0  0  0  0  0  0  0  0  0  0  0  0
    0.1913   -3.1660    1.5842 H   0  0  0  0  0  0  0  0  0  0  0  0
    0.8954   -0.6303   -1.8177 H   0  0  0  0  0  0  0  0  0  0  0  0
   -4.1943   -2.4314   -1.5426 H   0  0  0  0  0  0  0  0  0  0  0  0
   -6.6708    0.5528    0.3238 H   0  0  0  0  0  0  0  0  0  0  0  0
   -3.9251    2.2467    1.6496 H   0  0  0  0  0  0  0  0  0  0  0  0
   -6.3855   -2.2708   -1.8449 H   0  0  0  0  0  0  0  0  0  0  0  0
    4.1760   -4.3902   -0.0585 H   0  0  0  0  0  0  0  0  0  0  0  0
    4.8806   -0.9026   -1.3651 H   0  0  0  0  0  0  0  0  0  0  0  0
    3.6482    0.3122   -1.8385 H   0  0  0  0  0  0  0  0  0  0  0  0
    4.7229   -0.3994   -3.0628 H   0  0  0  0  0  0  0  0  0  0  0  0
    2.5936   -3.4590    3.1970 H   0  0  0  0  0  0  0  0  0  0  0  0
    4.1152   -3.5634    2.2534 H   0  0  0  0  0  0  0  0  0  0  0  0
    3.4754   -4.9983    3.0847 H   0  0  0  0  0  0  0  0  0  0  0  0
  1 16  1  0  0  0  0
  1 17  1  0  0  0  0
  2 17  1  0  0  0  0
  2 19  1  0  0  0  0
  3 13  1  0  0  0  0
  3 43  1  0  0  0  0
  4 14  1  0  0  0  0
  4 44  1  0  0  0  0
  5 15  1  0  0  0  0
  5 45  1  0  0  0  0
  6 18  1  0  0  0  0
  6 46  1  0  0  0  0
  7 20  2  0  0  0  0
  7 24  1  0  0  0  0
  8 25  1  0  0  0  0
  8 52  1  0  0  0  0
  9 31  1  0  0  0  0
  9 34  1  0  0  0  0
 10 32  1  0  0  0  0
 10 35  1  0  0  0  0
 11 30  1  0  0  0  0
 11 53  1  0  0  0  0
 12 33  1  0  0  0  0
 12 54  1  0  0  0  0
 13 14  1  0  0  0  0
 13 15  1  0  0  0  0
 13 36  1  0  0  0  0
 14 16  1  0  0  0  0
 14 37  1  0  0  0  0
 15 17  1  0  0  0  0
 15 38  1  0  0  0  0
 16 18  1  0  0  0  0
 16 39  1  0  0  0  0
 17 40  1  0  0  0  0
 18 41  1  0  0  0  0
 18 42  1  0  0  0  0
 19 20  1  0  0  0  0
 19 21  2  0  0  0  0
 20 23  1  0  0  0  0
 21 22  1  0  0  0  0
 21 47  1  0  0  0  0
 22 24  1  0  0  0  0
 22 25  2  0  0  0  0
 23 26  2  0  0  0  0
 23 27  1  0  0  0  0
 24 28  2  0  0  0  0
 25 29  1  0  0  0  0
 26 32  1  0  0  0  0
 26 48  1  0  0  0  0
 27 31  2  0  0  0  0
 27 49  1  0  0  0  0
 28 30  1  0  0  0  0
 28 50  1  0  0  0  0
 29 30  2  0  0  0  0
 29 51  1  0  0  0  0
 31 33  1  0  0  0  0
 32 33  2  0  0  0  0
 34 55  1  0  0  0  0
 34 56  1  0  0  0  0
 34 57  1  0  0  0  0
 35 58  1  0  0  0  0
 35 59  1  0  0  0  0
 35 60  1  0  0  0  0
M  CHG  1   7   1
M  END
> <PUBCHEM_COMPOUND_CID>
3568969

> <PUBCHEM_CONFORMER_RMSD>
1

> <PUBCHEM_CONFORMER_DIVERSEORDER>
1
70
89
43
80
44
88
77
14
97
125
28
133
59
58
123
128
138
63
90
141
148
20
19
74
60
149
72
94
15
91
51
140
147
65
111
9
106
52
26
39
76
92
31
54
33
146
132
36
56
50
118
145
32
109
99
129
117
68
53
112
57
24
151
116
104
79
30
86
85
95
48
83
135
134
137
40
82
120
42
61
27
10
29
119
5
2
71
127
64
73
21
114
103
78
38
49
142
67
130
37
17
113
150
110
12
45
35
25
6
87
8
108
11
84
55
131
107
13
81
16
101
41
7
46
122
4
126
105
102
144
66
62
115
23
34
96
69
22
75
100
139
136
124
121
143
47
18
93
98
3

> <PUBCHEM_MMFF94_PARTIAL_CHARGES>
47
1 -0.56
10 -0.36
11 -0.53
12 -0.53
13 0.28
14 0.28
15 0.28
16 0.28
17 0.56
18 0.28
19 0.09
2 -0.36
20 0.85
21 -0.18
22 0.03
23 0.09
24 0.92
25 0.08
26 -0.15
27 -0.15
28 -0.15
29 -0.15
3 -0.68
30 0.08
31 0.08
32 0.08
33 0.08
34 0.28
35 0.28
4 -0.68
43 0.4
44 0.4
45 0.4
46 0.4
47 0.15
48 0.15
49 0.15
5 -0.68
50 0.15
51 0.15
52 0.45
53 0.45
54 0.45
6 -0.68
7 -0.87
8 -0.53
9 -0.36

> <PUBCHEM_EFFECTIVE_ROTOR_COUNT>
7.2

> <PUBCHEM_PHARMACOPHORE_FEATURES>
19
1 1 acceptor
1 10 acceptor
1 11 donor
1 12 donor
1 2 acceptor
1 3 acceptor
1 3 donor
1 4 acceptor
1 4 donor
1 5 acceptor
1 5 donor
1 6 acceptor
1 6 donor
1 8 donor
1 9 acceptor
6 1 13 14 15 16 17 rings
6 22 24 25 28 29 30 rings
6 23 26 27 31 32 33 rings
6 7 19 20 21 22 24 rings

> <PUBCHEM_HEAVY_ATOM_COUNT>
35

> <PUBCHEM_ATOM_DEF_STEREO_COUNT>
0

> <PUBCHEM_ATOM_UDEF_STEREO_COUNT>
5

> <PUBCHEM_BOND_DEF_STEREO_COUNT>
0

> <PUBCHEM_BOND_UDEF_STEREO_COUNT>
0

> <PUBCHEM_ISOTOPIC_ATOM_COUNT>
0

> <PUBCHEM_COMPONENT_COUNT>
1

> <PUBCHEM_CACTVS_TAUTO_COUNT>
41

> <PUBCHEM_CONFORMER_ID>
0036754900000001

> <PUBCHEM_MMFF94_ENERGY>
133.6

> <PUBCHEM_FEATURE_SELFOVERLAP>
96.529

> <PUBCHEM_SHAPE_FINGERPRINT>
10675989 125 18128263470094314145
10721379 63 18342745134746636337
11045515 52 18121224181835640555
11578080 2 18044359557167814588
12156800 1 16806986763792599300
12160290 23 17111312727153710331
12788726 201 17686913721430854642
13004483 165 17904212429310377105
133893 2 18342190980875753011
13540713 5 17917714613511466611
14415361 192 18115020793942106968
14955137 171 17625303794776144747
15439362 3 18339084903303417621
1813 80 18268985397830283019
18681886 176 17846505815800059750
20567600 347 17913488218729559599
20600515 1 17771617950109382747
20642791 105 17250328397395466275
20642791 239 18267892543142937146
20691752 17 18261394390821089531
21133665 82 18055911246554788000
21304303 282 16462733856048710790
23366157 5 18410571808078026483
23559900 14 18261117400513006275
345986 75 17753892714325952090
4017518 198 17984703574872839452
4058900 60 18192999441861304800
4409770 3 17183050355066011571
5081480 168 18411412874570547885
5171179 24 18263910069716029741
7164475 11 17759247293072230110
9981440 41 17979351185990092355

> <PUBCHEM_SHAPE_MULTIPOLES>
649.85
9.58
6.71
2.24
17.2
3.37
0.49
-4.95
1.42
-10.78
-1.16
-1.86
0.42
-0.74

> <PUBCHEM_SHAPE_SELFOVERLAP>
1413.08

> <PUBCHEM_SHAPE_VOLUME>
351.5

> <PUBCHEM_COORDINATE_TYPE>
2
5
10

$$$$
