24211985
  -OEChem-11202013473D

 60 63  0     1  0  0  0  0  0999 V2000
   -0.0942   -2.6913    1.0893 O   0  0  0  0  0  0  0  0  0  0  0  0
   -0.3429   -1.0248   -0.5816 O   0  0  0  0  0  0  0  0  0  0  0  0
   -3.9826   -3.3327   -0.2032 O   0  0  0  0  0  0  0  0  0  0  0  0
   -1.9517   -5.2419   -0.8169 O   0  0  0  0  0  0  0  0  0  0  0  0
   -2.7616   -2.0344    1.9342 O   0  0  0  0  0  0  0  0  0  0  0  0
    1.9200   -4.5280    0.8375 O   0  0  0  0  0  0  0  0  0  0  0  0
    1.6171    2.0680   -0.1555 O   0  0  0  0  0  0  0  0  0  0  0  0
    2.2884   -1.9256   -0.6083 O   0  0  0  0  0  0  0  0  0  0  0  0
    4.8673   -1.5116   -0.4892 O   0  0  0  0  0  0  0  0  0  0  0  0
   -3.6952    2.2190   -2.3660 O   0  0  0  0  0  0  0  0  0  0  0  0
   -2.7678    3.8436    2.0428 O   0  0  0  0  0  0  0  0  0  0  0  0
    6.2679    2.9911    0.0669 O   0  0  0  0  0  0  0  0  0  0  0  0
   -4.4804    3.6440   -0.1247 O   0  0  0  0  0  0  0  0  0  0  0  0
   -2.5982   -3.0007   -0.2816 C   0  0  2  0  0  0  0  0  0  0  0  0
   -1.7655   -4.2092    0.1479 C   0  0  2  0  0  0  0  0  0  0  0  0
   -2.3023   -1.7891    0.6039 C   0  0  2  0  0  0  0  0  0  0  0  0
   -0.2822   -3.8237    0.2344 C   0  0  2  0  0  0  0  0  0  0  0  0
   -0.8005   -1.5178    0.6728 C   0  0  1  0  0  0  0  0  0  0  0  0
    0.5708   -4.9558    0.8002 C   0  0  0  0  0  0  0  0  0  0  0  0
    0.7199   -0.1601   -0.4330 C   0  0  0  0  0  0  0  0  0  0  0  0
    0.5701    1.1676   -0.2745 C   0  0  0  0  0  0  0  0  0  0  0  0
    2.0899   -0.7262   -0.4684 C   0  0  0  0  0  0  0  0  0  0  0  0
    3.1964    0.2327   -0.3280 C   0  0  0  0  0  0  0  0  0  0  0  0
   -0.7527    1.8160   -0.2352 C   0  0  0  0  0  0  0  0  0  0  0  0
    2.9002    1.5858   -0.1786 C   0  0  0  0  0  0  0  0  0  0  0  0
    4.5243   -0.2012   -0.3455 C   0  0  0  0  0  0  0  0  0  0  0  0
   -1.1449    2.5327    0.8954 C   0  0  0  0  0  0  0  0  0  0  0  0
   -1.6127    1.7130   -1.3286 C   0  0  0  0  0  0  0  0  0  0  0  0
    3.9319    2.5154   -0.0459 C   0  0  0  0  0  0  0  0  0  0  0  0
    5.5545    0.7305   -0.2121 C   0  0  0  0  0  0  0  0  0  0  0  0
    5.2592    2.0861   -0.0626 C   0  0  0  0  0  0  0  0  0  0  0  0
   -2.8648    2.3267   -1.2913 C   0  0  0  0  0  0  0  0  0  0  0  0
   -2.3969    3.1465    0.9326 C   0  0  0  0  0  0  0  0  0  0  0  0
   -3.2569    3.0435   -0.1608 C   0  0  0  0  0  0  0  0  0  0  0  0
   -4.5937    1.1117   -2.3822 C   0  0  0  0  0  0  0  0  0  0  0  0
   -1.8301    3.9002    3.1158 C   0  0  0  0  0  0  0  0  0  0  0  0
   -2.3881   -2.7608   -1.3314 H   0  0  0  0  0  0  0  0  0  0  0  0
   -2.1290   -4.5894    1.1098 H   0  0  0  0  0  0  0  0  0  0  0  0
   -2.8493   -0.9192    0.2233 H   0  0  0  0  0  0  0  0  0  0  0  0
    0.1080   -3.5772   -0.7616 H   0  0  0  0  0  0  0  0  0  0  0  0
   -0.6317   -0.7758    1.4654 H   0  0  0  0  0  0  0  0  0  0  0  0
    0.5027   -5.8553    0.1809 H   0  0  0  0  0  0  0  0  0  0  0  0
    0.2680   -5.1971    1.8246 H   0  0  0  0  0  0  0  0  0  0  0  0
   -4.4872   -2.5468   -0.4742 H   0  0  0  0  0  0  0  0  0  0  0  0
   -1.6032   -4.9256   -1.6679 H   0  0  0  0  0  0  0  0  0  0  0  0
   -2.6175   -1.2222    2.4492 H   0  0  0  0  0  0  0  0  0  0  0  0
    2.4437   -5.2612    1.2031 H   0  0  0  0  0  0  0  0  0  0  0  0
   -0.4382    2.5765    1.7180 H   0  0  0  0  0  0  0  0  0  0  0  0
   -1.3163    1.1638   -2.2197 H   0  0  0  0  0  0  0  0  0  0  0  0
    3.7043    3.5721    0.0705 H   0  0  0  0  0  0  0  0  0  0  0  0
    6.5887    0.3942   -0.2255 H   0  0  0  0  0  0  0  0  0  0  0  0
    4.0748   -2.0647   -0.5646 H   0  0  0  0  0  0  0  0  0  0  0  0
    7.1191    2.5217    0.0338 H   0  0  0  0  0  0  0  0  0  0  0  0
   -4.5773    4.0915    0.7338 H   0  0  0  0  0  0  0  0  0  0  0  0
   -5.1841    1.1624   -3.3011 H   0  0  0  0  0  0  0  0  0  0  0  0
   -5.2741    1.1550   -1.5258 H   0  0  0  0  0  0  0  0  0  0  0  0
   -4.0394    0.1676   -2.3734 H   0  0  0  0  0  0  0  0  0  0  0  0
   -2.2892    4.4939    3.9133 H   0  0  0  0  0  0  0  0  0  0  0  0
   -0.9114    4.4197    2.8229 H   0  0  0  0  0  0  0  0  0  0  0  0
   -1.6339    2.9067    3.5336 H   0  0  0  0  0  0  0  0  0  0  0  0
  1 17  1  0  0  0  0
  1 18  1  0  0  0  0
  2 18  1  0  0  0  0
  2 20  1  0  0  0  0
  3 14  1  0  0  0  0
  3 44  1  0  0  0  0
  4 15  1  0  0  0  0
  4 45  1  0  0  0  0
  5 16  1  0  0  0  0
  5 46  1  0  0  0  0
  6 19  1  0  0  0  0
  6 47  1  0  0  0  0
  7 21  1  0  0  0  0
  7 25  1  0  0  0  0
  8 22  2  0  0  0  0
  9 26  1  0  0  0  0
  9 52  1  0  0  0  0
 10 32  1  0  0  0  0
 10 35  1  0  0  0  0
 11 33  1  0  0  0  0
 11 36  1  0  0  0  0
 12 31  1  0  0  0  0
 12 53  1  0  0  0  0
 13 34  1  0  0  0  0
 13 54  1  0  0  0  0
 14 15  1  0  0  0  0
 14 16  1  0  0  0  0
 14 37  1  0  0  0  0
 15 17  1  0  0  0  0
 15 38  1  0  0  0  0
 16 18  1  0  0  0  0
 16 39  1  0  0  0  0
 17 19  1  0  0  0  0
 17 40  1  0  0  0  0
 18 41  1  0  0  0  0
 19 42  1  0  0  0  0
 19 43  1  0  0  0  0
 20 21  2  0  0  0  0
 20 22  1  0  0  0  0
 21 24  1  0  0  0  0
 22 23  1  0  0  0  0
 23 25  1  0  0  0  0
 23 26  2  0  0  0  0
 24 27  2  0  0  0  0
 24 28  1  0  0  0  0
 25 29  2  0  0  0  0
 26 30  1  0  0  0  0
 27 33  1  0  0  0  0
 27 48  1  0  0  0  0
 28 32  2  0  0  0  0
 28 49  1  0  0  0  0
 29 31  1  0  0  0  0
 29 50  1  0  0  0  0
 30 31  2  0  0  0  0
 30 51  1  0  0  0  0
 32 34  1  0  0  0  0
 33 34  2  0  0  0  0
 35 55  1  0  0  0  0
 35 56  1  0  0  0  0
 35 57  1  0  0  0  0
 36 58  1  0  0  0  0
 36 59  1  0  0  0  0
 36 60  1  0  0  0  0
M  END
> <PUBCHEM_COMPOUND_CID>
24211985

> <PUBCHEM_CONFORMER_RMSD>
1

> <PUBCHEM_CONFORMER_DIVERSEORDER>
1
32
52
50
22
25
53
34
28
12
41
55
29
11
33
30
44
31
60
18
24
39
21
58
59
40
48
16
47
43
57
23
7
42
35
36
38
15
14
51
20
54
2
56
4
8
46
6
26
37
5
19
27
45
49
13
9
17
10
3

> <PUBCHEM_MMFF94_PARTIAL_CHARGES>
47
1 -0.56
10 -0.36
11 -0.36
12 -0.53
13 -0.53
14 0.28
15 0.28
16 0.28
17 0.28
18 0.56
19 0.28
2 -0.36
20 0.09
21 0.05
22 0.47
23 0.09
24 0.03
25 0.08
26 0.08
27 -0.15
28 -0.15
29 -0.15
3 -0.68
30 -0.15
31 0.08
32 0.08
33 0.08
34 0.08
35 0.28
36 0.28
4 -0.68
44 0.4
45 0.4
46 0.4
47 0.4
48 0.15
49 0.15
5 -0.68
50 0.15
51 0.15
52 0.45
53 0.45
54 0.45
6 -0.68
7 -0.16
8 -0.57
9 -0.53

> <PUBCHEM_EFFECTIVE_ROTOR_COUNT>
7.2

> <PUBCHEM_PHARMACOPHORE_FEATURES>
21
1 1 acceptor
1 10 acceptor
1 11 acceptor
1 12 donor
1 13 donor
1 2 acceptor
1 3 acceptor
1 3 donor
1 4 acceptor
1 4 donor
1 5 acceptor
1 5 donor
1 6 acceptor
1 6 donor
1 7 acceptor
1 8 acceptor
1 9 donor
6 1 14 15 16 17 18 rings
6 23 25 26 29 30 31 rings
6 24 27 28 32 33 34 rings
6 7 20 21 22 23 25 rings

> <PUBCHEM_HEAVY_ATOM_COUNT>
36

> <PUBCHEM_ATOM_DEF_STEREO_COUNT>
3

> <PUBCHEM_ATOM_UDEF_STEREO_COUNT>
2

> <PUBCHEM_BOND_DEF_STEREO_COUNT>
0

> <PUBCHEM_BOND_UDEF_STEREO_COUNT>
0

> <PUBCHEM_ISOTOPIC_ATOM_COUNT>
0

> <PUBCHEM_COMPONENT_COUNT>
1

> <PUBCHEM_CACTVS_TAUTO_COUNT>
57

> <PUBCHEM_CONFORMER_ID>
0171721100000001

> <PUBCHEM_MMFF94_ENERGY>
131.9076

> <PUBCHEM_FEATURE_SELFOVERLAP>
106.682

> <PUBCHEM_SHAPE_FINGERPRINT>
10050765 1 18410576224079990028
10930396 42 17545852268778485640
1100329 8 18121216481466077298
11135609 187 18263629702751639333
12156800 1 17973970081536642409
12160290 23 18045249199471291028
12655364 131 17768528297251500098
12788726 201 18191296285781346386
13140716 1 18338238168339906048
138480 1 17112692592771485790
140371 6 18046916154110617028
14747281 78 15871104284880160397
14955137 171 16969718685076123027
15131766 46 14977989011642178536
15200665 1 18409167692758009960
15324884 4 17171254914403577941
15351339 4 18263903549776514055
15775530 1 17986701223705838574
15927050 60 18266460906232267598
17138139 8 17984386786168593621
17980427 23 17197445599410380163
19319366 153 17842004282247397321
20600515 1 17763490669020038795
21049683 271 17255126064986155660
23559900 14 18340202974259859102
283562 15 18337109080670661050
3380486 145 18049454926401363291
3493558 16 17608363876318870092
3886686 26 18122310607536667960
4258327 124 17749961075810031596
4409770 3 18263354962013811061
469060 322 17022915561936386933
50150288 127 17416977132160023841
5104073 3 18409441515221876904
5171179 24 17624679547149727477
6287921 2 17188952542016228339
653340 110 18338514252778979200

> <PUBCHEM_SHAPE_MULTIPOLES>
664.56
9.57
7.67
1.67
12.49
7.63
-0.53
-7.42
2.61
-6.38
-2.74
-2.55
-1.78
-0.16

> <PUBCHEM_SHAPE_SELFOVERLAP>
1452.79

> <PUBCHEM_SHAPE_VOLUME>
357

> <PUBCHEM_COORDINATE_TYPE>
2
5
10

$$$$
