101682256
  -OEChem-11202013463D

 57 60  0     1  0  0  0  0  0999 V2000
    1.7366   -0.8826    0.4274 O   0  0  0  0  0  0  0  0  0  0  0  0
    0.1008   -1.0108   -1.2315 O   0  0  0  0  0  0  0  0  0  0  0  0
    3.1802   -4.6073   -0.5266 O   0  0  0  0  0  0  0  0  0  0  0  0
    3.8689   -3.4049    2.0102 O   0  0  0  0  0  0  0  0  0  0  0  0
    0.4610   -3.8156   -1.3391 O   0  0  0  0  0  0  0  0  0  0  0  0
    4.2546   -0.0163    1.2014 O   0  0  0  0  0  0  0  0  0  0  0  0
   -2.1147    1.5288    0.2620 O   0  0  0  0  0  0  0  0  0  0  0  0
   -2.3804   -2.2667   -1.1963 O   0  0  0  0  0  0  0  0  0  0  0  0
   -4.9364   -2.3048   -0.6475 O   0  0  0  0  0  0  0  0  0  0  0  0
    2.7308    3.0599   -2.4758 O   0  0  0  0  0  0  0  0  0  0  0  0
   -6.7390    1.6182    1.3285 O   0  0  0  0  0  0  0  0  0  0  0  0
    2.3061    3.3671    2.2844 O   0  0  0  0  0  0  0  0  0  0  0  0
    3.6770    3.9829   -0.0423 O   0  0  0  0  0  0  0  0  0  0  0  0
    2.3440   -3.6774    0.1638 C   0  0  1  0  0  0  0  0  0  0  0  0
    3.2454   -2.7113    0.9325 C   0  0  1  0  0  0  0  0  0  0  0  0
    1.4687   -2.9335   -0.8451 C   0  0  2  0  0  0  0  0  0  0  0  0
    2.4350   -1.5376    1.4878 C   0  0  1  0  0  0  0  0  0  0  0  0
    0.7788   -1.7305   -0.2022 C   0  0  1  0  0  0  0  0  0  0  0  0
    3.3302   -0.5004    2.1585 C   0  0  0  0  0  0  0  0  0  0  0  0
   -1.0244   -0.3773   -0.7502 C   0  0  0  0  0  0  0  0  0  0  0  0
   -1.0091    0.8754   -0.2592 C   0  0  0  0  0  0  0  0  0  0  0  0
   -2.3045   -1.1256   -0.7609 C   0  0  0  0  0  0  0  0  0  0  0  0
   -3.4767   -0.4219   -0.2184 C   0  0  0  0  0  0  0  0  0  0  0  0
    0.2188    1.6885   -0.2024 C   0  0  0  0  0  0  0  0  0  0  0  0
   -3.3190    0.8741    0.2670 C   0  0  0  0  0  0  0  0  0  0  0  0
   -4.7293   -1.0398   -0.1867 C   0  0  0  0  0  0  0  0  0  0  0  0
   -4.4153    1.5623    0.7880 C   0  0  0  0  0  0  0  0  0  0  0  0
    0.9067    1.9964   -1.3762 C   0  0  0  0  0  0  0  0  0  0  0  0
    0.6925    2.1511    1.0252 C   0  0  0  0  0  0  0  0  0  0  0  0
   -5.8242   -0.3496    0.3348 C   0  0  0  0  0  0  0  0  0  0  0  0
   -5.6678    0.9489    0.8211 C   0  0  0  0  0  0  0  0  0  0  0  0
    2.0683    2.7668   -1.3223 C   0  0  0  0  0  0  0  0  0  0  0  0
    1.8541    2.9215    1.0792 C   0  0  0  0  0  0  0  0  0  0  0  0
    2.5419    3.2294   -0.0947 C   0  0  0  0  0  0  0  0  0  0  0  0
    3.7402    2.1429   -2.8943 C   0  0  0  0  0  0  0  0  0  0  0  0
    1.7307   -4.2711    0.8518 H   0  0  0  0  0  0  0  0  0  0  0  0
    4.0427   -2.3603    0.2668 H   0  0  0  0  0  0  0  0  0  0  0  0
    2.0637   -2.6169   -1.7099 H   0  0  0  0  0  0  0  0  0  0  0  0
    1.7115   -1.8858    2.2368 H   0  0  0  0  0  0  0  0  0  0  0  0
    0.0578   -2.0854    0.5501 H   0  0  0  0  0  0  0  0  0  0  0  0
    3.8802   -0.9282    3.0022 H   0  0  0  0  0  0  0  0  0  0  0  0
    2.7359    0.3453    2.5158 H   0  0  0  0  0  0  0  0  0  0  0  0
    3.7233   -4.1116   -1.1629 H   0  0  0  0  0  0  0  0  0  0  0  0
    3.1704   -3.7199    2.6090 H   0  0  0  0  0  0  0  0  0  0  0  0
   -0.0835   -4.1033   -0.5866 H   0  0  0  0  0  0  0  0  0  0  0  0
    4.7998    0.6563    1.6437 H   0  0  0  0  0  0  0  0  0  0  0  0
   -4.2957    2.5739    1.1676 H   0  0  0  0  0  0  0  0  0  0  0  0
    0.5437    1.6486   -2.3410 H   0  0  0  0  0  0  0  0  0  0  0  0
    0.1605    1.9089    1.9427 H   0  0  0  0  0  0  0  0  0  0  0  0
   -6.7998   -0.8294    0.3601 H   0  0  0  0  0  0  0  0  0  0  0  0
   -4.1106   -2.6834   -0.9858 H   0  0  0  0  0  0  0  0  0  0  0  0
   -7.5235    1.0458    1.2738 H   0  0  0  0  0  0  0  0  0  0  0  0
    1.7076    3.0530    2.9838 H   0  0  0  0  0  0  0  0  0  0  0  0
    3.8523    4.2096    0.8876 H   0  0  0  0  0  0  0  0  0  0  0  0
    4.1796    2.5170   -3.8230 H   0  0  0  0  0  0  0  0  0  0  0  0
    3.3060    1.1561   -3.0845 H   0  0  0  0  0  0  0  0  0  0  0  0
    4.5289    2.0666   -2.1391 H   0  0  0  0  0  0  0  0  0  0  0  0
  1 17  1  0  0  0  0
  1 18  1  0  0  0  0
  2 18  1  0  0  0  0
  2 20  1  0  0  0  0
  3 14  1  0  0  0  0
  3 43  1  0  0  0  0
  4 15  1  0  0  0  0
  4 44  1  0  0  0  0
  5 16  1  0  0  0  0
  5 45  1  0  0  0  0
  6 19  1  0  0  0  0
  6 46  1  0  0  0  0
  7 21  1  0  0  0  0
  7 25  1  0  0  0  0
  8 22  2  0  0  0  0
  9 26  1  0  0  0  0
  9 51  1  0  0  0  0
 10 32  1  0  0  0  0
 10 35  1  0  0  0  0
 11 31  1  0  0  0  0
 11 52  1  0  0  0  0
 12 33  1  0  0  0  0
 12 53  1  0  0  0  0
 13 34  1  0  0  0  0
 13 54  1  0  0  0  0
 14 15  1  0  0  0  0
 14 16  1  0  0  0  0
 14 36  1  0  0  0  0
 15 17  1  0  0  0  0
 15 37  1  0  0  0  0
 16 18  1  0  0  0  0
 16 38  1  0  0  0  0
 17 19  1  0  0  0  0
 17 39  1  0  0  0  0
 18 40  1  0  0  0  0
 19 41  1  0  0  0  0
 19 42  1  0  0  0  0
 20 21  2  0  0  0  0
 20 22  1  0  0  0  0
 21 24  1  0  0  0  0
 22 23  1  0  0  0  0
 23 25  1  0  0  0  0
 23 26  2  0  0  0  0
 24 28  1  0  0  0  0
 24 29  2  0  0  0  0
 25 27  2  0  0  0  0
 26 30  1  0  0  0  0
 27 31  1  0  0  0  0
 27 47  1  0  0  0  0
 28 32  2  0  0  0  0
 28 48  1  0  0  0  0
 29 33  1  0  0  0  0
 29 49  1  0  0  0  0
 30 31  2  0  0  0  0
 30 50  1  0  0  0  0
 32 34  1  0  0  0  0
 33 34  2  0  0  0  0
 35 55  1  0  0  0  0
 35 56  1  0  0  0  0
 35 57  1  0  0  0  0
M  END
> <PUBCHEM_COMPOUND_CID>
101682256

> <PUBCHEM_CONFORMER_RMSD>
1

> <PUBCHEM_CONFORMER_DIVERSEORDER>
1
62
65
52
19
27
37
38
14
59
9
36
57
3
50
30
10
40
64
25
54
15
49
46
63
32
26
42
56
23
20
33
8
55
17
12
2
5
6
7
48
21
51
22
4
35
13
18
43
24
47
31
58
45
16
28
41
44
11
29
61
53
39
34
60

> <PUBCHEM_MMFF94_PARTIAL_CHARGES>
47
1 -0.56
10 -0.36
11 -0.53
12 -0.53
13 -0.53
14 0.28
15 0.28
16 0.28
17 0.28
18 0.56
19 0.28
2 -0.36
20 0.09
21 0.05
22 0.47
23 0.09
24 0.03
25 0.08
26 0.08
27 -0.15
28 -0.15
29 -0.15
3 -0.68
30 -0.15
31 0.08
32 0.08
33 0.08
34 0.08
35 0.28
4 -0.68
43 0.4
44 0.4
45 0.4
46 0.4
47 0.15
48 0.15
49 0.15
5 -0.68
50 0.15
51 0.45
52 0.45
53 0.45
54 0.45
6 -0.68
7 -0.16
8 -0.57
9 -0.53

> <PUBCHEM_EFFECTIVE_ROTOR_COUNT>
6.2

> <PUBCHEM_PHARMACOPHORE_FEATURES>
21
1 1 acceptor
1 10 acceptor
1 11 donor
1 12 donor
1 13 donor
1 2 acceptor
1 3 acceptor
1 3 donor
1 4 acceptor
1 4 donor
1 5 acceptor
1 5 donor
1 6 acceptor
1 6 donor
1 7 acceptor
1 8 acceptor
1 9 donor
6 1 14 15 16 17 18 rings
6 23 25 26 27 30 31 rings
6 24 28 29 32 33 34 rings
6 7 20 21 22 23 25 rings

> <PUBCHEM_HEAVY_ATOM_COUNT>
35

> <PUBCHEM_ATOM_DEF_STEREO_COUNT>
5

> <PUBCHEM_ATOM_UDEF_STEREO_COUNT>
0

> <PUBCHEM_BOND_DEF_STEREO_COUNT>
0

> <PUBCHEM_BOND_UDEF_STEREO_COUNT>
0

> <PUBCHEM_ISOTOPIC_ATOM_COUNT>
0

> <PUBCHEM_COMPONENT_COUNT>
1

> <PUBCHEM_CACTVS_TAUTO_COUNT>
66

> <PUBCHEM_CONFORMER_ID>
060F8C5000000001

> <PUBCHEM_MMFF94_ENERGY>
119.1817

> <PUBCHEM_FEATURE_SELFOVERLAP>
106.684

> <PUBCHEM_SHAPE_FINGERPRINT>
10190108 129 17832169464686005411
10554248 39 18335693924503983557
10653451 467 17617647766473951765
10721379 63 18042992911612350620
11007060 377 17764042645717744896
11578080 2 17676759882314836829
11963148 33 17975693115633250867
12156800 1 15694936253978978194
12160290 23 16968548821767604326
12788726 201 17612884694470291874
13140716 1 18269547402795349371
133893 2 18114446950954389791
13540713 5 18272931636000067119
140371 6 17982740675633191429
14790565 3 18196652019351730472
14955137 171 18342739589928000400
15297060 5 18130222783167164554
15444296 8 16882119704791143856
15927050 60 18125442157917281398
16991981 162 16673627359158137461
17980427 23 17774141411141924863
1813 80 18116715110214213227
19309040 13 14928485712377470004
20600515 1 17836929997002736909
20642791 178 18262240040127733996
20739085 24 18340764823921327042
21033648 29 17555710146292796833
21120745 212 17694243079448321510
21421861 104 18409737231328711881
21796203 349 17762384298730801723
22393880 68 18058743523576715285
23366157 5 18261116279098709191
23559900 14 17988096482587207871
25147074 1 18342734161622159871
3380486 145 17836044972078688412
4409770 3 17251441107489183628
460360 51 18261668169691237381
469060 322 17612607622071969010
474144 1 18409454686641095061
5104073 3 18341065060353800369
513532 50 16917072148398071741
6287921 2 18270385174847935994
9841814 1 18040718013464410619
9896288 288 17907859852850487210
9981440 41 18122065562040018683

> <PUBCHEM_SHAPE_MULTIPOLES>
643.98
10.57
5.62
1.95
18.14
1.96
-0.25
-0.49
3.04
-8.46
-0.62
-2.53
-0.9
-2.76

> <PUBCHEM_SHAPE_SELFOVERLAP>
1413.957

> <PUBCHEM_SHAPE_VOLUME>
344.1

> <PUBCHEM_COORDINATE_TYPE>
2
5
10

$$$$
