12303662
  -OEChem-11202014163D

 80 83  0     1  0  0  0  0  0999 V2000
    7.9648   -1.3468    0.9144 O   0  0  0  0  0  0  0  0  0  0  0  0
   -0.3127    1.1761   -0.3305 C   0  0  1  0  0  0  0  0  0  0  0  0
    0.2894   -0.1090   -0.9331 C   0  0  2  0  0  0  0  0  0  0  0  0
    1.8154   -0.0612   -1.0599 C   0  0  1  0  0  0  0  0  0  0  0  0
    2.4458    0.1875    0.3414 C   0  0  1  0  0  0  0  0  0  0  0  0
   -1.8142    0.8072   -0.4101 C   0  0  2  0  0  0  0  0  0  0  0  0
    0.2396    1.3198    1.0945 C   0  0  0  0  0  0  0  0  0  0  0  0
    4.0220    0.2837    0.2580 C   0  0  2  0  0  0  0  0  0  0  0  0
   -0.5456   -0.3472   -2.1875 C   0  0  0  0  0  0  0  0  0  0  0  0
    1.7773    1.3670    1.1002 C   0  0  0  0  0  0  0  0  0  0  0  0
   -1.9540    0.1391   -1.7983 C   0  0  0  0  0  0  0  0  0  0  0  0
    2.3529   -1.3706   -1.6567 C   0  0  0  0  0  0  0  0  0  0  0  0
   -2.8062    1.9413   -0.1961 C   0  0  1  0  0  0  0  0  0  0  0  0
   -0.0083    2.4573   -1.1460 C   0  0  0  0  0  0  0  0  0  0  0  0
    4.5897   -0.8228   -0.6421 C   0  0  0  0  0  0  0  0  0  0  0  0
    4.5978    0.1166    1.6961 C   0  0  0  0  0  0  0  0  0  0  0  0
    3.8254   -1.5525   -1.4732 C   0  0  0  0  0  0  0  0  0  0  0  0
    4.4728    1.6473   -0.3190 C   0  0  0  0  0  0  0  0  0  0  0  0
    6.0762   -1.0834   -0.5611 C   0  0  0  0  0  0  0  0  0  0  0  0
   -4.2497    1.4158   -0.3446 C   0  0  0  0  0  0  0  0  0  0  0  0
    6.1117   -0.0841    1.7489 C   0  0  0  0  0  0  0  0  0  0  0  0
    6.5438   -1.2603    0.8808 C   0  0  2  0  0  0  0  0  0  0  0  0
   -2.5702    2.5962    1.1690 C   0  0  0  0  0  0  0  0  0  0  0  0
   -4.6428    0.2411    0.5664 C   0  0  0  0  0  0  0  0  0  0  0  0
   -6.0612   -0.3491    0.3532 C   0  0  2  0  0  0  0  0  0  0  0  0
   -6.4076   -1.4571    1.3984 C   0  0  0  0  0  0  0  0  0  0  0  0
   -6.2386   -0.8200   -1.1116 C   0  0  0  0  0  0  0  0  0  0  0  0
   -6.3056   -0.9461    2.8413 C   0  0  0  0  0  0  0  0  0  0  0  0
   -5.5797   -2.7360    1.2471 C   0  0  0  0  0  0  0  0  0  0  0  0
   -7.6282   -1.3499   -1.4399 C   0  0  0  0  0  0  0  0  0  0  0  0
    0.0598   -0.9470   -0.2531 H   0  0  0  0  0  0  0  0  0  0  0  0
    2.0977    0.7516   -1.7384 H   0  0  0  0  0  0  0  0  0  0  0  0
    2.2120   -0.7098    0.9378 H   0  0  0  0  0  0  0  0  0  0  0  0
   -1.9797    0.0321    0.3500 H   0  0  0  0  0  0  0  0  0  0  0  0
   -0.0880    0.4778    1.7176 H   0  0  0  0  0  0  0  0  0  0  0  0
   -0.0977    2.2286    1.5931 H   0  0  0  0  0  0  0  0  0  0  0  0
   -0.1643    0.2280   -3.0387 H   0  0  0  0  0  0  0  0  0  0  0  0
   -0.5555   -1.4025   -2.4786 H   0  0  0  0  0  0  0  0  0  0  0  0
    2.0924    2.3245    0.6754 H   0  0  0  0  0  0  0  0  0  0  0  0
    2.1117    1.3703    2.1439 H   0  0  0  0  0  0  0  0  0  0  0  0
   -2.3196    0.8360   -2.5611 H   0  0  0  0  0  0  0  0  0  0  0  0
   -2.6549   -0.7019   -1.7566 H   0  0  0  0  0  0  0  0  0  0  0  0
    2.1267   -1.3940   -2.7296 H   0  0  0  0  0  0  0  0  0  0  0  0
    1.8488   -2.2358   -1.2080 H   0  0  0  0  0  0  0  0  0  0  0  0
   -2.6799    2.7157   -0.9631 H   0  0  0  0  0  0  0  0  0  0  0  0
   -0.4582    2.4329   -2.1437 H   0  0  0  0  0  0  0  0  0  0  0  0
    1.0633    2.6170   -1.2923 H   0  0  0  0  0  0  0  0  0  0  0  0
   -0.3854    3.3533   -0.6439 H   0  0  0  0  0  0  0  0  0  0  0  0
    4.3469    0.9887    2.3115 H   0  0  0  0  0  0  0  0  0  0  0  0
    4.1272   -0.7493    2.1815 H   0  0  0  0  0  0  0  0  0  0  0  0
    4.2820   -2.3377   -2.0711 H   0  0  0  0  0  0  0  0  0  0  0  0
    5.5552    1.6947   -0.4789 H   0  0  0  0  0  0  0  0  0  0  0  0
    4.0022    1.8554   -1.2854 H   0  0  0  0  0  0  0  0  0  0  0  0
    4.2305    2.4730    0.3578 H   0  0  0  0  0  0  0  0  0  0  0  0
    6.6223   -0.2566   -1.0325 H   0  0  0  0  0  0  0  0  0  0  0  0
    6.3617   -1.9733   -1.1370 H   0  0  0  0  0  0  0  0  0  0  0  0
   -4.9483    2.2429   -0.1624 H   0  0  0  0  0  0  0  0  0  0  0  0
   -4.3925    1.1414   -1.3935 H   0  0  0  0  0  0  0  0  0  0  0  0
    6.4264   -0.2584    2.7853 H   0  0  0  0  0  0  0  0  0  0  0  0
    6.6337    0.8291    1.4375 H   0  0  0  0  0  0  0  0  0  0  0  0
    6.1421   -2.1920    1.2980 H   0  0  0  0  0  0  0  0  0  0  0  0
   -3.4533    3.1765    1.4625 H   0  0  0  0  0  0  0  0  0  0  0  0
   -2.3960    1.8618    1.9615 H   0  0  0  0  0  0  0  0  0  0  0  0
   -1.7525    3.3186    1.1385 H   0  0  0  0  0  0  0  0  0  0  0  0
   -4.5410    0.5839    1.6009 H   0  0  0  0  0  0  0  0  0  0  0  0
   -3.9335   -0.5796    0.4343 H   0  0  0  0  0  0  0  0  0  0  0  0
   -6.7735    0.4729    0.5136 H   0  0  0  0  0  0  0  0  0  0  0  0
    8.2253   -2.1026    0.3608 H   0  0  0  0  0  0  0  0  0  0  0  0
   -7.4600   -1.7312    1.2508 H   0  0  0  0  0  0  0  0  0  0  0  0
   -5.4865   -1.5740   -1.3699 H   0  0  0  0  0  0  0  0  0  0  0  0
   -6.0745    0.0241   -1.7888 H   0  0  0  0  0  0  0  0  0  0  0  0
   -6.7568   -1.6678    3.5316 H   0  0  0  0  0  0  0  0  0  0  0  0
   -5.2670   -0.8047    3.1560 H   0  0  0  0  0  0  0  0  0  0  0  0
   -6.8387    0.0027    2.9603 H   0  0  0  0  0  0  0  0  0  0  0  0
   -5.7031   -3.1841    0.2574 H   0  0  0  0  0  0  0  0  0  0  0  0
   -4.5134   -2.5526    1.4107 H   0  0  0  0  0  0  0  0  0  0  0  0
   -5.8992   -3.4851    1.9803 H   0  0  0  0  0  0  0  0  0  0  0  0
   -7.8293   -2.2977   -0.9328 H   0  0  0  0  0  0  0  0  0  0  0  0
   -7.7155   -1.5304   -2.5163 H   0  0  0  0  0  0  0  0  0  0  0  0
   -8.4011   -0.6297   -1.1539 H   0  0  0  0  0  0  0  0  0  0  0  0
  1 22  1  0  0  0  0
  1 68  1  0  0  0  0
  2  3  1  0  0  0  0
  2  6  1  0  0  0  0
  2  7  1  0  0  0  0
  2 14  1  0  0  0  0
  3  4  1  0  0  0  0
  3  9  1  0  0  0  0
  3 31  1  0  0  0  0
  4  5  1  0  0  0  0
  4 12  1  0  0  0  0
  4 32  1  0  0  0  0
  5  8  1  0  0  0  0
  5 10  1  0  0  0  0
  5 33  1  0  0  0  0
  6 11  1  0  0  0  0
  6 13  1  0  0  0  0
  6 34  1  0  0  0  0
  7 10  1  0  0  0  0
  7 35  1  0  0  0  0
  7 36  1  0  0  0  0
  8 15  1  0  0  0  0
  8 16  1  0  0  0  0
  8 18  1  0  0  0  0
  9 11  1  0  0  0  0
  9 37  1  0  0  0  0
  9 38  1  0  0  0  0
 10 39  1  0  0  0  0
 10 40  1  0  0  0  0
 11 41  1  0  0  0  0
 11 42  1  0  0  0  0
 12 17  1  0  0  0  0
 12 43  1  0  0  0  0
 12 44  1  0  0  0  0
 13 20  1  0  0  0  0
 13 23  1  0  0  0  0
 13 45  1  0  0  0  0
 14 46  1  0  0  0  0
 14 47  1  0  0  0  0
 14 48  1  0  0  0  0
 15 17  2  0  0  0  0
 15 19  1  0  0  0  0
 16 21  1  0  0  0  0
 16 49  1  0  0  0  0
 16 50  1  0  0  0  0
 17 51  1  0  0  0  0
 18 52  1  0  0  0  0
 18 53  1  0  0  0  0
 18 54  1  0  0  0  0
 19 22  1  0  0  0  0
 19 55  1  0  0  0  0
 19 56  1  0  0  0  0
 20 24  1  0  0  0  0
 20 57  1  0  0  0  0
 20 58  1  0  0  0  0
 21 22  1  0  0  0  0
 21 59  1  0  0  0  0
 21 60  1  0  0  0  0
 22 61  1  0  0  0  0
 23 62  1  0  0  0  0
 23 63  1  0  0  0  0
 23 64  1  0  0  0  0
 24 25  1  0  0  0  0
 24 65  1  0  0  0  0
 24 66  1  0  0  0  0
 25 26  1  0  0  0  0
 25 27  1  0  0  0  0
 25 67  1  0  0  0  0
 26 28  1  0  0  0  0
 26 29  1  0  0  0  0
 26 69  1  0  0  0  0
 27 30  1  0  0  0  0
 27 70  1  0  0  0  0
 27 71  1  0  0  0  0
 28 72  1  0  0  0  0
 28 73  1  0  0  0  0
 28 74  1  0  0  0  0
 29 75  1  0  0  0  0
 29 76  1  0  0  0  0
 29 77  1  0  0  0  0
 30 78  1  0  0  0  0
 30 79  1  0  0  0  0
 30 80  1  0  0  0  0
M  END
> <PUBCHEM_COMPOUND_CID>
12303662

> <PUBCHEM_CONFORMER_RMSD>
1

> <PUBCHEM_CONFORMER_DIVERSEORDER>
2
12
1
11
10
4
13
5
9
14
3
6
8
7

> <PUBCHEM_MMFF94_PARTIAL_CHARGES>
9
1 -0.68
12 0.14
15 -0.28
17 -0.29
19 0.14
22 0.28
51 0.15
68 0.4
8 0.14

> <PUBCHEM_EFFECTIVE_ROTOR_COUNT>
8

> <PUBCHEM_PHARMACOPHORE_FEATURES>
10
1 1 acceptor
1 1 donor
1 23 hydrophobe
1 30 hydrophobe
3 26 28 29 hydrophobe
5 2 3 6 9 11 rings
6 13 20 24 25 26 27 hydrophobe
6 2 3 4 5 7 10 rings
6 4 5 8 12 15 17 rings
6 8 15 16 19 21 22 rings

> <PUBCHEM_HEAVY_ATOM_COUNT>
30

> <PUBCHEM_ATOM_DEF_STEREO_COUNT>
8

> <PUBCHEM_ATOM_UDEF_STEREO_COUNT>
1

> <PUBCHEM_BOND_DEF_STEREO_COUNT>
0

> <PUBCHEM_BOND_UDEF_STEREO_COUNT>
0

> <PUBCHEM_ISOTOPIC_ATOM_COUNT>
0

> <PUBCHEM_COMPONENT_COUNT>
1

> <PUBCHEM_CACTVS_TAUTO_COUNT>
1

> <PUBCHEM_CONFORMER_ID>
00BBBD2E00000002

> <PUBCHEM_MMFF94_ENERGY>
91.1081

> <PUBCHEM_FEATURE_SELFOVERLAP>
50.848

> <PUBCHEM_SHAPE_FINGERPRINT>
10 15 18060411431017778968
10693767 8 14707195601178993112
10763959 59 8718535126038233078
10906281 52 14979954813588107648
11135926 11 17603863369990968843
11456790 92 15195560174978224290
11646440 116 17275383197102580352
11796584 16 17895192242955429611
12011746 2 12179852667488107188
12035758 1 17917712400564228006
12166972 35 16950568791560168492
12422481 6 17632306661748220069
13782708 43 18261395516170943042
14068700 675 18040722493627035553
14251764 18 16415471675193792117
14849402 71 16056022679599616248
15064981 113 16516782838027649015
15188451 53 18186801383362393143
15238133 3 13182733724194013194
15510800 12 18337113462508253619
17913733 40 16917073235161824527
18608769 82 17846208977835659014
19611394 137 18343018913052334208
20028762 73 17821446850818440906
20105231 36 17561368353937549358
2026 5 17749107807948471035
21130935 74 16630813188063102703
21267235 1 17704072868146094628
21424621 283 12535631565613201429
21623969 137 17989208131317691134
21637258 2 17967248693566822685
21756936 100 13973961000677529749
21781051 124 18272381862927526702
22122407 14 14189287222513862778
22149856 69 17560814216438847715
23522609 53 17487361428224901761
23569914 152 12110547150300142600
23576562 1 12252770147874716179
2838139 119 12175611880592889811
3004659 81 13551192194990151510
3178227 256 17703790323722468786
3383291 50 18412260649201377155
3633792 109 14562531756742581436
3663271 9 16415483740290040247
392239 28 17346599699126174745
397830 11 18337949094780273616
4340502 62 17346878944877546398
4353968 344 14779811704469641146
439807 62 16371019550661573307
465052 167 18407762543068513636
5104073 3 17702389442127950970
59682541 35 17917702539546163546
6009941 240 18268990891177954633
6086070 43 17240750749232934996
9689198 14 13542469773563226411
999808 66 18413108342310782459

> <PUBCHEM_SHAPE_MULTIPOLES>
611.52
20.16
2.28
2.1
5.63
0.51
-0.52
-13.15
-8.28
1.53
-0.14
1.52
-0.62
1

> <PUBCHEM_SHAPE_SELFOVERLAP>
1259.547

> <PUBCHEM_SHAPE_VOLUME>
351.4

> <PUBCHEM_COORDINATE_TYPE>
2
5
10

$$$$
