5321577
  -OEChem-11202013483D

 60 63  0     1  0  0  0  0  0999 V2000
   -0.2855   -2.5055    0.1591 O   0  0  0  0  0  0  0  0  0  0  0  0
    0.3214   -0.6450    1.4297 O   0  0  0  0  0  0  0  0  0  0  0  0
    3.1645   -4.4877    1.1768 O   0  0  0  0  0  0  0  0  0  0  0  0
    1.6056   -5.3839   -1.0866 O   0  0  0  0  0  0  0  0  0  0  0  0
    2.9997   -1.5585    1.4479 O   0  0  0  0  0  0  0  0  0  0  0  0
   -2.0597   -3.3767   -1.7511 O   0  0  0  0  0  0  0  0  0  0  0  0
   -1.4492    2.0387   -0.3733 O   0  0  0  0  0  0  0  0  0  0  0  0
   -2.3552   -1.3518    1.6974 O   0  0  0  0  0  0  0  0  0  0  0  0
   -4.9021   -0.9348    1.2772 O   0  0  0  0  0  0  0  0  0  0  0  0
    3.3099    4.0165    1.4983 O   0  0  0  0  0  0  0  0  0  0  0  0
    3.5763    1.4550   -2.5396 O   0  0  0  0  0  0  0  0  0  0  0  0
   -6.0320    2.9469   -1.2129 O   0  0  0  0  0  0  0  0  0  0  0  0
    4.7249    3.2276   -0.7482 O   0  0  0  0  0  0  0  0  0  0  0  0
    2.3506   -3.6238    0.3819 C   0  0  1  0  0  0  0  0  0  0  0  0
    1.1566   -4.4330   -0.1247 C   0  0  1  0  0  0  0  0  0  0  0  0
    1.8944   -2.4343    1.2270 C   0  0  2  0  0  0  0  0  0  0  0  0
    0.1132   -3.5167   -0.7681 C   0  0  1  0  0  0  0  0  0  0  0  0
    0.7903   -1.6442    0.5248 C   0  0  1  0  0  0  0  0  0  0  0  0
   -1.1393   -4.2861   -1.1760 C   0  0  0  0  0  0  0  0  0  0  0  0
   -0.6864    0.1115    0.8716 C   0  0  0  0  0  0  0  0  0  0  0  0
   -0.4582    1.2380    0.1721 C   0  0  0  0  0  0  0  0  0  0  0  0
   -2.0861   -0.3351    1.0717 C   0  0  0  0  0  0  0  0  0  0  0  0
   -3.1326    0.5117    0.4787 C   0  0  0  0  0  0  0  0  0  0  0  0
    0.8992    1.7589   -0.0688 C   0  0  0  0  0  0  0  0  0  0  0  0
   -2.7571    1.6595   -0.2156 C   0  0  0  0  0  0  0  0  0  0  0  0
   -4.4824    0.1753    0.6087 C   0  0  0  0  0  0  0  0  0  0  0  0
    1.6092    1.3596   -1.2014 C   0  0  0  0  0  0  0  0  0  0  0  0
    1.4749    2.6519    0.8356 C   0  0  0  0  0  0  0  0  0  0  0  0
   -3.7309    2.4804   -0.7851 C   0  0  0  0  0  0  0  0  0  0  0  0
   -5.4544    0.9975    0.0376 C   0  0  0  0  0  0  0  0  0  0  0  0
   -5.0797    2.1478   -0.6578 C   0  0  0  0  0  0  0  0  0  0  0  0
    2.7595    3.1452    0.6073 C   0  0  0  0  0  0  0  0  0  0  0  0
    2.8939    1.8529   -1.4296 C   0  0  0  0  0  0  0  0  0  0  0  0
    3.4690    2.7457   -0.5252 C   0  0  0  0  0  0  0  0  0  0  0  0
    4.0615    3.4559    2.5731 C   0  0  0  0  0  0  0  0  0  0  0  0
    2.9165    0.5405   -3.4127 C   0  0  0  0  0  0  0  0  0  0  0  0
    2.9794   -3.2917   -0.4525 H   0  0  0  0  0  0  0  0  0  0  0  0
    0.7172   -4.9884    0.7143 H   0  0  0  0  0  0  0  0  0  0  0  0
    1.5557   -2.7776    2.2125 H   0  0  0  0  0  0  0  0  0  0  0  0
    0.5189   -3.0290   -1.6651 H   0  0  0  0  0  0  0  0  0  0  0  0
    1.1987   -1.1679   -0.3725 H   0  0  0  0  0  0  0  0  0  0  0  0
   -1.6243   -4.7506   -0.3110 H   0  0  0  0  0  0  0  0  0  0  0  0
   -0.9228   -5.0594   -1.9177 H   0  0  0  0  0  0  0  0  0  0  0  0
    2.6375   -4.7844    1.9382 H   0  0  0  0  0  0  0  0  0  0  0  0
    0.8973   -6.0371   -1.2129 H   0  0  0  0  0  0  0  0  0  0  0  0
    2.6720   -0.7982    1.9583 H   0  0  0  0  0  0  0  0  0  0  0  0
   -2.2474   -2.6894   -1.0890 H   0  0  0  0  0  0  0  0  0  0  0  0
    1.1082    0.6744   -1.8778 H   0  0  0  0  0  0  0  0  0  0  0  0
    0.9274    2.9691    1.7206 H   0  0  0  0  0  0  0  0  0  0  0  0
   -3.4344    3.3757   -1.3259 H   0  0  0  0  0  0  0  0  0  0  0  0
   -6.5073    0.7430    0.1339 H   0  0  0  0  0  0  0  0  0  0  0  0
   -4.1442   -1.4323    1.6203 H   0  0  0  0  0  0  0  0  0  0  0  0
   -5.5967    3.6962   -1.6546 H   0  0  0  0  0  0  0  0  0  0  0  0
    5.0591    2.8413   -1.5763 H   0  0  0  0  0  0  0  0  0  0  0  0
    4.4393    4.2751    3.1910 H   0  0  0  0  0  0  0  0  0  0  0  0
    4.9129    2.8839    2.1911 H   0  0  0  0  0  0  0  0  0  0  0  0
    3.4255    2.8149    3.1920 H   0  0  0  0  0  0  0  0  0  0  0  0
    2.0170    0.9820   -3.8551 H   0  0  0  0  0  0  0  0  0  0  0  0
    2.7130   -0.4155   -2.9178 H   0  0  0  0  0  0  0  0  0  0  0  0
    3.6049    0.3297   -4.2378 H   0  0  0  0  0  0  0  0  0  0  0  0
  1 17  1  0  0  0  0
  1 18  1  0  0  0  0
  2 18  1  0  0  0  0
  2 20  1  0  0  0  0
  3 14  1  0  0  0  0
  3 44  1  0  0  0  0
  4 15  1  0  0  0  0
  4 45  1  0  0  0  0
  5 16  1  0  0  0  0
  5 46  1  0  0  0  0
  6 19  1  0  0  0  0
  6 47  1  0  0  0  0
  7 21  1  0  0  0  0
  7 25  1  0  0  0  0
  8 22  2  0  0  0  0
  9 26  1  0  0  0  0
  9 52  1  0  0  0  0
 10 32  1  0  0  0  0
 10 35  1  0  0  0  0
 11 33  1  0  0  0  0
 11 36  1  0  0  0  0
 12 31  1  0  0  0  0
 12 53  1  0  0  0  0
 13 34  1  0  0  0  0
 13 54  1  0  0  0  0
 14 15  1  0  0  0  0
 14 16  1  0  0  0  0
 14 37  1  0  0  0  0
 15 17  1  0  0  0  0
 15 38  1  0  0  0  0
 16 18  1  0  0  0  0
 16 39  1  0  0  0  0
 17 19  1  0  0  0  0
 17 40  1  0  0  0  0
 18 41  1  0  0  0  0
 19 42  1  0  0  0  0
 19 43  1  0  0  0  0
 20 21  2  0  0  0  0
 20 22  1  0  0  0  0
 21 24  1  0  0  0  0
 22 23  1  0  0  0  0
 23 25  1  0  0  0  0
 23 26  2  0  0  0  0
 24 27  2  0  0  0  0
 24 28  1  0  0  0  0
 25 29  2  0  0  0  0
 26 30  1  0  0  0  0
 27 33  1  0  0  0  0
 27 48  1  0  0  0  0
 28 32  2  0  0  0  0
 28 49  1  0  0  0  0
 29 31  1  0  0  0  0
 29 50  1  0  0  0  0
 30 31  2  0  0  0  0
 30 51  1  0  0  0  0
 32 34  1  0  0  0  0
 33 34  2  0  0  0  0
 35 55  1  0  0  0  0
 35 56  1  0  0  0  0
 35 57  1  0  0  0  0
 36 58  1  0  0  0  0
 36 59  1  0  0  0  0
 36 60  1  0  0  0  0
M  END
> <PUBCHEM_COMPOUND_CID>
5321577

> <PUBCHEM_CONFORMER_RMSD>
1

> <PUBCHEM_CONFORMER_DIVERSEORDER>
1
32
34
39
11
25
36
21
31
15
33
22
2
35
27
8
41
17
40
4
38
20
6
14
28
26
23
3
19
18
24
7
12
10
16
30
29
37
9
13
5

> <PUBCHEM_MMFF94_PARTIAL_CHARGES>
47
1 -0.56
10 -0.36
11 -0.36
12 -0.53
13 -0.53
14 0.28
15 0.28
16 0.28
17 0.28
18 0.56
19 0.28
2 -0.36
20 0.09
21 0.05
22 0.47
23 0.09
24 0.03
25 0.08
26 0.08
27 -0.15
28 -0.15
29 -0.15
3 -0.68
30 -0.15
31 0.08
32 0.08
33 0.08
34 0.08
35 0.28
36 0.28
4 -0.68
44 0.4
45 0.4
46 0.4
47 0.4
48 0.15
49 0.15
5 -0.68
50 0.15
51 0.15
52 0.45
53 0.45
54 0.45
6 -0.68
7 -0.16
8 -0.57
9 -0.53

> <PUBCHEM_EFFECTIVE_ROTOR_COUNT>
7.2

> <PUBCHEM_PHARMACOPHORE_FEATURES>
21
1 1 acceptor
1 10 acceptor
1 11 acceptor
1 12 donor
1 13 donor
1 2 acceptor
1 3 acceptor
1 3 donor
1 4 acceptor
1 4 donor
1 5 acceptor
1 5 donor
1 6 acceptor
1 6 donor
1 7 acceptor
1 8 acceptor
1 9 donor
6 1 14 15 16 17 18 rings
6 23 25 26 29 30 31 rings
6 24 27 28 32 33 34 rings
6 7 20 21 22 23 25 rings

> <PUBCHEM_HEAVY_ATOM_COUNT>
36

> <PUBCHEM_ATOM_DEF_STEREO_COUNT>
5

> <PUBCHEM_ATOM_UDEF_STEREO_COUNT>
0

> <PUBCHEM_BOND_DEF_STEREO_COUNT>
0

> <PUBCHEM_BOND_UDEF_STEREO_COUNT>
0

> <PUBCHEM_ISOTOPIC_ATOM_COUNT>
0

> <PUBCHEM_COMPONENT_COUNT>
1

> <PUBCHEM_CACTVS_TAUTO_COUNT>
57

> <PUBCHEM_CONFORMER_ID>
0051336900000001

> <PUBCHEM_MMFF94_ENERGY>
133.5118

> <PUBCHEM_FEATURE_SELFOVERLAP>
106.685

> <PUBCHEM_SHAPE_FINGERPRINT>
10190108 129 17832168360900847435
10190206 1 18051405464307934597
11115154 58 17476347311196595957
11297010 23 18262506010199466069
11488393 25 18263098638328669475
11582403 64 17486746822620547032
11763715 3 16987147220302822531
12160290 23 17689180192910345288
12422481 6 17822554067348526736
12788726 201 17398667295197113552
131258 43 17839759062523861798
13540713 4 17967821497241117537
14004853 49 18270677683943744523
140371 6 17978794506709911481
14659021 117 17546442744760561544
14955137 171 18267298729886914026
15082195 135 18267565954673586431
15420108 30 18193811925494235800
15927050 60 18340762758242186446
20600515 1 17465934961222580826
20642791 13 17407117033339842029
21033648 29 18269275827582294865
21304303 282 17910364493093887949
21857420 4 17472693629213253869
22393880 68 18341059587763968805
23559900 14 18189612735905372817
255183 313 17836941362002953027
3298306 158 18335996314757699566
38695281 34 18411417319191590592
4017518 198 18412548722054242318
44802255 64 17102048582155525694
46194498 28 18190169089274467285
5265222 85 18044677510172650108
6004065 56 18123453991791310255
6669772 16 18271536380939067548

> <PUBCHEM_SHAPE_MULTIPOLES>
664.56
9.35
7.24
2.09
10.92
8.49
-0.93
-9.83
-0.62
-6.79
-0.21
-2.35
-0.64
0.77

> <PUBCHEM_SHAPE_SELFOVERLAP>
1451.796

> <PUBCHEM_SHAPE_VOLUME>
357.4

> <PUBCHEM_COORDINATE_TYPE>
2
5
10

$$$$
