21477996
  -OEChem-11202013453D

 50 53  0     1  0  0  0  0  0999 V2000
    0.7053   -2.7485    1.1236 O   0  0  0  0  0  0  0  0  0  0  0  0
    0.7016   -1.0634   -0.5422 O   0  0  0  0  0  0  0  0  0  0  0  0
    3.1294   -2.5027   -1.4546 O   0  0  0  0  0  0  0  0  0  0  0  0
    3.2193   -1.5208    2.0584 O   0  0  0  0  0  0  0  0  0  0  0  0
    3.1147   -5.0686   -0.3796 O   0  0  0  0  0  0  0  0  0  0  0  0
   -1.7589    1.6300   -0.0142 O   0  0  0  0  0  0  0  0  0  0  0  0
   -1.7321   -2.4097   -0.5470 O   0  0  0  0  0  0  0  0  0  0  0  0
   -4.3398   -2.4575   -0.3606 O   0  0  0  0  0  0  0  0  0  0  0  0
   -6.4902    1.7140    0.3598 O   0  0  0  0  0  0  0  0  0  0  0  0
    2.2839    4.1270    2.0930 O   0  0  0  0  0  0  0  0  0  0  0  0
    3.4015    2.7387   -2.3523 O   0  0  0  0  0  0  0  0  0  0  0  0
    3.9662    4.2535   -0.1035 O   0  0  0  0  0  0  0  0  0  0  0  0
    3.3521   -2.6751   -0.0557 C   0  0  1  0  0  0  0  0  0  0  0  0
    2.7736   -1.4766    0.7040 C   0  0  1  0  0  0  0  0  0  0  0  0
    2.6747   -3.9681    0.4047 C   0  0  1  0  0  0  0  0  0  0  0  0
    1.2365   -1.4840    0.7098 C   0  0  2  0  0  0  0  0  0  0  0  0
    1.1581   -3.8444    0.3330 C   0  0  0  0  0  0  0  0  0  0  0  0
   -0.4944   -0.3974   -0.3840 C   0  0  0  0  0  0  0  0  0  0  0  0
   -0.5763    0.9342   -0.2089 C   0  0  0  0  0  0  0  0  0  0  0  0
   -1.7437   -1.1961   -0.3905 C   0  0  0  0  0  0  0  0  0  0  0  0
   -2.9966   -0.4500   -0.1971 C   0  0  0  0  0  0  0  0  0  0  0  0
   -2.9378    0.9302   -0.0179 C   0  0  0  0  0  0  0  0  0  0  0  0
    0.6134    1.8037   -0.1815 C   0  0  0  0  0  0  0  0  0  0  0  0
   -4.2276   -1.1107   -0.1903 C   0  0  0  0  0  0  0  0  0  0  0  0
   -4.1119    1.6601    0.1699 C   0  0  0  0  0  0  0  0  0  0  0  0
    1.4581    1.8651   -1.2896 C   0  0  0  0  0  0  0  0  0  0  0  0
    0.8945    2.5653    0.9529 C   0  0  0  0  0  0  0  0  0  0  0  0
   -5.4005   -0.3784   -0.0028 C   0  0  0  0  0  0  0  0  0  0  0  0
   -5.3430    1.0042    0.1770 C   0  0  0  0  0  0  0  0  0  0  0  0
    2.0204    3.3883    0.9790 C   0  0  0  0  0  0  0  0  0  0  0  0
    2.5841    2.6881   -1.2636 C   0  0  0  0  0  0  0  0  0  0  0  0
    2.8653    3.4496   -0.1292 C   0  0  0  0  0  0  0  0  0  0  0  0
    4.4344   -2.7612    0.0943 H   0  0  0  0  0  0  0  0  0  0  0  0
    3.1281   -0.5399    0.2583 H   0  0  0  0  0  0  0  0  0  0  0  0
    2.9684   -4.1610    1.4440 H   0  0  0  0  0  0  0  0  0  0  0  0
    0.9305   -0.7817    1.4985 H   0  0  0  0  0  0  0  0  0  0  0  0
    0.8071   -3.7384   -0.7005 H   0  0  0  0  0  0  0  0  0  0  0  0
    0.6893   -4.7555    0.7207 H   0  0  0  0  0  0  0  0  0  0  0  0
    3.5726   -1.6794   -1.7220 H   0  0  0  0  0  0  0  0  0  0  0  0
    4.1910   -1.4857    2.0477 H   0  0  0  0  0  0  0  0  0  0  0  0
    2.6667   -5.8648   -0.0464 H   0  0  0  0  0  0  0  0  0  0  0  0
   -4.0696    2.7372    0.3105 H   0  0  0  0  0  0  0  0  0  0  0  0
    1.2407    1.2790   -2.1801 H   0  0  0  0  0  0  0  0  0  0  0  0
    0.2392    2.5166    1.8200 H   0  0  0  0  0  0  0  0  0  0  0  0
   -6.3595   -0.8913    0.0026 H   0  0  0  0  0  0  0  0  0  0  0  0
   -3.4661   -2.8589   -0.4840 H   0  0  0  0  0  0  0  0  0  0  0  0
   -7.2465    1.1029    0.3364 H   0  0  0  0  0  0  0  0  0  0  0  0
    1.5937    3.9575    2.7569 H   0  0  0  0  0  0  0  0  0  0  0  0
    3.0522    2.1457   -3.0395 H   0  0  0  0  0  0  0  0  0  0  0  0
    3.9987    4.7020    0.7594 H   0  0  0  0  0  0  0  0  0  0  0  0
  1 16  1  0  0  0  0
  1 17  1  0  0  0  0
  2 16  1  0  0  0  0
  2 18  1  0  0  0  0
  3 13  1  0  0  0  0
  3 39  1  0  0  0  0
  4 14  1  0  0  0  0
  4 40  1  0  0  0  0
  5 15  1  0  0  0  0
  5 41  1  0  0  0  0
  6 19  1  0  0  0  0
  6 22  1  0  0  0  0
  7 20  2  0  0  0  0
  8 24  1  0  0  0  0
  8 46  1  0  0  0  0
  9 29  1  0  0  0  0
  9 47  1  0  0  0  0
 10 30  1  0  0  0  0
 10 48  1  0  0  0  0
 11 31  1  0  0  0  0
 11 49  1  0  0  0  0
 12 32  1  0  0  0  0
 12 50  1  0  0  0  0
 13 14  1  0  0  0  0
 13 15  1  0  0  0  0
 13 33  1  0  0  0  0
 14 16  1  0  0  0  0
 14 34  1  0  0  0  0
 15 17  1  0  0  0  0
 15 35  1  0  0  0  0
 16 36  1  0  0  0  0
 17 37  1  0  0  0  0
 17 38  1  0  0  0  0
 18 19  2  0  0  0  0
 18 20  1  0  0  0  0
 19 23  1  0  0  0  0
 20 21  1  0  0  0  0
 21 22  1  0  0  0  0
 21 24  2  0  0  0  0
 22 25  2  0  0  0  0
 23 26  2  0  0  0  0
 23 27  1  0  0  0  0
 24 28  1  0  0  0  0
 25 29  1  0  0  0  0
 25 42  1  0  0  0  0
 26 31  1  0  0  0  0
 26 43  1  0  0  0  0
 27 30  2  0  0  0  0
 27 44  1  0  0  0  0
 28 29  2  0  0  0  0
 28 45  1  0  0  0  0
 30 32  1  0  0  0  0
 31 32  2  0  0  0  0
M  END
> <PUBCHEM_COMPOUND_CID>
21477996

> <PUBCHEM_CONFORMER_RMSD>
0.8

> <PUBCHEM_CONFORMER_DIVERSEORDER>
3
61
108
35
87
49
47
98
86
73
74
96
72
37
104
20
4
66
70
79
27
62
75
64
68
107
91
85
78
101
28
103
76
45
67
32
44
84
105
65
22
14
90
99
81
88
77
25
40
63
83
80
93
30
7
71
94
69
18
29
26
53
36
52
97
55
17
9
59
15
38
39
48
13
33
8
11
50
19
2
54
31
34
16
41
12
46
100
51
43
21
58
102
42
57
60
82
56
5
24
92
10
89
106
6
95
1
23

> <PUBCHEM_MMFF94_PARTIAL_CHARGES>
44
1 -0.56
10 -0.53
11 -0.53
12 -0.53
13 0.28
14 0.28
15 0.28
16 0.56
17 0.28
18 0.09
19 0.05
2 -0.36
20 0.47
21 0.09
22 0.08
23 0.03
24 0.08
25 -0.15
26 -0.15
27 -0.15
28 -0.15
29 0.08
3 -0.68
30 0.08
31 0.08
32 0.08
39 0.4
4 -0.68
40 0.4
41 0.4
42 0.15
43 0.15
44 0.15
45 0.15
46 0.45
47 0.45
48 0.45
49 0.45
5 -0.68
50 0.45
6 -0.16
7 -0.57
8 -0.53
9 -0.53

> <PUBCHEM_EFFECTIVE_ROTOR_COUNT>
4.2

> <PUBCHEM_PHARMACOPHORE_FEATURES>
19
1 1 acceptor
1 10 donor
1 11 donor
1 12 donor
1 2 acceptor
1 3 acceptor
1 3 donor
1 4 acceptor
1 4 donor
1 5 acceptor
1 5 donor
1 6 acceptor
1 7 acceptor
1 8 donor
1 9 donor
6 1 13 14 15 16 17 rings
6 21 22 24 25 28 29 rings
6 23 26 27 30 31 32 rings
6 6 18 19 20 21 22 rings

> <PUBCHEM_HEAVY_ATOM_COUNT>
32

> <PUBCHEM_ATOM_DEF_STEREO_COUNT>
0

> <PUBCHEM_ATOM_UDEF_STEREO_COUNT>
4

> <PUBCHEM_BOND_DEF_STEREO_COUNT>
0

> <PUBCHEM_BOND_UDEF_STEREO_COUNT>
0

> <PUBCHEM_ISOTOPIC_ATOM_COUNT>
0

> <PUBCHEM_COMPONENT_COUNT>
1

> <PUBCHEM_CACTVS_TAUTO_COUNT>
195

> <PUBCHEM_CONFORMER_ID>
0147BA6C00000003

> <PUBCHEM_MMFF94_ENERGY>
100.7924

> <PUBCHEM_FEATURE_SELFOVERLAP>
96.524

> <PUBCHEM_SHAPE_FINGERPRINT>
10050765 1 18411419523686154495
10190108 129 17831604307124636299
1100329 8 18410857616671431339
11045515 52 17827926117873506820
11049842 53 18044668726605814228
11582403 64 16626564864243779696
12156800 1 16198487325056016264
12160290 23 16896767205169249582
12166972 35 18129093421595613883
12422481 6 17971441157585371600
12553582 1 18119800323036806559
12788726 201 17833566595381545246
13004483 165 17686895021364514483
131258 43 17986971660817487246
13140716 1 18410293606314508723
13383668 362 18411407432899965163
133893 2 17971721554134380766
13533116 47 18411134758606252503
13540713 5 18272928328922624463
13692114 37 18051402174025914410
138480 1 18338233748037628858
13878862 14 18190721099988903645
140371 6 18055077567041226255
14114211 68 18117868648679029477
14790565 3 18193558006574229264
14955137 171 18195253213492214283
15042514 8 17618221706820941039
15131766 46 15476131335565851906
15230672 131 18120094138383304956
15664445 248 18270410377900911862
15775530 1 17824795924381487373
15927050 60 18268433623044181839
17980427 26 18129083688356644420
1813 80 18117274757385185322
20028762 73 17189263124203133991
20567600 347 18120089743533709592
20600515 1 17838617751646262300
20642791 178 18261394507191063084
21033648 29 17414687910190553275
21120745 212 17764604118438825494
21796203 349 17761816933603630875
22393880 68 18271252741325648549
23366157 5 18259702306960850685
23559900 14 18340478977063210227
25147074 1 18272368690330875135
283562 15 17765431333545940815
3411729 13 18336826484813091641
350125 39 18408039628130114757
376196 1 17486214710131507420
4409770 3 17034998915231115445
5104073 3 18410020940590243809
5265222 85 17904496447589131964
5895379 119 17345210908429357617
6443956 14 18339077090762726360
79837 15 17760644067780753258
9981440 41 18120090847514320121

> <PUBCHEM_SHAPE_MULTIPOLES>
588.11
9.61
6.47
1.29
15.62
1.07
0.02
-0.99
-0.01
-10.48
0.59
-1.6
-0.8
-0.79

> <PUBCHEM_SHAPE_SELFOVERLAP>
1303.853

> <PUBCHEM_SHAPE_VOLUME>
310

> <PUBCHEM_COORDINATE_TYPE>
2
5
10

$$$$
