101601927
  -OEChem-11202014142D

103111  0     1  0  0  0  0  0999 V2000
   10.6287   -4.2974    0.0000 O   0  0  0  0  0  0  0  0  0  0  0  0
   11.7258   -2.5627    0.0000 O   0  0  0  0  0  0  0  0  0  0  0  0
   12.2776   -4.2390    0.0000 O   0  0  0  0  0  0  0  0  0  0  0  0
   10.0944    0.2722    0.0000 O   0  0  0  0  0  0  0  0  0  0  0  0
    7.5699   -1.4668    0.0000 O   0  0  0  0  0  0  0  0  0  0  0  0
    7.0843   -1.3642    0.0000 O   0  0  0  0  0  0  0  0  0  0  0  0
    8.2960    1.3546    0.0000 O   0  0  0  0  0  0  0  0  0  0  0  0
   13.5774   -2.0881    0.0000 O   0  0  0  0  0  0  0  0  0  0  0  0
    9.7500   -1.4412    0.0000 O   0  0  0  0  0  0  0  0  0  0  0  0
    9.2644   -5.9537    0.0000 O   0  0  0  0  0  0  0  0  0  0  0  0
   11.7335   -0.7403    0.0000 O   0  0  0  0  0  0  0  0  0  0  0  0
    4.6912    0.3887    0.0000 O   0  0  0  0  0  0  0  0  0  0  0  0
    7.1712   -5.5708    0.0000 O   0  0  0  0  0  0  0  0  0  0  0  0
    6.6394   -2.9659    0.0000 O   0  0  0  0  0  0  0  0  0  0  0  0
   12.3832   -5.2334    0.0000 O   0  0  0  0  0  0  0  0  0  0  0  0
    8.9032    2.8206    0.0000 O   0  0  0  0  0  0  0  0  0  0  0  0
   11.3595   -1.7470    0.0000 O   0  0  0  0  0  0  0  0  0  0  0  0
    3.4323    1.3546    0.0000 O   0  0  0  0  0  0  0  0  0  0  0  0
    5.1680    4.7004    0.0000 O   0  0  0  0  0  0  0  0  0  0  0  0
    5.7272    4.8503    0.0000 O   0  0  0  0  0  0  0  0  0  0  0  0
    8.5259    5.4653    0.0000 O   0  0  0  0  0  0  0  0  0  0  0  0
    6.5474    5.9955    0.0000 O   0  0  0  0  0  0  0  0  0  0  0  0
    2.4367    3.8337    0.0000 O   0  0  0  0  0  0  0  0  0  0  0  0
    3.8851    5.2821    0.0000 O   0  0  0  0  0  0  0  0  0  0  0  0
   11.0093    2.4161    0.0000 O   0  0  0  0  0  0  0  0  0  0  0  0
   13.8204    0.3918    0.0000 O   0  0  0  0  0  0  0  0  0  0  0  0
   12.9992    2.2154    0.0000 O   0  0  0  0  0  0  0  0  0  0  0  0
   11.0888   -3.3336    0.0000 C   0  0  2  0  0  0  0  0  0  0  0  0
   10.3157   -2.5968    0.0000 C   0  0  2  0  0  0  0  0  0  0  0  0
   12.1720   -3.2446    0.0000 C   0  0  2  0  0  0  0  0  0  0  0  0
    9.3718   -3.1100    0.0000 C   0  0  0  0  0  0  0  0  0  0  0  0
   10.8288   -1.6530    0.0000 C   0  0  0  0  0  0  0  0  0  0  0  0
    9.5697   -4.1594    0.0000 C   0  0  0  0  0  0  0  0  0  0  0  0
   12.5892   -2.2410    0.0000 C   0  0  0  0  0  0  0  0  0  0  0  0
   13.0860   -3.6504    0.0000 C   0  0  0  0  0  0  0  0  0  0  0  0
    7.3301   -0.3184    0.0000 C   0  0  1  0  0  0  0  0  0  0  0  0
    8.0372    0.3887    0.0000 C   0  0  1  0  0  0  0  0  0  0  0  0
    9.0830    0.6345    0.0000 C   0  0  2  0  0  0  0  0  0  0  0  0
   11.8882   -1.4104    0.0000 C   0  0  0  0  0  0  0  0  0  0  0  0
    8.3006   -3.0274    0.0000 C   0  0  0  0  0  0  0  0  0  0  0  0
    6.3642   -0.5772    0.0000 C   0  0  1  0  0  0  0  0  0  0  0  0
   10.7462   -0.5818    0.0000 C   0  0  0  0  0  0  0  0  0  0  0  0
    8.9385   -0.8568    0.0000 C   0  0  1  0  0  0  0  0  0  0  0  0
    8.9060   -5.0201    0.0000 C   0  0  0  0  0  0  0  0  0  0  0  0
    7.4466   -2.3756    0.0000 C   0  0  0  0  0  0  0  0  0  0  0  0
    7.5210   -3.7846    0.0000 C   0  0  0  0  0  0  0  0  0  0  0  0
   13.1916   -4.6448    0.0000 C   0  0  0  0  0  0  0  0  0  0  0  0
    7.8369   -4.8245    0.0000 C   0  0  0  0  0  0  0  0  0  0  0  0
    5.3982   -0.3184    0.0000 C   0  0  0  0  0  0  0  0  0  0  0  0
   14.1056   -5.0505    0.0000 C   0  0  0  0  0  0  0  0  0  0  0  0
    8.0372    2.3206    0.0000 C   0  0  0  0  0  0  0  0  0  0  0  0
   10.6618   -1.0306    0.0000 C   0  0  0  0  0  0  0  0  0  0  0  0
    7.3301    3.0277    0.0000 C   0  0  0  0  0  0  0  0  0  0  0  0
    4.4323    1.3546    0.0000 C   0  0  0  0  0  0  0  0  0  0  0  0
    6.3642    3.2865    0.0000 C   0  0  0  0  0  0  0  0  0  0  0  0
    4.6912    2.3206    0.0000 C   0  0  0  0  0  0  0  0  0  0  0  0
    5.3982    3.0277    0.0000 C   0  0  0  0  0  0  0  0  0  0  0  0
   11.2461   -0.2191    0.0000 C   0  0  0  0  0  0  0  0  0  0  0  0
    8.0779    3.7528    0.0000 C   0  0  0  0  0  0  0  0  0  0  0  0
    6.0791    4.2883    0.0000 C   0  0  0  0  0  0  0  0  0  0  0  0
    3.6810    2.5746    0.0000 C   0  0  0  0  0  0  0  0  0  0  0  0
    5.1442    4.0378    0.0000 C   0  0  0  0  0  0  0  0  0  0  0  0
    7.8161    4.7609    0.0000 C   0  0  0  0  0  0  0  0  0  0  0  0
    6.8100    5.0305    0.0000 C   0  0  0  0  0  0  0  0  0  0  0  0
   12.2411   -0.3194    0.0000 C   0  0  0  0  0  0  0  0  0  0  0  0
   10.8355    0.6928    0.0000 C   0  0  0  0  0  0  0  0  0  0  0  0
    3.4036    3.5786    0.0000 C   0  0  0  0  0  0  0  0  0  0  0  0
    4.1402    4.3152    0.0000 C   0  0  0  0  0  0  0  0  0  0  0  0
   11.4199    1.5042    0.0000 C   0  0  0  0  0  0  0  0  0  0  0  0
   12.8254    0.4921    0.0000 C   0  0  0  0  0  0  0  0  0  0  0  0
   12.4148    1.4040    0.0000 C   0  0  0  0  0  0  0  0  0  0  0  0
    9.9097   -3.3436    0.0000 H   0  0  0  0  0  0  0  0  0  0  0  0
   13.7045   -3.6930    0.0000 H   0  0  0  0  0  0  0  0  0  0  0  0
   13.2353   -3.0486    0.0000 H   0  0  0  0  0  0  0  0  0  0  0  0
    6.7291   -0.9194    0.0000 H   0  0  0  0  0  0  0  0  0  0  0  0
    8.6382    0.9897    0.0000 H   0  0  0  0  0  0  0  0  0  0  0  0
    9.6424    1.2746    0.0000 H   0  0  0  0  0  0  0  0  0  0  0  0
   12.0846   -0.8224    0.0000 H   0  0  0  0  0  0  0  0  0  0  0  0
    5.9954   -1.3431    0.0000 H   0  0  0  0  0  0  0  0  0  0  0  0
   12.3372   -2.6658    0.0000 H   0  0  0  0  0  0  0  0  0  0  0  0
    9.5038   -0.6022    0.0000 H   0  0  0  0  0  0  0  0  0  0  0  0
   11.7764   -4.6040    0.0000 H   0  0  0  0  0  0  0  0  0  0  0  0
    6.9207   -3.6297    0.0000 H   0  0  0  0  0  0  0  0  0  0  0  0
    4.8363   -0.5804    0.0000 H   0  0  0  0  0  0  0  0  0  0  0  0
    5.7082    0.2185    0.0000 H   0  0  0  0  0  0  0  0  0  0  0  0
   13.8540   -5.6172    0.0000 H   0  0  0  0  0  0  0  0  0  0  0  0
   14.6722   -5.3021    0.0000 H   0  0  0  0  0  0  0  0  0  0  0  0
   14.3571   -4.4839    0.0000 H   0  0  0  0  0  0  0  0  0  0  0  0
    8.8742   -6.4356    0.0000 H   0  0  0  0  0  0  0  0  0  0  0  0
    6.5642   -5.4447    0.0000 H   0  0  0  0  0  0  0  0  0  0  0  0
    8.6749    3.5854    0.0000 H   0  0  0  0  0  0  0  0  0  0  0  0
    3.2477    2.1312    0.0000 H   0  0  0  0  0  0  0  0  0  0  0  0
   12.4957   -0.8847    0.0000 H   0  0  0  0  0  0  0  0  0  0  0  0
   10.2187    0.7549    0.0000 H   0  0  0  0  0  0  0  0  0  0  0  0
    4.8995    5.2593    0.0000 H   0  0  0  0  0  0  0  0  0  0  0  0
    5.6803    5.4685    0.0000 H   0  0  0  0  0  0  0  0  0  0  0  0
    9.1242    5.3025    0.0000 H   0  0  0  0  0  0  0  0  0  0  0  0
    6.9841    6.4356    0.0000 H   0  0  0  0  0  0  0  0  0  0  0  0
    2.0000    3.3936    0.0000 H   0  0  0  0  0  0  0  0  0  0  0  0
    3.2868    5.4449    0.0000 H   0  0  0  0  0  0  0  0  0  0  0  0
   11.3716    2.9192    0.0000 H   0  0  0  0  0  0  0  0  0  0  0  0
   14.1827    0.8950    0.0000 H   0  0  0  0  0  0  0  0  0  0  0  0
   13.6161    2.1533    0.0000 H   0  0  0  0  0  0  0  0  0  0  0  0
  1 28  1  0  0  0  0
  1 33  1  0  0  0  0
 28  2  1  1  0  0  0
  2 80  1  0  0  0  0
 30  3  1  6  0  0  0
  3 82  1  0  0  0  0
  4 38  1  0  0  0  0
  4 42  1  0  0  0  0
  5 41  1  0  0  0  0
  5 43  1  0  0  0  0
  6 36  1  0  0  0  0
  6 45  1  0  0  0  0
  7 37  1  0  0  0  0
  7 51  1  0  0  0  0
  8 34  2  0  0  0  0
 43  9  1  6  0  0  0
  9 52  1  0  0  0  0
 10 44  1  0  0  0  0
 10 89  1  0  0  0  0
 11 42  2  0  0  0  0
 12 49  1  0  0  0  0
 12 54  1  0  0  0  0
 13 48  1  0  0  0  0
 13 90  1  0  0  0  0
 14 45  2  0  0  0  0
 15 47  2  0  0  0  0
 16 51  2  0  0  0  0
 17 52  2  0  0  0  0
 18 54  2  0  0  0  0
 19 60  1  0  0  0  0
 19 95  1  0  0  0  0
 20 62  1  0  0  0  0
 20 96  1  0  0  0  0
 21 63  1  0  0  0  0
 21 97  1  0  0  0  0
 22 64  1  0  0  0  0
 22 98  1  0  0  0  0
 23 67  1  0  0  0  0
 23 99  1  0  0  0  0
 24 68  1  0  0  0  0
 24100  1  0  0  0  0
 25 69  1  0  0  0  0
 25101  1  0  0  0  0
 26 70  1  0  0  0  0
 26102  1  0  0  0  0
 27 71  1  0  0  0  0
 27103  1  0  0  0  0
 28 29  1  0  0  0  0
 28 30  1  0  0  0  0
 29 31  1  0  0  0  0
 29 32  1  0  0  0  0
 29 72  1  1  0  0  0
 30 34  1  0  0  0  0
 30 35  1  0  0  0  0
 31 33  2  0  0  0  0
 31 40  1  0  0  0  0
 32 39  2  0  0  0  0
 32 42  1  0  0  0  0
 33 44  1  0  0  0  0
 34 39  1  0  0  0  0
 35 47  1  0  0  0  0
 35 73  1  0  0  0  0
 35 74  1  0  0  0  0
 36 37  1  0  0  0  0
 36 41  1  0  0  0  0
 36 75  1  1  0  0  0
 37 38  1  0  0  0  0
 37 76  1  1  0  0  0
 38 43  1  0  0  0  0
 38 77  1  6  0  0  0
 39 78  1  0  0  0  0
 40 45  1  0  0  0  0
 40 46  2  0  0  0  0
 41 49  1  0  0  0  0
 41 79  1  1  0  0  0
 43 81  1  0  0  0  0
 44 48  2  0  0  0  0
 46 48  1  0  0  0  0
 46 83  1  0  0  0  0
 47 50  1  0  0  0  0
 49 84  1  0  0  0  0
 49 85  1  0  0  0  0
 50 86  1  0  0  0  0
 50 87  1  0  0  0  0
 50 88  1  0  0  0  0
 51 53  1  0  0  0  0
 52 58  1  0  0  0  0
 53 55  1  0  0  0  0
 53 59  2  0  0  0  0
 54 56  1  0  0  0  0
 55 57  1  0  0  0  0
 55 60  2  0  0  0  0
 56 57  1  0  0  0  0
 56 61  2  0  0  0  0
 57 62  2  0  0  0  0
 58 65  2  0  0  0  0
 58 66  1  0  0  0  0
 59 63  1  0  0  0  0
 59 91  1  0  0  0  0
 60 64  1  0  0  0  0
 61 67  1  0  0  0  0
 61 92  1  0  0  0  0
 62 68  1  0  0  0  0
 63 64  2  0  0  0  0
 65 70  1  0  0  0  0
 65 93  1  0  0  0  0
 66 69  2  0  0  0  0
 66 94  1  0  0  0  0
 67 68  2  0  0  0  0
 69 71  1  0  0  0  0
 70 71  2  0  0  0  0
M  END
> <PUBCHEM_COMPOUND_CID>
101601927

> <PUBCHEM_COMPOUND_CANONICALIZED>
1

> <PUBCHEM_CACTVS_COMPLEXITY>
2210

> <PUBCHEM_CACTVS_HBOND_ACCEPTOR>
27

> <PUBCHEM_CACTVS_HBOND_DONOR>
13

> <PUBCHEM_CACTVS_ROTATABLE_BOND>
5

> <PUBCHEM_CACTVS_SUBSKEYS>
AAADcfB8PgAAAAAAAAAAAAAAAAAAASAAAAA0YMGCAAAAAEgBVAAAGgAACAAADVSwmAMyDoAABgCIAqDSCAICCAAkIAAAiAFGiMgdJzaGNRqieSOl4BUPuYfL7PzOoAABCAAYQABAAAIQADCAAAAAAAAAAA==

> <PUBCHEM_IUPAC_OPENEYE_NAME>
[(8R,9S,27R,29S,30R,36S,37R,38R)-36-acetonyl-2,3,14,15,16,19,20,21,36,37-decahydroxy-6,11,24,32,35-pentaoxo-7,10,25,28,31,40-hexaoxaoctacyclo[35.2.1.05,39.08,27.09,30.012,17.018,23.033,38]tetraconta-1(39),2,4,12,14,16,18,20,22,33-decaen-29-yl] 3,4,5-trihydroxybenzoate

> <PUBCHEM_IUPAC_CAS_NAME>
3,4,5-trihydroxybenzoic acid [(8R,9S,27R,29S,30R,36S,37R,38R)-2,3,14,15,16,19,20,21,36,37-decahydroxy-6,11,24,32,35-pentaoxo-36-(2-oxopropyl)-7,10,25,28,31,40-hexaoxaoctacyclo[35.2.1.05,39.08,27.09,30.012,17.018,23.033,38]tetraconta-1(39),2,4,12,14,16,18,20,22,33-decaen-29-yl] ester

> <PUBCHEM_IUPAC_NAME_MARKUP>
[(8<I>R</I>,9<I>S</I>,27<I>R</I>,29<I>S</I>,30<I>R</I>,36<I>S</I>,37<I>R</I>,38<I>R</I>)-2,3,14,15,16,19,20,21,36,37-decahydroxy-6,11,24,32,35-pentaoxo-36-(2-oxopropyl)-7,10,25,28,31,40-hexaoxaoctacyclo[35.2.1.0<SUP>5,39</SUP>.0<SUP>8,27</SUP>.0<SUP>9,30</SUP>.0<SUP>12,17</SUP>.0<SUP>18,23</SUP>.0<SUP>33,38</SUP>]tetraconta-1(39),2,4,12,14,16,18,20,22,33-decaen-29-yl] 3,4,5-trihydroxybenzoate

> <PUBCHEM_IUPAC_NAME>
[(8R,9S,27R,29S,30R,36S,37R,38R)-2,3,14,15,16,19,20,21,36,37-decahydroxy-6,11,24,32,35-pentaoxo-36-(2-oxopropyl)-7,10,25,28,31,40-hexaoxaoctacyclo[35.2.1.05,39.08,27.09,30.012,17.018,23.033,38]tetraconta-1(39),2,4,12,14,16,18,20,22,33-decaen-29-yl] 3,4,5-trihydroxybenzoate

> <PUBCHEM_IUPAC_SYSTEMATIC_NAME>
[(8R,9S,27R,29S,30R,36S,37R,38R)-2,3,14,15,16,19,20,21,36,37-decakis(oxidanyl)-6,11,24,32,35-pentakis(oxidanylidene)-36-(2-oxidanylidenepropyl)-7,10,25,28,31,40-hexaoxaoctacyclo[35.2.1.05,39.08,27.09,30.012,17.018,23.033,38]tetraconta-1(39),2,4,12,14,16,18,20,22,33-decaen-29-yl] 3,4,5-tris(oxidanyl)benzoate

> <PUBCHEM_IUPAC_TRADITIONAL_NAME>
3,4,5-trihydroxybenzoic acid [(8R,9S,27R,29S,30R,36S,37R,38R)-36-acetonyl-2,3,14,15,16,19,20,21,36,37-decahydroxy-6,11,24,32,35-pentaketo-7,10,25,28,31,40-hexaoxaoctacyclo[35.2.1.05,39.08,27.09,30.012,17.018,23.033,38]tetraconta-1(39),2,4,12,14,16,18,20,22,33-decaen-29-yl] ester

> <PUBCHEM_IUPAC_INCHI>
InChI=1S/C44H32O27/c1-10(45)8-43(63)22(51)7-15-26-25-14(6-20(50)30(55)34(25)71-44(26,43)64)40(61)67-33-21-9-65-38(59)12-4-18(48)28(53)31(56)23(12)24-13(5-19(49)29(54)32(24)57)39(60)68-35(33)36(69-41(15)62)42(66-21)70-37(58)11-2-16(46)27(52)17(47)3-11/h2-7,21,26,33,35-36,42,46-50,52-57,63-64H,8-9H2,1H3/t21-,26+,33-,35+,36-,42+,43+,44-/m1/s1

> <PUBCHEM_IUPAC_INCHIKEY>
DVBQHEGQMJLCBQ-OZMZSAIPSA-N

> <PUBCHEM_XLOGP3_AA>
0.2

> <PUBCHEM_EXACT_MASS>
992.113096

> <PUBCHEM_MOLECULAR_FORMULA>
C44H32O27

> <PUBCHEM_MOLECULAR_WEIGHT>
992.7

> <PUBCHEM_OPENEYE_CAN_SMILES>
CC(=O)CC1(C(=O)C=C2C3C1(OC4=C3C(=CC(=C4O)O)C(=O)OC5C6COC(=O)C7=CC(=C(C(=C7C8=C(C(=C(C=C8C(=O)OC5C(C(O6)OC(=O)C9=CC(=C(C(=C9)O)O)O)OC2=O)O)O)O)O)O)O)O)O

> <PUBCHEM_OPENEYE_ISO_SMILES>
CC(=O)C[C@@]1(C(=O)C=C2[C@@H]3[C@]1(OC4=C3C(=CC(=C4O)O)C(=O)O[C@@H]5[C@H]6COC(=O)C7=CC(=C(C(=C7C8=C(C(=C(C=C8C(=O)O[C@@H]5[C@H]([C@@H](O6)OC(=O)C9=CC(=C(C(=C9)O)O)O)OC2=O)O)O)O)O)O)O)O)O

> <PUBCHEM_CACTVS_TPSA>
447

> <PUBCHEM_MONOISOTOPIC_WEIGHT>
992.113096

> <PUBCHEM_TOTAL_CHARGE>
0

> <PUBCHEM_HEAVY_ATOM_COUNT>
71

> <PUBCHEM_ATOM_DEF_STEREO_COUNT>
8

> <PUBCHEM_ATOM_UDEF_STEREO_COUNT>
0

> <PUBCHEM_BOND_DEF_STEREO_COUNT>
0

> <PUBCHEM_BOND_UDEF_STEREO_COUNT>
0

> <PUBCHEM_ISOTOPIC_ATOM_COUNT>
0

> <PUBCHEM_COMPONENT_COUNT>
1

> <PUBCHEM_CACTVS_TAUTO_COUNT>
-1

> <PUBCHEM_COORDINATE_TYPE>
1
5
255

> <PUBCHEM_BONDANNOTATIONS>
28  2  5
29  72  5
30  3  6
31  33  8
31  40  8
33  44  8
36  75  5
37  76  5
38  77  6
40  46  8
41  79  5
44  48  8
46  48  8
53  55  8
53  59  8
55  60  8
56  57  8
56  61  8
57  62  8
58  65  8
58  66  8
59  63  8
60  64  8
61  67  8
62  68  8
63  64  8
65  70  8
66  69  8
67  68  8
69  71  8
70  71  8
43  9  6

$$$$
