14367662
  -OEChem-08272003073D

 84 83  0     1  0  0  0  0  0999 V2000
    0.0958   -0.5603   -3.3461 Si  0  0  0  0  0  0  0  0  0  0  0  0
   -0.7962   -3.3587    0.7445 Si  0  0  0  0  0  0  0  0  0  0  0  0
   -0.0164    3.4502    0.0426 Si  0  0  0  0  0  0  0  0  0  0  0  0
   -5.1795    0.3959    1.0645 Si  0  0  0  0  0  0  0  0  0  0  0  0
    5.4576   -0.2114    1.0598 Si  0  0  0  0  0  0  0  0  0  0  0  0
   -0.8771   -0.2673   -2.0136 O   0  0  0  0  0  0  0  0  0  0  0  0
   -1.7926   -2.1714    0.1112 O   0  0  0  0  0  0  0  0  0  0  0  0
   -0.4248    1.8278    0.1559 O   0  0  0  0  0  0  0  0  0  0  0  0
   -3.6811   -0.3546    1.0475 O   0  0  0  0  0  0  0  0  0  0  0  0
    3.8387    0.1471    1.3373 O   0  0  0  0  0  0  0  0  0  0  0  0
    1.2985    0.6816    1.9399 O   0  0  0  0  0  0  0  0  0  0  0  0
   -0.3340   -0.4059   -0.7039 C   0  0  2  0  0  0  0  0  0  0  0  0
   -1.4464   -0.7979    0.2864 C   0  0  1  0  0  0  0  0  0  0  0  0
    0.4795    0.8408   -0.3244 C   0  0  2  0  0  0  0  0  0  0  0  0
   -2.7108    0.0368    0.0813 C   0  0  0  0  0  0  0  0  0  0  0  0
    1.5578    0.6274    0.7368 C   0  0  0  0  0  0  0  0  0  0  0  0
    1.5696    0.6079   -3.3846 C   0  0  0  0  0  0  0  0  0  0  0  0
    0.7342   -2.3297   -3.3492 C   0  0  0  0  0  0  0  0  0  0  0  0
   -0.8968   -0.2970   -4.9259 C   0  0  0  0  0  0  0  0  0  0  0  0
    2.9572    0.3114    0.2446 C   0  0  0  0  0  0  0  0  0  0  0  0
   -0.1757   -2.8234    2.4413 C   0  0  0  0  0  0  0  0  0  0  0  0
    0.7012   -3.6528   -0.3553 C   0  0  0  0  0  0  0  0  0  0  0  0
   -1.7173   -4.9858    0.9497 C   0  0  0  0  0  0  0  0  0  0  0  0
    1.5545    3.8260    1.0065 C   0  0  0  0  0  0  0  0  0  0  0  0
    0.2427    3.9643   -1.7483 C   0  0  0  0  0  0  0  0  0  0  0  0
   -1.4037    4.5068    0.7563 C   0  0  0  0  0  0  0  0  0  0  0  0
   -5.0129    2.2441    1.3721 C   0  0  0  0  0  0  0  0  0  0  0  0
   -6.0897    0.1392   -0.5617 C   0  0  0  0  0  0  0  0  0  0  0  0
   -6.2372   -0.3305    2.4442 C   0  0  0  0  0  0  0  0  0  0  0  0
    6.3726   -0.3693    2.6993 C   0  0  0  0  0  0  0  0  0  0  0  0
    6.2901    1.1462    0.0584 C   0  0  0  0  0  0  0  0  0  0  0  0
    5.6418   -1.8376    0.1328 C   0  0  0  0  0  0  0  0  0  0  0  0
    0.3953   -1.2053   -0.7379 H   0  0  0  0  0  0  0  0  0  0  0  0
   -1.1184   -0.6336    1.3200 H   0  0  0  0  0  0  0  0  0  0  0  0
    0.9889    1.2604   -1.1830 H   0  0  0  0  0  0  0  0  0  0  0  0
   -2.5349    1.1081    0.1729 H   0  0  0  0  0  0  0  0  0  0  0  0
   -3.1238   -0.1654   -0.9155 H   0  0  0  0  0  0  0  0  0  0  0  0
    2.2973    0.3818   -2.6031 H   0  0  0  0  0  0  0  0  0  0  0  0
    2.0913    0.4886   -4.3405 H   0  0  0  0  0  0  0  0  0  0  0  0
    1.2535    1.6502   -3.3235 H   0  0  0  0  0  0  0  0  0  0  0  0
    1.5261   -2.4606   -2.6116 H   0  0  0  0  0  0  0  0  0  0  0  0
   -0.0870   -3.0292   -3.1823 H   0  0  0  0  0  0  0  0  0  0  0  0
    1.1677   -2.5595   -4.3281 H   0  0  0  0  0  0  0  0  0  0  0  0
   -1.2684    0.7306   -4.9765 H   0  0  0  0  0  0  0  0  0  0  0  0
   -0.2755   -0.4840   -5.8066 H   0  0  0  0  0  0  0  0  0  0  0  0
   -1.7538   -0.9760   -4.9564 H   0  0  0  0  0  0  0  0  0  0  0  0
    3.2851    1.1442   -0.3877 H   0  0  0  0  0  0  0  0  0  0  0  0
    2.9002   -0.6123   -0.3425 H   0  0  0  0  0  0  0  0  0  0  0  0
   -1.0109   -2.5250    3.0815 H   0  0  0  0  0  0  0  0  0  0  0  0
    0.3503   -3.6501    2.9284 H   0  0  0  0  0  0  0  0  0  0  0  0
    0.5211   -1.9851    2.3595 H   0  0  0  0  0  0  0  0  0  0  0  0
    0.3803   -3.9553   -1.3489 H   0  0  0  0  0  0  0  0  0  0  0  0
    1.4156   -2.8312   -0.3834 H   0  0  0  0  0  0  0  0  0  0  0  0
    1.2543   -4.5063    0.0549 H   0  0  0  0  0  0  0  0  0  0  0  0
   -2.0792   -5.3457   -0.0179 H   0  0  0  0  0  0  0  0  0  0  0  0
   -1.0615   -5.7493    1.3782 H   0  0  0  0  0  0  0  0  0  0  0  0
   -2.5776   -4.8582    1.6132 H   0  0  0  0  0  0  0  0  0  0  0  0
    2.4245    3.3462    0.5508 H   0  0  0  0  0  0  0  0  0  0  0  0
    1.7382    4.9048    1.0194 H   0  0  0  0  0  0  0  0  0  0  0  0
    1.4666    3.4863    2.0423 H   0  0  0  0  0  0  0  0  0  0  0  0
    1.2028    3.5976   -2.1198 H   0  0  0  0  0  0  0  0  0  0  0  0
   -0.5554    3.5695   -2.3836 H   0  0  0  0  0  0  0  0  0  0  0  0
    0.2447    5.0550   -1.8353 H   0  0  0  0  0  0  0  0  0  0  0  0
   -1.5835    4.2453    1.8032 H   0  0  0  0  0  0  0  0  0  0  0  0
   -1.1456    5.5684    0.7039 H   0  0  0  0  0  0  0  0  0  0  0  0
   -2.3303    4.3480    0.1973 H   0  0  0  0  0  0  0  0  0  0  0  0
   -4.4730    2.7257    0.5518 H   0  0  0  0  0  0  0  0  0  0  0  0
   -5.9990    2.7108    1.4529 H   0  0  0  0  0  0  0  0  0  0  0  0
   -4.4660    2.4311    2.3008 H   0  0  0  0  0  0  0  0  0  0  0  0
   -5.5430    0.6019   -1.3885 H   0  0  0  0  0  0  0  0  0  0  0  0
   -6.1991   -0.9280   -0.7753 H   0  0  0  0  0  0  0  0  0  0  0  0
   -7.0873    0.5860   -0.5183 H   0  0  0  0  0  0  0  0  0  0  0  0
   -5.7552   -0.1809    3.4149 H   0  0  0  0  0  0  0  0  0  0  0  0
   -7.2200    0.1490    2.4687 H   0  0  0  0  0  0  0  0  0  0  0  0
   -6.3800   -1.4043    2.2916 H   0  0  0  0  0  0  0  0  0  0  0  0
    5.9350   -1.1673    3.3063 H   0  0  0  0  0  0  0  0  0  0  0  0
    7.4278   -0.6028    2.5301 H   0  0  0  0  0  0  0  0  0  0  0  0
    6.3115    0.5662    3.2630 H   0  0  0  0  0  0  0  0  0  0  0  0
    5.8311    1.2342   -0.9307 H   0  0  0  0  0  0  0  0  0  0  0  0
    6.1976    2.1098    0.5679 H   0  0  0  0  0  0  0  0  0  0  0  0
    7.3537    0.9279   -0.0756 H   0  0  0  0  0  0  0  0  0  0  0  0
    5.1763   -1.7747   -0.8551 H   0  0  0  0  0  0  0  0  0  0  0  0
    6.6986   -2.0863   -0.0015 H   0  0  0  0  0  0  0  0  0  0  0  0
    5.1641   -2.6509    0.6869 H   0  0  0  0  0  0  0  0  0  0  0  0
  1  6  1  0  0  0  0
  1 17  1  0  0  0  0
  1 18  1  0  0  0  0
  1 19  1  0  0  0  0
  2  7  1  0  0  0  0
  2 21  1  0  0  0  0
  2 22  1  0  0  0  0
  2 23  1  0  0  0  0
  3  8  1  0  0  0  0
  3 24  1  0  0  0  0
  3 25  1  0  0  0  0
  3 26  1  0  0  0  0
  4  9  1  0  0  0  0
  4 27  1  0  0  0  0
  4 28  1  0  0  0  0
  4 29  1  0  0  0  0
  5 10  1  0  0  0  0
  5 30  1  0  0  0  0
  5 31  1  0  0  0  0
  5 32  1  0  0  0  0
  6 12  1  0  0  0  0
  7 13  1  0  0  0  0
  8 14  1  0  0  0  0
  9 15  1  0  0  0  0
 10 20  1  0  0  0  0
 11 16  2  0  0  0  0
 12 13  1  0  0  0  0
 12 14  1  0  0  0  0
 12 33  1  0  0  0  0
 13 15  1  0  0  0  0
 13 34  1  0  0  0  0
 14 16  1  0  0  0  0
 14 35  1  0  0  0  0
 15 36  1  0  0  0  0
 15 37  1  0  0  0  0
 16 20  1  0  0  0  0
 17 38  1  0  0  0  0
 17 39  1  0  0  0  0
 17 40  1  0  0  0  0
 18 41  1  0  0  0  0
 18 42  1  0  0  0  0
 18 43  1  0  0  0  0
 19 44  1  0  0  0  0
 19 45  1  0  0  0  0
 19 46  1  0  0  0  0
 20 47  1  0  0  0  0
 20 48  1  0  0  0  0
 21 49  1  0  0  0  0
 21 50  1  0  0  0  0
 21 51  1  0  0  0  0
 22 52  1  0  0  0  0
 22 53  1  0  0  0  0
 22 54  1  0  0  0  0
 23 55  1  0  0  0  0
 23 56  1  0  0  0  0
 23 57  1  0  0  0  0
 24 58  1  0  0  0  0
 24 59  1  0  0  0  0
 24 60  1  0  0  0  0
 25 61  1  0  0  0  0
 25 62  1  0  0  0  0
 25 63  1  0  0  0  0
 26 64  1  0  0  0  0
 26 65  1  0  0  0  0
 26 66  1  0  0  0  0
 27 67  1  0  0  0  0
 27 68  1  0  0  0  0
 27 69  1  0  0  0  0
 28 70  1  0  0  0  0
 28 71  1  0  0  0  0
 28 72  1  0  0  0  0
 29 73  1  0  0  0  0
 29 74  1  0  0  0  0
 29 75  1  0  0  0  0
 30 76  1  0  0  0  0
 30 77  1  0  0  0  0
 30 78  1  0  0  0  0
 31 79  1  0  0  0  0
 31 80  1  0  0  0  0
 31 81  1  0  0  0  0
 32 82  1  0  0  0  0
 32 83  1  0  0  0  0
 32 84  1  0  0  0  0
M  END
> <PUBCHEM_COMPOUND_CID>
14367662

> <PUBCHEM_CONFORMER_RMSD>
1.2

> <PUBCHEM_CONFORMER_DIVERSEORDER>
1
2
3

> <PUBCHEM_MMFF94_PARTIAL_CHARGES>
32
1 0.54
10 -0.58
11 -0.57
12 0.28
13 0.28
14 0.34
15 0.28
16 0.45
17 -0.08
18 -0.08
19 -0.08
2 0.54
20 0.34
21 -0.08
22 -0.08
23 -0.08
24 -0.08
25 -0.08
26 -0.08
27 -0.08
28 -0.08
29 -0.08
3 0.54
30 -0.08
31 -0.08
32 -0.08
4 0.54
5 0.54
6 -0.58
7 -0.58
8 -0.58
9 -0.58

> <PUBCHEM_EFFECTIVE_ROTOR_COUNT>
15

> <PUBCHEM_PHARMACOPHORE_FEATURES>
1
1 11 acceptor

> <PUBCHEM_HEAVY_ATOM_COUNT>
32

> <PUBCHEM_ATOM_DEF_STEREO_COUNT>
3

> <PUBCHEM_ATOM_UDEF_STEREO_COUNT>
0

> <PUBCHEM_BOND_DEF_STEREO_COUNT>
0

> <PUBCHEM_BOND_UDEF_STEREO_COUNT>
0

> <PUBCHEM_ISOTOPIC_ATOM_COUNT>
0

> <PUBCHEM_COMPONENT_COUNT>
1

> <PUBCHEM_CACTVS_TAUTO_COUNT>
3

> <PUBCHEM_CONFORMER_ID>
00DB3BAE00000001

> <PUBCHEM_MMFF94_ENERGY>
52.6942

> <PUBCHEM_FEATURE_SELFOVERLAP>
5.074

> <PUBCHEM_SHAPE_FINGERPRINT>
107951 10 18053383202538010510
1100329 8 18336827614484183137
11445158 3 17968094261058801212
11578080 2 17246105220783469191
12058002 1 17628955371243434497
12156800 1 18048059388184187428
12160290 23 15321750956128603935
12422481 6 17988363672001810804
12788726 201 18335140869706702456
14466204 15 18408889503853657321
14955137 171 18114191851530119283
15219462 58 17758953727651201527
15361156 5 18130779101970700464
15775530 1 17270059193938974572
15815584 197 18269571467924649683
15849732 13 17530686528169772051
16114785 44 18125690497052849184
17974551 9 18121781891712540688
17980427 23 17988924530680445533
20600515 1 18339093643519647533
23419403 2 17413324467984437516
23598288 3 17483400003387095452
255183 313 17417231179022076356
3178227 256 18261406567754584809
3380486 77 18335719246650062873
57527573 199 18338812134209007235

> <PUBCHEM_SHAPE_MULTIPOLES>
714.39
11.58
5.46
3.84
3.81
0.31
-5.85
0.67
10.81
-1.6
1.49
0.4
-1.13
-0.06

> <PUBCHEM_SHAPE_SELFOVERLAP>
1276.27

> <PUBCHEM_SHAPE_VOLUME>
464.6

> <PUBCHEM_COORDINATE_TYPE>
2
5
10

$$$$
