545955
  -OEChem-08272003323D

 41 40  0     1  0  0  0  0  0999 V2000
   -0.4786   -0.9506    0.3551 C   0  0  1  0  0  0  0  0  0  0  0  0
    0.7875   -0.9578   -0.5379 C   0  0  0  0  0  0  0  0  0  0  0  0
    2.0959   -0.4701    0.1333 C   0  0  2  0  0  0  0  0  0  0  0  0
   -0.7132    0.4403    0.9935 C   0  0  0  0  0  0  0  0  0  0  0  0
   -1.6873   -1.3950   -0.5061 C   0  0  0  0  0  0  0  0  0  0  0  0
   -0.8962    1.5349   -0.0652 C   0  0  0  0  0  0  0  0  0  0  0  0
    3.2055   -0.4083   -0.9398 C   0  0  0  0  0  0  0  0  0  0  0  0
   -2.9974   -1.5106    0.2768 C   0  0  0  0  0  0  0  0  0  0  0  0
    2.4997   -1.3705    1.3051 C   0  0  0  0  0  0  0  0  0  0  0  0
   -1.0653    2.9336    0.5325 C   0  0  0  0  0  0  0  0  0  0  0  0
    4.5428    0.0968   -0.4159 C   0  0  0  0  0  0  0  0  0  0  0  0
   -4.1376   -1.9756   -0.6167 C   0  0  0  0  0  0  0  0  0  0  0  0
   -1.1559    4.0328   -0.5147 C   0  0  0  0  0  0  0  0  0  0  0  0
   -0.3526   -1.6811    1.1632 H   0  0  0  0  0  0  0  0  0  0  0  0
    0.9455   -1.9867   -0.8912 H   0  0  0  0  0  0  0  0  0  0  0  0
    0.6055   -0.3698   -1.4461 H   0  0  0  0  0  0  0  0  0  0  0  0
    1.9595    0.5489    0.5111 H   0  0  0  0  0  0  0  0  0  0  0  0
   -1.5895    0.4147    1.6503 H   0  0  0  0  0  0  0  0  0  0  0  0
    0.1234    0.6975    1.6522 H   0  0  0  0  0  0  0  0  0  0  0  0
   -1.8236   -0.7295   -1.3662 H   0  0  0  0  0  0  0  0  0  0  0  0
   -1.4581   -2.3818   -0.9311 H   0  0  0  0  0  0  0  0  0  0  0  0
   -1.7769    1.3272   -0.6818 H   0  0  0  0  0  0  0  0  0  0  0  0
   -0.0325    1.5681   -0.7365 H   0  0  0  0  0  0  0  0  0  0  0  0
    2.8817    0.2582   -1.7490 H   0  0  0  0  0  0  0  0  0  0  0  0
    3.3519   -1.3994   -1.3868 H   0  0  0  0  0  0  0  0  0  0  0  0
   -3.2814   -0.5439    0.7036 H   0  0  0  0  0  0  0  0  0  0  0  0
   -2.8746   -2.2145    1.1075 H   0  0  0  0  0  0  0  0  0  0  0  0
    1.7111   -1.4172    2.0619 H   0  0  0  0  0  0  0  0  0  0  0  0
    2.7063   -2.3912    0.9665 H   0  0  0  0  0  0  0  0  0  0  0  0
    3.3922   -0.9915    1.8119 H   0  0  0  0  0  0  0  0  0  0  0  0
   -1.9684    2.9560    1.1538 H   0  0  0  0  0  0  0  0  0  0  0  0
   -0.2183    3.1504    1.1946 H   0  0  0  0  0  0  0  0  0  0  0  0
    5.0055   -0.6201    0.2684 H   0  0  0  0  0  0  0  0  0  0  0  0
    4.4270    1.0531    0.1036 H   0  0  0  0  0  0  0  0  0  0  0  0
    5.2373    0.2467   -1.2491 H   0  0  0  0  0  0  0  0  0  0  0  0
   -3.9230   -2.9592   -1.0465 H   0  0  0  0  0  0  0  0  0  0  0  0
   -4.3058   -1.2707   -1.4372 H   0  0  0  0  0  0  0  0  0  0  0  0
   -5.0644   -2.0523   -0.0395 H   0  0  0  0  0  0  0  0  0  0  0  0
   -1.2786    5.0079   -0.0331 H   0  0  0  0  0  0  0  0  0  0  0  0
   -0.2484    4.0661   -1.1258 H   0  0  0  0  0  0  0  0  0  0  0  0
   -2.0111    3.8697   -1.1781 H   0  0  0  0  0  0  0  0  0  0  0  0
  1  2  1  0  0  0  0
  1  4  1  0  0  0  0
  1  5  1  0  0  0  0
  1 14  1  0  0  0  0
  2  3  1  0  0  0  0
  2 15  1  0  0  0  0
  2 16  1  0  0  0  0
  3  7  1  0  0  0  0
  3  9  1  0  0  0  0
  3 17  1  0  0  0  0
  4  6  1  0  0  0  0
  4 18  1  0  0  0  0
  4 19  1  0  0  0  0
  5  8  1  0  0  0  0
  5 20  1  0  0  0  0
  5 21  1  0  0  0  0
  6 10  1  0  0  0  0
  6 22  1  0  0  0  0
  6 23  1  0  0  0  0
  7 11  1  0  0  0  0
  7 24  1  0  0  0  0
  7 25  1  0  0  0  0
  8 12  1  0  0  0  0
  8 26  1  0  0  0  0
  8 27  1  0  0  0  0
  9 28  1  0  0  0  0
  9 29  1  0  0  0  0
  9 30  1  0  0  0  0
 10 13  1  0  0  0  0
 10 31  1  0  0  0  0
 10 32  1  0  0  0  0
 11 33  1  0  0  0  0
 11 34  1  0  0  0  0
 11 35  1  0  0  0  0
 12 36  1  0  0  0  0
 12 37  1  0  0  0  0
 12 38  1  0  0  0  0
 13 39  1  0  0  0  0
 13 40  1  0  0  0  0
 13 41  1  0  0  0  0
M  END
> <PUBCHEM_COMPOUND_CID>
545955

> <PUBCHEM_CONFORMER_RMSD>
0.8

> <PUBCHEM_CONFORMER_DIVERSEORDER>
4
47
68
5
74
6
35
61
51
25
2
76
44
72
23
13
17
75
21
71
66
27
36
20
63
64
12
11
37
60
70
19
45
55
7
57
34
30
43
38
15
41
10
59
28
32
53
58
73
14
24
31
48
42
56
3
26
52
1
18
46
69
40
67
39
22
16
62
9
54
49
50
65
29
8
33

> <PUBCHEM_MMFF94_PARTIAL_CHARGES>
0

> <PUBCHEM_EFFECTIVE_ROTOR_COUNT>
8

> <PUBCHEM_PHARMACOPHORE_FEATURES>
7
1 11 hydrophobe
1 12 hydrophobe
1 13 hydrophobe
1 9 hydrophobe
3 1 5 8 hydrophobe
3 2 3 7 hydrophobe
3 4 6 10 hydrophobe

> <PUBCHEM_HEAVY_ATOM_COUNT>
13

> <PUBCHEM_ATOM_DEF_STEREO_COUNT>
0

> <PUBCHEM_ATOM_UDEF_STEREO_COUNT>
2

> <PUBCHEM_BOND_DEF_STEREO_COUNT>
0

> <PUBCHEM_BOND_UDEF_STEREO_COUNT>
0

> <PUBCHEM_ISOTOPIC_ATOM_COUNT>
0

> <PUBCHEM_COMPONENT_COUNT>
1

> <PUBCHEM_CACTVS_TAUTO_COUNT>
1

> <PUBCHEM_CONFORMER_ID>
000854A300000004

> <PUBCHEM_MMFF94_ENERGY>
9.5497

> <PUBCHEM_FEATURE_SELFOVERLAP>
35.774

> <PUBCHEM_SHAPE_FINGERPRINT>
1 1 16897924965201555117
10989021 7 18270405030402468000
17134986 127 17472704624197629780
187816 3 18260550077481167362
18785283 64 17396426473583399241
200 152 18113334241050816698
20097449 115 18340485681306549707
20344682 1 17775013435273827822
20671657 1 17835806670403491295
20671657 53 18269560601393679055
20711985 327 18200321055668336071
20711985 344 18411420570561123947
21524375 3 17612036970999754760
22112679 90 18125752129738146161
228727 97 18259708916963238930
23402539 116 18343582970891487958
23530152 11 17619347607002038317
23557571 272 18343028787118843870
23558518 356 18046059363453298963
23598294 1 18411134697448303083
2748010 2 18198321018163159681
3071541 12 17906736161089655569
3250762 1 17840322020492120111
58734987 36 18267584800394189879
58734987 43 18267020755171470875
68521 5 18411138030569537405
7164475 11 18264763277221246206
7364860 26 17837772597014392187
7615 1 17968651593653655410
81228 2 18341059523244292947
88987 49 18196362624940272050

> <PUBCHEM_SHAPE_MULTIPOLES>
267.53
6.4
3.67
1.04
3.5
5.86
0.14
-4.22
-1.45
-3.88
-0.34
0.35
-0.15
-0.57

> <PUBCHEM_SHAPE_SELFOVERLAP>
478.874

> <PUBCHEM_SHAPE_VOLUME>
175.5

> <PUBCHEM_COORDINATE_TYPE>
2
5
10

$$$$
