14274765
  -OEChem-08292001413D

 47 49  0     1  0  0  0  0  0999 V2000
   -0.6643   -1.4260    0.6574 O   0  0  0  0  0  0  0  0  0  0  0  0
   -0.0446    2.1843    1.8954 O   0  0  0  0  0  0  0  0  0  0  0  0
    1.3741   -3.4111    0.9700 O   0  0  0  0  0  0  0  0  0  0  0  0
   -5.8980    1.4676    0.6384 O   0  0  0  0  0  0  0  0  0  0  0  0
   -6.5027   -0.2860   -1.4319 O   0  0  0  0  0  0  0  0  0  0  0  0
    6.7690    2.8018   -0.5544 O   0  0  0  0  0  0  0  0  0  0  0  0
    7.4038    0.6289   -0.8382 O   0  0  0  0  0  0  0  0  0  0  0  0
   -0.3247    0.8698   -0.0799 C   0  0  2  0  0  0  0  0  0  0  0  0
   -1.2555   -0.0962    0.6917 C   0  0  1  0  0  0  0  0  0  0  0  0
    0.9500    0.1147    0.0586 C   0  0  0  0  0  0  0  0  0  0  0  0
    0.6713   -1.1874    0.4510 C   0  0  0  0  0  0  0  0  0  0  0  0
   -0.3134    2.2735    0.5067 C   0  0  0  0  0  0  0  0  0  0  0  0
   -2.6569   -0.1445    0.1275 C   0  0  0  0  0  0  0  0  0  0  0  0
    2.2516    0.5063   -0.2034 C   0  0  0  0  0  0  0  0  0  0  0  0
    1.6618   -2.1401    0.5938 C   0  0  0  0  0  0  0  0  0  0  0  0
    3.2720   -0.4368   -0.0516 C   0  0  0  0  0  0  0  0  0  0  0  0
   -3.6469    0.6908    0.6454 C   0  0  0  0  0  0  0  0  0  0  0  0
    2.9786   -1.7521    0.3429 C   0  0  0  0  0  0  0  0  0  0  0  0
   -2.9607   -1.0244   -0.9116 C   0  0  0  0  0  0  0  0  0  0  0  0
   -4.9402    0.6466    0.1243 C   0  0  0  0  0  0  0  0  0  0  0  0
   -4.2540   -1.0689   -1.4324 C   0  0  0  0  0  0  0  0  0  0  0  0
   -5.2437   -0.2333   -0.9145 C   0  0  0  0  0  0  0  0  0  0  0  0
    4.6512   -0.0551   -0.3155 C   0  0  0  0  0  0  0  0  0  0  0  0
    1.0947   -4.3529   -0.0676 C   0  0  0  0  0  0  0  0  0  0  0  0
    5.1208    1.2117   -0.3329 C   0  0  0  0  0  0  0  0  0  0  0  0
   -6.0429    2.7518    0.0352 C   0  0  0  0  0  0  0  0  0  0  0  0
    6.5496    1.4671   -0.6044 C   0  0  0  0  0  0  0  0  0  0  0  0
   -0.5837    0.9135   -1.1456 H   0  0  0  0  0  0  0  0  0  0  0  0
   -1.3239    0.1512    1.7601 H   0  0  0  0  0  0  0  0  0  0  0  0
   -1.2857    2.7576    0.3714 H   0  0  0  0  0  0  0  0  0  0  0  0
    0.4545    2.8984    0.0397 H   0  0  0  0  0  0  0  0  0  0  0  0
    2.4338    1.5191   -0.5457 H   0  0  0  0  0  0  0  0  0  0  0  0
   -3.4157    1.3786    1.4552 H   0  0  0  0  0  0  0  0  0  0  0  0
    3.7768   -2.4835    0.4555 H   0  0  0  0  0  0  0  0  0  0  0  0
   -2.2038   -1.6767   -1.3386 H   0  0  0  0  0  0  0  0  0  0  0  0
   -0.0498    3.0909    2.2469 H   0  0  0  0  0  0  0  0  0  0  0  0
   -4.4763   -1.7573   -2.2433 H   0  0  0  0  0  0  0  0  0  0  0  0
    5.3373   -0.8793   -0.4996 H   0  0  0  0  0  0  0  0  0  0  0  0
    1.9605   -4.4616   -0.7284 H   0  0  0  0  0  0  0  0  0  0  0  0
    0.2179   -4.0396   -0.6433 H   0  0  0  0  0  0  0  0  0  0  0  0
    0.8829   -5.3201    0.3961 H   0  0  0  0  0  0  0  0  0  0  0  0
    4.4964    2.0750   -0.1325 H   0  0  0  0  0  0  0  0  0  0  0  0
   -6.5259   -0.9503   -2.1419 H   0  0  0  0  0  0  0  0  0  0  0  0
   -6.8478    3.2834    0.5501 H   0  0  0  0  0  0  0  0  0  0  0  0
   -5.1193    3.3301    0.1385 H   0  0  0  0  0  0  0  0  0  0  0  0
   -6.3086    2.6536   -1.0221 H   0  0  0  0  0  0  0  0  0  0  0  0
    7.7078    3.0266   -0.7294 H   0  0  0  0  0  0  0  0  0  0  0  0
  1  9  1  0  0  0  0
  1 11  1  0  0  0  0
  2 12  1  0  0  0  0
  2 36  1  0  0  0  0
  3 15  1  0  0  0  0
  3 24  1  0  0  0  0
  4 20  1  0  0  0  0
  4 26  1  0  0  0  0
  5 22  1  0  0  0  0
  5 43  1  0  0  0  0
  6 27  1  0  0  0  0
  6 47  1  0  0  0  0
  7 27  2  0  0  0  0
  8  9  1  0  0  0  0
  8 10  1  0  0  0  0
  8 12  1  0  0  0  0
  8 28  1  0  0  0  0
  9 13  1  0  0  0  0
  9 29  1  0  0  0  0
 10 11  2  0  0  0  0
 10 14  1  0  0  0  0
 11 15  1  0  0  0  0
 12 30  1  0  0  0  0
 12 31  1  0  0  0  0
 13 17  2  0  0  0  0
 13 19  1  0  0  0  0
 14 16  2  0  0  0  0
 14 32  1  0  0  0  0
 15 18  2  0  0  0  0
 16 18  1  0  0  0  0
 16 23  1  0  0  0  0
 17 20  1  0  0  0  0
 17 33  1  0  0  0  0
 18 34  1  0  0  0  0
 19 21  2  0  0  0  0
 19 35  1  0  0  0  0
 20 22  2  0  0  0  0
 21 22  1  0  0  0  0
 21 37  1  0  0  0  0
 23 25  2  0  0  0  0
 23 38  1  0  0  0  0
 24 39  1  0  0  0  0
 24 40  1  0  0  0  0
 24 41  1  0  0  0  0
 25 27  1  0  0  0  0
 25 42  1  0  0  0  0
 26 44  1  0  0  0  0
 26 45  1  0  0  0  0
 26 46  1  0  0  0  0
M  END
> <PUBCHEM_COMPOUND_CID>
14274765

> <PUBCHEM_CONFORMER_RMSD>
0.8

> <PUBCHEM_CONFORMER_DIVERSEORDER>
1
47
9
23
57
43
56
46
59
55
42
48
13
49
25
36
32
50
26
29
51
16
39
60
22
12
17
28
53
30
31
38
34
33
18
27
37
10
40
58
3
45
54
35
6
5
8
15
19
44
41
11
21
2
24
14
52
7
4
20

> <PUBCHEM_MMFF94_PARTIAL_CHARGES>
37
1 -0.36
10 -0.14
11 0.08
12 0.28
13 -0.14
14 -0.15
15 0.08
16 0.03
17 -0.15
18 -0.15
19 -0.15
2 -0.68
20 0.08
21 -0.15
22 0.08
23 -0.18
24 0.28
25 -0.14
26 0.28
27 0.71
3 -0.36
32 0.15
33 0.15
34 0.15
35 0.15
36 0.4
37 0.15
38 0.15
4 -0.36
42 0.15
43 0.45
47 0.5
5 -0.53
6 -0.65
7 -0.57
8 0.14
9 0.42

> <PUBCHEM_EFFECTIVE_ROTOR_COUNT>
6.6

> <PUBCHEM_PHARMACOPHORE_FEATURES>
12
1 1 acceptor
1 2 acceptor
1 2 donor
1 3 acceptor
1 4 acceptor
1 5 donor
1 6 acceptor
1 7 acceptor
3 6 7 27 anion
5 1 8 9 10 11 rings
6 10 11 14 15 16 18 rings
6 13 17 19 20 21 22 rings

> <PUBCHEM_HEAVY_ATOM_COUNT>
27

> <PUBCHEM_ATOM_DEF_STEREO_COUNT>
0

> <PUBCHEM_ATOM_UDEF_STEREO_COUNT>
2

> <PUBCHEM_BOND_DEF_STEREO_COUNT>
1

> <PUBCHEM_BOND_UDEF_STEREO_COUNT>
0

> <PUBCHEM_ISOTOPIC_ATOM_COUNT>
0

> <PUBCHEM_COMPONENT_COUNT>
1

> <PUBCHEM_CACTVS_TAUTO_COUNT>
3

> <PUBCHEM_CONFORMER_ID>
00D9D0CD00000001

> <PUBCHEM_MMFF94_ENERGY>
100.32

> <PUBCHEM_FEATURE_SELFOVERLAP>
61.058

> <PUBCHEM_SHAPE_FINGERPRINT>
10090160 65 18261109664722758466
10595046 47 18411415078020547711
10906281 52 18334303049808231530
11135609 187 18410575106760830088
11135926 11 18335978692565309198
12107183 9 17405990653098198451
12236239 1 18342738490263521679
12293681 160 18273219707460917480
12788726 201 17631455566407005513
13533116 47 18335135355205934442
13540713 5 18126567808167154547
13631057 29 18268144439434858295
13685833 64 10663822971041311340
13690498 29 17845082060412172311
13911987 19 18336549403819552734
14528608 73 18342173384262819972
14767858 380 18341327876906075148
14787075 74 18343020012706555120
14790565 3 18410295847444002932
16993438 75 18116440430071886331
17980427 23 17023475273120867030
18608769 82 18263086685994399371
20511986 3 18272357655758369581
20554085 129 18201426014026631674
20642791 35 17988916773521467465
21267235 1 17988360477415989519
21304303 64 18113622300212593893
21521721 280 18338803411024927704
21682296 61 10015594908306779252
22393880 68 18060127774092108773
23559900 14 16486967401926380201
335352 9 18335706062170725916
34797466 226 16200142257258544570
34934 24 18341331111132512771
4073 2 18187370909459767555
4340502 62 15936408944819226864
465052 167 10807930504820820349
543368 44 18408884049350302821
5486654 2 18411699924377637756
59755656 520 18261670467725587430
6328613 192 18342177718217845721
7164475 11 18050562950332196193

> <PUBCHEM_SHAPE_MULTIPOLES>
514.56
16.06
3.37
1.08
5.12
2.47
0
-12.05
6.16
2.06
-0.59
-0.7
-0.04
-1.89

> <PUBCHEM_SHAPE_SELFOVERLAP>
1114.466

> <PUBCHEM_SHAPE_VOLUME>
283.3

> <PUBCHEM_COORDINATE_TYPE>
2
5
10

$$$$
