131750977
  -OEChem-11202005483D

 51 52  0     1  0  0  0  0  0999 V2000
   -4.1511    2.2916   -0.9921 O   0  0  0  0  0  0  0  0  0  0  0  0
    1.8889    2.6184    0.6614 O   0  0  0  0  0  0  0  0  0  0  0  0
   -2.2629   -1.9045    0.7701 O   0  0  0  0  0  0  0  0  0  0  0  0
   -3.4813   -0.4870   -0.6127 N   0  0  0  0  0  0  0  0  0  0  0  0
   -3.6900    1.8062    0.2760 C   0  0  2  0  0  0  0  0  0  0  0  0
   -2.2182    2.0227    0.3787 C   0  0  0  0  0  0  0  0  0  0  0  0
   -4.0757    0.3257    0.4158 C   0  0  0  0  0  0  0  0  0  0  0  0
   -1.5129    2.5447   -0.7055 C   0  0  0  0  0  0  0  0  0  0  0  0
   -1.5462    1.7008    1.5580 C   0  0  0  0  0  0  0  0  0  0  0  0
    0.5361    2.4233    0.5686 C   0  0  0  0  0  0  0  0  0  0  0  0
   -0.1359    2.7450   -0.6106 C   0  0  0  0  0  0  0  0  0  0  0  0
   -0.1691    1.9011    1.6530 C   0  0  0  0  0  0  0  0  0  0  0  0
   -2.6186   -1.5412   -0.3463 C   0  0  0  0  0  0  0  0  0  0  0  0
    2.6360    2.5065   -0.5444 C   0  0  0  0  0  0  0  0  0  0  0  0
    4.0078    1.9942   -0.2354 C   0  0  0  0  0  0  0  0  0  0  0  0
   -2.1528   -2.2115   -1.5937 C   0  0  0  0  0  0  0  0  0  0  0  0
    4.5812    0.8492   -0.6510 C   0  0  0  0  0  0  0  0  0  0  0  0
   -0.9435   -2.7903   -1.6305 C   0  0  0  0  0  0  0  0  0  0  0  0
    0.0024   -2.8230   -0.5010 C   0  0  0  0  0  0  0  0  0  0  0  0
    3.9379   -0.1747   -1.5429 C   0  0  0  0  0  0  0  0  0  0  0  0
    5.9837    0.5032   -0.2246 C   0  0  0  0  0  0  0  0  0  0  0  0
    0.4234   -4.0461    0.0210 C   0  0  0  0  0  0  0  0  0  0  0  0
    0.4768   -1.6308    0.0459 C   0  0  0  0  0  0  0  0  0  0  0  0
    1.3188   -4.0771    1.0901 C   0  0  0  0  0  0  0  0  0  0  0  0
    1.3722   -1.6617    1.1150 C   0  0  0  0  0  0  0  0  0  0  0  0
    1.7932   -2.8849    1.6372 C   0  0  0  0  0  0  0  0  0  0  0  0
   -4.1953    2.3991    1.0476 H   0  0  0  0  0  0  0  0  0  0  0  0
   -5.1593    0.2187    0.2913 H   0  0  0  0  0  0  0  0  0  0  0  0
   -3.8153   -0.0644    1.4050 H   0  0  0  0  0  0  0  0  0  0  0  0
   -1.9934    2.8120   -1.6419 H   0  0  0  0  0  0  0  0  0  0  0  0
   -2.0818    1.2996    2.4140 H   0  0  0  0  0  0  0  0  0  0  0  0
   -3.7341   -0.2801   -1.5750 H   0  0  0  0  0  0  0  0  0  0  0  0
    0.3686    3.1840   -1.4663 H   0  0  0  0  0  0  0  0  0  0  0  0
    0.3492    1.6487    2.5740 H   0  0  0  0  0  0  0  0  0  0  0  0
   -5.1144    2.1620   -1.0207 H   0  0  0  0  0  0  0  0  0  0  0  0
    2.1450    1.8573   -1.2736 H   0  0  0  0  0  0  0  0  0  0  0  0
    2.7302    3.5042   -0.9895 H   0  0  0  0  0  0  0  0  0  0  0  0
    4.5898    2.6502    0.4112 H   0  0  0  0  0  0  0  0  0  0  0  0
   -2.7959   -2.2035   -2.4665 H   0  0  0  0  0  0  0  0  0  0  0  0
   -0.6191   -3.2947   -2.5365 H   0  0  0  0  0  0  0  0  0  0  0  0
    2.8938    0.0337   -1.7809 H   0  0  0  0  0  0  0  0  0  0  0  0
    3.9629   -1.1583   -1.0612 H   0  0  0  0  0  0  0  0  0  0  0  0
    6.4274    1.2715    0.4173 H   0  0  0  0  0  0  0  0  0  0  0  0
    6.6292    0.3908   -1.1019 H   0  0  0  0  0  0  0  0  0  0  0  0
    5.9883   -0.4386    0.3339 H   0  0  0  0  0  0  0  0  0  0  0  0
    4.4854   -0.2438   -2.4887 H   0  0  0  0  0  0  0  0  0  0  0  0
    0.0618   -4.9834   -0.3947 H   0  0  0  0  0  0  0  0  0  0  0  0
    0.1784   -0.6679   -0.3602 H   0  0  0  0  0  0  0  0  0  0  0  0
    1.6469   -5.0293    1.4964 H   0  0  0  0  0  0  0  0  0  0  0  0
    1.7490   -0.7344    1.5361 H   0  0  0  0  0  0  0  0  0  0  0  0
    2.4921   -2.9087    2.4681 H   0  0  0  0  0  0  0  0  0  0  0  0
  1  5  1  0  0  0  0
  1 35  1  0  0  0  0
  2 10  1  0  0  0  0
  2 14  1  0  0  0  0
  3 13  2  0  0  0  0
  4  7  1  0  0  0  0
  4 13  1  0  0  0  0
  4 32  1  0  0  0  0
  5  6  1  0  0  0  0
  5  7  1  0  0  0  0
  5 27  1  0  0  0  0
  6  8  2  0  0  0  0
  6  9  1  0  0  0  0
  7 28  1  0  0  0  0
  7 29  1  0  0  0  0
  8 11  1  0  0  0  0
  8 30  1  0  0  0  0
  9 12  2  0  0  0  0
  9 31  1  0  0  0  0
 10 11  2  0  0  0  0
 10 12  1  0  0  0  0
 11 33  1  0  0  0  0
 12 34  1  0  0  0  0
 13 16  1  0  0  0  0
 14 15  1  0  0  0  0
 14 36  1  0  0  0  0
 14 37  1  0  0  0  0
 15 17  2  0  0  0  0
 15 38  1  0  0  0  0
 16 18  2  0  0  0  0
 16 39  1  0  0  0  0
 17 20  1  0  0  0  0
 17 21  1  0  0  0  0
 18 19  1  0  0  0  0
 18 40  1  0  0  0  0
 19 22  2  0  0  0  0
 19 23  1  0  0  0  0
 20 41  1  0  0  0  0
 20 42  1  0  0  0  0
 20 46  1  0  0  0  0
 21 43  1  0  0  0  0
 21 44  1  0  0  0  0
 21 45  1  0  0  0  0
 22 24  1  0  0  0  0
 22 47  1  0  0  0  0
 23 25  2  0  0  0  0
 23 48  1  0  0  0  0
 24 26  2  0  0  0  0
 24 49  1  0  0  0  0
 25 26  1  0  0  0  0
 25 50  1  0  0  0  0
 26 51  1  0  0  0  0
M  END
> <PUBCHEM_COMPOUND_CID>
131750977

> <PUBCHEM_CONFORMER_RMSD>
1.2

> <PUBCHEM_CONFORMER_DIVERSEORDER>
14
25
39
4
9
118
100
76
121
82
35
102
59
24
31
17
110
8
29
19
28
63
116
87
91
33
57
77
98
22
61
112
105
86
40
38
16
34
13
62
99
3
113
115
48
26
46
69
5
44
65
41
55
52
49
37
18
2
83
80
45
74
53
1
109
42
7
73
111
51
79
43
93
85
47
15
64
107
66
104
50
71
97
6
54
95
117
92
88
11
96
106
68
108
60
81
58
122
120
75
67
114
94
36
20
84
12
101
103
23
78
27
119
89
21
72
30
32
90
56
70
10

> <PUBCHEM_MMFF94_PARTIAL_CHARGES>
40
1 -0.68
10 0.08
11 -0.15
12 -0.15
13 0.62
14 0.42
15 -0.29
16 -0.14
17 -0.28
18 -0.18
19 0.03
2 -0.36
20 0.14
21 0.14
22 -0.15
23 -0.15
24 -0.15
25 -0.15
26 -0.15
3 -0.57
30 0.15
31 0.15
32 0.37
33 0.15
34 0.15
35 0.4
38 0.15
39 0.15
4 -0.73
40 0.15
47 0.15
48 0.15
49 0.15
5 0.42
50 0.15
51 0.15
6 -0.14
7 0.3
8 -0.15
9 -0.15

> <PUBCHEM_EFFECTIVE_ROTOR_COUNT>
9

> <PUBCHEM_PHARMACOPHORE_FEATURES>
8
1 1 acceptor
1 1 donor
1 2 acceptor
1 3 acceptor
1 4 donor
3 17 20 21 hydrophobe
6 19 22 23 24 25 26 rings
6 6 8 9 10 11 12 rings

> <PUBCHEM_HEAVY_ATOM_COUNT>
26

> <PUBCHEM_ATOM_DEF_STEREO_COUNT>
0

> <PUBCHEM_ATOM_UDEF_STEREO_COUNT>
1

> <PUBCHEM_BOND_DEF_STEREO_COUNT>
1

> <PUBCHEM_BOND_UDEF_STEREO_COUNT>
0

> <PUBCHEM_ISOTOPIC_ATOM_COUNT>
0

> <PUBCHEM_COMPONENT_COUNT>
1

> <PUBCHEM_CACTVS_TAUTO_COUNT>
2

> <PUBCHEM_CONFORMER_ID>
07DA5C410000000E

> <PUBCHEM_MMFF94_ENERGY>
70.1204

> <PUBCHEM_FEATURE_SELFOVERLAP>
40.598

> <PUBCHEM_SHAPE_FINGERPRINT>
10693767 8 17195992079541053143
107951 10 17822010926126607361
11578080 2 17024012784409904895
12156800 1 16484116367969687093
12422481 6 17980519850807050275
13122387 1 17403176998009688062
14117953 113 16970543314243317316
14251740 79 18342182214953158796
14251751 93 18411140268015662740
14251757 5 17977120264154935540
14289585 56 17530954775064177172
14659021 117 17836070544430286120
14866123 147 18411417358342499542
15297060 5 17917713444563229842
15322534 239 18409735097188940606
16120349 306 18410568475209752728
17492 54 18337660924434546181
17627616 140 18119256069429413710
17859628 97 18411141359174609329
19591789 44 18338237175316178992
3052486 1 18338222852317606960
3298306 158 18335701594181391517
338550 245 18334577941249014764
437795 70 17984444957649210582
463206 1 18336270033530181272
469060 322 17970373561663821491
474144 1 18189042132336262338
5265222 85 18264785409383369532
5282940 2 18337105666287568890
57091435 65 18192999209991099422
6287921 2 17194325876504425450

> <PUBCHEM_SHAPE_MULTIPOLES>
512.48
7.94
5.67
1.5
6.77
3.88
-0.09
-4.79
2.09
0.25
-0.55
0
0.55
-1.26

> <PUBCHEM_SHAPE_SELFOVERLAP>
1069.632

> <PUBCHEM_SHAPE_VOLUME>
289

> <PUBCHEM_COORDINATE_TYPE>
2
5
10

$$$$
