442858
  -OEChem-11202005483D

 28 30  0     0  0  0  0  0  0999 V2000
    0.3431   -0.0137   -0.0016 O   0  0  0  0  0  0  0  0  0  0  0  0
   -5.8339    1.2627    0.0006 O   0  0  0  0  0  0  0  0  0  0  0  0
    1.2151   -2.1004   -0.0002 N   0  0  0  0  0  0  0  0  0  0  0  0
    3.8960    1.9988    0.0005 N   0  0  0  0  0  0  0  0  0  0  0  0
   -2.0082   -0.3479   -0.0004 C   0  0  0  0  0  0  0  0  0  0  0  0
   -0.6788   -0.9076   -0.0012 C   0  0  0  0  0  0  0  0  0  0  0  0
    1.4488   -0.8076   -0.0011 C   0  0  0  0  0  0  0  0  0  0  0  0
    2.7033   -0.1073   -0.0003 C   0  0  0  0  0  0  0  0  0  0  0  0
   -3.1198   -1.1907    0.0016 C   0  0  0  0  0  0  0  0  0  0  0  0
   -2.1825    1.0361   -0.0017 C   0  0  0  0  0  0  0  0  0  0  0  0
   -0.1545   -2.1685   -0.0005 C   0  0  0  0  0  0  0  0  0  0  0  0
   -4.4053   -0.6496    0.0022 C   0  0  0  0  0  0  0  0  0  0  0  0
   -3.4682    1.5772   -0.0011 C   0  0  0  0  0  0  0  0  0  0  0  0
   -4.5796    0.7344    0.0007 C   0  0  0  0  0  0  0  0  0  0  0  0
    3.9127   -0.7965    0.0005 C   0  0  0  0  0  0  0  0  0  0  0  0
    2.7516    1.2791   -0.0001 C   0  0  0  0  0  0  0  0  0  0  0  0
    5.1112   -0.0913    0.0011 C   0  0  0  0  0  0  0  0  0  0  0  0
    5.0491    1.2929    0.0012 C   0  0  0  0  0  0  0  0  0  0  0  0
   -3.0139   -2.2725    0.0026 H   0  0  0  0  0  0  0  0  0  0  0  0
   -1.3409    1.7241   -0.0033 H   0  0  0  0  0  0  0  0  0  0  0  0
   -0.6675   -3.1190    0.0003 H   0  0  0  0  0  0  0  0  0  0  0  0
   -5.2631   -1.3167    0.0036 H   0  0  0  0  0  0  0  0  0  0  0  0
   -3.5980    2.6560   -0.0023 H   0  0  0  0  0  0  0  0  0  0  0  0
    3.9423   -1.8833    0.0004 H   0  0  0  0  0  0  0  0  0  0  0  0
    1.8564    1.8941   -0.0006 H   0  0  0  0  0  0  0  0  0  0  0  0
    6.0638   -0.6085    0.0016 H   0  0  0  0  0  0  0  0  0  0  0  0
    5.9554    1.8894    0.0017 H   0  0  0  0  0  0  0  0  0  0  0  0
   -6.4815    0.5369    0.0019 H   0  0  0  0  0  0  0  0  0  0  0  0
  1  6  1  0  0  0  0
  1  7  1  0  0  0  0
  2 14  1  0  0  0  0
  2 28  1  0  0  0  0
  3  7  2  0  0  0  0
  3 11  1  0  0  0  0
  4 16  1  0  0  0  0
  4 18  2  0  0  0  0
  5  6  1  0  0  0  0
  5  9  2  0  0  0  0
  5 10  1  0  0  0  0
  6 11  2  0  0  0  0
  7  8  1  0  0  0  0
  8 15  1  0  0  0  0
  8 16  2  0  0  0  0
  9 12  1  0  0  0  0
  9 19  1  0  0  0  0
 10 13  2  0  0  0  0
 10 20  1  0  0  0  0
 11 21  1  0  0  0  0
 12 14  2  0  0  0  0
 12 22  1  0  0  0  0
 13 14  1  0  0  0  0
 13 23  1  0  0  0  0
 15 17  2  0  0  0  0
 15 24  1  0  0  0  0
 16 25  1  0  0  0  0
 17 18  1  0  0  0  0
 17 26  1  0  0  0  0
 18 27  1  0  0  0  0
M  END
> <PUBCHEM_COMPOUND_CID>
442858

> <PUBCHEM_CONFORMER_RMSD>
0.6

> <PUBCHEM_CONFORMER_DIVERSEORDER>
1
4
2
3

> <PUBCHEM_MMFF94_PARTIAL_CHARGES>
28
1 -0.28
10 -0.15
11 0.08
12 -0.15
13 -0.15
14 0.08
15 -0.15
16 0.16
17 -0.15
18 0.16
19 0.15
2 -0.53
20 0.15
21 0.15
22 0.15
23 0.15
24 0.15
25 0.15
26 0.15
27 0.15
28 0.45
3 -0.57
4 -0.62
5 0.05
6 0.09
7 0.43
8 0.05
9 -0.15

> <PUBCHEM_EFFECTIVE_ROTOR_COUNT>
2

> <PUBCHEM_PHARMACOPHORE_FEATURES>
5
1 2 donor
1 4 acceptor
5 1 3 6 7 11 rings
6 4 8 15 16 17 18 rings
6 5 9 10 12 13 14 rings

> <PUBCHEM_HEAVY_ATOM_COUNT>
18

> <PUBCHEM_ATOM_DEF_STEREO_COUNT>
0

> <PUBCHEM_ATOM_UDEF_STEREO_COUNT>
0

> <PUBCHEM_BOND_DEF_STEREO_COUNT>
0

> <PUBCHEM_BOND_UDEF_STEREO_COUNT>
0

> <PUBCHEM_ISOTOPIC_ATOM_COUNT>
0

> <PUBCHEM_COMPONENT_COUNT>
1

> <PUBCHEM_CACTVS_TAUTO_COUNT>
2

> <PUBCHEM_CONFORMER_ID>
0006C1EA00000001

> <PUBCHEM_MMFF94_ENERGY>
39.5441

> <PUBCHEM_FEATURE_SELFOVERLAP>
25.373

> <PUBCHEM_SHAPE_FINGERPRINT>
10411042 1 17474108077871844551
11595378 159 16588292839902115421
12107183 9 17688023120109665440
122479 349 18334860571165882418
12403259 415 18129662027419752728
12596602 18 16370730369580168192
12633257 1 15864074299035469948
12916748 109 18411706495234553906
13081056 2 18410575080489580436
13214271 11 18335140912629864575
13785724 45 17833264221627157930
14251764 18 18260260868206703946
14252887 29 12468633898749018080
14341114 176 18334583425141347936
14528608 73 18341609334834681405
15188451 53 15430611666102725561
15196674 1 18410575110438306852
17834072 8 18272377451800388974
200 152 18060698394862473379
20645477 56 18333734585628465871
20645477 70 17346331362602375918
21267235 1 18410864260527006115
212847 35 18408323298457209460
21524375 3 18410575097775171906
21652331 79 18408039602354854237
22854114 59 18333732416052770365
22950370 63 9295292754711965734
23227448 37 18270679886718446919
23402539 116 18272364299819361270
23402655 69 18201999927928986382
23559900 14 18271526395151309414
245318 6 17099480204302903780
2916195 48 18130216172917213464
335352 9 18410856543430845470
34934 24 18409443657924714599
351380 180 18411135844399587032
351380 3 8646768889301027577
3545911 37 18409169887686634405
4214541 1 18410574002331320320
465052 167 10953460708848978264
474 4 18113903783530721324
474229 33 18338517542655947099
495365 180 17346308350277905610
4990 188 17989494021705385598
5104073 3 18407759248274678067
542803 24 17530686510789092029
59755656 215 18339085887056442750
59755656 520 17894628171256597146
633830 44 18411132545901958694
77779 3 18411138038916761762

> <PUBCHEM_SHAPE_MULTIPOLES>
348.73
11.95
2
0.6
0.7
0.17
0
-5.54
0.01
-0.18
0
-0.01
0.01
0

> <PUBCHEM_SHAPE_SELFOVERLAP>
777.981

> <PUBCHEM_SHAPE_VOLUME>
186

> <PUBCHEM_COORDINATE_TYPE>
2
5
10

$$$$
