15558419
  -OEChem-11202005473D

 41 42  0     1  0  0  0  0  0999 V2000
   -1.6001   -1.2484    1.6071 O   0  0  0  0  0  0  0  0  0  0  0  0
   -7.3063    0.5552   -0.1683 O   0  0  0  0  0  0  0  0  0  0  0  0
    1.0098    1.3863   -0.8999 O   0  0  0  0  0  0  0  0  0  0  0  0
    0.3525   -0.7991   -0.4579 N   0  0  0  0  0  0  0  0  0  0  0  0
   -1.7755   -0.2242    0.6280 C   0  0  1  0  0  0  0  0  0  0  0  0
   -1.0669   -0.6202   -0.6675 C   0  0  0  0  0  0  0  0  0  0  0  0
   -3.2569   -0.0155    0.4144 C   0  0  0  0  0  0  0  0  0  0  0  0
   -3.8227    1.2058    0.7403 C   0  0  0  0  0  0  0  0  0  0  0  0
   -4.0191   -1.0498   -0.1027 C   0  0  0  0  0  0  0  0  0  0  0  0
   -5.1902    1.3983    0.5435 C   0  0  0  0  0  0  0  0  0  0  0  0
   -5.3866   -0.8574   -0.2997 C   0  0  0  0  0  0  0  0  0  0  0  0
   -5.9721    0.3669    0.0233 C   0  0  0  0  0  0  0  0  0  0  0  0
    1.2715    0.2277   -0.5937 C   0  0  0  0  0  0  0  0  0  0  0  0
    2.6622   -0.2346   -0.3198 C   0  0  0  0  0  0  0  0  0  0  0  0
    5.0918    0.2904   -0.1340 C   0  0  0  0  0  0  0  0  0  0  0  0
    3.6821    0.6333   -0.3927 C   0  0  0  0  0  0  0  0  0  0  0  0
    5.4911   -1.0345   -0.2020 C   0  0  0  0  0  0  0  0  0  0  0  0
    5.9903    1.2996    0.1721 C   0  0  0  0  0  0  0  0  0  0  0  0
    6.8253   -1.3592    0.0431 C   0  0  0  0  0  0  0  0  0  0  0  0
    7.3246    0.9748    0.4172 C   0  0  0  0  0  0  0  0  0  0  0  0
   -8.0466   -0.5409   -0.7035 C   0  0  0  0  0  0  0  0  0  0  0  0
    7.7420   -0.3545    0.3526 C   0  0  0  0  0  0  0  0  0  0  0  0
   -1.3123    0.6834    1.0339 H   0  0  0  0  0  0  0  0  0  0  0  0
   -1.4266   -1.5817   -1.0487 H   0  0  0  0  0  0  0  0  0  0  0  0
   -1.2223    0.1375   -1.4441 H   0  0  0  0  0  0  0  0  0  0  0  0
   -3.2244    2.0164    1.1459 H   0  0  0  0  0  0  0  0  0  0  0  0
   -3.5831   -2.0136   -0.3473 H   0  0  0  0  0  0  0  0  0  0  0  0
    0.6679   -1.7272   -0.1910 H   0  0  0  0  0  0  0  0  0  0  0  0
   -5.6408    2.3540    0.7971 H   0  0  0  0  0  0  0  0  0  0  0  0
   -5.9352   -1.7011   -0.7041 H   0  0  0  0  0  0  0  0  0  0  0  0
   -2.1724   -1.0426    2.3661 H   0  0  0  0  0  0  0  0  0  0  0  0
    2.7909   -1.2744   -0.0425 H   0  0  0  0  0  0  0  0  0  0  0  0
    3.4975    1.6743   -0.6482 H   0  0  0  0  0  0  0  0  0  0  0  0
    4.8187   -1.8461   -0.4610 H   0  0  0  0  0  0  0  0  0  0  0  0
    5.6802    2.3397    0.2276 H   0  0  0  0  0  0  0  0  0  0  0  0
    7.1523   -2.3935   -0.0121 H   0  0  0  0  0  0  0  0  0  0  0  0
    8.0386    1.7569    0.6583 H   0  0  0  0  0  0  0  0  0  0  0  0
   -7.7077   -0.8012   -1.7119 H   0  0  0  0  0  0  0  0  0  0  0  0
   -9.0885   -0.2155   -0.7905 H   0  0  0  0  0  0  0  0  0  0  0  0
   -8.0361   -1.4021   -0.0268 H   0  0  0  0  0  0  0  0  0  0  0  0
    8.7812   -0.6072    0.5422 H   0  0  0  0  0  0  0  0  0  0  0  0
  1  5  1  0  0  0  0
  1 31  1  0  0  0  0
  2 12  1  0  0  0  0
  2 21  1  0  0  0  0
  3 13  2  0  0  0  0
  4  6  1  0  0  0  0
  4 13  1  0  0  0  0
  4 28  1  0  0  0  0
  5  6  1  0  0  0  0
  5  7  1  0  0  0  0
  5 23  1  0  0  0  0
  6 24  1  0  0  0  0
  6 25  1  0  0  0  0
  7  8  2  0  0  0  0
  7  9  1  0  0  0  0
  8 10  1  0  0  0  0
  8 26  1  0  0  0  0
  9 11  2  0  0  0  0
  9 27  1  0  0  0  0
 10 12  2  0  0  0  0
 10 29  1  0  0  0  0
 11 12  1  0  0  0  0
 11 30  1  0  0  0  0
 13 14  1  0  0  0  0
 14 16  2  0  0  0  0
 14 32  1  0  0  0  0
 15 16  1  0  0  0  0
 15 17  2  0  0  0  0
 15 18  1  0  0  0  0
 16 33  1  0  0  0  0
 17 19  1  0  0  0  0
 17 34  1  0  0  0  0
 18 20  2  0  0  0  0
 18 35  1  0  0  0  0
 19 22  2  0  0  0  0
 19 36  1  0  0  0  0
 20 22  1  0  0  0  0
 20 37  1  0  0  0  0
 21 38  1  0  0  0  0
 21 39  1  0  0  0  0
 21 40  1  0  0  0  0
 22 41  1  0  0  0  0
M  END
> <PUBCHEM_COMPOUND_CID>
15558419

> <PUBCHEM_CONFORMER_RMSD>
0.8

> <PUBCHEM_CONFORMER_DIVERSEORDER>
1
28
30
33
38
2
40
23
53
55
21
45
24
35
7
26
22
11
10
16
37
27
32
12
50
49
39
14
13
36
18
19
15
17
29
3
20
48
25
5
51
47
46
41
44
43
31
4
52
6
42
34
8
54
56
9

> <PUBCHEM_MMFF94_PARTIAL_CHARGES>
35
1 -0.68
10 -0.15
11 -0.15
12 0.08
13 0.62
14 -0.14
15 0.03
16 -0.18
17 -0.15
18 -0.15
19 -0.15
2 -0.36
20 -0.15
21 0.28
22 -0.15
26 0.15
27 0.15
28 0.37
29 0.15
3 -0.57
30 0.15
31 0.4
32 0.15
33 0.15
34 0.15
35 0.15
36 0.15
37 0.15
4 -0.73
41 0.15
5 0.42
6 0.3
7 -0.14
8 -0.15
9 -0.15

> <PUBCHEM_EFFECTIVE_ROTOR_COUNT>
7

> <PUBCHEM_PHARMACOPHORE_FEATURES>
7
1 1 acceptor
1 1 donor
1 2 acceptor
1 3 acceptor
1 4 donor
6 15 17 18 19 20 22 rings
6 7 8 9 10 11 12 rings

> <PUBCHEM_HEAVY_ATOM_COUNT>
22

> <PUBCHEM_ATOM_DEF_STEREO_COUNT>
0

> <PUBCHEM_ATOM_UDEF_STEREO_COUNT>
1

> <PUBCHEM_BOND_DEF_STEREO_COUNT>
1

> <PUBCHEM_BOND_UDEF_STEREO_COUNT>
0

> <PUBCHEM_ISOTOPIC_ATOM_COUNT>
0

> <PUBCHEM_COMPONENT_COUNT>
1

> <PUBCHEM_CACTVS_TAUTO_COUNT>
2

> <PUBCHEM_CONFORMER_ID>
00ED671300000001

> <PUBCHEM_MMFF94_ENERGY>
64.8832

> <PUBCHEM_FEATURE_SELFOVERLAP>
35.524

> <PUBCHEM_SHAPE_FINGERPRINT>
10 15 17561361803521130308
10883706 142 16805324380644192045
11089746 13 18342738533382077576
11315181 36 18272373088113726561
11524674 6 15574719109840941433
11719270 70 17489870410716811566
12236239 1 18343019999668639870
12516196 113 18408885140208926068
13533116 47 17968373438998226106
13914758 101 18334575715965416305
14123256 10 13254797936306779540
14251764 18 18410857663710265292
14251764 46 18410573985151457635
14347424 109 18409725163356619216
14617045 38 15936407836712357250
14933364 13 18343584045017978760
15183329 4 17676206862077688240
15461852 350 17632577184241626647
15537594 2 15357693111252145544
15716309 27 18342173367082918614
15849732 13 18412262847944129270
16120349 18 18336825390245427148
18006028 8 17240201032273627540
18335252 98 17132117957379952679
19489759 90 18413392033822745393
20157964 124 17846503617251141718
20281389 69 18412825781055693744
21095086 128 11097855198727259513
21150785 3 17060337431128121767
21267235 1 8934995976272207503
21315763 28 18343582928025885888
21403212 168 17676201364303589843
21521721 280 9727626211758886438
22224240 67 18410008845107951094
23035841 295 10665225964414761356
23536379 177 18342458132215658890
23559900 14 18338232790597954561
23622692 88 17022625281654142943
28498 318 16660358165123483114
34797466 226 11024106560569959674
4073 2 18187650266896372858
4325135 7 9727635007683135728
5207 217 14979956973413046436
59682541 35 14548729629786072758
59755656 520 18335133219800586319
6394761 36 15502373426703175693
8209 1 18341894095134306223

> <PUBCHEM_SHAPE_MULTIPOLES>
430.16
25.33
1.35
0.89
6.05
0.14
0.13
0.4
0.26
0.32
0.08
-0.32
-0.05
-0.43

> <PUBCHEM_SHAPE_SELFOVERLAP>
906.082

> <PUBCHEM_SHAPE_VOLUME>
241.3

> <PUBCHEM_COORDINATE_TYPE>
2
5
10

$$$$
