5368743
  -OEChem-11202008253D

 40 41  0     1  0  0  0  0  0999 V2000
    3.1393   -1.7983   -0.8101 O   0  0  0  0  0  0  0  0  0  0  0  0
   -1.5485    1.0756   -0.0664 C   0  0  1  0  0  0  0  0  0  0  0  0
   -2.5902    0.4209   -1.0231 C   0  0  2  0  0  0  0  0  0  0  0  0
   -1.9685   -0.0508    0.9323 C   0  0  1  0  0  0  0  0  0  0  0  0
   -3.3866    0.1157    0.2865 C   0  0  0  0  0  0  0  0  0  0  0  0
   -2.0641   -0.8478   -1.7173 C   0  0  0  0  0  0  0  0  0  0  0  0
   -0.0964    1.0883   -0.5312 C   0  0  0  0  0  0  0  0  0  0  0  0
   -1.3436   -1.3761    0.6014 C   0  0  0  0  0  0  0  0  0  0  0  0
   -1.8974    2.4833    0.3849 C   0  0  0  0  0  0  0  0  0  0  0  0
   -1.4032   -1.7406   -0.6932 C   0  0  0  0  0  0  0  0  0  0  0  0
    0.8644    1.3273    0.6347 C   0  0  0  0  0  0  0  0  0  0  0  0
   -0.7157   -2.1784    1.6894 C   0  0  0  0  0  0  0  0  0  0  0  0
    2.2999    1.4100    0.1936 C   0  0  0  0  0  0  0  0  0  0  0  0
    3.1973    0.4101    0.0962 C   0  0  0  0  0  0  0  0  0  0  0  0
    2.9052   -1.0404    0.3696 C   0  0  0  0  0  0  0  0  0  0  0  0
    4.6081    0.7011   -0.3473 C   0  0  0  0  0  0  0  0  0  0  0  0
   -3.0913    1.0997   -1.7207 H   0  0  0  0  0  0  0  0  0  0  0  0
   -1.9135    0.2009    1.9961 H   0  0  0  0  0  0  0  0  0  0  0  0
   -4.0160   -0.7816    0.2626 H   0  0  0  0  0  0  0  0  0  0  0  0
   -4.0095    0.9199    0.6901 H   0  0  0  0  0  0  0  0  0  0  0  0
   -1.3573   -0.5913   -2.5133 H   0  0  0  0  0  0  0  0  0  0  0  0
   -2.8973   -1.3885   -2.1801 H   0  0  0  0  0  0  0  0  0  0  0  0
    0.2153    0.1718   -1.0382 H   0  0  0  0  0  0  0  0  0  0  0  0
    0.0421    1.8742   -1.2870 H   0  0  0  0  0  0  0  0  0  0  0  0
   -1.4669    2.7150    1.3647 H   0  0  0  0  0  0  0  0  0  0  0  0
   -1.5355    3.2339   -0.3280 H   0  0  0  0  0  0  0  0  0  0  0  0
   -2.9719    2.6680    0.4747 H   0  0  0  0  0  0  0  0  0  0  0  0
   -0.9780   -2.6807   -1.0290 H   0  0  0  0  0  0  0  0  0  0  0  0
    0.6398    2.2721    1.1417 H   0  0  0  0  0  0  0  0  0  0  0  0
    0.7491    0.5589    1.4046 H   0  0  0  0  0  0  0  0  0  0  0  0
   -0.2139   -3.0699    1.2994 H   0  0  0  0  0  0  0  0  0  0  0  0
   -1.4782   -2.5050    2.4037 H   0  0  0  0  0  0  0  0  0  0  0  0
    0.0267   -1.5856    2.2315 H   0  0  0  0  0  0  0  0  0  0  0  0
    2.6262    2.4170   -0.0642 H   0  0  0  0  0  0  0  0  0  0  0  0
    3.5612   -1.4125    1.1635 H   0  0  0  0  0  0  0  0  0  0  0  0
    1.8724   -1.2121    0.6741 H   0  0  0  0  0  0  0  0  0  0  0  0
    5.3210    0.3431    0.4028 H   0  0  0  0  0  0  0  0  0  0  0  0
    4.8245    0.2051   -1.2988 H   0  0  0  0  0  0  0  0  0  0  0  0
    4.7882    1.7726   -0.4857 H   0  0  0  0  0  0  0  0  0  0  0  0
    2.9566   -2.7283   -0.5928 H   0  0  0  0  0  0  0  0  0  0  0  0
  1 15  1  0  0  0  0
  1 40  1  0  0  0  0
  2  3  1  0  0  0  0
  2  4  1  0  0  0  0
  2  7  1  0  0  0  0
  2  9  1  0  0  0  0
  3  5  1  0  0  0  0
  3  6  1  0  0  0  0
  3 17  1  0  0  0  0
  4  5  1  0  0  0  0
  4  8  1  0  0  0  0
  4 18  1  0  0  0  0
  5 19  1  0  0  0  0
  5 20  1  0  0  0  0
  6 10  1  0  0  0  0
  6 21  1  0  0  0  0
  6 22  1  0  0  0  0
  7 11  1  0  0  0  0
  7 23  1  0  0  0  0
  7 24  1  0  0  0  0
  8 10  2  0  0  0  0
  8 12  1  0  0  0  0
  9 25  1  0  0  0  0
  9 26  1  0  0  0  0
  9 27  1  0  0  0  0
 10 28  1  0  0  0  0
 11 13  1  0  0  0  0
 11 29  1  0  0  0  0
 11 30  1  0  0  0  0
 12 31  1  0  0  0  0
 12 32  1  0  0  0  0
 12 33  1  0  0  0  0
 13 14  2  0  0  0  0
 13 34  1  0  0  0  0
 14 15  1  0  0  0  0
 14 16  1  0  0  0  0
 15 35  1  0  0  0  0
 15 36  1  0  0  0  0
 16 37  1  0  0  0  0
 16 38  1  0  0  0  0
 16 39  1  0  0  0  0
M  END
> <PUBCHEM_COMPOUND_CID>
5368743

> <PUBCHEM_CONFORMER_RMSD>
0.6

> <PUBCHEM_CONFORMER_DIVERSEORDER>
3
56
44
25
48
55
36
47
41
11
33
69
6
40
9
30
50
5
68
59
15
67
17
27
37
34
42
18
53
32
39
10
19
21
51
31
66
45
38
12
49
35
62
57
16
43
29
46
52
63
14
54
58
22
7
2
23
4
20
61
28
8
13
24
26
60
1
64
65

> <PUBCHEM_MMFF94_PARTIAL_CHARGES>
14
1 -0.68
10 -0.29
11 0.14
12 0.14
13 -0.29
14 -0.28
15 0.42
16 0.14
28 0.15
34 0.15
4 0.12
40 0.4
6 0.14
8 -0.25

> <PUBCHEM_EFFECTIVE_ROTOR_COUNT>
4.6

> <PUBCHEM_PHARMACOPHORE_FEATURES>
4
1 1 acceptor
1 1 donor
1 16 hydrophobe
7 2 3 4 5 6 8 10 rings

> <PUBCHEM_HEAVY_ATOM_COUNT>
16

> <PUBCHEM_ATOM_DEF_STEREO_COUNT>
0

> <PUBCHEM_ATOM_UDEF_STEREO_COUNT>
3

> <PUBCHEM_BOND_DEF_STEREO_COUNT>
1

> <PUBCHEM_BOND_UDEF_STEREO_COUNT>
0

> <PUBCHEM_ISOTOPIC_ATOM_COUNT>
0

> <PUBCHEM_COMPONENT_COUNT>
1

> <PUBCHEM_CACTVS_TAUTO_COUNT>
1

> <PUBCHEM_CONFORMER_ID>
0051EBA700000003

> <PUBCHEM_MMFF94_ENERGY>
39.6522

> <PUBCHEM_FEATURE_SELFOVERLAP>
20.297

> <PUBCHEM_SHAPE_FINGERPRINT>
10366900 7 18271801380500728416
10616163 171 18341615957853651862
11322862 65 17968380147204385667
12035759 4 18054196896924282021
12553582 1 18412541037640545376
13024252 1 18113896100393371981
14251745 187 18411412951726815466
15375358 24 18409722989480733424
15775835 57 18060421334880034598
16945 1 18200579376349662353
19930381 70 18126570020160565375
20201158 50 18411980278172789778
20442098 301 18202841063367765892
20523700 14 18333733546103910052
20645476 183 17240477026697832523
21524375 3 18053102826804668681
22721475 48 18409168852604920760
22802520 49 18338515364690238440
23559900 14 18269825562332374352
2748010 2 17760642968358861008
598444 67 18260840249966716315
6443956 14 16746506309846553987
69090 78 18202278096150046781
81228 2 18338786905619375953
8809292 202 18261957461370743752
9709674 26 18411985771451896078

> <PUBCHEM_SHAPE_MULTIPOLES>
323.4
6.31
2.32
1.26
7.37
0.19
0.09
-0.35
0.97
-0.37
-0.46
-0.7
0.56
0.1

> <PUBCHEM_SHAPE_SELFOVERLAP>
662.521

> <PUBCHEM_SHAPE_VOLUME>
189.9

> <PUBCHEM_COORDINATE_TYPE>
2
5
10

$$$$
