23252995
  -OEChem-11202009023D

 52 53  0     1  0  0  0  0  0999 V2000
    0.9071    0.0773   -0.6477 C   0  0  1  0  0  0  0  0  0  0  0  0
    1.8765   -0.2062    0.5705 C   0  0  2  0  0  0  0  0  0  0  0  0
    3.2328    0.5869    0.5973 C   0  0  0  0  0  0  0  0  0  0  0  0
   -0.4960   -0.5662   -0.2807 C   0  0  2  0  0  0  0  0  0  0  0  0
    0.7626    1.6118   -0.8185 C   0  0  0  0  0  0  0  0  0  0  0  0
    2.0212   -1.7239    0.8270 C   0  0  0  0  0  0  0  0  0  0  0  0
    2.9598    2.0866    0.3256 C   0  0  0  0  0  0  0  0  0  0  0  0
    2.0965    2.3490   -0.9001 C   0  0  0  0  0  0  0  0  0  0  0  0
    1.4007   -0.5213   -1.9897 C   0  0  0  0  0  0  0  0  0  0  0  0
    0.6632   -2.3850    1.0784 C   0  0  0  0  0  0  0  0  0  0  0  0
   -0.3292   -2.0615   -0.0105 C   0  0  0  0  0  0  0  0  0  0  0  0
    4.3038    0.0571   -0.3745 C   0  0  0  0  0  0  0  0  0  0  0  0
    3.8585    0.5010    2.0158 C   0  0  0  0  0  0  0  0  0  0  0  0
   -1.6317   -0.2233   -1.2608 C   0  0  0  0  0  0  0  0  0  0  0  0
   -0.9693   -3.0493   -0.6573 C   0  0  0  0  0  0  0  0  0  0  0  0
   -2.9651   -0.3683   -0.5981 C   0  0  0  0  0  0  0  0  0  0  0  0
   -3.6822    0.5835    0.0349 C   0  0  0  0  0  0  0  0  0  0  0  0
   -3.2210    2.0085    0.1963 C   0  0  0  0  0  0  0  0  0  0  0  0
   -4.9734    0.2185    0.6162 C   0  0  0  0  0  0  0  0  0  0  0  0
   -5.8150    1.0249    1.2757 C   0  0  0  0  0  0  0  0  0  0  0  0
    1.3335    0.1793    1.4502 H   0  0  0  0  0  0  0  0  0  0  0  0
   -0.7846   -0.1220    0.6859 H   0  0  0  0  0  0  0  0  0  0  0  0
    0.1923    2.0220    0.0246 H   0  0  0  0  0  0  0  0  0  0  0  0
    0.2050    1.8569   -1.7288 H   0  0  0  0  0  0  0  0  0  0  0  0
    2.6437   -1.9108    1.7077 H   0  0  0  0  0  0  0  0  0  0  0  0
    2.5217   -2.2165   -0.0134 H   0  0  0  0  0  0  0  0  0  0  0  0
    3.9064    2.6321    0.2202 H   0  0  0  0  0  0  0  0  0  0  0  0
    2.4526    2.5266    1.1955 H   0  0  0  0  0  0  0  0  0  0  0  0
    2.6366    2.0788   -1.8129 H   0  0  0  0  0  0  0  0  0  0  0  0
    1.9017    3.4260   -0.9727 H   0  0  0  0  0  0  0  0  0  0  0  0
    1.6084   -1.5926   -1.9262 H   0  0  0  0  0  0  0  0  0  0  0  0
    0.6465   -0.3896   -2.7739 H   0  0  0  0  0  0  0  0  0  0  0  0
    2.2994   -0.0381   -2.3693 H   0  0  0  0  0  0  0  0  0  0  0  0
    0.2583   -2.0335    2.0360 H   0  0  0  0  0  0  0  0  0  0  0  0
    0.8102   -3.4667    1.1827 H   0  0  0  0  0  0  0  0  0  0  0  0
    4.4884   -1.0121   -0.2319 H   0  0  0  0  0  0  0  0  0  0  0  0
    4.0530    0.2208   -1.4214 H   0  0  0  0  0  0  0  0  0  0  0  0
    5.2604    0.5689   -0.2104 H   0  0  0  0  0  0  0  0  0  0  0  0
    4.2159   -0.5075    2.2464 H   0  0  0  0  0  0  0  0  0  0  0  0
    4.7205    1.1731    2.1062 H   0  0  0  0  0  0  0  0  0  0  0  0
    3.1377    0.7891    2.7891 H   0  0  0  0  0  0  0  0  0  0  0  0
   -1.5490    0.7947   -1.6442 H   0  0  0  0  0  0  0  0  0  0  0  0
   -1.6021   -0.8423   -2.1647 H   0  0  0  0  0  0  0  0  0  0  0  0
   -1.6769   -2.8843   -1.4587 H   0  0  0  0  0  0  0  0  0  0  0  0
   -0.7854   -4.0882   -0.3998 H   0  0  0  0  0  0  0  0  0  0  0  0
   -3.3858   -1.3717   -0.6566 H   0  0  0  0  0  0  0  0  0  0  0  0
   -3.1669    2.2775    1.2572 H   0  0  0  0  0  0  0  0  0  0  0  0
   -2.2290    2.1955   -0.2188 H   0  0  0  0  0  0  0  0  0  0  0  0
   -3.9119    2.6947   -0.3056 H   0  0  0  0  0  0  0  0  0  0  0  0
   -5.2825   -0.8192    0.4995 H   0  0  0  0  0  0  0  0  0  0  0  0
   -6.7501    0.6315    1.6618 H   0  0  0  0  0  0  0  0  0  0  0  0
   -5.6120    2.0751    1.4497 H   0  0  0  0  0  0  0  0  0  0  0  0
  1  2  1  0  0  0  0
  1  4  1  0  0  0  0
  1  5  1  0  0  0  0
  1  9  1  0  0  0  0
  2  3  1  0  0  0  0
  2  6  1  0  0  0  0
  2 21  1  0  0  0  0
  3  7  1  0  0  0  0
  3 12  1  0  0  0  0
  3 13  1  0  0  0  0
  4 11  1  0  0  0  0
  4 14  1  0  0  0  0
  4 22  1  0  0  0  0
  5  8  1  0  0  0  0
  5 23  1  0  0  0  0
  5 24  1  0  0  0  0
  6 10  1  0  0  0  0
  6 25  1  0  0  0  0
  6 26  1  0  0  0  0
  7  8  1  0  0  0  0
  7 27  1  0  0  0  0
  7 28  1  0  0  0  0
  8 29  1  0  0  0  0
  8 30  1  0  0  0  0
  9 31  1  0  0  0  0
  9 32  1  0  0  0  0
  9 33  1  0  0  0  0
 10 11  1  0  0  0  0
 10 34  1  0  0  0  0
 10 35  1  0  0  0  0
 11 15  2  0  0  0  0
 12 36  1  0  0  0  0
 12 37  1  0  0  0  0
 12 38  1  0  0  0  0
 13 39  1  0  0  0  0
 13 40  1  0  0  0  0
 13 41  1  0  0  0  0
 14 16  1  0  0  0  0
 14 42  1  0  0  0  0
 14 43  1  0  0  0  0
 15 44  1  0  0  0  0
 15 45  1  0  0  0  0
 16 17  2  0  0  0  0
 16 46  1  0  0  0  0
 17 18  1  0  0  0  0
 17 19  1  0  0  0  0
 18 47  1  0  0  0  0
 18 48  1  0  0  0  0
 18 49  1  0  0  0  0
 19 20  2  0  0  0  0
 19 50  1  0  0  0  0
 20 51  1  0  0  0  0
 20 52  1  0  0  0  0
M  END
> <PUBCHEM_COMPOUND_CID>
23252995

> <PUBCHEM_CONFORMER_RMSD>
0.6

> <PUBCHEM_CONFORMER_DIVERSEORDER>
1
12
19
20
16
6
17
9
2
14
18
8
5
15
13
3
7
4
10
11

> <PUBCHEM_MMFF94_PARTIAL_CHARGES>
16
10 0.14
11 -0.28
14 0.14
15 -0.3
16 -0.29
17 -0.14
18 0.14
19 -0.15
20 -0.3
4 0.14
44 0.15
45 0.15
46 0.15
50 0.15
51 0.15
52 0.15

> <PUBCHEM_EFFECTIVE_ROTOR_COUNT>
4.4

> <PUBCHEM_PHARMACOPHORE_FEATURES>
5
1 18 hydrophobe
1 20 hydrophobe
3 3 12 13 hydrophobe
6 1 2 3 5 7 8 rings
6 1 2 4 6 10 11 rings

> <PUBCHEM_HEAVY_ATOM_COUNT>
20

> <PUBCHEM_ATOM_DEF_STEREO_COUNT>
3

> <PUBCHEM_ATOM_UDEF_STEREO_COUNT>
0

> <PUBCHEM_BOND_DEF_STEREO_COUNT>
1

> <PUBCHEM_BOND_UDEF_STEREO_COUNT>
0

> <PUBCHEM_ISOTOPIC_ATOM_COUNT>
0

> <PUBCHEM_COMPONENT_COUNT>
1

> <PUBCHEM_CACTVS_TAUTO_COUNT>
1

> <PUBCHEM_CONFORMER_ID>
0162D00300000001

> <PUBCHEM_MMFF94_ENERGY>
64.7558

> <PUBCHEM_FEATURE_SELFOVERLAP>
25.388

> <PUBCHEM_SHAPE_FINGERPRINT>
10493431 412 18335414716393967008
10498660 4 16415203330697081289
11578080 2 17130135636688640928
11796584 16 12468635032773547065
12251169 10 18187085053220359815
12633257 1 18262220223143452840
12788726 201 17689440807289349831
12892183 10 17023171717453341565
13140716 1 18116986883255363288
13583140 156 16878483709894796549
14178342 30 18194097819976644770
14341114 328 18412266168544867809
14790565 3 18261118465433144956
14955137 171 17968104114114249300
15163728 17 16629401531118104552
15209294 21 18271793640389094009
15210252 30 15339121238661736939
15295992 7 18200593725592695361
15309172 13 18260536831912283231
15342816 4 7997977876886848385
15475509 8 18340221713102172452
1601671 61 18260831462621786844
16945 1 18189311577167404054
1798214 20 8718828678436307681
18186145 218 18342171154953241119
19377110 9 18343310271635055123
19591789 44 18192708934927092630
19784866 9 18410856538597756025
20157964 124 18265890260572956949
20261772 1 18333447664084636641
20510252 161 17831857224061578290
20626108 58 12468650456064189579
20739085 24 18191309273440520234
21041028 32 17974560304342494946
21250096 35 8358259233322561825
21501502 16 17900813057538256214
21503847 285 18413112753405777524
21524375 3 18341894129879153647
21637258 2 13912588447542528448
21731228 192 18410853287233705047
221357 26 10807937021299058803
22182313 1 17973139769953200302
23184049 59 18261382334884448550
2334 1 17682948148519972862
23557571 272 17702668907260816663
23558518 356 17975132355215610998
23559900 14 18060150824865296814
25147074 1 17898846009808840236
2637199 183 18410301306420840942
2748010 2 17756960365015618326
276578 36 18408604755552554382
2838139 119 16127225970773618680
3009799 131 12679458664853237130
38570 142 17679609949688299548
427121 178 18413672400376257259
4340502 62 18412833495323054475
465052 167 16877666755290705489
474 4 18411984659055255985
5104073 3 17972861825830296440
58807428 26 18335974333131188842
6333272 397 18409451405623677969
633830 44 18341609364735987308
7164475 11 17981600782122012374
7832392 63 18338229483457013214
960060 61 10015583887694783729
9999458 23 18186243943878393100

> <PUBCHEM_SHAPE_MULTIPOLES>
411.59
8.8
2.7
1.48
10.46
1.01
0.04
-4.81
4.04
-0.36
-0.06
-0.65
0.03
-0.73

> <PUBCHEM_SHAPE_SELFOVERLAP>
832.021

> <PUBCHEM_SHAPE_VOLUME>
240.9

> <PUBCHEM_COORDINATE_TYPE>
2
5
10

$$$$
