5487766
  -OEChem-09112006053D

 39 41  0     0  0  0  0  0  0999 V2000
    1.2925   -2.6140   -0.7754 S   0  0  0  0  0  0  0  0  0  0  0  0
   -1.0265    1.4074   -0.0543 O   0  0  0  0  0  0  0  0  0  0  0  0
    0.6825   -1.8117    0.4982 O   0  0  0  0  0  0  0  0  0  0  0  0
   -4.5508   -1.8747    0.4887 O   0  0  0  0  0  0  0  0  0  0  0  0
   -2.0123   -2.4922    0.5974 O   0  0  0  0  0  0  0  0  0  0  0  0
    4.6437    0.2790    1.3587 O   0  0  0  0  0  0  0  0  0  0  0  0
   -5.5899    2.6971   -0.2624 O   0  0  0  0  0  0  0  0  0  0  0  0
    5.1719    2.4879   -0.2434 O   0  0  0  0  0  0  0  0  0  0  0  0
    2.5030   -3.5053   -0.1397 O   0  0  0  0  0  0  0  0  0  0  0  0
    1.8757   -1.6620   -1.7029 O   0  0  0  0  0  0  0  0  0  0  0  0
    0.2642   -3.5334   -1.2265 O   0  0  0  0  0  0  0  0  0  0  0  0
   -2.7465   -0.2823    0.2251 C   0  0  0  0  0  0  0  0  0  0  0  0
   -0.0541    0.4313    0.0962 C   0  0  0  0  0  0  0  0  0  0  0  0
   -2.3439    1.0334    0.0076 C   0  0  0  0  0  0  0  0  0  0  0  0
   -0.3087   -0.8708    0.3202 C   0  0  0  0  0  0  0  0  0  0  0  0
    1.3162    0.9671    0.0094 C   0  0  0  0  0  0  0  0  0  0  0  0
   -1.7194   -1.3208    0.3981 C   0  0  0  0  0  0  0  0  0  0  0  0
   -4.1047   -0.6048    0.2793 C   0  0  0  0  0  0  0  0  0  0  0  0
   -3.2988    2.0373   -0.1564 C   0  0  0  0  0  0  0  0  0  0  0  0
    2.3480    0.3666    0.7313 C   0  0  0  0  0  0  0  0  0  0  0  0
    1.5820    2.0763   -0.7943 C   0  0  0  0  0  0  0  0  0  0  0  0
   -5.0580    0.4009    0.1145 C   0  0  0  0  0  0  0  0  0  0  0  0
   -4.6561    1.7194   -0.1027 C   0  0  0  0  0  0  0  0  0  0  0  0
    3.6445    0.8746    0.6497 C   0  0  0  0  0  0  0  0  0  0  0  0
    2.8784    2.5843   -0.8759 C   0  0  0  0  0  0  0  0  0  0  0  0
    3.9097    1.9835   -0.1542 C   0  0  0  0  0  0  0  0  0  0  0  0
    5.3576   -0.7738    0.7136 C   0  0  0  0  0  0  0  0  0  0  0  0
   -2.9880    3.0652   -0.3257 H   0  0  0  0  0  0  0  0  0  0  0  0
    2.1868   -0.4430    1.4355 H   0  0  0  0  0  0  0  0  0  0  0  0
    0.8003    2.5588   -1.3756 H   0  0  0  0  0  0  0  0  0  0  0  0
   -6.1157    0.1513    0.1565 H   0  0  0  0  0  0  0  0  0  0  0  0
    3.0791    3.4468   -1.5056 H   0  0  0  0  0  0  0  0  0  0  0  0
   -3.8048   -2.4865    0.5823 H   0  0  0  0  0  0  0  0  0  0  0  0
   -6.4758    2.3009   -0.1963 H   0  0  0  0  0  0  0  0  0  0  0  0
    5.7512    1.9781    0.3488 H   0  0  0  0  0  0  0  0  0  0  0  0
    5.8182   -0.4203   -0.2144 H   0  0  0  0  0  0  0  0  0  0  0  0
    4.6890   -1.6142    0.5034 H   0  0  0  0  0  0  0  0  0  0  0  0
    6.1474   -1.1156    1.3880 H   0  0  0  0  0  0  0  0  0  0  0  0
    2.2810   -3.9839    0.6932 H   0  0  0  0  0  0  0  0  0  0  0  0
  1  3  1  0  0  0  0
  1  9  1  0  0  0  0
  1 10  2  0  0  0  0
  1 11  2  0  0  0  0
  2 13  1  0  0  0  0
  2 14  1  0  0  0  0
  3 15  1  0  0  0  0
  4 18  1  0  0  0  0
  4 33  1  0  0  0  0
  5 17  2  0  0  0  0
  6 24  1  0  0  0  0
  6 27  1  0  0  0  0
  7 23  1  0  0  0  0
  7 34  1  0  0  0  0
  8 26  1  0  0  0  0
  8 35  1  0  0  0  0
  9 39  1  0  0  0  0
 12 14  1  0  0  0  0
 12 17  1  0  0  0  0
 12 18  2  0  0  0  0
 13 15  2  0  0  0  0
 13 16  1  0  0  0  0
 14 19  2  0  0  0  0
 15 17  1  0  0  0  0
 16 20  2  0  0  0  0
 16 21  1  0  0  0  0
 18 22  1  0  0  0  0
 19 23  1  0  0  0  0
 19 28  1  0  0  0  0
 20 24  1  0  0  0  0
 20 29  1  0  0  0  0
 21 25  2  0  0  0  0
 21 30  1  0  0  0  0
 22 23  2  0  0  0  0
 22 31  1  0  0  0  0
 24 26  2  0  0  0  0
 25 26  1  0  0  0  0
 25 32  1  0  0  0  0
 27 36  1  0  0  0  0
 27 37  1  0  0  0  0
 27 38  1  0  0  0  0
M  END
> <PUBCHEM_COMPOUND_CID>
5487766

> <PUBCHEM_CONFORMER_RMSD>
0.8

> <PUBCHEM_CONFORMER_DIVERSEORDER>
5
4
8
2
10
6
7
3
1
9

> <PUBCHEM_MMFF94_PARTIAL_CHARGES>
36
1 1.67
10 -0.65
11 -0.65
12 0.09
13 0.05
14 0.08
15 0.09
16 0.03
17 0.47
18 0.08
19 -0.15
2 -0.16
20 -0.15
21 -0.15
22 -0.15
23 0.08
24 0.08
25 -0.15
26 0.08
27 0.28
28 0.15
29 0.15
3 -0.26
30 0.15
31 0.15
32 0.15
33 0.45
34 0.45
35 0.45
39 0.5
4 -0.53
5 -0.57
6 -0.36
7 -0.53
8 -0.53
9 -0.68

> <PUBCHEM_EFFECTIVE_ROTOR_COUNT>
4

> <PUBCHEM_PHARMACOPHORE_FEATURES>
13
1 10 acceptor
1 11 acceptor
1 2 acceptor
1 4 donor
1 5 acceptor
1 6 acceptor
1 7 donor
1 8 donor
1 9 acceptor
4 1 9 10 11 anion
6 12 14 18 19 22 23 rings
6 16 20 21 24 25 26 rings
6 2 12 13 14 15 17 rings

> <PUBCHEM_HEAVY_ATOM_COUNT>
27

> <PUBCHEM_ATOM_DEF_STEREO_COUNT>
0

> <PUBCHEM_ATOM_UDEF_STEREO_COUNT>
0

> <PUBCHEM_BOND_DEF_STEREO_COUNT>
0

> <PUBCHEM_BOND_UDEF_STEREO_COUNT>
0

> <PUBCHEM_ISOTOPIC_ATOM_COUNT>
0

> <PUBCHEM_COMPONENT_COUNT>
1

> <PUBCHEM_CACTVS_TAUTO_COUNT>
69

> <PUBCHEM_CONFORMER_ID>
0053BC9600000005

> <PUBCHEM_MMFF94_ENERGY>
89.2763

> <PUBCHEM_FEATURE_SELFOVERLAP>
66.06

> <PUBCHEM_SHAPE_FINGERPRINT>
10411042 1 17399803090957026475
10616163 171 18264492956516891115
1100329 8 17190103721800011960
11963148 33 18193552505249449419
12107183 9 18116140087329496952
12236239 1 18040712623555085432
12422481 6 18334286540038341584
12592029 89 18411985779889012506
12633257 1 17968082110896598050
12788726 201 17764020668469863534
12839892 36 18339915008585543186
13140716 1 18335979860907254904
133893 2 17985014542651422002
13540713 4 18263096448486302187
138480 1 18050570633918419094
14790565 3 18265057023252084372
15042514 8 17832995218718016091
15196674 1 18334574671998408016
15536298 74 18341333275991046315
16752209 62 18125717031191420234
17349148 13 18411134757588342273
1813 80 16153701034049456812
18222031 100 12179841727505050937
18681886 176 18338516460561695488
20691752 17 17458629965219218795
20715895 44 18118394056582155613
21033648 144 18042392689748462509
21033648 29 17986935509829954136
21859007 373 17243285021146683981
22149856 69 18267612177528520305
22182313 1 18268732617472048007
23366157 5 18115030701329229219
23559900 14 18268431235115932159
3298306 158 18272091608230138406
335352 9 18334854978986535876
338550 245 18411136969971305734
350125 39 18336265764353852913
4017518 198 17989488512096444926
4093350 32 17202770272462393741
4214541 1 18333729143457035153
460360 51 18262819362433249529
474 4 18410572851438451145
495365 180 18059286565617727765
5104073 3 18260264182983174953
5265222 85 18195537119763565884
59755656 215 18339079263910871500
6138700 20 18338239237824004310
7364860 26 18269557152239352839
9709674 26 18408890620608281883
9862522 239 18339352080154073767
9981440 41 18337112370868674987

> <PUBCHEM_SHAPE_MULTIPOLES>
500.8
10.9
3.74
0.96
2.82
1.97
-0.15
-5.89
1.72
-1.07
-1.16
-0.74
0.3
0.33

> <PUBCHEM_SHAPE_SELFOVERLAP>
1095.642

> <PUBCHEM_SHAPE_VOLUME>
273.3

> <PUBCHEM_COORDINATE_TYPE>
2
5
10

$$$$
