637308
  -OEChem-09112006003D

 41 42  0     0  0  0  0  0  0999 V2000
    1.6563   -1.6759    0.5634 O   0  0  0  0  0  0  0  0  0  0  0  0
   -4.0001    2.5115    0.2100 O   0  0  0  0  0  0  0  0  0  0  0  0
    5.0060    3.3527   -1.2081 O   0  0  0  0  0  0  0  0  0  0  0  0
   -6.4705    1.2887   -0.1483 O   0  0  0  0  0  0  0  0  0  0  0  0
    0.6041   -3.3622   -0.6141 O   0  0  0  0  0  0  0  0  0  0  0  0
    3.9735   -1.6174    1.2543 C   0  0  0  0  0  0  0  0  0  0  0  0
    4.2494   -0.2877    0.5953 C   0  0  0  0  0  0  0  0  0  0  0  0
    2.8866   -2.4073    0.5335 C   0  0  0  0  0  0  0  0  0  0  0  0
    5.2134   -0.2085   -0.3970 C   0  0  0  0  0  0  0  0  0  0  0  0
    3.5341    0.8297    0.9954 C   0  0  0  0  0  0  0  0  0  0  0  0
    5.4687    1.0205   -1.0053 C   0  0  0  0  0  0  0  0  0  0  0  0
    3.7894    2.0587    0.3870 C   0  0  0  0  0  0  0  0  0  0  0  0
   -2.9822   -0.9528   -0.3593 C   0  0  0  0  0  0  0  0  0  0  0  0
    4.7568    2.1541   -0.6132 C   0  0  0  0  0  0  0  0  0  0  0  0
   -2.9120    0.4174   -0.1080 C   0  0  0  0  0  0  0  0  0  0  0  0
   -4.0815    1.1741   -0.0362 C   0  0  0  0  0  0  0  0  0  0  0  0
   -4.2220   -1.5664   -0.5388 C   0  0  0  0  0  0  0  0  0  0  0  0
   -1.7627   -1.7421   -0.4341 C   0  0  0  0  0  0  0  0  0  0  0  0
   -5.3212    0.5605   -0.2157 C   0  0  0  0  0  0  0  0  0  0  0  0
   -5.3915   -0.8098   -0.4670 C   0  0  0  0  0  0  0  0  0  0  0  0
    0.6027   -2.2791   -0.0508 C   0  0  0  0  0  0  0  0  0  0  0  0
   -0.5667   -1.3809    0.0815 C   0  0  0  0  0  0  0  0  0  0  0  0
   -4.0306    2.9222    1.5754 C   0  0  0  0  0  0  0  0  0  0  0  0
    3.6729   -1.4413    2.2953 H   0  0  0  0  0  0  0  0  0  0  0  0
    4.8962   -2.2090    1.2970 H   0  0  0  0  0  0  0  0  0  0  0  0
    2.7439   -3.3698    1.0383 H   0  0  0  0  0  0  0  0  0  0  0  0
    3.1736   -2.5900   -0.5092 H   0  0  0  0  0  0  0  0  0  0  0  0
    5.7715   -1.0862   -0.7103 H   0  0  0  0  0  0  0  0  0  0  0  0
    2.7788    0.7668    1.7736 H   0  0  0  0  0  0  0  0  0  0  0  0
    6.2230    1.0884   -1.7845 H   0  0  0  0  0  0  0  0  0  0  0  0
    3.2276    2.9342    0.7013 H   0  0  0  0  0  0  0  0  0  0  0  0
   -1.9647    0.9349    0.0168 H   0  0  0  0  0  0  0  0  0  0  0  0
   -4.2966   -2.6335   -0.7340 H   0  0  0  0  0  0  0  0  0  0  0  0
   -1.8564   -2.6997   -0.9420 H   0  0  0  0  0  0  0  0  0  0  0  0
   -6.3508   -1.3004   -0.6084 H   0  0  0  0  0  0  0  0  0  0  0  0
   -0.4140   -0.4529    0.6210 H   0  0  0  0  0  0  0  0  0  0  0  0
    4.4241    4.0261   -0.8156 H   0  0  0  0  0  0  0  0  0  0  0  0
   -7.2289    0.6980   -0.2960 H   0  0  0  0  0  0  0  0  0  0  0  0
   -3.1778    2.5046    2.1203 H   0  0  0  0  0  0  0  0  0  0  0  0
   -4.9674    2.6140    2.0502 H   0  0  0  0  0  0  0  0  0  0  0  0
   -3.9651    4.0132    1.6066 H   0  0  0  0  0  0  0  0  0  0  0  0
  1  8  1  0  0  0  0
  1 21  1  0  0  0  0
  2 16  1  0  0  0  0
  2 23  1  0  0  0  0
  3 14  1  0  0  0  0
  3 37  1  0  0  0  0
  4 19  1  0  0  0  0
  4 38  1  0  0  0  0
  5 21  2  0  0  0  0
  6  7  1  0  0  0  0
  6  8  1  0  0  0  0
  6 24  1  0  0  0  0
  6 25  1  0  0  0  0
  7  9  2  0  0  0  0
  7 10  1  0  0  0  0
  8 26  1  0  0  0  0
  8 27  1  0  0  0  0
  9 11  1  0  0  0  0
  9 28  1  0  0  0  0
 10 12  2  0  0  0  0
 10 29  1  0  0  0  0
 11 14  2  0  0  0  0
 11 30  1  0  0  0  0
 12 14  1  0  0  0  0
 12 31  1  0  0  0  0
 13 15  2  0  0  0  0
 13 17  1  0  0  0  0
 13 18  1  0  0  0  0
 15 16  1  0  0  0  0
 15 32  1  0  0  0  0
 16 19  2  0  0  0  0
 17 20  2  0  0  0  0
 17 33  1  0  0  0  0
 18 22  2  0  0  0  0
 18 34  1  0  0  0  0
 19 20  1  0  0  0  0
 20 35  1  0  0  0  0
 21 22  1  0  0  0  0
 22 36  1  0  0  0  0
 23 39  1  0  0  0  0
 23 40  1  0  0  0  0
 23 41  1  0  0  0  0
M  END
> <PUBCHEM_COMPOUND_CID>
637308

> <PUBCHEM_CONFORMER_RMSD>
0.8

> <PUBCHEM_CONFORMER_DIVERSEORDER>
1
270
148
225
45
5
238
127
31
255
176
210
241
204
249
35
86
118
159
108
73
56
227
273
64
69
201
256
22
167
179
3
198
41
169
218
144
149
135
239
221
82
283
200
261
285
29
8
77
103
119
266
79
202
196
278
7
173
20
163
30
281
62
80
2
170
243
254
12
234
189
280
132
23
192
72
107
153
19
99
191
139
264
125
245
154
113
89
18
219
145
136
87
161
26
112
174
168
275
260
66
6
24
70
268
28
209
110
101
276
259
25
279
172
54
257
68
42
115
105
58
157
84
160
114
111
16
226
33
46
75
190
61
124
71
208
67
44
284
128
240
229
133
14
78
21
15
166
217
272
116
237
90
194
215
181
250
155
236
94
122
129
228
100
91
165
213
17
232
286
271
143
104
244
83
137
49
27
32
109
4
81
134
262
141
76
63
274
156
206
38
223
158
50
96
11
235
246
40
164
57
263
53
13
65
140
121
95
9
151
98
55
93
51
212
265
146
92
102
120
182
258
171
74
185
60
184
205
175
10
231
48
106
230
152
36
37
88
220
117
123
39
207
199
97
216
193
247
214
277
267
248
180
147
242
126
197
162
211
187
142
34
224
52
59
269
203
150
138
195
251
253
252
188
131
85
183
186
47
178
282
43
130
233
177
222

> <PUBCHEM_MMFF94_PARTIAL_CHARGES>
34
1 -0.43
10 -0.15
11 -0.15
12 -0.15
13 0.03
14 0.08
15 -0.15
16 0.08
17 -0.15
18 -0.18
19 0.08
2 -0.36
20 -0.15
21 0.71
22 -0.14
23 0.28
28 0.15
29 0.15
3 -0.53
30 0.15
31 0.15
32 0.15
33 0.15
34 0.15
35 0.15
36 0.15
37 0.45
38 0.45
4 -0.53
5 -0.57
6 0.14
7 -0.14
8 0.28
9 -0.15

> <PUBCHEM_EFFECTIVE_ROTOR_COUNT>
7

> <PUBCHEM_PHARMACOPHORE_FEATURES>
6
1 2 acceptor
1 3 donor
1 4 donor
1 5 acceptor
6 13 15 16 17 19 20 rings
6 7 9 10 11 12 14 rings

> <PUBCHEM_HEAVY_ATOM_COUNT>
23

> <PUBCHEM_ATOM_DEF_STEREO_COUNT>
0

> <PUBCHEM_ATOM_UDEF_STEREO_COUNT>
0

> <PUBCHEM_BOND_DEF_STEREO_COUNT>
1

> <PUBCHEM_BOND_UDEF_STEREO_COUNT>
0

> <PUBCHEM_ISOTOPIC_ATOM_COUNT>
0

> <PUBCHEM_COMPONENT_COUNT>
1

> <PUBCHEM_CACTVS_TAUTO_COUNT>
6

> <PUBCHEM_CONFORMER_ID>
0009B97C00000001

> <PUBCHEM_MMFF94_ENERGY>
68.709

> <PUBCHEM_FEATURE_SELFOVERLAP>
30.447

> <PUBCHEM_SHAPE_FINGERPRINT>
100830 2 18269852946585229760
10670039 82 18413389826283706892
12107183 9 17906730298037297539
12596602 18 17749106686729202763
13398642 44 17750251355332243428
13878862 14 17970881450020574430
14251764 38 18410295778718861969
14251764 75 18116721901175076812
14429114 114 18339919415380705608
14528608 73 18411976987843050550
1454969 45 18270956956051092895
14790565 3 18411421700031845654
14840074 17 17749394796866143316
14848178 96 18335414677791917798
14849402 71 18114458981970656554
15142526 21 17968093183306898290
15183329 4 18272094889901728344
16120349 67 17680730404093270052
1768 23 18058187045854114489
17844677 252 18341615867464828731
20567600 9 18409174294639675862
21315764 268 18043523920183901135
21623110 236 18409730621748622041
22061861 79 13973963207573204027
23559900 14 17700124409600096079
245318 6 17896333578226044892
3472631 163 18412546521902293838
38570 142 18041288763832666126
474 4 18334292050339340930
5104073 3 17894625976269840011
54446538 1 18410288121040222690
54583773 228 18336260229111141103

> <PUBCHEM_SHAPE_MULTIPOLES>
443.98
16.33
3.72
1.05
3.82
0.82
-0.17
9.96
1.98
-1.29
-0.08
-0.68
0.4
-2.77

> <PUBCHEM_SHAPE_SELFOVERLAP>
939.56

> <PUBCHEM_SHAPE_VOLUME>
248

> <PUBCHEM_COORDINATE_TYPE>
2
5
10

$$$$
