54446769
  -OEChem-09112005533D

 44 46  0     1  0  0  0  0  0999 V2000
    1.7046   -0.5544    0.7349 O   0  0  0  0  0  0  0  0  0  0  0  0
    0.0720    1.1001    0.9389 O   0  0  0  0  0  0  0  0  0  0  0  0
    4.5502    2.2040   -0.3419 O   0  0  0  0  0  0  0  0  0  0  0  0
    5.0021   -0.6041   -0.8577 O   0  0  0  0  0  0  0  0  0  0  0  0
    1.6864    2.8506   -0.5899 O   0  0  0  0  0  0  0  0  0  0  0  0
    2.0702   -3.2760    0.6151 O   0  0  0  0  0  0  0  0  0  0  0  0
   -2.1070    2.8223    0.1216 O   0  0  0  0  0  0  0  0  0  0  0  0
   -4.2902    1.9880   -0.4666 O   0  0  0  0  0  0  0  0  0  0  0  0
    3.5026    1.2616   -0.5758 C   0  0  1  0  0  0  0  0  0  0  0  0
    3.9565   -0.0941   -0.0346 C   0  0  1  0  0  0  0  0  0  0  0  0
    2.2265    1.7361    0.1198 C   0  0  2  0  0  0  0  0  0  0  0  0
    2.7940   -1.0895   -0.0187 C   0  0  1  0  0  0  0  0  0  0  0  0
    1.1691    0.6326    0.1547 C   0  0  1  0  0  0  0  0  0  0  0  0
    3.1928   -2.4133    0.6259 C   0  0  0  0  0  0  0  0  0  0  0  0
   -1.1660    0.6224    0.6059 C   0  0  0  0  0  0  0  0  0  0  0  0
   -2.1863    1.4672    0.2199 C   0  0  0  0  0  0  0  0  0  0  0  0
   -1.4386   -0.7471    0.6465 C   0  0  0  0  0  0  0  0  0  0  0  0
   -3.4329    0.9908   -0.1158 C   0  0  0  0  0  0  0  0  0  0  0  0
   -2.7124   -1.2337    0.3036 C   0  0  0  0  0  0  0  0  0  0  0  0
   -3.7280   -0.3566   -0.0840 C   0  0  0  0  0  0  0  0  0  0  0  0
   -2.9802   -2.7009    0.3544 C   0  0  0  0  0  0  0  0  0  0  0  0
   -3.4435    3.1455   -0.3139 C   0  0  0  0  0  0  0  0  0  0  0  0
   -2.6845   -3.3992   -0.9472 C   0  0  0  0  0  0  0  0  0  0  0  0
   -1.7574   -4.3523   -1.0950 C   0  0  0  0  0  0  0  0  0  0  0  0
    3.3647    1.2222   -1.6627 H   0  0  0  0  0  0  0  0  0  0  0  0
    4.3665    0.0308    0.9751 H   0  0  0  0  0  0  0  0  0  0  0  0
    2.4496    2.0856    1.1348 H   0  0  0  0  0  0  0  0  0  0  0  0
    2.4419   -1.3015   -1.0376 H   0  0  0  0  0  0  0  0  0  0  0  0
    0.8211    0.4189   -0.8669 H   0  0  0  0  0  0  0  0  0  0  0  0
    3.4892   -2.2652    1.6697 H   0  0  0  0  0  0  0  0  0  0  0  0
    4.0111   -2.8946    0.0820 H   0  0  0  0  0  0  0  0  0  0  0  0
    4.6847    2.2746    0.6186 H   0  0  0  0  0  0  0  0  0  0  0  0
    4.6446   -0.7316   -1.7530 H   0  0  0  0  0  0  0  0  0  0  0  0
    1.4773    2.5600   -1.4940 H   0  0  0  0  0  0  0  0  0  0  0  0
   -0.6703   -1.4498    0.9581 H   0  0  0  0  0  0  0  0  0  0  0  0
    2.3445   -4.1098    1.0333 H   0  0  0  0  0  0  0  0  0  0  0  0
   -4.7158   -0.7153   -0.3530 H   0  0  0  0  0  0  0  0  0  0  0  0
   -4.0329   -2.8776    0.6110 H   0  0  0  0  0  0  0  0  0  0  0  0
   -2.4078   -3.1510    1.1764 H   0  0  0  0  0  0  0  0  0  0  0  0
   -3.3825    3.6653   -1.2770 H   0  0  0  0  0  0  0  0  0  0  0  0
   -3.8988    3.8189    0.4214 H   0  0  0  0  0  0  0  0  0  0  0  0
   -3.2783   -3.1153   -1.8127 H   0  0  0  0  0  0  0  0  0  0  0  0
   -1.6002   -4.8210   -2.0603 H   0  0  0  0  0  0  0  0  0  0  0  0
   -1.1419   -4.6780   -0.2638 H   0  0  0  0  0  0  0  0  0  0  0  0
  1 12  1  0  0  0  0
  1 13  1  0  0  0  0
  2 13  1  0  0  0  0
  2 15  1  0  0  0  0
  3  9  1  0  0  0  0
  3 32  1  0  0  0  0
  4 10  1  0  0  0  0
  4 33  1  0  0  0  0
  5 11  1  0  0  0  0
  5 34  1  0  0  0  0
  6 14  1  0  0  0  0
  6 36  1  0  0  0  0
  7 16  1  0  0  0  0
  7 22  1  0  0  0  0
  8 18  1  0  0  0  0
  8 22  1  0  0  0  0
  9 10  1  0  0  0  0
  9 11  1  0  0  0  0
  9 25  1  0  0  0  0
 10 12  1  0  0  0  0
 10 26  1  0  0  0  0
 11 13  1  0  0  0  0
 11 27  1  0  0  0  0
 12 14  1  0  0  0  0
 12 28  1  0  0  0  0
 13 29  1  0  0  0  0
 14 30  1  0  0  0  0
 14 31  1  0  0  0  0
 15 16  1  0  0  0  0
 15 17  2  0  0  0  0
 16 18  2  0  0  0  0
 17 19  1  0  0  0  0
 17 35  1  0  0  0  0
 18 20  1  0  0  0  0
 19 20  2  0  0  0  0
 19 21  1  0  0  0  0
 20 37  1  0  0  0  0
 21 23  1  0  0  0  0
 21 38  1  0  0  0  0
 21 39  1  0  0  0  0
 22 40  1  0  0  0  0
 22 41  1  0  0  0  0
 23 24  2  0  0  0  0
 23 42  1  0  0  0  0
 24 43  1  0  0  0  0
 24 44  1  0  0  0  0
M  END
> <PUBCHEM_COMPOUND_CID>
54446769

> <PUBCHEM_CONFORMER_RMSD>
0.8

> <PUBCHEM_CONFORMER_DIVERSEORDER>
1
181
110
53
122
134
214
175
22
153
150
167
196
126
57
81
114
63
102
131
84
18
156
31
136
211
51
177
160
183
142
145
133
8
204
112
95
28
197
68
107
33
98
20
116
148
208
79
184
141
21
82
6
19
205
162
37
47
138
199
23
14
91
210
186
128
59
3
25
70
62
166
188
12
61
129
44
200
154
161
123
30
13
15
99
140
93
157
72
206
35
17
174
164
64
121
83
118
74
29
178
88
202
108
213
137
125
165
5
185
11
41
105
27
201
66
92
58
69
104
24
187
149
111
147
89
169
152
212
2
127
9
78
43
155
143
54
130
90
124
216
101
117
96
34
26
173
10
144
132
159
4
49
50
198
73
109
119
16
52
158
191
97
115
40
55
179
203
151
146
209
85
135
172
71
100
163
86
168
65
48
113
39
80
7
75
139
171
32
87
194
60
120
106
42
176
103
189
193
170
77
67
46
182
36
207
38
56
190
192
94
195
45
76
215
180

> <PUBCHEM_MMFF94_PARTIAL_CHARGES>
33
1 -0.56
10 0.28
11 0.28
12 0.28
13 0.56
14 0.28
15 0.08
16 0.08
17 -0.15
18 0.08
19 -0.14
2 -0.36
20 -0.15
21 0.28
22 0.56
23 -0.29
24 -0.3
3 -0.68
32 0.4
33 0.4
34 0.4
35 0.15
36 0.4
37 0.15
4 -0.68
42 0.15
43 0.15
44 0.15
5 -0.68
6 -0.68
7 -0.36
8 -0.36
9 0.28

> <PUBCHEM_EFFECTIVE_ROTOR_COUNT>
6.8

> <PUBCHEM_PHARMACOPHORE_FEATURES>
16
1 1 acceptor
1 2 acceptor
1 24 hydrophobe
1 3 acceptor
1 3 donor
1 4 acceptor
1 4 donor
1 5 acceptor
1 5 donor
1 6 acceptor
1 6 donor
1 7 acceptor
1 8 acceptor
5 7 8 16 18 22 rings
6 1 9 10 11 12 13 rings
6 15 16 17 18 19 20 rings

> <PUBCHEM_HEAVY_ATOM_COUNT>
24

> <PUBCHEM_ATOM_DEF_STEREO_COUNT>
5

> <PUBCHEM_ATOM_UDEF_STEREO_COUNT>
0

> <PUBCHEM_BOND_DEF_STEREO_COUNT>
0

> <PUBCHEM_BOND_UDEF_STEREO_COUNT>
0

> <PUBCHEM_ISOTOPIC_ATOM_COUNT>
0

> <PUBCHEM_COMPONENT_COUNT>
1

> <PUBCHEM_CACTVS_TAUTO_COUNT>
1

> <PUBCHEM_CONFORMER_ID>
033ECAB100000001

> <PUBCHEM_MMFF94_ENERGY>
68.5921

> <PUBCHEM_FEATURE_SELFOVERLAP>
81.419

> <PUBCHEM_SHAPE_FINGERPRINT>
10074138 170 16110885260937532944
10616163 171 18411139147039923355
12173636 292 18338790114228691965
12553582 1 17978501267850049091
12788726 201 18263632026249480843
13583140 156 17988914630628055376
13631057 29 18055917838326532812
13690498 29 18267324177563050574
138480 1 17043170464374532295
14117953 113 17762894364677976094
14178342 30 18266156457580388314
14790565 3 18124038927793927905
15442244 35 18192149296113862328
17492 89 18407761434503416579
19930381 70 17546163000639762559
20775438 99 17335853184404080861
21133410 171 17403396127142215478
21133410 221 14661271942139773419
21344244 246 17764852612625895391
22113638 7 17978496551448664523
221490 88 18337681935287866600
22393880 68 18411144645256899870
23558518 356 17967821599212225562
23559900 14 18340761551551678800
350125 39 18337957771347473329
463206 1 17833271204779380335
5104073 3 18408606959134769144
5309563 4 17759809538920092555
532947 4 17548697383711023567
543358 83 18191873327533021520
58051976 100 18335987493074202069
633830 44 17167870781106616872
9709674 26 18412830170169093166

> <PUBCHEM_SHAPE_MULTIPOLES>
446.95
8.9
4.82
0.88
5.59
3.09
0.04
-1.29
1.56
-3.45
1.15
0.01
0.35
-0.88

> <PUBCHEM_SHAPE_SELFOVERLAP>
951.48

> <PUBCHEM_SHAPE_VOLUME>
246.3

> <PUBCHEM_COORDINATE_TYPE>
2
5
10

$$$$
