5362889
  -OEChem-09112003093D

 39 38  0     0  0  0  0  0  0999 V2000
    2.7489   -1.3309   -0.7207 C   0  0  0  0  0  0  0  0  0  0  0  0
    3.2031    0.0465   -0.2160 C   0  0  0  0  0  0  0  0  0  0  0  0
    1.4195   -1.7911   -0.1590 C   0  0  0  0  0  0  0  0  0  0  0  0
    0.2228   -1.6176   -0.7548 C   0  0  0  0  0  0  0  0  0  0  0  0
    2.3045    1.1599   -0.6780 C   0  0  0  0  0  0  0  0  0  0  0  0
   -1.1334   -2.0758   -0.2924 C   0  0  0  0  0  0  0  0  0  0  0  0
    1.4965   -2.5348    1.1515 C   0  0  0  0  0  0  0  0  0  0  0  0
    1.6768    2.0905    0.0656 C   0  0  0  0  0  0  0  0  0  0  0  0
   -1.7297   -1.1231    0.7077 C   0  0  0  0  0  0  0  0  0  0  0  0
    0.8255    3.1438   -0.5928 C   0  0  0  0  0  0  0  0  0  0  0  0
    1.7347    2.1955    1.5628 C   0  0  0  0  0  0  0  0  0  0  0  0
   -2.6089   -0.1209    0.4951 C   0  0  0  0  0  0  0  0  0  0  0  0
   -3.1380    0.7863    1.5749 C   0  0  0  0  0  0  0  0  0  0  0  0
   -3.0787    0.1158   -0.8706 C   0  0  0  0  0  0  0  0  0  0  0  0
   -3.9438    1.0557   -1.2730 C   0  0  0  0  0  0  0  0  0  0  0  0
    2.6896   -1.3121   -1.8175 H   0  0  0  0  0  0  0  0  0  0  0  0
    3.5195   -2.0754   -0.4837 H   0  0  0  0  0  0  0  0  0  0  0  0
    3.3104    0.0161    0.8711 H   0  0  0  0  0  0  0  0  0  0  0  0
    4.2057    0.2439   -0.6159 H   0  0  0  0  0  0  0  0  0  0  0  0
    0.2134   -1.0779   -1.7015 H   0  0  0  0  0  0  0  0  0  0  0  0
    2.1819    1.2099   -1.7599 H   0  0  0  0  0  0  0  0  0  0  0  0
   -1.7731   -2.2462   -1.1633 H   0  0  0  0  0  0  0  0  0  0  0  0
   -1.0694   -3.0691    0.1680 H   0  0  0  0  0  0  0  0  0  0  0  0
    0.5342   -2.8225    1.5776 H   0  0  0  0  0  0  0  0  0  0  0  0
    2.0829   -3.4511    1.0237 H   0  0  0  0  0  0  0  0  0  0  0  0
    1.9984   -1.9125    1.9005 H   0  0  0  0  0  0  0  0  0  0  0  0
   -1.3875   -1.2708    1.7319 H   0  0  0  0  0  0  0  0  0  0  0  0
   -0.2065    3.0755   -0.2329 H   0  0  0  0  0  0  0  0  0  0  0  0
    0.8029    3.0420   -1.6830 H   0  0  0  0  0  0  0  0  0  0  0  0
    1.2102    4.1423   -0.3607 H   0  0  0  0  0  0  0  0  0  0  0  0
    0.7268    2.1101    1.9828 H   0  0  0  0  0  0  0  0  0  0  0  0
    2.3475    1.4263    2.0358 H   0  0  0  0  0  0  0  0  0  0  0  0
    2.1476    3.1668    1.8553 H   0  0  0  0  0  0  0  0  0  0  0  0
   -2.8697    1.8295    1.3762 H   0  0  0  0  0  0  0  0  0  0  0  0
   -2.7188    0.5253    2.5530 H   0  0  0  0  0  0  0  0  0  0  0  0
   -4.2270    0.7045    1.6570 H   0  0  0  0  0  0  0  0  0  0  0  0
   -2.6861   -0.5046   -1.6697 H   0  0  0  0  0  0  0  0  0  0  0  0
   -4.2056    1.1381   -2.3233 H   0  0  0  0  0  0  0  0  0  0  0  0
   -4.4108    1.7578   -0.5922 H   0  0  0  0  0  0  0  0  0  0  0  0
  1  2  1  0  0  0  0
  1  3  1  0  0  0  0
  1 16  1  0  0  0  0
  1 17  1  0  0  0  0
  2  5  1  0  0  0  0
  2 18  1  0  0  0  0
  2 19  1  0  0  0  0
  3  4  2  0  0  0  0
  3  7  1  0  0  0  0
  4  6  1  0  0  0  0
  4 20  1  0  0  0  0
  5  8  2  0  0  0  0
  5 21  1  0  0  0  0
  6  9  1  0  0  0  0
  6 22  1  0  0  0  0
  6 23  1  0  0  0  0
  7 24  1  0  0  0  0
  7 25  1  0  0  0  0
  7 26  1  0  0  0  0
  8 10  1  0  0  0  0
  8 11  1  0  0  0  0
  9 12  2  0  0  0  0
  9 27  1  0  0  0  0
 10 28  1  0  0  0  0
 10 29  1  0  0  0  0
 10 30  1  0  0  0  0
 11 31  1  0  0  0  0
 11 32  1  0  0  0  0
 11 33  1  0  0  0  0
 12 13  1  0  0  0  0
 12 14  1  0  0  0  0
 13 34  1  0  0  0  0
 13 35  1  0  0  0  0
 13 36  1  0  0  0  0
 14 15  2  0  0  0  0
 14 37  1  0  0  0  0
 15 38  1  0  0  0  0
 15 39  1  0  0  0  0
M  END
> <PUBCHEM_COMPOUND_CID>
5362889

> <PUBCHEM_CONFORMER_RMSD>
0.8

> <PUBCHEM_CONFORMER_DIVERSEORDER>
1
4
294
65
280
262
113
176
70
171
184
37
279
83
192
246
121
78
112
240
102
194
86
267
225
126
125
73
154
22
224
205
107
274
271
220
209
200
130
218
146
165
243
283
87
69
201
158
18
94
197
185
291
155
157
213
203
30
253
32
38
231
82
50
122
212
235
223
54
35
264
281
250
208
116
119
93
237
232
49
127
181
277
297
59
20
222
300
219
46
263
79
151
178
204
28
273
227
257
226
259
81
241
41
265
156
123
76
210
233
252
190
172
75
244
292
13
26
221
132
239
114
182
258
286
124
187
211
44
39
173
8
275
247
71
53
285
186
61
145
131
153
100
109
217
206
117
180
136
104
92
89
255
266
149
2
115
66
198
140
133
110
111
103
21
51
3
10
95
108
169
74
254
106
68
166
141
284
139
302
234
202
228
137
19
43
144
191
90
55
236
45
167
278
85
128
98
260
15
177
99
84
58
77
164
242
150
48
14
174
160
5
298
6
230
101
7
63
168
214
245
142
40
189
261
56
238
47
195
170
12
207
196
31
97
248
129
175
215
288
229
120
42
159
290
269
282
11
188
287
25
183
105
60
80
251
163
249
179
289
118
276
270
64
193
27
143
138
29
17
36
161
135
148
34
33
199
96
295
57
52
256
293
268
24
23
16
72
88
91
67
134
62
147
299
272
296
162
9
216
152
301

> <PUBCHEM_MMFF94_PARTIAL_CHARGES>
21
1 0.14
10 0.14
11 0.14
12 -0.14
13 0.14
14 -0.15
15 -0.3
2 0.14
20 0.15
21 0.15
27 0.15
3 -0.28
37 0.15
38 0.15
39 0.15
4 -0.29
5 -0.29
6 0.28
7 0.14
8 -0.28
9 -0.29

> <PUBCHEM_EFFECTIVE_ROTOR_COUNT>
6

> <PUBCHEM_PHARMACOPHORE_FEATURES>
5
1 13 hydrophobe
1 15 hydrophobe
1 7 hydrophobe
3 8 10 11 hydrophobe
4 1 2 3 5 hydrophobe

> <PUBCHEM_HEAVY_ATOM_COUNT>
15

> <PUBCHEM_ATOM_DEF_STEREO_COUNT>
0

> <PUBCHEM_ATOM_UDEF_STEREO_COUNT>
0

> <PUBCHEM_BOND_DEF_STEREO_COUNT>
2

> <PUBCHEM_BOND_UDEF_STEREO_COUNT>
0

> <PUBCHEM_ISOTOPIC_ATOM_COUNT>
0

> <PUBCHEM_COMPONENT_COUNT>
1

> <PUBCHEM_CACTVS_TAUTO_COUNT>
1

> <PUBCHEM_CONFORMER_ID>
0051D4C900000001

> <PUBCHEM_MMFF94_ENERGY>
19.5218

> <PUBCHEM_FEATURE_SELFOVERLAP>
25.381

> <PUBCHEM_SHAPE_FINGERPRINT>
10366900 7 17677634071252609651
104564 63 17979646636653207596
12654215 9 18335700503528347030
128993 33 17977685408261774561
13294875 104 18261938692237455906
13618510 140 18195813083426674004
14251745 187 18190734241676147269
14251757 17 17335108827611516916
14386348 128 18192730044163792908
14713325 29 16526978888181660764
18219364 16 18335149691120816627
18981168 100 18268702990586848819
192875 21 18127393584734402035
20233049 118 18259987037749625398
20606313 2 18338792312871723695
21524375 3 18194689387007034734
21639500 275 18341324535616645639
22749437 52 18198334255051964321
2803657 2 17916887723951843464
3524813 1 18114457868803506669
57100710 29 17559125263531121465
5939293 188 18411978044568366708
6438718 38 17482546387306441597
7832392 63 18272380775588585422
8050 44 18196649807575032437
81228 2 17257938087327560491

> <PUBCHEM_SHAPE_MULTIPOLES>
308.69
5.94
3.4
1.38
4.21
1
-0.38
1.35
0.8
-2.21
-0.26
0.59
0.33
0.29

> <PUBCHEM_SHAPE_SELFOVERLAP>
581.89

> <PUBCHEM_SHAPE_VOLUME>
193

> <PUBCHEM_COORDINATE_TYPE>
2
5
10

$$$$
