14283236
  -OEChem-09012014403D

 75 78  0     1  0  0  0  0  0999 V2000
    6.8551   -0.4566   -2.4235 O   0  0  0  0  0  0  0  0  0  0  0  0
   -0.2694   -0.2958    0.5814 C   0  0  1  0  0  0  0  0  0  0  0  0
    0.5434    0.8943    0.0269 C   0  0  2  0  0  0  0  0  0  0  0  0
    1.9596    0.9720    0.6080 C   0  0  1  0  0  0  0  0  0  0  0  0
    2.7179   -0.3477    0.2518 C   0  0  1  0  0  0  0  0  0  0  0  0
    4.2003   -0.3312    0.7769 C   0  0  2  0  0  0  0  0  0  0  0  0
   -1.6108   -0.0394   -0.1480 C   0  0  2  0  0  0  0  0  0  0  0  0
    0.4506   -1.5876    0.1706 C   0  0  0  0  0  0  0  0  0  0  0  0
    1.9099   -1.6078    0.6622 C   0  0  0  0  0  0  0  0  0  0  0  0
    4.9317    0.9413    0.2292 C   0  0  2  0  0  0  0  0  0  0  0  0
   -0.3969    2.0833    0.2004 C   0  0  0  0  0  0  0  0  0  0  0  0
    2.7115    2.2058    0.0909 C   0  0  0  0  0  0  0  0  0  0  0  0
   -1.7983    1.4922   -0.0405 C   0  0  0  0  0  0  0  0  0  0  0  0
    4.1658    2.2349    0.5552 C   0  0  0  0  0  0  0  0  0  0  0  0
    5.0109   -1.5855    0.3366 C   0  0  0  0  0  0  0  0  0  0  0  0
   -0.4580   -0.2726    2.1191 C   0  0  0  0  0  0  0  0  0  0  0  0
   -2.8183   -0.8201    0.3506 C   0  0  2  0  0  0  0  0  0  0  0  0
    4.2437   -0.3207    2.3279 C   0  0  0  0  0  0  0  0  0  0  0  0
    5.2191    0.8704   -1.2826 C   0  0  0  0  0  0  0  0  0  0  0  0
    5.2365   -1.6895   -1.1633 C   0  0  0  0  0  0  0  0  0  0  0  0
    5.8891   -0.4271   -1.6627 C   0  0  0  0  0  0  0  0  0  0  0  0
   -2.5815   -2.3271    0.2264 C   0  0  0  0  0  0  0  0  0  0  0  0
   -4.0538   -0.4268   -0.4224 C   0  0  0  0  0  0  0  0  0  0  0  0
   -5.1440    0.1183    0.1394 C   0  0  0  0  0  0  0  0  0  0  0  0
   -6.3770    0.5251   -0.6375 C   0  0  1  0  0  0  0  0  0  0  0  0
   -7.6337   -0.2528   -0.1528 C   0  0  0  0  0  0  0  0  0  0  0  0
   -6.5410    2.0440   -0.5086 C   0  0  0  0  0  0  0  0  0  0  0  0
   -7.4667   -1.7703   -0.2963 C   0  0  0  0  0  0  0  0  0  0  0  0
   -8.8957    0.1770   -0.9152 C   0  0  0  0  0  0  0  0  0  0  0  0
    0.6594    0.7582   -1.0617 H   0  0  0  0  0  0  0  0  0  0  0  0
    1.8882    1.0740    1.6954 H   0  0  0  0  0  0  0  0  0  0  0  0
    2.7607   -0.3846   -0.8456 H   0  0  0  0  0  0  0  0  0  0  0  0
   -1.4688   -0.2685   -1.2164 H   0  0  0  0  0  0  0  0  0  0  0  0
    0.4479   -1.6918   -0.9221 H   0  0  0  0  0  0  0  0  0  0  0  0
   -0.0274   -2.4820    0.5721 H   0  0  0  0  0  0  0  0  0  0  0  0
    1.9191   -1.7299    1.7497 H   0  0  0  0  0  0  0  0  0  0  0  0
    2.3833   -2.5043    0.2468 H   0  0  0  0  0  0  0  0  0  0  0  0
    5.9099    1.0074    0.7281 H   0  0  0  0  0  0  0  0  0  0  0  0
   -0.1773    2.8863   -0.5106 H   0  0  0  0  0  0  0  0  0  0  0  0
   -0.3284    2.5057    1.2092 H   0  0  0  0  0  0  0  0  0  0  0  0
    2.2158    3.1184    0.4434 H   0  0  0  0  0  0  0  0  0  0  0  0
    2.6702    2.2395   -1.0041 H   0  0  0  0  0  0  0  0  0  0  0  0
   -2.4587    1.7753    0.7871 H   0  0  0  0  0  0  0  0  0  0  0  0
   -2.2348    1.8941   -0.9618 H   0  0  0  0  0  0  0  0  0  0  0  0
    4.6723    3.0944    0.0990 H   0  0  0  0  0  0  0  0  0  0  0  0
    4.1914    2.4140    1.6367 H   0  0  0  0  0  0  0  0  0  0  0  0
    4.5377   -2.5056    0.6971 H   0  0  0  0  0  0  0  0  0  0  0  0
    5.9973   -1.5533    0.8217 H   0  0  0  0  0  0  0  0  0  0  0  0
   -0.9856   -1.1655    2.4696 H   0  0  0  0  0  0  0  0  0  0  0  0
    0.4920   -0.2493    2.6595 H   0  0  0  0  0  0  0  0  0  0  0  0
   -1.0319    0.5961    2.4569 H   0  0  0  0  0  0  0  0  0  0  0  0
   -2.9987   -0.5996    1.4103 H   0  0  0  0  0  0  0  0  0  0  0  0
    3.8553   -1.2548    2.7469 H   0  0  0  0  0  0  0  0  0  0  0  0
    5.2746   -0.2172    2.6874 H   0  0  0  0  0  0  0  0  0  0  0  0
    3.6712    0.4991    2.7676 H   0  0  0  0  0  0  0  0  0  0  0  0
    5.8809    1.6965   -1.5686 H   0  0  0  0  0  0  0  0  0  0  0  0
    4.3112    0.9555   -1.8874 H   0  0  0  0  0  0  0  0  0  0  0  0
    4.3022   -1.8460   -1.7102 H   0  0  0  0  0  0  0  0  0  0  0  0
    5.8961   -2.5372   -1.3780 H   0  0  0  0  0  0  0  0  0  0  0  0
   -2.1002   -2.5967   -0.7197 H   0  0  0  0  0  0  0  0  0  0  0  0
   -3.5334   -2.8718    0.2669 H   0  0  0  0  0  0  0  0  0  0  0  0
   -1.9944   -2.7121    1.0628 H   0  0  0  0  0  0  0  0  0  0  0  0
   -4.0401   -0.6005   -1.4962 H   0  0  0  0  0  0  0  0  0  0  0  0
   -5.1599    0.2927    1.2130 H   0  0  0  0  0  0  0  0  0  0  0  0
   -6.2235    0.3010   -1.7022 H   0  0  0  0  0  0  0  0  0  0  0  0
   -7.7993   -0.0362    0.9114 H   0  0  0  0  0  0  0  0  0  0  0  0
   -7.3033    2.4217   -1.1971 H   0  0  0  0  0  0  0  0  0  0  0  0
   -5.6072    2.5638   -0.7536 H   0  0  0  0  0  0  0  0  0  0  0  0
   -6.8278    2.3310    0.5093 H   0  0  0  0  0  0  0  0  0  0  0  0
   -8.3773   -2.2935    0.0157 H   0  0  0  0  0  0  0  0  0  0  0  0
   -7.2571   -2.0483   -1.3349 H   0  0  0  0  0  0  0  0  0  0  0  0
   -6.6510   -2.1465    0.3290 H   0  0  0  0  0  0  0  0  0  0  0  0
   -8.7622    0.0665   -1.9967 H   0  0  0  0  0  0  0  0  0  0  0  0
   -9.7566   -0.4316   -0.6173 H   0  0  0  0  0  0  0  0  0  0  0  0
   -9.1556    1.2185   -0.7040 H   0  0  0  0  0  0  0  0  0  0  0  0
  1 21  2  0  0  0  0
  2  3  1  0  0  0  0
  2  7  1  0  0  0  0
  2  8  1  0  0  0  0
  2 16  1  0  0  0  0
  3  4  1  0  0  0  0
  3 11  1  0  0  0  0
  3 30  1  0  0  0  0
  4  5  1  0  0  0  0
  4 12  1  0  0  0  0
  4 31  1  0  0  0  0
  5  6  1  0  0  0  0
  5  9  1  0  0  0  0
  5 32  1  0  0  0  0
  6 10  1  0  0  0  0
  6 15  1  0  0  0  0
  6 18  1  0  0  0  0
  7 13  1  0  0  0  0
  7 17  1  0  0  0  0
  7 33  1  0  0  0  0
  8  9  1  0  0  0  0
  8 34  1  0  0  0  0
  8 35  1  0  0  0  0
  9 36  1  0  0  0  0
  9 37  1  0  0  0  0
 10 14  1  0  0  0  0
 10 19  1  0  0  0  0
 10 38  1  0  0  0  0
 11 13  1  0  0  0  0
 11 39  1  0  0  0  0
 11 40  1  0  0  0  0
 12 14  1  0  0  0  0
 12 41  1  0  0  0  0
 12 42  1  0  0  0  0
 13 43  1  0  0  0  0
 13 44  1  0  0  0  0
 14 45  1  0  0  0  0
 14 46  1  0  0  0  0
 15 20  1  0  0  0  0
 15 47  1  0  0  0  0
 15 48  1  0  0  0  0
 16 49  1  0  0  0  0
 16 50  1  0  0  0  0
 16 51  1  0  0  0  0
 17 22  1  0  0  0  0
 17 23  1  0  0  0  0
 17 52  1  0  0  0  0
 18 53  1  0  0  0  0
 18 54  1  0  0  0  0
 18 55  1  0  0  0  0
 19 21  1  0  0  0  0
 19 56  1  0  0  0  0
 19 57  1  0  0  0  0
 20 21  1  0  0  0  0
 20 58  1  0  0  0  0
 20 59  1  0  0  0  0
 22 60  1  0  0  0  0
 22 61  1  0  0  0  0
 22 62  1  0  0  0  0
 23 24  2  0  0  0  0
 23 63  1  0  0  0  0
 24 25  1  0  0  0  0
 24 64  1  0  0  0  0
 25 26  1  0  0  0  0
 25 27  1  0  0  0  0
 25 65  1  0  0  0  0
 26 28  1  0  0  0  0
 26 29  1  0  0  0  0
 26 66  1  0  0  0  0
 27 67  1  0  0  0  0
 27 68  1  0  0  0  0
 27 69  1  0  0  0  0
 28 70  1  0  0  0  0
 28 71  1  0  0  0  0
 28 72  1  0  0  0  0
 29 73  1  0  0  0  0
 29 74  1  0  0  0  0
 29 75  1  0  0  0  0
M  END
> <PUBCHEM_COMPOUND_CID>
14283236

> <PUBCHEM_CONFORMER_RMSD>
0.8

> <PUBCHEM_CONFORMER_DIVERSEORDER>
1
21
7
29
23
18
32
25
28
3
27
17
5
30
31
20
22
26
9
16
24
11
15
8
14
2
19
6
13
10
12
4

> <PUBCHEM_MMFF94_PARTIAL_CHARGES>
10
1 -0.57
17 0.14
19 0.06
20 0.06
21 0.45
23 -0.29
24 -0.29
25 0.14
63 0.15
64 0.15

> <PUBCHEM_EFFECTIVE_ROTOR_COUNT>
6

> <PUBCHEM_PHARMACOPHORE_FEATURES>
8
1 1 acceptor
1 22 hydrophobe
1 27 hydrophobe
3 26 28 29 hydrophobe
5 2 3 7 11 13 rings
6 2 3 4 5 8 9 rings
6 4 5 6 10 12 14 rings
6 6 10 15 19 20 21 rings

> <PUBCHEM_HEAVY_ATOM_COUNT>
29

> <PUBCHEM_ATOM_DEF_STEREO_COUNT>
7

> <PUBCHEM_ATOM_UDEF_STEREO_COUNT>
2

> <PUBCHEM_BOND_DEF_STEREO_COUNT>
1

> <PUBCHEM_BOND_UDEF_STEREO_COUNT>
0

> <PUBCHEM_ISOTOPIC_ATOM_COUNT>
0

> <PUBCHEM_COMPONENT_COUNT>
1

> <PUBCHEM_CACTVS_TAUTO_COUNT>
3

> <PUBCHEM_CONFORMER_ID>
00D9F1E400000001

> <PUBCHEM_MMFF94_ENERGY>
89.2696

> <PUBCHEM_FEATURE_SELFOVERLAP>
40.73

> <PUBCHEM_SHAPE_FINGERPRINT>
10693767 8 18201721696186127142
10906281 52 18261123924267200651
11135609 201 14201402728845592868
11578080 2 13480004361868450932
11719270 70 18272645736716898687
12166972 35 17775566464074387249
12236239 1 17967246482265183833
13533116 47 16487256560858156374
13782708 43 16630524033879531789
13914758 101 15913054188385000979
14251757 52 15791452629904952143
14251764 18 18186517705711044253
14294032 229 18119254952369359973
14790565 3 18336543824937084273
14933364 13 18408319991596057645
15183329 4 18412263926677271825
15475509 35 14836126490831272710
15849732 13 18272929436707643487
2026 5 16915676782839301734
21267235 1 18413393133650799643
21279426 13 18411695483260628093
21521721 280 13623531264258146877
221357 26 18341616997373147196
2215653 11 18272655644931598358
22224240 67 13190340171731695913
23081809 10 17530959168788722763
23522609 53 17750531589111105501
23559900 14 18342177817085982864
23569943 247 17771638857715741591
23576562 1 17969791963521505687
255183 451 18053383202380807270
29717793 49 17918556829958132332
3004659 81 18408322198254563173
335352 9 18409445890622023326
34797466 226 17917429864799439912
3633792 109 18060143141469523328
4073 2 17822573927567129267
4093350 32 17560797758240376088
59755656 215 18408887312866019223

> <PUBCHEM_SHAPE_MULTIPOLES>
590.94
21.1
2.18
1.46
34.89
0.33
-0.02
-1.35
9.33
-0.27
-0.03
-2.79
-0.25
0.7

> <PUBCHEM_SHAPE_SELFOVERLAP>
1225.562

> <PUBCHEM_SHAPE_VOLUME>
337

> <PUBCHEM_COORDINATE_TYPE>
2
5
10

$$$$
