101701119
  -OEChem-09012014483D

 77 81  0     1  0  0  0  0  0999 V2000
   -1.3488    2.3596   -1.5719 O   0  0  0  0  0  0  0  0  0  0  0  0
   -3.5741    1.2308    1.4928 O   0  0  0  0  0  0  0  0  0  0  0  0
    4.0773    0.3350    1.0982 O   0  0  0  0  0  0  0  0  0  0  0  0
    5.3184   -1.2790   -0.0412 O   0  0  0  0  0  0  0  0  0  0  0  0
    2.4479   -1.8651    0.6622 O   0  0  0  0  0  0  0  0  0  0  0  0
    3.1759    2.8614    0.3994 O   0  0  0  0  0  0  0  0  0  0  0  0
   -8.9059    0.2435   -1.0515 O   0  0  0  0  0  0  0  0  0  0  0  0
   -6.2079   -2.9998    1.2157 O   0  0  0  0  0  0  0  0  0  0  0  0
    6.2670    2.1180    0.9130 O   0  0  0  0  0  0  0  0  0  0  0  0
    8.8376    0.6887    0.7404 O   0  0  0  0  0  0  0  0  0  0  0  0
    8.7430   -1.3168   -1.3393 O   0  0  0  0  0  0  0  0  0  0  0  0
   -8.6014   -2.2954    0.0133 O   0  0  0  0  0  0  0  0  0  0  0  0
    5.0940   -3.4193   -1.7511 O   0  0  0  0  0  0  0  0  0  0  0  0
   -2.2161    0.5447   -0.3258 C   0  0  1  0  0  0  0  0  0  0  0  0
   -3.3843    1.3172   -0.8796 C   0  0  1  0  0  0  0  0  0  0  0  0
   -1.0587    0.9984   -1.2038 C   0  0  2  0  0  0  0  0  0  0  0  0
   -4.3482    1.4392    0.2948 C   0  0  1  0  0  0  0  0  0  0  0  0
   -2.7310    2.6329   -1.2939 C   0  0  0  0  0  0  0  0  0  0  0  0
   -2.2058    0.9965    1.1286 C   0  0  0  0  0  0  0  0  0  0  0  0
    0.3093    0.8214   -0.5908 C   0  0  0  0  0  0  0  0  0  0  0  0
   -5.4844    0.4417    0.2193 C   0  0  0  0  0  0  0  0  0  0  0  0
    1.1250    1.9319   -0.3735 C   0  0  0  0  0  0  0  0  0  0  0  0
    0.7580   -0.4523   -0.2420 C   0  0  0  0  0  0  0  0  0  0  0  0
   -5.3276   -0.8360    0.7568 C   0  0  0  0  0  0  0  0  0  0  0  0
   -6.6880    0.7998   -0.3877 C   0  0  0  0  0  0  0  0  0  0  0  0
    2.0222   -0.6157    0.3243 C   0  0  0  0  0  0  0  0  0  0  0  0
    2.3893    1.7686    0.1928 C   0  0  0  0  0  0  0  0  0  0  0  0
    2.8378    0.4948    0.5418 C   0  0  0  0  0  0  0  0  0  0  0  0
   -7.7347   -0.1196   -0.4575 C   0  0  0  0  0  0  0  0  0  0  0  0
   -6.3743   -1.7553    0.6872 C   0  0  0  0  0  0  0  0  0  0  0  0
    5.1602    0.1182    0.1941 C   0  0  2  0  0  0  0  0  0  0  0  0
    6.4242    0.7020    0.8250 C   0  0  1  0  0  0  0  0  0  0  0  0
    7.6628    0.3800   -0.0113 C   0  0  2  0  0  0  0  0  0  0  0  0
    7.7125   -1.1033   -0.3783 C   0  0  1  0  0  0  0  0  0  0  0  0
    6.3741   -1.5637   -0.9609 C   0  0  1  0  0  0  0  0  0  0  0  0
   -7.5780   -1.3970    0.0802 C   0  0  0  0  0  0  0  0  0  0  0  0
    6.3605   -3.0658   -1.2260 C   0  0  0  0  0  0  0  0  0  0  0  0
    1.5527   -2.9455    0.4064 C   0  0  0  0  0  0  0  0  0  0  0  0
    3.0493    3.5224    1.6571 C   0  0  0  0  0  0  0  0  0  0  0  0
   -8.9832    1.5677   -1.5754 C   0  0  0  0  0  0  0  0  0  0  0  0
   -4.9466   -3.2845    1.8181 C   0  0  0  0  0  0  0  0  0  0  0  0
   -2.3771   -0.5383   -0.3747 H   0  0  0  0  0  0  0  0  0  0  0  0
   -3.8182    0.8362   -1.7642 H   0  0  0  0  0  0  0  0  0  0  0  0
   -1.0758    0.4345   -2.1463 H   0  0  0  0  0  0  0  0  0  0  0  0
   -4.7734    2.4477    0.3638 H   0  0  0  0  0  0  0  0  0  0  0  0
   -3.1996    3.0526   -2.1894 H   0  0  0  0  0  0  0  0  0  0  0  0
   -2.7675    3.3946   -0.5076 H   0  0  0  0  0  0  0  0  0  0  0  0
   -1.7823    0.2380    1.7938 H   0  0  0  0  0  0  0  0  0  0  0  0
   -1.6558    1.9310    1.2840 H   0  0  0  0  0  0  0  0  0  0  0  0
    0.7983    2.9346   -0.6350 H   0  0  0  0  0  0  0  0  0  0  0  0
    0.0827   -1.2779   -0.4394 H   0  0  0  0  0  0  0  0  0  0  0  0
   -4.3733   -1.0751    1.2103 H   0  0  0  0  0  0  0  0  0  0  0  0
   -6.7497    1.8054   -0.7901 H   0  0  0  0  0  0  0  0  0  0  0  0
    4.9481    0.6252   -0.7585 H   0  0  0  0  0  0  0  0  0  0  0  0
    6.5465    0.3332    1.8503 H   0  0  0  0  0  0  0  0  0  0  0  0
    7.7022    1.0066   -0.9101 H   0  0  0  0  0  0  0  0  0  0  0  0
    7.9662   -1.6944    0.5102 H   0  0  0  0  0  0  0  0  0  0  0  0
    6.1588   -1.0507   -1.9082 H   0  0  0  0  0  0  0  0  0  0  0  0
    7.1323   -3.3539   -1.9460 H   0  0  0  0  0  0  0  0  0  0  0  0
    6.5042   -3.6271   -0.2967 H   0  0  0  0  0  0  0  0  0  0  0  0
    6.1443    2.4646    0.0128 H   0  0  0  0  0  0  0  0  0  0  0  0
    8.8227    0.1593    1.5560 H   0  0  0  0  0  0  0  0  0  0  0  0
    8.5202   -0.8072   -2.1369 H   0  0  0  0  0  0  0  0  0  0  0  0
   -9.3518   -1.8726   -0.4393 H   0  0  0  0  0  0  0  0  0  0  0  0
    2.0528   -3.8621    0.7363 H   0  0  0  0  0  0  0  0  0  0  0  0
    1.3549   -3.0608   -0.6648 H   0  0  0  0  0  0  0  0  0  0  0  0
    0.6329   -2.8565    0.9946 H   0  0  0  0  0  0  0  0  0  0  0  0
    3.7435    4.3671    1.6711 H   0  0  0  0  0  0  0  0  0  0  0  0
    3.3074    2.8440    2.4764 H   0  0  0  0  0  0  0  0  0  0  0  0
    2.0315    3.9027    1.7897 H   0  0  0  0  0  0  0  0  0  0  0  0
   -8.2643    1.7238   -2.3869 H   0  0  0  0  0  0  0  0  0  0  0  0
   -9.9816    1.6839   -2.0100 H   0  0  0  0  0  0  0  0  0  0  0  0
   -8.8920    2.3209   -0.7853 H   0  0  0  0  0  0  0  0  0  0  0  0
   -4.9917   -4.3149    2.1861 H   0  0  0  0  0  0  0  0  0  0  0  0
   -4.1314   -3.2452    1.0874 H   0  0  0  0  0  0  0  0  0  0  0  0
   -4.7604   -2.6459    2.6884 H   0  0  0  0  0  0  0  0  0  0  0  0
    5.1051   -4.3792   -1.9060 H   0  0  0  0  0  0  0  0  0  0  0  0
  1 16  1  0  0  0  0
  1 18  1  0  0  0  0
  2 17  1  0  0  0  0
  2 19  1  0  0  0  0
  3 28  1  0  0  0  0
  3 31  1  0  0  0  0
  4 31  1  0  0  0  0
  4 35  1  0  0  0  0
  5 26  1  0  0  0  0
  5 38  1  0  0  0  0
  6 27  1  0  0  0  0
  6 39  1  0  0  0  0
  7 29  1  0  0  0  0
  7 40  1  0  0  0  0
  8 30  1  0  0  0  0
  8 41  1  0  0  0  0
  9 32  1  0  0  0  0
  9 61  1  0  0  0  0
 10 33  1  0  0  0  0
 10 62  1  0  0  0  0
 11 34  1  0  0  0  0
 11 63  1  0  0  0  0
 12 36  1  0  0  0  0
 12 64  1  0  0  0  0
 13 37  1  0  0  0  0
 13 77  1  0  0  0  0
 14 15  1  0  0  0  0
 14 16  1  0  0  0  0
 14 19  1  0  0  0  0
 14 42  1  0  0  0  0
 15 17  1  0  0  0  0
 15 18  1  0  0  0  0
 15 43  1  0  0  0  0
 16 20  1  0  0  0  0
 16 44  1  0  0  0  0
 17 21  1  0  0  0  0
 17 45  1  0  0  0  0
 18 46  1  0  0  0  0
 18 47  1  0  0  0  0
 19 48  1  0  0  0  0
 19 49  1  0  0  0  0
 20 22  2  0  0  0  0
 20 23  1  0  0  0  0
 21 24  2  0  0  0  0
 21 25  1  0  0  0  0
 22 27  1  0  0  0  0
 22 50  1  0  0  0  0
 23 26  2  0  0  0  0
 23 51  1  0  0  0  0
 24 30  1  0  0  0  0
 24 52  1  0  0  0  0
 25 29  2  0  0  0  0
 25 53  1  0  0  0  0
 26 28  1  0  0  0  0
 27 28  2  0  0  0  0
 29 36  1  0  0  0  0
 30 36  2  0  0  0  0
 31 32  1  0  0  0  0
 31 54  1  0  0  0  0
 32 33  1  0  0  0  0
 32 55  1  0  0  0  0
 33 34  1  0  0  0  0
 33 56  1  0  0  0  0
 34 35  1  0  0  0  0
 34 57  1  0  0  0  0
 35 37  1  0  0  0  0
 35 58  1  0  0  0  0
 37 59  1  0  0  0  0
 37 60  1  0  0  0  0
 38 65  1  0  0  0  0
 38 66  1  0  0  0  0
 38 67  1  0  0  0  0
 39 68  1  0  0  0  0
 39 69  1  0  0  0  0
 39 70  1  0  0  0  0
 40 71  1  0  0  0  0
 40 72  1  0  0  0  0
 40 73  1  0  0  0  0
 41 74  1  0  0  0  0
 41 75  1  0  0  0  0
 41 76  1  0  0  0  0
M  END
> <PUBCHEM_COMPOUND_CID>
101701119

> <PUBCHEM_CONFORMER_RMSD>
1.2

> <PUBCHEM_CONFORMER_DIVERSEORDER>
1
3
21
20
16
11
6
15
12
22
8
24
5
9
18
25
7
23
19
17
14
4
2
13
10

> <PUBCHEM_MMFF94_PARTIAL_CHARGES>
48
1 -0.56
10 -0.68
11 -0.68
12 -0.53
13 -0.68
16 0.42
17 0.42
18 0.28
19 0.28
2 -0.56
20 -0.14
21 -0.14
22 -0.15
23 -0.15
24 -0.15
25 -0.15
26 0.08
27 0.08
28 0.08
29 0.08
3 -0.36
30 0.08
31 0.56
32 0.28
33 0.28
34 0.28
35 0.28
36 0.08
37 0.28
38 0.28
39 0.28
4 -0.56
40 0.28
41 0.28
5 -0.36
50 0.15
51 0.15
52 0.15
53 0.15
6 -0.36
61 0.4
62 0.4
63 0.4
64 0.45
7 -0.36
77 0.4
8 -0.36
9 -0.68

> <PUBCHEM_EFFECTIVE_ROTOR_COUNT>
11.4

> <PUBCHEM_PHARMACOPHORE_FEATURES>
22
1 1 acceptor
1 10 acceptor
1 10 donor
1 11 acceptor
1 11 donor
1 12 donor
1 13 acceptor
1 13 donor
1 2 acceptor
1 3 acceptor
1 4 acceptor
1 5 acceptor
1 6 acceptor
1 7 acceptor
1 8 acceptor
1 9 acceptor
1 9 donor
5 1 14 15 16 18 rings
5 2 14 15 17 19 rings
6 20 22 23 26 27 28 rings
6 21 24 25 29 30 36 rings
6 4 31 32 33 34 35 rings

> <PUBCHEM_HEAVY_ATOM_COUNT>
41

> <PUBCHEM_ATOM_DEF_STEREO_COUNT>
9

> <PUBCHEM_ATOM_UDEF_STEREO_COUNT>
0

> <PUBCHEM_BOND_DEF_STEREO_COUNT>
0

> <PUBCHEM_BOND_UDEF_STEREO_COUNT>
0

> <PUBCHEM_ISOTOPIC_ATOM_COUNT>
0

> <PUBCHEM_COMPONENT_COUNT>
1

> <PUBCHEM_CACTVS_TAUTO_COUNT>
1

> <PUBCHEM_CONFORMER_ID>
060FD5FF00000001

> <PUBCHEM_MMFF94_ENERGY>
172.5462

> <PUBCHEM_FEATURE_SELFOVERLAP>
112.168

> <PUBCHEM_SHAPE_FINGERPRINT>
10391435 84 18335419088760683091
10653451 467 18411704301029063690
11062273 19 18042415801273840509
11497681 19 18343016701387094415
11963148 33 18113611283611183882
12013929 2 18341609266764759341
12522641 126 17896613949739376708
13782708 43 18408327678648455720
13811026 1 18333731346716787643
14068700 675 17603586339730637205
14117953 113 18113614582741094109
1454969 45 17967255303779843756
150020 25 18410855451765372859
15064986 96 17417537908348238589
15301273 46 18410853252731490021
15336146 87 15791443834144753044
15352257 5 18412548691193217134
15510794 2 18410852140656473342
15510800 12 18187660141116006763
18608769 82 18334574659413991450
19301679 30 17988364746466236728
19611394 137 18342178903491104537
20105231 36 18413109459087136926
23559900 14 18263358265704108961
23569943 247 17909558255410036242
24771750 20 18192439787171920316
354706 109 18191566727430315523
437795 51 18343017779697951574
4625314 4 18259983794759595093
504579 68 16732989716809862501
9831232 110 18334860515178145190
9962374 69 18060125578973580293

> <PUBCHEM_SHAPE_MULTIPOLES>
767.46
29.05
3.64
1.41
6.31
1.45
-0.03
11.4
-4.43
-0.66
0.36
0.2
0.01
5.23

> <PUBCHEM_SHAPE_SELFOVERLAP>
1654.755

> <PUBCHEM_SHAPE_VOLUME>
426.6

> <PUBCHEM_COORDINATE_TYPE>
2
5
10

$$$$
