5283384
  -OEChem-09012013363D

 49 48  0     0  0  0  0  0  0999 V2000
   -5.2186    0.1563    2.0447 O   0  0  0  0  0  0  0  0  0  0  0  0
   -1.2964    1.9478   -0.7841 C   0  0  0  0  0  0  0  0  0  0  0  0
   -0.1762    2.0556   -1.8246 C   0  0  0  0  0  0  0  0  0  0  0  0
   -2.0388    0.6105   -0.8150 C   0  0  0  0  0  0  0  0  0  0  0  0
    0.6020    3.3774   -1.8208 C   0  0  0  0  0  0  0  0  0  0  0  0
   -3.1323    0.5545    0.2568 C   0  0  0  0  0  0  0  0  0  0  0  0
    1.3008    3.7676   -0.5156 C   0  0  0  0  0  0  0  0  0  0  0  0
   -3.9150   -0.7550    0.2337 C   0  0  0  0  0  0  0  0  0  0  0  0
    2.2938    2.7443   -0.0458 C   0  0  0  0  0  0  0  0  0  0  0  0
    2.2030    2.1043    1.1295 C   0  0  0  0  0  0  0  0  0  0  0  0
   -5.0234   -0.7619    1.2543 C   0  0  0  0  0  0  0  0  0  0  0  0
    3.2078    1.1028    1.6169 C   0  0  0  0  0  0  0  0  0  0  0  0
    2.5722   -0.2387    1.8389 C   0  0  0  0  0  0  0  0  0  0  0  0
    2.9428   -1.3560    1.1955 C   0  0  0  0  0  0  0  0  0  0  0  0
    2.3053   -2.6966    1.4189 C   0  0  0  0  0  0  0  0  0  0  0  0
    1.6070   -3.2930    0.2256 C   0  0  0  0  0  0  0  0  0  0  0  0
    1.5548   -2.8076   -1.0250 C   0  0  0  0  0  0  0  0  0  0  0  0
    0.8280   -3.4886   -2.1482 C   0  0  0  0  0  0  0  0  0  0  0  0
   -0.6169   -3.0237   -2.2356 C   0  0  0  0  0  0  0  0  0  0  0  0
   -0.8787    2.0895    0.2189 H   0  0  0  0  0  0  0  0  0  0  0  0
   -2.0109    2.7642   -0.9467 H   0  0  0  0  0  0  0  0  0  0  0  0
    0.5242    1.2232   -1.6832 H   0  0  0  0  0  0  0  0  0  0  0  0
   -0.6110    1.9191   -2.8229 H   0  0  0  0  0  0  0  0  0  0  0  0
   -2.4840    0.4607   -1.8057 H   0  0  0  0  0  0  0  0  0  0  0  0
   -1.3268   -0.2070   -0.6511 H   0  0  0  0  0  0  0  0  0  0  0  0
   -0.0870    4.1868   -2.0936 H   0  0  0  0  0  0  0  0  0  0  0  0
    1.3499    3.3329   -2.6233 H   0  0  0  0  0  0  0  0  0  0  0  0
   -2.6788    0.6928    1.2467 H   0  0  0  0  0  0  0  0  0  0  0  0
   -3.8226    1.3952    0.1105 H   0  0  0  0  0  0  0  0  0  0  0  0
    0.5500    3.9688    0.2576 H   0  0  0  0  0  0  0  0  0  0  0  0
    1.8349    4.7128   -0.6729 H   0  0  0  0  0  0  0  0  0  0  0  0
   -3.2554   -1.6030    0.4452 H   0  0  0  0  0  0  0  0  0  0  0  0
   -4.3705   -0.9100   -0.7500 H   0  0  0  0  0  0  0  0  0  0  0  0
    3.1314    2.5352   -0.7065 H   0  0  0  0  0  0  0  0  0  0  0  0
    1.3697    2.3275    1.7923 H   0  0  0  0  0  0  0  0  0  0  0  0
   -5.6587   -1.6637    1.2612 H   0  0  0  0  0  0  0  0  0  0  0  0
    4.0520    1.0254    0.9208 H   0  0  0  0  0  0  0  0  0  0  0  0
    3.6203    1.4562    2.5692 H   0  0  0  0  0  0  0  0  0  0  0  0
    1.7681   -0.2880    2.5698 H   0  0  0  0  0  0  0  0  0  0  0  0
    3.7599   -1.3102    0.4791 H   0  0  0  0  0  0  0  0  0  0  0  0
    3.0837   -3.3962    1.7464 H   0  0  0  0  0  0  0  0  0  0  0  0
    1.5771   -2.6377    2.2375 H   0  0  0  0  0  0  0  0  0  0  0  0
    1.1035   -4.2379    0.4253 H   0  0  0  0  0  0  0  0  0  0  0  0
    1.3476   -3.2803   -3.0902 H   0  0  0  0  0  0  0  0  0  0  0  0
    0.8515   -4.5766   -2.0127 H   0  0  0  0  0  0  0  0  0  0  0  0
    2.0346   -1.8653   -1.2728 H   0  0  0  0  0  0  0  0  0  0  0  0
   -0.6731   -1.9464   -2.4247 H   0  0  0  0  0  0  0  0  0  0  0  0
   -1.1289   -3.5359   -3.0565 H   0  0  0  0  0  0  0  0  0  0  0  0
   -1.1637   -3.2375   -1.3110 H   0  0  0  0  0  0  0  0  0  0  0  0
  1 11  2  0  0  0  0
  2  3  1  0  0  0  0
  2  4  1  0  0  0  0
  2 20  1  0  0  0  0
  2 21  1  0  0  0  0
  3  5  1  0  0  0  0
  3 22  1  0  0  0  0
  3 23  1  0  0  0  0
  4  6  1  0  0  0  0
  4 24  1  0  0  0  0
  4 25  1  0  0  0  0
  5  7  1  0  0  0  0
  5 26  1  0  0  0  0
  5 27  1  0  0  0  0
  6  8  1  0  0  0  0
  6 28  1  0  0  0  0
  6 29  1  0  0  0  0
  7  9  1  0  0  0  0
  7 30  1  0  0  0  0
  7 31  1  0  0  0  0
  8 11  1  0  0  0  0
  8 32  1  0  0  0  0
  8 33  1  0  0  0  0
  9 10  2  0  0  0  0
  9 34  1  0  0  0  0
 10 12  1  0  0  0  0
 10 35  1  0  0  0  0
 11 36  1  0  0  0  0
 12 13  1  0  0  0  0
 12 37  1  0  0  0  0
 12 38  1  0  0  0  0
 13 14  2  0  0  0  0
 13 39  1  0  0  0  0
 14 15  1  0  0  0  0
 14 40  1  0  0  0  0
 15 16  1  0  0  0  0
 15 41  1  0  0  0  0
 15 42  1  0  0  0  0
 16 17  2  0  0  0  0
 16 43  1  0  0  0  0
 17 18  1  0  0  0  0
 17 46  1  0  0  0  0
 18 19  1  0  0  0  0
 18 44  1  0  0  0  0
 18 45  1  0  0  0  0
 19 47  1  0  0  0  0
 19 48  1  0  0  0  0
 19 49  1  0  0  0  0
M  END
> <PUBCHEM_COMPOUND_CID>
5283384

> <PUBCHEM_CONFORMER_RMSD>
1.2

> <PUBCHEM_CONFORMER_DIVERSEORDER>
3
31
44
167
49
111
149
116
112
48
172
17
15
174
170
42
147
61
70
163
64
123
132
169
41
11
34
27
134
85
157
180
1
161
29
20
45
173
46
122
121
43
103
19
33
73
71
136
113
133
2
55
99
35
93
95
155
106
21
135
109
63
165
107
94
154
10
96
82
47
142
25
120
90
23
65
38
159
66
52
108
148
166
9
50
176
127
119
59
13
39
60
84
162
5
79
18
131
137
58
128
28
145
178
139
14
146
124
22
138
30
126
114
182
83
91
115
179
102
56
53
143
68
8
164
153
89
118
24
62
125
141
74
101
156
67
92
72
7
144
171
152
98
140
117
105
177
130
69
100
183
87
40
32
158
57
4
76
54
77
78
81
12
97
26
75
160
168
37
150
86
181
175
129
6
151
88
51
80
36
110
104
16

> <PUBCHEM_MMFF94_PARTIAL_CHARGES>
20
1 -0.57
10 -0.29
11 0.45
12 0.28
13 -0.29
14 -0.29
15 0.28
16 -0.29
17 -0.29
18 0.14
34 0.15
35 0.15
36 0.06
39 0.15
40 0.15
43 0.15
46 0.15
7 0.14
8 0.06
9 -0.29

> <PUBCHEM_EFFECTIVE_ROTOR_COUNT>
13

> <PUBCHEM_PHARMACOPHORE_FEATURES>
2
1 1 acceptor
1 19 hydrophobe

> <PUBCHEM_HEAVY_ATOM_COUNT>
19

> <PUBCHEM_ATOM_DEF_STEREO_COUNT>
0

> <PUBCHEM_ATOM_UDEF_STEREO_COUNT>
0

> <PUBCHEM_BOND_DEF_STEREO_COUNT>
3

> <PUBCHEM_BOND_UDEF_STEREO_COUNT>
0

> <PUBCHEM_ISOTOPIC_ATOM_COUNT>
0

> <PUBCHEM_COMPONENT_COUNT>
1

> <PUBCHEM_CACTVS_TAUTO_COUNT>
2

> <PUBCHEM_CONFORMER_ID>
00509E3800000003

> <PUBCHEM_MMFF94_ENERGY>
1.9867

> <PUBCHEM_FEATURE_SELFOVERLAP>
10.148

> <PUBCHEM_SHAPE_FINGERPRINT>
10064457 181 17987222520871523488
108634 29 16899596231513428982
12156800 1 15435990601065317214
12712778 12 16603486737736542810
12717326 69 17462866594581729779
13422730 73 8069156922790512327
13773456 22 17839777822529281022
14363568 33 18340763759248907514
15003188 3 17978791203859169285
19026451 147 11025792132769114817
19930381 70 15897517818069304332
20600515 1 17461148864332433253
20765182 20 18409725145221785793
21315764 21 12606860192361309811
21315764 371 17414683722254411055
23466295 7 17543629734386184010
23558518 356 16388752756913866205
35225 105 17192942050910758019
621550 5 17124545414193084607
6287921 2 18202007612037377263
6438718 38 16609734764094685576
7471813 234 8573897643799958968
7987 15 18051686651184154288

> <PUBCHEM_SHAPE_MULTIPOLES>
385.14
7.28
5.84
2.44
11.99
0.67
-0.45
0.83
6.95
-4.84
-3.81
0.23
0.93
0.06

> <PUBCHEM_SHAPE_SELFOVERLAP>
712.838

> <PUBCHEM_SHAPE_VOLUME>
240.2

> <PUBCHEM_COORDINATE_TYPE>
2
5
10

$$$$
