578229
  -OEChem-09012013333D

 30 30  0     1  0  0  0  0  0999 V2000
    2.6041   -1.1702    1.1430 O   0  0  0  0  0  0  0  0  0  0  0  0
   -0.9181   -2.7092   -0.9592 O   0  0  0  0  0  0  0  0  0  0  0  0
    0.7251   -0.5146   -0.1849 C   0  0  1  0  0  0  0  0  0  0  0  0
   -0.8224   -0.4204   -0.2941 C   0  0  2  0  0  0  0  0  0  0  0  0
    1.3802    0.8547   -0.5158 C   0  0  2  0  0  0  0  0  0  0  0  0
   -1.4041    0.6747    0.6428 C   0  0  1  0  0  0  0  0  0  0  0  0
    1.2000   -1.0165    1.1892 C   0  0  0  0  0  0  0  0  0  0  0  0
   -1.4944   -1.7802   -0.0657 C   0  0  0  0  0  0  0  0  0  0  0  0
    0.6762    2.0056    0.1522 C   0  0  0  0  0  0  0  0  0  0  0  0
   -0.5532    1.9214    0.6780 C   0  0  0  0  0  0  0  0  0  0  0  0
    1.4423    1.1061   -2.0260 C   0  0  0  0  0  0  0  0  0  0  0  0
   -2.8358    1.0486    0.2403 C   0  0  0  0  0  0  0  0  0  0  0  0
    1.0934   -1.2319   -0.9316 H   0  0  0  0  0  0  0  0  0  0  0  0
   -1.0430   -0.1378   -1.3337 H   0  0  0  0  0  0  0  0  0  0  0  0
    2.4178    0.8575   -0.1599 H   0  0  0  0  0  0  0  0  0  0  0  0
   -1.4412    0.2859    1.6692 H   0  0  0  0  0  0  0  0  0  0  0  0
    0.7721   -1.9891    1.4448 H   0  0  0  0  0  0  0  0  0  0  0  0
    0.9599   -0.3173    1.9951 H   0  0  0  0  0  0  0  0  0  0  0  0
   -2.5650   -1.7299   -0.2837 H   0  0  0  0  0  0  0  0  0  0  0  0
   -1.3745   -2.1376    0.9610 H   0  0  0  0  0  0  0  0  0  0  0  0
    1.2110    2.9495    0.2176 H   0  0  0  0  0  0  0  0  0  0  0  0
   -0.9627    2.7980    1.1741 H   0  0  0  0  0  0  0  0  0  0  0  0
    1.9732    2.0401   -2.2434 H   0  0  0  0  0  0  0  0  0  0  0  0
    1.9805    0.2973   -2.5317 H   0  0  0  0  0  0  0  0  0  0  0  0
    0.4461    1.1823   -2.4740 H   0  0  0  0  0  0  0  0  0  0  0  0
   -3.2318    1.8410    0.8860 H   0  0  0  0  0  0  0  0  0  0  0  0
   -2.8789    1.4087   -0.7938 H   0  0  0  0  0  0  0  0  0  0  0  0
   -3.5138    0.1950    0.3315 H   0  0  0  0  0  0  0  0  0  0  0  0
    2.8087   -1.8388    0.4672 H   0  0  0  0  0  0  0  0  0  0  0  0
   -1.3543   -3.5647   -0.8065 H   0  0  0  0  0  0  0  0  0  0  0  0
  1  7  1  0  0  0  0
  1 29  1  0  0  0  0
  2  8  1  0  0  0  0
  2 30  1  0  0  0  0
  3  4  1  0  0  0  0
  3  5  1  0  0  0  0
  3  7  1  0  0  0  0
  3 13  1  0  0  0  0
  4  6  1  0  0  0  0
  4  8  1  0  0  0  0
  4 14  1  0  0  0  0
  5  9  1  0  0  0  0
  5 11  1  0  0  0  0
  5 15  1  0  0  0  0
  6 10  1  0  0  0  0
  6 12  1  0  0  0  0
  6 16  1  0  0  0  0
  7 17  1  0  0  0  0
  7 18  1  0  0  0  0
  8 19  1  0  0  0  0
  8 20  1  0  0  0  0
  9 10  2  0  0  0  0
  9 21  1  0  0  0  0
 10 22  1  0  0  0  0
 11 23  1  0  0  0  0
 11 24  1  0  0  0  0
 11 25  1  0  0  0  0
 12 26  1  0  0  0  0
 12 27  1  0  0  0  0
 12 28  1  0  0  0  0
M  END
> <PUBCHEM_COMPOUND_CID>
578229

> <PUBCHEM_CONFORMER_RMSD>
0.6

> <PUBCHEM_CONFORMER_DIVERSEORDER>
2
9
30
17
3
10
27
5
24
13
16
33
26
15
22
11
6
7
12
8
25
14
31
21
23
29
28
18
19
20
32
4
1

> <PUBCHEM_MMFF94_PARTIAL_CHARGES>
12
1 -0.68
10 -0.29
2 -0.68
21 0.15
22 0.15
29 0.4
30 0.4
5 0.14
6 0.14
7 0.28
8 0.28
9 -0.29

> <PUBCHEM_EFFECTIVE_ROTOR_COUNT>
2.8

> <PUBCHEM_PHARMACOPHORE_FEATURES>
5
1 1 acceptor
1 1 donor
1 2 acceptor
1 2 donor
6 3 4 5 6 9 10 rings

> <PUBCHEM_HEAVY_ATOM_COUNT>
12

> <PUBCHEM_ATOM_DEF_STEREO_COUNT>
0

> <PUBCHEM_ATOM_UDEF_STEREO_COUNT>
4

> <PUBCHEM_BOND_DEF_STEREO_COUNT>
0

> <PUBCHEM_BOND_UDEF_STEREO_COUNT>
0

> <PUBCHEM_ISOTOPIC_ATOM_COUNT>
0

> <PUBCHEM_COMPONENT_COUNT>
1

> <PUBCHEM_CACTVS_TAUTO_COUNT>
1

> <PUBCHEM_CONFORMER_ID>
0008D2B500000002

> <PUBCHEM_MMFF94_ENERGY>
23.1536

> <PUBCHEM_FEATURE_SELFOVERLAP>
25.372

> <PUBCHEM_SHAPE_FINGERPRINT>
12423570 1 7851917768689924805
13024252 1 14348899769616804136
13380536 167 18335986462208295342
13898156 1 18409453617289177294
14713566 1 18196963069773830972
14761567 1 17611188551976702282
14817 1 14361454165091881776
14993402 34 18264485083567524470
161256 15 17623306269773874249
16945 1 16468960368969423009
18185500 45 18408038528580992072
20511035 2 18260554398397238641
21040471 1 18341625810255687377
22344851 341 17981895455538245025
23211744 25 17687485854008283380
23419403 2 16251292667632605683
23552423 10 17975694210036494861
23559900 14 18057351494943776564
241688 4 16535408263462308985
2748010 2 18341626888381883157
4369600 1 18057907773895049389
528862 383 17822024089763629768
53812654 25 18411692171381452347

> <PUBCHEM_SHAPE_MULTIPOLES>
235.22
2.8
2.52
1.33
0.64
0.67
-0.34
-0.1
0.1
0.47
-0.07
-0.8
0.09
-1.05

> <PUBCHEM_SHAPE_SELFOVERLAP>
461.89

> <PUBCHEM_SHAPE_VOLUME>
140.2

> <PUBCHEM_COORDINATE_TYPE>
2
5
10

$$$$
