14160302
  -OEChem-09022000253D

 77 80  0     1  0  0  0  0  0999 V2000
    6.1225    3.1384    0.2920 O   0  0  0  0  0  0  0  0  0  0  0  0
   -0.3318   -1.0614   -0.4271 C   0  0  1  0  0  0  0  0  0  0  0  0
    0.4618   -0.7725    0.8656 C   0  0  2  0  0  0  0  0  0  0  0  0
    1.9596   -1.0663    0.7244 C   0  0  1  0  0  0  0  0  0  0  0  0
    2.5385   -0.1688   -0.4169 C   0  0  1  0  0  0  0  0  0  0  0  0
    4.0866   -0.3784   -0.5986 C   0  0  2  0  0  0  0  0  0  0  0  0
   -1.7559   -0.7226    0.0771 C   0  0  2  0  0  0  0  0  0  0  0  0
    0.2021   -0.1294   -1.5236 C   0  0  0  0  0  0  0  0  0  0  0  0
    1.7187   -0.3006   -1.7285 C   0  0  0  0  0  0  0  0  0  0  0  0
   -0.3378   -1.4935    1.9467 C   0  0  0  0  0  0  0  0  0  0  0  0
    4.8080   -0.1377    0.7710 C   0  0  2  0  0  0  0  0  0  0  0  0
    2.7035   -0.8378    2.0471 C   0  0  0  0  0  0  0  0  0  0  0  0
   -1.8016   -1.3482    1.4909 C   0  0  0  0  0  0  0  0  0  0  0  0
    4.2143   -1.0003    1.8978 C   0  0  0  0  0  0  0  0  0  0  0  0
    4.7071    0.5863   -1.6515 C   0  0  0  0  0  0  0  0  0  0  0  0
   -0.2461   -2.5318   -0.9079 C   0  0  0  0  0  0  0  0  0  0  0  0
   -2.9148   -1.1659   -0.8042 C   0  0  1  0  0  0  0  0  0  0  0  0
    4.4013   -1.8128   -1.0996 C   0  0  0  0  0  0  0  0  0  0  0  0
    4.8200    1.3428    1.1966 C   0  0  0  0  0  0  0  0  0  0  0  0
    4.6581    2.0544   -1.2600 C   0  0  0  0  0  0  0  0  0  0  0  0
   -4.2590   -0.7935   -0.1419 C   0  0  0  0  0  0  0  0  0  0  0  0
    5.3098    2.2385    0.0855 C   0  0  0  0  0  0  0  0  0  0  0  0
   -2.7757   -0.5554   -2.2028 C   0  0  0  0  0  0  0  0  0  0  0  0
   -4.4007    0.7033    0.1603 C   0  0  0  0  0  0  0  0  0  0  0  0
   -5.7526    1.0844    0.8105 C   0  0  2  0  0  0  0  0  0  0  0  0
   -6.9965    0.5664    0.0325 C   0  0  0  0  0  0  0  0  0  0  0  0
   -5.7738    2.6017    1.0453 C   0  0  0  0  0  0  0  0  0  0  0  0
   -8.3071    0.9256    0.7428 C   0  0  0  0  0  0  0  0  0  0  0  0
   -7.0584    1.0352   -1.4237 C   0  0  0  0  0  0  0  0  0  0  0  0
    0.3754    0.3034    1.0937 H   0  0  0  0  0  0  0  0  0  0  0  0
    2.0876   -2.1217    0.4643 H   0  0  0  0  0  0  0  0  0  0  0  0
    2.3856    0.8695   -0.0915 H   0  0  0  0  0  0  0  0  0  0  0  0
   -1.7851    0.3687    0.1956 H   0  0  0  0  0  0  0  0  0  0  0  0
    0.0009    0.9178   -1.2636 H   0  0  0  0  0  0  0  0  0  0  0  0
   -0.2609   -0.3069   -2.4948 H   0  0  0  0  0  0  0  0  0  0  0  0
    1.9086   -1.2690   -2.2017 H   0  0  0  0  0  0  0  0  0  0  0  0
    2.0409    0.4620   -2.4460 H   0  0  0  0  0  0  0  0  0  0  0  0
   -0.0610   -2.5517    2.0129 H   0  0  0  0  0  0  0  0  0  0  0  0
   -0.1839   -1.0483    2.9351 H   0  0  0  0  0  0  0  0  0  0  0  0
    5.8604   -0.4352    0.6532 H   0  0  0  0  0  0  0  0  0  0  0  0
    2.3499   -1.5515    2.8009 H   0  0  0  0  0  0  0  0  0  0  0  0
    2.4740    0.1598    2.4398 H   0  0  0  0  0  0  0  0  0  0  0  0
   -2.3589   -0.7071    2.1826 H   0  0  0  0  0  0  0  0  0  0  0  0
   -2.2819   -2.3334    1.4947 H   0  0  0  0  0  0  0  0  0  0  0  0
    4.4426   -2.0564    1.7107 H   0  0  0  0  0  0  0  0  0  0  0  0
    4.6988   -0.7554    2.8511 H   0  0  0  0  0  0  0  0  0  0  0  0
    5.7626    0.3140   -1.7969 H   0  0  0  0  0  0  0  0  0  0  0  0
    4.2339    0.4558   -2.6309 H   0  0  0  0  0  0  0  0  0  0  0  0
   -0.7729   -2.6767   -1.8560 H   0  0  0  0  0  0  0  0  0  0  0  0
    0.7829   -2.8586   -1.0798 H   0  0  0  0  0  0  0  0  0  0  0  0
   -0.6804   -3.2323   -0.1875 H   0  0  0  0  0  0  0  0  0  0  0  0
   -2.9203   -2.2575   -0.9143 H   0  0  0  0  0  0  0  0  0  0  0  0
    4.0205   -1.9769   -2.1130 H   0  0  0  0  0  0  0  0  0  0  0  0
    5.4841   -1.9827   -1.1370 H   0  0  0  0  0  0  0  0  0  0  0  0
    3.9803   -2.5925   -0.4607 H   0  0  0  0  0  0  0  0  0  0  0  0
    5.4841    1.4702    2.0598 H   0  0  0  0  0  0  0  0  0  0  0  0
    3.8297    1.7035    1.4909 H   0  0  0  0  0  0  0  0  0  0  0  0
    5.2017    2.6508   -2.0006 H   0  0  0  0  0  0  0  0  0  0  0  0
    3.6331    2.4337   -1.2124 H   0  0  0  0  0  0  0  0  0  0  0  0
   -4.3975   -1.3645    0.7837 H   0  0  0  0  0  0  0  0  0  0  0  0
   -5.0545   -1.1227   -0.8190 H   0  0  0  0  0  0  0  0  0  0  0  0
   -3.7397   -0.5885   -2.7248 H   0  0  0  0  0  0  0  0  0  0  0  0
   -2.0931   -1.1319   -2.8301 H   0  0  0  0  0  0  0  0  0  0  0  0
   -2.4643    0.4933   -2.1765 H   0  0  0  0  0  0  0  0  0  0  0  0
   -4.2599    1.2860   -0.7573 H   0  0  0  0  0  0  0  0  0  0  0  0
   -3.6195    1.0245    0.8567 H   0  0  0  0  0  0  0  0  0  0  0  0
   -5.7751    0.6094    1.8016 H   0  0  0  0  0  0  0  0  0  0  0  0
   -6.9567   -0.5297    0.0245 H   0  0  0  0  0  0  0  0  0  0  0  0
   -6.6501    2.9077    1.6239 H   0  0  0  0  0  0  0  0  0  0  0  0
   -5.7712    3.1576    0.1027 H   0  0  0  0  0  0  0  0  0  0  0  0
   -4.8923    2.9148    1.6160 H   0  0  0  0  0  0  0  0  0  0  0  0
   -8.2742    0.6321    1.7972 H   0  0  0  0  0  0  0  0  0  0  0  0
   -9.1489    0.3994    0.2790 H   0  0  0  0  0  0  0  0  0  0  0  0
   -8.5225    1.9973    0.6877 H   0  0  0  0  0  0  0  0  0  0  0  0
   -6.1775    0.7207   -1.9902 H   0  0  0  0  0  0  0  0  0  0  0  0
   -7.1386    2.1244   -1.4945 H   0  0  0  0  0  0  0  0  0  0  0  0
   -7.9335    0.6076   -1.9258 H   0  0  0  0  0  0  0  0  0  0  0  0
  1 22  2  0  0  0  0
  2  3  1  0  0  0  0
  2  7  1  0  0  0  0
  2  8  1  0  0  0  0
  2 16  1  0  0  0  0
  3  4  1  0  0  0  0
  3 10  1  0  0  0  0
  3 30  1  0  0  0  0
  4  5  1  0  0  0  0
  4 12  1  0  0  0  0
  4 31  1  0  0  0  0
  5  6  1  0  0  0  0
  5  9  1  0  0  0  0
  5 32  1  0  0  0  0
  6 11  1  0  0  0  0
  6 15  1  0  0  0  0
  6 18  1  0  0  0  0
  7 13  1  0  0  0  0
  7 17  1  0  0  0  0
  7 33  1  0  0  0  0
  8  9  1  0  0  0  0
  8 34  1  0  0  0  0
  8 35  1  0  0  0  0
  9 36  1  0  0  0  0
  9 37  1  0  0  0  0
 10 13  1  0  0  0  0
 10 38  1  0  0  0  0
 10 39  1  0  0  0  0
 11 14  1  0  0  0  0
 11 19  1  0  0  0  0
 11 40  1  0  0  0  0
 12 14  1  0  0  0  0
 12 41  1  0  0  0  0
 12 42  1  0  0  0  0
 13 43  1  0  0  0  0
 13 44  1  0  0  0  0
 14 45  1  0  0  0  0
 14 46  1  0  0  0  0
 15 20  1  0  0  0  0
 15 47  1  0  0  0  0
 15 48  1  0  0  0  0
 16 49  1  0  0  0  0
 16 50  1  0  0  0  0
 16 51  1  0  0  0  0
 17 21  1  0  0  0  0
 17 23  1  0  0  0  0
 17 52  1  0  0  0  0
 18 53  1  0  0  0  0
 18 54  1  0  0  0  0
 18 55  1  0  0  0  0
 19 22  1  0  0  0  0
 19 56  1  0  0  0  0
 19 57  1  0  0  0  0
 20 22  1  0  0  0  0
 20 58  1  0  0  0  0
 20 59  1  0  0  0  0
 21 24  1  0  0  0  0
 21 60  1  0  0  0  0
 21 61  1  0  0  0  0
 23 62  1  0  0  0  0
 23 63  1  0  0  0  0
 23 64  1  0  0  0  0
 24 25  1  0  0  0  0
 24 65  1  0  0  0  0
 24 66  1  0  0  0  0
 25 26  1  0  0  0  0
 25 27  1  0  0  0  0
 25 67  1  0  0  0  0
 26 28  1  0  0  0  0
 26 29  1  0  0  0  0
 26 68  1  0  0  0  0
 27 69  1  0  0  0  0
 27 70  1  0  0  0  0
 27 71  1  0  0  0  0
 28 72  1  0  0  0  0
 28 73  1  0  0  0  0
 28 74  1  0  0  0  0
 29 75  1  0  0  0  0
 29 76  1  0  0  0  0
 29 77  1  0  0  0  0
M  END
> <PUBCHEM_COMPOUND_CID>
14160302

> <PUBCHEM_CONFORMER_RMSD>
0.8

> <PUBCHEM_CONFORMER_DIVERSEORDER>
3
22
13
18
30
23
17
21
2
26
31
6
27
11
20
24
4
15
16
25
28
5
10
29
32
14
19
1
12
8
9
7

> <PUBCHEM_MMFF94_PARTIAL_CHARGES>
4
1 -0.57
19 0.06
20 0.06
22 0.45

> <PUBCHEM_EFFECTIVE_ROTOR_COUNT>
7

> <PUBCHEM_PHARMACOPHORE_FEATURES>
9
1 1 acceptor
1 23 hydrophobe
1 27 hydrophobe
3 26 28 29 hydrophobe
5 17 21 24 25 26 hydrophobe
5 2 3 7 10 13 rings
6 2 3 4 5 8 9 rings
6 4 5 6 11 12 14 rings
6 6 11 15 19 20 22 rings

> <PUBCHEM_HEAVY_ATOM_COUNT>
29

> <PUBCHEM_ATOM_DEF_STEREO_COUNT>
7

> <PUBCHEM_ATOM_UDEF_STEREO_COUNT>
2

> <PUBCHEM_BOND_DEF_STEREO_COUNT>
0

> <PUBCHEM_BOND_UDEF_STEREO_COUNT>
0

> <PUBCHEM_ISOTOPIC_ATOM_COUNT>
0

> <PUBCHEM_COMPONENT_COUNT>
1

> <PUBCHEM_CACTVS_TAUTO_COUNT>
3

> <PUBCHEM_CONFORMER_ID>
00D811AE00000003

> <PUBCHEM_MMFF94_ENERGY>
95.6365

> <PUBCHEM_FEATURE_SELFOVERLAP>
45.819

> <PUBCHEM_SHAPE_FINGERPRINT>
10 15 15791736329553539061
10554248 39 17346332452795841191
10693767 8 12967138185437165500
11135609 201 18334850658038627889
117089 54 11315399020613399504
11991303 11 16415471693070079109
12035758 1 16081361990171300475
12236239 1 18187081759133807887
12422481 6 16008755697393441507
12596602 18 18187364358985437491
13533116 47 17822007562951261522
13668630 136 12247674981517382149
13782708 43 8430316823112956177
14251757 52 18342459248844216073
14251764 30 8070032150962347121
14347332 77 11959468763675644914
14347424 109 13190344590519632237
15082195 135 17060342950488541680
15119646 104 9871754607075818673
15183329 4 14836123243746071963
15188451 53 11241964893465824289
15238133 3 18130496514322920186
15392192 104 16298687048119017555
15475509 35 11530752735114563468
15840311 113 18260550013436018077
17913733 40 17313378994722442275
18222031 100 11959732676773876626
1979834 28 16588022398912510050
20281389 69 18334576820130739957
20511986 3 17531239557487023323
20775438 99 12247090023745627156
21033648 29 18338795731924128128
21130935 74 17676202481459648971
21267235 1 16009026130125499554
21344244 181 11815897876979954213
21424621 283 18410578379451595347
21521239 73 12895351097150312301
21637258 2 8358263635505732707
21641784 216 15984835808777066289
21792934 111 16443612524766959271
22061861 79 14189571936454544097
22122407 14 18338242672943435881
221357 26 14405188356540909731
22149856 69 16371011737894482717
2215653 11 14333131896442763238
22224240 67 17385725799263389987
22393880 68 15410603835146556878
23522609 53 8501525740314886655
23559900 14 17632297865829777806
23569914 152 13538845607451016145
24771293 8 17750232667755127388
27425 322 18410290349975658422
2748736 6 18342735187803364837
2838139 119 18201999885528186373
29717793 49 12175621772060652243
3004659 81 15769774637150789182
3472631 163 18341612650338547596
34797466 226 18272938206645713711
3633792 109 17846508011008012366
3680242 22 17312815000976144120
3918712 181 18201435844738150505
392239 28 16877936195827048672
4093350 32 18410295800473500726
4340502 62 17095240328082176226
439807 62 8502378836598729593
465052 167 12468354661276259970
5104073 3 17313100903821245930
59682541 52 14405191650849585661
633830 44 18411697682025518334
8988823 20 9511168638943687150

> <PUBCHEM_SHAPE_MULTIPOLES>
590.94
18.52
2.37
1.99
26.94
1.26
0.03
14.24
-1.43
-1.99
-0.23
-0.76
-0.41
-0.9

> <PUBCHEM_SHAPE_SELFOVERLAP>
1220.741

> <PUBCHEM_SHAPE_VOLUME>
338.2

> <PUBCHEM_COORDINATE_TYPE>
2
5
10

$$$$
