10850329
  -OEChem-09012014493D

 36 38  0     1  0  0  0  0  0999 V2000
   -2.0097    0.5835    1.8116 O   0  0  0  0  0  0  0  0  0  0  0  0
   -2.0345   -0.5024   -1.6993 O   0  0  0  0  0  0  0  0  0  0  0  0
   -3.5488   -1.7897   -0.5589 O   0  0  0  0  0  0  0  0  0  0  0  0
    1.6643   -2.6003    0.6263 O   0  0  0  0  0  0  0  0  0  0  0  0
    3.5265    1.7549   -0.0812 O   0  0  0  0  0  0  0  0  0  0  0  0
    3.8544   -0.9894    0.0956 O   0  0  0  0  0  0  0  0  0  0  0  0
   -2.1763    1.4599   -0.4251 C   0  0  1  0  0  0  0  0  0  0  0  0
   -3.3701    0.5959   -0.1032 C   0  0  2  0  0  0  0  0  0  0  0  0
   -1.2698    1.3181    0.8159 C   0  0  2  0  0  0  0  0  0  0  0  0
   -3.3763    0.5029    1.3995 C   0  0  0  0  0  0  0  0  0  0  0  0
   -1.7117    0.8905   -1.7466 C   0  0  0  0  0  0  0  0  0  0  0  0
   -3.0250   -0.7085   -0.7785 C   0  0  0  0  0  0  0  0  0  0  0  0
    0.0959    0.7031    0.6236 C   0  0  0  0  0  0  0  0  0  0  0  0
    1.1984    1.5165    0.3558 C   0  0  0  0  0  0  0  0  0  0  0  0
    0.2591   -0.6807    0.7125 C   0  0  0  0  0  0  0  0  0  0  0  0
    1.5205   -1.2488    0.5343 C   0  0  0  0  0  0  0  0  0  0  0  0
    2.4598    0.9482    0.1776 C   0  0  0  0  0  0  0  0  0  0  0  0
    2.6209   -0.4343    0.2668 C   0  0  0  0  0  0  0  0  0  0  0  0
    1.5102   -3.3518   -0.5761 C   0  0  0  0  0  0  0  0  0  0  0  0
    3.8123    2.0324   -1.4507 C   0  0  0  0  0  0  0  0  0  0  0  0
   -2.4489    2.5160   -0.5365 H   0  0  0  0  0  0  0  0  0  0  0  0
   -4.3093    0.9649   -0.5257 H   0  0  0  0  0  0  0  0  0  0  0  0
   -1.1293    2.3165    1.2514 H   0  0  0  0  0  0  0  0  0  0  0  0
   -3.9083    1.3519    1.8423 H   0  0  0  0  0  0  0  0  0  0  0  0
   -3.8123   -0.4233    1.7844 H   0  0  0  0  0  0  0  0  0  0  0  0
   -2.2633    1.3297   -2.5859 H   0  0  0  0  0  0  0  0  0  0  0  0
   -0.6450    1.0231   -1.9417 H   0  0  0  0  0  0  0  0  0  0  0  0
    1.0783    2.5948    0.2833 H   0  0  0  0  0  0  0  0  0  0  0  0
   -0.5877   -1.3306    0.9175 H   0  0  0  0  0  0  0  0  0  0  0  0
    4.5007   -0.2749   -0.0375 H   0  0  0  0  0  0  0  0  0  0  0  0
    1.6578   -4.4093   -0.3407 H   0  0  0  0  0  0  0  0  0  0  0  0
    2.2568   -3.0504   -1.3176 H   0  0  0  0  0  0  0  0  0  0  0  0
    0.5023   -3.2209   -0.9830 H   0  0  0  0  0  0  0  0  0  0  0  0
    2.9839    2.5819   -1.9090 H   0  0  0  0  0  0  0  0  0  0  0  0
    3.9999    1.1070   -2.0044 H   0  0  0  0  0  0  0  0  0  0  0  0
    4.7106    2.6541   -1.4940 H   0  0  0  0  0  0  0  0  0  0  0  0
  1  9  1  0  0  0  0
  1 10  1  0  0  0  0
  2 11  1  0  0  0  0
  2 12  1  0  0  0  0
  3 12  2  0  0  0  0
  4 16  1  0  0  0  0
  4 19  1  0  0  0  0
  5 17  1  0  0  0  0
  5 20  1  0  0  0  0
  6 18  1  0  0  0  0
  6 30  1  0  0  0  0
  7  8  1  0  0  0  0
  7  9  1  0  0  0  0
  7 11  1  0  0  0  0
  7 21  1  0  0  0  0
  8 10  1  0  0  0  0
  8 12  1  0  0  0  0
  8 22  1  0  0  0  0
  9 13  1  0  0  0  0
  9 23  1  0  0  0  0
 10 24  1  0  0  0  0
 10 25  1  0  0  0  0
 11 26  1  0  0  0  0
 11 27  1  0  0  0  0
 13 14  2  0  0  0  0
 13 15  1  0  0  0  0
 14 17  1  0  0  0  0
 14 28  1  0  0  0  0
 15 16  2  0  0  0  0
 15 29  1  0  0  0  0
 16 18  1  0  0  0  0
 17 18  2  0  0  0  0
 19 31  1  0  0  0  0
 19 32  1  0  0  0  0
 19 33  1  0  0  0  0
 20 34  1  0  0  0  0
 20 35  1  0  0  0  0
 20 36  1  0  0  0  0
M  END
> <PUBCHEM_COMPOUND_CID>
10850329

> <PUBCHEM_CONFORMER_RMSD>
0.6

> <PUBCHEM_CONFORMER_DIVERSEORDER>
1
5
8
4
7
6
2
3

> <PUBCHEM_MMFF94_PARTIAL_CHARGES>
22
1 -0.56
10 0.28
11 0.28
12 0.66
13 -0.14
14 -0.15
15 -0.15
16 0.08
17 0.08
18 0.08
19 0.28
2 -0.43
20 0.28
28 0.15
29 0.15
3 -0.57
30 0.45
4 -0.36
5 -0.36
6 -0.53
8 0.06
9 0.42

> <PUBCHEM_EFFECTIVE_ROTOR_COUNT>
4

> <PUBCHEM_PHARMACOPHORE_FEATURES>
8
1 1 acceptor
1 3 acceptor
1 4 acceptor
1 5 acceptor
1 6 donor
5 1 7 8 9 10 rings
5 2 7 8 11 12 rings
6 13 14 15 16 17 18 rings

> <PUBCHEM_HEAVY_ATOM_COUNT>
20

> <PUBCHEM_ATOM_DEF_STEREO_COUNT>
3

> <PUBCHEM_ATOM_UDEF_STEREO_COUNT>
0

> <PUBCHEM_BOND_DEF_STEREO_COUNT>
0

> <PUBCHEM_BOND_UDEF_STEREO_COUNT>
0

> <PUBCHEM_ISOTOPIC_ATOM_COUNT>
0

> <PUBCHEM_COMPONENT_COUNT>
1

> <PUBCHEM_CACTVS_TAUTO_COUNT>
4

> <PUBCHEM_CONFORMER_ID>
00A5901900000001

> <PUBCHEM_MMFF94_ENERGY>
72.1323

> <PUBCHEM_FEATURE_SELFOVERLAP>
41.093

> <PUBCHEM_SHAPE_FINGERPRINT>
11759241 127 17894627101619323349
121448 382 18198899412945383104
12507560 18 12318918961997691583
12553582 1 17620757189235641702
14181834 199 18114462271667210902
14787075 74 17053283175057284713
15279307 12 18131632257604059023
15309172 13 18335708298662179408
15375462 189 18202001014893186339
16752209 62 17060328601150335845
16945 1 18340761533833557368
17349148 13 18336816542606918784
17492 54 17608075782913236519
18186145 218 18410576193302913052
19422 9 18202847660047239645
20645477 70 18335976476461962845
21160774 45 18047475813586521410
21524375 3 18115867567781357264
21731516 1 17344885590357306767
2255824 54 18410576163327598258
22802520 49 17751073613640566101
23114952 82 18041563507930940260
23419403 2 16157094307437470077
23493267 7 17131287799982985361
23557571 272 15864366722158008041
23566358 27 18269009616881729206
23598291 2 18130797702366465337
2748010 2 16971677495379577160
4280585 95 17765434241176426222
458136 41 18336563667369077874
6287921 2 18187094948492753100
77492 1 17988923340557701777
81228 2 17326332628803210328
90525 40 17772750481429808017

> <PUBCHEM_SHAPE_MULTIPOLES>
376.37
6.66
2.63
1.42
0.75
2.03
0.23
-1.05
0.97
2.25
0.54
-0.83
-0.29
-0.93

> <PUBCHEM_SHAPE_SELFOVERLAP>
816.599

> <PUBCHEM_SHAPE_VOLUME>
208.8

> <PUBCHEM_COORDINATE_TYPE>
2
5
10

$$$$
