10049223
  -OEChem-09012014513D

 62 65  0     1  0  0  0  0  0999 V2000
   -0.0862   -0.7162    0.5922 O   0  0  0  0  0  0  0  0  0  0  0  0
    1.1543   -0.0145   -2.8160 O   0  0  0  0  0  0  0  0  0  0  0  0
   -4.8276   -1.7316    1.8542 O   0  0  0  0  0  0  0  0  0  0  0  0
    3.4413    2.6288    0.7979 O   0  0  0  0  0  0  0  0  0  0  0  0
   -5.1059    2.1797   -0.8955 O   0  0  0  0  0  0  0  0  0  0  0  0
    6.1243   -1.3012    0.2575 O   0  0  0  0  0  0  0  0  0  0  0  0
   -6.3136    0.3563    0.8043 O   0  0  0  0  0  0  0  0  0  0  0  0
    5.7573    1.2159    1.3541 O   0  0  0  0  0  0  0  0  0  0  0  0
   -0.5974   -1.1119   -1.7173 C   0  0  1  0  0  0  0  0  0  0  0  0
    0.6653   -1.8544   -1.3448 C   0  0  1  0  0  0  0  0  0  0  0  0
   -0.8321   -0.1824   -0.5175 C   0  0  1  0  0  0  0  0  0  0  0  0
    1.7888   -1.0312   -2.0109 C   0  0  2  0  0  0  0  0  0  0  0  0
    0.5775   -1.9098    0.1661 C   0  0  0  0  0  0  0  0  0  0  0  0
   -0.2191   -0.3788   -2.9829 C   0  0  0  0  0  0  0  0  0  0  0  0
   -2.2949   -0.0388   -0.1650 C   0  0  0  0  0  0  0  0  0  0  0  0
    2.8460   -0.4325   -1.1148 C   0  0  0  0  0  0  0  0  0  0  0  0
   -3.0399    1.0137   -0.6964 C   0  0  0  0  0  0  0  0  0  0  0  0
    4.0148   -1.1452   -0.8347 C   0  0  0  0  0  0  0  0  0  0  0  0
   -2.8993   -0.9593    0.6908 C   0  0  0  0  0  0  0  0  0  0  0  0
    2.6609    0.8372   -0.5620 C   0  0  0  0  0  0  0  0  0  0  0  0
   -4.2494   -0.8272    1.0156 C   0  0  0  0  0  0  0  0  0  0  0  0
    3.6382    1.3905    0.2654 C   0  0  0  0  0  0  0  0  0  0  0  0
   -4.3900    1.1459   -0.3715 C   0  0  0  0  0  0  0  0  0  0  0  0
    4.9919   -0.5918   -0.0072 C   0  0  0  0  0  0  0  0  0  0  0  0
   -4.9948    0.2255    0.4844 C   0  0  0  0  0  0  0  0  0  0  0  0
    4.8036    0.6760    0.5428 C   0  0  0  0  0  0  0  0  0  0  0  0
   -3.9956   -2.7772    2.3531 C   0  0  0  0  0  0  0  0  0  0  0  0
    2.2232    3.2916    0.4644 C   0  0  0  0  0  0  0  0  0  0  0  0
   -5.1337    3.3936   -0.1473 C   0  0  0  0  0  0  0  0  0  0  0  0
    6.0995   -2.1613    1.3950 C   0  0  0  0  0  0  0  0  0  0  0  0
   -7.1737   -0.7273    0.4592 C   0  0  0  0  0  0  0  0  0  0  0  0
    5.3662    1.5381    2.6868 C   0  0  0  0  0  0  0  0  0  0  0  0
   -1.4458   -1.7862   -1.8800 H   0  0  0  0  0  0  0  0  0  0  0  0
    0.6859   -2.8687   -1.7610 H   0  0  0  0  0  0  0  0  0  0  0  0
   -0.4283    0.8205   -0.6949 H   0  0  0  0  0  0  0  0  0  0  0  0
    2.2981   -1.6802   -2.7364 H   0  0  0  0  0  0  0  0  0  0  0  0
    1.5394   -2.0068    0.6754 H   0  0  0  0  0  0  0  0  0  0  0  0
   -0.0448   -2.7565    0.4786 H   0  0  0  0  0  0  0  0  0  0  0  0
   -0.8193    0.5162   -3.1681 H   0  0  0  0  0  0  0  0  0  0  0  0
   -0.2900   -1.0359   -3.8568 H   0  0  0  0  0  0  0  0  0  0  0  0
   -2.5740    1.7328   -1.3658 H   0  0  0  0  0  0  0  0  0  0  0  0
    4.1660   -2.1351   -1.2587 H   0  0  0  0  0  0  0  0  0  0  0  0
   -2.2849   -1.7673    1.0692 H   0  0  0  0  0  0  0  0  0  0  0  0
    1.7466    1.3597   -0.8112 H   0  0  0  0  0  0  0  0  0  0  0  0
   -4.6182   -3.4002    3.0039 H   0  0  0  0  0  0  0  0  0  0  0  0
   -3.6336   -3.4248    1.5473 H   0  0  0  0  0  0  0  0  0  0  0  0
   -3.1822   -2.3857    2.9736 H   0  0  0  0  0  0  0  0  0  0  0  0
    1.3501    2.7459    0.8388 H   0  0  0  0  0  0  0  0  0  0  0  0
    2.2340    4.2599    0.9757 H   0  0  0  0  0  0  0  0  0  0  0  0
    2.1575    3.5010   -0.6088 H   0  0  0  0  0  0  0  0  0  0  0  0
   -5.5760    3.2281    0.8402 H   0  0  0  0  0  0  0  0  0  0  0  0
   -4.1238    3.8027   -0.0432 H   0  0  0  0  0  0  0  0  0  0  0  0
   -5.7497    4.1162   -0.6895 H   0  0  0  0  0  0  0  0  0  0  0  0
    5.3291   -2.9301    1.2772 H   0  0  0  0  0  0  0  0  0  0  0  0
    5.9207   -1.5878    2.3097 H   0  0  0  0  0  0  0  0  0  0  0  0
    7.0734   -2.6517    1.4749 H   0  0  0  0  0  0  0  0  0  0  0  0
   -6.8045   -1.2897   -0.4056 H   0  0  0  0  0  0  0  0  0  0  0  0
   -7.3034   -1.3914    1.3184 H   0  0  0  0  0  0  0  0  0  0  0  0
   -8.1525   -0.3115    0.2026 H   0  0  0  0  0  0  0  0  0  0  0  0
    6.2278    1.3711    3.3399 H   0  0  0  0  0  0  0  0  0  0  0  0
    5.0923    2.5948    2.7520 H   0  0  0  0  0  0  0  0  0  0  0  0
    4.5428    0.9077    3.0406 H   0  0  0  0  0  0  0  0  0  0  0  0
  1 11  1  0  0  0  0
  1 13  1  0  0  0  0
  2 12  1  0  0  0  0
  2 14  1  0  0  0  0
  3 21  1  0  0  0  0
  3 27  1  0  0  0  0
  4 22  1  0  0  0  0
  4 28  1  0  0  0  0
  5 23  1  0  0  0  0
  5 29  1  0  0  0  0
  6 24  1  0  0  0  0
  6 30  1  0  0  0  0
  7 25  1  0  0  0  0
  7 31  1  0  0  0  0
  8 26  1  0  0  0  0
  8 32  1  0  0  0  0
  9 10  1  0  0  0  0
  9 11  1  0  0  0  0
  9 14  1  0  0  0  0
  9 33  1  0  0  0  0
 10 12  1  0  0  0  0
 10 13  1  0  0  0  0
 10 34  1  0  0  0  0
 11 15  1  0  0  0  0
 11 35  1  0  0  0  0
 12 16  1  0  0  0  0
 12 36  1  0  0  0  0
 13 37  1  0  0  0  0
 13 38  1  0  0  0  0
 14 39  1  0  0  0  0
 14 40  1  0  0  0  0
 15 17  2  0  0  0  0
 15 19  1  0  0  0  0
 16 18  2  0  0  0  0
 16 20  1  0  0  0  0
 17 23  1  0  0  0  0
 17 41  1  0  0  0  0
 18 24  1  0  0  0  0
 18 42  1  0  0  0  0
 19 21  2  0  0  0  0
 19 43  1  0  0  0  0
 20 22  2  0  0  0  0
 20 44  1  0  0  0  0
 21 25  1  0  0  0  0
 22 26  1  0  0  0  0
 23 25  2  0  0  0  0
 24 26  2  0  0  0  0
 27 45  1  0  0  0  0
 27 46  1  0  0  0  0
 27 47  1  0  0  0  0
 28 48  1  0  0  0  0
 28 49  1  0  0  0  0
 28 50  1  0  0  0  0
 29 51  1  0  0  0  0
 29 52  1  0  0  0  0
 29 53  1  0  0  0  0
 30 54  1  0  0  0  0
 30 55  1  0  0  0  0
 30 56  1  0  0  0  0
 31 57  1  0  0  0  0
 31 58  1  0  0  0  0
 31 59  1  0  0  0  0
 32 60  1  0  0  0  0
 32 61  1  0  0  0  0
 32 62  1  0  0  0  0
M  END
> <PUBCHEM_COMPOUND_CID>
10049223

> <PUBCHEM_CONFORMER_RMSD>
1

> <PUBCHEM_CONFORMER_DIVERSEORDER>
2
1
10
8
11
3
6
4
9
7
12
5

> <PUBCHEM_MMFF94_PARTIAL_CHARGES>
34
1 -0.56
11 0.42
12 0.42
13 0.28
14 0.28
15 -0.14
16 -0.14
17 -0.15
18 -0.15
19 -0.15
2 -0.56
20 -0.15
21 0.08
22 0.08
23 0.08
24 0.08
25 0.08
26 0.08
27 0.28
28 0.28
29 0.28
3 -0.36
30 0.28
31 0.28
32 0.28
4 -0.36
41 0.15
42 0.15
43 0.15
44 0.15
5 -0.36
6 -0.36
7 -0.36
8 -0.36

> <PUBCHEM_EFFECTIVE_ROTOR_COUNT>
9.2

> <PUBCHEM_PHARMACOPHORE_FEATURES>
12
1 1 acceptor
1 2 acceptor
1 3 acceptor
1 4 acceptor
1 5 acceptor
1 6 acceptor
1 7 acceptor
1 8 acceptor
5 1 9 10 11 13 rings
5 2 9 10 12 14 rings
6 15 17 19 21 23 25 rings
6 16 18 20 22 24 26 rings

> <PUBCHEM_HEAVY_ATOM_COUNT>
32

> <PUBCHEM_ATOM_DEF_STEREO_COUNT>
4

> <PUBCHEM_ATOM_UDEF_STEREO_COUNT>
0

> <PUBCHEM_BOND_DEF_STEREO_COUNT>
0

> <PUBCHEM_BOND_UDEF_STEREO_COUNT>
0

> <PUBCHEM_ISOTOPIC_ATOM_COUNT>
0

> <PUBCHEM_COMPONENT_COUNT>
1

> <PUBCHEM_CACTVS_TAUTO_COUNT>
1

> <PUBCHEM_CONFORMER_ID>
009956C700000002

> <PUBCHEM_MMFF94_ENERGY>
160.8605

> <PUBCHEM_FEATURE_SELFOVERLAP>
61.407

> <PUBCHEM_SHAPE_FINGERPRINT>
10 15 18343022211392193890
10319926 262 18259706687648222683
11045977 3 18334582364464092259
11545043 162 18114187444745895651
11828532 37 17897455102252062379
12128747 34 18261952942785638298
12166972 35 17386014974362289941
12422481 6 18272640247674698396
12553582 1 14129058140528920644
12633257 1 18117257354995288448
13103583 49 17095520699347133252
13402501 40 18341327799528799981
13583140 156 18411422804049911711
13782708 43 18113337509325815346
14747282 305 16951966142211566891
15188451 53 17676768794351246339
15238133 3 18410011057670295100
15348495 7 18334297599362766689
1813 80 14490476357154022926
18222031 100 16153707660762053086
19319366 153 15482395240423727135
20511986 3 17130684211613161042
20715895 44 17703785869335415444
21033648 144 17561077046556688677
21033648 29 18411418410145101148
21315763 129 18412265021688509285
21475661 188 18412541003090929156
21792934 111 18186814578483316505
22122407 14 17917713440057226841
22149856 69 15912789262155386055
23522609 53 16155428289111565622
23559900 14 18044391438847703159
2838139 119 17846486011658118396
312425 54 17895189974622029458
345986 75 14562794586612671716
3472631 163 15769494343690920672
392239 28 18338811077947836907
397830 11 18341056336020363298
4112364 45 17489010661411413000
4144715 1 18335994098586321003

> <PUBCHEM_SHAPE_MULTIPOLES>
611.59
16.45
2.93
2.25
5.17
1.9
0.44
1.89
-9.39
0.41
-1.04
-0.85
-0.84
2.93

> <PUBCHEM_SHAPE_SELFOVERLAP>
1316.738

> <PUBCHEM_SHAPE_VOLUME>
341.6

> <PUBCHEM_COORDINATE_TYPE>
2
5
10

$$$$
