71307329
  -OEChem-09022000223D

 79 82  0     1  0  0  0  0  0999 V2000
   -4.5045   -3.0348    1.0017 O   0  0  0  0  0  0  0  0  0  0  0  0
   -7.5099   -0.4931   -2.0253 O   0  0  0  0  0  0  0  0  0  0  0  0
    0.3846    0.8648    0.6432 C   0  0  1  0  0  0  0  0  0  0  0  0
   -0.3254   -0.5020    0.5408 C   0  0  2  0  0  0  0  0  0  0  0  0
   -1.8217   -0.4217    0.8600 C   0  0  1  0  0  0  0  0  0  0  0  0
   -2.5000    0.5540   -0.1499 C   0  0  1  0  0  0  0  0  0  0  0  0
    1.8323    0.4158    0.3276 C   0  0  2  0  0  0  0  0  0  0  0  0
   -0.2431    1.7965   -0.4024 C   0  0  0  0  0  0  0  0  0  0  0  0
    0.5612   -1.4296    1.3664 C   0  0  0  0  0  0  0  0  0  0  0  0
   -4.0602    0.6717    0.0618 C   0  0  2  0  0  0  0  0  0  0  0  0
   -1.7656    1.9222   -0.2111 C   0  0  0  0  0  0  0  0  0  0  0  0
    1.9873   -0.9021    1.1222 C   0  0  0  0  0  0  0  0  0  0  0  0
   -2.4862   -1.7992    0.7837 C   0  0  0  0  0  0  0  0  0  0  0  0
    2.9373    1.4194    0.6241 C   0  0  1  0  0  0  0  0  0  0  0  0
    0.2972    1.5203    2.0444 C   0  0  0  0  0  0  0  0  0  0  0  0
   -4.6803   -0.7378    0.1376 C   0  0  0  0  0  0  0  0  0  0  0  0
   -3.9803   -1.7100    1.0766 C   0  0  1  0  0  0  0  0  0  0  0  0
   -4.6499    1.4600   -1.1452 C   0  0  0  0  0  0  0  0  0  0  0  0
   -4.4109    1.4256    1.3651 C   0  0  0  0  0  0  0  0  0  0  0  0
    4.3274    0.7591    0.7339 C   0  0  0  0  0  0  0  0  0  0  0  0
    2.9749    2.4973   -0.4667 C   0  0  0  0  0  0  0  0  0  0  0  0
   -6.1576    1.3328   -1.2777 C   0  0  0  0  0  0  0  0  0  0  0  0
   -5.7790   -1.0934   -0.5534 C   0  0  0  0  0  0  0  0  0  0  0  0
   -6.5441   -0.1174   -1.3642 C   0  0  0  0  0  0  0  0  0  0  0  0
    4.7749   -0.0650   -0.4847 C   0  0  0  0  0  0  0  0  0  0  0  0
    6.1281   -0.8107   -0.3506 C   0  0  2  0  0  0  0  0  0  0  0  0
    7.3015    0.1492    0.0264 C   0  0  0  0  0  0  0  0  0  0  0  0
    6.4145   -1.6488   -1.6212 C   0  0  0  0  0  0  0  0  0  0  0  0
    8.6125   -0.5699    0.3550 C   0  0  0  0  0  0  0  0  0  0  0  0
    7.5532    1.2098   -1.0530 C   0  0  0  0  0  0  0  0  0  0  0  0
    5.3316   -2.6630   -1.9651 C   0  0  0  0  0  0  0  0  0  0  0  0
   -0.2461   -0.8573   -0.5007 H   0  0  0  0  0  0  0  0  0  0  0  0
   -1.9537   -0.0501    1.8816 H   0  0  0  0  0  0  0  0  0  0  0  0
   -2.3575    0.1011   -1.1450 H   0  0  0  0  0  0  0  0  0  0  0  0
    1.8792    0.1436   -0.7378 H   0  0  0  0  0  0  0  0  0  0  0  0
   -0.0441    1.4229   -1.4148 H   0  0  0  0  0  0  0  0  0  0  0  0
    0.1770    2.8034   -0.3481 H   0  0  0  0  0  0  0  0  0  0  0  0
    0.4648   -2.4738    1.0515 H   0  0  0  0  0  0  0  0  0  0  0  0
    0.3109   -1.3799    2.4321 H   0  0  0  0  0  0  0  0  0  0  0  0
   -1.9630    2.4977    0.6989 H   0  0  0  0  0  0  0  0  0  0  0  0
   -2.1536    2.5192   -1.0436 H   0  0  0  0  0  0  0  0  0  0  0  0
    2.5663   -1.6512    0.5753 H   0  0  0  0  0  0  0  0  0  0  0  0
    2.4647   -0.7546    2.0967 H   0  0  0  0  0  0  0  0  0  0  0  0
   -2.0210   -2.4851    1.5029 H   0  0  0  0  0  0  0  0  0  0  0  0
   -2.3240   -2.2535   -0.2035 H   0  0  0  0  0  0  0  0  0  0  0  0
    2.7784    1.9178    1.5857 H   0  0  0  0  0  0  0  0  0  0  0  0
    0.8265    0.9460    2.8112 H   0  0  0  0  0  0  0  0  0  0  0  0
   -0.7328    1.6347    2.3923 H   0  0  0  0  0  0  0  0  0  0  0  0
    0.7261    2.5287    2.0328 H   0  0  0  0  0  0  0  0  0  0  0  0
   -4.1378   -1.3690    2.1067 H   0  0  0  0  0  0  0  0  0  0  0  0
   -4.1956    1.0955   -2.0773 H   0  0  0  0  0  0  0  0  0  0  0  0
   -4.3984    2.5249   -1.0734 H   0  0  0  0  0  0  0  0  0  0  0  0
   -4.1397    2.4848    1.3039 H   0  0  0  0  0  0  0  0  0  0  0  0
   -3.8999    1.0081    2.2380 H   0  0  0  0  0  0  0  0  0  0  0  0
   -5.4858    1.3837    1.5766 H   0  0  0  0  0  0  0  0  0  0  0  0
    5.0553    1.5603    0.9103 H   0  0  0  0  0  0  0  0  0  0  0  0
    4.3798    0.1287    1.6288 H   0  0  0  0  0  0  0  0  0  0  0  0
    3.9136    3.0620   -0.4276 H   0  0  0  0  0  0  0  0  0  0  0  0
    2.1814    3.2327   -0.3245 H   0  0  0  0  0  0  0  0  0  0  0  0
    2.8839    2.0770   -1.4734 H   0  0  0  0  0  0  0  0  0  0  0  0
   -6.4819    1.8356   -2.1955 H   0  0  0  0  0  0  0  0  0  0  0  0
   -6.6839    1.7903   -0.4343 H   0  0  0  0  0  0  0  0  0  0  0  0
   -6.1971   -2.0928   -0.5032 H   0  0  0  0  0  0  0  0  0  0  0  0
    4.8094    0.5852   -1.3666 H   0  0  0  0  0  0  0  0  0  0  0  0
    4.0049   -0.8037   -0.7068 H   0  0  0  0  0  0  0  0  0  0  0  0
   -4.0573   -3.5685    1.6806 H   0  0  0  0  0  0  0  0  0  0  0  0
    6.0176   -1.5178    0.4840 H   0  0  0  0  0  0  0  0  0  0  0  0
    7.0234    0.6762    0.9467 H   0  0  0  0  0  0  0  0  0  0  0  0
    7.3509   -2.2009   -1.4851 H   0  0  0  0  0  0  0  0  0  0  0  0
    6.5549   -0.9941   -2.4883 H   0  0  0  0  0  0  0  0  0  0  0  0
    9.0568   -1.0329   -0.5315 H   0  0  0  0  0  0  0  0  0  0  0  0
    8.4491   -1.3504    1.1051 H   0  0  0  0  0  0  0  0  0  0  0  0
    7.8846    0.7645   -1.9958 H   0  0  0  0  0  0  0  0  0  0  0  0
    8.3401    1.8998   -0.7270 H   0  0  0  0  0  0  0  0  0  0  0  0
    6.6637    1.8148   -1.2479 H   0  0  0  0  0  0  0  0  0  0  0  0
    9.3466    0.1346    0.7614 H   0  0  0  0  0  0  0  0  0  0  0  0
    5.0708   -3.2737   -1.0952 H   0  0  0  0  0  0  0  0  0  0  0  0
    5.6878   -3.3341   -2.7539 H   0  0  0  0  0  0  0  0  0  0  0  0
    4.4258   -2.1788   -2.3411 H   0  0  0  0  0  0  0  0  0  0  0  0
  1 17  1  0  0  0  0
  1 66  1  0  0  0  0
  2 24  2  0  0  0  0
  3  4  1  0  0  0  0
  3  7  1  0  0  0  0
  3  8  1  0  0  0  0
  3 15  1  0  0  0  0
  4  5  1  0  0  0  0
  4  9  1  0  0  0  0
  4 32  1  0  0  0  0
  5  6  1  0  0  0  0
  5 13  1  0  0  0  0
  5 33  1  0  0  0  0
  6 10  1  0  0  0  0
  6 11  1  0  0  0  0
  6 34  1  0  0  0  0
  7 12  1  0  0  0  0
  7 14  1  0  0  0  0
  7 35  1  0  0  0  0
  8 11  1  0  0  0  0
  8 36  1  0  0  0  0
  8 37  1  0  0  0  0
  9 12  1  0  0  0  0
  9 38  1  0  0  0  0
  9 39  1  0  0  0  0
 10 16  1  0  0  0  0
 10 18  1  0  0  0  0
 10 19  1  0  0  0  0
 11 40  1  0  0  0  0
 11 41  1  0  0  0  0
 12 42  1  0  0  0  0
 12 43  1  0  0  0  0
 13 17  1  0  0  0  0
 13 44  1  0  0  0  0
 13 45  1  0  0  0  0
 14 20  1  0  0  0  0
 14 21  1  0  0  0  0
 14 46  1  0  0  0  0
 15 47  1  0  0  0  0
 15 48  1  0  0  0  0
 15 49  1  0  0  0  0
 16 17  1  0  0  0  0
 16 23  2  0  0  0  0
 17 50  1  0  0  0  0
 18 22  1  0  0  0  0
 18 51  1  0  0  0  0
 18 52  1  0  0  0  0
 19 53  1  0  0  0  0
 19 54  1  0  0  0  0
 19 55  1  0  0  0  0
 20 25  1  0  0  0  0
 20 56  1  0  0  0  0
 20 57  1  0  0  0  0
 21 58  1  0  0  0  0
 21 59  1  0  0  0  0
 21 60  1  0  0  0  0
 22 24  1  0  0  0  0
 22 61  1  0  0  0  0
 22 62  1  0  0  0  0
 23 24  1  0  0  0  0
 23 63  1  0  0  0  0
 25 26  1  0  0  0  0
 25 64  1  0  0  0  0
 25 65  1  0  0  0  0
 26 27  1  0  0  0  0
 26 28  1  0  0  0  0
 26 67  1  0  0  0  0
 27 29  1  0  0  0  0
 27 30  1  0  0  0  0
 27 68  1  0  0  0  0
 28 31  1  0  0  0  0
 28 69  1  0  0  0  0
 28 70  1  0  0  0  0
 29 71  1  0  0  0  0
 29 72  1  0  0  0  0
 29 76  1  0  0  0  0
 30 73  1  0  0  0  0
 30 74  1  0  0  0  0
 30 75  1  0  0  0  0
 31 77  1  0  0  0  0
 31 78  1  0  0  0  0
 31 79  1  0  0  0  0
M  END
> <PUBCHEM_COMPOUND_CID>
71307329

> <PUBCHEM_CONFORMER_RMSD>
1

> <PUBCHEM_CONFORMER_DIVERSEORDER>
3
19
23
10
15
21
9
20
17
16
7
11
8
5
18
22
14
13
2
4
12
6
1

> <PUBCHEM_MMFF94_PARTIAL_CHARGES>
10
1 -0.68
10 0.14
16 -0.28
17 0.42
2 -0.57
22 0.06
23 -0.14
24 0.49
63 0.15
66 0.4

> <PUBCHEM_EFFECTIVE_ROTOR_COUNT>
7.8

> <PUBCHEM_PHARMACOPHORE_FEATURES>
11
1 1 acceptor
1 1 donor
1 2 acceptor
1 21 hydrophobe
1 31 hydrophobe
3 27 29 30 hydrophobe
5 3 4 7 9 12 rings
6 10 16 18 22 23 24 rings
6 14 20 25 26 27 28 hydrophobe
6 3 4 5 6 8 11 rings
6 5 6 10 13 16 17 rings

> <PUBCHEM_HEAVY_ATOM_COUNT>
31

> <PUBCHEM_ATOM_DEF_STEREO_COUNT>
8

> <PUBCHEM_ATOM_UDEF_STEREO_COUNT>
1

> <PUBCHEM_BOND_DEF_STEREO_COUNT>
0

> <PUBCHEM_BOND_UDEF_STEREO_COUNT>
0

> <PUBCHEM_ISOTOPIC_ATOM_COUNT>
0

> <PUBCHEM_COMPONENT_COUNT>
1

> <PUBCHEM_CACTVS_TAUTO_COUNT>
2

> <PUBCHEM_CONFORMER_ID>
0440104100000003

> <PUBCHEM_MMFF94_ENERGY>
96.2755

> <PUBCHEM_FEATURE_SELFOVERLAP>
55.933

> <PUBCHEM_SHAPE_FINGERPRINT>
10076449 9 18259989293134865843
10670039 82 17968089794424928605
10693767 8 18271801264457906046
10835480 77 18337393850926797144
11135926 11 18114182999497299931
11315181 36 18202283615304698849
11578080 2 16372391598568801959
12011746 2 18335692858871564833
12166972 35 16343697755293020088
13782708 43 17704354368122592486
13811026 1 18412826872488992526
14251764 18 13614237113953968424
14294032 229 17168976786435184892
14856354 85 14996291339999492651
14931854 50 18335687335802143869
15183329 4 18114179727217153040
15461852 350 11530767037613498921
18681886 176 18335412512812234208
19958102 18 18335145246041110094
20105231 36 17967537913509486859
2026 5 17917714548164740102
20567600 247 17489585645425808838
21150785 3 18272646844395993718
21267235 1 18260552272868299827
21279426 13 18261393381397876745
21682296 61 17917720054264599526
21792934 111 10807933778578008035
21792961 116 18333733511259063827
22122407 14 13768220358690779972
22393880 68 18260263083629256539
23559900 14 18409726283240835704
23569914 152 17478879498874060743
23569943 247 17842000988018088550
23576562 1 17604435231078136132
249057 3 18113335331835093717
2838139 119 14923945665246180902
3004659 81 18113893883853000984
335352 9 18187359943595695261
437815 12 18272370871388810536
44802255 64 16226032389809590739
504579 68 17967524697029563511
504843 32 13984672472345330321
5104073 3 10663560191513902053
58902169 19 16370728145377926678
59682541 35 10591753307686274612
59755656 215 18261388923454126786
59755656 520 14707212127775408472

> <PUBCHEM_SHAPE_MULTIPOLES>
626.23
21.69
2.45
1.62
20.35
0.62
0.21
4.84
10.56
-0.03
0.14
-0.7
0.32
1.78

> <PUBCHEM_SHAPE_SELFOVERLAP>
1296.788

> <PUBCHEM_SHAPE_VOLUME>
357

> <PUBCHEM_COORDINATE_TYPE>
2
5
10

$$$$
