3083592
  -OEChem-09012013283D

 31 32  0     0  0  0  0  0  0999 V2000
    0.7099   -0.7207    0.0097 C   0  0  0  0  0  0  0  0  0  0  0  0
    1.5709    0.4752   -0.0061 C   0  0  0  0  0  0  0  0  0  0  0  0
    1.5534   -1.7829    0.0039 C   0  0  0  0  0  0  0  0  0  0  0  0
    1.1854    1.7672   -0.0028 C   0  0  0  0  0  0  0  0  0  0  0  0
   -0.7310   -0.8309    0.0205 C   0  0  0  0  0  0  0  0  0  0  0  0
    2.9534    0.0145   -0.0230 C   0  0  0  0  0  0  0  0  0  0  0  0
    2.9300   -1.3221   -0.0161 C   0  0  0  0  0  0  0  0  0  0  0  0
   -1.6562    0.1482    0.0313 C   0  0  0  0  0  0  0  0  0  0  0  0
   -0.1929    2.2361    0.0224 C   0  0  0  0  0  0  0  0  0  0  0  0
   -1.3553    1.5719    0.0367 C   0  0  0  0  0  0  0  0  0  0  0  0
    1.2980   -3.2521    0.0130 C   0  0  0  0  0  0  0  0  0  0  0  0
    2.1598    2.9285   -0.0215 C   0  0  0  0  0  0  0  0  0  0  0  0
   -3.0507   -0.2810    0.0407 C   0  0  0  0  0  0  0  0  0  0  0  0
   -3.6827   -0.4639   -1.2985 C   0  0  0  0  0  0  0  0  0  0  0  0
   -3.6921   -0.4879    1.1898 C   0  0  0  0  0  0  0  0  0  0  0  0
   -1.1031   -1.8549    0.0167 H   0  0  0  0  0  0  0  0  0  0  0  0
    3.8468    0.6151   -0.0369 H   0  0  0  0  0  0  0  0  0  0  0  0
    3.7926   -1.9699   -0.0242 H   0  0  0  0  0  0  0  0  0  0  0  0
   -0.2908    3.3235    0.0314 H   0  0  0  0  0  0  0  0  0  0  0  0
   -2.2471    2.2019    0.0540 H   0  0  0  0  0  0  0  0  0  0  0  0
    1.7618   -3.7135    0.8916 H   0  0  0  0  0  0  0  0  0  0  0  0
    1.7240   -3.7178   -0.8823 H   0  0  0  0  0  0  0  0  0  0  0  0
    0.2357   -3.5049    0.0371 H   0  0  0  0  0  0  0  0  0  0  0  0
    3.2100    2.6326   -0.0493 H   0  0  0  0  0  0  0  0  0  0  0  0
    2.0297    3.5483    0.8735 H   0  0  0  0  0  0  0  0  0  0  0  0
    1.9867    3.5558   -0.9039 H   0  0  0  0  0  0  0  0  0  0  0  0
   -3.6682    0.4719   -1.8679 H   0  0  0  0  0  0  0  0  0  0  0  0
   -4.7287   -0.7794   -1.2153 H   0  0  0  0  0  0  0  0  0  0  0  0
   -3.1560   -1.2292   -1.8791 H   0  0  0  0  0  0  0  0  0  0  0  0
   -4.7293   -0.8070    1.2046 H   0  0  0  0  0  0  0  0  0  0  0  0
   -3.2074   -0.3463    2.1510 H   0  0  0  0  0  0  0  0  0  0  0  0
  1  2  1  0  0  0  0
  1  3  2  0  0  0  0
  1  5  1  0  0  0  0
  2  4  2  0  0  0  0
  2  6  1  0  0  0  0
  3  7  1  0  0  0  0
  3 11  1  0  0  0  0
  4  9  1  0  0  0  0
  4 12  1  0  0  0  0
  5  8  2  0  0  0  0
  5 16  1  0  0  0  0
  6  7  2  0  0  0  0
  6 17  1  0  0  0  0
  7 18  1  0  0  0  0
  8 10  1  0  0  0  0
  8 13  1  0  0  0  0
  9 10  2  0  0  0  0
  9 19  1  0  0  0  0
 10 20  1  0  0  0  0
 11 21  1  0  0  0  0
 11 22  1  0  0  0  0
 11 23  1  0  0  0  0
 12 24  1  0  0  0  0
 12 25  1  0  0  0  0
 12 26  1  0  0  0  0
 13 14  1  0  0  0  0
 13 15  2  0  0  0  0
 14 27  1  0  0  0  0
 14 28  1  0  0  0  0
 14 29  1  0  0  0  0
 15 30  1  0  0  0  0
 15 31  1  0  0  0  0
M  END
> <PUBCHEM_COMPOUND_CID>
3083592

> <PUBCHEM_CONFORMER_RMSD>
0.4

> <PUBCHEM_CONFORMER_DIVERSEORDER>
1
2
3

> <PUBCHEM_MMFF94_PARTIAL_CHARGES>
19
10 -0.15
11 0.14
12 0.14
13 -0.14
14 0.14
15 -0.3
16 0.15
17 0.15
18 0.15
19 0.15
20 0.15
3 -0.14
30 0.15
31 0.15
4 -0.14
5 -0.15
6 -0.15
7 -0.15
9 -0.15

> <PUBCHEM_EFFECTIVE_ROTOR_COUNT>
1

> <PUBCHEM_PHARMACOPHORE_FEATURES>
2
5 1 2 3 6 7 rings
7 1 2 4 5 8 9 10 rings

> <PUBCHEM_HEAVY_ATOM_COUNT>
15

> <PUBCHEM_ATOM_DEF_STEREO_COUNT>
0

> <PUBCHEM_ATOM_UDEF_STEREO_COUNT>
0

> <PUBCHEM_BOND_DEF_STEREO_COUNT>
0

> <PUBCHEM_BOND_UDEF_STEREO_COUNT>
0

> <PUBCHEM_ISOTOPIC_ATOM_COUNT>
0

> <PUBCHEM_COMPONENT_COUNT>
1

> <PUBCHEM_CACTVS_TAUTO_COUNT>
1

> <PUBCHEM_CONFORMER_ID>
002F0D4800000001

> <PUBCHEM_MMFF94_ENERGY>
67.9904

> <PUBCHEM_FEATURE_SELFOVERLAP>
10.179

> <PUBCHEM_SHAPE_FINGERPRINT>
10967382 1 18338517542433783888
10980938 120 18339079414239851973
11471102 20 18410008845054911301
11578080 2 17415807311764910945
12553582 1 18339364050275874539
12654215 9 18261661640871266813
13140716 1 18266461090725561162
13380535 76 18123182678480446528
13380536 305 18339370767904879732
13897977 150 18265615579231941457
14178342 30 18268423525955734392
14251717 144 18340197604822654383
14790565 3 18266479731179758548
15219456 202 18115305700085860753
16945 1 18410855464423129094
19591789 44 17904777922132383366
20201158 50 18334574629296466403
20559304 39 18410017606703760026
20645477 70 18335691789308689759
21501502 16 18050288063956857618
21639500 275 18267293404064014165
221490 88 18264490766057813427
22445834 79 18343029860997850257
2255824 54 18412265072768888622
23184049 29 17760081822476502162
2334 1 17978510063504753378
23388829 49 18343578525631582021
23402539 116 18269262491961320686
23419403 2 17318402650301273044
23530152 11 18122347053779795252
23559900 14 16181005945201073158
23598291 2 18060142076375383343
257057 1 18049709729277471298
2748010 2 18048324628125950618
34934 24 18121775024086298489
54173680 148 17473265375386368626
7364860 26 18413109493583622144
77492 1 17703795859666313445
7832392 63 18124881157462352337
81228 2 17761486993788352304
84936 182 17987235719148249433
8809292 202 17615976512645962010

> <PUBCHEM_SHAPE_MULTIPOLES>
308.69
5.42
3.06
0.82
4.22
0.15
0.03
-1.11
0.08
-2.66
-0.01
0.76
-0.1
-0.02

> <PUBCHEM_SHAPE_SELFOVERLAP>
660.752

> <PUBCHEM_SHAPE_VOLUME>
169.7

> <PUBCHEM_COORDINATE_TYPE>
2
5
10

$$$$
