15767709
  -OEChem-09022000243D

 80 84  0     1  0  0  0  0  0999 V2000
   -7.2266   -0.2215    1.4753 O   0  0  0  0  0  0  0  0  0  0  0  0
    7.0833   -0.7974    1.9927 O   0  0  0  0  0  0  0  0  0  0  0  0
   -1.8847   -0.6247   -0.0059 C   0  0  1  0  0  0  0  0  0  0  0  0
   -3.4221   -0.5872    0.0885 C   0  0  2  0  0  0  0  0  0  0  0  0
   -2.7653   -1.0025   -1.1958 C   0  0  0  0  0  0  0  0  0  0  0  0
   -1.2568    0.7697    0.2188 C   0  0  1  0  0  0  0  0  0  0  0  0
    0.3041    0.7166    0.3078 C   0  0  1  0  0  0  0  0  0  0  0  0
   -4.0853    0.8050    0.1612 C   0  0  1  0  0  0  0  0  0  0  0  0
   -1.0758   -1.7789    0.5760 C   0  0  0  0  0  0  0  0  0  0  0  0
    0.8953   -0.4921   -0.4931 C   0  0  2  0  0  0  0  0  0  0  0  0
   -4.0939   -1.6236    0.9664 C   0  0  0  0  0  0  0  0  0  0  0  0
   -1.8366    1.8200   -0.7274 C   0  0  0  0  0  0  0  0  0  0  0  0
    0.3974   -1.8146    0.1168 C   0  0  0  0  0  0  0  0  0  0  0  0
   -3.3740    1.8666   -0.7187 C   0  0  0  0  0  0  0  0  0  0  0  0
   -5.6302    0.7390   -0.0965 C   0  0  0  0  0  0  0  0  0  0  0  0
    2.4218   -0.2372   -0.3478 C   0  0  2  0  0  0  0  0  0  0  0  0
    1.1288    1.8831   -0.2750 C   0  0  0  0  0  0  0  0  0  0  0  0
    2.5467    1.3008   -0.4826 C   0  0  0  0  0  0  0  0  0  0  0  0
   -5.5762   -1.7396    0.6691 C   0  0  0  0  0  0  0  0  0  0  0  0
    0.6498    0.6861    1.8402 C   0  0  0  0  0  0  0  0  0  0  0  0
    0.5450   -0.4841   -2.0115 C   0  0  0  0  0  0  0  0  0  0  0  0
   -6.2284   -0.3813    0.7725 C   0  0  0  0  0  0  0  0  0  0  0  0
    3.3485   -0.9892   -1.2969 C   0  0  1  0  0  0  0  0  0  0  0  0
   -6.0031    0.4335   -1.5585 C   0  0  0  0  0  0  0  0  0  0  0  0
   -6.2938    2.0749    0.2974 C   0  0  0  0  0  0  0  0  0  0  0  0
    4.8137   -0.5841   -1.0357 C   0  0  0  0  0  0  0  0  0  0  0  0
    3.1324   -2.4983   -1.1510 C   0  0  0  0  0  0  0  0  0  0  0  0
    5.2948   -0.9068    0.3829 C   0  0  0  0  0  0  0  0  0  0  0  0
    6.7634   -0.5207    0.6276 C   0  0  1  0  0  0  0  0  0  0  0  0
    7.0861    0.9319    0.3499 C   0  0  0  0  0  0  0  0  0  0  0  0
    6.3024    1.9831    1.0856 C   0  0  0  0  0  0  0  0  0  0  0  0
    8.0390    1.2738   -0.5324 C   0  0  0  0  0  0  0  0  0  0  0  0
   -2.8318   -2.0478   -1.4830 H   0  0  0  0  0  0  0  0  0  0  0  0
   -2.8144   -0.3536   -2.0602 H   0  0  0  0  0  0  0  0  0  0  0  0
   -1.6098    1.0765    1.2147 H   0  0  0  0  0  0  0  0  0  0  0  0
   -3.9530    1.1268    1.2058 H   0  0  0  0  0  0  0  0  0  0  0  0
   -1.5225   -2.7492    0.3280 H   0  0  0  0  0  0  0  0  0  0  0  0
   -1.1203   -1.7146    1.6694 H   0  0  0  0  0  0  0  0  0  0  0  0
   -3.6474   -2.6153    0.8433 H   0  0  0  0  0  0  0  0  0  0  0  0
   -3.9482   -1.3354    2.0152 H   0  0  0  0  0  0  0  0  0  0  0  0
   -1.4985    1.6429   -1.7548 H   0  0  0  0  0  0  0  0  0  0  0  0
   -1.4631    2.8140   -0.4521 H   0  0  0  0  0  0  0  0  0  0  0  0
    0.4835   -2.6346   -0.6032 H   0  0  0  0  0  0  0  0  0  0  0  0
    1.0111   -2.1109    0.9763 H   0  0  0  0  0  0  0  0  0  0  0  0
   -3.7050    1.7912   -1.7602 H   0  0  0  0  0  0  0  0  0  0  0  0
   -3.6817    2.8664   -0.3886 H   0  0  0  0  0  0  0  0  0  0  0  0
    2.6913   -0.5179    0.6753 H   0  0  0  0  0  0  0  0  0  0  0  0
    0.7421    2.2175   -1.2432 H   0  0  0  0  0  0  0  0  0  0  0  0
    1.1504    2.7625    0.3781 H   0  0  0  0  0  0  0  0  0  0  0  0
    3.2185    1.6948    0.2826 H   0  0  0  0  0  0  0  0  0  0  0  0
    2.9278    1.6146   -1.4605 H   0  0  0  0  0  0  0  0  0  0  0  0
   -5.7547   -2.1416   -0.3331 H   0  0  0  0  0  0  0  0  0  0  0  0
   -6.0479   -2.4181    1.3882 H   0  0  0  0  0  0  0  0  0  0  0  0
    0.2353    1.5734    2.3360 H   0  0  0  0  0  0  0  0  0  0  0  0
    1.7226    0.7083    2.0506 H   0  0  0  0  0  0  0  0  0  0  0  0
    0.2402   -0.1867    2.3521 H   0  0  0  0  0  0  0  0  0  0  0  0
    0.8871   -1.3898   -2.5201 H   0  0  0  0  0  0  0  0  0  0  0  0
    0.9933    0.3630   -2.5409 H   0  0  0  0  0  0  0  0  0  0  0  0
   -0.5223   -0.4271   -2.2054 H   0  0  0  0  0  0  0  0  0  0  0  0
    3.1420   -0.7180   -2.3393 H   0  0  0  0  0  0  0  0  0  0  0  0
   -5.7928    1.2800   -2.2201 H   0  0  0  0  0  0  0  0  0  0  0  0
   -7.0738    0.2132   -1.6495 H   0  0  0  0  0  0  0  0  0  0  0  0
   -5.4665   -0.4364   -1.9489 H   0  0  0  0  0  0  0  0  0  0  0  0
   -5.9571    2.9007   -0.3373 H   0  0  0  0  0  0  0  0  0  0  0  0
   -7.3849    2.0218    0.2010 H   0  0  0  0  0  0  0  0  0  0  0  0
   -6.0723    2.3344    1.3390 H   0  0  0  0  0  0  0  0  0  0  0  0
    5.4549   -1.1156   -1.7512 H   0  0  0  0  0  0  0  0  0  0  0  0
    4.9462    0.4799   -1.2561 H   0  0  0  0  0  0  0  0  0  0  0  0
    3.9788   -3.0409   -1.5892 H   0  0  0  0  0  0  0  0  0  0  0  0
    2.2552   -2.8479   -1.6965 H   0  0  0  0  0  0  0  0  0  0  0  0
    3.0576   -2.8137   -0.1059 H   0  0  0  0  0  0  0  0  0  0  0  0
    5.1862   -1.9782    0.5913 H   0  0  0  0  0  0  0  0  0  0  0  0
    4.6852   -0.4014    1.1391 H   0  0  0  0  0  0  0  0  0  0  0  0
    7.3940   -1.1788    0.0167 H   0  0  0  0  0  0  0  0  0  0  0  0
    8.0275   -0.6022    2.1209 H   0  0  0  0  0  0  0  0  0  0  0  0
    6.3726    1.8270    2.1667 H   0  0  0  0  0  0  0  0  0  0  0  0
    5.2523    1.9609    0.7988 H   0  0  0  0  0  0  0  0  0  0  0  0
    6.6764    2.9917    0.8779 H   0  0  0  0  0  0  0  0  0  0  0  0
    8.6073    0.5223   -1.0702 H   0  0  0  0  0  0  0  0  0  0  0  0
    8.2723    2.3131   -0.7387 H   0  0  0  0  0  0  0  0  0  0  0  0
  1 22  2  0  0  0  0
  2 29  1  0  0  0  0
  2 75  1  0  0  0  0
  3  4  1  0  0  0  0
  3  5  1  0  0  0  0
  3  6  1  0  0  0  0
  3  9  1  0  0  0  0
  4  5  1  0  0  0  0
  4  8  1  0  0  0  0
  4 11  1  0  0  0  0
  5 33  1  0  0  0  0
  5 34  1  0  0  0  0
  6  7  1  0  0  0  0
  6 12  1  0  0  0  0
  6 35  1  0  0  0  0
  7 10  1  0  0  0  0
  7 17  1  0  0  0  0
  7 20  1  0  0  0  0
  8 14  1  0  0  0  0
  8 15  1  0  0  0  0
  8 36  1  0  0  0  0
  9 13  1  0  0  0  0
  9 37  1  0  0  0  0
  9 38  1  0  0  0  0
 10 13  1  0  0  0  0
 10 16  1  0  0  0  0
 10 21  1  0  0  0  0
 11 19  1  0  0  0  0
 11 39  1  0  0  0  0
 11 40  1  0  0  0  0
 12 14  1  0  0  0  0
 12 41  1  0  0  0  0
 12 42  1  0  0  0  0
 13 43  1  0  0  0  0
 13 44  1  0  0  0  0
 14 45  1  0  0  0  0
 14 46  1  0  0  0  0
 15 22  1  0  0  0  0
 15 24  1  0  0  0  0
 15 25  1  0  0  0  0
 16 18  1  0  0  0  0
 16 23  1  0  0  0  0
 16 47  1  0  0  0  0
 17 18  1  0  0  0  0
 17 48  1  0  0  0  0
 17 49  1  0  0  0  0
 18 50  1  0  0  0  0
 18 51  1  0  0  0  0
 19 22  1  0  0  0  0
 19 52  1  0  0  0  0
 19 53  1  0  0  0  0
 20 54  1  0  0  0  0
 20 55  1  0  0  0  0
 20 56  1  0  0  0  0
 21 57  1  0  0  0  0
 21 58  1  0  0  0  0
 21 59  1  0  0  0  0
 23 26  1  0  0  0  0
 23 27  1  0  0  0  0
 23 60  1  0  0  0  0
 24 61  1  0  0  0  0
 24 62  1  0  0  0  0
 24 63  1  0  0  0  0
 25 64  1  0  0  0  0
 25 65  1  0  0  0  0
 25 66  1  0  0  0  0
 26 28  1  0  0  0  0
 26 67  1  0  0  0  0
 26 68  1  0  0  0  0
 27 69  1  0  0  0  0
 27 70  1  0  0  0  0
 27 71  1  0  0  0  0
 28 29  1  0  0  0  0
 28 72  1  0  0  0  0
 28 73  1  0  0  0  0
 29 30  1  0  0  0  0
 29 74  1  0  0  0  0
 30 31  1  0  0  0  0
 30 32  2  0  0  0  0
 31 76  1  0  0  0  0
 31 77  1  0  0  0  0
 31 78  1  0  0  0  0
 32 79  1  0  0  0  0
 32 80  1  0  0  0  0
M  END
> <PUBCHEM_COMPOUND_CID>
15767709

> <PUBCHEM_CONFORMER_RMSD>
1

> <PUBCHEM_CONFORMER_DIVERSEORDER>
6
3
7
4
5
1
2

> <PUBCHEM_MMFF94_PARTIAL_CHARGES>
21
1 -0.57
11 0.09
15 0.06
19 0.06
2 -0.68
22 0.45
29 0.42
3 -0.19
30 -0.28
31 0.14
32 -0.3
33 0.1
34 0.1
4 -0.19
5 -0.2
6 0.09
75 0.4
79 0.15
8 0.09
80 0.15
9 0.09

> <PUBCHEM_EFFECTIVE_ROTOR_COUNT>
7.2

> <PUBCHEM_PHARMACOPHORE_FEATURES>
9
1 1 acceptor
1 2 acceptor
1 2 donor
1 27 hydrophobe
3 15 24 25 hydrophobe
5 7 10 16 17 18 rings
6 3 6 7 9 10 13 rings
6 4 8 11 15 19 22 rings
7 3 4 5 6 8 12 14 rings

> <PUBCHEM_HEAVY_ATOM_COUNT>
32

> <PUBCHEM_ATOM_DEF_STEREO_COUNT>
8

> <PUBCHEM_ATOM_UDEF_STEREO_COUNT>
1

> <PUBCHEM_BOND_DEF_STEREO_COUNT>
0

> <PUBCHEM_BOND_UDEF_STEREO_COUNT>
0

> <PUBCHEM_ISOTOPIC_ATOM_COUNT>
0

> <PUBCHEM_COMPONENT_COUNT>
1

> <PUBCHEM_CACTVS_TAUTO_COUNT>
2

> <PUBCHEM_CONFORMER_ID>
00F0989D00000006

> <PUBCHEM_MMFF94_ENERGY>
131.3333

> <PUBCHEM_FEATURE_SELFOVERLAP>
45.778

> <PUBCHEM_SHAPE_FINGERPRINT>
10 15 18410575102449629026
10835480 77 18342738472825475468
10906281 52 17632309985651980150
11181472 205 14691747406873808203
11315181 36 18334858329620130785
11719270 70 18413109459740959190
12236239 1 16805328786024999959
12516196 113 16558746806526841488
13533116 47 16128384727570379526
13782708 43 17458632236887965427
13811026 1 18408603656088282655
13914758 101 15068334588413946685
14028597 1 17676201330323822480
14251764 18 18040155136799525462
14394314 77 18186519873746895441
14840074 17 16343703214206982788
14849402 71 18114749360056057572
14856354 85 14851609890724587915
15021287 119 16588030121442699453
15183329 4 18113625568497368766
15461852 350 17561077034404802293
15849732 13 16515401872285340718
18608769 82 18410295847955524115
21130935 74 18410859819647399634
21315759 40 14779553404487379203
21521721 280 17989208157324800282
21859007 373 17750499715857881508
23559900 14 18411134774873907953
23576562 1 13254210793609806273
24771293 8 18411702084403881188
3004659 81 18114475500208681118
3178227 256 18334024895162929267
335352 9 18335700559674145413
3383291 50 17749678479772782923
34797466 226 17560808727908792180
350125 39 18410013234248074909
4073 2 18408611344264592651
4093350 32 16702029638778587340
4169191 19 18131073744262417840
4339292 15 17313388993913093331
4340502 62 18408887322068305686
5104073 3 18268433429833573866
59755656 520 15574720209732390043
6086070 43 17241308275332861167
7226269 152 18272370871193196744

> <PUBCHEM_SHAPE_MULTIPOLES>
646.81
20.09
2.18
1.44
14.86
0.03
0
4.05
5.03
0
-0.07
0.31
-0.2
1.13

> <PUBCHEM_SHAPE_SELFOVERLAP>
1367.158

> <PUBCHEM_SHAPE_VOLUME>
364.1

> <PUBCHEM_COORDINATE_TYPE>
2
5
10

$$$$
