92469142
  -OEChem-09012014153D

 20 21  0     1  0  0  0  0  0999 V2000
   -0.8644   -1.1829   -0.6190 O   0  0  0  0  0  0  0  0  0  0  0  0
   -0.4343    2.3333   -0.7107 O   0  0  0  0  0  0  0  0  0  0  0  0
   -2.7625   -1.5387    0.6160 O   0  0  0  0  0  0  0  0  0  0  0  0
    3.0214   -1.2079    0.2140 O   0  0  0  0  0  0  0  0  0  0  0  0
   -0.4603    1.0656   -0.0687 C   0  0  2  0  0  0  0  0  0  0  0  0
   -0.1543   -0.0250   -1.0844 C   0  0  1  0  0  0  0  0  0  0  0  0
   -1.8793    0.7020    0.3485 C   0  0  0  0  0  0  0  0  0  0  0  0
    1.3229   -0.3510   -1.2459 C   0  0  0  0  0  0  0  0  0  0  0  0
    0.4800    1.0930    1.1055 C   0  0  0  0  0  0  0  0  0  0  0  0
   -1.9142   -0.7872    0.1607 C   0  0  0  0  0  0  0  0  0  0  0  0
    2.0421   -0.4763    0.0785 C   0  0  0  0  0  0  0  0  0  0  0  0
    1.6028    0.3750    1.2055 C   0  0  0  0  0  0  0  0  0  0  0  0
   -0.5593    0.2239   -2.0744 H   0  0  0  0  0  0  0  0  0  0  0  0
   -2.6307    1.1622   -0.3015 H   0  0  0  0  0  0  0  0  0  0  0  0
   -2.0942    0.9556    1.3910 H   0  0  0  0  0  0  0  0  0  0  0  0
    1.8282    0.4338   -1.8197 H   0  0  0  0  0  0  0  0  0  0  0  0
    1.4330   -1.3040   -1.7759 H   0  0  0  0  0  0  0  0  0  0  0  0
    0.2107    1.7365    1.9403 H   0  0  0  0  0  0  0  0  0  0  0  0
    2.2252    0.4156    2.0915 H   0  0  0  0  0  0  0  0  0  0  0  0
   -0.7874    2.9924   -0.0885 H   0  0  0  0  0  0  0  0  0  0  0  0
  1  6  1  0  0  0  0
  1 10  1  0  0  0  0
  2  5  1  0  0  0  0
  2 20  1  0  0  0  0
  3 10  2  0  0  0  0
  4 11  2  0  0  0  0
  5  6  1  0  0  0  0
  5  7  1  0  0  0  0
  5  9  1  0  0  0  0
  6  8  1  0  0  0  0
  6 13  1  0  0  0  0
  7 10  1  0  0  0  0
  7 14  1  0  0  0  0
  7 15  1  0  0  0  0
  8 11  1  0  0  0  0
  8 16  1  0  0  0  0
  8 17  1  0  0  0  0
  9 12  2  0  0  0  0
  9 18  1  0  0  0  0
 11 12  1  0  0  0  0
 12 19  1  0  0  0  0
M  END
> <PUBCHEM_COMPOUND_CID>
92469142

> <PUBCHEM_CONFORMER_RMSD>
0.4

> <PUBCHEM_CONFORMER_DIVERSEORDER>
1
2

> <PUBCHEM_MMFF94_PARTIAL_CHARGES>
15
1 -0.43
10 0.66
11 0.49
12 -0.14
18 0.15
19 0.15
2 -0.68
20 0.4
3 -0.57
4 -0.57
5 0.42
6 0.28
7 0.06
8 0.06
9 -0.29

> <PUBCHEM_EFFECTIVE_ROTOR_COUNT>
0.6

> <PUBCHEM_PHARMACOPHORE_FEATURES>
6
1 2 acceptor
1 2 donor
1 3 acceptor
1 4 acceptor
5 1 5 6 7 10 rings
6 5 6 8 9 11 12 rings

> <PUBCHEM_HEAVY_ATOM_COUNT>
12

> <PUBCHEM_ATOM_DEF_STEREO_COUNT>
2

> <PUBCHEM_ATOM_UDEF_STEREO_COUNT>
0

> <PUBCHEM_BOND_DEF_STEREO_COUNT>
0

> <PUBCHEM_BOND_UDEF_STEREO_COUNT>
0

> <PUBCHEM_ISOTOPIC_ATOM_COUNT>
0

> <PUBCHEM_COMPONENT_COUNT>
1

> <PUBCHEM_CACTVS_TAUTO_COUNT>
4

> <PUBCHEM_CONFORMER_ID>
0582F79600000001

> <PUBCHEM_MMFF94_ENERGY>
16.6087

> <PUBCHEM_FEATURE_SELFOVERLAP>
30.717

> <PUBCHEM_SHAPE_FINGERPRINT>
10702982 57 17026556954825467796
10857977 72 18344147003113013179
12423570 1 17829359915232393108
12897270 3 13190337984749420627
13024252 1 16443922539416411520
14128692 85 17240486947972260562
14817 1 18119225312524697452
16945 1 18193005815413229013
20653091 64 18050585215569311203
20711985 344 18190442896964394793
20820808 20 8430056255831548087
21061003 4 17418092079641558042
21922407 69 17749394728373155232
2748010 2 18272079509122714084
29004967 10 18263072382892895240
369184 2 18199176305017863498
5084963 1 17987216881394736532
528886 8 14201396071224381197
53812653 217 15721626889926569558

> <PUBCHEM_SHAPE_MULTIPOLES>
223.48
3.24
1.65
1.18
0.37
0.45
-0.09
-1.66
0.87
-0.47
-0.08
0.23
0.13
0.38

> <PUBCHEM_SHAPE_SELFOVERLAP>
481.124

> <PUBCHEM_SHAPE_VOLUME>
123

> <PUBCHEM_COORDINATE_TYPE>
2
5
10

$$$$
