15736564
  -OEChem-09012010333D

 49 53  0     1  0  0  0  0  0999 V2000
    2.9411    2.2297   -0.0958 O   0  0  0  0  0  0  0  0  0  0  0  0
    2.4576   -1.1270   -1.5344 O   0  0  0  0  0  0  0  0  0  0  0  0
   -0.1694   -0.9434   -0.1298 O   0  0  0  0  0  0  0  0  0  0  0  0
    2.4756   -2.0100    2.0319 O   0  0  0  0  0  0  0  0  0  0  0  0
   -0.5639    1.7322    0.1131 O   0  0  0  0  0  0  0  0  0  0  0  0
    0.6942    3.2971    1.2590 O   0  0  0  0  0  0  0  0  0  0  0  0
   -0.1128   -2.0903    1.8614 O   0  0  0  0  0  0  0  0  0  0  0  0
   -3.8620   -1.0278   -0.2318 N   0  0  2  0  0  0  0  0  0  0  0  0
    2.4633    0.8830   -0.2580 C   0  0  2  0  0  0  0  0  0  0  0  0
    1.6006    2.0974   -0.5744 C   0  0  2  0  0  0  0  0  0  0  0  0
    2.3950    0.1455    1.0519 C   0  0  0  0  0  0  0  0  0  0  0  0
    1.9755   -1.3213    0.8752 C   0  0  1  0  0  0  0  0  0  0  0  0
    3.1062    0.1364   -1.3796 C   0  0  0  0  0  0  0  0  0  0  0  0
    2.6199   -1.9592   -0.3795 C   0  0  1  0  0  0  0  0  0  0  0  0
    1.4735    2.5828   -1.9830 C   0  0  0  0  0  0  0  0  0  0  0  0
    0.5389    2.4776    0.3663 C   0  0  0  0  0  0  0  0  0  0  0  0
   -2.6030   -0.6510    0.5094 C   0  0  1  0  0  0  0  0  0  0  0  0
   -1.5271   -1.3403   -0.3346 C   0  0  1  0  0  0  0  0  0  0  0  0
    0.4545   -1.4901    0.9545 C   0  0  0  0  0  0  0  0  0  0  0  0
   -1.9740   -1.0493   -1.7505 C   0  0  0  0  0  0  0  0  0  0  0  0
   -2.6850    0.8528    0.6281 C   0  0  0  0  0  0  0  0  0  0  0  0
   -3.4858   -1.1980   -1.6588 C   0  0  0  0  0  0  0  0  0  0  0  0
    2.0749   -3.3422   -0.7349 C   0  0  0  0  0  0  0  0  0  0  0  0
   -4.7812    0.1174   -0.0486 C   0  0  0  0  0  0  0  0  0  0  0  0
   -1.5858    1.7287    1.1112 C   0  0  0  0  0  0  0  0  0  0  0  0
   -3.9209    1.2690    0.3315 C   0  0  0  0  0  0  0  0  0  0  0  0
    1.7358    0.6434    1.7724 H   0  0  0  0  0  0  0  0  0  0  0  0
    3.3950    0.1811    1.5071 H   0  0  0  0  0  0  0  0  0  0  0  0
    3.0504    0.6413   -2.3454 H   0  0  0  0  0  0  0  0  0  0  0  0
    4.1720   -0.0253   -1.1754 H   0  0  0  0  0  0  0  0  0  0  0  0
    3.6964   -2.0878   -0.1985 H   0  0  0  0  0  0  0  0  0  0  0  0
    2.4419    2.7394   -2.4700 H   0  0  0  0  0  0  0  0  0  0  0  0
    0.8900    1.8739   -2.5796 H   0  0  0  0  0  0  0  0  0  0  0  0
    0.9520    3.5463   -2.0097 H   0  0  0  0  0  0  0  0  0  0  0  0
   -2.6235   -1.0783    1.5194 H   0  0  0  0  0  0  0  0  0  0  0  0
   -1.5921   -2.4295   -0.1865 H   0  0  0  0  0  0  0  0  0  0  0  0
   -1.5255   -1.7388   -2.4728 H   0  0  0  0  0  0  0  0  0  0  0  0
   -1.6893   -0.0329   -2.0487 H   0  0  0  0  0  0  0  0  0  0  0  0
   -3.9805   -0.5044   -2.3480 H   0  0  0  0  0  0  0  0  0  0  0  0
   -3.7766   -2.2112   -1.9592 H   0  0  0  0  0  0  0  0  0  0  0  0
    2.6395   -3.7626   -1.5747 H   0  0  0  0  0  0  0  0  0  0  0  0
    2.1500   -4.0320    0.1108 H   0  0  0  0  0  0  0  0  0  0  0  0
    1.0318   -3.2928   -1.0638 H   0  0  0  0  0  0  0  0  0  0  0  0
   -5.4748   -0.1032    0.7710 H   0  0  0  0  0  0  0  0  0  0  0  0
   -5.3842    0.3308   -0.9373 H   0  0  0  0  0  0  0  0  0  0  0  0
   -1.9371    2.7544    1.2731 H   0  0  0  0  0  0  0  0  0  0  0  0
   -1.1820    1.3393    2.0525 H   0  0  0  0  0  0  0  0  0  0  0  0
    2.1559   -1.5447    2.8242 H   0  0  0  0  0  0  0  0  0  0  0  0
   -4.2661    2.2910    0.3876 H   0  0  0  0  0  0  0  0  0  0  0  0
  1  9  1  0  0  0  0
  1 10  1  0  0  0  0
  2 13  1  0  0  0  0
  2 14  1  0  0  0  0
  3 18  1  0  0  0  0
  3 19  1  0  0  0  0
  4 12  1  0  0  0  0
  4 48  1  0  0  0  0
  5 16  1  0  0  0  0
  5 25  1  0  0  0  0
  6 16  2  0  0  0  0
  7 19  2  0  0  0  0
  8 17  1  0  0  0  0
  8 22  1  0  0  0  0
  8 24  1  0  0  0  0
  9 10  1  0  0  0  0
  9 11  1  0  0  0  0
  9 13  1  0  0  0  0
 10 15  1  0  0  0  0
 10 16  1  0  0  0  0
 11 12  1  0  0  0  0
 11 27  1  0  0  0  0
 11 28  1  0  0  0  0
 12 14  1  0  0  0  0
 12 19  1  0  0  0  0
 13 29  1  0  0  0  0
 13 30  1  0  0  0  0
 14 23  1  0  0  0  0
 14 31  1  0  0  0  0
 15 32  1  0  0  0  0
 15 33  1  0  0  0  0
 15 34  1  0  0  0  0
 17 18  1  0  0  0  0
 17 21  1  0  0  0  0
 17 35  1  0  0  0  0
 18 20  1  0  0  0  0
 18 36  1  0  0  0  0
 20 22  1  0  0  0  0
 20 37  1  0  0  0  0
 20 38  1  0  0  0  0
 21 25  1  0  0  0  0
 21 26  2  0  0  0  0
 22 39  1  0  0  0  0
 22 40  1  0  0  0  0
 23 41  1  0  0  0  0
 23 42  1  0  0  0  0
 23 43  1  0  0  0  0
 24 26  1  0  0  0  0
 24 44  1  0  0  0  0
 24 45  1  0  0  0  0
 25 46  1  0  0  0  0
 25 47  1  0  0  0  0
 26 49  1  0  0  0  0
M  END
> <PUBCHEM_COMPOUND_CID>
15736564

> <PUBCHEM_CONFORMER_RMSD>
0.6

> <PUBCHEM_CONFORMER_DIVERSEORDER>
1
2
17
11
12
15
3
5
9
14
10
18
4
6
16
7
8
13

> <PUBCHEM_MMFF94_PARTIAL_CHARGES>
26
1 -0.3
10 0.05
11 0.09
12 0.34
13 0.38
14 0.28
15 0.09
16 0.72
17 0.41
18 0.28
19 0.66
2 -0.56
21 -0.28
22 0.27
24 0.41
25 0.42
26 -0.29
3 -0.43
4 -0.68
48 0.4
49 0.15
5 -0.43
6 -0.57
7 -0.57
8 -0.81
9 -0.04

> <PUBCHEM_EFFECTIVE_ROTOR_COUNT>
2.2

> <PUBCHEM_PHARMACOPHORE_FEATURES>
10
1 1 acceptor
1 2 acceptor
1 4 acceptor
1 4 donor
1 6 acceptor
1 7 acceptor
1 8 cation
5 8 17 18 20 22 rings
5 8 17 21 24 26 rings
6 2 9 11 12 13 14 rings

> <PUBCHEM_HEAVY_ATOM_COUNT>
26

> <PUBCHEM_ATOM_DEF_STEREO_COUNT>
2

> <PUBCHEM_ATOM_UDEF_STEREO_COUNT>
4

> <PUBCHEM_BOND_DEF_STEREO_COUNT>
0

> <PUBCHEM_BOND_UDEF_STEREO_COUNT>
0

> <PUBCHEM_ISOTOPIC_ATOM_COUNT>
0

> <PUBCHEM_COMPONENT_COUNT>
1

> <PUBCHEM_CACTVS_TAUTO_COUNT>
1

> <PUBCHEM_CONFORMER_ID>
00F01EF400000001

> <PUBCHEM_MMFF94_ENERGY>
64.9697

> <PUBCHEM_FEATURE_SELFOVERLAP>
51.268

> <PUBCHEM_SHAPE_FINGERPRINT>
11370993 70 17972037212766804549
11578080 2 18120906495916655360
12156800 1 11300559697555234969
12422481 6 18192685922529257720
12553582 1 18341611477828189637
13140716 1 17977098290511217113
13224815 77 18413388756847139875
14713325 29 16309679115039056516
15238133 3 17825668854971989427
16945 1 18199186368062960619
17492 54 17969247614892101516
17492 89 18413952789301917567
17980427 23 17984951964951221082
1813 80 18118679920614334322
18186145 218 18113898282015296831
18981168 100 17897467178819097634
20600515 1 18188193326349604130
20691752 17 18040151820847532473
20905425 154 18340775848928179277
21634736 98 18340498767924233516
22907989 373 16818284619092191517
23419403 2 17402267933885295552
23557571 272 17489576896487736251
23559900 14 18342460296837419831
238 59 18050568739911155331
2748010 2 16391554737520713208
2818148 4 17978812111332815510
34934 24 18272089409075449013
35225 105 16890044782397454855
4409770 3 16751279788001505582
474 4 18115588291337213829
484985 159 15729212291524037970
5895379 119 17845661343445614384
7832392 63 18272373048884001261
81228 2 17833819487186883802
9981440 41 17836640099901075216

> <PUBCHEM_SHAPE_MULTIPOLES>
489
6.55
3.49
1.68
6.08
0.84
0.19
-0.9
1.05
-2.44
-0.05
-0.49
-0.27
-1.1

> <PUBCHEM_SHAPE_SELFOVERLAP>
1068.304

> <PUBCHEM_SHAPE_VOLUME>
263.9

> <PUBCHEM_COORDINATE_TYPE>
2
5
10

$$$$
