73307
  -OEChem-09012014093D

 23 23  0     0  0  0  0  0  0999 V2000
   -0.1351   -1.7912    1.0096 O   0  0  0  0  0  0  0  0  0  0  0  0
   -2.6651    0.9813   -0.7091 O   0  0  0  0  0  0  0  0  0  0  0  0
   -2.7866   -0.7809    0.7752 O   0  0  0  0  0  0  0  0  0  0  0  0
    3.8210    1.2267    0.0227 O   0  0  0  0  0  0  0  0  0  0  0  0
    0.1825   -0.7914    0.0380 C   0  0  0  0  0  0  0  0  0  0  0  0
   -1.0234   -0.6650   -0.8952 C   0  0  0  0  0  0  0  0  0  0  0  0
    1.3879   -1.2520   -0.7393 C   0  0  0  0  0  0  0  0  0  0  0  0
    0.4164    0.5100    0.7570 C   0  0  0  0  0  0  0  0  0  0  0  0
    2.5625   -0.6121   -0.7541 C   0  0  0  0  0  0  0  0  0  0  0  0
    1.5801    1.1700    0.7588 C   0  0  0  0  0  0  0  0  0  0  0  0
   -2.2517   -0.1985   -0.1583 C   0  0  0  0  0  0  0  0  0  0  0  0
    2.7434    0.6410    0.0123 C   0  0  0  0  0  0  0  0  0  0  0  0
   -3.8319    1.5621   -0.1177 C   0  0  0  0  0  0  0  0  0  0  0  0
   -1.2850   -1.6292   -1.3507 H   0  0  0  0  0  0  0  0  0  0  0  0
   -0.8039    0.0230   -1.7228 H   0  0  0  0  0  0  0  0  0  0  0  0
    1.2976   -2.1748   -1.3083 H   0  0  0  0  0  0  0  0  0  0  0  0
   -0.3939    0.9282    1.3497 H   0  0  0  0  0  0  0  0  0  0  0  0
    3.4055   -0.9909   -1.3200 H   0  0  0  0  0  0  0  0  0  0  0  0
    1.7053    2.0944    1.3104 H   0  0  0  0  0  0  0  0  0  0  0  0
   -0.3073   -2.6278    0.5441 H   0  0  0  0  0  0  0  0  0  0  0  0
   -4.0538    2.4928   -0.6466 H   0  0  0  0  0  0  0  0  0  0  0  0
   -3.6472    1.7923    0.9359 H   0  0  0  0  0  0  0  0  0  0  0  0
   -4.6860    0.8863   -0.2224 H   0  0  0  0  0  0  0  0  0  0  0  0
  1  5  1  0  0  0  0
  1 20  1  0  0  0  0
  2 11  1  0  0  0  0
  2 13  1  0  0  0  0
  3 11  2  0  0  0  0
  4 12  2  0  0  0  0
  5  6  1  0  0  0  0
  5  7  1  0  0  0  0
  5  8  1  0  0  0  0
  6 11  1  0  0  0  0
  6 14  1  0  0  0  0
  6 15  1  0  0  0  0
  7  9  2  0  0  0  0
  7 16  1  0  0  0  0
  8 10  2  0  0  0  0
  8 17  1  0  0  0  0
  9 12  1  0  0  0  0
  9 18  1  0  0  0  0
 10 12  1  0  0  0  0
 10 19  1  0  0  0  0
 13 21  1  0  0  0  0
 13 22  1  0  0  0  0
 13 23  1  0  0  0  0
M  END
> <PUBCHEM_COMPOUND_CID>
73307

> <PUBCHEM_CONFORMER_RMSD>
0.6

> <PUBCHEM_CONFORMER_DIVERSEORDER>
1
3
6
10
8
9
7
5
2
4

> <PUBCHEM_MMFF94_PARTIAL_CHARGES>
18
1 -0.68
10 -0.14
11 0.66
12 0.54
13 0.28
16 0.15
17 0.15
18 0.15
19 0.15
2 -0.43
20 0.4
3 -0.57
4 -0.57
5 0.56
6 0.06
7 -0.29
8 -0.29
9 -0.14

> <PUBCHEM_EFFECTIVE_ROTOR_COUNT>
3.2

> <PUBCHEM_PHARMACOPHORE_FEATURES>
5
1 1 acceptor
1 1 donor
1 3 acceptor
1 4 acceptor
6 5 7 8 9 10 12 rings

> <PUBCHEM_HEAVY_ATOM_COUNT>
13

> <PUBCHEM_ATOM_DEF_STEREO_COUNT>
0

> <PUBCHEM_ATOM_UDEF_STEREO_COUNT>
0

> <PUBCHEM_BOND_DEF_STEREO_COUNT>
0

> <PUBCHEM_BOND_UDEF_STEREO_COUNT>
0

> <PUBCHEM_ISOTOPIC_ATOM_COUNT>
0

> <PUBCHEM_COMPONENT_COUNT>
1

> <PUBCHEM_CACTVS_TAUTO_COUNT>
1

> <PUBCHEM_CONFORMER_ID>
00011E5B00000001

> <PUBCHEM_MMFF94_ENERGY>
21.9008

> <PUBCHEM_FEATURE_SELFOVERLAP>
25.375

> <PUBCHEM_SHAPE_FINGERPRINT>
10608611 8 18412543240584072361
11031198 65 18272661185449920782
11401426 45 17632290190632912044
11471102 20 18130787828236444044
12138202 97 18339360885027285422
12423570 1 16409602271824534458
12491281 212 17703240554243047929
12654215 9 18272086050711314228
12932764 1 17845931934895867431
13380536 243 16415470536979986117
13764800 53 18113908134907670217
13839132 238 18334012795934237327
14325111 11 18409728469336555788
14993402 34 16128656353416881700
15219456 202 18411987952820483271
15775835 57 18342736308383309565
16945 1 17632577154045057674
17844478 74 18337402646344047091
18186145 218 18341625780095711038
20645477 70 17917151593704685391
20653085 51 18272370922695900193
20820808 20 18341611482149589162
21028194 46 18340206413584352512
231179 274 18262230015484544453
23402539 116 18116704312930428631
23402655 69 17917140607779845461
25 1 18341895164665643356
2748010 2 17485081131186383000
276578 36 17458625575393273490
305870 269 18114453483599848314
353137 74 18202005386890636992
528886 8 17775281694504052558
63268167 104 18060142032956257258

> <PUBCHEM_SHAPE_MULTIPOLES>
244.06
5.7
1.61
0.97
2
0.05
-0.07
2.89
0.82
-0.05
-0.11
0.11
-0.18
0.55

> <PUBCHEM_SHAPE_SELFOVERLAP>
501.88

> <PUBCHEM_SHAPE_VOLUME>
139.7

> <PUBCHEM_COORDINATE_TYPE>
2
5
10

$$$$
