27282457
  -OEChem-09022000393D

 18 18  0     0  0  0  0  0  0999 V2000
    0.3496   -1.8711    0.0868 O   0  0  0  0  0  0  0  0  0  0  0  0
   -2.7118    0.8305    0.5239 O   0  0  0  0  0  0  0  0  0  0  0  0
   -2.2681   -1.1474   -0.5047 O   0  0  0  0  0  0  0  0  0  0  0  0
    2.1599    1.2838   -0.0310 N   0  0  0  0  0  0  0  0  0  0  0  0
   -0.4845    0.3781   -0.0395 C   0  0  0  0  0  0  0  0  0  0  0  0
    0.5647   -0.5319    0.0259 C   0  0  0  0  0  0  0  0  0  0  0  0
   -0.2131    1.7404   -0.1007 C   0  0  0  0  0  0  0  0  0  0  0  0
    1.8571   -0.0325    0.0273 C   0  0  0  0  0  0  0  0  0  0  0  0
    1.1141    2.1382   -0.0937 C   0  0  0  0  0  0  0  0  0  0  0  0
   -1.8687   -0.0735   -0.0452 C   0  0  0  0  0  0  0  0  0  0  0  0
    1.5007   -2.7146    0.1511 C   0  0  0  0  0  0  0  0  0  0  0  0
   -0.9939    2.4908   -0.1648 H   0  0  0  0  0  0  0  0  0  0  0  0
    2.7482   -0.6472    0.0750 H   0  0  0  0  0  0  0  0  0  0  0  0
    1.3794    3.1892   -0.1427 H   0  0  0  0  0  0  0  0  0  0  0  0
    1.1418   -3.7480    0.1943 H   0  0  0  0  0  0  0  0  0  0  0  0
    2.0781   -2.5367    1.0646 H   0  0  0  0  0  0  0  0  0  0  0  0
    2.1146   -2.6254   -0.7516 H   0  0  0  0  0  0  0  0  0  0  0  0
   -3.6417    0.5180    0.5155 H   0  0  0  0  0  0  0  0  0  0  0  0
  1  6  1  0  0  0  0
  1 11  1  0  0  0  0
  2 10  1  0  0  0  0
  2 18  1  0  0  0  0
  3 10  2  0  0  0  0
  4  8  2  0  0  0  0
  4  9  1  0  0  0  0
  5  6  2  0  0  0  0
  5  7  1  0  0  0  0
  5 10  1  0  0  0  0
  6  8  1  0  0  0  0
  7  9  2  0  0  0  0
  7 12  1  0  0  0  0
  8 13  1  0  0  0  0
  9 14  1  0  0  0  0
 11 15  1  0  0  0  0
 11 16  1  0  0  0  0
 11 17  1  0  0  0  0
M  END
> <PUBCHEM_COMPOUND_CID>
27282457

> <PUBCHEM_CONFORMER_RMSD>
0.4

> <PUBCHEM_CONFORMER_DIVERSEORDER>
1
8
4
3
2
9
6
5
7

> <PUBCHEM_MMFF94_PARTIAL_CHARGES>
15
1 -0.36
10 0.63
11 0.28
12 0.15
13 0.15
14 0.15
18 0.5
2 -0.65
3 -0.57
4 -0.62
5 0.09
6 0.08
7 -0.15
8 0.16
9 0.16

> <PUBCHEM_EFFECTIVE_ROTOR_COUNT>
2

> <PUBCHEM_PHARMACOPHORE_FEATURES>
6
1 1 acceptor
1 2 acceptor
1 3 acceptor
1 4 acceptor
3 2 3 10 anion
6 4 5 6 7 8 9 rings

> <PUBCHEM_HEAVY_ATOM_COUNT>
11

> <PUBCHEM_ATOM_DEF_STEREO_COUNT>
0

> <PUBCHEM_ATOM_UDEF_STEREO_COUNT>
0

> <PUBCHEM_BOND_DEF_STEREO_COUNT>
0

> <PUBCHEM_BOND_UDEF_STEREO_COUNT>
0

> <PUBCHEM_ISOTOPIC_ATOM_COUNT>
0

> <PUBCHEM_COMPONENT_COUNT>
1

> <PUBCHEM_CACTVS_TAUTO_COUNT>
1

> <PUBCHEM_CONFORMER_ID>
01A04C1900000001

> <PUBCHEM_MMFF94_ENERGY>
40.2059

> <PUBCHEM_FEATURE_SELFOVERLAP>
30.51

> <PUBCHEM_SHAPE_FINGERPRINT>
161256 15 18194126217899108764
16945 1 18338514144851175045
18185500 45 18340767052924437823
193761 8 17977664212914686404
21040471 1 18050006889517217820
23552423 10 18410858758837131591
241688 4 17832706768666392064
2748010 2 18192715763471165772
5084963 1 17986678270931323961
66348 1 18120935263480041954

> <PUBCHEM_SHAPE_MULTIPOLES>
203.79
2.97
2.65
0.62
1.27
0.19
0
0.85
0.2
-1.41
-0.07
0.07
0.01
-0.22

> <PUBCHEM_SHAPE_SELFOVERLAP>
427.046

> <PUBCHEM_SHAPE_VOLUME>
114.3

> <PUBCHEM_COORDINATE_TYPE>
2
5
10

$$$$
