101719625
  -OEChem-11232018223D

 23 23  0     1  0  0  0  0  0999 V2000
   -0.2282    1.1927    0.8070 O   0  0  0  0  0  0  0  0  0  0  0  0
    0.2452   -1.6605    1.5882 O   0  0  0  0  0  0  0  0  0  0  0  0
    0.3549   -1.0126   -1.9687 O   0  0  0  0  0  0  0  0  0  0  0  0
   -2.2887   -0.8550    0.5315 O   0  0  0  0  0  0  0  0  0  0  0  0
   -2.1728    1.8323   -0.0889 O   0  5  0  0  0  0  0  0  0  0  0  0
    3.2278    0.4588   -0.1391 O   0  0  0  0  0  0  0  0  0  0  0  0
    0.7492   -1.0312    0.4060 C   0  0  1  0  0  0  0  0  0  0  0  0
   -0.2713   -1.2617   -0.7141 C   0  0  1  0  0  0  0  0  0  0  0  0
    0.9976    0.4538    0.7176 C   0  0  1  0  0  0  0  0  0  0  0  0
   -1.5071   -0.3609   -0.5613 C   0  0  2  0  0  0  0  0  0  0  0  0
   -1.0901    1.1178   -0.3425 C   0  0  2  0  0  0  0  0  0  0  0  0
    1.9836    1.1265   -0.2356 C   0  0  0  0  0  0  0  0  0  0  0  0
    1.6910   -1.5365    0.1644 H   0  0  0  0  0  0  0  0  0  0  0  0
   -0.5951   -2.3100   -0.7038 H   0  0  0  0  0  0  0  0  0  0  0  0
    1.4383    0.5103    1.7215 H   0  0  0  0  0  0  0  0  0  0  0  0
   -2.1228   -0.4433   -1.4677 H   0  0  0  0  0  0  0  0  0  0  0  0
   -0.4846    1.4060   -1.2107 H   0  0  0  0  0  0  0  0  0  0  0  0
    2.1184    2.1781    0.0400 H   0  0  0  0  0  0  0  0  0  0  0  0
    1.6540    1.1013   -1.2768 H   0  0  0  0  0  0  0  0  0  0  0  0
    0.9309   -1.5903    2.2741 H   0  0  0  0  0  0  0  0  0  0  0  0
    1.1043   -1.6266   -2.0513 H   0  0  0  0  0  0  0  0  0  0  0  0
   -3.0510   -0.2598    0.6322 H   0  0  0  0  0  0  0  0  0  0  0  0
    3.8440    0.9117   -0.7396 H   0  0  0  0  0  0  0  0  0  0  0  0
  1  9  1  0  0  0  0
  1 11  1  0  0  0  0
  2  7  1  0  0  0  0
  2 20  1  0  0  0  0
  3  8  1  0  0  0  0
  3 21  1  0  0  0  0
  4 10  1  0  0  0  0
  4 22  1  0  0  0  0
  5 11  1  0  0  0  0
  6 12  1  0  0  0  0
  6 23  1  0  0  0  0
  7  8  1  0  0  0  0
  7  9  1  0  0  0  0
  7 13  1  0  0  0  0
  8 10  1  0  0  0  0
  8 14  1  0  0  0  0
  9 12  1  0  0  0  0
  9 15  1  0  0  0  0
 10 11  1  0  0  0  0
 10 16  1  0  0  0  0
 11 17  1  0  0  0  0
 12 18  1  0  0  0  0
 12 19  1  0  0  0  0
M  CHG  1   5  -1
M  END
> <PUBCHEM_COMPOUND_CID>
101719625

> <PUBCHEM_CONFORMER_RMSD>
0.6

> <PUBCHEM_CONFORMER_DIVERSEORDER>
2
3
6
10
5
1
8
4
7
9

> <PUBCHEM_MMFF94_PARTIAL_CHARGES>
16
1 -0.56
10 0.28
11 0.21
12 0.28
2 -0.68
20 0.4
21 0.4
22 0.4
23 0.4
3 -0.68
4 -0.68
5 -0.93
6 -0.68
7 0.28
8 0.28
9 0.28

> <PUBCHEM_EFFECTIVE_ROTOR_COUNT>
2.2

> <PUBCHEM_PHARMACOPHORE_FEATURES>
11
1 1 acceptor
1 2 acceptor
1 2 donor
1 3 acceptor
1 3 donor
1 4 acceptor
1 4 donor
1 5 acceptor
1 6 acceptor
1 6 donor
6 1 7 8 9 10 11 rings

> <PUBCHEM_HEAVY_ATOM_COUNT>
12

> <PUBCHEM_ATOM_DEF_STEREO_COUNT>
5

> <PUBCHEM_ATOM_UDEF_STEREO_COUNT>
0

> <PUBCHEM_BOND_DEF_STEREO_COUNT>
0

> <PUBCHEM_BOND_UDEF_STEREO_COUNT>
0

> <PUBCHEM_ISOTOPIC_ATOM_COUNT>
0

> <PUBCHEM_COMPONENT_COUNT>
1

> <PUBCHEM_CACTVS_TAUTO_COUNT>
1

> <PUBCHEM_CONFORMER_ID>
06101E4900000002

> <PUBCHEM_MMFF94_ENERGY>
37.2015

> <PUBCHEM_FEATURE_SELFOVERLAP>
55.906

> <PUBCHEM_SHAPE_FINGERPRINT>
12423570 1 18058180577242625039
13024252 1 17751071621044350204
137420 1 18267861696893668943
16945 1 18340761662608586550
20511035 2 17982703330238340731
20653085 51 18411993463727936076
21040471 1 18128797695094767737
21922407 69 17677033660409380745
29004967 10 12895079573528293862
369184 2 12175357906507864412
5084963 1 18411139172946591456
528862 383 17971743376799849808
528886 8 17489311892541430263
535629 181 17909813668038865188
68250623 7 18339080389129044858

> <PUBCHEM_SHAPE_MULTIPOLES>
211.74
2.88
1.76
1.24
1.2
0.15
-0.18
0.98
-0.13
-0.47
0.13
0.06
-0.58
-0.03

> <PUBCHEM_SHAPE_SELFOVERLAP>
423.956

> <PUBCHEM_SHAPE_VOLUME>
122.8

> <PUBCHEM_COORDINATE_TYPE>
2
5
10

$$$$
