76015
  -OEChem-11232018163D

 32 31  0     0  0  0  0  0  0999 V2000
    6.8428    0.5398   -0.0109 O   0  0  0  0  0  0  0  0  0  0  0  0
    0.6061   -0.5467    0.0363 C   0  0  0  0  0  0  0  0  0  0  0  0
    1.8760    0.3090    0.0018 C   0  0  0  0  0  0  0  0  0  0  0  0
   -0.6836    0.2736   -0.0312 C   0  0  0  0  0  0  0  0  0  0  0  0
    3.2005   -0.4610    0.0048 C   0  0  0  0  0  0  0  0  0  0  0  0
   -1.9181   -0.6313   -0.0011 C   0  0  0  0  0  0  0  0  0  0  0  0
    4.4327    0.4488   -0.0112 C   0  0  0  0  0  0  0  0  0  0  0  0
   -3.2104    0.1922   -0.0311 C   0  0  0  0  0  0  0  0  0  0  0  0
    5.7333   -0.3461    0.0248 C   0  0  0  0  0  0  0  0  0  0  0  0
   -4.4692   -0.6769   -0.0319 C   0  0  0  0  0  0  0  0  0  0  0  0
   -5.7007    0.1242    0.0081 C   0  0  0  0  0  0  0  0  0  0  0  0
   -6.7094    0.7745    0.0415 C   0  0  0  0  0  0  0  0  0  0  0  0
    0.6085   -1.1495    0.9527 H   0  0  0  0  0  0  0  0  0  0  0  0
    0.6303   -1.2505   -0.8049 H   0  0  0  0  0  0  0  0  0  0  0  0
    1.8620    0.9889    0.8633 H   0  0  0  0  0  0  0  0  0  0  0  0
    1.8463    0.9444   -0.8926 H   0  0  0  0  0  0  0  0  0  0  0  0
   -0.7159    0.9716    0.8141 H   0  0  0  0  0  0  0  0  0  0  0  0
   -0.6892    0.8748   -0.9482 H   0  0  0  0  0  0  0  0  0  0  0  0
    3.2297   -1.1263   -0.8668 H   0  0  0  0  0  0  0  0  0  0  0  0
    3.2362   -1.1019    0.8944 H   0  0  0  0  0  0  0  0  0  0  0  0
   -1.8969   -1.3120   -0.8607 H   0  0  0  0  0  0  0  0  0  0  0  0
   -1.9015   -1.2504    0.9039 H   0  0  0  0  0  0  0  0  0  0  0  0
    4.4160    1.0836   -0.9058 H   0  0  0  0  0  0  0  0  0  0  0  0
    4.4055    1.1359    0.8436 H   0  0  0  0  0  0  0  0  0  0  0  0
   -3.2131    0.8358   -0.9204 H   0  0  0  0  0  0  0  0  0  0  0  0
   -3.2299    0.8633    0.8376 H   0  0  0  0  0  0  0  0  0  0  0  0
    5.8016   -0.9381    0.9427 H   0  0  0  0  0  0  0  0  0  0  0  0
    5.8063   -1.0275   -0.8289 H   0  0  0  0  0  0  0  0  0  0  0  0
   -4.4497   -1.3493    0.8340 H   0  0  0  0  0  0  0  0  0  0  0  0
   -4.4751   -1.3113   -0.9261 H   0  0  0  0  0  0  0  0  0  0  0  0
    6.7844    1.0497   -0.8368 H   0  0  0  0  0  0  0  0  0  0  0  0
   -7.6039    1.3514    0.0712 H   0  0  0  0  0  0  0  0  0  0  0  0
  1  9  1  0  0  0  0
  1 31  1  0  0  0  0
  2  3  1  0  0  0  0
  2  4  1  0  0  0  0
  2 13  1  0  0  0  0
  2 14  1  0  0  0  0
  3  5  1  0  0  0  0
  3 15  1  0  0  0  0
  3 16  1  0  0  0  0
  4  6  1  0  0  0  0
  4 17  1  0  0  0  0
  4 18  1  0  0  0  0
  5  7  1  0  0  0  0
  5 19  1  0  0  0  0
  5 20  1  0  0  0  0
  6  8  1  0  0  0  0
  6 21  1  0  0  0  0
  6 22  1  0  0  0  0
  7  9  1  0  0  0  0
  7 23  1  0  0  0  0
  7 24  1  0  0  0  0
  8 10  1  0  0  0  0
  8 25  1  0  0  0  0
  8 26  1  0  0  0  0
  9 27  1  0  0  0  0
  9 28  1  0  0  0  0
 10 11  1  0  0  0  0
 10 29  1  0  0  0  0
 10 30  1  0  0  0  0
 11 12  3  0  0  0  0
 12 32  1  0  0  0  0
M  END
> <PUBCHEM_COMPOUND_CID>
76015

> <PUBCHEM_CONFORMER_RMSD>
0.8

> <PUBCHEM_CONFORMER_DIVERSEORDER>
1
163
50
41
97
183
212
180
190
27
73
4
51
133
101
12
205
35
191
233
71
229
153
200
3
18
113
66
195
16
75
37
58
2
23
175
231
116
188
26
203
131
187
7
17
139
34
88
56
44
15
239
217
91
157
20
210
29
63
47
226
230
172
64
6
237
185
76
40
161
238
208
19
90
228
42
197
80
95
196
13
164
79
211
160
39
45
117
103
222
52
107
155
120
135
177
214
68
181
215
89
36
5
219
110
159
106
114
60
134
220
28
55
236
176
105
167
204
201
85
25
158
132
169
171
62
121
123
127
32
221
93
209
235
193
122
74
234
59
67
8
145
216
142
194
48
119
10
192
162
109
81
22
30
98
213
54
82
21
115
49
77
198
14
165
225
147
24
186
92
218
202
150
53
138
72
130
227
168
179
128
78
178
84
140
129
61
70
206
224
125
38
207
87
170
9
94
136
184
43
143
69
182
166
31
86
148
146
223
57
104
173
99
232
141
65
100
199
102
156
124
151
174
111
46
83
112
126
108
33
144
118
189
149
96
137
11
154
152

> <PUBCHEM_MMFF94_PARTIAL_CHARGES>
7
1 -0.68
10 0.2
11 -0.2
12 -0.18
31 0.4
32 0.18
9 0.28

> <PUBCHEM_EFFECTIVE_ROTOR_COUNT>
8

> <PUBCHEM_PHARMACOPHORE_FEATURES>
3
1 1 acceptor
1 1 donor
1 12 hydrophobe

> <PUBCHEM_HEAVY_ATOM_COUNT>
12

> <PUBCHEM_ATOM_DEF_STEREO_COUNT>
0

> <PUBCHEM_ATOM_UDEF_STEREO_COUNT>
0

> <PUBCHEM_BOND_DEF_STEREO_COUNT>
0

> <PUBCHEM_BOND_UDEF_STEREO_COUNT>
0

> <PUBCHEM_ISOTOPIC_ATOM_COUNT>
0

> <PUBCHEM_COMPONENT_COUNT>
1

> <PUBCHEM_CACTVS_TAUTO_COUNT>
1

> <PUBCHEM_CONFORMER_ID>
000128EF00000001

> <PUBCHEM_MMFF94_ENERGY>
0.9851

> <PUBCHEM_FEATURE_SELFOVERLAP>
15.223

> <PUBCHEM_SHAPE_FINGERPRINT>
12091667 2 18342739629052321187
12714333 28 18202845452349607995
12815109 37 18202002131252392883
13533116 47 18339355267584836362
14123238 8 12175623975463180015
1420 363 12107788492980013561
14251764 46 18410572885639829859
14729087 3 18409163286659997789
15048467 5 18410573981236408905
17834076 25 18410292510180021731
20281389 69 18259982660893464604
20621476 8 18261674783428708735
20645477 70 17916873404963784926
20767249 213 18410856572524697956
21130983 4 18040157331464653124
220451 1 16805039631462381834
23035841 295 11602822401951716737
23218964 4 18342457041003769715
23402539 116 18201996647111951671
23521765 1 18341894090834057575
33684 2 18342455932749304491
42788 4 18410855468723371143
4463277 17 18409448093945611756
57583515 80 17988926669558042339
8209 1 18411136935110153716

> <PUBCHEM_SHAPE_MULTIPOLES>
241.09
18.68
0.84
0.61
2.61
0.02
0
-3.36
-0.12
-0.24
0
-0.05
0
-0.03

> <PUBCHEM_SHAPE_SELFOVERLAP>
431.455

> <PUBCHEM_SHAPE_VOLUME>
155.1

> <PUBCHEM_COORDINATE_TYPE>
2
5
10

$$$$
