543337
  -OEChem-11232018123D

 39 38  0     0  0  0  0  0  0999 V2000
   -7.9699    1.1938    0.3783 O   0  0  0  0  0  0  0  0  0  0  0  0
   -0.7075   -0.5293    0.2502 C   0  0  0  0  0  0  0  0  0  0  0  0
   -2.0610   -0.7157   -0.4395 C   0  0  0  0  0  0  0  0  0  0  0  0
    0.4321   -1.2928   -0.4327 C   0  0  0  0  0  0  0  0  0  0  0  0
   -3.1684    0.0401    0.2986 C   0  0  0  0  0  0  0  0  0  0  0  0
    1.7801   -1.1256    0.2730 C   0  0  0  0  0  0  0  0  0  0  0  0
   -4.5158   -0.1181   -0.4087 C   0  0  0  0  0  0  0  0  0  0  0  0
    2.9207   -1.9005   -0.4014 C   0  0  0  0  0  0  0  0  0  0  0  0
   -5.6294    0.6134    0.3464 C   0  0  0  0  0  0  0  0  0  0  0  0
    4.2852   -1.7830    0.2813 C   0  0  0  0  0  0  0  0  0  0  0  0
   -6.9769    0.4911   -0.3547 C   0  0  0  0  0  0  0  0  0  0  0  0
    4.7842   -0.4013    0.3004 C   0  0  0  0  0  0  0  0  0  0  0  0
    5.1893    0.7292    0.3205 C   0  0  0  0  0  0  0  0  0  0  0  0
    5.6626    2.0670    0.3524 C   0  0  0  0  0  0  0  0  0  0  0  0
    5.9747    2.7319   -0.7640 C   0  0  0  0  0  0  0  0  0  0  0  0
   -1.9948   -0.3588   -1.4743 H   0  0  0  0  0  0  0  0  0  0  0  0
   -2.3082   -1.7834   -0.4802 H   0  0  0  0  0  0  0  0  0  0  0  0
   -0.4581    0.5387    0.2768 H   0  0  0  0  0  0  0  0  0  0  0  0
   -0.7850   -0.8626    1.2927 H   0  0  0  0  0  0  0  0  0  0  0  0
    0.5230   -0.9505   -1.4708 H   0  0  0  0  0  0  0  0  0  0  0  0
    0.1770   -2.3590   -0.4715 H   0  0  0  0  0  0  0  0  0  0  0  0
   -3.2456   -0.3347    1.3265 H   0  0  0  0  0  0  0  0  0  0  0  0
   -2.9102    1.1043    0.3606 H   0  0  0  0  0  0  0  0  0  0  0  0
    1.6869   -1.4625    1.3127 H   0  0  0  0  0  0  0  0  0  0  0  0
    2.0269   -0.0580    0.3067 H   0  0  0  0  0  0  0  0  0  0  0  0
   -4.4438    0.2766   -1.4293 H   0  0  0  0  0  0  0  0  0  0  0  0
   -4.7681   -1.1823   -0.4896 H   0  0  0  0  0  0  0  0  0  0  0  0
    2.6480   -2.9626   -0.4415 H   0  0  0  0  0  0  0  0  0  0  0  0
    3.0087   -1.5623   -1.4423 H   0  0  0  0  0  0  0  0  0  0  0  0
   -5.7158    0.2205    1.3671 H   0  0  0  0  0  0  0  0  0  0  0  0
   -5.3733    1.6747    0.4556 H   0  0  0  0  0  0  0  0  0  0  0  0
    4.2147   -2.1633    1.3069 H   0  0  0  0  0  0  0  0  0  0  0  0
    5.0037   -2.4212   -0.2459 H   0  0  0  0  0  0  0  0  0  0  0  0
   -6.9369    0.9039   -1.3678 H   0  0  0  0  0  0  0  0  0  0  0  0
   -7.2849   -0.5567   -0.4237 H   0  0  0  0  0  0  0  0  0  0  0  0
   -7.6981    2.1265    0.4207 H   0  0  0  0  0  0  0  0  0  0  0  0
    5.7698    2.5530    1.3164 H   0  0  0  0  0  0  0  0  0  0  0  0
    6.3341    3.7540   -0.7093 H   0  0  0  0  0  0  0  0  0  0  0  0
    5.8814    2.2815   -1.7469 H   0  0  0  0  0  0  0  0  0  0  0  0
  1 11  1  0  0  0  0
  1 36  1  0  0  0  0
  2  3  1  0  0  0  0
  2  4  1  0  0  0  0
  2 18  1  0  0  0  0
  2 19  1  0  0  0  0
  3  5  1  0  0  0  0
  3 16  1  0  0  0  0
  3 17  1  0  0  0  0
  4  6  1  0  0  0  0
  4 20  1  0  0  0  0
  4 21  1  0  0  0  0
  5  7  1  0  0  0  0
  5 22  1  0  0  0  0
  5 23  1  0  0  0  0
  6  8  1  0  0  0  0
  6 24  1  0  0  0  0
  6 25  1  0  0  0  0
  7  9  1  0  0  0  0
  7 26  1  0  0  0  0
  7 27  1  0  0  0  0
  8 10  1  0  0  0  0
  8 28  1  0  0  0  0
  8 29  1  0  0  0  0
  9 11  1  0  0  0  0
  9 30  1  0  0  0  0
  9 31  1  0  0  0  0
 10 12  1  0  0  0  0
 10 32  1  0  0  0  0
 10 33  1  0  0  0  0
 11 34  1  0  0  0  0
 11 35  1  0  0  0  0
 12 13  3  0  0  0  0
 13 14  1  0  0  0  0
 14 15  2  0  0  0  0
 14 37  1  0  0  0  0
 15 38  1  0  0  0  0
 15 39  1  0  0  0  0
M  END
> <PUBCHEM_COMPOUND_CID>
543337

> <PUBCHEM_CONFORMER_RMSD>
1

> <PUBCHEM_CONFORMER_DIVERSEORDER>
1
199
23
312
6
143
90
2
214
11
304
129
538
266
443
541
5
21
7
72
425
128
64
49
43
240
384
284
210
587
18
466
457
349
480
579
112
271
372
200
47
157
156
565
405
120
13
450
194
126
219
338
309
533
101
182
437
385
30
435
158
31
118
51
116
607
566
3
33
65
292
481
535
539
4
137
260
181
81
559
360
154
433
417
272
569
96
222
369
582
201
70
574
353
113
8
340
471
231
390
548
92
381
523
104
87
141
75
218
499
54
410
423
482
74
440
376
319
418
584
115
82
496
395
596
167
20
520
419
262
236
612
294
464
375
510
550
333
50
204
540
406
427
314
456

> <PUBCHEM_MMFF94_PARTIAL_CHARGES>
11
1 -0.68
10 0.2
11 0.28
12 -0.2
13 -0.06
14 -0.09
15 -0.3
36 0.4
37 0.15
38 0.15
39 0.15

> <PUBCHEM_EFFECTIVE_ROTOR_COUNT>
9

> <PUBCHEM_PHARMACOPHORE_FEATURES>
3
1 1 acceptor
1 1 donor
1 15 hydrophobe

> <PUBCHEM_HEAVY_ATOM_COUNT>
15

> <PUBCHEM_ATOM_DEF_STEREO_COUNT>
0

> <PUBCHEM_ATOM_UDEF_STEREO_COUNT>
0

> <PUBCHEM_BOND_DEF_STEREO_COUNT>
0

> <PUBCHEM_BOND_UDEF_STEREO_COUNT>
0

> <PUBCHEM_ISOTOPIC_ATOM_COUNT>
0

> <PUBCHEM_COMPONENT_COUNT>
1

> <PUBCHEM_CACTVS_TAUTO_COUNT>
1

> <PUBCHEM_CONFORMER_ID>
00084A6900000001

> <PUBCHEM_MMFF94_ENERGY>
1.2599

> <PUBCHEM_FEATURE_SELFOVERLAP>
15.223

> <PUBCHEM_SHAPE_FINGERPRINT>
10753850 27 9583527503498951292
125118 31 18409730617332497857
13533116 47 17386279879561109026
13955234 65 17969212353142861370
14216079 64 9799694796634130545
14251732 16 18408886274001300971
14251740 57 12541236842260333632
14251757 52 18408318861592625145
14251764 18 17988922276397251111
14251764 75 17753620345423922356
14429380 56 18336816550806677725
14598715 104 17458610191548868301
14774955 27 18410289255364996846
15048467 5 18343299266952935123
15342168 16 18336545032118001446
155225 6 17971200472203624388
16079462 125 17749380447691286039
17810953 82 18261395611377888956
19427546 62 18410575098134446222
20157964 124 18410575067847466490
20281389 69 18260546684936466789
20526848 3 18341896302969354209
21130983 4 18342739603039755531
2215653 11 12247679387357061052
22224240 67 17894348870234717915
270888 7 18266177426228386052
2916195 48 18113333098752559063
328310 630 18201443545782803849
33532 11 9223224149021761389
3472631 163 18201441428094388644
444735 82 18260833678815012077
445580 126 18341602742677301192
5312510 48 18271523208269803880
59682541 52 17346333583332271380
6438161 24 11455896828222912372

> <PUBCHEM_SHAPE_MULTIPOLES>
302.82
21.57
2.28
0.76
26.76
0.92
0.04
15.31
-0.69
-5.38
0.3
-0.17
0.08
-0.78

> <PUBCHEM_SHAPE_SELFOVERLAP>
552.204

> <PUBCHEM_SHAPE_VOLUME>
191.4

> <PUBCHEM_COORDINATE_TYPE>
2
5
10

$$$$
