17082
  -OEChem-11232018122D

 90 90  0     0  0  0  0  0  0999 V2000
   15.8564   -2.7500    0.0000 O   0  0  0  0  0  0  0  0  0  0  0  0
   12.3923   -4.7500    0.0000 O   0  0  0  0  0  0  0  0  0  0  0  0
   14.1244   -2.7500    0.0000 O   0  0  0  0  0  0  0  0  0  0  0  0
   13.2583   -3.2500    0.0000 O   0  0  0  0  0  0  0  0  0  0  0  0
   18.4545    1.7500    0.0000 C   0  0  0  0  0  0  0  0  0  0  0  0
    7.1962   -4.7500    0.0000 C   0  0  0  0  0  0  0  0  0  0  0  0
   18.4545    2.7500    0.0000 C   0  0  0  0  0  0  0  0  0  0  0  0
    6.3301   -4.2500    0.0000 C   0  0  0  0  0  0  0  0  0  0  0  0
   17.5885    1.2500    0.0000 C   0  0  0  0  0  0  0  0  0  0  0  0
    8.0622   -4.2500    0.0000 C   0  0  0  0  0  0  0  0  0  0  0  0
   19.3205    3.2500    0.0000 C   0  0  0  0  0  0  0  0  0  0  0  0
    5.4641   -4.7500    0.0000 C   0  0  0  0  0  0  0  0  0  0  0  0
   17.5885    0.2500    0.0000 C   0  0  0  0  0  0  0  0  0  0  0  0
    8.9282   -4.7500    0.0000 C   0  0  0  0  0  0  0  0  0  0  0  0
   19.3205    4.2500    0.0000 C   0  0  0  0  0  0  0  0  0  0  0  0
    4.5981   -4.2500    0.0000 C   0  0  0  0  0  0  0  0  0  0  0  0
   16.7224   -0.2500    0.0000 C   0  0  0  0  0  0  0  0  0  0  0  0
    9.7942   -4.2500    0.0000 C   0  0  0  0  0  0  0  0  0  0  0  0
   20.1865    4.7500    0.0000 C   0  0  0  0  0  0  0  0  0  0  0  0
    3.7320   -4.7500    0.0000 C   0  0  0  0  0  0  0  0  0  0  0  0
   16.7224   -1.2500    0.0000 C   0  0  0  0  0  0  0  0  0  0  0  0
   10.6603   -4.7500    0.0000 C   0  0  0  0  0  0  0  0  0  0  0  0
   20.1865    5.7500    0.0000 C   0  0  0  0  0  0  0  0  0  0  0  0
    2.8660   -4.2500    0.0000 C   0  0  0  0  0  0  0  0  0  0  0  0
   15.8564   -1.7500    0.0000 C   0  0  0  0  0  0  0  0  0  0  0  0
   11.5263   -4.2500    0.0000 C   0  0  0  0  0  0  0  0  0  0  0  0
   21.0526    6.2500    0.0000 C   0  0  0  0  0  0  0  0  0  0  0  0
    2.0000   -4.7500    0.0000 C   0  0  0  0  0  0  0  0  0  0  0  0
   14.9904   -3.2500    0.0000 C   0  0  0  0  0  0  0  0  0  0  0  0
   13.2583   -4.2500    0.0000 C   0  0  0  0  0  0  0  0  0  0  0  0
   14.9904   -4.2500    0.0000 C   0  0  0  0  0  0  0  0  0  0  0  0
   14.1244   -4.7500    0.0000 C   0  0  0  0  0  0  0  0  0  0  0  0
   15.8564   -4.7500    0.0000 C   0  0  0  0  0  0  0  0  0  0  0  0
   14.1244   -5.7500    0.0000 C   0  0  0  0  0  0  0  0  0  0  0  0
   15.8564   -5.7500    0.0000 C   0  0  0  0  0  0  0  0  0  0  0  0
   14.9904   -6.2500    0.0000 C   0  0  0  0  0  0  0  0  0  0  0  0
   18.6665    1.1674    0.0000 H   0  0  0  0  0  0  0  0  0  0  0  0
   19.0651    1.8577    0.0000 H   0  0  0  0  0  0  0  0  0  0  0  0
    6.7976   -5.2250    0.0000 H   0  0  0  0  0  0  0  0  0  0  0  0
    7.5947   -5.2250    0.0000 H   0  0  0  0  0  0  0  0  0  0  0  0
   18.2424    3.3326    0.0000 H   0  0  0  0  0  0  0  0  0  0  0  0
   17.8439    2.6423    0.0000 H   0  0  0  0  0  0  0  0  0  0  0  0
    6.7287   -3.7750    0.0000 H   0  0  0  0  0  0  0  0  0  0  0  0
    5.9316   -3.7750    0.0000 H   0  0  0  0  0  0  0  0  0  0  0  0
   17.3764    1.8326    0.0000 H   0  0  0  0  0  0  0  0  0  0  0  0
   16.9779    1.1423    0.0000 H   0  0  0  0  0  0  0  0  0  0  0  0
    8.4607   -3.7750    0.0000 H   0  0  0  0  0  0  0  0  0  0  0  0
    7.6636   -3.7750    0.0000 H   0  0  0  0  0  0  0  0  0  0  0  0
   19.5326    2.6674    0.0000 H   0  0  0  0  0  0  0  0  0  0  0  0
   19.9311    3.3577    0.0000 H   0  0  0  0  0  0  0  0  0  0  0  0
    5.0656   -5.2250    0.0000 H   0  0  0  0  0  0  0  0  0  0  0  0
    5.8626   -5.2250    0.0000 H   0  0  0  0  0  0  0  0  0  0  0  0
   17.8005   -0.3326    0.0000 H   0  0  0  0  0  0  0  0  0  0  0  0
   18.1990    0.3577    0.0000 H   0  0  0  0  0  0  0  0  0  0  0  0
    8.5297   -5.2250    0.0000 H   0  0  0  0  0  0  0  0  0  0  0  0
    9.3267   -5.2250    0.0000 H   0  0  0  0  0  0  0  0  0  0  0  0
   19.1085    4.8326    0.0000 H   0  0  0  0  0  0  0  0  0  0  0  0
   18.7099    4.1423    0.0000 H   0  0  0  0  0  0  0  0  0  0  0  0
    4.9966   -3.7750    0.0000 H   0  0  0  0  0  0  0  0  0  0  0  0
    4.1996   -3.7750    0.0000 H   0  0  0  0  0  0  0  0  0  0  0  0
   16.5104    0.3326    0.0000 H   0  0  0  0  0  0  0  0  0  0  0  0
   16.1119   -0.3577    0.0000 H   0  0  0  0  0  0  0  0  0  0  0  0
   10.1928   -3.7750    0.0000 H   0  0  0  0  0  0  0  0  0  0  0  0
    9.3957   -3.7750    0.0000 H   0  0  0  0  0  0  0  0  0  0  0  0
   20.3986    4.1674    0.0000 H   0  0  0  0  0  0  0  0  0  0  0  0
   20.7971    4.8577    0.0000 H   0  0  0  0  0  0  0  0  0  0  0  0
    3.3335   -5.2250    0.0000 H   0  0  0  0  0  0  0  0  0  0  0  0
    4.1306   -5.2250    0.0000 H   0  0  0  0  0  0  0  0  0  0  0  0
   16.9345   -1.8326    0.0000 H   0  0  0  0  0  0  0  0  0  0  0  0
   17.3330   -1.1423    0.0000 H   0  0  0  0  0  0  0  0  0  0  0  0
   10.2617   -5.2250    0.0000 H   0  0  0  0  0  0  0  0  0  0  0  0
   11.0588   -5.2250    0.0000 H   0  0  0  0  0  0  0  0  0  0  0  0
   19.9745    6.3326    0.0000 H   0  0  0  0  0  0  0  0  0  0  0  0
   19.5760    5.6423    0.0000 H   0  0  0  0  0  0  0  0  0  0  0  0
    3.2646   -3.7750    0.0000 H   0  0  0  0  0  0  0  0  0  0  0  0
    2.4675   -3.7750    0.0000 H   0  0  0  0  0  0  0  0  0  0  0  0
   15.6444   -1.1674    0.0000 H   0  0  0  0  0  0  0  0  0  0  0  0
   15.2458   -1.8577    0.0000 H   0  0  0  0  0  0  0  0  0  0  0  0
   11.9248   -3.7750    0.0000 H   0  0  0  0  0  0  0  0  0  0  0  0
   11.1278   -3.7750    0.0000 H   0  0  0  0  0  0  0  0  0  0  0  0
   21.3626    5.7131    0.0000 H   0  0  0  0  0  0  0  0  0  0  0  0
   21.5895    6.5600    0.0000 H   0  0  0  0  0  0  0  0  0  0  0  0
   20.7426    6.7869    0.0000 H   0  0  0  0  0  0  0  0  0  0  0  0
    1.6900   -4.2131    0.0000 H   0  0  0  0  0  0  0  0  0  0  0  0
    1.4631   -5.0600    0.0000 H   0  0  0  0  0  0  0  0  0  0  0  0
    2.3100   -5.2869    0.0000 H   0  0  0  0  0  0  0  0  0  0  0  0
   16.3933   -4.4400    0.0000 H   0  0  0  0  0  0  0  0  0  0  0  0
   13.5874   -6.0600    0.0000 H   0  0  0  0  0  0  0  0  0  0  0  0
   16.3933   -6.0600    0.0000 H   0  0  0  0  0  0  0  0  0  0  0  0
   14.9904   -6.8700    0.0000 H   0  0  0  0  0  0  0  0  0  0  0  0
  1 25  1  0  0  0  0
  1 29  1  0  0  0  0
  2 26  1  0  0  0  0
  2 30  1  0  0  0  0
  3 29  2  0  0  0  0
  4 30  2  0  0  0  0
  5  7  1  0  0  0  0
  5  9  1  0  0  0  0
  5 37  1  0  0  0  0
  5 38  1  0  0  0  0
  6  8  1  0  0  0  0
  6 10  1  0  0  0  0
  6 39  1  0  0  0  0
  6 40  1  0  0  0  0
  7 11  1  0  0  0  0
  7 41  1  0  0  0  0
  7 42  1  0  0  0  0
  8 12  1  0  0  0  0
  8 43  1  0  0  0  0
  8 44  1  0  0  0  0
  9 13  1  0  0  0  0
  9 45  1  0  0  0  0
  9 46  1  0  0  0  0
 10 14  1  0  0  0  0
 10 47  1  0  0  0  0
 10 48  1  0  0  0  0
 11 15  1  0  0  0  0
 11 49  1  0  0  0  0
 11 50  1  0  0  0  0
 12 16  1  0  0  0  0
 12 51  1  0  0  0  0
 12 52  1  0  0  0  0
 13 17  1  0  0  0  0
 13 53  1  0  0  0  0
 13 54  1  0  0  0  0
 14 18  1  0  0  0  0
 14 55  1  0  0  0  0
 14 56  1  0  0  0  0
 15 19  1  0  0  0  0
 15 57  1  0  0  0  0
 15 58  1  0  0  0  0
 16 20  1  0  0  0  0
 16 59  1  0  0  0  0
 16 60  1  0  0  0  0
 17 21  1  0  0  0  0
 17 61  1  0  0  0  0
 17 62  1  0  0  0  0
 18 22  1  0  0  0  0
 18 63  1  0  0  0  0
 18 64  1  0  0  0  0
 19 23  1  0  0  0  0
 19 65  1  0  0  0  0
 19 66  1  0  0  0  0
 20 24  1  0  0  0  0
 20 67  1  0  0  0  0
 20 68  1  0  0  0  0
 21 25  1  0  0  0  0
 21 69  1  0  0  0  0
 21 70  1  0  0  0  0
 22 26  1  0  0  0  0
 22 71  1  0  0  0  0
 22 72  1  0  0  0  0
 23 27  1  0  0  0  0
 23 73  1  0  0  0  0
 23 74  1  0  0  0  0
 24 28  1  0  0  0  0
 24 75  1  0  0  0  0
 24 76  1  0  0  0  0
 25 77  1  0  0  0  0
 25 78  1  0  0  0  0
 26 79  1  0  0  0  0
 26 80  1  0  0  0  0
 27 81  1  0  0  0  0
 27 82  1  0  0  0  0
 27 83  1  0  0  0  0
 28 84  1  0  0  0  0
 28 85  1  0  0  0  0
 28 86  1  0  0  0  0
 29 31  1  0  0  0  0
 30 32  1  0  0  0  0
 31 32  1  0  0  0  0
 31 33  2  0  0  0  0
 32 34  2  0  0  0  0
 33 35  1  0  0  0  0
 33 87  1  0  0  0  0
 34 36  1  0  0  0  0
 34 88  1  0  0  0  0
 35 36  2  0  0  0  0
 35 89  1  0  0  0  0
 36 90  1  0  0  0  0
M  END
> <PUBCHEM_COMPOUND_CID>
17082

> <PUBCHEM_COMPOUND_CANONICALIZED>
1

> <PUBCHEM_CACTVS_COMPLEXITY>
472

> <PUBCHEM_CACTVS_HBOND_ACCEPTOR>
4

> <PUBCHEM_CACTVS_HBOND_DONOR>
0

> <PUBCHEM_CACTVS_ROTATABLE_BOND>
26

> <PUBCHEM_CACTVS_SUBSKEYS>
AAADcfB8OAAAAAAAAAAAAAAAAAAAAAAAAAAwAAAAAAAAAAABAAAAGgAAAAAADACgmAIyCIAABACIAiDSCAACAAAkAAAIiAEACMgIJjKANRiCMQAkwAEIqYfLyKCOgAAAAAAQAAAAAAAAACAAAAAAAAAAAA==

> <PUBCHEM_IUPAC_OPENEYE_NAME>
didodecyl benzene-1,2-dicarboxylate

> <PUBCHEM_IUPAC_CAS_NAME>
benzene-1,2-dicarboxylic acid didodecyl ester

> <PUBCHEM_IUPAC_NAME_MARKUP>
didodecyl benzene-1,2-dicarboxylate

> <PUBCHEM_IUPAC_NAME>
didodecyl benzene-1,2-dicarboxylate

> <PUBCHEM_IUPAC_SYSTEMATIC_NAME>
didodecyl benzene-1,2-dicarboxylate

> <PUBCHEM_IUPAC_TRADITIONAL_NAME>
benzene-1,2-dicarboxylic acid dilauryl ester

> <PUBCHEM_IUPAC_INCHI>
InChI=1S/C32H54O4/c1-3-5-7-9-11-13-15-17-19-23-27-35-31(33)29-25-21-22-26-30(29)32(34)36-28-24-20-18-16-14-12-10-8-6-4-2/h21-22,25-26H,3-20,23-24,27-28H2,1-2H3

> <PUBCHEM_IUPAC_INCHIKEY>
PUFGCEQWYLJYNJ-UHFFFAOYSA-N

> <PUBCHEM_XLOGP3>
13.4

> <PUBCHEM_EXACT_MASS>
502.40221

> <PUBCHEM_MOLECULAR_FORMULA>
C32H54O4

> <PUBCHEM_MOLECULAR_WEIGHT>
502.8

> <PUBCHEM_OPENEYE_CAN_SMILES>
CCCCCCCCCCCCOC(=O)C1=CC=CC=C1C(=O)OCCCCCCCCCCCC

> <PUBCHEM_OPENEYE_ISO_SMILES>
CCCCCCCCCCCCOC(=O)C1=CC=CC=C1C(=O)OCCCCCCCCCCCC

> <PUBCHEM_CACTVS_TPSA>
52.6

> <PUBCHEM_MONOISOTOPIC_WEIGHT>
502.40221

> <PUBCHEM_TOTAL_CHARGE>
0

> <PUBCHEM_HEAVY_ATOM_COUNT>
36

> <PUBCHEM_ATOM_DEF_STEREO_COUNT>
0

> <PUBCHEM_ATOM_UDEF_STEREO_COUNT>
0

> <PUBCHEM_BOND_DEF_STEREO_COUNT>
0

> <PUBCHEM_BOND_UDEF_STEREO_COUNT>
0

> <PUBCHEM_ISOTOPIC_ATOM_COUNT>
0

> <PUBCHEM_COMPONENT_COUNT>
1

> <PUBCHEM_CACTVS_TAUTO_COUNT>
-1

> <PUBCHEM_COORDINATE_TYPE>
1
5
255

> <PUBCHEM_BONDANNOTATIONS>
31  32  8
31  33  8
32  34  8
33  35  8
34  36  8
35  36  8

$$$$
