139033583
  -OEChem-11232018192D

100102  0     1  0  0  0  0  0999 V2000
    6.0016    1.4540    0.0000 O   0  0  0  0  0  0  0  0  0  0  0  0
    2.5369    0.4540    0.0000 O   0  0  0  0  0  0  0  0  0  0  0  0
   20.1350   -4.2421    0.0000 O   0  0  0  0  0  0  0  0  0  0  0  0
   22.6350   -2.3761    0.0000 O   0  0  0  0  0  0  0  0  0  0  0  0
    5.1350    1.9540    0.0000 C   0  0  2  0  0  0  0  0  0  0  0  0
    5.1350    0.9540    0.0000 C   0  0  1  0  0  0  0  0  0  0  0  0
    4.2690    2.4540    0.0000 C   0  0  0  0  0  0  0  0  0  0  0  0
    4.2690    0.4540    0.0000 C   0  0  0  0  0  0  0  0  0  0  0  0
    3.4030    1.9540    0.0000 C   0  0  0  0  0  0  0  0  0  0  0  0
    3.4030    0.9540    0.0000 C   0  0  2  0  0  0  0  0  0  0  0  0
    5.1350   -0.0460    0.0000 C   0  0  0  0  0  0  0  0  0  0  0  0
    5.6350    2.8201    0.0000 C   0  0  0  0  0  0  0  0  0  0  0  0
    3.7690    3.3201    0.0000 C   0  0  0  0  0  0  0  0  0  0  0  0
    4.7690    3.3201    0.0000 C   0  0  0  0  0  0  0  0  0  0  0  0
    6.6350    2.8201    0.0000 C   0  0  0  0  0  0  0  0  0  0  0  0
    7.1350    3.6861    0.0000 C   0  0  0  0  0  0  0  0  0  0  0  0
    6.6350    4.5521    0.0000 C   0  0  0  0  0  0  0  0  0  0  0  0
    8.1350    3.6861    0.0000 C   0  0  0  0  0  0  0  0  0  0  0  0
    8.6350    2.8201    0.0000 C   0  0  0  0  0  0  0  0  0  0  0  0
   20.1350   -1.5101    0.0000 C   0  0  0  0  0  0  0  0  0  0  0  0
   20.1350   -3.2421    0.0000 C   0  0  2  0  0  0  0  0  0  0  0  0
   21.1350   -1.5101    0.0000 C   0  0  0  0  0  0  0  0  0  0  0  0
   21.6350   -2.3761    0.0000 C   0  0  1  0  0  0  0  0  0  0  0  0
   21.1350   -3.2421    0.0000 C   0  0  0  0  0  0  0  0  0  0  0  0
   19.6350   -2.3761    0.0000 C   0  0  0  0  0  0  0  0  0  0  0  0
   20.1350   -0.5101    0.0000 C   0  0  0  0  0  0  0  0  0  0  0  0
   19.2690   -1.0101    0.0000 C   0  0  0  0  0  0  0  0  0  0  0  0
   19.2690   -3.7421    0.0000 C   0  0  0  0  0  0  0  0  0  0  0  0
    9.6350    2.8201    0.0000 C   0  0  0  0  0  0  0  0  0  0  0  0
   18.6350   -2.3761    0.0000 C   0  0  0  0  0  0  0  0  0  0  0  0
   10.1350    1.9540    0.0000 C   0  0  0  0  0  0  0  0  0  0  0  0
   17.6350   -2.3761    0.0000 C   0  0  0  0  0  0  0  0  0  0  0  0
    9.6350    1.0880    0.0000 C   0  0  0  0  0  0  0  0  0  0  0  0
   11.1350    1.9540    0.0000 C   0  0  0  0  0  0  0  0  0  0  0  0
   17.1350   -1.5101    0.0000 C   0  0  0  0  0  0  0  0  0  0  0  0
   17.6350   -0.6440    0.0000 C   0  0  0  0  0  0  0  0  0  0  0  0
   16.1350   -1.5101    0.0000 C   0  0  0  0  0  0  0  0  0  0  0  0
   11.6350    1.0880    0.0000 C   0  0  0  0  0  0  0  0  0  0  0  0
   15.6350   -0.6440    0.0000 C   0  0  0  0  0  0  0  0  0  0  0  0
   12.6350    1.0880    0.0000 C   0  0  0  0  0  0  0  0  0  0  0  0
   14.6350   -0.6440    0.0000 C   0  0  0  0  0  0  0  0  0  0  0  0
   13.1350    0.2220    0.0000 C   0  0  0  0  0  0  0  0  0  0  0  0
   14.1350    0.2220    0.0000 C   0  0  0  0  0  0  0  0  0  0  0  0
   14.6350    1.0880    0.0000 C   0  0  0  0  0  0  0  0  0  0  0  0
    3.8705   -0.0209    0.0000 H   0  0  0  0  0  0  0  0  0  0  0  0
    4.6675   -0.0209    0.0000 H   0  0  0  0  0  0  0  0  0  0  0  0
    3.1909    2.5366    0.0000 H   0  0  0  0  0  0  0  0  0  0  0  0
    2.7924    1.8464    0.0000 H   0  0  0  0  0  0  0  0  0  0  0  0
    3.4030    0.3340    0.0000 H   0  0  0  0  0  0  0  0  0  0  0  0
    4.5150   -0.0460    0.0000 H   0  0  0  0  0  0  0  0  0  0  0  0
    5.1350   -0.6660    0.0000 H   0  0  0  0  0  0  0  0  0  0  0  0
    5.7550   -0.0460    0.0000 H   0  0  0  0  0  0  0  0  0  0  0  0
    5.3250    3.3570    0.0000 H   0  0  0  0  0  0  0  0  0  0  0  0
    4.3059    3.6301    0.0000 H   0  0  0  0  0  0  0  0  0  0  0  0
    3.4590    3.8570    0.0000 H   0  0  0  0  0  0  0  0  0  0  0  0
    3.2320    3.0101    0.0000 H   0  0  0  0  0  0  0  0  0  0  0  0
    5.3059    3.0101    0.0000 H   0  0  0  0  0  0  0  0  0  0  0  0
    5.0790    3.8570    0.0000 H   0  0  0  0  0  0  0  0  0  0  0  0
    4.2320    3.6301    0.0000 H   0  0  0  0  0  0  0  0  0  0  0  0
    2.0000    0.7640    0.0000 H   0  0  0  0  0  0  0  0  0  0  0  0
    6.9450    2.2831    0.0000 H   0  0  0  0  0  0  0  0  0  0  0  0
    7.1720    4.8621    0.0000 H   0  0  0  0  0  0  0  0  0  0  0  0
    6.3250    5.0890    0.0000 H   0  0  0  0  0  0  0  0  0  0  0  0
    6.0981    4.2421    0.0000 H   0  0  0  0  0  0  0  0  0  0  0  0
    8.4450    4.2230    0.0000 H   0  0  0  0  0  0  0  0  0  0  0  0
    8.3250    2.2831    0.0000 H   0  0  0  0  0  0  0  0  0  0  0  0
   21.7176   -1.2980    0.0000 H   0  0  0  0  0  0  0  0  0  0  0  0
   21.0273   -0.8995    0.0000 H   0  0  0  0  0  0  0  0  0  0  0  0
   21.9450   -1.8392    0.0000 H   0  0  0  0  0  0  0  0  0  0  0  0
   21.0273   -3.8527    0.0000 H   0  0  0  0  0  0  0  0  0  0  0  0
   21.7176   -3.4542    0.0000 H   0  0  0  0  0  0  0  0  0  0  0  0
   20.7550   -0.5101    0.0000 H   0  0  0  0  0  0  0  0  0  0  0  0
   20.1350    0.1099    0.0000 H   0  0  0  0  0  0  0  0  0  0  0  0
   19.5150   -0.5101    0.0000 H   0  0  0  0  0  0  0  0  0  0  0  0
   19.5790   -0.4731    0.0000 H   0  0  0  0  0  0  0  0  0  0  0  0
   18.7320   -0.7001    0.0000 H   0  0  0  0  0  0  0  0  0  0  0  0
   18.9590   -1.5470    0.0000 H   0  0  0  0  0  0  0  0  0  0  0  0
   18.9590   -3.2052    0.0000 H   0  0  0  0  0  0  0  0  0  0  0  0
   18.7320   -4.0521    0.0000 H   0  0  0  0  0  0  0  0  0  0  0  0
   19.5790   -4.2790    0.0000 H   0  0  0  0  0  0  0  0  0  0  0  0
    9.9450    3.3570    0.0000 H   0  0  0  0  0  0  0  0  0  0  0  0
   20.6719   -4.5521    0.0000 H   0  0  0  0  0  0  0  0  0  0  0  0
   22.9450   -1.8392    0.0000 H   0  0  0  0  0  0  0  0  0  0  0  0
   17.3250   -2.9130    0.0000 H   0  0  0  0  0  0  0  0  0  0  0  0
    9.0981    1.3980    0.0000 H   0  0  0  0  0  0  0  0  0  0  0  0
    9.3250    0.5511    0.0000 H   0  0  0  0  0  0  0  0  0  0  0  0
   10.1719    0.7780    0.0000 H   0  0  0  0  0  0  0  0  0  0  0  0
   11.4450    2.4910    0.0000 H   0  0  0  0  0  0  0  0  0  0  0  0
   18.1719   -0.9540    0.0000 H   0  0  0  0  0  0  0  0  0  0  0  0
   17.9450   -0.1071    0.0000 H   0  0  0  0  0  0  0  0  0  0  0  0
   17.0981   -0.3340    0.0000 H   0  0  0  0  0  0  0  0  0  0  0  0
   15.8250   -2.0470    0.0000 H   0  0  0  0  0  0  0  0  0  0  0  0
   11.3250    0.5511    0.0000 H   0  0  0  0  0  0  0  0  0  0  0  0
   15.9450   -0.1071    0.0000 H   0  0  0  0  0  0  0  0  0  0  0  0
   12.9450    1.6249    0.0000 H   0  0  0  0  0  0  0  0  0  0  0  0
   14.3250   -1.1810    0.0000 H   0  0  0  0  0  0  0  0  0  0  0  0
   12.8250   -0.3149    0.0000 H   0  0  0  0  0  0  0  0  0  0  0  0
   15.1719    0.7780    0.0000 H   0  0  0  0  0  0  0  0  0  0  0  0
   14.9450    1.6249    0.0000 H   0  0  0  0  0  0  0  0  0  0  0  0
   14.0981    1.3980    0.0000 H   0  0  0  0  0  0  0  0  0  0  0  0
  1  5  1  0  0  0  0
  1  6  1  0  0  0  0
 10  2  1  1  0  0  0
  2 60  1  0  0  0  0
 21  3  1  1  0  0  0
  3 82  1  0  0  0  0
 23  4  1  6  0  0  0
  4 83  1  0  0  0  0
  5  6  1  0  0  0  0
  5  7  1  0  0  0  0
  5 12  1  1  0  0  0
  6  8  1  0  0  0  0
  6 11  1  1  0  0  0
  7  9  1  0  0  0  0
  7 13  1  0  0  0  0
  7 14  1  0  0  0  0
  8 10  1  0  0  0  0
  8 45  1  0  0  0  0
  8 46  1  0  0  0  0
  9 10  1  0  0  0  0
  9 47  1  0  0  0  0
  9 48  1  0  0  0  0
 10 49  1  0  0  0  0
 11 50  1  0  0  0  0
 11 51  1  0  0  0  0
 11 52  1  0  0  0  0
 12 15  2  3  0  0  0
 12 53  1  0  0  0  0
 13 54  1  0  0  0  0
 13 55  1  0  0  0  0
 13 56  1  0  0  0  0
 14 57  1  0  0  0  0
 14 58  1  0  0  0  0
 14 59  1  0  0  0  0
 15 16  1  0  0  0  0
 15 61  1  0  0  0  0
 16 17  1  0  0  0  0
 16 18  2  0  0  0  0
 17 62  1  0  0  0  0
 17 63  1  0  0  0  0
 17 64  1  0  0  0  0
 18 19  1  0  0  0  0
 18 65  1  0  0  0  0
 19 29  2  0  0  0  0
 19 66  1  0  0  0  0
 20 22  1  0  0  0  0
 20 25  1  0  0  0  0
 20 26  1  0  0  0  0
 20 27  1  0  0  0  0
 21 24  1  0  0  0  0
 21 25  1  0  0  0  0
 21 28  1  0  0  0  0
 22 23  1  0  0  0  0
 22 67  1  0  0  0  0
 22 68  1  0  0  0  0
 23 24  1  0  0  0  0
 23 69  1  0  0  0  0
 24 70  1  0  0  0  0
 24 71  1  0  0  0  0
 25 30  2  0  0  0  0
 26 72  1  0  0  0  0
 26 73  1  0  0  0  0
 26 74  1  0  0  0  0
 27 75  1  0  0  0  0
 27 76  1  0  0  0  0
 27 77  1  0  0  0  0
 28 78  1  0  0  0  0
 28 79  1  0  0  0  0
 28 80  1  0  0  0  0
 29 31  1  0  0  0  0
 29 81  1  0  0  0  0
 30 32  2  0  0  0  0
 31 33  1  0  0  0  0
 31 34  2  3  0  0  0
 32 35  1  0  0  0  0
 32 84  1  0  0  0  0
 33 85  1  0  0  0  0
 33 86  1  0  0  0  0
 33 87  1  0  0  0  0
 34 38  1  0  0  0  0
 34 88  1  0  0  0  0
 35 36  1  0  0  0  0
 35 37  2  3  0  0  0
 36 89  1  0  0  0  0
 36 90  1  0  0  0  0
 36 91  1  0  0  0  0
 37 39  1  0  0  0  0
 37 92  1  0  0  0  0
 38 40  2  3  0  0  0
 38 93  1  0  0  0  0
 39 41  2  3  0  0  0
 39 94  1  0  0  0  0
 40 42  1  0  0  0  0
 40 95  1  0  0  0  0
 41 43  1  0  0  0  0
 41 96  1  0  0  0  0
 42 43  2  3  0  0  0
 42 97  1  0  0  0  0
 43 44  1  0  0  0  0
 44 98  1  0  0  0  0
 44 99  1  0  0  0  0
 44100  1  0  0  0  0
M  END
> <PUBCHEM_COMPOUND_CID>
139033583

> <PUBCHEM_COMPOUND_CANONICALIZED>
0

> <PUBCHEM_CACTVS_COMPLEXITY>
1380

> <PUBCHEM_CACTVS_HBOND_ACCEPTOR>
4

> <PUBCHEM_CACTVS_HBOND_DONOR>
3

> <PUBCHEM_CACTVS_ROTATABLE_BOND>
9

> <PUBCHEM_CACTVS_SUBSKEYS>
AAADcfB8OAAAAAAAAAAAAAAAEgAAAAAAAAAwYAAABIAAAAAAAAAAGgAACAAADlSggAICAAAABgCAAiBCAAAAAAAgAAAICAAAAAgIFAIAIQACUAAFwAAIsAPA4PQPgAAAAAAAAABCAAYQADAAAAAAAAAAAA==

> <PUBCHEM_IUPAC_INCHI>
InChI=1S/C40H56O4/c1-29(17-13-19-31(3)21-22-35-36(5,6)25-33(41)27-38(35,9)43)15-11-12-16-30(2)18-14-20-32(4)23-24-40-37(7,8)26-34(42)28-39(40,10)44-40/h11-21,23-24,33-34,41-43H,25-28H2,1-10H3/b12-11?,17-13?,18-14+,24-23?,29-15?,30-16?,31-19?,32-20-/t22?,33-,34-,38+,39+,40-/m0/s1

> <PUBCHEM_IUPAC_INCHIKEY>
PGYAYSRVSAJXTE-QVGPALAISA-N

> <PUBCHEM_XLOGP3_AA>
8.7

> <PUBCHEM_EXACT_MASS>
600.41786

> <PUBCHEM_MOLECULAR_FORMULA>
C40H56O4

> <PUBCHEM_MOLECULAR_WEIGHT>
600.9

> <PUBCHEM_OPENEYE_CAN_SMILES>
CC(=CC=CC=C(C)C=CC=C(C)C=C=C1C(CC(CC1(C)O)O)(C)C)C=CC=C(C)C=CC23C(CC(CC2(O3)C)O)(C)C

> <PUBCHEM_OPENEYE_ISO_SMILES>
CC(=CC=CC=C(C)C=CC=C(C)C=C=C1[C@](C[C@H](CC1(C)C)O)(C)O)/C=C/C=C(/C)\C=C[C@]23[C@](O2)(C[C@H](CC3(C)C)O)C

> <PUBCHEM_CACTVS_TPSA>
73.2

> <PUBCHEM_MONOISOTOPIC_WEIGHT>
600.41786

> <PUBCHEM_TOTAL_CHARGE>
0

> <PUBCHEM_HEAVY_ATOM_COUNT>
44

> <PUBCHEM_ATOM_DEF_STEREO_COUNT>
5

> <PUBCHEM_ATOM_UDEF_STEREO_COUNT>
0

> <PUBCHEM_BOND_DEF_STEREO_COUNT>
2

> <PUBCHEM_BOND_UDEF_STEREO_COUNT>
6

> <PUBCHEM_ISOTOPIC_ATOM_COUNT>
0

> <PUBCHEM_COMPONENT_COUNT>
1

> <PUBCHEM_CACTVS_TAUTO_COUNT>
-1

> <PUBCHEM_COORDINATE_TYPE>
1
5
255

> <PUBCHEM_BONDANNOTATIONS>
12  15  1
10  2  5
21  3  5
31  34  1
35  37  1
38  40  1
39  41  1
23  4  6
42  43  1
5  12  5
6  11  5

$$$$
