11972555
  -OEChem-09032008543D

 42 43  0     1  0  0  0  0  0999 V2000
    1.9655    1.5200    1.1552 O   0  0  0  0  0  0  0  0  0  0  0  0
   -0.0910   -0.2993   -0.1132 C   0  0  2  0  0  0  0  0  0  0  0  0
    1.4527   -0.3260   -0.2914 C   0  0  2  0  0  0  0  0  0  0  0  0
   -0.3898   -1.8242    0.0762 C   0  0  2  0  0  0  0  0  0  0  0  0
    1.9406   -1.3665    0.7241 C   0  0  0  0  0  0  0  0  0  0  0  0
    0.7667   -2.3171    0.9652 C   0  0  0  0  0  0  0  0  0  0  0  0
   -0.7967    0.3417   -1.3268 C   0  0  0  0  0  0  0  0  0  0  0  0
   -0.5283    0.5015    1.1520 C   0  0  0  0  0  0  0  0  0  0  0  0
    2.1961    0.9978   -0.1550 C   0  0  0  0  0  0  0  0  0  0  0  0
   -2.3266    0.3292   -1.2032 C   0  0  0  0  0  0  0  0  0  0  0  0
   -0.4312   -2.6581   -1.2114 C   0  0  0  0  0  0  0  0  0  0  0  0
   -2.0090    0.7450    1.2334 C   0  0  0  0  0  0  0  0  0  0  0  0
   -2.8334    0.6603    0.1764 C   0  0  0  0  0  0  0  0  0  0  0  0
    1.6922    2.0176   -1.1773 C   0  0  0  0  0  0  0  0  0  0  0  0
    3.7028    0.7898   -0.3057 C   0  0  0  0  0  0  0  0  0  0  0  0
   -4.3106    0.8883    0.3017 C   0  0  0  0  0  0  0  0  0  0  0  0
    1.6722   -0.7233   -1.2936 H   0  0  0  0  0  0  0  0  0  0  0  0
   -1.3419   -1.9835    0.5960 H   0  0  0  0  0  0  0  0  0  0  0  0
    2.2433   -0.9238    1.6796 H   0  0  0  0  0  0  0  0  0  0  0  0
    2.8047   -1.9168    0.3346 H   0  0  0  0  0  0  0  0  0  0  0  0
    1.0455   -3.3571    0.7640 H   0  0  0  0  0  0  0  0  0  0  0  0
    0.4725   -2.2704    2.0207 H   0  0  0  0  0  0  0  0  0  0  0  0
   -0.4997   -0.1373   -2.2668 H   0  0  0  0  0  0  0  0  0  0  0  0
   -0.5600    1.3947   -1.4386 H   0  0  0  0  0  0  0  0  0  0  0  0
   -0.1420    1.5209    1.1470 H   0  0  0  0  0  0  0  0  0  0  0  0
   -0.1938    0.0152    2.0740 H   0  0  0  0  0  0  0  0  0  0  0  0
   -2.7142   -0.6567   -1.4834 H   0  0  0  0  0  0  0  0  0  0  0  0
   -2.7385    1.0431   -1.9275 H   0  0  0  0  0  0  0  0  0  0  0  0
   -0.5769   -3.7173   -0.9707 H   0  0  0  0  0  0  0  0  0  0  0  0
   -1.2621   -2.3637   -1.8573 H   0  0  0  0  0  0  0  0  0  0  0  0
    0.4940   -2.5785   -1.7898 H   0  0  0  0  0  0  0  0  0  0  0  0
   -2.4057    1.0084    2.2104 H   0  0  0  0  0  0  0  0  0  0  0  0
    2.4500    2.8005   -1.3183 H   0  0  0  0  0  0  0  0  0  0  0  0
    1.5259    1.5828   -2.1673 H   0  0  0  0  0  0  0  0  0  0  0  0
    0.8251    2.5774   -0.8172 H   0  0  0  0  0  0  0  0  0  0  0  0
    4.1145    0.1676    0.4959 H   0  0  0  0  0  0  0  0  0  0  0  0
    4.2369    1.7451   -0.2346 H   0  0  0  0  0  0  0  0  0  0  0  0
    3.9525    0.3333   -1.2692 H   0  0  0  0  0  0  0  0  0  0  0  0
    2.4282    2.3727    1.2242 H   0  0  0  0  0  0  0  0  0  0  0  0
   -4.8599   -0.0029   -0.0186 H   0  0  0  0  0  0  0  0  0  0  0  0
   -4.6195    1.7313   -0.3247 H   0  0  0  0  0  0  0  0  0  0  0  0
   -4.6085    1.1113    1.3316 H   0  0  0  0  0  0  0  0  0  0  0  0
  1  9  1  0  0  0  0
  1 39  1  0  0  0  0
  2  3  1  0  0  0  0
  2  4  1  0  0  0  0
  2  7  1  0  0  0  0
  2  8  1  0  0  0  0
  3  5  1  0  0  0  0
  3  9  1  0  0  0  0
  3 17  1  0  0  0  0
  4  6  1  0  0  0  0
  4 11  1  0  0  0  0
  4 18  1  0  0  0  0
  5  6  1  0  0  0  0
  5 19  1  0  0  0  0
  5 20  1  0  0  0  0
  6 21  1  0  0  0  0
  6 22  1  0  0  0  0
  7 10  1  0  0  0  0
  7 23  1  0  0  0  0
  7 24  1  0  0  0  0
  8 12  1  0  0  0  0
  8 25  1  0  0  0  0
  8 26  1  0  0  0  0
  9 14  1  0  0  0  0
  9 15  1  0  0  0  0
 10 13  1  0  0  0  0
 10 27  1  0  0  0  0
 10 28  1  0  0  0  0
 11 29  1  0  0  0  0
 11 30  1  0  0  0  0
 11 31  1  0  0  0  0
 12 13  2  0  0  0  0
 12 32  1  0  0  0  0
 13 16  1  0  0  0  0
 14 33  1  0  0  0  0
 14 34  1  0  0  0  0
 14 35  1  0  0  0  0
 15 36  1  0  0  0  0
 15 37  1  0  0  0  0
 15 38  1  0  0  0  0
 16 40  1  0  0  0  0
 16 41  1  0  0  0  0
 16 42  1  0  0  0  0
M  END
> <PUBCHEM_COMPOUND_CID>
11972555

> <PUBCHEM_CONFORMER_RMSD>
0.6

> <PUBCHEM_CONFORMER_DIVERSEORDER>
2
7
6
3
5
1
4

> <PUBCHEM_MMFF94_PARTIAL_CHARGES>
9
1 -0.68
10 0.14
12 -0.29
13 -0.28
16 0.14
32 0.15
39 0.4
8 0.14
9 0.28

> <PUBCHEM_EFFECTIVE_ROTOR_COUNT>
2.4

> <PUBCHEM_PHARMACOPHORE_FEATURES>
5
1 1 acceptor
1 1 donor
3 9 14 15 hydrophobe
5 2 3 4 5 6 rings
6 2 7 8 10 12 13 rings

> <PUBCHEM_HEAVY_ATOM_COUNT>
16

> <PUBCHEM_ATOM_DEF_STEREO_COUNT>
2

> <PUBCHEM_ATOM_UDEF_STEREO_COUNT>
1

> <PUBCHEM_BOND_DEF_STEREO_COUNT>
0

> <PUBCHEM_BOND_UDEF_STEREO_COUNT>
0

> <PUBCHEM_ISOTOPIC_ATOM_COUNT>
0

> <PUBCHEM_COMPONENT_COUNT>
1

> <PUBCHEM_CACTVS_TAUTO_COUNT>
1

> <PUBCHEM_CONFORMER_ID>
00B6AFCB00000002

> <PUBCHEM_MMFF94_ENERGY>
57.3843

> <PUBCHEM_FEATURE_SELFOVERLAP>
25.378

> <PUBCHEM_SHAPE_FINGERPRINT>
1 1 18336265660820710158
10702982 57 18338520849353016462
10922049 32 18340217352876702431
10948715 1 18410016567163535757
11578080 2 11892178794175329527
12119455 92 18040992947095049013
12138202 97 18057339459563931270
12326174 3 18193283991950235598
12592029 89 18187647976982088466
12808571 1 17846219921343601287
13024252 1 12686465950956445278
13538477 17 17917137347709302383
14142880 1 17757830408993654500
14617773 55 17832427866427865198
14713566 1 18130508621350586274
15219456 202 17676765353923770829
15309172 13 18187082870854942028
15775835 57 18410856568245723925
15881359 60 17604691395949688485
15906896 17 18121790687816618567
16945 1 18041273275273254599
1813 80 17623858924549029286
18175812 5 17749681735309798353
18186145 218 18272926128944827093
19837323 101 17632027458191965182
20510252 161 17761209221305325418
20559304 39 17915739769572350369
20645476 183 18271804648791089949
20645477 70 18266456512981214479
21524375 3 18411425028626192737
22344851 262 18113896117214434716
23402539 116 17703785933765134772
23419403 2 17257439145451541078
23526113 38 13038912096948216605
23557571 272 15409459247974223871
23558518 356 17755864474108589136
23559900 14 15936976197808002586
25 1 18342178855914154412
2748010 2 18335715969521216738
276578 36 18410295808736095120
305870 269 18338515240094254697
3060560 45 18340772533155131895
3286 77 17824262609760014235
353137 74 17757534618874874966
430814 3 18412827988294090751
4340502 62 18411429414721504867
5084963 1 18120371214500211700
528862 383 18336263436006525939
63268167 104 18411413973601996936
7364860 26 18127698123469331431
77492 1 17988070098238844589
81228 2 17688302808301021539
8272917 22 18197788691711492313
9981440 41 17054403552068838480

> <PUBCHEM_SHAPE_MULTIPOLES>
323.4
4.93
2.36
1.35
2.43
1.46
-0.09
-2.86
0.33
-1
-0.29
0.22
-0.01
-0.56

> <PUBCHEM_SHAPE_SELFOVERLAP>
664.428

> <PUBCHEM_SHAPE_VOLUME>
188.3

> <PUBCHEM_COORDINATE_TYPE>
2
5
10

$$$$
