565379
  -OEChem-09032008083D

 29 28  0     1  0  0  0  0  0999 V2000
   -2.8639   -1.9312   -0.5765 O   0  0  0  0  0  0  0  0  0  0  0  0
   -1.5614    0.0448   -0.0428 C   0  0  1  0  0  0  0  0  0  0  0  0
   -0.1515    0.6944   -0.1875 C   0  0  2  0  0  0  0  0  0  0  0  0
   -1.5413   -1.4077   -0.5517 C   0  0  0  0  0  0  0  0  0  0  0  0
   -2.1453    0.1010    1.3785 C   0  0  0  0  0  0  0  0  0  0  0  0
    0.9221   -0.0557    0.5757 C   0  0  0  0  0  0  0  0  0  0  0  0
   -0.1593    2.1485    0.2375 C   0  0  0  0  0  0  0  0  0  0  0  0
    2.0198   -0.6682    0.0899 C   0  0  0  0  0  0  0  0  0  0  0  0
    2.9644   -1.3815    1.0219 C   0  0  0  0  0  0  0  0  0  0  0  0
    2.4312   -0.7158   -1.3544 C   0  0  0  0  0  0  0  0  0  0  0  0
    0.0852    3.1714   -0.5906 C   0  0  0  0  0  0  0  0  0  0  0  0
   -2.2579    0.6100   -0.6789 H   0  0  0  0  0  0  0  0  0  0  0  0
    0.0749    0.6673   -1.2589 H   0  0  0  0  0  0  0  0  0  0  0  0
   -1.1338   -1.4673   -1.5663 H   0  0  0  0  0  0  0  0  0  0  0  0
   -0.9444   -2.0567    0.0965 H   0  0  0  0  0  0  0  0  0  0  0  0
   -2.2290    1.1293    1.7416 H   0  0  0  0  0  0  0  0  0  0  0  0
   -1.5364   -0.4662    2.0893 H   0  0  0  0  0  0  0  0  0  0  0  0
   -3.1558   -0.3213    1.4017 H   0  0  0  0  0  0  0  0  0  0  0  0
    0.7661   -0.0972    1.6539 H   0  0  0  0  0  0  0  0  0  0  0  0
   -0.3525    2.3771    1.2828 H   0  0  0  0  0  0  0  0  0  0  0  0
    3.0398   -2.4389    0.7477 H   0  0  0  0  0  0  0  0  0  0  0  0
    2.6389   -1.3328    2.0664 H   0  0  0  0  0  0  0  0  0  0  0  0
    3.9625   -0.9349    0.9646 H   0  0  0  0  0  0  0  0  0  0  0  0
    1.7697   -0.1640   -2.0238 H   0  0  0  0  0  0  0  0  0  0  0  0
    3.4339   -0.2908   -1.4720 H   0  0  0  0  0  0  0  0  0  0  0  0
    2.4562   -1.7541   -1.7019 H   0  0  0  0  0  0  0  0  0  0  0  0
   -3.3886   -1.3728   -1.1752 H   0  0  0  0  0  0  0  0  0  0  0  0
    0.0759    4.1910   -0.2211 H   0  0  0  0  0  0  0  0  0  0  0  0
    0.2969    3.0132   -1.6421 H   0  0  0  0  0  0  0  0  0  0  0  0
  1  4  1  0  0  0  0
  1 27  1  0  0  0  0
  2  3  1  0  0  0  0
  2  4  1  0  0  0  0
  2  5  1  0  0  0  0
  2 12  1  0  0  0  0
  3  6  1  0  0  0  0
  3  7  1  0  0  0  0
  3 13  1  0  0  0  0
  4 14  1  0  0  0  0
  4 15  1  0  0  0  0
  5 16  1  0  0  0  0
  5 17  1  0  0  0  0
  5 18  1  0  0  0  0
  6  8  2  0  0  0  0
  6 19  1  0  0  0  0
  7 11  2  0  0  0  0
  7 20  1  0  0  0  0
  8  9  1  0  0  0  0
  8 10  1  0  0  0  0
  9 21  1  0  0  0  0
  9 22  1  0  0  0  0
  9 23  1  0  0  0  0
 10 24  1  0  0  0  0
 10 25  1  0  0  0  0
 10 26  1  0  0  0  0
 11 28  1  0  0  0  0
 11 29  1  0  0  0  0
M  END
> <PUBCHEM_COMPOUND_CID>
565379

> <PUBCHEM_CONFORMER_RMSD>
0.6

> <PUBCHEM_CONFORMER_DIVERSEORDER>
2
43
115
75
111
118
94
38
101
81
97
56
100
116
112
7
64
113
68
110
114
86
29
45
119
73
15
50
107
11
105
59
12
106
70
104
77
109
30
108
102
121
92
91
58
84
93
96
117
34
71
28
67
16
47
72
122
53
83
76
35
20
42
82
32
62
78
79
39
40
87
69
5
49
120
85
23
89
90
13
99
33
88
74
57
14
80
8
55
6
48
36
103
26
25
22
24
1
10
27
19
63
54
51
98
65
18
41
66
60
95
31
37
4
21
46
44
61
52
3
9
17

> <PUBCHEM_MMFF94_PARTIAL_CHARGES>
14
1 -0.68
10 0.14
11 -0.3
19 0.15
20 0.15
27 0.4
28 0.15
29 0.15
3 0.28
4 0.28
6 -0.29
7 -0.29
8 -0.28
9 0.14

> <PUBCHEM_EFFECTIVE_ROTOR_COUNT>
4

> <PUBCHEM_PHARMACOPHORE_FEATURES>
6
1 1 acceptor
1 1 donor
1 11 hydrophobe
1 5 hydrophobe
3 8 9 10 hydrophobe
4 2 3 6 7 hydrophobe

> <PUBCHEM_HEAVY_ATOM_COUNT>
11

> <PUBCHEM_ATOM_DEF_STEREO_COUNT>
0

> <PUBCHEM_ATOM_UDEF_STEREO_COUNT>
2

> <PUBCHEM_BOND_DEF_STEREO_COUNT>
0

> <PUBCHEM_BOND_UDEF_STEREO_COUNT>
0

> <PUBCHEM_ISOTOPIC_ATOM_COUNT>
0

> <PUBCHEM_COMPONENT_COUNT>
1

> <PUBCHEM_CACTVS_TAUTO_COUNT>
1

> <PUBCHEM_CONFORMER_ID>
0008A08300000002

> <PUBCHEM_MMFF94_ENERGY>
16.0949

> <PUBCHEM_FEATURE_SELFOVERLAP>
30.5

> <PUBCHEM_SHAPE_FINGERPRINT>
1 1 17544463614850168805
12423570 1 11936090475284227569
12716758 59 17765991701923304402
12932764 1 18268993081848262594
13380537 58 17835512731236352804
15906896 17 17755021899940285081
16945 1 18199473160040326608
19837323 101 17763457323010107712
20361792 2 18409729581817786799
20645477 70 17836922670458936823
20653091 64 18197221566443113475
20671657 53 18338781425404194799
20711985 344 18268437827943212838
20871998 184 18121786019218452520
21040471 1 17472700222109287248
21524375 3 17179958536705938952
23419403 2 17053527082113052985
23552423 10 18051694635807984231
241688 4 18411691089044484195
2748010 2 18341037597066961949
528862 383 17908695477424290839
7364860 26 17912929675391725185
81228 2 18268708312077689409

> <PUBCHEM_SHAPE_MULTIPOLES>
220.51
3.89
2.7
1.18
1.92
2.29
0.07
-2.8
0.36
-1.46
-0.69
0.25
-0.24
-0.5

> <PUBCHEM_SHAPE_SELFOVERLAP>
408.158

> <PUBCHEM_SHAPE_VOLUME>
139.7

> <PUBCHEM_COORDINATE_TYPE>
2
5
10

$$$$
