5369483
  -OEChem-09032008163D

 33 33  0     0  0  0  0  0  0999 V2000
    1.5247    0.9887    0.0597 C   0  0  0  0  0  0  0  0  0  0  0  0
    2.5951    0.2448   -0.7775 C   0  0  0  0  0  0  0  0  0  0  0  0
    0.2007    0.1905    0.0287 C   0  0  0  0  0  0  0  0  0  0  0  0
    2.7982   -1.2031   -0.3445 C   0  0  0  0  0  0  0  0  0  0  0  0
    1.4119    2.4127   -0.5374 C   0  0  0  0  0  0  0  0  0  0  0  0
    1.9894    1.1368    1.5252 C   0  0  0  0  0  0  0  0  0  0  0  0
    0.3164   -1.2819    0.0725 C   0  0  0  0  0  0  0  0  0  0  0  0
    1.5035   -1.9004   -0.0749 C   0  0  0  0  0  0  0  0  0  0  0  0
   -0.9999    0.7993   -0.0245 C   0  0  0  0  0  0  0  0  0  0  0  0
   -0.9150   -2.1147    0.3268 C   0  0  0  0  0  0  0  0  0  0  0  0
   -2.2452    0.0783   -0.0427 C   0  0  0  0  0  0  0  0  0  0  0  0
   -3.4380    0.6889   -0.0957 C   0  0  0  0  0  0  0  0  0  0  0  0
   -4.7417   -0.0398   -0.1157 C   0  0  0  0  0  0  0  0  0  0  0  0
    3.5589    0.7678   -0.7287 H   0  0  0  0  0  0  0  0  0  0  0  0
    2.2967    0.2535   -1.8359 H   0  0  0  0  0  0  0  0  0  0  0  0
    3.4214   -1.2503    0.5558 H   0  0  0  0  0  0  0  0  0  0  0  0
    3.3408   -1.7371   -1.1332 H   0  0  0  0  0  0  0  0  0  0  0  0
    2.3967    2.8918   -0.5964 H   0  0  0  0  0  0  0  0  0  0  0  0
    0.9969    2.3893   -1.5517 H   0  0  0  0  0  0  0  0  0  0  0  0
    0.7819    3.0674    0.0750 H   0  0  0  0  0  0  0  0  0  0  0  0
    1.2725    1.7284    2.1072 H   0  0  0  0  0  0  0  0  0  0  0  0
    2.0957    0.1715    2.0316 H   0  0  0  0  0  0  0  0  0  0  0  0
    2.9587    1.6456    1.5799 H   0  0  0  0  0  0  0  0  0  0  0  0
    1.5606   -2.9844   -0.0073 H   0  0  0  0  0  0  0  0  0  0  0  0
   -1.0768    1.8817   -0.0238 H   0  0  0  0  0  0  0  0  0  0  0  0
   -0.5762   -3.0994    0.6917 H   0  0  0  0  0  0  0  0  0  0  0  0
   -1.4296   -2.4039   -0.5965 H   0  0  0  0  0  0  0  0  0  0  0  0
   -1.5222   -1.7981    1.1812 H   0  0  0  0  0  0  0  0  0  0  0  0
   -2.4089   -0.9216   -0.3675 H   0  0  0  0  0  0  0  0  0  0  0  0
   -3.5000    1.7697    0.0097 H   0  0  0  0  0  0  0  0  0  0  0  0
   -5.3403    0.2472    0.7545 H   0  0  0  0  0  0  0  0  0  0  0  0
   -4.6210   -1.1276   -0.0972 H   0  0  0  0  0  0  0  0  0  0  0  0
   -5.3007    0.2257   -1.0182 H   0  0  0  0  0  0  0  0  0  0  0  0
  1  2  1  0  0  0  0
  1  3  1  0  0  0  0
  1  5  1  0  0  0  0
  1  6  1  0  0  0  0
  2  4  1  0  0  0  0
  2 14  1  0  0  0  0
  2 15  1  0  0  0  0
  3  7  1  0  0  0  0
  3  9  2  0  0  0  0
  4  8  1  0  0  0  0
  4 16  1  0  0  0  0
  4 17  1  0  0  0  0
  5 18  1  0  0  0  0
  5 19  1  0  0  0  0
  5 20  1  0  0  0  0
  6 21  1  0  0  0  0
  6 22  1  0  0  0  0
  6 23  1  0  0  0  0
  7  8  2  0  0  0  0
  7 10  1  0  0  0  0
  8 24  1  0  0  0  0
  9 11  1  0  0  0  0
  9 25  1  0  0  0  0
 10 26  1  0  0  0  0
 10 27  1  0  0  0  0
 10 28  1  0  0  0  0
 11 12  2  0  0  0  0
 11 29  1  0  0  0  0
 12 13  1  0  0  0  0
 12 30  1  0  0  0  0
 13 31  1  0  0  0  0
 13 32  1  0  0  0  0
 13 33  1  0  0  0  0
M  END
> <PUBCHEM_COMPOUND_CID>
5369483

> <PUBCHEM_CONFORMER_RMSD>
0.6

> <PUBCHEM_CONFORMER_DIVERSEORDER>
1

> <PUBCHEM_MMFF94_PARTIAL_CHARGES>
14
1 0.14
10 0.14
11 -0.15
12 -0.29
13 0.14
24 0.15
25 0.15
29 0.15
3 -0.14
30 0.15
4 0.14
7 -0.14
8 -0.29
9 -0.15

> <PUBCHEM_EFFECTIVE_ROTOR_COUNT>
1.6

> <PUBCHEM_PHARMACOPHORE_FEATURES>
3
1 13 hydrophobe
3 1 5 6 hydrophobe
6 1 2 3 4 7 8 rings

> <PUBCHEM_HEAVY_ATOM_COUNT>
13

> <PUBCHEM_ATOM_DEF_STEREO_COUNT>
0

> <PUBCHEM_ATOM_UDEF_STEREO_COUNT>
0

> <PUBCHEM_BOND_DEF_STEREO_COUNT>
2

> <PUBCHEM_BOND_UDEF_STEREO_COUNT>
0

> <PUBCHEM_ISOTOPIC_ATOM_COUNT>
0

> <PUBCHEM_COMPONENT_COUNT>
1

> <PUBCHEM_CACTVS_TAUTO_COUNT>
1

> <PUBCHEM_CONFORMER_ID>
0051EE8B00000001

> <PUBCHEM_MMFF94_ENERGY>
53.1342

> <PUBCHEM_FEATURE_SELFOVERLAP>
15.223

> <PUBCHEM_SHAPE_FINGERPRINT>
11471102 20 18409729539099897783
11680611 10 17679565998849531082
11680986 33 18412267267708511354
12423570 1 17036995624336889280
12932764 1 17989199339952302285
13380535 76 18338232768711440226
13380536 305 18336271214334795244
14251717 144 18410009910423143543
14325111 11 18410293623093587565
14344429 50 17632855317623205560
14648413 74 18190470539384500288
14911166 2 18338809943902442902
16945 1 18338533966489009034
18186145 218 18341613698790576757
193761 8 18121504810730239182
20511035 2 18271524324834284270
20606313 2 18336828597962965807
20645477 70 18341325592664053255
20671657 1 18410860996388778116
20708731 107 18409736148791043132
21501502 16 18265613367202601222
21730867 7 18334013878608770365
221490 88 18336274534566398827
23402539 116 18197211452038198910
23402655 69 18341330007647684381
2748010 2 18194975264272099446
3060560 45 18410852136119121167
5084963 1 18343304742825390377
528886 8 18335706061273959188
5337951 7 18343866627790218710
53812653 166 18341610438704599394
581208 293 18410848889318893853
6333272 397 18263644120850635377
7364860 26 18202560678996191664

> <PUBCHEM_SHAPE_MULTIPOLES>
267.53
5.73
2.19
0.88
7.94
0.22
0.22
-0.47
-0.51
-1.24
-0.03
-0.52
-0.24
0.26

> <PUBCHEM_SHAPE_SELFOVERLAP>
535.487

> <PUBCHEM_SHAPE_VOLUME>
157.8

> <PUBCHEM_COORDINATE_TYPE>
2
5
10

$$$$
