551220
  -OEChem-09032008253D

 50 49  0     1  0  0  0  0  0999 V2000
    2.0424    0.3380   -0.4931 O   0  0  0  0  0  0  0  0  0  0  0  0
   -2.4832    1.0104    0.3585 O   0  0  0  0  0  0  0  0  0  0  0  0
    1.9806   -1.6141   -1.7052 O   0  0  0  0  0  0  0  0  0  0  0  0
   -3.0003   -1.2367    0.3436 O   0  0  0  0  0  0  0  0  0  0  0  0
   -0.1157   -0.4937   -1.1129 C   0  0  0  0  0  0  0  0  0  0  0  0
   -0.6663   -0.5146    0.3615 C   0  0  2  0  0  0  0  0  0  0  0  0
   -0.3320   -1.7663    1.2354 C   0  0  0  0  0  0  0  0  0  0  0  0
   -0.7760   -1.5720   -1.9953 C   0  0  0  0  0  0  0  0  0  0  0  0
   -0.3592    0.8768   -1.7919 C   0  0  0  0  0  0  0  0  0  0  0  0
    1.4119   -0.6842   -1.1446 C   0  0  0  0  0  0  0  0  0  0  0  0
   -2.1856   -0.3227    0.3539 C   0  0  0  0  0  0  0  0  0  0  0  0
    1.1672   -2.0610    1.3438 C   0  0  0  0  0  0  0  0  0  0  0  0
   -0.8798   -1.6007    2.6656 C   0  0  0  0  0  0  0  0  0  0  0  0
    3.4724    0.2826   -0.4874 C   0  0  0  0  0  0  0  0  0  0  0  0
    4.0378    1.4848    0.2738 C   0  0  0  0  0  0  0  0  0  0  0  0
   -3.8778    1.3302    0.3506 C   0  0  0  0  0  0  0  0  0  0  0  0
    3.5695    1.4926    1.7305 C   0  0  0  0  0  0  0  0  0  0  0  0
    5.5635    1.4883    0.2068 C   0  0  0  0  0  0  0  0  0  0  0  0
   -4.0450    2.8415    0.3903 C   0  0  0  0  0  0  0  0  0  0  0  0
   -4.5243    0.7208   -0.8840 C   0  0  0  0  0  0  0  0  0  0  0  0
   -0.2386    0.3466    0.8968 H   0  0  0  0  0  0  0  0  0  0  0  0
   -0.8171   -2.6517    0.8052 H   0  0  0  0  0  0  0  0  0  0  0  0
   -0.3469   -1.5736   -3.0046 H   0  0  0  0  0  0  0  0  0  0  0  0
   -1.8533   -1.4112   -2.1049 H   0  0  0  0  0  0  0  0  0  0  0  0
   -0.6218   -2.5741   -1.5813 H   0  0  0  0  0  0  0  0  0  0  0  0
    0.2051    0.9608   -2.7288 H   0  0  0  0  0  0  0  0  0  0  0  0
   -1.4150    1.0249   -2.0396 H   0  0  0  0  0  0  0  0  0  0  0  0
   -0.0476    1.7081   -1.1492 H   0  0  0  0  0  0  0  0  0  0  0  0
    1.5531   -2.5557    0.4531 H   0  0  0  0  0  0  0  0  0  0  0  0
    1.7461   -1.1644    1.5782 H   0  0  0  0  0  0  0  0  0  0  0  0
    1.3559   -2.7734    2.1567 H   0  0  0  0  0  0  0  0  0  0  0  0
   -0.4441   -0.7215    3.1530 H   0  0  0  0  0  0  0  0  0  0  0  0
   -1.9678   -1.4940    2.6857 H   0  0  0  0  0  0  0  0  0  0  0  0
   -0.6394   -2.4773    3.2777 H   0  0  0  0  0  0  0  0  0  0  0  0
    3.8298    0.3004   -1.5242 H   0  0  0  0  0  0  0  0  0  0  0  0
    3.7981   -0.6534   -0.0174 H   0  0  0  0  0  0  0  0  0  0  0  0
    3.6617    2.4025   -0.1959 H   0  0  0  0  0  0  0  0  0  0  0  0
   -4.3398    0.9168    1.2561 H   0  0  0  0  0  0  0  0  0  0  0  0
    3.9811    2.3552    2.2655 H   0  0  0  0  0  0  0  0  0  0  0  0
    3.8892    0.5855    2.2547 H   0  0  0  0  0  0  0  0  0  0  0  0
    2.4782    1.5542    1.7950 H   0  0  0  0  0  0  0  0  0  0  0  0
    5.9737    2.3628    0.7228 H   0  0  0  0  0  0  0  0  0  0  0  0
    5.9070    1.5227   -0.8325 H   0  0  0  0  0  0  0  0  0  0  0  0
    5.9845    0.5912    0.6736 H   0  0  0  0  0  0  0  0  0  0  0  0
   -5.1008    3.1275    0.4166 H   0  0  0  0  0  0  0  0  0  0  0  0
   -3.5481    3.2566    1.2739 H   0  0  0  0  0  0  0  0  0  0  0  0
   -3.5751    3.3082   -0.4825 H   0  0  0  0  0  0  0  0  0  0  0  0
   -5.4906    1.1972   -1.0860 H   0  0  0  0  0  0  0  0  0  0  0  0
   -4.7412   -0.3447   -0.7784 H   0  0  0  0  0  0  0  0  0  0  0  0
   -3.8935    0.8441   -1.7708 H   0  0  0  0  0  0  0  0  0  0  0  0
  1 10  1  0  0  0  0
  1 14  1  0  0  0  0
  2 11  1  0  0  0  0
  2 16  1  0  0  0  0
  3 10  2  0  0  0  0
  4 11  2  0  0  0  0
  5  6  1  0  0  0  0
  5  8  1  0  0  0  0
  5  9  1  0  0  0  0
  5 10  1  0  0  0  0
  6  7  1  0  0  0  0
  6 11  1  0  0  0  0
  6 21  1  0  0  0  0
  7 12  1  0  0  0  0
  7 13  1  0  0  0  0
  7 22  1  0  0  0  0
  8 23  1  0  0  0  0
  8 24  1  0  0  0  0
  8 25  1  0  0  0  0
  9 26  1  0  0  0  0
  9 27  1  0  0  0  0
  9 28  1  0  0  0  0
 12 29  1  0  0  0  0
 12 30  1  0  0  0  0
 12 31  1  0  0  0  0
 13 32  1  0  0  0  0
 13 33  1  0  0  0  0
 13 34  1  0  0  0  0
 14 15  1  0  0  0  0
 14 35  1  0  0  0  0
 14 36  1  0  0  0  0
 15 17  1  0  0  0  0
 15 18  1  0  0  0  0
 15 37  1  0  0  0  0
 16 19  1  0  0  0  0
 16 20  1  0  0  0  0
 16 38  1  0  0  0  0
 17 39  1  0  0  0  0
 17 40  1  0  0  0  0
 17 41  1  0  0  0  0
 18 42  1  0  0  0  0
 18 43  1  0  0  0  0
 18 44  1  0  0  0  0
 19 45  1  0  0  0  0
 19 46  1  0  0  0  0
 19 47  1  0  0  0  0
 20 48  1  0  0  0  0
 20 49  1  0  0  0  0
 20 50  1  0  0  0  0
M  END
> <PUBCHEM_COMPOUND_CID>
551220

> <PUBCHEM_CONFORMER_RMSD>
0.8

> <PUBCHEM_CONFORMER_DIVERSEORDER>
1
108
146
63
85
116
90
95
56
118
124
134
88
133
96
135
41
59
86
65
17
38
64
147
37
119
117
74
51
121
127
114
45
49
11
24
62
122
128
34
87
136
39
40
47
52
77
79
60
57
130
26
137
6
43
145
123
142
92
112
48
97
15
129
110
115
107
27
113
93
66
61
106
111
81
84
36
32
143
132
28
25
150
72
58
100
31
103
16
139
102
18
4
99
149
70
54
53
8
5
46
105
7
73
131
12
55
126
98
104
50
91
21
10
120
78
138
75
83
76
71
68
2
82
101
125
42
33
80
35
44
109
144
67
3
22
20
14
9
89
23
141
30
94
148
140
69
19
13
29

> <PUBCHEM_MMFF94_PARTIAL_CHARGES>
10
1 -0.43
10 0.66
11 0.66
14 0.28
16 0.28
2 -0.43
3 -0.57
4 -0.57
5 0.06
6 0.06

> <PUBCHEM_EFFECTIVE_ROTOR_COUNT>
9

> <PUBCHEM_PHARMACOPHORE_FEATURES>
6
1 3 acceptor
1 4 acceptor
3 15 17 18 hydrophobe
3 16 19 20 hydrophobe
3 5 8 9 hydrophobe
3 7 12 13 hydrophobe

> <PUBCHEM_HEAVY_ATOM_COUNT>
20

> <PUBCHEM_ATOM_DEF_STEREO_COUNT>
0

> <PUBCHEM_ATOM_UDEF_STEREO_COUNT>
1

> <PUBCHEM_BOND_DEF_STEREO_COUNT>
0

> <PUBCHEM_BOND_UDEF_STEREO_COUNT>
0

> <PUBCHEM_ISOTOPIC_ATOM_COUNT>
0

> <PUBCHEM_COMPONENT_COUNT>
1

> <PUBCHEM_CACTVS_TAUTO_COUNT>
1

> <PUBCHEM_CONFORMER_ID>
0008693400000001

> <PUBCHEM_MMFF94_ENERGY>
46.602

> <PUBCHEM_FEATURE_SELFOVERLAP>
30.449

> <PUBCHEM_SHAPE_FINGERPRINT>
10042902 136 8502070968716000913
10948715 1 18342457023623641966
11132069 177 17458063755084803199
11543360 7 17704067366018701229
11552529 35 17680709538804327930
11725454 13 18412820274559187828
11961588 58 17059190666148972277
12596602 18 16805611416185110552
12633257 1 17531237409739884240
12788726 201 17173240928682101827
12839892 36 16805904952062199267
13103583 49 13551478012379862653
13571099 52 18410584976015193574
13583140 156 18130229362619516762
14178342 30 17749121001570402419
14251764 38 18341334478192493145
14468879 13 18201153368621771712
15061688 2 18413392024884702996
15163728 17 17917158191048797345
15209294 21 18186517700403389512
15422964 175 12685356449567100384
15848702 105 17275096254115458756
16945 1 18194424378924270791
17980427 26 18263916636061739582
20600515 1 17749683973088318380
20871999 31 12535357774338264617
212916 134 18113898268787477673
21475661 188 18412259527977438520
23227448 37 17416677149530995724
23379529 103 10806777113172078349
23382010 3 16415470562834055719
23402539 116 18189611829504132663
23557571 272 18339934817607604563
23559900 14 18042989617863129462
2838139 119 18130782356812645000
4072396 5 16443343140123336149
427121 178 18041853800227576777
4340502 62 18040999527491205883
474 4 18335138708668219500
56616090 284 13686300205423545436
58807428 26 17167860842029834299
5895379 119 17049922590913534281
90316 7 16370998654843610230

> <PUBCHEM_SHAPE_MULTIPOLES>
388.11
8.59
2.46
2.04
3.96
0.18
0.03
8.13
1.61
-0.91
0.99
0.25
-0.97
0.47

> <PUBCHEM_SHAPE_SELFOVERLAP>
748.929

> <PUBCHEM_SHAPE_VOLUME>
238

> <PUBCHEM_COORDINATE_TYPE>
2
5
10

$$$$
