590547
  -OEChem-09232010173D

 19 20  0     0  0  0  0  0  0999 V2000
   -2.8541   -0.9355   -0.0008 O   0  0  0  0  0  0  0  0  0  0  0  0
    2.4045    1.6475   -0.0001 O   0  0  0  0  0  0  0  0  0  0  0  0
   -0.5847    1.8721    0.0003 C   0  0  0  0  0  0  0  0  0  0  0  0
    0.2428    0.6274    0.0004 C   0  0  0  0  0  0  0  0  0  0  0  0
   -2.0355    1.3593   -0.0003 C   0  0  0  0  0  0  0  0  0  0  0  0
   -0.5244   -0.5309    0.0007 C   0  0  0  0  0  0  0  0  0  0  0  0
   -1.9268   -0.1468    0.0002 C   0  0  0  0  0  0  0  0  0  0  0  0
    1.6252    0.5352   -0.0003 C   0  0  0  0  0  0  0  0  0  0  0  0
    0.0250   -1.7995    0.0005 C   0  0  0  0  0  0  0  0  0  0  0  0
    2.2115   -0.7350   -0.0005 C   0  0  0  0  0  0  0  0  0  0  0  0
    1.4165   -1.8938   -0.0001 C   0  0  0  0  0  0  0  0  0  0  0  0
   -0.3881    2.4751    0.8927 H   0  0  0  0  0  0  0  0  0  0  0  0
   -0.3874    2.4756   -0.8917 H   0  0  0  0  0  0  0  0  0  0  0  0
   -2.5682    1.6922   -0.8962 H   0  0  0  0  0  0  0  0  0  0  0  0
   -2.5693    1.6928    0.8946 H   0  0  0  0  0  0  0  0  0  0  0  0
   -0.5920   -2.6906    0.0005 H   0  0  0  0  0  0  0  0  0  0  0  0
    3.2937   -0.8416   -0.0009 H   0  0  0  0  0  0  0  0  0  0  0  0
    1.8919   -2.8708   -0.0003 H   0  0  0  0  0  0  0  0  0  0  0  0
    3.3390    1.3776   -0.0005 H   0  0  0  0  0  0  0  0  0  0  0  0
  1  7  2  0  0  0  0
  2  8  1  0  0  0  0
  2 19  1  0  0  0  0
  3  4  1  0  0  0  0
  3  5  1  0  0  0  0
  3 12  1  0  0  0  0
  3 13  1  0  0  0  0
  4  6  2  0  0  0  0
  4  8  1  0  0  0  0
  5  7  1  0  0  0  0
  5 14  1  0  0  0  0
  5 15  1  0  0  0  0
  6  7  1  0  0  0  0
  6  9  1  0  0  0  0
  8 10  2  0  0  0  0
  9 11  2  0  0  0  0
  9 16  1  0  0  0  0
 10 11  1  0  0  0  0
 10 17  1  0  0  0  0
 11 18  1  0  0  0  0
M  END
> <PUBCHEM_COMPOUND_CID>
590547

> <PUBCHEM_CONFORMER_RMSD>
0.4

> <PUBCHEM_CONFORMER_DIVERSEORDER>
1

> <PUBCHEM_MMFF94_PARTIAL_CHARGES>
15
1 -0.57
10 -0.15
11 -0.15
16 0.15
17 0.15
18 0.15
19 0.45
2 -0.53
3 0.14
4 -0.14
5 0.06
6 0.09
7 0.42
8 0.08
9 -0.15

> <PUBCHEM_EFFECTIVE_ROTOR_COUNT>
0.4

> <PUBCHEM_PHARMACOPHORE_FEATURES>
4
1 1 acceptor
1 2 donor
5 3 4 5 6 7 rings
6 4 6 8 9 10 11 rings

> <PUBCHEM_HEAVY_ATOM_COUNT>
11

> <PUBCHEM_ATOM_DEF_STEREO_COUNT>
0

> <PUBCHEM_ATOM_UDEF_STEREO_COUNT>
0

> <PUBCHEM_BOND_DEF_STEREO_COUNT>
0

> <PUBCHEM_BOND_UDEF_STEREO_COUNT>
0

> <PUBCHEM_ISOTOPIC_ATOM_COUNT>
0

> <PUBCHEM_COMPONENT_COUNT>
1

> <PUBCHEM_CACTVS_TAUTO_COUNT>
36

> <PUBCHEM_CONFORMER_ID>
000902D300000001

> <PUBCHEM_MMFF94_ENERGY>
26.4349

> <PUBCHEM_FEATURE_SELFOVERLAP>
20.377

> <PUBCHEM_SHAPE_FINGERPRINT>
11206711 2 18336832970144708438
12423570 1 11806805860583807643
12897270 3 18410012117630028341
16945 1 18122624946595564325
17990270 104 18267303131875081330
18185500 45 17833551193496452794
193761 8 18266459806408928965
19973954 147 18339080367611685481
21040471 1 18338797930810148900
21501502 16 18338237055178342457
2334 1 18410574002426454245
23552423 10 18334861567233999327
23559900 14 17478331934222435350
241688 4 18264209097553821464
2748010 2 18410011026639808869
5084963 1 18202002096987736634
528886 8 18267017267430887523
66348 1 18410294683438748278

> <PUBCHEM_SHAPE_MULTIPOLES>
214.64
3.31
2.13
0.6
0.56
0.13
0
-0.05
0
-0.35
0
0
-0.01
0

> <PUBCHEM_SHAPE_SELFOVERLAP>
471.232

> <PUBCHEM_SHAPE_VOLUME>
118.3

> <PUBCHEM_COORDINATE_TYPE>
2
5
10

$$$$
