6440534
  -OEChem-09172014133D

 47 50  0     1  0  0  0  0  0999 V2000
   -0.2338    4.4771   -0.3564 O   0  0  0  0  0  0  0  0  0  0  0  0
   -2.9543   -2.7813   -0.1952 O   0  0  0  0  0  0  0  0  0  0  0  0
   -5.1410   -1.8055   -0.4669 O   0  0  0  0  0  0  0  0  0  0  0  0
    1.8582    4.9238    0.4933 O   0  0  0  0  0  0  0  0  0  0  0  0
    2.6105   -2.3659    1.9933 O   0  0  0  0  0  0  0  0  0  0  0  0
    3.1489   -3.4629   -0.5025 O   0  0  0  0  0  0  0  0  0  0  0  0
   -0.1744    2.1106   -0.4140 C   0  0  1  0  0  0  0  0  0  0  0  0
   -0.8768    1.5782    0.8326 C   0  0  0  0  0  0  0  0  0  0  0  0
   -0.8630    3.3420   -0.9727 C   0  0  0  0  0  0  0  0  0  0  0  0
    1.1564    2.6877   -0.0885 C   0  0  0  0  0  0  0  0  0  0  0  0
   -2.0474    0.6970    0.4832 C   0  0  0  0  0  0  0  0  0  0  0  0
    1.0234    4.1498    0.0619 C   0  0  0  0  0  0  0  0  0  0  0  0
    2.3272    2.0577    0.0268 C   0  0  0  0  0  0  0  0  0  0  0  0
   -1.8457   -0.6690    0.3231 C   0  0  0  0  0  0  0  0  0  0  0  0
   -3.3123    1.2744    0.3278 C   0  0  0  0  0  0  0  0  0  0  0  0
   -2.9480   -1.4349    0.0031 C   0  0  0  0  0  0  0  0  0  0  0  0
    2.5434    0.6058   -0.1088 C   0  0  0  0  0  0  0  0  0  0  0  0
   -4.1966   -0.8778   -0.1520 C   0  0  0  0  0  0  0  0  0  0  0  0
   -4.4120    0.4761    0.0038 C   0  0  0  0  0  0  0  0  0  0  0  0
    2.4732   -0.1979    1.0169 C   0  0  0  0  0  0  0  0  0  0  0  0
    2.8122    0.0747   -1.3595 C   0  0  0  0  0  0  0  0  0  0  0  0
   -4.3473   -3.0092   -0.4921 C   0  0  0  0  0  0  0  0  0  0  0  0
    2.6773   -1.5719    0.8885 C   0  0  0  0  0  0  0  0  0  0  0  0
    3.0166   -1.2991   -1.4879 C   0  0  0  0  0  0  0  0  0  0  0  0
    2.9491   -2.1225   -0.3639 C   0  0  0  0  0  0  0  0  0  0  0  0
    1.3348   -2.9120    2.3230 C   0  0  0  0  0  0  0  0  0  0  0  0
    3.4214   -3.9452   -1.8169 C   0  0  0  0  0  0  0  0  0  0  0  0
   -0.1116    1.3366   -1.1880 H   0  0  0  0  0  0  0  0  0  0  0  0
   -1.2134    2.3979    1.4825 H   0  0  0  0  0  0  0  0  0  0  0  0
   -0.1859    0.9947    1.4541 H   0  0  0  0  0  0  0  0  0  0  0  0
   -0.7118    3.4290   -2.0558 H   0  0  0  0  0  0  0  0  0  0  0  0
   -1.9362    3.3931   -0.7855 H   0  0  0  0  0  0  0  0  0  0  0  0
    3.2302    2.6198    0.2553 H   0  0  0  0  0  0  0  0  0  0  0  0
   -0.8671   -1.1212    0.4387 H   0  0  0  0  0  0  0  0  0  0  0  0
   -3.4648    2.3396    0.4756 H   0  0  0  0  0  0  0  0  0  0  0  0
   -5.3980    0.9105   -0.1152 H   0  0  0  0  0  0  0  0  0  0  0  0
    2.2650    0.2265    1.9961 H   0  0  0  0  0  0  0  0  0  0  0  0
    2.8666    0.7070   -2.2418 H   0  0  0  0  0  0  0  0  0  0  0  0
   -4.7525   -3.7124    0.2446 H   0  0  0  0  0  0  0  0  0  0  0  0
   -4.4245   -3.4599   -1.4883 H   0  0  0  0  0  0  0  0  0  0  0  0
    3.2225   -1.6565   -2.4909 H   0  0  0  0  0  0  0  0  0  0  0  0
    0.9486   -3.5196    1.4985 H   0  0  0  0  0  0  0  0  0  0  0  0
    0.6277   -2.1114    2.5627 H   0  0  0  0  0  0  0  0  0  0  0  0
    1.4522   -3.5502    3.2030 H   0  0  0  0  0  0  0  0  0  0  0  0
    4.3587   -3.5371   -2.2103 H   0  0  0  0  0  0  0  0  0  0  0  0
    2.5762   -3.7749   -2.4924 H   0  0  0  0  0  0  0  0  0  0  0  0
    3.5539   -5.0295   -1.7411 H   0  0  0  0  0  0  0  0  0  0  0  0
  1  9  1  0  0  0  0
  1 12  1  0  0  0  0
  2 16  1  0  0  0  0
  2 22  1  0  0  0  0
  3 18  1  0  0  0  0
  3 22  1  0  0  0  0
  4 12  2  0  0  0  0
  5 23  1  0  0  0  0
  5 26  1  0  0  0  0
  6 25  1  0  0  0  0
  6 27  1  0  0  0  0
  7  8  1  0  0  0  0
  7  9  1  0  0  0  0
  7 10  1  0  0  0  0
  7 28  1  0  0  0  0
  8 11  1  0  0  0  0
  8 29  1  0  0  0  0
  8 30  1  0  0  0  0
  9 31  1  0  0  0  0
  9 32  1  0  0  0  0
 10 12  1  0  0  0  0
 10 13  2  0  0  0  0
 11 14  2  0  0  0  0
 11 15  1  0  0  0  0
 13 17  1  0  0  0  0
 13 33  1  0  0  0  0
 14 16  1  0  0  0  0
 14 34  1  0  0  0  0
 15 19  2  0  0  0  0
 15 35  1  0  0  0  0
 16 18  2  0  0  0  0
 17 20  2  0  0  0  0
 17 21  1  0  0  0  0
 18 19  1  0  0  0  0
 19 36  1  0  0  0  0
 20 23  1  0  0  0  0
 20 37  1  0  0  0  0
 21 24  2  0  0  0  0
 21 38  1  0  0  0  0
 22 39  1  0  0  0  0
 22 40  1  0  0  0  0
 23 25  2  0  0  0  0
 24 25  1  0  0  0  0
 24 41  1  0  0  0  0
 26 42  1  0  0  0  0
 26 43  1  0  0  0  0
 26 44  1  0  0  0  0
 27 45  1  0  0  0  0
 27 46  1  0  0  0  0
 27 47  1  0  0  0  0
M  END
> <PUBCHEM_COMPOUND_CID>
6440534

> <PUBCHEM_CONFORMER_RMSD>
0.8

> <PUBCHEM_CONFORMER_DIVERSEORDER>
1
30
32
9
16
21
12
5
28
23
20
29
31
11
17
13
10
3
26
27
15
33
18
7
25
6
22
14
8
24
2
4
19

> <PUBCHEM_MMFF94_PARTIAL_CHARGES>
34
1 -0.43
10 -0.12
11 -0.14
12 0.71
13 -0.18
14 -0.15
15 -0.15
16 0.08
17 0.03
18 0.08
19 -0.15
2 -0.36
20 -0.15
21 -0.15
22 0.56
23 0.08
24 -0.15
25 0.08
26 0.28
27 0.28
3 -0.36
33 0.15
34 0.15
35 0.15
36 0.15
37 0.15
38 0.15
4 -0.57
41 0.15
5 -0.36
6 -0.36
7 0.14
8 0.14
9 0.28

> <PUBCHEM_EFFECTIVE_ROTOR_COUNT>
6.2

> <PUBCHEM_PHARMACOPHORE_FEATURES>
9
1 2 acceptor
1 3 acceptor
1 4 acceptor
1 5 acceptor
1 6 acceptor
5 1 7 9 10 12 rings
5 2 3 16 18 22 rings
6 11 14 15 16 18 19 rings
6 17 20 21 23 24 25 rings

> <PUBCHEM_HEAVY_ATOM_COUNT>
27

> <PUBCHEM_ATOM_DEF_STEREO_COUNT>
1

> <PUBCHEM_ATOM_UDEF_STEREO_COUNT>
0

> <PUBCHEM_BOND_DEF_STEREO_COUNT>
1

> <PUBCHEM_BOND_UDEF_STEREO_COUNT>
0

> <PUBCHEM_ISOTOPIC_ATOM_COUNT>
0

> <PUBCHEM_COMPONENT_COUNT>
1

> <PUBCHEM_CACTVS_TAUTO_COUNT>
1

> <PUBCHEM_CONFORMER_ID>
0062465600000001

> <PUBCHEM_MMFF94_ENERGY>
92.8862

> <PUBCHEM_FEATURE_SELFOVERLAP>
45.835

> <PUBCHEM_SHAPE_FINGERPRINT>
11370993 70 17543625787301117641
114674 6 18117840116878608769
12156800 1 11872987415627869200
12553582 1 18336832978813815945
12788726 201 17974014955080364474
13692114 37 17265528519170001508
138480 1 18411985779704201156
14251757 5 17907034880223332334
14863182 85 17832713739472959029
14866123 147 17693666913764992177
14955137 171 18193300519733295601
15003188 105 18188761885335680411
15664445 248 18410574032454126850
15927050 60 17475512159227345988
161222 619 17179139899128659627
16752209 62 17758961419942759728
17138139 8 16332715008716374879
17492 89 18269278031427388759
17974551 9 15047542656060665007
18681886 176 17399789896643777097
20028762 73 17984986153212819372
20567600 347 17757827106147563681
20645477 70 18122905601708450669
20764821 26 16825033932670486343
20775530 9 18342461391632080607
21133410 32 16374711731845618114
21133410 62 16969109014595869495
21197605 99 16967741243346808171
23379529 103 17911533003825585286
23559900 14 18343584075003531263
238 59 17976549629972089698
314173 41 18409452500745321449
4280585 95 18411140212782156454
463206 1 18333736796967171291
5265222 85 16393815334166587766
613672 6 18268411465407855727
70634741 139 17336201364619118806
9709674 26 18121222240784554059

> <PUBCHEM_SHAPE_MULTIPOLES>
520.43
8.16
6.39
1.41
7.12
4.71
-0.38
-8.88
1.67
-2.55
0.65
-1.58
-1.32
0.12

> <PUBCHEM_SHAPE_SELFOVERLAP>
1143.942

> <PUBCHEM_SHAPE_VOLUME>
282.7

> <PUBCHEM_COORDINATE_TYPE>
2
5
10

$$$$
