129848926
  -OEChem-09182001543D

 49 52  0     1  0  0  0  0  0999 V2000
   -1.0952   -3.6698    0.0660 O   0  0  0  0  0  0  0  0  0  0  0  0
   -2.0696   -2.0937   -1.2797 O   0  0  0  0  0  0  0  0  0  0  0  0
   -3.7276    2.6496   -0.9041 O   0  0  0  0  0  0  0  0  0  0  0  0
   -5.6673    1.4082   -0.1943 O   0  0  0  0  0  0  0  0  0  0  0  0
    3.5036    2.6564    0.8005 O   0  0  0  0  0  0  0  0  0  0  0  0
    5.7315    1.0976    0.2241 O   0  0  0  0  0  0  0  0  0  0  0  0
   -0.0654   -1.5441    0.0010 C   0  0  1  0  0  0  0  0  0  0  0  0
    0.9094   -2.5800    0.5454 C   0  0  0  0  0  0  0  0  0  0  0  0
   -0.6014   -0.6220    1.0979 C   0  0  0  0  0  0  0  0  0  0  0  0
    0.5569   -0.7347   -1.1338 C   0  0  0  0  0  0  0  0  0  0  0  0
   -1.1880   -2.4275   -0.5023 C   0  0  0  0  0  0  0  0  0  0  0  0
    0.0062   -3.7078    0.9782 C   0  0  0  0  0  0  0  0  0  0  0  0
   -1.9754   -0.1069    0.7675 C   0  0  0  0  0  0  0  0  0  0  0  0
    1.9310   -0.2445   -0.7725 C   0  0  0  0  0  0  0  0  0  0  0  0
   -2.1163    1.0855    0.0534 C   0  0  0  0  0  0  0  0  0  0  0  0
   -3.1072   -0.8310    1.1818 C   0  0  0  0  0  0  0  0  0  0  0  0
    2.0882    0.9928   -0.1479 C   0  0  0  0  0  0  0  0  0  0  0  0
    3.0489   -1.0273   -1.0609 C   0  0  0  0  0  0  0  0  0  0  0  0
   -3.3969    1.5178   -0.2247 C   0  0  0  0  0  0  0  0  0  0  0  0
   -4.3928   -0.3712    0.8868 C   0  0  0  0  0  0  0  0  0  0  0  0
   -4.5045    0.8090    0.1807 C   0  0  0  0  0  0  0  0  0  0  0  0
    3.3633    1.4473    0.1885 C   0  0  0  0  0  0  0  0  0  0  0  0
    4.3241   -0.5727   -0.7247 C   0  0  0  0  0  0  0  0  0  0  0  0
    4.4813    0.6645   -0.1000 C   0  0  0  0  0  0  0  0  0  0  0  0
   -5.1677    2.5734   -0.8814 C   0  0  0  0  0  0  0  0  0  0  0  0
    2.3103    3.3935    1.0596 C   0  0  0  0  0  0  0  0  0  0  0  0
    6.8208    0.2375   -0.1050 C   0  0  0  0  0  0  0  0  0  0  0  0
    1.5533   -2.2287    1.3574 H   0  0  0  0  0  0  0  0  0  0  0  0
    1.5396   -2.9965   -0.2468 H   0  0  0  0  0  0  0  0  0  0  0  0
    0.0658    0.2072    1.3437 H   0  0  0  0  0  0  0  0  0  0  0  0
   -0.6806   -1.1724    2.0464 H   0  0  0  0  0  0  0  0  0  0  0  0
   -0.0714    0.1006   -1.4584 H   0  0  0  0  0  0  0  0  0  0  0  0
    0.6398   -1.3607   -2.0345 H   0  0  0  0  0  0  0  0  0  0  0  0
    0.5027   -4.6803    0.9127 H   0  0  0  0  0  0  0  0  0  0  0  0
   -0.3772   -3.5755    1.9951 H   0  0  0  0  0  0  0  0  0  0  0  0
   -1.2596    1.6696   -0.2616 H   0  0  0  0  0  0  0  0  0  0  0  0
   -2.9964   -1.7553    1.7440 H   0  0  0  0  0  0  0  0  0  0  0  0
    1.1918    1.5757    0.0257 H   0  0  0  0  0  0  0  0  0  0  0  0
    2.9522   -1.9790   -1.5759 H   0  0  0  0  0  0  0  0  0  0  0  0
   -5.2680   -0.9258    1.2056 H   0  0  0  0  0  0  0  0  0  0  0  0
    5.1463   -1.2301   -0.9852 H   0  0  0  0  0  0  0  0  0  0  0  0
   -5.5344    2.5560   -1.9142 H   0  0  0  0  0  0  0  0  0  0  0  0
   -5.5586    3.4686   -0.3842 H   0  0  0  0  0  0  0  0  0  0  0  0
    2.6079    4.3232    1.5558 H   0  0  0  0  0  0  0  0  0  0  0  0
    1.6488    2.8623    1.7526 H   0  0  0  0  0  0  0  0  0  0  0  0
    1.8022    3.6782    0.1319 H   0  0  0  0  0  0  0  0  0  0  0  0
    7.7373    0.7379    0.2247 H   0  0  0  0  0  0  0  0  0  0  0  0
    6.9088    0.0941   -1.1874 H   0  0  0  0  0  0  0  0  0  0  0  0
    6.7640   -0.7118    0.4384 H   0  0  0  0  0  0  0  0  0  0  0  0
  1 11  1  0  0  0  0
  1 12  1  0  0  0  0
  2 11  2  0  0  0  0
  3 19  1  0  0  0  0
  3 25  1  0  0  0  0
  4 21  1  0  0  0  0
  4 25  1  0  0  0  0
  5 22  1  0  0  0  0
  5 26  1  0  0  0  0
  6 24  1  0  0  0  0
  6 27  1  0  0  0  0
  7  8  1  0  0  0  0
  7  9  1  0  0  0  0
  7 10  1  0  0  0  0
  7 11  1  0  0  0  0
  8 12  1  0  0  0  0
  8 28  1  0  0  0  0
  8 29  1  0  0  0  0
  9 13  1  0  0  0  0
  9 30  1  0  0  0  0
  9 31  1  0  0  0  0
 10 14  1  0  0  0  0
 10 32  1  0  0  0  0
 10 33  1  0  0  0  0
 12 34  1  0  0  0  0
 12 35  1  0  0  0  0
 13 15  2  0  0  0  0
 13 16  1  0  0  0  0
 14 17  2  0  0  0  0
 14 18  1  0  0  0  0
 15 19  1  0  0  0  0
 15 36  1  0  0  0  0
 16 20  2  0  0  0  0
 16 37  1  0  0  0  0
 17 22  1  0  0  0  0
 17 38  1  0  0  0  0
 18 23  2  0  0  0  0
 18 39  1  0  0  0  0
 19 21  2  0  0  0  0
 20 21  1  0  0  0  0
 20 40  1  0  0  0  0
 22 24  2  0  0  0  0
 23 24  1  0  0  0  0
 23 41  1  0  0  0  0
 25 42  1  0  0  0  0
 25 43  1  0  0  0  0
 26 44  1  0  0  0  0
 26 45  1  0  0  0  0
 26 46  1  0  0  0  0
 27 47  1  0  0  0  0
 27 48  1  0  0  0  0
 27 49  1  0  0  0  0
M  END
> <PUBCHEM_COMPOUND_CID>
129848926

> <PUBCHEM_CONFORMER_RMSD>
0.8

> <PUBCHEM_CONFORMER_DIVERSEORDER>
33
83
111
64
94
69
95
76
82
4
37
133
103
119
68
84
120
107
92
75
8
67
98
102
72
62
39
87
78
110
6
86
112
122
60
40
81
123
108
1
66
104
77
93
36
116
12
100
90
71
115
105
35
52
85
127
99
2
96
7
88
124
79
50
65
121
101
3
38
80
10
58
113
125
106
73
21
97
55
29
129
34
74
109
5
89
23
41
114
59
136
25
70
11
128
51
91
118
63
42
28
135
61
9
131
46
17
126
134
14
22
53
26
45
18
117
13
49
48
57
56
132
15
130
47
30
32
44
31
16
20
43
27
24
54
19

> <PUBCHEM_MMFF94_PARTIAL_CHARGES>
32
1 -0.43
10 0.14
11 0.66
12 0.28
13 -0.14
14 -0.14
15 -0.15
16 -0.15
17 -0.15
18 -0.15
19 0.08
2 -0.57
20 -0.15
21 0.08
22 0.08
23 -0.15
24 0.08
25 0.56
26 0.28
27 0.28
3 -0.36
36 0.15
37 0.15
38 0.15
39 0.15
4 -0.36
40 0.15
41 0.15
5 -0.36
6 -0.36
7 0.06
9 0.14

> <PUBCHEM_EFFECTIVE_ROTOR_COUNT>
7.4

> <PUBCHEM_PHARMACOPHORE_FEATURES>
9
1 2 acceptor
1 3 acceptor
1 4 acceptor
1 5 acceptor
1 6 acceptor
5 1 7 8 11 12 rings
5 3 4 19 21 25 rings
6 13 15 16 19 20 21 rings
6 14 17 18 22 23 24 rings

> <PUBCHEM_HEAVY_ATOM_COUNT>
27

> <PUBCHEM_ATOM_DEF_STEREO_COUNT>
0

> <PUBCHEM_ATOM_UDEF_STEREO_COUNT>
1

> <PUBCHEM_BOND_DEF_STEREO_COUNT>
0

> <PUBCHEM_BOND_UDEF_STEREO_COUNT>
0

> <PUBCHEM_ISOTOPIC_ATOM_COUNT>
0

> <PUBCHEM_COMPONENT_COUNT>
1

> <PUBCHEM_CACTVS_TAUTO_COUNT>
8

> <PUBCHEM_CONFORMER_ID>
07BD565E00000021

> <PUBCHEM_MMFF94_ENERGY>
100.4553

> <PUBCHEM_FEATURE_SELFOVERLAP>
45.834

> <PUBCHEM_SHAPE_FINGERPRINT>
11135609 201 18129672889914563625
11370993 70 18409731750855178159
11578080 2 16341998000785097986
12403259 415 18337405863073987615
12422481 6 17532638045608519778
12596602 18 15430333467495640061
12633257 1 18337946900731986512
12730499 353 18264216820680421233
12769317 202 18341325596188990881
13402501 40 18410292488901156764
13583140 156 18335148612846960842
14466204 15 18335419020019977352
15238133 3 17385735677276694652
15422964 175 9151172039076432203
15537594 2 12540695946589385288
15927050 60 18408323281162289770
17980427 23 17240778297679912383
20197701 30 18409732833087171239
20567600 254 18335133172602899213
21033648 144 18058449979451882224
21033648 29 18410287034313673136
21279426 13 18339088073495392294
22393880 68 18338522915754798527
23227448 37 18271246130953982063
23558518 356 17974568301687332778
23559900 14 17678472857006784599
2838139 119 18412257333243550949
329604 57 10303808800632082056
3298306 158 18409448051085317411
351380 180 18412829083642756344
3524813 1 18409729543137025749
4371632 12 15982266421659351385
508706 21 18267858557166970032
5104073 3 17897174529081294937
5265222 85 18116451395982131478
5385378 56 18191595155064297915
53917941 68 18340761615448849271
59755656 520 18335414673296861262
6328613 192 18335710498550877836
7226269 152 18272652351087470864
7808743 9 18044952404832104220
9981440 41 18114471080571484035

> <PUBCHEM_SHAPE_MULTIPOLES>
520.43
11.95
3.87
1.12
5.39
1.23
0
-9.24
0.89
-1.15
-0.58
-0.26
0.08
1.62

> <PUBCHEM_SHAPE_SELFOVERLAP>
1146.807

> <PUBCHEM_SHAPE_VOLUME>
281.6

> <PUBCHEM_COORDINATE_TYPE>
2
5
10

$$$$
