14132336
  -OEChem-09172014243D

 41 42  0     1  0  0  0  0  0999 V2000
   -1.3638   -0.4218   -0.2882 O   0  0  0  0  0  0  0  0  0  0  0  0
   -0.2671    1.5012    0.4917 O   0  0  0  0  0  0  0  0  0  0  0  0
   -5.0529    1.0771    0.8451 O   0  0  0  0  0  0  0  0  0  0  0  0
   -4.7327   -1.7486    0.3348 O   0  0  0  0  0  0  0  0  0  0  0  0
   -2.8054    1.9983   -0.5260 O   0  0  0  0  0  0  0  0  0  0  0  0
   -0.9511   -2.9959   -1.1284 O   0  0  0  0  0  0  0  0  0  0  0  0
    1.2816    1.7613   -1.8010 O   0  0  0  0  0  0  0  0  0  0  0  0
    5.2484   -1.2646    1.4984 O   0  0  0  0  0  0  0  0  0  0  0  0
    5.6792   -0.5950   -0.6306 O   0  0  0  0  0  0  0  0  0  0  0  0
   -3.8119    0.3885    0.9728 C   0  0  1  0  0  0  0  0  0  0  0  0
   -3.7701   -0.7643   -0.0337 C   0  0  1  0  0  0  0  0  0  0  0  0
   -2.6498    1.3543    0.7424 C   0  0  1  0  0  0  0  0  0  0  0  0
   -2.3761   -1.4068   -0.0556 C   0  0  1  0  0  0  0  0  0  0  0  0
   -1.3303    0.5832    0.7278 C   0  0  1  0  0  0  0  0  0  0  0  0
   -2.2590   -2.4543   -1.1582 C   0  0  0  0  0  0  0  0  0  0  0  0
    0.9977    0.9786    0.4433 C   0  0  0  0  0  0  0  0  0  0  0  0
    1.7684    1.1117   -0.7074 C   0  0  0  0  0  0  0  0  0  0  0  0
    1.5007    0.3142    1.5576 C   0  0  0  0  0  0  0  0  0  0  0  0
    3.0552    0.5744   -0.7444 C   0  0  0  0  0  0  0  0  0  0  0  0
    2.7873   -0.2229    1.5205 C   0  0  0  0  0  0  0  0  0  0  0  0
    3.5647   -0.0928    0.3697 C   0  0  0  0  0  0  0  0  0  0  0  0
    4.9070   -0.6515    0.3320 C   0  0  0  0  0  0  0  0  0  0  0  0
    0.5801    0.9758   -2.7629 C   0  0  0  0  0  0  0  0  0  0  0  0
   -3.7675   -0.0026    1.9968 H   0  0  0  0  0  0  0  0  0  0  0  0
   -4.0492   -0.4001   -1.0293 H   0  0  0  0  0  0  0  0  0  0  0  0
   -2.6438    2.1503    1.4940 H   0  0  0  0  0  0  0  0  0  0  0  0
   -2.1586   -1.8996    0.9019 H   0  0  0  0  0  0  0  0  0  0  0  0
   -1.1922    0.1057    1.7064 H   0  0  0  0  0  0  0  0  0  0  0  0
   -2.4141   -2.0119   -2.1479 H   0  0  0  0  0  0  0  0  0  0  0  0
   -2.9746   -3.2697   -1.0201 H   0  0  0  0  0  0  0  0  0  0  0  0
   -5.7624    0.4254    0.9777 H   0  0  0  0  0  0  0  0  0  0  0  0
   -4.4980   -2.0831    1.2172 H   0  0  0  0  0  0  0  0  0  0  0  0
   -2.6290    1.3459   -1.2245 H   0  0  0  0  0  0  0  0  0  0  0  0
   -0.3254   -2.2609   -1.2481 H   0  0  0  0  0  0  0  0  0  0  0  0
    0.9182    0.2191    2.4693 H   0  0  0  0  0  0  0  0  0  0  0  0
    3.6510    0.6836   -1.6474 H   0  0  0  0  0  0  0  0  0  0  0  0
    3.1462   -0.7306    2.4115 H   0  0  0  0  0  0  0  0  0  0  0  0
   -0.4578    0.8413   -2.4483 H   0  0  0  0  0  0  0  0  0  0  0  0
    1.0568    0.0015   -2.9133 H   0  0  0  0  0  0  0  0  0  0  0  0
    0.5853    1.5162   -3.7135 H   0  0  0  0  0  0  0  0  0  0  0  0
    6.1551   -1.6375    1.4629 H   0  0  0  0  0  0  0  0  0  0  0  0
  1 13  1  0  0  0  0
  1 14  1  0  0  0  0
  2 14  1  0  0  0  0
  2 16  1  0  0  0  0
  3 10  1  0  0  0  0
  3 31  1  0  0  0  0
  4 11  1  0  0  0  0
  4 32  1  0  0  0  0
  5 12  1  0  0  0  0
  5 33  1  0  0  0  0
  6 15  1  0  0  0  0
  6 34  1  0  0  0  0
  7 17  1  0  0  0  0
  7 23  1  0  0  0  0
  8 22  1  0  0  0  0
  8 41  1  0  0  0  0
  9 22  2  0  0  0  0
 10 11  1  0  0  0  0
 10 12  1  0  0  0  0
 10 24  1  0  0  0  0
 11 13  1  0  0  0  0
 11 25  1  0  0  0  0
 12 14  1  0  0  0  0
 12 26  1  0  0  0  0
 13 15  1  0  0  0  0
 13 27  1  0  0  0  0
 14 28  1  0  0  0  0
 15 29  1  0  0  0  0
 15 30  1  0  0  0  0
 16 17  2  0  0  0  0
 16 18  1  0  0  0  0
 17 19  1  0  0  0  0
 18 20  2  0  0  0  0
 18 35  1  0  0  0  0
 19 21  2  0  0  0  0
 19 36  1  0  0  0  0
 20 21  1  0  0  0  0
 20 37  1  0  0  0  0
 21 22  1  0  0  0  0
 23 38  1  0  0  0  0
 23 39  1  0  0  0  0
 23 40  1  0  0  0  0
M  END
> <PUBCHEM_COMPOUND_CID>
14132336

> <PUBCHEM_CONFORMER_RMSD>
1

> <PUBCHEM_CONFORMER_DIVERSEORDER>
1
287
163
329
494
12
288
3
223
168
325
303
96
405
385
275
157
21
242
116
442
22
562
339
355
51
313
28
136
161
167
149
455
462
315
131
47
4
473
395
386
204
382
164
337
425
216
251
323
178
559
535
85
73
199
15
577
23
255
13
485
65
376
48
17
140
298
502
576
46
37
159
431
26
384
154
487
343
31
564
319
192
86
7
342
27
74
243
64
56
294
174
5
10
18
461
66
124
520
400
2
486
112
512
137
424
387
118
19
284
14
82
11

> <PUBCHEM_MMFF94_PARTIAL_CHARGES>
31
1 -0.56
10 0.28
11 0.28
12 0.28
13 0.28
14 0.56
15 0.28
16 0.08
17 0.08
18 -0.15
19 -0.15
2 -0.36
20 -0.15
21 0.09
22 0.63
23 0.28
3 -0.68
31 0.4
32 0.4
33 0.4
34 0.4
35 0.15
36 0.15
37 0.15
4 -0.68
41 0.5
5 -0.68
6 -0.68
7 -0.36
8 -0.65
9 -0.57

> <PUBCHEM_EFFECTIVE_ROTOR_COUNT>
6.2

> <PUBCHEM_PHARMACOPHORE_FEATURES>
16
1 1 acceptor
1 2 acceptor
1 3 acceptor
1 3 donor
1 4 acceptor
1 4 donor
1 5 acceptor
1 5 donor
1 6 acceptor
1 6 donor
1 7 acceptor
1 8 acceptor
1 9 acceptor
3 8 9 22 anion
6 1 10 11 12 13 14 rings
6 16 17 18 19 20 21 rings

> <PUBCHEM_HEAVY_ATOM_COUNT>
23

> <PUBCHEM_ATOM_DEF_STEREO_COUNT>
0

> <PUBCHEM_ATOM_UDEF_STEREO_COUNT>
5

> <PUBCHEM_BOND_DEF_STEREO_COUNT>
0

> <PUBCHEM_BOND_UDEF_STEREO_COUNT>
0

> <PUBCHEM_ISOTOPIC_ATOM_COUNT>
0

> <PUBCHEM_COMPONENT_COUNT>
1

> <PUBCHEM_CACTVS_TAUTO_COUNT>
1

> <PUBCHEM_CONFORMER_ID>
00D7A47000000001

> <PUBCHEM_MMFF94_ENERGY>
85.9612

> <PUBCHEM_FEATURE_SELFOVERLAP>
81.334

> <PUBCHEM_SHAPE_FINGERPRINT>
10906281 52 16486710124416114304
11045977 3 17418087733303316890
12236239 1 18187369826231079936
12553582 1 17385712591653281848
12633257 1 17489034875983652187
13583140 156 17631431454782228912
13726171 33 17626422203980980977
14178342 30 17845674550855080465
15375358 24 16486981691092884025
16752209 62 18341600547700969139
17357779 13 16081081593389825660
17804303 29 18202562899446915217
1813 80 17967257473018052806
19784866 140 16298660595462842696
200 152 17458347428889954497
20600515 1 17917721187962431824
221357 26 16153420658293918165
232386 152 18271245035626460628
23352939 185 13190639203870139534
23402539 116 17313101904923178056
23559900 14 17774740709440859340
23598291 2 18040441013653737869
465052 167 18190193463140226955
5104073 3 18272094949915201017
5385378 56 17914348887890845115
559249 180 18337104575249902762
568465 68 15841278150400478874
59755656 215 18201438043755500887
602551 16 18202559597055063714

> <PUBCHEM_SHAPE_MULTIPOLES>
420.51
10.11
2.17
1.72
4.55
1.21
0.9
2.99
-2.94
-1.96
0.76
0.93
-0.35
-1.26

> <PUBCHEM_SHAPE_SELFOVERLAP>
885.097

> <PUBCHEM_SHAPE_VOLUME>
233.9

> <PUBCHEM_COORDINATE_TYPE>
2
5
10

$$$$
