5315827
  -OEChem-09172014103D

 43 47  0     0  0  0  0  0  0999 V2000
    0.1732   -4.3466   -0.0917 O   0  0  0  0  0  0  0  0  0  0  0  0
   -2.8168    3.3854   -0.0101 O   0  0  0  0  0  0  0  0  0  0  0  0
   -4.9074    2.2144    0.2345 O   0  0  0  0  0  0  0  0  0  0  0  0
    1.9380   -2.8830   -0.3102 O   0  0  0  0  0  0  0  0  0  0  0  0
    3.7079    1.1964    1.8009 O   0  0  0  0  0  0  0  0  0  0  0  0
    4.6992    1.7531   -0.7350 O   0  0  0  0  0  0  0  0  0  0  0  0
   -0.2665   -0.7654   -0.1495 C   0  0  0  0  0  0  0  0  0  0  0  0
   -1.4628   -0.0391   -0.0497 C   0  0  0  0  0  0  0  0  0  0  0  0
   -0.3370   -2.1456   -0.1032 C   0  0  0  0  0  0  0  0  0  0  0  0
   -1.5250   -2.8286    0.0356 C   0  0  0  0  0  0  0  0  0  0  0  0
   -2.7105   -0.7387    0.0959 C   0  0  0  0  0  0  0  0  0  0  0  0
   -2.7226   -2.1443    0.1367 C   0  0  0  0  0  0  0  0  0  0  0  0
   -1.2678   -4.2799    0.0511 C   0  0  0  0  0  0  0  0  0  0  0  0
    1.0229   -0.1110   -0.2983 C   0  0  0  0  0  0  0  0  0  0  0  0
   -1.4511    1.3649   -0.0907 C   0  0  0  0  0  0  0  0  0  0  0  0
   -3.9081   -0.0116    0.1962 C   0  0  0  0  0  0  0  0  0  0  0  0
   -2.6537    2.0341    0.0116 C   0  0  0  0  0  0  0  0  0  0  0  0
   -3.8457    1.3664    0.1510 C   0  0  0  0  0  0  0  0  0  0  0  0
    0.7508   -3.1077   -0.1849 C   0  0  0  0  0  0  0  0  0  0  0  0
    1.7567    0.2337    0.8326 C   0  0  0  0  0  0  0  0  0  0  0  0
    1.5144    0.1655   -1.5703 C   0  0  0  0  0  0  0  0  0  0  0  0
   -4.2478    3.4924    0.1314 C   0  0  0  0  0  0  0  0  0  0  0  0
    2.9944    0.8613    0.6899 C   0  0  0  0  0  0  0  0  0  0  0  0
    2.7520    0.7930   -1.7130 C   0  0  0  0  0  0  0  0  0  0  0  0
    3.4919    1.1406   -0.5829 C   0  0  0  0  0  0  0  0  0  0  0  0
    4.6196    0.2218    2.3042 C   0  0  0  0  0  0  0  0  0  0  0  0
    4.7015    3.1786   -0.7820 C   0  0  0  0  0  0  0  0  0  0  0  0
   -3.6533   -2.6944    0.2461 H   0  0  0  0  0  0  0  0  0  0  0  0
   -1.5477   -4.7459    0.9995 H   0  0  0  0  0  0  0  0  0  0  0  0
   -1.7280   -4.7970   -0.7950 H   0  0  0  0  0  0  0  0  0  0  0  0
   -0.5432    1.9490   -0.1987 H   0  0  0  0  0  0  0  0  0  0  0  0
   -4.8657   -0.5120    0.3071 H   0  0  0  0  0  0  0  0  0  0  0  0
    1.3757    0.0196    1.8288 H   0  0  0  0  0  0  0  0  0  0  0  0
    0.9498   -0.0998   -2.4607 H   0  0  0  0  0  0  0  0  0  0  0  0
   -4.4689    4.0753    1.0329 H   0  0  0  0  0  0  0  0  0  0  0  0
   -4.6479    4.0249   -0.7391 H   0  0  0  0  0  0  0  0  0  0  0  0
    3.1339    1.0070   -2.7075 H   0  0  0  0  0  0  0  0  0  0  0  0
    5.3823   -0.0151    1.5558 H   0  0  0  0  0  0  0  0  0  0  0  0
    4.0854   -0.6876    2.5972 H   0  0  0  0  0  0  0  0  0  0  0  0
    5.1129    0.6376    3.1869 H   0  0  0  0  0  0  0  0  0  0  0  0
    5.7351    3.5158   -0.8986 H   0  0  0  0  0  0  0  0  0  0  0  0
    4.2999    3.5955    0.1469 H   0  0  0  0  0  0  0  0  0  0  0  0
    4.1184    3.5348   -1.6371 H   0  0  0  0  0  0  0  0  0  0  0  0
  1 13  1  0  0  0  0
  1 19  1  0  0  0  0
  2 17  1  0  0  0  0
  2 22  1  0  0  0  0
  3 18  1  0  0  0  0
  3 22  1  0  0  0  0
  4 19  2  0  0  0  0
  5 23  1  0  0  0  0
  5 26  1  0  0  0  0
  6 25  1  0  0  0  0
  6 27  1  0  0  0  0
  7  8  2  0  0  0  0
  7  9  1  0  0  0  0
  7 14  1  0  0  0  0
  8 11  1  0  0  0  0
  8 15  1  0  0  0  0
  9 10  2  0  0  0  0
  9 19  1  0  0  0  0
 10 12  1  0  0  0  0
 10 13  1  0  0  0  0
 11 12  2  0  0  0  0
 11 16  1  0  0  0  0
 12 28  1  0  0  0  0
 13 29  1  0  0  0  0
 13 30  1  0  0  0  0
 14 20  2  0  0  0  0
 14 21  1  0  0  0  0
 15 17  2  0  0  0  0
 15 31  1  0  0  0  0
 16 18  2  0  0  0  0
 16 32  1  0  0  0  0
 17 18  1  0  0  0  0
 20 23  1  0  0  0  0
 20 33  1  0  0  0  0
 21 24  2  0  0  0  0
 21 34  1  0  0  0  0
 22 35  1  0  0  0  0
 22 36  1  0  0  0  0
 23 25  2  0  0  0  0
 24 25  1  0  0  0  0
 24 37  1  0  0  0  0
 26 38  1  0  0  0  0
 26 39  1  0  0  0  0
 26 40  1  0  0  0  0
 27 41  1  0  0  0  0
 27 42  1  0  0  0  0
 27 43  1  0  0  0  0
M  END
> <PUBCHEM_COMPOUND_CID>
5315827

> <PUBCHEM_CONFORMER_RMSD>
0.8

> <PUBCHEM_CONFORMER_DIVERSEORDER>
1
2

> <PUBCHEM_MMFF94_PARTIAL_CHARGES>
29
1 -0.43
10 -0.14
12 -0.15
13 0.42
15 -0.15
16 -0.15
17 0.08
18 0.08
19 0.63
2 -0.36
20 -0.15
21 -0.15
22 0.56
23 0.08
24 -0.15
25 0.08
26 0.28
27 0.28
28 0.15
3 -0.36
31 0.15
32 0.15
33 0.15
34 0.15
37 0.15
4 -0.57
5 -0.36
6 -0.36
9 0.09

> <PUBCHEM_EFFECTIVE_ROTOR_COUNT>
4

> <PUBCHEM_PHARMACOPHORE_FEATURES>
10
1 2 acceptor
1 3 acceptor
1 4 acceptor
1 5 acceptor
1 6 acceptor
5 1 9 10 13 19 rings
5 2 3 17 18 22 rings
6 14 20 21 23 24 25 rings
6 7 8 9 10 11 12 rings
6 8 11 15 16 17 18 rings

> <PUBCHEM_HEAVY_ATOM_COUNT>
27

> <PUBCHEM_ATOM_DEF_STEREO_COUNT>
0

> <PUBCHEM_ATOM_UDEF_STEREO_COUNT>
0

> <PUBCHEM_BOND_DEF_STEREO_COUNT>
0

> <PUBCHEM_BOND_UDEF_STEREO_COUNT>
0

> <PUBCHEM_ISOTOPIC_ATOM_COUNT>
0

> <PUBCHEM_COMPONENT_COUNT>
1

> <PUBCHEM_CACTVS_TAUTO_COUNT>
1

> <PUBCHEM_CONFORMER_ID>
00511CF300000001

> <PUBCHEM_MMFF94_ENERGY>
107.8818

> <PUBCHEM_FEATURE_SELFOVERLAP>
51.027

> <PUBCHEM_SHAPE_FINGERPRINT>
10165383 225 18270704020382484209
10319926 262 18198051677239434304
10411042 1 17402338568680588182
1100329 8 16396903865811536137
11049842 53 18336562542515161638
11582403 64 17273102818291663898
11725454 13 17273954982789845378
12107183 9 18334848382634018840
12173636 292 18410577318299358893
12236239 1 17533489295183818574
12422481 6 17824811257488118856
12553582 1 17833555978153954147
12788726 201 17973724976205973634
13140716 1 18264210206151606747
13583140 156 17774150362085975610
13726171 33 18126864908721295768
138480 1 17617101300329887157
13878862 14 17542216862525909693
13911987 19 18263634238394515263
13965767 371 17967817111193480140
14178342 30 18408318899899079863
14508225 48 17550383385934481399
14739800 52 18122612023894578968
14790565 3 18338813285577649913
15230672 131 18336834105298579790
15961568 22 17187841464026128656
16087824 20 18194970858791798775
16110190 28 18118937258660962562
16988056 13 17254265727207947853
17818456 19 18336252514479504026
18785283 64 18120096074405220331
20101258 96 17544492193535896842
20510252 161 18269849759934721137
20642791 178 18044677312108243110
21033648 29 18342740723583797064
21033650 10 17756175580413257364
21133410 127 17824273591908275188
21133410 221 17270571888860608952
22149856 69 18193578688166034937
23366157 5 17972600992023330347
23557571 272 18057055815671109444
23558518 356 18335132064628535075
23559900 14 17975700489653059141
283562 15 18339929333066333707
350125 39 18265626381254123479
495365 180 18196087742632832921
5265222 85 18195827361021371990
57124632 79 18193834834549072625
6443956 14 17402053297052358471
6700243 42 17046597023674266588
7364860 26 17979636736817043119
7808743 9 18338241590933423556
84936 182 18127130766926963305
90316 7 17907293608678774795
9849439 229 18411980230876110217
9981440 41 18409444757235811539

> <PUBCHEM_SHAPE_MULTIPOLES>
520.43
8.85
5.08
1.22
4.17
3.2
-0.32
-9.82
-1.49
-3.71
0.34
2.12
-0.3
-0.63

> <PUBCHEM_SHAPE_SELFOVERLAP>
1189.729

> <PUBCHEM_SHAPE_VOLUME>
274.5

> <PUBCHEM_COORDINATE_TYPE>
2
5
10

$$$$
