100492
  -OEChem-09172014123D

 44 48  0     0  0  0  0  0  0999 V2000
    0.8235    4.2640   -0.0970 O   0  0  0  0  0  0  0  0  0  0  0  0
   -3.3003    2.9494   -0.3855 O   0  0  0  0  0  0  0  0  0  0  0  0
    4.1753   -1.5888   -1.6063 O   0  0  0  0  0  0  0  0  0  0  0  0
    5.0104   -2.0227    0.6122 O   0  0  0  0  0  0  0  0  0  0  0  0
   -2.3641   -3.3680    0.1614 O   0  0  0  0  0  0  0  0  0  0  0  0
   -4.7046   -1.9143   -0.1635 O   0  0  0  0  0  0  0  0  0  0  0  0
    2.5157    2.7250    0.1739 O   0  0  0  0  0  0  0  0  0  0  0  0
    0.2070    0.7143    0.1056 C   0  0  0  0  0  0  0  0  0  0  0  0
    0.2062    2.0934    0.0050 C   0  0  0  0  0  0  0  0  0  0  0  0
   -0.9473    2.8275   -0.1562 C   0  0  0  0  0  0  0  0  0  0  0  0
   -1.0265    0.0465    0.0389 C   0  0  0  0  0  0  0  0  0  0  0  0
   -2.2294    0.7940   -0.1279 C   0  0  0  0  0  0  0  0  0  0  0  0
   -2.1761    2.1971   -0.2250 C   0  0  0  0  0  0  0  0  0  0  0  0
    1.4617    0.0009    0.2746 C   0  0  0  0  0  0  0  0  0  0  0  0
   -0.6200    4.2626   -0.2305 C   0  0  0  0  0  0  0  0  0  0  0  0
    1.3404    3.0029    0.0441 C   0  0  0  0  0  0  0  0  0  0  0  0
   -1.0972   -1.3519    0.1338 C   0  0  0  0  0  0  0  0  0  0  0  0
   -3.4538    0.1114   -0.1929 C   0  0  0  0  0  0  0  0  0  0  0  0
    2.1674   -0.4243   -0.8499 C   0  0  0  0  0  0  0  0  0  0  0  0
   -2.3261   -2.0090    0.0665 C   0  0  0  0  0  0  0  0  0  0  0  0
   -3.5005   -1.2798   -0.0963 C   0  0  0  0  0  0  0  0  0  0  0  0
    1.9439   -0.2495    1.5682 C   0  0  0  0  0  0  0  0  0  0  0  0
    3.3530   -1.0981   -0.6392 C   0  0  0  0  0  0  0  0  0  0  0  0
    3.8299   -1.3460    0.6276 C   0  0  0  0  0  0  0  0  0  0  0  0
    3.1474   -0.9339    1.7536 C   0  0  0  0  0  0  0  0  0  0  0  0
    5.2235   -2.1727   -0.8062 C   0  0  0  0  0  0  0  0  0  0  0  0
   -2.2642   -4.1052   -1.0551 C   0  0  0  0  0  0  0  0  0  0  0  0
   -5.3953   -2.1249    1.0662 C   0  0  0  0  0  0  0  0  0  0  0  0
   -0.8822    4.7045   -1.1954 H   0  0  0  0  0  0  0  0  0  0  0  0
   -1.0481    4.8352    0.5965 H   0  0  0  0  0  0  0  0  0  0  0  0
   -0.2087   -1.9656    0.2627 H   0  0  0  0  0  0  0  0  0  0  0  0
   -4.3975    0.6310   -0.3362 H   0  0  0  0  0  0  0  0  0  0  0  0
    1.8077   -0.2386   -1.8568 H   0  0  0  0  0  0  0  0  0  0  0  0
    1.3889    0.0848    2.4420 H   0  0  0  0  0  0  0  0  0  0  0  0
    3.5263   -1.1313    2.7499 H   0  0  0  0  0  0  0  0  0  0  0  0
   -4.0651    2.5032    0.0096 H   0  0  0  0  0  0  0  0  0  0  0  0
    6.1741   -1.6954   -1.0707 H   0  0  0  0  0  0  0  0  0  0  0  0
    5.2894   -3.2415   -1.0401 H   0  0  0  0  0  0  0  0  0  0  0  0
   -3.0927   -3.8567   -1.7258 H   0  0  0  0  0  0  0  0  0  0  0  0
   -2.3162   -5.1707   -0.8152 H   0  0  0  0  0  0  0  0  0  0  0  0
   -1.3078   -3.9037   -1.5481 H   0  0  0  0  0  0  0  0  0  0  0  0
   -5.6298   -1.1679    1.5431 H   0  0  0  0  0  0  0  0  0  0  0  0
   -4.7988   -2.7456    1.7422 H   0  0  0  0  0  0  0  0  0  0  0  0
   -6.3317   -2.6457    0.8483 H   0  0  0  0  0  0  0  0  0  0  0  0
  1 15  1  0  0  0  0
  1 16  1  0  0  0  0
  2 13  1  0  0  0  0
  2 36  1  0  0  0  0
  3 23  1  0  0  0  0
  3 26  1  0  0  0  0
  4 24  1  0  0  0  0
  4 26  1  0  0  0  0
  5 20  1  0  0  0  0
  5 27  1  0  0  0  0
  6 21  1  0  0  0  0
  6 28  1  0  0  0  0
  7 16  2  0  0  0  0
  8  9  2  0  0  0  0
  8 11  1  0  0  0  0
  8 14  1  0  0  0  0
  9 10  1  0  0  0  0
  9 16  1  0  0  0  0
 10 13  2  0  0  0  0
 10 15  1  0  0  0  0
 11 12  1  0  0  0  0
 11 17  2  0  0  0  0
 12 13  1  0  0  0  0
 12 18  2  0  0  0  0
 14 19  2  0  0  0  0
 14 22  1  0  0  0  0
 15 29  1  0  0  0  0
 15 30  1  0  0  0  0
 17 20  1  0  0  0  0
 17 31  1  0  0  0  0
 18 21  1  0  0  0  0
 18 32  1  0  0  0  0
 19 23  1  0  0  0  0
 19 33  1  0  0  0  0
 20 21  2  0  0  0  0
 22 25  2  0  0  0  0
 22 34  1  0  0  0  0
 23 24  2  0  0  0  0
 24 25  1  0  0  0  0
 25 35  1  0  0  0  0
 26 37  1  0  0  0  0
 26 38  1  0  0  0  0
 27 39  1  0  0  0  0
 27 40  1  0  0  0  0
 27 41  1  0  0  0  0
 28 42  1  0  0  0  0
 28 43  1  0  0  0  0
 28 44  1  0  0  0  0
M  END
> <PUBCHEM_COMPOUND_CID>
100492

> <PUBCHEM_CONFORMER_RMSD>
0.8

> <PUBCHEM_CONFORMER_DIVERSEORDER>
1
2

> <PUBCHEM_MMFF94_PARTIAL_CHARGES>
30
1 -0.43
10 -0.14
13 0.08
15 0.42
16 0.63
17 -0.15
18 -0.15
19 -0.15
2 -0.53
20 0.08
21 0.08
22 -0.15
23 0.08
24 0.08
25 -0.15
26 0.56
27 0.28
28 0.28
3 -0.36
31 0.15
32 0.15
33 0.15
34 0.15
35 0.15
36 0.45
4 -0.36
5 -0.36
6 -0.36
7 -0.57
9 0.09

> <PUBCHEM_EFFECTIVE_ROTOR_COUNT>
4

> <PUBCHEM_PHARMACOPHORE_FEATURES>
11
1 2 donor
1 3 acceptor
1 4 acceptor
1 5 acceptor
1 6 acceptor
1 7 acceptor
5 1 9 10 15 16 rings
5 3 4 23 24 26 rings
6 11 12 17 18 20 21 rings
6 14 19 22 23 24 25 rings
6 8 9 10 11 12 13 rings

> <PUBCHEM_HEAVY_ATOM_COUNT>
28

> <PUBCHEM_ATOM_DEF_STEREO_COUNT>
0

> <PUBCHEM_ATOM_UDEF_STEREO_COUNT>
0

> <PUBCHEM_BOND_DEF_STEREO_COUNT>
0

> <PUBCHEM_BOND_UDEF_STEREO_COUNT>
0

> <PUBCHEM_ISOTOPIC_ATOM_COUNT>
0

> <PUBCHEM_COMPONENT_COUNT>
1

> <PUBCHEM_CACTVS_TAUTO_COUNT>
3

> <PUBCHEM_CONFORMER_ID>
0001888C00000001

> <PUBCHEM_MMFF94_ENERGY>
113.5269

> <PUBCHEM_FEATURE_SELFOVERLAP>
56.101

> <PUBCHEM_SHAPE_FINGERPRINT>
10319926 262 18051948366045543730
10369192 42 17487030497274414384
10411042 1 18410013247354412459
1100329 8 18338234852224792201
11135926 11 18049998102003743549
11578080 2 17314762214446582140
12107183 9 18341629126751233867
12236239 1 17316210134010994544
12553582 1 18409442605067448595
12788726 201 18261398797795262034
12839892 36 17548679129651674928
13140716 1 18411417276669913257
138480 1 15095922039550704981
14251757 5 18337401422357618990
14790565 3 17907306446510810144
14844126 61 18263916653521151378
14863182 85 17182221855621321333
15042514 8 18265337213937932857
15230672 131 17256252541163395294
16752209 62 18262790775036241259
17492 89 18051694648831049535
1813 80 18341337755162213082
19319366 153 17460316542577488914
19591789 44 18409452471007753913
20028762 73 18200869583770287805
20511986 3 17314787387613633652
20775438 99 17406502308236306647
20905425 154 18267588090223464476
21033648 29 17559936771410176562
21421861 104 18190457362509310665
23184049 29 18409158939472449809
23366157 5 17900538179351776245
23557571 272 18341887464490772056
23559900 14 18340481257052358824
23566358 2 18335410326615975116
314173 41 18337675324922345402
3178227 256 18193010218747290113
335352 9 18410009893644363661
4280585 95 18410284827153630562
4409770 3 18046057164645970317
484989 97 18334287653416482157
59755656 215 18192713577444082332
70251023 43 18335147539395241531
7364860 26 18122907791640780489
9709674 26 18120089743703014987
9981440 41 17399235248629497968

> <PUBCHEM_SHAPE_MULTIPOLES>
535.14
8.89
5.33
1.07
2.36
3.54
0.19
-9.57
0.17
-2.43
-0.96
0.85
-0.61
0.58

> <PUBCHEM_SHAPE_SELFOVERLAP>
1224.706

> <PUBCHEM_SHAPE_VOLUME>
281.9

> <PUBCHEM_COORDINATE_TYPE>
2
5
10

$$$$
