70697379
  -OEChem-09172015573D

 47 49  0     1  0  0  0  0  0999 V2000
   -3.0959    0.5421   -0.6831 O   0  0  0  0  0  0  0  0  0  0  0  0
   -1.3044   -0.6608    0.2044 O   0  0  0  0  0  0  0  0  0  0  0  0
   -5.4710   -0.3650    2.5423 O   0  0  0  0  0  0  0  0  0  0  0  0
   -6.6733    0.6050    0.0990 O   0  0  0  0  0  0  0  0  0  0  0  0
   -3.0920   -1.9970    1.9442 O   0  0  0  0  0  0  0  0  0  0  0  0
   -4.0035    1.7603   -2.9738 O   0  0  0  0  0  0  0  0  0  0  0  0
    1.3515    0.1864   -0.3500 O   0  0  0  0  0  0  0  0  0  0  0  0
    3.7509   -3.0834   -0.7423 O   0  0  0  0  0  0  0  0  0  0  0  0
    5.8411   -1.6166   -0.0433 O   0  0  0  0  0  0  0  0  0  0  0  0
    4.9931    2.9558    0.9202 O   0  0  0  0  0  0  0  0  0  0  0  0
   -4.9097   -0.5720    1.2452 C   0  0  1  0  0  0  0  0  0  0  0  0
   -5.2752    0.6302    0.3744 C   0  0  1  0  0  0  0  0  0  0  0  0
   -3.3936   -0.7276    1.3655 C   0  0  2  0  0  0  0  0  0  0  0  0
   -4.4992    0.6015   -0.9444 C   0  0  1  0  0  0  0  0  0  0  0  0
   -2.7165   -0.6520   -0.0029 C   0  0  1  0  0  0  0  0  0  0  0  0
   -4.7590    1.8513   -1.7798 C   0  0  0  0  0  0  0  0  0  0  0  0
   -0.6126   -1.0484   -0.9723 C   0  0  0  0  0  0  0  0  0  0  0  0
    0.8537   -1.0494   -0.7302 C   0  0  0  0  0  0  0  0  0  0  0  0
    1.6013   -2.1536   -0.8735 C   0  0  0  0  0  0  0  0  0  0  0  0
    2.6961    0.2994   -0.1009 C   0  0  0  0  0  0  0  0  0  0  0  0
    3.5795   -0.7735   -0.2139 C   0  0  0  0  0  0  0  0  0  0  0  0
    3.0530   -2.0865   -0.6177 C   0  0  0  0  0  0  0  0  0  0  0  0
    4.9396   -0.6004    0.0529 C   0  0  0  0  0  0  0  0  0  0  0  0
    3.1700    1.5548    0.2807 C   0  0  0  0  0  0  0  0  0  0  0  0
    4.5279    1.7318    0.5480 C   0  0  0  0  0  0  0  0  0  0  0  0
    5.4104    0.6564    0.4345 C   0  0  0  0  0  0  0  0  0  0  0  0
    4.0378    4.0112    1.0167 C   0  0  0  0  0  0  0  0  0  0  0  0
   -5.3681   -1.4892    0.8573 H   0  0  0  0  0  0  0  0  0  0  0  0
   -5.0663    1.5581    0.9208 H   0  0  0  0  0  0  0  0  0  0  0  0
   -2.9818    0.0330    2.0395 H   0  0  0  0  0  0  0  0  0  0  0  0
   -4.7787   -0.2731   -1.5476 H   0  0  0  0  0  0  0  0  0  0  0  0
   -3.0002   -1.5277   -0.6036 H   0  0  0  0  0  0  0  0  0  0  0  0
   -4.4333    2.7510   -1.2471 H   0  0  0  0  0  0  0  0  0  0  0  0
   -5.8173    1.9478   -2.0400 H   0  0  0  0  0  0  0  0  0  0  0  0
   -5.0694    0.4353    2.9215 H   0  0  0  0  0  0  0  0  0  0  0  0
   -6.8670   -0.2083   -0.3978 H   0  0  0  0  0  0  0  0  0  0  0  0
   -3.4492   -2.6875    1.3601 H   0  0  0  0  0  0  0  0  0  0  0  0
   -0.8401   -0.3453   -1.7830 H   0  0  0  0  0  0  0  0  0  0  0  0
   -0.9547   -2.0429   -1.2849 H   0  0  0  0  0  0  0  0  0  0  0  0
   -4.1804    2.5667   -3.4876 H   0  0  0  0  0  0  0  0  0  0  0  0
    1.1812   -3.1068   -1.1727 H   0  0  0  0  0  0  0  0  0  0  0  0
    2.4374    2.3519    0.3522 H   0  0  0  0  0  0  0  0  0  0  0  0
    6.4676    0.8006    0.6442 H   0  0  0  0  0  0  0  0  0  0  0  0
    5.4001   -2.4363   -0.3149 H   0  0  0  0  0  0  0  0  0  0  0  0
    4.5809    4.9112    1.3235 H   0  0  0  0  0  0  0  0  0  0  0  0
    3.2914    3.8091    1.7923 H   0  0  0  0  0  0  0  0  0  0  0  0
    3.5802    4.2301    0.0460 H   0  0  0  0  0  0  0  0  0  0  0  0
  1 14  1  0  0  0  0
  1 15  1  0  0  0  0
  2 15  1  0  0  0  0
  2 17  1  0  0  0  0
  3 11  1  0  0  0  0
  3 35  1  0  0  0  0
  4 12  1  0  0  0  0
  4 36  1  0  0  0  0
  5 13  1  0  0  0  0
  5 37  1  0  0  0  0
  6 16  1  0  0  0  0
  6 40  1  0  0  0  0
  7 18  1  0  0  0  0
  7 20  1  0  0  0  0
  8 22  2  0  0  0  0
  9 23  1  0  0  0  0
  9 44  1  0  0  0  0
 10 25  1  0  0  0  0
 10 27  1  0  0  0  0
 11 12  1  0  0  0  0
 11 13  1  0  0  0  0
 11 28  1  0  0  0  0
 12 14  1  0  0  0  0
 12 29  1  0  0  0  0
 13 15  1  0  0  0  0
 13 30  1  0  0  0  0
 14 16  1  0  0  0  0
 14 31  1  0  0  0  0
 15 32  1  0  0  0  0
 16 33  1  0  0  0  0
 16 34  1  0  0  0  0
 17 18  1  0  0  0  0
 17 38  1  0  0  0  0
 17 39  1  0  0  0  0
 18 19  2  0  0  0  0
 19 22  1  0  0  0  0
 19 41  1  0  0  0  0
 20 21  1  0  0  0  0
 20 24  2  0  0  0  0
 21 22  1  0  0  0  0
 21 23  2  0  0  0  0
 23 26  1  0  0  0  0
 24 25  1  0  0  0  0
 24 42  1  0  0  0  0
 25 26  2  0  0  0  0
 26 43  1  0  0  0  0
 27 45  1  0  0  0  0
 27 46  1  0  0  0  0
 27 47  1  0  0  0  0
M  END
> <PUBCHEM_COMPOUND_CID>
70697379

> <PUBCHEM_CONFORMER_RMSD>
0.8

> <PUBCHEM_CONFORMER_DIVERSEORDER>
1
164
40
200
180
167
87
10
127
76
62
166
193
108
81
132
117
154
119
99
131
183
14
7
184
114
172
191
185
68
165
109
168
104
157
146
32
3
4
103
123
135
13
31
73
139
48
199
116
45
169
91
115
100
29
144
51
70
197
96
2
171
121
192
145
9
71
118
18
69
125
30
163
11
86
46
43
204
182
12
67
65
22
176
128
177
21
60
179
153
106
28
23
16
6
58
98
147
42
156
52
34
151
110
122
5
102
82
27
97
95
196
130
161
173
83
137
57
187
170
41
124
72
136
54
133
24
55
47
8
202
33
59
26
155
50
94
15
78
129
92
188
160
107
74
158
203
63
39
89
149
17
189
84
44
61
178
162
38
143
19
142
195
49
194
93
111
90
101
186
36
66
85
79
88
159
134
25
35
126
113
53
138
37
141
75
140
198
80
150
190
181
20
56
64
152
77
174
112
201
105
148
120
175

> <PUBCHEM_MMFF94_PARTIAL_CHARGES>
35
1 -0.56
10 -0.36
11 0.28
12 0.28
13 0.28
14 0.28
15 0.56
16 0.28
17 0.42
18 -0.06
19 -0.14
2 -0.56
20 0.08
21 0.09
22 0.47
23 0.08
24 -0.15
25 0.08
26 -0.15
27 0.28
3 -0.68
35 0.4
36 0.4
37 0.4
4 -0.68
40 0.4
41 0.15
42 0.15
43 0.15
44 0.45
5 -0.68
6 -0.68
7 -0.16
8 -0.57
9 -0.53

> <PUBCHEM_EFFECTIVE_ROTOR_COUNT>
6.2

> <PUBCHEM_PHARMACOPHORE_FEATURES>
17
1 1 acceptor
1 10 acceptor
1 2 acceptor
1 3 acceptor
1 3 donor
1 4 acceptor
1 4 donor
1 5 acceptor
1 5 donor
1 6 acceptor
1 6 donor
1 7 acceptor
1 8 acceptor
1 9 donor
6 1 11 12 13 14 15 rings
6 20 21 23 24 25 26 rings
6 7 18 19 20 21 22 rings

> <PUBCHEM_HEAVY_ATOM_COUNT>
27

> <PUBCHEM_ATOM_DEF_STEREO_COUNT>
5

> <PUBCHEM_ATOM_UDEF_STEREO_COUNT>
0

> <PUBCHEM_BOND_DEF_STEREO_COUNT>
0

> <PUBCHEM_BOND_UDEF_STEREO_COUNT>
0

> <PUBCHEM_ISOTOPIC_ATOM_COUNT>
0

> <PUBCHEM_COMPONENT_COUNT>
1

> <PUBCHEM_CACTVS_TAUTO_COUNT>
5

> <PUBCHEM_CONFORMER_ID>
0436C1A300000001

> <PUBCHEM_MMFF94_ENERGY>
83.2644

> <PUBCHEM_FEATURE_SELFOVERLAP>
86.373

> <PUBCHEM_SHAPE_FINGERPRINT>
10 15 18186517743833130000
10319926 262 17603583027919889617
10411042 1 17911524186859405518
11045977 3 18333456443314710194
11135609 149 17272016346522352846
11545043 162 17822015276443284955
12236239 1 16773796969946696759
12403259 415 18334016068720325207
12616971 3 17561085791167813581
13402501 40 18334287648272305685
13583140 156 18335138665745108647
13878862 14 18270944809187019956
14747282 140 17181643508132374572
14790565 3 17690562305556665148
14848178 96 17987509485080377296
15081414 286 18272094868585069724
15188451 53 16443630220206662579
15348495 7 18334861661929288042
15419008 47 18187652353464540796
15475509 35 17168410586019247410
17844677 252 18271250417531816381
20157964 124 18272934916479472079
20511986 3 17060334085464708265
20554085 129 17023445458196155533
20645477 56 18334577945238163215
21033648 144 18270955846972856852
21033648 29 18114175320306563181
21065201 7 17313391080444116191
21792961 116 18264492777015099142
21859007 373 17822846473317101597
22122407 14 18060149712991363921
23557571 272 17749393641656726565
23559900 14 17968105170170373926
268830 7 18130517340382182419
3178227 256 18410860950209819770
335352 9 18272652342893331206
397830 11 18263091066327979699
4015057 19 18343292674352287201
5104073 3 18340200916591164834
57724786 102 18202293497549505041
6608658 132 16056611936808117185
6697151 62 17976800022672094326
9995097 60 18407760334895985375

> <PUBCHEM_SHAPE_MULTIPOLES>
496.95
16.33
3.09
1.69
8.32
1.84
0.17
5.62
-2.82
-5.7
-0.07
3.76
0.37
3.62

> <PUBCHEM_SHAPE_SELFOVERLAP>
1063.56

> <PUBCHEM_SHAPE_VOLUME>
271.8

> <PUBCHEM_COORDINATE_TYPE>
2
5
10

$$$$
