5316442
  -OEChem-09172014283D

 69 72  0     1  0  0  0  0  0999 V2000
    4.3385   -0.8393    0.0249 O   0  0  0  0  0  0  0  0  0  0  0  0
   -2.2713    2.0214   -0.0609 O   0  0  0  0  0  0  0  0  0  0  0  0
    4.0090    1.4642    0.1957 O   0  0  0  0  0  0  0  0  0  0  0  0
    8.2266   -0.3237   -1.1934 O   0  0  0  0  0  0  0  0  0  0  0  0
    6.9122   -2.8631   -1.6164 O   0  0  0  0  0  0  0  0  0  0  0  0
    6.2938    1.8886   -1.4191 O   0  0  0  0  0  0  0  0  0  0  0  0
    3.0190   -3.2506   -0.0042 O   0  0  0  0  0  0  0  0  0  0  0  0
   -2.4829   -2.2911    2.0278 O   0  0  0  0  0  0  0  0  0  0  0  0
   -4.4741    3.1380   -1.5082 O   0  0  0  0  0  0  0  0  0  0  0  0
    2.9474    1.2770    2.7611 O   0  0  0  0  0  0  0  0  0  0  0  0
   -8.1048   -4.2495   -0.5267 O   0  0  0  0  0  0  0  0  0  0  0  0
    6.8173   -0.4667   -1.3773 C   0  0  1  0  0  0  0  0  0  0  0  0
    6.3991   -1.8172   -0.7956 C   0  0  1  0  0  0  0  0  0  0  0  0
    6.0933    0.6846   -0.6791 C   0  0  2  0  0  0  0  0  0  0  0  0
    4.8743   -1.9301   -0.7263 C   0  0  1  0  0  0  0  0  0  0  0  0
   -2.1625   -0.2261    0.8696 C   0  0  2  0  0  0  0  0  0  0  0  0
   -1.6042    1.2149    0.9507 C   0  0  1  0  0  0  0  0  0  0  0  0
    4.5900    0.4228   -0.5886 C   0  0  1  0  0  0  0  0  0  0  0  0
   -3.4793    0.0762    0.2462 C   0  0  0  0  0  0  0  0  0  0  0  0
   -0.1071    1.2814    0.7530 C   0  0  0  0  0  0  0  0  0  0  0  0
   -3.4516    1.3584   -0.2851 C   0  0  0  0  0  0  0  0  0  0  0  0
    4.4341   -3.2202   -0.0417 C   0  0  0  0  0  0  0  0  0  0  0  0
   -2.2297   -0.9108    2.2266 C   0  0  0  0  0  0  0  0  0  0  0  0
   -4.5968   -0.7256    0.0891 C   0  0  0  0  0  0  0  0  0  0  0  0
    2.6560    1.4038    0.3879 C   0  0  0  0  0  0  0  0  0  0  0  0
    0.7444    1.2489    1.8573 C   0  0  0  0  0  0  0  0  0  0  0  0
    0.4228    1.3752   -0.5338 C   0  0  0  0  0  0  0  0  0  0  0  0
   -4.5181    1.8864   -0.9873 C   0  0  0  0  0  0  0  0  0  0  0  0
    2.1260    1.3099    1.6748 C   0  0  0  0  0  0  0  0  0  0  0  0
    1.8044    1.4366   -0.7163 C   0  0  0  0  0  0  0  0  0  0  0  0
   -5.6935   -0.2072   -0.6052 C   0  0  0  0  0  0  0  0  0  0  0  0
   -5.6536    1.0900   -1.1413 C   0  0  0  0  0  0  0  0  0  0  0  0
   -6.8848   -1.0236   -0.7839 C   0  0  0  0  0  0  0  0  0  0  0  0
   -5.6284    3.5922   -2.2175 C   0  0  0  0  0  0  0  0  0  0  0  0
   -7.2231   -2.1030   -0.0431 C   0  0  0  0  0  0  0  0  0  0  0  0
    2.3257    1.1802    4.0411 C   0  0  0  0  0  0  0  0  0  0  0  0
   -8.4682   -2.9030   -0.2550 C   0  0  0  0  0  0  0  0  0  0  0  0
    6.6465   -0.4379   -2.4598 H   0  0  0  0  0  0  0  0  0  0  0  0
    6.8372   -1.9400    0.2026 H   0  0  0  0  0  0  0  0  0  0  0  0
    6.5137    0.8535    0.3194 H   0  0  0  0  0  0  0  0  0  0  0  0
    4.4313   -1.9118   -1.7314 H   0  0  0  0  0  0  0  0  0  0  0  0
   -1.5905   -0.8379    0.1588 H   0  0  0  0  0  0  0  0  0  0  0  0
   -1.8606    1.6825    1.9131 H   0  0  0  0  0  0  0  0  0  0  0  0
    4.1544    0.4403   -1.5962 H   0  0  0  0  0  0  0  0  0  0  0  0
    4.7954   -3.2562    0.9916 H   0  0  0  0  0  0  0  0  0  0  0  0
    4.7904   -4.1031   -0.5808 H   0  0  0  0  0  0  0  0  0  0  0  0
   -3.0195   -0.4931    2.8604 H   0  0  0  0  0  0  0  0  0  0  0  0
   -1.2749   -0.8278    2.7541 H   0  0  0  0  0  0  0  0  0  0  0  0
   -4.5777   -1.7370    0.4785 H   0  0  0  0  0  0  0  0  0  0  0  0
    0.2761    1.1776    2.8331 H   0  0  0  0  0  0  0  0  0  0  0  0
   -0.2203    1.3950   -1.4093 H   0  0  0  0  0  0  0  0  0  0  0  0
    8.4090   -0.3279   -0.2382 H   0  0  0  0  0  0  0  0  0  0  0  0
    6.5187   -2.7713   -2.5009 H   0  0  0  0  0  0  0  0  0  0  0  0
    5.9269    1.7597   -2.3103 H   0  0  0  0  0  0  0  0  0  0  0  0
    2.1955    1.5264   -1.7257 H   0  0  0  0  0  0  0  0  0  0  0  0
   -6.5363    1.4336   -1.6729 H   0  0  0  0  0  0  0  0  0  0  0  0
    2.7611   -4.0765    0.4397 H   0  0  0  0  0  0  0  0  0  0  0  0
   -2.5193   -2.7055    2.9066 H   0  0  0  0  0  0  0  0  0  0  0  0
   -7.5558   -0.7169   -1.5837 H   0  0  0  0  0  0  0  0  0  0  0  0
   -5.4147    4.6079   -2.5659 H   0  0  0  0  0  0  0  0  0  0  0  0
   -6.5030    3.6547   -1.5612 H   0  0  0  0  0  0  0  0  0  0  0  0
   -5.8194    2.9809   -3.1059 H   0  0  0  0  0  0  0  0  0  0  0  0
   -6.6025   -2.4317    0.7856 H   0  0  0  0  0  0  0  0  0  0  0  0
    3.1268    1.1651    4.7875 H   0  0  0  0  0  0  0  0  0  0  0  0
    1.7721    0.2414    4.1511 H   0  0  0  0  0  0  0  0  0  0  0  0
    1.7073    2.0580    4.2572 H   0  0  0  0  0  0  0  0  0  0  0  0
   -9.0629   -2.5267   -1.0935 H   0  0  0  0  0  0  0  0  0  0  0  0
   -9.0821   -2.8813    0.6507 H   0  0  0  0  0  0  0  0  0  0  0  0
   -8.9305   -4.7506   -0.6402 H   0  0  0  0  0  0  0  0  0  0  0  0
  1 15  1  0  0  0  0
  1 18  1  0  0  0  0
  2 17  1  0  0  0  0
  2 21  1  0  0  0  0
  3 18  1  0  0  0  0
  3 25  1  0  0  0  0
  4 12  1  0  0  0  0
  4 52  1  0  0  0  0
  5 13  1  0  0  0  0
  5 53  1  0  0  0  0
  6 14  1  0  0  0  0
  6 54  1  0  0  0  0
  7 22  1  0  0  0  0
  7 57  1  0  0  0  0
  8 23  1  0  0  0  0
  8 58  1  0  0  0  0
  9 28  1  0  0  0  0
  9 34  1  0  0  0  0
 10 29  1  0  0  0  0
 10 36  1  0  0  0  0
 11 37  1  0  0  0  0
 11 69  1  0  0  0  0
 12 13  1  0  0  0  0
 12 14  1  0  0  0  0
 12 38  1  0  0  0  0
 13 15  1  0  0  0  0
 13 39  1  0  0  0  0
 14 18  1  0  0  0  0
 14 40  1  0  0  0  0
 15 22  1  0  0  0  0
 15 41  1  0  0  0  0
 16 17  1  0  0  0  0
 16 19  1  0  0  0  0
 16 23  1  0  0  0  0
 16 42  1  0  0  0  0
 17 20  1  0  0  0  0
 17 43  1  0  0  0  0
 18 44  1  0  0  0  0
 19 21  2  0  0  0  0
 19 24  1  0  0  0  0
 20 26  2  0  0  0  0
 20 27  1  0  0  0  0
 21 28  1  0  0  0  0
 22 45  1  0  0  0  0
 22 46  1  0  0  0  0
 23 47  1  0  0  0  0
 23 48  1  0  0  0  0
 24 31  2  0  0  0  0
 24 49  1  0  0  0  0
 25 29  2  0  0  0  0
 25 30  1  0  0  0  0
 26 29  1  0  0  0  0
 26 50  1  0  0  0  0
 27 30  2  0  0  0  0
 27 51  1  0  0  0  0
 28 32  2  0  0  0  0
 30 55  1  0  0  0  0
 31 32  1  0  0  0  0
 31 33  1  0  0  0  0
 32 56  1  0  0  0  0
 33 35  2  0  0  0  0
 33 59  1  0  0  0  0
 34 60  1  0  0  0  0
 34 61  1  0  0  0  0
 34 62  1  0  0  0  0
 35 37  1  0  0  0  0
 35 63  1  0  0  0  0
 36 64  1  0  0  0  0
 36 65  1  0  0  0  0
 36 66  1  0  0  0  0
 37 67  1  0  0  0  0
 37 68  1  0  0  0  0
M  END
> <PUBCHEM_COMPOUND_CID>
5316442

> <PUBCHEM_CONFORMER_RMSD>
1.2

> <PUBCHEM_CONFORMER_DIVERSEORDER>
1
15
16
6
2
11
4
12
7
8
13
10
9
3
14
5

> <PUBCHEM_MMFF94_PARTIAL_CHARGES>
50
1 -0.56
10 -0.36
11 -0.68
12 0.28
13 0.28
14 0.28
15 0.28
16 0.14
17 0.42
18 0.56
19 -0.14
2 -0.36
20 -0.14
21 0.08
22 0.28
23 0.28
24 -0.15
25 0.08
26 -0.15
27 -0.15
28 0.08
29 0.08
3 -0.36
30 -0.15
31 0.03
32 -0.15
33 -0.18
34 0.28
35 -0.29
36 0.28
37 0.42
4 -0.68
49 0.15
5 -0.68
50 0.15
51 0.15
52 0.4
53 0.4
54 0.4
55 0.15
56 0.15
57 0.4
58 0.4
59 0.15
6 -0.68
63 0.15
69 0.4
7 -0.68
8 -0.68
9 -0.36

> <PUBCHEM_EFFECTIVE_ROTOR_COUNT>
10.8

> <PUBCHEM_PHARMACOPHORE_FEATURES>
21
1 1 acceptor
1 10 acceptor
1 11 acceptor
1 11 donor
1 2 acceptor
1 3 acceptor
1 4 acceptor
1 4 donor
1 5 acceptor
1 5 donor
1 6 acceptor
1 6 donor
1 7 acceptor
1 7 donor
1 8 acceptor
1 8 donor
1 9 acceptor
5 2 16 17 19 21 rings
6 1 12 13 14 15 18 rings
6 19 21 24 28 31 32 rings
6 20 25 26 27 29 30 rings

> <PUBCHEM_HEAVY_ATOM_COUNT>
37

> <PUBCHEM_ATOM_DEF_STEREO_COUNT>
7

> <PUBCHEM_ATOM_UDEF_STEREO_COUNT>
0

> <PUBCHEM_BOND_DEF_STEREO_COUNT>
1

> <PUBCHEM_BOND_UDEF_STEREO_COUNT>
0

> <PUBCHEM_ISOTOPIC_ATOM_COUNT>
0

> <PUBCHEM_COMPONENT_COUNT>
1

> <PUBCHEM_CACTVS_TAUTO_COUNT>
1

> <PUBCHEM_CONFORMER_ID>
00511F5A00000001

> <PUBCHEM_MMFF94_ENERGY>
132.7781

> <PUBCHEM_FEATURE_SELFOVERLAP>
106.759

> <PUBCHEM_SHAPE_FINGERPRINT>
10369192 42 12180715792473718114
117089 54 17904202878222210263
12124843 1 18262813852418113726
12422481 6 9439107754586095362
12616971 3 15195280967422245529
12661589 4 18338786896865677530
13383668 262 18041271149191474370
13782708 43 17989480818933959909
14118638 360 16732693944525677473
14294032 229 18115017499961433965
14340393 91 18340771451114094928
14931854 50 18339933598048129606
15082195 135 18115321089276144476
15131766 46 12324533098497501666
15183329 4 17967532337713202696
15348495 7 10591754394091915556
15352257 5 18413390947291205279
15475509 35 17988920085220391874
1577012 14 16950551178664372997
17134984 74 18411136944486520098
19841028 212 18270685239002740534
2026 5 18341616979851043158
21033650 10 18113900408351701793
21792934 111 12679470785731053347
21814621 53 17632569475429497449
23522609 53 17701009679795957344
23559900 14 18410571794945717832
23569943 247 18271814462961141115
25269216 80 17967535675424667413
392239 28 12463280380516919694
4098825 35 18335141951795880405
4258327 124 14056723470030363227
42767 28 18189065196616876138
439807 62 18413673513184360487
44880568 143 18261394421076434076
49967989 163 17458628986542104739
504843 32 13334748950439352929
6608658 132 16660357052922535901
6697151 62 17202178786298540841
9953998 17 11671784858062438213

> <PUBCHEM_SHAPE_MULTIPOLES>
696.88
23.39
3.91
2.29
4.69
2.61
2.38
17.19
-14.19
4.66
-1.41
-1.57
-1.27
3.58

> <PUBCHEM_SHAPE_SELFOVERLAP>
1490.965

> <PUBCHEM_SHAPE_VOLUME>
384.6

> <PUBCHEM_COORDINATE_TYPE>
2
5
10

$$$$
