5318761
  -OEChem-09172014253D

 72 76  0     1  0  0  0  0  0999 V2000
    2.4761   -0.9207   -0.0529 O   0  0  0  0  0  0  0  0  0  0  0  0
   -0.8774   -2.3577   -0.2514 O   0  0  0  0  0  0  0  0  0  0  0  0
    3.2981   -0.4629    2.1257 O   0  0  0  0  0  0  0  0  0  0  0  0
   -0.1895   -0.3416    0.7005 O   0  0  0  0  0  0  0  0  0  0  0  0
    2.9601   -3.8208   -0.2422 O   0  0  0  0  0  0  0  0  0  0  0  0
    0.9463   -5.0775   -1.8918 O   0  0  0  0  0  0  0  0  0  0  0  0
    5.9264   -0.9769    1.0828 O   0  0  0  0  0  0  0  0  0  0  0  0
    6.0899    1.4475   -0.2736 O   0  0  0  0  0  0  0  0  0  0  0  0
    4.2830    2.9933    1.3050 O   0  0  0  0  0  0  0  0  0  0  0  0
   -2.9948   -3.5873   -1.5005 O   0  0  0  0  0  0  0  0  0  0  0  0
   -2.7669    1.9552   -0.5917 O   0  0  0  0  0  0  0  0  0  0  0  0
   -2.5439   -1.3426    1.7915 O   0  0  0  0  0  0  0  0  0  0  0  0
   -5.1340   -1.2711    2.1425 O   0  0  0  0  0  0  0  0  0  0  0  0
   -7.4740    2.2332   -0.0461 O   0  0  0  0  0  0  0  0  0  0  0  0
    2.7963    3.8443   -2.8562 O   0  0  0  0  0  0  0  0  0  0  0  0
    1.4879   -1.9385    0.1055 C   0  0  2  0  0  0  0  0  0  0  0  0
    1.8368   -3.1281   -0.7888 C   0  0  2  0  0  0  0  0  0  0  0  0
    0.6715   -4.1136   -0.8785 C   0  0  1  0  0  0  0  0  0  0  0  0
    3.5510   -1.0913    0.8644 C   0  0  2  0  0  0  0  0  0  0  0  0
    0.1274   -1.3463   -0.2624 C   0  0  1  0  0  0  0  0  0  0  0  0
    4.8443   -0.5608    0.2483 C   0  0  1  0  0  0  0  0  0  0  0  0
   -0.6318   -3.3846   -1.2138 C   0  0  1  0  0  0  0  0  0  0  0  0
    4.8173    0.9655    0.1517 C   0  0  1  0  0  0  0  0  0  0  0  0
    4.4664    1.5933    1.5011 C   0  0  2  0  0  0  0  0  0  0  0  0
    3.1831    0.9621    2.0587 C   0  0  2  0  0  0  0  0  0  0  0  0
   -1.8289   -4.3297   -1.1935 C   0  0  0  0  0  0  0  0  0  0  0  0
    2.8720    1.4510    3.4706 C   0  0  0  0  0  0  0  0  0  0  0  0
   -1.4117    0.2404    0.4422 C   0  0  0  0  0  0  0  0  0  0  0  0
   -1.5580    1.3263   -0.3385 C   0  0  0  0  0  0  0  0  0  0  0  0
   -2.6147   -0.3544    1.0731 C   0  0  0  0  0  0  0  0  0  0  0  0
   -3.8963    0.3095    0.7895 C   0  0  0  0  0  0  0  0  0  0  0  0
   -0.4176    1.9863   -0.9986 C   0  0  0  0  0  0  0  0  0  0  0  0
   -3.9047    1.4348   -0.0316 C   0  0  0  0  0  0  0  0  0  0  0  0
   -5.0879   -0.1758    1.3340 C   0  0  0  0  0  0  0  0  0  0  0  0
   -5.1072    2.0836   -0.3137 C   0  0  0  0  0  0  0  0  0  0  0  0
   -0.0227    1.5862   -2.2754 C   0  0  0  0  0  0  0  0  0  0  0  0
    0.2683    3.0113   -0.3464 C   0  0  0  0  0  0  0  0  0  0  0  0
   -6.2893    0.4745    1.0500 C   0  0  0  0  0  0  0  0  0  0  0  0
   -6.2992    1.6021    0.2278 C   0  0  0  0  0  0  0  0  0  0  0  0
    1.0573    2.2107   -2.8996 C   0  0  0  0  0  0  0  0  0  0  0  0
    1.3481    3.6358   -0.9706 C   0  0  0  0  0  0  0  0  0  0  0  0
    1.7427    3.2355   -2.2471 C   0  0  0  0  0  0  0  0  0  0  0  0
    1.4492   -2.2580    1.1573 H   0  0  0  0  0  0  0  0  0  0  0  0
    2.1400   -2.7811   -1.7844 H   0  0  0  0  0  0  0  0  0  0  0  0
    0.5776   -4.6541    0.0714 H   0  0  0  0  0  0  0  0  0  0  0  0
    3.7152   -2.1438    1.1080 H   0  0  0  0  0  0  0  0  0  0  0  0
    0.1840   -0.8975   -1.2596 H   0  0  0  0  0  0  0  0  0  0  0  0
    5.0172   -0.9897   -0.7446 H   0  0  0  0  0  0  0  0  0  0  0  0
   -0.5811   -2.9235   -2.2098 H   0  0  0  0  0  0  0  0  0  0  0  0
    4.0915    1.2837   -0.6061 H   0  0  0  0  0  0  0  0  0  0  0  0
    5.3041    1.4671    2.1978 H   0  0  0  0  0  0  0  0  0  0  0  0
    2.3259    1.2228    1.4253 H   0  0  0  0  0  0  0  0  0  0  0  0
   -1.9692   -4.7773   -0.2040 H   0  0  0  0  0  0  0  0  0  0  0  0
   -1.7258   -5.1303   -1.9315 H   0  0  0  0  0  0  0  0  0  0  0  0
    2.6826    2.5278    3.4964 H   0  0  0  0  0  0  0  0  0  0  0  0
    3.6965    1.2211    4.1543 H   0  0  0  0  0  0  0  0  0  0  0  0
    1.9868    0.9382    3.8630 H   0  0  0  0  0  0  0  0  0  0  0  0
    3.1505   -4.5740   -0.8274 H   0  0  0  0  0  0  0  0  0  0  0  0
    1.0254   -4.6076   -2.7395 H   0  0  0  0  0  0  0  0  0  0  0  0
    5.7167   -0.7352    2.0007 H   0  0  0  0  0  0  0  0  0  0  0  0
    6.7541    1.1345    0.3642 H   0  0  0  0  0  0  0  0  0  0  0  0
    4.2169    3.4099    2.1804 H   0  0  0  0  0  0  0  0  0  0  0  0
   -3.0735   -2.8764   -0.8415 H   0  0  0  0  0  0  0  0  0  0  0  0
   -5.1102    2.9619   -0.9546 H   0  0  0  0  0  0  0  0  0  0  0  0
   -0.5525    0.7964   -2.8024 H   0  0  0  0  0  0  0  0  0  0  0  0
   -0.0263    3.3331    0.6496 H   0  0  0  0  0  0  0  0  0  0  0  0
   -7.2261    0.1103    1.4654 H   0  0  0  0  0  0  0  0  0  0  0  0
    1.3588    1.8956   -3.8947 H   0  0  0  0  0  0  0  0  0  0  0  0
    1.8749    4.4315   -0.4508 H   0  0  0  0  0  0  0  0  0  0  0  0
   -6.0539   -1.4378    2.4105 H   0  0  0  0  0  0  0  0  0  0  0  0
   -7.2963    2.9916   -0.6285 H   0  0  0  0  0  0  0  0  0  0  0  0
    3.1533    4.5260   -2.2612 H   0  0  0  0  0  0  0  0  0  0  0  0
  1 16  1  0  0  0  0
  1 19  1  0  0  0  0
  2 20  1  0  0  0  0
  2 22  1  0  0  0  0
  3 19  1  0  0  0  0
  3 25  1  0  0  0  0
  4 20  1  0  0  0  0
  4 28  1  0  0  0  0
  5 17  1  0  0  0  0
  5 58  1  0  0  0  0
  6 18  1  0  0  0  0
  6 59  1  0  0  0  0
  7 21  1  0  0  0  0
  7 60  1  0  0  0  0
  8 23  1  0  0  0  0
  8 61  1  0  0  0  0
  9 24  1  0  0  0  0
  9 62  1  0  0  0  0
 10 26  1  0  0  0  0
 10 63  1  0  0  0  0
 11 29  1  0  0  0  0
 11 33  1  0  0  0  0
 12 30  2  0  0  0  0
 13 34  1  0  0  0  0
 13 70  1  0  0  0  0
 14 39  1  0  0  0  0
 14 71  1  0  0  0  0
 15 42  1  0  0  0  0
 15 72  1  0  0  0  0
 16 17  1  0  0  0  0
 16 20  1  0  0  0  0
 16 43  1  0  0  0  0
 17 18  1  0  0  0  0
 17 44  1  0  0  0  0
 18 22  1  0  0  0  0
 18 45  1  0  0  0  0
 19 21  1  0  0  0  0
 19 46  1  0  0  0  0
 20 47  1  0  0  0  0
 21 23  1  0  0  0  0
 21 48  1  0  0  0  0
 22 26  1  0  0  0  0
 22 49  1  0  0  0  0
 23 24  1  0  0  0  0
 23 50  1  0  0  0  0
 24 25  1  0  0  0  0
 24 51  1  0  0  0  0
 25 27  1  0  0  0  0
 25 52  1  0  0  0  0
 26 53  1  0  0  0  0
 26 54  1  0  0  0  0
 27 55  1  0  0  0  0
 27 56  1  0  0  0  0
 27 57  1  0  0  0  0
 28 29  2  0  0  0  0
 28 30  1  0  0  0  0
 29 32  1  0  0  0  0
 30 31  1  0  0  0  0
 31 33  1  0  0  0  0
 31 34  2  0  0  0  0
 32 36  2  0  0  0  0
 32 37  1  0  0  0  0
 33 35  2  0  0  0  0
 34 38  1  0  0  0  0
 35 39  1  0  0  0  0
 35 64  1  0  0  0  0
 36 40  1  0  0  0  0
 36 65  1  0  0  0  0
 37 41  2  0  0  0  0
 37 66  1  0  0  0  0
 38 39  2  0  0  0  0
 38 67  1  0  0  0  0
 40 42  2  0  0  0  0
 40 68  1  0  0  0  0
 41 42  1  0  0  0  0
 41 69  1  0  0  0  0
M  END
> <PUBCHEM_COMPOUND_CID>
5318761

> <PUBCHEM_CONFORMER_RMSD>
1

> <PUBCHEM_CONFORMER_DIVERSEORDER>
1
83
118
143
35
50
122
29
49
93
153
101
67
38
89
114
40
62
131
70
119
129
108
85
80
54
137
148
9
139
147
86
126
65
136
91
102
84
63
33
79
132
105
48
127
2
20
58
103
43
42
77
98
141
120
71
123
106
76
7
134
130
116
61
87
133
3
69
47
73
66
145
36
115
151
53
94
78
26
140
64
60
142
149
81
99
55
46
52
15
75
34
24
100
32
125
121
28
109
56
135
51
95
146
144
5
39
31
59
16
92
6
74
30
113
96
44
152
37
112
82
57
110
97
19
11
14
128
13
21
138
124
88
12
27
68
22
25
111
10
72
107
18
150
23
104
17
8
4
41
45
117
90

> <PUBCHEM_MMFF94_PARTIAL_CHARGES>
56
1 -0.56
10 -0.68
11 -0.16
12 -0.57
13 -0.53
14 -0.53
15 -0.53
16 0.28
17 0.28
18 0.28
19 0.56
2 -0.56
20 0.56
21 0.28
22 0.28
23 0.28
24 0.28
25 0.28
26 0.28
28 0.09
29 0.05
3 -0.56
30 0.47
31 0.09
32 0.03
33 0.08
34 0.08
35 -0.15
36 -0.15
37 -0.15
38 -0.15
39 0.08
4 -0.36
40 -0.15
41 -0.15
42 0.08
5 -0.68
58 0.4
59 0.4
6 -0.68
60 0.4
61 0.4
62 0.4
63 0.4
64 0.15
65 0.15
66 0.15
67 0.15
68 0.15
69 0.15
7 -0.68
70 0.45
71 0.45
72 0.45
8 -0.68
9 -0.68

> <PUBCHEM_EFFECTIVE_ROTOR_COUNT>
8.4

> <PUBCHEM_PHARMACOPHORE_FEATURES>
26
1 1 acceptor
1 10 acceptor
1 10 donor
1 11 acceptor
1 12 acceptor
1 13 donor
1 14 donor
1 15 donor
1 2 acceptor
1 3 acceptor
1 4 acceptor
1 5 acceptor
1 5 donor
1 6 acceptor
1 6 donor
1 7 acceptor
1 7 donor
1 8 acceptor
1 8 donor
1 9 acceptor
1 9 donor
6 11 28 29 30 31 33 rings
6 2 16 17 18 20 22 rings
6 3 19 21 23 24 25 rings
6 31 33 34 35 38 39 rings
6 32 36 37 40 41 42 rings

> <PUBCHEM_HEAVY_ATOM_COUNT>
42

> <PUBCHEM_ATOM_DEF_STEREO_COUNT>
10

> <PUBCHEM_ATOM_UDEF_STEREO_COUNT>
0

> <PUBCHEM_BOND_DEF_STEREO_COUNT>
0

> <PUBCHEM_BOND_UDEF_STEREO_COUNT>
0

> <PUBCHEM_ISOTOPIC_ATOM_COUNT>
0

> <PUBCHEM_COMPONENT_COUNT>
1

> <PUBCHEM_CACTVS_TAUTO_COUNT>
57

> <PUBCHEM_CONFORMER_ID>
0051286900000001

> <PUBCHEM_MMFF94_ENERGY>
133.7669

> <PUBCHEM_FEATURE_SELFOVERLAP>
132.124

> <PUBCHEM_SHAPE_FINGERPRINT>
10165383 225 18342454816833215800
10653451 467 17972022666071652981
11093857 51 18194429769087213358
11115154 58 16838776102105921015
11578080 2 14831670375565968339
12128747 34 17984417439229482545
12156800 1 17770797993465400982
12422481 6 18187086186981228957
12788726 201 17546734110824961023
13111901 51 18268981167677347773
1361 2 18340483370735574279
13636023 51 18262798436999610275
14004853 49 18126021570627989331
140371 6 18191320290454140881
14725015 67 17685773524000000035
14840074 17 18334008419272788181
14955137 171 18333736814184242596
15297060 5 18201162147930322906
15324884 4 18191860128934951655
15420108 30 18191869139724098180
15775530 1 17327729605312522333
15840311 113 17769946671657237225
15927050 60 17905056094527936820
18365409 1 18129368449805938343
19309040 13 16771242959682398976
1979834 28 18410858720161593233
20775438 99 17035814783050667973
21033648 29 18271513273609203784
2260408 40 18124905398996152505
23559900 14 18189352190457269671
25019877 29 17988636377029902262
27425 322 17131250480775163592
3493558 16 17625544484511752681
394071 54 18263653887664614097
4017518 198 18272660051943000422
463206 1 16750139113723422318
469060 322 17825638266473642994
57527306 92 17313402110552804774
581034 39 18198346354096162863
7399639 24 17978218362248133302

> <PUBCHEM_SHAPE_MULTIPOLES>
776.3
12.55
5.79
2.47
11.14
5.49
0.11
-6.65
6.64
-2.01
-4.71
-1.82
-1.38
-0.07

> <PUBCHEM_SHAPE_SELFOVERLAP>
1691.311

> <PUBCHEM_SHAPE_VOLUME>
415.9

> <PUBCHEM_COORDINATE_TYPE>
2
5
10

$$$$
