101426597
  -OEChem-09182001392D

169177  0     1  0  0  0  0  0999 V2000
   11.3319   11.3434    0.0000 S   0  0  0  0  0  0  0  0  0  0  0  0
   10.4601   10.8534    0.0000 O   0  0  0  0  0  0  0  0  0  0  0  0
    7.5844    3.8077    0.0000 O   0  0  0  0  0  0  0  0  0  0  0  0
    8.5991    1.5949    0.0000 O   0  0  0  0  0  0  0  0  0  0  0  0
    7.6143    2.4212    0.0000 O   0  0  0  0  0  0  0  0  0  0  0  0
   12.2036   11.8333    0.0000 O   0  5  0  0  0  0  0  0  0  0  0  0
   10.8419   12.2151    0.0000 O   0  0  0  0  0  0  0  0  0  0  0  0
   11.8218   10.4716    0.0000 O   0  0  0  0  0  0  0  0  0  0  0  0
    7.7331    0.0949    0.0000 O   0  0  0  0  0  0  0  0  0  0  0  0
    6.8671    2.5949    0.0000 O   0  0  0  0  0  0  0  0  0  0  0  0
    5.1350    1.5949    0.0000 O   0  0  0  0  0  0  0  0  0  0  0  0
    5.1350   -0.4051    0.0000 O   0  0  0  0  0  0  0  0  0  0  0  0
    7.7331   -1.9051    0.0000 O   0  0  0  0  0  0  0  0  0  0  0  0
    6.8671   -3.4051    0.0000 O   0  0  0  0  0  0  0  0  0  0  0  0
    9.4651   -2.9051    0.0000 O   0  0  0  0  0  0  0  0  0  0  0  0
    9.4651   -4.9051    0.0000 O   0  0  0  0  0  0  0  0  0  0  0  0
    7.7331   -5.9051    0.0000 O   0  0  0  0  0  0  0  0  0  0  0  0
    6.0010   -5.9051    0.0000 O   0  0  0  0  0  0  0  0  0  0  0  0
    4.2690   -5.9051    0.0000 O   0  0  0  0  0  0  0  0  0  0  0  0
    6.0010   -7.9051    0.0000 O   0  0  0  0  0  0  0  0  0  0  0  0
    4.2690   -8.9051    0.0000 O   0  0  0  0  0  0  0  0  0  0  0  0
    2.5369   -7.9051    0.0000 O   0  0  0  0  0  0  0  0  0  0  0  0
    5.1350   -9.4051    0.0000 O   0  0  0  0  0  0  0  0  0  0  0  0
    7.7331   -8.9051    0.0000 O   0  0  0  0  0  0  0  0  0  0  0  0
    2.5369   -4.9051    0.0000 O   0  0  0  0  0  0  0  0  0  0  0  0
    7.7331  -10.9051    0.0000 O   0  0  0  0  0  0  0  0  0  0  0  0
    6.0010  -11.9051    0.0000 O   0  0  0  0  0  0  0  0  0  0  0  0
    4.2690  -11.9051    0.0000 O   0  0  0  0  0  0  0  0  0  0  0  0
    9.5048    6.1639    0.0000 C   0  0  2  0  0  0  0  0  0  0  0  0
   10.3746    6.6572    0.0000 C   0  0  1  0  0  0  0  0  0  0  0  0
   10.3987    7.6986    0.0000 C   0  0  2  0  0  0  0  0  0  0  0  0
    9.4970    5.1640    0.0000 C   0  0  1  0  0  0  0  0  0  0  0  0
    9.5048    8.2332    0.0000 C   0  0  1  0  0  0  0  0  0  0  0  0
    8.5987    6.6778    0.0000 C   0  0  0  0  0  0  0  0  0  0  0  0
   10.3592    4.6573    0.0000 C   0  0  0  0  0  0  0  0  0  0  0  0
    8.5987    7.7194    0.0000 C   0  0  0  0  0  0  0  0  0  0  0  0
    9.5048    9.3183    0.0000 C   0  0  0  0  0  0  0  0  0  0  0  0
   10.3672    3.6157    0.0000 C   0  0  1  0  0  0  0  0  0  0  0  0
   11.2368    6.1506    0.0000 C   0  0  0  0  0  0  0  0  0  0  0  0
    8.5832    4.6641    0.0000 C   0  0  0  0  0  0  0  0  0  0  0  0
   11.3546    8.2119    0.0000 C   0  0  0  0  0  0  0  0  0  0  0  0
    9.4651    3.0949    0.0000 C   0  0  1  0  0  0  0  0  0  0  0  0
    8.5671    3.6226    0.0000 C   0  0  2  0  0  0  0  0  0  0  0  0
    8.5186    5.9979    0.0000 C   0  0  0  0  0  0  0  0  0  0  0  0
   10.4485    9.8535    0.0000 C   0  0  2  0  0  0  0  0  0  0  0  0
   11.2290    5.1506    0.0000 C   0  0  0  0  0  0  0  0  0  0  0  0
   11.2569    7.1853    0.0000 C   0  0  0  0  0  0  0  0  0  0  0  0
   11.3797    9.2966    0.0000 C   0  0  0  0  0  0  0  0  0  0  0  0
    8.5136    5.3452    0.0000 C   0  0  0  0  0  0  0  0  0  0  0  0
   11.3151    3.0878    0.0000 C   0  0  0  0  0  0  0  0  0  0  0  0
    9.4484    2.0100    0.0000 C   0  0  0  0  0  0  0  0  0  0  0  0
   11.3235    2.0028    0.0000 C   0  0  0  0  0  0  0  0  0  0  0  0
    9.0081   10.1862    0.0000 C   0  0  0  0  0  0  0  0  0  0  0  0
    8.5048    9.3221    0.0000 C   0  0  0  0  0  0  0  0  0  0  0  0
   10.3838    1.4603    0.0000 C   0  0  0  0  0  0  0  0  0  0  0  0
    8.5991    2.5949    0.0000 C   0  0  0  0  0  0  0  0  0  0  0  0
   12.3235    2.0066    0.0000 C   0  0  0  0  0  0  0  0  0  0  0  0
   11.8268    1.1387    0.0000 C   0  0  0  0  0  0  0  0  0  0  0  0
    7.7331    1.0949    0.0000 C   0  0  2  0  0  0  0  0  0  0  0  0
    6.8671    1.5949    0.0000 C   0  0  1  0  0  0  0  0  0  0  0  0
    6.0010    1.0949    0.0000 C   0  0  2  0  0  0  0  0  0  0  0  0
    6.8671   -0.4051    0.0000 C   0  0  1  0  0  0  0  0  0  0  0  0
    6.0010    0.0949    0.0000 C   0  0  1  0  0  0  0  0  0  0  0  0
    6.8671   -1.4051    0.0000 C   0  0  0  0  0  0  0  0  0  0  0  0
    7.7331   -2.9051    0.0000 C   0  0  2  0  0  0  0  0  0  0  0  0
    8.5991   -3.4051    0.0000 C   0  0  1  0  0  0  0  0  0  0  0  0
    8.5991   -4.4051    0.0000 C   0  0  2  0  0  0  0  0  0  0  0  0
    6.8671   -4.4051    0.0000 C   0  0  1  0  0  0  0  0  0  0  0  0
    7.7331   -4.9051    0.0000 C   0  0  1  0  0  0  0  0  0  0  0  0
    6.0010   -4.9051    0.0000 C   0  0  0  0  0  0  0  0  0  0  0  0
    5.1350   -6.4051    0.0000 C   0  0  2  0  0  0  0  0  0  0  0  0
    5.1350   -7.4051    0.0000 C   0  0  1  0  0  0  0  0  0  0  0  0
    4.2690   -7.9051    0.0000 C   0  0  2  0  0  0  0  0  0  0  0  0
    3.4030   -6.4051    0.0000 C   0  0  1  0  0  0  0  0  0  0  0  0
    3.4030   -7.4051    0.0000 C   0  0  1  0  0  0  0  0  0  0  0  0
    6.0010   -8.9051    0.0000 C   0  0  2  0  0  0  0  0  0  0  0  0
    2.5369   -5.9051    0.0000 C   0  0  0  0  0  0  0  0  0  0  0  0
    6.8671   -9.4051    0.0000 C   0  0  1  0  0  0  0  0  0  0  0  0
    6.8671  -10.4051    0.0000 C   0  0  2  0  0  0  0  0  0  0  0  0
    6.0010  -10.9051    0.0000 C   0  0  1  0  0  0  0  0  0  0  0  0
    5.1350  -10.4051    0.0000 C   0  0  1  0  0  0  0  0  0  0  0  0
    4.2690  -10.9051    0.0000 C   0  0  0  0  0  0  0  0  0  0  0  0
   11.1172    7.0708    0.0000 H   0  0  0  0  0  0  0  0  0  0  0  0
    8.7703    8.6611    0.0000 H   0  0  0  0  0  0  0  0  0  0  0  0
    7.9878    6.7839    0.0000 H   0  0  0  0  0  0  0  0  0  0  0  0
    8.3896    6.0941    0.0000 H   0  0  0  0  0  0  0  0  0  0  0  0
    8.3896    8.3031    0.0000 H   0  0  0  0  0  0  0  0  0  0  0  0
    7.9878    7.6133    0.0000 H   0  0  0  0  0  0  0  0  0  0  0  0
   11.0984    4.0492    0.0000 H   0  0  0  0  0  0  0  0  0  0  0  0
   11.8465    6.0382    0.0000 H   0  0  0  0  0  0  0  0  0  0  0  0
   11.4533    6.7315    0.0000 H   0  0  0  0  0  0  0  0  0  0  0  0
    8.3831    5.2510    0.0000 H   0  0  0  0  0  0  0  0  0  0  0  0
    7.9707    4.5675    0.0000 H   0  0  0  0  0  0  0  0  0  0  0  0
   11.5501    7.6235    0.0000 H   0  0  0  0  0  0  0  0  0  0  0  0
   11.9678    8.3038    0.0000 H   0  0  0  0  0  0  0  0  0  0  0  0
    8.3494    3.0421    0.0000 H   0  0  0  0  0  0  0  0  0  0  0  0
    8.4157    6.6093    0.0000 H   0  0  0  0  0  0  0  0  0  0  0  0
    7.9072    5.8950    0.0000 H   0  0  0  0  0  0  0  0  0  0  0  0
    8.6216    5.3865    0.0000 H   0  0  0  0  0  0  0  0  0  0  0  0
   10.9896   10.1562    0.0000 H   0  0  0  0  0  0  0  0  0  0  0  0
   11.7636    4.8365    0.0000 H   0  0  0  0  0  0  0  0  0  0  0  0
   10.9387    6.6532    0.0000 H   0  0  0  0  0  0  0  0  0  0  0  0
   11.7890    6.8671    0.0000 H   0  0  0  0  0  0  0  0  0  0  0  0
   11.5751    7.7174    0.0000 H   0  0  0  0  0  0  0  0  0  0  0  0
   11.9879    9.1764    0.0000 H   0  0  0  0  0  0  0  0  0  0  0  0
   11.6022    9.8753    0.0000 H   0  0  0  0  0  0  0  0  0  0  0  0
    8.6260    5.9549    0.0000 H   0  0  0  0  0  0  0  0  0  0  0  0
    7.9039    5.4576    0.0000 H   0  0  0  0  0  0  0  0  0  0  0  0
    8.4012    4.7355    0.0000 H   0  0  0  0  0  0  0  0  0  0  0  0
   11.9268    2.9864    0.0000 H   0  0  0  0  0  0  0  0  0  0  0  0
   11.5197    3.6730    0.0000 H   0  0  0  0  0  0  0  0  0  0  0  0
    8.8393    2.1255    0.0000 H   0  0  0  0  0  0  0  0  0  0  0  0
    9.2304    1.4296    0.0000 H   0  0  0  0  0  0  0  0  0  0  0  0
    9.5462   10.4941    0.0000 H   0  0  0  0  0  0  0  0  0  0  0  0
    8.7002   10.7243    0.0000 H   0  0  0  0  0  0  0  0  0  0  0  0
    8.4700    9.8783    0.0000 H   0  0  0  0  0  0  0  0  0  0  0  0
    8.5072    9.9421    0.0000 H   0  0  0  0  0  0  0  0  0  0  0  0
    7.8848    9.3245    0.0000 H   0  0  0  0  0  0  0  0  0  0  0  0
    8.5024    8.7021    0.0000 H   0  0  0  0  0  0  0  0  0  0  0  0
    9.9829    0.9874    0.0000 H   0  0  0  0  0  0  0  0  0  0  0  0
   10.7811    0.9843    0.0000 H   0  0  0  0  0  0  0  0  0  0  0  0
    7.3791    4.3928    0.0000 H   0  0  0  0  0  0  0  0  0  0  0  0
   12.3258    1.3866    0.0000 H   0  0  0  0  0  0  0  0  0  0  0  0
   12.9435    2.0090    0.0000 H   0  0  0  0  0  0  0  0  0  0  0  0
   12.3211    2.6266    0.0000 H   0  0  0  0  0  0  0  0  0  0  0  0
   11.2911    0.8266    0.0000 H   0  0  0  0  0  0  0  0  0  0  0  0
   12.1389    0.6030    0.0000 H   0  0  0  0  0  0  0  0  0  0  0  0
   12.3625    1.4508    0.0000 H   0  0  0  0  0  0  0  0  0  0  0  0
    7.7331    1.7149    0.0000 H   0  0  0  0  0  0  0  0  0  0  0  0
    6.3301    1.9049    0.0000 H   0  0  0  0  0  0  0  0  0  0  0  0
    6.0010    1.7149    0.0000 H   0  0  0  0  0  0  0  0  0  0  0  0
    7.4040   -0.7151    0.0000 H   0  0  0  0  0  0  0  0  0  0  0  0
    5.4641    0.4049    0.0000 H   0  0  0  0  0  0  0  0  0  0  0  0
    6.3301    2.9049    0.0000 H   0  0  0  0  0  0  0  0  0  0  0  0
    6.2565   -1.2975    0.0000 H   0  0  0  0  0  0  0  0  0  0  0  0
    6.6550   -1.9877    0.0000 H   0  0  0  0  0  0  0  0  0  0  0  0
    5.1350    2.2149    0.0000 H   0  0  0  0  0  0  0  0  0  0  0  0
    4.5981   -0.0951    0.0000 H   0  0  0  0  0  0  0  0  0  0  0  0
    7.1962   -2.5951    0.0000 H   0  0  0  0  0  0  0  0  0  0  0  0
    8.5991   -2.7851    0.0000 H   0  0  0  0  0  0  0  0  0  0  0  0
    9.1360   -4.0951    0.0000 H   0  0  0  0  0  0  0  0  0  0  0  0
    6.3301   -4.0951    0.0000 H   0  0  0  0  0  0  0  0  0  0  0  0
    8.2700   -5.2151    0.0000 H   0  0  0  0  0  0  0  0  0  0  0  0
    9.4651   -2.2851    0.0000 H   0  0  0  0  0  0  0  0  0  0  0  0
    5.7890   -4.3225    0.0000 H   0  0  0  0  0  0  0  0  0  0  0  0
    5.3905   -5.0128    0.0000 H   0  0  0  0  0  0  0  0  0  0  0  0
   10.0021   -4.5951    0.0000 H   0  0  0  0  0  0  0  0  0  0  0  0
    8.2700   -6.2151    0.0000 H   0  0  0  0  0  0  0  0  0  0  0  0
    5.1350   -5.7851    0.0000 H   0  0  0  0  0  0  0  0  0  0  0  0
    5.1350   -8.0251    0.0000 H   0  0  0  0  0  0  0  0  0  0  0  0
    3.7320   -8.2151    0.0000 H   0  0  0  0  0  0  0  0  0  0  0  0
    3.4030   -5.7851    0.0000 H   0  0  0  0  0  0  0  0  0  0  0  0
    3.4030   -8.0251    0.0000 H   0  0  0  0  0  0  0  0  0  0  0  0
    6.5380   -8.5951    0.0000 H   0  0  0  0  0  0  0  0  0  0  0  0
    1.9264   -5.7975    0.0000 H   0  0  0  0  0  0  0  0  0  0  0  0
    2.3249   -6.4877    0.0000 H   0  0  0  0  0  0  0  0  0  0  0  0
    7.4040   -9.7151    0.0000 H   0  0  0  0  0  0  0  0  0  0  0  0
    6.8671  -11.0251    0.0000 H   0  0  0  0  0  0  0  0  0  0  0  0
    3.7320   -9.2151    0.0000 H   0  0  0  0  0  0  0  0  0  0  0  0
    6.5380  -11.2151    0.0000 H   0  0  0  0  0  0  0  0  0  0  0  0
    4.5981  -10.0951    0.0000 H   0  0  0  0  0  0  0  0  0  0  0  0
    2.0000   -7.5951    0.0000 H   0  0  0  0  0  0  0  0  0  0  0  0
    4.0569  -10.3225    0.0000 H   0  0  0  0  0  0  0  0  0  0  0  0
    3.6584  -11.0128    0.0000 H   0  0  0  0  0  0  0  0  0  0  0  0
    7.7331   -8.2851    0.0000 H   0  0  0  0  0  0  0  0  0  0  0  0
    2.0000   -4.5951    0.0000 H   0  0  0  0  0  0  0  0  0  0  0  0
    8.2700  -10.5951    0.0000 H   0  0  0  0  0  0  0  0  0  0  0  0
    6.5380  -12.2151    0.0000 H   0  0  0  0  0  0  0  0  0  0  0  0
    3.7320  -12.2151    0.0000 H   0  0  0  0  0  0  0  0  0  0  0  0
  1  2  1  0  0  0  0
  1  6  1  0  0  0  0
  1  7  2  0  0  0  0
  1  8  2  0  0  0  0
 45  2  1  1  0  0  0
 43  3  1  6  0  0  0
  3122  1  0  0  0  0
  4 56  1  0  0  0  0
 59  4  1  6  0  0  0
  5 56  2  0  0  0  0
  9 59  1  0  0  0  0
  9 62  1  0  0  0  0
 60 10  1  1  0  0  0
 10134  1  0  0  0  0
 61 11  1  6  0  0  0
 11137  1  0  0  0  0
 63 12  1  1  0  0  0
 12138  1  0  0  0  0
 13 64  1  0  0  0  0
 65 13  1  1  0  0  0
 14 65  1  0  0  0  0
 14 68  1  0  0  0  0
 66 15  1  6  0  0  0
 15144  1  0  0  0  0
 67 16  1  1  0  0  0
 16147  1  0  0  0  0
 69 17  1  6  0  0  0
 17148  1  0  0  0  0
 18 70  1  0  0  0  0
 71 18  1  1  0  0  0
 19 71  1  0  0  0  0
 19 74  1  0  0  0  0
 72 20  1  6  0  0  0
 76 20  1  1  0  0  0
 73 21  1  1  0  0  0
 21159  1  0  0  0  0
 75 22  1  6  0  0  0
 22162  1  0  0  0  0
 23 76  1  0  0  0  0
 23 81  1  0  0  0  0
 78 24  1  6  0  0  0
 24165  1  0  0  0  0
 25 77  1  0  0  0  0
 25166  1  0  0  0  0
 79 26  1  1  0  0  0
 26167  1  0  0  0  0
 80 27  1  6  0  0  0
 27168  1  0  0  0  0
 28 82  1  0  0  0  0
 28169  1  0  0  0  0
 29 30  1  0  0  0  0
 29 32  1  0  0  0  0
 29 34  1  0  0  0  0
 29 44  1  1  0  0  0
 30 31  1  0  0  0  0
 30 39  1  0  0  0  0
 30 83  1  6  0  0  0
 31 33  1  0  0  0  0
 31 41  1  0  0  0  0
 31 47  1  1  0  0  0
 32 35  1  0  0  0  0
 32 40  1  0  0  0  0
 32 49  1  6  0  0  0
 33 36  1  0  0  0  0
 33 37  1  0  0  0  0
 33 84  1  6  0  0  0
 34 36  1  0  0  0  0
 34 85  1  0  0  0  0
 34 86  1  0  0  0  0
 35 38  1  0  0  0  0
 35 46  2  0  0  0  0
 36 87  1  0  0  0  0
 36 88  1  0  0  0  0
 37 45  1  0  0  0  0
 37 53  1  0  0  0  0
 37 54  1  0  0  0  0
 38 42  1  0  0  0  0
 38 50  1  0  0  0  0
 38 89  1  1  0  0  0
 39 46  1  0  0  0  0
 39 90  1  0  0  0  0
 39 91  1  0  0  0  0
 40 43  1  0  0  0  0
 40 92  1  0  0  0  0
 40 93  1  0  0  0  0
 41 48  1  0  0  0  0
 41 94  1  0  0  0  0
 41 95  1  0  0  0  0
 42 43  1  0  0  0  0
 42 51  1  0  0  0  0
 42 56  1  1  0  0  0
 43 96  1  0  0  0  0
 44 97  1  0  0  0  0
 44 98  1  0  0  0  0
 44 99  1  0  0  0  0
 45 48  1  0  0  0  0
 45100  1  0  0  0  0
 46101  1  0  0  0  0
 47102  1  0  0  0  0
 47103  1  0  0  0  0
 47104  1  0  0  0  0
 48105  1  0  0  0  0
 48106  1  0  0  0  0
 49107  1  0  0  0  0
 49108  1  0  0  0  0
 49109  1  0  0  0  0
 50 52  1  0  0  0  0
 50110  1  0  0  0  0
 50111  1  0  0  0  0
 51 55  1  0  0  0  0
 51112  1  0  0  0  0
 51113  1  0  0  0  0
 52 55  1  0  0  0  0
 52 57  1  0  0  0  0
 52 58  1  0  0  0  0
 53114  1  0  0  0  0
 53115  1  0  0  0  0
 53116  1  0  0  0  0
 54117  1  0  0  0  0
 54118  1  0  0  0  0
 54119  1  0  0  0  0
 55120  1  0  0  0  0
 55121  1  0  0  0  0
 57123  1  0  0  0  0
 57124  1  0  0  0  0
 57125  1  0  0  0  0
 58126  1  0  0  0  0
 58127  1  0  0  0  0
 58128  1  0  0  0  0
 59 60  1  0  0  0  0
 59129  1  0  0  0  0
 60 61  1  0  0  0  0
 60130  1  0  0  0  0
 61 63  1  0  0  0  0
 61131  1  0  0  0  0
 62 63  1  0  0  0  0
 62 64  1  6  0  0  0
 62132  1  0  0  0  0
 63133  1  0  0  0  0
 64135  1  0  0  0  0
 64136  1  0  0  0  0
 65 66  1  0  0  0  0
 65139  1  0  0  0  0
 66 67  1  0  0  0  0
 66140  1  0  0  0  0
 67 69  1  0  0  0  0
 67141  1  0  0  0  0
 68 69  1  0  0  0  0
 68 70  1  1  0  0  0
 68142  1  0  0  0  0
 69143  1  0  0  0  0
 70145  1  0  0  0  0
 70146  1  0  0  0  0
 71 72  1  0  0  0  0
 71149  1  0  0  0  0
 72 73  1  0  0  0  0
 72150  1  0  0  0  0
 73 75  1  0  0  0  0
 73151  1  0  0  0  0
 74 75  1  0  0  0  0
 74 77  1  1  0  0  0
 74152  1  0  0  0  0
 75153  1  0  0  0  0
 76 78  1  0  0  0  0
 76154  1  0  0  0  0
 77155  1  0  0  0  0
 77156  1  0  0  0  0
 78 79  1  0  0  0  0
 78157  1  0  0  0  0
 79 80  1  0  0  0  0
 79158  1  0  0  0  0
 80 81  1  0  0  0  0
 80160  1  0  0  0  0
 81 82  1  1  0  0  0
 81161  1  0  0  0  0
 82163  1  0  0  0  0
 82164  1  0  0  0  0
M  CHG  1   6  -1
M  END
> <PUBCHEM_COMPOUND_CID>
101426597

> <PUBCHEM_COMPOUND_CANONICALIZED>
1

> <PUBCHEM_CACTVS_COMPLEXITY>
2400

> <PUBCHEM_CACTVS_HBOND_ACCEPTOR>
27

> <PUBCHEM_CACTVS_HBOND_DONOR>
14

> <PUBCHEM_CACTVS_ROTATABLE_BOND>
14

> <PUBCHEM_CACTVS_SUBSKEYS>
AAADcfB8PgBAAAAAAAAAAAAAAAAAAAAAAAA0aNGiAAAAAADAAAAAGgAACAAADxSwgAMCCAAABgCIAiDSCDAAAAAgAAAACAEAAAgREBYAAQAiQAAFoAAPAAPI6PyPgAAAAAAAAADAAAYAADAAAAAAAAAAAA==

> <PUBCHEM_IUPAC_OPENEYE_NAME>
[(3S,4aR,6aR,6bS,8R,8aR,12aS,14aR,14bR)-8a-[(2S,3R,4S,5S,6R)-6-[[(2R,3R,4S,5S,6R)-6-[[(2R,3R,4S,5S,6R)-4,5-dihydroxy-6-(hydroxymethyl)-3-[(2S,3R,4S,5S,6R)-3,4,5-trihydroxy-6-(hydroxymethyl)tetrahydropyran-2-yl]oxy-tetrahydropyran-2-yl]oxymethyl]-3,4,5-trihydroxy-tetrahydropyran-2-yl]oxymethyl]-3,4,5-trihydroxy-tetrahydropyran-2-yl]oxycarbonyl-8-hydroxy-4,4,6a,6b,11,11,14b-heptamethyl-1,2,3,4a,5,6,7,8,9,10,12,12a,14,14a-tetradecahydropicen-3-yl] sulfate

> <PUBCHEM_IUPAC_CAS_NAME>
[(3S,4aR,6aR,6bS,8R,8aR,12aS,14aR,14bR)-8a-[[(2S,3R,4S,5S,6R)-6-[[(2R,3R,4S,5S,6R)-6-[[(2R,3R,4S,5S,6R)-4,5-dihydroxy-6-(hydroxymethyl)-3-[[(2S,3R,4S,5S,6R)-3,4,5-trihydroxy-6-(hydroxymethyl)-2-oxanyl]oxy]-2-oxanyl]oxymethyl]-3,4,5-trihydroxy-2-oxanyl]oxymethyl]-3,4,5-trihydroxy-2-oxanyl]oxy-oxomethyl]-8-hydroxy-4,4,6a,6b,11,11,14b-heptamethyl-1,2,3,4a,5,6,7,8,9,10,12,12a,14,14a-tetradecahydropicen-3-yl] sulfate

> <PUBCHEM_IUPAC_NAME_MARKUP>
[(3<I>S</I>,4<I>a</I><I>R</I>,6<I>a</I><I>R</I>,6<I>b</I><I>S</I>,8<I>R</I>,8<I>a</I><I>R</I>,12<I>a</I><I>S</I>,14<I>a</I><I>R</I>,14<I>b</I><I>R</I>)-8<I>a</I>-[(2<I>S</I>,3<I>R</I>,4<I>S</I>,5<I>S</I>,6<I>R</I>)-6-[[(2<I>R</I>,3<I>R</I>,4<I>S</I>,5<I>S</I>,6<I>R</I>)-6-[[(2<I>R</I>,3<I>R</I>,4<I>S</I>,5<I>S</I>,6<I>R</I>)-4,5-dihydroxy-6-(hydroxymethyl)-3-[(2<I>S</I>,3<I>R</I>,4<I>S</I>,5<I>S</I>,6<I>R</I>)-3,4,5-trihydroxy-6-(hydroxymethyl)oxan-2-yl]oxyoxan-2-yl]oxymethyl]-3,4,5-trihydroxyoxan-2-yl]oxymethyl]-3,4,5-trihydroxyoxan-2-yl]oxycarbonyl-8-hydroxy-4,4,6<I>a</I>,6<I>b</I>,11,11,14<I>b</I>-heptamethyl-1,2,3,4<I>a</I>,5,6,7,8,9,10,12,12<I>a</I>,14,14<I>a</I>-tetradecahydropicen-3-yl] sulfate

> <PUBCHEM_IUPAC_NAME>
[(3S,4aR,6aR,6bS,8R,8aR,12aS,14aR,14bR)-8a-[(2S,3R,4S,5S,6R)-6-[[(2R,3R,4S,5S,6R)-6-[[(2R,3R,4S,5S,6R)-4,5-dihydroxy-6-(hydroxymethyl)-3-[(2S,3R,4S,5S,6R)-3,4,5-trihydroxy-6-(hydroxymethyl)oxan-2-yl]oxyoxan-2-yl]oxymethyl]-3,4,5-trihydroxyoxan-2-yl]oxymethyl]-3,4,5-trihydroxyoxan-2-yl]oxycarbonyl-8-hydroxy-4,4,6a,6b,11,11,14b-heptamethyl-1,2,3,4a,5,6,7,8,9,10,12,12a,14,14a-tetradecahydropicen-3-yl] sulfate

> <PUBCHEM_IUPAC_SYSTEMATIC_NAME>
[(3S,4aR,6aR,6bS,8R,8aR,12aS,14aR,14bR)-8a-[(2S,3R,4S,5S,6R)-6-[[(2R,3R,4S,5S,6R)-6-[[(2R,3R,4S,5S,6R)-6-(hydroxymethyl)-3-[(2S,3R,4S,5S,6R)-6-(hydroxymethyl)-3,4,5-tris(oxidanyl)oxan-2-yl]oxy-4,5-bis(oxidanyl)oxan-2-yl]oxymethyl]-3,4,5-tris(oxidanyl)oxan-2-yl]oxymethyl]-3,4,5-tris(oxidanyl)oxan-2-yl]oxycarbonyl-4,4,6a,6b,11,11,14b-heptamethyl-8-oxidanyl-1,2,3,4a,5,6,7,8,9,10,12,12a,14,14a-tetradecahydropicen-3-yl] sulfate

> <PUBCHEM_IUPAC_TRADITIONAL_NAME>
[(3S,4aR,6aR,6bS,8R,8aR,12aS,14aR,14bR)-8a-[(2S,3R,4S,5S,6R)-6-[[(2R,3R,4S,5S,6R)-6-[[(2R,3R,4S,5S,6R)-4,5-dihydroxy-6-methylol-3-[(2S,3R,4S,5S,6R)-3,4,5-trihydroxy-6-methylol-tetrahydropyran-2-yl]oxy-tetrahydropyran-2-yl]oxymethyl]-3,4,5-trihydroxy-tetrahydropyran-2-yl]oxymethyl]-3,4,5-trihydroxy-tetrahydropyran-2-yl]oxycarbonyl-8-hydroxy-4,4,6a,6b,11,11,14b-heptamethyl-1,2,3,4a,5,6,7,8,9,10,12,12a,14,14a-tetradecahydropicen-3-yl] sulfate

> <PUBCHEM_IUPAC_INCHI>
InChI=1S/C54H88O27S/c1-49(2)14-15-54(23(16-49)22-8-9-29-51(5)12-11-31(81-82(70,71)72)50(3,4)28(51)10-13-52(29,6)53(22,7)17-30(54)57)48(69)80-46-42(68)38(64)35(61)27(78-46)20-73-44-40(66)37(63)34(60)26(77-44)21-74-47-43(39(65)33(59)25(19-56)76-47)79-45-41(67)36(62)32(58)24(18-55)75-45/h8,23-47,55-68H,9-21H2,1-7H3,(H,70,71,72)/p-1/t23-,24+,25+,26+,27+,28-,29+,30+,31-,32+,33+,34+,35+,36-,37-,38-,39-,40+,41+,42+,43+,44+,45-,46-,47+,51-,52+,53+,54+/m0/s1

> <PUBCHEM_IUPAC_INCHIKEY>
NROKGGXOAIGKEL-SSSPMTHXSA-M

> <PUBCHEM_XLOGP3_AA>
-1.3

> <PUBCHEM_EXACT_MASS>
1199.515544

> <PUBCHEM_MOLECULAR_FORMULA>
C54H87O27S-

> <PUBCHEM_MOLECULAR_WEIGHT>
1200.3

> <PUBCHEM_OPENEYE_CAN_SMILES>
CC1(CCC2(C(C1)C3=CCC4C5(CCC(C(C5CCC4(C3(CC2O)C)C)(C)C)OS(=O)(=O)[O-])C)C(=O)OC6C(C(C(C(O6)COC7C(C(C(C(O7)COC8C(C(C(C(O8)CO)O)O)OC9C(C(C(C(O9)CO)O)O)O)O)O)O)O)O)O)C

> <PUBCHEM_OPENEYE_ISO_SMILES>
C[C@]12CC[C@@H](C([C@@H]1CC[C@@]3([C@@H]2CC=C4[C@]3(C[C@H]([C@@]5([C@H]4CC(CC5)(C)C)C(=O)O[C@H]6[C@@H]([C@H]([C@@H]([C@H](O6)CO[C@H]7[C@@H]([C@H]([C@@H]([C@H](O7)CO[C@H]8[C@@H]([C@H]([C@@H]([C@H](O8)CO)O)O)O[C@H]9[C@@H]([C@H]([C@@H]([C@H](O9)CO)O)O)O)O)O)O)O)O)O)O)C)C)(C)C)OS(=O)(=O)[O-]

> <PUBCHEM_CACTVS_TPSA>
449

> <PUBCHEM_MONOISOTOPIC_WEIGHT>
1199.515544

> <PUBCHEM_TOTAL_CHARGE>
-1

> <PUBCHEM_HEAVY_ATOM_COUNT>
82

> <PUBCHEM_ATOM_DEF_STEREO_COUNT>
29

> <PUBCHEM_ATOM_UDEF_STEREO_COUNT>
0

> <PUBCHEM_BOND_DEF_STEREO_COUNT>
0

> <PUBCHEM_BOND_UDEF_STEREO_COUNT>
0

> <PUBCHEM_ISOTOPIC_ATOM_COUNT>
0

> <PUBCHEM_COMPONENT_COUNT>
1

> <PUBCHEM_CACTVS_TAUTO_COUNT>
-1

> <PUBCHEM_COORDINATE_TYPE>
1
5
255

> <PUBCHEM_BONDANNOTATIONS>
60  10  5
61  11  6
63  12  5
65  13  5
66  15  6
67  16  5
69  17  6
71  18  5
45  2  5
72  20  6
76  20  5
73  21  5
75  22  6
78  24  6
79  26  5
80  27  6
29  44  5
43  3  6
30  83  6
31  47  5
32  49  6
33  84  6
38  89  5
59  4  6
42  56  5
62  64  6
68  70  5
74  77  5
81  82  5

$$$$
