101093904
  -OEChem-09182001392D

142150  0     1  0  0  0  0  0999 V2000
    6.6437    4.8469    0.0000 O   0  0  0  0  0  0  0  0  0  0  0  0
    8.6673    6.1356    0.0000 O   0  0  0  0  0  0  0  0  0  0  0  0
    6.0010   -1.7536    0.0000 O   0  0  0  0  0  0  0  0  0  0  0  0
    4.2690   -1.7536    0.0000 O   0  0  0  0  0  0  0  0  0  0  0  0
    6.0010   -3.7536    0.0000 O   0  0  0  0  0  0  0  0  0  0  0  0
    4.2690   -4.7536    0.0000 O   0  0  0  0  0  0  0  0  0  0  0  0
    2.5369   -3.7536    0.0000 O   0  0  0  0  0  0  0  0  0  0  0  0
    5.1350   -5.2536    0.0000 O   0  0  0  0  0  0  0  0  0  0  0  0
    7.7331   -4.7536    0.0000 O   0  0  0  0  0  0  0  0  0  0  0  0
    7.7331   -6.7536    0.0000 O   0  0  0  0  0  0  0  0  0  0  0  0
    6.0010   -7.7536    0.0000 O   0  0  0  0  0  0  0  0  0  0  0  0
    8.5991   -6.2536    0.0000 O   0  0  0  0  0  0  0  0  0  0  0  0
    3.4030   -6.2536    0.0000 O   0  0  0  0  0  0  0  0  0  0  0  0
    9.4651   -3.7536    0.0000 O   0  0  0  0  0  0  0  0  0  0  0  0
   11.1972   -4.7536    0.0000 O   0  0  0  0  0  0  0  0  0  0  0  0
   11.1972   -6.7536    0.0000 O   0  0  0  0  0  0  0  0  0  0  0  0
    6.9276    4.1422    0.0000 C   0  0  2  0  0  0  0  0  0  0  0  0
    6.0635    4.6456    0.0000 C   0  0  2  0  0  0  0  0  0  0  0  0
    6.9396    3.1007    0.0000 C   0  0  1  0  0  0  0  0  0  0  0  0
    6.0673    5.6456    0.0000 C   0  0  1  0  0  0  0  0  0  0  0  0
    6.9353    6.1422    0.0000 C   0  0  2  0  0  0  0  0  0  0  0  0
    6.0396    2.5764    0.0000 C   0  0  1  0  0  0  0  0  0  0  0  0
    6.0270    1.4915    0.0000 C   0  0  2  0  0  0  0  0  0  0  0  0
    7.7955    4.6389    0.0000 C   0  0  0  0  0  0  0  0  0  0  0  0
    7.7994    5.6389    0.0000 C   0  0  1  0  0  0  0  0  0  0  0  0
    6.9645    0.9454    0.0000 C   0  0  1  0  0  0  0  0  0  0  0  0
    7.8895    2.5764    0.0000 C   0  0  0  0  0  0  0  0  0  0  0  0
    7.0463    5.5382    0.0000 C   0  0  0  0  0  0  0  0  0  0  0  0
    5.1593    6.1559    0.0000 C   0  0  0  0  0  0  0  0  0  0  0  0
    6.9554    7.1837    0.0000 C   0  0  0  0  0  0  0  0  0  0  0  0
    5.1515    4.1422    0.0000 C   0  0  0  0  0  0  0  0  0  0  0  0
    7.9021    1.4915    0.0000 C   0  0  0  0  0  0  0  0  0  0  0  0
    7.9117    3.9648    0.0000 C   0  0  0  0  0  0  0  0  0  0  0  0
    5.1395    3.1007    0.0000 C   0  0  0  0  0  0  0  0  0  0  0  0
    5.1553    7.1976    0.0000 C   0  0  0  0  0  0  0  0  0  0  0  0
    6.9776   -0.1847    0.0000 C   0  0  0  0  0  0  0  0  0  0  0  0
    7.9237    3.2781    0.0000 C   0  0  0  0  0  0  0  0  0  0  0  0
    5.0375    0.9454    0.0000 C   0  0  0  0  0  0  0  0  0  0  0  0
    6.0594    7.7149    0.0000 C   0  0  0  0  0  0  0  0  0  0  0  0
    5.1629    1.9948    0.0000 C   0  0  0  0  0  0  0  0  0  0  0  0
    6.0010   -0.7536    0.0000 C   0  0  2  0  0  0  0  0  0  0  0  0
    5.0245   -0.1847    0.0000 C   0  0  0  0  0  0  0  0  0  0  0  0
    4.6553    8.0636    0.0000 C   0  0  0  0  0  0  0  0  0  0  0  0
    4.1553    7.1976    0.0000 C   0  0  0  0  0  0  0  0  0  0  0  0
    7.9776   -0.1770    0.0000 C   0  0  0  0  0  0  0  0  0  0  0  0
    7.4843   -1.0469    0.0000 C   0  0  0  0  0  0  0  0  0  0  0  0
    5.1350   -2.2536    0.0000 C   0  0  2  0  0  0  0  0  0  0  0  0
    5.1350   -3.2536    0.0000 C   0  0  1  0  0  0  0  0  0  0  0  0
    4.2690   -3.7536    0.0000 C   0  0  2  0  0  0  0  0  0  0  0  0
    3.4030   -2.2536    0.0000 C   0  0  1  0  0  0  0  0  0  0  0  0
    3.4030   -3.2536    0.0000 C   0  0  2  0  0  0  0  0  0  0  0  0
    2.5369   -1.7536    0.0000 C   0  0  0  0  0  0  0  0  0  0  0  0
    6.0010   -4.7536    0.0000 C   0  0  2  0  0  0  0  0  0  0  0  0
    6.8671   -5.2536    0.0000 C   0  0  1  0  0  0  0  0  0  0  0  0
    6.8671   -6.2536    0.0000 C   0  0  2  0  0  0  0  0  0  0  0  0
    5.1350   -6.2536    0.0000 C   0  0  1  0  0  0  0  0  0  0  0  0
    6.0010   -6.7536    0.0000 C   0  0  1  0  0  0  0  0  0  0  0  0
    4.2690   -6.7536    0.0000 C   0  0  0  0  0  0  0  0  0  0  0  0
    8.5991   -5.2536    0.0000 C   0  0  2  0  0  0  0  0  0  0  0  0
    9.4651   -4.7536    0.0000 C   0  0  1  0  0  0  0  0  0  0  0  0
   10.3312   -5.2536    0.0000 C   0  0  1  0  0  0  0  0  0  0  0  0
    9.4651   -6.7536    0.0000 C   0  0  2  0  0  0  0  0  0  0  0  0
   10.3312   -6.2536    0.0000 C   0  0  2  0  0  0  0  0  0  0  0  0
    9.4651   -7.7536    0.0000 C   0  0  0  0  0  0  0  0  0  0  0  0
    5.3296    5.2234    0.0000 H   0  0  0  0  0  0  0  0  0  0  0  0
    5.3002    2.1571    0.0000 H   0  0  0  0  0  0  0  0  0  0  0  0
    8.0053    4.0555    0.0000 H   0  0  0  0  0  0  0  0  0  0  0  0
    8.4065    4.7442    0.0000 H   0  0  0  0  0  0  0  0  0  0  0  0
    7.8018    6.2589    0.0000 H   0  0  0  0  0  0  0  0  0  0  0  0
    7.7039    0.5261    0.0000 H   0  0  0  0  0  0  0  0  0  0  0  0
    8.5016    2.4774    0.0000 H   0  0  0  0  0  0  0  0  0  0  0  0
    8.0918    3.1625    0.0000 H   0  0  0  0  0  0  0  0  0  0  0  0
    7.4718    5.0872    0.0000 H   0  0  0  0  0  0  0  0  0  0  0  0
    7.5994    5.8185    0.0000 H   0  0  0  0  0  0  0  0  0  0  0  0
    4.5480    6.2597    0.0000 H   0  0  0  0  0  0  0  0  0  0  0  0
    4.9525    5.5714    0.0000 H   0  0  0  0  0  0  0  0  0  0  0  0
    7.5640    7.0658    0.0000 H   0  0  0  0  0  0  0  0  0  0  0  0
    7.1756    7.7632    0.0000 H   0  0  0  0  0  0  0  0  0  0  0  0
    4.6194    4.4605    0.0000 H   0  0  0  0  0  0  0  0  0  0  0  0
    8.1179    0.9102    0.0000 H   0  0  0  0  0  0  0  0  0  0  0  0
    8.5117    1.6046    0.0000 H   0  0  0  0  0  0  0  0  0  0  0  0
    7.8017    3.3546    0.0000 H   0  0  0  0  0  0  0  0  0  0  0  0
    8.5219    3.8548    0.0000 H   0  0  0  0  0  0  0  0  0  0  0  0
    8.0217    4.5750    0.0000 H   0  0  0  0  0  0  0  0  0  0  0  0
    4.6002    2.7948    0.0000 H   0  0  0  0  0  0  0  0  0  0  0  0
    8.0338    2.6680    0.0000 H   0  0  0  0  0  0  0  0  0  0  0  0
    8.5339    3.3882    0.0000 H   0  0  0  0  0  0  0  0  0  0  0  0
    7.8137    3.8883    0.0000 H   0  0  0  0  0  0  0  0  0  0  0  0
    4.8352    1.5314    0.0000 H   0  0  0  0  0  0  0  0  0  0  0  0
    4.4255    0.8463    0.0000 H   0  0  0  0  0  0  0  0  0  0  0  0
    6.4621    8.1862    0.0000 H   0  0  0  0  0  0  0  0  0  0  0  0
    5.6639    8.1924    0.0000 H   0  0  0  0  0  0  0  0  0  0  0  0
    5.4750    2.5306    0.0000 H   0  0  0  0  0  0  0  0  0  0  0  0
    4.6272    2.3069    0.0000 H   0  0  0  0  0  0  0  0  0  0  0  0
    4.8508    1.4591    0.0000 H   0  0  0  0  0  0  0  0  0  0  0  0
    6.5386   -1.0625    0.0000 H   0  0  0  0  0  0  0  0  0  0  0  0
    4.4149   -0.0716    0.0000 H   0  0  0  0  0  0  0  0  0  0  0  0
    4.8087   -0.7660    0.0000 H   0  0  0  0  0  0  0  0  0  0  0  0
    9.2030    5.8235    0.0000 H   0  0  0  0  0  0  0  0  0  0  0  0
    5.1922    8.3736    0.0000 H   0  0  0  0  0  0  0  0  0  0  0  0
    4.3453    8.6005    0.0000 H   0  0  0  0  0  0  0  0  0  0  0  0
    4.1183    7.7536    0.0000 H   0  0  0  0  0  0  0  0  0  0  0  0
    4.1553    7.8176    0.0000 H   0  0  0  0  0  0  0  0  0  0  0  0
    3.5353    7.1976    0.0000 H   0  0  0  0  0  0  0  0  0  0  0  0
    4.1553    6.5776    0.0000 H   0  0  0  0  0  0  0  0  0  0  0  0
    7.9824   -0.7970    0.0000 H   0  0  0  0  0  0  0  0  0  0  0  0
    8.5976   -0.1722    0.0000 H   0  0  0  0  0  0  0  0  0  0  0  0
    7.9728    0.4430    0.0000 H   0  0  0  0  0  0  0  0  0  0  0  0
    6.9497   -1.3610    0.0000 H   0  0  0  0  0  0  0  0  0  0  0  0
    7.7984   -1.5814    0.0000 H   0  0  0  0  0  0  0  0  0  0  0  0
    8.0188   -0.7327    0.0000 H   0  0  0  0  0  0  0  0  0  0  0  0
    5.1350   -1.6336    0.0000 H   0  0  0  0  0  0  0  0  0  0  0  0
    5.1350   -3.8736    0.0000 H   0  0  0  0  0  0  0  0  0  0  0  0
    3.7320   -4.0636    0.0000 H   0  0  0  0  0  0  0  0  0  0  0  0
    3.4030   -1.6336    0.0000 H   0  0  0  0  0  0  0  0  0  0  0  0
    3.4030   -3.8736    0.0000 H   0  0  0  0  0  0  0  0  0  0  0  0
    2.8469   -1.2166    0.0000 H   0  0  0  0  0  0  0  0  0  0  0  0
    2.0000   -1.4436    0.0000 H   0  0  0  0  0  0  0  0  0  0  0  0
    2.2269   -2.2905    0.0000 H   0  0  0  0  0  0  0  0  0  0  0  0
    6.5380   -4.4436    0.0000 H   0  0  0  0  0  0  0  0  0  0  0  0
    3.7320   -5.0636    0.0000 H   0  0  0  0  0  0  0  0  0  0  0  0
    2.0000   -3.4436    0.0000 H   0  0  0  0  0  0  0  0  0  0  0  0
    7.4040   -5.5636    0.0000 H   0  0  0  0  0  0  0  0  0  0  0  0
    6.8671   -6.8736    0.0000 H   0  0  0  0  0  0  0  0  0  0  0  0
    4.5981   -5.9436    0.0000 H   0  0  0  0  0  0  0  0  0  0  0  0
    6.5380   -7.0636    0.0000 H   0  0  0  0  0  0  0  0  0  0  0  0
    3.8705   -7.2285    0.0000 H   0  0  0  0  0  0  0  0  0  0  0  0
    4.6675   -7.2285    0.0000 H   0  0  0  0  0  0  0  0  0  0  0  0
    8.0622   -5.5636    0.0000 H   0  0  0  0  0  0  0  0  0  0  0  0
    7.7331   -7.3736    0.0000 H   0  0  0  0  0  0  0  0  0  0  0  0
    5.4641   -8.0636    0.0000 H   0  0  0  0  0  0  0  0  0  0  0  0
   10.0021   -4.4436    0.0000 H   0  0  0  0  0  0  0  0  0  0  0  0
    2.8660   -6.5636    0.0000 H   0  0  0  0  0  0  0  0  0  0  0  0
   10.8681   -5.5636    0.0000 H   0  0  0  0  0  0  0  0  0  0  0  0
    8.9282   -7.0636    0.0000 H   0  0  0  0  0  0  0  0  0  0  0  0
   10.3312   -6.8736    0.0000 H   0  0  0  0  0  0  0  0  0  0  0  0
   10.0021   -3.4436    0.0000 H   0  0  0  0  0  0  0  0  0  0  0  0
    8.8451   -7.7536    0.0000 H   0  0  0  0  0  0  0  0  0  0  0  0
    9.4651   -8.3736    0.0000 H   0  0  0  0  0  0  0  0  0  0  0  0
   10.0851   -7.7536    0.0000 H   0  0  0  0  0  0  0  0  0  0  0  0
   11.7341   -5.0636    0.0000 H   0  0  0  0  0  0  0  0  0  0  0  0
   11.1972   -7.3736    0.0000 H   0  0  0  0  0  0  0  0  0  0  0  0
  1 18  1  0  0  0  0
  1 28  1  0  0  0  0
 25  2  1  6  0  0  0
  2 99  1  0  0  0  0
 41  3  1  1  0  0  0
 47  3  1  1  0  0  0
  4 47  1  0  0  0  0
  4 50  1  0  0  0  0
 48  5  1  6  0  0  0
 53  5  1  1  0  0  0
 49  6  1  1  0  0  0
  6121  1  0  0  0  0
 51  7  1  1  0  0  0
  7122  1  0  0  0  0
  8 53  1  0  0  0  0
  8 56  1  0  0  0  0
 54  9  1  6  0  0  0
 59  9  1  1  0  0  0
 55 10  1  1  0  0  0
 10130  1  0  0  0  0
 57 11  1  6  0  0  0
 11131  1  0  0  0  0
 12 59  1  0  0  0  0
 12 62  1  0  0  0  0
 13 58  1  0  0  0  0
 13133  1  0  0  0  0
 60 14  1  6  0  0  0
 14137  1  0  0  0  0
 61 15  1  6  0  0  0
 15141  1  0  0  0  0
 63 16  1  1  0  0  0
 16142  1  0  0  0  0
 17 18  1  0  0  0  0
 17 19  1  0  0  0  0
 17 24  1  0  0  0  0
 17 33  1  6  0  0  0
 18 20  1  0  0  0  0
 18 31  1  1  0  0  0
 19 22  1  0  0  0  0
 19 27  1  0  0  0  0
 19 37  1  1  0  0  0
 20 21  1  0  0  0  0
 20 29  1  0  0  0  0
 20 65  1  1  0  0  0
 21 25  1  0  0  0  0
 21 28  1  0  0  0  0
 21 30  1  1  0  0  0
 22 23  1  0  0  0  0
 22 34  1  0  0  0  0
 22 66  1  6  0  0  0
 23 26  1  0  0  0  0
 23 38  1  0  0  0  0
 23 40  1  1  0  0  0
 24 25  1  0  0  0  0
 24 67  1  0  0  0  0
 24 68  1  0  0  0  0
 25 69  1  0  0  0  0
 26 32  1  0  0  0  0
 26 36  1  0  0  0  0
 26 70  1  6  0  0  0
 27 32  1  0  0  0  0
 27 71  1  0  0  0  0
 27 72  1  0  0  0  0
 28 73  1  0  0  0  0
 28 74  1  0  0  0  0
 29 35  1  0  0  0  0
 29 75  1  0  0  0  0
 29 76  1  0  0  0  0
 30 39  1  0  0  0  0
 30 77  1  0  0  0  0
 30 78  1  0  0  0  0
 31 34  2  0  0  0  0
 31 79  1  0  0  0  0
 32 80  1  0  0  0  0
 32 81  1  0  0  0  0
 33 82  1  0  0  0  0
 33 83  1  0  0  0  0
 33 84  1  0  0  0  0
 34 85  1  0  0  0  0
 35 39  1  0  0  0  0
 35 43  1  0  0  0  0
 35 44  1  0  0  0  0
 36 41  1  0  0  0  0
 36 45  1  0  0  0  0
 36 46  1  0  0  0  0
 37 86  1  0  0  0  0
 37 87  1  0  0  0  0
 37 88  1  0  0  0  0
 38 42  1  0  0  0  0
 38 89  1  0  0  0  0
 38 90  1  0  0  0  0
 39 91  1  0  0  0  0
 39 92  1  0  0  0  0
 40 93  1  0  0  0  0
 40 94  1  0  0  0  0
 40 95  1  0  0  0  0
 41 42  1  0  0  0  0
 41 96  1  0  0  0  0
 42 97  1  0  0  0  0
 42 98  1  0  0  0  0
 43100  1  0  0  0  0
 43101  1  0  0  0  0
 43102  1  0  0  0  0
 44103  1  0  0  0  0
 44104  1  0  0  0  0
 44105  1  0  0  0  0
 45106  1  0  0  0  0
 45107  1  0  0  0  0
 45108  1  0  0  0  0
 46109  1  0  0  0  0
 46110  1  0  0  0  0
 46111  1  0  0  0  0
 47 48  1  0  0  0  0
 47112  1  0  0  0  0
 48 49  1  0  0  0  0
 48113  1  0  0  0  0
 49 51  1  0  0  0  0
 49114  1  0  0  0  0
 50 51  1  0  0  0  0
 50 52  1  1  0  0  0
 50115  1  0  0  0  0
 51116  1  0  0  0  0
 52117  1  0  0  0  0
 52118  1  0  0  0  0
 52119  1  0  0  0  0
 53 54  1  0  0  0  0
 53120  1  0  0  0  0
 54 55  1  0  0  0  0
 54123  1  0  0  0  0
 55 57  1  0  0  0  0
 55124  1  0  0  0  0
 56 57  1  0  0  0  0
 56 58  1  1  0  0  0
 56125  1  0  0  0  0
 57126  1  0  0  0  0
 58127  1  0  0  0  0
 58128  1  0  0  0  0
 59 60  1  0  0  0  0
 59129  1  0  0  0  0
 60 61  1  0  0  0  0
 60132  1  0  0  0  0
 61 63  1  0  0  0  0
 61134  1  0  0  0  0
 62 63  1  0  0  0  0
 62 64  1  6  0  0  0
 62135  1  0  0  0  0
 63136  1  0  0  0  0
 64138  1  0  0  0  0
 64139  1  0  0  0  0
 64140  1  0  0  0  0
M  END
> <PUBCHEM_COMPOUND_CID>
101093904

> <PUBCHEM_COMPOUND_CANONICALIZED>
1

> <PUBCHEM_CACTVS_COMPLEXITY>
1760

> <PUBCHEM_CACTVS_HBOND_ACCEPTOR>
16

> <PUBCHEM_CACTVS_HBOND_DONOR>
9

> <PUBCHEM_CACTVS_ROTATABLE_BOND>
7

> <PUBCHEM_CACTVS_SUBSKEYS>
AAADcfB8PgAAAAAAAAAAAAAAAAAAASAAAAA0aNGCBIAAAEjAAAAAGgAACAAAD1SwgAMCCAAABgCAACBCAAAAAAAgAAAICAAAAAgRFAIAIQAiUAAFgAAPIAPA4PwPgAAAAAAAAADCAAYAADAAAAAAAAAAAA==

> <PUBCHEM_IUPAC_OPENEYE_NAME>
(2S,3R,4R,5R,6S)-2-[(2S,3R,4S,5S,6R)-2-[(2R,3R,4S,5R,6R)-4,5-dihydroxy-2-[[(1S,2R,4S,5R,8R,10S,13S,14R,17S,18R)-2-hydroxy-4,5,9,9,13,20,20-heptamethyl-24-oxahexacyclo[15.5.2.01,18.04,17.05,14.08,13]tetracos-15-en-10-yl]oxy]-6-methyl-tetrahydropyran-3-yl]oxy-4,5-dihydroxy-6-(hydroxymethyl)tetrahydropyran-3-yl]oxy-6-methyl-tetrahydropyran-3,4,5-triol

> <PUBCHEM_IUPAC_CAS_NAME>
(2S,3R,4R,5R,6S)-2-[[(2S,3R,4S,5S,6R)-2-[[(2R,3R,4S,5R,6R)-4,5-dihydroxy-2-[[(1S,2R,4S,5R,8R,10S,13S,14R,17S,18R)-2-hydroxy-4,5,9,9,13,20,20-heptamethyl-24-oxahexacyclo[15.5.2.01,18.04,17.05,14.08,13]tetracos-15-en-10-yl]oxy]-6-methyl-3-oxanyl]oxy]-4,5-dihydroxy-6-(hydroxymethyl)-3-oxanyl]oxy]-6-methyloxane-3,4,5-triol

> <PUBCHEM_IUPAC_NAME_MARKUP>
(2<I>S</I>,3<I>R</I>,4<I>R</I>,5<I>R</I>,6<I>S</I>)-2-[(2<I>S</I>,3<I>R</I>,4<I>S</I>,5<I>S</I>,6<I>R</I>)-2-[(2<I>R</I>,3<I>R</I>,4<I>S</I>,5<I>R</I>,6<I>R</I>)-4,5-dihydroxy-2-[[(1<I>S</I>,2<I>R</I>,4<I>S</I>,5<I>R</I>,8<I>R</I>,10<I>S</I>,13<I>S</I>,14<I>R</I>,17<I>S</I>,18<I>R</I>)-2-hydroxy-4,5,9,9,13,20,20-heptamethyl-24-oxahexacyclo[15.5.2.0<SUP>1,18</SUP>.0<SUP>4,17</SUP>.0<SUP>5,14</SUP>.0<SUP>8,13</SUP>]tetracos-15-en-10-yl]oxy]-6-methyloxan-3-yl]oxy-4,5-dihydroxy-6-(hydroxymethyl)oxan-3-yl]oxy-6-methyloxane-3,4,5-triol

> <PUBCHEM_IUPAC_NAME>
(2S,3R,4R,5R,6S)-2-[(2S,3R,4S,5S,6R)-2-[(2R,3R,4S,5R,6R)-4,5-dihydroxy-2-[[(1S,2R,4S,5R,8R,10S,13S,14R,17S,18R)-2-hydroxy-4,5,9,9,13,20,20-heptamethyl-24-oxahexacyclo[15.5.2.01,18.04,17.05,14.08,13]tetracos-15-en-10-yl]oxy]-6-methyloxan-3-yl]oxy-4,5-dihydroxy-6-(hydroxymethyl)oxan-3-yl]oxy-6-methyloxane-3,4,5-triol

> <PUBCHEM_IUPAC_SYSTEMATIC_NAME>
(2S,3R,4R,5R,6S)-2-[(2S,3R,4S,5S,6R)-2-[(2R,3R,4S,5R,6R)-2-[[(1S,2R,4S,5R,8R,10S,13S,14R,17S,18R)-4,5,9,9,13,20,20-heptamethyl-2-oxidanyl-24-oxahexacyclo[15.5.2.01,18.04,17.05,14.08,13]tetracos-15-en-10-yl]oxy]-6-methyl-4,5-bis(oxidanyl)oxan-3-yl]oxy-6-(hydroxymethyl)-4,5-bis(oxidanyl)oxan-3-yl]oxy-6-methyl-oxane-3,4,5-triol

> <PUBCHEM_IUPAC_TRADITIONAL_NAME>
(2S,3R,4R,5R,6S)-2-[(2S,3R,4S,5S,6R)-2-[(2R,3R,4S,5R,6R)-4,5-dihydroxy-2-[[(1S,2R,4S,5R,8R,10S,13S,14R,17S,18R)-2-hydroxy-4,5,9,9,13,20,20-heptamethyl-24-oxahexacyclo[15.5.2.01,18.04,17.05,14.08,13]tetracos-15-en-10-yl]oxy]-6-methyl-tetrahydropyran-3-yl]oxy-4,5-dihydroxy-6-methylol-tetrahydropyran-3-yl]oxy-6-methyl-tetrahydropyran-3,4,5-triol

> <PUBCHEM_IUPAC_INCHI>
InChI=1S/C48H78O16/c1-22-30(51)33(54)36(57)39(59-22)63-38-35(56)32(53)24(20-49)61-41(38)64-37-34(55)31(52)23(2)60-40(37)62-29-12-13-44(7)25(43(29,5)6)10-14-45(8)26(44)11-15-48-27-18-42(3,4)16-17-47(27,21-58-48)28(50)19-46(45,48)9/h11,15,22-41,49-57H,10,12-14,16-21H2,1-9H3/t22-,23+,24+,25-,26+,27+,28+,29-,30-,31-,32+,33+,34-,35-,36+,37+,38+,39-,40-,41-,44-,45+,46-,47+,48-/m0/s1

> <PUBCHEM_IUPAC_INCHIKEY>
HMEMJYQIFNQSFR-DQKATWECSA-N

> <PUBCHEM_XLOGP3_AA>
2.6

> <PUBCHEM_EXACT_MASS>
910.528986

> <PUBCHEM_MOLECULAR_FORMULA>
C48H78O16

> <PUBCHEM_MOLECULAR_WEIGHT>
911.1

> <PUBCHEM_OPENEYE_CAN_SMILES>
CC1C(C(C(C(O1)OC2C(C(C(OC2OC3C(C(C(OC3OC4CCC5(C(C4(C)C)CCC6(C5C=CC78C6(CC(C9(C7CC(CC9)(C)C)CO8)O)C)C)C)C)O)O)CO)O)O)O)O)O

> <PUBCHEM_OPENEYE_ISO_SMILES>
C[C@H]1[C@@H]([C@H]([C@H]([C@@H](O1)O[C@@H]2[C@H]([C@@H]([C@H](O[C@H]2O[C@@H]3[C@H]([C@H]([C@H](O[C@H]3O[C@H]4CC[C@]5([C@H](C4(C)C)CC[C@@]6([C@@H]5C=C[C@@]78[C@]6(C[C@H]([C@@]9([C@H]7CC(CC9)(C)C)CO8)O)C)C)C)C)O)O)CO)O)O)O)O)O

> <PUBCHEM_CACTVS_TPSA>
247

> <PUBCHEM_MONOISOTOPIC_WEIGHT>
910.528986

> <PUBCHEM_TOTAL_CHARGE>
0

> <PUBCHEM_HEAVY_ATOM_COUNT>
64

> <PUBCHEM_ATOM_DEF_STEREO_COUNT>
25

> <PUBCHEM_ATOM_UDEF_STEREO_COUNT>
0

> <PUBCHEM_BOND_DEF_STEREO_COUNT>
0

> <PUBCHEM_BOND_UDEF_STEREO_COUNT>
0

> <PUBCHEM_ISOTOPIC_ATOM_COUNT>
0

> <PUBCHEM_COMPONENT_COUNT>
1

> <PUBCHEM_CACTVS_TAUTO_COUNT>
-1

> <PUBCHEM_COORDINATE_TYPE>
1
5
255

> <PUBCHEM_BONDANNOTATIONS>
55  10  5
57  11  6
60  14  6
61  15  6
63  16  5
17  33  6
18  31  5
19  37  5
25  2  6
20  65  5
21  30  5
22  66  6
23  40  5
26  70  6
41  3  5
47  3  5
48  5  6
53  5  5
50  52  5
56  58  5
49  6  5
62  64  6
51  7  5
54  9  6
59  9  5

$$$$
