71311545
  -OEChem-09172012452D

 39 42  0     1  0  0  0  0  0999 V2000
    3.9479   -0.5647    0.0000 C   0  0  2  0  0  0  0  0  0  0  0  0
    4.7569    0.0231    0.0000 C   0  0  2  0  0  0  0  0  0  0  0  0
    2.9499   -0.5630    0.0000 C   0  0  1  0  0  0  0  0  0  0  0  0
    3.1389    0.0231    0.0000 C   0  0  2  0  0  0  0  0  0  0  0  0
    3.4479    0.9741    0.0000 C   0  0  1  0  0  0  0  0  0  0  0  0
    4.4479    0.9741    0.0000 C   0  0  1  0  0  0  0  0  0  0  0  0
    2.6415    0.3861    0.0000 C   0  0  0  0  0  0  0  0  0  0  0  0
    5.2576    0.3669    0.0000 C   0  0  0  0  0  0  0  0  0  0  0  0
    3.8781   -1.5623    0.0000 C   0  0  0  0  0  0  0  0  0  0  0  0
    3.4662   -0.9347    0.0000 C   0  0  0  0  0  0  0  0  0  0  0  0
    2.1878   -0.2860    0.0000 C   0  0  0  0  0  0  0  0  0  0  0  0
    5.2500   -0.6453    0.0000 C   0  0  0  0  0  0  0  0  0  0  0  0
    4.4311   -1.2402    0.0000 C   0  0  0  0  0  0  0  0  0  0  0  0
    6.2576    0.3779    0.0000 C   0  0  0  0  0  0  0  0  0  0  0  0
    5.8724    1.1556    0.0000 C   0  0  0  0  0  0  0  0  0  0  0  0
    5.5334   -0.3227    0.0000 H   0  0  0  0  0  0  0  0  0  0  0  0
    2.4497   -1.2502    0.0000 H   0  0  0  0  0  0  0  0  0  0  0  0
    2.9483    1.6618    0.0000 H   0  0  0  0  0  0  0  0  0  0  0  0
    4.7167    1.7805    0.0000 H   0  0  0  0  0  0  0  0  0  0  0  0
    2.0753    0.1336    0.0000 H   0  0  0  0  0  0  0  0  0  0  0  0
    2.3309    0.9227    0.0000 H   0  0  0  0  0  0  0  0  0  0  0  0
    4.4966   -1.6056    0.0000 H   0  0  0  0  0  0  0  0  0  0  0  0
    3.8349   -2.1808    0.0000 H   0  0  0  0  0  0  0  0  0  0  0  0
    3.2596   -1.5190    0.0000 H   0  0  0  0  0  0  0  0  0  0  0  0
    3.4076   -1.5519    0.0000 H   0  0  0  0  0  0  0  0  0  0  0  0
    2.8504   -1.0073    0.0000 H   0  0  0  0  0  0  0  0  0  0  0  0
    2.3794   -0.8756    0.0000 H   0  0  0  0  0  0  0  0  0  0  0  0
    1.5982   -0.4776    0.0000 H   0  0  0  0  0  0  0  0  0  0  0  0
    1.9962    0.3037    0.0000 H   0  0  0  0  0  0  0  0  0  0  0  0
    5.8571   -0.5194    0.0000 H   0  0  0  0  0  0  0  0  0  0  0  0
    5.5007   -1.2123    0.0000 H   0  0  0  0  0  0  0  0  0  0  0  0
    4.8929   -1.6539    0.0000 H   0  0  0  0  0  0  0  0  0  0  0  0
    4.1238   -1.7787    0.0000 H   0  0  0  0  0  0  0  0  0  0  0  0
    6.2507    0.9979    0.0000 H   0  0  0  0  0  0  0  0  0  0  0  0
    6.8775    0.3848    0.0000 H   0  0  0  0  0  0  0  0  0  0  0  0
    6.2644   -0.2420    0.0000 H   0  0  0  0  0  0  0  0  0  0  0  0
    5.3834    1.5367    0.0000 H   0  0  0  0  0  0  0  0  0  0  0  0
    6.2536    1.6445    0.0000 H   0  0  0  0  0  0  0  0  0  0  0  0
    6.3614    0.7744    0.0000 H   0  0  0  0  0  0  0  0  0  0  0  0
  1  2  1  0  0  0  0
  1  3  1  0  0  0  0
  1  4  1  0  0  0  0
  1  9  1  1  0  0  0
  2  3  1  0  0  0  0
  2  6  1  0  0  0  0
  2 16  1  1  0  0  0
  3  7  1  0  0  0  0
  3 17  1  1  0  0  0
  4  5  1  0  0  0  0
  4 10  1  0  0  0  0
  4 11  1  6  0  0  0
  5  6  1  0  0  0  0
  5  7  1  0  0  0  0
  5 18  1  1  0  0  0
  6  8  1  0  0  0  0
  6 19  1  6  0  0  0
  7 20  1  0  0  0  0
  7 21  1  0  0  0  0
  8 12  1  0  0  0  0
  8 14  1  0  0  0  0
  8 15  1  0  0  0  0
  9 22  1  0  0  0  0
  9 23  1  0  0  0  0
  9 24  1  0  0  0  0
 10 13  1  0  0  0  0
 10 25  1  0  0  0  0
 10 26  1  0  0  0  0
 11 27  1  0  0  0  0
 11 28  1  0  0  0  0
 11 29  1  0  0  0  0
 12 13  1  0  0  0  0
 12 30  1  0  0  0  0
 12 31  1  0  0  0  0
 13 32  1  0  0  0  0
 13 33  1  0  0  0  0
 14 34  1  0  0  0  0
 14 35  1  0  0  0  0
 14 36  1  0  0  0  0
 15 37  1  0  0  0  0
 15 38  1  0  0  0  0
 15 39  1  0  0  0  0
M  END
> <PUBCHEM_COMPOUND_CID>
71311545

> <PUBCHEM_COMPOUND_CANONICALIZED>
1

> <PUBCHEM_CACTVS_COMPLEXITY>
342

> <PUBCHEM_CACTVS_HBOND_ACCEPTOR>
0

> <PUBCHEM_CACTVS_HBOND_DONOR>
0

> <PUBCHEM_CACTVS_ROTATABLE_BOND>
0

> <PUBCHEM_CACTVS_SUBSKEYS>
AAADceBwAAAAAAAAAAAAAAAAGAAAAYMGAAAAAAAABgAYAAAAAAAAGAAAAAAADwCAAAACAAAAAAAAAAAAAAAAAAAAAAAAAAAAAAAAAAIAAAAAAAAAAAAAAAEAgMAPgAAAAAAAAACAAAQAACAAAQAACAAAAA==

> <PUBCHEM_IUPAC_OPENEYE_NAME>
(1R,2S,7R,8R,9S,10R)-2,6,6,9-tetramethyltetracyclo[5.4.0.02,9.08,10]undecane

> <PUBCHEM_IUPAC_CAS_NAME>
(1R,2S,7R,8R,9S,10R)-2,6,6,9-tetramethyltetracyclo[5.4.0.02,9.08,10]undecane

> <PUBCHEM_IUPAC_NAME_MARKUP>
(1<I>R</I>,2<I>S</I>,7<I>R</I>,8<I>R</I>,9<I>S</I>,10<I>R</I>)-2,6,6,9-tetramethyltetracyclo[5.4.0.0<SUP>2,9</SUP>.0<SUP>8,10</SUP>]undecane

> <PUBCHEM_IUPAC_NAME>
(1R,2S,7R,8R,9S,10R)-2,6,6,9-tetramethyltetracyclo[5.4.0.02,9.08,10]undecane

> <PUBCHEM_IUPAC_SYSTEMATIC_NAME>
(1R,2S,7R,8R,9S,10R)-2,6,6,9-tetramethyltetracyclo[5.4.0.02,9.08,10]undecane

> <PUBCHEM_IUPAC_TRADITIONAL_NAME>
(1R,2S,7R,8R,9S,10R)-2,6,6,9-tetramethyltetracyclo[5.4.0.02,9.08,10]undecane

> <PUBCHEM_IUPAC_INCHI>
InChI=1S/C15H24/c1-13(2)6-5-7-14(3)9-8-10-12(11(9)13)15(10,14)4/h9-12H,5-8H2,1-4H3/t9-,10-,11-,12-,14+,15+/m1/s1

> <PUBCHEM_IUPAC_INCHIKEY>
WCEIQUQVIOGRBF-YTDSDZJUSA-N

> <PUBCHEM_XLOGP3_AA>
5

> <PUBCHEM_EXACT_MASS>
204.187801

> <PUBCHEM_MOLECULAR_FORMULA>
C15H24

> <PUBCHEM_MOLECULAR_WEIGHT>
204.35

> <PUBCHEM_OPENEYE_CAN_SMILES>
CC1(CCCC2(C3C1C4C2(C4C3)C)C)C

> <PUBCHEM_OPENEYE_ISO_SMILES>
C[C@]12CCCC([C@@H]3[C@H]1C[C@@H]4[C@H]3[C@@]24C)(C)C

> <PUBCHEM_CACTVS_TPSA>
0

> <PUBCHEM_MONOISOTOPIC_WEIGHT>
204.187801

> <PUBCHEM_TOTAL_CHARGE>
0

> <PUBCHEM_HEAVY_ATOM_COUNT>
15

> <PUBCHEM_ATOM_DEF_STEREO_COUNT>
6

> <PUBCHEM_ATOM_UDEF_STEREO_COUNT>
0

> <PUBCHEM_BOND_DEF_STEREO_COUNT>
0

> <PUBCHEM_BOND_UDEF_STEREO_COUNT>
0

> <PUBCHEM_ISOTOPIC_ATOM_COUNT>
0

> <PUBCHEM_COMPONENT_COUNT>
1

> <PUBCHEM_CACTVS_TAUTO_COUNT>
-1

> <PUBCHEM_COORDINATE_TYPE>
1
5
255

> <PUBCHEM_BONDANNOTATIONS>
1  9  5
2  16  5
3  17  5
4  11  6
5  18  5
6  19  6

$$$$
