11061975
  -OEChem-09172015582D

140148  0     1  0  0  0  0  0999 V2000
    6.2244    5.0213    0.0000 O   0  0  0  0  0  0  0  0  0  0  0  0
    4.2008    6.3099    0.0000 O   0  0  0  0  0  0  0  0  0  0  0  0
    6.8671   -1.5792    0.0000 O   0  0  0  0  0  0  0  0  0  0  0  0
    5.1350   -1.5792    0.0000 O   0  0  0  0  0  0  0  0  0  0  0  0
    6.8671   -3.5792    0.0000 O   0  0  0  0  0  0  0  0  0  0  0  0
    5.1350   -4.5792    0.0000 O   0  0  0  0  0  0  0  0  0  0  0  0
    3.4030   -3.5792    0.0000 O   0  0  0  0  0  0  0  0  0  0  0  0
    7.7331   -2.0792    0.0000 O   0  0  0  0  0  0  0  0  0  0  0  0
    2.5369   -2.0792    0.0000 O   0  0  0  0  0  0  0  0  0  0  0  0
    8.5991   -4.5792    0.0000 O   0  0  0  0  0  0  0  0  0  0  0  0
   10.3312   -3.5792    0.0000 O   0  0  0  0  0  0  0  0  0  0  0  0
   10.3312   -1.5792    0.0000 O   0  0  0  0  0  0  0  0  0  0  0  0
    6.8671   -4.5792    0.0000 O   0  0  0  0  0  0  0  0  0  0  0  0
    9.4651   -0.0792    0.0000 O   0  0  0  0  0  0  0  0  0  0  0  0
    8.5991   -6.5792    0.0000 O   0  0  0  0  0  0  0  0  0  0  0  0
    6.8671   -7.5792    0.0000 O   0  0  0  0  0  0  0  0  0  0  0  0
    5.1350   -6.5792    0.0000 O   0  0  0  0  0  0  0  0  0  0  0  0
    5.9405    4.3166    0.0000 C   0  0  2  0  0  0  0  0  0  0  0  0
    6.8046    4.8199    0.0000 C   0  0  2  0  0  0  0  0  0  0  0  0
    5.9285    3.2750    0.0000 C   0  0  1  0  0  0  0  0  0  0  0  0
    6.8008    5.8199    0.0000 C   0  0  1  0  0  0  0  0  0  0  0  0
    5.9328    6.3166    0.0000 C   0  0  2  0  0  0  0  0  0  0  0  0
    6.8286    2.7508    0.0000 C   0  0  1  0  0  0  0  0  0  0  0  0
    6.8411    1.6658    0.0000 C   0  0  2  0  0  0  0  0  0  0  0  0
    5.0726    4.8132    0.0000 C   0  0  0  0  0  0  0  0  0  0  0  0
    5.0687    5.8132    0.0000 C   0  0  1  0  0  0  0  0  0  0  0  0
    5.9036    1.1197    0.0000 C   0  0  1  0  0  0  0  0  0  0  0  0
    7.7088    6.3303    0.0000 C   0  0  2  0  0  0  0  0  0  0  0  0
    4.9786    2.7508    0.0000 C   0  0  0  0  0  0  0  0  0  0  0  0
    5.8218    5.7126    0.0000 C   0  0  0  0  0  0  0  0  0  0  0  0
    5.9128    7.3580    0.0000 C   0  0  0  0  0  0  0  0  0  0  0  0
    7.7166    4.3166    0.0000 C   0  0  0  0  0  0  0  0  0  0  0  0
    4.9660    1.6658    0.0000 C   0  0  0  0  0  0  0  0  0  0  0  0
    4.9564    4.1392    0.0000 C   0  0  0  0  0  0  0  0  0  0  0  0
    7.7286    3.2750    0.0000 C   0  0  0  0  0  0  0  0  0  0  0  0
    7.7128    7.3719    0.0000 C   0  0  1  0  0  0  0  0  0  0  0  0
    5.8905   -0.0104    0.0000 C   0  0  0  0  0  0  0  0  0  0  0  0
    4.9444    3.4525    0.0000 C   0  0  0  0  0  0  0  0  0  0  0  0
    7.8306    1.1197    0.0000 C   0  0  0  0  0  0  0  0  0  0  0  0
    6.8088    7.8892    0.0000 C   0  0  0  0  0  0  0  0  0  0  0  0
    7.7052    2.1692    0.0000 C   0  0  0  0  0  0  0  0  0  0  0  0
    6.8671   -0.5792    0.0000 C   0  0  2  0  0  0  0  0  0  0  0  0
    7.8436   -0.0104    0.0000 C   0  0  0  0  0  0  0  0  0  0  0  0
    8.5710    5.8236    0.0000 C   0  0  0  0  0  0  0  0  0  0  0  0
    8.5788    7.8719    0.0000 C   0  0  0  0  0  0  0  0  0  0  0  0
    4.8905   -0.0027    0.0000 C   0  0  0  0  0  0  0  0  0  0  0  0
    5.3838   -0.8725    0.0000 C   0  0  0  0  0  0  0  0  0  0  0  0
    6.0010   -2.0792    0.0000 C   0  0  2  0  0  0  0  0  0  0  0  0
    6.0010   -3.0792    0.0000 C   0  0  1  0  0  0  0  0  0  0  0  0
    5.1350   -3.5792    0.0000 C   0  0  2  0  0  0  0  0  0  0  0  0
    4.2690   -2.0792    0.0000 C   0  0  1  0  0  0  0  0  0  0  0  0
    4.2690   -3.0792    0.0000 C   0  0  1  0  0  0  0  0  0  0  0  0
    3.4030   -1.5792    0.0000 C   0  0  0  0  0  0  0  0  0  0  0  0
    7.7331   -3.0792    0.0000 C   0  0  2  0  0  0  0  0  0  0  0  0
    8.5991   -3.5792    0.0000 C   0  0  1  0  0  0  0  0  0  0  0  0
    9.4651   -3.0792    0.0000 C   0  0  2  0  0  0  0  0  0  0  0  0
    8.5991   -1.5792    0.0000 C   0  0  1  0  0  0  0  0  0  0  0  0
    9.4651   -2.0792    0.0000 C   0  0  1  0  0  0  0  0  0  0  0  0
    8.5991   -0.5792    0.0000 C   0  0  0  0  0  0  0  0  0  0  0  0
    7.7331   -5.0792    0.0000 C   0  0  2  0  0  0  0  0  0  0  0  0
    7.7331   -6.0792    0.0000 C   0  0  1  0  0  0  0  0  0  0  0  0
    6.8671   -6.5792    0.0000 C   0  0  2  0  0  0  0  0  0  0  0  0
    6.0010   -5.0792    0.0000 C   0  0  0  0  0  0  0  0  0  0  0  0
    6.0010   -6.0792    0.0000 C   0  0  1  0  0  0  0  0  0  0  0  0
    7.5385    5.3978    0.0000 H   0  0  0  0  0  0  0  0  0  0  0  0
    7.5679    2.3314    0.0000 H   0  0  0  0  0  0  0  0  0  0  0  0
    4.4616    4.9186    0.0000 H   0  0  0  0  0  0  0  0  0  0  0  0
    4.8628    4.2298    0.0000 H   0  0  0  0  0  0  0  0  0  0  0  0
    4.5330    5.5012    0.0000 H   0  0  0  0  0  0  0  0  0  0  0  0
    5.1642    0.7004    0.0000 H   0  0  0  0  0  0  0  0  0  0  0  0
    8.2475    6.6372    0.0000 H   0  0  0  0  0  0  0  0  0  0  0  0
    4.7763    3.3368    0.0000 H   0  0  0  0  0  0  0  0  0  0  0  0
    4.3665    2.6517    0.0000 H   0  0  0  0  0  0  0  0  0  0  0  0
    5.2687    5.9928    0.0000 H   0  0  0  0  0  0  0  0  0  0  0  0
    5.3963    5.2615    0.0000 H   0  0  0  0  0  0  0  0  0  0  0  0
    5.6925    7.9376    0.0000 H   0  0  0  0  0  0  0  0  0  0  0  0
    5.3040    7.2402    0.0000 H   0  0  0  0  0  0  0  0  0  0  0  0
    8.2487    4.6348    0.0000 H   0  0  0  0  0  0  0  0  0  0  0  0
    4.3564    1.7790    0.0000 H   0  0  0  0  0  0  0  0  0  0  0  0
    4.7502    1.0846    0.0000 H   0  0  0  0  0  0  0  0  0  0  0  0
    4.8464    4.7494    0.0000 H   0  0  0  0  0  0  0  0  0  0  0  0
    4.3462    4.0292    0.0000 H   0  0  0  0  0  0  0  0  0  0  0  0
    5.0664    3.5290    0.0000 H   0  0  0  0  0  0  0  0  0  0  0  0
    8.2679    2.9692    0.0000 H   0  0  0  0  0  0  0  0  0  0  0  0
    7.7116    7.9919    0.0000 H   0  0  0  0  0  0  0  0  0  0  0  0
    5.0544    4.0626    0.0000 H   0  0  0  0  0  0  0  0  0  0  0  0
    4.3342    3.5625    0.0000 H   0  0  0  0  0  0  0  0  0  0  0  0
    4.8343    2.8423    0.0000 H   0  0  0  0  0  0  0  0  0  0  0  0
    8.4426    1.0207    0.0000 H   0  0  0  0  0  0  0  0  0  0  0  0
    8.0328    1.7058    0.0000 H   0  0  0  0  0  0  0  0  0  0  0  0
    7.2042    8.3667    0.0000 H   0  0  0  0  0  0  0  0  0  0  0  0
    6.4060    8.3606    0.0000 H   0  0  0  0  0  0  0  0  0  0  0  0
    8.0173    1.6334    0.0000 H   0  0  0  0  0  0  0  0  0  0  0  0
    8.2409    2.4812    0.0000 H   0  0  0  0  0  0  0  0  0  0  0  0
    7.3931    2.7049    0.0000 H   0  0  0  0  0  0  0  0  0  0  0  0
    7.4046   -0.8882    0.0000 H   0  0  0  0  0  0  0  0  0  0  0  0
    8.0594   -0.5916    0.0000 H   0  0  0  0  0  0  0  0  0  0  0  0
    8.4532    0.1028    0.0000 H   0  0  0  0  0  0  0  0  0  0  0  0
    8.2568    5.2891    0.0000 H   0  0  0  0  0  0  0  0  0  0  0  0
    9.1055    5.5095    0.0000 H   0  0  0  0  0  0  0  0  0  0  0  0
    8.8851    6.3581    0.0000 H   0  0  0  0  0  0  0  0  0  0  0  0
    3.6650    5.9978    0.0000 H   0  0  0  0  0  0  0  0  0  0  0  0
    8.8888    7.3350    0.0000 H   0  0  0  0  0  0  0  0  0  0  0  0
    9.1158    8.1819    0.0000 H   0  0  0  0  0  0  0  0  0  0  0  0
    8.2688    8.4088    0.0000 H   0  0  0  0  0  0  0  0  0  0  0  0
    4.8953    0.6173    0.0000 H   0  0  0  0  0  0  0  0  0  0  0  0
    4.2706    0.0021    0.0000 H   0  0  0  0  0  0  0  0  0  0  0  0
    4.8858   -0.6227    0.0000 H   0  0  0  0  0  0  0  0  0  0  0  0
    4.8493   -0.5584    0.0000 H   0  0  0  0  0  0  0  0  0  0  0  0
    5.0697   -1.4071    0.0000 H   0  0  0  0  0  0  0  0  0  0  0  0
    5.9184   -1.1866    0.0000 H   0  0  0  0  0  0  0  0  0  0  0  0
    6.0010   -1.4592    0.0000 H   0  0  0  0  0  0  0  0  0  0  0  0
    6.5380   -2.7692    0.0000 H   0  0  0  0  0  0  0  0  0  0  0  0
    5.6720   -3.8892    0.0000 H   0  0  0  0  0  0  0  0  0  0  0  0
    4.2690   -1.4592    0.0000 H   0  0  0  0  0  0  0  0  0  0  0  0
    3.7320   -2.7692    0.0000 H   0  0  0  0  0  0  0  0  0  0  0  0
    3.8015   -1.1043    0.0000 H   0  0  0  0  0  0  0  0  0  0  0  0
    3.0044   -1.1043    0.0000 H   0  0  0  0  0  0  0  0  0  0  0  0
    7.1962   -2.7692    0.0000 H   0  0  0  0  0  0  0  0  0  0  0  0
    4.5981   -4.8892    0.0000 H   0  0  0  0  0  0  0  0  0  0  0  0
    3.4030   -4.1992    0.0000 H   0  0  0  0  0  0  0  0  0  0  0  0
    8.0622   -3.8892    0.0000 H   0  0  0  0  0  0  0  0  0  0  0  0
    2.0000   -1.7692    0.0000 H   0  0  0  0  0  0  0  0  0  0  0  0
    9.4651   -3.6992    0.0000 H   0  0  0  0  0  0  0  0  0  0  0  0
    8.0622   -1.2692    0.0000 H   0  0  0  0  0  0  0  0  0  0  0  0
   10.0021   -2.3892    0.0000 H   0  0  0  0  0  0  0  0  0  0  0  0
    8.3871    0.0034    0.0000 H   0  0  0  0  0  0  0  0  0  0  0  0
    7.9885   -0.6869    0.0000 H   0  0  0  0  0  0  0  0  0  0  0  0
    8.2700   -5.3892    0.0000 H   0  0  0  0  0  0  0  0  0  0  0  0
   10.8681   -3.2692    0.0000 H   0  0  0  0  0  0  0  0  0  0  0  0
   10.3312   -0.9592    0.0000 H   0  0  0  0  0  0  0  0  0  0  0  0
    7.7331   -6.6992    0.0000 H   0  0  0  0  0  0  0  0  0  0  0  0
    9.4651    0.5408    0.0000 H   0  0  0  0  0  0  0  0  0  0  0  0
    6.3301   -6.8892    0.0000 H   0  0  0  0  0  0  0  0  0  0  0  0
    5.7890   -4.4966    0.0000 H   0  0  0  0  0  0  0  0  0  0  0  0
    5.3905   -5.1869    0.0000 H   0  0  0  0  0  0  0  0  0  0  0  0
    5.4641   -5.7692    0.0000 H   0  0  0  0  0  0  0  0  0  0  0  0
    8.5991   -7.1992    0.0000 H   0  0  0  0  0  0  0  0  0  0  0  0
    7.4040   -7.8892    0.0000 H   0  0  0  0  0  0  0  0  0  0  0  0
    5.1350   -7.1992    0.0000 H   0  0  0  0  0  0  0  0  0  0  0  0
  1 19  1  0  0  0  0
  1 30  1  0  0  0  0
 26  2  1  1  0  0  0
  2102  1  0  0  0  0
 42  3  1  6  0  0  0
 48  3  1  1  0  0  0
  4 48  1  0  0  0  0
  4 51  1  0  0  0  0
 49  5  1  6  0  0  0
 54  5  1  6  0  0  0
 50  6  1  1  0  0  0
  6120  1  0  0  0  0
 52  7  1  6  0  0  0
  7121  1  0  0  0  0
  8 54  1  0  0  0  0
  8 57  1  0  0  0  0
  9 53  1  0  0  0  0
  9123  1  0  0  0  0
 55 10  1  1  0  0  0
 60 10  1  1  0  0  0
 56 11  1  6  0  0  0
 11130  1  0  0  0  0
 58 12  1  1  0  0  0
 12131  1  0  0  0  0
 13 60  1  0  0  0  0
 13 63  1  0  0  0  0
 14 59  1  0  0  0  0
 14133  1  0  0  0  0
 61 15  1  6  0  0  0
 15138  1  0  0  0  0
 62 16  1  1  0  0  0
 16139  1  0  0  0  0
 64 17  1  6  0  0  0
 17140  1  0  0  0  0
 18 19  1  0  0  0  0
 18 20  1  0  0  0  0
 18 25  1  0  0  0  0
 18 34  1  1  0  0  0
 19 21  1  0  0  0  0
 19 32  1  6  0  0  0
 20 23  1  0  0  0  0
 20 29  1  0  0  0  0
 20 38  1  6  0  0  0
 21 22  1  0  0  0  0
 21 28  1  0  0  0  0
 21 65  1  6  0  0  0
 22 26  1  0  0  0  0
 22 30  1  0  0  0  0
 22 31  1  6  0  0  0
 23 24  1  0  0  0  0
 23 35  1  0  0  0  0
 23 66  1  1  0  0  0
 24 27  1  0  0  0  0
 24 39  1  0  0  0  0
 24 41  1  6  0  0  0
 25 26  1  0  0  0  0
 25 67  1  0  0  0  0
 25 68  1  0  0  0  0
 26 69  1  0  0  0  0
 27 33  1  0  0  0  0
 27 37  1  0  0  0  0
 27 70  1  1  0  0  0
 28 36  1  0  0  0  0
 28 44  1  6  0  0  0
 28 71  1  0  0  0  0
 29 33  1  0  0  0  0
 29 72  1  0  0  0  0
 29 73  1  0  0  0  0
 30 74  1  0  0  0  0
 30 75  1  0  0  0  0
 31 40  1  0  0  0  0
 31 76  1  0  0  0  0
 31 77  1  0  0  0  0
 32 35  2  0  0  0  0
 32 78  1  0  0  0  0
 33 79  1  0  0  0  0
 33 80  1  0  0  0  0
 34 81  1  0  0  0  0
 34 82  1  0  0  0  0
 34 83  1  0  0  0  0
 35 84  1  0  0  0  0
 36 40  1  0  0  0  0
 36 45  1  1  0  0  0
 36 85  1  0  0  0  0
 37 42  1  0  0  0  0
 37 46  1  0  0  0  0
 37 47  1  0  0  0  0
 38 86  1  0  0  0  0
 38 87  1  0  0  0  0
 38 88  1  0  0  0  0
 39 43  1  0  0  0  0
 39 89  1  0  0  0  0
 39 90  1  0  0  0  0
 40 91  1  0  0  0  0
 40 92  1  0  0  0  0
 41 93  1  0  0  0  0
 41 94  1  0  0  0  0
 41 95  1  0  0  0  0
 42 43  1  0  0  0  0
 42 96  1  0  0  0  0
 43 97  1  0  0  0  0
 43 98  1  0  0  0  0
 44 99  1  0  0  0  0
 44100  1  0  0  0  0
 44101  1  0  0  0  0
 45103  1  0  0  0  0
 45104  1  0  0  0  0
 45105  1  0  0  0  0
 46106  1  0  0  0  0
 46107  1  0  0  0  0
 46108  1  0  0  0  0
 47109  1  0  0  0  0
 47110  1  0  0  0  0
 47111  1  0  0  0  0
 48 49  1  0  0  0  0
 48112  1  0  0  0  0
 49 50  1  0  0  0  0
 49113  1  0  0  0  0
 50 52  1  0  0  0  0
 50114  1  0  0  0  0
 51 52  1  0  0  0  0
 51 53  1  1  0  0  0
 51115  1  0  0  0  0
 52116  1  0  0  0  0
 53117  1  0  0  0  0
 53118  1  0  0  0  0
 54 55  1  0  0  0  0
 54119  1  0  0  0  0
 55 56  1  0  0  0  0
 55122  1  0  0  0  0
 56 58  1  0  0  0  0
 56124  1  0  0  0  0
 57 58  1  0  0  0  0
 57 59  1  6  0  0  0
 57125  1  0  0  0  0
 58126  1  0  0  0  0
 59127  1  0  0  0  0
 59128  1  0  0  0  0
 60 61  1  0  0  0  0
 60129  1  0  0  0  0
 61 62  1  0  0  0  0
 61132  1  0  0  0  0
 62 64  1  0  0  0  0
 62134  1  0  0  0  0
 63 64  1  0  0  0  0
 63135  1  0  0  0  0
 63136  1  0  0  0  0
 64137  1  0  0  0  0
M  END
> <PUBCHEM_COMPOUND_CID>
11061975

> <PUBCHEM_COMPOUND_CANONICALIZED>
1

> <PUBCHEM_CACTVS_COMPLEXITY>
1740

> <PUBCHEM_CACTVS_HBOND_ACCEPTOR>
17

> <PUBCHEM_CACTVS_HBOND_DONOR>
10

> <PUBCHEM_CACTVS_ROTATABLE_BOND>
8

> <PUBCHEM_CACTVS_SUBSKEYS>
AAADcfB8PgAAAAAAAAAAAAAAAAAAASAAAAA0aNGCBIAAAEjAAAAAGgAACAAAD1SwgAMCCAAABgCAACBCAAAAAAAgAAAICAAAAAgRFAIAIQAiUAAFgAAPIAPA4PwPgAAAAAAAAADCAAYAADAAAAAAAAAAAA==

> <PUBCHEM_IUPAC_OPENEYE_NAME>
(2S,3R,4S,5R)-2-[(2S,3R,4S,5S,6R)-2-[(2R,3R,4S,5S,6R)-4,5-dihydroxy-2-[[(1S,2R,4S,5R,8R,10S,13S,14R,17S,18R,19S,20R)-2-hydroxy-4,5,9,9,13,19,20-heptamethyl-24-oxahexacyclo[15.5.2.01,18.04,17.05,14.08,13]tetracos-15-en-10-yl]oxy]-6-(hydroxymethyl)tetrahydropyran-3-yl]oxy-4,5-dihydroxy-6-(hydroxymethyl)tetrahydropyran-3-yl]oxytetrahydropyran-3,4,5-triol

> <PUBCHEM_IUPAC_CAS_NAME>
(2S,3R,4S,5R)-2-[[(2S,3R,4S,5S,6R)-2-[[(2R,3R,4S,5S,6R)-4,5-dihydroxy-2-[[(1S,2R,4S,5R,8R,10S,13S,14R,17S,18R,19S,20R)-2-hydroxy-4,5,9,9,13,19,20-heptamethyl-24-oxahexacyclo[15.5.2.01,18.04,17.05,14.08,13]tetracos-15-en-10-yl]oxy]-6-(hydroxymethyl)-3-oxanyl]oxy]-4,5-dihydroxy-6-(hydroxymethyl)-3-oxanyl]oxy]oxane-3,4,5-triol

> <PUBCHEM_IUPAC_NAME_MARKUP>
(2<I>S</I>,3<I>R</I>,4<I>S</I>,5<I>R</I>)-2-[(2<I>S</I>,3<I>R</I>,4<I>S</I>,5<I>S</I>,6<I>R</I>)-2-[(2<I>R</I>,3<I>R</I>,4<I>S</I>,5<I>S</I>,6<I>R</I>)-4,5-dihydroxy-2-[[(1<I>S</I>,2<I>R</I>,4<I>S</I>,5<I>R</I>,8<I>R</I>,10<I>S</I>,13<I>S</I>,14<I>R</I>,17<I>S</I>,18<I>R</I>,19<I>S</I>,20<I>R</I>)-2-hydroxy-4,5,9,9,13,19,20-heptamethyl-24-oxahexacyclo[15.5.2.0<SUP>1,18</SUP>.0<SUP>4,17</SUP>.0<SUP>5,14</SUP>.0<SUP>8,13</SUP>]tetracos-15-en-10-yl]oxy]-6-(hydroxymethyl)oxan-3-yl]oxy-4,5-dihydroxy-6-(hydroxymethyl)oxan-3-yl]oxyoxane-3,4,5-triol

> <PUBCHEM_IUPAC_NAME>
(2S,3R,4S,5R)-2-[(2S,3R,4S,5S,6R)-2-[(2R,3R,4S,5S,6R)-4,5-dihydroxy-2-[[(1S,2R,4S,5R,8R,10S,13S,14R,17S,18R,19S,20R)-2-hydroxy-4,5,9,9,13,19,20-heptamethyl-24-oxahexacyclo[15.5.2.01,18.04,17.05,14.08,13]tetracos-15-en-10-yl]oxy]-6-(hydroxymethyl)oxan-3-yl]oxy-4,5-dihydroxy-6-(hydroxymethyl)oxan-3-yl]oxyoxane-3,4,5-triol

> <PUBCHEM_IUPAC_SYSTEMATIC_NAME>
(2S,3R,4S,5R)-2-[(2S,3R,4S,5S,6R)-2-[(2R,3R,4S,5S,6R)-2-[[(1S,2R,4S,5R,8R,10S,13S,14R,17S,18R,19S,20R)-4,5,9,9,13,19,20-heptamethyl-2-oxidanyl-24-oxahexacyclo[15.5.2.01,18.04,17.05,14.08,13]tetracos-15-en-10-yl]oxy]-6-(hydroxymethyl)-4,5-bis(oxidanyl)oxan-3-yl]oxy-6-(hydroxymethyl)-4,5-bis(oxidanyl)oxan-3-yl]oxyoxane-3,4,5-triol

> <PUBCHEM_IUPAC_TRADITIONAL_NAME>
(2S,3R,4S,5R)-2-[(2S,3R,4S,5S,6R)-2-[(2R,3R,4S,5S,6R)-4,5-dihydroxy-2-[[(1S,2R,4S,5R,8R,10S,13S,14R,17S,18R,19S,20R)-2-hydroxy-4,5,9,9,13,19,20-heptamethyl-24-oxahexacyclo[15.5.2.01,18.04,17.05,14.08,13]tetracos-15-en-10-yl]oxy]-6-methylol-tetrahydropyran-3-yl]oxy-4,5-dihydroxy-6-methylol-tetrahydropyran-3-yl]oxytetrahydropyran-3,4,5-triol

> <PUBCHEM_IUPAC_INCHI>
InChI=1S/C47H76O17/c1-21-8-14-46-20-59-47(38(46)22(21)2)15-10-27-43(5)12-11-29(42(3,4)26(43)9-13-44(27,6)45(47,7)16-28(46)51)62-40-36(33(55)31(53)24(17-48)60-40)64-41-37(34(56)32(54)25(18-49)61-41)63-39-35(57)30(52)23(50)19-58-39/h10,15,21-41,48-57H,8-9,11-14,16-20H2,1-7H3/t21-,22+,23-,24-,25-,26+,27-,28-,29+,30+,31-,32-,33+,34+,35-,36-,37-,38-,39+,40+,41+,43+,44-,45+,46+,47+/m1/s1

> <PUBCHEM_IUPAC_INCHIKEY>
OERYSJKYOLNHAD-NCFQBMSRSA-N

> <PUBCHEM_XLOGP3_AA>
1.8

> <PUBCHEM_EXACT_MASS>
912.508251

> <PUBCHEM_MOLECULAR_FORMULA>
C47H76O17

> <PUBCHEM_MOLECULAR_WEIGHT>
913.1

> <PUBCHEM_OPENEYE_CAN_SMILES>
CC1CCC23COC4(C2C1C)C=CC5C6(CCC(C(C6CCC5(C4(CC3O)C)C)(C)C)OC7C(C(C(C(O7)CO)O)O)OC8C(C(C(C(O8)CO)O)O)OC9C(C(C(CO9)O)O)O)C

> <PUBCHEM_OPENEYE_ISO_SMILES>
C[C@@H]1CC[C@@]23CO[C@]4([C@@H]2[C@H]1C)C=C[C@@H]5[C@]6(CC[C@@H](C([C@@H]6CC[C@]5([C@@]4(C[C@H]3O)C)C)(C)C)O[C@H]7[C@@H]([C@H]([C@@H]([C@H](O7)CO)O)O)O[C@H]8[C@@H]([C@H]([C@@H]([C@H](O8)CO)O)O)O[C@H]9[C@@H]([C@H]([C@@H](CO9)O)O)O)C

> <PUBCHEM_CACTVS_TPSA>
267

> <PUBCHEM_MONOISOTOPIC_WEIGHT>
912.508251

> <PUBCHEM_TOTAL_CHARGE>
0

> <PUBCHEM_HEAVY_ATOM_COUNT>
64

> <PUBCHEM_ATOM_DEF_STEREO_COUNT>
26

> <PUBCHEM_ATOM_UDEF_STEREO_COUNT>
0

> <PUBCHEM_BOND_DEF_STEREO_COUNT>
0

> <PUBCHEM_BOND_UDEF_STEREO_COUNT>
0

> <PUBCHEM_ISOTOPIC_ATOM_COUNT>
0

> <PUBCHEM_COMPONENT_COUNT>
1

> <PUBCHEM_CACTVS_TAUTO_COUNT>
-1

> <PUBCHEM_COORDINATE_TYPE>
1
5
255

> <PUBCHEM_BONDANNOTATIONS>
55  10  5
60  10  5
56  11  6
58  12  5
61  15  6
62  16  5
64  17  6
18  34  5
19  32  6
26  2  5
20  38  6
21  65  6
22  31  6
23  66  5
24  41  6
27  70  5
28  44  6
42  3  6
48  3  5
36  45  5
49  5  6
54  5  6
51  53  5
57  59  6
50  6  5
52  7  6

$$$$
