10865866
  -OEChem-09182001422D

139147  0     1  0  0  0  0  0999 V2000
    5.3584    5.0213    0.0000 O   0  0  0  0  0  0  0  0  0  0  0  0
    3.3348    6.3099    0.0000 O   0  0  0  0  0  0  0  0  0  0  0  0
    6.0010   -1.5792    0.0000 O   0  0  0  0  0  0  0  0  0  0  0  0
    4.2690   -1.5792    0.0000 O   0  0  0  0  0  0  0  0  0  0  0  0
    6.0010   -3.5792    0.0000 O   0  0  0  0  0  0  0  0  0  0  0  0
    4.2690   -4.5792    0.0000 O   0  0  0  0  0  0  0  0  0  0  0  0
    2.5369   -3.5792    0.0000 O   0  0  0  0  0  0  0  0  0  0  0  0
    6.8671   -2.0792    0.0000 O   0  0  0  0  0  0  0  0  0  0  0  0
    7.7331   -4.5792    0.0000 O   0  0  0  0  0  0  0  0  0  0  0  0
    9.4651   -3.5792    0.0000 O   0  0  0  0  0  0  0  0  0  0  0  0
    9.4651   -1.5792    0.0000 O   0  0  0  0  0  0  0  0  0  0  0  0
    6.0010   -4.5792    0.0000 O   0  0  0  0  0  0  0  0  0  0  0  0
    8.5991   -0.0792    0.0000 O   0  0  0  0  0  0  0  0  0  0  0  0
    7.7331   -6.5792    0.0000 O   0  0  0  0  0  0  0  0  0  0  0  0
    6.0010   -7.5792    0.0000 O   0  0  0  0  0  0  0  0  0  0  0  0
    4.2690   -6.5792    0.0000 O   0  0  0  0  0  0  0  0  0  0  0  0
    5.0745    4.3166    0.0000 C   0  0  2  0  0  0  0  0  0  0  0  0
    5.9386    4.8199    0.0000 C   0  0  2  0  0  0  0  0  0  0  0  0
    5.0625    3.2750    0.0000 C   0  0  1  0  0  0  0  0  0  0  0  0
    5.9348    5.8199    0.0000 C   0  0  1  0  0  0  0  0  0  0  0  0
    5.0668    6.3166    0.0000 C   0  0  2  0  0  0  0  0  0  0  0  0
    5.9625    2.7508    0.0000 C   0  0  1  0  0  0  0  0  0  0  0  0
    5.9751    1.6658    0.0000 C   0  0  2  0  0  0  0  0  0  0  0  0
    4.2066    4.8132    0.0000 C   0  0  0  0  0  0  0  0  0  0  0  0
    4.2027    5.8132    0.0000 C   0  0  1  0  0  0  0  0  0  0  0  0
    5.0375    1.1197    0.0000 C   0  0  1  0  0  0  0  0  0  0  0  0
    6.8428    6.3303    0.0000 C   0  0  2  0  0  0  0  0  0  0  0  0
    4.1126    2.7508    0.0000 C   0  0  0  0  0  0  0  0  0  0  0  0
    4.9557    5.7126    0.0000 C   0  0  0  0  0  0  0  0  0  0  0  0
    5.0467    7.3580    0.0000 C   0  0  0  0  0  0  0  0  0  0  0  0
    6.8506    4.3166    0.0000 C   0  0  0  0  0  0  0  0  0  0  0  0
    4.1000    1.6658    0.0000 C   0  0  0  0  0  0  0  0  0  0  0  0
    4.0904    4.1392    0.0000 C   0  0  0  0  0  0  0  0  0  0  0  0
    6.8626    3.2750    0.0000 C   0  0  0  0  0  0  0  0  0  0  0  0
    6.8468    7.3719    0.0000 C   0  0  1  0  0  0  0  0  0  0  0  0
    5.0245   -0.0104    0.0000 C   0  0  0  0  0  0  0  0  0  0  0  0
    4.0783    3.4525    0.0000 C   0  0  0  0  0  0  0  0  0  0  0  0
    6.9645    1.1197    0.0000 C   0  0  0  0  0  0  0  0  0  0  0  0
    5.9427    7.8892    0.0000 C   0  0  0  0  0  0  0  0  0  0  0  0
    6.8392    2.1692    0.0000 C   0  0  0  0  0  0  0  0  0  0  0  0
    6.0010   -0.5792    0.0000 C   0  0  2  0  0  0  0  0  0  0  0  0
    6.9776   -0.0104    0.0000 C   0  0  0  0  0  0  0  0  0  0  0  0
    7.7049    5.8236    0.0000 C   0  0  0  0  0  0  0  0  0  0  0  0
    7.7128    7.8719    0.0000 C   0  0  0  0  0  0  0  0  0  0  0  0
    4.0245   -0.0027    0.0000 C   0  0  0  0  0  0  0  0  0  0  0  0
    4.5178   -0.8725    0.0000 C   0  0  0  0  0  0  0  0  0  0  0  0
    5.1350   -2.0792    0.0000 C   0  0  2  0  0  0  0  0  0  0  0  0
    5.1350   -3.0792    0.0000 C   0  0  1  0  0  0  0  0  0  0  0  0
    4.2690   -3.5792    0.0000 C   0  0  2  0  0  0  0  0  0  0  0  0
    3.4030   -2.0792    0.0000 C   0  0  1  0  0  0  0  0  0  0  0  0
    3.4030   -3.0792    0.0000 C   0  0  2  0  0  0  0  0  0  0  0  0
    2.5369   -1.5792    0.0000 C   0  0  0  0  0  0  0  0  0  0  0  0
    6.8671   -3.0792    0.0000 C   0  0  2  0  0  0  0  0  0  0  0  0
    7.7331   -3.5792    0.0000 C   0  0  1  0  0  0  0  0  0  0  0  0
    8.5991   -3.0792    0.0000 C   0  0  2  0  0  0  0  0  0  0  0  0
    7.7331   -1.5792    0.0000 C   0  0  1  0  0  0  0  0  0  0  0  0
    8.5991   -2.0792    0.0000 C   0  0  1  0  0  0  0  0  0  0  0  0
    7.7331   -0.5792    0.0000 C   0  0  0  0  0  0  0  0  0  0  0  0
    6.8671   -5.0792    0.0000 C   0  0  2  0  0  0  0  0  0  0  0  0
    6.8671   -6.0792    0.0000 C   0  0  1  0  0  0  0  0  0  0  0  0
    6.0010   -6.5792    0.0000 C   0  0  2  0  0  0  0  0  0  0  0  0
    5.1350   -5.0792    0.0000 C   0  0  0  0  0  0  0  0  0  0  0  0
    5.1350   -6.0792    0.0000 C   0  0  1  0  0  0  0  0  0  0  0  0
    6.6725    5.3978    0.0000 H   0  0  0  0  0  0  0  0  0  0  0  0
    6.7019    2.3314    0.0000 H   0  0  0  0  0  0  0  0  0  0  0  0
    3.5956    4.9186    0.0000 H   0  0  0  0  0  0  0  0  0  0  0  0
    3.9968    4.2298    0.0000 H   0  0  0  0  0  0  0  0  0  0  0  0
    4.2003    6.4332    0.0000 H   0  0  0  0  0  0  0  0  0  0  0  0
    4.2982    0.7004    0.0000 H   0  0  0  0  0  0  0  0  0  0  0  0
    7.3815    6.6372    0.0000 H   0  0  0  0  0  0  0  0  0  0  0  0
    3.9103    3.3368    0.0000 H   0  0  0  0  0  0  0  0  0  0  0  0
    3.5005    2.6517    0.0000 H   0  0  0  0  0  0  0  0  0  0  0  0
    4.4027    5.9928    0.0000 H   0  0  0  0  0  0  0  0  0  0  0  0
    4.5303    5.2615    0.0000 H   0  0  0  0  0  0  0  0  0  0  0  0
    4.8265    7.9376    0.0000 H   0  0  0  0  0  0  0  0  0  0  0  0
    4.4380    7.2402    0.0000 H   0  0  0  0  0  0  0  0  0  0  0  0
    7.3826    4.6348    0.0000 H   0  0  0  0  0  0  0  0  0  0  0  0
    3.4904    1.7790    0.0000 H   0  0  0  0  0  0  0  0  0  0  0  0
    3.8842    1.0846    0.0000 H   0  0  0  0  0  0  0  0  0  0  0  0
    3.9804    4.7494    0.0000 H   0  0  0  0  0  0  0  0  0  0  0  0
    3.4802    4.0292    0.0000 H   0  0  0  0  0  0  0  0  0  0  0  0
    4.2004    3.5290    0.0000 H   0  0  0  0  0  0  0  0  0  0  0  0
    7.4019    2.9692    0.0000 H   0  0  0  0  0  0  0  0  0  0  0  0
    6.8456    7.9919    0.0000 H   0  0  0  0  0  0  0  0  0  0  0  0
    4.1884    4.0626    0.0000 H   0  0  0  0  0  0  0  0  0  0  0  0
    3.4682    3.5625    0.0000 H   0  0  0  0  0  0  0  0  0  0  0  0
    3.9683    2.8423    0.0000 H   0  0  0  0  0  0  0  0  0  0  0  0
    7.5766    1.0207    0.0000 H   0  0  0  0  0  0  0  0  0  0  0  0
    7.1668    1.7058    0.0000 H   0  0  0  0  0  0  0  0  0  0  0  0
    6.3382    8.3667    0.0000 H   0  0  0  0  0  0  0  0  0  0  0  0
    5.5399    8.3606    0.0000 H   0  0  0  0  0  0  0  0  0  0  0  0
    7.1512    1.6334    0.0000 H   0  0  0  0  0  0  0  0  0  0  0  0
    7.3749    2.4812    0.0000 H   0  0  0  0  0  0  0  0  0  0  0  0
    6.5271    2.7049    0.0000 H   0  0  0  0  0  0  0  0  0  0  0  0
    6.5386   -0.8882    0.0000 H   0  0  0  0  0  0  0  0  0  0  0  0
    7.1934   -0.5916    0.0000 H   0  0  0  0  0  0  0  0  0  0  0  0
    7.5872    0.1028    0.0000 H   0  0  0  0  0  0  0  0  0  0  0  0
    7.3908    5.2891    0.0000 H   0  0  0  0  0  0  0  0  0  0  0  0
    8.2395    5.5095    0.0000 H   0  0  0  0  0  0  0  0  0  0  0  0
    8.0191    6.3581    0.0000 H   0  0  0  0  0  0  0  0  0  0  0  0
    2.7990    5.9978    0.0000 H   0  0  0  0  0  0  0  0  0  0  0  0
    8.0228    7.3350    0.0000 H   0  0  0  0  0  0  0  0  0  0  0  0
    8.2498    8.1819    0.0000 H   0  0  0  0  0  0  0  0  0  0  0  0
    7.4028    8.4088    0.0000 H   0  0  0  0  0  0  0  0  0  0  0  0
    4.0293    0.6173    0.0000 H   0  0  0  0  0  0  0  0  0  0  0  0
    3.4045    0.0021    0.0000 H   0  0  0  0  0  0  0  0  0  0  0  0
    4.0197   -0.6227    0.0000 H   0  0  0  0  0  0  0  0  0  0  0  0
    3.9833   -0.5584    0.0000 H   0  0  0  0  0  0  0  0  0  0  0  0
    4.2037   -1.4071    0.0000 H   0  0  0  0  0  0  0  0  0  0  0  0
    5.0523   -1.1867    0.0000 H   0  0  0  0  0  0  0  0  0  0  0  0
    5.1350   -1.4592    0.0000 H   0  0  0  0  0  0  0  0  0  0  0  0
    5.6720   -2.7692    0.0000 H   0  0  0  0  0  0  0  0  0  0  0  0
    4.8059   -3.8892    0.0000 H   0  0  0  0  0  0  0  0  0  0  0  0
    3.4030   -1.4592    0.0000 H   0  0  0  0  0  0  0  0  0  0  0  0
    2.8660   -2.7692    0.0000 H   0  0  0  0  0  0  0  0  0  0  0  0
    2.8469   -1.0423    0.0000 H   0  0  0  0  0  0  0  0  0  0  0  0
    2.0000   -1.2692    0.0000 H   0  0  0  0  0  0  0  0  0  0  0  0
    2.2269   -2.1162    0.0000 H   0  0  0  0  0  0  0  0  0  0  0  0
    6.8671   -3.6992    0.0000 H   0  0  0  0  0  0  0  0  0  0  0  0
    3.7320   -4.8892    0.0000 H   0  0  0  0  0  0  0  0  0  0  0  0
    2.0000   -3.2692    0.0000 H   0  0  0  0  0  0  0  0  0  0  0  0
    8.2700   -3.8892    0.0000 H   0  0  0  0  0  0  0  0  0  0  0  0
    9.1360   -2.7692    0.0000 H   0  0  0  0  0  0  0  0  0  0  0  0
    7.1962   -1.2692    0.0000 H   0  0  0  0  0  0  0  0  0  0  0  0
    9.1360   -2.3892    0.0000 H   0  0  0  0  0  0  0  0  0  0  0  0
    7.5210    0.0034    0.0000 H   0  0  0  0  0  0  0  0  0  0  0  0
    7.1225   -0.6869    0.0000 H   0  0  0  0  0  0  0  0  0  0  0  0
    6.8671   -4.4592    0.0000 H   0  0  0  0  0  0  0  0  0  0  0  0
   10.0021   -3.2692    0.0000 H   0  0  0  0  0  0  0  0  0  0  0  0
    9.4651   -0.9592    0.0000 H   0  0  0  0  0  0  0  0  0  0  0  0
    7.4040   -5.7692    0.0000 H   0  0  0  0  0  0  0  0  0  0  0  0
    8.5991    0.5408    0.0000 H   0  0  0  0  0  0  0  0  0  0  0  0
    6.5380   -6.8892    0.0000 H   0  0  0  0  0  0  0  0  0  0  0  0
    4.9230   -4.4966    0.0000 H   0  0  0  0  0  0  0  0  0  0  0  0
    4.5244   -5.1869    0.0000 H   0  0  0  0  0  0  0  0  0  0  0  0
    5.1350   -6.6992    0.0000 H   0  0  0  0  0  0  0  0  0  0  0  0
    7.7331   -7.1992    0.0000 H   0  0  0  0  0  0  0  0  0  0  0  0
    5.4641   -7.8892    0.0000 H   0  0  0  0  0  0  0  0  0  0  0  0
    3.7320   -6.2692    0.0000 H   0  0  0  0  0  0  0  0  0  0  0  0
  1 18  1  0  0  0  0
  1 29  1  0  0  0  0
 25  2  1  1  0  0  0
  2101  1  0  0  0  0
 41  3  1  6  0  0  0
 47  3  1  1  0  0  0
  4 47  1  0  0  0  0
  4 50  1  0  0  0  0
 48  5  1  6  0  0  0
 53  5  1  6  0  0  0
 49  6  1  1  0  0  0
  6120  1  0  0  0  0
 51  7  1  1  0  0  0
  7121  1  0  0  0  0
  8 53  1  0  0  0  0
  8 56  1  0  0  0  0
 54  9  1  1  0  0  0
 59  9  1  1  0  0  0
 55 10  1  6  0  0  0
 10129  1  0  0  0  0
 57 11  1  1  0  0  0
 11130  1  0  0  0  0
 12 59  1  0  0  0  0
 12 62  1  0  0  0  0
 13 58  1  0  0  0  0
 13132  1  0  0  0  0
 60 14  1  6  0  0  0
 14137  1  0  0  0  0
 61 15  1  1  0  0  0
 15138  1  0  0  0  0
 63 16  1  6  0  0  0
 16139  1  0  0  0  0
 17 18  1  0  0  0  0
 17 19  1  0  0  0  0
 17 24  1  0  0  0  0
 17 33  1  1  0  0  0
 18 20  1  0  0  0  0
 18 31  1  6  0  0  0
 19 22  1  0  0  0  0
 19 28  1  0  0  0  0
 19 37  1  6  0  0  0
 20 21  1  0  0  0  0
 20 27  1  0  0  0  0
 20 64  1  6  0  0  0
 21 25  1  0  0  0  0
 21 29  1  0  0  0  0
 21 30  1  6  0  0  0
 22 23  1  0  0  0  0
 22 34  1  0  0  0  0
 22 65  1  1  0  0  0
 23 26  1  0  0  0  0
 23 38  1  0  0  0  0
 23 40  1  6  0  0  0
 24 25  1  0  0  0  0
 24 66  1  0  0  0  0
 24 67  1  0  0  0  0
 25 68  1  0  0  0  0
 26 32  1  0  0  0  0
 26 36  1  0  0  0  0
 26 69  1  1  0  0  0
 27 35  1  0  0  0  0
 27 43  1  6  0  0  0
 27 70  1  0  0  0  0
 28 32  1  0  0  0  0
 28 71  1  0  0  0  0
 28 72  1  0  0  0  0
 29 73  1  0  0  0  0
 29 74  1  0  0  0  0
 30 39  1  0  0  0  0
 30 75  1  0  0  0  0
 30 76  1  0  0  0  0
 31 34  2  0  0  0  0
 31 77  1  0  0  0  0
 32 78  1  0  0  0  0
 32 79  1  0  0  0  0
 33 80  1  0  0  0  0
 33 81  1  0  0  0  0
 33 82  1  0  0  0  0
 34 83  1  0  0  0  0
 35 39  1  0  0  0  0
 35 44  1  1  0  0  0
 35 84  1  0  0  0  0
 36 41  1  0  0  0  0
 36 45  1  0  0  0  0
 36 46  1  0  0  0  0
 37 85  1  0  0  0  0
 37 86  1  0  0  0  0
 37 87  1  0  0  0  0
 38 42  1  0  0  0  0
 38 88  1  0  0  0  0
 38 89  1  0  0  0  0
 39 90  1  0  0  0  0
 39 91  1  0  0  0  0
 40 92  1  0  0  0  0
 40 93  1  0  0  0  0
 40 94  1  0  0  0  0
 41 42  1  0  0  0  0
 41 95  1  0  0  0  0
 42 96  1  0  0  0  0
 42 97  1  0  0  0  0
 43 98  1  0  0  0  0
 43 99  1  0  0  0  0
 43100  1  0  0  0  0
 44102  1  0  0  0  0
 44103  1  0  0  0  0
 44104  1  0  0  0  0
 45105  1  0  0  0  0
 45106  1  0  0  0  0
 45107  1  0  0  0  0
 46108  1  0  0  0  0
 46109  1  0  0  0  0
 46110  1  0  0  0  0
 47 48  1  0  0  0  0
 47111  1  0  0  0  0
 48 49  1  0  0  0  0
 48112  1  0  0  0  0
 49 51  1  0  0  0  0
 49113  1  0  0  0  0
 50 51  1  0  0  0  0
 50 52  1  1  0  0  0
 50114  1  0  0  0  0
 51115  1  0  0  0  0
 52116  1  0  0  0  0
 52117  1  0  0  0  0
 52118  1  0  0  0  0
 53 54  1  0  0  0  0
 53119  1  0  0  0  0
 54 55  1  0  0  0  0
 54122  1  0  0  0  0
 55 57  1  0  0  0  0
 55123  1  0  0  0  0
 56 57  1  0  0  0  0
 56 58  1  6  0  0  0
 56124  1  0  0  0  0
 57125  1  0  0  0  0
 58126  1  0  0  0  0
 58127  1  0  0  0  0
 59 60  1  0  0  0  0
 59128  1  0  0  0  0
 60 61  1  0  0  0  0
 60131  1  0  0  0  0
 61 63  1  0  0  0  0
 61133  1  0  0  0  0
 62 63  1  0  0  0  0
 62134  1  0  0  0  0
 62135  1  0  0  0  0
 63136  1  0  0  0  0
M  END
> <PUBCHEM_COMPOUND_CID>
10865866

> <PUBCHEM_COMPOUND_CANONICALIZED>
1

> <PUBCHEM_CACTVS_COMPLEXITY>
1720

> <PUBCHEM_CACTVS_HBOND_ACCEPTOR>
16

> <PUBCHEM_CACTVS_HBOND_DONOR>
9

> <PUBCHEM_CACTVS_ROTATABLE_BOND>
7

> <PUBCHEM_CACTVS_SUBSKEYS>
AAADcfB8PgAAAAAAAAAAAAAAAAAAASAAAAA0aNGCBIAAAEjAAAAAGgAACAAAD1SwgAMCCAAABgCAACBCAAAAAAAgAAAICAAAAAgRFAIAIQAiUAAFgAAPIAPA4PwPgAAAAAAAAADCAAYAADAAAAAAAAAAAA==

> <PUBCHEM_IUPAC_OPENEYE_NAME>
(2S,3R,4S,5R)-2-[(2S,3R,4S,5S,6R)-2-[(2R,3R,4S,5R,6R)-4,5-dihydroxy-2-[[(1S,2R,4S,5R,8R,10S,13S,14R,17S,18R,19S,20R)-2-hydroxy-4,5,9,9,13,19,20-heptamethyl-24-oxahexacyclo[15.5.2.01,18.04,17.05,14.08,13]tetracos-15-en-10-yl]oxy]-6-methyl-tetrahydropyran-3-yl]oxy-4,5-dihydroxy-6-(hydroxymethyl)tetrahydropyran-3-yl]oxytetrahydropyran-3,4,5-triol

> <PUBCHEM_IUPAC_CAS_NAME>
(2S,3R,4S,5R)-2-[[(2S,3R,4S,5S,6R)-2-[[(2R,3R,4S,5R,6R)-4,5-dihydroxy-2-[[(1S,2R,4S,5R,8R,10S,13S,14R,17S,18R,19S,20R)-2-hydroxy-4,5,9,9,13,19,20-heptamethyl-24-oxahexacyclo[15.5.2.01,18.04,17.05,14.08,13]tetracos-15-en-10-yl]oxy]-6-methyl-3-oxanyl]oxy]-4,5-dihydroxy-6-(hydroxymethyl)-3-oxanyl]oxy]oxane-3,4,5-triol

> <PUBCHEM_IUPAC_NAME_MARKUP>
(2<I>S</I>,3<I>R</I>,4<I>S</I>,5<I>R</I>)-2-[(2<I>S</I>,3<I>R</I>,4<I>S</I>,5<I>S</I>,6<I>R</I>)-2-[(2<I>R</I>,3<I>R</I>,4<I>S</I>,5<I>R</I>,6<I>R</I>)-4,5-dihydroxy-2-[[(1<I>S</I>,2<I>R</I>,4<I>S</I>,5<I>R</I>,8<I>R</I>,10<I>S</I>,13<I>S</I>,14<I>R</I>,17<I>S</I>,18<I>R</I>,19<I>S</I>,20<I>R</I>)-2-hydroxy-4,5,9,9,13,19,20-heptamethyl-24-oxahexacyclo[15.5.2.0<SUP>1,18</SUP>.0<SUP>4,17</SUP>.0<SUP>5,14</SUP>.0<SUP>8,13</SUP>]tetracos-15-en-10-yl]oxy]-6-methyloxan-3-yl]oxy-4,5-dihydroxy-6-(hydroxymethyl)oxan-3-yl]oxyoxane-3,4,5-triol

> <PUBCHEM_IUPAC_NAME>
(2S,3R,4S,5R)-2-[(2S,3R,4S,5S,6R)-2-[(2R,3R,4S,5R,6R)-4,5-dihydroxy-2-[[(1S,2R,4S,5R,8R,10S,13S,14R,17S,18R,19S,20R)-2-hydroxy-4,5,9,9,13,19,20-heptamethyl-24-oxahexacyclo[15.5.2.01,18.04,17.05,14.08,13]tetracos-15-en-10-yl]oxy]-6-methyloxan-3-yl]oxy-4,5-dihydroxy-6-(hydroxymethyl)oxan-3-yl]oxyoxane-3,4,5-triol

> <PUBCHEM_IUPAC_SYSTEMATIC_NAME>
(2S,3R,4S,5R)-2-[(2S,3R,4S,5S,6R)-2-[(2R,3R,4S,5R,6R)-2-[[(1S,2R,4S,5R,8R,10S,13S,14R,17S,18R,19S,20R)-4,5,9,9,13,19,20-heptamethyl-2-oxidanyl-24-oxahexacyclo[15.5.2.01,18.04,17.05,14.08,13]tetracos-15-en-10-yl]oxy]-6-methyl-4,5-bis(oxidanyl)oxan-3-yl]oxy-6-(hydroxymethyl)-4,5-bis(oxidanyl)oxan-3-yl]oxyoxane-3,4,5-triol

> <PUBCHEM_IUPAC_TRADITIONAL_NAME>
(2S,3R,4S,5R)-2-[(2S,3R,4S,5S,6R)-2-[(2R,3R,4S,5R,6R)-4,5-dihydroxy-2-[[(1S,2R,4S,5R,8R,10S,13S,14R,17S,18R,19S,20R)-2-hydroxy-4,5,9,9,13,19,20-heptamethyl-24-oxahexacyclo[15.5.2.01,18.04,17.05,14.08,13]tetracos-15-en-10-yl]oxy]-6-methyl-tetrahydropyran-3-yl]oxy-4,5-dihydroxy-6-methylol-tetrahydropyran-3-yl]oxytetrahydropyran-3,4,5-triol

> <PUBCHEM_IUPAC_INCHI>
InChI=1S/C47H76O16/c1-21-9-15-46-20-58-47(38(46)22(21)2)16-11-27-43(6)13-12-29(42(4,5)26(43)10-14-44(27,7)45(47,8)17-28(46)50)61-40-36(33(54)30(51)23(3)59-40)63-41-37(34(55)32(53)25(18-48)60-41)62-39-35(56)31(52)24(49)19-57-39/h11,16,21-41,48-56H,9-10,12-15,17-20H2,1-8H3/t21-,22+,23-,24-,25-,26+,27-,28-,29+,30+,31+,32-,33+,34+,35-,36-,37-,38-,39+,40+,41+,43+,44-,45+,46+,47+/m1/s1

> <PUBCHEM_IUPAC_INCHIKEY>
RHHWBSQGVOHKJH-ZKLLPSJOSA-N

> <PUBCHEM_XLOGP3_AA>
2.3

> <PUBCHEM_EXACT_MASS>
896.513336

> <PUBCHEM_MOLECULAR_FORMULA>
C47H76O16

> <PUBCHEM_MOLECULAR_WEIGHT>
897.1

> <PUBCHEM_OPENEYE_CAN_SMILES>
CC1CCC23COC4(C2C1C)C=CC5C6(CCC(C(C6CCC5(C4(CC3O)C)C)(C)C)OC7C(C(C(C(O7)C)O)O)OC8C(C(C(C(O8)CO)O)O)OC9C(C(C(CO9)O)O)O)C

> <PUBCHEM_OPENEYE_ISO_SMILES>
C[C@@H]1CC[C@@]23CO[C@]4([C@@H]2[C@H]1C)C=C[C@@H]5[C@]6(CC[C@@H](C([C@@H]6CC[C@]5([C@@]4(C[C@H]3O)C)C)(C)C)O[C@H]7[C@@H]([C@H]([C@H]([C@H](O7)C)O)O)O[C@H]8[C@@H]([C@H]([C@@H]([C@H](O8)CO)O)O)O[C@H]9[C@@H]([C@H]([C@@H](CO9)O)O)O)C

> <PUBCHEM_CACTVS_TPSA>
247

> <PUBCHEM_MONOISOTOPIC_WEIGHT>
896.513336

> <PUBCHEM_TOTAL_CHARGE>
0

> <PUBCHEM_HEAVY_ATOM_COUNT>
63

> <PUBCHEM_ATOM_DEF_STEREO_COUNT>
26

> <PUBCHEM_ATOM_UDEF_STEREO_COUNT>
0

> <PUBCHEM_BOND_DEF_STEREO_COUNT>
0

> <PUBCHEM_BOND_UDEF_STEREO_COUNT>
0

> <PUBCHEM_ISOTOPIC_ATOM_COUNT>
0

> <PUBCHEM_COMPONENT_COUNT>
1

> <PUBCHEM_CACTVS_TAUTO_COUNT>
-1

> <PUBCHEM_COORDINATE_TYPE>
1
5
255

> <PUBCHEM_BONDANNOTATIONS>
55  10  6
57  11  5
60  14  6
61  15  5
63  16  6
17  33  5
18  31  6
19  37  6
25  2  5
20  64  6
21  30  6
22  65  5
23  40  6
26  69  5
27  43  6
41  3  6
47  3  5
35  44  5
48  5  6
53  5  6
50  52  5
56  58  6
49  6  5
51  7  5
54  9  5
59  9  5

$$$$
