91746712
  -OEChem-09182012513D

 40 43  0     1  0  0  0  0  0999 V2000
    3.4270    0.3003    0.0362 O   0  0  0  0  0  0  0  0  0  0  0  0
   -1.1185    0.0521   -0.4245 C   0  0  2  0  0  0  0  0  0  0  0  0
   -0.9305    1.5027   -0.7930 C   0  0  1  0  0  0  0  0  0  0  0  0
   -2.1388    1.0950    0.0328 C   0  0  0  0  0  0  0  0  0  0  0  0
   -0.2609   -0.7108    0.5647 C   0  0  2  0  0  0  0  0  0  0  0  0
    1.2369   -0.7862    0.2169 C   0  0  2  0  0  0  0  0  0  0  0  0
    2.0020    0.5034    0.0909 C   0  0  2  0  0  0  0  0  0  0  0  0
    0.2597    2.2537   -0.3062 C   0  0  0  0  0  0  0  0  0  0  0  0
   -0.5917   -2.2266    0.5246 C   0  0  2  0  0  0  0  0  0  0  0  0
    1.5362    1.5971   -0.8293 C   0  0  0  0  0  0  0  0  0  0  0  0
    1.2844   -1.7276   -0.9852 C   0  0  0  0  0  0  0  0  0  0  0  0
    0.1639   -2.7470   -0.7162 C   0  0  0  0  0  0  0  0  0  0  0  0
    2.9209    0.9010    1.2329 C   0  0  0  0  0  0  0  0  0  0  0  0
   -2.2462    1.5154    1.4761 C   0  0  0  0  0  0  0  0  0  0  0  0
   -3.4769    1.0745   -0.6685 C   0  0  0  0  0  0  0  0  0  0  0  0
   -2.0675   -2.5970    0.5479 C   0  0  0  0  0  0  0  0  0  0  0  0
   -1.3795   -0.5636   -1.2820 H   0  0  0  0  0  0  0  0  0  0  0  0
   -1.1155    1.7527   -1.8360 H   0  0  0  0  0  0  0  0  0  0  0  0
   -0.3855   -0.3332    1.5830 H   0  0  0  0  0  0  0  0  0  0  0  0
    1.7135   -1.3399    1.0428 H   0  0  0  0  0  0  0  0  0  0  0  0
    0.2938    2.3465    0.7827 H   0  0  0  0  0  0  0  0  0  0  0  0
    0.1946    3.2738   -0.7036 H   0  0  0  0  0  0  0  0  0  0  0  0
   -0.1331   -2.6905    1.4106 H   0  0  0  0  0  0  0  0  0  0  0  0
    1.4030    1.2086   -1.8457 H   0  0  0  0  0  0  0  0  0  0  0  0
    2.3126    2.3706   -0.8975 H   0  0  0  0  0  0  0  0  0  0  0  0
    2.2593   -2.2166   -1.0818 H   0  0  0  0  0  0  0  0  0  0  0  0
    1.0930   -1.1957   -1.9239 H   0  0  0  0  0  0  0  0  0  0  0  0
   -0.4881   -2.8272   -1.5932 H   0  0  0  0  0  0  0  0  0  0  0  0
    0.5761   -3.7434   -0.5229 H   0  0  0  0  0  0  0  0  0  0  0  0
    3.1314    1.9509    1.3946 H   0  0  0  0  0  0  0  0  0  0  0  0
    2.9286    0.3051    2.1368 H   0  0  0  0  0  0  0  0  0  0  0  0
   -2.7144    2.5033    1.5451 H   0  0  0  0  0  0  0  0  0  0  0  0
   -3.9346    2.0690   -0.6452 H   0  0  0  0  0  0  0  0  0  0  0  0
   -1.2869    1.5768    1.9944 H   0  0  0  0  0  0  0  0  0  0  0  0
   -2.8720    0.8051    2.0270 H   0  0  0  0  0  0  0  0  0  0  0  0
   -4.1537    0.3701   -0.1736 H   0  0  0  0  0  0  0  0  0  0  0  0
   -3.3885    0.7719   -1.7176 H   0  0  0  0  0  0  0  0  0  0  0  0
   -2.5949   -2.2724   -0.3540 H   0  0  0  0  0  0  0  0  0  0  0  0
   -2.5637   -2.1478    1.4142 H   0  0  0  0  0  0  0  0  0  0  0  0
   -2.1835   -3.6838    0.6188 H   0  0  0  0  0  0  0  0  0  0  0  0
  1  7  1  0  0  0  0
  1 13  1  0  0  0  0
  2  3  1  0  0  0  0
  2  4  1  0  0  0  0
  2  5  1  0  0  0  0
  2 17  1  0  0  0  0
  3  4  1  0  0  0  0
  3  8  1  0  0  0  0
  3 18  1  0  0  0  0
  4 14  1  0  0  0  0
  4 15  1  0  0  0  0
  5  6  1  0  0  0  0
  5  9  1  0  0  0  0
  5 19  1  0  0  0  0
  6  7  1  0  0  0  0
  6 11  1  0  0  0  0
  6 20  1  0  0  0  0
  7 10  1  0  0  0  0
  7 13  1  0  0  0  0
  8 10  1  0  0  0  0
  8 21  1  0  0  0  0
  8 22  1  0  0  0  0
  9 12  1  0  0  0  0
  9 16  1  0  0  0  0
  9 23  1  0  0  0  0
 10 24  1  0  0  0  0
 10 25  1  0  0  0  0
 11 12  1  0  0  0  0
 11 26  1  0  0  0  0
 11 27  1  0  0  0  0
 12 28  1  0  0  0  0
 12 29  1  0  0  0  0
 13 30  1  0  0  0  0
 13 31  1  0  0  0  0
 14 32  1  0  0  0  0
 14 34  1  0  0  0  0
 14 35  1  0  0  0  0
 15 33  1  0  0  0  0
 15 36  1  0  0  0  0
 15 37  1  0  0  0  0
 16 38  1  0  0  0  0
 16 39  1  0  0  0  0
 16 40  1  0  0  0  0
M  END
> <PUBCHEM_COMPOUND_CID>
91746712

> <PUBCHEM_CONFORMER_RMSD>
0.6

> <PUBCHEM_CONFORMER_DIVERSEORDER>
1
5
7
4
8
3
2
6

> <PUBCHEM_MMFF94_PARTIAL_CHARGES>
16
1 -0.3
10 0.09
13 -0.05
14 0.09
15 0.09
17 0.1
18 0.1
2 -0.19
3 -0.19
30 0.1
31 0.1
4 -0.19
5 0.09
6 0.09
7 -0.04
8 0.09

> <PUBCHEM_EFFECTIVE_ROTOR_COUNT>
1.6

> <PUBCHEM_PHARMACOPHORE_FEATURES>
4
1 1 acceptor
3 4 14 15 hydrophobe
5 5 6 9 11 12 rings
7 2 3 5 6 7 8 10 rings

> <PUBCHEM_HEAVY_ATOM_COUNT>
16

> <PUBCHEM_ATOM_DEF_STEREO_COUNT>
3

> <PUBCHEM_ATOM_UDEF_STEREO_COUNT>
3

> <PUBCHEM_BOND_DEF_STEREO_COUNT>
0

> <PUBCHEM_BOND_UDEF_STEREO_COUNT>
0

> <PUBCHEM_ISOTOPIC_ATOM_COUNT>
0

> <PUBCHEM_COMPONENT_COUNT>
1

> <PUBCHEM_CACTVS_TAUTO_COUNT>
1

> <PUBCHEM_CONFORMER_ID>
0577F19800000001

> <PUBCHEM_MMFF94_ENERGY>
47.877

> <PUBCHEM_FEATURE_SELFOVERLAP>
20.355

> <PUBCHEM_SHAPE_FINGERPRINT>
104564 63 17904777909147241855
10967382 1 18336826373106661327
11086676 242 17902521719650198514
11132069 177 18408879655008064537
11680611 10 17896034511036512666
11680986 33 18411141303208516426
12382932 28 18408884040175098024
12423570 1 18054239996499571362
12524768 44 18193279585440059197
13132413 78 16681768190525842181
13140716 1 18337109089382064504
13172582 1 18333447638351989976
13380535 76 18411411787273914615
14251711 518 17328870309982190198
15076042 46 18123757709923514484
15309172 13 18335707100313556296
15490181 8 18411430509194645965
15852999 172 18338502071792837119
15881359 60 17913207838811585415
161256 15 17906175044596860844
16945 1 18186795872766611908
193761 8 17975694214136608277
20510252 161 18126005103174555464
20511035 2 18042410307862273404
20588541 1 18411139091447571412
20645477 70 17981028736139709541
20871998 184 18268147745962797710
21061003 4 17474116397190900163
21501502 16 18044661038102325972
21524375 3 18341038628054460698
22182313 1 18341065072052408622
22802520 49 18272103664377678006
2334 1 18410296925449015846
23388829 49 17328010487700108828
23402539 116 18270098210702262182
23419403 2 15118692453000368219
23493267 7 16662641760242489580
23557571 272 18053680332871390964
23559900 14 18270699588951901862
257057 1 17261015040774776862
2748010 2 18339092530943620454
53812654 25 17549542254853484946
5845 1 17261278893415944720
7364860 26 17911229516787385159
81228 2 18193271025475591826

> <PUBCHEM_SHAPE_MULTIPOLES>
323.4
4.11
3.09
1.13
0.17
1.89
-0.18
-1.78
-0.55
-0.83
0.2
-0.06
-0.17
0.38

> <PUBCHEM_SHAPE_SELFOVERLAP>
682.54

> <PUBCHEM_SHAPE_VOLUME>
184.3

> <PUBCHEM_COORDINATE_TYPE>
2
5
10

$$$$
