11500301
  -OEChem-09182009233D

 59 59  0     1  0  0  0  0  0999 V2000
    7.3653   -1.6754    0.0583 O   0  0  0  0  0  0  0  0  0  0  0  0
   -2.4549   -0.1867    0.2259 C   0  0  2  0  0  0  0  0  0  0  0  0
   -2.8054   -1.5092   -0.5433 C   0  0  0  0  0  0  0  0  0  0  0  0
   -3.6697    0.6020    0.7984 C   0  0  2  0  0  0  0  0  0  0  0  0
   -3.8280   -2.3373    0.2753 C   0  0  0  0  0  0  0  0  0  0  0  0
   -4.6362   -0.3278    1.5452 C   0  0  0  0  0  0  0  0  0  0  0  0
   -1.4889    0.7404   -0.5264 C   0  0  0  0  0  0  0  0  0  0  0  0
   -5.0483   -1.5392    0.7208 C   0  0  0  0  0  0  0  0  0  0  0  0
   -3.3495   -1.2777   -1.9669 C   0  0  0  0  0  0  0  0  0  0  0  0
   -1.5315   -2.3780   -0.6943 C   0  0  0  0  0  0  0  0  0  0  0  0
   -0.9005    1.8518    0.3484 C   0  0  0  0  0  0  0  0  0  0  0  0
   -4.4249    1.4927   -0.1934 C   0  0  0  0  0  0  0  0  0  0  0  0
    0.1436    2.7601   -0.3323 C   0  0  2  0  0  0  0  0  0  0  0  0
    1.2852    1.9974   -1.0357 C   0  0  0  0  0  0  0  0  0  0  0  0
    0.6887    3.7691    0.6852 C   0  0  0  0  0  0  0  0  0  0  0  0
    2.1527    1.1289   -0.1180 C   0  0  0  0  0  0  0  0  0  0  0  0
    3.2035    0.3586   -0.9249 C   0  0  0  0  0  0  0  0  0  0  0  0
    4.0963   -0.4786   -0.0377 C   0  0  0  0  0  0  0  0  0  0  0  0
    3.3979   -1.5688    0.7314 C   0  0  0  0  0  0  0  0  0  0  0  0
    5.4285   -0.3112    0.0732 C   0  0  0  0  0  0  0  0  0  0  0  0
    6.3760   -1.1111    0.9105 C   0  0  0  0  0  0  0  0  0  0  0  0
   -1.9063   -0.5230    1.1211 H   0  0  0  0  0  0  0  0  0  0  0  0
   -3.2838    1.2848    1.5676 H   0  0  0  0  0  0  0  0  0  0  0  0
   -4.1625   -3.2077   -0.3037 H   0  0  0  0  0  0  0  0  0  0  0  0
   -3.3359   -2.7395    1.1715 H   0  0  0  0  0  0  0  0  0  0  0  0
   -4.1491   -0.6781    2.4650 H   0  0  0  0  0  0  0  0  0  0  0  0
   -5.5296    0.2227    1.8634 H   0  0  0  0  0  0  0  0  0  0  0  0
   -0.6585    0.1383   -0.9022 H   0  0  0  0  0  0  0  0  0  0  0  0
   -1.9636    1.1820   -1.4088 H   0  0  0  0  0  0  0  0  0  0  0  0
   -5.6437   -1.2297   -0.1445 H   0  0  0  0  0  0  0  0  0  0  0  0
   -5.6959   -2.1831    1.3276 H   0  0  0  0  0  0  0  0  0  0  0  0
   -4.3064   -0.7566   -1.9772 H   0  0  0  0  0  0  0  0  0  0  0  0
   -3.5125   -2.2343   -2.4784 H   0  0  0  0  0  0  0  0  0  0  0  0
   -2.6472   -0.7059   -2.5817 H   0  0  0  0  0  0  0  0  0  0  0  0
   -1.7801   -3.3716   -1.0860 H   0  0  0  0  0  0  0  0  0  0  0  0
   -1.0310   -2.5235    0.2696 H   0  0  0  0  0  0  0  0  0  0  0  0
   -0.8080   -1.9376   -1.3874 H   0  0  0  0  0  0  0  0  0  0  0  0
   -0.4571    1.3986    1.2442 H   0  0  0  0  0  0  0  0  0  0  0  0
   -1.7058    2.5033    0.7064 H   0  0  0  0  0  0  0  0  0  0  0  0
   -3.7694    2.2226   -0.6752 H   0  0  0  0  0  0  0  0  0  0  0  0
   -5.1937    2.0689    0.3351 H   0  0  0  0  0  0  0  0  0  0  0  0
   -4.9381    0.9261   -0.9702 H   0  0  0  0  0  0  0  0  0  0  0  0
   -0.3785    3.3324   -1.1112 H   0  0  0  0  0  0  0  0  0  0  0  0
    0.8728    1.3835   -1.8450 H   0  0  0  0  0  0  0  0  0  0  0  0
    1.9340    2.7320   -1.5318 H   0  0  0  0  0  0  0  0  0  0  0  0
    1.4350    4.4242    0.2238 H   0  0  0  0  0  0  0  0  0  0  0  0
   -0.1192    4.4036    1.0657 H   0  0  0  0  0  0  0  0  0  0  0  0
    1.1516    3.2732    1.5442 H   0  0  0  0  0  0  0  0  0  0  0  0
    2.6567    1.7570    0.6256 H   0  0  0  0  0  0  0  0  0  0  0  0
    1.5175    0.4249    0.4301 H   0  0  0  0  0  0  0  0  0  0  0  0
    2.7116   -0.2950   -1.6560 H   0  0  0  0  0  0  0  0  0  0  0  0
    3.8080    1.0694   -1.5024 H   0  0  0  0  0  0  0  0  0  0  0  0
    3.0895   -1.2045    1.7164 H   0  0  0  0  0  0  0  0  0  0  0  0
    2.4995   -1.8997    0.1974 H   0  0  0  0  0  0  0  0  0  0  0  0
    4.0077   -2.4674    0.8555 H   0  0  0  0  0  0  0  0  0  0  0  0
    5.8885    0.4900   -0.5033 H   0  0  0  0  0  0  0  0  0  0  0  0
    5.9116   -1.9154    1.4826 H   0  0  0  0  0  0  0  0  0  0  0  0
    6.8778   -0.4426    1.6179 H   0  0  0  0  0  0  0  0  0  0  0  0
    7.9960   -2.1485    0.6276 H   0  0  0  0  0  0  0  0  0  0  0  0
  1 21  1  0  0  0  0
  1 59  1  0  0  0  0
  2  3  1  0  0  0  0
  2  4  1  0  0  0  0
  2  7  1  0  0  0  0
  2 22  1  0  0  0  0
  3  5  1  0  0  0  0
  3  9  1  0  0  0  0
  3 10  1  0  0  0  0
  4  6  1  0  0  0  0
  4 12  1  0  0  0  0
  4 23  1  0  0  0  0
  5  8  1  0  0  0  0
  5 24  1  0  0  0  0
  5 25  1  0  0  0  0
  6  8  1  0  0  0  0
  6 26  1  0  0  0  0
  6 27  1  0  0  0  0
  7 11  1  0  0  0  0
  7 28  1  0  0  0  0
  7 29  1  0  0  0  0
  8 30  1  0  0  0  0
  8 31  1  0  0  0  0
  9 32  1  0  0  0  0
  9 33  1  0  0  0  0
  9 34  1  0  0  0  0
 10 35  1  0  0  0  0
 10 36  1  0  0  0  0
 10 37  1  0  0  0  0
 11 13  1  0  0  0  0
 11 38  1  0  0  0  0
 11 39  1  0  0  0  0
 12 40  1  0  0  0  0
 12 41  1  0  0  0  0
 12 42  1  0  0  0  0
 13 14  1  0  0  0  0
 13 15  1  0  0  0  0
 13 43  1  0  0  0  0
 14 16  1  0  0  0  0
 14 44  1  0  0  0  0
 14 45  1  0  0  0  0
 15 46  1  0  0  0  0
 15 47  1  0  0  0  0
 15 48  1  0  0  0  0
 16 17  1  0  0  0  0
 16 49  1  0  0  0  0
 16 50  1  0  0  0  0
 17 18  1  0  0  0  0
 17 51  1  0  0  0  0
 17 52  1  0  0  0  0
 18 19  1  0  0  0  0
 18 20  2  0  0  0  0
 19 53  1  0  0  0  0
 19 54  1  0  0  0  0
 19 55  1  0  0  0  0
 20 21  1  0  0  0  0
 20 56  1  0  0  0  0
 21 57  1  0  0  0  0
 21 58  1  0  0  0  0
M  END
> <PUBCHEM_COMPOUND_CID>
11500301

> <PUBCHEM_CONFORMER_RMSD>
0.8

> <PUBCHEM_CONFORMER_DIVERSEORDER>
1
67
42
192
150
326
341
309
310
397
160
108
245
106
415
148
260
353
348
340
343
231
220
202
181
16
50
225
410
212
369
257
284
301
143
140
327
83
71
169
325
53
81
126
283
385
84
285
238
324
141
304
44
379
345
190
182
15
153
122
189
307
197
74
80
172
156
199
358
57
261
224
398
120
289
338
308
403
347
367
323
154
359
146
372
32
29
254
269
306
151
91
374
214
312
300
272
366
270
228
299
275
240
210
395
66
315
279
226
342
133
263
59
101
89
251
188
17
115
121
128
95
209
311
414
62
393
124
234
168
18
206
335
97
232
187
180
305
92
11
266
88
346
382
162
144
267
233
396
7
297
109
380
357
274
222
213
61
9
373
98
302
281
352
27
77
105
339
191
344
110
216
264
87
73
329
296
116
114
165
90
23
58
290
139
265
123
63
20
155
383
96
200
131
387
193
258
391
183
152
276
411
321
103
174
13
229
185
370
247
3
406
142
26
298
242
99
30
164
147
416
221
337
6
361
22
400
203
235
86
292
412
35
303
287
25
217
45
227
48
69
79
417
381
375
286
318
177
82
38
19
390
333
294
404
176
145
278
119
127
149
24
205
244
365
47
219
107
178
70
5
34
40
137
167
118
331
161
170
409
354
204
65
41
355
277
211
21
64
405
377
135
94
37
248
75
179
207
330
360
43
351
100
230
166
273
157
218
363
268
46
112
4
282
314
402
186
332
223
138
12
394
236
241
317
52
158
249
243
134
102
401
271
319
293
262
31
280
14
322
313
407
56
39
201
349
2
386
130
336
111
85
371
159
173
288
78
132
328
54
136
246
389
93
250
8
194
175
362
163
198
408
418
68
10
316
184
392
51
33
399
376
49
36
113
60
72
195
129
125
76
384
237
364
413
215
104
295
320
291
368
378
356
171
253
259
117
28
55
388
239
252
334
255
196
350
208
256

> <PUBCHEM_MMFF94_PARTIAL_CHARGES>
8
1 -0.68
17 0.14
18 -0.28
19 0.14
20 -0.29
21 0.42
56 0.15
59 0.4

> <PUBCHEM_EFFECTIVE_ROTOR_COUNT>
9.2

> <PUBCHEM_PHARMACOPHORE_FEATURES>
6
1 1 acceptor
1 1 donor
1 15 hydrophobe
1 19 hydrophobe
3 3 9 10 hydrophobe
6 2 3 4 5 6 8 rings

> <PUBCHEM_HEAVY_ATOM_COUNT>
21

> <PUBCHEM_ATOM_DEF_STEREO_COUNT>
2

> <PUBCHEM_ATOM_UDEF_STEREO_COUNT>
1

> <PUBCHEM_BOND_DEF_STEREO_COUNT>
1

> <PUBCHEM_BOND_UDEF_STEREO_COUNT>
0

> <PUBCHEM_ISOTOPIC_ATOM_COUNT>
0

> <PUBCHEM_COMPONENT_COUNT>
1

> <PUBCHEM_CACTVS_TAUTO_COUNT>
1

> <PUBCHEM_CONFORMER_ID>
00AF7B0D00000001

> <PUBCHEM_MMFF94_ENERGY>
43.9325

> <PUBCHEM_FEATURE_SELFOVERLAP>
30.446

> <PUBCHEM_SHAPE_FINGERPRINT>
11265709 11 18409450289111827852
12107183 9 18340218401418916113
12166972 35 17458068179460423878
12553582 1 18410853274237734606
12633257 1 18270689765238192823
12788726 201 18268167399992289016
13533116 47 18122348145260884907
13583140 156 14476955700999680975
14251751 18 18259985972481970508
14420673 8 18408891724014073891
15183329 4 8718556030213489240
15352361 1 18408604768806461554
15537594 2 18335999630810036124
16110190 28 18342458175217988238
17492 89 18122062276242694571
17780758 139 18202283580570303848
18336668 15 18187085065910161220
20291156 8 18408604772895856420
20600515 1 18059591151888253257
21033648 29 15912782604195980257
21403212 168 18269846337653129121
21796203 349 18048635682811721384
23402539 116 18408319969625381522
235170 7 15647051585949060246
23559900 14 18267014132574864089
2838139 119 9727634990851562410
3004659 81 17894631452975055616
314173 85 18201441354932517628
339767 52 18411133610968977488
351380 3 18260831497102902954
3737641 26 18268712715047395762
4409770 3 18116988893395828709
5104073 3 17985284090909796363
5486654 36 18335427889164159161
559249 180 18408603643677913343
7097593 13 18126570261047582949
7970288 3 18334858346299490050

> <PUBCHEM_SHAPE_MULTIPOLES>
426.3
14.09
3.38
1.22
20.67
2.27
-0.2
-10.48
3.52
-0.23
0.1
-0.94
-0.22
-0.86

> <PUBCHEM_SHAPE_SELFOVERLAP>
819.311

> <PUBCHEM_SHAPE_VOLUME>
260.7

> <PUBCHEM_COORDINATE_TYPE>
2
5
10

$$$$
