5372162
  -OEChem-09182009063D

 55 56  0     0  0  0  0  0  0999 V2000
    5.0066   -2.7384    1.3695 O   0  0  0  0  0  0  0  0  0  0  0  0
    6.5873   -3.0497   -0.4227 O   0  0  0  0  0  0  0  0  0  0  0  0
   -5.8296   -0.0072    1.5132 O   0  0  0  0  0  0  0  0  0  0  0  0
   -6.1336   -1.1471   -0.4858 N   0  0  0  0  0  0  0  0  0  0  0  0
    0.6106    3.1926    0.0478 C   0  0  0  0  0  0  0  0  0  0  0  0
   -0.1042    4.5471    0.0951 C   0  0  0  0  0  0  0  0  0  0  0  0
   -6.5756   -3.5537   -0.1229 C   0  0  0  0  0  0  0  0  0  0  0  0
    2.0180    3.2898    0.6422 C   0  0  0  0  0  0  0  0  0  0  0  0
   -1.4907    4.5280   -0.5572 C   0  0  0  0  0  0  0  0  0  0  0  0
   -7.0779   -2.1130    0.0244 C   0  0  0  0  0  0  0  0  0  0  0  0
   -5.2791   -3.7401    0.6660 C   0  0  0  0  0  0  0  0  0  0  0  0
   -6.3520   -3.9264   -1.5902 C   0  0  0  0  0  0  0  0  0  0  0  0
    2.7362    1.9726    0.5602 C   0  0  0  0  0  0  0  0  0  0  0  0
   -2.4610    3.6120    0.1335 C   0  0  0  0  0  0  0  0  0  0  0  0
    4.6147    0.5252   -0.2297 C   0  0  0  0  0  0  0  0  0  0  0  0
    3.8804    1.7967   -0.1190 C   0  0  0  0  0  0  0  0  0  0  0  0
    5.0921   -1.6474    0.5603 C   0  0  0  0  0  0  0  0  0  0  0  0
    4.3805   -0.4742    0.7050 C   0  0  0  0  0  0  0  0  0  0  0  0
    5.9949   -1.8252   -0.4630 C   0  0  0  0  0  0  0  0  0  0  0  0
    5.5284    0.3585   -1.2739 C   0  0  0  0  0  0  0  0  0  0  0  0
    6.2358   -0.8396   -1.3980 C   0  0  0  0  0  0  0  0  0  0  0  0
   -5.5859   -0.1644    0.3212 C   0  0  0  0  0  0  0  0  0  0  0  0
   -3.0918    2.5999   -0.4811 C   0  0  0  0  0  0  0  0  0  0  0  0
    5.9562   -3.6230    0.7403 C   0  0  0  0  0  0  0  0  0  0  0  0
   -4.6425    0.7094   -0.4296 C   0  0  0  0  0  0  0  0  0  0  0  0
   -4.0176    1.7177    0.1945 C   0  0  0  0  0  0  0  0  0  0  0  0
    0.6712    2.8503   -0.9931 H   0  0  0  0  0  0  0  0  0  0  0  0
    0.0328    2.4418    0.6004 H   0  0  0  0  0  0  0  0  0  0  0  0
   -0.1930    4.8768    1.1381 H   0  0  0  0  0  0  0  0  0  0  0  0
    0.5080    5.2973   -0.4209 H   0  0  0  0  0  0  0  0  0  0  0  0
   -7.3377   -4.2250    0.2915 H   0  0  0  0  0  0  0  0  0  0  0  0
    2.5845    4.0734    0.1244 H   0  0  0  0  0  0  0  0  0  0  0  0
    1.9550    3.5868    1.6959 H   0  0  0  0  0  0  0  0  0  0  0  0
   -1.3882    4.2623   -1.6166 H   0  0  0  0  0  0  0  0  0  0  0  0
   -1.9045    5.5433   -0.5290 H   0  0  0  0  0  0  0  0  0  0  0  0
   -7.3106   -1.9019    1.0739 H   0  0  0  0  0  0  0  0  0  0  0  0
   -8.0039   -1.9801   -0.5463 H   0  0  0  0  0  0  0  0  0  0  0  0
   -4.4562   -3.1450    0.2560 H   0  0  0  0  0  0  0  0  0  0  0  0
   -5.4161   -3.4569    1.7150 H   0  0  0  0  0  0  0  0  0  0  0  0
   -4.9679   -4.7903    0.6447 H   0  0  0  0  0  0  0  0  0  0  0  0
   -6.0895   -4.9864   -1.6780 H   0  0  0  0  0  0  0  0  0  0  0  0
   -7.2616   -3.7597   -2.1767 H   0  0  0  0  0  0  0  0  0  0  0  0
   -5.5410   -3.3482   -2.0447 H   0  0  0  0  0  0  0  0  0  0  0  0
    2.2549    1.1537    1.0865 H   0  0  0  0  0  0  0  0  0  0  0  0
   -5.9120   -1.1722   -1.4768 H   0  0  0  0  0  0  0  0  0  0  0  0
   -2.6470    3.8080    1.1872 H   0  0  0  0  0  0  0  0  0  0  0  0
    4.3150    2.6409   -0.6497 H   0  0  0  0  0  0  0  0  0  0  0  0
    3.6961   -0.3747    1.5390 H   0  0  0  0  0  0  0  0  0  0  0  0
    5.7015    1.1488   -2.0005 H   0  0  0  0  0  0  0  0  0  0  0  0
    6.9478   -0.9837   -2.2027 H   0  0  0  0  0  0  0  0  0  0  0  0
   -2.9042    2.4136   -1.5356 H   0  0  0  0  0  0  0  0  0  0  0  0
    6.7325   -3.8805    1.4698 H   0  0  0  0  0  0  0  0  0  0  0  0
    5.4362   -4.5404    0.4411 H   0  0  0  0  0  0  0  0  0  0  0  0
   -4.4777    0.5075   -1.4835 H   0  0  0  0  0  0  0  0  0  0  0  0
   -4.1926    1.9075    1.2504 H   0  0  0  0  0  0  0  0  0  0  0  0
  1 17  1  0  0  0  0
  1 24  1  0  0  0  0
  2 19  1  0  0  0  0
  2 24  1  0  0  0  0
  3 22  2  0  0  0  0
  4 10  1  0  0  0  0
  4 22  1  0  0  0  0
  4 45  1  0  0  0  0
  5  6  1  0  0  0  0
  5  8  1  0  0  0  0
  5 27  1  0  0  0  0
  5 28  1  0  0  0  0
  6  9  1  0  0  0  0
  6 29  1  0  0  0  0
  6 30  1  0  0  0  0
  7 10  1  0  0  0  0
  7 11  1  0  0  0  0
  7 12  1  0  0  0  0
  7 31  1  0  0  0  0
  8 13  1  0  0  0  0
  8 32  1  0  0  0  0
  8 33  1  0  0  0  0
  9 14  1  0  0  0  0
  9 34  1  0  0  0  0
  9 35  1  0  0  0  0
 10 36  1  0  0  0  0
 10 37  1  0  0  0  0
 11 38  1  0  0  0  0
 11 39  1  0  0  0  0
 11 40  1  0  0  0  0
 12 41  1  0  0  0  0
 12 42  1  0  0  0  0
 12 43  1  0  0  0  0
 13 16  2  0  0  0  0
 13 44  1  0  0  0  0
 14 23  2  0  0  0  0
 14 46  1  0  0  0  0
 15 16  1  0  0  0  0
 15 18  2  0  0  0  0
 15 20  1  0  0  0  0
 16 47  1  0  0  0  0
 17 18  1  0  0  0  0
 17 19  2  0  0  0  0
 18 48  1  0  0  0  0
 19 21  1  0  0  0  0
 20 21  2  0  0  0  0
 20 49  1  0  0  0  0
 21 50  1  0  0  0  0
 22 25  1  0  0  0  0
 23 26  1  0  0  0  0
 23 51  1  0  0  0  0
 24 52  1  0  0  0  0
 24 53  1  0  0  0  0
 25 26  2  0  0  0  0
 25 54  1  0  0  0  0
 26 55  1  0  0  0  0
M  END
> <PUBCHEM_COMPOUND_CID>
5372162

> <PUBCHEM_CONFORMER_RMSD>
1

> <PUBCHEM_CONFORMER_DIVERSEORDER>
1
259
226
53
177
120
123
46
183
6
91
155
278
140
229
59
69
284
163
94
255
222
39
153
58
86
7
214
245
96
116
256
239
106
286
129
261
3
115
180
2
197
283
32
244
63
299
34
234
249
92
89
176
29
97
124
185
133
78
195
213
269
131
170
83
100
207
150
253
202
149
172
309
88
20
294
66
141
289
169
5
45
233
236
303
148
268
26
37
118
132
298
206
71
235
281
237
31
18
138
84
292
166
127
260
55
109
42
165
38
189
57
168
125
219
4
156
258
248
80
211
282
158
240
40
47
113
35
103
188
272
147
143
145
117
167
273
68
198
10
79
104
241
60
139
184
247
227
223
36
112
21
277
128
224
210
56
228
107
252
243
75
178
266
173
85
296
62
288
152
30
44
232
199
23
12
25
193
274
50
174
102
51
301
48
218
265
151
192
171
93
242
187
257
90
270
194
212
201
216
205
119
200
65
19
81
297
52
190
306
295
105
49
182
136
24
279
14
54
191
262
11
67
287
196
154
208
305
126
98
16
137
291
135
108
144
254
22
146
41
13
230
203
290
221
130
157
310
134
217
99
111
73
275
250
9
95
70
15
307
179
160
164
271
82
181
8
300
101
28
27
121
159
61
220
77
43
175
74
204
280
162
238
142
308
87
215
225
186
293
264
209
110
267
302
246
72
263
76
251
276
33
161
122
231
304
114
17
285
64

> <PUBCHEM_MMFF94_PARTIAL_CHARGES>
31
1 -0.36
10 0.3
13 -0.29
14 -0.29
15 0.03
16 -0.18
17 0.08
18 -0.15
19 0.08
2 -0.36
20 -0.15
21 -0.15
22 0.62
23 -0.15
24 0.56
25 -0.14
26 -0.15
3 -0.57
4 -0.73
44 0.15
45 0.37
46 0.15
47 0.15
48 0.15
49 0.15
50 0.15
51 0.15
54 0.15
55 0.15
8 0.14
9 0.14

> <PUBCHEM_EFFECTIVE_ROTOR_COUNT>
11.6

> <PUBCHEM_PHARMACOPHORE_FEATURES>
9
1 1 acceptor
1 2 acceptor
1 3 acceptor
1 4 donor
3 5 8 13 hydrophobe
3 6 9 14 hydrophobe
3 7 11 12 hydrophobe
5 1 2 17 19 24 rings
6 15 17 18 19 20 21 rings

> <PUBCHEM_HEAVY_ATOM_COUNT>
26

> <PUBCHEM_ATOM_DEF_STEREO_COUNT>
0

> <PUBCHEM_ATOM_UDEF_STEREO_COUNT>
0

> <PUBCHEM_BOND_DEF_STEREO_COUNT>
3

> <PUBCHEM_BOND_UDEF_STEREO_COUNT>
0

> <PUBCHEM_ISOTOPIC_ATOM_COUNT>
0

> <PUBCHEM_COMPONENT_COUNT>
1

> <PUBCHEM_CACTVS_TAUTO_COUNT>
2

> <PUBCHEM_CONFORMER_ID>
0051F90200000001

> <PUBCHEM_MMFF94_ENERGY>
39.5762

> <PUBCHEM_FEATURE_SELFOVERLAP>
45.827

> <PUBCHEM_SHAPE_FINGERPRINT>
10049733 71 18121492717015651943
11197282 1 18410011069958987289
117089 54 18337958990685311219
11761917 116 18411706487245961188
11973864 118 17895735384135334394
12645989 146 18411423907777255419
13165053 68 18339651015592407846
1361 4 18411139134555707716
13911852 28 18338515352523423469
14251764 30 18410291428186367021
15019793 15 18267583683618608547
15530120 55 17603883177710394604
20775438 99 17968386753254749616
21307412 95 18263352626111746221
229767 8 18410858784839251667
23569914 2 14131628889526439662
260245 28 17684922510363384626
2835820 82 18194962083930578335
393628 194 9367344821469914563
439807 62 18262243200807653377
4756088 132 18338784689379561451
484985 159 18268433426235887169
7970288 3 18338233877335508313
9980921 52 17843383332369785831

> <PUBCHEM_SHAPE_MULTIPOLES>
512.48
24.07
7.52
1.13
10.04
1.86
0.12
-34.12
2.26
4.75
0.01
-0.29
-0.65
-1.44

> <PUBCHEM_SHAPE_SELFOVERLAP>
1045.085

> <PUBCHEM_SHAPE_VOLUME>
296.6

> <PUBCHEM_COORDINATE_TYPE>
2
5
10

$$$$
