179572
  -OEChem-09182008503D

 48 53  0     1  0  0  0  0  0999 V2000
   -0.6992    1.6347    1.0548 O   0  0  0  0  0  0  0  0  0  0  0  0
    1.5005   -1.4691    0.6677 O   0  0  0  0  0  0  0  0  0  0  0  0
   -5.2887    2.0825   -1.1500 O   0  0  0  0  0  0  0  0  0  0  0  0
    6.1630   -1.3263   -1.4236 O   0  0  0  0  0  0  0  0  0  0  0  0
   -6.5480    0.1209   -0.5391 O   0  0  0  0  0  0  0  0  0  0  0  0
    7.3909    0.3956   -0.2681 O   0  0  0  0  0  0  0  0  0  0  0  0
   -5.3667   -2.1368    0.8203 O   0  0  0  0  0  0  0  0  0  0  0  0
   -0.1855   -0.1957   -0.3994 C   0  0  2  0  0  0  0  0  0  0  0  0
    1.0258    0.6861   -0.2589 C   0  0  2  0  0  0  0  0  0  0  0  0
   -1.0832    0.2778    0.7515 C   0  0  2  0  0  0  0  0  0  0  0  0
    1.8876   -0.0821    0.7521 C   0  0  2  0  0  0  0  0  0  0  0  0
    0.4477    1.9811    0.2665 C   0  0  0  0  0  0  0  0  0  0  0  0
    0.3811   -1.5867   -0.2211 C   0  0  0  0  0  0  0  0  0  0  0  0
   -2.5544    0.2012    0.4197 C   0  0  0  0  0  0  0  0  0  0  0  0
    3.3684    0.0750    0.5016 C   0  0  0  0  0  0  0  0  0  0  0  0
   -3.1759    1.2669   -0.2388 C   0  0  0  0  0  0  0  0  0  0  0  0
   -3.2922   -0.9434    0.7756 C   0  0  0  0  0  0  0  0  0  0  0  0
    4.0171   -0.7773   -0.3975 C   0  0  0  0  0  0  0  0  0  0  0  0
    4.0878    1.0798    1.1753 C   0  0  0  0  0  0  0  0  0  0  0  0
   -4.5217    1.1512   -0.5204 C   0  0  0  0  0  0  0  0  0  0  0  0
   -4.6540   -1.0351    0.4783 C   0  0  0  0  0  0  0  0  0  0  0  0
    5.3707   -0.5951   -0.5932 C   0  0  0  0  0  0  0  0  0  0  0  0
    5.4582    1.2432    0.9588 C   0  0  0  0  0  0  0  0  0  0  0  0
   -5.2409    0.0311   -0.1715 C   0  0  0  0  0  0  0  0  0  0  0  0
    6.0719    0.3881    0.0666 C   0  0  0  0  0  0  0  0  0  0  0  0
   -6.5712    1.4228   -1.1589 C   0  0  0  0  0  0  0  0  0  0  0  0
    7.4414   -0.6927   -1.2130 C   0  0  0  0  0  0  0  0  0  0  0  0
   -5.4306   -3.1976   -0.1353 C   0  0  0  0  0  0  0  0  0  0  0  0
   -0.6792   -0.0779   -1.3707 H   0  0  0  0  0  0  0  0  0  0  0  0
    1.5517    0.8302   -1.2096 H   0  0  0  0  0  0  0  0  0  0  0  0
   -0.8972   -0.2936    1.6700 H   0  0  0  0  0  0  0  0  0  0  0  0
    1.6686    0.2230    1.7834 H   0  0  0  0  0  0  0  0  0  0  0  0
    1.1497    2.5595    0.8734 H   0  0  0  0  0  0  0  0  0  0  0  0
    0.0991    2.6141   -0.5567 H   0  0  0  0  0  0  0  0  0  0  0  0
   -0.3377   -2.3033    0.1858 H   0  0  0  0  0  0  0  0  0  0  0  0
    0.7588   -1.9779   -1.1720 H   0  0  0  0  0  0  0  0  0  0  0  0
   -2.6317    2.1575   -0.5334 H   0  0  0  0  0  0  0  0  0  0  0  0
   -2.8002   -1.7680    1.2869 H   0  0  0  0  0  0  0  0  0  0  0  0
    3.4878   -1.5547   -0.9376 H   0  0  0  0  0  0  0  0  0  0  0  0
    3.5807    1.7422    1.8728 H   0  0  0  0  0  0  0  0  0  0  0  0
    6.0141    2.0165    1.4765 H   0  0  0  0  0  0  0  0  0  0  0  0
   -6.9010    1.3108   -2.1982 H   0  0  0  0  0  0  0  0  0  0  0  0
   -7.2934    2.0522   -0.6264 H   0  0  0  0  0  0  0  0  0  0  0  0
    7.8045   -0.3076   -2.1728 H   0  0  0  0  0  0  0  0  0  0  0  0
    8.1492   -1.4444   -0.8450 H   0  0  0  0  0  0  0  0  0  0  0  0
   -4.4282   -3.5840   -0.3446 H   0  0  0  0  0  0  0  0  0  0  0  0
   -5.9024   -2.8516   -1.0605 H   0  0  0  0  0  0  0  0  0  0  0  0
   -6.0365   -4.0033    0.2879 H   0  0  0  0  0  0  0  0  0  0  0  0
  1 10  1  0  0  0  0
  1 12  1  0  0  0  0
  2 11  1  0  0  0  0
  2 13  1  0  0  0  0
  3 20  1  0  0  0  0
  3 26  1  0  0  0  0
  4 22  1  0  0  0  0
  4 27  1  0  0  0  0
  5 24  1  0  0  0  0
  5 26  1  0  0  0  0
  6 25  1  0  0  0  0
  6 27  1  0  0  0  0
  7 21  1  0  0  0  0
  7 28  1  0  0  0  0
  8  9  1  0  0  0  0
  8 10  1  0  0  0  0
  8 13  1  0  0  0  0
  8 29  1  0  0  0  0
  9 11  1  0  0  0  0
  9 12  1  0  0  0  0
  9 30  1  0  0  0  0
 10 14  1  0  0  0  0
 10 31  1  0  0  0  0
 11 15  1  0  0  0  0
 11 32  1  0  0  0  0
 12 33  1  0  0  0  0
 12 34  1  0  0  0  0
 13 35  1  0  0  0  0
 13 36  1  0  0  0  0
 14 16  2  0  0  0  0
 14 17  1  0  0  0  0
 15 18  2  0  0  0  0
 15 19  1  0  0  0  0
 16 20  1  0  0  0  0
 16 37  1  0  0  0  0
 17 21  2  0  0  0  0
 17 38  1  0  0  0  0
 18 22  1  0  0  0  0
 18 39  1  0  0  0  0
 19 23  2  0  0  0  0
 19 40  1  0  0  0  0
 20 24  2  0  0  0  0
 21 24  1  0  0  0  0
 22 25  2  0  0  0  0
 23 25  1  0  0  0  0
 23 41  1  0  0  0  0
 26 42  1  0  0  0  0
 26 43  1  0  0  0  0
 27 44  1  0  0  0  0
 27 45  1  0  0  0  0
 28 46  1  0  0  0  0
 28 47  1  0  0  0  0
 28 48  1  0  0  0  0
M  END
> <PUBCHEM_COMPOUND_CID>
179572

> <PUBCHEM_CONFORMER_RMSD>
0.8

> <PUBCHEM_CONFORMER_DIVERSEORDER>
1
7
32
41
36
14
29
3
15
40
38
17
9
6
42
18
23
31
21
37
10
5
33
4
25
12
24
26
11
16
2
22
30
34
39
28
8
35
20
27
19
13

> <PUBCHEM_MMFF94_PARTIAL_CHARGES>
31
1 -0.56
10 0.42
11 0.42
12 0.28
13 0.28
14 -0.14
15 -0.14
16 -0.15
17 -0.15
18 -0.15
19 -0.15
2 -0.56
20 0.08
21 0.08
22 0.08
23 -0.15
24 0.08
25 0.08
26 0.56
27 0.56
28 0.28
3 -0.36
37 0.15
38 0.15
39 0.15
4 -0.36
40 0.15
41 0.15
5 -0.36
6 -0.36
7 -0.36

> <PUBCHEM_EFFECTIVE_ROTOR_COUNT>
5.4

> <PUBCHEM_PHARMACOPHORE_FEATURES>
13
1 1 acceptor
1 2 acceptor
1 3 acceptor
1 4 acceptor
1 5 acceptor
1 6 acceptor
1 7 acceptor
5 1 8 9 10 12 rings
5 2 8 9 11 13 rings
5 3 5 20 24 26 rings
5 4 6 22 25 27 rings
6 14 16 17 20 21 24 rings
6 15 18 19 22 23 25 rings

> <PUBCHEM_HEAVY_ATOM_COUNT>
28

> <PUBCHEM_ATOM_DEF_STEREO_COUNT>
4

> <PUBCHEM_ATOM_UDEF_STEREO_COUNT>
0

> <PUBCHEM_BOND_DEF_STEREO_COUNT>
0

> <PUBCHEM_BOND_UDEF_STEREO_COUNT>
0

> <PUBCHEM_ISOTOPIC_ATOM_COUNT>
0

> <PUBCHEM_COMPONENT_COUNT>
1

> <PUBCHEM_CACTVS_TAUTO_COUNT>
1

> <PUBCHEM_CONFORMER_ID>
0002BD7400000001

> <PUBCHEM_MMFF94_ENERGY>
93.9193

> <PUBCHEM_FEATURE_SELFOVERLAP>
66.773

> <PUBCHEM_SHAPE_FINGERPRINT>
10 15 18270669966457245584
10087517 78 16226042254568391677
10906281 52 16081381704366698768
10940486 97 17749956677926433063
11315181 36 18413112766485871545
11488393 25 17129879231114849142
11719270 70 18339634547938941978
11963148 33 18412541029193899830
11991303 11 17988921231876817262
12011746 2 18413387622775391752
12166972 35 18334300907010401972
12236239 1 17603585227576128330
12516196 113 18272647952434583952
13533116 47 14996554076498406672
13690498 29 18334855069872120855
13782708 43 17775289344189109382
14251764 18 14996289123522034817
14856354 85 17095530616843786339
14955137 171 18131353054601907025
15021287 119 14117515467365726027
15048467 5 16153429432880662996
15183329 4 16153705448647933271
15198563 99 18269559343037905420
15419008 47 18411978057259005857
1577012 14 17022900147019024586
15849732 13 18412825798198393460
17980427 23 16805611369161685367
18335252 98 18200599215310004874
18681886 176 18335418014812909896
19489759 90 18040716974171774865
20567600 75 18413672409124265438
21033648 29 18271791454298596905
21267235 1 18340495550835603371
21623969 137 17489878141409829422
21709351 56 18260543463742617645
220451 1 17967248672271243673
22122407 14 15575297410266402660
221357 26 17989205915895496224
22393880 68 18408597080857297443
2303208 19 18272657873893154218
23035841 295 15338832071519936925
23081809 10 16950275209181160248
23402539 116 17240479217600632077
23522609 53 14116966884057097178
23559900 14 18338506530607713865
23569914 152 16834590921982809917
24771293 8 17458626783044533900
24771750 20 17835243724914887980
249057 3 18113335324120904677
2838139 119 15647057070595755302
3004659 81 18186521020872337564
3009799 131 18409166597562714404
335352 9 18334007290904567517
3545911 37 18408038494859667489
4073 2 17676210160507583723
4340502 62 8286198349656566616
445580 37 18186805738090499109
504843 32 14345804876197175625
59755656 215 18411700954980222654

> <PUBCHEM_SHAPE_MULTIPOLES>
535.14
20.22
2.12
1.09
9.92
0.87
0.07
2.06
5.98
-3.29
0.05
0.4
-0.09
2.4

> <PUBCHEM_SHAPE_SELFOVERLAP>
1209.72

> <PUBCHEM_SHAPE_VOLUME>
284.5

> <PUBCHEM_COORDINATE_TYPE>
2
5
10

$$$$
