50994144
  -OEChem-09182013543D

 47 49  0     0  0  0  0  0  0999 V2000
   -2.9380    1.0282    0.6014 O   0  0  0  0  0  0  0  0  0  0  0  0
    5.5415    2.4534   -0.9328 O   0  0  0  0  0  0  0  0  0  0  0  0
    6.8910    1.3745    0.7471 O   0  0  0  0  0  0  0  0  0  0  0  0
   -5.1922    1.2589    0.1345 N   0  0  0  0  0  0  0  0  0  0  0  0
   -6.5712    3.1355   -0.2162 C   0  0  0  0  0  0  0  0  0  0  0  0
   -7.4567    1.9164    0.0029 C   0  0  0  0  0  0  0  0  0  0  0  0
   -5.2412    2.6947    0.3742 C   0  0  0  0  0  0  0  0  0  0  0  0
   -6.5081    0.7532   -0.2527 C   0  0  0  0  0  0  0  0  0  0  0  0
   -4.0197    0.5421    0.2731 C   0  0  0  0  0  0  0  0  0  0  0  0
   -4.0941   -0.9064   -0.0019 C   0  0  0  0  0  0  0  0  0  0  0  0
   -2.9823   -1.6409    0.1198 C   0  0  0  0  0  0  0  0  0  0  0  0
   -0.5114   -3.2559    0.3934 C   0  0  0  0  0  0  0  0  0  0  0  0
    0.3204   -2.7961   -0.8085 C   0  0  0  0  0  0  0  0  0  0  0  0
    3.3029   -0.3664   -0.2254 C   0  0  0  0  0  0  0  0  0  0  0  0
    4.9579    1.3235   -0.4481 C   0  0  0  0  0  0  0  0  0  0  0  0
   -2.9568   -3.0646   -0.1304 C   0  0  0  0  0  0  0  0  0  0  0  0
    5.7286    0.7074    0.5112 C   0  0  0  0  0  0  0  0  0  0  0  0
   -1.8487   -3.8111   -0.0117 C   0  0  0  0  0  0  0  0  0  0  0  0
    3.7379    0.8108   -0.8389 C   0  0  0  0  0  0  0  0  0  0  0  0
    1.6529   -2.2311   -0.3992 C   0  0  0  0  0  0  0  0  0  0  0  0
    2.0091   -0.9541   -0.6080 C   0  0  0  0  0  0  0  0  0  0  0  0
    4.0905   -0.9960    0.7546 C   0  0  0  0  0  0  0  0  0  0  0  0
    5.3220   -0.4556    1.1324 C   0  0  0  0  0  0  0  0  0  0  0  0
    6.7656    2.4797   -0.1707 C   0  0  0  0  0  0  0  0  0  0  0  0
   -6.4618    3.3257   -1.2907 H   0  0  0  0  0  0  0  0  0  0  0  0
   -6.9631    4.0404    0.2557 H   0  0  0  0  0  0  0  0  0  0  0  0
   -7.8056    1.8947    1.0424 H   0  0  0  0  0  0  0  0  0  0  0  0
   -8.3316    1.8982   -0.6526 H   0  0  0  0  0  0  0  0  0  0  0  0
   -4.3820    3.1973   -0.0800 H   0  0  0  0  0  0  0  0  0  0  0  0
   -5.2106    2.8519    1.4581 H   0  0  0  0  0  0  0  0  0  0  0  0
   -6.4691    0.4903   -1.3153 H   0  0  0  0  0  0  0  0  0  0  0  0
   -6.7789   -0.1307    0.3315 H   0  0  0  0  0  0  0  0  0  0  0  0
   -5.0295   -1.3627   -0.3002 H   0  0  0  0  0  0  0  0  0  0  0  0
   -2.0545   -1.1582    0.4044 H   0  0  0  0  0  0  0  0  0  0  0  0
    0.0286   -4.0584    0.9148 H   0  0  0  0  0  0  0  0  0  0  0  0
   -0.5996   -2.4595    1.1408 H   0  0  0  0  0  0  0  0  0  0  0  0
   -0.2433   -2.0552   -1.3896 H   0  0  0  0  0  0  0  0  0  0  0  0
    0.4991   -3.6443   -1.4815 H   0  0  0  0  0  0  0  0  0  0  0  0
   -3.8823   -3.5461   -0.4346 H   0  0  0  0  0  0  0  0  0  0  0  0
    3.1467    1.3122   -1.5983 H   0  0  0  0  0  0  0  0  0  0  0  0
   -1.9038   -4.8736   -0.2335 H   0  0  0  0  0  0  0  0  0  0  0  0
    2.3297   -2.9441    0.0617 H   0  0  0  0  0  0  0  0  0  0  0  0
    1.3109   -0.2811   -1.1003 H   0  0  0  0  0  0  0  0  0  0  0  0
    3.7686   -1.8994    1.2650 H   0  0  0  0  0  0  0  0  0  0  0  0
    5.9304   -0.9348    1.8909 H   0  0  0  0  0  0  0  0  0  0  0  0
    7.6125    2.4562   -0.8662 H   0  0  0  0  0  0  0  0  0  0  0  0
    6.8042    3.4152    0.3991 H   0  0  0  0  0  0  0  0  0  0  0  0
  1  9  2  0  0  0  0
  2 15  1  0  0  0  0
  2 24  1  0  0  0  0
  3 17  1  0  0  0  0
  3 24  1  0  0  0  0
  4  7  1  0  0  0  0
  4  8  1  0  0  0  0
  4  9  1  0  0  0  0
  5  6  1  0  0  0  0
  5  7  1  0  0  0  0
  5 25  1  0  0  0  0
  5 26  1  0  0  0  0
  6  8  1  0  0  0  0
  6 27  1  0  0  0  0
  6 28  1  0  0  0  0
  7 29  1  0  0  0  0
  7 30  1  0  0  0  0
  8 31  1  0  0  0  0
  8 32  1  0  0  0  0
  9 10  1  0  0  0  0
 10 11  2  0  0  0  0
 10 33  1  0  0  0  0
 11 16  1  0  0  0  0
 11 34  1  0  0  0  0
 12 13  1  0  0  0  0
 12 18  1  0  0  0  0
 12 35  1  0  0  0  0
 12 36  1  0  0  0  0
 13 20  1  0  0  0  0
 13 37  1  0  0  0  0
 13 38  1  0  0  0  0
 14 19  2  0  0  0  0
 14 21  1  0  0  0  0
 14 22  1  0  0  0  0
 15 17  2  0  0  0  0
 15 19  1  0  0  0  0
 16 18  2  0  0  0  0
 16 39  1  0  0  0  0
 17 23  1  0  0  0  0
 18 41  1  0  0  0  0
 19 40  1  0  0  0  0
 20 21  2  0  0  0  0
 20 42  1  0  0  0  0
 21 43  1  0  0  0  0
 22 23  2  0  0  0  0
 22 44  1  0  0  0  0
 23 45  1  0  0  0  0
 24 46  1  0  0  0  0
 24 47  1  0  0  0  0
M  END
> <PUBCHEM_COMPOUND_CID>
50994144

> <PUBCHEM_CONFORMER_RMSD>
1

> <PUBCHEM_CONFORMER_DIVERSEORDER>
11
10
20
32
85
30
84
103
71
16
6
44
40
52
93
144
128
5
171
1
164
15
120
134
79
3
26
111
39
29
65
161
101
62
166
19
68
76
115
114
55
33
45
140
105
118
157
81
156
108
152
60
41
104
126
151
74
160
56
125
64
150
9
18
124
149
2
159
136
35
27
58
173
49
63
113
172
109
137
119
135
91
22
28
53
121
38
46
174
14
83
139
8
4
127
95
168
51
154
112
133
72
67
158
36
163
147
31
42
132
129
167
106
24
57
82
73
78
143
47
37
54
145
131
61
100
94
43
90
107
92
110
123
148
12
34
98
175
75
86
59
153
77
146
97
89
116
70
50
48
87
13
21
102
96
80
130
23
170
141
7
162
69
17
66
88
99
165
155
138
122
142
169
25
117

> <PUBCHEM_MMFF94_PARTIAL_CHARGES>
31
1 -0.57
10 -0.14
11 -0.15
12 0.14
13 0.14
14 0.03
15 0.08
16 -0.15
17 0.08
18 -0.29
19 -0.15
2 -0.36
20 -0.29
21 -0.18
22 -0.15
23 -0.15
24 0.56
3 -0.36
33 0.15
34 0.15
39 0.15
4 -0.66
40 0.15
41 0.15
42 0.15
43 0.15
44 0.15
45 0.15
7 0.3
8 0.3
9 0.62

> <PUBCHEM_EFFECTIVE_ROTOR_COUNT>
8.6

> <PUBCHEM_PHARMACOPHORE_FEATURES>
7
1 1 acceptor
1 2 acceptor
1 3 acceptor
4 12 13 18 20 hydrophobe
5 2 3 15 17 24 rings
5 4 5 6 7 8 rings
6 14 15 17 19 22 23 rings

> <PUBCHEM_HEAVY_ATOM_COUNT>
24

> <PUBCHEM_ATOM_DEF_STEREO_COUNT>
0

> <PUBCHEM_ATOM_UDEF_STEREO_COUNT>
0

> <PUBCHEM_BOND_DEF_STEREO_COUNT>
3

> <PUBCHEM_BOND_UDEF_STEREO_COUNT>
0

> <PUBCHEM_ISOTOPIC_ATOM_COUNT>
0

> <PUBCHEM_COMPONENT_COUNT>
1

> <PUBCHEM_CACTVS_TAUTO_COUNT>
3

> <PUBCHEM_CONFORMER_ID>
030A1BE00000000B

> <PUBCHEM_MMFF94_ENERGY>
51.6819

> <PUBCHEM_FEATURE_SELFOVERLAP>
35.676

> <PUBCHEM_SHAPE_FINGERPRINT>
10050765 1 18411138017859949503
10883706 163 18259979371228377237
11135609 187 18340769227080541801
11273773 38 18410012143321366865
11374522 155 18335426768753480837
12107183 9 18262789667378317242
12895837 130 18334862770088670769
13911852 28 8862360013401253467
14117953 113 18337956671207897020
14168556 18 18409454696592331747
14216079 64 8502365634243398785
14223995 32 18342450478658284480
14251764 30 9367342630714631979
14251764 75 18270129989824687945
14294032 229 18058732532782330695
14429114 114 18196091041558801537
14919807 6 18341349846750647324
14931854 50 17704075053762533649
15519825 34 16299246747098707595
15803439 3 16559030493406832359
16126227 98 18341899589347050323
18608769 82 18340771537815099435
19053607 189 18343010073698337586
19438510 23 18259705592748307731
20715895 44 18411419471107557298
21298829 104 18340489967932499921
21302155 148 18409735092271240718
21585481 104 14045749205581553035
21585482 57 18410283715147303253
22033318 11 17967524680414404648
221357 26 9871742490339872773
23522609 53 17532100582692406740
23569914 2 16627113452253968384
270888 7 18411136918357883783
2748736 6 18411131407956865685
2838139 119 18272643592995357590
3246875 12 18410578371426578947
44249763 50 17416953096953485014
5104073 3 17894908555390879098
5219985 13 18341894078334973103
59682541 52 16558756655087448326
6327066 14 18411698777500349415
7288768 16 18186804682124863987
7808743 9 18410853278680953731
9849439 229 18335709325418072991
9981440 41 18408327704841364123

> <PUBCHEM_SHAPE_MULTIPOLES>
471.32
21.79
4.58
0.87
2.95
2.28
0.02
-25.84
1.47
3.93
-0.36
-0.84
0
-0.65

> <PUBCHEM_SHAPE_SELFOVERLAP>
992.361

> <PUBCHEM_SHAPE_VOLUME>
266

> <PUBCHEM_COORDINATE_TYPE>
2
5
10

$$$$
