50994065
  -OEChem-09182013413D

 50 50  0     0  0  0  0  0  0999 V2000
    2.1465   -2.6733   -0.3050 O   0  0  0  0  0  0  0  0  0  0  0  0
    4.5756   -3.1170    0.9710 O   0  0  0  0  0  0  0  0  0  0  0  0
   -0.0966    3.2492   -1.0497 O   0  0  0  0  0  0  0  0  0  0  0  0
    1.3052    2.2979    0.5424 N   0  0  0  0  0  0  0  0  0  0  0  0
   -5.6025   -1.4684   -0.7433 C   0  0  0  0  0  0  0  0  0  0  0  0
   -6.5031   -0.4051   -0.1022 C   0  0  0  0  0  0  0  0  0  0  0  0
   -4.9747   -2.4754    0.2234 C   0  0  0  0  0  0  0  0  0  0  0  0
   -5.8045    0.5413    0.8795 C   0  0  0  0  0  0  0  0  0  0  0  0
    3.2706    2.0502   -0.9378 C   0  0  0  0  0  0  0  0  0  0  0  0
    3.6152    0.6719   -0.4292 C   0  0  0  0  0  0  0  0  0  0  0  0
    2.5414    2.9020    0.0983 C   0  0  0  0  0  0  0  0  0  0  0  0
   -4.1585   -3.5553   -0.4694 C   0  0  0  0  0  0  0  0  0  0  0  0
   -4.6419    1.2683    0.2661 C   0  0  0  0  0  0  0  0  0  0  0  0
    2.7146   -0.3796   -0.5995 C   0  0  0  0  0  0  0  0  0  0  0  0
    4.8347    0.4491    0.2102 C   0  0  0  0  0  0  0  0  0  0  0  0
    3.0335   -1.6540   -0.1304 C   0  0  0  0  0  0  0  0  0  0  0  0
   -3.3835    1.1751    0.7214 C   0  0  0  0  0  0  0  0  0  0  0  0
    5.1535   -0.8252    0.6795 C   0  0  0  0  0  0  0  0  0  0  0  0
    4.2529   -1.8768    0.5091 C   0  0  0  0  0  0  0  0  0  0  0  0
    0.0875    2.5268   -0.0756 C   0  0  0  0  0  0  0  0  0  0  0  0
   -2.2715    1.8798    0.1231 C   0  0  0  0  0  0  0  0  0  0  0  0
   -1.0178    1.7791    0.5865 C   0  0  0  0  0  0  0  0  0  0  0  0
    0.9232   -2.3608   -0.9684 C   0  0  0  0  0  0  0  0  0  0  0  0
   -4.8110   -0.9845   -1.3279 H   0  0  0  0  0  0  0  0  0  0  0  0
   -6.2119   -2.0233   -1.4687 H   0  0  0  0  0  0  0  0  0  0  0  0
   -7.3306   -0.9026    0.4185 H   0  0  0  0  0  0  0  0  0  0  0  0
   -6.9574    0.1888   -0.9059 H   0  0  0  0  0  0  0  0  0  0  0  0
   -5.7671   -2.9539    0.8111 H   0  0  0  0  0  0  0  0  0  0  0  0
   -4.3245   -1.9527    0.9333 H   0  0  0  0  0  0  0  0  0  0  0  0
   -6.5304    1.2861    1.2276 H   0  0  0  0  0  0  0  0  0  0  0  0
   -5.4906   -0.0189    1.7683 H   0  0  0  0  0  0  0  0  0  0  0  0
    2.6585    1.9574   -1.8445 H   0  0  0  0  0  0  0  0  0  0  0  0
    4.1883    2.5640   -1.2507 H   0  0  0  0  0  0  0  0  0  0  0  0
    2.3248    3.8897   -0.3231 H   0  0  0  0  0  0  0  0  0  0  0  0
    3.1639    3.0441    0.9886 H   0  0  0  0  0  0  0  0  0  0  0  0
   -3.7363   -4.2453    0.2678 H   0  0  0  0  0  0  0  0  0  0  0  0
   -3.3324   -3.1153   -1.0370 H   0  0  0  0  0  0  0  0  0  0  0  0
   -4.7810   -4.1329   -1.1600 H   0  0  0  0  0  0  0  0  0  0  0  0
   -4.8647    1.9040   -0.5881 H   0  0  0  0  0  0  0  0  0  0  0  0
    1.7844   -0.1489   -1.1076 H   0  0  0  0  0  0  0  0  0  0  0  0
    5.5436    1.2609    0.3502 H   0  0  0  0  0  0  0  0  0  0  0  0
    1.3541    1.6775    1.3455 H   0  0  0  0  0  0  0  0  0  0  0  0
   -3.1696    0.5411    1.5782 H   0  0  0  0  0  0  0  0  0  0  0  0
    6.1068   -0.9847    1.1763 H   0  0  0  0  0  0  0  0  0  0  0  0
   -2.4947    2.5072   -0.7360 H   0  0  0  0  0  0  0  0  0  0  0  0
   -0.7801    1.1553    1.4427 H   0  0  0  0  0  0  0  0  0  0  0  0
    5.4556   -3.0820    1.3839 H   0  0  0  0  0  0  0  0  0  0  0  0
    0.3272   -1.6392   -0.3990 H   0  0  0  0  0  0  0  0  0  0  0  0
    1.0945   -2.0387   -2.0012 H   0  0  0  0  0  0  0  0  0  0  0  0
    0.3383   -3.2853   -1.0176 H   0  0  0  0  0  0  0  0  0  0  0  0
  1 16  1  0  0  0  0
  1 23  1  0  0  0  0
  2 19  1  0  0  0  0
  2 47  1  0  0  0  0
  3 20  2  0  0  0  0
  4 11  1  0  0  0  0
  4 20  1  0  0  0  0
  4 42  1  0  0  0  0
  5  6  1  0  0  0  0
  5  7  1  0  0  0  0
  5 24  1  0  0  0  0
  5 25  1  0  0  0  0
  6  8  1  0  0  0  0
  6 26  1  0  0  0  0
  6 27  1  0  0  0  0
  7 12  1  0  0  0  0
  7 28  1  0  0  0  0
  7 29  1  0  0  0  0
  8 13  1  0  0  0  0
  8 30  1  0  0  0  0
  8 31  1  0  0  0  0
  9 10  1  0  0  0  0
  9 11  1  0  0  0  0
  9 32  1  0  0  0  0
  9 33  1  0  0  0  0
 10 14  2  0  0  0  0
 10 15  1  0  0  0  0
 11 34  1  0  0  0  0
 11 35  1  0  0  0  0
 12 36  1  0  0  0  0
 12 37  1  0  0  0  0
 12 38  1  0  0  0  0
 13 17  2  0  0  0  0
 13 39  1  0  0  0  0
 14 16  1  0  0  0  0
 14 40  1  0  0  0  0
 15 18  2  0  0  0  0
 15 41  1  0  0  0  0
 16 19  2  0  0  0  0
 17 21  1  0  0  0  0
 17 43  1  0  0  0  0
 18 19  1  0  0  0  0
 18 44  1  0  0  0  0
 20 22  1  0  0  0  0
 21 22  2  0  0  0  0
 21 45  1  0  0  0  0
 22 46  1  0  0  0  0
 23 48  1  0  0  0  0
 23 49  1  0  0  0  0
 23 50  1  0  0  0  0
M  END
> <PUBCHEM_COMPOUND_CID>
50994065

> <PUBCHEM_CONFORMER_RMSD>
1.2

> <PUBCHEM_CONFORMER_DIVERSEORDER>
1
12
59
58
36
64
56
80
53
30
33
55
52
45
60
85
16
38
23
46
75
71
47
43
61
29
15
77
67
83
50
79
70
54
63
31
69
73
9
82
32
65
21
44
41
37
11
20
40
62
66
76
14
18
27
7
81
13
24
74
42
10
17
35
57
48
51
72
26
25
34
8
22
6
2
84
28
19
78
4
5
39
49
3
68

> <PUBCHEM_MMFF94_PARTIAL_CHARGES>
28
1 -0.36
10 -0.14
11 0.3
13 -0.29
14 -0.15
15 -0.15
16 0.08
17 -0.15
18 -0.15
19 0.08
2 -0.53
20 0.62
21 -0.15
22 -0.14
23 0.28
3 -0.57
39 0.15
4 -0.73
40 0.15
41 0.15
42 0.37
43 0.15
44 0.15
45 0.15
46 0.15
47 0.45
8 0.14
9 0.14

> <PUBCHEM_EFFECTIVE_ROTOR_COUNT>
11

> <PUBCHEM_PHARMACOPHORE_FEATURES>
7
1 1 acceptor
1 12 hydrophobe
1 2 donor
1 3 acceptor
1 4 donor
5 5 6 7 8 13 hydrophobe
6 10 14 15 16 18 19 rings

> <PUBCHEM_HEAVY_ATOM_COUNT>
23

> <PUBCHEM_ATOM_DEF_STEREO_COUNT>
0

> <PUBCHEM_ATOM_UDEF_STEREO_COUNT>
0

> <PUBCHEM_BOND_DEF_STEREO_COUNT>
2

> <PUBCHEM_BOND_UDEF_STEREO_COUNT>
0

> <PUBCHEM_ISOTOPIC_ATOM_COUNT>
0

> <PUBCHEM_COMPONENT_COUNT>
1

> <PUBCHEM_CACTVS_TAUTO_COUNT>
15

> <PUBCHEM_CONFORMER_ID>
030A1B9100000001

> <PUBCHEM_MMFF94_ENERGY>
40.02

> <PUBCHEM_FEATURE_SELFOVERLAP>
35.52

> <PUBCHEM_SHAPE_FINGERPRINT>
10838868 158 17391650152139181051
11963148 33 17974566901998597322
12107183 9 18269284461231243377
12596602 18 17275390893056636768
131258 38 18261943116439152378
14251740 57 17916875595122227590
14251751 18 18409446973396971377
14681488 357 17986976066831440847
15250474 111 18341615949374558293
15728490 51 18413669124154843748
17492 89 18049159961048472386
17857418 61 18341895203895524369
20028762 73 18342175514715084574
20645477 70 18333453144516381456
21197605 99 18341334508214565834
23559900 14 18269265928552609105
3246872 21 17837769298469674311
338550 245 18266461082378122141
3680242 22 18411426081320786187
373842 8 18342174436604440407
439807 62 18336266851508047307
463206 1 18410581720999578657
5326457 24 18341335565303775409
7970288 3 18193555563070153874

> <PUBCHEM_SHAPE_MULTIPOLES>
450.74
15.38
4.57
0.94
16.35
1.23
-0.04
8.05
1.81
-0.48
-0.37
-0.13
0.02
-1.74

> <PUBCHEM_SHAPE_SELFOVERLAP>
899.158

> <PUBCHEM_SHAPE_VOLUME>
265.5

> <PUBCHEM_COORDINATE_TYPE>
2
5
10

$$$$
