25255091
  -OEChem-09182009043D

 51 52  0     0  0  0  0  0  0999 V2000
   -4.2011    1.7734    1.8339 O   0  0  0  0  0  0  0  0  0  0  0  0
   -4.4586    3.2595   -0.0457 O   0  0  0  0  0  0  0  0  0  0  0  0
    4.7519   -0.7936    0.9431 O   0  0  0  0  0  0  0  0  0  0  0  0
    4.1799    0.6015   -0.8249 N   0  0  0  0  0  0  0  0  0  0  0  0
   -0.6643   -4.5273    0.7771 C   0  0  0  0  0  0  0  0  0  0  0  0
    0.4804   -3.5463    1.0604 C   0  0  0  0  0  0  0  0  0  0  0  0
    4.7928    2.7127    0.3110 C   0  0  0  0  0  0  0  0  0  0  0  0
   -1.6259   -4.1122   -0.3417 C   0  0  0  0  0  0  0  0  0  0  0  0
    1.4422   -3.3772   -0.1179 C   0  0  0  0  0  0  0  0  0  0  0  0
    5.2246    1.5801   -0.6271 C   0  0  0  0  0  0  0  0  0  0  0  0
    3.5789    3.4395   -0.2689 C   0  0  0  0  0  0  0  0  0  0  0  0
    5.9294    3.7079    0.5553 C   0  0  0  0  0  0  0  0  0  0  0  0
   -2.2672   -2.7753   -0.0981 C   0  0  0  0  0  0  0  0  0  0  0  0
    2.5882   -2.4754    0.2453 C   0  0  0  0  0  0  0  0  0  0  0  0
   -2.7419   -0.4057   -0.7322 C   0  0  0  0  0  0  0  0  0  0  0  0
   -2.1322   -1.7305   -0.9298 C   0  0  0  0  0  0  0  0  0  0  0  0
    4.0363   -0.5102   -0.0122 C   0  0  0  0  0  0  0  0  0  0  0  0
    2.8824   -1.3540   -0.4269 C   0  0  0  0  0  0  0  0  0  0  0  0
   -3.7314    1.2307    0.6777 C   0  0  0  0  0  0  0  0  0  0  0  0
   -3.1658   -0.0206    0.5419 C   0  0  0  0  0  0  0  0  0  0  0  0
   -3.8785    2.0792   -0.3957 C   0  0  0  0  0  0  0  0  0  0  0  0
   -2.8923    0.4614   -1.8288 C   0  0  0  0  0  0  0  0  0  0  0  0
   -3.4683    1.7233   -1.6640 C   0  0  0  0  0  0  0  0  0  0  0  0
   -4.6597    3.0591    1.3682 C   0  0  0  0  0  0  0  0  0  0  0  0
   -0.2441   -5.5108    0.5324 H   0  0  0  0  0  0  0  0  0  0  0  0
   -1.2368   -4.6604    1.7044 H   0  0  0  0  0  0  0  0  0  0  0  0
    0.0778   -2.5711    1.3605 H   0  0  0  0  0  0  0  0  0  0  0  0
    1.0379   -3.9240    1.9279 H   0  0  0  0  0  0  0  0  0  0  0  0
    4.5014    2.2842    1.2786 H   0  0  0  0  0  0  0  0  0  0  0  0
   -2.4214   -4.8637   -0.4164 H   0  0  0  0  0  0  0  0  0  0  0  0
   -1.1025   -4.1281   -1.3048 H   0  0  0  0  0  0  0  0  0  0  0  0
    5.4894    1.9728   -1.6153 H   0  0  0  0  0  0  0  0  0  0  0  0
    6.1089    1.0746   -0.2223 H   0  0  0  0  0  0  0  0  0  0  0  0
    0.9092   -2.9836   -0.9902 H   0  0  0  0  0  0  0  0  0  0  0  0
    1.8485   -4.3545   -0.4046 H   0  0  0  0  0  0  0  0  0  0  0  0
    3.7955    3.8488   -1.2617 H   0  0  0  0  0  0  0  0  0  0  0  0
    3.2818    4.2716    0.3788 H   0  0  0  0  0  0  0  0  0  0  0  0
    2.7141    2.7738   -0.3557 H   0  0  0  0  0  0  0  0  0  0  0  0
    6.2510    4.1800   -0.3792 H   0  0  0  0  0  0  0  0  0  0  0  0
    6.7957    3.2035    0.9959 H   0  0  0  0  0  0  0  0  0  0  0  0
    5.6146    4.4980    1.2452 H   0  0  0  0  0  0  0  0  0  0  0  0
   -2.8797   -2.7142    0.7964 H   0  0  0  0  0  0  0  0  0  0  0  0
    3.5347    0.7538   -1.5948 H   0  0  0  0  0  0  0  0  0  0  0  0
    3.1964   -2.7870    1.0908 H   0  0  0  0  0  0  0  0  0  0  0  0
   -1.5338   -1.8443   -1.8309 H   0  0  0  0  0  0  0  0  0  0  0  0
    2.2855   -1.0399   -1.2768 H   0  0  0  0  0  0  0  0  0  0  0  0
   -3.0545   -0.6450    1.4211 H   0  0  0  0  0  0  0  0  0  0  0  0
   -2.5634    0.1614   -2.8214 H   0  0  0  0  0  0  0  0  0  0  0  0
   -3.5865    2.3946   -2.5069 H   0  0  0  0  0  0  0  0  0  0  0  0
   -4.1211    3.8425    1.9139 H   0  0  0  0  0  0  0  0  0  0  0  0
   -5.7298    3.1502    1.5868 H   0  0  0  0  0  0  0  0  0  0  0  0
  1 19  1  0  0  0  0
  1 24  1  0  0  0  0
  2 21  1  0  0  0  0
  2 24  1  0  0  0  0
  3 17  2  0  0  0  0
  4 10  1  0  0  0  0
  4 17  1  0  0  0  0
  4 43  1  0  0  0  0
  5  6  1  0  0  0  0
  5  8  1  0  0  0  0
  5 25  1  0  0  0  0
  5 26  1  0  0  0  0
  6  9  1  0  0  0  0
  6 27  1  0  0  0  0
  6 28  1  0  0  0  0
  7 10  1  0  0  0  0
  7 11  1  0  0  0  0
  7 12  1  0  0  0  0
  7 29  1  0  0  0  0
  8 13  1  0  0  0  0
  8 30  1  0  0  0  0
  8 31  1  0  0  0  0
  9 14  1  0  0  0  0
  9 34  1  0  0  0  0
  9 35  1  0  0  0  0
 10 32  1  0  0  0  0
 10 33  1  0  0  0  0
 11 36  1  0  0  0  0
 11 37  1  0  0  0  0
 11 38  1  0  0  0  0
 12 39  1  0  0  0  0
 12 40  1  0  0  0  0
 12 41  1  0  0  0  0
 13 16  2  0  0  0  0
 13 42  1  0  0  0  0
 14 18  2  0  0  0  0
 14 44  1  0  0  0  0
 15 16  1  0  0  0  0
 15 20  2  0  0  0  0
 15 22  1  0  0  0  0
 16 45  1  0  0  0  0
 17 18  1  0  0  0  0
 18 46  1  0  0  0  0
 19 20  1  0  0  0  0
 19 21  2  0  0  0  0
 20 47  1  0  0  0  0
 21 23  1  0  0  0  0
 22 23  2  0  0  0  0
 22 48  1  0  0  0  0
 23 49  1  0  0  0  0
 24 50  1  0  0  0  0
 24 51  1  0  0  0  0
M  END
> <PUBCHEM_COMPOUND_CID>
25255091

> <PUBCHEM_CONFORMER_RMSD>
1.2

> <PUBCHEM_CONFORMER_DIVERSEORDER>
1
80
32
81
7
77
28
46
82
14
19
49
65
73
66
62
83
71
31
39
35
75
11
29
69
50
5
12
68
79
38
34
13
26
17
27
74
76
61
64
43
45
47
33
3
22
52
40
84
4
53
59
30
51
24
25
21
42
60
9
57
48
2
16
18
37
67
86
20
44
8
54
72
55
15
6
63
70
56
10
85
36
58
41
78
23

> <PUBCHEM_MMFF94_PARTIAL_CHARGES>
27
1 -0.36
10 0.3
13 -0.29
14 -0.29
15 0.03
16 -0.18
17 0.62
18 -0.14
19 0.08
2 -0.36
20 -0.15
21 0.08
22 -0.15
23 -0.15
24 0.56
3 -0.57
4 -0.73
42 0.15
43 0.37
44 0.15
45 0.15
46 0.15
47 0.15
48 0.15
49 0.15
8 0.14
9 0.14

> <PUBCHEM_EFFECTIVE_ROTOR_COUNT>
10.6

> <PUBCHEM_PHARMACOPHORE_FEATURES>
9
1 1 acceptor
1 2 acceptor
1 3 acceptor
1 4 donor
3 5 8 13 hydrophobe
3 6 9 14 hydrophobe
3 7 11 12 hydrophobe
5 1 2 19 21 24 rings
6 15 19 20 21 22 23 rings

> <PUBCHEM_HEAVY_ATOM_COUNT>
24

> <PUBCHEM_ATOM_DEF_STEREO_COUNT>
0

> <PUBCHEM_ATOM_UDEF_STEREO_COUNT>
0

> <PUBCHEM_BOND_DEF_STEREO_COUNT>
2

> <PUBCHEM_BOND_UDEF_STEREO_COUNT>
0

> <PUBCHEM_ISOTOPIC_ATOM_COUNT>
0

> <PUBCHEM_COMPONENT_COUNT>
1

> <PUBCHEM_CACTVS_TAUTO_COUNT>
2

> <PUBCHEM_CONFORMER_ID>
01815CB300000001

> <PUBCHEM_MMFF94_ENERGY>
36.7514

> <PUBCHEM_FEATURE_SELFOVERLAP>
45.826

> <PUBCHEM_SHAPE_FINGERPRINT>
10615611 76 17197138458035611033
10937287 8 18410572855691850427
11059048 146 18411705404497620052
11059845 2 18194371555991552858
11135609 187 18335968823548017453
11408170 253 17326344719501425324
12107183 9 18189597412032526898
12788726 201 18122328332128940275
13590594 115 17401768523836845650
14251764 38 18339076107648063522
14251764 75 18341337682421978377
15119646 57 17345492528964925616
15142526 21 18335424517525615771
151778 21 18265053522584264459
15322535 138 18335972168836884764
155225 5 18123189275819686768
1768 85 18193285096241802659
21458453 9 17753648799280571251
23398203 216 18339376265141707393
325973 47 16608001315389719244
4371632 12 18043509652471433885
474 4 17909541762735339887
4756261 7 18122651563500201731
653340 110 18194120952680498014
7970288 3 9006757796628089352

> <PUBCHEM_SHAPE_MULTIPOLES>
471.32
13.25
6.91
1.34
14.46
3.46
0.06
-17.66
-1.24
-0.29
-1.73
-1.5
-0.55
-0.88

> <PUBCHEM_SHAPE_SELFOVERLAP>
961.971

> <PUBCHEM_SHAPE_VOLUME>
272.8

> <PUBCHEM_COORDINATE_TYPE>
2
5
10

$$$$
