137705650
  -OEChem-09182009343D

 36 36  0     1  0  0  0  0  0999 V2000
   -0.3126    0.0436    1.9376 O   0  0  0  0  0  0  0  0  0  0  0  0
    3.6140   -0.3765   -1.7875 O   0  0  0  0  0  0  0  0  0  0  0  0
   -4.2047   -1.2304   -0.4630 O   0  0  0  0  0  0  0  0  0  0  0  0
    1.1157    1.2212    0.3473 C   0  0  0  0  0  0  0  0  0  0  0  0
    0.2165   -0.0450    0.6069 C   0  0  1  0  0  0  0  0  0  0  0  0
    1.8667    1.0567   -0.9902 C   0  0  0  0  0  0  0  0  0  0  0  0
    1.0136   -1.3404    0.4502 C   0  0  0  0  0  0  0  0  0  0  0  0
    0.2778    2.5207    0.2864 C   0  0  0  0  0  0  0  0  0  0  0  0
    2.1516    1.4312    1.4862 C   0  0  0  0  0  0  0  0  0  0  0  0
   -0.9808   -0.0981   -0.3107 C   0  0  0  0  0  0  0  0  0  0  0  0
    2.6223   -0.2517   -1.0701 C   0  0  0  0  0  0  0  0  0  0  0  0
    2.1175   -1.4218   -0.3115 C   0  0  0  0  0  0  0  0  0  0  0  0
    0.4999   -2.5697    1.1559 C   0  0  0  0  0  0  0  0  0  0  0  0
   -2.2508   -0.0251    0.1135 C   0  0  0  0  0  0  0  0  0  0  0  0
   -3.4382   -0.0777   -0.8019 C   0  0  2  0  0  0  0  0  0  0  0  0
   -4.3085    1.1629   -0.6491 C   0  0  0  0  0  0  0  0  0  0  0  0
    2.5910    1.8713   -1.1155 H   0  0  0  0  0  0  0  0  0  0  0  0
    1.1810    1.0955   -1.8445 H   0  0  0  0  0  0  0  0  0  0  0  0
    0.9263    3.3876    0.1088 H   0  0  0  0  0  0  0  0  0  0  0  0
   -0.4488    2.5042   -0.5326 H   0  0  0  0  0  0  0  0  0  0  0  0
   -0.2634    2.7159    1.2171 H   0  0  0  0  0  0  0  0  0  0  0  0
    2.7909    0.5563    1.6380 H   0  0  0  0  0  0  0  0  0  0  0  0
    2.8093    2.2803    1.2661 H   0  0  0  0  0  0  0  0  0  0  0  0
    1.6575    1.6447    2.4406 H   0  0  0  0  0  0  0  0  0  0  0  0
   -0.7923   -0.1966   -1.3777 H   0  0  0  0  0  0  0  0  0  0  0  0
    2.6695   -2.3492   -0.4218 H   0  0  0  0  0  0  0  0  0  0  0  0
   -0.6469    0.9397    2.1008 H   0  0  0  0  0  0  0  0  0  0  0  0
    0.5313   -2.4293    2.2410 H   0  0  0  0  0  0  0  0  0  0  0  0
    1.0964   -3.4586    0.9232 H   0  0  0  0  0  0  0  0  0  0  0  0
   -0.5322   -2.7824    0.8599 H   0  0  0  0  0  0  0  0  0  0  0  0
   -2.4927    0.0657    1.1686 H   0  0  0  0  0  0  0  0  0  0  0  0
   -3.1260   -0.1813   -1.8472 H   0  0  0  0  0  0  0  0  0  0  0  0
   -5.1766    1.1038   -1.3148 H   0  0  0  0  0  0  0  0  0  0  0  0
   -3.7514    2.0750   -0.8870 H   0  0  0  0  0  0  0  0  0  0  0  0
   -4.7029    1.2489    0.3700 H   0  0  0  0  0  0  0  0  0  0  0  0
   -4.9705   -1.2600   -1.0616 H   0  0  0  0  0  0  0  0  0  0  0  0
  1  5  1  0  0  0  0
  1 27  1  0  0  0  0
  2 11  2  0  0  0  0
  3 15  1  0  0  0  0
  3 36  1  0  0  0  0
  4  5  1  0  0  0  0
  4  6  1  0  0  0  0
  4  8  1  0  0  0  0
  4  9  1  0  0  0  0
  5  7  1  0  0  0  0
  5 10  1  0  0  0  0
  6 11  1  0  0  0  0
  6 17  1  0  0  0  0
  6 18  1  0  0  0  0
  7 12  2  0  0  0  0
  7 13  1  0  0  0  0
  8 19  1  0  0  0  0
  8 20  1  0  0  0  0
  8 21  1  0  0  0  0
  9 22  1  0  0  0  0
  9 23  1  0  0  0  0
  9 24  1  0  0  0  0
 10 14  2  3  0  0  0
 10 25  1  0  0  0  0
 11 12  1  0  0  0  0
 12 26  1  0  0  0  0
 13 28  1  0  0  0  0
 13 29  1  0  0  0  0
 13 30  1  0  0  0  0
 14 15  1  0  0  0  0
 14 31  1  0  0  0  0
 15 16  1  0  0  0  0
 15 32  1  0  0  0  0
 16 33  1  0  0  0  0
 16 34  1  0  0  0  0
 16 35  1  0  0  0  0
M  END
> <PUBCHEM_COMPOUND_CID>
137705650

> <PUBCHEM_CONFORMER_RMSD>
0.6

> <PUBCHEM_CONFORMER_DIVERSEORDER>
1
8
7
10
5
4
2
9
12
6
11
3

> <PUBCHEM_MMFF94_PARTIAL_CHARGES>
17
1 -0.68
10 -0.29
11 0.49
12 -0.14
13 0.14
14 -0.29
15 0.42
2 -0.57
25 0.15
26 0.15
27 0.4
3 -0.68
31 0.15
36 0.4
5 0.56
6 0.06
7 -0.28

> <PUBCHEM_EFFECTIVE_ROTOR_COUNT>
2.6

> <PUBCHEM_PHARMACOPHORE_FEATURES>
7
1 1 acceptor
1 1 donor
1 2 acceptor
1 3 acceptor
1 3 donor
3 4 8 9 hydrophobe
6 4 5 6 7 11 12 rings

> <PUBCHEM_HEAVY_ATOM_COUNT>
16

> <PUBCHEM_ATOM_DEF_STEREO_COUNT>
1

> <PUBCHEM_ATOM_UDEF_STEREO_COUNT>
1

> <PUBCHEM_BOND_DEF_STEREO_COUNT>
0

> <PUBCHEM_BOND_UDEF_STEREO_COUNT>
1

> <PUBCHEM_ISOTOPIC_ATOM_COUNT>
0

> <PUBCHEM_COMPONENT_COUNT>
1

> <PUBCHEM_CACTVS_TAUTO_COUNT>
-1

> <PUBCHEM_CONFORMER_ID>
083538B200000001

> <PUBCHEM_MMFF94_ENERGY>
35.0374

> <PUBCHEM_FEATURE_SELFOVERLAP>
35.522

> <PUBCHEM_SHAPE_FINGERPRINT>
10465860 71 17988650657415729031
10610426 29 15840994343351608726
11961588 58 17387699546550775222
12251169 10 10591748866632133045
12423570 1 17188983848190688810
12654215 9 18411691080396780349
12716301 132 17896885563170007922
12932764 1 18410848855191147223
13705890 14 18202567314599416317
15210252 30 17749113248980964605
15852999 172 17912921970499913032
16945 1 18191897607167632078
17041 50 18201434753636439877
18186145 218 18343866628117240387
187816 3 18337123297639931214
20339313 130 17918275363687381293
20645477 70 17703500065316189253
20671657 53 17417826023286236204
20820808 20 17968104100907568142
21947302 44 18268428112774830752
22112679 90 17841442431546367618
23382010 3 18188786053253155478
23402539 116 18408887309146071638
23419403 2 17699308851624416258
23493267 7 16733280018013048496
23526113 38 18337124426915558550
25 1 17968385562962570455
2748010 2 16249985610521756866
276578 36 13407081392112938252
2838139 119 16371301029410830334
298252 57 16878522227319808270
3060560 45 18262508294963168135
3250762 1 17761223506482609262
3323516 105 18338521940654725615
528886 8 17894920628442980382
58051976 378 18052519256807542199
7364860 26 17489299849506087848
74978 22 18272362071411770941
7832392 63 18340764845812979225

> <PUBCHEM_SHAPE_MULTIPOLES>
311.66
5.92
2.19
1.44
7.44
0.15
0.14
-0.02
-3
-0.6
0.68
-1.04
-0.02
0.3

> <PUBCHEM_SHAPE_SELFOVERLAP>
631.008

> <PUBCHEM_SHAPE_VOLUME>
181.2

> <PUBCHEM_COORDINATE_TYPE>
2
5
10

$$$$
