5372065
  -OEChem-09182009023D

 47 48  0     0  0  0  0  0  0999 V2000
   -2.2531    2.5308   -0.1311 O   0  0  0  0  0  0  0  0  0  0  0  0
   -4.5994    2.1964    0.3053 O   0  0  0  0  0  0  0  0  0  0  0  0
    3.9186   -0.7984    1.0777 O   0  0  0  0  0  0  0  0  0  0  0  0
    3.4370    0.4510   -0.8204 N   0  0  0  0  0  0  0  0  0  0  0  0
   -0.7520   -2.8851    0.7463 C   0  0  0  0  0  0  0  0  0  0  0  0
   -1.3855   -2.3273   -0.5342 C   0  0  0  0  0  0  0  0  0  0  0  0
    0.1202   -4.1327    0.5590 C   0  0  0  0  0  0  0  0  0  0  0  0
   -2.2787   -1.1341   -0.3043 C   0  0  0  0  0  0  0  0  0  0  0  0
    1.2961   -3.9150   -0.3962 C   0  0  0  0  0  0  0  0  0  0  0  0
    3.4986    2.6489    0.3140 C   0  0  0  0  0  0  0  0  0  0  0  0
    4.2614    1.5906   -0.4907 C   0  0  0  0  0  0  0  0  0  0  0  0
   -1.7397    0.1539   -0.3465 C   0  0  0  0  0  0  0  0  0  0  0  0
   -3.6475   -1.3292   -0.0495 C   0  0  0  0  0  0  0  0  0  0  0  0
   -2.5961    1.2137   -0.1300 C   0  0  0  0  0  0  0  0  0  0  0  0
   -3.9360    1.0229    0.1194 C   0  0  0  0  0  0  0  0  0  0  0  0
    2.2073   -2.8313    0.1075 C   0  0  0  0  0  0  0  0  0  0  0  0
    2.3023    3.1580   -0.4908 C   0  0  0  0  0  0  0  0  0  0  0  0
    4.4019    3.8211    0.7042 C   0  0  0  0  0  0  0  0  0  0  0  0
   -4.4932   -0.2384    0.1661 C   0  0  0  0  0  0  0  0  0  0  0  0
    2.4259   -1.6876   -0.5560 C   0  0  0  0  0  0  0  0  0  0  0  0
    3.3393   -0.6557    0.0058 C   0  0  0  0  0  0  0  0  0  0  0  0
   -3.5274    3.1475    0.1447 C   0  0  0  0  0  0  0  0  0  0  0  0
   -1.5543   -3.1447    1.4499 H   0  0  0  0  0  0  0  0  0  0  0  0
   -0.1751   -2.0960    1.2447 H   0  0  0  0  0  0  0  0  0  0  0  0
   -0.6105   -2.0406   -1.2539 H   0  0  0  0  0  0  0  0  0  0  0  0
   -1.9632   -3.1187   -1.0295 H   0  0  0  0  0  0  0  0  0  0  0  0
    0.4919   -4.4560    1.5395 H   0  0  0  0  0  0  0  0  0  0  0  0
   -0.5004   -4.9508    0.1737 H   0  0  0  0  0  0  0  0  0  0  0  0
    1.8735   -4.8448   -0.4659 H   0  0  0  0  0  0  0  0  0  0  0  0
    0.9373   -3.7018   -1.4092 H   0  0  0  0  0  0  0  0  0  0  0  0
    3.1173    2.1912    1.2358 H   0  0  0  0  0  0  0  0  0  0  0  0
    5.1329    1.2441    0.0765 H   0  0  0  0  0  0  0  0  0  0  0  0
    4.6254    2.0086   -1.4361 H   0  0  0  0  0  0  0  0  0  0  0  0
   -0.6852    0.3208   -0.5394 H   0  0  0  0  0  0  0  0  0  0  0  0
   -4.0613   -2.3341   -0.0158 H   0  0  0  0  0  0  0  0  0  0  0  0
    2.6992   -3.0208    1.0583 H   0  0  0  0  0  0  0  0  0  0  0  0
    2.6179    3.5835   -1.4496 H   0  0  0  0  0  0  0  0  0  0  0  0
    1.7689    3.9385    0.0629 H   0  0  0  0  0  0  0  0  0  0  0  0
    1.5827    2.3579   -0.6930 H   0  0  0  0  0  0  0  0  0  0  0  0
    4.8000    4.3273   -0.1818 H   0  0  0  0  0  0  0  0  0  0  0  0
    5.2488    3.4722    1.3043 H   0  0  0  0  0  0  0  0  0  0  0  0
    3.8506    4.5575    1.2982 H   0  0  0  0  0  0  0  0  0  0  0  0
   -5.5490   -0.3846    0.3637 H   0  0  0  0  0  0  0  0  0  0  0  0
    2.9167    0.4827   -1.6924 H   0  0  0  0  0  0  0  0  0  0  0  0
    1.9411   -1.4924   -1.5068 H   0  0  0  0  0  0  0  0  0  0  0  0
   -3.7773    3.8217   -0.6826 H   0  0  0  0  0  0  0  0  0  0  0  0
   -3.4401    3.7367    1.0648 H   0  0  0  0  0  0  0  0  0  0  0  0
  1 14  1  0  0  0  0
  1 22  1  0  0  0  0
  2 15  1  0  0  0  0
  2 22  1  0  0  0  0
  3 21  2  0  0  0  0
  4 11  1  0  0  0  0
  4 21  1  0  0  0  0
  4 44  1  0  0  0  0
  5  6  1  0  0  0  0
  5  7  1  0  0  0  0
  5 23  1  0  0  0  0
  5 24  1  0  0  0  0
  6  8  1  0  0  0  0
  6 25  1  0  0  0  0
  6 26  1  0  0  0  0
  7  9  1  0  0  0  0
  7 27  1  0  0  0  0
  7 28  1  0  0  0  0
  8 12  2  0  0  0  0
  8 13  1  0  0  0  0
  9 16  1  0  0  0  0
  9 29  1  0  0  0  0
  9 30  1  0  0  0  0
 10 11  1  0  0  0  0
 10 17  1  0  0  0  0
 10 18  1  0  0  0  0
 10 31  1  0  0  0  0
 11 32  1  0  0  0  0
 11 33  1  0  0  0  0
 12 14  1  0  0  0  0
 12 34  1  0  0  0  0
 13 19  2  0  0  0  0
 13 35  1  0  0  0  0
 14 15  2  0  0  0  0
 15 19  1  0  0  0  0
 16 20  2  0  0  0  0
 16 36  1  0  0  0  0
 17 37  1  0  0  0  0
 17 38  1  0  0  0  0
 17 39  1  0  0  0  0
 18 40  1  0  0  0  0
 18 41  1  0  0  0  0
 18 42  1  0  0  0  0
 19 43  1  0  0  0  0
 20 21  1  0  0  0  0
 20 45  1  0  0  0  0
 22 46  1  0  0  0  0
 22 47  1  0  0  0  0
M  END
> <PUBCHEM_COMPOUND_CID>
5372065

> <PUBCHEM_CONFORMER_RMSD>
1.2

> <PUBCHEM_CONFORMER_DIVERSEORDER>
2
32
47
49
54
7
55
21
17
27
43
18
58
39
53
28
14
51
20
34
16
37
6
15
38
44
26
41
1
52
33
60
12
24
61
45
59
19
56
31
57
8
42
3
46
36
5
9
11
10
23
50
30
29
35
22
25
13
40
62
4
48

> <PUBCHEM_MMFF94_PARTIAL_CHARGES>
23
1 -0.36
11 0.3
12 -0.15
13 -0.15
14 0.08
15 0.08
16 -0.29
19 -0.15
2 -0.36
20 -0.14
21 0.62
22 0.56
3 -0.57
34 0.15
35 0.15
36 0.15
4 -0.73
43 0.15
44 0.37
45 0.15
6 0.14
8 -0.14
9 0.14

> <PUBCHEM_EFFECTIVE_ROTOR_COUNT>
9.6

> <PUBCHEM_PHARMACOPHORE_FEATURES>
8
1 1 acceptor
1 2 acceptor
1 3 acceptor
1 4 donor
3 10 17 18 hydrophobe
5 1 2 14 15 22 rings
5 5 6 7 9 16 hydrophobe
6 8 12 13 14 15 19 rings

> <PUBCHEM_HEAVY_ATOM_COUNT>
22

> <PUBCHEM_ATOM_DEF_STEREO_COUNT>
0

> <PUBCHEM_ATOM_UDEF_STEREO_COUNT>
0

> <PUBCHEM_BOND_DEF_STEREO_COUNT>
1

> <PUBCHEM_BOND_UDEF_STEREO_COUNT>
0

> <PUBCHEM_ISOTOPIC_ATOM_COUNT>
0

> <PUBCHEM_COMPONENT_COUNT>
1

> <PUBCHEM_CACTVS_TAUTO_COUNT>
2

> <PUBCHEM_CONFORMER_ID>
0051F8A100000002

> <PUBCHEM_MMFF94_ENERGY>
32.8578

> <PUBCHEM_FEATURE_SELFOVERLAP>
40.751

> <PUBCHEM_SHAPE_FINGERPRINT>
10616163 171 18193840576878142836
11059048 146 18265915703141703156
11135609 187 18193820747647108021
11211813 163 17829635064910058596
11370993 70 18338515347705619148
12038231 1 18410012126325795772
12173636 292 18338233885466169591
12633257 1 18262790770914996516
12925494 130 17978229357955618705
12978246 48 18410007745432533400
13122387 1 18266179422554508100
13590594 115 17330003395354281058
13617811 41 18122609807632788261
138480 1 17977948982073303870
14251764 38 18410290315647484130
14466204 15 18265607689904883986
14468879 13 18261681474893005778
15322535 138 18337942484926039252
1768 85 18339940212054769857
19930381 70 18337110064471262337
20398071 114 18340764957033508848
20567600 299 18267020553318278128
20621476 13 18048307851883583004
21344244 78 16600111254556542083
21734292 116 18340206400704757801
21860390 5 17983857783257157518
21864079 5 18339358673224616470
23559900 14 18269271257709795518
245318 6 17823714133603833708
474 4 18335983052083864315
5048184 11 18410298025181878004
6371009 1 18266436824276460838
7808743 9 18051690250952505720
9981440 41 18264766730512180810

> <PUBCHEM_SHAPE_MULTIPOLES>
430.16
10
6.12
0.81
1.57
1.41
-0.04
-9.57
-0.72
2.63
-0.7
0.39
0.11
0.18

> <PUBCHEM_SHAPE_SELFOVERLAP>
880.065

> <PUBCHEM_SHAPE_VOLUME>
248.8

> <PUBCHEM_COORDINATE_TYPE>
2
5
10

$$$$
