6443006
  -OEChem-09182008583D

 47 46  0     0  0  0  0  0  0999 V2000
    3.0501    1.6193   -0.8479 O   0  0  0  0  0  0  0  0  0  0  0  0
    3.5671    0.1317    0.8580 N   0  0  0  0  0  0  0  0  0  0  0  0
   -4.4464   -0.4472    0.0767 C   0  0  0  0  0  0  0  0  0  0  0  0
   -4.2185    0.5788   -1.0365 C   0  0  0  0  0  0  0  0  0  0  0  0
   -4.2993   -1.8762   -0.4529 C   0  0  0  0  0  0  0  0  0  0  0  0
   -4.3743    2.0309   -0.5690 C   0  0  0  0  0  0  0  0  0  0  0  0
   -4.5535   -2.9462    0.6110 C   0  0  0  0  0  0  0  0  0  0  0  0
   -3.3633    2.4948    0.4850 C   0  0  0  0  0  0  0  0  0  0  0  0
    5.1989   -1.1741   -0.4655 C   0  0  0  0  0  0  0  0  0  0  0  0
    4.9625   -0.0240    0.5198 C   0  0  0  0  0  0  0  0  0  0  0  0
   -4.4331   -4.3676    0.0838 C   0  0  0  0  0  0  0  0  0  0  0  0
   -1.9441    2.4553   -0.0051 C   0  0  0  0  0  0  0  0  0  0  0  0
    4.7180   -2.4923    0.1420 C   0  0  0  0  0  0  0  0  0  0  0  0
    6.6739   -1.2874   -0.8575 C   0  0  0  0  0  0  0  0  0  0  0  0
   -0.9811    1.7183    0.5685 C   0  0  0  0  0  0  0  0  0  0  0  0
    2.7239    0.9539    0.1299 C   0  0  0  0  0  0  0  0  0  0  0  0
    0.3828    1.6863    0.0889 C   0  0  0  0  0  0  0  0  0  0  0  0
    1.3365    0.9457    0.6706 C   0  0  0  0  0  0  0  0  0  0  0  0
   -5.4482   -0.3124    0.5015 H   0  0  0  0  0  0  0  0  0  0  0  0
   -3.7257   -0.2971    0.8876 H   0  0  0  0  0  0  0  0  0  0  0  0
   -3.2271    0.4322   -1.4810 H   0  0  0  0  0  0  0  0  0  0  0  0
   -4.9457    0.3997   -1.8385 H   0  0  0  0  0  0  0  0  0  0  0  0
   -4.9997   -2.0273   -1.2837 H   0  0  0  0  0  0  0  0  0  0  0  0
   -3.2899   -2.0093   -0.8616 H   0  0  0  0  0  0  0  0  0  0  0  0
   -5.3858    2.1687   -0.1668 H   0  0  0  0  0  0  0  0  0  0  0  0
   -4.3015    2.6853   -1.4473 H   0  0  0  0  0  0  0  0  0  0  0  0
   -5.5574   -2.8096    1.0304 H   0  0  0  0  0  0  0  0  0  0  0  0
   -3.8438   -2.8128    1.4362 H   0  0  0  0  0  0  0  0  0  0  0  0
   -3.5955    3.5329    0.7538 H   0  0  0  0  0  0  0  0  0  0  0  0
   -3.4819    1.9118    1.4053 H   0  0  0  0  0  0  0  0  0  0  0  0
    4.6175   -0.9888   -1.3777 H   0  0  0  0  0  0  0  0  0  0  0  0
    5.3317    0.9164    0.0948 H   0  0  0  0  0  0  0  0  0  0  0  0
    5.5028   -0.1985    1.4572 H   0  0  0  0  0  0  0  0  0  0  0  0
   -5.1563   -4.5491   -0.7175 H   0  0  0  0  0  0  0  0  0  0  0  0
   -4.6236   -5.0881    0.8852 H   0  0  0  0  0  0  0  0  0  0  0  0
   -3.4292   -4.5533   -0.3110 H   0  0  0  0  0  0  0  0  0  0  0  0
   -1.7125    3.0735   -0.8697 H   0  0  0  0  0  0  0  0  0  0  0  0
    5.2310   -2.7076    1.0858 H   0  0  0  0  0  0  0  0  0  0  0  0
    4.9118   -3.3257   -0.5422 H   0  0  0  0  0  0  0  0  0  0  0  0
    3.6405   -2.4776    0.3353 H   0  0  0  0  0  0  0  0  0  0  0  0
    7.3024   -1.4888    0.0166 H   0  0  0  0  0  0  0  0  0  0  0  0
    7.0229   -0.3576   -1.3188 H   0  0  0  0  0  0  0  0  0  0  0  0
    6.8248   -2.0972   -1.5790 H   0  0  0  0  0  0  0  0  0  0  0  0
    3.2121   -0.3868    1.6563 H   0  0  0  0  0  0  0  0  0  0  0  0
   -1.2203    1.1057    1.4341 H   0  0  0  0  0  0  0  0  0  0  0  0
    0.6109    2.2985   -0.7798 H   0  0  0  0  0  0  0  0  0  0  0  0
    1.1235    0.3293    1.5385 H   0  0  0  0  0  0  0  0  0  0  0  0
  1 16  2  0  0  0  0
  2 10  1  0  0  0  0
  2 16  1  0  0  0  0
  2 44  1  0  0  0  0
  3  4  1  0  0  0  0
  3  5  1  0  0  0  0
  3 19  1  0  0  0  0
  3 20  1  0  0  0  0
  4  6  1  0  0  0  0
  4 21  1  0  0  0  0
  4 22  1  0  0  0  0
  5  7  1  0  0  0  0
  5 23  1  0  0  0  0
  5 24  1  0  0  0  0
  6  8  1  0  0  0  0
  6 25  1  0  0  0  0
  6 26  1  0  0  0  0
  7 11  1  0  0  0  0
  7 27  1  0  0  0  0
  7 28  1  0  0  0  0
  8 12  1  0  0  0  0
  8 29  1  0  0  0  0
  8 30  1  0  0  0  0
  9 10  1  0  0  0  0
  9 13  1  0  0  0  0
  9 14  1  0  0  0  0
  9 31  1  0  0  0  0
 10 32  1  0  0  0  0
 10 33  1  0  0  0  0
 11 34  1  0  0  0  0
 11 35  1  0  0  0  0
 11 36  1  0  0  0  0
 12 15  2  0  0  0  0
 12 37  1  0  0  0  0
 13 38  1  0  0  0  0
 13 39  1  0  0  0  0
 13 40  1  0  0  0  0
 14 41  1  0  0  0  0
 14 42  1  0  0  0  0
 14 43  1  0  0  0  0
 15 17  1  0  0  0  0
 15 45  1  0  0  0  0
 16 18  1  0  0  0  0
 17 18  2  0  0  0  0
 17 46  1  0  0  0  0
 18 47  1  0  0  0  0
M  END
> <PUBCHEM_COMPOUND_CID>
6443006

> <PUBCHEM_CONFORMER_RMSD>
1.2

> <PUBCHEM_CONFORMER_DIVERSEORDER>
1
3
8
21
30
14
39
17
23
31
2
27
43
38
22
33
44
5
6
7
34
24
10
42
9
29
16
19
36
35
32
37
41
20
28
15
25
13
12
18
26
4
40
11

> <PUBCHEM_MMFF94_PARTIAL_CHARGES>
14
1 -0.57
10 0.3
12 -0.29
15 -0.15
16 0.62
17 -0.15
18 -0.14
2 -0.73
37 0.15
44 0.37
45 0.15
46 0.15
47 0.15
8 0.14

> <PUBCHEM_EFFECTIVE_ROTOR_COUNT>
11

> <PUBCHEM_PHARMACOPHORE_FEATURES>
4
1 1 acceptor
1 11 hydrophobe
1 2 donor
3 9 13 14 hydrophobe

> <PUBCHEM_HEAVY_ATOM_COUNT>
18

> <PUBCHEM_ATOM_DEF_STEREO_COUNT>
0

> <PUBCHEM_ATOM_UDEF_STEREO_COUNT>
0

> <PUBCHEM_BOND_DEF_STEREO_COUNT>
2

> <PUBCHEM_BOND_UDEF_STEREO_COUNT>
0

> <PUBCHEM_ISOTOPIC_ATOM_COUNT>
0

> <PUBCHEM_COMPONENT_COUNT>
1

> <PUBCHEM_CACTVS_TAUTO_COUNT>
2

> <PUBCHEM_CONFORMER_ID>
00624FFE00000001

> <PUBCHEM_MMFF94_ENERGY>
7.1946

> <PUBCHEM_FEATURE_SELFOVERLAP>
20.297

> <PUBCHEM_SHAPE_FINGERPRINT>
11186622 123 18333722507595595154
11197282 1 18266459991494105515
11315621 136 18334016133461326046
11315621 246 18334014952081699332
11796584 16 18338510850906580400
12633257 1 15841270471067642309
12760667 363 18342172306927616287
12969540 114 14851610985572099656
13167372 99 9295278436092652942
13911852 28 17979353385583605215
14251740 79 18334014995268768747
14251751 18 18413111658357753406
14461889 52 18272355491864674592
14866123 147 18412548748019231211
1768 210 9510921210663544443
20281389 69 8718822102757098300
20621476 21 18272095993566152262
20621476 30 18410292493005719690
21054139 6 18040994051534640794
21196832 93 18339088185206876326
220451 1 18265621983402986160
221490 88 18341045323740118489
23379529 103 18265614475784146595
23428019 142 17458062694260102243
23466295 7 18336831996068002673
23559900 14 18341320145770562625
25122255 55 18272939288814078566
316301 35 18412256229874390138
4073 2 18413105044208539448
5365585 94 18188775084281533347
56633871 153 18053386784768491483
57583515 52 18412261697389058013
6431902 208 18341044211375139943
6437827 68 18340486673038183518
7062679 13 18339642364457095363
7970288 3 18123467439360937295
8863177 126 18343581867411570074

> <PUBCHEM_SHAPE_MULTIPOLES>
359.58
16.38
4.44
0.91
15.66
4.52
0.06
12.31
2.6
-7.64
-0.35
0.1
-0.05
0.94

> <PUBCHEM_SHAPE_SELFOVERLAP>
669.138

> <PUBCHEM_SHAPE_VOLUME>
225.2

> <PUBCHEM_COORDINATE_TYPE>
2
5
10

$$$$
