50994067
  -OEChem-09182008533D

 40 41  0     0  0  0  0  0  0999 V2000
   -2.6703    2.6356   -0.1694 O   0  0  0  0  0  0  0  0  0  0  0  0
   -3.8368   -2.0074   -0.0241 O   0  0  0  0  0  0  0  0  0  0  0  0
   -4.5870    0.6558    0.1088 O   0  0  0  0  0  0  0  0  0  0  0  0
    3.4314   -2.4366    0.1442 O   0  0  0  0  0  0  0  0  0  0  0  0
    3.9648   -0.2346    0.1973 N   0  0  0  0  0  0  0  0  0  0  0  0
    0.8383   -0.7332   -0.7282 C   0  0  0  0  0  0  0  0  0  0  0  0
   -0.6078   -0.3632   -0.5049 C   0  0  0  0  0  0  0  0  0  0  0  0
    1.6247   -0.8897    0.5692 C   0  0  0  0  0  0  0  0  0  0  0  0
   -1.5701   -1.3632   -0.3645 C   0  0  0  0  0  0  0  0  0  0  0  0
   -0.9821    0.9789   -0.4388 C   0  0  0  0  0  0  0  0  0  0  0  0
    3.0425   -1.2861    0.2904 C   0  0  0  0  0  0  0  0  0  0  0  0
   -2.3185    1.3210   -0.2322 C   0  0  0  0  0  0  0  0  0  0  0  0
   -2.9065   -1.0211   -0.1579 C   0  0  0  0  0  0  0  0  0  0  0  0
   -3.2806    0.3211   -0.0919 C   0  0  0  0  0  0  0  0  0  0  0  0
    3.7253    1.1200    0.3309 C   0  0  0  0  0  0  0  0  0  0  0  0
    5.3165   -0.3927   -0.0536 C   0  0  0  0  0  0  0  0  0  0  0  0
    4.9107    1.8026    0.1672 C   0  0  0  0  0  0  0  0  0  0  0  0
    5.9173    0.8456   -0.0759 C   0  0  0  0  0  0  0  0  0  0  0  0
   -1.6253    3.5941   -0.3227 C   0  0  0  0  0  0  0  0  0  0  0  0
   -3.3705   -3.3529   -0.1040 C   0  0  0  0  0  0  0  0  0  0  0  0
   -5.0159    0.8060    1.4602 C   0  0  0  0  0  0  0  0  0  0  0  0
    0.8908   -1.6615   -1.3131 H   0  0  0  0  0  0  0  0  0  0  0  0
    1.3098    0.0258   -1.3663 H   0  0  0  0  0  0  0  0  0  0  0  0
    1.1857   -1.7079    1.1572 H   0  0  0  0  0  0  0  0  0  0  0  0
    1.5442   -0.0187    1.2246 H   0  0  0  0  0  0  0  0  0  0  0  0
   -1.2188   -2.3879   -0.4225 H   0  0  0  0  0  0  0  0  0  0  0  0
   -0.1894    1.7109   -0.5519 H   0  0  0  0  0  0  0  0  0  0  0  0
    2.7377    1.5174    0.5150 H   0  0  0  0  0  0  0  0  0  0  0  0
    5.7426   -1.3771   -0.1963 H   0  0  0  0  0  0  0  0  0  0  0  0
    6.9675    1.0322   -0.2507 H   0  0  0  0  0  0  0  0  0  0  0  0
    5.0287    2.8760    0.2143 H   0  0  0  0  0  0  0  0  0  0  0  0
   -2.0843    4.5854   -0.2462 H   0  0  0  0  0  0  0  0  0  0  0  0
   -1.1641    3.5340   -1.3145 H   0  0  0  0  0  0  0  0  0  0  0  0
   -0.8895    3.5223    0.4856 H   0  0  0  0  0  0  0  0  0  0  0  0
   -4.2421   -4.0035    0.0237 H   0  0  0  0  0  0  0  0  0  0  0  0
   -2.6769   -3.5890    0.7102 H   0  0  0  0  0  0  0  0  0  0  0  0
   -2.9497   -3.5768   -1.0902 H   0  0  0  0  0  0  0  0  0  0  0  0
   -4.8941   -0.1327    2.0099 H   0  0  0  0  0  0  0  0  0  0  0  0
   -4.4566    1.6060    1.9555 H   0  0  0  0  0  0  0  0  0  0  0  0
   -6.0763    1.0726    1.4554 H   0  0  0  0  0  0  0  0  0  0  0  0
  1 12  1  0  0  0  0
  1 19  1  0  0  0  0
  2 13  1  0  0  0  0
  2 20  1  0  0  0  0
  3 14  1  0  0  0  0
  3 21  1  0  0  0  0
  4 11  2  0  0  0  0
  5 11  1  0  0  0  0
  5 15  1  0  0  0  0
  5 16  1  0  0  0  0
  6  7  1  0  0  0  0
  6  8  1  0  0  0  0
  6 22  1  0  0  0  0
  6 23  1  0  0  0  0
  7  9  2  0  0  0  0
  7 10  1  0  0  0  0
  8 11  1  0  0  0  0
  8 24  1  0  0  0  0
  8 25  1  0  0  0  0
  9 13  1  0  0  0  0
  9 26  1  0  0  0  0
 10 12  2  0  0  0  0
 10 27  1  0  0  0  0
 12 14  1  0  0  0  0
 13 14  2  0  0  0  0
 15 17  2  0  0  0  0
 15 28  1  0  0  0  0
 16 18  2  0  0  0  0
 16 29  1  0  0  0  0
 17 18  1  0  0  0  0
 17 31  1  0  0  0  0
 18 30  1  0  0  0  0
 19 32  1  0  0  0  0
 19 33  1  0  0  0  0
 19 34  1  0  0  0  0
 20 35  1  0  0  0  0
 20 36  1  0  0  0  0
 20 37  1  0  0  0  0
 21 38  1  0  0  0  0
 21 39  1  0  0  0  0
 21 40  1  0  0  0  0
M  END
> <PUBCHEM_COMPOUND_CID>
50994067

> <PUBCHEM_CONFORMER_RMSD>
0.8

> <PUBCHEM_CONFORMER_DIVERSEORDER>
3
17
45
33
46
31
8
25
47
11
34
9
18
19
10
50
1
12
14
15
43
30
32
35
16
38
6
20
26
29
51
7
42
44
13
41
4
2
36
23
27
48
5
28
21
49
24
22
40
39
37

> <PUBCHEM_MMFF94_PARTIAL_CHARGES>
27
1 -0.36
10 -0.15
11 0.52
12 0.08
13 0.08
14 0.08
15 -0.3
16 -0.3
17 -0.15
18 -0.15
19 0.28
2 -0.36
20 0.28
21 0.28
26 0.15
27 0.15
28 0.15
29 0.15
3 -0.36
30 0.15
31 0.15
4 -0.57
5 0.29
6 0.14
7 -0.14
8 0.06
9 -0.15

> <PUBCHEM_EFFECTIVE_ROTOR_COUNT>
7

> <PUBCHEM_PHARMACOPHORE_FEATURES>
6
1 1 acceptor
1 2 acceptor
1 3 acceptor
1 4 acceptor
5 5 15 16 17 18 rings
6 7 9 10 12 13 14 rings

> <PUBCHEM_HEAVY_ATOM_COUNT>
21

> <PUBCHEM_ATOM_DEF_STEREO_COUNT>
0

> <PUBCHEM_ATOM_UDEF_STEREO_COUNT>
0

> <PUBCHEM_BOND_DEF_STEREO_COUNT>
0

> <PUBCHEM_BOND_UDEF_STEREO_COUNT>
0

> <PUBCHEM_ISOTOPIC_ATOM_COUNT>
0

> <PUBCHEM_COMPONENT_COUNT>
1

> <PUBCHEM_CACTVS_TAUTO_COUNT>
1

> <PUBCHEM_CONFORMER_ID>
030A1B9300000003

> <PUBCHEM_MMFF94_ENERGY>
76.9068

> <PUBCHEM_FEATURE_SELFOVERLAP>
30.457

> <PUBCHEM_SHAPE_FINGERPRINT>
10366900 7 17988911267673495467
10670039 82 18261683649238740620
10906281 52 18272095963991816317
11405975 8 18337104550055352258
11552529 35 17988357191154760227
11595378 159 17676757687439127416
12107183 9 17687175397098447626
12173636 292 18338509746862602214
13140716 1 18338806710224397011
13897977 58 18411419513999051981
14289901 80 18335416851045551842
14341114 176 18409735023836548564
14341114 328 18408039619787612938
14787075 74 18042402611391291458
15183329 4 10735890451719297744
15196674 1 18411134779664396540
17349148 13 17167865296285414054
17844677 252 18339085865713201830
19784866 170 18342744009296652975
20286276 3 18338802191629502246
20510252 161 18198060275236251473
20645477 56 18337674122515488895
21065198 57 18265893562706455470
21637258 2 15358275887243973617
21652331 79 18410291393726304372
23557571 272 18272096031925244390
23559900 14 18198336252723771686
245318 6 17026296706479812924
3545911 37 18410575067973800756
4214541 1 18410571743632216324
474 4 17821733849349401268
5104073 3 18411695508993476898
7097593 13 17610322858474353914
77779 3 18411134719492838310
9709674 26 18270117890316869742

> <PUBCHEM_SHAPE_MULTIPOLES>
403.71
12.44
3.21
0.8
11.54
0.56
0.13
1.12
2.18
-2.84
-0.24
-0.48
0.09
-0.27

> <PUBCHEM_SHAPE_SELFOVERLAP>
850.398

> <PUBCHEM_SHAPE_VOLUME>
229.1

> <PUBCHEM_COORDINATE_TYPE>
2
5
10

$$$$
