50994143
  -OEChem-09182013533D

 43 43  0     0  0  0  0  0  0999 V2000
    3.6102   -1.5447    1.2985 O   0  0  0  0  0  0  0  0  0  0  0  0
    4.5082    0.2026    0.0767 N   0  0  0  0  0  0  0  0  0  0  0  0
    6.6886    1.0733   -0.1081 C   0  0  0  0  0  0  0  0  0  0  0  0
    5.7136    2.0731   -0.7148 C   0  0  0  0  0  0  0  0  0  0  0  0
    4.4687    1.2318   -0.9610 C   0  0  0  0  0  0  0  0  0  0  0  0
    5.7892    0.2177    0.7698 C   0  0  0  0  0  0  0  0  0  0  0  0
    3.5149   -0.6966    0.4120 C   0  0  0  0  0  0  0  0  0  0  0  0
   -5.6472    0.9154   -0.0111 C   0  0  0  0  0  0  0  0  0  0  0  0
   -6.1101   -0.5447   -0.0827 C   0  0  0  0  0  0  0  0  0  0  0  0
    2.2623   -0.6179   -0.3652 C   0  0  0  0  0  0  0  0  0  0  0  0
   -6.7051    1.8613    0.5583 C   0  0  0  0  0  0  0  0  0  0  0  0
   -5.1239   -1.5268   -0.7238 C   0  0  0  0  0  0  0  0  0  0  0  0
   -6.2325    3.3068    0.5234 C   0  0  0  0  0  0  0  0  0  0  0  0
   -3.7859   -1.5589   -0.0399 C   0  0  0  0  0  0  0  0  0  0  0  0
    1.1153   -0.9674    0.2290 C   0  0  0  0  0  0  0  0  0  0  0  0
   -2.5884   -1.2297   -0.5489 C   0  0  0  0  0  0  0  0  0  0  0  0
   -0.1615   -0.9232   -0.4502 C   0  0  0  0  0  0  0  0  0  0  0  0
   -1.3164   -1.2720    0.1381 C   0  0  0  0  0  0  0  0  0  0  0  0
    6.0921    2.5423   -1.6269 H   0  0  0  0  0  0  0  0  0  0  0  0
    5.4938    2.8637    0.0128 H   0  0  0  0  0  0  0  0  0  0  0  0
    7.4970    1.5494    0.4533 H   0  0  0  0  0  0  0  0  0  0  0  0
    7.1333    0.4609   -0.9018 H   0  0  0  0  0  0  0  0  0  0  0  0
    6.1692   -0.7982    0.9129 H   0  0  0  0  0  0  0  0  0  0  0  0
    5.6304    0.6775    1.7516 H   0  0  0  0  0  0  0  0  0  0  0  0
    3.5461    1.8160   -0.8983 H   0  0  0  0  0  0  0  0  0  0  0  0
    4.5124    0.7293   -1.9334 H   0  0  0  0  0  0  0  0  0  0  0  0
   -4.7420    0.9874    0.6035 H   0  0  0  0  0  0  0  0  0  0  0  0
   -5.3726    1.2465   -1.0205 H   0  0  0  0  0  0  0  0  0  0  0  0
   -7.0501   -0.5918   -0.6470 H   0  0  0  0  0  0  0  0  0  0  0  0
   -6.3449   -0.8879    0.9334 H   0  0  0  0  0  0  0  0  0  0  0  0
   -6.9385    1.5779    1.5909 H   0  0  0  0  0  0  0  0  0  0  0  0
   -7.6319    1.7738   -0.0204 H   0  0  0  0  0  0  0  0  0  0  0  0
    2.2935   -0.2712   -1.3916 H   0  0  0  0  0  0  0  0  0  0  0  0
   -4.9968   -1.2654   -1.7815 H   0  0  0  0  0  0  0  0  0  0  0  0
   -5.5532   -2.5352   -0.6989 H   0  0  0  0  0  0  0  0  0  0  0  0
   -5.3203    3.4354    1.1147 H   0  0  0  0  0  0  0  0  0  0  0  0
   -7.0016    3.9666    0.9371 H   0  0  0  0  0  0  0  0  0  0  0  0
   -6.0258    3.6278   -0.5025 H   0  0  0  0  0  0  0  0  0  0  0  0
   -3.8195   -1.8998    0.9947 H   0  0  0  0  0  0  0  0  0  0  0  0
    1.1038   -1.2998    1.2642 H   0  0  0  0  0  0  0  0  0  0  0  0
   -2.5590   -0.8917   -1.5837 H   0  0  0  0  0  0  0  0  0  0  0  0
   -0.1576   -0.5902   -1.4859 H   0  0  0  0  0  0  0  0  0  0  0  0
   -1.3277   -1.6061    1.1728 H   0  0  0  0  0  0  0  0  0  0  0  0
  1  7  2  0  0  0  0
  2  5  1  0  0  0  0
  2  6  1  0  0  0  0
  2  7  1  0  0  0  0
  3  4  1  0  0  0  0
  3  6  1  0  0  0  0
  3 21  1  0  0  0  0
  3 22  1  0  0  0  0
  4  5  1  0  0  0  0
  4 19  1  0  0  0  0
  4 20  1  0  0  0  0
  5 25  1  0  0  0  0
  5 26  1  0  0  0  0
  6 23  1  0  0  0  0
  6 24  1  0  0  0  0
  7 10  1  0  0  0  0
  8  9  1  0  0  0  0
  8 11  1  0  0  0  0
  8 27  1  0  0  0  0
  8 28  1  0  0  0  0
  9 12  1  0  0  0  0
  9 29  1  0  0  0  0
  9 30  1  0  0  0  0
 10 15  2  0  0  0  0
 10 33  1  0  0  0  0
 11 13  1  0  0  0  0
 11 31  1  0  0  0  0
 11 32  1  0  0  0  0
 12 14  1  0  0  0  0
 12 34  1  0  0  0  0
 12 35  1  0  0  0  0
 13 36  1  0  0  0  0
 13 37  1  0  0  0  0
 13 38  1  0  0  0  0
 14 16  2  0  0  0  0
 14 39  1  0  0  0  0
 15 17  1  0  0  0  0
 15 40  1  0  0  0  0
 16 18  1  0  0  0  0
 16 41  1  0  0  0  0
 17 18  2  0  0  0  0
 17 42  1  0  0  0  0
 18 43  1  0  0  0  0
M  END
> <PUBCHEM_COMPOUND_CID>
50994143

> <PUBCHEM_CONFORMER_RMSD>
0.8

> <PUBCHEM_CONFORMER_DIVERSEORDER>
1
109
69
118
51
37
16
32
61
9
82
3
108
56
48
86
85
8
54
2
58
66
5
68
10
96
7
120
87
4
75
27
88
64
14
34
104
13
63
12
83
36
74
44
22
111
100
91
105
77
62
21
113
101
29
106
92
119
6
95
30
107
112
42
35
47
67
25
49
41
98
28
76
81
46
18
110
52
102
90
116
99
24
72
103
70
79
15
73
31
38
20
97
33
65
19
17
11
114
45
53
23
59
89
43
60
84
55
40
50
71
115
26
117
93
94
39
57
80
78

> <PUBCHEM_MMFF94_PARTIAL_CHARGES>
18
1 -0.57
10 -0.14
12 0.14
14 -0.29
15 -0.15
16 -0.15
17 -0.15
18 -0.15
2 -0.66
33 0.15
39 0.15
40 0.15
41 0.15
42 0.15
43 0.15
5 0.3
6 0.3
7 0.62

> <PUBCHEM_EFFECTIVE_ROTOR_COUNT>
9

> <PUBCHEM_PHARMACOPHORE_FEATURES>
4
1 1 acceptor
1 13 hydrophobe
5 2 3 4 5 6 rings
5 8 9 11 12 14 hydrophobe

> <PUBCHEM_HEAVY_ATOM_COUNT>
18

> <PUBCHEM_ATOM_DEF_STEREO_COUNT>
0

> <PUBCHEM_ATOM_UDEF_STEREO_COUNT>
0

> <PUBCHEM_BOND_DEF_STEREO_COUNT>
3

> <PUBCHEM_BOND_UDEF_STEREO_COUNT>
0

> <PUBCHEM_ISOTOPIC_ATOM_COUNT>
0

> <PUBCHEM_COMPONENT_COUNT>
1

> <PUBCHEM_CACTVS_TAUTO_COUNT>
1

> <PUBCHEM_CONFORMER_ID>
030A1BDF00000001

> <PUBCHEM_MMFF94_ENERGY>
19.588

> <PUBCHEM_FEATURE_SELFOVERLAP>
20.297

> <PUBCHEM_SHAPE_FINGERPRINT>
10087517 78 18409727357710594933
10730089 47 9079114457844447239
10883706 163 18261110730360770101
10906281 52 18041011660462899110
10912923 1 18261099799267704435
11646440 116 15574712504123197812
117890 112 18411136943795332703
12236239 1 18410007771376825998
125118 31 18339922723154116728
12596602 18 17967814938414320843
13073987 5 18334014991227521883
13167372 99 18408885131323371460
13533116 47 16660626450725120514
13668630 136 8430326748724329280
13785724 45 17904192629918526618
13862211 1 9439406830507401551
14211702 104 7925635535424037705
14251764 18 18335138722312536279
14598715 104 17845919814603861912
14729087 3 18201997741811627864
15048467 5 18408602595189253350
15183329 4 18260822726500174669
15348495 7 15285646550536839957
155225 5 18128540354241790865
20281389 69 18413388726930068491
20526848 3 18410858750516410569
20621476 66 18340771455867432945
22122407 14 18262810682025204369
23081809 10 18412252952530013031
328310 630 18187085091822435541
3663271 9 18040714771064906275
397830 11 12613047144132374647
445580 37 18201446882381366941
465052 167 10737276949199458994
5104073 3 15937513888947609412
5470011 282 12535042232504252393
59567204 34 18343865511463362049
59682541 52 16271656585347266526
6327066 14 18268425734465742581
6328613 192 18409729565044183929
636775 72 18341047531511765680
7062679 6 18412827971810430317

> <PUBCHEM_SHAPE_MULTIPOLES>
359.58
22.13
2.6
0.91
5.37
2.19
-0.03
15.11
-0.92
4.37
-0.15
-0.59
-0.01
-2.41

> <PUBCHEM_SHAPE_SELFOVERLAP>
698.012

> <PUBCHEM_SHAPE_VOLUME>
218.5

> <PUBCHEM_COORDINATE_TYPE>
2
5
10

$$$$
