595385
  -OEChem-09182012253D

 39 40  0     1  0  0  0  0  0999 V2000
   -0.8256    1.0677   -0.2117 C   0  0  1  0  0  0  0  0  0  0  0  0
    0.0167    2.3115    0.1718 C   0  0  1  0  0  0  0  0  0  0  0  0
   -0.0557   -0.2509   -0.0755 C   0  0  0  0  0  0  0  0  0  0  0  0
    1.3998    2.2076   -0.4737 C   0  0  0  0  0  0  0  0  0  0  0  0
   -2.1229    1.0035    0.6164 C   0  0  0  0  0  0  0  0  0  0  0  0
    1.2918   -0.2888    0.0523 C   0  0  0  0  0  0  0  0  0  0  0  0
    2.1345    0.9674    0.0199 C   0  0  0  0  0  0  0  0  0  0  0  0
   -3.0059   -0.1697    0.1880 C   0  0  0  0  0  0  0  0  0  0  0  0
    2.1190   -1.5347    0.2567 C   0  0  0  0  0  0  0  0  0  0  0  0
   -0.6485    3.6237   -0.2546 C   0  0  0  0  0  0  0  0  0  0  0  0
   -0.8870   -1.4508   -0.1245 C   0  0  0  0  0  0  0  0  0  0  0  0
   -2.2284   -1.4388   -0.0305 C   0  0  0  0  0  0  0  0  0  0  0  0
    2.5020   -2.1292   -1.0908 C   0  0  0  0  0  0  0  0  0  0  0  0
    3.3515   -1.2223    1.0942 C   0  0  0  0  0  0  0  0  0  0  0  0
   -3.0414   -2.6961   -0.1379 C   0  0  0  0  0  0  0  0  0  0  0  0
   -1.1050    1.1625   -1.2723 H   0  0  0  0  0  0  0  0  0  0  0  0
    0.1449    2.3403    1.2629 H   0  0  0  0  0  0  0  0  0  0  0  0
    2.0011    3.0962   -0.2462 H   0  0  0  0  0  0  0  0  0  0  0  0
    1.2997    2.1664   -1.5666 H   0  0  0  0  0  0  0  0  0  0  0  0
   -2.7075    1.9235    0.5141 H   0  0  0  0  0  0  0  0  0  0  0  0
   -1.8772    0.9035    1.6825 H   0  0  0  0  0  0  0  0  0  0  0  0
    2.5042    1.1900    1.0280 H   0  0  0  0  0  0  0  0  0  0  0  0
    3.0000    0.8351   -0.6401 H   0  0  0  0  0  0  0  0  0  0  0  0
   -3.5274    0.0852   -0.7429 H   0  0  0  0  0  0  0  0  0  0  0  0
   -3.7728   -0.3257    0.9560 H   0  0  0  0  0  0  0  0  0  0  0  0
    1.5421   -2.2799    0.8173 H   0  0  0  0  0  0  0  0  0  0  0  0
    0.0045    4.4764   -0.0384 H   0  0  0  0  0  0  0  0  0  0  0  0
   -0.8644    3.6294   -1.3283 H   0  0  0  0  0  0  0  0  0  0  0  0
   -1.5853    3.7939    0.2831 H   0  0  0  0  0  0  0  0  0  0  0  0
   -0.3900   -2.4071   -0.2559 H   0  0  0  0  0  0  0  0  0  0  0  0
    3.1163   -1.4397   -1.6810 H   0  0  0  0  0  0  0  0  0  0  0  0
    1.6204   -2.3832   -1.6889 H   0  0  0  0  0  0  0  0  0  0  0  0
    3.0803   -3.0495   -0.9530 H   0  0  0  0  0  0  0  0  0  0  0  0
    3.0935   -0.7352    2.0414 H   0  0  0  0  0  0  0  0  0  0  0  0
    4.1033   -0.6229    0.5705 H   0  0  0  0  0  0  0  0  0  0  0  0
    3.8538   -2.1612    1.3598 H   0  0  0  0  0  0  0  0  0  0  0  0
   -3.6049   -2.8642    0.7855 H   0  0  0  0  0  0  0  0  0  0  0  0
   -2.4178   -3.5790   -0.3132 H   0  0  0  0  0  0  0  0  0  0  0  0
   -3.7499   -2.6188   -0.9691 H   0  0  0  0  0  0  0  0  0  0  0  0
  1  2  1  0  0  0  0
  1  3  1  0  0  0  0
  1  5  1  0  0  0  0
  1 16  1  0  0  0  0
  2  4  1  0  0  0  0
  2 10  1  0  0  0  0
  2 17  1  0  0  0  0
  3  6  2  0  0  0  0
  3 11  1  0  0  0  0
  4  7  1  0  0  0  0
  4 18  1  0  0  0  0
  4 19  1  0  0  0  0
  5  8  1  0  0  0  0
  5 20  1  0  0  0  0
  5 21  1  0  0  0  0
  6  7  1  0  0  0  0
  6  9  1  0  0  0  0
  7 22  1  0  0  0  0
  7 23  1  0  0  0  0
  8 12  1  0  0  0  0
  8 24  1  0  0  0  0
  8 25  1  0  0  0  0
  9 13  1  0  0  0  0
  9 14  1  0  0  0  0
  9 26  1  0  0  0  0
 10 27  1  0  0  0  0
 10 28  1  0  0  0  0
 10 29  1  0  0  0  0
 11 12  2  0  0  0  0
 11 30  1  0  0  0  0
 12 15  1  0  0  0  0
 13 31  1  0  0  0  0
 13 32  1  0  0  0  0
 13 33  1  0  0  0  0
 14 34  1  0  0  0  0
 14 35  1  0  0  0  0
 14 36  1  0  0  0  0
 15 37  1  0  0  0  0
 15 38  1  0  0  0  0
 15 39  1  0  0  0  0
M  END
> <PUBCHEM_COMPOUND_CID>
595385

> <PUBCHEM_CONFORMER_RMSD>
0.6

> <PUBCHEM_CONFORMER_DIVERSEORDER>
1
9
8
7
4
3
6
5
2

> <PUBCHEM_MMFF94_PARTIAL_CHARGES>
10
1 0.14
11 -0.15
12 -0.28
15 0.14
3 -0.14
30 0.15
6 -0.28
7 0.14
8 0.14
9 0.14

> <PUBCHEM_EFFECTIVE_ROTOR_COUNT>
2

> <PUBCHEM_PHARMACOPHORE_FEATURES>
3
3 9 13 14 hydrophobe
6 1 2 3 4 6 7 rings
6 1 3 5 8 11 12 rings

> <PUBCHEM_HEAVY_ATOM_COUNT>
15

> <PUBCHEM_ATOM_DEF_STEREO_COUNT>
0

> <PUBCHEM_ATOM_UDEF_STEREO_COUNT>
2

> <PUBCHEM_BOND_DEF_STEREO_COUNT>
0

> <PUBCHEM_BOND_UDEF_STEREO_COUNT>
0

> <PUBCHEM_ISOTOPIC_ATOM_COUNT>
0

> <PUBCHEM_COMPONENT_COUNT>
1

> <PUBCHEM_CACTVS_TAUTO_COUNT>
1

> <PUBCHEM_CONFORMER_ID>
000915B900000001

> <PUBCHEM_MMFF94_ENERGY>
23.521

> <PUBCHEM_FEATURE_SELFOVERLAP>
15.243

> <PUBCHEM_SHAPE_FINGERPRINT>
1 1 17615965946936294989
10967382 1 17906172106828440295
11578080 2 17386548211905829748
116883 192 18341047402630253815
12202030 40 16516258455993705267
12382932 28 18341324535437304114
12553582 1 18409737231086209527
13140716 1 18410013225837248451
14178342 30 18197494232648063977
14790565 3 17763769605940810940
14817 1 10820220798582960144
15001771 113 18411427219080612729
15442244 35 18411421730655857435
16752209 62 17975414607554638615
16945 1 18193840344759790382
17990270 104 18339365282841700799
193761 8 18410012104914483596
19591789 44 16752974757979143482
20388701 513 18267292145675571642
20510252 161 17911231720142888880
20559304 39 18195529418074443811
20645476 183 17395600302116562926
20645477 70 17978787145310805871
20871998 184 18199178486808580510
20871998 22 18412830174670145974
21501502 16 18338237184211984187
21524375 3 17472701806767564324
21650355 55 18264752320854535610
2255824 54 17834118923943679389
22802520 49 17409086898863404998
23184049 29 18409728447867260378
2334 1 18338237175448021715
23388829 49 18054776545098795254
23402539 116 18198887129497061853
23419403 2 17763975429072744000
23463225 33 18337670918253601602
23552423 10 18050290563754197085
23557571 272 18055920892686928398
23598294 1 17830171307896047578
257057 1 18337658789250113995
2748010 2 18411980269229401399
3060560 45 17689715680763722084
33824 294 17545037564647644043
43471831 8 17905041808959762128
54173680 148 18265610983622287466
5902787 121 18333724745268066970
598444 67 17623018888805941566
6992083 37 18341908354842499659
7364860 26 18196937896632606366
7832392 63 18340777030450114017
81228 2 18266740173283908595

> <PUBCHEM_SHAPE_MULTIPOLES>
308.69
4.6
3.71
0.83
0
2.2
-0.01
-3.58
-0.57
0.66
0.56
-0.43
-0.2
-0.18

> <PUBCHEM_SHAPE_SELFOVERLAP>
630.807

> <PUBCHEM_SHAPE_VOLUME>
177.7

> <PUBCHEM_COORDINATE_TYPE>
2
5
10

$$$$
