129847841
  -OEChem-09182011163D

 28 29  0     1  0  0  0  0  0999 V2000
    1.0721    2.3950   -0.4783 O   0  0  0  0  0  0  0  0  0  0  0  0
    0.3717   -0.3174   -0.3132 C   0  0  1  0  0  0  0  0  0  0  0  0
   -0.9624   -0.9191   -0.7401 C   0  0  2  0  0  0  0  0  0  0  0  0
   -0.1677   -0.1010   -1.7151 C   0  0  0  0  0  0  0  0  0  0  0  0
    0.0574    0.6549    0.8245 C   0  0  2  0  0  0  0  0  0  0  0  0
    1.5686   -1.1990   -0.1324 C   0  0  0  0  0  0  0  0  0  0  0  0
   -1.9713   -0.2650    0.1172 C   0  0  0  0  0  0  0  0  0  0  0  0
   -1.4422    0.6110    0.9913 C   0  0  0  0  0  0  0  0  0  0  0  0
    1.5395   -1.9276    1.1974 C   0  0  0  0  0  0  0  0  0  0  0  0
    2.8802   -0.4037   -0.2585 C   0  0  0  0  0  0  0  0  0  0  0  0
    0.4694    2.0614    0.5364 C   0  0  0  0  0  0  0  0  0  0  0  0
   -3.4153   -0.5896   -0.0292 C   0  0  0  0  0  0  0  0  0  0  0  0
   -1.0345   -1.9899   -0.8742 H   0  0  0  0  0  0  0  0  0  0  0  0
    0.3065   -0.6257   -2.5374 H   0  0  0  0  0  0  0  0  0  0  0  0
   -0.5444    0.8753   -1.9971 H   0  0  0  0  0  0  0  0  0  0  0  0
    0.5186    0.3743    1.7739 H   0  0  0  0  0  0  0  0  0  0  0  0
    1.5728   -1.9601   -0.9243 H   0  0  0  0  0  0  0  0  0  0  0  0
   -1.9996    1.1909    1.7126 H   0  0  0  0  0  0  0  0  0  0  0  0
    2.9245    0.1182   -1.2203 H   0  0  0  0  0  0  0  0  0  0  0  0
    0.5659   -2.3952    1.3796 H   0  0  0  0  0  0  0  0  0  0  0  0
    2.2914   -2.7253    1.2046 H   0  0  0  0  0  0  0  0  0  0  0  0
    3.7449   -1.0729   -0.1960 H   0  0  0  0  0  0  0  0  0  0  0  0
    1.7699   -1.2785    2.0477 H   0  0  0  0  0  0  0  0  0  0  0  0
    2.9755    0.3462    0.5338 H   0  0  0  0  0  0  0  0  0  0  0  0
    0.2364    2.8050    1.3186 H   0  0  0  0  0  0  0  0  0  0  0  0
   -3.7561   -0.3608   -1.0439 H   0  0  0  0  0  0  0  0  0  0  0  0
   -4.0318   -0.0162    0.6708 H   0  0  0  0  0  0  0  0  0  0  0  0
   -3.5884   -1.6533    0.1622 H   0  0  0  0  0  0  0  0  0  0  0  0
  1 11  2  0  0  0  0
  2  3  1  0  0  0  0
  2  4  1  0  0  0  0
  2  5  1  0  0  0  0
  2  6  1  0  0  0  0
  3  4  1  0  0  0  0
  3  7  1  0  0  0  0
  3 13  1  0  0  0  0
  4 14  1  0  0  0  0
  4 15  1  0  0  0  0
  5  8  1  0  0  0  0
  5 11  1  0  0  0  0
  5 16  1  0  0  0  0
  6  9  1  0  0  0  0
  6 10  1  0  0  0  0
  6 17  1  0  0  0  0
  7  8  2  0  0  0  0
  7 12  1  0  0  0  0
  8 18  1  0  0  0  0
  9 20  1  0  0  0  0
  9 21  1  0  0  0  0
  9 23  1  0  0  0  0
 10 19  1  0  0  0  0
 10 22  1  0  0  0  0
 10 24  1  0  0  0  0
 11 25  1  0  0  0  0
 12 26  1  0  0  0  0
 12 27  1  0  0  0  0
 12 28  1  0  0  0  0
M  END
> <PUBCHEM_COMPOUND_CID>
129847841

> <PUBCHEM_CONFORMER_RMSD>
0.6

> <PUBCHEM_CONFORMER_DIVERSEORDER>
2
13
6
8
11
7
4
1
14
12
5
3
9
10
15
16

> <PUBCHEM_MMFF94_PARTIAL_CHARGES>
15
1 -0.57
11 0.45
12 0.14
13 0.1
14 0.1
15 0.1
18 0.15
2 -0.19
25 0.06
3 -0.06
4 -0.2
5 0.29
6 0.09
7 -0.18
8 -0.29

> <PUBCHEM_EFFECTIVE_ROTOR_COUNT>
2.4

> <PUBCHEM_PHARMACOPHORE_FEATURES>
3
1 1 acceptor
3 6 9 10 hydrophobe
6 2 3 4 5 7 8 rings

> <PUBCHEM_HEAVY_ATOM_COUNT>
12

> <PUBCHEM_ATOM_DEF_STEREO_COUNT>
0

> <PUBCHEM_ATOM_UDEF_STEREO_COUNT>
3

> <PUBCHEM_BOND_DEF_STEREO_COUNT>
0

> <PUBCHEM_BOND_UDEF_STEREO_COUNT>
0

> <PUBCHEM_ISOTOPIC_ATOM_COUNT>
0

> <PUBCHEM_COMPONENT_COUNT>
1

> <PUBCHEM_CACTVS_TAUTO_COUNT>
3

> <PUBCHEM_CONFORMER_ID>
07BD522100000002

> <PUBCHEM_MMFF94_ENERGY>
29.1326

> <PUBCHEM_FEATURE_SELFOVERLAP>
15.223

> <PUBCHEM_SHAPE_FINGERPRINT>
10219947 1 17632861906176949127
10857977 72 17774714264878805043
12423570 1 17196904385858727744
13024252 1 17469862408183152450
137420 1 17335682694854039898
14128692 85 18060419157231375591
14817 1 17626381221354822292
14993402 34 18131634478012285647
15219459 52 18059578043689517119
16945 1 18271259316429630119
20473742 2 18042401503205515108
20645477 70 18269835484086629727
20653091 64 18341619256177558115
21922407 69 15947178544806154512
23552423 10 18268984474380243351
2748010 2 17556880022190564559
29004967 10 16878241769833816522
369184 2 18044092358762713114
5084963 1 17131839737466225207
528862 383 18268138932457804281
54338 74 18268147556910351249
68250623 7 17769379657625088095

> <PUBCHEM_SHAPE_MULTIPOLES>
241.09
3.42
1.96
1.23
1.25
1.12
0.18
-1.36
-0.2
-0.87
-0.29
-0.07
-0.15
-0.45

> <PUBCHEM_SHAPE_SELFOVERLAP>
501.451

> <PUBCHEM_SHAPE_VOLUME>
140.8

> <PUBCHEM_COORDINATE_TYPE>
2
5
10

$$$$
