15693458
  -OEChem-09172004333D

 36 38  0     0  0  0  0  0  0999 V2000
    1.0021   -2.3013    0.2861 O   0  0  0  0  0  0  0  0  0  0  0  0
    4.8215    0.4120    0.0508 O   0  0  0  0  0  0  0  0  0  0  0  0
   -5.0176    0.0807    0.0275 O   0  0  0  0  0  0  0  0  0  0  0  0
    0.6265    0.1201    0.0562 C   0  0  0  0  0  0  0  0  0  0  0  0
   -0.8126    0.0718    0.0529 C   0  0  0  0  0  0  0  0  0  0  0  0
    1.2774    1.3763   -0.0581 C   0  0  0  0  0  0  0  0  0  0  0  0
   -1.5456    1.2815   -0.0642 C   0  0  0  0  0  0  0  0  0  0  0  0
    1.4605   -1.0207    0.1676 C   0  0  0  0  0  0  0  0  0  0  0  0
    0.5211    2.5456   -0.1716 C   0  0  0  0  0  0  0  0  0  0  0  0
   -0.8690    2.4990   -0.1746 C   0  0  0  0  0  0  0  0  0  0  0  0
   -1.5686   -1.1224    0.1605 C   0  0  0  0  0  0  0  0  0  0  0  0
    2.6804    1.4574   -0.0582 C   0  0  0  0  0  0  0  0  0  0  0  0
   -2.9510    1.2684   -0.0705 C   0  0  0  0  0  0  0  0  0  0  0  0
    2.8548   -0.9260    0.1662 C   0  0  0  0  0  0  0  0  0  0  0  0
    3.4649    0.3137    0.0533 C   0  0  0  0  0  0  0  0  0  0  0  0
   -3.6574    0.0745    0.0373 C   0  0  0  0  0  0  0  0  0  0  0  0
   -2.9661   -1.1214    0.1529 C   0  0  0  0  0  0  0  0  0  0  0  0
    0.7914   -3.0254   -0.9229 C   0  0  0  0  0  0  0  0  0  0  0  0
    5.5617   -0.8025    0.1686 C   0  0  0  0  0  0  0  0  0  0  0  0
   -5.6744   -1.1813    0.1401 C   0  0  0  0  0  0  0  0  0  0  0  0
    1.0073    3.5154   -0.2598 H   0  0  0  0  0  0  0  0  0  0  0  0
   -1.4188    3.4340   -0.2651 H   0  0  0  0  0  0  0  0  0  0  0  0
   -1.1419   -2.0990    0.3194 H   0  0  0  0  0  0  0  0  0  0  0  0
    3.1732    2.4247   -0.1463 H   0  0  0  0  0  0  0  0  0  0  0  0
   -3.5071    2.2005   -0.1611 H   0  0  0  0  0  0  0  0  0  0  0  0
    3.4107   -1.8538    0.2593 H   0  0  0  0  0  0  0  0  0  0  0  0
   -3.4463   -2.0890    0.2544 H   0  0  0  0  0  0  0  0  0  0  0  0
    0.2938   -2.4166   -1.6851 H   0  0  0  0  0  0  0  0  0  0  0  0
    0.1690   -3.8973   -0.7023 H   0  0  0  0  0  0  0  0  0  0  0  0
    1.7519   -3.3786   -1.3116 H   0  0  0  0  0  0  0  0  0  0  0  0
    6.6237   -0.5368    0.1482 H   0  0  0  0  0  0  0  0  0  0  0  0
    5.3822   -1.4675   -0.6831 H   0  0  0  0  0  0  0  0  0  0  0  0
    5.3744   -1.2964    1.1282 H   0  0  0  0  0  0  0  0  0  0  0  0
   -5.4429   -1.8326   -0.7096 H   0  0  0  0  0  0  0  0  0  0  0  0
   -6.7519   -0.9887    0.1113 H   0  0  0  0  0  0  0  0  0  0  0  0
   -5.4606   -1.6613    1.1011 H   0  0  0  0  0  0  0  0  0  0  0  0
  1  8  1  0  0  0  0
  1 18  1  0  0  0  0
  2 15  1  0  0  0  0
  2 19  1  0  0  0  0
  3 16  1  0  0  0  0
  3 20  1  0  0  0  0
  4  5  1  0  0  0  0
  4  6  1  0  0  0  0
  4  8  2  0  0  0  0
  5  7  2  0  0  0  0
  5 11  1  0  0  0  0
  6  9  1  0  0  0  0
  6 12  2  0  0  0  0
  7 10  1  0  0  0  0
  7 13  1  0  0  0  0
  8 14  1  0  0  0  0
  9 10  2  0  0  0  0
  9 21  1  0  0  0  0
 10 22  1  0  0  0  0
 11 17  2  0  0  0  0
 11 23  1  0  0  0  0
 12 15  1  0  0  0  0
 12 24  1  0  0  0  0
 13 16  2  0  0  0  0
 13 25  1  0  0  0  0
 14 15  2  0  0  0  0
 14 26  1  0  0  0  0
 16 17  1  0  0  0  0
 17 27  1  0  0  0  0
 18 28  1  0  0  0  0
 18 29  1  0  0  0  0
 18 30  1  0  0  0  0
 19 31  1  0  0  0  0
 19 32  1  0  0  0  0
 19 33  1  0  0  0  0
 20 34  1  0  0  0  0
 20 35  1  0  0  0  0
 20 36  1  0  0  0  0
M  END
> <PUBCHEM_COMPOUND_CID>
15693458

> <PUBCHEM_CONFORMER_RMSD>
0.6

> <PUBCHEM_CONFORMER_DIVERSEORDER>
1
4
3
2

> <PUBCHEM_MMFF94_PARTIAL_CHARGES>
23
1 -0.36
10 -0.15
11 -0.15
12 -0.15
13 -0.15
14 -0.15
15 0.08
16 0.08
17 -0.15
18 0.28
19 0.28
2 -0.36
20 0.28
21 0.15
22 0.15
23 0.15
24 0.15
25 0.15
26 0.15
27 0.15
3 -0.36
8 0.08
9 -0.15

> <PUBCHEM_EFFECTIVE_ROTOR_COUNT>
3

> <PUBCHEM_PHARMACOPHORE_FEATURES>
6
1 1 acceptor
1 2 acceptor
1 3 acceptor
6 4 5 6 7 9 10 rings
6 4 6 8 12 14 15 rings
6 5 7 11 13 16 17 rings

> <PUBCHEM_HEAVY_ATOM_COUNT>
20

> <PUBCHEM_ATOM_DEF_STEREO_COUNT>
0

> <PUBCHEM_ATOM_UDEF_STEREO_COUNT>
0

> <PUBCHEM_BOND_DEF_STEREO_COUNT>
0

> <PUBCHEM_BOND_UDEF_STEREO_COUNT>
0

> <PUBCHEM_ISOTOPIC_ATOM_COUNT>
0

> <PUBCHEM_COMPONENT_COUNT>
1

> <PUBCHEM_CACTVS_TAUTO_COUNT>
1

> <PUBCHEM_CONFORMER_ID>
00EF769200000001

> <PUBCHEM_MMFF94_ENERGY>
99.5864

> <PUBCHEM_FEATURE_SELFOVERLAP>
30.495

> <PUBCHEM_SHAPE_FINGERPRINT>
10616163 171 18410575041734569948
10906281 52 18263103079219442417
10967382 1 18410293622576551403
1100329 8 18266457792169591450
11471102 20 18336825385638781557
11578080 2 16662883614198831294
11806522 49 18408604759952906253
11963148 33 18335978744095283171
12011746 2 18409166610273270303
12236239 1 17918276471788774809
12553582 1 18338783581329791703
12715332 25 18202280342397116526
12838862 33 18338778087818934101
12839892 36 18266442223419818882
13140716 1 18267026244160462681
13288520 33 18410294696318602828
13464513 79 18341894116603945822
13862211 1 18409444795368510954
14115302 16 17676778659426420799
14178342 30 18196084444114280984
14223421 5 18194964037079738804
14790565 3 18338807817699108268
14863182 85 18339092526706740774
15042514 8 18338233872987962482
15196674 1 18337390443983269288
15927050 60 17621321668154878300
16945 1 18266180534882504860
17492 89 18118960287542457890
18681886 176 18410289238021896192
19141452 34 18060137677923028095
19591789 44 18339078301906677846
200 152 18272649056567888649
20028762 73 18059008518273742911
20261772 1 18343579668082541174
20645477 70 18336263531091742927
20905425 154 18195810661302314198
21267235 1 18409455790505725331
21421861 104 17898007919512495139
221490 88 18117565252115029539
2297311 6 18341903952717435308
2334 1 18194122047348863604
23402539 116 18341887502422882031
23463225 33 18407477764834742868
23557571 272 18343025445671366508
23558518 356 17973735674679227465
23559900 14 17907569230131921490
23566358 2 18193271888927405885
2748010 2 18337670939776209612
2871803 45 18334854995944618404
335352 9 18409448102878126261
34934 24 18337384925367038293
350125 39 18410013255939468524
4340502 62 14908185265394051332
43471831 8 18263641775893651818
465052 167 18260271879532485010
474229 33 18410854356770154518
5104073 3 18339358548316871536
59755656 215 18410578345050295798
7364860 26 18341897359452064335
8809292 202 18114748230046440419
9709674 26 18337397050128650499

> <PUBCHEM_SHAPE_MULTIPOLES>
393.98
9.38
2.67
0.66
1.77
0.21
-0.04
2.63
0.78
-0.27
-0.46
-0.04
0.13
0.12

> <PUBCHEM_SHAPE_SELFOVERLAP>
871.053

> <PUBCHEM_SHAPE_VOLUME>
214.1

> <PUBCHEM_COORDINATE_TYPE>
2
5
10

$$$$
