3001664
  -OEChem-09172005313D

 63 65  0     1  0  0  0  0  0999 V2000
    0.1084   -4.3832   -1.4671 O   0  0  0  0  0  0  0  0  0  0  0  0
    0.8515    2.1522    1.2660 O   0  0  0  0  0  0  0  0  0  0  0  0
   -0.7581    2.2351   -1.2168 O   0  0  0  0  0  0  0  0  0  0  0  0
    4.8699    0.1168   -0.2632 O   0  0  0  0  0  0  0  0  0  0  0  0
   -4.9437    0.5000    0.2334 O   0  0  0  0  0  0  0  0  0  0  0  0
    3.5646    2.1556    1.0744 O   0  0  0  0  0  0  0  0  0  0  0  0
   -3.4651    2.4490   -1.0548 O   0  0  0  0  0  0  0  0  0  0  0  0
    0.3782   -3.3515   -0.4910 C   0  0  2  0  0  0  0  0  0  0  0  0
   -0.8991   -3.2374    0.4056 C   0  0  2  0  0  0  0  0  0  0  0  0
    0.6476   -2.0868   -1.3525 C   0  0  0  0  0  0  0  0  0  0  0  0
   -0.9160   -2.0227    1.3593 C   0  0  0  0  0  0  0  0  0  0  0  0
    1.3699   -0.9299   -0.6922 C   0  0  0  0  0  0  0  0  0  0  0  0
   -1.5406   -0.8022    0.7162 C   0  0  0  0  0  0  0  0  0  0  0  0
    1.6284   -3.8020    0.2817 C   0  0  0  0  0  0  0  0  0  0  0  0
   -1.1619   -4.5108    1.2329 C   0  0  0  0  0  0  0  0  0  0  0  0
    0.6939    0.1169   -0.0279 C   0  0  0  0  0  0  0  0  0  0  0  0
   -0.7756    0.1842    0.0610 C   0  0  0  0  0  0  0  0  0  0  0  0
    2.7772   -0.8991   -0.7644 C   0  0  0  0  0  0  0  0  0  0  0  0
   -2.9431   -0.6764    0.7591 C   0  0  0  0  0  0  0  0  0  0  0  0
    1.4584    1.1467    0.5605 C   0  0  0  0  0  0  0  0  0  0  0  0
   -1.4494    1.2756   -0.5255 C   0  0  0  0  0  0  0  0  0  0  0  0
    3.5110    0.1296   -0.1772 C   0  0  0  0  0  0  0  0  0  0  0  0
   -3.5864    0.4109    0.1726 C   0  0  0  0  0  0  0  0  0  0  0  0
    2.8511    1.1522    0.4892 C   0  0  0  0  0  0  0  0  0  0  0  0
   -2.8388    1.3884   -0.4701 C   0  0  0  0  0  0  0  0  0  0  0  0
    1.0456    3.4778    0.7873 C   0  0  0  0  0  0  0  0  0  0  0  0
   -0.5815    2.0174   -2.6117 C   0  0  0  0  0  0  0  0  0  0  0  0
    5.4551    0.7752   -1.3853 C   0  0  0  0  0  0  0  0  0  0  0  0
   -5.6328   -0.5479    0.9131 C   0  0  0  0  0  0  0  0  0  0  0  0
    3.9580    1.9637    2.4314 C   0  0  0  0  0  0  0  0  0  0  0  0
   -3.6769    3.6025   -0.2441 C   0  0  0  0  0  0  0  0  0  0  0  0
   -1.7589   -3.1672   -0.2773 H   0  0  0  0  0  0  0  0  0  0  0  0
   -0.2893   -1.7395   -1.8088 H   0  0  0  0  0  0  0  0  0  0  0  0
    1.2411   -2.3844   -2.2308 H   0  0  0  0  0  0  0  0  0  0  0  0
    0.0815   -1.8004    1.7529 H   0  0  0  0  0  0  0  0  0  0  0  0
   -1.5081   -2.2515    2.2566 H   0  0  0  0  0  0  0  0  0  0  0  0
    2.4871   -3.8910   -0.3939 H   0  0  0  0  0  0  0  0  0  0  0  0
    1.8900   -3.1158    1.0918 H   0  0  0  0  0  0  0  0  0  0  0  0
    1.4989   -4.8011    0.7117 H   0  0  0  0  0  0  0  0  0  0  0  0
   -2.1389   -4.4481    1.7261 H   0  0  0  0  0  0  0  0  0  0  0  0
   -1.1798   -5.4078    0.6075 H   0  0  0  0  0  0  0  0  0  0  0  0
   -0.4086   -4.6470    2.0154 H   0  0  0  0  0  0  0  0  0  0  0  0
    0.1547   -5.2480   -1.0270 H   0  0  0  0  0  0  0  0  0  0  0  0
    3.3084   -1.6936   -1.2852 H   0  0  0  0  0  0  0  0  0  0  0  0
   -3.4782   -1.4727    1.2675 H   0  0  0  0  0  0  0  0  0  0  0  0
    0.0866    4.0024    0.8359 H   0  0  0  0  0  0  0  0  0  0  0  0
    1.4080    3.5141   -0.2462 H   0  0  0  0  0  0  0  0  0  0  0  0
    1.7466    4.0032    1.4425 H   0  0  0  0  0  0  0  0  0  0  0  0
   -1.5437    2.0555   -3.1317 H   0  0  0  0  0  0  0  0  0  0  0  0
   -0.0929    1.0572   -2.8040 H   0  0  0  0  0  0  0  0  0  0  0  0
    0.0560    2.8147   -3.0035 H   0  0  0  0  0  0  0  0  0  0  0  0
    5.1304    0.3039   -2.3183 H   0  0  0  0  0  0  0  0  0  0  0  0
    6.5420    0.6845   -1.3071 H   0  0  0  0  0  0  0  0  0  0  0  0
    5.1917    1.8377   -1.3892 H   0  0  0  0  0  0  0  0  0  0  0  0
   -5.3627   -0.5876    1.9740 H   0  0  0  0  0  0  0  0  0  0  0  0
   -5.4987   -1.5119    0.4106 H   0  0  0  0  0  0  0  0  0  0  0  0
   -6.7013   -0.3127    0.8670 H   0  0  0  0  0  0  0  0  0  0  0  0
    4.5001    2.8547    2.7594 H   0  0  0  0  0  0  0  0  0  0  0  0
    4.6220    1.0982    2.5203 H   0  0  0  0  0  0  0  0  0  0  0  0
    3.0818    1.8316    3.0740 H   0  0  0  0  0  0  0  0  0  0  0  0
   -2.7221    4.0086    0.1050 H   0  0  0  0  0  0  0  0  0  0  0  0
   -4.3166    3.3608    0.6105 H   0  0  0  0  0  0  0  0  0  0  0  0
   -4.1776    4.3610   -0.8519 H   0  0  0  0  0  0  0  0  0  0  0  0
  1  8  1  0  0  0  0
  1 43  1  0  0  0  0
  2 20  1  0  0  0  0
  2 26  1  0  0  0  0
  3 21  1  0  0  0  0
  3 27  1  0  0  0  0
  4 22  1  0  0  0  0
  4 28  1  0  0  0  0
  5 23  1  0  0  0  0
  5 29  1  0  0  0  0
  6 24  1  0  0  0  0
  6 30  1  0  0  0  0
  7 25  1  0  0  0  0
  7 31  1  0  0  0  0
  8  9  1  0  0  0  0
  8 10  1  0  0  0  0
  8 14  1  0  0  0  0
  9 11  1  0  0  0  0
  9 15  1  0  0  0  0
  9 32  1  0  0  0  0
 10 12  1  0  0  0  0
 10 33  1  0  0  0  0
 10 34  1  0  0  0  0
 11 13  1  0  0  0  0
 11 35  1  0  0  0  0
 11 36  1  0  0  0  0
 12 16  1  0  0  0  0
 12 18  2  0  0  0  0
 13 17  1  0  0  0  0
 13 19  2  0  0  0  0
 14 37  1  0  0  0  0
 14 38  1  0  0  0  0
 14 39  1  0  0  0  0
 15 40  1  0  0  0  0
 15 41  1  0  0  0  0
 15 42  1  0  0  0  0
 16 17  1  0  0  0  0
 16 20  2  0  0  0  0
 17 21  2  0  0  0  0
 18 22  1  0  0  0  0
 18 44  1  0  0  0  0
 19 23  1  0  0  0  0
 19 45  1  0  0  0  0
 20 24  1  0  0  0  0
 21 25  1  0  0  0  0
 22 24  2  0  0  0  0
 23 25  2  0  0  0  0
 26 46  1  0  0  0  0
 26 47  1  0  0  0  0
 26 48  1  0  0  0  0
 27 49  1  0  0  0  0
 27 50  1  0  0  0  0
 27 51  1  0  0  0  0
 28 52  1  0  0  0  0
 28 53  1  0  0  0  0
 28 54  1  0  0  0  0
 29 55  1  0  0  0  0
 29 56  1  0  0  0  0
 29 57  1  0  0  0  0
 30 58  1  0  0  0  0
 30 59  1  0  0  0  0
 30 60  1  0  0  0  0
 31 61  1  0  0  0  0
 31 62  1  0  0  0  0
 31 63  1  0  0  0  0
M  END
> <PUBCHEM_COMPOUND_CID>
3001664

> <PUBCHEM_CONFORMER_RMSD>
0.8

> <PUBCHEM_CONFORMER_DIVERSEORDER>
2
7
6
9
1
8
12
4
3
10
11
5

> <PUBCHEM_MMFF94_PARTIAL_CHARGES>
29
1 -0.68
10 0.14
11 0.14
12 -0.14
13 -0.14
18 -0.15
19 -0.15
2 -0.36
20 0.08
21 0.08
22 0.08
23 0.08
24 0.08
25 0.08
26 0.28
27 0.28
28 0.28
29 0.28
3 -0.36
30 0.28
31 0.28
4 -0.36
43 0.4
44 0.15
45 0.15
5 -0.36
6 -0.36
7 -0.36
8 0.28

> <PUBCHEM_EFFECTIVE_ROTOR_COUNT>
6.8

> <PUBCHEM_PHARMACOPHORE_FEATURES>
10
1 1 acceptor
1 1 donor
1 2 acceptor
1 3 acceptor
1 4 acceptor
1 5 acceptor
1 6 acceptor
1 7 acceptor
6 12 16 18 20 22 24 rings
6 13 17 19 21 23 25 rings

> <PUBCHEM_HEAVY_ATOM_COUNT>
31

> <PUBCHEM_ATOM_DEF_STEREO_COUNT>
2

> <PUBCHEM_ATOM_UDEF_STEREO_COUNT>
0

> <PUBCHEM_BOND_DEF_STEREO_COUNT>
0

> <PUBCHEM_BOND_UDEF_STEREO_COUNT>
0

> <PUBCHEM_ISOTOPIC_ATOM_COUNT>
0

> <PUBCHEM_COMPONENT_COUNT>
1

> <PUBCHEM_CACTVS_TAUTO_COUNT>
1

> <PUBCHEM_CONFORMER_ID>
002DCD4000000002

> <PUBCHEM_MMFF94_ENERGY>
172.1253

> <PUBCHEM_FEATURE_SELFOVERLAP>
50.774

> <PUBCHEM_SHAPE_FINGERPRINT>
10165383 225 18339656589283193796
10675989 125 17978511927821889808
10906281 52 17969812755136567997
11421498 54 16343714188128304259
11578080 2 17901395498006560821
12035758 1 18339926016681376536
12236239 1 15864070983247026817
12403259 415 18342737424874755728
12422481 6 17835546056052023683
12553582 1 17040920339397638826
12633257 1 18265319797714205576
13140716 1 17975975680633719115
13402501 40 18411429413809108882
14790565 3 18338248114915036228
16728300 4 17680401400528602618
19591789 44 18412262826696418494
20028762 73 18270119158076000911
20642791 13 17695333064443495918
20905425 154 18045501911263484559
21033648 29 18411694396111968465
21421861 104 17690288109783851192
23419403 2 15669220738636994004
23559900 14 18120090576957799286
238 59 18049129255994574639
3298306 158 18339641140396775374
3383291 50 18270961220874762350
508706 21 18197210558816564498
5265222 85 18262535792325148094
59755656 215 18409449164109704925
7399639 24 18411695491961118089
81228 2 17903336445092669734

> <PUBCHEM_SHAPE_MULTIPOLES>
596.88
8.13
5.3
1.65
0.17
4.56
-0.15
-5.03
0.96
1.27
0.13
-0.92
-0.57
2.12

> <PUBCHEM_SHAPE_SELFOVERLAP>
1272.586

> <PUBCHEM_SHAPE_VOLUME>
333.5

> <PUBCHEM_COORDINATE_TYPE>
2
5
10

$$$$
