101658823
  -OEChem-09172005113D

 85 89  0     1  0  0  0  0  0999 V2000
   -7.6822    0.6792   -1.4224 O   0  0  0  0  0  0  0  0  0  0  0  0
   -2.2426    0.4942    0.0853 C   0  0  1  0  0  0  0  0  0  0  0  0
   -3.7653    0.5822   -0.2163 C   0  0  2  0  0  0  0  0  0  0  0  0
   -3.2170    1.0959    1.0870 C   0  0  0  0  0  0  0  0  0  0  0  0
   -1.6429   -0.8691    0.5197 C   0  0  2  0  0  0  0  0  0  0  0  0
   -0.1430   -1.0029    0.1497 C   0  0  1  0  0  0  0  0  0  0  0  0
   -4.5903   -0.7115   -0.2863 C   0  0  1  0  0  0  0  0  0  0  0  0
   -1.3215    1.4772   -0.6516 C   0  0  0  0  0  0  0  0  0  0  0  0
    0.6101    0.2984    0.5806 C   0  0  2  0  0  0  0  0  0  0  0  0
   -4.3001    1.6239   -1.1854 C   0  0  0  0  0  0  0  0  0  0  0  0
   -2.5005   -2.0531    0.0538 C   0  0  0  0  0  0  0  0  0  0  0  0
    0.1865    1.4385   -0.3449 C   0  0  0  0  0  0  0  0  0  0  0  0
   -3.9527   -1.8744    0.4868 C   0  0  0  0  0  0  0  0  0  0  0  0
   -6.0999   -0.4637    0.0381 C   0  0  0  0  0  0  0  0  0  0  0  0
    2.0940   -0.1391    0.4464 C   0  0  2  0  0  0  0  0  0  0  0  0
    0.6285   -2.0727    0.9512 C   0  0  0  0  0  0  0  0  0  0  0  0
    2.0945   -1.5975    0.9572 C   0  0  0  0  0  0  0  0  0  0  0  0
   -5.7496    1.9583   -0.8692 C   0  0  0  0  0  0  0  0  0  0  0  0
    0.0148   -1.3672   -1.3593 C   0  0  0  0  0  0  0  0  0  0  0  0
    0.3372    0.7483    2.0476 C   0  0  0  0  0  0  0  0  0  0  0  0
   -6.5999    0.7060   -0.8342 C   0  0  0  0  0  0  0  0  0  0  0  0
    3.1424    0.7240    1.1395 C   0  0  1  0  0  0  0  0  0  0  0  0
   -6.9325   -1.7178   -0.3051 C   0  0  0  0  0  0  0  0  0  0  0  0
   -6.3692   -0.1049    1.5077 C   0  0  0  0  0  0  0  0  0  0  0  0
    4.5700    0.1559    0.9960 C   0  0  0  0  0  0  0  0  0  0  0  0
    3.0469    2.1751    0.6634 C   0  0  0  0  0  0  0  0  0  0  0  0
    5.0959    0.0659   -0.4444 C   0  0  0  0  0  0  0  0  0  0  0  0
    6.5498   -0.4614   -0.5319 C   0  0  1  0  0  0  0  0  0  0  0  0
    6.9033   -0.7522   -2.0087 C   0  0  0  0  0  0  0  0  0  0  0  0
    7.5578    0.4624    0.1427 C   0  0  0  0  0  0  0  0  0  0  0  0
    8.2705   -1.3987   -2.1933 C   0  0  0  0  0  0  0  0  0  0  0  0
    7.7246    1.8578   -0.3931 C   0  0  0  0  0  0  0  0  0  0  0  0
    8.2823    0.0430    1.1936 C   0  0  0  0  0  0  0  0  0  0  0  0
   -3.4342    0.5518    1.9990 H   0  0  0  0  0  0  0  0  0  0  0  0
   -3.1911    2.1681    1.2532 H   0  0  0  0  0  0  0  0  0  0  0  0
   -1.6965   -0.8978    1.6174 H   0  0  0  0  0  0  0  0  0  0  0  0
   -4.5518   -1.0081   -1.3470 H   0  0  0  0  0  0  0  0  0  0  0  0
   -1.6545    2.5077   -0.4752 H   0  0  0  0  0  0  0  0  0  0  0  0
   -1.4567    1.3150   -1.7286 H   0  0  0  0  0  0  0  0  0  0  0  0
   -4.2187    1.2317   -2.2068 H   0  0  0  0  0  0  0  0  0  0  0  0
   -3.7248    2.5542   -1.1559 H   0  0  0  0  0  0  0  0  0  0  0  0
   -2.1102   -2.9835    0.4824 H   0  0  0  0  0  0  0  0  0  0  0  0
   -2.4758   -2.1619   -1.0361 H   0  0  0  0  0  0  0  0  0  0  0  0
    0.7252    1.3839   -1.2998 H   0  0  0  0  0  0  0  0  0  0  0  0
    0.4525    2.4140    0.0736 H   0  0  0  0  0  0  0  0  0  0  0  0
   -4.4855   -2.8072    0.2744 H   0  0  0  0  0  0  0  0  0  0  0  0
   -4.0018   -1.7174    1.5695 H   0  0  0  0  0  0  0  0  0  0  0  0
    2.3455   -0.1549   -0.6202 H   0  0  0  0  0  0  0  0  0  0  0  0
    0.5399   -3.0778    0.5245 H   0  0  0  0  0  0  0  0  0  0  0  0
    0.2613   -2.1394    1.9822 H   0  0  0  0  0  0  0  0  0  0  0  0
    2.4953   -1.6877    1.9730 H   0  0  0  0  0  0  0  0  0  0  0  0
    2.7071   -2.2289    0.3038 H   0  0  0  0  0  0  0  0  0  0  0  0
   -6.1458    2.6342   -1.6349 H   0  0  0  0  0  0  0  0  0  0  0  0
   -5.8389    2.4620    0.0989 H   0  0  0  0  0  0  0  0  0  0  0  0
   -0.5654   -0.7130   -2.0140 H   0  0  0  0  0  0  0  0  0  0  0  0
   -0.3257   -2.3915   -1.5511 H   0  0  0  0  0  0  0  0  0  0  0  0
    1.0501   -1.3348   -1.7074 H   0  0  0  0  0  0  0  0  0  0  0  0
    0.6176   -0.0200    2.7751 H   0  0  0  0  0  0  0  0  0  0  0  0
   -0.7129    0.9875    2.2272 H   0  0  0  0  0  0  0  0  0  0  0  0
    0.8782    1.6571    2.3200 H   0  0  0  0  0  0  0  0  0  0  0  0
    2.9539    0.7291    2.2210 H   0  0  0  0  0  0  0  0  0  0  0  0
   -6.7708   -2.0277   -1.3438 H   0  0  0  0  0  0  0  0  0  0  0  0
   -5.8452    0.8028    1.8188 H   0  0  0  0  0  0  0  0  0  0  0  0
   -7.4372    0.0853    1.6703 H   0  0  0  0  0  0  0  0  0  0  0  0
   -6.0755   -0.9142    2.1834 H   0  0  0  0  0  0  0  0  0  0  0  0
   -8.0064   -1.5302   -0.1867 H   0  0  0  0  0  0  0  0  0  0  0  0
   -6.6864   -2.5624    0.3462 H   0  0  0  0  0  0  0  0  0  0  0  0
    4.6282   -0.8360    1.4596 H   0  0  0  0  0  0  0  0  0  0  0  0
    5.2400    0.7947    1.5850 H   0  0  0  0  0  0  0  0  0  0  0  0
    3.9568    2.7216    0.9400 H   0  0  0  0  0  0  0  0  0  0  0  0
    2.2308    2.7259    1.1309 H   0  0  0  0  0  0  0  0  0  0  0  0
    2.9521    2.2459   -0.4249 H   0  0  0  0  0  0  0  0  0  0  0  0
    5.0198    1.0403   -0.9398 H   0  0  0  0  0  0  0  0  0  0  0  0
    4.4546   -0.6192   -1.0110 H   0  0  0  0  0  0  0  0  0  0  0  0
    6.5618   -1.4320   -0.0146 H   0  0  0  0  0  0  0  0  0  0  0  0
    6.1507   -1.4324   -2.4274 H   0  0  0  0  0  0  0  0  0  0  0  0
    6.8534    0.1659   -2.6064 H   0  0  0  0  0  0  0  0  0  0  0  0
    9.0796   -0.7230   -1.9007 H   0  0  0  0  0  0  0  0  0  0  0  0
    8.3534   -2.3163   -1.6023 H   0  0  0  0  0  0  0  0  0  0  0  0
    8.4220   -1.6600   -3.2456 H   0  0  0  0  0  0  0  0  0  0  0  0
    8.0380    1.8388   -1.4409 H   0  0  0  0  0  0  0  0  0  0  0  0
    6.7882    2.4184   -0.3167 H   0  0  0  0  0  0  0  0  0  0  0  0
    8.4841    2.4202    0.1612 H   0  0  0  0  0  0  0  0  0  0  0  0
    8.1731   -0.9601    1.5921 H   0  0  0  0  0  0  0  0  0  0  0  0
    9.0016    0.6929    1.6809 H   0  0  0  0  0  0  0  0  0  0  0  0
  1 21  2  0  0  0  0
  2  3  1  0  0  0  0
  2  4  1  0  0  0  0
  2  5  1  0  0  0  0
  2  8  1  0  0  0  0
  3  4  1  0  0  0  0
  3  7  1  0  0  0  0
  3 10  1  0  0  0  0
  4 34  1  0  0  0  0
  4 35  1  0  0  0  0
  5  6  1  0  0  0  0
  5 11  1  0  0  0  0
  5 36  1  0  0  0  0
  6  9  1  0  0  0  0
  6 16  1  0  0  0  0
  6 19  1  0  0  0  0
  7 13  1  0  0  0  0
  7 14  1  0  0  0  0
  7 37  1  0  0  0  0
  8 12  1  0  0  0  0
  8 38  1  0  0  0  0
  8 39  1  0  0  0  0
  9 12  1  0  0  0  0
  9 15  1  0  0  0  0
  9 20  1  0  0  0  0
 10 18  1  0  0  0  0
 10 40  1  0  0  0  0
 10 41  1  0  0  0  0
 11 13  1  0  0  0  0
 11 42  1  0  0  0  0
 11 43  1  0  0  0  0
 12 44  1  0  0  0  0
 12 45  1  0  0  0  0
 13 46  1  0  0  0  0
 13 47  1  0  0  0  0
 14 21  1  0  0  0  0
 14 23  1  0  0  0  0
 14 24  1  0  0  0  0
 15 17  1  0  0  0  0
 15 22  1  0  0  0  0
 15 48  1  0  0  0  0
 16 17  1  0  0  0  0
 16 49  1  0  0  0  0
 16 50  1  0  0  0  0
 17 51  1  0  0  0  0
 17 52  1  0  0  0  0
 18 21  1  0  0  0  0
 18 53  1  0  0  0  0
 18 54  1  0  0  0  0
 19 55  1  0  0  0  0
 19 56  1  0  0  0  0
 19 57  1  0  0  0  0
 20 58  1  0  0  0  0
 20 59  1  0  0  0  0
 20 60  1  0  0  0  0
 22 25  1  0  0  0  0
 22 26  1  0  0  0  0
 22 61  1  0  0  0  0
 23 62  1  0  0  0  0
 23 66  1  0  0  0  0
 23 67  1  0  0  0  0
 24 63  1  0  0  0  0
 24 64  1  0  0  0  0
 24 65  1  0  0  0  0
 25 27  1  0  0  0  0
 25 68  1  0  0  0  0
 25 69  1  0  0  0  0
 26 70  1  0  0  0  0
 26 71  1  0  0  0  0
 26 72  1  0  0  0  0
 27 28  1  0  0  0  0
 27 73  1  0  0  0  0
 27 74  1  0  0  0  0
 28 29  1  0  0  0  0
 28 30  1  0  0  0  0
 28 75  1  0  0  0  0
 29 31  1  0  0  0  0
 29 76  1  0  0  0  0
 29 77  1  0  0  0  0
 30 32  1  0  0  0  0
 30 33  2  0  0  0  0
 31 78  1  0  0  0  0
 31 79  1  0  0  0  0
 31 80  1  0  0  0  0
 32 81  1  0  0  0  0
 32 82  1  0  0  0  0
 32 83  1  0  0  0  0
 33 84  1  0  0  0  0
 33 85  1  0  0  0  0
M  END
> <PUBCHEM_COMPOUND_CID>
101658823

> <PUBCHEM_CONFORMER_RMSD>
1

> <PUBCHEM_CONFORMER_DIVERSEORDER>
2
14
10
26
18
21
7
6
22
13
11
24
16
3
15
25
8
19
17
27
20
1
23
4
12
9
5

> <PUBCHEM_MMFF94_PARTIAL_CHARGES>
19
1 -0.57
10 0.09
14 0.06
18 0.06
2 -0.19
21 0.45
28 0.14
3 -0.19
30 -0.28
32 0.14
33 -0.3
34 0.1
35 0.1
4 -0.2
5 0.09
7 0.09
8 0.09
84 0.15
85 0.15

> <PUBCHEM_EFFECTIVE_ROTOR_COUNT>
8.2

> <PUBCHEM_PHARMACOPHORE_FEATURES>
9
1 1 acceptor
1 26 hydrophobe
1 31 hydrophobe
3 14 23 24 hydrophobe
5 6 9 15 16 17 rings
6 2 5 6 8 9 12 rings
6 22 25 27 28 29 30 hydrophobe
6 3 7 10 14 18 21 rings
7 2 3 4 5 7 11 13 rings

> <PUBCHEM_HEAVY_ATOM_COUNT>
33

> <PUBCHEM_ATOM_DEF_STEREO_COUNT>
9

> <PUBCHEM_ATOM_UDEF_STEREO_COUNT>
0

> <PUBCHEM_BOND_DEF_STEREO_COUNT>
0

> <PUBCHEM_BOND_UDEF_STEREO_COUNT>
0

> <PUBCHEM_ISOTOPIC_ATOM_COUNT>
0

> <PUBCHEM_COMPONENT_COUNT>
1

> <PUBCHEM_CACTVS_TAUTO_COUNT>
2

> <PUBCHEM_CONFORMER_ID>
060F30C700000002

> <PUBCHEM_MMFF94_ENERGY>
121.6623

> <PUBCHEM_FEATURE_SELFOVERLAP>
45.779

> <PUBCHEM_SHAPE_FINGERPRINT>
10 15 17749104479105196489
10076449 9 18342460374336261155
10670039 82 18201720604752503640
11007060 377 18409737239644035176
11315181 36 18272089413992577553
11578080 2 17024571305940716751
12011746 2 18413665812302386027
12236239 1 16805317782524541915
12539765 74 15864073139900995314
13811026 1 18202282477517803148
14117953 113 18334850620001088237
14251764 18 17167580496940582766
14294032 229 17823415994291755668
14856354 85 17821734970162337671
150020 25 18343308050762644142
15021287 119 14764347171850237899
15131766 46 13697306382134058878
15183329 4 18409173191033456202
15198563 99 18130512916535303632
15510794 2 18273214193350812158
15849732 13 18333168384210832476
16994733 274 16877657937849915100
18608769 82 18335698373214018610
18681886 176 18337101362894018233
19611394 137 17314245517259462185
19841028 212 13829865582442055716
20105231 36 18410303514113932179
2026 5 16701190656047371558
21267235 1 18336549408526165051
21792961 116 18342461413766066338
22224240 67 12901547949016569544
23559900 14 18059289967701585072
23569943 247 16271371785871125414
23576562 1 18115030843163254092
24771293 8 11602829016412602514
249057 3 18411135865795360764
335352 9 18335976541366520341
3383291 50 18131632300833806958
350125 39 18335133189582197849
4073 2 17603586330734520859
4325135 7 17458340831946411396
5104073 3 18187639143094223681
5265222 85 18336827597177797286
59755656 215 18411698764256725278

> <PUBCHEM_SHAPE_MULTIPOLES>
673.26
23.85
2.07
1.56
24.97
0.09
0.21
-0.78
8.03
-0.72
0.17
1.37
0.1
1.97

> <PUBCHEM_SHAPE_SELFOVERLAP>
1412.897

> <PUBCHEM_SHAPE_VOLUME>
379

> <PUBCHEM_COORDINATE_TYPE>
2
5
10

$$$$
