158975
  -OEChem-09172004363D

 34 36  0     0  0  0  0  0  0999 V2000
    0.9982   -2.0316    0.0282 O   0  0  0  0  0  0  0  0  0  0  0  0
    3.5426   -1.2971   -0.0609 O   0  0  0  0  0  0  0  0  0  0  0  0
    4.2553    1.3654   -0.1534 O   0  0  0  0  0  0  0  0  0  0  0  0
   -5.3442   -0.7966    0.1656 O   0  0  0  0  0  0  0  0  0  0  0  0
    0.1922    0.2866   -0.0128 C   0  0  0  0  0  0  0  0  0  0  0  0
   -1.2122   -0.0277    0.0340 C   0  0  0  0  0  0  0  0  0  0  0  0
    0.5965    1.6463   -0.0610 C   0  0  0  0  0  0  0  0  0  0  0  0
   -2.1586    1.0302    0.0307 C   0  0  0  0  0  0  0  0  0  0  0  0
    1.2246   -0.6846   -0.0142 C   0  0  0  0  0  0  0  0  0  0  0  0
   -0.3652    2.6600   -0.0624 C   0  0  0  0  0  0  0  0  0  0  0  0
   -1.7220    2.3565   -0.0173 C   0  0  0  0  0  0  0  0  0  0  0  0
    1.9594    1.9859   -0.1075 C   0  0  0  0  0  0  0  0  0  0  0  0
    2.5764   -0.3333   -0.0608 C   0  0  0  0  0  0  0  0  0  0  0  0
   -1.7314   -1.3458    0.0842 C   0  0  0  0  0  0  0  0  0  0  0  0
    2.9439    1.0025   -0.1075 C   0  0  0  0  0  0  0  0  0  0  0  0
   -3.5365    0.7570    0.0755 C   0  0  0  0  0  0  0  0  0  0  0  0
   -3.1041   -1.6035    0.1286 C   0  0  0  0  0  0  0  0  0  0  0  0
   -4.0069   -0.5516    0.1240 C   0  0  0  0  0  0  0  0  0  0  0  0
    0.8575   -2.7004   -1.2214 C   0  0  0  0  0  0  0  0  0  0  0  0
    4.0346   -1.7183    1.2085 C   0  0  0  0  0  0  0  0  0  0  0  0
   -0.0694    3.7069   -0.0991 H   0  0  0  0  0  0  0  0  0  0  0  0
   -2.4370    3.1772   -0.0204 H   0  0  0  0  0  0  0  0  0  0  0  0
    2.2540    3.0339   -0.1442 H   0  0  0  0  0  0  0  0  0  0  0  0
   -1.1309   -2.2367    0.1618 H   0  0  0  0  0  0  0  0  0  0  0  0
   -4.2571    1.5736    0.0724 H   0  0  0  0  0  0  0  0  0  0  0  0
   -3.4504   -2.6326    0.1805 H   0  0  0  0  0  0  0  0  0  0  0  0
    0.2324   -2.1365   -1.9219 H   0  0  0  0  0  0  0  0  0  0  0  0
    0.3988   -3.6774   -1.0437 H   0  0  0  0  0  0  0  0  0  0  0  0
    1.8435   -2.8628   -1.6678 H   0  0  0  0  0  0  0  0  0  0  0  0
    4.3165    2.3356   -0.1807 H   0  0  0  0  0  0  0  0  0  0  0  0
    3.2274   -2.1379    1.8172 H   0  0  0  0  0  0  0  0  0  0  0  0
    4.5058   -0.8829    1.7359 H   0  0  0  0  0  0  0  0  0  0  0  0
    4.7864   -2.4949    1.0437 H   0  0  0  0  0  0  0  0  0  0  0  0
   -5.4881   -1.7582    0.1950 H   0  0  0  0  0  0  0  0  0  0  0  0
  1  9  1  0  0  0  0
  1 19  1  0  0  0  0
  2 13  1  0  0  0  0
  2 20  1  0  0  0  0
  3 15  1  0  0  0  0
  3 30  1  0  0  0  0
  4 18  1  0  0  0  0
  4 34  1  0  0  0  0
  5  6  1  0  0  0  0
  5  7  1  0  0  0  0
  5  9  2  0  0  0  0
  6  8  2  0  0  0  0
  6 14  1  0  0  0  0
  7 10  1  0  0  0  0
  7 12  2  0  0  0  0
  8 11  1  0  0  0  0
  8 16  1  0  0  0  0
  9 13  1  0  0  0  0
 10 11  2  0  0  0  0
 10 21  1  0  0  0  0
 11 22  1  0  0  0  0
 12 15  1  0  0  0  0
 12 23  1  0  0  0  0
 13 15  2  0  0  0  0
 14 17  2  0  0  0  0
 14 24  1  0  0  0  0
 16 18  2  0  0  0  0
 16 25  1  0  0  0  0
 17 18  1  0  0  0  0
 17 26  1  0  0  0  0
 19 27  1  0  0  0  0
 19 28  1  0  0  0  0
 19 29  1  0  0  0  0
 20 31  1  0  0  0  0
 20 32  1  0  0  0  0
 20 33  1  0  0  0  0
M  END
> <PUBCHEM_COMPOUND_CID>
158975

> <PUBCHEM_CONFORMER_RMSD>
0.6

> <PUBCHEM_CONFORMER_DIVERSEORDER>
1
2

> <PUBCHEM_MMFF94_PARTIAL_CHARGES>
24
1 -0.36
10 -0.15
11 -0.15
12 -0.15
13 0.08
14 -0.15
15 0.08
16 -0.15
17 -0.15
18 0.08
19 0.28
2 -0.36
20 0.28
21 0.15
22 0.15
23 0.15
24 0.15
25 0.15
26 0.15
3 -0.53
30 0.45
34 0.45
4 -0.53
9 0.08

> <PUBCHEM_EFFECTIVE_ROTOR_COUNT>
2

> <PUBCHEM_PHARMACOPHORE_FEATURES>
7
1 1 acceptor
1 2 acceptor
1 3 donor
1 4 donor
6 5 6 7 8 10 11 rings
6 5 7 9 12 13 15 rings
6 6 8 14 16 17 18 rings

> <PUBCHEM_HEAVY_ATOM_COUNT>
20

> <PUBCHEM_ATOM_DEF_STEREO_COUNT>
0

> <PUBCHEM_ATOM_UDEF_STEREO_COUNT>
0

> <PUBCHEM_BOND_DEF_STEREO_COUNT>
0

> <PUBCHEM_BOND_UDEF_STEREO_COUNT>
0

> <PUBCHEM_ISOTOPIC_ATOM_COUNT>
0

> <PUBCHEM_COMPONENT_COUNT>
1

> <PUBCHEM_CACTVS_TAUTO_COUNT>
8

> <PUBCHEM_CONFORMER_ID>
00026CFF00000001

> <PUBCHEM_MMFF94_ENERGY>
92.3029

> <PUBCHEM_FEATURE_SELFOVERLAP>
35.578

> <PUBCHEM_SHAPE_FINGERPRINT>
10062212 137 18411693275499322603
10616163 171 18411425037363885453
10759866 29 18113908199321396404
10906281 52 18264790859901842473
10967382 1 18339081604572809773
1100329 8 18050848024834781920
11132069 177 18411976953414487136
11471102 20 18410290350249347861
11578080 2 17024292055899470860
12553582 1 18339371777074514205
12633257 1 18266461996836884577
12839892 36 18268977718476282498
13140716 1 18411699880779209576
14178342 30 17982449300387514320
14223421 5 18267869388942459429
14790565 3 18049734210475975524
15196674 1 18409730647154234041
15442244 35 18337108969154355728
15536298 74 18341896302937556256
16945 1 18195815063512040500
17492 89 18335699373804982802
19591789 44 17762062433527710716
200 152 18201995556396032101
20028762 73 18130500920427739903
20510252 161 18272373052952674256
20645477 70 18410292510422991791
20905425 154 18196937660499407446
21267235 1 18410020922281628859
21421861 104 18043532711770998899
21501502 16 18337395950231835928
221490 88 18118129305927819395
22182313 1 17913770518393200310
23184049 29 17977103461657531471
2334 1 18339643463641552124
23402539 116 18338223869739695535
23463225 33 18409167727028142036
23558518 356 18261120612557830073
23559900 14 18339356362653303096
2748010 2 18339360876194588788
2871803 45 18335419062805814573
335352 9 18265614277936043885
34934 24 18266455597725866954
350125 39 18411136918626948104
4409770 3 16669634508925802140
5104073 3 18410294692329669497
7097593 13 17609766505638100666
7364860 26 18342461451871853261
84936 31 16414357745550883590
8809292 202 18261116257360349499
9709674 26 18339648828298707295

> <PUBCHEM_SHAPE_MULTIPOLES>
388.11
7.57
2.9
0.76
2.25
0.24
0
-2.16
-1.21
-0.75
0.34
-0.36
-0.33
-0.26

> <PUBCHEM_SHAPE_SELFOVERLAP>
866.699

> <PUBCHEM_SHAPE_VOLUME>
208.1

> <PUBCHEM_COORDINATE_TYPE>
2
5
10

$$$$
