102440970
  -OEChem-09172004383D

 48 53  0     1  0  0  0  0  0999 V2000
   -1.6311    3.1164    0.0178 O   0  0  0  0  0  0  0  0  0  0  0  0
   -3.8196    2.5219   -0.3558 O   0  0  0  0  0  0  0  0  0  0  0  0
    3.0284    2.7188    0.6364 O   0  0  0  0  0  0  0  0  0  0  0  0
   -5.0905   -3.3164    1.6395 O   0  0  0  0  0  0  0  0  0  0  0  0
    6.1849   -2.8465   -0.2078 O   0  0  0  0  0  0  0  0  0  0  0  0
   -2.0570    0.8366   -0.6367 C   0  0  1  0  0  0  0  0  0  0  0  0
   -2.3720    0.4653   -2.1065 C   0  0  0  0  0  0  0  0  0  0  0  0
   -2.7671   -0.2452    0.1284 C   0  0  0  0  0  0  0  0  0  0  0  0
   -0.6104    1.0455   -0.3505 C   0  0  0  0  0  0  0  0  0  0  0  0
   -3.6738   -0.3562   -2.0861 C   0  0  0  0  0  0  0  0  0  0  0  0
   -3.6659   -0.9269   -0.7029 C   0  0  0  0  0  0  0  0  0  0  0  0
   -2.6350    2.2172   -0.3175 C   0  0  0  0  0  0  0  0  0  0  0  0
   -0.4632    2.3757    0.0047 C   0  0  0  0  0  0  0  0  0  0  0  0
    0.5000    0.1808   -0.3824 C   0  0  0  0  0  0  0  0  0  0  0  0
   -2.6500   -0.5814    1.4698 C   0  0  0  0  0  0  0  0  0  0  0  0
    1.7877    0.6981   -0.0530 C   0  0  0  0  0  0  0  0  0  0  0  0
   -4.4560   -1.9544   -0.2136 C   0  0  0  0  0  0  0  0  0  0  0  0
    0.7584    2.9166    0.3287 C   0  0  0  0  0  0  0  0  0  0  0  0
    1.8715    2.0769    0.2957 C   0  0  0  0  0  0  0  0  0  0  0  0
    0.3803   -1.1759   -0.7218 C   0  0  0  0  0  0  0  0  0  0  0  0
   -3.4344   -1.6239    1.9674 C   0  0  0  0  0  0  0  0  0  0  0  0
    2.9331   -0.1771   -0.0827 C   0  0  0  0  0  0  0  0  0  0  0  0
   -4.3303   -2.3064    1.1313 C   0  0  0  0  0  0  0  0  0  0  0  0
    2.7581   -1.5398   -0.4344 C   0  0  0  0  0  0  0  0  0  0  0  0
    1.4867   -2.0188   -0.7470 C   0  0  0  0  0  0  0  0  0  0  0  0
    4.2579    0.2297    0.2210 C   0  0  0  0  0  0  0  0  0  0  0  0
    3.8533   -2.4200   -0.4718 C   0  0  0  0  0  0  0  0  0  0  0  0
    5.3399   -0.6545    0.1797 C   0  0  0  0  0  0  0  0  0  0  0  0
    5.1371   -1.9807   -0.1668 C   0  0  0  0  0  0  0  0  0  0  0  0
    3.3791    2.7246    2.0170 C   0  0  0  0  0  0  0  0  0  0  0  0
   -2.4697    1.3396   -2.7612 H   0  0  0  0  0  0  0  0  0  0  0  0
   -1.5776   -0.1549   -2.5406 H   0  0  0  0  0  0  0  0  0  0  0  0
   -3.6638   -1.1330   -2.8561 H   0  0  0  0  0  0  0  0  0  0  0  0
   -4.5480    0.2892   -2.2209 H   0  0  0  0  0  0  0  0  0  0  0  0
   -1.9669   -0.0522    2.1258 H   0  0  0  0  0  0  0  0  0  0  0  0
   -5.1588   -2.4705   -0.8598 H   0  0  0  0  0  0  0  0  0  0  0  0
    0.8465    3.9635    0.6011 H   0  0  0  0  0  0  0  0  0  0  0  0
   -0.5818   -1.6119   -0.9757 H   0  0  0  0  0  0  0  0  0  0  0  0
   -3.3449   -1.8968    3.0161 H   0  0  0  0  0  0  0  0  0  0  0  0
    1.3358   -3.0623   -1.0177 H   0  0  0  0  0  0  0  0  0  0  0  0
    4.5534    1.2435    0.4329 H   0  0  0  0  0  0  0  0  0  0  0  0
    3.7000   -3.4637   -0.7435 H   0  0  0  0  0  0  0  0  0  0  0  0
   -4.8789   -3.4263    2.5825 H   0  0  0  0  0  0  0  0  0  0  0  0
    6.3392   -0.2924    0.4064 H   0  0  0  0  0  0  0  0  0  0  0  0
    4.4327    3.0037    2.1079 H   0  0  0  0  0  0  0  0  0  0  0  0
    3.2287    1.7455    2.4839 H   0  0  0  0  0  0  0  0  0  0  0  0
    2.7796    3.4730    2.5451 H   0  0  0  0  0  0  0  0  0  0  0  0
    5.8591   -3.7254   -0.4673 H   0  0  0  0  0  0  0  0  0  0  0  0
  1 12  1  0  0  0  0
  1 13  1  0  0  0  0
  2 12  2  0  0  0  0
  3 19  1  0  0  0  0
  3 30  1  0  0  0  0
  4 23  1  0  0  0  0
  4 43  1  0  0  0  0
  5 29  1  0  0  0  0
  5 48  1  0  0  0  0
  6  7  1  0  0  0  0
  6  8  1  0  0  0  0
  6  9  1  0  0  0  0
  6 12  1  0  0  0  0
  7 10  1  0  0  0  0
  7 31  1  0  0  0  0
  7 32  1  0  0  0  0
  8 11  2  0  0  0  0
  8 15  1  0  0  0  0
  9 13  1  0  0  0  0
  9 14  2  0  0  0  0
 10 11  1  0  0  0  0
 10 33  1  0  0  0  0
 10 34  1  0  0  0  0
 11 17  1  0  0  0  0
 13 18  2  0  0  0  0
 14 16  1  0  0  0  0
 14 20  1  0  0  0  0
 15 21  2  0  0  0  0
 15 35  1  0  0  0  0
 16 19  2  0  0  0  0
 16 22  1  0  0  0  0
 17 23  2  0  0  0  0
 17 36  1  0  0  0  0
 18 19  1  0  0  0  0
 18 37  1  0  0  0  0
 20 25  2  0  0  0  0
 20 38  1  0  0  0  0
 21 23  1  0  0  0  0
 21 39  1  0  0  0  0
 22 24  2  0  0  0  0
 22 26  1  0  0  0  0
 24 25  1  0  0  0  0
 24 27  1  0  0  0  0
 25 40  1  0  0  0  0
 26 28  2  0  0  0  0
 26 41  1  0  0  0  0
 27 29  2  0  0  0  0
 27 42  1  0  0  0  0
 28 29  1  0  0  0  0
 28 44  1  0  0  0  0
 30 45  1  0  0  0  0
 30 46  1  0  0  0  0
 30 47  1  0  0  0  0
M  END
> <PUBCHEM_COMPOUND_CID>
102440970

> <PUBCHEM_CONFORMER_RMSD>
0.6

> <PUBCHEM_CONFORMER_DIVERSEORDER>
1
2

> <PUBCHEM_MMFF94_PARTIAL_CHARGES>
36
1 -0.23
10 0.14
11 -0.14
12 0.66
13 0.08
15 -0.15
17 -0.15
18 -0.15
19 0.08
2 -0.57
20 -0.15
21 -0.15
23 0.08
25 -0.15
26 -0.15
27 -0.15
28 -0.15
29 0.08
3 -0.36
30 0.28
35 0.15
36 0.15
37 0.15
38 0.15
39 0.15
4 -0.53
40 0.15
41 0.15
42 0.15
43 0.45
44 0.15
48 0.45
5 -0.53
6 0.35
8 -0.14
9 -0.14

> <PUBCHEM_EFFECTIVE_ROTOR_COUNT>
1.6

> <PUBCHEM_PHARMACOPHORE_FEATURES>
10
1 2 acceptor
1 3 acceptor
1 4 donor
1 5 donor
5 1 6 9 12 13 rings
5 6 7 8 10 11 rings
6 14 16 20 22 24 25 rings
6 22 24 26 27 28 29 rings
6 8 11 15 17 21 23 rings
6 9 13 14 16 18 19 rings

> <PUBCHEM_HEAVY_ATOM_COUNT>
30

> <PUBCHEM_ATOM_DEF_STEREO_COUNT>
0

> <PUBCHEM_ATOM_UDEF_STEREO_COUNT>
1

> <PUBCHEM_BOND_DEF_STEREO_COUNT>
0

> <PUBCHEM_BOND_UDEF_STEREO_COUNT>
0

> <PUBCHEM_ISOTOPIC_ATOM_COUNT>
0

> <PUBCHEM_COMPONENT_COUNT>
1

> <PUBCHEM_CACTVS_TAUTO_COUNT>
70

> <PUBCHEM_CONFORMER_ID>
061B200A00000001

> <PUBCHEM_MMFF94_ENERGY>
118.5435

> <PUBCHEM_FEATURE_SELFOVERLAP>
50.983

> <PUBCHEM_SHAPE_FINGERPRINT>
10622 236 17199637969719601871
10675989 125 16753806461517150260
10906281 52 17842004286204533197
1100329 8 16394370582778832200
11135609 12 18187652431037552953
11963148 33 17902509625366067810
12422481 6 17489319550484171230
12788726 201 17765143978316189600
13140716 1 18343303634703203345
13224815 77 18413669123379507388
13540713 4 18337941363828772741
13544653 18 18410295808799405350
14020679 6 18264779748842846089
14223421 5 18411699898091246037
14950920 106 17916880117739205907
14955137 171 17845951640859871350
15196674 1 18342450397185358636
15475509 84 17916886646231959969
18393751 57 17478596262845500136
18927931 339 18269840822240173678
19591789 44 18342170073143656892
19611394 137 18334857269095642306
20101258 96 18342178808806807228
20721686 56 18341600517746786064
21033650 10 16660354858146339229
221490 88 18411699881248831092
22182313 1 18265034981268729860
22440779 20 16618490849824417326
23559900 14 18334287678062594549
3178227 256 17906746795788461929
329604 57 18333740121767665470
335352 9 18198899206386702349
3380486 145 17975136753773805587
350125 39 18342458166385837356
4015057 19 18129079174630774597
4073 2 18263647273657583882
4616759 239 17771047312660439354
484985 159 18260553273585500459
5104073 3 18341889650507787272
5309563 4 18338520845396068523
5486654 36 18340773636993362169
6669772 16 17834690657723108380
9709674 26 18410285913300581493

> <PUBCHEM_SHAPE_MULTIPOLES>
588.04
11.09
3.93
1.5
5.84
1.1
0.2
-9.2
1.65
0.61
1.06
-1.74
-0.26
2.9

> <PUBCHEM_SHAPE_SELFOVERLAP>
1361.978

> <PUBCHEM_SHAPE_VOLUME>
302.5

> <PUBCHEM_COORDINATE_TYPE>
2
5
10

$$$$
