87579595
  -OEChem-09172004263D

 76 80  0     0  0  0  0  0  0999 V2000
    5.1479   -0.4841    1.9289 O   0  0  0  0  0  0  0  0  0  0  0  0
    1.9165   -3.9252    2.5058 O   0  0  0  0  0  0  0  0  0  0  0  0
   -1.3938    5.5434   -0.6079 O   0  0  0  0  0  0  0  0  0  0  0  0
    5.9982    1.5517   -4.0496 O   0  0  0  0  0  0  0  0  0  0  0  0
   -1.7566   -3.5363   -3.8055 O   0  0  0  0  0  0  0  0  0  0  0  0
   -6.2173   -2.5672   -1.0695 O   0  0  0  0  0  0  0  0  0  0  0  0
    1.5536   -0.5162    1.2057 C   0  0  0  0  0  0  0  0  0  0  0  0
    0.4834    0.3972    0.6596 C   0  0  0  0  0  0  0  0  0  0  0  0
    2.8689   -0.0641    1.3120 C   0  0  0  0  0  0  0  0  0  0  0  0
    1.2272   -1.8122    1.6052 C   0  0  0  0  0  0  0  0  0  0  0  0
    0.0154    1.4590    1.6746 C   0  0  0  0  0  0  0  0  0  0  0  0
    3.2274    1.3241    0.8856 C   0  0  0  0  0  0  0  0  0  0  0  0
   -0.1806   -2.3050    1.4941 C   0  0  0  0  0  0  0  0  0  0  0  0
    3.8578   -0.9080    1.8175 C   0  0  0  0  0  0  0  0  0  0  0  0
    2.2161   -2.6561    2.1109 C   0  0  0  0  0  0  0  0  0  0  0  0
   -1.0573    2.3592    1.1620 C   0  0  0  0  0  0  0  0  0  0  0  0
    3.5313   -2.2040    2.2171 C   0  0  0  0  0  0  0  0  0  0  0  0
    3.9680    1.3855   -0.4332 C   0  0  0  0  0  0  0  0  0  0  0  0
   -0.6023   -2.6341    0.0781 C   0  0  0  0  0  0  0  0  0  0  0  0
   -2.3981    2.0156    1.3353 C   0  0  0  0  0  0  0  0  0  0  0  0
   -3.4014    2.8575    0.8556 C   0  0  0  0  0  0  0  0  0  0  0  0
   -0.7198    3.5447    0.5092 C   0  0  0  0  0  0  0  0  0  0  0  0
   -4.8583    2.4842    1.0435 C   0  0  0  0  0  0  0  0  0  0  0  0
   -1.7231    4.3867    0.0293 C   0  0  0  0  0  0  0  0  0  0  0  0
   -3.0638    4.0430    0.2026 C   0  0  0  0  0  0  0  0  0  0  0  0
    5.2165    2.0034   -0.5043 C   0  0  0  0  0  0  0  0  0  0  0  0
    3.4017    0.8234   -1.5773 C   0  0  0  0  0  0  0  0  0  0  0  0
    0.1307   -3.5542   -0.6715 C   0  0  0  0  0  0  0  0  0  0  0  0
   -1.7233   -2.0174   -0.4776 C   0  0  0  0  0  0  0  0  0  0  0  0
   -5.2178    1.1493    0.4847 C   0  0  0  0  0  0  0  0  0  0  0  0
    5.8986    2.0595   -1.7197 C   0  0  0  0  0  0  0  0  0  0  0  0
    4.0837    0.8796   -2.7927 C   0  0  0  0  0  0  0  0  0  0  0  0
   -0.2573   -3.8577   -1.9764 C   0  0  0  0  0  0  0  0  0  0  0  0
   -2.1114   -2.3208   -1.7824 C   0  0  0  0  0  0  0  0  0  0  0  0
    6.0919   -1.4141    2.4561 C   0  0  0  0  0  0  0  0  0  0  0  0
    5.3321    1.4976   -2.8639 C   0  0  0  0  0  0  0  0  0  0  0  0
   -1.3784   -3.2409   -2.5318 C   0  0  0  0  0  0  0  0  0  0  0  0
   -5.4103    0.9964   -0.8884 C   0  0  0  0  0  0  0  0  0  0  0  0
   -5.3613    0.0533    1.3354 C   0  0  0  0  0  0  0  0  0  0  0  0
   -5.7465   -0.2525   -1.4107 C   0  0  0  0  0  0  0  0  0  0  0  0
   -5.6976   -1.1956    0.8133 C   0  0  0  0  0  0  0  0  0  0  0  0
   -5.8902   -1.3485   -0.5597 C   0  0  0  0  0  0  0  0  0  0  0  0
   -0.3931   -0.1212    0.2976 H   0  0  0  0  0  0  0  0  0  0  0  0
    0.8389    0.8977   -0.2466 H   0  0  0  0  0  0  0  0  0  0  0  0
    0.8364    2.0669    2.0681 H   0  0  0  0  0  0  0  0  0  0  0  0
   -0.3638    0.9388    2.5664 H   0  0  0  0  0  0  0  0  0  0  0  0
    3.8399    1.7736    1.6802 H   0  0  0  0  0  0  0  0  0  0  0  0
    2.3928    2.0174    0.7910 H   0  0  0  0  0  0  0  0  0  0  0  0
   -0.8625   -1.5743    1.9495 H   0  0  0  0  0  0  0  0  0  0  0  0
   -0.3406   -3.2073    2.0988 H   0  0  0  0  0  0  0  0  0  0  0  0
    4.2567   -2.9041    2.6171 H   0  0  0  0  0  0  0  0  0  0  0  0
   -2.6518    1.0943    1.8531 H   0  0  0  0  0  0  0  0  0  0  0  0
    0.3258    3.8105    0.3728 H   0  0  0  0  0  0  0  0  0  0  0  0
   -5.5084    3.2431    0.5874 H   0  0  0  0  0  0  0  0  0  0  0  0
   -5.0843    2.5290    2.1174 H   0  0  0  0  0  0  0  0  0  0  0  0
   -3.8394    4.7048   -0.1748 H   0  0  0  0  0  0  0  0  0  0  0  0
    5.6705    2.4452    0.3786 H   0  0  0  0  0  0  0  0  0  0  0  0
    2.4388    0.3263   -1.5576 H   0  0  0  0  0  0  0  0  0  0  0  0
    1.0007   -4.0540   -0.2559 H   0  0  0  0  0  0  0  0  0  0  0  0
   -2.3182   -1.3122    0.0969 H   0  0  0  0  0  0  0  0  0  0  0  0
    2.7242   -4.3621    2.8254 H   0  0  0  0  0  0  0  0  0  0  0  0
    6.8710    2.5419   -1.7689 H   0  0  0  0  0  0  0  0  0  0  0  0
    3.6330    0.4359   -3.6765 H   0  0  0  0  0  0  0  0  0  0  0  0
    0.3209   -4.5777   -2.5492 H   0  0  0  0  0  0  0  0  0  0  0  0
   -2.9864   -1.8395   -2.2098 H   0  0  0  0  0  0  0  0  0  0  0  0
    5.8584   -1.6849    3.4915 H   0  0  0  0  0  0  0  0  0  0  0  0
    7.0638   -0.9097    2.4730 H   0  0  0  0  0  0  0  0  0  0  0  0
    6.2021   -2.2901    1.8078 H   0  0  0  0  0  0  0  0  0  0  0  0
   -5.3012    1.8425   -1.5617 H   0  0  0  0  0  0  0  0  0  0  0  0
   -5.2132    0.1569    2.4071 H   0  0  0  0  0  0  0  0  0  0  0  0
   -0.4248    5.6215   -0.6391 H   0  0  0  0  0  0  0  0  0  0  0  0
   -5.8941   -0.3659   -2.4812 H   0  0  0  0  0  0  0  0  0  0  0  0
   -5.8053   -2.0418    1.4865 H   0  0  0  0  0  0  0  0  0  0  0  0
    5.4611    1.1149   -4.7328 H   0  0  0  0  0  0  0  0  0  0  0  0
   -1.1379   -4.1899   -4.1743 H   0  0  0  0  0  0  0  0  0  0  0  0
   -6.2709   -3.2094   -0.3409 H   0  0  0  0  0  0  0  0  0  0  0  0
  1 14  1  0  0  0  0
  1 35  1  0  0  0  0
  2 15  1  0  0  0  0
  2 61  1  0  0  0  0
  3 24  1  0  0  0  0
  3 71  1  0  0  0  0
  4 36  1  0  0  0  0
  4 74  1  0  0  0  0
  5 37  1  0  0  0  0
  5 75  1  0  0  0  0
  6 42  1  0  0  0  0
  6 76  1  0  0  0  0
  7  8  1  0  0  0  0
  7  9  1  0  0  0  0
  7 10  2  0  0  0  0
  8 11  1  0  0  0  0
  8 43  1  0  0  0  0
  8 44  1  0  0  0  0
  9 12  1  0  0  0  0
  9 14  2  0  0  0  0
 10 13  1  0  0  0  0
 10 15  1  0  0  0  0
 11 16  1  0  0  0  0
 11 45  1  0  0  0  0
 11 46  1  0  0  0  0
 12 18  1  0  0  0  0
 12 47  1  0  0  0  0
 12 48  1  0  0  0  0
 13 19  1  0  0  0  0
 13 49  1  0  0  0  0
 13 50  1  0  0  0  0
 14 17  1  0  0  0  0
 15 17  2  0  0  0  0
 16 20  2  0  0  0  0
 16 22  1  0  0  0  0
 17 51  1  0  0  0  0
 18 26  2  0  0  0  0
 18 27  1  0  0  0  0
 19 28  2  0  0  0  0
 19 29  1  0  0  0  0
 20 21  1  0  0  0  0
 20 52  1  0  0  0  0
 21 23  1  0  0  0  0
 21 25  2  0  0  0  0
 22 24  2  0  0  0  0
 22 53  1  0  0  0  0
 23 30  1  0  0  0  0
 23 54  1  0  0  0  0
 23 55  1  0  0  0  0
 24 25  1  0  0  0  0
 25 56  1  0  0  0  0
 26 31  1  0  0  0  0
 26 57  1  0  0  0  0
 27 32  2  0  0  0  0
 27 58  1  0  0  0  0
 28 33  1  0  0  0  0
 28 59  1  0  0  0  0
 29 34  2  0  0  0  0
 29 60  1  0  0  0  0
 30 38  2  0  0  0  0
 30 39  1  0  0  0  0
 31 36  2  0  0  0  0
 31 62  1  0  0  0  0
 32 36  1  0  0  0  0
 32 63  1  0  0  0  0
 33 37  2  0  0  0  0
 33 64  1  0  0  0  0
 34 37  1  0  0  0  0
 34 65  1  0  0  0  0
 35 66  1  0  0  0  0
 35 67  1  0  0  0  0
 35 68  1  0  0  0  0
 38 40  1  0  0  0  0
 38 69  1  0  0  0  0
 39 41  2  0  0  0  0
 39 70  1  0  0  0  0
 40 42  2  0  0  0  0
 40 72  1  0  0  0  0
 41 42  1  0  0  0  0
 41 73  1  0  0  0  0
M  END
> <PUBCHEM_COMPOUND_CID>
87579595

> <PUBCHEM_CONFORMER_RMSD>
1.4

> <PUBCHEM_CONFORMER_DIVERSEORDER>
1
95
138
19
136
135
51
147
116
120
22
65
176
122
78
89
96
130
35
163
86
10
98
119
5
167
146
179
171
131
174
34
166
90
173
48
80
114
21
154
40
3
77
153
81
66
180
2
4
168
107
144
79
109
177
186
55
61
83
11
46
150
172
152
6
76
23
49
67
178
56
113
106
184
127
142
101
27
29
175
121
93
30
8
143
57
43
128
50
104
155
170
161
13
159
52
183
97
7
85
117
115
149
111
17
181
28
151
160
108
125
102
141
156
71
60
148
137
54
44
165
134
185
14
45
84
37
133
12
68
139
182
70
162
41
38
74
123
100
105
91
62
158
87
39
164
73
92
58
112
32
145
103
88
63
42
33
140
24
75
132
16
64
129
72
31
25
47
169
59
82
26
36
124
20
69
157
99
126
9
110
15
94
118
53
18

> <PUBCHEM_MMFF94_PARTIAL_CHARGES>
63
1 -0.36
10 -0.14
11 0.14
12 0.29
13 0.29
14 0.08
15 0.08
16 -0.14
17 -0.15
18 -0.14
19 -0.14
2 -0.53
20 -0.15
21 -0.14
22 -0.15
23 0.29
24 0.08
25 -0.15
26 -0.15
27 -0.15
28 -0.15
29 -0.15
3 -0.53
30 -0.14
31 -0.15
32 -0.15
33 -0.15
34 -0.15
35 0.28
36 0.08
37 0.08
38 -0.15
39 -0.15
4 -0.53
40 -0.15
41 -0.15
42 0.08
5 -0.53
51 0.15
52 0.15
53 0.15
56 0.15
57 0.15
58 0.15
59 0.15
6 -0.53
60 0.15
61 0.45
62 0.15
63 0.15
64 0.15
65 0.15
69 0.15
7 -0.14
70 0.15
71 0.45
72 0.15
73 0.15
74 0.45
75 0.45
76 0.45
8 0.14
9 -0.14

> <PUBCHEM_EFFECTIVE_ROTOR_COUNT>
10

> <PUBCHEM_PHARMACOPHORE_FEATURES>
11
1 1 acceptor
1 2 donor
1 3 donor
1 4 donor
1 5 donor
1 6 donor
6 16 20 21 22 24 25 rings
6 18 26 27 31 32 36 rings
6 19 28 29 33 34 37 rings
6 30 38 39 40 41 42 rings
6 7 9 10 14 15 17 rings

> <PUBCHEM_HEAVY_ATOM_COUNT>
42

> <PUBCHEM_ATOM_DEF_STEREO_COUNT>
0

> <PUBCHEM_ATOM_UDEF_STEREO_COUNT>
0

> <PUBCHEM_BOND_DEF_STEREO_COUNT>
0

> <PUBCHEM_BOND_UDEF_STEREO_COUNT>
0

> <PUBCHEM_ISOTOPIC_ATOM_COUNT>
0

> <PUBCHEM_COMPONENT_COUNT>
1

> <PUBCHEM_CACTVS_TAUTO_COUNT>
998

> <PUBCHEM_CONFORMER_ID>
05385BCB00000001

> <PUBCHEM_MMFF94_ENERGY>
133.9542

> <PUBCHEM_FEATURE_SELFOVERLAP>
55.826

> <PUBCHEM_SHAPE_FINGERPRINT>
10190206 1 18263944252938868476
12160290 23 18272381892538182202
12633046 712 17971735921122616187
12788726 201 18412545435444281448
13383661 66 17631749278019848527
13782708 43 16128667322789898636
14117953 113 18059567058424028471
14705955 166 12035997058535307724
14840074 17 18341901779733152049
15328829 1 18261104180582044298
15968369 153 18269546303225777994
15975801 100 18410581647584877324
19319366 153 18260257581781828042
20764821 26 17844233031076281175
25223398 141 18199456667687813152
3493558 16 16589448577299814395
437795 70 17916032432828169167
4403749 210 17984671507560454865
6036956 94 18187929422570079485
6608658 132 18340483469620016543
9831354 38 17907023133403616101

> <PUBCHEM_SHAPE_MULTIPOLES>
829.12
14.39
6.12
3.28
1.66
1.78
2.45
3.95
3.57
3.67
1.41
-5.14
-2.09
-6.12

> <PUBCHEM_SHAPE_SELFOVERLAP>
1819.886

> <PUBCHEM_SHAPE_VOLUME>
445

> <PUBCHEM_COORDINATE_TYPE>
2
5
10

$$$$
