102316584
  -OEChem-09172004153D

 62 65  0     0  0  0  0  0  0999 V2000
    1.5570    0.0077   -3.0756 O   0  0  0  0  0  0  0  0  0  0  0  0
   -1.0283    2.0369    0.4047 O   0  0  0  0  0  0  0  0  0  0  0  0
    3.8282   -1.7050    1.6359 O   0  0  0  0  0  0  0  0  0  0  0  0
   -7.3383    1.4037   -0.0996 O   0  0  0  0  0  0  0  0  0  0  0  0
    4.7340    4.2686    1.9569 O   0  0  0  0  0  0  0  0  0  0  0  0
   -0.7761   -1.4533   -0.6737 C   0  0  0  0  0  0  0  0  0  0  0  0
   -1.1683   -0.3205    0.0396 C   0  0  0  0  0  0  0  0  0  0  0  0
   -1.3209   -2.8029   -0.3365 C   0  0  0  0  0  0  0  0  0  0  0  0
    0.2718    1.0454   -1.3377 C   0  0  0  0  0  0  0  0  0  0  0  0
   -0.6443    0.9289   -0.2925 C   0  0  0  0  0  0  0  0  0  0  0  0
   -2.1626   -0.4436    1.1768 C   0  0  0  0  0  0  0  0  0  0  0  0
   -0.7076   -3.4262    0.9317 C   0  0  0  0  0  0  0  0  0  0  0  0
    0.1399   -1.3366   -1.7189 C   0  0  0  0  0  0  0  0  0  0  0  0
    0.6639   -0.0872   -2.0511 C   0  0  0  0  0  0  0  0  0  0  0  0
    0.8349    2.3837   -1.6945 C   0  0  0  0  0  0  0  0  0  0  0  0
   -3.5307    0.0446    0.8401 C   0  0  0  0  0  0  0  0  0  0  0  0
    0.7911   -3.5872    0.8512 C   0  0  0  0  0  0  0  0  0  0  0  0
    1.8770    2.8880   -0.7189 C   0  0  0  0  0  0  0  0  0  0  0  0
   -4.2183   -0.5013   -0.2439 C   0  0  0  0  0  0  0  0  0  0  0  0
   -4.1227    1.0472    1.6082 C   0  0  0  0  0  0  0  0  0  0  0  0
    1.6276   -2.5594    1.2863 C   0  0  0  0  0  0  0  0  0  0  0  0
    1.3392   -4.7641    0.3411 C   0  0  0  0  0  0  0  0  0  0  0  0
    3.0058    2.1162   -0.4441 C   0  0  0  0  0  0  0  0  0  0  0  0
    1.7083    4.1239   -0.0945 C   0  0  0  0  0  0  0  0  0  0  0  0
   -5.4980   -0.0449   -0.5595 C   0  0  0  0  0  0  0  0  0  0  0  0
   -5.4023    1.5037    1.2926 C   0  0  0  0  0  0  0  0  0  0  0  0
    3.0124   -2.7084    1.2112 C   0  0  0  0  0  0  0  0  0  0  0  0
    2.7240   -4.9130    0.2660 C   0  0  0  0  0  0  0  0  0  0  0  0
   -6.0900    0.9576    0.2088 C   0  0  0  0  0  0  0  0  0  0  0  0
    1.9006   -1.2015   -3.7495 C   0  0  0  0  0  0  0  0  0  0  0  0
    3.9662    2.5802    0.4548 C   0  0  0  0  0  0  0  0  0  0  0  0
    2.6685    4.5880    0.8044 C   0  0  0  0  0  0  0  0  0  0  0  0
    3.5607   -3.8851    0.7009 C   0  0  0  0  0  0  0  0  0  0  0  0
    3.7975    3.8161    1.0790 C   0  0  0  0  0  0  0  0  0  0  0  0
   -2.4092   -2.7838   -0.2357 H   0  0  0  0  0  0  0  0  0  0  0  0
   -1.1456   -3.4878   -1.1781 H   0  0  0  0  0  0  0  0  0  0  0  0
   -1.7529    0.1090    2.0341 H   0  0  0  0  0  0  0  0  0  0  0  0
   -2.2878   -1.4535    1.5627 H   0  0  0  0  0  0  0  0  0  0  0  0
   -1.1646   -4.4123    1.0897 H   0  0  0  0  0  0  0  0  0  0  0  0
   -0.9345   -2.8648    1.8422 H   0  0  0  0  0  0  0  0  0  0  0  0
    0.4117   -2.2497   -2.2375 H   0  0  0  0  0  0  0  0  0  0  0  0
    0.0223    3.1106   -1.8242 H   0  0  0  0  0  0  0  0  0  0  0  0
    1.3074    2.3653   -2.6856 H   0  0  0  0  0  0  0  0  0  0  0  0
   -3.7870   -1.2742   -0.8689 H   0  0  0  0  0  0  0  0  0  0  0  0
   -3.5998    1.4828    2.4554 H   0  0  0  0  0  0  0  0  0  0  0  0
   -0.7394    2.8557   -0.0215 H   0  0  0  0  0  0  0  0  0  0  0  0
    1.2102   -1.6417    1.6930 H   0  0  0  0  0  0  0  0  0  0  0  0
    0.6979   -5.5710   -0.0033 H   0  0  0  0  0  0  0  0  0  0  0  0
    3.1625    1.1553   -0.9255 H   0  0  0  0  0  0  0  0  0  0  0  0
    0.8350    4.7371   -0.2998 H   0  0  0  0  0  0  0  0  0  0  0  0
   -6.0225   -0.4765   -1.4077 H   0  0  0  0  0  0  0  0  0  0  0  0
   -5.8583    2.2851    1.8945 H   0  0  0  0  0  0  0  0  0  0  0  0
    3.1509   -5.8290   -0.1320 H   0  0  0  0  0  0  0  0  0  0  0  0
    2.4050   -1.9075   -3.0807 H   0  0  0  0  0  0  0  0  0  0  0  0
    2.6199   -0.9393   -4.5324 H   0  0  0  0  0  0  0  0  0  0  0  0
    1.0342   -1.6452   -4.2518 H   0  0  0  0  0  0  0  0  0  0  0  0
    4.8418    1.9699    0.6591 H   0  0  0  0  0  0  0  0  0  0  0  0
    2.5317    5.5516    1.2876 H   0  0  0  0  0  0  0  0  0  0  0  0
    4.6378   -4.0134    0.6366 H   0  0  0  0  0  0  0  0  0  0  0  0
    4.7535   -1.9762    1.5088 H   0  0  0  0  0  0  0  0  0  0  0  0
   -7.6638    0.9171   -0.8763 H   0  0  0  0  0  0  0  0  0  0  0  0
    5.4450    3.6086    2.0270 H   0  0  0  0  0  0  0  0  0  0  0  0
  1 14  1  0  0  0  0
  1 30  1  0  0  0  0
  2 10  1  0  0  0  0
  2 46  1  0  0  0  0
  3 27  1  0  0  0  0
  3 60  1  0  0  0  0
  4 29  1  0  0  0  0
  4 61  1  0  0  0  0
  5 34  1  0  0  0  0
  5 62  1  0  0  0  0
  6  7  1  0  0  0  0
  6  8  1  0  0  0  0
  6 13  2  0  0  0  0
  7 10  2  0  0  0  0
  7 11  1  0  0  0  0
  8 12  1  0  0  0  0
  8 35  1  0  0  0  0
  8 36  1  0  0  0  0
  9 10  1  0  0  0  0
  9 14  2  0  0  0  0
  9 15  1  0  0  0  0
 11 16  1  0  0  0  0
 11 37  1  0  0  0  0
 11 38  1  0  0  0  0
 12 17  1  0  0  0  0
 12 39  1  0  0  0  0
 12 40  1  0  0  0  0
 13 14  1  0  0  0  0
 13 41  1  0  0  0  0
 15 18  1  0  0  0  0
 15 42  1  0  0  0  0
 15 43  1  0  0  0  0
 16 19  2  0  0  0  0
 16 20  1  0  0  0  0
 17 21  2  0  0  0  0
 17 22  1  0  0  0  0
 18 23  2  0  0  0  0
 18 24  1  0  0  0  0
 19 25  1  0  0  0  0
 19 44  1  0  0  0  0
 20 26  2  0  0  0  0
 20 45  1  0  0  0  0
 21 27  1  0  0  0  0
 21 47  1  0  0  0  0
 22 28  2  0  0  0  0
 22 48  1  0  0  0  0
 23 31  1  0  0  0  0
 23 49  1  0  0  0  0
 24 32  2  0  0  0  0
 24 50  1  0  0  0  0
 25 29  2  0  0  0  0
 25 51  1  0  0  0  0
 26 29  1  0  0  0  0
 26 52  1  0  0  0  0
 27 33  2  0  0  0  0
 28 33  1  0  0  0  0
 28 53  1  0  0  0  0
 30 54  1  0  0  0  0
 30 55  1  0  0  0  0
 30 56  1  0  0  0  0
 31 34  2  0  0  0  0
 31 57  1  0  0  0  0
 32 34  1  0  0  0  0
 32 58  1  0  0  0  0
 33 59  1  0  0  0  0
M  END
> <PUBCHEM_COMPOUND_CID>
102316584

> <PUBCHEM_CONFORMER_RMSD>
1

> <PUBCHEM_CONFORMER_DIVERSEORDER>
2
15
154
40
161
194
12
206
193
18
201
144
113
34
120
156
71
198
132
54
208
31
168
97
157
5
145
108
197
128
28
79
133
105
100
85
178
60
189
84
123
26
1
180
137
148
188
81
200
75
80
179
175
167
149
199
91
181
67
214
185
72
106
204
138
158
42
151
186
176
139
210
68
9
164
126
29
116
163
202
39
74
33
183
135
21
130
20
173
27
6
205
62
92
187
207
99
127
87
8
109
95
121
45
150
119
57
171
191
215
96
102
131
44
3
140
48
63
165
7
159
190
17
56
16
196
184
125
160
14
129
43
88
23
66
73
50
141
76
90
162
59
55
51
83
172
170
46
209
195
49
136
94
213
107
22
146
53
61
82
122
118
134
58
153
25
124
155
177
35
38
10
182
47
69
4
70
212
110
211
65
13
77
64
98
111
89
203
142
52
11
152
166
93
24
103
174
112
19
115
104
86
36
101
114
143
117
147
192
37
78
169
32
41
30

> <PUBCHEM_MMFF94_PARTIAL_CHARGES>
51
1 -0.36
10 0.08
11 0.29
12 0.14
13 -0.15
14 0.08
15 0.29
16 -0.14
17 -0.14
18 -0.14
19 -0.15
2 -0.53
20 -0.15
21 -0.15
22 -0.15
23 -0.15
24 -0.15
25 -0.15
26 -0.15
27 0.08
28 -0.15
29 0.08
3 -0.53
30 0.28
31 -0.15
32 -0.15
33 -0.15
34 0.08
4 -0.53
41 0.15
44 0.15
45 0.15
46 0.45
47 0.15
48 0.15
49 0.15
5 -0.53
50 0.15
51 0.15
52 0.15
53 0.15
57 0.15
58 0.15
59 0.15
6 -0.14
60 0.45
61 0.45
62 0.45
7 -0.14
8 0.14
9 -0.14

> <PUBCHEM_EFFECTIVE_ROTOR_COUNT>
8

> <PUBCHEM_PHARMACOPHORE_FEATURES>
9
1 1 acceptor
1 2 donor
1 3 donor
1 4 donor
1 5 donor
6 16 19 20 25 26 29 rings
6 17 21 22 27 28 33 rings
6 18 23 24 31 32 34 rings
6 6 7 9 10 13 14 rings

> <PUBCHEM_HEAVY_ATOM_COUNT>
34

> <PUBCHEM_ATOM_DEF_STEREO_COUNT>
0

> <PUBCHEM_ATOM_UDEF_STEREO_COUNT>
0

> <PUBCHEM_BOND_DEF_STEREO_COUNT>
0

> <PUBCHEM_BOND_UDEF_STEREO_COUNT>
0

> <PUBCHEM_ISOTOPIC_ATOM_COUNT>
0

> <PUBCHEM_COMPONENT_COUNT>
1

> <PUBCHEM_CACTVS_TAUTO_COUNT>
998

> <PUBCHEM_CONFORMER_ID>
06193A2800000002

> <PUBCHEM_MMFF94_ENERGY>
109.1756

> <PUBCHEM_FEATURE_SELFOVERLAP>
45.674

> <PUBCHEM_SHAPE_FINGERPRINT>
10074138 170 17764294433727317337
10305334 12 18195798794740159704
11115154 58 17757835525227936657
11331351 85 17474401171135199183
11552529 35 16964357470473685434
11582403 64 17986671673861492693
11763715 3 17762634888244147827
12156800 1 16977895805002612874
12160290 23 17262192587874045429
12422481 6 17241307183762470172
12655364 131 17836886283679900456
12677640 9 18194400224060119314
12788726 201 17256839709681816567
13165053 371 18122898742946788481
13782708 43 16373296536247885043
14705955 166 16683981494975780080
14950920 106 17329690533215526888
14955137 171 18118132372693360851
15439362 3 18409442579809140265
15927050 60 18267022932477608743
17980427 23 17912924985925631121
17980427 26 18411415142165340309
21304303 282 18052246599446462111
23419403 2 17605535696394490447
23559900 14 17845111630644365309
376196 1 17915754273366108037
469060 322 17763978611823345690
5171179 24 18118671133380044853
59444896 2 17773286098037168303
6371380 46 18339931532153094324
67856867 119 18410293576360513923
79837 15 17831300866867177851
9896288 288 17832709345910663354
9981440 41 17557997417582288557

> <PUBCHEM_SHAPE_MULTIPOLES>
670.36
10.19
7.28
2.23
19.34
1.53
-2.09
-7.12
4.13
-12.65
3.28
-1.78
0.04
0.14

> <PUBCHEM_SHAPE_SELFOVERLAP>
1466.408

> <PUBCHEM_SHAPE_VOLUME>
361.3

> <PUBCHEM_COORDINATE_TYPE>
2
5
10

$$$$
