11282492
  -OEChem-09172006293D

 62 65  0     0  0  0  0  0  0999 V2000
    3.5126    1.1501   -2.1832 O   0  0  0  0  0  0  0  0  0  0  0  0
   -0.6408    3.4480   -2.4795 O   0  0  0  0  0  0  0  0  0  0  0  0
   -5.1188   -4.0620    0.4723 O   0  0  0  0  0  0  0  0  0  0  0  0
    5.5249   -0.1834    3.6921 O   0  0  0  0  0  0  0  0  0  0  0  0
   -3.4786    4.7837    3.0503 O   0  0  0  0  0  0  0  0  0  0  0  0
    0.1657    0.1683   -1.0519 C   0  0  0  0  0  0  0  0  0  0  0  0
    1.5381    0.1171   -1.2966 C   0  0  0  0  0  0  0  0  0  0  0  0
   -0.5151   -0.9736   -0.3658 C   0  0  0  0  0  0  0  0  0  0  0  0
   -0.5522    1.2835   -1.4504 C   0  0  0  0  0  0  0  0  0  0  0  0
    2.3363   -1.0758   -0.8761 C   0  0  0  0  0  0  0  0  0  0  0  0
   -1.0439   -2.0532   -1.3278 C   0  0  0  0  0  0  0  0  0  0  0  0
   -2.0435    1.3475   -1.1882 C   0  0  0  0  0  0  0  0  0  0  0  0
    2.1728    1.1818   -1.9363 C   0  0  0  0  0  0  0  0  0  0  0  0
    0.0630    2.3492   -2.0867 C   0  0  0  0  0  0  0  0  0  0  0  0
    1.4352    2.2978   -2.3314 C   0  0  0  0  0  0  0  0  0  0  0  0
   -1.7556   -3.1824   -0.6232 C   0  0  0  0  0  0  0  0  0  0  0  0
    3.1917   -0.8367    0.3498 C   0  0  0  0  0  0  0  0  0  0  0  0
   -2.4226    2.2560   -0.0681 C   0  0  0  0  0  0  0  0  0  0  0  0
   -3.1209   -3.0926   -0.4029 C   0  0  0  0  0  0  0  0  0  0  0  0
    4.5031   -1.2784    0.3537 C   0  0  0  0  0  0  0  0  0  0  0  0
    2.6435   -0.1814    1.4380 C   0  0  0  0  0  0  0  0  0  0  0  0
   -1.0306   -4.2886   -0.2090 C   0  0  0  0  0  0  0  0  0  0  0  0
   -3.4925    3.1383   -0.2177 C   0  0  0  0  0  0  0  0  0  0  0  0
   -1.7079    2.2230    1.1293 C   0  0  0  0  0  0  0  0  0  0  0  0
   -3.7784   -4.1362    0.2483 C   0  0  0  0  0  0  0  0  0  0  0  0
    5.2917   -1.0575    1.4828 C   0  0  0  0  0  0  0  0  0  0  0  0
    3.4323    0.0395    2.5672 C   0  0  0  0  0  0  0  0  0  0  0  0
   -1.6881   -5.3322    0.4423 C   0  0  0  0  0  0  0  0  0  0  0  0
   -3.8478    3.9877    0.8302 C   0  0  0  0  0  0  0  0  0  0  0  0
   -2.0633    3.0722    2.1771 C   0  0  0  0  0  0  0  0  0  0  0  0
    3.9289    0.5899   -3.4268 C   0  0  0  0  0  0  0  0  0  0  0  0
    4.7564   -0.3985    2.5896 C   0  0  0  0  0  0  0  0  0  0  0  0
   -3.1333    3.9547    2.0276 C   0  0  0  0  0  0  0  0  0  0  0  0
   -3.0620   -5.2560    0.6710 C   0  0  0  0  0  0  0  0  0  0  0  0
    0.1378   -1.4372    0.3825 H   0  0  0  0  0  0  0  0  0  0  0  0
   -1.3283   -0.6236    0.2800 H   0  0  0  0  0  0  0  0  0  0  0  0
    2.9794   -1.3684   -1.7160 H   0  0  0  0  0  0  0  0  0  0  0  0
    1.7474   -1.9819   -0.7106 H   0  0  0  0  0  0  0  0  0  0  0  0
   -0.2205   -2.4647   -1.9264 H   0  0  0  0  0  0  0  0  0  0  0  0
   -1.7242   -1.6053   -2.0642 H   0  0  0  0  0  0  0  0  0  0  0  0
   -2.5050    0.3724   -1.0111 H   0  0  0  0  0  0  0  0  0  0  0  0
   -2.5338    1.6567   -2.1228 H   0  0  0  0  0  0  0  0  0  0  0  0
    1.9295    3.1285   -2.8291 H   0  0  0  0  0  0  0  0  0  0  0  0
   -3.6755   -2.2174   -0.7313 H   0  0  0  0  0  0  0  0  0  0  0  0
    4.9301   -1.7931   -0.5019 H   0  0  0  0  0  0  0  0  0  0  0  0
    1.6155    0.1638    1.4560 H   0  0  0  0  0  0  0  0  0  0  0  0
    0.0399   -4.3553   -0.3804 H   0  0  0  0  0  0  0  0  0  0  0  0
   -4.0595    3.1743   -1.1441 H   0  0  0  0  0  0  0  0  0  0  0  0
   -0.8756    1.5439    1.2838 H   0  0  0  0  0  0  0  0  0  0  0  0
   -1.5755    3.3938   -2.2370 H   0  0  0  0  0  0  0  0  0  0  0  0
    6.3224   -1.4014    1.4945 H   0  0  0  0  0  0  0  0  0  0  0  0
    3.0027    0.5523    3.4237 H   0  0  0  0  0  0  0  0  0  0  0  0
   -1.1302   -6.2037    0.7721 H   0  0  0  0  0  0  0  0  0  0  0  0
   -4.6823    4.6728    0.7078 H   0  0  0  0  0  0  0  0  0  0  0  0
   -1.4997    3.0357    3.1056 H   0  0  0  0  0  0  0  0  0  0  0  0
    3.3220   -0.2747   -3.7145 H   0  0  0  0  0  0  0  0  0  0  0  0
    4.9704    0.2718   -3.3285 H   0  0  0  0  0  0  0  0  0  0  0  0
    3.8679    1.3539   -4.2077 H   0  0  0  0  0  0  0  0  0  0  0  0
   -3.5685   -6.0720    1.1791 H   0  0  0  0  0  0  0  0  0  0  0  0
   -5.4519   -3.2207    0.1154 H   0  0  0  0  0  0  0  0  0  0  0  0
    4.9944    0.2843    4.3598 H   0  0  0  0  0  0  0  0  0  0  0  0
   -2.8787    4.6266    3.7997 H   0  0  0  0  0  0  0  0  0  0  0  0
  1 13  1  0  0  0  0
  1 31  1  0  0  0  0
  2 14  1  0  0  0  0
  2 50  1  0  0  0  0
  3 25  1  0  0  0  0
  3 60  1  0  0  0  0
  4 32  1  0  0  0  0
  4 61  1  0  0  0  0
  5 33  1  0  0  0  0
  5 62  1  0  0  0  0
  6  7  1  0  0  0  0
  6  8  1  0  0  0  0
  6  9  2  0  0  0  0
  7 10  1  0  0  0  0
  7 13  2  0  0  0  0
  8 11  1  0  0  0  0
  8 35  1  0  0  0  0
  8 36  1  0  0  0  0
  9 12  1  0  0  0  0
  9 14  1  0  0  0  0
 10 17  1  0  0  0  0
 10 37  1  0  0  0  0
 10 38  1  0  0  0  0
 11 16  1  0  0  0  0
 11 39  1  0  0  0  0
 11 40  1  0  0  0  0
 12 18  1  0  0  0  0
 12 41  1  0  0  0  0
 12 42  1  0  0  0  0
 13 15  1  0  0  0  0
 14 15  2  0  0  0  0
 15 43  1  0  0  0  0
 16 19  2  0  0  0  0
 16 22  1  0  0  0  0
 17 20  2  0  0  0  0
 17 21  1  0  0  0  0
 18 23  2  0  0  0  0
 18 24  1  0  0  0  0
 19 25  1  0  0  0  0
 19 44  1  0  0  0  0
 20 26  1  0  0  0  0
 20 45  1  0  0  0  0
 21 27  2  0  0  0  0
 21 46  1  0  0  0  0
 22 28  2  0  0  0  0
 22 47  1  0  0  0  0
 23 29  1  0  0  0  0
 23 48  1  0  0  0  0
 24 30  2  0  0  0  0
 24 49  1  0  0  0  0
 25 34  2  0  0  0  0
 26 32  2  0  0  0  0
 26 51  1  0  0  0  0
 27 32  1  0  0  0  0
 27 52  1  0  0  0  0
 28 34  1  0  0  0  0
 28 53  1  0  0  0  0
 29 33  2  0  0  0  0
 29 54  1  0  0  0  0
 30 33  1  0  0  0  0
 30 55  1  0  0  0  0
 31 56  1  0  0  0  0
 31 57  1  0  0  0  0
 31 58  1  0  0  0  0
 34 59  1  0  0  0  0
M  END
> <PUBCHEM_COMPOUND_CID>
11282492

> <PUBCHEM_CONFORMER_RMSD>
1

> <PUBCHEM_CONFORMER_DIVERSEORDER>
1
84
73
56
53
41
21
58
28
46
76
52
27
30
66
75
64
72
37
31
40
2
43
32
22
67
24
65
55
49
45
85
6
62
11
20
10
88
54
74
80
15
71
4
87
78
36
9
79
70
16
47
26
33
69
13
61
42
83
23
50
59
63
12
38
82
60
25
48
39
29
17
34
57
81
51
90
68
44
7
77
35
18
5
14
3
19
86
8
89

> <PUBCHEM_MMFF94_PARTIAL_CHARGES>
51
1 -0.36
10 0.29
11 0.14
12 0.29
13 0.08
14 0.08
15 -0.15
16 -0.14
17 -0.14
18 -0.14
19 -0.15
2 -0.53
20 -0.15
21 -0.15
22 -0.15
23 -0.15
24 -0.15
25 0.08
26 -0.15
27 -0.15
28 -0.15
29 -0.15
3 -0.53
30 -0.15
31 0.28
32 0.08
33 0.08
34 -0.15
4 -0.53
43 0.15
44 0.15
45 0.15
46 0.15
47 0.15
48 0.15
49 0.15
5 -0.53
50 0.45
51 0.15
52 0.15
53 0.15
54 0.15
55 0.15
59 0.15
6 -0.14
60 0.45
61 0.45
62 0.45
7 -0.14
8 0.14
9 -0.14

> <PUBCHEM_EFFECTIVE_ROTOR_COUNT>
8

> <PUBCHEM_PHARMACOPHORE_FEATURES>
9
1 1 acceptor
1 2 donor
1 3 donor
1 4 donor
1 5 donor
6 16 19 22 25 28 34 rings
6 17 20 21 26 27 32 rings
6 18 23 24 29 30 33 rings
6 6 7 9 13 14 15 rings

> <PUBCHEM_HEAVY_ATOM_COUNT>
34

> <PUBCHEM_ATOM_DEF_STEREO_COUNT>
0

> <PUBCHEM_ATOM_UDEF_STEREO_COUNT>
0

> <PUBCHEM_BOND_DEF_STEREO_COUNT>
0

> <PUBCHEM_BOND_UDEF_STEREO_COUNT>
0

> <PUBCHEM_ISOTOPIC_ATOM_COUNT>
0

> <PUBCHEM_COMPONENT_COUNT>
1

> <PUBCHEM_CACTVS_TAUTO_COUNT>
320

> <PUBCHEM_CONFORMER_ID>
00AC283C00000001

> <PUBCHEM_MMFF94_ENERGY>
115.6173

> <PUBCHEM_FEATURE_SELFOVERLAP>
45.674

> <PUBCHEM_SHAPE_FINGERPRINT>
10074138 170 18264747926934154059
10258939 38 16700299028835721541
11070050 100 17840031736679416345
12160290 23 18341888593550278327
12293681 160 17038697092273480181
12549972 3 17631742560712083886
12788726 201 18264502847658294967
13540713 5 18041006163284192110
14028597 1 17828204629834785020
14068700 675 17898551314986726450
14705955 166 18058425703948215458
15219462 58 17989199331462633646
16090146 7 18263914471592946487
20775438 99 12848746106705970083
21344244 78 18121209046165746083
22223350 30 18196657294041490606
22889206 1 17331947830053730417
244849 19 17418101962329787894
24893989 43 15375245727763410425
24941158 1 16964646109814692555
345986 75 18190745438835099423
3552219 110 18046050817396463784
376196 1 16699456721419385800
508180 173 15892825725054159717
5223283 242 10942013676656704843
6376802 137 17984387945772865983
7288768 16 17914590801312083392
79837 15 18340485539530677947

> <PUBCHEM_SHAPE_MULTIPOLES>
670.36
9.33
7.84
3.32
8.08
7.39
-0.79
0.97
-6.89
-16.67
-2.54
4.25
-3.56
-3.35

> <PUBCHEM_SHAPE_SELFOVERLAP>
1467.536

> <PUBCHEM_SHAPE_VOLUME>
362.5

> <PUBCHEM_COORDINATE_TYPE>
2
5
10

$$$$
