87098366
  -OEChem-09172006133D

 32 35  0     0  0  0  0  0  0999 V2000
    3.7465    1.1748   -0.0097 O   0  0  0  0  0  0  0  0  0  0  0  0
    1.8564   -0.3909    0.0188 C   0  0  0  0  0  0  0  0  0  0  0  0
    2.7939   -1.5801    0.0293 C   0  0  0  0  0  0  0  0  0  0  0  0
    0.4383   -0.5630   -0.0015 C   0  0  0  0  0  0  0  0  0  0  0  0
    4.2222   -1.1749    0.3678 C   0  0  0  0  0  0  0  0  0  0  0  0
   -0.4244    0.5709    0.0189 C   0  0  0  0  0  0  0  0  0  0  0  0
    2.4025    0.9011    0.0052 C   0  0  0  0  0  0  0  0  0  0  0  0
    4.5756    0.0803   -0.4033 C   0  0  0  0  0  0  0  0  0  0  0  0
   -1.8570    0.3937    0.0099 C   0  0  0  0  0  0  0  0  0  0  0  0
    0.1872    1.8452    0.0466 C   0  0  0  0  0  0  0  0  0  0  0  0
   -0.1535   -1.8387   -0.0450 C   0  0  0  0  0  0  0  0  0  0  0  0
    1.5706    2.0104    0.0377 C   0  0  0  0  0  0  0  0  0  0  0  0
   -2.3929   -0.9171   -0.0276 C   0  0  0  0  0  0  0  0  0  0  0  0
   -1.5346   -2.0133   -0.0568 C   0  0  0  0  0  0  0  0  0  0  0  0
   -2.7982    1.4560    0.0350 C   0  0  0  0  0  0  0  0  0  0  0  0
   -3.7827   -1.1292   -0.0381 C   0  0  0  0  0  0  0  0  0  0  0  0
   -4.1785    1.2345    0.0247 C   0  0  0  0  0  0  0  0  0  0  0  0
   -4.6713   -0.0598   -0.0118 C   0  0  0  0  0  0  0  0  0  0  0  0
    2.4720   -2.3203    0.7702 H   0  0  0  0  0  0  0  0  0  0  0  0
    2.7716   -2.0483   -0.9624 H   0  0  0  0  0  0  0  0  0  0  0  0
    4.2950   -0.9732    1.4442 H   0  0  0  0  0  0  0  0  0  0  0  0
    4.9140   -1.9902    0.1322 H   0  0  0  0  0  0  0  0  0  0  0  0
    5.6116    0.3650   -0.1918 H   0  0  0  0  0  0  0  0  0  0  0  0
    4.4917   -0.0677   -1.4872 H   0  0  0  0  0  0  0  0  0  0  0  0
   -0.4055    2.7560    0.0671 H   0  0  0  0  0  0  0  0  0  0  0  0
    0.4539   -2.7405   -0.0772 H   0  0  0  0  0  0  0  0  0  0  0  0
    1.9875    3.0143    0.0478 H   0  0  0  0  0  0  0  0  0  0  0  0
   -1.9278   -3.0278   -0.0903 H   0  0  0  0  0  0  0  0  0  0  0  0
   -2.4753    2.4935    0.0643 H   0  0  0  0  0  0  0  0  0  0  0  0
   -4.1881   -2.1392   -0.0672 H   0  0  0  0  0  0  0  0  0  0  0  0
   -4.8626    2.0779    0.0452 H   0  0  0  0  0  0  0  0  0  0  0  0
   -5.7420   -0.2385   -0.0202 H   0  0  0  0  0  0  0  0  0  0  0  0
  1  7  1  0  0  0  0
  1  8  1  0  0  0  0
  2  3  1  0  0  0  0
  2  4  1  0  0  0  0
  2  7  2  0  0  0  0
  3  5  1  0  0  0  0
  3 19  1  0  0  0  0
  3 20  1  0  0  0  0
  4  6  2  0  0  0  0
  4 11  1  0  0  0  0
  5  8  1  0  0  0  0
  5 21  1  0  0  0  0
  5 22  1  0  0  0  0
  6  9  1  0  0  0  0
  6 10  1  0  0  0  0
  7 12  1  0  0  0  0
  8 23  1  0  0  0  0
  8 24  1  0  0  0  0
  9 13  1  0  0  0  0
  9 15  2  0  0  0  0
 10 12  2  0  0  0  0
 10 25  1  0  0  0  0
 11 14  2  0  0  0  0
 11 26  1  0  0  0  0
 12 27  1  0  0  0  0
 13 14  1  0  0  0  0
 13 16  2  0  0  0  0
 14 28  1  0  0  0  0
 15 17  1  0  0  0  0
 15 29  1  0  0  0  0
 16 18  1  0  0  0  0
 16 30  1  0  0  0  0
 17 18  2  0  0  0  0
 17 31  1  0  0  0  0
 18 32  1  0  0  0  0
M  END
> <PUBCHEM_COMPOUND_CID>
87098366

> <PUBCHEM_CONFORMER_RMSD>
0.6

> <PUBCHEM_CONFORMER_DIVERSEORDER>
1

> <PUBCHEM_MMFF94_PARTIAL_CHARGES>
21
1 -0.36
10 -0.15
11 -0.15
12 -0.15
14 -0.15
15 -0.15
16 -0.15
17 -0.15
18 -0.15
2 -0.14
25 0.15
26 0.15
27 0.15
28 0.15
29 0.15
3 0.14
30 0.15
31 0.15
32 0.15
7 0.08
8 0.28

> <PUBCHEM_EFFECTIVE_ROTOR_COUNT>
0.8

> <PUBCHEM_PHARMACOPHORE_FEATURES>
5
1 1 acceptor
6 1 2 3 5 7 8 rings
6 2 4 6 7 10 12 rings
6 4 6 9 11 13 14 rings
6 9 13 15 16 17 18 rings

> <PUBCHEM_HEAVY_ATOM_COUNT>
18

> <PUBCHEM_ATOM_DEF_STEREO_COUNT>
0

> <PUBCHEM_ATOM_UDEF_STEREO_COUNT>
0

> <PUBCHEM_BOND_DEF_STEREO_COUNT>
0

> <PUBCHEM_BOND_UDEF_STEREO_COUNT>
0

> <PUBCHEM_ISOTOPIC_ATOM_COUNT>
0

> <PUBCHEM_COMPONENT_COUNT>
1

> <PUBCHEM_CACTVS_TAUTO_COUNT>
1

> <PUBCHEM_CONFORMER_ID>
053103FE00000001

> <PUBCHEM_MMFF94_ENERGY>
62.4106

> <PUBCHEM_FEATURE_SELFOVERLAP>
25.447

> <PUBCHEM_SHAPE_FINGERPRINT>
10062212 137 18343013398288166167
10411042 1 16249410966153435039
10608611 8 18339921627145859985
10616163 171 18340208616839772166
10967382 1 18410855442953573858
11132069 177 18412539894878103138
11471102 20 18410852165956830662
11578080 2 16914525838308041091
12011746 2 18411138026037115557
12403259 226 18339918329201943753
12403814 3 17676485034150838301
13140716 1 18410854369222312755
13221675 6 18409165527962668995
13862211 1 18411131416072325846
14115302 16 18187656824894143692
14178342 30 17979617254950741002
14790565 3 18267031552587929921
14866123 147 17048248034725237746
15099037 51 18411136918088689639
15196674 1 18410573989451693195
15375462 189 18041554741865850442
15442244 35 18411135827045521160
15536298 74 18342737438007051128
16945 1 18122624117640469979
17804303 29 18412266155164080581
1813 80 17240481403601972700
18186145 218 17968089820062350015
18522853 276 18342174466309794057
19591789 44 18337670806553121610
200 152 18060696204566224597
20028762 73 18130221670639740359
20510252 161 18272653411411720945
20645477 70 18412545383904771550
21029758 11 18343298167436247081
21267235 1 18410864252216724338
21421861 104 17752480958770513858
21501502 16 18338796843924999319
221490 88 18263932209596856195
2334 1 18410855490203488875
23366157 5 17970060252648404084
23402539 116 18272362057856962727
23463225 33 18409448076665223452
23559900 14 18272087215090673592
2748010 2 18411136935131246357
3004659 81 18261117327693624406
335352 9 18338797801702654615
34934 24 18411694426777385266
350125 39 18410578371110106657
4214541 1 18410573976577353797
474 4 17241897677810945420
495365 180 17417517103737360648
5104073 3 18410574002352420305
537710 114 18410859854259708668
69090 78 18341890805416425159
7364860 26 18270116962909622304
77779 3 18409731767845065319
7832392 63 18340482373981297614
8809292 202 18261958543417958019
9709674 26 18412269466489342671
9981440 41 17327174858620835256

> <PUBCHEM_SHAPE_MULTIPOLES>
364.56
8.61
2.15
0.63
0.26
0.02
0
-0.09
-0.11
0.04
0.03
0.06
-0.01
-0.15

> <PUBCHEM_SHAPE_SELFOVERLAP>
826.391

> <PUBCHEM_SHAPE_VOLUME>
191

> <PUBCHEM_COORDINATE_TYPE>
2
5
10

$$$$
