21592246
  -OEChem-09172005163D

 82 86  0     1  0  0  0  0  0999 V2000
   -7.5211    0.7941    0.0491 O   0  0  0  0  0  0  0  0  0  0  0  0
   -1.8812    0.5067   -0.0254 C   0  0  1  0  0  0  0  0  0  0  0  0
   -3.4275    0.5848    0.1167 C   0  0  2  0  0  0  0  0  0  0  0  0
   -2.5449    0.7095    1.3287 C   0  0  0  0  0  0  0  0  0  0  0  0
   -1.2153   -0.8827   -0.2069 C   0  0  2  0  0  0  0  0  0  0  0  0
    0.1310   -0.8004   -0.9719 C   0  0  1  0  0  0  0  0  0  0  0  0
   -4.2671   -0.6759   -0.1385 C   0  0  1  0  0  0  0  0  0  0  0  0
   -1.1676    1.7249   -0.6290 C   0  0  0  0  0  0  0  0  0  0  0  0
    0.9966    0.3519   -0.3645 C   0  0  2  0  0  0  0  0  0  0  0  0
   -4.1785    1.8361   -0.3081 C   0  0  0  0  0  0  0  0  0  0  0  0
   -2.1886   -1.9202   -0.7821 C   0  0  0  0  0  0  0  0  0  0  0  0
    0.3670    1.6911   -0.7465 C   0  0  0  0  0  0  0  0  0  0  0  0
   -3.4712   -1.9759    0.0425 C   0  0  0  0  0  0  0  0  0  0  0  0
   -5.6324   -0.6364    0.6231 C   0  0  0  0  0  0  0  0  0  0  0  0
    2.3838    0.0726   -1.0038 C   0  0  2  0  0  0  0  0  0  0  0  0
    1.0650   -2.0126   -0.7709 C   0  0  0  0  0  0  0  0  0  0  0  0
    2.4899   -1.4690   -0.9924 C   0  0  0  0  0  0  0  0  0  0  0  0
   -5.4863    1.9643    0.4574 C   0  0  0  0  0  0  0  0  0  0  0  0
   -0.1219   -0.6742   -2.5065 C   0  0  0  0  0  0  0  0  0  0  0  0
    1.1287    0.3125    1.1879 C   0  0  0  0  0  0  0  0  0  0  0  0
   -6.3217    0.7093    0.3178 C   0  0  0  0  0  0  0  0  0  0  0  0
    3.5944    0.7471   -0.3686 C   0  0  1  0  0  0  0  0  0  0  0  0
   -5.4969   -0.7615    2.1487 C   0  0  0  0  0  0  0  0  0  0  0  0
   -6.5506   -1.7764    0.1327 C   0  0  0  0  0  0  0  0  0  0  0  0
    4.8789    0.3340   -1.1169 C   0  0  0  0  0  0  0  0  0  0  0  0
    3.3990    2.2658   -0.3524 C   0  0  0  0  0  0  0  0  0  0  0  0
    6.1859    0.9664   -0.6153 C   0  0  0  0  0  0  0  0  0  0  0  0
    6.5752    0.6259    0.8395 C   0  0  2  0  0  0  0  0  0  0  0  0
    7.8594    1.3786    1.2113 C   0  0  0  0  0  0  0  0  0  0  0  0
    6.7213   -0.8663    1.1057 C   0  0  0  0  0  0  0  0  0  0  0  0
    7.7402   -1.6418    0.3161 C   0  0  0  0  0  0  0  0  0  0  0  0
    5.9563   -1.4824    2.0222 C   0  0  0  0  0  0  0  0  0  0  0  0
   -2.4550    1.6789    1.8083 H   0  0  0  0  0  0  0  0  0  0  0  0
   -2.5245   -0.1001    2.0491 H   0  0  0  0  0  0  0  0  0  0  0  0
   -0.9778   -1.2488    0.8022 H   0  0  0  0  0  0  0  0  0  0  0  0
   -4.5159   -0.6310   -1.2113 H   0  0  0  0  0  0  0  0  0  0  0  0
   -1.4232    2.6289   -0.0618 H   0  0  0  0  0  0  0  0  0  0  0  0
   -1.5844    1.8907   -1.6307 H   0  0  0  0  0  0  0  0  0  0  0  0
   -3.5975    2.7480   -0.1389 H   0  0  0  0  0  0  0  0  0  0  0  0
   -4.3771    1.7808   -1.3856 H   0  0  0  0  0  0  0  0  0  0  0  0
   -1.7175   -2.9100   -0.7800 H   0  0  0  0  0  0  0  0  0  0  0  0
   -2.4542   -1.6889   -1.8195 H   0  0  0  0  0  0  0  0  0  0  0  0
    0.7428    2.5079   -0.1246 H   0  0  0  0  0  0  0  0  0  0  0  0
    0.6364    1.9682   -1.7739 H   0  0  0  0  0  0  0  0  0  0  0  0
   -3.2297   -2.1608    1.0946 H   0  0  0  0  0  0  0  0  0  0  0  0
   -4.0595   -2.8313   -0.3056 H   0  0  0  0  0  0  0  0  0  0  0  0
    2.3605    0.3955   -2.0532 H   0  0  0  0  0  0  0  0  0  0  0  0
    0.9809   -2.4155    0.2454 H   0  0  0  0  0  0  0  0  0  0  0  0
    0.8473   -2.8420   -1.4525 H   0  0  0  0  0  0  0  0  0  0  0  0
    2.8942   -1.8299   -1.9450 H   0  0  0  0  0  0  0  0  0  0  0  0
    3.1418   -1.8406   -0.1937 H   0  0  0  0  0  0  0  0  0  0  0  0
   -5.3071    2.1416    1.5229 H   0  0  0  0  0  0  0  0  0  0  0  0
   -6.0570    2.8148    0.0690 H   0  0  0  0  0  0  0  0  0  0  0  0
   -0.5186   -1.6108   -2.9151 H   0  0  0  0  0  0  0  0  0  0  0  0
    0.7854   -0.4670   -3.0793 H   0  0  0  0  0  0  0  0  0  0  0  0
   -0.8429    0.1089   -2.7520 H   0  0  0  0  0  0  0  0  0  0  0  0
    1.5708   -0.6243    1.5419 H   0  0  0  0  0  0  0  0  0  0  0  0
    1.7465    1.1233    1.5811 H   0  0  0  0  0  0  0  0  0  0  0  0
    0.1688    0.4234    1.6964 H   0  0  0  0  0  0  0  0  0  0  0  0
    3.7067    0.4091    0.6675 H   0  0  0  0  0  0  0  0  0  0  0  0
   -6.4802   -0.6994    2.6311 H   0  0  0  0  0  0  0  0  0  0  0  0
   -4.8918    0.0396    2.5814 H   0  0  0  0  0  0  0  0  0  0  0  0
   -5.0509   -1.7179    2.4394 H   0  0  0  0  0  0  0  0  0  0  0  0
   -6.6752   -1.7433   -0.9557 H   0  0  0  0  0  0  0  0  0  0  0  0
   -7.5513   -1.7032    0.5753 H   0  0  0  0  0  0  0  0  0  0  0  0
   -6.1580   -2.7619    0.4024 H   0  0  0  0  0  0  0  0  0  0  0  0
    4.7707    0.6067   -2.1756 H   0  0  0  0  0  0  0  0  0  0  0  0
    4.9975   -0.7547   -1.1024 H   0  0  0  0  0  0  0  0  0  0  0  0
    4.3178    2.7877   -0.0721 H   0  0  0  0  0  0  0  0  0  0  0  0
    2.6802    2.5916    0.3976 H   0  0  0  0  0  0  0  0  0  0  0  0
    3.0987    2.6466   -1.3340 H   0  0  0  0  0  0  0  0  0  0  0  0
    6.1515    2.0539   -0.7437 H   0  0  0  0  0  0  0  0  0  0  0  0
    6.9897    0.6368   -1.2877 H   0  0  0  0  0  0  0  0  0  0  0  0
    5.7899    1.0277    1.4936 H   0  0  0  0  0  0  0  0  0  0  0  0
    8.6886    1.1289    0.5406 H   0  0  0  0  0  0  0  0  0  0  0  0
    7.7005    2.4610    1.1508 H   0  0  0  0  0  0  0  0  0  0  0  0
    8.1690    1.1466    2.2364 H   0  0  0  0  0  0  0  0  0  0  0  0
    7.5199   -1.5976   -0.7544 H   0  0  0  0  0  0  0  0  0  0  0  0
    7.7576   -2.7001    0.5992 H   0  0  0  0  0  0  0  0  0  0  0  0
    8.7461   -1.2458    0.4840 H   0  0  0  0  0  0  0  0  0  0  0  0
    5.2149   -0.9389    2.5983 H   0  0  0  0  0  0  0  0  0  0  0  0
    6.0513   -2.5454    2.2172 H   0  0  0  0  0  0  0  0  0  0  0  0
  1 21  2  0  0  0  0
  2  3  1  0  0  0  0
  2  4  1  0  0  0  0
  2  5  1  0  0  0  0
  2  8  1  0  0  0  0
  3  4  1  0  0  0  0
  3  7  1  0  0  0  0
  3 10  1  0  0  0  0
  4 33  1  0  0  0  0
  4 34  1  0  0  0  0
  5  6  1  0  0  0  0
  5 11  1  0  0  0  0
  5 35  1  0  0  0  0
  6  9  1  0  0  0  0
  6 16  1  0  0  0  0
  6 19  1  0  0  0  0
  7 13  1  0  0  0  0
  7 14  1  0  0  0  0
  7 36  1  0  0  0  0
  8 12  1  0  0  0  0
  8 37  1  0  0  0  0
  8 38  1  0  0  0  0
  9 12  1  0  0  0  0
  9 15  1  0  0  0  0
  9 20  1  0  0  0  0
 10 18  1  0  0  0  0
 10 39  1  0  0  0  0
 10 40  1  0  0  0  0
 11 13  1  0  0  0  0
 11 41  1  0  0  0  0
 11 42  1  0  0  0  0
 12 43  1  0  0  0  0
 12 44  1  0  0  0  0
 13 45  1  0  0  0  0
 13 46  1  0  0  0  0
 14 21  1  0  0  0  0
 14 23  1  0  0  0  0
 14 24  1  0  0  0  0
 15 17  1  0  0  0  0
 15 22  1  0  0  0  0
 15 47  1  0  0  0  0
 16 17  1  0  0  0  0
 16 48  1  0  0  0  0
 16 49  1  0  0  0  0
 17 50  1  0  0  0  0
 17 51  1  0  0  0  0
 18 21  1  0  0  0  0
 18 52  1  0  0  0  0
 18 53  1  0  0  0  0
 19 54  1  0  0  0  0
 19 55  1  0  0  0  0
 19 56  1  0  0  0  0
 20 57  1  0  0  0  0
 20 58  1  0  0  0  0
 20 59  1  0  0  0  0
 22 25  1  0  0  0  0
 22 26  1  0  0  0  0
 22 60  1  0  0  0  0
 23 61  1  0  0  0  0
 23 62  1  0  0  0  0
 23 63  1  0  0  0  0
 24 64  1  0  0  0  0
 24 65  1  0  0  0  0
 24 66  1  0  0  0  0
 25 27  1  0  0  0  0
 25 67  1  0  0  0  0
 25 68  1  0  0  0  0
 26 69  1  0  0  0  0
 26 70  1  0  0  0  0
 26 71  1  0  0  0  0
 27 28  1  0  0  0  0
 27 72  1  0  0  0  0
 27 73  1  0  0  0  0
 28 29  1  0  0  0  0
 28 30  1  0  0  0  0
 28 74  1  0  0  0  0
 29 75  1  0  0  0  0
 29 76  1  0  0  0  0
 29 77  1  0  0  0  0
 30 31  1  0  0  0  0
 30 32  2  0  0  0  0
 31 78  1  0  0  0  0
 31 79  1  0  0  0  0
 31 80  1  0  0  0  0
 32 81  1  0  0  0  0
 32 82  1  0  0  0  0
M  END
> <PUBCHEM_COMPOUND_CID>
21592246

> <PUBCHEM_CONFORMER_RMSD>
1

> <PUBCHEM_CONFORMER_DIVERSEORDER>
1
5
8
15
4
14
10
11
6
3
16
13
2
7
12
9

> <PUBCHEM_MMFF94_PARTIAL_CHARGES>
19
1 -0.57
10 0.09
14 0.06
18 0.06
2 -0.19
21 0.45
28 0.14
3 -0.19
30 -0.28
31 0.14
32 -0.3
33 0.1
34 0.1
4 -0.2
5 0.09
7 0.09
8 0.09
81 0.15
82 0.15

> <PUBCHEM_EFFECTIVE_ROTOR_COUNT>
7.2

> <PUBCHEM_PHARMACOPHORE_FEATURES>
9
1 1 acceptor
1 26 hydrophobe
1 29 hydrophobe
3 14 23 24 hydrophobe
5 22 25 27 28 30 hydrophobe
5 6 9 15 16 17 rings
6 2 5 6 8 9 12 rings
6 3 7 10 14 18 21 rings
7 2 3 4 5 7 11 13 rings

> <PUBCHEM_HEAVY_ATOM_COUNT>
32

> <PUBCHEM_ATOM_DEF_STEREO_COUNT>
9

> <PUBCHEM_ATOM_UDEF_STEREO_COUNT>
0

> <PUBCHEM_BOND_DEF_STEREO_COUNT>
0

> <PUBCHEM_BOND_UDEF_STEREO_COUNT>
0

> <PUBCHEM_ISOTOPIC_ATOM_COUNT>
0

> <PUBCHEM_COMPONENT_COUNT>
1

> <PUBCHEM_CACTVS_TAUTO_COUNT>
2

> <PUBCHEM_CONFORMER_ID>
014978B600000001

> <PUBCHEM_MMFF94_ENERGY>
122.336

> <PUBCHEM_FEATURE_SELFOVERLAP>
45.784

> <PUBCHEM_SHAPE_FINGERPRINT>
10 15 18342176678734890112
10319926 262 18342448279223124106
11135609 187 10735876166895474396
11331351 85 15647052663986079919
11578080 2 16734652084213113485
11646440 116 17060623308741879480
11719270 70 18343585123076259094
11991303 11 13551486877324127472
12107698 1 18113056043060553500
12166972 35 15574720217900337948
12236239 1 17749112213945709421
12422481 6 18342452639163399622
12838862 33 18340759387104413301
13533116 47 17603585223682120072
13782708 43 16153418450986689552
13811026 1 18411136905562432133
13914758 101 16950558861764416037
14251764 18 18408322211513803654
14840074 17 15719388426160509458
14856354 85 18188213203521851831
15183329 4 18410581695008287188
15352257 5 16008468737748580682
16994733 274 14261359024303410875
18608769 82 18130789005864714991
20554085 129 17346308272388797402
21033648 29 18201728301950510961
21130935 74 18411982434378761098
21150785 3 13118005492247642342
21424621 283 15482681168965024370
21792934 111 18338518538971847677
22224240 67 18131069346257682366
23522609 53 17898039925699404148
23559900 14 18202001062402038177
23569943 247 16661473009916233170
23576562 1 10591458617184858737
3178227 256 17988932196716858872
350125 39 18342740732025551092
392239 28 17917437561391182937
4073 2 17823986838942945656
4093350 32 16486700160540146534
4258327 124 13685721901225642056
4340502 62 18272655632257803630
5104073 3 18338528421807660227
513202 73 16733253552624920390
59755656 520 17240483641169391539
6081469 158 17313097566937494693
6669772 16 17417542336517770983

> <PUBCHEM_SHAPE_MULTIPOLES>
652.68
20.79
2.2
1.55
14.96
0.02
-0.13
0.1
-9.38
-0.26
0.13
0.88
0.38
-0.42

> <PUBCHEM_SHAPE_SELFOVERLAP>
1375.075

> <PUBCHEM_SHAPE_VOLUME>
369.2

> <PUBCHEM_COORDINATE_TYPE>
2
5
10

$$$$
