14777892
  -OEChem-09172006263D

 30 32  0     0  0  0  0  0  0999 V2000
    1.0629   -2.3798    0.3252 O   0  0  0  0  0  0  0  0  0  0  0  0
    4.8047    0.4381    0.0713 O   0  0  0  0  0  0  0  0  0  0  0  0
   -5.0211   -0.1702    0.0410 O   0  0  0  0  0  0  0  0  0  0  0  0
    0.6197    0.0279    0.0737 C   0  0  0  0  0  0  0  0  0  0  0  0
   -0.8175   -0.0609    0.0693 C   0  0  0  0  0  0  0  0  0  0  0  0
    1.2350    1.3009   -0.0510 C   0  0  0  0  0  0  0  0  0  0  0  0
   -1.5842    1.1267   -0.0592 C   0  0  0  0  0  0  0  0  0  0  0  0
    1.4853   -1.0879    0.1962 C   0  0  0  0  0  0  0  0  0  0  0  0
    0.4463    2.4475   -0.1756 C   0  0  0  0  0  0  0  0  0  0  0  0
   -0.9421    2.3617   -0.1795 C   0  0  0  0  0  0  0  0  0  0  0  0
   -1.5399   -1.2749    0.1866 C   0  0  0  0  0  0  0  0  0  0  0  0
    2.6352    1.4214   -0.0503 C   0  0  0  0  0  0  0  0  0  0  0  0
   -2.9886    1.0739   -0.0666 C   0  0  0  0  0  0  0  0  0  0  0  0
    2.8764   -0.9539    0.1957 C   0  0  0  0  0  0  0  0  0  0  0  0
    3.4515    0.3013    0.0722 C   0  0  0  0  0  0  0  0  0  0  0  0
   -2.9369   -1.3133    0.1775 C   0  0  0  0  0  0  0  0  0  0  0  0
   -3.6614   -0.1383    0.0510 C   0  0  0  0  0  0  0  0  0  0  0  0
    0.8748   -3.1201   -0.8775 C   0  0  0  0  0  0  0  0  0  0  0  0
    0.9049    3.4299   -0.2719 H   0  0  0  0  0  0  0  0  0  0  0  0
   -1.5178    3.2801   -0.2787 H   0  0  0  0  0  0  0  0  0  0  0  0
   -1.0873   -2.2383    0.3540 H   0  0  0  0  0  0  0  0  0  0  0  0
    3.0937    2.4048   -0.1467 H   0  0  0  0  0  0  0  0  0  0  0  0
   -3.5705    1.9893   -0.1657 H   0  0  0  0  0  0  0  0  0  0  0  0
    3.5126   -1.8306    0.2936 H   0  0  0  0  0  0  0  0  0  0  0  0
   -3.4429   -2.2694    0.2839 H   0  0  0  0  0  0  0  0  0  0  0  0
    0.3611   -2.5325   -1.6457 H   0  0  0  0  0  0  0  0  0  0  0  0
    0.2774   -4.0075   -0.6502 H   0  0  0  0  0  0  0  0  0  0  0  0
    1.8457   -3.4489   -1.2620 H   0  0  0  0  0  0  0  0  0  0  0  0
    5.0274    1.3802   -0.0233 H   0  0  0  0  0  0  0  0  0  0  0  0
   -5.3158   -1.0928    0.1316 H   0  0  0  0  0  0  0  0  0  0  0  0
  1  8  1  0  0  0  0
  1 18  1  0  0  0  0
  2 15  1  0  0  0  0
  2 29  1  0  0  0  0
  3 17  1  0  0  0  0
  3 30  1  0  0  0  0
  4  5  1  0  0  0  0
  4  6  1  0  0  0  0
  4  8  2  0  0  0  0
  5  7  2  0  0  0  0
  5 11  1  0  0  0  0
  6  9  1  0  0  0  0
  6 12  2  0  0  0  0
  7 10  1  0  0  0  0
  7 13  1  0  0  0  0
  8 14  1  0  0  0  0
  9 10  2  0  0  0  0
  9 19  1  0  0  0  0
 10 20  1  0  0  0  0
 11 16  2  0  0  0  0
 11 21  1  0  0  0  0
 12 15  1  0  0  0  0
 12 22  1  0  0  0  0
 13 17  2  0  0  0  0
 13 23  1  0  0  0  0
 14 15  2  0  0  0  0
 14 24  1  0  0  0  0
 16 17  1  0  0  0  0
 16 25  1  0  0  0  0
 18 26  1  0  0  0  0
 18 27  1  0  0  0  0
 18 28  1  0  0  0  0
M  END
> <PUBCHEM_COMPOUND_CID>
14777892

> <PUBCHEM_CONFORMER_RMSD>
0.6

> <PUBCHEM_CONFORMER_DIVERSEORDER>
1

> <PUBCHEM_MMFF94_PARTIAL_CHARGES>
23
1 -0.36
10 -0.15
11 -0.15
12 -0.15
13 -0.15
14 -0.15
15 0.08
16 -0.15
17 0.08
18 0.28
19 0.15
2 -0.53
20 0.15
21 0.15
22 0.15
23 0.15
24 0.15
25 0.15
29 0.45
3 -0.53
30 0.45
8 0.08
9 -0.15

> <PUBCHEM_EFFECTIVE_ROTOR_COUNT>
1

> <PUBCHEM_PHARMACOPHORE_FEATURES>
6
1 1 acceptor
1 2 donor
1 3 donor
6 4 5 6 7 9 10 rings
6 4 6 8 12 14 15 rings
6 5 7 11 13 16 17 rings

> <PUBCHEM_HEAVY_ATOM_COUNT>
18

> <PUBCHEM_ATOM_DEF_STEREO_COUNT>
0

> <PUBCHEM_ATOM_UDEF_STEREO_COUNT>
0

> <PUBCHEM_BOND_DEF_STEREO_COUNT>
0

> <PUBCHEM_BOND_UDEF_STEREO_COUNT>
0

> <PUBCHEM_ISOTOPIC_ATOM_COUNT>
0

> <PUBCHEM_COMPONENT_COUNT>
1

> <PUBCHEM_CACTVS_TAUTO_COUNT>
8

> <PUBCHEM_CONFORMER_ID>
00E17E2400000001

> <PUBCHEM_MMFF94_ENERGY>
74.9655

> <PUBCHEM_FEATURE_SELFOVERLAP>
30.494

> <PUBCHEM_SHAPE_FINGERPRINT>
10616163 171 18410013225673568303
10906281 52 18262537934553648033
10967382 1 18410012143304879947
11132069 177 18409725179507820664
11471102 20 18409162234097266901
12011746 2 18410293613991891895
12553582 1 18410565189374992037
12839892 36 18266721520805925498
13140716 1 18266182923052931993
13221675 6 18410012139015174401
13380535 76 18408041818573751355
13862211 1 18409442604961570258
14178342 30 18195519295206182440
14223421 5 18194401091442383764
14251717 144 18411135857279181751
14790565 3 18338528554678105788
15042514 8 18337669845097924802
15196674 1 18337390443962163801
15309172 13 18341338876116892475
15442244 35 18050567343973041739
15536298 74 18342740676328048182
16945 1 18266179435349674112
193761 8 17977947886677015920
19591789 44 18339080522394317822
200 152 18201714072660607669
20028762 73 17914055558277844839
20510252 161 18271806774478752344
20588541 1 18408325479772951737
20645477 70 18410006620647090871
20905425 154 18195810665560384230
21267235 1 18409176514562826227
21421861 104 17897724254102444059
21501502 16 18194401091410819752
221490 88 18045507670909268947
23184049 29 17904197031731665434
2334 1 18193840580993645105
23402539 116 18270674376702654382
23463225 33 18335138695841125328
23558518 356 18045509603328268289
23559900 14 18051685552089569538
23566358 2 18192425273695893237
2748010 2 18265332983121053972
2871803 45 18336262357937943188
3060560 45 18343021111896507742
335352 9 18409448098192859797
34934 24 18409722937809055647
4072396 5 18262217968042899802
43471831 8 18335980870593646178
474229 33 18410291428433760642
5104073 3 18338234860302284185
528886 8 18410569608811924304
537710 114 18335988635414534324
57005193 9 18410566297524033679
589210 1 17978793402607864918
7364860 26 18270121201762729566
8809292 202 18114466768081238707
9709674 26 18338239263034560975

> <PUBCHEM_SHAPE_MULTIPOLES>
352.82
6.72
2.77
0.66
1.57
0.83
-0.04
-0.01
0.38
-0.6
-0.48
-0.04
0.13
0.14

> <PUBCHEM_SHAPE_SELFOVERLAP>
793.093

> <PUBCHEM_SHAPE_VOLUME>
188.1

> <PUBCHEM_COORDINATE_TYPE>
2
5
10

$$$$
