101995286
  -OEChem-09172004193D

 59 62  0     0  0  0  0  0  0999 V2000
    3.8452   -0.3231    2.4326 O   0  0  0  0  0  0  0  0  0  0  0  0
    0.6446   -3.8316    2.6832 O   0  0  0  0  0  0  0  0  0  0  0  0
   -5.9025    2.3854    0.2557 O   0  0  0  0  0  0  0  0  0  0  0  0
   -2.2970   -3.6237   -3.9994 O   0  0  0  0  0  0  0  0  0  0  0  0
    5.3485    1.6492   -3.4375 O   0  0  0  0  0  0  0  0  0  0  0  0
    0.3625   -0.4505    1.2933 C   0  0  0  0  0  0  0  0  0  0  0  0
   -0.6468    0.4219    0.6163 C   0  0  0  0  0  0  0  0  0  0  0  0
    0.0199   -1.7482    1.6730 C   0  0  0  0  0  0  0  0  0  0  0  0
    1.6458    0.0341    1.5456 C   0  0  0  0  0  0  0  0  0  0  0  0
   -1.2530    1.5009    1.5322 C   0  0  0  0  0  0  0  0  0  0  0  0
   -1.3722   -2.2829    1.4021 C   0  0  0  0  0  0  0  0  0  0  0  0
    2.0216    1.4244    1.1414 C   0  0  0  0  0  0  0  0  0  0  0  0
    2.5867   -0.7790    2.1777 C   0  0  0  0  0  0  0  0  0  0  0  0
    0.9607   -2.5614    2.3052 C   0  0  0  0  0  0  0  0  0  0  0  0
    2.2439   -2.0767    2.5576 C   0  0  0  0  0  0  0  0  0  0  0  0
   -2.2921    2.3520    0.8439 C   0  0  0  0  0  0  0  0  0  0  0  0
   -1.6172   -2.6372   -0.0253 C   0  0  0  0  0  0  0  0  0  0  0  0
    2.9107    1.4851   -0.0822 C   0  0  0  0  0  0  0  0  0  0  0  0
   -3.6337    1.9711    0.8682 C   0  0  0  0  0  0  0  0  0  0  0  0
   -1.9104    3.5197    0.1831 C   0  0  0  0  0  0  0  0  0  0  0  0
   -2.6712   -2.0446   -0.7206 C   0  0  0  0  0  0  0  0  0  0  0  0
   -0.7917   -3.5615   -0.6655 C   0  0  0  0  0  0  0  0  0  0  0  0
    4.1451    2.1314   -0.0165 C   0  0  0  0  0  0  0  0  0  0  0  0
    2.4955    0.8939   -1.2754 C   0  0  0  0  0  0  0  0  0  0  0  0
   -4.5937    2.7578    0.2317 C   0  0  0  0  0  0  0  0  0  0  0  0
   -2.8703    4.3062   -0.4535 C   0  0  0  0  0  0  0  0  0  0  0  0
   -2.8999   -2.3762   -2.0559 C   0  0  0  0  0  0  0  0  0  0  0  0
   -1.0203   -3.8933   -2.0009 C   0  0  0  0  0  0  0  0  0  0  0  0
    4.9642    2.1868   -1.1442 C   0  0  0  0  0  0  0  0  0  0  0  0
    3.3146    0.9494   -2.4031 C   0  0  0  0  0  0  0  0  0  0  0  0
   -2.0744   -3.3007   -2.6961 C   0  0  0  0  0  0  0  0  0  0  0  0
    4.5488    1.5958   -2.3375 C   0  0  0  0  0  0  0  0  0  0  0  0
   -4.2120    3.9253   -0.4294 C   0  0  0  0  0  0  0  0  0  0  0  0
   -0.2018    0.9075   -0.2582 H   0  0  0  0  0  0  0  0  0  0  0  0
   -1.4661   -0.1211    0.1674 H   0  0  0  0  0  0  0  0  0  0  0  0
   -0.5064    2.1542    1.9938 H   0  0  0  0  0  0  0  0  0  0  0  0
   -1.7291    1.0037    2.3897 H   0  0  0  0  0  0  0  0  0  0  0  0
   -1.5734   -3.1756    2.0087 H   0  0  0  0  0  0  0  0  0  0  0  0
   -2.1097   -1.5580    1.7726 H   0  0  0  0  0  0  0  0  0  0  0  0
    2.5255    1.8999    1.9949 H   0  0  0  0  0  0  0  0  0  0  0  0
    1.1903    2.0967    0.9354 H   0  0  0  0  0  0  0  0  0  0  0  0
    2.9774   -2.7105    3.0503 H   0  0  0  0  0  0  0  0  0  0  0  0
   -3.9371    1.0604    1.3790 H   0  0  0  0  0  0  0  0  0  0  0  0
   -0.8677    3.8249    0.1560 H   0  0  0  0  0  0  0  0  0  0  0  0
   -3.3386   -1.3379   -0.2343 H   0  0  0  0  0  0  0  0  0  0  0  0
    0.0285   -4.0434   -0.1415 H   0  0  0  0  0  0  0  0  0  0  0  0
    4.4820    2.5962    0.9061 H   0  0  0  0  0  0  0  0  0  0  0  0
    1.5486    0.3738   -1.3611 H   0  0  0  0  0  0  0  0  0  0  0  0
    4.3550   -1.0246    2.8727 H   0  0  0  0  0  0  0  0  0  0  0  0
    1.4205   -4.2416    3.1023 H   0  0  0  0  0  0  0  0  0  0  0  0
   -2.5729    5.2150   -0.9685 H   0  0  0  0  0  0  0  0  0  0  0  0
   -3.7251   -1.9143   -2.5910 H   0  0  0  0  0  0  0  0  0  0  0  0
   -0.3714   -4.6164   -2.4877 H   0  0  0  0  0  0  0  0  0  0  0  0
    5.9248    2.6915   -1.0869 H   0  0  0  0  0  0  0  0  0  0  0  0
    2.9810    0.4828   -3.3262 H   0  0  0  0  0  0  0  0  0  0  0  0
   -4.9500    4.5467   -0.9294 H   0  0  0  0  0  0  0  0  0  0  0  0
   -6.4261    3.0434   -0.2331 H   0  0  0  0  0  0  0  0  0  0  0  0
   -1.6325   -4.2761   -4.2802 H   0  0  0  0  0  0  0  0  0  0  0  0
    4.9053    1.1904   -4.1717 H   0  0  0  0  0  0  0  0  0  0  0  0
  1 13  1  0  0  0  0
  1 49  1  0  0  0  0
  2 14  1  0  0  0  0
  2 50  1  0  0  0  0
  3 25  1  0  0  0  0
  3 57  1  0  0  0  0
  4 31  1  0  0  0  0
  4 58  1  0  0  0  0
  5 32  1  0  0  0  0
  5 59  1  0  0  0  0
  6  7  1  0  0  0  0
  6  8  2  0  0  0  0
  6  9  1  0  0  0  0
  7 10  1  0  0  0  0
  7 34  1  0  0  0  0
  7 35  1  0  0  0  0
  8 11  1  0  0  0  0
  8 14  1  0  0  0  0
  9 12  1  0  0  0  0
  9 13  2  0  0  0  0
 10 16  1  0  0  0  0
 10 36  1  0  0  0  0
 10 37  1  0  0  0  0
 11 17  1  0  0  0  0
 11 38  1  0  0  0  0
 11 39  1  0  0  0  0
 12 18  1  0  0  0  0
 12 40  1  0  0  0  0
 12 41  1  0  0  0  0
 13 15  1  0  0  0  0
 14 15  2  0  0  0  0
 15 42  1  0  0  0  0
 16 19  2  0  0  0  0
 16 20  1  0  0  0  0
 17 21  2  0  0  0  0
 17 22  1  0  0  0  0
 18 23  2  0  0  0  0
 18 24  1  0  0  0  0
 19 25  1  0  0  0  0
 19 43  1  0  0  0  0
 20 26  2  0  0  0  0
 20 44  1  0  0  0  0
 21 27  1  0  0  0  0
 21 45  1  0  0  0  0
 22 28  2  0  0  0  0
 22 46  1  0  0  0  0
 23 29  1  0  0  0  0
 23 47  1  0  0  0  0
 24 30  2  0  0  0  0
 24 48  1  0  0  0  0
 25 33  2  0  0  0  0
 26 33  1  0  0  0  0
 26 51  1  0  0  0  0
 27 31  2  0  0  0  0
 27 52  1  0  0  0  0
 28 31  1  0  0  0  0
 28 53  1  0  0  0  0
 29 32  2  0  0  0  0
 29 54  1  0  0  0  0
 30 32  1  0  0  0  0
 30 55  1  0  0  0  0
 33 56  1  0  0  0  0
M  END
> <PUBCHEM_COMPOUND_CID>
101995286

> <PUBCHEM_CONFORMER_RMSD>
1

> <PUBCHEM_CONFORMER_DIVERSEORDER>
1
35
12
18
32
36
7
6
8
13
21
38
23
33
29
34
37
10
25
19
16
5
4
11
40
39
2
31
14
27
22
30
20
24
3
9
26
28
15
17

> <PUBCHEM_MMFF94_PARTIAL_CHARGES>
51
1 -0.53
10 0.14
11 0.29
12 0.29
13 0.08
14 0.08
15 -0.15
16 -0.14
17 -0.14
18 -0.14
19 -0.15
2 -0.53
20 -0.15
21 -0.15
22 -0.15
23 -0.15
24 -0.15
25 0.08
26 -0.15
27 -0.15
28 -0.15
29 -0.15
3 -0.53
30 -0.15
31 0.08
32 0.08
33 -0.15
4 -0.53
42 0.15
43 0.15
44 0.15
45 0.15
46 0.15
47 0.15
48 0.15
49 0.45
5 -0.53
50 0.45
51 0.15
52 0.15
53 0.15
54 0.15
55 0.15
56 0.15
57 0.45
58 0.45
59 0.45
6 -0.14
7 0.14
8 -0.14
9 -0.14

> <PUBCHEM_EFFECTIVE_ROTOR_COUNT>
7

> <PUBCHEM_PHARMACOPHORE_FEATURES>
9
1 1 donor
1 2 donor
1 3 donor
1 4 donor
1 5 donor
6 16 19 20 25 26 33 rings
6 17 21 22 27 28 31 rings
6 18 23 24 29 30 32 rings
6 6 8 9 13 14 15 rings

> <PUBCHEM_HEAVY_ATOM_COUNT>
33

> <PUBCHEM_ATOM_DEF_STEREO_COUNT>
0

> <PUBCHEM_ATOM_UDEF_STEREO_COUNT>
0

> <PUBCHEM_BOND_DEF_STEREO_COUNT>
0

> <PUBCHEM_BOND_UDEF_STEREO_COUNT>
0

> <PUBCHEM_ISOTOPIC_ATOM_COUNT>
0

> <PUBCHEM_COMPONENT_COUNT>
1

> <PUBCHEM_CACTVS_TAUTO_COUNT>
1000

> <PUBCHEM_CONFORMER_ID>
0614531600000001

> <PUBCHEM_MMFF94_ENERGY>
100.3322

> <PUBCHEM_FEATURE_SELFOVERLAP>
45.676

> <PUBCHEM_SHAPE_FINGERPRINT>
10985338 15 18131060541976335033
11477941 20 17618260576829619028
12156800 1 18059560399874213983
12160290 23 18271529787990182203
12788726 201 18337948025422684529
14114206 34 17974009745179493990
14863182 85 17339822098825105811
14918310 93 17329140278905642842
15392192 104 18126588743236591633
15444296 7 18266734693354415114
15484559 13 18190182278723926513
15684973 49 18267004207322214042
19319366 153 18187362104169902561
20600515 1 17177697331035285776
20739085 24 17614830821471447042
21304303 282 18261672692191261136
21344244 181 17774457000838483613
21860390 5 17391357312193012713
23559900 14 17476643079808318677
26353 1 17695628841639904405
437795 70 17773307040994074983
5080951 261 18128561391064575824
6608658 132 18267294508408932831

> <PUBCHEM_SHAPE_MULTIPOLES>
649.78
8.99
6.46
3.5
2.85
1.31
1.95
-11.25
4.89
-7.67
2.31
2.83
3.65
-5.05

> <PUBCHEM_SHAPE_SELFOVERLAP>
1426.163

> <PUBCHEM_SHAPE_VOLUME>
348.1

> <PUBCHEM_COORDINATE_TYPE>
2
5
10

$$$$
