637885
  -OEChem-09172005333D

 39 41  0     1  0  0  0  0  0999 V2000
    0.1216    0.3279   -0.0343 O   0  0  0  0  0  0  0  0  0  0  0  0
   -0.7716   -1.9381    1.5035 O   0  0  0  0  0  0  0  0  0  0  0  0
    4.7031    1.5157    0.3247 O   0  0  0  0  0  0  0  0  0  0  0  0
   -6.0910    1.3040    0.2174 O   0  0  0  0  0  0  0  0  0  0  0  0
   -0.6248   -2.0174    0.0851 C   0  0  1  0  0  0  0  0  0  0  0  0
   -0.8199   -0.6311   -0.5425 C   0  0  1  0  0  0  0  0  0  0  0  0
    0.7739   -2.5331   -0.2467 C   0  0  0  0  0  0  0  0  0  0  0  0
    1.8013   -1.4431   -0.1003 C   0  0  0  0  0  0  0  0  0  0  0  0
    1.4249   -0.0968   -0.0125 C   0  0  0  0  0  0  0  0  0  0  0  0
   -2.2314   -0.1130   -0.3388 C   0  0  0  0  0  0  0  0  0  0  0  0
    2.3935    0.8981    0.1433 C   0  0  0  0  0  0  0  0  0  0  0  0
    3.1633   -1.7726   -0.0713 C   0  0  0  0  0  0  0  0  0  0  0  0
    3.7447    0.5578    0.1817 C   0  0  0  0  0  0  0  0  0  0  0  0
    4.1299   -0.7763    0.0703 C   0  0  0  0  0  0  0  0  0  0  0  0
   -3.2211   -0.4036   -1.2763 C   0  0  0  0  0  0  0  0  0  0  0  0
   -2.5358    0.6528    0.7856 C   0  0  0  0  0  0  0  0  0  0  0  0
    1.9908    2.3345    0.2624 C   0  0  0  0  0  0  0  0  0  0  0  0
   -4.5185    0.0729   -1.0892 C   0  0  0  0  0  0  0  0  0  0  0  0
   -3.8334    1.1292    0.9728 C   0  0  0  0  0  0  0  0  0  0  0  0
   -4.8250    0.8392    0.0354 C   0  0  0  0  0  0  0  0  0  0  0  0
    5.2254    2.0930   -0.8703 C   0  0  0  0  0  0  0  0  0  0  0  0
   -1.3782   -2.7253   -0.2799 H   0  0  0  0  0  0  0  0  0  0  0  0
   -0.6483   -0.6923   -1.6274 H   0  0  0  0  0  0  0  0  0  0  0  0
    0.7984   -2.8834   -1.2856 H   0  0  0  0  0  0  0  0  0  0  0  0
    1.0329   -3.3717    0.4104 H   0  0  0  0  0  0  0  0  0  0  0  0
    3.4779   -2.8101   -0.1526 H   0  0  0  0  0  0  0  0  0  0  0  0
   -0.6604   -2.8357    1.8604 H   0  0  0  0  0  0  0  0  0  0  0  0
    5.1813   -1.0497    0.0965 H   0  0  0  0  0  0  0  0  0  0  0  0
   -2.9955   -1.0015   -2.1553 H   0  0  0  0  0  0  0  0  0  0  0  0
   -1.7824    0.8843    1.5335 H   0  0  0  0  0  0  0  0  0  0  0  0
    2.7536    2.9433    0.7582 H   0  0  0  0  0  0  0  0  0  0  0  0
    1.8043    2.7544   -0.7311 H   0  0  0  0  0  0  0  0  0  0  0  0
    1.0845    2.4437    0.8681 H   0  0  0  0  0  0  0  0  0  0  0  0
   -5.2867   -0.1567   -1.8226 H   0  0  0  0  0  0  0  0  0  0  0  0
   -4.0596    1.7236    1.8540 H   0  0  0  0  0  0  0  0  0  0  0  0
    4.4288    2.5541   -1.4624 H   0  0  0  0  0  0  0  0  0  0  0  0
    5.7428    1.3339   -1.4655 H   0  0  0  0  0  0  0  0  0  0  0  0
    5.9449    2.8672   -0.5902 H   0  0  0  0  0  0  0  0  0  0  0  0
   -6.1234    1.8140    1.0449 H   0  0  0  0  0  0  0  0  0  0  0  0
  1  6  1  0  0  0  0
  1  9  1  0  0  0  0
  2  5  1  0  0  0  0
  2 27  1  0  0  0  0
  3 13  1  0  0  0  0
  3 21  1  0  0  0  0
  4 20  1  0  0  0  0
  4 39  1  0  0  0  0
  5  6  1  0  0  0  0
  5  7  1  0  0  0  0
  5 22  1  0  0  0  0
  6 10  1  0  0  0  0
  6 23  1  0  0  0  0
  7  8  1  0  0  0  0
  7 24  1  0  0  0  0
  7 25  1  0  0  0  0
  8  9  2  0  0  0  0
  8 12  1  0  0  0  0
  9 11  1  0  0  0  0
 10 15  2  0  0  0  0
 10 16  1  0  0  0  0
 11 13  2  0  0  0  0
 11 17  1  0  0  0  0
 12 14  2  0  0  0  0
 12 26  1  0  0  0  0
 13 14  1  0  0  0  0
 14 28  1  0  0  0  0
 15 18  1  0  0  0  0
 15 29  1  0  0  0  0
 16 19  2  0  0  0  0
 16 30  1  0  0  0  0
 17 31  1  0  0  0  0
 17 32  1  0  0  0  0
 17 33  1  0  0  0  0
 18 20  2  0  0  0  0
 18 34  1  0  0  0  0
 19 20  1  0  0  0  0
 19 35  1  0  0  0  0
 21 36  1  0  0  0  0
 21 37  1  0  0  0  0
 21 38  1  0  0  0  0
M  END
> <PUBCHEM_COMPOUND_CID>
637885

> <PUBCHEM_CONFORMER_RMSD>
0.6

> <PUBCHEM_CONFORMER_DIVERSEORDER>
1
4
7
6
2
3
5

> <PUBCHEM_MMFF94_PARTIAL_CHARGES>
29
1 -0.36
10 -0.14
11 -0.14
12 -0.15
13 0.08
14 -0.15
15 -0.15
16 -0.15
17 0.14
18 -0.15
19 -0.15
2 -0.68
20 0.08
21 0.28
26 0.15
27 0.4
28 0.15
29 0.15
3 -0.36
30 0.15
34 0.15
35 0.15
39 0.45
4 -0.53
5 0.28
6 0.42
7 0.14
8 -0.14
9 0.08

> <PUBCHEM_EFFECTIVE_ROTOR_COUNT>
2.8

> <PUBCHEM_PHARMACOPHORE_FEATURES>
8
1 1 acceptor
1 2 acceptor
1 2 donor
1 3 acceptor
1 4 donor
6 1 5 6 7 8 9 rings
6 10 15 16 18 19 20 rings
6 8 9 11 12 13 14 rings

> <PUBCHEM_HEAVY_ATOM_COUNT>
21

> <PUBCHEM_ATOM_DEF_STEREO_COUNT>
2

> <PUBCHEM_ATOM_UDEF_STEREO_COUNT>
0

> <PUBCHEM_BOND_DEF_STEREO_COUNT>
0

> <PUBCHEM_BOND_UDEF_STEREO_COUNT>
0

> <PUBCHEM_ISOTOPIC_ATOM_COUNT>
0

> <PUBCHEM_COMPONENT_COUNT>
1

> <PUBCHEM_CACTVS_TAUTO_COUNT>
2

> <PUBCHEM_CONFORMER_ID>
0009BBBD00000001

> <PUBCHEM_MMFF94_ENERGY>
72.9693

> <PUBCHEM_FEATURE_SELFOVERLAP>
40.628

> <PUBCHEM_SHAPE_FINGERPRINT>
10411042 1 17690562983686932670
11089746 13 17846494868476742712
11471102 20 18411697664876784382
11796584 16 14405183954283762756
12107183 9 17408813116315247771
12236239 1 18060134311285592885
12390115 104 18191884520386547980
12403259 415 17895189957341771103
12633257 1 18187351139329372698
12644460 14 18187077326579696874
12788726 201 17917724465360004496
12892183 10 15213565776470725197
13140716 1 18335419080334382818
13583140 156 15358241788691573279
14528608 73 18272647965240059269
14790565 3 18411989043969659836
15196674 1 18411699902301771830
15342168 16 18335143119504498892
15475509 35 16226320396903571482
1601671 61 18334576893256220372
17834072 32 18263646345691395036
18186145 218 18410288086432532239
19784866 140 12319465376158224637
204376 136 18334012808724317031
20612939 158 18412545375388300190
21033648 29 17458894973027631509
21033650 10 15267079012111660947
22079108 93 18333454240349648899
23402539 116 18060129946944757509
23402655 69 18273491290674290286
23559900 14 18413387632003954418
25 1 18410852170436635054
25147074 1 18338780308855395246
293599 30 18410013277820110300
335352 9 18411420605833368574
34797466 226 15410604930305298705
34934 24 18337667620451973784
350125 39 18120381109725280843
4340502 62 16805321089528034416
474 4 18411136931073642859
5104073 3 18261948648108649258
602551 16 16154003425131556555
633830 44 18340486673217512303
8272917 22 18343022142572568710
9981440 41 17480838145421008136

> <PUBCHEM_SHAPE_MULTIPOLES>
408.69
11.07
2.41
0.97
5.05
0.4
-0.01
-6.97
-1.12
-2.13
0.16
0.63
0.04
-0.67

> <PUBCHEM_SHAPE_SELFOVERLAP>
890.356

> <PUBCHEM_SHAPE_VOLUME>
222.2

> <PUBCHEM_COORDINATE_TYPE>
2
5
10

$$$$
