21626040
  -OEChem-09172005063D

 71 76  0     1  0  0  0  0  0999 V2000
   -3.4439   -0.8957   -0.5135 O   0  0  0  0  0  0  0  0  0  0  0  0
   -4.8857   -0.0578    1.2040 O   0  0  0  0  0  0  0  0  0  0  0  0
    5.8678    1.8938   -0.3510 O   0  0  0  0  0  0  0  0  0  0  0  0
    6.5069   -1.8555    1.6526 O   0  0  0  0  0  0  0  0  0  0  0  0
   -0.5886    0.8949   -0.0534 C   0  0  1  0  0  0  0  0  0  0  0  0
    0.0653   -0.5014    0.0652 C   0  0  2  0  0  0  0  0  0  0  0  0
   -1.9684    0.6090    0.6107 C   0  0  2  0  0  0  0  0  0  0  0  0
    1.4624   -0.5754   -0.5582 C   0  0  1  0  0  0  0  0  0  0  0  0
   -2.2583   -0.8703    0.2753 C   0  0  2  0  0  0  0  0  0  0  0  0
    2.3978    0.4630    0.1439 C   0  0  2  0  0  0  0  0  0  0  0  0
   -1.0299   -1.4342   -0.4401 C   0  0  0  0  0  0  0  0  0  0  0  0
    0.2962    1.8746    0.7302 C   0  0  0  0  0  0  0  0  0  0  0  0
   -3.2174    1.3485    0.1177 C   0  0  1  0  0  0  0  0  0  0  0  0
    1.7452    1.8756    0.2081 C   0  0  0  0  0  0  0  0  0  0  0  0
    3.8505    0.4494   -0.4879 C   0  0  2  0  0  0  0  0  0  0  0  0
   -4.2482    0.2143   -0.0561 C   0  0  1  0  0  0  0  0  0  0  0  0
   -0.7237    1.3826   -1.5182 C   0  0  0  0  0  0  0  0  0  0  0  0
    2.0333   -1.9960   -0.4523 C   0  0  0  0  0  0  0  0  0  0  0  0
    4.3401   -1.0067   -0.5954 C   0  0  0  0  0  0  0  0  0  0  0  0
    4.8532    1.2518    0.4282 C   0  0  1  0  0  0  0  0  0  0  0  0
    3.5188   -2.0701   -0.5876 C   0  0  0  0  0  0  0  0  0  0  0  0
   -3.6340    2.4755    1.0552 C   0  0  0  0  0  0  0  0  0  0  0  0
   -5.3073    0.5577   -1.1158 C   0  0  0  0  0  0  0  0  0  0  0  0
    3.8378    1.0475   -1.9172 C   0  0  0  0  0  0  0  0  0  0  0  0
    5.8367   -1.2028   -0.5709 C   0  0  0  0  0  0  0  0  0  0  0  0
    5.5459    0.3478    1.4547 C   0  0  0  0  0  0  0  0  0  0  0  0
    6.4024   -0.7342    0.7763 C   0  0  1  0  0  0  0  0  0  0  0  0
   -6.3649   -0.5411   -1.2298 C   0  0  0  0  0  0  0  0  0  0  0  0
   -5.8147   -1.1441    1.1581 C   0  0  0  0  0  0  0  0  0  0  0  0
   -6.8838   -0.8804    0.1383 C   0  0  0  0  0  0  0  0  0  0  0  0
   -8.1915   -0.9203    0.4291 C   0  0  0  0  0  0  0  0  0  0  0  0
    0.1942   -0.7307    1.1373 H   0  0  0  0  0  0  0  0  0  0  0  0
   -1.8694    0.6929    1.7017 H   0  0  0  0  0  0  0  0  0  0  0  0
    1.3890   -0.3412   -1.6249 H   0  0  0  0  0  0  0  0  0  0  0  0
   -2.4466   -1.4347    1.1978 H   0  0  0  0  0  0  0  0  0  0  0  0
    2.4992    0.1350    1.1907 H   0  0  0  0  0  0  0  0  0  0  0  0
   -1.1393   -1.4121   -1.5292 H   0  0  0  0  0  0  0  0  0  0  0  0
   -0.8511   -2.4747   -0.1504 H   0  0  0  0  0  0  0  0  0  0  0  0
    0.3109    1.6049    1.7942 H   0  0  0  0  0  0  0  0  0  0  0  0
   -0.1149    2.8898    0.6752 H   0  0  0  0  0  0  0  0  0  0  0  0
   -3.0442    1.7921   -0.8655 H   0  0  0  0  0  0  0  0  0  0  0  0
    1.7604    2.3487   -0.7780 H   0  0  0  0  0  0  0  0  0  0  0  0
    2.3250    2.5312    0.8651 H   0  0  0  0  0  0  0  0  0  0  0  0
   -1.4140    0.7647   -2.1012 H   0  0  0  0  0  0  0  0  0  0  0  0
   -1.0913    2.4149   -1.5497 H   0  0  0  0  0  0  0  0  0  0  0  0
    0.2254    1.3845   -2.0598 H   0  0  0  0  0  0  0  0  0  0  0  0
    1.5745   -2.6274   -1.2227 H   0  0  0  0  0  0  0  0  0  0  0  0
    1.7699   -2.4402    0.5160 H   0  0  0  0  0  0  0  0  0  0  0  0
    4.3384    2.0542    0.9607 H   0  0  0  0  0  0  0  0  0  0  0  0
    3.9408   -3.0718   -0.6181 H   0  0  0  0  0  0  0  0  0  0  0  0
   -3.8020    2.1185    2.0764 H   0  0  0  0  0  0  0  0  0  0  0  0
   -2.8540    3.2431    1.0969 H   0  0  0  0  0  0  0  0  0  0  0  0
   -4.5556    2.9523    0.7073 H   0  0  0  0  0  0  0  0  0  0  0  0
   -4.8390    0.6978   -2.0972 H   0  0  0  0  0  0  0  0  0  0  0  0
   -5.8100    1.4950   -0.8456 H   0  0  0  0  0  0  0  0  0  0  0  0
    3.6292    2.1222   -1.9014 H   0  0  0  0  0  0  0  0  0  0  0  0
    4.8026    0.9192   -2.4222 H   0  0  0  0  0  0  0  0  0  0  0  0
    3.0924    0.5717   -2.5613 H   0  0  0  0  0  0  0  0  0  0  0  0
    6.1098   -2.2488   -0.7563 H   0  0  0  0  0  0  0  0  0  0  0  0
    6.2796   -0.6189   -1.3865 H   0  0  0  0  0  0  0  0  0  0  0  0
    4.8017   -0.1078    2.1203 H   0  0  0  0  0  0  0  0  0  0  0  0
    6.2019    0.9441    2.1016 H   0  0  0  0  0  0  0  0  0  0  0  0
    7.4211   -0.3624    0.6142 H   0  0  0  0  0  0  0  0  0  0  0  0
   -5.9231   -1.4393   -1.6781 H   0  0  0  0  0  0  0  0  0  0  0  0
   -7.1671   -0.2096   -1.8991 H   0  0  0  0  0  0  0  0  0  0  0  0
   -6.2358   -1.2514    2.1634 H   0  0  0  0  0  0  0  0  0  0  0  0
   -5.2814   -2.0739    0.9290 H   0  0  0  0  0  0  0  0  0  0  0  0
    6.4410    2.3863    0.2608 H   0  0  0  0  0  0  0  0  0  0  0  0
    6.8854   -1.5371    2.4898 H   0  0  0  0  0  0  0  0  0  0  0  0
   -8.5394   -1.1593    1.4284 H   0  0  0  0  0  0  0  0  0  0  0  0
   -8.9428   -0.7162   -0.3263 H   0  0  0  0  0  0  0  0  0  0  0  0
  1  9  1  0  0  0  0
  1 16  1  0  0  0  0
  2 16  1  0  0  0  0
  2 29  1  0  0  0  0
  3 20  1  0  0  0  0
  3 68  1  0  0  0  0
  4 27  1  0  0  0  0
  4 69  1  0  0  0  0
  5  6  1  0  0  0  0
  5  7  1  0  0  0  0
  5 12  1  0  0  0  0
  5 17  1  0  0  0  0
  6  8  1  0  0  0  0
  6 11  1  0  0  0  0
  6 32  1  0  0  0  0
  7  9  1  0  0  0  0
  7 13  1  0  0  0  0
  7 33  1  0  0  0  0
  8 10  1  0  0  0  0
  8 18  1  0  0  0  0
  8 34  1  0  0  0  0
  9 11  1  0  0  0  0
  9 35  1  0  0  0  0
 10 14  1  0  0  0  0
 10 15  1  0  0  0  0
 10 36  1  0  0  0  0
 11 37  1  0  0  0  0
 11 38  1  0  0  0  0
 12 14  1  0  0  0  0
 12 39  1  0  0  0  0
 12 40  1  0  0  0  0
 13 16  1  0  0  0  0
 13 22  1  0  0  0  0
 13 41  1  0  0  0  0
 14 42  1  0  0  0  0
 14 43  1  0  0  0  0
 15 19  1  0  0  0  0
 15 20  1  0  0  0  0
 15 24  1  0  0  0  0
 16 23  1  0  0  0  0
 17 44  1  0  0  0  0
 17 45  1  0  0  0  0
 17 46  1  0  0  0  0
 18 21  1  0  0  0  0
 18 47  1  0  0  0  0
 18 48  1  0  0  0  0
 19 21  2  0  0  0  0
 19 25  1  0  0  0  0
 20 26  1  0  0  0  0
 20 49  1  0  0  0  0
 21 50  1  0  0  0  0
 22 51  1  0  0  0  0
 22 52  1  0  0  0  0
 22 53  1  0  0  0  0
 23 28  1  0  0  0  0
 23 54  1  0  0  0  0
 23 55  1  0  0  0  0
 24 56  1  0  0  0  0
 24 57  1  0  0  0  0
 24 58  1  0  0  0  0
 25 27  1  0  0  0  0
 25 59  1  0  0  0  0
 25 60  1  0  0  0  0
 26 27  1  0  0  0  0
 26 61  1  0  0  0  0
 26 62  1  0  0  0  0
 27 63  1  0  0  0  0
 28 30  1  0  0  0  0
 28 64  1  0  0  0  0
 28 65  1  0  0  0  0
 29 30  1  0  0  0  0
 29 66  1  0  0  0  0
 29 67  1  0  0  0  0
 30 31  2  0  0  0  0
 31 70  1  0  0  0  0
 31 71  1  0  0  0  0
M  END
> <PUBCHEM_COMPOUND_CID>
21626040

> <PUBCHEM_CONFORMER_RMSD>
0.8

> <PUBCHEM_CONFORMER_DIVERSEORDER>
1

> <PUBCHEM_MMFF94_PARTIAL_CHARGES>
22
1 -0.56
15 0.14
16 0.56
18 0.14
19 -0.28
2 -0.56
20 0.28
21 -0.29
25 0.14
27 0.28
28 0.14
29 0.42
3 -0.68
30 -0.28
31 -0.3
4 -0.68
50 0.15
68 0.4
69 0.4
70 0.15
71 0.15
9 0.28

> <PUBCHEM_EFFECTIVE_ROTOR_COUNT>
2.8

> <PUBCHEM_PHARMACOPHORE_FEATURES>
12
1 1 acceptor
1 2 acceptor
1 3 acceptor
1 3 donor
1 4 acceptor
1 4 donor
5 1 7 9 13 16 rings
5 5 6 7 9 11 rings
6 15 19 20 25 26 27 rings
6 2 16 23 28 29 30 rings
6 5 6 8 10 12 14 rings
6 8 10 15 18 19 21 rings

> <PUBCHEM_HEAVY_ATOM_COUNT>
31

> <PUBCHEM_ATOM_DEF_STEREO_COUNT>
11

> <PUBCHEM_ATOM_UDEF_STEREO_COUNT>
0

> <PUBCHEM_BOND_DEF_STEREO_COUNT>
0

> <PUBCHEM_BOND_UDEF_STEREO_COUNT>
0

> <PUBCHEM_ISOTOPIC_ATOM_COUNT>
0

> <PUBCHEM_COMPONENT_COUNT>
1

> <PUBCHEM_CACTVS_TAUTO_COUNT>
1

> <PUBCHEM_CONFORMER_ID>
0149FCB800000001

> <PUBCHEM_MMFF94_ENERGY>
113.2412

> <PUBCHEM_FEATURE_SELFOVERLAP>
61.331

> <PUBCHEM_SHAPE_FINGERPRINT>
10 15 18412539947024326992
11135926 11 18413101746312336527
11646440 116 18060703896319882840
11719270 70 18409445882085355834
11963148 33 18335978752722063019
12166972 35 18041000648087839004
12236239 1 18186801378682557288
12516196 113 17846779606963654697
13073987 5 18130227060279383521
13533116 47 17846502508922829806
13685833 64 18411139147482495921
13782708 43 18113901516025599738
13862211 1 18411136926514937864
13914758 101 16443338750677270101
14170010 4 18342457070984274729
14251764 18 18202566197923821393
14849402 71 16773225322642271641
14856354 85 14620509060994978365
15064981 113 14923930259768780347
15131766 46 16808152486757316068
15183329 4 18343868826607726508
15196674 1 18343025441096850192
1577012 14 18334869293933588108
15788980 27 16877947130887695812
17349148 13 18334017160222442176
17492 89 18054230925871754574
17857418 61 18272651259885962117
1813 80 17603875493950383476
18608769 82 18337391651697754859
19319366 153 18411132541618015030
19377110 9 17632297852369434203
19489759 90 16515404054329083469
1979834 28 17775005674700271566
21130935 74 17917436393376810455
21236236 1 18271528602964725833
21267235 1 18271814492909139662
21623969 137 18412265034093330943
21792934 111 18272928285260944585
22149856 69 17988377987517835203
22956985 138 17976539412894849566
23522609 53 17913523291892422537
23559900 14 18268142231615576225
23569917 315 18335425651070642355
24771293 8 17346306155159805720
249057 3 11314027976250540561
29717793 49 13839984408910043586
3004659 81 18334017181707594484
3178227 256 18341905125465228747
3383291 50 18410856572984576395
34797466 226 16702308974772192644
350125 39 18272374166129776113
3633792 109 18337664236128767997
4073 2 18188495786484138955
4340502 62 14764346029441769036
5104073 3 18128540370713875395
58260988 393 15984828095379929250
59755656 215 18339645547450199534

> <PUBCHEM_SHAPE_MULTIPOLES>
614.49
19.2
2.12
1.29
11.75
0.35
0.1
-5.85
-3.19
-1.07
-0.15
-0.46
0.11
-0.33

> <PUBCHEM_SHAPE_SELFOVERLAP>
1331.032

> <PUBCHEM_SHAPE_VOLUME>
334.2

> <PUBCHEM_COORDINATE_TYPE>
2
5
10

$$$$
