102582111
  -OEChem-09172005583D

 76 79  0     1  0  0  0  0  0999 V2000
    6.5616   -1.7373   -0.0082 O   0  0  0  0  0  0  0  0  0  0  0  0
   -6.7183   -1.7661   -0.3933 O   0  0  0  0  0  0  0  0  0  0  0  0
    9.2931   -3.3232   -1.8624 O   0  0  0  0  0  0  0  0  0  0  0  0
   10.6303   -2.1192    0.3999 O   0  0  0  0  0  0  0  0  0  0  0  0
   -8.7125   -3.8706    1.8444 O   0  0  0  0  0  0  0  0  0  0  0  0
  -10.6347   -1.9669    0.8262 O   0  0  0  0  0  0  0  0  0  0  0  0
    6.5010    0.0307    1.5131 O   0  0  0  0  0  0  0  0  0  0  0  0
   -6.9989    0.4113   -1.1833 O   0  0  0  0  0  0  0  0  0  0  0  0
    9.2884    0.3856    1.1784 O   0  0  0  0  0  0  0  0  0  0  0  0
   -9.3545    0.6467    0.3670 O   0  0  0  0  0  0  0  0  0  0  0  0
    5.0701   -3.0561   -1.9034 O   0  0  0  0  0  0  0  0  0  0  0  0
   -4.8149   -3.6549    0.2112 O   0  0  0  0  0  0  0  0  0  0  0  0
    1.1808    3.0237    0.0987 O   0  0  0  0  0  0  0  0  0  0  0  0
    0.0861    5.0067   -0.3558 O   0  0  0  0  0  0  0  0  0  0  0  0
    8.6253   -2.7896   -0.7220 C   0  0  1  0  0  0  0  0  0  0  0  0
    9.4261   -1.6084   -0.1738 C   0  0  1  0  0  0  0  0  0  0  0  0
   -8.4709   -2.9870    0.7526 C   0  0  1  0  0  0  0  0  0  0  0  0
   -9.2422   -1.6859    0.9750 C   0  0  1  0  0  0  0  0  0  0  0  0
    7.2144   -2.3509   -1.1211 C   0  0  1  0  0  0  0  0  0  0  0  0
    8.6352   -0.8511    0.8930 C   0  0  2  0  0  0  0  0  0  0  0  0
   -6.9684   -2.7159    0.6441 C   0  0  1  0  0  0  0  0  0  0  0  0
   -8.8276   -0.6171   -0.0364 C   0  0  2  0  0  0  0  0  0  0  0  0
    7.2147   -0.5442    0.4191 C   0  0  1  0  0  0  0  0  0  0  0  0
   -7.3064   -0.4955   -0.1249 C   0  0  1  0  0  0  0  0  0  0  0  0
    6.3583   -3.5342   -1.5612 C   0  0  0  0  0  0  0  0  0  0  0  0
   -6.1891   -3.9828    0.3057 C   0  0  0  0  0  0  0  0  0  0  0  0
    5.5176    0.9219    1.2110 C   0  0  0  0  0  0  0  0  0  0  0  0
   -5.8500    1.1419   -1.0491 C   0  0  0  0  0  0  0  0  0  0  0  0
    5.2136    1.9527    2.1001 C   0  0  0  0  0  0  0  0  0  0  0  0
    4.8134    0.8038    0.0128 C   0  0  0  0  0  0  0  0  0  0  0  0
   -4.7674    0.6154   -0.3444 C   0  0  0  0  0  0  0  0  0  0  0  0
   -5.7608    2.4125   -1.6175 C   0  0  0  0  0  0  0  0  0  0  0  0
    4.2052    2.8654    1.7911 C   0  0  0  0  0  0  0  0  0  0  0  0
    3.8050    1.7165   -0.2963 C   0  0  0  0  0  0  0  0  0  0  0  0
    3.5009    2.7475    0.5928 C   0  0  0  0  0  0  0  0  0  0  0  0
   -3.5957    1.3597   -0.2081 C   0  0  0  0  0  0  0  0  0  0  0  0
   -4.5891    3.1568   -1.4811 C   0  0  0  0  0  0  0  0  0  0  0  0
   -3.5064    2.6304   -0.7767 C   0  0  0  0  0  0  0  0  0  0  0  0
    2.4160    3.7291    0.2598 C   0  0  0  0  0  0  0  0  0  0  0  0
   -2.2841    3.4056   -0.6359 C   0  0  0  0  0  0  0  0  0  0  0  0
   -1.0683    2.8982   -0.3334 C   0  0  0  0  0  0  0  0  0  0  0  0
    0.1029    3.7950   -0.2076 C   0  0  0  0  0  0  0  0  0  0  0  0
    8.5792   -3.5851    0.0318 H   0  0  0  0  0  0  0  0  0  0  0  0
    9.7350   -0.9366   -0.9833 H   0  0  0  0  0  0  0  0  0  0  0  0
   -8.8366   -3.4816   -0.1555 H   0  0  0  0  0  0  0  0  0  0  0  0
   -9.1119   -1.3252    2.0021 H   0  0  0  0  0  0  0  0  0  0  0  0
    7.2449   -1.6288   -1.9486 H   0  0  0  0  0  0  0  0  0  0  0  0
    8.6122   -1.4200    1.8301 H   0  0  0  0  0  0  0  0  0  0  0  0
   -6.5706   -2.3154    1.5866 H   0  0  0  0  0  0  0  0  0  0  0  0
   -9.2527   -0.8365   -1.0230 H   0  0  0  0  0  0  0  0  0  0  0  0
    7.2787    0.1728   -0.4133 H   0  0  0  0  0  0  0  0  0  0  0  0
   -6.9393   -0.1015    0.8349 H   0  0  0  0  0  0  0  0  0  0  0  0
    6.2403   -4.2551   -0.7453 H   0  0  0  0  0  0  0  0  0  0  0  0
    6.7881   -4.0395   -2.4314 H   0  0  0  0  0  0  0  0  0  0  0  0
   -6.5026   -4.3866   -0.6628 H   0  0  0  0  0  0  0  0  0  0  0  0
   -6.3152   -4.7499    1.0756 H   0  0  0  0  0  0  0  0  0  0  0  0
    9.3269   -2.6291   -2.5427 H   0  0  0  0  0  0  0  0  0  0  0  0
   10.3891   -2.7078    1.1355 H   0  0  0  0  0  0  0  0  0  0  0  0
   -8.3788   -3.4467    2.6534 H   0  0  0  0  0  0  0  0  0  0  0  0
  -10.7858   -2.2738   -0.0841 H   0  0  0  0  0  0  0  0  0  0  0  0
    9.3225    0.9058    0.3575 H   0  0  0  0  0  0  0  0  0  0  0  0
   -8.9918    0.8593    1.2439 H   0  0  0  0  0  0  0  0  0  0  0  0
    4.5414   -3.8253   -2.1759 H   0  0  0  0  0  0  0  0  0  0  0  0
   -4.3388   -4.4736   -0.0089 H   0  0  0  0  0  0  0  0  0  0  0  0
    5.7590    2.0495    3.0349 H   0  0  0  0  0  0  0  0  0  0  0  0
    4.9933    0.0105   -0.7043 H   0  0  0  0  0  0  0  0  0  0  0  0
   -4.7747   -0.3728    0.1020 H   0  0  0  0  0  0  0  0  0  0  0  0
   -6.6011    2.8272   -2.1675 H   0  0  0  0  0  0  0  0  0  0  0  0
    3.9796    3.6630    2.4938 H   0  0  0  0  0  0  0  0  0  0  0  0
    3.2613    1.6136   -1.2318 H   0  0  0  0  0  0  0  0  0  0  0  0
   -2.7842    0.9160    0.3614 H   0  0  0  0  0  0  0  0  0  0  0  0
   -4.5378    4.1448   -1.9324 H   0  0  0  0  0  0  0  0  0  0  0  0
    2.3029    4.4728    1.0577 H   0  0  0  0  0  0  0  0  0  0  0  0
    2.6723    4.2501   -0.6709 H   0  0  0  0  0  0  0  0  0  0  0  0
   -2.3890    4.4765   -0.7970 H   0  0  0  0  0  0  0  0  0  0  0  0
   -0.8936    1.8385   -0.1847 H   0  0  0  0  0  0  0  0  0  0  0  0
  1 19  1  0  0  0  0
  1 23  1  0  0  0  0
  2 21  1  0  0  0  0
  2 24  1  0  0  0  0
  3 15  1  0  0  0  0
  3 57  1  0  0  0  0
  4 16  1  0  0  0  0
  4 58  1  0  0  0  0
  5 17  1  0  0  0  0
  5 59  1  0  0  0  0
  6 18  1  0  0  0  0
  6 60  1  0  0  0  0
  7 23  1  0  0  0  0
  7 27  1  0  0  0  0
  8 24  1  0  0  0  0
  8 28  1  0  0  0  0
  9 20  1  0  0  0  0
  9 61  1  0  0  0  0
 10 22  1  0  0  0  0
 10 62  1  0  0  0  0
 11 25  1  0  0  0  0
 11 63  1  0  0  0  0
 12 26  1  0  0  0  0
 12 64  1  0  0  0  0
 13 39  1  0  0  0  0
 13 42  1  0  0  0  0
 14 42  2  0  0  0  0
 15 16  1  0  0  0  0
 15 19  1  0  0  0  0
 15 43  1  0  0  0  0
 16 20  1  0  0  0  0
 16 44  1  0  0  0  0
 17 18  1  0  0  0  0
 17 21  1  0  0  0  0
 17 45  1  0  0  0  0
 18 22  1  0  0  0  0
 18 46  1  0  0  0  0
 19 25  1  0  0  0  0
 19 47  1  0  0  0  0
 20 23  1  0  0  0  0
 20 48  1  0  0  0  0
 21 26  1  0  0  0  0
 21 49  1  0  0  0  0
 22 24  1  0  0  0  0
 22 50  1  0  0  0  0
 23 51  1  0  0  0  0
 24 52  1  0  0  0  0
 25 53  1  0  0  0  0
 25 54  1  0  0  0  0
 26 55  1  0  0  0  0
 26 56  1  0  0  0  0
 27 29  2  0  0  0  0
 27 30  1  0  0  0  0
 28 31  2  0  0  0  0
 28 32  1  0  0  0  0
 29 33  1  0  0  0  0
 29 65  1  0  0  0  0
 30 34  2  0  0  0  0
 30 66  1  0  0  0  0
 31 36  1  0  0  0  0
 31 67  1  0  0  0  0
 32 37  2  0  0  0  0
 32 68  1  0  0  0  0
 33 35  2  0  0  0  0
 33 69  1  0  0  0  0
 34 35  1  0  0  0  0
 34 70  1  0  0  0  0
 35 39  1  0  0  0  0
 36 38  2  0  0  0  0
 36 71  1  0  0  0  0
 37 38  1  0  0  0  0
 37 72  1  0  0  0  0
 38 40  1  0  0  0  0
 39 73  1  0  0  0  0
 39 74  1  0  0  0  0
 40 41  2  0  0  0  0
 40 75  1  0  0  0  0
 41 42  1  0  0  0  0
 41 76  1  0  0  0  0
M  END
> <PUBCHEM_COMPOUND_CID>
102582111

> <PUBCHEM_CONFORMER_RMSD>
1.2

> <PUBCHEM_CONFORMER_DIVERSEORDER>
5
64
78
80
23
18
61
55
66
76
68
42
22
69
75
1
3
53
48
41
30
62
74
28
71
20
67
56
50
84
25
82
52
65
49
43
54
24
38
37
47
58
36
85
59
35
21
6
79
12
29
33
63
45
34
15
40
31
4
51
11
46
60
39
13
72
27
19
83
9
26
44
32
81
10
8
14
16
17
77
70
7
2
73
57

> <PUBCHEM_MMFF94_PARTIAL_CHARGES>
60
1 -0.56
10 -0.68
11 -0.68
12 -0.68
13 -0.43
14 -0.57
15 0.28
16 0.28
17 0.28
18 0.28
19 0.28
2 -0.56
20 0.28
21 0.28
22 0.28
23 0.56
24 0.56
25 0.28
26 0.28
27 0.08
28 0.08
29 -0.15
3 -0.68
30 -0.15
31 -0.15
32 -0.15
33 -0.15
34 -0.15
35 -0.14
36 -0.15
37 -0.15
38 0.03
39 0.42
4 -0.68
40 -0.18
41 -0.14
42 0.71
5 -0.68
57 0.4
58 0.4
59 0.4
6 -0.68
60 0.4
61 0.4
62 0.4
63 0.4
64 0.4
65 0.15
66 0.15
67 0.15
68 0.15
69 0.15
7 -0.36
70 0.15
71 0.15
72 0.15
75 0.15
76 0.15
8 -0.36
9 -0.68

> <PUBCHEM_EFFECTIVE_ROTOR_COUNT>
13.4

> <PUBCHEM_PHARMACOPHORE_FEATURES>
25
1 1 acceptor
1 10 acceptor
1 10 donor
1 11 acceptor
1 11 donor
1 12 acceptor
1 12 donor
1 14 acceptor
1 2 acceptor
1 3 acceptor
1 3 donor
1 4 acceptor
1 4 donor
1 5 acceptor
1 5 donor
1 6 acceptor
1 6 donor
1 7 acceptor
1 8 acceptor
1 9 acceptor
1 9 donor
6 1 15 16 19 20 23 rings
6 2 17 18 21 22 24 rings
6 27 29 30 33 34 35 rings
6 28 31 32 36 37 38 rings

> <PUBCHEM_HEAVY_ATOM_COUNT>
42

> <PUBCHEM_ATOM_DEF_STEREO_COUNT>
10

> <PUBCHEM_ATOM_UDEF_STEREO_COUNT>
0

> <PUBCHEM_BOND_DEF_STEREO_COUNT>
1

> <PUBCHEM_BOND_UDEF_STEREO_COUNT>
0

> <PUBCHEM_ISOTOPIC_ATOM_COUNT>
0

> <PUBCHEM_COMPONENT_COUNT>
1

> <PUBCHEM_CACTVS_TAUTO_COUNT>
1

> <PUBCHEM_CONFORMER_ID>
061D475F00000005

> <PUBCHEM_MMFF94_ENERGY>
135.4475

> <PUBCHEM_FEATURE_SELFOVERLAP>
127.023

> <PUBCHEM_SHAPE_FINGERPRINT>
10258705 36 18411700976133805790
10669705 251 18343018874735238406
10740516 88 18411422808133576873
11409948 8 18201141206561520296
11607047 74 18116717512072805428
117089 54 18412545388468939328
11828532 37 18410014347329913300
12013929 94 18413388719084425904
12539747 164 18338800001386670137
15152005 304 18337116755977815571
15152005 77 18341886429445943135
15399244 38 18340199782249910350
15455199 99 18119530096437922779
15455200 100 17463391843217775650
15510800 12 18411417293670193764
15779827 34 18059585645808583527
16067689 68 18342464725560898689
19841028 212 18335134323533458688
21130935 74 18121779693861208657
212700 22 18410564068589052948
21585481 151 18409728448384693105
2851757 41 18411985741376718462
44426699 153 18130502024772243064
45377200 153 18335416872266999160

> <PUBCHEM_SHAPE_MULTIPOLES>
782.17
42.62
6.73
1.53
2.16
0.13
0.05
-51.4
5.26
-2.1
-0.85
1.4
-0.28
9.56

> <PUBCHEM_SHAPE_SELFOVERLAP>
1656.826

> <PUBCHEM_SHAPE_VOLUME>
432.1

> <PUBCHEM_COORDINATE_TYPE>
2
5
10

$$$$
