12315110
  -OEChem-09172005053D

 73 78  0     1  0  0  0  0  0999 V2000
    3.1903   -1.5199    0.3282 O   0  0  0  0  0  0  0  0  0  0  0  0
    4.6792   -0.0581    1.3528 O   0  0  0  0  0  0  0  0  0  0  0  0
   -4.3403    2.7338   -0.1899 O   0  0  0  0  0  0  0  0  0  0  0  0
   -6.8606   -0.6002   -1.3506 O   0  0  0  0  0  0  0  0  0  0  0  0
    0.6581    0.4080   -0.1790 C   0  0  1  0  0  0  0  0  0  0  0  0
   -0.1545   -0.8729   -0.4594 C   0  0  2  0  0  0  0  0  0  0  0  0
    1.9653    0.0492   -0.9430 C   0  0  2  0  0  0  0  0  0  0  0  0
   -1.5370   -0.8780    0.1998 C   0  0  1  0  0  0  0  0  0  0  0  0
    2.1605   -1.4407   -0.6487 C   0  0  2  0  0  0  0  0  0  0  0  0
   -2.3619    0.3577   -0.2764 C   0  0  2  0  0  0  0  0  0  0  0  0
    0.8295   -1.9883   -0.1165 C   0  0  0  0  0  0  0  0  0  0  0  0
   -0.1212    1.5782   -0.7902 C   0  0  0  0  0  0  0  0  0  0  0  0
    3.2761    0.7095   -0.5107 C   0  0  1  0  0  0  0  0  0  0  0  0
   -1.5427    1.6789   -0.2093 C   0  0  0  0  0  0  0  0  0  0  0  0
   -3.7874    0.4090    0.4342 C   0  0  2  0  0  0  0  0  0  0  0  0
    4.1354   -0.4443    0.0828 C   0  0  2  0  0  0  0  0  0  0  0  0
    0.8921    0.6683    1.3316 C   0  0  0  0  0  0  0  0  0  0  0  0
   -2.2845   -2.1742   -0.1396 C   0  0  0  0  0  0  0  0  0  0  0  0
   -4.4235   -0.9939    0.4605 C   0  0  0  0  0  0  0  0  0  0  0  0
   -4.7319    1.3720   -0.3666 C   0  0  1  0  0  0  0  0  0  0  0  0
    3.8772    1.5031   -1.6696 C   0  0  0  0  0  0  0  0  0  0  0  0
    5.2357   -1.0605   -0.8040 C   0  0  0  0  0  0  0  0  0  0  0  0
   -3.7399   -2.1184    0.1845 C   0  0  0  0  0  0  0  0  0  0  0  0
   -3.6521    0.8844    1.9030 C   0  0  0  0  0  0  0  0  0  0  0  0
   -5.8932   -1.0927    0.8146 C   0  0  0  0  0  0  0  0  0  0  0  0
   -6.2129    1.2827    0.0297 C   0  0  0  0  0  0  0  0  0  0  0  0
   -6.7546   -0.1390   -0.0055 C   0  0  1  0  0  0  0  0  0  0  0  0
    6.5408   -0.2728   -0.8403 C   0  0  0  0  0  0  0  0  0  0  0  0
    6.9678    0.1451    0.5668 C   0  0  2  0  0  0  0  0  0  0  0  0
    5.8017    0.8160    1.2880 C   0  0  0  0  0  0  0  0  0  0  0  0
    8.1886    1.0580    0.5229 C   0  0  0  0  0  0  0  0  0  0  0  0
   -0.3281   -0.9392   -1.5472 H   0  0  0  0  0  0  0  0  0  0  0  0
    1.7871    0.1703   -2.0205 H   0  0  0  0  0  0  0  0  0  0  0  0
   -1.4189   -0.8416    1.2883 H   0  0  0  0  0  0  0  0  0  0  0  0
    2.4809   -1.9853   -1.5445 H   0  0  0  0  0  0  0  0  0  0  0  0
   -2.5528    0.1938   -1.3496 H   0  0  0  0  0  0  0  0  0  0  0  0
    0.8692   -2.1913    0.9592 H   0  0  0  0  0  0  0  0  0  0  0  0
    0.5614   -2.9225   -0.6210 H   0  0  0  0  0  0  0  0  0  0  0  0
   -0.1986    1.4563   -1.8785 H   0  0  0  0  0  0  0  0  0  0  0  0
    0.4121    2.5221   -0.6245 H   0  0  0  0  0  0  0  0  0  0  0  0
    3.0881    1.4506    0.2717 H   0  0  0  0  0  0  0  0  0  0  0  0
   -1.4682    2.0347    0.8219 H   0  0  0  0  0  0  0  0  0  0  0  0
   -2.0575    2.4633   -0.7719 H   0  0  0  0  0  0  0  0  0  0  0  0
    1.5372   -0.0837    1.7945 H   0  0  0  0  0  0  0  0  0  0  0  0
    1.3581    1.6462    1.4940 H   0  0  0  0  0  0  0  0  0  0  0  0
   -0.0365    0.6791    1.9084 H   0  0  0  0  0  0  0  0  0  0  0  0
   -1.8332   -3.0046    0.4168 H   0  0  0  0  0  0  0  0  0  0  0  0
   -2.1836   -2.4144   -1.2053 H   0  0  0  0  0  0  0  0  0  0  0  0
   -4.6467    1.1467   -1.4378 H   0  0  0  0  0  0  0  0  0  0  0  0
    4.7700    2.0505   -1.3579 H   0  0  0  0  0  0  0  0  0  0  0  0
    4.1330    0.8638   -2.5197 H   0  0  0  0  0  0  0  0  0  0  0  0
    3.1586    2.2494   -2.0280 H   0  0  0  0  0  0  0  0  0  0  0  0
    4.8700   -1.2462   -1.8204 H   0  0  0  0  0  0  0  0  0  0  0  0
    5.4737   -2.0565   -0.4028 H   0  0  0  0  0  0  0  0  0  0  0  0
   -4.2540   -3.0767    0.1990 H   0  0  0  0  0  0  0  0  0  0  0  0
   -2.9833    0.2362    2.4789 H   0  0  0  0  0  0  0  0  0  0  0  0
   -3.2664    1.9053    1.9765 H   0  0  0  0  0  0  0  0  0  0  0  0
   -4.6152    0.8860    2.4246 H   0  0  0  0  0  0  0  0  0  0  0  0
   -6.2575   -2.1180    0.6729 H   0  0  0  0  0  0  0  0  0  0  0  0
   -6.0115   -0.8649    1.8808 H   0  0  0  0  0  0  0  0  0  0  0  0
   -6.7953    1.9178   -0.6505 H   0  0  0  0  0  0  0  0  0  0  0  0
   -6.3531    1.7110    1.0303 H   0  0  0  0  0  0  0  0  0  0  0  0
   -7.7728   -0.1352    0.4010 H   0  0  0  0  0  0  0  0  0  0  0  0
    7.3229   -0.8900   -1.2992 H   0  0  0  0  0  0  0  0  0  0  0  0
    6.4376    0.6067   -1.4825 H   0  0  0  0  0  0  0  0  0  0  0  0
    7.2332   -0.7667    1.1185 H   0  0  0  0  0  0  0  0  0  0  0  0
    6.0877    1.0480    2.3198 H   0  0  0  0  0  0  0  0  0  0  0  0
    5.5153    1.7626    0.8183 H   0  0  0  0  0  0  0  0  0  0  0  0
   -4.9051    3.2806   -0.7622 H   0  0  0  0  0  0  0  0  0  0  0  0
    8.5121    1.3223    1.5351 H   0  0  0  0  0  0  0  0  0  0  0  0
    9.0264    0.5622    0.0216 H   0  0  0  0  0  0  0  0  0  0  0  0
    7.9727    1.9867   -0.0163 H   0  0  0  0  0  0  0  0  0  0  0  0
   -7.2327   -1.4982   -1.3253 H   0  0  0  0  0  0  0  0  0  0  0  0
  1  9  1  0  0  0  0
  1 16  1  0  0  0  0
  2 16  1  0  0  0  0
  2 30  1  0  0  0  0
  3 20  1  0  0  0  0
  3 69  1  0  0  0  0
  4 27  1  0  0  0  0
  4 73  1  0  0  0  0
  5  6  1  0  0  0  0
  5  7  1  0  0  0  0
  5 12  1  0  0  0  0
  5 17  1  0  0  0  0
  6  8  1  0  0  0  0
  6 11  1  0  0  0  0
  6 32  1  0  0  0  0
  7  9  1  0  0  0  0
  7 13  1  0  0  0  0
  7 33  1  0  0  0  0
  8 10  1  0  0  0  0
  8 18  1  0  0  0  0
  8 34  1  0  0  0  0
  9 11  1  0  0  0  0
  9 35  1  0  0  0  0
 10 14  1  0  0  0  0
 10 15  1  0  0  0  0
 10 36  1  0  0  0  0
 11 37  1  0  0  0  0
 11 38  1  0  0  0  0
 12 14  1  0  0  0  0
 12 39  1  0  0  0  0
 12 40  1  0  0  0  0
 13 16  1  0  0  0  0
 13 21  1  0  0  0  0
 13 41  1  0  0  0  0
 14 42  1  0  0  0  0
 14 43  1  0  0  0  0
 15 19  1  0  0  0  0
 15 20  1  0  0  0  0
 15 24  1  0  0  0  0
 16 22  1  0  0  0  0
 17 44  1  0  0  0  0
 17 45  1  0  0  0  0
 17 46  1  0  0  0  0
 18 23  1  0  0  0  0
 18 47  1  0  0  0  0
 18 48  1  0  0  0  0
 19 23  2  0  0  0  0
 19 25  1  0  0  0  0
 20 26  1  0  0  0  0
 20 49  1  0  0  0  0
 21 50  1  0  0  0  0
 21 51  1  0  0  0  0
 21 52  1  0  0  0  0
 22 28  1  0  0  0  0
 22 53  1  0  0  0  0
 22 54  1  0  0  0  0
 23 55  1  0  0  0  0
 24 56  1  0  0  0  0
 24 57  1  0  0  0  0
 24 58  1  0  0  0  0
 25 27  1  0  0  0  0
 25 59  1  0  0  0  0
 25 60  1  0  0  0  0
 26 27  1  0  0  0  0
 26 61  1  0  0  0  0
 26 62  1  0  0  0  0
 27 63  1  0  0  0  0
 28 29  1  0  0  0  0
 28 64  1  0  0  0  0
 28 65  1  0  0  0  0
 29 30  1  0  0  0  0
 29 31  1  0  0  0  0
 29 66  1  0  0  0  0
 30 67  1  0  0  0  0
 30 68  1  0  0  0  0
 31 70  1  0  0  0  0
 31 71  1  0  0  0  0
 31 72  1  0  0  0  0
M  END
> <PUBCHEM_COMPOUND_CID>
12315110

> <PUBCHEM_CONFORMER_RMSD>
0.8

> <PUBCHEM_CONFORMER_DIVERSEORDER>
2
1

> <PUBCHEM_MMFF94_PARTIAL_CHARGES>
17
1 -0.56
15 0.14
16 0.56
18 0.14
19 -0.28
2 -0.56
20 0.28
23 -0.29
25 0.14
27 0.28
3 -0.68
30 0.28
4 -0.68
55 0.15
69 0.4
73 0.4
9 0.28

> <PUBCHEM_EFFECTIVE_ROTOR_COUNT>
3

> <PUBCHEM_PHARMACOPHORE_FEATURES>
12
1 1 acceptor
1 2 acceptor
1 3 acceptor
1 3 donor
1 4 acceptor
1 4 donor
5 1 7 9 13 16 rings
5 5 6 7 9 11 rings
6 15 19 20 25 26 27 rings
6 2 16 22 28 29 30 rings
6 5 6 8 10 12 14 rings
6 8 10 15 18 19 23 rings

> <PUBCHEM_HEAVY_ATOM_COUNT>
31

> <PUBCHEM_ATOM_DEF_STEREO_COUNT>
12

> <PUBCHEM_ATOM_UDEF_STEREO_COUNT>
0

> <PUBCHEM_BOND_DEF_STEREO_COUNT>
0

> <PUBCHEM_BOND_UDEF_STEREO_COUNT>
0

> <PUBCHEM_ISOTOPIC_ATOM_COUNT>
0

> <PUBCHEM_COMPONENT_COUNT>
1

> <PUBCHEM_CACTVS_TAUTO_COUNT>
1

> <PUBCHEM_CONFORMER_ID>
00BBE9E600000002

> <PUBCHEM_MMFF94_ENERGY>
116.1321

> <PUBCHEM_FEATURE_SELFOVERLAP>
61.349

> <PUBCHEM_SHAPE_FINGERPRINT>
10 15 18408601479109484968
10411042 1 18049725424117587011
11045977 3 18131630110352266562
11315181 36 17917994975748872929
11719270 70 18408886222335287710
11991303 11 15051722123144199460
12107698 1 16732983124140954844
12236239 1 17530967994403235974
12516196 113 18202001018982801673
12838862 33 18335969914279409823
13533116 47 17632018542526115878
13782708 43 17345488002365048278
13811026 1 18272933813263675230
14028597 1 16878215381934889984
14251764 18 18040716982877701948
14394314 77 18270404889307487881
14849402 71 17750521848737175524
14856354 85 18040442122045749095
15021287 119 17168151134822550829
15142383 8 16805314483768203646
15183329 4 18113057129939681359
15419008 47 18130784555561835032
15461852 350 17703788162583954655
15788980 27 18041003937947852083
15840311 113 18041001787504509828
17349148 13 17603594036432687558
18608769 82 18413386553745116896
18681886 176 18411979195376807712
19377110 9 17676482835607507210
20511986 3 18337943520055069883
21130935 74 18339927013114490378
21150785 3 15626502808763199644
21267235 1 18335432274347074919
21792961 116 17775008960645521906
22224240 67 18343015610417850058
23035841 295 9727633908145127543
23402539 116 18040155123455661598
23522609 53 17241916240670324260
23559900 14 18343578577160926329
23569917 315 18412271631169398847
3004659 81 18041002851563940476
335352 9 18408605885186807151
3383291 50 18187935018954522123
34797466 226 16487259888861789732
350125 39 18335139808728408652
3545911 37 18342460326532691798
4073 2 17968384549841243842
4325135 7 18259985981071541276
5104073 3 18337678494887441123
59755656 215 18341056224899781446
59755656 520 13758348969246297669
67856867 119 18115311201891845396
7226269 152 18342740701997749033

> <PUBCHEM_SHAPE_MULTIPOLES>
614.49
19.39
2.03
1.22
10.43
0.07
-0.17
-2.74
-1.8
-1.7
0.21
0.53
-0.28
0.34

> <PUBCHEM_SHAPE_SELFOVERLAP>
1324.436

> <PUBCHEM_SHAPE_VOLUME>
335.4

> <PUBCHEM_COORDINATE_TYPE>
2
5
10

$$$$
