101634591
  -OEChem-09172004453D

 58 63  0     0  0  0  0  0  0999 V2000
   -0.4869    1.4335    1.5327 O   0  0  0  0  0  0  0  0  0  0  0  0
   -4.2134    1.4429   -2.5086 O   0  0  0  0  0  0  0  0  0  0  0  0
    5.9970    1.3637    1.1019 O   0  0  0  0  0  0  0  0  0  0  0  0
   -0.1043    2.8613   -0.7661 O   0  0  0  0  0  0  0  0  0  0  0  0
   -8.2209   -2.5208    0.6856 O   0  0  0  0  0  0  0  0  0  0  0  0
    8.3676   -2.0448   -1.0816 O   0  0  0  0  0  0  0  0  0  0  0  0
   -3.6194    0.6039   -0.2726 C   0  0  0  0  0  0  0  0  0  0  0  0
   -2.6233    0.6373    0.7381 C   0  0  0  0  0  0  0  0  0  0  0  0
   -4.8071   -0.1824   -0.0623 C   0  0  0  0  0  0  0  0  0  0  0  0
    3.3701    0.0615    0.4827 C   0  0  0  0  0  0  0  0  0  0  0  0
    4.6624   -0.4460    0.1012 C   0  0  0  0  0  0  0  0  0  0  0  0
    2.2059   -0.6638    0.1176 C   0  0  0  0  0  0  0  0  0  0  0  0
   -1.4526    1.3948    0.5635 C   0  0  0  0  0  0  0  0  0  0  0  0
   -4.9530   -0.9057    1.1501 C   0  0  0  0  0  0  0  0  0  0  0  0
    4.7411   -1.6600   -0.6302 C   0  0  0  0  0  0  0  0  0  0  0  0
   -3.3651    1.3639   -1.4417 C   0  0  0  0  0  0  0  0  0  0  0  0
   -2.8033   -0.0877    1.9188 C   0  0  0  0  0  0  0  0  0  0  0  0
    0.7751    0.9872    1.1916 C   0  0  0  0  0  0  0  0  0  0  0  0
    0.9300   -0.1948    0.4741 C   0  0  0  0  0  0  0  0  0  0  0  0
   -3.9505   -0.8478    2.1216 C   0  0  0  0  0  0  0  0  0  0  0  0
    3.1702    1.2597    1.2132 C   0  0  0  0  0  0  0  0  0  0  0  0
   -1.2396    2.1280   -0.5997 C   0  0  0  0  0  0  0  0  0  0  0  0
    2.3240   -1.8552   -0.6026 C   0  0  0  0  0  0  0  0  0  0  0  0
    5.8901    0.1923    0.4086 C   0  0  0  0  0  0  0  0  0  0  0  0
    3.5725   -2.3459   -0.9708 C   0  0  0  0  0  0  0  0  0  0  0  0
   -2.1962    2.1125   -1.6029 C   0  0  0  0  0  0  0  0  0  0  0  0
   -5.8660   -0.2896   -0.9986 C   0  0  0  0  0  0  0  0  0  0  0  0
    1.8957    1.7147    1.5617 C   0  0  0  0  0  0  0  0  0  0  0  0
   -6.1001   -1.6831    1.3855 C   0  0  0  0  0  0  0  0  0  0  0  0
    5.9871   -2.1817   -1.0178 C   0  0  0  0  0  0  0  0  0  0  0  0
    7.1226   -0.3373    0.0165 C   0  0  0  0  0  0  0  0  0  0  0  0
   -7.0016   -1.0660   -0.7518 C   0  0  0  0  0  0  0  0  0  0  0  0
   -7.1183   -1.7632    0.4408 C   0  0  0  0  0  0  0  0  0  0  0  0
    7.1710   -1.5248   -0.6969 C   0  0  0  0  0  0  0  0  0  0  0  0
   -4.0426    0.4759   -3.5412 C   0  0  0  0  0  0  0  0  0  0  0  0
    5.9819    2.5676    0.3397 C   0  0  0  0  0  0  0  0  0  0  0  0
   -2.0571   -0.0805    2.7106 H   0  0  0  0  0  0  0  0  0  0  0  0
    0.0564   -0.7821    0.1958 H   0  0  0  0  0  0  0  0  0  0  0  0
   -4.0497   -1.3974    3.0559 H   0  0  0  0  0  0  0  0  0  0  0  0
    3.9647    1.8716    1.6077 H   0  0  0  0  0  0  0  0  0  0  0  0
    1.4398   -2.4216   -0.8893 H   0  0  0  0  0  0  0  0  0  0  0  0
    3.6182   -3.2778   -1.5314 H   0  0  0  0  0  0  0  0  0  0  0  0
   -2.0398    2.6839   -2.5152 H   0  0  0  0  0  0  0  0  0  0  0  0
   -5.9147    0.2552   -1.9271 H   0  0  0  0  0  0  0  0  0  0  0  0
    1.7896    2.6328    2.1334 H   0  0  0  0  0  0  0  0  0  0  0  0
   -6.1984   -2.2332    2.3205 H   0  0  0  0  0  0  0  0  0  0  0  0
    6.0324   -3.1143   -1.5788 H   0  0  0  0  0  0  0  0  0  0  0  0
    8.0469    0.1769    0.2698 H   0  0  0  0  0  0  0  0  0  0  0  0
   -7.7952   -1.1086   -1.4931 H   0  0  0  0  0  0  0  0  0  0  0  0
   -0.1315    3.2975   -1.6350 H   0  0  0  0  0  0  0  0  0  0  0  0
   -4.9394    0.4733   -4.1672 H   0  0  0  0  0  0  0  0  0  0  0  0
   -3.8863   -0.5307   -3.1395 H   0  0  0  0  0  0  0  0  0  0  0  0
   -3.1879    0.7532   -4.1664 H   0  0  0  0  0  0  0  0  0  0  0  0
    6.9616    2.7211   -0.1239 H   0  0  0  0  0  0  0  0  0  0  0  0
    5.2112    2.5517   -0.4381 H   0  0  0  0  0  0  0  0  0  0  0  0
    5.7870    3.4049    1.0158 H   0  0  0  0  0  0  0  0  0  0  0  0
   -8.1327   -2.9340    1.5617 H   0  0  0  0  0  0  0  0  0  0  0  0
    8.2112   -2.8727   -1.5675 H   0  0  0  0  0  0  0  0  0  0  0  0
  1 13  1  0  0  0  0
  1 18  1  0  0  0  0
  2 16  1  0  0  0  0
  2 35  1  0  0  0  0
  3 24  1  0  0  0  0
  3 36  1  0  0  0  0
  4 22  1  0  0  0  0
  4 50  1  0  0  0  0
  5 33  1  0  0  0  0
  5 57  1  0  0  0  0
  6 34  1  0  0  0  0
  6 58  1  0  0  0  0
  7  8  1  0  0  0  0
  7  9  1  0  0  0  0
  7 16  2  0  0  0  0
  8 13  2  0  0  0  0
  8 17  1  0  0  0  0
  9 14  2  0  0  0  0
  9 27  1  0  0  0  0
 10 11  1  0  0  0  0
 10 12  2  0  0  0  0
 10 21  1  0  0  0  0
 11 15  1  0  0  0  0
 11 24  2  0  0  0  0
 12 19  1  0  0  0  0
 12 23  1  0  0  0  0
 13 22  1  0  0  0  0
 14 20  1  0  0  0  0
 14 29  1  0  0  0  0
 15 25  1  0  0  0  0
 15 30  2  0  0  0  0
 16 26  1  0  0  0  0
 17 20  2  0  0  0  0
 17 37  1  0  0  0  0
 18 19  2  0  0  0  0
 18 28  1  0  0  0  0
 19 38  1  0  0  0  0
 20 39  1  0  0  0  0
 21 28  2  0  0  0  0
 21 40  1  0  0  0  0
 22 26  2  0  0  0  0
 23 25  2  0  0  0  0
 23 41  1  0  0  0  0
 24 31  1  0  0  0  0
 25 42  1  0  0  0  0
 26 43  1  0  0  0  0
 27 32  2  0  0  0  0
 27 44  1  0  0  0  0
 28 45  1  0  0  0  0
 29 33  2  0  0  0  0
 29 46  1  0  0  0  0
 30 34  1  0  0  0  0
 30 47  1  0  0  0  0
 31 34  2  0  0  0  0
 31 48  1  0  0  0  0
 32 33  1  0  0  0  0
 32 49  1  0  0  0  0
 35 51  1  0  0  0  0
 35 52  1  0  0  0  0
 35 53  1  0  0  0  0
 36 54  1  0  0  0  0
 36 55  1  0  0  0  0
 36 56  1  0  0  0  0
M  END
> <PUBCHEM_COMPOUND_CID>
101634591

> <PUBCHEM_CONFORMER_RMSD>
0.8

> <PUBCHEM_CONFORMER_DIVERSEORDER>
1
35
33
37
23
11
27
19
29
14
18
30
32
38
9
36
34
16
28
21
31
17
26
12
24
13
22
10
15
20
4
25
6
7
8
5
2
3

> <PUBCHEM_MMFF94_PARTIAL_CHARGES>
44
1 -0.17
13 0.08
16 0.08
17 -0.15
18 0.08
19 -0.15
2 -0.36
20 -0.15
21 -0.15
22 0.08
23 -0.15
24 0.08
25 -0.15
26 -0.15
27 -0.15
28 -0.15
29 -0.15
3 -0.36
30 -0.15
31 -0.15
32 -0.15
33 0.08
34 0.08
35 0.28
36 0.28
37 0.15
38 0.15
39 0.15
4 -0.53
40 0.15
41 0.15
42 0.15
43 0.15
44 0.15
45 0.15
46 0.15
47 0.15
48 0.15
49 0.15
5 -0.53
50 0.45
57 0.45
58 0.45
6 -0.53

> <PUBCHEM_EFFECTIVE_ROTOR_COUNT>
4

> <PUBCHEM_PHARMACOPHORE_FEATURES>
12
1 1 acceptor
1 2 acceptor
1 3 acceptor
1 4 donor
1 5 donor
1 6 donor
6 10 11 12 15 23 25 rings
6 10 12 18 19 21 28 rings
6 11 15 24 30 31 34 rings
6 7 8 13 16 22 26 rings
6 7 8 9 14 17 20 rings
6 9 14 27 29 32 33 rings

> <PUBCHEM_HEAVY_ATOM_COUNT>
36

> <PUBCHEM_ATOM_DEF_STEREO_COUNT>
0

> <PUBCHEM_ATOM_UDEF_STEREO_COUNT>
0

> <PUBCHEM_BOND_DEF_STEREO_COUNT>
0

> <PUBCHEM_BOND_UDEF_STEREO_COUNT>
0

> <PUBCHEM_ISOTOPIC_ATOM_COUNT>
0

> <PUBCHEM_COMPONENT_COUNT>
1

> <PUBCHEM_CACTVS_TAUTO_COUNT>
137

> <PUBCHEM_CONFORMER_ID>
060ED21F00000001

> <PUBCHEM_MMFF94_ENERGY>
168.3556

> <PUBCHEM_FEATURE_SELFOVERLAP>
60.997

> <PUBCHEM_SHAPE_FINGERPRINT>
10299344 5 17203894071471001346
10670039 82 17022904532291617723
10677351 27 17203614791802516892
13402501 40 18411141346174026971
13673619 4 18342178860172348129
13782708 43 18336547102065670346
13811026 1 18411415107330925472
14040221 97 18048882085576537928
14068700 675 16660362615099869351
14118638 360 16733261266112111411
14294032 229 16661476308958031445
14849402 71 16056585617459387770
14856354 85 15482663585163336181
150020 25 18333445426406669380
15064981 113 16226040064061730442
15064986 266 18342458093208161973
15082195 135 17022912233526455006
15142383 8 9583516513147463814
15183329 4 13767926827751684434
15320294 125 16200148794673880205
15352257 5 18272089421981436971
15510800 12 18188780569134274611
15537594 2 17275098444469821045
15799311 1 15985387794011250878
19246450 95 16271377297104832995
19303781 99 17629766665566810430
2026 5 18338799997165257050
21033650 10 17168425952853328449
21267235 1 17917999343846670234
21307412 95 18114465665061270531
21623969 137 18201722842751905950
22149856 69 17988932158362782000
23522609 53 16844745251500287328
23559900 14 17531526594067002485
249057 25 14779534673913870772
25269216 80 17530970176895397287
34797466 226 18113899398965691896
437815 12 18408042931666541897
44880568 143 17967812730137018757
46194498 28 18187924031810830940
504579 68 15719113552664570386
5385378 56 11599740453668876045
54039377 194 17775292621576145806
563151 248 16056882446327151727
563151 97 15068613834429386993
58083652 198 16630228247876982872
6086070 43 17676765367594929152
6371009 1 13839981110269529390
6608658 132 15430311387553464767
9896288 288 15912222896853015443
999808 66 18273215292292818823

> <PUBCHEM_SHAPE_MULTIPOLES>
705.65
22.11
2.7
2.05
6.81
0.21
-1.11
-14.72
-2.05
1.44
-0.43
-3.22
0.48
3.93

> <PUBCHEM_SHAPE_SELFOVERLAP>
1616.239

> <PUBCHEM_SHAPE_VOLUME>
365.6

> <PUBCHEM_COORDINATE_TYPE>
2
5
10

$$$$
