101306728
  -OEChem-09172005113D

 87 91  0     1  0  0  0  0  0999 V2000
   -6.2635    1.6408    1.3672 O   0  0  0  0  0  0  0  0  0  0  0  0
   -2.3201    0.4727   -0.1288 C   0  0  1  0  0  0  0  0  0  0  0  0
   -3.8710    0.5198   -0.1907 C   0  0  2  0  0  0  0  0  0  0  0  0
   -3.1443    0.9119    1.0694 C   0  0  0  0  0  0  0  0  0  0  0  0
   -1.6242   -0.9042    0.0260 C   0  0  2  0  0  0  0  0  0  0  0  0
   -4.6649   -0.7864   -0.2458 C   0  0  1  0  0  0  0  0  0  0  0  0
   -0.1871   -0.9086   -0.5571 C   0  0  1  0  0  0  0  0  0  0  0  0
   -1.5558    1.5717   -0.8779 C   0  0  0  0  0  0  0  0  0  0  0  0
    0.5705    0.3674   -0.0582 C   0  0  2  0  0  0  0  0  0  0  0  0
   -4.5519    1.6426   -0.9706 C   0  0  0  0  0  0  0  0  0  0  0  0
   -2.5088   -2.0516   -0.4827 C   0  0  0  0  0  0  0  0  0  0  0  0
   -3.8674   -2.0156    0.2122 C   0  0  0  0  0  0  0  0  0  0  0  0
   -0.0227    1.6007   -0.7426 C   0  0  0  0  0  0  0  0  0  0  0  0
   -6.0875   -0.6320    0.4166 C   0  0  0  0  0  0  0  0  0  0  0  0
    2.0345    0.0344   -0.4528 C   0  0  2  0  0  0  0  0  0  0  0  0
    0.7289   -2.0275   -0.0166 C   0  0  0  0  0  0  0  0  0  0  0  0
   -6.0765    1.4885   -1.0203 C   0  0  0  0  0  0  0  0  0  0  0  0
   -6.6240    0.8299    0.2466 C   0  0  2  0  0  0  0  0  0  0  0  0
    2.1625   -1.4749   -0.1447 C   0  0  0  0  0  0  0  0  0  0  0  0
   -0.2266   -1.0749   -2.1077 C   0  0  0  0  0  0  0  0  0  0  0  0
    0.4965    0.6001    1.4821 C   0  0  0  0  0  0  0  0  0  0  0  0
    3.1386    0.8605    0.1977 C   0  0  1  0  0  0  0  0  0  0  0  0
   -7.0613   -1.5861   -0.3220 C   0  0  0  0  0  0  0  0  0  0  0  0
   -6.1086   -1.0327    1.9065 C   0  0  0  0  0  0  0  0  0  0  0  0
    4.5493    0.4502   -0.2763 C   0  0  0  0  0  0  0  0  0  0  0  0
    2.9161    2.3486   -0.0927 C   0  0  0  0  0  0  0  0  0  0  0  0
    5.6662    0.9334    0.6636 C   0  0  0  0  0  0  0  0  0  0  0  0
    7.1103    0.5071    0.2508 C   0  0  0  0  0  0  0  0  0  0  0  0
    8.0860    1.0241    1.3355 C   0  0  0  0  0  0  0  0  0  0  0  0
    7.4848    1.2458   -1.0587 C   0  0  0  0  0  0  0  0  0  0  0  0
    7.2495   -1.0288    0.1498 C   0  0  0  0  0  0  0  0  0  0  0  0
    6.9557   -1.8432    1.3893 C   0  0  0  0  0  0  0  0  0  0  0  0
    7.6167   -1.6835   -0.9668 C   0  0  0  0  0  0  0  0  0  0  0  0
   -3.1995    0.2589    1.9326 H   0  0  0  0  0  0  0  0  0  0  0  0
   -3.1183    1.9577    1.3575 H   0  0  0  0  0  0  0  0  0  0  0  0
   -1.5207   -1.0829    1.1058 H   0  0  0  0  0  0  0  0  0  0  0  0
   -4.8326   -0.9509   -1.3223 H   0  0  0  0  0  0  0  0  0  0  0  0
   -1.9314    2.5614   -0.5876 H   0  0  0  0  0  0  0  0  0  0  0  0
   -1.8021    1.4823   -1.9431 H   0  0  0  0  0  0  0  0  0  0  0  0
   -4.3137    2.6160   -0.5248 H   0  0  0  0  0  0  0  0  0  0  0  0
   -4.1736    1.6643   -1.9992 H   0  0  0  0  0  0  0  0  0  0  0  0
   -2.0250   -3.0130   -0.2756 H   0  0  0  0  0  0  0  0  0  0  0  0
   -2.6649   -1.9890   -1.5655 H   0  0  0  0  0  0  0  0  0  0  0  0
   -4.4184   -2.9297   -0.0359 H   0  0  0  0  0  0  0  0  0  0  0  0
   -3.7136   -2.0191    1.2967 H   0  0  0  0  0  0  0  0  0  0  0  0
    0.4028    1.7321   -1.7457 H   0  0  0  0  0  0  0  0  0  0  0  0
    0.2279    2.5178   -0.2010 H   0  0  0  0  0  0  0  0  0  0  0  0
    2.1508    0.1619   -1.5373 H   0  0  0  0  0  0  0  0  0  0  0  0
    0.6193   -2.9737   -0.5578 H   0  0  0  0  0  0  0  0  0  0  0  0
    0.5133   -2.2457    1.0360 H   0  0  0  0  0  0  0  0  0  0  0  0
   -6.5204    2.4821   -1.1567 H   0  0  0  0  0  0  0  0  0  0  0  0
   -6.3606    0.8969   -1.8987 H   0  0  0  0  0  0  0  0  0  0  0  0
   -7.7199    0.8231    0.2116 H   0  0  0  0  0  0  0  0  0  0  0  0
    2.7114   -1.6692    0.7838 H   0  0  0  0  0  0  0  0  0  0  0  0
    2.6956   -1.9842   -0.9556 H   0  0  0  0  0  0  0  0  0  0  0  0
   -0.9071   -0.3733   -2.5937 H   0  0  0  0  0  0  0  0  0  0  0  0
   -0.5625   -2.0818   -2.3824 H   0  0  0  0  0  0  0  0  0  0  0  0
    0.7510   -0.9535   -2.5809 H   0  0  0  0  0  0  0  0  0  0  0  0
    0.9051   -0.2418    2.0496 H   0  0  0  0  0  0  0  0  0  0  0  0
   -0.5239    0.7573    1.8369 H   0  0  0  0  0  0  0  0  0  0  0  0
    1.0421    1.4919    1.8002 H   0  0  0  0  0  0  0  0  0  0  0  0
    3.1153    0.7139    1.2844 H   0  0  0  0  0  0  0  0  0  0  0  0
   -7.1330   -1.3437   -1.3878 H   0  0  0  0  0  0  0  0  0  0  0  0
   -5.9154   -2.1025    2.0419 H   0  0  0  0  0  0  0  0  0  0  0  0
   -5.3636   -0.4833    2.4892 H   0  0  0  0  0  0  0  0  0  0  0  0
   -7.0910   -0.8307    2.3497 H   0  0  0  0  0  0  0  0  0  0  0  0
   -6.7410   -2.6301   -0.2391 H   0  0  0  0  0  0  0  0  0  0  0  0
   -8.0714   -1.5210    0.0989 H   0  0  0  0  0  0  0  0  0  0  0  0
   -6.6314    2.5284    1.2179 H   0  0  0  0  0  0  0  0  0  0  0  0
    4.6103   -0.6401   -0.3426 H   0  0  0  0  0  0  0  0  0  0  0  0
    4.7111    0.8303   -1.2914 H   0  0  0  0  0  0  0  0  0  0  0  0
    2.6809    2.5256   -1.1475 H   0  0  0  0  0  0  0  0  0  0  0  0
    2.1356    2.7862    0.5292 H   0  0  0  0  0  0  0  0  0  0  0  0
    3.8089    2.9410    0.1293 H   0  0  0  0  0  0  0  0  0  0  0  0
    5.6390    2.0270    0.7380 H   0  0  0  0  0  0  0  0  0  0  0  0
    5.4517    0.5685    1.6766 H   0  0  0  0  0  0  0  0  0  0  0  0
    8.5345    1.0752   -1.3265 H   0  0  0  0  0  0  0  0  0  0  0  0
    7.3533    2.3291   -0.9509 H   0  0  0  0  0  0  0  0  0  0  0  0
    6.8690    0.9291   -1.9067 H   0  0  0  0  0  0  0  0  0  0  0  0
    9.1140    0.7015    1.1326 H   0  0  0  0  0  0  0  0  0  0  0  0
    8.0857    2.1199    1.3762 H   0  0  0  0  0  0  0  0  0  0  0  0
    7.8141    0.6708    2.3361 H   0  0  0  0  0  0  0  0  0  0  0  0
    7.6529   -1.5966    2.1950 H   0  0  0  0  0  0  0  0  0  0  0  0
    7.0488   -2.9198    1.2067 H   0  0  0  0  0  0  0  0  0  0  0  0
    5.9343   -1.6699    1.7400 H   0  0  0  0  0  0  0  0  0  0  0  0
    7.8467   -1.1793   -1.8972 H   0  0  0  0  0  0  0  0  0  0  0  0
    7.6998   -2.7660   -0.9820 H   0  0  0  0  0  0  0  0  0  0  0  0
  1 18  1  0  0  0  0
  1 69  1  0  0  0  0
  2  3  1  0  0  0  0
  2  4  1  0  0  0  0
  2  5  1  0  0  0  0
  2  8  1  0  0  0  0
  3  4  1  0  0  0  0
  3  6  1  0  0  0  0
  3 10  1  0  0  0  0
  4 34  1  0  0  0  0
  4 35  1  0  0  0  0
  5  7  1  0  0  0  0
  5 11  1  0  0  0  0
  5 36  1  0  0  0  0
  6 12  1  0  0  0  0
  6 14  1  0  0  0  0
  6 37  1  0  0  0  0
  7  9  1  0  0  0  0
  7 16  1  0  0  0  0
  7 20  1  0  0  0  0
  8 13  1  0  0  0  0
  8 38  1  0  0  0  0
  8 39  1  0  0  0  0
  9 13  1  0  0  0  0
  9 15  1  0  0  0  0
  9 21  1  0  0  0  0
 10 17  1  0  0  0  0
 10 40  1  0  0  0  0
 10 41  1  0  0  0  0
 11 12  1  0  0  0  0
 11 42  1  0  0  0  0
 11 43  1  0  0  0  0
 12 44  1  0  0  0  0
 12 45  1  0  0  0  0
 13 46  1  0  0  0  0
 13 47  1  0  0  0  0
 14 18  1  0  0  0  0
 14 23  1  0  0  0  0
 14 24  1  0  0  0  0
 15 19  1  0  0  0  0
 15 22  1  0  0  0  0
 15 48  1  0  0  0  0
 16 19  1  0  0  0  0
 16 49  1  0  0  0  0
 16 50  1  0  0  0  0
 17 18  1  0  0  0  0
 17 51  1  0  0  0  0
 17 52  1  0  0  0  0
 18 53  1  0  0  0  0
 19 54  1  0  0  0  0
 19 55  1  0  0  0  0
 20 56  1  0  0  0  0
 20 57  1  0  0  0  0
 20 58  1  0  0  0  0
 21 59  1  0  0  0  0
 21 60  1  0  0  0  0
 21 61  1  0  0  0  0
 22 25  1  0  0  0  0
 22 26  1  0  0  0  0
 22 62  1  0  0  0  0
 23 63  1  0  0  0  0
 23 67  1  0  0  0  0
 23 68  1  0  0  0  0
 24 64  1  0  0  0  0
 24 65  1  0  0  0  0
 24 66  1  0  0  0  0
 25 27  1  0  0  0  0
 25 70  1  0  0  0  0
 25 71  1  0  0  0  0
 26 72  1  0  0  0  0
 26 73  1  0  0  0  0
 26 74  1  0  0  0  0
 27 28  1  0  0  0  0
 27 75  1  0  0  0  0
 27 76  1  0  0  0  0
 28 29  1  0  0  0  0
 28 30  1  0  0  0  0
 28 31  1  0  0  0  0
 29 80  1  0  0  0  0
 29 81  1  0  0  0  0
 29 82  1  0  0  0  0
 30 77  1  0  0  0  0
 30 78  1  0  0  0  0
 30 79  1  0  0  0  0
 31 32  1  0  0  0  0
 31 33  2  0  0  0  0
 32 83  1  0  0  0  0
 32 84  1  0  0  0  0
 32 85  1  0  0  0  0
 33 86  1  0  0  0  0
 33 87  1  0  0  0  0
M  END
> <PUBCHEM_COMPOUND_CID>
101306728

> <PUBCHEM_CONFORMER_RMSD>
1

> <PUBCHEM_CONFORMER_DIVERSEORDER>
1
8
19
15
11
6
14
4
10
22
16
3
17
13
20
5
12
7
21
9
18
23
2

> <PUBCHEM_MMFF94_PARTIAL_CHARGES>
18
1 -0.68
10 0.09
18 0.28
2 -0.19
28 0.14
3 -0.19
31 -0.28
32 0.14
33 -0.3
34 0.1
35 0.1
4 -0.2
5 0.09
6 0.09
69 0.4
8 0.09
86 0.15
87 0.15

> <PUBCHEM_EFFECTIVE_ROTOR_COUNT>
7.4

> <PUBCHEM_PHARMACOPHORE_FEATURES>
10
1 1 acceptor
1 1 donor
1 26 hydrophobe
3 14 23 24 hydrophobe
3 28 29 30 hydrophobe
5 22 25 27 28 31 hydrophobe
5 7 9 15 16 19 rings
6 2 5 7 8 9 13 rings
6 3 6 10 14 17 18 rings
7 2 3 4 5 6 11 12 rings

> <PUBCHEM_HEAVY_ATOM_COUNT>
33

> <PUBCHEM_ATOM_DEF_STEREO_COUNT>
9

> <PUBCHEM_ATOM_UDEF_STEREO_COUNT>
0

> <PUBCHEM_BOND_DEF_STEREO_COUNT>
0

> <PUBCHEM_BOND_UDEF_STEREO_COUNT>
0

> <PUBCHEM_ISOTOPIC_ATOM_COUNT>
0

> <PUBCHEM_COMPONENT_COUNT>
1

> <PUBCHEM_CACTVS_TAUTO_COUNT>
1

> <PUBCHEM_CONFORMER_ID>
0609D16800000001

> <PUBCHEM_MMFF94_ENERGY>
142.6371

> <PUBCHEM_FEATURE_SELFOVERLAP>
50.98

> <PUBCHEM_SHAPE_FINGERPRINT>
10 15 18407760343549301610
10050765 1 18048594824718982644
10299344 5 18261111881342335216
10319926 262 18339069484312238090
10580692 12 18411136974329400798
11135926 11 18335413552532079351
11315181 36 18342739624715318481
11524674 6 17489867154530201670
11578080 2 16589969543821252391
11719270 70 18273214180149756694
12166972 35 18260550052038586812
12236239 1 18113616802764704816
13533116 47 14620525493755897332
13782708 43 18130221683165270006
13811026 1 18411134723286516047
13914758 101 18334857208142945896
14251764 18 18410575102191185702
14849402 71 18337394962827727396
14856354 85 17895198852435968119
15131766 46 14905895056548019528
15183329 4 18341899589241632964
15301273 46 17967531264139937062
15461852 350 17131827694609822021
1577012 14 18260550065429241524
15849732 13 18409729569507794324
15927050 60 18408318908532304178
18608769 82 18409164428835942262
19611394 137 17823430468779104537
21130935 74 18272650173492026866
21267235 1 18333454270018592463
21781051 124 18042141963001565258
23522609 53 18117588230106622268
23559900 14 18272644696812482968
23569917 315 18412550928576435567
23569943 247 16806994439305105978
2838139 119 17632292393513720521
3004659 81 18334859403915661006
3178227 256 18412832403815922344
335352 9 18410572915720562140
3383291 50 18186803620671765634
350125 39 18410572894688940804
4073 2 17967536822165689842
4093350 32 16701747047036897134
4339292 15 15338541848469948013
5104073 3 18334863771433262355
59755656 215 18409446956285687230
6081469 158 17821720650656405735
6086070 43 17346303942903228491
6201320 215 15481842160015144674
6669772 16 17917999351756721646

> <PUBCHEM_SHAPE_MULTIPOLES>
673.26
23.36
2.26
1.34
25.17
0.26
-0.13
0.73
-4.31
-0.11
0.17
-0.1
0.05
0.34

> <PUBCHEM_SHAPE_SELFOVERLAP>
1413.251

> <PUBCHEM_SHAPE_VOLUME>
379.6

> <PUBCHEM_COORDINATE_TYPE>
2
5
10

$$$$
