15693460
  -OEChem-09172004263D

 40 41  0     0  0  0  0  0  0999 V2000
    4.0963    0.1296   -1.1204 O   0  0  0  0  0  0  0  0  0  0  0  0
    1.0566   -2.6820    1.2547 O   0  0  0  0  0  0  0  0  0  0  0  0
   -2.4483   -1.4133   -2.0163 O   0  0  0  0  0  0  0  0  0  0  0  0
    0.3631    2.1551    1.2967 C   0  0  0  0  0  0  0  0  0  0  0  0
   -0.7601    2.5373    0.3123 C   0  0  0  0  0  0  0  0  0  0  0  0
    1.1466    0.9406    0.8618 C   0  0  0  0  0  0  0  0  0  0  0  0
   -1.7932    1.4780    0.1278 C   0  0  0  0  0  0  0  0  0  0  0  0
    0.7303   -0.3175    1.2671 C   0  0  0  0  0  0  0  0  0  0  0  0
    2.2685    1.1054    0.0648 C   0  0  0  0  0  0  0  0  0  0  0  0
   -1.6357    0.5166   -0.8705 C   0  0  0  0  0  0  0  0  0  0  0  0
   -2.9168    1.4481    0.9539 C   0  0  0  0  0  0  0  0  0  0  0  0
    2.9927   -0.0170   -0.3372 C   0  0  0  0  0  0  0  0  0  0  0  0
    1.4543   -1.4400    0.8650 C   0  0  0  0  0  0  0  0  0  0  0  0
    2.5855   -1.2898    0.0629 C   0  0  0  0  0  0  0  0  0  0  0  0
   -2.6019   -0.4747   -1.0428 C   0  0  0  0  0  0  0  0  0  0  0  0
   -3.8828    0.4569    0.7818 C   0  0  0  0  0  0  0  0  0  0  0  0
   -3.7254   -0.5046   -0.2164 C   0  0  0  0  0  0  0  0  0  0  0  0
    4.4559    1.4590   -1.4933 C   0  0  0  0  0  0  0  0  0  0  0  0
   -0.1091   -2.7634    2.0734 C   0  0  0  0  0  0  0  0  0  0  0  0
   -1.2763   -1.3241   -2.8253 C   0  0  0  0  0  0  0  0  0  0  0  0
   -0.0587    1.9790    2.2952 H   0  0  0  0  0  0  0  0  0  0  0  0
    1.0436    3.0084    1.4132 H   0  0  0  0  0  0  0  0  0  0  0  0
   -0.3242    2.7984   -0.6616 H   0  0  0  0  0  0  0  0  0  0  0  0
   -1.2403    3.4585    0.6679 H   0  0  0  0  0  0  0  0  0  0  0  0
   -0.1495   -0.3762    1.8983 H   0  0  0  0  0  0  0  0  0  0  0  0
    2.5355    2.1178   -0.2180 H   0  0  0  0  0  0  0  0  0  0  0  0
   -0.7498    0.5903   -1.4925 H   0  0  0  0  0  0  0  0  0  0  0  0
   -3.0498    2.1898    1.7370 H   0  0  0  0  0  0  0  0  0  0  0  0
    3.1494   -2.1646   -0.2509 H   0  0  0  0  0  0  0  0  0  0  0  0
   -4.7571    0.4330    1.4257 H   0  0  0  0  0  0  0  0  0  0  0  0
   -4.4810   -1.2747   -0.3453 H   0  0  0  0  0  0  0  0  0  0  0  0
    3.6803    1.9283   -2.1082 H   0  0  0  0  0  0  0  0  0  0  0  0
    5.3554    1.3882   -2.1136 H   0  0  0  0  0  0  0  0  0  0  0  0
    4.7175    2.0655   -0.6196 H   0  0  0  0  0  0  0  0  0  0  0  0
   -0.2813   -3.8237    2.2857 H   0  0  0  0  0  0  0  0  0  0  0  0
   -0.9969   -2.3950    1.5478 H   0  0  0  0  0  0  0  0  0  0  0  0
    0.0401   -2.2649    3.0372 H   0  0  0  0  0  0  0  0  0  0  0  0
   -0.3660   -1.4621   -2.2319 H   0  0  0  0  0  0  0  0  0  0  0  0
   -1.2575   -0.3957   -3.4060 H   0  0  0  0  0  0  0  0  0  0  0  0
   -1.3165   -2.1493   -3.5439 H   0  0  0  0  0  0  0  0  0  0  0  0
  1 12  1  0  0  0  0
  1 18  1  0  0  0  0
  2 13  1  0  0  0  0
  2 19  1  0  0  0  0
  3 15  1  0  0  0  0
  3 20  1  0  0  0  0
  4  5  1  0  0  0  0
  4  6  1  0  0  0  0
  4 21  1  0  0  0  0
  4 22  1  0  0  0  0
  5  7  1  0  0  0  0
  5 23  1  0  0  0  0
  5 24  1  0  0  0  0
  6  8  2  0  0  0  0
  6  9  1  0  0  0  0
  7 10  2  0  0  0  0
  7 11  1  0  0  0  0
  8 13  1  0  0  0  0
  8 25  1  0  0  0  0
  9 12  2  0  0  0  0
  9 26  1  0  0  0  0
 10 15  1  0  0  0  0
 10 27  1  0  0  0  0
 11 16  2  0  0  0  0
 11 28  1  0  0  0  0
 12 14  1  0  0  0  0
 13 14  2  0  0  0  0
 14 29  1  0  0  0  0
 15 17  2  0  0  0  0
 16 17  1  0  0  0  0
 16 30  1  0  0  0  0
 17 31  1  0  0  0  0
 18 32  1  0  0  0  0
 18 33  1  0  0  0  0
 18 34  1  0  0  0  0
 19 35  1  0  0  0  0
 19 36  1  0  0  0  0
 19 37  1  0  0  0  0
 20 38  1  0  0  0  0
 20 39  1  0  0  0  0
 20 40  1  0  0  0  0
M  END
> <PUBCHEM_COMPOUND_CID>
15693460

> <PUBCHEM_CONFORMER_RMSD>
0.8

> <PUBCHEM_CONFORMER_DIVERSEORDER>
2
4
25
18
32
40
16
5
17
21
28
37
7
14
1
22
13
26
41
11
9
27
42
23
15
19
12
38
46
3
24
20
6
36
34
8
31
10
39
29
44
43
45
35
30
33

> <PUBCHEM_MMFF94_PARTIAL_CHARGES>
27
1 -0.36
10 -0.15
11 -0.15
12 0.08
13 0.08
14 -0.15
15 0.08
16 -0.15
17 -0.15
18 0.28
19 0.28
2 -0.36
20 0.28
25 0.15
26 0.15
27 0.15
28 0.15
29 0.15
3 -0.36
30 0.15
31 0.15
4 0.14
5 0.14
6 -0.14
7 -0.14
8 -0.15
9 -0.15

> <PUBCHEM_EFFECTIVE_ROTOR_COUNT>
6

> <PUBCHEM_PHARMACOPHORE_FEATURES>
5
1 1 acceptor
1 2 acceptor
1 3 acceptor
6 6 8 9 12 13 14 rings
6 7 10 11 15 16 17 rings

> <PUBCHEM_HEAVY_ATOM_COUNT>
20

> <PUBCHEM_ATOM_DEF_STEREO_COUNT>
0

> <PUBCHEM_ATOM_UDEF_STEREO_COUNT>
0

> <PUBCHEM_BOND_DEF_STEREO_COUNT>
0

> <PUBCHEM_BOND_UDEF_STEREO_COUNT>
0

> <PUBCHEM_ISOTOPIC_ATOM_COUNT>
0

> <PUBCHEM_COMPONENT_COUNT>
1

> <PUBCHEM_CACTVS_TAUTO_COUNT>
1

> <PUBCHEM_CONFORMER_ID>
00EF769400000002

> <PUBCHEM_MMFF94_ENERGY>
78.5072

> <PUBCHEM_FEATURE_SELFOVERLAP>
25.373

> <PUBCHEM_SHAPE_FINGERPRINT>
11321824 6 17696159562306306073
11759241 127 16660656171091582927
121448 382 18188479306783755594
12156800 1 17323293415313556687
12507560 18 14620527679092474907
12553582 1 18130497587490042557
12596599 1 17846490487013722307
12633257 1 12534508006890914143
14251711 518 18199165357193822283
14251764 3 15864074265155623654
14787075 74 18263092152986126155
15209289 33 18410578413262740121
15375462 175 17344624825359677377
15375462 189 18340485569389551945
16752209 62 17773298072823077421
16945 1 17988070089464644584
17349148 13 18261669278108888530
17357779 13 17610065937857427035
17804303 29 17203332234262379645
17980427 23 16736878638341654664
18981168 100 8067765155770860961
20442098 301 17703212023086666541
21330990 113 16099694448189531188
21634736 98 18200592613476019252
21731516 1 18199165361446474641
22182313 1 17763760071598236640
23402539 116 18408605855818543220
23419403 2 17616547588930507000
23598291 2 18194684756799921192
238 59 17678708259726717479
2748010 2 17689437504686002064
2818148 4 18272644636946866687
34934 24 18271231738597973809
351380 180 13840265935400001380
465052 167 18271814536401962587
469060 322 16010158819906171203
90525 40 17913204257056643673

> <PUBCHEM_SHAPE_MULTIPOLES>
393.98
6.56
2.71
2.06
1.93
0.61
0.96
-1.32
2.54
0.23
-1.17
-0.36
1.26
-1.54

> <PUBCHEM_SHAPE_SELFOVERLAP>
830.801

> <PUBCHEM_SHAPE_VOLUME>
222.1

> <PUBCHEM_COORDINATE_TYPE>
2
5
10

$$$$
