158976
  -OEChem-09172004323D

 34 36  0     0  0  0  0  0  0999 V2000
    1.8945   -2.3172   -0.4141 O   0  0  0  0  0  0  0  0  0  0  0  0
   -3.6343    1.3171    0.3684 O   0  0  0  0  0  0  0  0  0  0  0  0
   -4.4754   -1.2646    0.0557 O   0  0  0  0  0  0  0  0  0  0  0  0
    5.0775    1.1157   -0.1081 O   0  0  0  0  0  0  0  0  0  0  0  0
    1.0345   -0.0391   -0.0586 C   0  0  0  0  0  0  0  0  0  0  0  0
   -0.3631   -0.3849   -0.0342 C   0  0  0  0  0  0  0  0  0  0  0  0
   -1.3265    0.6402    0.1553 C   0  0  0  0  0  0  0  0  0  0  0  0
    1.4152    1.3182    0.1074 C   0  0  0  0  0  0  0  0  0  0  0  0
    2.0823   -0.9762   -0.2403 C   0  0  0  0  0  0  0  0  0  0  0  0
   -0.9128    1.9651    0.3153 C   0  0  0  0  0  0  0  0  0  0  0  0
    0.4373    2.2991    0.2918 C   0  0  0  0  0  0  0  0  0  0  0  0
   -2.6982    0.3358    0.1838 C   0  0  0  0  0  0  0  0  0  0  0  0
   -0.8593   -1.7038   -0.1890 C   0  0  0  0  0  0  0  0  0  0  0  0
    2.7709    1.6880    0.0883 C   0  0  0  0  0  0  0  0  0  0  0  0
   -3.1458   -0.9724    0.0278 C   0  0  0  0  0  0  0  0  0  0  0  0
    3.4267   -0.5949   -0.2573 C   0  0  0  0  0  0  0  0  0  0  0  0
   -2.2262   -1.9927   -0.1584 C   0  0  0  0  0  0  0  0  0  0  0  0
    3.7710    0.7378   -0.0930 C   0  0  0  0  0  0  0  0  0  0  0  0
    1.8701   -3.1228    0.7610 C   0  0  0  0  0  0  0  0  0  0  0  0
   -4.1381    1.9517   -0.8017 C   0  0  0  0  0  0  0  0  0  0  0  0
   -1.6249    2.7726    0.4708 H   0  0  0  0  0  0  0  0  0  0  0  0
    0.7155    3.3433    0.4222 H   0  0  0  0  0  0  0  0  0  0  0  0
   -0.2459   -2.5634   -0.4032 H   0  0  0  0  0  0  0  0  0  0  0  0
    3.0484    2.7334    0.2170 H   0  0  0  0  0  0  0  0  0  0  0  0
    4.2068   -1.3391   -0.4008 H   0  0  0  0  0  0  0  0  0  0  0  0
   -2.5544   -3.0198   -0.2957 H   0  0  0  0  0  0  0  0  0  0  0  0
   -4.5931   -2.2219   -0.0693 H   0  0  0  0  0  0  0  0  0  0  0  0
    2.8928   -3.2857    1.1159 H   0  0  0  0  0  0  0  0  0  0  0  0
    1.4358   -4.0942    0.5080 H   0  0  0  0  0  0  0  0  0  0  0  0
    1.2777   -2.6656    1.5604 H   0  0  0  0  0  0  0  0  0  0  0  0
    5.1300    2.0783    0.0207 H   0  0  0  0  0  0  0  0  0  0  0  0
   -4.7293    1.2459   -1.3937 H   0  0  0  0  0  0  0  0  0  0  0  0
   -3.3280    2.3610   -1.4135 H   0  0  0  0  0  0  0  0  0  0  0  0
   -4.7887    2.7743   -0.4919 H   0  0  0  0  0  0  0  0  0  0  0  0
  1  9  1  0  0  0  0
  1 19  1  0  0  0  0
  2 12  1  0  0  0  0
  2 20  1  0  0  0  0
  3 15  1  0  0  0  0
  3 27  1  0  0  0  0
  4 18  1  0  0  0  0
  4 31  1  0  0  0  0
  5  6  1  0  0  0  0
  5  8  1  0  0  0  0
  5  9  2  0  0  0  0
  6  7  2  0  0  0  0
  6 13  1  0  0  0  0
  7 10  1  0  0  0  0
  7 12  1  0  0  0  0
  8 11  1  0  0  0  0
  8 14  2  0  0  0  0
  9 16  1  0  0  0  0
 10 11  2  0  0  0  0
 10 21  1  0  0  0  0
 11 22  1  0  0  0  0
 12 15  2  0  0  0  0
 13 17  2  0  0  0  0
 13 23  1  0  0  0  0
 14 18  1  0  0  0  0
 14 24  1  0  0  0  0
 15 17  1  0  0  0  0
 16 18  2  0  0  0  0
 16 25  1  0  0  0  0
 17 26  1  0  0  0  0
 19 28  1  0  0  0  0
 19 29  1  0  0  0  0
 19 30  1  0  0  0  0
 20 32  1  0  0  0  0
 20 33  1  0  0  0  0
 20 34  1  0  0  0  0
M  END
> <PUBCHEM_COMPOUND_CID>
158976

> <PUBCHEM_CONFORMER_RMSD>
0.6

> <PUBCHEM_CONFORMER_DIVERSEORDER>
2
1

> <PUBCHEM_MMFF94_PARTIAL_CHARGES>
24
1 -0.36
10 -0.15
11 -0.15
12 0.08
13 -0.15
14 -0.15
15 0.08
16 -0.15
17 -0.15
18 0.08
19 0.28
2 -0.36
20 0.28
21 0.15
22 0.15
23 0.15
24 0.15
25 0.15
26 0.15
27 0.45
3 -0.53
31 0.45
4 -0.53
9 0.08

> <PUBCHEM_EFFECTIVE_ROTOR_COUNT>
2

> <PUBCHEM_PHARMACOPHORE_FEATURES>
7
1 1 acceptor
1 2 acceptor
1 3 donor
1 4 donor
6 5 6 7 8 10 11 rings
6 5 8 9 14 16 18 rings
6 6 7 12 13 15 17 rings

> <PUBCHEM_HEAVY_ATOM_COUNT>
20

> <PUBCHEM_ATOM_DEF_STEREO_COUNT>
0

> <PUBCHEM_ATOM_UDEF_STEREO_COUNT>
0

> <PUBCHEM_BOND_DEF_STEREO_COUNT>
0

> <PUBCHEM_BOND_UDEF_STEREO_COUNT>
0

> <PUBCHEM_ISOTOPIC_ATOM_COUNT>
0

> <PUBCHEM_COMPONENT_COUNT>
1

> <PUBCHEM_CACTVS_TAUTO_COUNT>
8

> <PUBCHEM_CONFORMER_ID>
00026D0000000002

> <PUBCHEM_MMFF94_ENERGY>
93.2677

> <PUBCHEM_FEATURE_SELFOVERLAP>
35.569

> <PUBCHEM_SHAPE_FINGERPRINT>
10062212 137 18409720785750976082
10411042 1 16033518177178453934
10498660 4 18411986845030293828
10608611 8 18411980299336675657
10616163 171 18411984697272280622
10863032 1 18411136892424309293
10967382 1 18339644417066191576
1100329 8 17476080120610536328
11132069 177 18412542124214322456
11471102 20 18412260597634759172
11578080 2 17242725386707087366
12788726 201 17559399050390414961
13132413 78 18413109476250752933
13140716 1 18124601031031409425
138480 1 17906171754842348618
14178342 30 18340472465375649672
14223421 5 18338235951487798502
14790565 3 18265059218228461356
15196674 1 18411983550747906766
15442244 35 18195810656791107922
15536298 74 18271811202884939534
16945 1 18411982416871486728
19591789 44 18339926038272464718
200 152 17989485255798330125
20645477 70 18271806761572316215
20739085 24 17834427556057183945
20905425 154 18270403785056981734
21267235 1 18340216292051493694
21421861 104 17970343720373480586
21501502 16 18411980226200776003
2334 1 18124316270589229288
23402539 116 18341044203386182716
23463225 33 18410575115023405020
23559900 14 18270398274862146486
238 59 16598961216943935133
2748010 2 18341335573323802605
2871803 45 18411136956775076326
3312278 4 18413393145850191713
335352 9 18267586810396498326
34934 24 18412258406916367628
350125 39 18194688287458425097
43471831 8 18408601466240654058
5104073 3 18411138017521105986
57005193 9 18411693253882178232
7364860 26 18269275669142511310
8809292 202 18118686753590479539
9709674 26 18411989065233279015

> <PUBCHEM_SHAPE_MULTIPOLES>
388.11
7.61
2.97
0.7
0.48
1.07
0
-1.54
-0.69
-0.2
0.25
0.07
0.02
0.08

> <PUBCHEM_SHAPE_SELFOVERLAP>
866.546

> <PUBCHEM_SHAPE_VOLUME>
208

> <PUBCHEM_COORDINATE_TYPE>
2
5
10

$$$$
