102316540
  -OEChem-09172004163D

 51 53  0     0  0  0  0  0  0999 V2000
   -0.9146    1.6204   -1.8651 O   0  0  0  0  0  0  0  0  0  0  0  0
    1.3479    4.2448    1.4065 O   0  0  0  0  0  0  0  0  0  0  0  0
    4.2615   -0.3072   -1.8011 O   0  0  0  0  0  0  0  0  0  0  0  0
   -6.4434   -0.9511   -0.0343 O   0  0  0  0  0  0  0  0  0  0  0  0
    0.3844    0.7158    1.4420 C   0  0  0  0  0  0  0  0  0  0  0  0
    0.4849   -0.4576    2.3607 C   0  0  0  0  0  0  0  0  0  0  0  0
   -0.2305    0.6019    0.1951 C   0  0  0  0  0  0  0  0  0  0  0  0
    1.8881   -1.0911    2.4158 C   0  0  0  0  0  0  0  0  0  0  0  0
   -0.8103   -0.7252   -0.2517 C   0  0  0  0  0  0  0  0  0  0  0  0
   -0.3153    1.7123   -0.6447 C   0  0  0  0  0  0  0  0  0  0  0  0
    0.9145    1.9400    1.8488 C   0  0  0  0  0  0  0  0  0  0  0  0
    2.3791   -1.5684    1.0707 C   0  0  0  0  0  0  0  0  0  0  0  0
   -2.2991   -0.7854   -0.1938 C   0  0  0  0  0  0  0  0  0  0  0  0
    0.8299    3.0505    1.0089 C   0  0  0  0  0  0  0  0  0  0  0  0
    0.2149    2.9366   -0.2379 C   0  0  0  0  0  0  0  0  0  0  0  0
    3.1026   -0.7070    0.2462 C   0  0  0  0  0  0  0  0  0  0  0  0
    2.1086   -2.8714    0.6523 C   0  0  0  0  0  0  0  0  0  0  0  0
   -3.0481   -0.6509   -1.3629 C   0  0  0  0  0  0  0  0  0  0  0  0
   -2.9430   -0.9756    1.0289 C   0  0  0  0  0  0  0  0  0  0  0  0
    3.5557   -1.1483   -0.9969 C   0  0  0  0  0  0  0  0  0  0  0  0
    2.5618   -3.3126   -0.5909 C   0  0  0  0  0  0  0  0  0  0  0  0
   -4.4406   -0.7069   -1.3094 C   0  0  0  0  0  0  0  0  0  0  0  0
   -4.3356   -1.0316    1.0824 C   0  0  0  0  0  0  0  0  0  0  0  0
    3.2852   -2.4512   -1.4157 C   0  0  0  0  0  0  0  0  0  0  0  0
   -5.0844   -0.8973   -0.0867 C   0  0  0  0  0  0  0  0  0  0  0  0
   -0.9559    2.8057   -2.6572 C   0  0  0  0  0  0  0  0  0  0  0  0
    4.5019    1.0109   -1.3101 C   0  0  0  0  0  0  0  0  0  0  0  0
    0.2383   -0.1101    3.3745 H   0  0  0  0  0  0  0  0  0  0  0  0
   -0.2540   -1.2380    2.1821 H   0  0  0  0  0  0  0  0  0  0  0  0
    1.8768   -1.9315    3.1218 H   0  0  0  0  0  0  0  0  0  0  0  0
    2.6100   -0.3743    2.8292 H   0  0  0  0  0  0  0  0  0  0  0  0
   -0.3969   -1.5969    0.2576 H   0  0  0  0  0  0  0  0  0  0  0  0
   -0.4755   -0.8942   -1.2864 H   0  0  0  0  0  0  0  0  0  0  0  0
    1.3954    2.0371    2.8193 H   0  0  0  0  0  0  0  0  0  0  0  0
    0.1793    3.8338   -0.8463 H   0  0  0  0  0  0  0  0  0  0  0  0
    3.2950    0.2916    0.6231 H   0  0  0  0  0  0  0  0  0  0  0  0
    1.5434   -3.5506    1.2848 H   0  0  0  0  0  0  0  0  0  0  0  0
   -2.5640   -0.5110   -2.3256 H   0  0  0  0  0  0  0  0  0  0  0  0
   -2.3877   -1.0834    1.9537 H   0  0  0  0  0  0  0  0  0  0  0  0
    2.3502   -4.3266   -0.9173 H   0  0  0  0  0  0  0  0  0  0  0  0
   -5.0126   -0.6025   -2.2275 H   0  0  0  0  0  0  0  0  0  0  0  0
   -4.8318   -1.1799    2.0377 H   0  0  0  0  0  0  0  0  0  0  0  0
    3.6350   -2.8004   -2.3832 H   0  0  0  0  0  0  0  0  0  0  0  0
    1.2040    4.9035    0.7057 H   0  0  0  0  0  0  0  0  0  0  0  0
   -1.4660    2.5492   -3.5917 H   0  0  0  0  0  0  0  0  0  0  0  0
    0.0492    3.1461   -2.9286 H   0  0  0  0  0  0  0  0  0  0  0  0
   -1.5502    3.5915   -2.1784 H   0  0  0  0  0  0  0  0  0  0  0  0
   -6.7980   -0.8399   -0.9331 H   0  0  0  0  0  0  0  0  0  0  0  0
    5.0728    1.5424   -2.0785 H   0  0  0  0  0  0  0  0  0  0  0  0
    3.5672    1.5642   -1.1675 H   0  0  0  0  0  0  0  0  0  0  0  0
    5.1196    0.9974   -0.4057 H   0  0  0  0  0  0  0  0  0  0  0  0
  1 10  1  0  0  0  0
  1 26  1  0  0  0  0
  2 14  1  0  0  0  0
  2 44  1  0  0  0  0
  3 20  1  0  0  0  0
  3 27  1  0  0  0  0
  4 25  1  0  0  0  0
  4 48  1  0  0  0  0
  5  6  1  0  0  0  0
  5  7  2  0  0  0  0
  5 11  1  0  0  0  0
  6  8  1  0  0  0  0
  6 28  1  0  0  0  0
  6 29  1  0  0  0  0
  7  9  1  0  0  0  0
  7 10  1  0  0  0  0
  8 12  1  0  0  0  0
  8 30  1  0  0  0  0
  8 31  1  0  0  0  0
  9 13  1  0  0  0  0
  9 32  1  0  0  0  0
  9 33  1  0  0  0  0
 10 15  2  0  0  0  0
 11 14  2  0  0  0  0
 11 34  1  0  0  0  0
 12 16  2  0  0  0  0
 12 17  1  0  0  0  0
 13 18  2  0  0  0  0
 13 19  1  0  0  0  0
 14 15  1  0  0  0  0
 15 35  1  0  0  0  0
 16 20  1  0  0  0  0
 16 36  1  0  0  0  0
 17 21  2  0  0  0  0
 17 37  1  0  0  0  0
 18 22  1  0  0  0  0
 18 38  1  0  0  0  0
 19 23  2  0  0  0  0
 19 39  1  0  0  0  0
 20 24  2  0  0  0  0
 21 24  1  0  0  0  0
 21 40  1  0  0  0  0
 22 25  2  0  0  0  0
 22 41  1  0  0  0  0
 23 25  1  0  0  0  0
 23 42  1  0  0  0  0
 24 43  1  0  0  0  0
 26 45  1  0  0  0  0
 26 46  1  0  0  0  0
 26 47  1  0  0  0  0
 27 49  1  0  0  0  0
 27 50  1  0  0  0  0
 27 51  1  0  0  0  0
M  END
> <PUBCHEM_COMPOUND_CID>
102316540

> <PUBCHEM_CONFORMER_RMSD>
0.8

> <PUBCHEM_CONFORMER_DIVERSEORDER>
2
64
70
111
35
85
77
46
131
127
142
95
104
57
91
132
14
143
52
81
134
78
133
62
100
10
27
122
6
44
152
107
61
135
155
31
37
130
33
68
141
45
48
128
145
109
56
89
67
34
119
16
71
156
40
102
83
124
139
76
58
73
149
92
151
54
153
59
42
117
21
80
13
5
90
148
147
98
115
26
9
72
18
47
99
49
15
55
106
121
108
22
126
110
96
51
24
120
30
150
129
103
79
43
63
112
17
154
137
36
60
97
86
140
123
116
146
25
69
20
113
23
28
88
7
138
84
3
114
118
29
125
11
87
19
74
50
8
12
1
75
144
41
93
53
105
94
66
38
65
136
101
39
32
4
82

> <PUBCHEM_MMFF94_PARTIAL_CHARGES>
39
1 -0.36
10 0.08
11 -0.15
12 -0.14
13 -0.14
14 0.08
15 -0.15
16 -0.15
17 -0.15
18 -0.15
19 -0.15
2 -0.53
20 0.08
21 -0.15
22 -0.15
23 -0.15
24 -0.15
25 0.08
26 0.28
27 0.28
3 -0.36
34 0.15
35 0.15
36 0.15
37 0.15
38 0.15
39 0.15
4 -0.53
40 0.15
41 0.15
42 0.15
43 0.15
44 0.45
48 0.45
5 -0.14
6 0.14
7 -0.14
8 0.14
9 0.29

> <PUBCHEM_EFFECTIVE_ROTOR_COUNT>
7

> <PUBCHEM_PHARMACOPHORE_FEATURES>
7
1 1 acceptor
1 2 donor
1 3 acceptor
1 4 donor
6 12 16 17 20 21 24 rings
6 13 18 19 22 23 25 rings
6 5 7 10 11 14 15 rings

> <PUBCHEM_HEAVY_ATOM_COUNT>
27

> <PUBCHEM_ATOM_DEF_STEREO_COUNT>
0

> <PUBCHEM_ATOM_UDEF_STEREO_COUNT>
0

> <PUBCHEM_BOND_DEF_STEREO_COUNT>
0

> <PUBCHEM_BOND_UDEF_STEREO_COUNT>
0

> <PUBCHEM_ISOTOPIC_ATOM_COUNT>
0

> <PUBCHEM_COMPONENT_COUNT>
1

> <PUBCHEM_CACTVS_TAUTO_COUNT>
433

> <PUBCHEM_CONFORMER_ID>
061939FC00000002

> <PUBCHEM_MMFF94_ENERGY>
94.4809

> <PUBCHEM_FEATURE_SELFOVERLAP>
35.522

> <PUBCHEM_SHAPE_FINGERPRINT>
10305334 12 14654678488591966852
11140007 195 14764351522214654370
11578080 2 17631157598861321656
12553582 1 18343576335045696039
12714826 92 18265325114930826423
12788726 201 18192151503558234506
13583140 156 16054593315121706147
13773456 73 12823006591123685215
13911987 19 18119837895816407166
14251757 17 17458068153163145031
15664445 248 18272655662385936512
17349148 13 11312053275274401523
17492 54 18263659505581635022
17818456 19 17203335468783736803
17974551 9 12750935746621208022
1813 80 18202002101267022667
20429585 67 18187943779932625534
21285901 2 18187363216460950103
22907989 373 17981326681798749668
23557571 272 18121197811037065498
23559900 14 17346316059438681831
238 59 17241064114947927022
38695281 34 17982441908738605696
59444896 2 17689486707710824309
6823239 73 17313669381793124771
70251023 43 18197511631724467142
7097593 13 13613651065408128802
9981440 41 13697312940005514058

> <PUBCHEM_SHAPE_MULTIPOLES>
532.17
8.7
3.91
2.31
9.91
2.99
-0.11
-6.4
3.18
-2.81
-0.02
-0.89
0.81
0.94

> <PUBCHEM_SHAPE_SELFOVERLAP>
1148.705

> <PUBCHEM_SHAPE_VOLUME>
292.2

> <PUBCHEM_COORDINATE_TYPE>
2
5
10

$$$$
