14863077
  -OEChem-09172004503D

 74 80  0     0  0  0  0  0  0999 V2000
    0.7190   -2.1210    1.4223 O   0  0  0  0  0  0  0  0  0  0  0  0
    5.2472   -3.3764    1.5836 O   0  0  0  0  0  0  0  0  0  0  0  0
   -1.6201    2.3233   -2.6148 O   0  0  0  0  0  0  0  0  0  0  0  0
   -1.1783    3.1757    0.9552 O   0  0  0  0  0  0  0  0  0  0  0  0
   -5.6385    2.2906    2.0320 O   0  0  0  0  0  0  0  0  0  0  0  0
   -8.9425   -2.7359   -0.3767 O   0  0  0  0  0  0  0  0  0  0  0  0
    8.7094    3.0032    1.1933 O   0  0  0  0  0  0  0  0  0  0  0  0
    3.5755   -0.9377   -0.5994 C   0  0  0  0  0  0  0  0  0  0  0  0
    3.9245    0.0231   -1.7108 C   0  0  0  0  0  0  0  0  0  0  0  0
    2.7699    0.1739   -2.7012 C   0  0  0  0  0  0  0  0  0  0  0  0
    2.2477   -0.9909   -0.1127 C   0  0  0  0  0  0  0  0  0  0  0  0
    1.2144   -0.1232   -0.7299 C   0  0  0  0  0  0  0  0  0  0  0  0
    1.4694    0.4653   -1.9915 C   0  0  0  0  0  0  0  0  0  0  0  0
    4.5830   -1.7256   -0.0230 C   0  0  0  0  0  0  0  0  0  0  0  0
   -0.0172    0.1627   -0.1141 C   0  0  0  0  0  0  0  0  0  0  0  0
   -0.9668    0.9796   -0.7349 C   0  0  0  0  0  0  0  0  0  0  0  0
    1.9729   -1.8871    0.9355 C   0  0  0  0  0  0  0  0  0  0  0  0
    0.5051    1.2709   -2.6154 C   0  0  0  0  0  0  0  0  0  0  0  0
    5.9994   -1.6460   -0.5017 C   0  0  0  0  0  0  0  0  0  0  0  0
    4.2829   -2.5970    1.0193 C   0  0  0  0  0  0  0  0  0  0  0  0
   -0.7081    1.5291   -1.9856 C   0  0  0  0  0  0  0  0  0  0  0  0
   -2.2168    1.2521   -0.0525 C   0  0  0  0  0  0  0  0  0  0  0  0
    2.9789   -2.6809    1.4945 C   0  0  0  0  0  0  0  0  0  0  0  0
   -3.3528    0.4329   -0.2137 C   0  0  0  0  0  0  0  0  0  0  0  0
   -4.5634    0.7237    0.4680 C   0  0  0  0  0  0  0  0  0  0  0  0
    6.7266   -0.3994   -0.0469 C   0  0  0  0  0  0  0  0  0  0  0  0
   -2.2634    2.3681    0.7838 C   0  0  0  0  0  0  0  0  0  0  0  0
   -5.7015   -0.1374    0.2770 C   0  0  0  0  0  0  0  0  0  0  0  0
   -4.5628    1.8671    1.3060 C   0  0  0  0  0  0  0  0  0  0  0  0
   -3.2775   -0.6778   -1.0578 C   0  0  0  0  0  0  0  0  0  0  0  0
   -3.4332    2.6750    1.4613 C   0  0  0  0  0  0  0  0  0  0  0  0
   -5.5856   -1.2561   -0.5890 C   0  0  0  0  0  0  0  0  0  0  0  0
   -4.3771   -1.5095   -1.2428 C   0  0  0  0  0  0  0  0  0  0  0  0
    6.6098    0.0084    1.2704 C   0  0  0  0  0  0  0  0  0  0  0  0
    7.4921    0.3063   -0.9590 C   0  0  0  0  0  0  0  0  0  0  0  0
   -6.9581    0.0541    0.9041 C   0  0  0  0  0  0  0  0  0  0  0  0
   -6.6779   -2.1154   -0.7974 C   0  0  0  0  0  0  0  0  0  0  0  0
   -0.0255   -3.1703    0.8100 C   0  0  0  0  0  0  0  0  0  0  0  0
   -8.0365   -0.8082    0.6883 C   0  0  0  0  0  0  0  0  0  0  0  0
   -7.8962   -1.8934   -0.1630 C   0  0  0  0  0  0  0  0  0  0  0  0
    7.2796    1.1582    1.6890 C   0  0  0  0  0  0  0  0  0  0  0  0
    8.1619    1.4561   -0.5402 C   0  0  0  0  0  0  0  0  0  0  0  0
    8.0555    1.8820    0.7837 C   0  0  0  0  0  0  0  0  0  0  0  0
   -6.5248    3.2079    1.3970 C   0  0  0  0  0  0  0  0  0  0  0  0
    4.1608    0.9957   -1.2601 H   0  0  0  0  0  0  0  0  0  0  0  0
    4.7891   -0.2894   -2.2995 H   0  0  0  0  0  0  0  0  0  0  0  0
    2.6432   -0.7492   -3.2814 H   0  0  0  0  0  0  0  0  0  0  0  0
    3.0120    0.9778   -3.4066 H   0  0  0  0  0  0  0  0  0  0  0  0
   -0.2495   -0.1870    0.8862 H   0  0  0  0  0  0  0  0  0  0  0  0
    0.7127    1.6952   -3.5951 H   0  0  0  0  0  0  0  0  0  0  0  0
    6.0305   -1.7575   -1.5924 H   0  0  0  0  0  0  0  0  0  0  0  0
    6.5917   -2.5020   -0.1523 H   0  0  0  0  0  0  0  0  0  0  0  0
    2.7352   -3.3723    2.2983 H   0  0  0  0  0  0  0  0  0  0  0  0
   -2.3749   -0.9443   -1.6016 H   0  0  0  0  0  0  0  0  0  0  0  0
   -3.4667    3.5445    2.1139 H   0  0  0  0  0  0  0  0  0  0  0  0
   -4.2747   -2.3641   -1.9092 H   0  0  0  0  0  0  0  0  0  0  0  0
    4.8503   -3.9124    2.2914 H   0  0  0  0  0  0  0  0  0  0  0  0
   -1.2588    2.6082   -3.4716 H   0  0  0  0  0  0  0  0  0  0  0  0
    6.0268   -0.5427    2.0007 H   0  0  0  0  0  0  0  0  0  0  0  0
    7.5823   -0.0169   -1.9918 H   0  0  0  0  0  0  0  0  0  0  0  0
   -7.1643    0.8221    1.6314 H   0  0  0  0  0  0  0  0  0  0  0  0
   -6.5746   -2.9700   -1.4649 H   0  0  0  0  0  0  0  0  0  0  0  0
    0.4190   -4.1418    1.0476 H   0  0  0  0  0  0  0  0  0  0  0  0
   -0.0748   -3.0374   -0.2756 H   0  0  0  0  0  0  0  0  0  0  0  0
   -1.0432   -3.1457    1.2095 H   0  0  0  0  0  0  0  0  0  0  0  0
   -8.9780   -0.6302    1.2010 H   0  0  0  0  0  0  0  0  0  0  0  0
   -0.4135    2.8710    0.4439 H   0  0  0  0  0  0  0  0  0  0  0  0
    7.1916    1.4776    2.7239 H   0  0  0  0  0  0  0  0  0  0  0  0
    8.7651    2.0155   -1.2500 H   0  0  0  0  0  0  0  0  0  0  0  0
   -6.7405    2.9212    0.3623 H   0  0  0  0  0  0  0  0  0  0  0  0
   -6.0871    4.2112    1.4111 H   0  0  0  0  0  0  0  0  0  0  0  0
   -7.4614    3.2341    1.9611 H   0  0  0  0  0  0  0  0  0  0  0  0
   -8.6657   -3.4331   -0.9959 H   0  0  0  0  0  0  0  0  0  0  0  0
    8.5242    3.1491    2.1369 H   0  0  0  0  0  0  0  0  0  0  0  0
  1 17  1  0  0  0  0
  1 38  1  0  0  0  0
  2 20  1  0  0  0  0
  2 57  1  0  0  0  0
  3 21  1  0  0  0  0
  3 58  1  0  0  0  0
  4 27  1  0  0  0  0
  4 67  1  0  0  0  0
  5 29  1  0  0  0  0
  5 44  1  0  0  0  0
  6 40  1  0  0  0  0
  6 73  1  0  0  0  0
  7 43  1  0  0  0  0
  7 74  1  0  0  0  0
  8  9  1  0  0  0  0
  8 11  1  0  0  0  0
  8 14  2  0  0  0  0
  9 10  1  0  0  0  0
  9 45  1  0  0  0  0
  9 46  1  0  0  0  0
 10 13  1  0  0  0  0
 10 47  1  0  0  0  0
 10 48  1  0  0  0  0
 11 12  1  0  0  0  0
 11 17  2  0  0  0  0
 12 13  1  0  0  0  0
 12 15  2  0  0  0  0
 13 18  2  0  0  0  0
 14 19  1  0  0  0  0
 14 20  1  0  0  0  0
 15 16  1  0  0  0  0
 15 49  1  0  0  0  0
 16 21  2  0  0  0  0
 16 22  1  0  0  0  0
 17 23  1  0  0  0  0
 18 21  1  0  0  0  0
 18 50  1  0  0  0  0
 19 26  1  0  0  0  0
 19 51  1  0  0  0  0
 19 52  1  0  0  0  0
 20 23  2  0  0  0  0
 22 24  2  0  0  0  0
 22 27  1  0  0  0  0
 23 53  1  0  0  0  0
 24 25  1  0  0  0  0
 24 30  1  0  0  0  0
 25 28  1  0  0  0  0
 25 29  2  0  0  0  0
 26 34  2  0  0  0  0
 26 35  1  0  0  0  0
 27 31  2  0  0  0  0
 28 32  2  0  0  0  0
 28 36  1  0  0  0  0
 29 31  1  0  0  0  0
 30 33  2  0  0  0  0
 30 54  1  0  0  0  0
 31 55  1  0  0  0  0
 32 33  1  0  0  0  0
 32 37  1  0  0  0  0
 33 56  1  0  0  0  0
 34 41  1  0  0  0  0
 34 59  1  0  0  0  0
 35 42  2  0  0  0  0
 35 60  1  0  0  0  0
 36 39  2  0  0  0  0
 36 61  1  0  0  0  0
 37 40  2  0  0  0  0
 37 62  1  0  0  0  0
 38 63  1  0  0  0  0
 38 64  1  0  0  0  0
 38 65  1  0  0  0  0
 39 40  1  0  0  0  0
 39 66  1  0  0  0  0
 41 43  2  0  0  0  0
 41 68  1  0  0  0  0
 42 43  1  0  0  0  0
 42 69  1  0  0  0  0
 44 70  1  0  0  0  0
 44 71  1  0  0  0  0
 44 72  1  0  0  0  0
M  END
> <PUBCHEM_COMPOUND_CID>
14863077

> <PUBCHEM_CONFORMER_RMSD>
1

> <PUBCHEM_CONFORMER_DIVERSEORDER>
1
15
13
5
8
2
11
9
4
12
10
6
3
7
16
14

> <PUBCHEM_MMFF94_PARTIAL_CHARGES>
54
1 -0.36
10 0.14
13 -0.14
14 -0.14
15 -0.15
17 0.08
18 -0.15
19 0.29
2 -0.53
20 0.08
21 0.08
23 -0.15
26 -0.14
27 0.08
29 0.08
3 -0.53
30 -0.15
31 -0.15
33 -0.15
34 -0.15
35 -0.15
36 -0.15
37 -0.15
38 0.28
39 -0.15
4 -0.53
40 0.08
41 -0.15
42 -0.15
43 0.08
44 0.28
49 0.15
5 -0.36
50 0.15
53 0.15
54 0.15
55 0.15
56 0.15
57 0.45
58 0.45
59 0.15
6 -0.53
60 0.15
61 0.15
62 0.15
66 0.15
67 0.45
68 0.15
69 0.15
7 -0.53
73 0.45
74 0.45
8 -0.14
9 0.14

> <PUBCHEM_EFFECTIVE_ROTOR_COUNT>
5.4

> <PUBCHEM_PHARMACOPHORE_FEATURES>
14
1 1 acceptor
1 2 donor
1 3 donor
1 4 donor
1 5 acceptor
1 6 donor
1 7 donor
6 12 13 15 16 18 21 rings
6 22 24 25 27 29 31 rings
6 24 25 28 30 32 33 rings
6 26 34 35 41 42 43 rings
6 28 32 36 37 39 40 rings
6 8 11 14 17 20 23 rings
6 8 9 10 11 12 13 rings

> <PUBCHEM_HEAVY_ATOM_COUNT>
44

> <PUBCHEM_ATOM_DEF_STEREO_COUNT>
0

> <PUBCHEM_ATOM_UDEF_STEREO_COUNT>
0

> <PUBCHEM_BOND_DEF_STEREO_COUNT>
0

> <PUBCHEM_BOND_UDEF_STEREO_COUNT>
0

> <PUBCHEM_ISOTOPIC_ATOM_COUNT>
0

> <PUBCHEM_COMPONENT_COUNT>
1

> <PUBCHEM_CACTVS_TAUTO_COUNT>
982

> <PUBCHEM_CONFORMER_ID>
00E2CAE500000001

> <PUBCHEM_MMFF94_ENERGY>
186.7946

> <PUBCHEM_FEATURE_SELFOVERLAP>
71.146

> <PUBCHEM_SHAPE_FINGERPRINT>
10 15 17275106132566698069
10391435 84 17821731671411125307
10939801 23 18271804648601776822
11135926 11 17097242564626257565
13692114 37 18336267942155784758
13782708 43 17751635447788967258
13811026 1 17095519569807865478
14017578 135 18340497737649424587
14068700 675 18412266151644475957
14394314 77 18337114462745140153
14705955 166 16486984947480195171
14849402 71 18341894134280330768
15064981 113 11242244147839455443
15320295 40 15719382950055841340
15328829 1 18408325488231330007
15361156 5 16916781830548182385
15392192 104 16917350372200649551
15448158 91 16954209094899803986
15728490 51 18412261765618060870
15911013 46 18335137635248168635
17686467 74 18272087244912806193
18365409 1 18264772236988016214
19315092 285 18409173207612711973
20511986 3 18116715114984194049
21130935 74 18340489954583348470
21792938 703 18114196245266747970
21987483 16 17676482856993258330
22149856 69 17968383329801187884
24771293 8 18187369826848213076
3418910 222 17704083905548375569
3552219 110 18410858750505978089
397830 11 17846222124382496516
4149490 64 17604721122051203947
45266715 3 16153703202833881490
4625314 4 18198626527739636650
474113 269 14490738058644270848
4760202 70 18268144430274523564
5028188 123 18267317447808246830
5085150 59 13334739024764384008
5265222 85 17632573885749551934
6004065 56 17749110023755079356
6126387 218 18040992926448582837
6697151 62 16588313820822800773
9689198 14 17275106141758168360

> <PUBCHEM_SHAPE_MULTIPOLES>
864.41
25.64
3.63
2.08
5.03
0.03
-0.9
0.44
7.59
-1.17
1.84
0.93
0.81
-2.5

> <PUBCHEM_SHAPE_SELFOVERLAP>
1969.28

> <PUBCHEM_SHAPE_VOLUME>
450.1

> <PUBCHEM_COORDINATE_TYPE>
2
5
10

$$$$
