21709721
  -OEChem-09172006093D

 46 51  0     0  0  0  0  0  0999 V2000
   -0.6458   -1.3780    0.3355 C   0  0  0  0  0  0  0  0  0  0  0  0
    0.6458   -1.3780   -0.3356 C   0  0  0  0  0  0  0  0  0  0  0  0
   -1.7053   -0.5419   -0.0568 C   0  0  0  0  0  0  0  0  0  0  0  0
    1.7052   -0.5420    0.0567 C   0  0  0  0  0  0  0  0  0  0  0  0
   -2.9472   -0.5792    0.6297 C   0  0  0  0  0  0  0  0  0  0  0  0
    2.9472   -0.5792   -0.6297 C   0  0  0  0  0  0  0  0  0  0  0  0
   -4.0124    0.2902    0.2025 C   0  0  0  0  0  0  0  0  0  0  0  0
    4.0124    0.2902   -0.2025 C   0  0  0  0  0  0  0  0  0  0  0  0
   -3.7950    1.1638   -0.8948 C   0  0  0  0  0  0  0  0  0  0  0  0
    3.7950    1.1638    0.8948 C   0  0  0  0  0  0  0  0  0  0  0  0
   -1.5294    0.3318   -1.1326 C   0  0  0  0  0  0  0  0  0  0  0  0
    1.5294    0.3318    1.1327 C   0  0  0  0  0  0  0  0  0  0  0  0
   -0.7857   -2.2602    1.4024 C   0  0  0  0  0  0  0  0  0  0  0  0
    0.7857   -2.2601   -1.4024 C   0  0  0  0  0  0  0  0  0  0  0  0
   -3.0495   -1.4908    1.7103 C   0  0  0  0  0  0  0  0  0  0  0  0
    3.0495   -1.4907   -1.7104 C   0  0  0  0  0  0  0  0  0  0  0  0
   -2.5585    1.1719   -1.5453 C   0  0  0  0  0  0  0  0  0  0  0  0
    2.5584    1.1719    1.5453 C   0  0  0  0  0  0  0  0  0  0  0  0
   -1.9879   -2.3165    2.0902 C   0  0  0  0  0  0  0  0  0  0  0  0
    1.9879   -2.3165   -2.0903 C   0  0  0  0  0  0  0  0  0  0  0  0
   -5.2918    0.3394    0.8109 C   0  0  0  0  0  0  0  0  0  0  0  0
    5.2918    0.3395   -0.8110 C   0  0  0  0  0  0  0  0  0  0  0  0
   -4.8140    2.0250   -1.3363 C   0  0  0  0  0  0  0  0  0  0  0  0
    4.8140    2.0249    1.3363 C   0  0  0  0  0  0  0  0  0  0  0  0
   -6.2966    1.2007    0.3617 C   0  0  0  0  0  0  0  0  0  0  0  0
    6.2967    1.2007   -0.3617 C   0  0  0  0  0  0  0  0  0  0  0  0
   -6.0575    2.0437   -0.7123 C   0  0  0  0  0  0  0  0  0  0  0  0
    6.0576    2.0437    0.7124 C   0  0  0  0  0  0  0  0  0  0  0  0
   -0.5978    0.3976   -1.6888 H   0  0  0  0  0  0  0  0  0  0  0  0
    0.5978    0.3975    1.6888 H   0  0  0  0  0  0  0  0  0  0  0  0
    0.0297   -2.9097    1.7121 H   0  0  0  0  0  0  0  0  0  0  0  0
   -0.0296   -2.9098   -1.7121 H   0  0  0  0  0  0  0  0  0  0  0  0
   -3.9672   -1.5788    2.2860 H   0  0  0  0  0  0  0  0  0  0  0  0
    3.9672   -1.5787   -2.2861 H   0  0  0  0  0  0  0  0  0  0  0  0
   -2.3788    1.8373   -2.3879 H   0  0  0  0  0  0  0  0  0  0  0  0
    2.3787    1.8374    2.3878 H   0  0  0  0  0  0  0  0  0  0  0  0
   -2.1067   -3.0016    2.9246 H   0  0  0  0  0  0  0  0  0  0  0  0
    2.1067   -3.0016   -2.9247 H   0  0  0  0  0  0  0  0  0  0  0  0
   -5.5366   -0.2981    1.6565 H   0  0  0  0  0  0  0  0  0  0  0  0
    5.5366   -0.2981   -1.6566 H   0  0  0  0  0  0  0  0  0  0  0  0
   -4.6462    2.6948   -2.1779 H   0  0  0  0  0  0  0  0  0  0  0  0
    4.6463    2.6946    2.1780 H   0  0  0  0  0  0  0  0  0  0  0  0
   -7.2641    1.2082    0.8553 H   0  0  0  0  0  0  0  0  0  0  0  0
    7.2641    1.2082   -0.8553 H   0  0  0  0  0  0  0  0  0  0  0  0
   -6.8349    2.7146   -1.0649 H   0  0  0  0  0  0  0  0  0  0  0  0
    6.8349    2.7145    1.0651 H   0  0  0  0  0  0  0  0  0  0  0  0
  1  2  1  0  0  0  0
  1  3  1  0  0  0  0
  1 13  2  0  0  0  0
  2  4  1  0  0  0  0
  2 14  2  0  0  0  0
  3  5  2  0  0  0  0
  3 11  1  0  0  0  0
  4  6  2  0  0  0  0
  4 12  1  0  0  0  0
  5  7  1  0  0  0  0
  5 15  1  0  0  0  0
  6  8  1  0  0  0  0
  6 16  1  0  0  0  0
  7  9  1  0  0  0  0
  7 21  2  0  0  0  0
  8 10  1  0  0  0  0
  8 22  2  0  0  0  0
  9 17  1  0  0  0  0
  9 23  2  0  0  0  0
 10 18  1  0  0  0  0
 10 24  2  0  0  0  0
 11 17  2  0  0  0  0
 11 29  1  0  0  0  0
 12 18  2  0  0  0  0
 12 30  1  0  0  0  0
 13 19  1  0  0  0  0
 13 31  1  0  0  0  0
 14 20  1  0  0  0  0
 14 32  1  0  0  0  0
 15 19  2  0  0  0  0
 15 33  1  0  0  0  0
 16 20  2  0  0  0  0
 16 34  1  0  0  0  0
 17 35  1  0  0  0  0
 18 36  1  0  0  0  0
 19 37  1  0  0  0  0
 20 38  1  0  0  0  0
 21 25  1  0  0  0  0
 21 39  1  0  0  0  0
 22 26  1  0  0  0  0
 22 40  1  0  0  0  0
 23 27  1  0  0  0  0
 23 41  1  0  0  0  0
 24 28  1  0  0  0  0
 24 42  1  0  0  0  0
 25 27  2  0  0  0  0
 25 43  1  0  0  0  0
 26 28  2  0  0  0  0
 26 44  1  0  0  0  0
 27 45  1  0  0  0  0
 28 46  1  0  0  0  0
M  END
> <PUBCHEM_COMPOUND_CID>
21709721

> <PUBCHEM_CONFORMER_RMSD>
0.6

> <PUBCHEM_CONFORMER_DIVERSEORDER>
1
2

> <PUBCHEM_MMFF94_PARTIAL_CHARGES>
36
11 -0.15
12 -0.15
13 -0.15
14 -0.15
15 -0.15
16 -0.15
17 -0.15
18 -0.15
19 -0.15
20 -0.15
21 -0.15
22 -0.15
23 -0.15
24 -0.15
25 -0.15
26 -0.15
27 -0.15
28 -0.15
29 0.15
30 0.15
31 0.15
32 0.15
33 0.15
34 0.15
35 0.15
36 0.15
37 0.15
38 0.15
39 0.15
40 0.15
41 0.15
42 0.15
43 0.15
44 0.15
45 0.15
46 0.15

> <PUBCHEM_EFFECTIVE_ROTOR_COUNT>
1

> <PUBCHEM_PHARMACOPHORE_FEATURES>
6
6 1 3 5 13 15 19 rings
6 2 4 6 14 16 20 rings
6 3 5 7 9 11 17 rings
6 4 6 8 10 12 18 rings
6 7 9 21 23 25 27 rings
6 8 10 22 24 26 28 rings

> <PUBCHEM_HEAVY_ATOM_COUNT>
28

> <PUBCHEM_ATOM_DEF_STEREO_COUNT>
0

> <PUBCHEM_ATOM_UDEF_STEREO_COUNT>
0

> <PUBCHEM_BOND_DEF_STEREO_COUNT>
0

> <PUBCHEM_BOND_UDEF_STEREO_COUNT>
0

> <PUBCHEM_ISOTOPIC_ATOM_COUNT>
0

> <PUBCHEM_COMPONENT_COUNT>
1

> <PUBCHEM_CACTVS_TAUTO_COUNT>
1

> <PUBCHEM_CONFORMER_ID>
014B439900000001

> <PUBCHEM_MMFF94_ENERGY>
113.6314

> <PUBCHEM_FEATURE_SELFOVERLAP>
30.548

> <PUBCHEM_SHAPE_FINGERPRINT>
10 15 17603590745992425213
10074138 170 17458913750962331547
10319926 262 18040155128325953962
105312 117 18271521009198458286
10692045 39 17823403908342994338
10693767 8 16414927327508582942
11049842 53 17023766527907357258
11112241 14 18201432610500636553
11578080 2 18410584980268281062
11720765 8 17619626886929240423
12035758 1 17968392203620521825
12236239 1 15719116876441729986
12403259 118 18189333653336293652
12403259 415 18410583880761726663
12596602 18 15647055970957993905
12633257 1 17530963626453333188
12730499 353 18273217482177487567
12788726 201 18270675368387205745
13402501 40 18410571790429106721
13583140 156 18263356049104981730
13726171 33 17753081498325767284
13782708 43 18410867559052080483
13911987 19 17774729761479401048
13965767 371 16155948280707029325
14341114 328 15791737390605730641
14681490 219 17489306356471732273
14950920 106 13768221492773590085
15183329 4 15913610570685021540
15324884 4 18122097327233992239
173720 79 16370732517680611139
17980427 23 17968658336219495863
20554085 129 17894625916931055169
20567600 254 18187354407810027821
21033648 29 18269827765908657320
21756936 100 18188197810369001826
22149856 69 17387995079984762769
22393880 68 17131258173182318894
23559900 14 17969518021121587398
24771293 8 18187645783251332661
2838139 119 18341317938404700996
3004659 81 14261343648615526209
3459 39 17676478428728565805
4371632 12 16413771929154440986
495365 180 18341329989861744522
5104073 3 17532376357926041337
5223283 242 16908075704295256957
5265222 85 17897187895415814566
6086070 43 17774715463744224266
636775 8 10953999444784977448
6608658 132 15841286860768294665
7808743 9 17967814967919967513
9658208 31 18114759139722853723
9849439 229 17534049784490641213

> <PUBCHEM_SHAPE_MULTIPOLES>
576.23
14.39
2.62
1.86
0
0.6
0
-12.67
0
0
0
0
0.72
3.41

> <PUBCHEM_SHAPE_SELFOVERLAP>
1340.674

> <PUBCHEM_SHAPE_VOLUME>
267.5

> <PUBCHEM_COORDINATE_TYPE>
2
5
10

$$$$
