14583572
  -OEChem-09172004433D

 62 67  0     0  0  0  0  0  0999 V2000
    0.6287   -1.3302   -1.6044 O   0  0  0  0  0  0  0  0  0  0  0  0
    4.4036   -1.4710    2.4050 O   0  0  0  0  0  0  0  0  0  0  0  0
    0.3306   -2.9677    0.5845 O   0  0  0  0  0  0  0  0  0  0  0  0
   -5.7928   -1.0236   -1.9170 O   0  0  0  0  0  0  0  0  0  0  0  0
   -8.4494    1.4022    1.1269 O   0  0  0  0  0  0  0  0  0  0  0  0
    8.1375    2.9838   -0.3425 O   0  0  0  0  0  0  0  0  0  0  0  0
    2.7111   -0.5000   -0.7317 C   0  0  0  0  0  0  0  0  0  0  0  0
    2.8600    0.4118   -1.9260 C   0  0  0  0  0  0  0  0  0  0  0  0
    4.3290    0.6011   -2.3041 C   0  0  0  0  0  0  0  0  0  0  0  0
    3.6821   -0.4684    0.2973 C   0  0  0  0  0  0  0  0  0  0  0  0
   -2.3846    1.6999    0.8109 C   0  0  0  0  0  0  0  0  0  0  0  0
    5.1628    0.9808   -1.1038 C   0  0  0  0  0  0  0  0  0  0  0  0
    4.8489    0.4387    0.1652 C   0  0  0  0  0  0  0  0  0  0  0  0
   -2.1651    0.4804   -0.0519 C   0  0  0  0  0  0  0  0  0  0  0  0
   -3.5870    1.5193    1.7372 C   0  0  0  0  0  0  0  0  0  0  0  0
   -3.2800   -0.2570   -0.5166 C   0  0  0  0  0  0  0  0  0  0  0  0
   -4.8035    1.0491    0.9762 C   0  0  0  0  0  0  0  0  0  0  0  0
   -4.6453    0.1647   -0.1172 C   0  0  0  0  0  0  0  0  0  0  0  0
    1.5827   -1.3269   -0.6281 C   0  0  0  0  0  0  0  0  0  0  0  0
    3.4929   -1.3217    1.3989 C   0  0  0  0  0  0  0  0  0  0  0  0
   -0.8618    0.1251   -0.4305 C   0  0  0  0  0  0  0  0  0  0  0  0
   -0.6444   -0.9806   -1.2463 C   0  0  0  0  0  0  0  0  0  0  0  0
   -3.0285   -1.3746   -1.3323 C   0  0  0  0  0  0  0  0  0  0  0  0
    6.2736    1.8214   -1.2699 C   0  0  0  0  0  0  0  0  0  0  0  0
    1.4178   -2.1541    0.4783 C   0  0  0  0  0  0  0  0  0  0  0  0
    5.6637    0.8060    1.2507 C   0  0  0  0  0  0  0  0  0  0  0  0
   -5.8074   -0.2613   -0.7847 C   0  0  0  0  0  0  0  0  0  0  0  0
   -6.0807    1.4485    1.3969 C   0  0  0  0  0  0  0  0  0  0  0  0
    2.3736   -2.1548    1.4880 C   0  0  0  0  0  0  0  0  0  0  0  0
   -1.7258   -1.7320   -1.6924 C   0  0  0  0  0  0  0  0  0  0  0  0
    7.0672    2.1602   -0.1787 C   0  0  0  0  0  0  0  0  0  0  0  0
   -7.2132    1.0035    0.7223 C   0  0  0  0  0  0  0  0  0  0  0  0
    6.7599    1.6570    1.0804 C   0  0  0  0  0  0  0  0  0  0  0  0
   -7.0764    0.1535   -0.3695 C   0  0  0  0  0  0  0  0  0  0  0  0
    5.3856   -2.4902    2.2402 C   0  0  0  0  0  0  0  0  0  0  0  0
   -9.5659    0.9070    0.3890 C   0  0  0  0  0  0  0  0  0  0  0  0
    2.3335    0.0149   -2.8012 H   0  0  0  0  0  0  0  0  0  0  0  0
    2.4047    1.3787   -1.6760 H   0  0  0  0  0  0  0  0  0  0  0  0
    4.3974    1.3720   -3.0808 H   0  0  0  0  0  0  0  0  0  0  0  0
    4.7363   -0.3281   -2.7228 H   0  0  0  0  0  0  0  0  0  0  0  0
   -1.4972    1.9063    1.4209 H   0  0  0  0  0  0  0  0  0  0  0  0
   -2.5402    2.5622    0.1502 H   0  0  0  0  0  0  0  0  0  0  0  0
   -3.7909    2.4715    2.2411 H   0  0  0  0  0  0  0  0  0  0  0  0
   -3.3607    0.7762    2.5126 H   0  0  0  0  0  0  0  0  0  0  0  0
   -0.0318    0.7386   -0.0883 H   0  0  0  0  0  0  0  0  0  0  0  0
   -3.8130   -2.0383   -1.6768 H   0  0  0  0  0  0  0  0  0  0  0  0
    6.5173    2.2141   -2.2544 H   0  0  0  0  0  0  0  0  0  0  0  0
    5.4562    0.5028    2.2703 H   0  0  0  0  0  0  0  0  0  0  0  0
   -6.1904    2.1113    2.2521 H   0  0  0  0  0  0  0  0  0  0  0  0
    2.2573   -2.8111    2.3478 H   0  0  0  0  0  0  0  0  0  0  0  0
   -1.5636   -2.6068   -2.3167 H   0  0  0  0  0  0  0  0  0  0  0  0
    7.3602    1.9259    1.9459 H   0  0  0  0  0  0  0  0  0  0  0  0
   -7.9286   -0.2052   -0.9375 H   0  0  0  0  0  0  0  0  0  0  0  0
    0.3849   -3.4636    1.4193 H   0  0  0  0  0  0  0  0  0  0  0  0
   -6.6987   -1.2002   -2.2217 H   0  0  0  0  0  0  0  0  0  0  0  0
    5.9113   -2.3814    1.2861 H   0  0  0  0  0  0  0  0  0  0  0  0
    4.9209   -3.4794    2.2993 H   0  0  0  0  0  0  0  0  0  0  0  0
    6.1133   -2.3987    3.0513 H   0  0  0  0  0  0  0  0  0  0  0  0
    8.5724    3.1109    0.5182 H   0  0  0  0  0  0  0  0  0  0  0  0
   -9.6434   -0.1834    0.4582 H   0  0  0  0  0  0  0  0  0  0  0  0
   -9.5510    1.2588   -0.6482 H   0  0  0  0  0  0  0  0  0  0  0  0
  -10.4677    1.3204    0.8525 H   0  0  0  0  0  0  0  0  0  0  0  0
  1 19  1  0  0  0  0
  1 22  1  0  0  0  0
  2 20  1  0  0  0  0
  2 35  1  0  0  0  0
  3 25  1  0  0  0  0
  3 54  1  0  0  0  0
  4 27  1  0  0  0  0
  4 55  1  0  0  0  0
  5 32  1  0  0  0  0
  5 36  1  0  0  0  0
  6 31  1  0  0  0  0
  6 59  1  0  0  0  0
  7  8  1  0  0  0  0
  7 10  1  0  0  0  0
  7 19  2  0  0  0  0
  8  9  1  0  0  0  0
  8 37  1  0  0  0  0
  8 38  1  0  0  0  0
  9 12  1  0  0  0  0
  9 39  1  0  0  0  0
  9 40  1  0  0  0  0
 10 13  1  0  0  0  0
 10 20  2  0  0  0  0
 11 14  1  0  0  0  0
 11 15  1  0  0  0  0
 11 41  1  0  0  0  0
 11 42  1  0  0  0  0
 12 13  2  0  0  0  0
 12 24  1  0  0  0  0
 13 26  1  0  0  0  0
 14 16  2  0  0  0  0
 14 21  1  0  0  0  0
 15 17  1  0  0  0  0
 15 43  1  0  0  0  0
 15 44  1  0  0  0  0
 16 18  1  0  0  0  0
 16 23  1  0  0  0  0
 17 18  2  0  0  0  0
 17 28  1  0  0  0  0
 18 27  1  0  0  0  0
 19 25  1  0  0  0  0
 20 29  1  0  0  0  0
 21 22  2  0  0  0  0
 21 45  1  0  0  0  0
 22 30  1  0  0  0  0
 23 30  2  0  0  0  0
 23 46  1  0  0  0  0
 24 31  2  0  0  0  0
 24 47  1  0  0  0  0
 25 29  2  0  0  0  0
 26 33  2  0  0  0  0
 26 48  1  0  0  0  0
 27 34  2  0  0  0  0
 28 32  2  0  0  0  0
 28 49  1  0  0  0  0
 29 50  1  0  0  0  0
 30 51  1  0  0  0  0
 31 33  1  0  0  0  0
 32 34  1  0  0  0  0
 33 52  1  0  0  0  0
 34 53  1  0  0  0  0
 35 56  1  0  0  0  0
 35 57  1  0  0  0  0
 35 58  1  0  0  0  0
 36 60  1  0  0  0  0
 36 61  1  0  0  0  0
 36 62  1  0  0  0  0
M  END
> <PUBCHEM_COMPOUND_CID>
14583572

> <PUBCHEM_CONFORMER_RMSD>
0.8

> <PUBCHEM_CONFORMER_DIVERSEORDER>
7
27
12
23
13
25
20
24
14
26
8
19
22
5
9
16
21
10
17
15
28
6
3
18
2
11
1
4

> <PUBCHEM_MMFF94_PARTIAL_CHARGES>
44
1 -0.17
11 0.14
12 -0.14
14 -0.14
15 0.14
17 -0.14
19 0.08
2 -0.36
20 0.08
21 -0.15
22 0.08
23 -0.15
24 -0.15
25 0.08
26 -0.15
27 0.08
28 -0.15
29 -0.15
3 -0.53
30 -0.15
31 0.08
32 0.08
33 -0.15
34 -0.15
35 0.28
36 0.28
4 -0.53
45 0.15
46 0.15
47 0.15
48 0.15
49 0.15
5 -0.36
50 0.15
51 0.15
52 0.15
53 0.15
54 0.45
55 0.45
59 0.45
6 -0.53
7 -0.14
8 0.14
9 0.14

> <PUBCHEM_EFFECTIVE_ROTOR_COUNT>
4.8

> <PUBCHEM_PHARMACOPHORE_FEATURES>
12
1 1 acceptor
1 2 acceptor
1 3 donor
1 4 donor
1 5 acceptor
1 6 donor
6 11 14 15 16 17 18 rings
6 12 13 24 26 31 33 rings
6 14 16 21 22 23 30 rings
6 17 18 27 28 32 34 rings
6 7 10 19 20 25 29 rings
6 7 8 9 10 12 13 rings

> <PUBCHEM_HEAVY_ATOM_COUNT>
36

> <PUBCHEM_ATOM_DEF_STEREO_COUNT>
0

> <PUBCHEM_ATOM_UDEF_STEREO_COUNT>
0

> <PUBCHEM_BOND_DEF_STEREO_COUNT>
0

> <PUBCHEM_BOND_UDEF_STEREO_COUNT>
0

> <PUBCHEM_ISOTOPIC_ATOM_COUNT>
0

> <PUBCHEM_COMPONENT_COUNT>
1

> <PUBCHEM_CACTVS_TAUTO_COUNT>
608

> <PUBCHEM_CONFORMER_ID>
00DE871400000007

> <PUBCHEM_MMFF94_ENERGY>
147.2087

> <PUBCHEM_FEATURE_SELFOVERLAP>
60.989

> <PUBCHEM_SHAPE_FINGERPRINT>
10 15 18342460331660790713
10162869 55 17967813899332876399
10816530 90 17561077025551481208
11607047 141 18341334371609250774
12047536 79 16805866413152340124
12120059 9 15502384465644878977
12373685 5 17530969120539561195
12592606 108 9727632800334248157
13627175 23 18335417959453199122
13782708 43 14779264198369114707
14341114 328 18412257324653518579
14394314 77 18336264630145266453
14840074 17 18409730664207665461
15001296 14 18130216172442908352
150020 25 15123789600508166045
15064981 194 18050856808126928676
15082195 135 16702028612709087256
15131766 46 17896329193064663325
15183329 4 11959732672441700131
15188451 53 11674874507110870900
15392192 104 16733281134931385578
1577012 14 18343578547380790367
15840311 113 18335423461548755364
16096371 109 17748823034378269480
19319366 153 18335133168271509090
19377110 9 18334575711807462549
1979834 28 17022623074816484478
20505436 4 18413386553355662670
21792961 116 15697734670507684852
221357 26 14045745906825148882
23559900 14 16845287255303938857
23576562 1 14045444700763691281
25269216 80 17489299858750118399
3178227 256 16805603707757648356
3918712 181 17846776299844631569
397830 11 16153709838220638751
3986486 107 15267074622391613248
4073 2 18272656757735018287
4093350 32 18410013213554194158
4340502 62 17530969080977519699
44249763 50 15912744164227943367
44317340 157 14261342579189807424
4516262 110 18409726275246714460
5104073 3 17168696419306379997
5758199 1 18410294726515041407
5776283 40 17417249970010587744
59682541 52 13758357760869836916
6523845 18 17822300042262061950
9961470 85 17979917438748081248

> <PUBCHEM_SHAPE_MULTIPOLES>
705.65
24.2
2.54
2.05
22.96
0.45
0.05
-17.2
4.66
-3.82
0.75
-1.72
0.59
-4.09

> <PUBCHEM_SHAPE_SELFOVERLAP>
1591.969

> <PUBCHEM_SHAPE_VOLUME>
369.1

> <PUBCHEM_COORDINATE_TYPE>
2
5
10

$$$$
