42642927
  -OEChem-09172004183D

 58 61  0     0  0  0  0  0  0999 V2000
    3.5466   -1.0524    2.3954 O   0  0  0  0  0  0  0  0  0  0  0  0
   -0.3260   -3.8013    2.6489 O   0  0  0  0  0  0  0  0  0  0  0  0
   -3.2188   -2.8899   -3.9962 O   0  0  0  0  0  0  0  0  0  0  0  0
    5.3808    0.6268   -3.4721 O   0  0  0  0  0  0  0  0  0  0  0  0
    0.1063   -0.4212    1.2956 C   0  0  0  0  0  0  0  0  0  0  0  0
   -0.7000    0.6541    0.6383 C   0  0  0  0  0  0  0  0  0  0  0  0
   -0.5014   -1.6206    1.6665 C   0  0  0  0  0  0  0  0  0  0  0  0
    1.4657   -0.2241    1.5377 C   0  0  0  0  0  0  0  0  0  0  0  0
   -1.0543    1.8263    1.5714 C   0  0  0  0  0  0  0  0  0  0  0  0
   -1.9780   -1.8429    1.4068 C   0  0  0  0  0  0  0  0  0  0  0  0
    2.1252    1.0590    1.1431 C   0  0  0  0  0  0  0  0  0  0  0  0
    2.2175   -1.2266    2.1507 C   0  0  0  0  0  0  0  0  0  0  0  0
    0.2502   -2.6231    2.2796 C   0  0  0  0  0  0  0  0  0  0  0  0
    1.6095   -2.4260    2.5217 C   0  0  0  0  0  0  0  0  0  0  0  0
   -2.3065   -2.1196   -0.0210 C   0  0  0  0  0  0  0  0  0  0  0  0
    2.9955    0.9440   -0.0901 C   0  0  0  0  0  0  0  0  0  0  0  0
   -1.8943    2.8875    0.9031 C   0  0  0  0  0  0  0  0  0  0  0  0
   -3.2164   -1.3074   -0.6980 C   0  0  0  0  0  0  0  0  0  0  0  0
   -1.7031   -3.1907   -0.6801 C   0  0  0  0  0  0  0  0  0  0  0  0
    4.3398    1.3118   -0.0326 C   0  0  0  0  0  0  0  0  0  0  0  0
    2.4528    0.4696   -1.2843 C   0  0  0  0  0  0  0  0  0  0  0  0
   -1.2793    3.9555    0.2499 C   0  0  0  0  0  0  0  0  0  0  0  0
   -3.2859    2.7999    0.9389 C   0  0  0  0  0  0  0  0  0  0  0  0
   -3.5233   -1.5664   -2.0337 C   0  0  0  0  0  0  0  0  0  0  0  0
   -2.0100   -3.4499   -2.0159 C   0  0  0  0  0  0  0  0  0  0  0  0
    5.1412    1.2056   -1.1691 C   0  0  0  0  0  0  0  0  0  0  0  0
    3.2542    0.3633   -2.4210 C   0  0  0  0  0  0  0  0  0  0  0  0
   -2.0560    4.9362   -0.3675 C   0  0  0  0  0  0  0  0  0  0  0  0
   -4.0626    3.7803    0.3215 C   0  0  0  0  0  0  0  0  0  0  0  0
   -2.9200   -2.6377   -2.6926 C   0  0  0  0  0  0  0  0  0  0  0  0
    4.5984    0.7314   -2.3634 C   0  0  0  0  0  0  0  0  0  0  0  0
   -3.4476    4.8485   -0.3317 C   0  0  0  0  0  0  0  0  0  0  0  0
   -0.1695    1.0443   -0.2362 H   0  0  0  0  0  0  0  0  0  0  0  0
   -1.6200    0.3033    0.1933 H   0  0  0  0  0  0  0  0  0  0  0  0
   -0.1817    2.3002    2.0310 H   0  0  0  0  0  0  0  0  0  0  0  0
   -1.6179    1.4317    2.4292 H   0  0  0  0  0  0  0  0  0  0  0  0
   -2.5405   -0.9820    1.7931 H   0  0  0  0  0  0  0  0  0  0  0  0
   -2.3593   -2.6796    2.0069 H   0  0  0  0  0  0  0  0  0  0  0  0
    2.7269    1.4057    1.9954 H   0  0  0  0  0  0  0  0  0  0  0  0
    1.4545    1.8954    0.9536 H   0  0  0  0  0  0  0  0  0  0  0  0
    2.1956   -3.2074    2.9995 H   0  0  0  0  0  0  0  0  0  0  0  0
   -3.7131   -0.4807   -0.1968 H   0  0  0  0  0  0  0  0  0  0  0  0
   -0.9996   -3.8426   -0.1706 H   0  0  0  0  0  0  0  0  0  0  0  0
    4.7766    1.6828    0.8906 H   0  0  0  0  0  0  0  0  0  0  0  0
    1.4162    0.1640   -1.3641 H   0  0  0  0  0  0  0  0  0  0  0  0
   -0.1959    4.0327    0.2140 H   0  0  0  0  0  0  0  0  0  0  0  0
   -3.7769    1.9710    1.4420 H   0  0  0  0  0  0  0  0  0  0  0  0
    3.8992   -1.8518    2.8225 H   0  0  0  0  0  0  0  0  0  0  0  0
    0.3486   -4.3722    3.0549 H   0  0  0  0  0  0  0  0  0  0  0  0
   -4.2360   -0.9328   -2.5544 H   0  0  0  0  0  0  0  0  0  0  0  0
   -1.5348   -4.2886   -2.5175 H   0  0  0  0  0  0  0  0  0  0  0  0
    6.1877    1.4935   -1.1180 H   0  0  0  0  0  0  0  0  0  0  0  0
    2.8203   -0.0101   -3.3447 H   0  0  0  0  0  0  0  0  0  0  0  0
   -1.5772    5.7675   -0.8766 H   0  0  0  0  0  0  0  0  0  0  0  0
   -5.1462    3.7116    0.3484 H   0  0  0  0  0  0  0  0  0  0  0  0
   -4.0523    5.6116   -0.8127 H   0  0  0  0  0  0  0  0  0  0  0  0
   -2.7115   -3.6656   -4.2914 H   0  0  0  0  0  0  0  0  0  0  0  0
    4.8432    0.2820   -4.2057 H   0  0  0  0  0  0  0  0  0  0  0  0
  1 12  1  0  0  0  0
  1 48  1  0  0  0  0
  2 13  1  0  0  0  0
  2 49  1  0  0  0  0
  3 30  1  0  0  0  0
  3 57  1  0  0  0  0
  4 31  1  0  0  0  0
  4 58  1  0  0  0  0
  5  6  1  0  0  0  0
  5  7  2  0  0  0  0
  5  8  1  0  0  0  0
  6  9  1  0  0  0  0
  6 33  1  0  0  0  0
  6 34  1  0  0  0  0
  7 10  1  0  0  0  0
  7 13  1  0  0  0  0
  8 11  1  0  0  0  0
  8 12  2  0  0  0  0
  9 17  1  0  0  0  0
  9 35  1  0  0  0  0
  9 36  1  0  0  0  0
 10 15  1  0  0  0  0
 10 37  1  0  0  0  0
 10 38  1  0  0  0  0
 11 16  1  0  0  0  0
 11 39  1  0  0  0  0
 11 40  1  0  0  0  0
 12 14  1  0  0  0  0
 13 14  2  0  0  0  0
 14 41  1  0  0  0  0
 15 18  2  0  0  0  0
 15 19  1  0  0  0  0
 16 20  2  0  0  0  0
 16 21  1  0  0  0  0
 17 22  2  0  0  0  0
 17 23  1  0  0  0  0
 18 24  1  0  0  0  0
 18 42  1  0  0  0  0
 19 25  2  0  0  0  0
 19 43  1  0  0  0  0
 20 26  1  0  0  0  0
 20 44  1  0  0  0  0
 21 27  2  0  0  0  0
 21 45  1  0  0  0  0
 22 28  1  0  0  0  0
 22 46  1  0  0  0  0
 23 29  2  0  0  0  0
 23 47  1  0  0  0  0
 24 30  2  0  0  0  0
 24 50  1  0  0  0  0
 25 30  1  0  0  0  0
 25 51  1  0  0  0  0
 26 31  2  0  0  0  0
 26 52  1  0  0  0  0
 27 31  1  0  0  0  0
 27 53  1  0  0  0  0
 28 32  2  0  0  0  0
 28 54  1  0  0  0  0
 29 32  1  0  0  0  0
 29 55  1  0  0  0  0
 32 56  1  0  0  0  0
M  END
> <PUBCHEM_COMPOUND_CID>
42642927

> <PUBCHEM_CONFORMER_RMSD>
1

> <PUBCHEM_CONFORMER_DIVERSEORDER>
1
17
8
2
5
4
12
18
7
6
11
16
15
14
13
3
9
10

> <PUBCHEM_MMFF94_PARTIAL_CHARGES>
50
1 -0.53
10 0.29
11 0.29
12 0.08
13 0.08
14 -0.15
15 -0.14
16 -0.14
17 -0.14
18 -0.15
19 -0.15
2 -0.53
20 -0.15
21 -0.15
22 -0.15
23 -0.15
24 -0.15
25 -0.15
26 -0.15
27 -0.15
28 -0.15
29 -0.15
3 -0.53
30 0.08
31 0.08
32 -0.15
4 -0.53
41 0.15
42 0.15
43 0.15
44 0.15
45 0.15
46 0.15
47 0.15
48 0.45
49 0.45
5 -0.14
50 0.15
51 0.15
52 0.15
53 0.15
54 0.15
55 0.15
56 0.15
57 0.45
58 0.45
6 0.14
7 -0.14
8 -0.14
9 0.14

> <PUBCHEM_EFFECTIVE_ROTOR_COUNT>
7

> <PUBCHEM_PHARMACOPHORE_FEATURES>
8
1 1 donor
1 2 donor
1 3 donor
1 4 donor
6 15 18 19 24 25 30 rings
6 16 20 21 26 27 31 rings
6 17 22 23 28 29 32 rings
6 5 7 8 12 13 14 rings

> <PUBCHEM_HEAVY_ATOM_COUNT>
32

> <PUBCHEM_ATOM_DEF_STEREO_COUNT>
0

> <PUBCHEM_ATOM_UDEF_STEREO_COUNT>
0

> <PUBCHEM_BOND_DEF_STEREO_COUNT>
0

> <PUBCHEM_BOND_UDEF_STEREO_COUNT>
0

> <PUBCHEM_ISOTOPIC_ATOM_COUNT>
0

> <PUBCHEM_COMPONENT_COUNT>
1

> <PUBCHEM_CACTVS_TAUTO_COUNT>
37

> <PUBCHEM_CONFORMER_ID>
028AADEF00000001

> <PUBCHEM_MMFF94_ENERGY>
98.3316

> <PUBCHEM_FEATURE_SELFOVERLAP>
40.6

> <PUBCHEM_SHAPE_FINGERPRINT>
10985338 15 18058721412726821689
11477941 20 17835560306896047244
11578080 2 16773802536350744784
12156800 1 17987499442913764519
12160290 23 18343866597936581537
12788726 201 18411128152324247509
12977781 61 17130968903378497038
13149001 5 17541091408408630379
13642711 20 17472103625398062340
13761468 95 16806471234899946054
14114206 34 18190466145500899653
14863182 85 16906908027040695473
15484559 13 17901954041423892593
15684973 49 18338499890667629890
18365409 1 17622967281053568861
19319366 153 18187642454118246305
21304303 282 18333732425059572960
21860390 5 17116312687777887573
24941158 1 13368108175937995798
26353 1 17983856958702277861
3493558 16 14643086178628997982
437795 70 17917135205043082981
484985 159 9963047323243240975
5080951 261 18129404652032021400
6608658 132 18411411839710041813

> <PUBCHEM_SHAPE_MULTIPOLES>
635.07
8.43
6.41
3.56
8.29
3.98
-2.06
5.76
-6.73
-10.21
-0.63
1.86
-3.88
-4.49

> <PUBCHEM_SHAPE_SELFOVERLAP>
1392.637

> <PUBCHEM_SHAPE_VOLUME>
342.3

> <PUBCHEM_COORDINATE_TYPE>
2
5
10

$$$$
