14863075
  -OEChem-09172004493D

 76 82  0     0  0  0  0  0  0999 V2000
   -0.6679   -2.0683   -1.4089 O   0  0  0  0  0  0  0  0  0  0  0  0
    1.5871    2.3673    2.6852 O   0  0  0  0  0  0  0  0  0  0  0  0
    5.6840    2.3473   -1.9139 O   0  0  0  0  0  0  0  0  0  0  0  0
    1.1909    3.2556   -0.8928 O   0  0  0  0  0  0  0  0  0  0  0  0
   -5.1782   -3.3803   -1.6121 O   0  0  0  0  0  0  0  0  0  0  0  0
    9.0123   -2.5803    0.5312 O   0  0  0  0  0  0  0  0  0  0  0  0
   -8.7253    2.9502   -1.1851 O   0  0  0  0  0  0  0  0  0  0  0  0
   -3.5526   -0.9410    0.6047 C   0  0  0  0  0  0  0  0  0  0  0  0
   -1.2030   -0.0975    0.7585 C   0  0  0  0  0  0  0  0  0  0  0  0
   -3.9213    0.0046    1.7226 C   0  0  0  0  0  0  0  0  0  0  0  0
   -2.7752    0.1608    2.7222 C   0  0  0  0  0  0  0  0  0  0  0  0
   -1.4739    0.4757    2.0238 C   0  0  0  0  0  0  0  0  0  0  0  0
   -2.2210   -0.9726    0.1264 C   0  0  0  0  0  0  0  0  0  0  0  0
    3.3482    0.5171    0.2860 C   0  0  0  0  0  0  0  0  0  0  0  0
    2.2168    1.3288    0.1156 C   0  0  0  0  0  0  0  0  0  0  0  0
    3.2731   -0.6850    1.1968 C   0  0  0  0  0  0  0  0  0  0  0  0
    0.9636    1.0332    0.7883 C   0  0  0  0  0  0  0  0  0  0  0  0
    4.5742    0.8436   -0.3409 C   0  0  0  0  0  0  0  0  0  0  0  0
    4.1727   -1.8174    0.7016 C   0  0  0  0  0  0  0  0  0  0  0  0
   -4.5460   -1.7364    0.0142 C   0  0  0  0  0  0  0  0  0  0  0  0
    0.0286    0.2100    0.1536 C   0  0  0  0  0  0  0  0  0  0  0  0
    5.7568   -0.0240   -0.1163 C   0  0  0  0  0  0  0  0  0  0  0  0
    5.5699   -1.3241    0.4108 C   0  0  0  0  0  0  0  0  0  0  0  0
   -0.5243    1.2878    2.6617 C   0  0  0  0  0  0  0  0  0  0  0  0
    0.6896    1.5675    2.0424 C   0  0  0  0  0  0  0  0  0  0  0  0
   -1.9278   -1.8552   -0.9283 C   0  0  0  0  0  0  0  0  0  0  0  0
    2.2763    2.4536   -0.7008 C   0  0  0  0  0  0  0  0  0  0  0  0
    4.6016    1.9815   -1.1667 C   0  0  0  0  0  0  0  0  0  0  0  0
   -5.9665   -1.6795    0.4843 C   0  0  0  0  0  0  0  0  0  0  0  0
   -4.2278   -2.5940   -1.0340 C   0  0  0  0  0  0  0  0  0  0  0  0
   -2.9198   -2.6565   -1.5014 C   0  0  0  0  0  0  0  0  0  0  0  0
    3.4656    2.7768   -1.3445 C   0  0  0  0  0  0  0  0  0  0  0  0
    7.0739    0.3859   -0.3891 C   0  0  0  0  0  0  0  0  0  0  0  0
    6.6628   -2.1804    0.6125 C   0  0  0  0  0  0  0  0  0  0  0  0
   -6.7067   -0.4382    0.0364 C   0  0  0  0  0  0  0  0  0  0  0  0
    7.9542   -1.7501    0.3250 C   0  0  0  0  0  0  0  0  0  0  0  0
    8.1597   -0.4674   -0.1706 C   0  0  0  0  0  0  0  0  0  0  0  0
   -6.5865   -0.0165   -1.2763 C   0  0  0  0  0  0  0  0  0  0  0  0
   -7.4872    0.2490    0.9499 C   0  0  0  0  0  0  0  0  0  0  0  0
    0.0862   -3.1137   -0.8015 C   0  0  0  0  0  0  0  0  0  0  0  0
    5.7600    1.8261   -3.2379 C   0  0  0  0  0  0  0  0  0  0  0  0
   -7.2684    1.1285   -1.6885 C   0  0  0  0  0  0  0  0  0  0  0  0
   -8.1690    1.3939    0.5374 C   0  0  0  0  0  0  0  0  0  0  0  0
   -8.0596    1.8337   -0.7817 C   0  0  0  0  0  0  0  0  0  0  0  0
   -4.1671    0.9783    1.2795 H   0  0  0  0  0  0  0  0  0  0  0  0
   -4.7855   -0.3244    2.3026 H   0  0  0  0  0  0  0  0  0  0  0  0
   -2.6403   -0.7659    3.2945 H   0  0  0  0  0  0  0  0  0  0  0  0
   -3.0322    0.9548    3.4333 H   0  0  0  0  0  0  0  0  0  0  0  0
    3.5830   -0.3701    2.2018 H   0  0  0  0  0  0  0  0  0  0  0  0
    2.2628   -1.0964    1.2785 H   0  0  0  0  0  0  0  0  0  0  0  0
    3.7643   -2.2517   -0.2199 H   0  0  0  0  0  0  0  0  0  0  0  0
    4.1937   -2.6092    1.4598 H   0  0  0  0  0  0  0  0  0  0  0  0
    0.2724   -0.1272   -0.8481 H   0  0  0  0  0  0  0  0  0  0  0  0
   -0.7438    1.7001    3.6438 H   0  0  0  0  0  0  0  0  0  0  0  0
   -6.0031   -1.8017    1.5736 H   0  0  0  0  0  0  0  0  0  0  0  0
   -6.5454   -2.5398    0.1229 H   0  0  0  0  0  0  0  0  0  0  0  0
   -2.6619   -3.3371   -2.3100 H   0  0  0  0  0  0  0  0  0  0  0  0
    3.5064    3.6478   -1.9950 H   0  0  0  0  0  0  0  0  0  0  0  0
    7.3209    1.3873   -0.7216 H   0  0  0  0  0  0  0  0  0  0  0  0
    6.4969   -3.1839    0.9976 H   0  0  0  0  0  0  0  0  0  0  0  0
    9.1666   -0.1171   -0.3823 H   0  0  0  0  0  0  0  0  0  0  0  0
    1.2166    2.6393    3.5421 H   0  0  0  0  0  0  0  0  0  0  0  0
    0.4127    2.9283   -0.4161 H   0  0  0  0  0  0  0  0  0  0  0  0
   -4.7698   -3.9044   -2.3222 H   0  0  0  0  0  0  0  0  0  0  0  0
   -5.9918   -0.5532   -2.0078 H   0  0  0  0  0  0  0  0  0  0  0  0
   -7.5800   -0.0850    1.9790 H   0  0  0  0  0  0  0  0  0  0  0  0
   -0.3434   -4.0886   -1.0519 H   0  0  0  0  0  0  0  0  0  0  0  0
    0.1259   -2.9909    0.2857 H   0  0  0  0  0  0  0  0  0  0  0  0
    1.1063   -3.0714   -1.1931 H   0  0  0  0  0  0  0  0  0  0  0  0
    5.6683    0.7352   -3.2384 H   0  0  0  0  0  0  0  0  0  0  0  0
    6.7342    2.0941   -3.6559 H   0  0  0  0  0  0  0  0  0  0  0  0
    4.9787    2.2663   -3.8655 H   0  0  0  0  0  0  0  0  0  0  0  0
   -7.1778    1.4588   -2.7199 H   0  0  0  0  0  0  0  0  0  0  0  0
   -8.7841    1.9389    1.2484 H   0  0  0  0  0  0  0  0  0  0  0  0
    8.6855   -3.4280    0.8783 H   0  0  0  0  0  0  0  0  0  0  0  0
   -8.5358    3.1074   -2.1261 H   0  0  0  0  0  0  0  0  0  0  0  0
  1 26  1  0  0  0  0
  1 40  1  0  0  0  0
  2 25  1  0  0  0  0
  2 62  1  0  0  0  0
  3 28  1  0  0  0  0
  3 41  1  0  0  0  0
  4 27  1  0  0  0  0
  4 63  1  0  0  0  0
  5 30  1  0  0  0  0
  5 64  1  0  0  0  0
  6 36  1  0  0  0  0
  6 75  1  0  0  0  0
  7 44  1  0  0  0  0
  7 76  1  0  0  0  0
  8 10  1  0  0  0  0
  8 13  1  0  0  0  0
  8 20  2  0  0  0  0
  9 12  1  0  0  0  0
  9 13  1  0  0  0  0
  9 21  2  0  0  0  0
 10 11  1  0  0  0  0
 10 45  1  0  0  0  0
 10 46  1  0  0  0  0
 11 12  1  0  0  0  0
 11 47  1  0  0  0  0
 11 48  1  0  0  0  0
 12 24  2  0  0  0  0
 13 26  2  0  0  0  0
 14 15  2  0  0  0  0
 14 16  1  0  0  0  0
 14 18  1  0  0  0  0
 15 17  1  0  0  0  0
 15 27  1  0  0  0  0
 16 19  1  0  0  0  0
 16 49  1  0  0  0  0
 16 50  1  0  0  0  0
 17 21  1  0  0  0  0
 17 25  2  0  0  0  0
 18 22  1  0  0  0  0
 18 28  2  0  0  0  0
 19 23  1  0  0  0  0
 19 51  1  0  0  0  0
 19 52  1  0  0  0  0
 20 29  1  0  0  0  0
 20 30  1  0  0  0  0
 21 53  1  0  0  0  0
 22 23  2  0  0  0  0
 22 33  1  0  0  0  0
 23 34  1  0  0  0  0
 24 25  1  0  0  0  0
 24 54  1  0  0  0  0
 26 31  1  0  0  0  0
 27 32  2  0  0  0  0
 28 32  1  0  0  0  0
 29 35  1  0  0  0  0
 29 55  1  0  0  0  0
 29 56  1  0  0  0  0
 30 31  2  0  0  0  0
 31 57  1  0  0  0  0
 32 58  1  0  0  0  0
 33 37  2  0  0  0  0
 33 59  1  0  0  0  0
 34 36  2  0  0  0  0
 34 60  1  0  0  0  0
 35 38  2  0  0  0  0
 35 39  1  0  0  0  0
 36 37  1  0  0  0  0
 37 61  1  0  0  0  0
 38 42  1  0  0  0  0
 38 65  1  0  0  0  0
 39 43  2  0  0  0  0
 39 66  1  0  0  0  0
 40 67  1  0  0  0  0
 40 68  1  0  0  0  0
 40 69  1  0  0  0  0
 41 70  1  0  0  0  0
 41 71  1  0  0  0  0
 41 72  1  0  0  0  0
 42 44  2  0  0  0  0
 42 73  1  0  0  0  0
 43 44  1  0  0  0  0
 43 74  1  0  0  0  0
M  END
> <PUBCHEM_COMPOUND_CID>
14863075

> <PUBCHEM_CONFORMER_RMSD>
1

> <PUBCHEM_CONFORMER_DIVERSEORDER>
1
5
11
15
8
10
12
9
4
13
2
6
7
3
16
14

> <PUBCHEM_MMFF94_PARTIAL_CHARGES>
54
1 -0.36
10 0.14
11 0.14
12 -0.14
14 -0.14
16 0.14
19 0.14
2 -0.53
20 -0.14
21 -0.15
23 -0.14
24 -0.15
25 0.08
26 0.08
27 0.08
28 0.08
29 0.29
3 -0.36
30 0.08
31 -0.15
32 -0.15
33 -0.15
34 -0.15
35 -0.14
36 0.08
37 -0.15
38 -0.15
39 -0.15
4 -0.53
40 0.28
41 0.28
42 -0.15
43 -0.15
44 0.08
5 -0.53
53 0.15
54 0.15
57 0.15
58 0.15
59 0.15
6 -0.53
60 0.15
61 0.15
62 0.45
63 0.45
64 0.45
65 0.15
66 0.15
7 -0.53
73 0.15
74 0.15
75 0.45
76 0.45
8 -0.14

> <PUBCHEM_EFFECTIVE_ROTOR_COUNT>
5.8

> <PUBCHEM_PHARMACOPHORE_FEATURES>
14
1 1 acceptor
1 2 donor
1 3 acceptor
1 4 donor
1 5 donor
1 6 donor
1 7 donor
6 14 15 18 27 28 32 rings
6 14 16 18 19 22 23 rings
6 22 23 33 34 36 37 rings
6 35 38 39 42 43 44 rings
6 8 13 20 26 30 31 rings
6 8 9 10 11 12 13 rings
6 9 12 17 21 24 25 rings

> <PUBCHEM_HEAVY_ATOM_COUNT>
44

> <PUBCHEM_ATOM_DEF_STEREO_COUNT>
0

> <PUBCHEM_ATOM_UDEF_STEREO_COUNT>
0

> <PUBCHEM_BOND_DEF_STEREO_COUNT>
0

> <PUBCHEM_BOND_UDEF_STEREO_COUNT>
0

> <PUBCHEM_ISOTOPIC_ATOM_COUNT>
0

> <PUBCHEM_COMPONENT_COUNT>
1

> <PUBCHEM_CACTVS_TAUTO_COUNT>
986

> <PUBCHEM_CONFORMER_ID>
00E2CAE300000001

> <PUBCHEM_MMFF94_ENERGY>
175.6431

> <PUBCHEM_FEATURE_SELFOVERLAP>
71.142

> <PUBCHEM_SHAPE_FINGERPRINT>
10674148 151 17603581915787454944
11017883 126 18408323259940466006
11115154 58 18113900447048702644
11135926 11 17918000456259355407
11828532 37 16701449212282212303
12082328 90 17968098676918151131
12120059 9 16128654137118903167
13782708 43 17487330689523401911
13811026 1 17132112476331671875
14068700 675 18131354133245132808
14117953 113 18341614780996008206
15183329 4 18408600371087134601
15320294 125 18201431451255411342
15320295 40 16630801093656443777
15328829 1 18412829087990556314
15439362 3 17899421067576561436
15444296 9 18337953394158237719
15684389 69 8646763413444117503
18608769 82 12685098081450898609
19304671 126 16805607018697638668
19841028 212 18335699387391738970
20511986 3 18129096899939225216
20737093 133 16552809659293365568
21033648 29 15719678787877995384
21814621 53 18114466776766281577
24893992 56 17774444993049122051
249057 3 18410290307283870219
3633792 109 18334016077642757744
397830 11 12247689248665542785
4098825 35 17967812760343557725
4394409 98 17989203759421052239
5085150 59 17561086903765187071
5223283 242 16370722609375662972
58902169 19 18408323306345420519
6086070 43 17631723980915435811
6126387 218 18410287017444579152
6691757 9 17275112734401541067
9689198 14 17022623070468879713

> <PUBCHEM_SHAPE_MULTIPOLES>
864.41
25.46
3.51
2.23
5.05
0.33
0.33
0.18
-7.05
-0.33
-1.7
0.26
-1.14
-2.65

> <PUBCHEM_SHAPE_SELFOVERLAP>
1956.83

> <PUBCHEM_SHAPE_VOLUME>
450.2

> <PUBCHEM_COORDINATE_TYPE>
2
5
10

$$$$
