11437978
  -OEChem-09172004343D

 40 42  0     0  0  0  0  0  0999 V2000
    0.6677   -2.1804    0.3523 O   0  0  0  0  0  0  0  0  0  0  0  0
    3.2959   -1.8420    0.3884 O   0  0  0  0  0  0  0  0  0  0  0  0
    4.4131    0.6675    0.1516 O   0  0  0  0  0  0  0  0  0  0  0  0
   -5.4070   -0.0088   -0.0490 O   0  0  0  0  0  0  0  0  0  0  0  0
    0.2312    0.2200    0.0838 C   0  0  0  0  0  0  0  0  0  0  0  0
   -1.2052    0.1232    0.0541 C   0  0  0  0  0  0  0  0  0  0  0  0
    0.8418    1.4958   -0.0357 C   0  0  0  0  0  0  0  0  0  0  0  0
   -1.9759    1.3060   -0.0931 C   0  0  0  0  0  0  0  0  0  0  0  0
    1.1006   -0.8905    0.2271 C   0  0  0  0  0  0  0  0  0  0  0  0
    0.0492    2.6374   -0.1792 C   0  0  0  0  0  0  0  0  0  0  0  0
   -1.3384    2.5440   -0.2075 C   0  0  0  0  0  0  0  0  0  0  0  0
    2.2411    1.6241   -0.0105 C   0  0  0  0  0  0  0  0  0  0  0  0
    2.4907   -0.7487    0.2507 C   0  0  0  0  0  0  0  0  0  0  0  0
   -1.9228   -1.0942    0.1636 C   0  0  0  0  0  0  0  0  0  0  0  0
    3.0612    0.5090    0.1319 C   0  0  0  0  0  0  0  0  0  0  0  0
   -3.3797    1.2455   -0.1255 C   0  0  0  0  0  0  0  0  0  0  0  0
   -4.0480    0.0301   -0.0143 C   0  0  0  0  0  0  0  0  0  0  0  0
   -3.3193   -1.1404    0.1299 C   0  0  0  0  0  0  0  0  0  0  0  0
    1.0970   -3.1034   -0.6438 C   0  0  0  0  0  0  0  0  0  0  0  0
    4.2184   -2.1016   -0.6665 C   0  0  0  0  0  0  0  0  0  0  0  0
    4.9126    1.9976    0.0232 C   0  0  0  0  0  0  0  0  0  0  0  0
   -6.0241   -1.2903    0.0686 C   0  0  0  0  0  0  0  0  0  0  0  0
    0.5027    3.6226   -0.2718 H   0  0  0  0  0  0  0  0  0  0  0  0
   -1.9173    3.4588   -0.3210 H   0  0  0  0  0  0  0  0  0  0  0  0
    2.6372    2.6311   -0.1075 H   0  0  0  0  0  0  0  0  0  0  0  0
   -1.4546   -2.0598    0.2867 H   0  0  0  0  0  0  0  0  0  0  0  0
   -3.9648    2.1572   -0.2389 H   0  0  0  0  0  0  0  0  0  0  0  0
   -3.7683   -2.1235    0.2235 H   0  0  0  0  0  0  0  0  0  0  0  0
    1.4536   -2.6166   -1.5582 H   0  0  0  0  0  0  0  0  0  0  0  0
    0.2337   -3.7184   -0.9179 H   0  0  0  0  0  0  0  0  0  0  0  0
    1.8543   -3.7765   -0.2327 H   0  0  0  0  0  0  0  0  0  0  0  0
    5.2008   -1.6939   -0.4116 H   0  0  0  0  0  0  0  0  0  0  0  0
    3.8787   -1.6989   -1.6272 H   0  0  0  0  0  0  0  0  0  0  0  0
    4.3222   -3.1859   -0.7677 H   0  0  0  0  0  0  0  0  0  0  0  0
    6.0053    1.9350    0.0599 H   0  0  0  0  0  0  0  0  0  0  0  0
    4.6033    2.6284    0.8635 H   0  0  0  0  0  0  0  0  0  0  0  0
    4.6531    2.4348   -0.9471 H   0  0  0  0  0  0  0  0  0  0  0  0
   -5.7576   -1.9433   -0.7695 H   0  0  0  0  0  0  0  0  0  0  0  0
   -7.1067   -1.1336    0.0205 H   0  0  0  0  0  0  0  0  0  0  0  0
   -5.8102   -1.7521    1.0384 H   0  0  0  0  0  0  0  0  0  0  0  0
  1  9  1  0  0  0  0
  1 19  1  0  0  0  0
  2 13  1  0  0  0  0
  2 20  1  0  0  0  0
  3 15  1  0  0  0  0
  3 21  1  0  0  0  0
  4 17  1  0  0  0  0
  4 22  1  0  0  0  0
  5  6  1  0  0  0  0
  5  7  1  0  0  0  0
  5  9  2  0  0  0  0
  6  8  2  0  0  0  0
  6 14  1  0  0  0  0
  7 10  1  0  0  0  0
  7 12  2  0  0  0  0
  8 11  1  0  0  0  0
  8 16  1  0  0  0  0
  9 13  1  0  0  0  0
 10 11  2  0  0  0  0
 10 23  1  0  0  0  0
 11 24  1  0  0  0  0
 12 15  1  0  0  0  0
 12 25  1  0  0  0  0
 13 15  2  0  0  0  0
 14 18  2  0  0  0  0
 14 26  1  0  0  0  0
 16 17  2  0  0  0  0
 16 27  1  0  0  0  0
 17 18  1  0  0  0  0
 18 28  1  0  0  0  0
 19 29  1  0  0  0  0
 19 30  1  0  0  0  0
 19 31  1  0  0  0  0
 20 32  1  0  0  0  0
 20 33  1  0  0  0  0
 20 34  1  0  0  0  0
 21 35  1  0  0  0  0
 21 36  1  0  0  0  0
 21 37  1  0  0  0  0
 22 38  1  0  0  0  0
 22 39  1  0  0  0  0
 22 40  1  0  0  0  0
M  END
> <PUBCHEM_COMPOUND_CID>
11437978

> <PUBCHEM_CONFORMER_RMSD>
0.6

> <PUBCHEM_CONFORMER_DIVERSEORDER>
6
4
3
2
5
1

> <PUBCHEM_MMFF94_PARTIAL_CHARGES>
24
1 -0.36
10 -0.15
11 -0.15
12 -0.15
13 0.08
14 -0.15
15 0.08
16 -0.15
17 0.08
18 -0.15
19 0.28
2 -0.36
20 0.28
21 0.28
22 0.28
23 0.15
24 0.15
25 0.15
26 0.15
27 0.15
28 0.15
3 -0.36
4 -0.36
9 0.08

> <PUBCHEM_EFFECTIVE_ROTOR_COUNT>
4

> <PUBCHEM_PHARMACOPHORE_FEATURES>
7
1 1 acceptor
1 2 acceptor
1 3 acceptor
1 4 acceptor
6 5 6 7 8 10 11 rings
6 5 7 9 12 13 15 rings
6 6 8 14 16 17 18 rings

> <PUBCHEM_HEAVY_ATOM_COUNT>
22

> <PUBCHEM_ATOM_DEF_STEREO_COUNT>
0

> <PUBCHEM_ATOM_UDEF_STEREO_COUNT>
0

> <PUBCHEM_BOND_DEF_STEREO_COUNT>
0

> <PUBCHEM_BOND_UDEF_STEREO_COUNT>
0

> <PUBCHEM_ISOTOPIC_ATOM_COUNT>
0

> <PUBCHEM_COMPONENT_COUNT>
1

> <PUBCHEM_CACTVS_TAUTO_COUNT>
1

> <PUBCHEM_CONFORMER_ID>
00AE879A00000006

> <PUBCHEM_MMFF94_ENERGY>
117.7691

> <PUBCHEM_FEATURE_SELFOVERLAP>
35.585

> <PUBCHEM_SHAPE_FINGERPRINT>
10411042 1 18266177228269539306
10616163 171 18410294726420095741
10906281 52 18261692440350791185
10967382 1 18410011065268082184
1100329 8 18122905596996907800
11578080 2 16807559570474152590
11806522 49 18408322198581584781
11963148 33 18263357160800800763
12011746 2 18409452526583840020
12236239 1 17917715721006354129
12403259 226 18265328405065789540
12553582 1 18339067221107546431
12838862 33 18266720541068032821
12916754 54 18341052891582737512
13140716 1 18194955245920299448
13862211 1 18408879663771955531
14178342 30 17906719320549177896
14223421 5 18266457598785098524
14787075 74 18334573593998390520
14790565 3 18193564582306751284
14863182 85 18409458002466702134
15196674 1 18410011001160304705
15536298 74 18413107234578290152
15927050 60 17476642451967600940
16945 1 17977944588474571928
17492 89 18265610987901800866
1813 80 17385726893646750165
19591789 44 18339643343493374094
200 152 18272930540424632257
20028762 73 17985828370340571927
20645477 70 18410009918512099990
20691752 17 17386578950844529896
21197605 99 17978235177536090827
21267235 1 18410300189750611923
21279426 13 18335697179630056381
21421861 104 17970343715946540579
221490 88 18338240345376674194
2334 1 18410008841013229472
23402539 116 18270112551819603076
23558518 356 18116721711684903497
23559900 14 18195519290858038474
2748010 2 18409444770020583364
2871803 45 18334292037564779787
3004659 81 18186801344528449742
335352 9 18337390564284688340
33824 294 18409728473890115978
34934 24 18339074994560112451
350125 39 18411136897273203592
4280585 95 17188699641753019590
4409770 3 16309909445771494142
46194498 28 17531805878752545037
474229 33 18409728503896884168
5104073 3 18338515244594931777
5486654 2 18339365296307078884
59755656 215 18409172125649581894
7364860 26 18412825780680744633
9709674 26 18407763629151784259

> <PUBCHEM_SHAPE_MULTIPOLES>
429.27
9.93
3.07
0.66
6.27
0.46
-0.03
1.73
-0.03
-1.93
-0.41
-0.12
0.1
0.4

> <PUBCHEM_SHAPE_SELFOVERLAP>
946.401

> <PUBCHEM_SHAPE_VOLUME>
233.9

> <PUBCHEM_COORDINATE_TYPE>
2
5
10

$$$$
