102097659
  -OEChem-09172004563D

 60 64  0     1  0  0  0  0  0999 V2000
   -1.5788   -1.1456   -1.5065 O   0  0  0  0  0  0  0  0  0  0  0  0
   -1.1272    2.4303   -0.4722 O   0  0  0  0  0  0  0  0  0  0  0  0
    4.8046   -0.9546   -2.0263 O   0  0  0  0  0  0  0  0  0  0  0  0
    7.6690    0.0209    1.5893 O   0  0  0  0  0  0  0  0  0  0  0  0
   -6.9364    0.5501    0.5261 O   0  0  0  0  0  0  0  0  0  0  0  0
   -5.0948   -3.8447    0.8080 O   0  0  0  0  0  0  0  0  0  0  0  0
   -1.3673    4.4647    0.5958 O   0  0  0  0  0  0  0  0  0  0  0  0
   -1.2906    0.2456    0.4811 C   0  0  2  0  0  0  0  0  0  0  0  0
    0.0053   -0.2613   -0.0616 C   0  0  0  0  0  0  0  0  0  0  0  0
   -2.2347   -0.1490   -0.6841 C   0  0  2  0  0  0  0  0  0  0  0  0
    1.3111   -0.1399    0.4182 C   0  0  0  0  0  0  0  0  0  0  0  0
   -0.2513   -1.0312   -1.1871 C   0  0  0  0  0  0  0  0  0  0  0  0
    1.6233    0.6149    1.6872 C   0  0  0  0  0  0  0  0  0  0  0  0
    2.3785   -0.7210   -0.3210 C   0  0  0  0  0  0  0  0  0  0  0  0
   -1.3627    1.7468    0.7452 C   0  0  0  0  0  0  0  0  0  0  0  0
    2.8370    0.0364    2.4167 C   0  0  0  0  0  0  0  0  0  0  0  0
    3.7749   -0.5292    0.1462 C   0  0  0  0  0  0  0  0  0  0  0  0
   -3.5689   -0.6782   -0.2076 C   0  0  0  0  0  0  0  0  0  0  0  0
    4.0080   -0.1392    1.4844 C   0  0  0  0  0  0  0  0  0  0  0  0
    0.7504   -1.6571   -1.8985 C   0  0  0  0  0  0  0  0  0  0  0  0
    2.0666   -1.4854   -1.4695 C   0  0  0  0  0  0  0  0  0  0  0  0
    4.8945   -0.6975   -0.6882 C   0  0  0  0  0  0  0  0  0  0  0  0
    5.3144    0.0293    1.9665 C   0  0  0  0  0  0  0  0  0  0  0  0
   -4.6503    0.1903   -0.0589 C   0  0  0  0  0  0  0  0  0  0  0  0
   -3.7181   -2.0340    0.0839 C   0  0  0  0  0  0  0  0  0  0  0  0
    6.1937   -0.5125   -0.2060 C   0  0  0  0  0  0  0  0  0  0  0  0
    6.4037   -0.1546    1.1210 C   0  0  0  0  0  0  0  0  0  0  0  0
   -5.8808   -0.2971    0.3813 C   0  0  0  0  0  0  0  0  0  0  0  0
   -4.9487   -2.5215    0.5241 C   0  0  0  0  0  0  0  0  0  0  0  0
   -6.0300   -1.6529    0.6728 C   0  0  0  0  0  0  0  0  0  0  0  0
   -1.1573    3.7986   -0.4089 C   0  0  0  0  0  0  0  0  0  0  0  0
    4.7705    0.1719   -2.8982 C   0  0  0  0  0  0  0  0  0  0  0  0
   -0.8934    4.3831   -1.7634 C   0  0  0  0  0  0  0  0  0  0  0  0
   -6.7142    1.9236    0.2101 C   0  0  0  0  0  0  0  0  0  0  0  0
   -1.5262   -0.3087    1.3983 H   0  0  0  0  0  0  0  0  0  0  0  0
   -2.4310    0.6854   -1.3703 H   0  0  0  0  0  0  0  0  0  0  0  0
    1.8044    1.6655    1.4276 H   0  0  0  0  0  0  0  0  0  0  0  0
    0.7757    0.5744    2.3796 H   0  0  0  0  0  0  0  0  0  0  0  0
   -0.6330    2.0651    1.4943 H   0  0  0  0  0  0  0  0  0  0  0  0
   -2.3619    2.0050    1.1160 H   0  0  0  0  0  0  0  0  0  0  0  0
    2.5904   -0.9440    2.8443 H   0  0  0  0  0  0  0  0  0  0  0  0
    3.0994    0.7018    3.2478 H   0  0  0  0  0  0  0  0  0  0  0  0
    0.5275   -2.2701   -2.7651 H   0  0  0  0  0  0  0  0  0  0  0  0
    2.8211   -2.0296   -2.0271 H   0  0  0  0  0  0  0  0  0  0  0  0
    5.4733    0.3079    3.0058 H   0  0  0  0  0  0  0  0  0  0  0  0
   -4.4785    1.2343   -0.2988 H   0  0  0  0  0  0  0  0  0  0  0  0
   -2.8788   -2.7174   -0.0174 H   0  0  0  0  0  0  0  0  0  0  0  0
    7.0458   -0.6378   -0.8704 H   0  0  0  0  0  0  0  0  0  0  0  0
   -6.9892   -2.0327    1.0156 H   0  0  0  0  0  0  0  0  0  0  0  0
    7.6263    0.2683    2.5290 H   0  0  0  0  0  0  0  0  0  0  0  0
    4.5753   -0.1864   -3.9127 H   0  0  0  0  0  0  0  0  0  0  0  0
    5.7352    0.6890   -2.8912 H   0  0  0  0  0  0  0  0  0  0  0  0
    3.9727    0.8657   -2.6140 H   0  0  0  0  0  0  0  0  0  0  0  0
   -0.9200    5.4746   -1.6995 H   0  0  0  0  0  0  0  0  0  0  0  0
   -1.6655    4.0556   -2.4640 H   0  0  0  0  0  0  0  0  0  0  0  0
    0.0967    4.0779   -2.1111 H   0  0  0  0  0  0  0  0  0  0  0  0
   -4.2485   -4.2971    0.6494 H   0  0  0  0  0  0  0  0  0  0  0  0
   -7.6580    2.4513    0.3822 H   0  0  0  0  0  0  0  0  0  0  0  0
   -6.4618    2.0578   -0.8473 H   0  0  0  0  0  0  0  0  0  0  0  0
   -5.9703    2.3748    0.8757 H   0  0  0  0  0  0  0  0  0  0  0  0
  1 10  1  0  0  0  0
  1 12  1  0  0  0  0
  2 15  1  0  0  0  0
  2 31  1  0  0  0  0
  3 22  1  0  0  0  0
  3 32  1  0  0  0  0
  4 27  1  0  0  0  0
  4 50  1  0  0  0  0
  5 28  1  0  0  0  0
  5 34  1  0  0  0  0
  6 29  1  0  0  0  0
  6 57  1  0  0  0  0
  7 31  2  0  0  0  0
  8  9  1  0  0  0  0
  8 10  1  0  0  0  0
  8 15  1  0  0  0  0
  8 35  1  0  0  0  0
  9 11  1  0  0  0  0
  9 12  2  0  0  0  0
 10 18  1  0  0  0  0
 10 36  1  0  0  0  0
 11 13  1  0  0  0  0
 11 14  2  0  0  0  0
 12 20  1  0  0  0  0
 13 16  1  0  0  0  0
 13 37  1  0  0  0  0
 13 38  1  0  0  0  0
 14 17  1  0  0  0  0
 14 21  1  0  0  0  0
 15 39  1  0  0  0  0
 15 40  1  0  0  0  0
 16 19  1  0  0  0  0
 16 41  1  0  0  0  0
 16 42  1  0  0  0  0
 17 19  2  0  0  0  0
 17 22  1  0  0  0  0
 18 24  1  0  0  0  0
 18 25  2  0  0  0  0
 19 23  1  0  0  0  0
 20 21  2  0  0  0  0
 20 43  1  0  0  0  0
 21 44  1  0  0  0  0
 22 26  2  0  0  0  0
 23 27  2  0  0  0  0
 23 45  1  0  0  0  0
 24 28  2  0  0  0  0
 24 46  1  0  0  0  0
 25 29  1  0  0  0  0
 25 47  1  0  0  0  0
 26 27  1  0  0  0  0
 26 48  1  0  0  0  0
 28 30  1  0  0  0  0
 29 30  2  0  0  0  0
 30 49  1  0  0  0  0
 31 33  1  0  0  0  0
 32 51  1  0  0  0  0
 32 52  1  0  0  0  0
 32 53  1  0  0  0  0
 33 54  1  0  0  0  0
 33 55  1  0  0  0  0
 33 56  1  0  0  0  0
 34 58  1  0  0  0  0
 34 59  1  0  0  0  0
 34 60  1  0  0  0  0
M  END
> <PUBCHEM_COMPOUND_CID>
102097659

> <PUBCHEM_CONFORMER_RMSD>
1

> <PUBCHEM_CONFORMER_DIVERSEORDER>
1
29
19
27
42
26
6
17
14
22
24
33
41
10
3
36
30
34
25
8
39
40
2
23
4
31
37
15
18
12
38
5
32
7
20
28
21
13
11
9
35
16

> <PUBCHEM_MMFF94_PARTIAL_CHARGES>
41
1 -0.36
10 0.42
11 -0.14
12 0.08
13 0.14
15 0.28
16 0.14
18 -0.14
19 -0.14
2 -0.43
20 -0.15
21 -0.15
22 0.08
23 -0.15
24 -0.15
25 -0.15
26 -0.15
27 0.08
28 0.08
29 0.08
3 -0.36
30 -0.15
31 0.66
32 0.28
33 0.06
34 0.28
4 -0.53
43 0.15
44 0.15
45 0.15
46 0.15
47 0.15
48 0.15
49 0.15
5 -0.36
50 0.45
57 0.45
6 -0.53
7 -0.57
8 0.14
9 -0.14

> <PUBCHEM_EFFECTIVE_ROTOR_COUNT>
7

> <PUBCHEM_PHARMACOPHORE_FEATURES>
11
1 1 acceptor
1 3 acceptor
1 4 donor
1 5 acceptor
1 6 donor
1 7 acceptor
5 1 8 9 10 12 rings
6 11 13 14 16 17 19 rings
6 17 19 22 23 26 27 rings
6 18 24 25 28 29 30 rings
6 9 11 12 14 20 21 rings

> <PUBCHEM_HEAVY_ATOM_COUNT>
34

> <PUBCHEM_ATOM_DEF_STEREO_COUNT>
2

> <PUBCHEM_ATOM_UDEF_STEREO_COUNT>
0

> <PUBCHEM_BOND_DEF_STEREO_COUNT>
0

> <PUBCHEM_BOND_UDEF_STEREO_COUNT>
0

> <PUBCHEM_ISOTOPIC_ATOM_COUNT>
0

> <PUBCHEM_COMPONENT_COUNT>
1

> <PUBCHEM_CACTVS_TAUTO_COUNT>
804

> <PUBCHEM_CONFORMER_ID>
0615E2FB00000001

> <PUBCHEM_MMFF94_ENERGY>
122.5205

> <PUBCHEM_FEATURE_SELFOVERLAP>
55.964

> <PUBCHEM_SHAPE_FINGERPRINT>
10 15 18059851796768937594
11421498 54 17894904097008292066
12107698 1 18259981579015484152
12166972 35 17095517410077547820
12236239 1 17022624182533184543
12422481 6 17988354970286772989
12788726 201 18113900403792659177
13533116 47 15791734113909693990
13782708 43 17845949420098601086
14028597 1 17676484991386002913
140371 6 18270695190510121225
14068700 675 17894908555253202324
14294032 229 18118696413014840908
14856354 85 18187648024823288567
14955137 171 18270684302446103657
15131766 46 15553294065212417448
15183329 4 14634862067870997675
15328829 1 17386009416526915193
15444296 121 18260556636813496561
15775530 1 17552930529210744783
16090146 7 17095533863954763370
1813 80 18338515343473968325
21033648 29 17775277279815944395
22182313 1 17774714261010936716
22393880 68 10737271468963821899
23522609 53 17386873680269463573
23559900 14 18343030973674214655
23569943 247 16374638932592550522
25223398 141 18269836420151513068
2838139 119 13830133927387276483
350125 39 17846776317314241688
3633792 109 15913051963781812887
394071 54 16128662976805188650
46194498 28 18273495694029073184
469060 322 18335431127174277328
552612 73 17772479992779344505
58260988 393 18114738244690926312
59755656 215 17845937333701432927
6086070 43 17970044804289032535
9962374 69 18195532726281456331

> <PUBCHEM_SHAPE_MULTIPOLES>
658.62
16.92
3.51
2.01
0
4.59
-0.5
-5.6
5.19
-6.19
-0.82
3.7
0.03
1.1

> <PUBCHEM_SHAPE_SELFOVERLAP>
1457.565

> <PUBCHEM_SHAPE_VOLUME>
354.1

> <PUBCHEM_COORDINATE_TYPE>
2
5
10

$$$$
