101845672
  -OEChem-09172004123D

 66 69  0     0  0  0  0  0  0999 V2000
    4.1619    0.3392    2.1254 O   0  0  0  0  0  0  0  0  0  0  0  0
    1.8228   -3.7967    2.3216 O   0  0  0  0  0  0  0  0  0  0  0  0
   -6.0483    0.9169    0.5822 O   0  0  0  0  0  0  0  0  0  0  0  0
   -5.8932    3.4122   -0.6328 O   0  0  0  0  0  0  0  0  0  0  0  0
    4.8504    2.8663   -3.6838 O   0  0  0  0  0  0  0  0  0  0  0  0
   -1.4827   -3.9313   -4.1905 O   0  0  0  0  0  0  0  0  0  0  0  0
    0.7296   -0.5001    1.1468 C   0  0  0  0  0  0  0  0  0  0  0  0
   -0.4837    0.1587    0.5705 C   0  0  0  0  0  0  0  0  0  0  0  0
    1.8892    0.2433    1.3660 C   0  0  0  0  0  0  0  0  0  0  0  0
    0.7009   -1.8577    1.4658 C   0  0  0  0  0  0  0  0  0  0  0  0
   -1.2551    1.0334    1.5757 C   0  0  0  0  0  0  0  0  0  0  0  0
    1.9286    1.6996    1.0265 C   0  0  0  0  0  0  0  0  0  0  0  0
   -0.5548   -2.6731    1.2304 C   0  0  0  0  0  0  0  0  0  0  0  0
    3.0202   -0.3707    1.9041 C   0  0  0  0  0  0  0  0  0  0  0  0
    1.8318   -2.4719    2.0041 C   0  0  0  0  0  0  0  0  0  0  0  0
    2.9913   -1.7283    2.2233 C   0  0  0  0  0  0  0  0  0  0  0  0
   -2.4934    1.6655    0.9884 C   0  0  0  0  0  0  0  0  0  0  0  0
    2.7093    2.0120   -0.2322 C   0  0  0  0  0  0  0  0  0  0  0  0
   -0.8007   -3.0057   -0.2021 C   0  0  0  0  0  0  0  0  0  0  0  0
   -3.7157    0.9966    1.0543 C   0  0  0  0  0  0  0  0  0  0  0  0
   -2.4159    2.9180    0.3794 C   0  0  0  0  0  0  0  0  0  0  0  0
    2.3631    1.4001   -1.4370 C   0  0  0  0  0  0  0  0  0  0  0  0
    3.7749    2.9109   -0.1874 C   0  0  0  0  0  0  0  0  0  0  0  0
    0.1671   -3.6942   -0.9337 C   0  0  0  0  0  0  0  0  0  0  0  0
   -1.9976   -2.6284   -0.8109 C   0  0  0  0  0  0  0  0  0  0  0  0
   -4.8603    1.5803    0.5115 C   0  0  0  0  0  0  0  0  0  0  0  0
   -3.5604    3.5017   -0.1635 C   0  0  0  0  0  0  0  0  0  0  0  0
   -4.7827    2.8328   -0.0974 C   0  0  0  0  0  0  0  0  0  0  0  0
    3.0824    1.6875   -2.5970 C   0  0  0  0  0  0  0  0  0  0  0  0
    4.4943    3.1983   -1.3474 C   0  0  0  0  0  0  0  0  0  0  0  0
   -0.0623   -4.0056   -2.2739 C   0  0  0  0  0  0  0  0  0  0  0  0
   -2.2270   -2.9397   -2.1510 C   0  0  0  0  0  0  0  0  0  0  0  0
    5.2687   -0.3703    2.6784 C   0  0  0  0  0  0  0  0  0  0  0  0
    4.1479    2.5865   -2.5522 C   0  0  0  0  0  0  0  0  0  0  0  0
   -1.2593   -3.6284   -2.8826 C   0  0  0  0  0  0  0  0  0  0  0  0
   -6.0412   -0.3583    1.2210 C   0  0  0  0  0  0  0  0  0  0  0  0
   -1.1901   -0.5301    0.1302 H   0  0  0  0  0  0  0  0  0  0  0  0
   -0.2076    0.7708   -0.2942 H   0  0  0  0  0  0  0  0  0  0  0  0
   -0.6427    1.8141    2.0370 H   0  0  0  0  0  0  0  0  0  0  0  0
   -1.5574    0.4053    2.4260 H   0  0  0  0  0  0  0  0  0  0  0  0
    2.3666    2.2340    1.8815 H   0  0  0  0  0  0  0  0  0  0  0  0
    0.9603    2.1809    0.8997 H   0  0  0  0  0  0  0  0  0  0  0  0
   -1.4094   -2.1469    1.6771 H   0  0  0  0  0  0  0  0  0  0  0  0
   -0.5207   -3.6155    1.7925 H   0  0  0  0  0  0  0  0  0  0  0  0
    3.8387   -2.2592    2.6436 H   0  0  0  0  0  0  0  0  0  0  0  0
   -3.7137    0.0244    1.5358 H   0  0  0  0  0  0  0  0  0  0  0  0
   -1.4684    3.4470    0.3204 H   0  0  0  0  0  0  0  0  0  0  0  0
    1.5489    0.6885   -1.5080 H   0  0  0  0  0  0  0  0  0  0  0  0
    4.0566    3.3948    0.7439 H   0  0  0  0  0  0  0  0  0  0  0  0
    1.1020   -4.0071   -0.4782 H   0  0  0  0  0  0  0  0  0  0  0  0
   -2.7731   -2.1099   -0.2530 H   0  0  0  0  0  0  0  0  0  0  0  0
    2.6915   -4.0480    2.6791 H   0  0  0  0  0  0  0  0  0  0  0  0
   -3.4855    4.4775   -0.6358 H   0  0  0  0  0  0  0  0  0  0  0  0
    2.8046    1.2024   -3.5289 H   0  0  0  0  0  0  0  0  0  0  0  0
    5.3236    3.8991   -1.3062 H   0  0  0  0  0  0  0  0  0  0  0  0
    0.6987   -4.5441   -2.8323 H   0  0  0  0  0  0  0  0  0  0  0  0
   -3.1631   -2.6467   -2.6184 H   0  0  0  0  0  0  0  0  0  0  0  0
    5.6241   -1.1557    2.0025 H   0  0  0  0  0  0  0  0  0  0  0  0
    5.0462   -0.7489    3.6818 H   0  0  0  0  0  0  0  0  0  0  0  0
    6.0884    0.3479    2.7863 H   0  0  0  0  0  0  0  0  0  0  0  0
   -5.6495    4.2747   -1.0106 H   0  0  0  0  0  0  0  0  0  0  0  0
    4.4751    2.3558   -4.4219 H   0  0  0  0  0  0  0  0  0  0  0  0
   -0.7099   -4.4072   -4.5401 H   0  0  0  0  0  0  0  0  0  0  0  0
   -7.0667   -0.7407    1.1875 H   0  0  0  0  0  0  0  0  0  0  0  0
   -5.7666   -0.2790    2.2784 H   0  0  0  0  0  0  0  0  0  0  0  0
   -5.4168   -1.0776    0.6799 H   0  0  0  0  0  0  0  0  0  0  0  0
  1 14  1  0  0  0  0
  1 33  1  0  0  0  0
  2 15  1  0  0  0  0
  2 52  1  0  0  0  0
  3 26  1  0  0  0  0
  3 36  1  0  0  0  0
  4 28  1  0  0  0  0
  4 61  1  0  0  0  0
  5 34  1  0  0  0  0
  5 62  1  0  0  0  0
  6 35  1  0  0  0  0
  6 63  1  0  0  0  0
  7  8  1  0  0  0  0
  7  9  1  0  0  0  0
  7 10  2  0  0  0  0
  8 11  1  0  0  0  0
  8 37  1  0  0  0  0
  8 38  1  0  0  0  0
  9 12  1  0  0  0  0
  9 14  2  0  0  0  0
 10 13  1  0  0  0  0
 10 15  1  0  0  0  0
 11 17  1  0  0  0  0
 11 39  1  0  0  0  0
 11 40  1  0  0  0  0
 12 18  1  0  0  0  0
 12 41  1  0  0  0  0
 12 42  1  0  0  0  0
 13 19  1  0  0  0  0
 13 43  1  0  0  0  0
 13 44  1  0  0  0  0
 14 16  1  0  0  0  0
 15 16  2  0  0  0  0
 16 45  1  0  0  0  0
 17 20  2  0  0  0  0
 17 21  1  0  0  0  0
 18 22  2  0  0  0  0
 18 23  1  0  0  0  0
 19 24  2  0  0  0  0
 19 25  1  0  0  0  0
 20 26  1  0  0  0  0
 20 46  1  0  0  0  0
 21 27  2  0  0  0  0
 21 47  1  0  0  0  0
 22 29  1  0  0  0  0
 22 48  1  0  0  0  0
 23 30  2  0  0  0  0
 23 49  1  0  0  0  0
 24 31  1  0  0  0  0
 24 50  1  0  0  0  0
 25 32  2  0  0  0  0
 25 51  1  0  0  0  0
 26 28  2  0  0  0  0
 27 28  1  0  0  0  0
 27 53  1  0  0  0  0
 29 34  2  0  0  0  0
 29 54  1  0  0  0  0
 30 34  1  0  0  0  0
 30 55  1  0  0  0  0
 31 35  2  0  0  0  0
 31 56  1  0  0  0  0
 32 35  1  0  0  0  0
 32 57  1  0  0  0  0
 33 58  1  0  0  0  0
 33 59  1  0  0  0  0
 33 60  1  0  0  0  0
 36 64  1  0  0  0  0
 36 65  1  0  0  0  0
 36 66  1  0  0  0  0
M  END
> <PUBCHEM_COMPOUND_CID>
101845672

> <PUBCHEM_CONFORMER_RMSD>
1

> <PUBCHEM_CONFORMER_DIVERSEORDER>
1
92
36
50
104
62
12
102
90
119
61
70
35
100
108
27
19
101
48
79
113
10
41
49
106
112
16
76
116
17
103
120
121
65
68
13
24
52
109
99
96
81
57
42
29
97
74
114
75
33
56
11
31
66
91
80
21
95
82
67
46
64
105
85
38
26
45
59
25
53
47
32
107
55
44
8
3
63
111
94
87
115
23
39
83
72
9
30
7
54
118
15
5
93
84
58
117
78
6
88
73
20
98
110
69
2
60
77
22
43
86
4
40
37
51
89
28
71
18
14
34

> <PUBCHEM_MMFF94_PARTIAL_CHARGES>
52
1 -0.36
10 -0.14
11 0.14
12 0.29
13 0.29
14 0.08
15 0.08
16 -0.15
17 -0.14
18 -0.14
19 -0.14
2 -0.53
20 -0.15
21 -0.15
22 -0.15
23 -0.15
24 -0.15
25 -0.15
26 0.08
27 -0.15
28 0.08
29 -0.15
3 -0.36
30 -0.15
31 -0.15
32 -0.15
33 0.28
34 0.08
35 0.08
36 0.28
4 -0.53
45 0.15
46 0.15
47 0.15
48 0.15
49 0.15
5 -0.53
50 0.15
51 0.15
52 0.45
53 0.15
54 0.15
55 0.15
56 0.15
57 0.15
6 -0.53
61 0.45
62 0.45
63 0.45
7 -0.14
8 0.14
9 -0.14

> <PUBCHEM_EFFECTIVE_ROTOR_COUNT>
9

> <PUBCHEM_PHARMACOPHORE_FEATURES>
10
1 1 acceptor
1 2 donor
1 3 acceptor
1 4 donor
1 5 donor
1 6 donor
6 17 20 21 26 27 28 rings
6 18 22 23 29 30 34 rings
6 19 24 25 31 32 35 rings
6 7 9 10 14 15 16 rings

> <PUBCHEM_HEAVY_ATOM_COUNT>
36

> <PUBCHEM_ATOM_DEF_STEREO_COUNT>
0

> <PUBCHEM_ATOM_UDEF_STEREO_COUNT>
0

> <PUBCHEM_BOND_DEF_STEREO_COUNT>
0

> <PUBCHEM_BOND_UDEF_STEREO_COUNT>
0

> <PUBCHEM_ISOTOPIC_ATOM_COUNT>
0

> <PUBCHEM_COMPONENT_COUNT>
1

> <PUBCHEM_CACTVS_TAUTO_COUNT>
998

> <PUBCHEM_CONFORMER_ID>
06120AA800000001

> <PUBCHEM_MMFF94_ENERGY>
128.0555

> <PUBCHEM_FEATURE_SELFOVERLAP>
50.748

> <PUBCHEM_SHAPE_FINGERPRINT>
10985338 15 17988079014807717009
11093857 51 17844535409311227431
11477941 20 17112735980975398636
12156800 1 17988638665893620470
12160290 23 18128827527974633739
12608794 3 17604969521294903346
12788726 201 18123745623827579831
12977781 61 16988840627434831278
14114206 34 17687187903700250542
14863182 85 17557127420707091587
14918310 93 17834951967564444074
15219462 58 17834666477067326496
15444296 7 18411697673746501850
15484559 13 18335143047060110845
15684973 49 18196920292590834954
15968369 26 18198345053163814071
18365409 1 18057295388910139231
19319366 153 18260546774787980155
20739085 24 17975404720766796594
21304303 282 18118684559437119560
21344244 181 17630914714086461781
21583282 1 18191587450632154846
21857420 4 16744800391485198957
21860390 5 17678464060549427896
23559900 14 17981052908157609125
26353 1 17264413626831315221
3552219 110 14931296145422724920
4066623 53 17265215111121546837
437795 70 17486212507514411815
5080951 261 17912675637341516600
57527306 92 17826240584419533286
6608658 132 18124591153292749055
6669772 16 17416954059062998270
6700243 42 17198547326914370590

> <PUBCHEM_SHAPE_MULTIPOLES>
705.65
10.83
6.36
3.55
7.52
3.55
-2.9
-13.11
0.54
2.29
-4.65
-4.17
2.65
-5.62

> <PUBCHEM_SHAPE_SELFOVERLAP>
1538.318

> <PUBCHEM_SHAPE_VOLUME>
382.4

> <PUBCHEM_COORDINATE_TYPE>
2
5
10

$$$$
