49871127
  -OEChem-09172005553D

 38 39  0     1  0  0  0  0  0999 V2000
    1.6288    0.9021   -0.1196 O   0  0  0  0  0  0  0  0  0  0  0  0
   -0.2997   -0.4069    0.0095 O   0  0  0  0  0  0  0  0  0  0  0  0
    3.9642   -2.4050   -0.8229 O   0  0  0  0  0  0  0  0  0  0  0  0
    5.1984    0.0478    0.0184 O   0  0  0  0  0  0  0  0  0  0  0  0
    1.3354   -2.7167    0.3848 O   0  0  0  0  0  0  0  0  0  0  0  0
    2.5986    3.4126    0.3996 O   0  0  0  0  0  0  0  0  0  0  0  0
   -6.5080   -0.1267   -0.7393 O   0  0  0  0  0  0  0  0  0  0  0  0
    3.3125   -1.4224   -0.0163 C   0  0  1  0  0  0  0  0  0  0  0  0
    3.8418   -0.0432   -0.4094 C   0  0  1  0  0  0  0  0  0  0  0  0
    1.8020   -1.5175   -0.2320 C   0  0  2  0  0  0  0  0  0  0  0  0
    3.0035    1.0640    0.2339 C   0  0  1  0  0  0  0  0  0  0  0  0
    1.0769   -0.3161    0.3743 C   0  0  1  0  0  0  0  0  0  0  0  0
    3.4275    2.4537   -0.2316 C   0  0  0  0  0  0  0  0  0  0  0  0
   -1.1144    0.3719    0.8719 C   0  0  0  0  0  0  0  0  0  0  0  0
   -2.5466    0.2401    0.4439 C   0  0  0  0  0  0  0  0  0  0  0  0
   -2.9992    0.9075   -0.6942 C   0  0  0  0  0  0  0  0  0  0  0  0
   -3.4253   -0.5505    1.1845 C   0  0  0  0  0  0  0  0  0  0  0  0
   -4.3305    0.7845   -1.0917 C   0  0  0  0  0  0  0  0  0  0  0  0
   -4.7567   -0.6735    0.7872 C   0  0  0  0  0  0  0  0  0  0  0  0
   -5.2093   -0.0059   -0.3509 C   0  0  0  0  0  0  0  0  0  0  0  0
    3.5743   -1.6591    1.0219 H   0  0  0  0  0  0  0  0  0  0  0  0
    3.8354    0.0571   -1.5016 H   0  0  0  0  0  0  0  0  0  0  0  0
    1.5723   -1.6027   -1.3009 H   0  0  0  0  0  0  0  0  0  0  0  0
    3.0877    1.0343    1.3288 H   0  0  0  0  0  0  0  0  0  0  0  0
    1.1636   -0.3472    1.4695 H   0  0  0  0  0  0  0  0  0  0  0  0
    3.2963    2.5595   -1.3137 H   0  0  0  0  0  0  0  0  0  0  0  0
    4.4696    2.6617    0.0288 H   0  0  0  0  0  0  0  0  0  0  0  0
    3.7444   -2.2264   -1.7532 H   0  0  0  0  0  0  0  0  0  0  0  0
    5.2109    0.0015    0.9897 H   0  0  0  0  0  0  0  0  0  0  0  0
    1.5035   -2.6494    1.3402 H   0  0  0  0  0  0  0  0  0  0  0  0
   -0.8160    1.4270    0.8308 H   0  0  0  0  0  0  0  0  0  0  0  0
   -0.9958    0.0323    1.9083 H   0  0  0  0  0  0  0  0  0  0  0  0
    2.8833    4.2883    0.0872 H   0  0  0  0  0  0  0  0  0  0  0  0
   -2.3227    1.5254   -1.2789 H   0  0  0  0  0  0  0  0  0  0  0  0
   -3.0860   -1.0779    2.0720 H   0  0  0  0  0  0  0  0  0  0  0  0
   -4.6772    1.3065   -1.9794 H   0  0  0  0  0  0  0  0  0  0  0  0
   -5.4311   -1.2929    1.3724 H   0  0  0  0  0  0  0  0  0  0  0  0
   -6.9711   -0.7099   -0.1136 H   0  0  0  0  0  0  0  0  0  0  0  0
  1 11  1  0  0  0  0
  1 12  1  0  0  0  0
  2 12  1  0  0  0  0
  2 14  1  0  0  0  0
  3  8  1  0  0  0  0
  3 28  1  0  0  0  0
  4  9  1  0  0  0  0
  4 29  1  0  0  0  0
  5 10  1  0  0  0  0
  5 30  1  0  0  0  0
  6 13  1  0  0  0  0
  6 33  1  0  0  0  0
  7 20  1  0  0  0  0
  7 38  1  0  0  0  0
  8  9  1  0  0  0  0
  8 10  1  0  0  0  0
  8 21  1  0  0  0  0
  9 11  1  0  0  0  0
  9 22  1  0  0  0  0
 10 12  1  0  0  0  0
 10 23  1  0  0  0  0
 11 13  1  0  0  0  0
 11 24  1  0  0  0  0
 12 25  1  0  0  0  0
 13 26  1  0  0  0  0
 13 27  1  0  0  0  0
 14 15  1  0  0  0  0
 14 31  1  0  0  0  0
 14 32  1  0  0  0  0
 15 16  2  0  0  0  0
 15 17  1  0  0  0  0
 16 18  1  0  0  0  0
 16 34  1  0  0  0  0
 17 19  2  0  0  0  0
 17 35  1  0  0  0  0
 18 20  2  0  0  0  0
 18 36  1  0  0  0  0
 19 20  1  0  0  0  0
 19 37  1  0  0  0  0
M  END
> <PUBCHEM_COMPOUND_CID>
49871127

> <PUBCHEM_CONFORMER_RMSD>
0.8

> <PUBCHEM_CONFORMER_DIVERSEORDER>
1
14
13
12
4
7
3
10
9
8
2
5
11
6
15

> <PUBCHEM_MMFF94_PARTIAL_CHARGES>
29
1 -0.56
10 0.28
11 0.28
12 0.56
13 0.28
14 0.42
15 -0.14
16 -0.15
17 -0.15
18 -0.15
19 -0.15
2 -0.56
20 0.08
28 0.4
29 0.4
3 -0.68
30 0.4
33 0.4
34 0.15
35 0.15
36 0.15
37 0.15
38 0.45
4 -0.68
5 -0.68
6 -0.68
7 -0.53
8 0.28
9 0.28

> <PUBCHEM_EFFECTIVE_ROTOR_COUNT>
5.2

> <PUBCHEM_PHARMACOPHORE_FEATURES>
13
1 1 acceptor
1 2 acceptor
1 3 acceptor
1 3 donor
1 4 acceptor
1 4 donor
1 5 acceptor
1 5 donor
1 6 acceptor
1 6 donor
1 7 donor
6 1 8 9 10 11 12 rings
6 15 16 17 18 19 20 rings

> <PUBCHEM_HEAVY_ATOM_COUNT>
20

> <PUBCHEM_ATOM_DEF_STEREO_COUNT>
5

> <PUBCHEM_ATOM_UDEF_STEREO_COUNT>
0

> <PUBCHEM_BOND_DEF_STEREO_COUNT>
0

> <PUBCHEM_BOND_UDEF_STEREO_COUNT>
0

> <PUBCHEM_ISOTOPIC_ATOM_COUNT>
0

> <PUBCHEM_COMPONENT_COUNT>
1

> <PUBCHEM_CACTVS_TAUTO_COUNT>
2

> <PUBCHEM_CONFORMER_ID>
02F8F91700000001

> <PUBCHEM_MMFF94_ENERGY>
52.9325

> <PUBCHEM_FEATURE_SELFOVERLAP>
66.036

> <PUBCHEM_SHAPE_FINGERPRINT>
10366900 7 18041287577482591443
10693767 8 18059301946766807358
11471102 20 18410576167448622114
12236239 1 17418096503030461929
12403259 415 18113905995655286577
12730499 353 18334582373064368611
13167823 11 18344143683641467743
13836976 161 18272934938149383846
13955234 65 18341612641959486682
14528608 73 18411418453490283157
14863182 85 16128378134405131838
15375358 24 18113337522685009747
15961568 22 17095809939709813764
17834072 33 18343017818078415767
17844677 252 18340773659048720005
200 152 18202281377679108283
20279233 1 18040440975405129547
20369508 70 18261669277644937530
20645477 56 17822009792577039497
20645477 70 18341049631618436735
21065201 7 16877662361908290403
221357 26 18409446951574144469
22289505 5 18335417933456613596
23402539 116 17167860894028494027
23557571 272 17385720279771537277
23559900 14 17967255303721814743
23596394 208 18260545576497489099
239999 70 18412829070805574246
2871803 45 18334859372563973755
29717793 49 17917433090614856229
3060560 45 18412547604877461366
312423 11 17988094308980282281
341906 21 16081360856685245013
3545911 37 18040716965866650653
42630746 31 18342174475453590450
474 4 18340769350974807368
495365 180 18339635745891400128
5281201 14 18409732824507559005
58051976 378 18342179963941961211
6327066 14 17975413835004922940
7471813 234 17917426489018462104
9709674 26 18260272988098381507
9999458 23 18334295396714515246

> <PUBCHEM_SHAPE_MULTIPOLES>
370.51
12.61
2.38
0.93
11.27
0.71
-0.02
0.13
2.25
-4.15
0
0.82
-0.02
1

> <PUBCHEM_SHAPE_SELFOVERLAP>
770.575

> <PUBCHEM_SHAPE_VOLUME>
208.4

> <PUBCHEM_COORDINATE_TYPE>
2
5
10

$$$$
