9982511
  -OEChem-09172004473D

 58 63  0     0  0  0  0  0  0999 V2000
   -4.3396   -1.4875   -2.1711 O   0  0  0  0  0  0  0  0  0  0  0  0
    4.3396   -1.4874    2.1712 O   0  0  0  0  0  0  0  0  0  0  0  0
    0.0823   -2.9582   -1.8236 O   0  0  0  0  0  0  0  0  0  0  0  0
   -0.0823   -2.9581    1.8237 O   0  0  0  0  0  0  0  0  0  0  0  0
   -6.8821    3.0599    1.6813 O   0  0  0  0  0  0  0  0  0  0  0  0
    6.8821    3.0598   -1.6814 O   0  0  0  0  0  0  0  0  0  0  0  0
   -0.6671   -1.2566   -0.2945 C   0  0  0  0  0  0  0  0  0  0  0  0
    0.6671   -1.2565    0.2946 C   0  0  0  0  0  0  0  0  0  0  0  0
   -1.6861   -0.4122    0.1786 C   0  0  0  0  0  0  0  0  0  0  0  0
    1.6860   -0.4122   -0.1786 C   0  0  0  0  0  0  0  0  0  0  0  0
   -2.9752   -0.4332   -0.4149 C   0  0  0  0  0  0  0  0  0  0  0  0
    2.9753   -0.4332    0.4149 C   0  0  0  0  0  0  0  0  0  0  0  0
   -3.9970    0.4447    0.0936 C   0  0  0  0  0  0  0  0  0  0  0  0
    3.9969    0.4447   -0.0936 C   0  0  0  0  0  0  0  0  0  0  0  0
   -0.8942   -2.1315   -1.3523 C   0  0  0  0  0  0  0  0  0  0  0  0
    0.8942   -2.1315    1.3524 C   0  0  0  0  0  0  0  0  0  0  0  0
   -3.1663   -1.3380   -1.4892 C   0  0  0  0  0  0  0  0  0  0  0  0
    3.1663   -1.3379    1.4893 C   0  0  0  0  0  0  0  0  0  0  0  0
   -3.6905    1.3096    1.1766 C   0  0  0  0  0  0  0  0  0  0  0  0
    3.6905    1.3096   -1.1766 C   0  0  0  0  0  0  0  0  0  0  0  0
   -1.4225    0.4535    1.2431 C   0  0  0  0  0  0  0  0  0  0  0  0
    1.4226    0.4534   -1.2431 C   0  0  0  0  0  0  0  0  0  0  0  0
   -2.1443   -2.1724   -1.9500 C   0  0  0  0  0  0  0  0  0  0  0  0
    2.1443   -2.1723    1.9500 C   0  0  0  0  0  0  0  0  0  0  0  0
   -2.4097    1.3014    1.7347 C   0  0  0  0  0  0  0  0  0  0  0  0
    2.4097    1.3013   -1.7347 C   0  0  0  0  0  0  0  0  0  0  0  0
   -5.3168    0.5103   -0.4193 C   0  0  0  0  0  0  0  0  0  0  0  0
    5.3168    0.5104    0.4193 C   0  0  0  0  0  0  0  0  0  0  0  0
   -4.6658    2.1780    1.6963 C   0  0  0  0  0  0  0  0  0  0  0  0
    4.6657    2.1779   -1.6964 C   0  0  0  0  0  0  0  0  0  0  0  0
   -6.2771    1.3788    0.1069 C   0  0  0  0  0  0  0  0  0  0  0  0
    6.2771    1.3787   -0.1069 C   0  0  0  0  0  0  0  0  0  0  0  0
   -5.9513    2.2127    1.1653 C   0  0  0  0  0  0  0  0  0  0  0  0
    5.9513    2.2127   -1.1653 C   0  0  0  0  0  0  0  0  0  0  0  0
   -4.5312   -0.6594   -3.3148 C   0  0  0  0  0  0  0  0  0  0  0  0
    4.5312   -0.6593    3.3148 C   0  0  0  0  0  0  0  0  0  0  0  0
   -0.4532    0.5084    1.7319 H   0  0  0  0  0  0  0  0  0  0  0  0
    0.4533    0.5083   -1.7320 H   0  0  0  0  0  0  0  0  0  0  0  0
   -2.3258   -2.8568   -2.7758 H   0  0  0  0  0  0  0  0  0  0  0  0
    2.3341   -2.8539    2.7764 H   0  0  0  0  0  0  0  0  0  0  0  0
   -2.1617    1.9597    2.5654 H   0  0  0  0  0  0  0  0  0  0  0  0
    2.1618    1.9596   -2.5654 H   0  0  0  0  0  0  0  0  0  0  0  0
   -5.7011   -0.1325   -1.1941 H   0  0  0  0  0  0  0  0  0  0  0  0
    5.7012   -0.1323    1.1941 H   0  0  0  0  0  0  0  0  0  0  0  0
   -4.4236    2.8388    2.5275 H   0  0  0  0  0  0  0  0  0  0  0  0
    4.4235    2.8387   -2.5277 H   0  0  0  0  0  0  0  0  0  0  0  0
   -7.2792    1.3808   -0.3140 H   0  0  0  0  0  0  0  0  0  0  0  0
    7.2792    1.3807    0.3139 H   0  0  0  0  0  0  0  0  0  0  0  0
    0.9197   -2.8380   -1.3506 H   0  0  0  0  0  0  0  0  0  0  0  0
    0.2714   -3.4860    2.5599 H   0  0  0  0  0  0  0  0  0  0  0  0
   -4.2241    0.3752   -3.1289 H   0  0  0  0  0  0  0  0  0  0  0  0
   -5.5920   -0.6731   -3.5806 H   0  0  0  0  0  0  0  0  0  0  0  0
   -3.9604   -1.0605   -4.1584 H   0  0  0  0  0  0  0  0  0  0  0  0
    3.9605   -1.0605    4.1583 H   0  0  0  0  0  0  0  0  0  0  0  0
    4.2241    0.3753    3.1290 H   0  0  0  0  0  0  0  0  0  0  0  0
    5.5920   -0.6729    3.5806 H   0  0  0  0  0  0  0  0  0  0  0  0
   -7.7149    2.9500    1.1911 H   0  0  0  0  0  0  0  0  0  0  0  0
    7.7149    2.9499   -1.1912 H   0  0  0  0  0  0  0  0  0  0  0  0
  1 17  1  0  0  0  0
  1 35  1  0  0  0  0
  2 18  1  0  0  0  0
  2 36  1  0  0  0  0
  3 15  1  0  0  0  0
  3 49  1  0  0  0  0
  4 16  1  0  0  0  0
  4 50  1  0  0  0  0
  5 33  1  0  0  0  0
  5 57  1  0  0  0  0
  6 34  1  0  0  0  0
  6 58  1  0  0  0  0
  7  8  1  0  0  0  0
  7  9  2  0  0  0  0
  7 15  1  0  0  0  0
  8 10  2  0  0  0  0
  8 16  1  0  0  0  0
  9 11  1  0  0  0  0
  9 21  1  0  0  0  0
 10 12  1  0  0  0  0
 10 22  1  0  0  0  0
 11 13  1  0  0  0  0
 11 17  2  0  0  0  0
 12 14  1  0  0  0  0
 12 18  2  0  0  0  0
 13 19  2  0  0  0  0
 13 27  1  0  0  0  0
 14 20  2  0  0  0  0
 14 28  1  0  0  0  0
 15 23  2  0  0  0  0
 16 24  2  0  0  0  0
 17 23  1  0  0  0  0
 18 24  1  0  0  0  0
 19 25  1  0  0  0  0
 19 29  1  0  0  0  0
 20 26  1  0  0  0  0
 20 30  1  0  0  0  0
 21 25  2  0  0  0  0
 21 37  1  0  0  0  0
 22 26  2  0  0  0  0
 22 38  1  0  0  0  0
 23 39  1  0  0  0  0
 24 40  1  0  0  0  0
 25 41  1  0  0  0  0
 26 42  1  0  0  0  0
 27 31  2  0  0  0  0
 27 43  1  0  0  0  0
 28 32  2  0  0  0  0
 28 44  1  0  0  0  0
 29 33  2  0  0  0  0
 29 45  1  0  0  0  0
 30 34  2  0  0  0  0
 30 46  1  0  0  0  0
 31 33  1  0  0  0  0
 31 47  1  0  0  0  0
 32 34  1  0  0  0  0
 32 48  1  0  0  0  0
 35 51  1  0  0  0  0
 35 52  1  0  0  0  0
 35 53  1  0  0  0  0
 36 54  1  0  0  0  0
 36 55  1  0  0  0  0
 36 56  1  0  0  0  0
M  END
> <PUBCHEM_COMPOUND_CID>
9982511

> <PUBCHEM_CONFORMER_RMSD>
0.8

> <PUBCHEM_CONFORMER_DIVERSEORDER>
2
1

> <PUBCHEM_MMFF94_PARTIAL_CHARGES>
42
1 -0.36
15 0.08
16 0.08
17 0.08
18 0.08
2 -0.36
21 -0.15
22 -0.15
23 -0.15
24 -0.15
25 -0.15
26 -0.15
27 -0.15
28 -0.15
29 -0.15
3 -0.53
30 -0.15
31 -0.15
32 -0.15
33 0.08
34 0.08
35 0.28
36 0.28
37 0.15
38 0.15
39 0.15
4 -0.53
40 0.15
41 0.15
42 0.15
43 0.15
44 0.15
45 0.15
46 0.15
47 0.15
48 0.15
49 0.45
5 -0.53
50 0.45
57 0.45
58 0.45
6 -0.53

> <PUBCHEM_EFFECTIVE_ROTOR_COUNT>
3

> <PUBCHEM_PHARMACOPHORE_FEATURES>
12
1 1 acceptor
1 2 acceptor
1 3 donor
1 4 donor
1 5 donor
1 6 donor
6 10 12 14 20 22 26 rings
6 13 19 27 29 31 33 rings
6 14 20 28 30 32 34 rings
6 7 9 11 15 17 23 rings
6 8 10 12 16 18 24 rings
6 9 11 13 19 21 25 rings

> <PUBCHEM_HEAVY_ATOM_COUNT>
36

> <PUBCHEM_ATOM_DEF_STEREO_COUNT>
0

> <PUBCHEM_ATOM_UDEF_STEREO_COUNT>
0

> <PUBCHEM_BOND_DEF_STEREO_COUNT>
0

> <PUBCHEM_BOND_UDEF_STEREO_COUNT>
0

> <PUBCHEM_ISOTOPIC_ATOM_COUNT>
0

> <PUBCHEM_COMPONENT_COUNT>
1

> <PUBCHEM_CACTVS_TAUTO_COUNT>
26

> <PUBCHEM_CONFORMER_ID>
0098522F00000002

> <PUBCHEM_MMFF94_ENERGY>
172.0823

> <PUBCHEM_FEATURE_SELFOVERLAP>
60.997

> <PUBCHEM_SHAPE_FINGERPRINT>
10974685 15 16342273960839340814
1200032 147 18129119852265281761
12128747 34 14780369156157801632
12236239 1 18410853261120970850
12342043 65 15286473220552537322
12422481 6 18044652006197708813
12633257 1 15719687557288954321
12788726 201 18123182669622383011
13383668 251 17386001793460995570
13947920 75 18131353042186302148
14294032 229 17846504734374875727
14340393 91 12535072941340811313
14840074 17 18409172095342711293
15131766 46 18261105297010485965
15297060 5 17632028489152888897
15475509 35 14707480336093994848
17913733 40 17458344165009773104
19319366 153 18335140856093663898
20505436 4 18410581681733397731
20511986 3 18410569587105635105
20775438 99 11814456340068900900
21033648 144 17676203602034337391
21033650 10 17632580491066244255
21756936 100 18264501735509146034
22122407 14 17677875860752273261
22393880 68 15913325814442494094
23559900 14 16702024196670206176
23569914 152 14186508525039984965
25223398 141 16773794856965264724
3552219 110 18045505476798711647
38570 142 18263098690100313806
397830 11 17458641003575281689
4112364 45 18116157667248031673
4516262 110 18333448763607035356
5104073 3 17531254954448764987
563151 74 17676494951082826680
56638632 10 17677902420508694092
6608658 132 18343865502773388873

> <PUBCHEM_SHAPE_MULTIPOLES>
705.65
15.63
3.14
2.77
0
0.05
0
15.21
0
0
0
0
-0.74
-6.35

> <PUBCHEM_SHAPE_SELFOVERLAP>
1625.423

> <PUBCHEM_SHAPE_VOLUME>
365

> <PUBCHEM_COORDINATE_TYPE>
2
5
10

$$$$
