3085362
  -OEChem-09172004223D

 38 39  0     0  0  0  0  0  0999 V2000
    1.4590    2.6560    0.8460 O   0  0  0  0  0  0  0  0  0  0  0  0
   -4.1470    0.8649   -0.4502 O   0  0  0  0  0  0  0  0  0  0  0  0
   -2.0060    0.8589   -2.2230 O   0  0  0  0  0  0  0  0  0  0  0  0
    4.6019    0.0334   -1.6097 O   0  0  0  0  0  0  0  0  0  0  0  0
    1.2604   -2.2169    1.1563 C   0  0  0  0  0  0  0  0  0  0  0  0
    0.1191   -2.7580    0.2726 C   0  0  0  0  0  0  0  0  0  0  0  0
    1.8871   -0.9563    0.6121 C   0  0  0  0  0  0  0  0  0  0  0  0
   -1.0065   -1.7991    0.0788 C   0  0  0  0  0  0  0  0  0  0  0  0
    1.3734    0.2749    0.9882 C   0  0  0  0  0  0  0  0  0  0  0  0
   -0.9852   -0.9054   -0.9920 C   0  0  0  0  0  0  0  0  0  0  0  0
    2.9645   -1.0525   -0.2543 C   0  0  0  0  0  0  0  0  0  0  0  0
   -2.0809   -1.7960    0.9684 C   0  0  0  0  0  0  0  0  0  0  0  0
    1.9525    1.4398    0.4851 C   0  0  0  0  0  0  0  0  0  0  0  0
   -2.0383   -0.0088   -1.1734 C   0  0  0  0  0  0  0  0  0  0  0  0
    3.5436    0.1125   -0.7574 C   0  0  0  0  0  0  0  0  0  0  0  0
   -3.1339   -0.8993    0.7872 C   0  0  0  0  0  0  0  0  0  0  0  0
   -3.1126   -0.0057   -0.2837 C   0  0  0  0  0  0  0  0  0  0  0  0
    3.0377    1.3587   -0.3875 C   0  0  0  0  0  0  0  0  0  0  0  0
    0.3486    2.6663    1.7418 C   0  0  0  0  0  0  0  0  0  0  0  0
   -4.0375    2.1325    0.1944 C   0  0  0  0  0  0  0  0  0  0  0  0
    2.0297   -2.9922    1.2641 H   0  0  0  0  0  0  0  0  0  0  0  0
    0.8883   -2.0293    2.1724 H   0  0  0  0  0  0  0  0  0  0  0  0
   -0.2610   -3.6873    0.7166 H   0  0  0  0  0  0  0  0  0  0  0  0
    0.5207   -3.0501   -0.7071 H   0  0  0  0  0  0  0  0  0  0  0  0
    0.5359    0.2806    1.6769 H   0  0  0  0  0  0  0  0  0  0  0  0
   -0.1562   -0.9057   -1.6957 H   0  0  0  0  0  0  0  0  0  0  0  0
    3.3596   -2.0218   -0.5464 H   0  0  0  0  0  0  0  0  0  0  0  0
   -2.1081   -2.4855    1.8079 H   0  0  0  0  0  0  0  0  0  0  0  0
   -3.9675   -0.9023    1.4842 H   0  0  0  0  0  0  0  0  0  0  0  0
    3.4840    2.2708   -0.7759 H   0  0  0  0  0  0  0  0  0  0  0  0
   -2.8284    1.3784   -2.2201 H   0  0  0  0  0  0  0  0  0  0  0  0
    4.8747    0.9334   -1.8579 H   0  0  0  0  0  0  0  0  0  0  0  0
    0.6113    2.2353    2.7139 H   0  0  0  0  0  0  0  0  0  0  0  0
   -0.5310    2.1868    1.2985 H   0  0  0  0  0  0  0  0  0  0  0  0
    0.0854    3.7144    1.9179 H   0  0  0  0  0  0  0  0  0  0  0  0
   -3.1425    2.6648   -0.1434 H   0  0  0  0  0  0  0  0  0  0  0  0
   -4.0099    2.0061    1.2814 H   0  0  0  0  0  0  0  0  0  0  0  0
   -4.9173    2.7268   -0.0665 H   0  0  0  0  0  0  0  0  0  0  0  0
  1 13  1  0  0  0  0
  1 19  1  0  0  0  0
  2 17  1  0  0  0  0
  2 20  1  0  0  0  0
  3 14  1  0  0  0  0
  3 31  1  0  0  0  0
  4 15  1  0  0  0  0
  4 32  1  0  0  0  0
  5  6  1  0  0  0  0
  5  7  1  0  0  0  0
  5 21  1  0  0  0  0
  5 22  1  0  0  0  0
  6  8  1  0  0  0  0
  6 23  1  0  0  0  0
  6 24  1  0  0  0  0
  7  9  1  0  0  0  0
  7 11  2  0  0  0  0
  8 10  2  0  0  0  0
  8 12  1  0  0  0  0
  9 13  2  0  0  0  0
  9 25  1  0  0  0  0
 10 14  1  0  0  0  0
 10 26  1  0  0  0  0
 11 15  1  0  0  0  0
 11 27  1  0  0  0  0
 12 16  2  0  0  0  0
 12 28  1  0  0  0  0
 13 18  1  0  0  0  0
 14 17  2  0  0  0  0
 15 18  2  0  0  0  0
 16 17  1  0  0  0  0
 16 29  1  0  0  0  0
 18 30  1  0  0  0  0
 19 33  1  0  0  0  0
 19 34  1  0  0  0  0
 19 35  1  0  0  0  0
 20 36  1  0  0  0  0
 20 37  1  0  0  0  0
 20 38  1  0  0  0  0
M  END
> <PUBCHEM_COMPOUND_CID>
3085362

> <PUBCHEM_CONFORMER_RMSD>
0.8

> <PUBCHEM_CONFORMER_DIVERSEORDER>
1
6
39
16
21
35
20
43
30
2
44
13
26
17
11
41
46
4
32
14
12
25
19
34
31
45
10
18
7
50
9
22
28
15
40
5
8
49
23
3
27
42
33
38
48
51
36
52
47
37
24
29

> <PUBCHEM_MMFF94_PARTIAL_CHARGES>
28
1 -0.36
10 -0.15
11 -0.15
12 -0.15
13 0.08
14 0.08
15 0.08
16 -0.15
17 0.08
18 -0.15
19 0.28
2 -0.36
20 0.28
25 0.15
26 0.15
27 0.15
28 0.15
29 0.15
3 -0.53
30 0.15
31 0.45
32 0.45
4 -0.53
5 0.14
6 0.14
7 -0.14
8 -0.14
9 -0.15

> <PUBCHEM_EFFECTIVE_ROTOR_COUNT>
5

> <PUBCHEM_PHARMACOPHORE_FEATURES>
6
1 1 acceptor
1 2 acceptor
1 3 donor
1 4 donor
6 7 9 11 13 15 18 rings
6 8 10 12 14 16 17 rings

> <PUBCHEM_HEAVY_ATOM_COUNT>
20

> <PUBCHEM_ATOM_DEF_STEREO_COUNT>
0

> <PUBCHEM_ATOM_UDEF_STEREO_COUNT>
0

> <PUBCHEM_BOND_DEF_STEREO_COUNT>
0

> <PUBCHEM_BOND_UDEF_STEREO_COUNT>
0

> <PUBCHEM_ISOTOPIC_ATOM_COUNT>
0

> <PUBCHEM_COMPONENT_COUNT>
1

> <PUBCHEM_CACTVS_TAUTO_COUNT>
80

> <PUBCHEM_CONFORMER_ID>
002F143200000001

> <PUBCHEM_MMFF94_ENERGY>
70.3103

> <PUBCHEM_FEATURE_SELFOVERLAP>
30.446

> <PUBCHEM_SHAPE_FINGERPRINT>
10165383 225 18114188522751084039
10366900 7 18187650270885352651
104564 63 17914620449365637592
10498660 4 17677039256725524015
12035759 4 18120947113980893242
12623949 98 17265009502094959022
12633257 1 17896591791860151787
12788726 201 17986118409418468264
128993 33 18262230148390737859
14341114 328 14996291339614403012
14386348 128 18188202203740750372
14957384 54 15576093396185695679
15238133 3 18265889159895173640
17834072 14 10807941439876270638
18186145 218 18201444721902106058
18219364 16 18335975467255431203
18981168 100 18125986398481341603
19784866 9 18041272176268295866
20233049 118 18409729565022688714
21041028 32 17691395318056610491
21069387 34 14189577433543139326
21524375 3 18188195576701918355
221357 26 18342745156105590403
23419403 2 14638571935924818932
238 59 18121746587318945823
25 1 18408603647683172042
2637199 183 18410579456982114263
3524813 1 18262520406575601263
392239 28 13479433706780649964
5283173 99 18265061400388118596
549884 4 18271515498491699170
6287921 2 17612322152617846124
6438718 38 17416417462796660520
6442390 28 18041006192795828547
7226269 152 18411130373392110592
74978 22 18059286690177236095
76465 3 10807640165347998519
81228 2 17395287379205233730

> <PUBCHEM_SHAPE_MULTIPOLES>
388.11
6.94
2.95
1.49
0.71
0.5
0.31
2.36
2.22
0.19
-1.36
-0.07
0.39
0.4

> <PUBCHEM_SHAPE_SELFOVERLAP>
825.069

> <PUBCHEM_SHAPE_VOLUME>
217

> <PUBCHEM_COORDINATE_TYPE>
2
5
10

$$$$
