134715148
  -OEChem-09172006252D

123127  0     1  0  0  0  0  0999 V2000
    5.4641   -2.5385    0.0000 O   0  0  0  0  0  0  0  0  0  0  0  0
    7.1962   -2.5385    0.0000 O   0  0  0  0  0  0  0  0  0  0  0  0
    7.1962   -4.5385    0.0000 O   0  0  0  0  0  0  0  0  0  0  0  0
    5.4641   -5.5385    0.0000 O   0  0  0  0  0  0  0  0  0  0  0  0
    3.7320   -4.5385    0.0000 O   0  0  0  0  0  0  0  0  0  0  0  0
   12.3923    4.4615    0.0000 O   0  0  0  0  0  0  0  0  0  0  0  0
   15.6962   -4.1365    0.0000 O   0  0  0  0  0  0  0  0  0  0  0  0
    3.7320   -1.5385    0.0000 O   0  0  0  0  0  0  0  0  0  0  0  0
    8.0622   -0.0385    0.0000 O   0  0  0  0  0  0  0  0  0  0  0  0
   11.5263    2.9615    0.0000 O   0  0  0  0  0  0  0  0  0  0  0  0
    9.7942    5.9615    0.0000 O   0  0  0  0  0  0  0  0  0  0  0  0
   11.5263    6.9615    0.0000 O   0  0  0  0  0  0  0  0  0  0  0  0
   14.1962   -3.2705    0.0000 O   0  0  0  0  0  0  0  0  0  0  0  0
    6.8541    0.4012    0.0000 O   0  0  0  0  0  0  0  0  0  0  0  0
   16.1962   -6.7346    0.0000 O   0  0  0  0  0  0  0  0  0  0  0  0
   14.1962   -6.7346    0.0000 O   0  0  0  0  0  0  0  0  0  0  0  0
    9.7942    3.9615    0.0000 O   0  0  0  0  0  0  0  0  0  0  0  0
    9.6962   -2.4045    0.0000 O   0  0  0  0  0  0  0  0  0  0  0  0
   13.1962   -5.0026    0.0000 O   0  0  0  0  0  0  0  0  0  0  0  0
    8.1962   -3.2705    0.0000 O   0  0  0  0  0  0  0  0  0  0  0  0
   14.1244    5.4615    0.0000 O   0  0  0  0  0  0  0  0  0  0  0  0
   17.6962   -4.1365    0.0000 O   0  0  0  0  0  0  0  0  0  0  0  0
    2.0000   -1.5385    0.0000 O   0  0  0  0  0  0  0  0  0  0  0  0
    6.3301   -4.0385    0.0000 C   0  0  1  0  0  0  0  0  0  0  0  0
    6.3301   -3.0385    0.0000 C   0  0  1  0  0  0  0  0  0  0  0  0
    5.4641   -4.5385    0.0000 C   0  0  2  0  0  0  0  0  0  0  0  0
    4.5981   -4.0385    0.0000 C   0  0  1  0  0  0  0  0  0  0  0  0
    4.5981   -3.0385    0.0000 C   0  0  1  0  0  0  0  0  0  0  0  0
    7.1962   -1.5385    0.0000 C   0  0  3  0  0  0  0  0  0  0  0  0
    6.1962   -1.5385    0.0000 C   0  0  0  0  0  0  0  0  0  0  0  0
    5.6962   -0.6724    0.0000 C   0  0  0  0  0  0  0  0  0  0  0  0
    8.1962   -1.5385    0.0000 C   0  0  0  0  0  0  0  0  0  0  0  0
    3.7320   -2.5385    0.0000 C   0  0  0  0  0  0  0  0  0  0  0  0
    7.1962   -0.5385    0.0000 C   0  0  0  0  0  0  0  0  0  0  0  0
   10.6603    5.4615    0.0000 C   0  0  1  0  0  0  0  0  0  0  0  0
   11.5263    5.9615    0.0000 C   0  0  1  0  0  0  0  0  0  0  0  0
   15.6962   -5.8686    0.0000 C   0  0  1  0  0  0  0  0  0  0  0  0
   14.6962   -5.8686    0.0000 C   0  0  1  0  0  0  0  0  0  0  0  0
   10.6603    4.4615    0.0000 C   0  0  2  0  0  0  0  0  0  0  0  0
   12.3923    5.4615    0.0000 C   0  0  1  0  0  0  0  0  0  0  0  0
   16.1962   -5.0026    0.0000 C   0  0  1  0  0  0  0  0  0  0  0  0
   14.1962   -5.0026    0.0000 C   0  0  2  0  0  0  0  0  0  0  0  0
    4.6962   -0.6724    0.0000 C   0  0  0  0  0  0  0  0  0  0  0  0
    5.5225    0.3124    0.0000 C   0  0  0  0  0  0  0  0  0  0  0  0
   11.5263    3.9615    0.0000 C   0  0  1  0  0  0  0  0  0  0  0  0
   14.6962   -4.1365    0.0000 C   0  0  1  0  0  0  0  0  0  0  0  0
    8.6962   -2.4045    0.0000 C   0  0  0  0  0  0  0  0  0  0  0  0
   13.2583    5.9615    0.0000 C   0  0  0  0  0  0  0  0  0  0  0  0
   17.1962   -5.0026    0.0000 C   0  0  0  0  0  0  0  0  0  0  0  0
    8.0622    0.9615    0.0000 C   0  0  0  0  0  0  0  0  0  0  0  0
    2.8660   -1.0385    0.0000 C   0  0  0  0  0  0  0  0  0  0  0  0
    8.9282    1.4615    0.0000 C   0  0  0  0  0  0  0  0  0  0  0  0
   10.6603    2.4615    0.0000 C   0  0  0  0  0  0  0  0  0  0  0  0
   10.1962   -3.2705    0.0000 C   0  0  0  0  0  0  0  0  0  0  0  0
   13.1962   -3.2705    0.0000 C   0  0  0  0  0  0  0  0  0  0  0  0
   11.1962   -3.2705    0.0000 C   0  0  0  0  0  0  0  0  0  0  0  0
    8.9282    2.4615    0.0000 C   0  0  0  0  0  0  0  0  0  0  0  0
    9.7942    0.9615    0.0000 C   0  0  0  0  0  0  0  0  0  0  0  0
    9.7942    2.9615    0.0000 C   0  0  0  0  0  0  0  0  0  0  0  0
   10.6603    1.4615    0.0000 C   0  0  0  0  0  0  0  0  0  0  0  0
   12.6962   -2.4045    0.0000 C   0  0  0  0  0  0  0  0  0  0  0  0
   12.6962   -4.1365    0.0000 C   0  0  0  0  0  0  0  0  0  0  0  0
    2.8660   -0.0385    0.0000 C   0  0  0  0  0  0  0  0  0  0  0  0
   11.6962   -2.4045    0.0000 C   0  0  0  0  0  0  0  0  0  0  0  0
   11.6962   -4.1365    0.0000 C   0  0  0  0  0  0  0  0  0  0  0  0
    6.3301   -4.6585    0.0000 H   0  0  0  0  0  0  0  0  0  0  0  0
    6.3301   -2.4185    0.0000 H   0  0  0  0  0  0  0  0  0  0  0  0
    4.9272   -4.8485    0.0000 H   0  0  0  0  0  0  0  0  0  0  0  0
    4.5981   -4.6585    0.0000 H   0  0  0  0  0  0  0  0  0  0  0  0
    4.5981   -2.4185    0.0000 H   0  0  0  0  0  0  0  0  0  0  0  0
    5.6135   -1.7505    0.0000 H   0  0  0  0  0  0  0  0  0  0  0  0
    6.3038   -2.1490    0.0000 H   0  0  0  0  0  0  0  0  0  0  0  0
    6.2788   -0.4604    0.0000 H   0  0  0  0  0  0  0  0  0  0  0  0
    8.7788   -1.3264    0.0000 H   0  0  0  0  0  0  0  0  0  0  0  0
    8.0885   -0.9279    0.0000 H   0  0  0  0  0  0  0  0  0  0  0  0
    3.1215   -2.4308    0.0000 H   0  0  0  0  0  0  0  0  0  0  0  0
    3.5200   -3.1211    0.0000 H   0  0  0  0  0  0  0  0  0  0  0  0
   10.6603    6.0815    0.0000 H   0  0  0  0  0  0  0  0  0  0  0  0
   12.0632    6.2715    0.0000 H   0  0  0  0  0  0  0  0  0  0  0  0
   16.3162   -5.8686    0.0000 H   0  0  0  0  0  0  0  0  0  0  0  0
   15.0062   -6.4055    0.0000 H   0  0  0  0  0  0  0  0  0  0  0  0
    7.1962   -5.1585    0.0000 H   0  0  0  0  0  0  0  0  0  0  0  0
    4.9272   -5.8485    0.0000 H   0  0  0  0  0  0  0  0  0  0  0  0
   10.1233    4.7715    0.0000 H   0  0  0  0  0  0  0  0  0  0  0  0
   12.9292    5.1515    0.0000 H   0  0  0  0  0  0  0  0  0  0  0  0
    3.1951   -4.2285    0.0000 H   0  0  0  0  0  0  0  0  0  0  0  0
   16.5062   -4.4656    0.0000 H   0  0  0  0  0  0  0  0  0  0  0  0
   13.8862   -5.5395    0.0000 H   0  0  0  0  0  0  0  0  0  0  0  0
    4.6962   -0.0524    0.0000 H   0  0  0  0  0  0  0  0  0  0  0  0
    4.0762   -0.6724    0.0000 H   0  0  0  0  0  0  0  0  0  0  0  0
    4.6962   -1.2924    0.0000 H   0  0  0  0  0  0  0  0  0  0  0  0
    6.1331    0.4200    0.0000 H   0  0  0  0  0  0  0  0  0  0  0  0
    5.4148    0.9230    0.0000 H   0  0  0  0  0  0  0  0  0  0  0  0
    4.9119    0.2047    0.0000 H   0  0  0  0  0  0  0  0  0  0  0  0
   10.9893    3.6515    0.0000 H   0  0  0  0  0  0  0  0  0  0  0  0
   14.0762   -4.1365    0.0000 H   0  0  0  0  0  0  0  0  0  0  0  0
   13.6569    6.4365    0.0000 H   0  0  0  0  0  0  0  0  0  0  0  0
   12.8598    6.4365    0.0000 H   0  0  0  0  0  0  0  0  0  0  0  0
   17.0885   -5.6131    0.0000 H   0  0  0  0  0  0  0  0  0  0  0  0
   17.7788   -5.2146    0.0000 H   0  0  0  0  0  0  0  0  0  0  0  0
    7.8501    1.5442    0.0000 H   0  0  0  0  0  0  0  0  0  0  0  0
    7.4516    0.8539    0.0000 H   0  0  0  0  0  0  0  0  0  0  0  0
    9.7942    6.5815    0.0000 H   0  0  0  0  0  0  0  0  0  0  0  0
   12.0632    7.2715    0.0000 H   0  0  0  0  0  0  0  0  0  0  0  0
   16.8162   -6.7346    0.0000 H   0  0  0  0  0  0  0  0  0  0  0  0
   14.5062   -7.2715    0.0000 H   0  0  0  0  0  0  0  0  0  0  0  0
    9.2573    4.2715    0.0000 H   0  0  0  0  0  0  0  0  0  0  0  0
   12.8862   -5.5395    0.0000 H   0  0  0  0  0  0  0  0  0  0  0  0
    9.6135   -3.4826    0.0000 H   0  0  0  0  0  0  0  0  0  0  0  0
   10.3038   -3.8811    0.0000 H   0  0  0  0  0  0  0  0  0  0  0  0
   14.6613    5.7715    0.0000 H   0  0  0  0  0  0  0  0  0  0  0  0
   18.3162   -4.1365    0.0000 H   0  0  0  0  0  0  0  0  0  0  0  0
    8.3913    2.7715    0.0000 H   0  0  0  0  0  0  0  0  0  0  0  0
    9.7942    0.3415    0.0000 H   0  0  0  0  0  0  0  0  0  0  0  0
    9.7942    3.5815    0.0000 H   0  0  0  0  0  0  0  0  0  0  0  0
   11.1972    1.1515    0.0000 H   0  0  0  0  0  0  0  0  0  0  0  0
   13.0062   -1.8676    0.0000 H   0  0  0  0  0  0  0  0  0  0  0  0
   13.0062   -4.6735    0.0000 H   0  0  0  0  0  0  0  0  0  0  0  0
    3.4860   -0.0385    0.0000 H   0  0  0  0  0  0  0  0  0  0  0  0
    2.8660    0.5815    0.0000 H   0  0  0  0  0  0  0  0  0  0  0  0
    2.2460   -0.0385    0.0000 H   0  0  0  0  0  0  0  0  0  0  0  0
   11.3862   -1.8676    0.0000 H   0  0  0  0  0  0  0  0  0  0  0  0
   11.3862   -4.6735    0.0000 H   0  0  0  0  0  0  0  0  0  0  0  0
  1 25  1  0  0  0  0
  1 28  1  0  0  0  0
 25  2  1  1  0  0  0
  2 29  1  0  0  0  0
 24  3  1  6  0  0  0
  3 82  1  0  0  0  0
 26  4  1  1  0  0  0
  4 83  1  0  0  0  0
 27  5  1  6  0  0  0
  5 86  1  0  0  0  0
  6 40  1  0  0  0  0
  6 45  1  0  0  0  0
  7 41  1  0  0  0  0
  7 46  1  0  0  0  0
  8 33  1  0  0  0  0
  8 51  1  0  0  0  0
  9 34  1  0  0  0  0
  9 50  1  0  0  0  0
 45 10  1  1  0  0  0
 10 53  1  0  0  0  0
 35 11  1  1  0  0  0
 11103  1  0  0  0  0
 36 12  1  6  0  0  0
 12104  1  0  0  0  0
 46 13  1  6  0  0  0
 13 55  1  0  0  0  0
 14 34  2  0  0  0  0
 37 15  1  1  0  0  0
 15105  1  0  0  0  0
 38 16  1  6  0  0  0
 16106  1  0  0  0  0
 39 17  1  6  0  0  0
 17107  1  0  0  0  0
 18 47  1  0  0  0  0
 18 54  1  0  0  0  0
 42 19  1  1  0  0  0
 19108  1  0  0  0  0
 20 47  2  0  0  0  0
 21 48  1  0  0  0  0
 21111  1  0  0  0  0
 22 49  1  0  0  0  0
 22112  1  0  0  0  0
 23 51  2  0  0  0  0
 24 25  1  0  0  0  0
 24 26  1  0  0  0  0
 24 66  1  0  0  0  0
 25 67  1  0  0  0  0
 26 27  1  0  0  0  0
 26 68  1  0  0  0  0
 27 28  1  0  0  0  0
 27 69  1  0  0  0  0
 28 33  1  1  0  0  0
 28 70  1  0  0  0  0
 29 30  1  0  0  0  0
 29 32  1  0  0  0  0
 29 34  1  0  0  0  0
 30 31  1  0  0  0  0
 30 71  1  0  0  0  0
 30 72  1  0  0  0  0
 31 43  1  0  0  0  0
 31 44  1  0  0  0  0
 31 73  1  0  0  0  0
 32 47  1  0  0  0  0
 32 74  1  0  0  0  0
 32 75  1  0  0  0  0
 33 76  1  0  0  0  0
 33 77  1  0  0  0  0
 35 36  1  0  0  0  0
 35 39  1  0  0  0  0
 35 78  1  0  0  0  0
 36 40  1  0  0  0  0
 36 79  1  0  0  0  0
 37 38  1  0  0  0  0
 37 41  1  0  0  0  0
 37 80  1  0  0  0  0
 38 42  1  0  0  0  0
 38 81  1  0  0  0  0
 39 45  1  0  0  0  0
 39 84  1  0  0  0  0
 40 48  1  1  0  0  0
 40 85  1  0  0  0  0
 41 49  1  6  0  0  0
 41 87  1  0  0  0  0
 42 46  1  0  0  0  0
 42 88  1  0  0  0  0
 43 89  1  0  0  0  0
 43 90  1  0  0  0  0
 43 91  1  0  0  0  0
 44 92  1  0  0  0  0
 44 93  1  0  0  0  0
 44 94  1  0  0  0  0
 45 95  1  0  0  0  0
 46 96  1  0  0  0  0
 48 97  1  0  0  0  0
 48 98  1  0  0  0  0
 49 99  1  0  0  0  0
 49100  1  0  0  0  0
 50 52  1  0  0  0  0
 50101  1  0  0  0  0
 50102  1  0  0  0  0
 51 63  1  0  0  0  0
 52 57  2  0  0  0  0
 52 58  1  0  0  0  0
 53 59  2  0  0  0  0
 53 60  1  0  0  0  0
 54 56  1  0  0  0  0
 54109  1  0  0  0  0
 54110  1  0  0  0  0
 55 61  2  0  0  0  0
 55 62  1  0  0  0  0
 56 64  2  0  0  0  0
 56 65  1  0  0  0  0
 57 59  1  0  0  0  0
 57113  1  0  0  0  0
 58 60  2  0  0  0  0
 58114  1  0  0  0  0
 59115  1  0  0  0  0
 60116  1  0  0  0  0
 61 64  1  0  0  0  0
 61117  1  0  0  0  0
 62 65  2  0  0  0  0
 62118  1  0  0  0  0
 63119  1  0  0  0  0
 63120  1  0  0  0  0
 63121  1  0  0  0  0
 64122  1  0  0  0  0
 65123  1  0  0  0  0
M  END
> <PUBCHEM_COMPOUND_CID>
134715148

> <PUBCHEM_COMPOUND_CANONICALIZED>
1

> <PUBCHEM_CACTVS_COMPLEXITY>
1490

> <PUBCHEM_CACTVS_HBOND_ACCEPTOR>
23

> <PUBCHEM_CACTVS_HBOND_DONOR>
11

> <PUBCHEM_CACTVS_ROTATABLE_BOND>
22

> <PUBCHEM_CACTVS_SUBSKEYS>
AAADcfB8PgAAAAAAAAAAAAAAAAAAAAAAAAA0aJECAAAAAAABQAAAGgAACAAADVSwmAMyDoAABgCIAiDSCAICCAAgIAAIiAFGCIgdNjaEMR6ieCCl4BEPqAfL6DwOIAAAAAAAAABAAAAAAAAAAAAAAAAAAA==

> <PUBCHEM_IUPAC_OPENEYE_NAME>
bis[[4-[(2S,3R,4S,5S,6R)-3,4,5-trihydroxy-6-(hydroxymethyl)tetrahydropyran-2-yl]oxyphenyl]methyl] 2-[(2S,3R,4S,5S,6R)-6-(acetoxymethyl)-3,4,5-trihydroxy-tetrahydropyran-2-yl]oxy-2-isobutyl-butanedioate

> <PUBCHEM_IUPAC_CAS_NAME>
2-[[(2S,3R,4S,5S,6R)-6-(acetyloxymethyl)-3,4,5-trihydroxy-2-oxanyl]oxy]-2-(2-methylpropyl)butanedioic acid bis[[4-[[(2S,3R,4S,5S,6R)-3,4,5-trihydroxy-6-(hydroxymethyl)-2-oxanyl]oxy]phenyl]methyl] ester

> <PUBCHEM_IUPAC_NAME_MARKUP>
bis[[4-[(2<I>S</I>,3<I>R</I>,4<I>S</I>,5<I>S</I>,6<I>R</I>)-3,4,5-trihydroxy-6-(hydroxymethyl)oxan-2-yl]oxyphenyl]methyl] 2-[(2<I>S</I>,3<I>R</I>,4<I>S</I>,5<I>S</I>,6<I>R</I>)-6-(acetyloxymethyl)-3,4,5-trihydroxyoxan-2-yl]oxy-2-(2-methylpropyl)butanedioate

> <PUBCHEM_IUPAC_NAME>
bis[[4-[(2S,3R,4S,5S,6R)-3,4,5-trihydroxy-6-(hydroxymethyl)oxan-2-yl]oxyphenyl]methyl] 2-[(2S,3R,4S,5S,6R)-6-(acetyloxymethyl)-3,4,5-trihydroxyoxan-2-yl]oxy-2-(2-methylpropyl)butanedioate

> <PUBCHEM_IUPAC_SYSTEMATIC_NAME>
bis[[4-[(2S,3R,4S,5S,6R)-6-(hydroxymethyl)-3,4,5-tris(oxidanyl)oxan-2-yl]oxyphenyl]methyl] 2-[(2S,3R,4S,5S,6R)-6-(acetyloxymethyl)-3,4,5-tris(oxidanyl)oxan-2-yl]oxy-2-(2-methylpropyl)butanedioate

> <PUBCHEM_IUPAC_TRADITIONAL_NAME>
2-[(2S,3R,4S,5S,6R)-6-(acetoxymethyl)-3,4,5-trihydroxy-tetrahydropyran-2-yl]oxy-2-isobutyl-succinic acid bis[4-[(2S,3R,4S,5S,6R)-3,4,5-trihydroxy-6-methylol-tetrahydropyran-2-yl]oxybenzyl] ester

> <PUBCHEM_IUPAC_INCHI>
InChI=1S/C42H58O23/c1-19(2)12-42(65-40-37(55)34(52)31(49)27(64-40)18-57-20(3)45,41(56)59-17-22-6-10-24(11-7-22)61-39-36(54)33(51)30(48)26(15-44)63-39)13-28(46)58-16-21-4-8-23(9-5-21)60-38-35(53)32(50)29(47)25(14-43)62-38/h4-11,19,25-27,29-40,43-44,47-55H,12-18H2,1-3H3/t25-,26-,27-,29-,30-,31-,32+,33+,34+,35-,36-,37-,38-,39-,40+,42?/m1/s1

> <PUBCHEM_IUPAC_INCHIKEY>
MHVQDAOKYCPBQU-KAWDGCRNSA-N

> <PUBCHEM_XLOGP3_AA>
-2.1

> <PUBCHEM_EXACT_MASS>
930.336888

> <PUBCHEM_MOLECULAR_FORMULA>
C42H58O23

> <PUBCHEM_MOLECULAR_WEIGHT>
930.9

> <PUBCHEM_OPENEYE_CAN_SMILES>
CC(C)CC(CC(=O)OCC1=CC=C(C=C1)OC2C(C(C(C(O2)CO)O)O)O)(C(=O)OCC3=CC=C(C=C3)OC4C(C(C(C(O4)CO)O)O)O)OC5C(C(C(C(O5)COC(=O)C)O)O)O

> <PUBCHEM_OPENEYE_ISO_SMILES>
CC(C)CC(CC(=O)OCC1=CC=C(C=C1)O[C@H]2[C@@H]([C@H]([C@@H]([C@H](O2)CO)O)O)O)(C(=O)OCC3=CC=C(C=C3)O[C@H]4[C@@H]([C@H]([C@@H]([C@H](O4)CO)O)O)O)O[C@H]5[C@@H]([C@H]([C@@H]([C@H](O5)COC(=O)C)O)O)O

> <PUBCHEM_CACTVS_TPSA>
357

> <PUBCHEM_MONOISOTOPIC_WEIGHT>
930.336888

> <PUBCHEM_TOTAL_CHARGE>
0

> <PUBCHEM_HEAVY_ATOM_COUNT>
65

> <PUBCHEM_ATOM_DEF_STEREO_COUNT>
15

> <PUBCHEM_ATOM_UDEF_STEREO_COUNT>
1

> <PUBCHEM_BOND_DEF_STEREO_COUNT>
0

> <PUBCHEM_BOND_UDEF_STEREO_COUNT>
0

> <PUBCHEM_ISOTOPIC_ATOM_COUNT>
0

> <PUBCHEM_COMPONENT_COUNT>
1

> <PUBCHEM_CACTVS_TAUTO_COUNT>
-1

> <PUBCHEM_COORDINATE_TYPE>
1
5
255

> <PUBCHEM_BONDANNOTATIONS>
45  10  5
35  11  5
36  12  6
46  13  6
37  15  5
38  16  6
39  17  6
42  19  5
25  2  5
28  33  5
29  30  3
24  3  6
26  4  5
40  48  5
41  49  6
27  5  6
52  57  8
52  58  8
53  59  8
53  60  8
55  61  8
55  62  8
56  64  8
56  65  8
57  59  8
58  60  8
61  64  8
62  65  8

$$$$
