171638
  -OEChem-09172004072D

 97100  0     1  0  0  0  0  0999 V2000
    5.1350   -5.2500    0.0000 O   0  0  0  0  0  0  0  0  0  0  0  0
   13.7953    5.7500    0.0000 O   0  0  0  0  0  0  0  0  0  0  0  0
    3.4030   -7.2500    0.0000 O   0  0  0  0  0  0  0  0  0  0  0  0
    5.1350   -8.2500    0.0000 O   0  0  0  0  0  0  0  0  0  0  0  0
   14.6613    8.2500    0.0000 O   0  0  0  0  0  0  0  0  0  0  0  0
   16.3933    7.2500    0.0000 O   0  0  0  0  0  0  0  0  0  0  0  0
    6.8671   -5.2500    0.0000 O   0  0  0  0  0  0  0  0  0  0  0  0
   14.6613    4.2500    0.0000 O   0  0  0  0  0  0  0  0  0  0  0  0
    6.8671   -7.2500    0.0000 O   0  0  0  0  0  0  0  0  0  0  0  0
   16.3933    5.2500    0.0000 O   0  0  0  0  0  0  0  0  0  0  0  0
    2.5369   -5.7500    0.0000 O   0  0  0  0  0  0  0  0  0  0  0  0
   12.9292    8.2500    0.0000 O   0  0  0  0  0  0  0  0  0  0  0  0
    9.0991   -0.1160    0.0000 O   0  0  0  0  0  0  0  0  0  0  0  0
    7.7331   -0.7500    0.0000 O   0  0  0  0  0  0  0  0  0  0  0  0
   11.1972    1.2500    0.0000 O   0  0  0  0  0  0  0  0  0  0  0  0
    6.8671    0.7500    0.0000 O   0  0  0  0  0  0  0  0  0  0  0  0
   10.3312   -0.2500    0.0000 O   0  0  0  0  0  0  0  0  0  0  0  0
    4.2690   -6.7500    0.0000 C   0  0  1  0  0  0  0  0  0  0  0  0
    5.1350   -7.2500    0.0000 C   0  0  1  0  0  0  0  0  0  0  0  0
   14.6613    7.2500    0.0000 C   0  0  1  0  0  0  0  0  0  0  0  0
   15.5273    6.7500    0.0000 C   0  0  1  0  0  0  0  0  0  0  0  0
    4.2690   -5.7500    0.0000 C   0  0  1  0  0  0  0  0  0  0  0  0
    6.0010   -6.7500    0.0000 C   0  0  2  0  0  0  0  0  0  0  0  0
   13.7953    6.7500    0.0000 C   0  0  1  0  0  0  0  0  0  0  0  0
   15.5273    5.7500    0.0000 C   0  0  2  0  0  0  0  0  0  0  0  0
    6.0010   -5.7500    0.0000 C   0  0  1  0  0  0  0  0  0  0  0  0
   14.6613    5.2500    0.0000 C   0  0  1  0  0  0  0  0  0  0  0  0
    3.4030   -5.2500    0.0000 C   0  0  0  0  0  0  0  0  0  0  0  0
   12.9292    7.2500    0.0000 C   0  0  0  0  0  0  0  0  0  0  0  0
    8.5991    0.7500    0.0000 C   0  0  2  0  0  0  0  0  0  0  0  0
    8.0991    1.6160    0.0000 C   0  0  0  0  0  0  0  0  0  0  0  0
    8.5991    2.4820    0.0000 C   0  0  0  0  0  0  0  0  0  0  0  0
    6.8671   -4.2500    0.0000 C   0  0  0  0  0  0  0  0  0  0  0  0
   13.7953    3.7500    0.0000 C   0  0  0  0  0  0  0  0  0  0  0  0
    9.4651    1.2500    0.0000 C   0  0  0  0  0  0  0  0  0  0  0  0
    7.7331    0.2500    0.0000 C   0  0  0  0  0  0  0  0  0  0  0  0
    8.0991    3.3481    0.0000 C   0  0  0  0  0  0  0  0  0  0  0  0
    9.5991    2.4820    0.0000 C   0  0  0  0  0  0  0  0  0  0  0  0
    7.7331   -3.7500    0.0000 C   0  0  0  0  0  0  0  0  0  0  0  0
    6.0010   -3.7500    0.0000 C   0  0  0  0  0  0  0  0  0  0  0  0
   13.7953    2.7500    0.0000 C   0  0  0  0  0  0  0  0  0  0  0  0
   12.9292    4.2500    0.0000 C   0  0  0  0  0  0  0  0  0  0  0  0
    6.8671   -2.2500    0.0000 C   0  0  0  0  0  0  0  0  0  0  0  0
   10.3312    0.7500    0.0000 C   0  0  0  0  0  0  0  0  0  0  0  0
    6.8671   -1.2500    0.0000 C   0  0  0  0  0  0  0  0  0  0  0  0
   12.0632    2.7500    0.0000 C   0  0  0  0  0  0  0  0  0  0  0  0
    7.7331   -2.7500    0.0000 C   0  0  0  0  0  0  0  0  0  0  0  0
    6.0010   -2.7500    0.0000 C   0  0  0  0  0  0  0  0  0  0  0  0
   12.9292    2.2500    0.0000 C   0  0  0  0  0  0  0  0  0  0  0  0
   12.0632    3.7500    0.0000 C   0  0  0  0  0  0  0  0  0  0  0  0
   11.1972    2.2500    0.0000 C   0  0  0  0  0  0  0  0  0  0  0  0
    4.2690   -7.3700    0.0000 H   0  0  0  0  0  0  0  0  0  0  0  0
    4.5981   -7.5600    0.0000 H   0  0  0  0  0  0  0  0  0  0  0  0
   14.1244    7.5600    0.0000 H   0  0  0  0  0  0  0  0  0  0  0  0
   15.5273    7.3700    0.0000 H   0  0  0  0  0  0  0  0  0  0  0  0
    4.2690   -5.1300    0.0000 H   0  0  0  0  0  0  0  0  0  0  0  0
    6.0010   -7.3700    0.0000 H   0  0  0  0  0  0  0  0  0  0  0  0
   13.2583    6.4400    0.0000 H   0  0  0  0  0  0  0  0  0  0  0  0
   15.5273    5.1300    0.0000 H   0  0  0  0  0  0  0  0  0  0  0  0
    6.0010   -5.1300    0.0000 H   0  0  0  0  0  0  0  0  0  0  0  0
   14.1244    4.9400    0.0000 H   0  0  0  0  0  0  0  0  0  0  0  0
    3.8015   -4.7750    0.0000 H   0  0  0  0  0  0  0  0  0  0  0  0
    3.0044   -4.7750    0.0000 H   0  0  0  0  0  0  0  0  0  0  0  0
   12.3187    7.3577    0.0000 H   0  0  0  0  0  0  0  0  0  0  0  0
   12.7172    6.6674    0.0000 H   0  0  0  0  0  0  0  0  0  0  0  0
    3.4030   -7.8700    0.0000 H   0  0  0  0  0  0  0  0  0  0  0  0
    5.6720   -8.5600    0.0000 H   0  0  0  0  0  0  0  0  0  0  0  0
   15.1982    8.5600    0.0000 H   0  0  0  0  0  0  0  0  0  0  0  0
   16.3933    7.8700    0.0000 H   0  0  0  0  0  0  0  0  0  0  0  0
    7.4040   -6.9400    0.0000 H   0  0  0  0  0  0  0  0  0  0  0  0
   16.9303    5.5600    0.0000 H   0  0  0  0  0  0  0  0  0  0  0  0
    7.6242    2.0146    0.0000 H   0  0  0  0  0  0  0  0  0  0  0  0
    7.6242    1.2175    0.0000 H   0  0  0  0  0  0  0  0  0  0  0  0
    8.9091    3.0190    0.0000 H   0  0  0  0  0  0  0  0  0  0  0  0
    9.8637    1.7250    0.0000 H   0  0  0  0  0  0  0  0  0  0  0  0
    9.0666    1.7250    0.0000 H   0  0  0  0  0  0  0  0  0  0  0  0
    2.0000   -5.4400    0.0000 H   0  0  0  0  0  0  0  0  0  0  0  0
   12.3923    8.5600    0.0000 H   0  0  0  0  0  0  0  0  0  0  0  0
    8.6360    3.6581    0.0000 H   0  0  0  0  0  0  0  0  0  0  0  0
    7.7891    3.8850    0.0000 H   0  0  0  0  0  0  0  0  0  0  0  0
    7.5622    3.0381    0.0000 H   0  0  0  0  0  0  0  0  0  0  0  0
    9.5991    1.8620    0.0000 H   0  0  0  0  0  0  0  0  0  0  0  0
   10.2191    2.4820    0.0000 H   0  0  0  0  0  0  0  0  0  0  0  0
    9.5991    3.1021    0.0000 H   0  0  0  0  0  0  0  0  0  0  0  0
    8.2700   -4.0600    0.0000 H   0  0  0  0  0  0  0  0  0  0  0  0
    5.4641   -4.0600    0.0000 H   0  0  0  0  0  0  0  0  0  0  0  0
   14.3322    2.4400    0.0000 H   0  0  0  0  0  0  0  0  0  0  0  0
   12.9292    4.8700    0.0000 H   0  0  0  0  0  0  0  0  0  0  0  0
    9.7191   -0.1160    0.0000 H   0  0  0  0  0  0  0  0  0  0  0  0
    6.6550   -0.6674    0.0000 H   0  0  0  0  0  0  0  0  0  0  0  0
    6.2565   -1.3577    0.0000 H   0  0  0  0  0  0  0  0  0  0  0  0
    8.2700   -2.4400    0.0000 H   0  0  0  0  0  0  0  0  0  0  0  0
    5.4641   -2.4400    0.0000 H   0  0  0  0  0  0  0  0  0  0  0  0
   12.9292    1.6300    0.0000 H   0  0  0  0  0  0  0  0  0  0  0  0
   11.5263    4.0600    0.0000 H   0  0  0  0  0  0  0  0  0  0  0  0
   10.9851    2.8326    0.0000 H   0  0  0  0  0  0  0  0  0  0  0  0
   10.5866    2.1423    0.0000 H   0  0  0  0  0  0  0  0  0  0  0  0
  1 22  1  0  0  0  0
  1 26  1  0  0  0  0
  2 24  1  0  0  0  0
  2 27  1  0  0  0  0
 18  3  1  6  0  0  0
  3 66  1  0  0  0  0
 19  4  1  1  0  0  0
  4 67  1  0  0  0  0
 20  5  1  1  0  0  0
  5 68  1  0  0  0  0
 21  6  1  6  0  0  0
  6 69  1  0  0  0  0
 26  7  1  1  0  0  0
  7 33  1  0  0  0  0
 27  8  1  6  0  0  0
  8 34  1  0  0  0  0
 23  9  1  6  0  0  0
  9 70  1  0  0  0  0
 25 10  1  1  0  0  0
 10 71  1  0  0  0  0
 11 28  1  0  0  0  0
 11 77  1  0  0  0  0
 12 29  1  0  0  0  0
 12 78  1  0  0  0  0
 30 13  1  6  0  0  0
 13 89  1  0  0  0  0
 14 36  1  0  0  0  0
 14 45  1  0  0  0  0
 15 44  1  0  0  0  0
 15 51  1  0  0  0  0
 16 36  2  0  0  0  0
 17 44  2  0  0  0  0
 18 19  1  0  0  0  0
 18 22  1  0  0  0  0
 18 52  1  0  0  0  0
 19 23  1  0  0  0  0
 19 53  1  0  0  0  0
 20 21  1  0  0  0  0
 20 24  1  0  0  0  0
 20 54  1  0  0  0  0
 21 25  1  0  0  0  0
 21 55  1  0  0  0  0
 22 28  1  1  0  0  0
 22 56  1  0  0  0  0
 23 26  1  0  0  0  0
 23 57  1  0  0  0  0
 24 29  1  6  0  0  0
 24 58  1  0  0  0  0
 25 27  1  0  0  0  0
 25 59  1  0  0  0  0
 26 60  1  0  0  0  0
 27 61  1  0  0  0  0
 28 62  1  0  0  0  0
 28 63  1  0  0  0  0
 29 64  1  0  0  0  0
 29 65  1  0  0  0  0
 30 31  1  0  0  0  0
 30 35  1  0  0  0  0
 30 36  1  0  0  0  0
 31 32  1  0  0  0  0
 31 72  1  0  0  0  0
 31 73  1  0  0  0  0
 32 37  1  0  0  0  0
 32 38  1  0  0  0  0
 32 74  1  0  0  0  0
 33 39  2  0  0  0  0
 33 40  1  0  0  0  0
 34 41  2  0  0  0  0
 34 42  1  0  0  0  0
 35 44  1  0  0  0  0
 35 75  1  0  0  0  0
 35 76  1  0  0  0  0
 37 79  1  0  0  0  0
 37 80  1  0  0  0  0
 37 81  1  0  0  0  0
 38 82  1  0  0  0  0
 38 83  1  0  0  0  0
 38 84  1  0  0  0  0
 39 47  1  0  0  0  0
 39 85  1  0  0  0  0
 40 48  2  0  0  0  0
 40 86  1  0  0  0  0
 41 49  1  0  0  0  0
 41 87  1  0  0  0  0
 42 50  2  0  0  0  0
 42 88  1  0  0  0  0
 43 45  1  0  0  0  0
 43 47  2  0  0  0  0
 43 48  1  0  0  0  0
 45 90  1  0  0  0  0
 45 91  1  0  0  0  0
 46 49  2  0  0  0  0
 46 50  1  0  0  0  0
 46 51  1  0  0  0  0
 47 92  1  0  0  0  0
 48 93  1  0  0  0  0
 49 94  1  0  0  0  0
 50 95  1  0  0  0  0
 51 96  1  0  0  0  0
 51 97  1  0  0  0  0
M  END
> <PUBCHEM_COMPOUND_CID>
171638

> <PUBCHEM_COMPOUND_CANONICALIZED>
1

> <PUBCHEM_CACTVS_COMPLEXITY>
1080

> <PUBCHEM_CACTVS_HBOND_ACCEPTOR>
17

> <PUBCHEM_CACTVS_HBOND_DONOR>
9

> <PUBCHEM_CACTVS_ROTATABLE_BOND>
17

> <PUBCHEM_CACTVS_SUBSKEYS>
AAADcfB8PgAAAAAAAAAAAAAAAAAAAAAAAAA0aIEAAAAAAAABQAAAGgAACAAADVSwmAMyDoAABgCIAiDSCAICCAAgIAAIiAFGCIgdNjaEMRqieCCl4BEPqAfL6DwOIAAAAAAAAABAAAAAAAAAAAAAAAAAAA==

> <PUBCHEM_IUPAC_OPENEYE_NAME>
bis[[4-[(2S,3R,4S,5S,6R)-3,4,5-trihydroxy-6-(hydroxymethyl)tetrahydropyran-2-yl]oxyphenyl]methyl] (2R)-2-hydroxy-2-isobutyl-butanedioate

> <PUBCHEM_IUPAC_CAS_NAME>
(2R)-2-hydroxy-2-(2-methylpropyl)butanedioic acid bis[[4-[[(2S,3R,4S,5S,6R)-3,4,5-trihydroxy-6-(hydroxymethyl)-2-oxanyl]oxy]phenyl]methyl] ester

> <PUBCHEM_IUPAC_NAME_MARKUP>
bis[[4-[(2<I>S</I>,3<I>R</I>,4<I>S</I>,5<I>S</I>,6<I>R</I>)-3,4,5-trihydroxy-6-(hydroxymethyl)oxan-2-yl]oxyphenyl]methyl] (2<I>R</I>)-2-hydroxy-2-(2-methylpropyl)butanedioate

> <PUBCHEM_IUPAC_NAME>
bis[[4-[(2S,3R,4S,5S,6R)-3,4,5-trihydroxy-6-(hydroxymethyl)oxan-2-yl]oxyphenyl]methyl] (2R)-2-hydroxy-2-(2-methylpropyl)butanedioate

> <PUBCHEM_IUPAC_SYSTEMATIC_NAME>
bis[[4-[(2S,3R,4S,5S,6R)-6-(hydroxymethyl)-3,4,5-tris(oxidanyl)oxan-2-yl]oxyphenyl]methyl] (2R)-2-(2-methylpropyl)-2-oxidanyl-butanedioate

> <PUBCHEM_IUPAC_TRADITIONAL_NAME>
(2R)-2-hydroxy-2-isobutyl-succinic acid bis[4-[(2S,3R,4S,5S,6R)-3,4,5-trihydroxy-6-methylol-tetrahydropyran-2-yl]oxybenzyl] ester

> <PUBCHEM_IUPAC_INCHI>
InChI=1S/C34H46O17/c1-17(2)11-34(45,33(44)47-16-19-5-9-21(10-6-19)49-32-30(43)28(41)26(39)23(14-36)51-32)12-24(37)46-15-18-3-7-20(8-4-18)48-31-29(42)27(40)25(38)22(13-35)50-31/h3-10,17,22-23,25-32,35-36,38-43,45H,11-16H2,1-2H3/t22-,23-,25-,26-,27+,28+,29-,30-,31-,32-,34-/m1/s1

> <PUBCHEM_IUPAC_INCHIKEY>
GQNUDXCKVPLQBI-KIQVUASESA-N

> <PUBCHEM_XLOGP3_AA>
-0.5

> <PUBCHEM_EXACT_MASS>
726.2735

> <PUBCHEM_MOLECULAR_FORMULA>
C34H46O17

> <PUBCHEM_MOLECULAR_WEIGHT>
726.7

> <PUBCHEM_OPENEYE_CAN_SMILES>
CC(C)CC(CC(=O)OCC1=CC=C(C=C1)OC2C(C(C(C(O2)CO)O)O)O)(C(=O)OCC3=CC=C(C=C3)OC4C(C(C(C(O4)CO)O)O)O)O

> <PUBCHEM_OPENEYE_ISO_SMILES>
CC(C)C[C@@](CC(=O)OCC1=CC=C(C=C1)O[C@H]2[C@@H]([C@H]([C@@H]([C@H](O2)CO)O)O)O)(C(=O)OCC3=CC=C(C=C3)O[C@H]4[C@@H]([C@H]([C@@H]([C@H](O4)CO)O)O)O)O

> <PUBCHEM_CACTVS_TPSA>
272

> <PUBCHEM_MONOISOTOPIC_WEIGHT>
726.2735

> <PUBCHEM_TOTAL_CHARGE>
0

> <PUBCHEM_HEAVY_ATOM_COUNT>
51

> <PUBCHEM_ATOM_DEF_STEREO_COUNT>
11

> <PUBCHEM_ATOM_UDEF_STEREO_COUNT>
0

> <PUBCHEM_BOND_DEF_STEREO_COUNT>
0

> <PUBCHEM_BOND_UDEF_STEREO_COUNT>
0

> <PUBCHEM_ISOTOPIC_ATOM_COUNT>
0

> <PUBCHEM_COMPONENT_COUNT>
1

> <PUBCHEM_CACTVS_TAUTO_COUNT>
-1

> <PUBCHEM_COORDINATE_TYPE>
1
5
255

> <PUBCHEM_BONDANNOTATIONS>
25  10  5
30  13  6
22  28  5
24  29  6
18  3  6
33  39  8
33  40  8
34  41  8
34  42  8
39  47  8
19  4  5
40  48  8
41  49  8
42  50  8
43  47  8
43  48  8
46  49  8
46  50  8
20  5  5
21  6  6
26  7  5
27  8  6
23  9  6

$$$$
