12112747
  -OEChem-09072009113D

100103  0     1  0  0  0  0  0999 V2000
   11.1713    0.1486   -1.8091 O   0  0  0  0  0  0  0  0  0  0  0  0
   12.0178    2.8659    1.1904 O   0  0  0  0  0  0  0  0  0  0  0  0
   -9.3205    0.2094    1.4492 O   0  0  0  0  0  0  0  0  0  0  0  0
  -12.1084   -2.8474   -0.2057 O   0  0  0  0  0  0  0  0  0  0  0  0
   10.7303    0.1454   -0.4479 C   0  0  2  0  0  0  0  0  0  0  0  0
   10.7384    1.4106   -1.2676 C   0  0  1  0  0  0  0  0  0  0  0  0
   11.7983   -0.1211    0.5871 C   0  0  0  0  0  0  0  0  0  0  0  0
   11.8425    2.4161   -1.1808 C   0  0  0  0  0  0  0  0  0  0  0  0
   13.0276    0.8082    0.3927 C   0  0  0  0  0  0  0  0  0  0  0  0
   12.6867    2.2703    0.0850 C   0  0  2  0  0  0  0  0  0  0  0  0
    9.4907    1.8915   -1.9337 C   0  0  0  0  0  0  0  0  0  0  0  0
    9.4054   -0.4355   -0.1603 C   0  0  0  0  0  0  0  0  0  0  0  0
   11.1833    0.0611    1.9899 C   0  0  0  0  0  0  0  0  0  0  0  0
   12.2670   -1.5854    0.4707 C   0  0  0  0  0  0  0  0  0  0  0  0
    8.9313   -1.6432   -0.5078 C   0  0  0  0  0  0  0  0  0  0  0  0
    7.6120   -2.1683   -0.1974 C   0  0  0  0  0  0  0  0  0  0  0  0
  -10.4573   -0.4342    0.8129 C   0  0  1  0  0  0  0  0  0  0  0  0
  -11.7274    0.0471   -1.4435 C   0  0  0  0  0  0  0  0  0  0  0  0
  -10.8468    0.5006   -0.2982 C   0  0  0  0  0  0  0  0  0  0  0  0
   -9.9833   -1.7819    0.2507 C   0  0  0  0  0  0  0  0  0  0  0  0
  -11.2376   -1.3502   -1.9237 C   0  0  0  0  0  0  0  0  0  0  0  0
  -10.9180   -2.3655   -0.8142 C   0  0  2  0  0  0  0  0  0  0  0  0
    7.6099   -3.6319    0.1545 C   0  0  0  0  0  0  0  0  0  0  0  0
    6.4645   -1.4624   -0.2327 C   0  0  0  0  0  0  0  0  0  0  0  0
  -10.2015    1.6600   -0.1344 C   0  0  0  0  0  0  0  0  0  0  0  0
   -9.3139    1.5964    1.0565 C   0  0  2  0  0  0  0  0  0  0  0  0
  -11.5134   -0.5827    1.9136 C   0  0  0  0  0  0  0  0  0  0  0  0
  -11.6409    1.0057   -2.6566 C   0  0  0  0  0  0  0  0  0  0  0  0
  -13.2077    0.0096   -1.0217 C   0  0  0  0  0  0  0  0  0  0  0  0
   -7.9100    1.9988    0.7605 C   0  0  0  0  0  0  0  0  0  0  0  0
    5.1313   -1.9487    0.0693 C   0  0  0  0  0  0  0  0  0  0  0  0
   -7.7618    3.4430    0.3552 C   0  0  0  0  0  0  0  0  0  0  0  0
   -6.8250    1.2025    0.8270 C   0  0  0  0  0  0  0  0  0  0  0  0
    4.0407   -1.1658    0.0063 C   0  0  0  0  0  0  0  0  0  0  0  0
   -5.4494    1.5641    0.5457 C   0  0  0  0  0  0  0  0  0  0  0  0
    2.6579   -1.5634    0.2941 C   0  0  0  0  0  0  0  0  0  0  0  0
   -4.4352    0.6862    0.6435 C   0  0  0  0  0  0  0  0  0  0  0  0
    2.4230   -2.9966    0.7021 C   0  0  0  0  0  0  0  0  0  0  0  0
    1.6876   -0.6314    0.1759 C   0  0  0  0  0  0  0  0  0  0  0  0
   -3.0216    0.9603    0.3813 C   0  0  0  0  0  0  0  0  0  0  0  0
    0.2659   -0.7965    0.4084 C   0  0  0  0  0  0  0  0  0  0  0  0
   -2.0381    0.0412    0.4941 C   0  0  0  0  0  0  0  0  0  0  0  0
   -2.6499    2.3633   -0.0412 C   0  0  0  0  0  0  0  0  0  0  0  0
   -0.6158    0.2065    0.2597 C   0  0  0  0  0  0  0  0  0  0  0  0
   12.4888    2.3043   -2.0607 H   0  0  0  0  0  0  0  0  0  0  0  0
   11.4259    3.4301   -1.2196 H   0  0  0  0  0  0  0  0  0  0  0  0
   13.6401    0.4299   -0.4372 H   0  0  0  0  0  0  0  0  0  0  0  0
   13.6585    0.7642    1.2898 H   0  0  0  0  0  0  0  0  0  0  0  0
   13.6213    2.8279   -0.0474 H   0  0  0  0  0  0  0  0  0  0  0  0
    9.7338    2.5040   -2.8092 H   0  0  0  0  0  0  0  0  0  0  0  0
    8.9087    2.5099   -1.2423 H   0  0  0  0  0  0  0  0  0  0  0  0
    8.8479    1.0792   -2.2892 H   0  0  0  0  0  0  0  0  0  0  0  0
    8.7468    0.2163    0.4134 H   0  0  0  0  0  0  0  0  0  0  0  0
   10.6433    1.0084    2.0877 H   0  0  0  0  0  0  0  0  0  0  0  0
   11.9617    0.0403    2.7615 H   0  0  0  0  0  0  0  0  0  0  0  0
   10.4767   -0.7384    2.2430 H   0  0  0  0  0  0  0  0  0  0  0  0
   13.0810   -1.7903    1.1759 H   0  0  0  0  0  0  0  0  0  0  0  0
   12.6369   -1.8069   -0.5370 H   0  0  0  0  0  0  0  0  0  0  0  0
   11.4654   -2.2992    0.6874 H   0  0  0  0  0  0  0  0  0  0  0  0
   11.8621    3.8008    0.9736 H   0  0  0  0  0  0  0  0  0  0  0  0
    9.5808   -2.3114   -1.0701 H   0  0  0  0  0  0  0  0  0  0  0  0
   -9.8555   -2.4965    1.0738 H   0  0  0  0  0  0  0  0  0  0  0  0
   -8.9853   -1.6549   -0.1917 H   0  0  0  0  0  0  0  0  0  0  0  0
  -10.3189   -1.2176   -2.5128 H   0  0  0  0  0  0  0  0  0  0  0  0
  -11.9847   -1.7796   -2.6041 H   0  0  0  0  0  0  0  0  0  0  0  0
  -10.4273   -3.2366   -1.2641 H   0  0  0  0  0  0  0  0  0  0  0  0
    7.3396   -4.2350   -0.7189 H   0  0  0  0  0  0  0  0  0  0  0  0
    8.5986   -3.9641    0.4943 H   0  0  0  0  0  0  0  0  0  0  0  0
    6.9253   -3.8638    0.9764 H   0  0  0  0  0  0  0  0  0  0  0  0
    6.5167   -0.4110   -0.5146 H   0  0  0  0  0  0  0  0  0  0  0  0
  -10.2838    2.5173   -0.7866 H   0  0  0  0  0  0  0  0  0  0  0  0
   -9.7221    2.1872    1.8844 H   0  0  0  0  0  0  0  0  0  0  0  0
  -12.3987   -1.1354    1.5981 H   0  0  0  0  0  0  0  0  0  0  0  0
  -11.8416    0.3972    2.2802 H   0  0  0  0  0  0  0  0  0  0  0  0
  -11.0884   -1.1035    2.7802 H   0  0  0  0  0  0  0  0  0  0  0  0
  -12.2282    0.6248   -3.5005 H   0  0  0  0  0  0  0  0  0  0  0  0
  -12.0291    2.0018   -2.4132 H   0  0  0  0  0  0  0  0  0  0  0  0
  -10.6080    1.1236   -3.0051 H   0  0  0  0  0  0  0  0  0  0  0  0
  -13.8490   -0.2623   -1.8686 H   0  0  0  0  0  0  0  0  0  0  0  0
  -13.4125   -0.7122   -0.2306 H   0  0  0  0  0  0  0  0  0  0  0  0
  -13.5392    0.9906   -0.6608 H   0  0  0  0  0  0  0  0  0  0  0  0
  -12.6685   -3.2198   -0.9077 H   0  0  0  0  0  0  0  0  0  0  0  0
    5.0315   -2.9923    0.3450 H   0  0  0  0  0  0  0  0  0  0  0  0
   -8.5752    4.0491    0.7712 H   0  0  0  0  0  0  0  0  0  0  0  0
   -6.8427    3.9023    0.7300 H   0  0  0  0  0  0  0  0  0  0  0  0
   -7.7938    3.5415   -0.7348 H   0  0  0  0  0  0  0  0  0  0  0  0
   -6.9601    0.1635    1.1220 H   0  0  0  0  0  0  0  0  0  0  0  0
    4.1774   -0.1232   -0.2814 H   0  0  0  0  0  0  0  0  0  0  0  0
   -5.2519    2.5819    0.2309 H   0  0  0  0  0  0  0  0  0  0  0  0
   -4.6536   -0.3358    0.9514 H   0  0  0  0  0  0  0  0  0  0  0  0
    2.9769   -3.2304    1.6183 H   0  0  0  0  0  0  0  0  0  0  0  0
    1.3762   -3.2322    0.9037 H   0  0  0  0  0  0  0  0  0  0  0  0
    2.7490   -3.6795   -0.0905 H   0  0  0  0  0  0  0  0  0  0  0  0
    1.9741    0.3762   -0.1281 H   0  0  0  0  0  0  0  0  0  0  0  0
   -0.0950   -1.7720    0.7163 H   0  0  0  0  0  0  0  0  0  0  0  0
   -2.3299   -0.9641    0.8005 H   0  0  0  0  0  0  0  0  0  0  0  0
   -2.9555    3.0795    0.7310 H   0  0  0  0  0  0  0  0  0  0  0  0
   -1.5937    2.5566   -0.2223 H   0  0  0  0  0  0  0  0  0  0  0  0
   -3.1666    2.6220   -0.9732 H   0  0  0  0  0  0  0  0  0  0  0  0
   -0.2341    1.1719   -0.0485 H   0  0  0  0  0  0  0  0  0  0  0  0
  1  5  1  0  0  0  0
  1  6  1  0  0  0  0
  2 10  1  0  0  0  0
  2 60  1  0  0  0  0
  3 17  1  0  0  0  0
  3 26  1  0  0  0  0
  4 22  1  0  0  0  0
  4 82  1  0  0  0  0
  5  6  1  0  0  0  0
  5  7  1  0  0  0  0
  5 12  1  0  0  0  0
  6  8  1  0  0  0  0
  6 11  1  0  0  0  0
  7  9  1  0  0  0  0
  7 13  1  0  0  0  0
  7 14  1  0  0  0  0
  8 10  1  0  0  0  0
  8 45  1  0  0  0  0
  8 46  1  0  0  0  0
  9 10  1  0  0  0  0
  9 47  1  0  0  0  0
  9 48  1  0  0  0  0
 10 49  1  0  0  0  0
 11 50  1  0  0  0  0
 11 51  1  0  0  0  0
 11 52  1  0  0  0  0
 12 15  2  0  0  0  0
 12 53  1  0  0  0  0
 13 54  1  0  0  0  0
 13 55  1  0  0  0  0
 13 56  1  0  0  0  0
 14 57  1  0  0  0  0
 14 58  1  0  0  0  0
 14 59  1  0  0  0  0
 15 16  1  0  0  0  0
 15 61  1  0  0  0  0
 16 23  1  0  0  0  0
 16 24  2  0  0  0  0
 17 19  1  0  0  0  0
 17 20  1  0  0  0  0
 17 27  1  0  0  0  0
 18 19  1  0  0  0  0
 18 21  1  0  0  0  0
 18 28  1  0  0  0  0
 18 29  1  0  0  0  0
 19 25  2  0  0  0  0
 20 22  1  0  0  0  0
 20 62  1  0  0  0  0
 20 63  1  0  0  0  0
 21 22  1  0  0  0  0
 21 64  1  0  0  0  0
 21 65  1  0  0  0  0
 22 66  1  0  0  0  0
 23 67  1  0  0  0  0
 23 68  1  0  0  0  0
 23 69  1  0  0  0  0
 24 31  1  0  0  0  0
 24 70  1  0  0  0  0
 25 26  1  0  0  0  0
 25 71  1  0  0  0  0
 26 30  1  0  0  0  0
 26 72  1  0  0  0  0
 27 73  1  0  0  0  0
 27 74  1  0  0  0  0
 27 75  1  0  0  0  0
 28 76  1  0  0  0  0
 28 77  1  0  0  0  0
 28 78  1  0  0  0  0
 29 79  1  0  0  0  0
 29 80  1  0  0  0  0
 29 81  1  0  0  0  0
 30 32  1  0  0  0  0
 30 33  2  0  0  0  0
 31 34  2  0  0  0  0
 31 83  1  0  0  0  0
 32 84  1  0  0  0  0
 32 85  1  0  0  0  0
 32 86  1  0  0  0  0
 33 35  1  0  0  0  0
 33 87  1  0  0  0  0
 34 36  1  0  0  0  0
 34 88  1  0  0  0  0
 35 37  2  0  0  0  0
 35 89  1  0  0  0  0
 36 38  1  0  0  0  0
 36 39  2  0  0  0  0
 37 40  1  0  0  0  0
 37 90  1  0  0  0  0
 38 91  1  0  0  0  0
 38 92  1  0  0  0  0
 38 93  1  0  0  0  0
 39 41  1  0  0  0  0
 39 94  1  0  0  0  0
 40 42  2  0  0  0  0
 40 43  1  0  0  0  0
 41 44  2  0  0  0  0
 41 95  1  0  0  0  0
 42 44  1  0  0  0  0
 42 96  1  0  0  0  0
 43 97  1  0  0  0  0
 43 98  1  0  0  0  0
 43 99  1  0  0  0  0
 44100  1  0  0  0  0
M  END
> <PUBCHEM_COMPOUND_CID>
12112747

> <PUBCHEM_CONFORMER_RMSD>
1.4

> <PUBCHEM_CONFORMER_DIVERSEORDER>
1
80
53
59
24
38
68
82
39
45
73
75
43
77
33
64
51
8
60
58
54
67
85
5
62
70
74
23
57
30
40
27
20
42
72
34
76
83
2
69
32
36
78
49
84
28
37
61
35
16
71
14
63
81
15
3
13
29
22
41
50
19
52
12
46
26
47
25
31
44
48
6
65
10
66
18
79
7
11
55
56
86
17
21
9
4

> <PUBCHEM_MMFF94_PARTIAL_CHARGES>
51
1 -0.3
10 0.28
100 0.15
11 0.09
12 -0.19
15 -0.15
16 -0.14
17 0.42
18 0.14
19 -0.28
2 -0.68
22 0.28
23 0.14
24 -0.15
25 -0.29
26 0.56
3 -0.56
30 -0.28
31 -0.15
32 0.14
33 -0.15
34 -0.15
35 -0.15
36 -0.14
37 -0.15
38 0.14
39 -0.15
4 -0.68
40 -0.14
41 -0.15
42 -0.15
43 0.14
44 -0.15
5 0.09
53 0.15
6 -0.04
60 0.4
61 0.15
7 0.09
70 0.15
71 0.15
8 0.09
82 0.4
83 0.15
87 0.15
88 0.15
89 0.15
90 0.15
94 0.15
95 0.15
96 0.15

> <PUBCHEM_EFFECTIVE_ROTOR_COUNT>
11.2

> <PUBCHEM_PHARMACOPHORE_FEATURES>
15
1 1 acceptor
1 2 acceptor
1 2 donor
1 23 hydrophobe
1 3 acceptor
1 32 hydrophobe
1 38 hydrophobe
1 4 acceptor
1 4 donor
1 43 hydrophobe
3 18 28 29 hydrophobe
3 7 13 14 hydrophobe
5 3 17 19 25 26 rings
6 17 18 19 20 21 22 rings
7 1 5 6 7 8 9 10 rings

> <PUBCHEM_HEAVY_ATOM_COUNT>
44

> <PUBCHEM_ATOM_DEF_STEREO_COUNT>
5

> <PUBCHEM_ATOM_UDEF_STEREO_COUNT>
1

> <PUBCHEM_BOND_DEF_STEREO_COUNT>
8

> <PUBCHEM_BOND_UDEF_STEREO_COUNT>
0

> <PUBCHEM_ISOTOPIC_ATOM_COUNT>
0

> <PUBCHEM_COMPONENT_COUNT>
1

> <PUBCHEM_CACTVS_TAUTO_COUNT>
1

> <PUBCHEM_CONFORMER_ID>
00B8D36B00000001

> <PUBCHEM_MMFF94_ENERGY>
121.755

> <PUBCHEM_FEATURE_SELFOVERLAP>
76.229

> <PUBCHEM_SHAPE_FINGERPRINT>
12013929 2 10447923949715641563
12013929 94 18343866602811985251
12559415 86 10375874086387160746
14251920 17 18412263939699343368
14344974 52 18272369767819131154
14918687 75 18343019986989278119
15061470 23 18335984182002972649
15219723 13 10663815279050933293
15343295 29 8502377720999028499
15538507 75 10737284645364401296
16728433 110 18113336393483222006
57303763 176 8286209348936079407
57303763 39 17703505584608212111

> <PUBCHEM_SHAPE_MULTIPOLES>
882.02
83.03
3.32
1.55
22.31
0.33
0.51
-12.94
13.68
2.77
0.01
-2.18
-0.4
-2.67

> <PUBCHEM_SHAPE_SELFOVERLAP>
1832.293

> <PUBCHEM_SHAPE_VOLUME>
505.5

> <PUBCHEM_COORDINATE_TYPE>
2
5
10

$$$$
