14335956
  -OEChem-09062012323D

100105  0     1  0  0  0  0  0999 V2000
   -4.6160    1.5198    0.2028 O   0  0  0  0  0  0  0  0  0  0  0  0
   -3.6331   -0.5300   -1.4504 O   0  0  0  0  0  0  0  0  0  0  0  0
    5.8370   -2.1142    1.6731 O   0  0  0  0  0  0  0  0  0  0  0  0
    7.3760    1.9953   -1.3240 O   0  0  0  0  0  0  0  0  0  0  0  0
    6.1160    0.5655   -2.5744 O   0  0  0  0  0  0  0  0  0  0  0  0
   -5.4777   -0.5783   -0.2368 O   0  0  0  0  0  0  0  0  0  0  0  0
   -9.5414   -3.8765    1.0682 O   0  0  0  0  0  0  0  0  0  0  0  0
    2.1530    1.1923    0.5846 C   0  0  2  0  0  0  0  0  0  0  0  0
    1.0542    0.4060   -0.2349 C   0  0  1  0  0  0  0  0  0  0  0  0
   -0.3445    1.1381   -0.4676 C   0  0  2  0  0  0  0  0  0  0  0  0
    3.3694    0.1562    0.9548 C   0  0  1  0  0  0  0  0  0  0  0  0
   -0.8661    1.6024    0.9420 C   0  0  1  0  0  0  0  0  0  0  0  0
    1.4888    1.7819    1.8643 C   0  0  0  0  0  0  0  0  0  0  0  0
    3.8647   -0.5609   -0.3113 C   0  0  0  0  0  0  0  0  0  0  0  0
    0.1667    2.5203    1.6282 C   0  0  0  0  0  0  0  0  0  0  0  0
   -2.3556    2.1127    0.9981 C   0  0  0  0  0  0  0  0  0  0  0  0
    5.3414   -0.9723   -0.4411 C   0  0  1  0  0  0  0  0  0  0  0  0
    1.6426   -0.2546   -1.4994 C   0  0  0  0  0  0  0  0  0  0  0  0
   -1.3569    0.0979   -1.0281 C   0  0  0  0  0  0  0  0  0  0  0  0
    4.5712    0.8581    1.6605 C   0  0  0  0  0  0  0  0  0  0  0  0
    6.2921    0.2384   -0.1669 C   0  0  1  0  0  0  0  0  0  0  0  0
    5.6912    1.3384    0.7382 C   0  0  0  0  0  0  0  0  0  0  0  0
    2.7165    2.3888   -0.2261 C   0  0  0  0  0  0  0  0  0  0  0  0
   -3.2791    1.0329    0.3534 C   0  0  2  0  0  0  0  0  0  0  0  0
    3.0555   -0.7319   -1.3752 C   0  0  0  0  0  0  0  0  0  0  0  0
   -2.8134    0.5652   -1.0261 C   0  0  2  0  0  0  0  0  0  0  0  0
   -0.2445    2.2955   -1.4928 C   0  0  0  0  0  0  0  0  0  0  0  0
    5.7907   -2.3017    0.2605 C   0  0  1  0  0  0  0  0  0  0  0  0
    2.8634   -0.9314    1.9519 C   0  0  0  0  0  0  0  0  0  0  0  0
    7.6580   -0.2128    0.3959 C   0  0  0  0  0  0  0  0  0  0  0  0
    7.2260   -2.6747   -0.2371 C   0  0  1  0  0  0  0  0  0  0  0  0
   -2.5675    3.4934    0.3447 C   0  0  0  0  0  0  0  0  0  0  0  0
   -2.7899    2.2720    2.4829 C   0  0  0  0  0  0  0  0  0  0  0  0
    8.1889   -1.4678   -0.2895 C   0  0  0  0  0  0  0  0  0  0  0  0
    6.5630    0.9243   -1.4953 C   0  0  0  0  0  0  0  0  0  0  0  0
    4.8094   -3.4496   -0.0413 C   0  0  0  0  0  0  0  0  0  0  0  0
    7.8859   -3.8100    0.5609 C   0  0  0  0  0  0  0  0  0  0  0  0
   -5.5031    0.6383   -0.3344 C   0  0  0  0  0  0  0  0  0  0  0  0
   -6.5216    1.4199   -1.0718 C   0  0  0  0  0  0  0  0  0  0  0  0
   -7.7738    0.9504   -1.1661 C   0  0  0  0  0  0  0  0  0  0  0  0
   -8.2381   -0.3188   -0.5790 C   0  0  0  0  0  0  0  0  0  0  0  0
   -8.7516   -1.3024   -1.4084 C   0  0  0  0  0  0  0  0  0  0  0  0
   -8.1523   -0.5034    0.7915 C   0  0  0  0  0  0  0  0  0  0  0  0
   -9.1915   -2.5036   -0.8521 C   0  0  0  0  0  0  0  0  0  0  0  0
   -8.5922   -1.7046    1.3476 C   0  0  0  0  0  0  0  0  0  0  0  0
   -9.1119   -2.7046    0.5259 C   0  0  0  0  0  0  0  0  0  0  0  0
    0.7748   -0.4414    0.4045 H   0  0  0  0  0  0  0  0  0  0  0  0
   -0.8827    0.6864    1.5568 H   0  0  0  0  0  0  0  0  0  0  0  0
    1.2633    0.9874    2.5810 H   0  0  0  0  0  0  0  0  0  0  0  0
    2.1762    2.4649    2.3762 H   0  0  0  0  0  0  0  0  0  0  0  0
   -0.1953    2.8376    2.6110 H   0  0  0  0  0  0  0  0  0  0  0  0
    0.3380    3.4404    1.0637 H   0  0  0  0  0  0  0  0  0  0  0  0
    5.4641   -1.2551   -1.4969 H   0  0  0  0  0  0  0  0  0  0  0  0
    1.6194    0.4280   -2.3526 H   0  0  0  0  0  0  0  0  0  0  0  0
    1.0257   -1.1175   -1.7774 H   0  0  0  0  0  0  0  0  0  0  0  0
   -1.0884   -0.1891   -2.0532 H   0  0  0  0  0  0  0  0  0  0  0  0
   -1.2919   -0.8323   -0.4461 H   0  0  0  0  0  0  0  0  0  0  0  0
    4.2247    1.7034    2.2641 H   0  0  0  0  0  0  0  0  0  0  0  0
    5.0295    0.1781    2.3900 H   0  0  0  0  0  0  0  0  0  0  0  0
    6.4770    1.7843    1.3636 H   0  0  0  0  0  0  0  0  0  0  0  0
    5.3189    2.1734    0.1378 H   0  0  0  0  0  0  0  0  0  0  0  0
    3.2539    2.0755   -1.1253 H   0  0  0  0  0  0  0  0  0  0  0  0
    1.9493    3.0910   -0.5432 H   0  0  0  0  0  0  0  0  0  0  0  0
    3.3949    2.9917    0.3852 H   0  0  0  0  0  0  0  0  0  0  0  0
   -3.3209    0.1669    1.0303 H   0  0  0  0  0  0  0  0  0  0  0  0
    3.4454   -1.2146   -2.2691 H   0  0  0  0  0  0  0  0  0  0  0  0
   -2.9753    1.3518   -1.7690 H   0  0  0  0  0  0  0  0  0  0  0  0
   -0.0658    3.2653   -1.0255 H   0  0  0  0  0  0  0  0  0  0  0  0
   -1.1550    2.4128   -2.0855 H   0  0  0  0  0  0  0  0  0  0  0  0
    0.5474    2.1435   -2.2284 H   0  0  0  0  0  0  0  0  0  0  0  0
    2.6032   -0.5038    2.9247 H   0  0  0  0  0  0  0  0  0  0  0  0
    2.0031   -1.4931    1.5813 H   0  0  0  0  0  0  0  0  0  0  0  0
    3.6239   -1.6815    2.1697 H   0  0  0  0  0  0  0  0  0  0  0  0
    8.4165    0.5746    0.3064 H   0  0  0  0  0  0  0  0  0  0  0  0
    7.5791   -0.4045    1.4733 H   0  0  0  0  0  0  0  0  0  0  0  0
    7.1344   -3.0403   -1.2703 H   0  0  0  0  0  0  0  0  0  0  0  0
   -1.8415    4.2278    0.7074 H   0  0  0  0  0  0  0  0  0  0  0  0
   -3.5620    3.8919    0.5798 H   0  0  0  0  0  0  0  0  0  0  0  0
   -2.5039    3.4607   -0.7435 H   0  0  0  0  0  0  0  0  0  0  0  0
   -3.8672    2.4594    2.5624 H   0  0  0  0  0  0  0  0  0  0  0  0
   -2.2889    3.1143    2.9702 H   0  0  0  0  0  0  0  0  0  0  0  0
   -2.5728    1.3662    3.0598 H   0  0  0  0  0  0  0  0  0  0  0  0
    9.1642   -1.7209    0.1443 H   0  0  0  0  0  0  0  0  0  0  0  0
    8.3926   -1.2337   -1.3428 H   0  0  0  0  0  0  0  0  0  0  0  0
    3.8046   -3.2307    0.3330 H   0  0  0  0  0  0  0  0  0  0  0  0
    4.7424   -3.6485   -1.1158 H   0  0  0  0  0  0  0  0  0  0  0  0
    5.1040   -4.3759    0.4620 H   0  0  0  0  0  0  0  0  0  0  0  0
   -3.4838   -1.2713   -0.8387 H   0  0  0  0  0  0  0  0  0  0  0  0
    8.8463   -4.0843    0.1099 H   0  0  0  0  0  0  0  0  0  0  0  0
    8.0808   -3.5146    1.5970 H   0  0  0  0  0  0  0  0  0  0  0  0
    7.2698   -4.7128    0.5701 H   0  0  0  0  0  0  0  0  0  0  0  0
    5.9286   -2.9825    2.0996 H   0  0  0  0  0  0  0  0  0  0  0  0
    7.5638    2.4517   -2.1716 H   0  0  0  0  0  0  0  0  0  0  0  0
   -6.2431    2.3751   -1.5014 H   0  0  0  0  0  0  0  0  0  0  0  0
   -8.5161    1.5168   -1.7219 H   0  0  0  0  0  0  0  0  0  0  0  0
   -8.8181   -1.1576   -2.4835 H   0  0  0  0  0  0  0  0  0  0  0  0
   -7.7662    0.2694    1.4512 H   0  0  0  0  0  0  0  0  0  0  0  0
   -9.5951   -3.2790   -1.4974 H   0  0  0  0  0  0  0  0  0  0  0  0
   -8.5279   -1.8476    2.4230 H   0  0  0  0  0  0  0  0  0  0  0  0
   -9.4123   -3.8438    2.0317 H   0  0  0  0  0  0  0  0  0  0  0  0
  1 24  1  0  0  0  0
  1 38  1  0  0  0  0
  2 26  1  0  0  0  0
  2 88  1  0  0  0  0
  3 28  1  0  0  0  0
  3 92  1  0  0  0  0
  4 35  1  0  0  0  0
  4 93  1  0  0  0  0
  5 35  2  0  0  0  0
  6 38  2  0  0  0  0
  7 46  1  0  0  0  0
  7100  1  0  0  0  0
  8  9  1  0  0  0  0
  8 11  1  0  0  0  0
  8 13  1  0  0  0  0
  8 23  1  0  0  0  0
  9 10  1  0  0  0  0
  9 18  1  0  0  0  0
  9 47  1  0  0  0  0
 10 12  1  0  0  0  0
 10 19  1  0  0  0  0
 10 27  1  0  0  0  0
 11 14  1  0  0  0  0
 11 20  1  0  0  0  0
 11 29  1  0  0  0  0
 12 15  1  0  0  0  0
 12 16  1  0  0  0  0
 12 48  1  0  0  0  0
 13 15  1  0  0  0  0
 13 49  1  0  0  0  0
 13 50  1  0  0  0  0
 14 17  1  0  0  0  0
 14 25  2  0  0  0  0
 15 51  1  0  0  0  0
 15 52  1  0  0  0  0
 16 24  1  0  0  0  0
 16 32  1  0  0  0  0
 16 33  1  0  0  0  0
 17 21  1  0  0  0  0
 17 28  1  0  0  0  0
 17 53  1  0  0  0  0
 18 25  1  0  0  0  0
 18 54  1  0  0  0  0
 18 55  1  0  0  0  0
 19 26  1  0  0  0  0
 19 56  1  0  0  0  0
 19 57  1  0  0  0  0
 20 22  1  0  0  0  0
 20 58  1  0  0  0  0
 20 59  1  0  0  0  0
 21 22  1  0  0  0  0
 21 30  1  0  0  0  0
 21 35  1  0  0  0  0
 22 60  1  0  0  0  0
 22 61  1  0  0  0  0
 23 62  1  0  0  0  0
 23 63  1  0  0  0  0
 23 64  1  0  0  0  0
 24 26  1  0  0  0  0
 24 65  1  0  0  0  0
 25 66  1  0  0  0  0
 26 67  1  0  0  0  0
 27 68  1  0  0  0  0
 27 69  1  0  0  0  0
 27 70  1  0  0  0  0
 28 31  1  0  0  0  0
 28 36  1  0  0  0  0
 29 71  1  0  0  0  0
 29 72  1  0  0  0  0
 29 73  1  0  0  0  0
 30 34  1  0  0  0  0
 30 74  1  0  0  0  0
 30 75  1  0  0  0  0
 31 34  1  0  0  0  0
 31 37  1  0  0  0  0
 31 76  1  0  0  0  0
 32 77  1  0  0  0  0
 32 78  1  0  0  0  0
 32 79  1  0  0  0  0
 33 80  1  0  0  0  0
 33 81  1  0  0  0  0
 33 82  1  0  0  0  0
 34 83  1  0  0  0  0
 34 84  1  0  0  0  0
 36 85  1  0  0  0  0
 36 86  1  0  0  0  0
 36 87  1  0  0  0  0
 37 89  1  0  0  0  0
 37 90  1  0  0  0  0
 37 91  1  0  0  0  0
 38 39  1  0  0  0  0
 39 40  2  0  0  0  0
 39 94  1  0  0  0  0
 40 41  1  0  0  0  0
 40 95  1  0  0  0  0
 41 42  2  0  0  0  0
 41 43  1  0  0  0  0
 42 44  1  0  0  0  0
 42 96  1  0  0  0  0
 43 45  2  0  0  0  0
 43 97  1  0  0  0  0
 44 46  2  0  0  0  0
 44 98  1  0  0  0  0
 45 46  1  0  0  0  0
 45 99  1  0  0  0  0
M  END
> <PUBCHEM_COMPOUND_CID>
14335956

> <PUBCHEM_CONFORMER_RMSD>
1

> <PUBCHEM_CONFORMER_DIVERSEORDER>
1
4
3
5
7
6
2

> <PUBCHEM_MMFF94_PARTIAL_CHARGES>
37
1 -0.43
100 0.45
11 0.14
14 -0.28
17 0.14
18 0.14
2 -0.68
21 0.06
24 0.28
25 -0.29
26 0.28
28 0.28
3 -0.68
35 0.66
38 0.71
39 -0.14
4 -0.65
40 -0.18
41 0.03
42 -0.15
43 -0.15
44 -0.15
45 -0.15
46 0.08
5 -0.57
6 -0.57
66 0.15
7 -0.53
88 0.4
92 0.4
93 0.5
94 0.15
95 0.15
96 0.15
97 0.15
98 0.15
99 0.15

> <PUBCHEM_EFFECTIVE_ROTOR_COUNT>
7.6

> <PUBCHEM_PHARMACOPHORE_FEATURES>
16
1 2 acceptor
1 2 donor
1 3 acceptor
1 3 donor
1 4 acceptor
1 5 acceptor
1 6 acceptor
1 7 donor
3 16 32 33 hydrophobe
3 4 5 35 anion
6 10 12 16 19 24 26 rings
6 11 14 17 20 21 22 rings
6 17 21 28 30 31 34 rings
6 41 42 43 44 45 46 rings
6 8 9 10 12 13 15 rings
6 8 9 11 14 18 25 rings

> <PUBCHEM_HEAVY_ATOM_COUNT>
46

> <PUBCHEM_ATOM_DEF_STEREO_COUNT>
11

> <PUBCHEM_ATOM_UDEF_STEREO_COUNT>
0

> <PUBCHEM_BOND_DEF_STEREO_COUNT>
1

> <PUBCHEM_BOND_UDEF_STEREO_COUNT>
0

> <PUBCHEM_ISOTOPIC_ATOM_COUNT>
0

> <PUBCHEM_COMPONENT_COUNT>
1

> <PUBCHEM_CACTVS_TAUTO_COUNT>
2

> <PUBCHEM_CONFORMER_ID>
00DABFD400000001

> <PUBCHEM_MMFF94_ENERGY>
223.0434

> <PUBCHEM_FEATURE_SELFOVERLAP>
81.413

> <PUBCHEM_SHAPE_FINGERPRINT>
10162869 55 18186803578723703804
10258705 36 18335705001014253931
10533779 47 15410631289142100095
10625338 86 10519990379419487559
11386260 185 16226336992129546300
11456790 92 16487256582333188539
11497681 19 18335981978283556989
11607047 74 17898577724239846781
11672396 43 18413112740742142645
117089 54 18129105519759844614
11828532 37 18411420635117950323
12013929 94 18410295826042792182
12120059 9 17458341927859457090
12539765 74 9727637219407612073
13560911 43 17846497019627643440
13782708 43 18269552754103456749
13811026 1 18335417959020610915
14117953 113 12324239434930840258
15198563 99 16298946433630740908
15350500 55 9007057968219658955
16728433 281 11603084056551857607
16994733 274 9799684901272021981
19841028 212 18263077717316844738
20105231 36 17132123441578280388
2026 5 18335702728886577963
20982279 24 18410304601278637555
21033648 29 12823291299483230616
21781051 124 18342744065426419199
21792938 703 17895203237718572435
21927370 108 17918000486493172801
22149856 69 15841280267866887160
23522609 53 18057071063486395608
23569917 315 18199756856412961622
23569943 247 17902509290210692418
23576562 1 15647631080770536319
25269216 80 17346051008633584968
2747138 104 17775283876785484177
3383291 50 17989205954466033391
4093350 32 12679466361413884124
4149490 64 18335696140216257234
439807 62 18343017757822149472
4461854 278 16845853507427867791
45377200 153 17967816093945724523
54039377 194 18411420640198290559
5470011 282 18187646929004813044
58083652 198 16988269955394371881
6698420 124 11743835871936506861
9962374 69 17846487184795834253

> <PUBCHEM_SHAPE_MULTIPOLES>
905.57
31.31
3.72
1.82
44.53
2.07
0.15
30
-2.29
0.59
1.17
-0.22
-0.52
-0.27

> <PUBCHEM_SHAPE_SELFOVERLAP>
1952.187

> <PUBCHEM_SHAPE_VOLUME>
490.7

> <PUBCHEM_COORDINATE_TYPE>
2
5
10

$$$$
