14314585
  -OEChem-09062012553D

 86 90  0     1  0  0  0  0  0999 V2000
    7.1881    0.8065    0.2718 O   0  0  0  0  0  0  0  0  0  0  0  0
   -3.2272    2.2271    1.4282 O   0  0  0  0  0  0  0  0  0  0  0  0
    5.6511    2.7612   -1.1470 O   0  0  0  0  0  0  0  0  0  0  0  0
   -4.0508   -2.9611   -0.3788 O   0  0  0  0  0  0  0  0  0  0  0  0
   -2.8068   -1.7321   -1.8884 O   0  0  0  0  0  0  0  0  0  0  0  0
    0.6312   -0.8384    0.2579 C   0  0  2  0  0  0  0  0  0  0  0  0
    1.4584    0.3287   -0.3981 C   0  0  1  0  0  0  0  0  0  0  0  0
    3.0095    0.0688   -0.6573 C   0  0  2  0  0  0  0  0  0  0  0  0
   -0.7940   -0.2087    0.7701 C   0  0  1  0  0  0  0  0  0  0  0  0
    3.6211   -0.4609    0.6908 C   0  0  1  0  0  0  0  0  0  0  0  0
    1.4256   -1.4809    1.4317 C   0  0  0  0  0  0  0  0  0  0  0  0
   -1.5092    0.4893   -0.4110 C   0  0  0  0  0  0  0  0  0  0  0  0
    2.9040   -1.7494    1.1430 C   0  0  0  0  0  0  0  0  0  0  0  0
   -3.0460    0.6101   -0.4546 C   0  0  1  0  0  0  0  0  0  0  0  0
    5.1912   -0.5154    0.7638 C   0  0  0  0  0  0  0  0  0  0  0  0
    0.6955    0.9290   -1.6015 C   0  0  0  0  0  0  0  0  0  0  0  0
   -1.6559   -1.3244    1.4341 C   0  0  0  0  0  0  0  0  0  0  0  0
   -3.7194   -0.6769    0.0972 C   0  0  1  0  0  0  0  0  0  0  0  0
    3.6836    1.4321   -0.9866 C   0  0  0  0  0  0  0  0  0  0  0  0
   -3.1626   -1.0586    1.4774 C   0  0  0  0  0  0  0  0  0  0  0  0
    0.3724   -1.9797   -0.7785 C   0  0  0  0  0  0  0  0  0  0  0  0
    5.7622    0.8772    0.3585 C   0  0  2  0  0  0  0  0  0  0  0  0
   -0.7965    0.9680   -1.4521 C   0  0  0  0  0  0  0  0  0  0  0  0
   -3.6415    1.9719    0.0889 C   0  0  1  0  0  0  0  0  0  0  0  0
    3.2686   -0.8797   -1.8551 C   0  0  0  0  0  0  0  0  0  0  0  0
    5.2132    1.4107   -0.9653 C   0  0  2  0  0  0  0  0  0  0  0  0
   -0.5788    0.8963    1.8505 C   0  0  0  0  0  0  0  0  0  0  0  0
   -5.2554   -0.5647    0.1181 C   0  0  0  0  0  0  0  0  0  0  0  0
   -5.2016    1.9549    0.0311 C   0  0  1  0  0  0  0  0  0  0  0  0
    5.8170   -1.6492   -0.0749 C   0  0  0  0  0  0  0  0  0  0  0  0
    5.6360   -0.7773    2.2310 C   0  0  0  0  0  0  0  0  0  0  0  0
   -5.7805    0.7190    0.7349 C   0  0  0  0  0  0  0  0  0  0  0  0
   -3.4563   -1.8307   -0.8561 C   0  0  0  0  0  0  0  0  0  0  0  0
   -3.1015    3.1651   -0.7237 C   0  0  0  0  0  0  0  0  0  0  0  0
   -5.8628    3.2039    0.6340 C   0  0  0  0  0  0  0  0  0  0  0  0
   -3.8821   -4.1317   -1.1845 C   0  0  0  0  0  0  0  0  0  0  0  0
    1.4658    1.1293    0.3551 H   0  0  0  0  0  0  0  0  0  0  0  0
    3.3512    0.2965    1.4463 H   0  0  0  0  0  0  0  0  0  0  0  0
    0.9535   -2.4238    1.7356 H   0  0  0  0  0  0  0  0  0  0  0  0
    1.4018   -0.8483    2.3210 H   0  0  0  0  0  0  0  0  0  0  0  0
    3.3398   -2.1316    2.0709 H   0  0  0  0  0  0  0  0  0  0  0  0
    3.0082   -2.5572    0.4144 H   0  0  0  0  0  0  0  0  0  0  0  0
   -3.3187    0.6344   -1.5237 H   0  0  0  0  0  0  0  0  0  0  0  0
    0.8976    0.3780   -2.5227 H   0  0  0  0  0  0  0  0  0  0  0  0
    1.0401    1.9557   -1.7723 H   0  0  0  0  0  0  0  0  0  0  0  0
   -1.3063   -1.4984    2.4607 H   0  0  0  0  0  0  0  0  0  0  0  0
   -1.5285   -2.2853    0.9344 H   0  0  0  0  0  0  0  0  0  0  0  0
    3.3428    2.1977   -0.2751 H   0  0  0  0  0  0  0  0  0  0  0  0
    3.3534    1.7927   -1.9698 H   0  0  0  0  0  0  0  0  0  0  0  0
   -3.6597   -1.9522    1.8765 H   0  0  0  0  0  0  0  0  0  0  0  0
   -3.3705   -0.2645    2.2028 H   0  0  0  0  0  0  0  0  0  0  0  0
    1.2995   -2.3919   -1.1738 H   0  0  0  0  0  0  0  0  0  0  0  0
   -0.1391   -2.8398   -0.3396 H   0  0  0  0  0  0  0  0  0  0  0  0
   -0.2144   -1.6557   -1.6397 H   0  0  0  0  0  0  0  0  0  0  0  0
    5.5366    1.6161    1.1399 H   0  0  0  0  0  0  0  0  0  0  0  0
   -1.3211    1.4278   -2.2871 H   0  0  0  0  0  0  0  0  0  0  0  0
    4.2190   -0.6759   -2.3532 H   0  0  0  0  0  0  0  0  0  0  0  0
    3.2987   -1.9325   -1.5715 H   0  0  0  0  0  0  0  0  0  0  0  0
    2.5212   -0.7823   -2.6437 H   0  0  0  0  0  0  0  0  0  0  0  0
    5.6279    0.8439   -1.8042 H   0  0  0  0  0  0  0  0  0  0  0  0
   -0.3060    1.8638    1.4138 H   0  0  0  0  0  0  0  0  0  0  0  0
   -1.4798    1.0571    2.4476 H   0  0  0  0  0  0  0  0  0  0  0  0
    0.1910    0.6470    2.5811 H   0  0  0  0  0  0  0  0  0  0  0  0
   -5.7026   -1.4084    0.6603 H   0  0  0  0  0  0  0  0  0  0  0  0
   -5.6470   -0.6306   -0.9075 H   0  0  0  0  0  0  0  0  0  0  0  0
   -5.5006    1.9069   -1.0256 H   0  0  0  0  0  0  0  0  0  0  0  0
   -6.8749    0.7239    0.6573 H   0  0  0  0  0  0  0  0  0  0  0  0
   -5.5437    0.7445    1.8055 H   0  0  0  0  0  0  0  0  0  0  0  0
    6.8791   -1.7793    0.1659 H   0  0  0  0  0  0  0  0  0  0  0  0
    5.3326   -2.6109    0.1210 H   0  0  0  0  0  0  0  0  0  0  0  0
    5.7723   -1.4584   -1.1472 H   0  0  0  0  0  0  0  0  0  0  0  0
    6.7231   -0.7160    2.3486 H   0  0  0  0  0  0  0  0  0  0  0  0
    5.1887   -0.0490    2.9166 H   0  0  0  0  0  0  0  0  0  0  0  0
    5.3535   -1.7781    2.5717 H   0  0  0  0  0  0  0  0  0  0  0  0
   -2.0160    3.2622   -0.6183 H   0  0  0  0  0  0  0  0  0  0  0  0
   -3.3479    3.0730   -1.7864 H   0  0  0  0  0  0  0  0  0  0  0  0
   -3.4927    4.1220   -0.3645 H   0  0  0  0  0  0  0  0  0  0  0  0
    7.5446    0.8183    1.1755 H   0  0  0  0  0  0  0  0  0  0  0  0
   -6.9537    3.1303    0.5548 H   0  0  0  0  0  0  0  0  0  0  0  0
   -5.6226    3.3239    1.6951 H   0  0  0  0  0  0  0  0  0  0  0  0
   -5.5745    4.1162    0.1060 H   0  0  0  0  0  0  0  0  0  0  0  0
   -3.4536    3.1417    1.6649 H   0  0  0  0  0  0  0  0  0  0  0  0
    5.3209    3.0631   -2.0105 H   0  0  0  0  0  0  0  0  0  0  0  0
   -2.8201   -4.3813   -1.2705 H   0  0  0  0  0  0  0  0  0  0  0  0
   -4.3249   -3.9776   -2.1730 H   0  0  0  0  0  0  0  0  0  0  0  0
   -4.3989   -4.9601   -0.6929 H   0  0  0  0  0  0  0  0  0  0  0  0
  1 22  1  0  0  0  0
  1 78  1  0  0  0  0
  2 24  1  0  0  0  0
  2 82  1  0  0  0  0
  3 26  1  0  0  0  0
  3 83  1  0  0  0  0
  4 33  1  0  0  0  0
  4 36  1  0  0  0  0
  5 33  2  0  0  0  0
  6  7  1  0  0  0  0
  6  9  1  0  0  0  0
  6 11  1  0  0  0  0
  6 21  1  0  0  0  0
  7  8  1  0  0  0  0
  7 16  1  0  0  0  0
  7 37  1  0  0  0  0
  8 10  1  0  0  0  0
  8 19  1  0  0  0  0
  8 25  1  0  0  0  0
  9 12  1  0  0  0  0
  9 17  1  0  0  0  0
  9 27  1  0  0  0  0
 10 13  1  0  0  0  0
 10 15  1  0  0  0  0
 10 38  1  0  0  0  0
 11 13  1  0  0  0  0
 11 39  1  0  0  0  0
 11 40  1  0  0  0  0
 12 14  1  0  0  0  0
 12 23  2  0  0  0  0
 13 41  1  0  0  0  0
 13 42  1  0  0  0  0
 14 18  1  0  0  0  0
 14 24  1  0  0  0  0
 14 43  1  0  0  0  0
 15 22  1  0  0  0  0
 15 30  1  0  0  0  0
 15 31  1  0  0  0  0
 16 23  1  0  0  0  0
 16 44  1  0  0  0  0
 16 45  1  0  0  0  0
 17 20  1  0  0  0  0
 17 46  1  0  0  0  0
 17 47  1  0  0  0  0
 18 20  1  0  0  0  0
 18 28  1  0  0  0  0
 18 33  1  0  0  0  0
 19 26  1  0  0  0  0
 19 48  1  0  0  0  0
 19 49  1  0  0  0  0
 20 50  1  0  0  0  0
 20 51  1  0  0  0  0
 21 52  1  0  0  0  0
 21 53  1  0  0  0  0
 21 54  1  0  0  0  0
 22 26  1  0  0  0  0
 22 55  1  0  0  0  0
 23 56  1  0  0  0  0
 24 29  1  0  0  0  0
 24 34  1  0  0  0  0
 25 57  1  0  0  0  0
 25 58  1  0  0  0  0
 25 59  1  0  0  0  0
 26 60  1  0  0  0  0
 27 61  1  0  0  0  0
 27 62  1  0  0  0  0
 27 63  1  0  0  0  0
 28 32  1  0  0  0  0
 28 64  1  0  0  0  0
 28 65  1  0  0  0  0
 29 32  1  0  0  0  0
 29 35  1  0  0  0  0
 29 66  1  0  0  0  0
 30 69  1  0  0  0  0
 30 70  1  0  0  0  0
 30 71  1  0  0  0  0
 31 72  1  0  0  0  0
 31 73  1  0  0  0  0
 31 74  1  0  0  0  0
 32 67  1  0  0  0  0
 32 68  1  0  0  0  0
 34 75  1  0  0  0  0
 34 76  1  0  0  0  0
 34 77  1  0  0  0  0
 35 79  1  0  0  0  0
 35 80  1  0  0  0  0
 35 81  1  0  0  0  0
 36 84  1  0  0  0  0
 36 85  1  0  0  0  0
 36 86  1  0  0  0  0
M  END
> <PUBCHEM_COMPOUND_CID>
14314585

> <PUBCHEM_CONFORMER_RMSD>
0.8

> <PUBCHEM_CONFORMER_DIVERSEORDER>
1

> <PUBCHEM_MMFF94_PARTIAL_CHARGES>
20
1 -0.68
12 -0.28
14 0.14
16 0.14
18 0.06
2 -0.68
22 0.28
23 -0.29
24 0.28
26 0.28
3 -0.68
33 0.66
36 0.28
4 -0.43
5 -0.57
56 0.15
78 0.4
82 0.4
83 0.4
9 0.14

> <PUBCHEM_EFFECTIVE_ROTOR_COUNT>
4.6

> <PUBCHEM_PHARMACOPHORE_FEATURES>
13
1 1 acceptor
1 1 donor
1 2 acceptor
1 2 donor
1 3 acceptor
1 3 donor
1 5 acceptor
3 15 30 31 hydrophobe
6 14 18 24 28 29 32 rings
6 6 7 8 10 11 13 rings
6 6 7 9 12 16 23 rings
6 8 10 15 19 22 26 rings
6 9 12 14 17 18 20 rings

> <PUBCHEM_HEAVY_ATOM_COUNT>
36

> <PUBCHEM_ATOM_DEF_STEREO_COUNT>
11

> <PUBCHEM_ATOM_UDEF_STEREO_COUNT>
0

> <PUBCHEM_BOND_DEF_STEREO_COUNT>
0

> <PUBCHEM_BOND_UDEF_STEREO_COUNT>
0

> <PUBCHEM_ISOTOPIC_ATOM_COUNT>
0

> <PUBCHEM_COMPONENT_COUNT>
1

> <PUBCHEM_CACTVS_TAUTO_COUNT>
1

> <PUBCHEM_CONFORMER_ID>
00DA6C5900000001

> <PUBCHEM_MMFF94_ENERGY>
165.6357

> <PUBCHEM_FEATURE_SELFOVERLAP>
66.052

> <PUBCHEM_SHAPE_FINGERPRINT>
10595046 47 18336546126817644990
10675989 125 17482001025692425369
10906281 52 17531263741994296626
11115154 58 18122047961887253111
12107183 9 17829319190642351002
12236239 1 18408322172532141402
12422481 6 17896033252679699092
12616971 3 18187080646330888378
12633257 1 17676767578906604536
12788726 201 18268147745947649167
13224815 77 18113056034496323382
13583140 156 17274813658089253166
13690498 29 17986950941869039727
13782708 43 17202758336121154607
14068700 675 18124306366922620703
14394314 77 18187370883395246429
14790565 3 18260832596450954796
14849402 71 18114466755919789852
14856354 85 18272088348577028735
15131766 46 15070914154884320151
15183329 4 17967531263997440736
15250474 111 18336535092751944418
15361156 5 18113913632587167662
15484559 13 15080393770133912935
15788980 27 18409450280300243330
15840311 113 18117003178752116029
17349148 13 17530677723602703770
17980427 23 18114186349434355101
19319366 153 18115303359413256755
19377110 9 18259700112105942656
20511986 3 18187917361757807441
21033648 144 17385720344106369126
21033648 29 16415191248120556129
21236236 1 18335138700188788197
23522609 53 17969244311904710164
23559900 14 17916030066596932270
23569914 152 13609493579889446225
23569943 247 16444453578074067922
24771293 8 18188205512037252076
32027 91 17771641057155501902
34797466 226 17988655111381509788
3504750 166 18337939130640970718
3633792 109 17749094579527397695
392239 28 18040991826609991572
4015057 19 17313946458333349772
4073 2 17676498289052806192
4169191 19 17168711976675010716
5028188 123 18411427233231494926
5104073 3 17749114395768257216
5171179 24 17914045654230394681
6086070 43 18270952535469233880
6700243 42 17698759056965873959
86090 222 14708057532374874392

> <PUBCHEM_SHAPE_MULTIPOLES>
711.52
15.35
3.29
1.71
11.32
0.55
-0.15
-4.94
-1.92
-4.44
0.92
0.67
0.34
-2.36

> <PUBCHEM_SHAPE_SELFOVERLAP>
1510.81

> <PUBCHEM_SHAPE_VOLUME>
393.2

> <PUBCHEM_COORDINATE_TYPE>
2
5
10

$$$$
