21672621
  -OEChem-09062012533D

 85 89  0     1  0  0  0  0  0999 V2000
    7.1012   -0.8772    0.1483 O   0  0  0  0  0  0  0  0  0  0  0  0
    4.8252   -2.4902   -0.3642 O   0  0  0  0  0  0  0  0  0  0  0  0
   -4.3360    2.7934    0.0915 O   0  0  0  0  0  0  0  0  0  0  0  0
   -3.0736    1.7749    1.7365 O   0  0  0  0  0  0  0  0  0  0  0  0
    0.5684    0.7884   -0.3409 C   0  0  2  0  0  0  0  0  0  0  0  0
    1.3625   -0.2420    0.5478 C   0  0  1  0  0  0  0  0  0  0  0  0
    2.9234    0.0044    0.7832 C   0  0  2  0  0  0  0  0  0  0  0  0
   -0.8639    0.1054   -0.7625 C   0  0  1  0  0  0  0  0  0  0  0  0
    3.5848    0.3529   -0.5948 C   0  0  1  0  0  0  0  0  0  0  0  0
    1.4104    1.1625   -1.5898 C   0  0  0  0  0  0  0  0  0  0  0  0
   -1.5789   -0.4540    0.4898 C   0  0  0  0  0  0  0  0  0  0  0  0
    2.8617    1.5276   -1.2834 C   0  0  0  0  0  0  0  0  0  0  0  0
    5.1596    0.4798   -0.5927 C   0  0  0  0  0  0  0  0  0  0  0  0
   -3.1017   -0.6839    0.4792 C   0  0  1  0  0  0  0  0  0  0  0  0
    0.5710   -0.5498    1.8366 C   0  0  0  0  0  0  0  0  0  0  0  0
    3.5440   -1.3350    1.3326 C   0  0  0  0  0  0  0  0  0  0  0  0
   -1.7550    1.1459   -1.5099 C   0  0  0  0  0  0  0  0  0  0  0  0
   -3.8344    0.5102   -0.1863 C   0  0  1  0  0  0  0  0  0  0  0  0
   -3.2462    0.7986   -1.5793 C   0  0  0  0  0  0  0  0  0  0  0  0
    0.3030    2.1080    0.4492 C   0  0  0  0  0  0  0  0  0  0  0  0
    5.7843   -0.4481    0.4983 C   0  0  1  0  0  0  0  0  0  0  0  0
   -0.9029   -0.7163    1.6269 C   0  0  0  0  0  0  0  0  0  0  0  0
    3.2069    1.0971    1.8452 C   0  0  0  0  0  0  0  0  0  0  0  0
    4.9442   -1.6849    0.8097 C   0  0  2  0  0  0  0  0  0  0  0  0
   -0.6613   -1.0915   -1.7385 C   0  0  0  0  0  0  0  0  0  0  0  0
   -3.5419   -2.0760   -0.0953 C   0  0  2  0  0  0  0  0  0  0  0  0
   -5.3556    0.2768   -0.2601 C   0  0  0  0  0  0  0  0  0  0  0  0
   -5.0878   -2.2229   -0.0679 C   0  0  1  0  0  0  0  0  0  0  0  0
    5.6813    0.1020   -2.0080 C   0  0  0  0  0  0  0  0  0  0  0  0
    5.6533    1.9249   -0.3398 C   0  0  0  0  0  0  0  0  0  0  0  0
   -5.7428   -1.0730   -0.8411 C   0  0  0  0  0  0  0  0  0  0  0  0
   -3.6870    1.7476    0.6781 C   0  0  0  0  0  0  0  0  0  0  0  0
   -2.8604   -3.2354    0.6496 C   0  0  0  0  0  0  0  0  0  0  0  0
   -5.5783   -3.5520   -0.6540 C   0  0  0  0  0  0  0  0  0  0  0  0
   -4.2776    4.0320    0.8060 C   0  0  0  0  0  0  0  0  0  0  0  0
    1.3499   -1.1745   -0.0322 H   0  0  0  0  0  0  0  0  0  0  0  0
    3.3722   -0.5205   -1.2322 H   0  0  0  0  0  0  0  0  0  0  0  0
    0.9417    1.9930   -2.1315 H   0  0  0  0  0  0  0  0  0  0  0  0
    1.4548    0.3303   -2.2962 H   0  0  0  0  0  0  0  0  0  0  0  0
    3.3466    1.7631   -2.2373 H   0  0  0  0  0  0  0  0  0  0  0  0
    2.9075    2.4421   -0.6853 H   0  0  0  0  0  0  0  0  0  0  0  0
   -3.4355   -0.7032    1.5298 H   0  0  0  0  0  0  0  0  0  0  0  0
    0.9544   -1.4685    2.2945 H   0  0  0  0  0  0  0  0  0  0  0  0
    0.6891    0.2451    2.5781 H   0  0  0  0  0  0  0  0  0  0  0  0
    2.8826   -2.1805    1.1060 H   0  0  0  0  0  0  0  0  0  0  0  0
    3.5860   -1.2822    2.4288 H   0  0  0  0  0  0  0  0  0  0  0  0
   -1.6943    2.1314   -1.0439 H   0  0  0  0  0  0  0  0  0  0  0  0
   -1.3829    1.2882   -2.5327 H   0  0  0  0  0  0  0  0  0  0  0  0
   -3.3878   -0.0605   -2.2441 H   0  0  0  0  0  0  0  0  0  0  0  0
   -3.7710    1.6316   -2.0647 H   0  0  0  0  0  0  0  0  0  0  0  0
   -0.0121    2.9217   -0.2125 H   0  0  0  0  0  0  0  0  0  0  0  0
    1.1893    2.4858    0.9511 H   0  0  0  0  0  0  0  0  0  0  0  0
   -0.4646    1.9962    1.2180 H   0  0  0  0  0  0  0  0  0  0  0  0
    5.9098    0.1165    1.4280 H   0  0  0  0  0  0  0  0  0  0  0  0
   -1.4466   -1.0832    2.4952 H   0  0  0  0  0  0  0  0  0  0  0  0
    4.2331    1.0530    2.2173 H   0  0  0  0  0  0  0  0  0  0  0  0
    2.5855    0.9865    2.7364 H   0  0  0  0  0  0  0  0  0  0  0  0
    3.0732    2.1102    1.4674 H   0  0  0  0  0  0  0  0  0  0  0  0
    5.4613   -2.3100    1.5476 H   0  0  0  0  0  0  0  0  0  0  0  0
   -0.1258   -0.8065   -2.6470 H   0  0  0  0  0  0  0  0  0  0  0  0
   -1.6086   -1.4900   -2.1044 H   0  0  0  0  0  0  0  0  0  0  0  0
   -0.1299   -1.9293   -1.2781 H   0  0  0  0  0  0  0  0  0  0  0  0
   -3.2409   -2.1515   -1.1430 H   0  0  0  0  0  0  0  0  0  0  0  0
   -5.7925    0.3542    0.7459 H   0  0  0  0  0  0  0  0  0  0  0  0
   -5.8447    1.0568   -0.8583 H   0  0  0  0  0  0  0  0  0  0  0  0
   -5.4276   -2.1764    0.9758 H   0  0  0  0  0  0  0  0  0  0  0  0
    5.2498    0.7453   -2.7818 H   0  0  0  0  0  0  0  0  0  0  0  0
    5.4358   -0.9314   -2.2704 H   0  0  0  0  0  0  0  0  0  0  0  0
    6.7693    0.2124   -2.0796 H   0  0  0  0  0  0  0  0  0  0  0  0
    5.2900    2.3278    0.6082 H   0  0  0  0  0  0  0  0  0  0  0  0
    6.7489    1.9595   -0.3050 H   0  0  0  0  0  0  0  0  0  0  0  0
    5.3394    2.6101   -1.1344 H   0  0  0  0  0  0  0  0  0  0  0  0
   -5.4661   -1.1210   -1.9013 H   0  0  0  0  0  0  0  0  0  0  0  0
   -6.8348   -1.1713   -0.8004 H   0  0  0  0  0  0  0  0  0  0  0  0
   -3.1432   -3.2455    1.7074 H   0  0  0  0  0  0  0  0  0  0  0  0
   -3.1258   -4.2041    0.2166 H   0  0  0  0  0  0  0  0  0  0  0  0
   -1.7705   -3.1718    0.5840 H   0  0  0  0  0  0  0  0  0  0  0  0
    7.4519   -1.3959    0.8922 H   0  0  0  0  0  0  0  0  0  0  0  0
    4.3500   -3.3021   -0.1185 H   0  0  0  0  0  0  0  0  0  0  0  0
   -5.1712   -3.7182   -1.6570 H   0  0  0  0  0  0  0  0  0  0  0  0
   -5.2947   -4.3982   -0.0215 H   0  0  0  0  0  0  0  0  0  0  0  0
   -6.6715   -3.5659   -0.7269 H   0  0  0  0  0  0  0  0  0  0  0  0
   -4.7473    3.9246    1.7884 H   0  0  0  0  0  0  0  0  0  0  0  0
   -3.2390    4.3612    0.9073 H   0  0  0  0  0  0  0  0  0  0  0  0
   -4.8294    4.7816    0.2327 H   0  0  0  0  0  0  0  0  0  0  0  0
  1 21  1  0  0  0  0
  1 78  1  0  0  0  0
  2 24  1  0  0  0  0
  2 79  1  0  0  0  0
  3 32  1  0  0  0  0
  3 35  1  0  0  0  0
  4 32  2  0  0  0  0
  5  6  1  0  0  0  0
  5  8  1  0  0  0  0
  5 10  1  0  0  0  0
  5 20  1  0  0  0  0
  6  7  1  0  0  0  0
  6 15  1  0  0  0  0
  6 36  1  0  0  0  0
  7  9  1  0  0  0  0
  7 16  1  0  0  0  0
  7 23  1  0  0  0  0
  8 11  1  0  0  0  0
  8 17  1  0  0  0  0
  8 25  1  0  0  0  0
  9 12  1  0  0  0  0
  9 13  1  0  0  0  0
  9 37  1  0  0  0  0
 10 12  1  0  0  0  0
 10 38  1  0  0  0  0
 10 39  1  0  0  0  0
 11 14  1  0  0  0  0
 11 22  2  0  0  0  0
 12 40  1  0  0  0  0
 12 41  1  0  0  0  0
 13 21  1  0  0  0  0
 13 29  1  0  0  0  0
 13 30  1  0  0  0  0
 14 18  1  0  0  0  0
 14 26  1  0  0  0  0
 14 42  1  0  0  0  0
 15 22  1  0  0  0  0
 15 43  1  0  0  0  0
 15 44  1  0  0  0  0
 16 24  1  0  0  0  0
 16 45  1  0  0  0  0
 16 46  1  0  0  0  0
 17 19  1  0  0  0  0
 17 47  1  0  0  0  0
 17 48  1  0  0  0  0
 18 19  1  0  0  0  0
 18 27  1  0  0  0  0
 18 32  1  0  0  0  0
 19 49  1  0  0  0  0
 19 50  1  0  0  0  0
 20 51  1  0  0  0  0
 20 52  1  0  0  0  0
 20 53  1  0  0  0  0
 21 24  1  0  0  0  0
 21 54  1  0  0  0  0
 22 55  1  0  0  0  0
 23 56  1  0  0  0  0
 23 57  1  0  0  0  0
 23 58  1  0  0  0  0
 24 59  1  0  0  0  0
 25 60  1  0  0  0  0
 25 61  1  0  0  0  0
 25 62  1  0  0  0  0
 26 28  1  0  0  0  0
 26 33  1  0  0  0  0
 26 63  1  0  0  0  0
 27 31  1  0  0  0  0
 27 64  1  0  0  0  0
 27 65  1  0  0  0  0
 28 31  1  0  0  0  0
 28 34  1  0  0  0  0
 28 66  1  0  0  0  0
 29 67  1  0  0  0  0
 29 68  1  0  0  0  0
 29 69  1  0  0  0  0
 30 70  1  0  0  0  0
 30 71  1  0  0  0  0
 30 72  1  0  0  0  0
 31 73  1  0  0  0  0
 31 74  1  0  0  0  0
 33 75  1  0  0  0  0
 33 76  1  0  0  0  0
 33 77  1  0  0  0  0
 34 80  1  0  0  0  0
 34 81  1  0  0  0  0
 34 82  1  0  0  0  0
 35 83  1  0  0  0  0
 35 84  1  0  0  0  0
 35 85  1  0  0  0  0
M  END
> <PUBCHEM_COMPOUND_CID>
21672621

> <PUBCHEM_CONFORMER_RMSD>
0.8

> <PUBCHEM_CONFORMER_DIVERSEORDER>
1
2

> <PUBCHEM_MMFF94_PARTIAL_CHARGES>
17
1 -0.68
11 -0.28
14 0.14
15 0.14
18 0.06
2 -0.68
21 0.28
22 -0.29
24 0.28
3 -0.43
32 0.66
35 0.28
4 -0.57
55 0.15
78 0.4
79 0.4
8 0.14

> <PUBCHEM_EFFECTIVE_ROTOR_COUNT>
4.6

> <PUBCHEM_PHARMACOPHORE_FEATURES>
11
1 1 acceptor
1 1 donor
1 2 acceptor
1 2 donor
1 4 acceptor
3 13 29 30 hydrophobe
6 14 18 26 27 28 31 rings
6 5 6 7 9 10 12 rings
6 5 6 8 11 15 22 rings
6 7 9 13 16 21 24 rings
6 8 11 14 17 18 19 rings

> <PUBCHEM_HEAVY_ATOM_COUNT>
35

> <PUBCHEM_ATOM_DEF_STEREO_COUNT>
11

> <PUBCHEM_ATOM_UDEF_STEREO_COUNT>
0

> <PUBCHEM_BOND_DEF_STEREO_COUNT>
0

> <PUBCHEM_BOND_UDEF_STEREO_COUNT>
0

> <PUBCHEM_ISOTOPIC_ATOM_COUNT>
0

> <PUBCHEM_COMPONENT_COUNT>
1

> <PUBCHEM_CACTVS_TAUTO_COUNT>
1

> <PUBCHEM_CONFORMER_ID>
014AB2AD00000001

> <PUBCHEM_MMFF94_ENERGY>
156.8194

> <PUBCHEM_FEATURE_SELFOVERLAP>
55.91

> <PUBCHEM_SHAPE_FINGERPRINT>
10369192 42 17694202771318522704
10595046 47 18408603695043525554
11545043 162 18060420218062008544
11796584 16 18271811173094631046
12107183 9 17975974267505095880
12107698 1 18342737463798363129
12166972 35 18335702779597802209
12236239 1 18335138708636389132
12596602 18 18412544344701923376
12633046 712 18270386214213878996
12741549 16 16702301287397737027
12788726 201 18410008884163681243
13583140 156 17703784816878218611
13782708 43 17704071828110362031
14068700 675 18338512066883504471
14347332 77 18339922714294883815
14790565 3 18191026690209968056
14840074 17 16805605862966138807
14856354 85 18342742931586844663
15082195 135 17677903512226589004
15183329 4 17749107790588505690
15250474 111 18261384529666121450
15439362 3 17838059195929544861
15799311 1 18337684035316234966
15876981 60 18409173216397871197
16990350 14 16902726549697996089
17349148 13 18341896290131723837
17844677 252 18341615944816113464
17857418 61 18187643639086413302
18393751 57 16618961848954965473
19958102 18 18260821618399067127
20511986 3 18187352255677932404
21033648 29 16774072955965473641
21033650 10 18194711235431732044
21130935 74 18338508661280855570
21267235 1 17968658332837540563
21703447 108 18053940929305181105
21814621 53 17845930733006547482
23522609 53 17897471452918881812
23559900 14 18265044928771508049
23569943 247 17024010572238263882
24771293 8 18186804708427430972
3004659 81 18040431093128564482
34797466 226 17988650739489852556
350125 39 18335138713474538795
3633792 109 17894618259067566479
497634 4 18334292072188366677
5326457 24 18408321068741812154
57527293 21 17129861875562929223
59755656 520 18336263436755852565
6009941 240 18059575711822955576
6086070 43 18271799103614543944
6700243 42 17700447851055230221

> <PUBCHEM_SHAPE_MULTIPOLES>
696.81
15.15
3.24
1.68
9.42
0.29
-0.05
-4.09
-2
-5.08
0.53
0.7
0.25
-1.58

> <PUBCHEM_SHAPE_SELFOVERLAP>
1475.682

> <PUBCHEM_SHAPE_VOLUME>
385.1

> <PUBCHEM_COORDINATE_TYPE>
2
5
10

$$$$
