101768915
  -OEChem-09062013063D

 81 85  0     1  0  0  0  0  0999 V2000
    6.2147   -1.4066    1.1617 O   0  0  0  0  0  0  0  0  0  0  0  0
   -4.5982    2.7336    0.9832 O   0  0  0  0  0  0  0  0  0  0  0  0
   -3.5188    1.1428    2.2081 O   0  0  0  0  0  0  0  0  0  0  0  0
    0.7565    0.7972   -0.0192 C   0  0  2  0  0  0  0  0  0  0  0  0
    1.4837   -0.6021   -0.0821 C   0  0  1  0  0  0  0  0  0  0  0  0
    3.0150   -0.6741    0.3543 C   0  0  2  0  0  0  0  0  0  0  0  0
   -0.6622    0.7099   -0.8159 C   0  0  1  0  0  0  0  0  0  0  0  0
    3.7825    0.4872   -0.3652 C   0  0  1  0  0  0  0  0  0  0  0  0
    1.6831    1.8713   -0.6473 C   0  0  0  0  0  0  0  0  0  0  0  0
    3.1153    1.8525   -0.1096 C   0  0  0  0  0  0  0  0  0  0  0  0
    5.3526    0.4877   -0.1859 C   0  0  0  0  0  0  0  0  0  0  0  0
    0.5879   -1.6805    0.5546 C   0  0  0  0  0  0  0  0  0  0  0  0
   -1.5151   -0.4638   -0.2598 C   0  0  0  0  0  0  0  0  0  0  0  0
    3.6024   -2.0446   -0.1433 C   0  0  0  0  0  0  0  0  0  0  0  0
   -1.4149    2.0720   -0.7008 C   0  0  0  0  0  0  0  0  0  0  0  0
   -0.7553   -1.7804   -0.1666 C   0  0  0  0  0  0  0  0  0  0  0  0
    0.4752    1.2188    1.4564 C   0  0  0  0  0  0  0  0  0  0  0  0
    5.9217   -0.9680   -0.1625 C   0  0  2  0  0  0  0  0  0  0  0  0
    3.1879   -0.6361    1.8907 C   0  0  0  0  0  0  0  0  0  0  0  0
   -3.6274    0.9431   -0.2117 C   0  0  1  0  0  0  0  0  0  0  0  0
   -2.8305   -0.3336    0.0622 C   0  0  0  0  0  0  0  0  0  0  0  0
    4.9753   -1.9663   -0.8213 C   0  0  0  0  0  0  0  0  0  0  0  0
   -2.8832    1.9724   -1.0818 C   0  0  0  0  0  0  0  0  0  0  0  0
   -0.4814    0.4417   -2.3414 C   0  0  0  0  0  0  0  0  0  0  0  0
    5.9660    1.1890   -1.4330 C   0  0  0  0  0  0  0  0  0  0  0  0
    5.8312    1.2934    1.0401 C   0  0  0  0  0  0  0  0  0  0  0  0
   -3.6737   -1.4303    0.7062 C   0  0  0  0  0  0  0  0  0  0  0  0
   -4.9773    0.6479   -0.9127 C   0  0  0  0  0  0  0  0  0  0  0  0
   -4.9536   -1.7726   -0.0864 C   0  0  0  0  0  0  0  0  0  0  0  0
   -5.7818   -0.4882   -0.2803 C   0  0  0  0  0  0  0  0  0  0  0  0
   -3.8894    1.5878    1.1320 C   0  0  0  0  0  0  0  0  0  0  0  0
   -5.7902   -2.7855    0.7184 C   0  0  0  0  0  0  0  0  0  0  0  0
   -4.5982   -2.4156   -1.4411 C   0  0  0  0  0  0  0  0  0  0  0  0
    1.5344   -0.8533   -1.1492 H   0  0  0  0  0  0  0  0  0  0  0  0
    3.6213    0.3000   -1.4401 H   0  0  0  0  0  0  0  0  0  0  0  0
    1.2686    2.8746   -0.4922 H   0  0  0  0  0  0  0  0  0  0  0  0
    1.7441    1.7329   -1.7321 H   0  0  0  0  0  0  0  0  0  0  0  0
    3.6666    2.6468   -0.6242 H   0  0  0  0  0  0  0  0  0  0  0  0
    3.1257    2.1147    0.9524 H   0  0  0  0  0  0  0  0  0  0  0  0
    0.4110   -1.4792    1.6163 H   0  0  0  0  0  0  0  0  0  0  0  0
    1.0712   -2.6624    0.5069 H   0  0  0  0  0  0  0  0  0  0  0  0
    2.9297   -2.5192   -0.8689 H   0  0  0  0  0  0  0  0  0  0  0  0
    3.6585   -2.7541    0.6930 H   0  0  0  0  0  0  0  0  0  0  0  0
   -0.9354    2.8281   -1.3349 H   0  0  0  0  0  0  0  0  0  0  0  0
   -1.3822    2.4722    0.3151 H   0  0  0  0  0  0  0  0  0  0  0  0
   -1.3152   -2.5757    0.3242 H   0  0  0  0  0  0  0  0  0  0  0  0
   -0.5846   -2.1476   -1.1869 H   0  0  0  0  0  0  0  0  0  0  0  0
    1.3257    1.0774    2.1150 H   0  0  0  0  0  0  0  0  0  0  0  0
    0.2381    2.2850    1.5355 H   0  0  0  0  0  0  0  0  0  0  0  0
   -0.3590    0.6663    1.8987 H   0  0  0  0  0  0  0  0  0  0  0  0
    6.8805   -0.9969   -0.6945 H   0  0  0  0  0  0  0  0  0  0  0  0
    3.1653    0.3740    2.2999 H   0  0  0  0  0  0  0  0  0  0  0  0
    4.1419   -1.0585    2.2109 H   0  0  0  0  0  0  0  0  0  0  0  0
    2.4271   -1.2275    2.4068 H   0  0  0  0  0  0  0  0  0  0  0  0
    5.4196   -2.9693   -0.8068 H   0  0  0  0  0  0  0  0  0  0  0  0
    4.8430   -1.7021   -1.8778 H   0  0  0  0  0  0  0  0  0  0  0  0
   -2.9553    1.6970   -2.1413 H   0  0  0  0  0  0  0  0  0  0  0  0
   -3.3322    2.9713   -1.0199 H   0  0  0  0  0  0  0  0  0  0  0  0
   -0.0596    1.3093   -2.8594 H   0  0  0  0  0  0  0  0  0  0  0  0
   -1.4405    0.2234   -2.8261 H   0  0  0  0  0  0  0  0  0  0  0  0
    0.1627   -0.4120   -2.5622 H   0  0  0  0  0  0  0  0  0  0  0  0
    5.5673    2.3532    0.9581 H   0  0  0  0  0  0  0  0  0  0  0  0
    5.7003    0.6650   -2.3580 H   0  0  0  0  0  0  0  0  0  0  0  0
    5.4102    0.9219    1.9767 H   0  0  0  0  0  0  0  0  0  0  0  0
    6.9230    1.2465    1.1324 H   0  0  0  0  0  0  0  0  0  0  0  0
    7.0607    1.2127   -1.3723 H   0  0  0  0  0  0  0  0  0  0  0  0
    5.6295    2.2260   -1.5282 H   0  0  0  0  0  0  0  0  0  0  0  0
   -3.1203   -2.3569    0.8638 H   0  0  0  0  0  0  0  0  0  0  0  0
   -3.9539   -1.1219    1.7201 H   0  0  0  0  0  0  0  0  0  0  0  0
   -4.7935    0.3872   -1.9636 H   0  0  0  0  0  0  0  0  0  0  0  0
   -5.6111    1.5434   -0.9436 H   0  0  0  0  0  0  0  0  0  0  0  0
   -6.1659   -0.1461    0.6900 H   0  0  0  0  0  0  0  0  0  0  0  0
   -6.6625   -0.6939   -0.9018 H   0  0  0  0  0  0  0  0  0  0  0  0
    6.5813   -2.3051    1.1021 H   0  0  0  0  0  0  0  0  0  0  0  0
   -6.7156   -3.0416    0.1902 H   0  0  0  0  0  0  0  0  0  0  0  0
   -5.5037   -2.6558   -2.0097 H   0  0  0  0  0  0  0  0  0  0  0  0
   -4.0410   -3.3485   -1.2963 H   0  0  0  0  0  0  0  0  0  0  0  0
   -6.0678   -2.3827    1.6990 H   0  0  0  0  0  0  0  0  0  0  0  0
   -3.9807   -1.7641   -2.0669 H   0  0  0  0  0  0  0  0  0  0  0  0
   -5.2335   -3.7143    0.8869 H   0  0  0  0  0  0  0  0  0  0  0  0
   -4.7792    3.1666    1.8445 H   0  0  0  0  0  0  0  0  0  0  0  0
  1 18  1  0  0  0  0
  1 74  1  0  0  0  0
  2 31  1  0  0  0  0
  2 81  1  0  0  0  0
  3 31  2  0  0  0  0
  4  5  1  0  0  0  0
  4  7  1  0  0  0  0
  4  9  1  0  0  0  0
  4 17  1  0  0  0  0
  5  6  1  0  0  0  0
  5 12  1  0  0  0  0
  5 34  1  0  0  0  0
  6  8  1  0  0  0  0
  6 14  1  0  0  0  0
  6 19  1  0  0  0  0
  7 13  1  0  0  0  0
  7 15  1  0  0  0  0
  7 24  1  0  0  0  0
  8 10  1  0  0  0  0
  8 11  1  0  0  0  0
  8 35  1  0  0  0  0
  9 10  1  0  0  0  0
  9 36  1  0  0  0  0
  9 37  1  0  0  0  0
 10 38  1  0  0  0  0
 10 39  1  0  0  0  0
 11 18  1  0  0  0  0
 11 25  1  0  0  0  0
 11 26  1  0  0  0  0
 12 16  1  0  0  0  0
 12 40  1  0  0  0  0
 12 41  1  0  0  0  0
 13 16  1  0  0  0  0
 13 21  2  0  0  0  0
 14 22  1  0  0  0  0
 14 42  1  0  0  0  0
 14 43  1  0  0  0  0
 15 23  1  0  0  0  0
 15 44  1  0  0  0  0
 15 45  1  0  0  0  0
 16 46  1  0  0  0  0
 16 47  1  0  0  0  0
 17 48  1  0  0  0  0
 17 49  1  0  0  0  0
 17 50  1  0  0  0  0
 18 22  1  0  0  0  0
 18 51  1  0  0  0  0
 19 52  1  0  0  0  0
 19 53  1  0  0  0  0
 19 54  1  0  0  0  0
 20 21  1  0  0  0  0
 20 23  1  0  0  0  0
 20 28  1  0  0  0  0
 20 31  1  0  0  0  0
 21 27  1  0  0  0  0
 22 55  1  0  0  0  0
 22 56  1  0  0  0  0
 23 57  1  0  0  0  0
 23 58  1  0  0  0  0
 24 59  1  0  0  0  0
 24 60  1  0  0  0  0
 24 61  1  0  0  0  0
 25 63  1  0  0  0  0
 25 66  1  0  0  0  0
 25 67  1  0  0  0  0
 26 62  1  0  0  0  0
 26 64  1  0  0  0  0
 26 65  1  0  0  0  0
 27 29  1  0  0  0  0
 27 68  1  0  0  0  0
 27 69  1  0  0  0  0
 28 30  1  0  0  0  0
 28 70  1  0  0  0  0
 28 71  1  0  0  0  0
 29 30  1  0  0  0  0
 29 32  1  0  0  0  0
 29 33  1  0  0  0  0
 30 72  1  0  0  0  0
 30 73  1  0  0  0  0
 32 75  1  0  0  0  0
 32 78  1  0  0  0  0
 32 80  1  0  0  0  0
 33 76  1  0  0  0  0
 33 77  1  0  0  0  0
 33 79  1  0  0  0  0
M  END
> <PUBCHEM_COMPOUND_CID>
101768915

> <PUBCHEM_CONFORMER_RMSD>
0.8

> <PUBCHEM_CONFORMER_DIVERSEORDER>
1

> <PUBCHEM_MMFF94_PARTIAL_CHARGES>
13
1 -0.68
13 -0.28
16 0.14
18 0.28
2 -0.65
20 0.2
21 -0.28
27 0.14
3 -0.57
31 0.66
7 0.14
74 0.4
81 0.5

> <PUBCHEM_EFFECTIVE_ROTOR_COUNT>
3.8

> <PUBCHEM_PHARMACOPHORE_FEATURES>
12
1 1 acceptor
1 1 donor
1 2 acceptor
1 3 acceptor
3 11 25 26 hydrophobe
3 2 3 31 anion
3 29 32 33 hydrophobe
6 20 21 27 28 29 30 rings
6 4 5 6 8 9 10 rings
6 4 5 7 12 13 16 rings
6 6 8 11 14 18 22 rings
6 7 13 15 20 21 23 rings

> <PUBCHEM_HEAVY_ATOM_COUNT>
33

> <PUBCHEM_ATOM_DEF_STEREO_COUNT>
7

> <PUBCHEM_ATOM_UDEF_STEREO_COUNT>
0

> <PUBCHEM_BOND_DEF_STEREO_COUNT>
0

> <PUBCHEM_BOND_UDEF_STEREO_COUNT>
0

> <PUBCHEM_ISOTOPIC_ATOM_COUNT>
0

> <PUBCHEM_COMPONENT_COUNT>
1

> <PUBCHEM_CACTVS_TAUTO_COUNT>
1

> <PUBCHEM_CONFORMER_ID>
0610DED300000001

> <PUBCHEM_MMFF94_ENERGY>
145.0371

> <PUBCHEM_FEATURE_SELFOVERLAP>
61.014

> <PUBCHEM_SHAPE_FINGERPRINT>
11007060 377 18188780564475011160
11135609 12 17749968768486166219
11135609 201 17772453832908888216
11488393 25 17773609217049475374
11578080 2 16372675242825939215
12107183 9 17908145378197707315
12107698 1 17275382123318811673
12166972 35 18271810163355499064
12236239 1 18187364345852595814
12516196 113 18411698811364130940
12596602 18 18202283610814501040
12633257 1 18335984147526982089
13073987 5 18272652350776071896
13224815 77 18113898247518200397
13583140 156 16845567591613149411
13782708 43 18408040702225333982
13811026 1 18334009515059745239
14068700 675 18270674402878568583
14341114 176 18341898502187678103
14347332 77 18342174509776535703
14790565 3 18408046195467016932
14856354 85 18412268315585287477
14955137 171 17988923375212910432
15183329 4 18408045096118718124
15196674 1 18408886226534711854
15361156 5 18114478781173304932
15788980 27 17748829596344148060
15799311 1 18339939120631961862
17349148 13 17060622200186661765
17844677 252 18131354119927655328
17857418 61 18335700559056927734
17899979 129 16887481868951224229
1813 80 17168143455468251564
18608769 82 18337952406795670172
20028762 73 18411415137465236190
21033648 29 16773500101754203427
21130935 74 18412259503077943266
21236236 1 18410856555803972591
21267235 1 18261397788825918367
22393880 68 18187356589088866236
23522609 53 18117025250288740604
23559900 14 18335692893073521973
24771293 8 18335703880053968180
32027 91 17979068280848047590
34797466 226 17060345171266032412
350125 39 18412265060268972121
3633792 109 18334565820988403821
3680242 22 18187925020338656786
392239 28 18334860468102329280
4073 2 18186806897726218938
4325135 7 18186521025409437182
497634 4 18411983555333323477
5104073 3 18411978044768619546
57724786 102 14189285023917544122
6086070 43 17750773541518696244
9849439 229 16481936943241491449
9996256 80 18409166614953417750

> <PUBCHEM_SHAPE_MULTIPOLES>
661.52
15.33
2.74
1.51
6.09
0.32
-0.1
4.09
-0.53
-1.98
-0.02
-0.17
-0.3
-0.65

> <PUBCHEM_SHAPE_SELFOVERLAP>
1409.669

> <PUBCHEM_SHAPE_VOLUME>
359.8

> <PUBCHEM_COORDINATE_TYPE>
2
5
10

$$$$
