14312996
  -OEChem-09062012383D

 84 88  0     1  0  0  0  0  0999 V2000
   -3.2281    2.1148    1.9533 O   0  0  0  0  0  0  0  0  0  0  0  0
   -5.2290    1.4247   -1.7466 O   0  0  0  0  0  0  0  0  0  0  0  0
   -5.5827    2.7916    0.6065 O   0  0  0  0  0  0  0  0  0  0  0  0
    3.7424    1.3830   -1.8962 O   0  0  0  0  0  0  0  0  0  0  0  0
    4.5857   -2.9162    0.9310 O   0  0  0  0  0  0  0  0  0  0  0  0
    3.4631   -1.4562    2.2743 O   0  0  0  0  0  0  0  0  0  0  0  0
   -0.5552   -1.1140   -0.0471 C   0  0  2  0  0  0  0  0  0  0  0  0
   -1.3466    0.1902    0.3682 C   0  0  1  0  0  0  0  0  0  0  0  0
   -2.9197    0.0372    0.6619 C   0  0  2  0  0  0  0  0  0  0  0  0
    0.9091   -0.6713   -0.6498 C   0  0  1  0  0  0  0  0  0  0  0  0
   -3.5311   -0.7329   -0.5740 C   0  0  1  0  0  0  0  0  0  0  0  0
   -1.3697   -1.9180   -1.0980 C   0  0  0  0  0  0  0  0  0  0  0  0
    1.6279    0.2913    0.3141 C   0  0  0  0  0  0  0  0  0  0  0  0
   -2.8496   -2.1027   -0.7629 C   0  0  0  0  0  0  0  0  0  0  0  0
   -5.1016   -0.7619   -0.6773 C   0  0  0  0  0  0  0  0  0  0  0  0
    3.1618    0.4553    0.2950 C   0  0  1  0  0  0  0  0  0  0  0  0
   -3.5813    1.4637    0.7279 C   0  0  1  0  0  0  0  0  0  0  0  0
   -0.5529    0.9790    1.4303 C   0  0  0  0  0  0  0  0  0  0  0  0
    1.7781   -1.9361   -0.9117 C   0  0  0  0  0  0  0  0  0  0  0  0
    3.9194   -0.8666   -0.0433 C   0  0  1  0  0  0  0  0  0  0  0  0
    3.2543   -1.6563   -1.1849 C   0  0  0  0  0  0  0  0  0  0  0  0
   -0.3524   -2.0505    1.1844 C   0  0  0  0  0  0  0  0  0  0  0  0
   -5.6338    0.6952   -0.5794 C   0  0  1  0  0  0  0  0  0  0  0  0
   -5.1167    1.4379    0.6523 C   0  0  2  0  0  0  0  0  0  0  0  0
    0.9323    0.9808    1.2412 C   0  0  0  0  0  0  0  0  0  0  0  0
   -3.1965   -0.6779    2.0121 C   0  0  0  0  0  0  0  0  0  0  0  0
    3.7524    1.6804   -0.4991 C   0  0  1  0  0  0  0  0  0  0  0  0
    0.7589    0.0763   -2.0059 C   0  0  0  0  0  0  0  0  0  0  0  0
    5.4034   -0.6126   -0.4110 C   0  0  0  0  0  0  0  0  0  0  0  0
    5.2347    1.9130   -0.0390 C   0  0  1  0  0  0  0  0  0  0  0  0
   -5.7833   -1.6526    0.3783 C   0  0  0  0  0  0  0  0  0  0  0  0
   -5.5276   -1.3322   -2.0597 C   0  0  0  0  0  0  0  0  0  0  0  0
    5.9732    0.6022    0.3125 C   0  0  0  0  0  0  0  0  0  0  0  0
    3.9464   -1.7495    1.1909 C   0  0  0  0  0  0  0  0  0  0  0  0
    2.9431    2.9734   -0.3036 C   0  0  0  0  0  0  0  0  0  0  0  0
    6.0718    2.7175   -1.0447 C   0  0  0  0  0  0  0  0  0  0  0  0
   -1.3314    0.8320   -0.5226 H   0  0  0  0  0  0  0  0  0  0  0  0
   -3.2216   -0.1434   -1.4531 H   0  0  0  0  0  0  0  0  0  0  0  0
   -0.9197   -2.9054   -1.2577 H   0  0  0  0  0  0  0  0  0  0  0  0
   -1.3453   -1.4183   -2.0697 H   0  0  0  0  0  0  0  0  0  0  0  0
   -3.2967   -2.6445   -1.6022 H   0  0  0  0  0  0  0  0  0  0  0  0
   -2.9706   -2.7527    0.1069 H   0  0  0  0  0  0  0  0  0  0  0  0
    3.4163    0.7047    1.3387 H   0  0  0  0  0  0  0  0  0  0  0  0
   -3.1865    2.0921   -0.0805 H   0  0  0  0  0  0  0  0  0  0  0  0
   -0.7427    0.6036    2.4387 H   0  0  0  0  0  0  0  0  0  0  0  0
   -0.8698    2.0272    1.4140 H   0  0  0  0  0  0  0  0  0  0  0  0
    1.3707   -2.4987   -1.7610 H   0  0  0  0  0  0  0  0  0  0  0  0
    1.7497   -2.6216   -0.0620 H   0  0  0  0  0  0  0  0  0  0  0  0
    3.7620   -2.6153   -1.3517 H   0  0  0  0  0  0  0  0  0  0  0  0
    3.3513   -1.1193   -2.1344 H   0  0  0  0  0  0  0  0  0  0  0  0
   -1.2741   -2.2502    1.7242 H   0  0  0  0  0  0  0  0  0  0  0  0
    0.0064   -3.0409    0.8855 H   0  0  0  0  0  0  0  0  0  0  0  0
    0.3615   -1.6489    1.9088 H   0  0  0  0  0  0  0  0  0  0  0  0
   -6.7311    0.7136   -0.5694 H   0  0  0  0  0  0  0  0  0  0  0  0
   -5.5445    1.0161    1.5658 H   0  0  0  0  0  0  0  0  0  0  0  0
    1.4688    1.6238    1.9362 H   0  0  0  0  0  0  0  0  0  0  0  0
   -2.4344   -0.4707    2.7655 H   0  0  0  0  0  0  0  0  0  0  0  0
   -4.1336   -0.3540    2.4717 H   0  0  0  0  0  0  0  0  0  0  0  0
   -3.2753   -1.7617    1.9186 H   0  0  0  0  0  0  0  0  0  0  0  0
    1.7187    0.3915   -2.4132 H   0  0  0  0  0  0  0  0  0  0  0  0
    0.3247   -0.5577   -2.7835 H   0  0  0  0  0  0  0  0  0  0  0  0
    0.1535    0.9831   -1.9274 H   0  0  0  0  0  0  0  0  0  0  0  0
    5.5406   -0.4960   -1.4909 H   0  0  0  0  0  0  0  0  0  0  0  0
    6.0415   -1.4699   -0.1632 H   0  0  0  0  0  0  0  0  0  0  0  0
    5.2107    2.5028    0.8886 H   0  0  0  0  0  0  0  0  0  0  0  0
   -5.7093   -1.2584    1.3910 H   0  0  0  0  0  0  0  0  0  0  0  0
   -6.8561   -1.7451    0.1680 H   0  0  0  0  0  0  0  0  0  0  0  0
   -5.3680   -2.6656    0.3789 H   0  0  0  0  0  0  0  0  0  0  0  0
   -4.9527   -0.8911   -2.8812 H   0  0  0  0  0  0  0  0  0  0  0  0
   -5.3917   -2.4179   -2.1099 H   0  0  0  0  0  0  0  0  0  0  0  0
   -6.5899   -1.1404   -2.2527 H   0  0  0  0  0  0  0  0  0  0  0  0
    5.8996    0.4342    1.3951 H   0  0  0  0  0  0  0  0  0  0  0  0
    7.0459    0.6882    0.1006 H   0  0  0  0  0  0  0  0  0  0  0  0
   -3.6379    2.9966    1.9433 H   0  0  0  0  0  0  0  0  0  0  0  0
    2.8890    3.2640    0.7499 H   0  0  0  0  0  0  0  0  0  0  0  0
    3.3857    3.8047   -0.8624 H   0  0  0  0  0  0  0  0  0  0  0  0
    1.9279    2.8718   -0.7016 H   0  0  0  0  0  0  0  0  0  0  0  0
   -5.8263    1.1783   -2.4728 H   0  0  0  0  0  0  0  0  0  0  0  0
   -5.2594    3.1878   -0.2208 H   0  0  0  0  0  0  0  0  0  0  0  0
    6.2926    2.1470   -1.9522 H   0  0  0  0  0  0  0  0  0  0  0  0
    5.5729    3.6460   -1.3352 H   0  0  0  0  0  0  0  0  0  0  0  0
    7.0330    2.9954   -0.5971 H   0  0  0  0  0  0  0  0  0  0  0  0
    4.5785    0.9887   -2.1775 H   0  0  0  0  0  0  0  0  0  0  0  0
    4.6140   -3.5013    1.7177 H   0  0  0  0  0  0  0  0  0  0  0  0
  1 17  1  0  0  0  0
  1 74  1  0  0  0  0
  2 23  1  0  0  0  0
  2 78  1  0  0  0  0
  3 24  1  0  0  0  0
  3 79  1  0  0  0  0
  4 27  1  0  0  0  0
  4 83  1  0  0  0  0
  5 34  1  0  0  0  0
  5 84  1  0  0  0  0
  6 34  2  0  0  0  0
  7  8  1  0  0  0  0
  7 10  1  0  0  0  0
  7 12  1  0  0  0  0
  7 22  1  0  0  0  0
  8  9  1  0  0  0  0
  8 18  1  0  0  0  0
  8 37  1  0  0  0  0
  9 11  1  0  0  0  0
  9 17  1  0  0  0  0
  9 26  1  0  0  0  0
 10 13  1  0  0  0  0
 10 19  1  0  0  0  0
 10 28  1  0  0  0  0
 11 14  1  0  0  0  0
 11 15  1  0  0  0  0
 11 38  1  0  0  0  0
 12 14  1  0  0  0  0
 12 39  1  0  0  0  0
 12 40  1  0  0  0  0
 13 16  1  0  0  0  0
 13 25  2  0  0  0  0
 14 41  1  0  0  0  0
 14 42  1  0  0  0  0
 15 23  1  0  0  0  0
 15 31  1  0  0  0  0
 15 32  1  0  0  0  0
 16 20  1  0  0  0  0
 16 27  1  0  0  0  0
 16 43  1  0  0  0  0
 17 24  1  0  0  0  0
 17 44  1  0  0  0  0
 18 25  1  0  0  0  0
 18 45  1  0  0  0  0
 18 46  1  0  0  0  0
 19 21  1  0  0  0  0
 19 47  1  0  0  0  0
 19 48  1  0  0  0  0
 20 21  1  0  0  0  0
 20 29  1  0  0  0  0
 20 34  1  0  0  0  0
 21 49  1  0  0  0  0
 21 50  1  0  0  0  0
 22 51  1  0  0  0  0
 22 52  1  0  0  0  0
 22 53  1  0  0  0  0
 23 24  1  0  0  0  0
 23 54  1  0  0  0  0
 24 55  1  0  0  0  0
 25 56  1  0  0  0  0
 26 57  1  0  0  0  0
 26 58  1  0  0  0  0
 26 59  1  0  0  0  0
 27 30  1  0  0  0  0
 27 35  1  0  0  0  0
 28 60  1  0  0  0  0
 28 61  1  0  0  0  0
 28 62  1  0  0  0  0
 29 33  1  0  0  0  0
 29 63  1  0  0  0  0
 29 64  1  0  0  0  0
 30 33  1  0  0  0  0
 30 36  1  0  0  0  0
 30 65  1  0  0  0  0
 31 66  1  0  0  0  0
 31 67  1  0  0  0  0
 31 68  1  0  0  0  0
 32 69  1  0  0  0  0
 32 70  1  0  0  0  0
 32 71  1  0  0  0  0
 33 72  1  0  0  0  0
 33 73  1  0  0  0  0
 35 75  1  0  0  0  0
 35 76  1  0  0  0  0
 35 77  1  0  0  0  0
 36 80  1  0  0  0  0
 36 81  1  0  0  0  0
 36 82  1  0  0  0  0
M  END
> <PUBCHEM_COMPOUND_CID>
14312996

> <PUBCHEM_CONFORMER_RMSD>
0.8

> <PUBCHEM_CONFORMER_DIVERSEORDER>
1

> <PUBCHEM_MMFF94_PARTIAL_CHARGES>
23
1 -0.68
10 0.14
13 -0.28
16 0.14
17 0.28
18 0.14
2 -0.68
20 0.06
23 0.28
24 0.28
25 -0.29
27 0.28
3 -0.68
34 0.66
4 -0.68
5 -0.65
56 0.15
6 -0.57
74 0.4
78 0.4
79 0.4
83 0.4
84 0.5

> <PUBCHEM_EFFECTIVE_ROTOR_COUNT>
3.6

> <PUBCHEM_PHARMACOPHORE_FEATURES>
17
1 1 acceptor
1 1 donor
1 2 acceptor
1 2 donor
1 3 acceptor
1 3 donor
1 4 acceptor
1 4 donor
1 5 acceptor
1 6 acceptor
3 15 31 32 hydrophobe
3 5 6 34 anion
6 10 13 16 19 20 21 rings
6 16 20 27 29 30 33 rings
6 7 8 10 13 18 25 rings
6 7 8 9 11 12 14 rings
6 9 11 15 17 23 24 rings

> <PUBCHEM_HEAVY_ATOM_COUNT>
36

> <PUBCHEM_ATOM_DEF_STEREO_COUNT>
12

> <PUBCHEM_ATOM_UDEF_STEREO_COUNT>
0

> <PUBCHEM_BOND_DEF_STEREO_COUNT>
0

> <PUBCHEM_BOND_UDEF_STEREO_COUNT>
0

> <PUBCHEM_ISOTOPIC_ATOM_COUNT>
0

> <PUBCHEM_COMPONENT_COUNT>
1

> <PUBCHEM_CACTVS_TAUTO_COUNT>
1

> <PUBCHEM_CONFORMER_ID>
00DA662400000001

> <PUBCHEM_MMFF94_ENERGY>
175.3724

> <PUBCHEM_FEATURE_SELFOVERLAP>
86.408

> <PUBCHEM_SHAPE_FINGERPRINT>
10554248 39 18340757140245603047
10595046 47 18411135874443161727
10906281 52 17775019976566911467
12107183 9 18051411773388259778
12166972 35 18131350808666021848
12236239 1 18410291410842714170
12422481 6 17822572703311468037
12596602 18 18260829310711608283
12788726 201 17989491813770260537
13224815 77 16845580802637074799
13583140 156 18113908198862454155
13690498 29 17558263495544693263
13782708 43 16878215368854763906
13785724 45 17906451022564877202
14068700 675 17842562847503159454
14118638 360 18408885174362604887
14294032 229 17488480606866291425
14739800 52 18129930304289296504
15082195 135 18131349743477462252
15183329 4 18334570239681549981
15788980 27 18334860498214547027
15840311 113 18188774942589557173
17349148 13 17775283863415018899
17980427 23 18335993025382794749
18608769 82 18270685393790056347
18681886 176 17988922301919128696
20511986 3 18340475751358024532
20715895 44 18198908002711520793
21033648 144 17967531285583157583
21033648 29 16081083758549071757
22149856 69 17489321776105834251
22393880 68 17703789283607419653
23522609 53 17772780331537438369
23559900 14 17845379856011581598
23569914 152 16911744842810389316
23569914 2 17175126500840462533
23569943 247 16951669304100214418
3004659 81 18342457019840357994
32027 91 17314220077852046818
34797466 226 15123498246436664043
350125 39 18202568406190990065
3633792 109 18187351139287311103
4015057 19 18335422395869573121
4058900 60 18409453591831214142
4073 2 18041285468627561578
4098825 35 18333729118372526745
4144715 1 18334868224644986811
4340502 62 18041276668830512938
460360 51 18200891569053903923
5104073 3 18259991457292195563
6086070 43 18043790040277865517
77296 10 18261111911027648975

> <PUBCHEM_SHAPE_MULTIPOLES>
705.65
15.16
2.92
1.76
2.79
0.65
-0.06
4.46
2.5
-1.14
-0.09
0.55
-0.18
-2.14

> <PUBCHEM_SHAPE_SELFOVERLAP>
1505.205

> <PUBCHEM_SHAPE_VOLUME>
386.1

> <PUBCHEM_COORDINATE_TYPE>
2
5
10

$$$$
