68107
  -OEChem-11212000393D

 27 28  0     1  0  0  0  0  0999 V2000
   -1.2685   -1.0505    1.3569 O   0  5  0  0  0  0  0  0  0  0  0  0
   -1.6390   -0.7275    0.0753 N   0  3  2  0  0  0  0  0  0  0  0  0
    2.5734    0.1324    1.3045 N   0  0  0  0  0  0  0  0  0  0  0  0
   -0.7482    0.3637   -0.5055 C   0  0  1  0  0  0  0  0  0  0  0  0
   -1.3966    1.6472    0.0114 C   0  0  0  0  0  0  0  0  0  0  0  0
   -3.0322   -0.1187    0.0971 C   0  0  0  0  0  0  0  0  0  0  0  0
   -2.8724    1.3659   -0.1996 C   0  0  0  0  0  0  0  0  0  0  0  0
    0.7370    0.2149   -0.2629 C   0  0  0  0  0  0  0  0  0  0  0  0
   -1.6120   -1.9738   -0.7589 C   0  0  0  0  0  0  0  0  0  0  0  0
    1.6189    0.0326   -1.3209 C   0  0  0  0  0  0  0  0  0  0  0  0
    1.2578    0.2576    1.0191 C   0  0  0  0  0  0  0  0  0  0  0  0
    2.9796   -0.1001   -1.0674 C   0  0  0  0  0  0  0  0  0  0  0  0
    3.4021   -0.0435    0.2510 C   0  0  0  0  0  0  0  0  0  0  0  0
   -0.9333    0.3136   -1.5889 H   0  0  0  0  0  0  0  0  0  0  0  0
   -1.0621    2.5343   -0.5352 H   0  0  0  0  0  0  0  0  0  0  0  0
   -1.1939    1.8080    1.0765 H   0  0  0  0  0  0  0  0  0  0  0  0
   -3.4537   -0.3007    1.0913 H   0  0  0  0  0  0  0  0  0  0  0  0
   -3.6489   -0.6142   -0.6591 H   0  0  0  0  0  0  0  0  0  0  0  0
   -3.5118    1.9858    0.4357 H   0  0  0  0  0  0  0  0  0  0  0  0
   -3.1492    1.5661   -1.2417 H   0  0  0  0  0  0  0  0  0  0  0  0
   -2.3071   -2.6843   -0.3030 H   0  0  0  0  0  0  0  0  0  0  0  0
   -1.9181   -1.7163   -1.7758 H   0  0  0  0  0  0  0  0  0  0  0  0
   -0.5917   -2.3646   -0.7368 H   0  0  0  0  0  0  0  0  0  0  0  0
    1.2616   -0.0088   -2.3460 H   0  0  0  0  0  0  0  0  0  0  0  0
    0.6384    0.4265    1.8931 H   0  0  0  0  0  0  0  0  0  0  0  0
    3.6871   -0.2434   -1.8761 H   0  0  0  0  0  0  0  0  0  0  0  0
    4.4532   -0.1417    0.5018 H   0  0  0  0  0  0  0  0  0  0  0  0
  1  2  1  0  0  0  0
  2  4  1  0  0  0  0
  2  6  1  0  0  0  0
  2  9  1  0  0  0  0
  3 11  1  0  0  0  0
  3 13  2  0  0  0  0
  4  5  1  0  0  0  0
  4  8  1  0  0  0  0
  4 14  1  0  0  0  0
  5  7  1  0  0  0  0
  5 15  1  0  0  0  0
  5 16  1  0  0  0  0
  6  7  1  0  0  0  0
  6 17  1  0  0  0  0
  6 18  1  0  0  0  0
  7 19  1  0  0  0  0
  7 20  1  0  0  0  0
  8 10  1  0  0  0  0
  8 11  2  0  0  0  0
  9 21  1  0  0  0  0
  9 22  1  0  0  0  0
  9 23  1  0  0  0  0
 10 12  2  0  0  0  0
 10 24  1  0  0  0  0
 11 25  1  0  0  0  0
 12 13  1  0  0  0  0
 12 26  1  0  0  0  0
 13 27  1  0  0  0  0
M  CHG  2   1  -1   2   1
M  END
> <PUBCHEM_COMPOUND_CID>
68107

> <PUBCHEM_CONFORMER_RMSD>
0.6

> <PUBCHEM_CONFORMER_DIVERSEORDER>
7
6
9
11
2
1
10
4
5
3
8

> <PUBCHEM_MMFF94_PARTIAL_CHARGES>
15
1 -0.75
10 -0.15
11 0.16
12 -0.15
13 0.16
2 -0.02
24 0.15
25 0.15
26 0.15
27 0.15
3 -0.62
4 0.4
6 0.26
8 -0.14
9 0.26

> <PUBCHEM_EFFECTIVE_ROTOR_COUNT>
2

> <PUBCHEM_PHARMACOPHORE_FEATURES>
4
1 1 anion
1 3 acceptor
5 2 4 5 6 7 rings
6 3 8 10 11 12 13 rings

> <PUBCHEM_HEAVY_ATOM_COUNT>
13

> <PUBCHEM_ATOM_DEF_STEREO_COUNT>
1

> <PUBCHEM_ATOM_UDEF_STEREO_COUNT>
1

> <PUBCHEM_BOND_DEF_STEREO_COUNT>
0

> <PUBCHEM_BOND_UDEF_STEREO_COUNT>
0

> <PUBCHEM_ISOTOPIC_ATOM_COUNT>
0

> <PUBCHEM_COMPONENT_COUNT>
1

> <PUBCHEM_CACTVS_TAUTO_COUNT>
1

> <PUBCHEM_CONFORMER_ID>
00010A0B00000007

> <PUBCHEM_MMFF94_ENERGY>
41.964

> <PUBCHEM_FEATURE_SELFOVERLAP>
20.297

> <PUBCHEM_SHAPE_FINGERPRINT>
12138202 97 18271516524920233533
124424 183 17774999038717160766
12500047 106 18343297042212669022
12716758 59 18271808982054486151
12932764 1 18272092712142306218
13024252 1 17458346351359110277
13538477 17 17676492769434300353
13581323 91 18333730208487072457
14144814 61 17458346325188607308
14993402 34 17603305934031412461
15219456 202 17703787033287110552
15279307 12 17385446518244886362
15669948 3 18335423499354096222
15775835 57 18188489064817771617
15852999 172 17917706864230116655
15906896 17 18186526505645613219
16945 1 18411134727845227205
18186145 218 17560521686169142873
19049666 15 17630617725439834340
19422 9 17458070352022662002
20201158 50 17346600750923553334
20279233 1 17917991672496860118
20524608 308 18272084989849143463
20645464 45 17989201538463575425
20645476 183 17603596222249528079
20653085 51 16558474063329712289
20715346 28 17561079250148880164
20871998 184 18340774831353142015
23402539 116 18201141188252860109
23559900 14 18201158750964814614
276578 36 18118129069535865065
3248919 1 17821726156672642282
369184 2 15626224619605275461
474 4 17025170763296009020
5084963 1 17775010127816297438
57812782 119 17489581251436517509
63268167 104 16153426168742350316
6333449 129 18272647944086885085
69090 78 17847053394344570551
74978 22 17603590767545928420
77492 1 17603304847246482764
8030462 33 17894628192641125850
81228 2 18270112556352109367

> <PUBCHEM_SHAPE_MULTIPOLES>
251.7
5.17
1.41
1.2
1.61
0.34
-0.15
-0.37
0.08
-1.31
0.15
0.59
0.09
0.38

> <PUBCHEM_SHAPE_SELFOVERLAP>
525.122

> <PUBCHEM_SHAPE_VOLUME>
144.4

> <PUBCHEM_COORDINATE_TYPE>
2
5
10

$$$$
