9817839
  -OEChem-09092013133D

 38 42  0     0  0  0  0  0  0999 V2000
    2.6928   -2.6970    0.2701 O   0  0  0  0  0  0  0  0  0  0  0  0
    0.8287   -1.3010    0.2533 N   0  0  0  0  0  0  0  0  0  0  0  0
    1.2332    1.0994    0.3795 N   0  0  0  0  0  0  0  0  0  0  0  0
   -1.7454    1.3437    0.1476 N   0  0  0  0  0  0  0  0  0  0  0  0
    0.3310    0.0226    0.2602 C   0  0  0  0  0  0  0  0  0  0  0  0
   -1.3993   -2.2966   -0.2797 C   0  0  0  0  0  0  0  0  0  0  0  0
   -0.0944   -2.4272    0.4903 C   0  0  0  0  0  0  0  0  0  0  0  0
   -1.9354   -0.9268   -0.0948 C   0  0  0  0  0  0  0  0  0  0  0  0
   -1.0128    0.1725    0.1337 C   0  0  0  0  0  0  0  0  0  0  0  0
   -3.1889   -0.4809   -0.1351 C   0  0  0  0  0  0  0  0  0  0  0  0
    2.2002   -1.5740    0.1794 C   0  0  0  0  0  0  0  0  0  0  0  0
    2.5990    0.8927    0.0638 C   0  0  0  0  0  0  0  0  0  0  0  0
    3.0990   -0.4165   -0.0453 C   0  0  0  0  0  0  0  0  0  0  0  0
   -2.9812    0.9690    0.0161 C   0  0  0  0  0  0  0  0  0  0  0  0
    0.8602    2.4468    0.8171 C   0  0  0  0  0  0  0  0  0  0  0  0
   -4.4842   -1.0439   -0.3284 C   0  0  0  0  0  0  0  0  0  0  0  0
    3.5036    1.9460   -0.1768 C   0  0  0  0  0  0  0  0  0  0  0  0
    4.4474   -0.6609   -0.3517 C   0  0  0  0  0  0  0  0  0  0  0  0
   -4.1922    1.8185   -0.0131 C   0  0  0  0  0  0  0  0  0  0  0  0
   -5.5406   -0.2150   -0.3470 C   0  0  0  0  0  0  0  0  0  0  0  0
    4.8456    1.7048   -0.4863 C   0  0  0  0  0  0  0  0  0  0  0  0
    5.3179    0.4018   -0.5698 C   0  0  0  0  0  0  0  0  0  0  0  0
   -5.3843    1.2220   -0.1833 C   0  0  0  0  0  0  0  0  0  0  0  0
   -0.2828   -2.4588    1.5716 H   0  0  0  0  0  0  0  0  0  0  0  0
    0.3890   -3.3744    0.2263 H   0  0  0  0  0  0  0  0  0  0  0  0
   -2.1113   -3.0603    0.0506 H   0  0  0  0  0  0  0  0  0  0  0  0
   -1.2062   -2.4593   -1.3474 H   0  0  0  0  0  0  0  0  0  0  0  0
    0.6541    3.0909   -0.0443 H   0  0  0  0  0  0  0  0  0  0  0  0
    1.6383    2.9092    1.4363 H   0  0  0  0  0  0  0  0  0  0  0  0
   -0.0197    2.4333    1.4683 H   0  0  0  0  0  0  0  0  0  0  0  0
   -4.6004   -2.1131   -0.4564 H   0  0  0  0  0  0  0  0  0  0  0  0
    3.1834    2.9847   -0.1473 H   0  0  0  0  0  0  0  0  0  0  0  0
    4.8350   -1.6731   -0.4307 H   0  0  0  0  0  0  0  0  0  0  0  0
   -4.0890    2.8898    0.1025 H   0  0  0  0  0  0  0  0  0  0  0  0
   -6.5446   -0.5993   -0.4908 H   0  0  0  0  0  0  0  0  0  0  0  0
    5.5176    2.5390   -0.6662 H   0  0  0  0  0  0  0  0  0  0  0  0
    6.3597    0.2131   -0.8105 H   0  0  0  0  0  0  0  0  0  0  0  0
   -6.2903    1.8192   -0.2088 H   0  0  0  0  0  0  0  0  0  0  0  0
  1 11  2  0  0  0  0
  2  5  1  0  0  0  0
  2  7  1  0  0  0  0
  2 11  1  0  0  0  0
  3  5  1  0  0  0  0
  3 12  1  0  0  0  0
  3 15  1  0  0  0  0
  4  9  1  0  0  0  0
  4 14  2  0  0  0  0
  5  9  2  0  0  0  0
  6  7  1  0  0  0  0
  6  8  1  0  0  0  0
  6 26  1  0  0  0  0
  6 27  1  0  0  0  0
  7 24  1  0  0  0  0
  7 25  1  0  0  0  0
  8  9  1  0  0  0  0
  8 10  2  0  0  0  0
 10 14  1  0  0  0  0
 10 16  1  0  0  0  0
 11 13  1  0  0  0  0
 12 13  1  0  0  0  0
 12 17  2  0  0  0  0
 13 18  2  0  0  0  0
 14 19  1  0  0  0  0
 15 28  1  0  0  0  0
 15 29  1  0  0  0  0
 15 30  1  0  0  0  0
 16 20  2  0  0  0  0
 16 31  1  0  0  0  0
 17 21  1  0  0  0  0
 17 32  1  0  0  0  0
 18 22  1  0  0  0  0
 18 33  1  0  0  0  0
 19 23  2  0  0  0  0
 19 34  1  0  0  0  0
 20 23  1  0  0  0  0
 20 35  1  0  0  0  0
 21 22  2  0  0  0  0
 21 36  1  0  0  0  0
 22 37  1  0  0  0  0
 23 38  1  0  0  0  0
M  END
> <PUBCHEM_COMPOUND_CID>
9817839

> <PUBCHEM_CONFORMER_RMSD>
0.6

> <PUBCHEM_CONFORMER_DIVERSEORDER>
1
2

> <PUBCHEM_MMFF94_PARTIAL_CHARGES>
31
1 -0.57
10 0.01
11 0.54
12 0.1
13 0.09
14 0.42
15 0.37
16 -0.15
17 -0.15
18 -0.15
19 -0.14
2 -0.47
20 -0.15
21 -0.15
22 -0.15
23 -0.15
3 -0.57
31 0.15
32 0.15
33 0.15
34 0.15
35 0.15
36 0.15
37 0.15
38 0.15
4 -0.62
5 0.21
6 0.14
7 0.3
8 -0.14
9 0.17

> <PUBCHEM_EFFECTIVE_ROTOR_COUNT>
0.6

> <PUBCHEM_PHARMACOPHORE_FEATURES>
8
1 1 acceptor
1 3 cation
1 4 acceptor
5 4 8 9 10 14 rings
6 10 14 16 19 20 23 rings
6 12 13 17 18 21 22 rings
6 2 3 5 11 12 13 rings
6 2 5 6 7 8 9 rings

> <PUBCHEM_HEAVY_ATOM_COUNT>
23

> <PUBCHEM_ATOM_DEF_STEREO_COUNT>
0

> <PUBCHEM_ATOM_UDEF_STEREO_COUNT>
0

> <PUBCHEM_BOND_DEF_STEREO_COUNT>
0

> <PUBCHEM_BOND_UDEF_STEREO_COUNT>
0

> <PUBCHEM_ISOTOPIC_ATOM_COUNT>
0

> <PUBCHEM_COMPONENT_COUNT>
1

> <PUBCHEM_CACTVS_TAUTO_COUNT>
1

> <PUBCHEM_CONFORMER_ID>
0095CEEF00000001

> <PUBCHEM_MMFF94_ENERGY>
80.3588

> <PUBCHEM_FEATURE_SELFOVERLAP>
40.872

> <PUBCHEM_SHAPE_FINGERPRINT>
10411042 1 17472698031460559114
10693767 8 18130509613916073478
10967382 1 18411417310701986666
11578080 2 16413214506734563746
11796584 16 14261629530218296117
12011746 2 18410575097621886149
12107183 9 17691408508054001969
12236239 1 17988925552602879113
12644460 14 18113898213090059794
12730499 353 18334303071151465571
12788726 201 17702952426441507217
12838862 33 18339060662687236560
13140716 1 18051120690379492040
13583140 156 16588022458873039441
138480 1 17833268623419808290
14528608 73 18410573998141913333
14790565 3 18411705348610576993
14931854 50 18413672404676733428
15099037 51 18413389847404855677
15196674 1 18410855460138724303
1601671 61 18410009922917817552
18608769 82 18264774440374089763
18681886 176 18272645762628646626
19591789 44 18339641243554981731
200 152 17989205953980171113
20612939 158 18336547118575217183
20645477 70 18271810090488475166
21267235 1 18412834581100616487
21279426 13 18339927021671971068
221357 26 18343862234271147301
22393880 68 18272087249001934750
23227448 37 18339924925680776183
23402539 116 18272085006728332437
23402655 69 18341892995670177295
23558518 356 17611462330466879848
23559900 14 18272369832592332872
3004659 81 18335986389979802502
335352 9 18409731742982792158
34934 24 18341608239818636618
350125 39 18411420622754891505
3545911 37 18408324393404701701
3680242 22 18335135346178091778
3759504 43 17895196648721918251
4073 2 18040442126055581467
4214541 1 18411700993402826109
4280585 95 17480593650698765622
474 4 17822014250083140996
495365 180 17417521527775390520
5104073 3 18408603639203650883
543358 83 18339927013229755216
59755656 215 18409450275762377854
59755656 520 17240481437851227130
6138700 20 18340491058748386494
9709674 26 18412550915727859094

> <PUBCHEM_SHAPE_MULTIPOLES>
452.52
11.43
2.63
0.71
2.93
0.56
0.01
-3.64
-2.52
-0.72
0.3
-0.12
-0.05
-0.3

> <PUBCHEM_SHAPE_SELFOVERLAP>
1033.026

> <PUBCHEM_SHAPE_VOLUME>
232.7

> <PUBCHEM_COORDINATE_TYPE>
2
5
10

$$$$
