5319750
  -OEChem-09092013363D

 62 63  0     0  0  0  0  0  0999 V2000
    3.3522   -1.0334   -2.9143 O   0  0  0  0  0  0  0  0  0  0  0  0
    1.9791   -1.2739    0.9196 N   0  0  0  0  0  0  0  0  0  0  0  0
   -1.0380   -2.3718    0.0589 C   0  0  0  0  0  0  0  0  0  0  0  0
    0.3395   -3.0185    0.2147 C   0  0  0  0  0  0  0  0  0  0  0  0
   -2.1534   -3.3551    0.4219 C   0  0  0  0  0  0  0  0  0  0  0  0
    1.4411   -2.0653   -0.1061 C   0  0  0  0  0  0  0  0  0  0  0  0
   -3.5582   -2.7577    0.2952 C   0  0  0  0  0  0  0  0  0  0  0  0
    3.0301   -0.3579    0.6306 C   0  0  0  0  0  0  0  0  0  0  0  0
   -3.7773   -1.5271    1.1785 C   0  0  0  0  0  0  0  0  0  0  0  0
    1.8663   -2.0143   -1.3805 C   0  0  0  0  0  0  0  0  0  0  0  0
    3.5278   -0.2492   -0.6855 C   0  0  0  0  0  0  0  0  0  0  0  0
    2.9534   -1.0899   -1.7580 C   0  0  0  0  0  0  0  0  0  0  0  0
    1.5220   -1.3248    2.3111 C   0  0  0  0  0  0  0  0  0  0  0  0
    3.6236    0.4724    1.6018 C   0  0  0  0  0  0  0  0  0  0  0  0
   -5.1891   -1.0271    1.0676 C   0  0  0  0  0  0  0  0  0  0  0  0
   -1.3351    1.9655   -0.6783 C   0  0  0  0  0  0  0  0  0  0  0  0
   -0.8653    3.1944    0.1091 C   0  0  0  0  0  0  0  0  0  0  0  0
    4.5615    0.6400   -1.0137 C   0  0  0  0  0  0  0  0  0  0  0  0
   -2.3988    2.2369   -1.7473 C   0  0  0  0  0  0  0  0  0  0  0  0
    0.2556    2.8869    1.1028 C   0  0  0  0  0  0  0  0  0  0  0  0
    4.6551    1.3607    1.2772 C   0  0  0  0  0  0  0  0  0  0  0  0
   -5.5938   -0.1287    0.1572 C   0  0  0  0  0  0  0  0  0  0  0  0
    5.1231    1.4442   -0.0284 C   0  0  0  0  0  0  0  0  0  0  0  0
   -4.6849    0.4892   -0.8649 C   0  0  0  0  0  0  0  0  0  0  0  0
   -3.6826    2.7664   -1.1773 C   0  0  0  0  0  0  0  0  0  0  0  0
   -4.7016    1.9877   -0.7840 C   0  0  0  0  0  0  0  0  0  0  0  0
    0.7479    4.1504    1.7920 C   0  0  0  0  0  0  0  0  0  0  0  0
   -1.0844   -1.4902    0.7066 H   0  0  0  0  0  0  0  0  0  0  0  0
   -1.1809   -2.0223   -0.9712 H   0  0  0  0  0  0  0  0  0  0  0  0
    0.3865   -3.8739   -0.4759 H   0  0  0  0  0  0  0  0  0  0  0  0
    0.4639   -3.4854    1.1971 H   0  0  0  0  0  0  0  0  0  0  0  0
   -2.0081   -3.7082    1.4504 H   0  0  0  0  0  0  0  0  0  0  0  0
   -2.0883   -4.2367   -0.2273 H   0  0  0  0  0  0  0  0  0  0  0  0
   -4.2893   -3.5338    0.5557 H   0  0  0  0  0  0  0  0  0  0  0  0
   -3.7385   -2.4994   -0.7560 H   0  0  0  0  0  0  0  0  0  0  0  0
   -3.6001   -1.7997    2.2269 H   0  0  0  0  0  0  0  0  0  0  0  0
   -3.0624   -0.7285    0.9680 H   0  0  0  0  0  0  0  0  0  0  0  0
    1.4400   -2.6295   -2.1653 H   0  0  0  0  0  0  0  0  0  0  0  0
    0.6372   -1.9437    2.4730 H   0  0  0  0  0  0  0  0  0  0  0  0
    1.2282   -0.3276    2.6606 H   0  0  0  0  0  0  0  0  0  0  0  0
    2.3110   -1.7208    2.9606 H   0  0  0  0  0  0  0  0  0  0  0  0
    3.3076    0.4508    2.6413 H   0  0  0  0  0  0  0  0  0  0  0  0
   -5.9213   -1.4422    1.7551 H   0  0  0  0  0  0  0  0  0  0  0  0
   -1.7023    1.2115    0.0286 H   0  0  0  0  0  0  0  0  0  0  0  0
   -0.4652    1.5182   -1.1764 H   0  0  0  0  0  0  0  0  0  0  0  0
   -0.5189    3.9559   -0.6007 H   0  0  0  0  0  0  0  0  0  0  0  0
   -1.7119    3.6300    0.6531 H   0  0  0  0  0  0  0  0  0  0  0  0
    4.9389    0.7175   -2.0297 H   0  0  0  0  0  0  0  0  0  0  0  0
   -2.5704    1.3266   -2.3334 H   0  0  0  0  0  0  0  0  0  0  0  0
   -2.0141    2.9728   -2.4645 H   0  0  0  0  0  0  0  0  0  0  0  0
   -0.0997    2.1735    1.8552 H   0  0  0  0  0  0  0  0  0  0  0  0
    1.0950    2.4156    0.5789 H   0  0  0  0  0  0  0  0  0  0  0  0
    5.0915    1.9863    2.0507 H   0  0  0  0  0  0  0  0  0  0  0  0
   -6.6441    0.1528    0.1388 H   0  0  0  0  0  0  0  0  0  0  0  0
    5.9236    2.1340   -0.2777 H   0  0  0  0  0  0  0  0  0  0  0  0
   -5.0855    0.2086   -1.8481 H   0  0  0  0  0  0  0  0  0  0  0  0
   -3.6718    0.0888   -0.8300 H   0  0  0  0  0  0  0  0  0  0  0  0
   -3.7822    3.8448   -1.0870 H   0  0  0  0  0  0  0  0  0  0  0  0
   -5.6026    2.4762   -0.4196 H   0  0  0  0  0  0  0  0  0  0  0  0
    1.1423    4.8667    1.0642 H   0  0  0  0  0  0  0  0  0  0  0  0
   -0.0613    4.6345    2.3481 H   0  0  0  0  0  0  0  0  0  0  0  0
    1.5485    3.9082    2.4979 H   0  0  0  0  0  0  0  0  0  0  0  0
  1 12  2  0  0  0  0
  2  6  1  0  0  0  0
  2  8  1  0  0  0  0
  2 13  1  0  0  0  0
  3  4  1  0  0  0  0
  3  5  1  0  0  0  0
  3 28  1  0  0  0  0
  3 29  1  0  0  0  0
  4  6  1  0  0  0  0
  4 30  1  0  0  0  0
  4 31  1  0  0  0  0
  5  7  1  0  0  0  0
  5 32  1  0  0  0  0
  5 33  1  0  0  0  0
  6 10  2  0  0  0  0
  7  9  1  0  0  0  0
  7 34  1  0  0  0  0
  7 35  1  0  0  0  0
  8 11  1  0  0  0  0
  8 14  2  0  0  0  0
  9 15  1  0  0  0  0
  9 36  1  0  0  0  0
  9 37  1  0  0  0  0
 10 12  1  0  0  0  0
 10 38  1  0  0  0  0
 11 12  1  0  0  0  0
 11 18  2  0  0  0  0
 13 39  1  0  0  0  0
 13 40  1  0  0  0  0
 13 41  1  0  0  0  0
 14 21  1  0  0  0  0
 14 42  1  0  0  0  0
 15 22  2  0  0  0  0
 15 43  1  0  0  0  0
 16 17  1  0  0  0  0
 16 19  1  0  0  0  0
 16 44  1  0  0  0  0
 16 45  1  0  0  0  0
 17 20  1  0  0  0  0
 17 46  1  0  0  0  0
 17 47  1  0  0  0  0
 18 23  1  0  0  0  0
 18 48  1  0  0  0  0
 19 25  1  0  0  0  0
 19 49  1  0  0  0  0
 19 50  1  0  0  0  0
 20 27  1  0  0  0  0
 20 51  1  0  0  0  0
 20 52  1  0  0  0  0
 21 23  2  0  0  0  0
 21 53  1  0  0  0  0
 22 24  1  0  0  0  0
 22 54  1  0  0  0  0
 23 55  1  0  0  0  0
 24 26  1  0  0  0  0
 24 56  1  0  0  0  0
 24 57  1  0  0  0  0
 25 26  2  0  0  0  0
 25 58  1  0  0  0  0
 26 59  1  0  0  0  0
 27 60  1  0  0  0  0
 27 61  1  0  0  0  0
 27 62  1  0  0  0  0
M  END
> <PUBCHEM_COMPOUND_CID>
5319750

> <PUBCHEM_CONFORMER_RMSD>
1.2

> <PUBCHEM_CONFORMER_DIVERSEORDER>
1
96
346
109
138
127
331
298
251
162
383
128
75
26
268
264
120
343
133
313
350
206
94
339
216
377
324
56
151
312
252
248
404
102
280
267
299
332
171
309
144
236
160
209
232
101
140
2
249
372
18
178
74
28
184
382
316
48
93
173
292
137
221
320
325
25
220
295
328
212
402
352
311
172
282
79
254
195
103
27
247
150
131
386
389
12
126
263
159
142
406
175
125
116
100
367
304
67
135
53
215
269
391
113
281
194
291
169
15
270
314
183
139
360
134
306
278
305
143
164
405
99
45
192
234
42
238
233
342
202
277
54
394
7
105
375
225
355
168
260
224
21
253
243
301
29
353
293
98
297
287
181
317
338
244
255
207
315
318
68
371
200
119
114
265
271
158
201
395
193
89
303
6
76
129
356
294
327
384
196
250
176
400
286
401
81
185
275
122
124
246
378
46
83
302
19
345
357
13
95
262
35
123
177
333
242
366
57
369
86
245
62
41
203
163
40
359
11
50
319
396
330
59
373
23
91
289
347
32
61
58
279
80
52
393
84
190
108
334
276
219
198
223
64
8
388
222
368
326
60
34
337
73
179
152
38
358
63
51
31
351
349
239
290
348
154
82
284
118
132
258
39
148
266
214
77
257
106
36
141
37
285
147
43
308
213
274
174
117
87
156
78
16
231
208
161
9
55
235
110
180
187
300
361
336
226
381
47
362
354
22
392
90
189
69
329
199
205
72
370
155
191
14
376
136
364
30
92
88
130
97
4
186
390
107
283
182
240
398
111
157
296
374
85
237
197
17
380
387
228
323
146
385
10
104
204
24
363
322
256
403
229
145
33
379
365
261
65
153
341
307
149
340
397
70
121
273
241
20
230
211
5
188
3
218
217
335
227
399
210
166
167
310
170
44
112
344
272
115
288
165
49
259
321
71
66

> <PUBCHEM_MMFF94_PARTIAL_CHARGES>
29
1 -0.57
10 -0.14
11 0.09
12 0.47
13 0.37
14 -0.15
15 -0.29
18 -0.15
19 0.14
2 -0.57
21 -0.15
22 -0.29
23 -0.15
24 0.28
25 -0.29
26 -0.29
38 0.15
4 0.14
42 0.15
43 0.15
48 0.15
53 0.15
54 0.15
55 0.15
58 0.15
59 0.15
6 -0.04
8 0.1
9 0.14

> <PUBCHEM_EFFECTIVE_ROTOR_COUNT>
12

> <PUBCHEM_PHARMACOPHORE_FEATURES>
8
1 1 acceptor
1 2 cation
1 27 hydrophobe
3 3 4 5 hydrophobe
3 7 9 15 hydrophobe
5 16 17 19 20 25 hydrophobe
6 2 6 8 10 11 12 rings
6 8 11 14 18 21 23 rings

> <PUBCHEM_HEAVY_ATOM_COUNT>
27

> <PUBCHEM_ATOM_DEF_STEREO_COUNT>
0

> <PUBCHEM_ATOM_UDEF_STEREO_COUNT>
0

> <PUBCHEM_BOND_DEF_STEREO_COUNT>
2

> <PUBCHEM_BOND_UDEF_STEREO_COUNT>
0

> <PUBCHEM_ISOTOPIC_ATOM_COUNT>
0

> <PUBCHEM_COMPONENT_COUNT>
1

> <PUBCHEM_CACTVS_TAUTO_COUNT>
3

> <PUBCHEM_CONFORMER_ID>
00512C4600000001

> <PUBCHEM_MMFF94_ENERGY>
48.3917

> <PUBCHEM_FEATURE_SELFOVERLAP>
40.62

> <PUBCHEM_SHAPE_FINGERPRINT>
10498660 4 18410299073143550035
10670039 82 18114476577628826783
10675989 125 17471554548337304605
108634 29 18413107243141831758
10864689 126 18340765923390711437
11014199 57 17687746460156030515
11059048 146 17764599715913191729
11112241 14 17273680139211134449
11595378 159 17749106694965871223
12422481 6 17766537424974425432
13165053 103 16554287059433592318
13402501 40 18410852187816892985
13615921 28 17417819499716373345
13617811 41 17968371227227738757
13726171 33 18334300829485024897
144659 178 17473535850772571042
144659 39 16589127348179646101
15297060 5 17974597726624615359
161222 619 17986372589630333472
20764821 26 18194671571814565523
21302155 148 18187362117102140197
23559900 14 17830727652459175863
3052486 1 18113059350300714470
469060 322 17895495690568127993
508706 21 18337103570818327559
7808743 9 18335700589386066571
9543594 6 18120648299888931945

> <PUBCHEM_SHAPE_MULTIPOLES>
544.8
11.51
4.82
2
4.93
1.86
0.34
1.75
0.76
2.86
-0.94
-1.56
0.24
2.85

> <PUBCHEM_SHAPE_SELFOVERLAP>
1098.751

> <PUBCHEM_SHAPE_VOLUME>
318

> <PUBCHEM_COORDINATE_TYPE>
2
5
10

$$$$
