15225951
  -OEChem-09092014003D

 36 40  0     1  0  0  0  0  0999 V2000
   -0.1090   -2.5962   -1.4002 O   0  0  0  0  0  0  0  0  0  0  0  0
    2.8700   -2.4755    0.1071 O   0  0  0  0  0  0  0  0  0  0  0  0
    0.9671   -1.1189    0.0821 N   0  0  0  0  0  0  0  0  0  0  0  0
   -1.7228    1.4360   -0.2359 N   0  0  0  0  0  0  0  0  0  0  0  0
    1.1977    1.2565   -0.0461 N   0  0  0  0  0  0  0  0  0  0  0  0
   -1.8400   -0.7174    0.2859 C   0  0  0  0  0  0  0  0  0  0  0  0
   -1.3268   -2.0695    0.6294 C   0  0  0  0  0  0  0  0  0  0  0  0
    0.0561   -2.2858   -0.0141 C   0  0  1  0  0  0  0  0  0  0  0  0
   -0.9723    0.3168    0.0051 C   0  0  0  0  0  0  0  0  0  0  0  0
    0.4619    0.1916    0.0034 C   0  0  0  0  0  0  0  0  0  0  0  0
   -3.1669   -0.2170    0.1981 C   0  0  0  0  0  0  0  0  0  0  0  0
   -3.0645    1.1374   -0.1337 C   0  0  0  0  0  0  0  0  0  0  0  0
    2.3466   -1.3649    0.0994 C   0  0  0  0  0  0  0  0  0  0  0  0
    3.1998   -0.1568    0.0795 C   0  0  0  0  0  0  0  0  0  0  0  0
   -4.4485   -0.7766    0.3724 C   0  0  0  0  0  0  0  0  0  0  0  0
    2.5904    1.0996   -0.0027 C   0  0  0  0  0  0  0  0  0  0  0  0
   -4.1847    1.9586   -0.3041 C   0  0  0  0  0  0  0  0  0  0  0  0
   -5.5771    0.0338    0.2046 C   0  0  0  0  0  0  0  0  0  0  0  0
   -5.4449    1.3801   -0.1292 C   0  0  0  0  0  0  0  0  0  0  0  0
    4.5934   -0.2744    0.1275 C   0  0  0  0  0  0  0  0  0  0  0  0
    3.3993    2.2413   -0.0357 C   0  0  0  0  0  0  0  0  0  0  0  0
    5.3855    0.8724    0.0946 C   0  0  0  0  0  0  0  0  0  0  0  0
    4.7897    2.1290    0.0124 C   0  0  0  0  0  0  0  0  0  0  0  0
   -1.2337   -2.1321    1.7205 H   0  0  0  0  0  0  0  0  0  0  0  0
   -2.0311   -2.8412    0.2999 H   0  0  0  0  0  0  0  0  0  0  0  0
    0.5362   -3.1554    0.4485 H   0  0  0  0  0  0  0  0  0  0  0  0
   -1.3500    2.3478   -0.4629 H   0  0  0  0  0  0  0  0  0  0  0  0
   -4.5676   -1.8243    0.6332 H   0  0  0  0  0  0  0  0  0  0  0  0
   -4.0833    3.0076   -0.5614 H   0  0  0  0  0  0  0  0  0  0  0  0
   -0.6575   -3.3971   -1.4574 H   0  0  0  0  0  0  0  0  0  0  0  0
   -6.5676   -0.3934    0.3368 H   0  0  0  0  0  0  0  0  0  0  0  0
   -6.3350    1.9915   -0.2543 H   0  0  0  0  0  0  0  0  0  0  0  0
    5.0775   -1.2450    0.1896 H   0  0  0  0  0  0  0  0  0  0  0  0
    2.9490    3.2292   -0.0981 H   0  0  0  0  0  0  0  0  0  0  0  0
    6.4675    0.7861    0.1318 H   0  0  0  0  0  0  0  0  0  0  0  0
    5.4072    3.0222   -0.0136 H   0  0  0  0  0  0  0  0  0  0  0  0
  1  8  1  0  0  0  0
  1 30  1  0  0  0  0
  2 13  2  0  0  0  0
  3  8  1  0  0  0  0
  3 10  1  0  0  0  0
  3 13  1  0  0  0  0
  4  9  1  0  0  0  0
  4 12  1  0  0  0  0
  4 27  1  0  0  0  0
  5 10  2  0  0  0  0
  5 16  1  0  0  0  0
  6  7  1  0  0  0  0
  6  9  2  0  0  0  0
  6 11  1  0  0  0  0
  7  8  1  0  0  0  0
  7 24  1  0  0  0  0
  7 25  1  0  0  0  0
  8 26  1  0  0  0  0
  9 10  1  0  0  0  0
 11 12  1  0  0  0  0
 11 15  2  0  0  0  0
 12 17  2  0  0  0  0
 13 14  1  0  0  0  0
 14 16  1  0  0  0  0
 14 20  2  0  0  0  0
 15 18  1  0  0  0  0
 15 28  1  0  0  0  0
 16 21  2  0  0  0  0
 17 19  1  0  0  0  0
 17 29  1  0  0  0  0
 18 19  2  0  0  0  0
 18 31  1  0  0  0  0
 19 32  1  0  0  0  0
 20 22  1  0  0  0  0
 20 33  1  0  0  0  0
 21 23  1  0  0  0  0
 21 34  1  0  0  0  0
 22 23  2  0  0  0  0
 22 35  1  0  0  0  0
 23 36  1  0  0  0  0
M  END
> <PUBCHEM_COMPOUND_CID>
15225951

> <PUBCHEM_CONFORMER_RMSD>
0.6

> <PUBCHEM_CONFORMER_DIVERSEORDER>
1

> <PUBCHEM_MMFF94_PARTIAL_CHARGES>
32
1 -0.68
10 0.59
12 -0.15
13 0.54
14 0.09
15 -0.15
16 0.18
17 -0.15
18 -0.15
19 -0.15
2 -0.57
20 -0.15
21 -0.15
22 -0.15
23 -0.15
27 0.27
28 0.15
29 0.15
3 -0.42
30 0.4
31 0.15
32 0.15
33 0.15
34 0.15
35 0.15
36 0.15
4 0.03
5 -0.63
6 -0.18
7 0.18
8 0.58
9 -0.24

> <PUBCHEM_EFFECTIVE_ROTOR_COUNT>
0.4

> <PUBCHEM_PHARMACOPHORE_FEATURES>
10
1 1 acceptor
1 1 donor
1 2 acceptor
1 4 cation
1 4 donor
5 4 6 9 11 12 rings
6 11 12 15 17 18 19 rings
6 14 16 20 21 22 23 rings
6 3 5 10 13 14 16 rings
6 3 6 7 8 9 10 rings

> <PUBCHEM_HEAVY_ATOM_COUNT>
23

> <PUBCHEM_ATOM_DEF_STEREO_COUNT>
1

> <PUBCHEM_ATOM_UDEF_STEREO_COUNT>
0

> <PUBCHEM_BOND_DEF_STEREO_COUNT>
0

> <PUBCHEM_BOND_UDEF_STEREO_COUNT>
0

> <PUBCHEM_ISOTOPIC_ATOM_COUNT>
0

> <PUBCHEM_COMPONENT_COUNT>
1

> <PUBCHEM_CACTVS_TAUTO_COUNT>
4

> <PUBCHEM_CONFORMER_ID>
00E8545F00000001

> <PUBCHEM_MMFF94_ENERGY>
54.5142

> <PUBCHEM_FEATURE_SELFOVERLAP>
50.984

> <PUBCHEM_SHAPE_FINGERPRINT>
10 15 18188487003750739952
10411042 1 17473542451963815906
10967382 1 18410012130847265488
11595378 159 16588292848502696877
12107183 9 17691408508001390977
12236239 1 17775566425134525849
12403259 415 18114180770730916165
12592029 89 18335702719520663890
12788726 201 17560526105368867857
13140716 1 17977107082288465057
13402501 40 18409166614621439588
13785724 45 17833546795962424618
138480 1 17833550098528303346
14528608 73 18413387644260771253
14787075 74 18341327877291144843
14790565 3 18410860974924893737
15042514 8 18047195425848732755
15196674 1 18409167701194872323
1601671 61 18408041801641866876
17980427 23 17968382333632532853
1813 80 16442784613590669188
200 152 18131347488951733345
20645477 70 18342177709168488126
21033648 29 18342448287671160200
21236236 1 18268992149877470727
21267235 1 18409175402092404578
21279426 13 18266742389888057548
22182313 1 18196679429827992207
23227448 37 18340205305419636294
23402539 116 18341888623678508053
23558518 356 17612587131115354240
23559900 14 18339641114484748122
245318 6 17026580375652152780
3004659 81 18333733490686111920
335352 9 18410293602040744582
34934 24 18408600392313999298
350125 39 18336547131813878244
3545911 37 18408606963171012784
3680242 22 18334853866885100528
4073 2 17967540102776522275
4214541 1 18408041827205942321
4325135 7 18342172289568444775
474 4 18411700950400106921
474229 33 18411419540180312367
495365 180 17489297642604996016
5104073 3 18261116219164482953
59755656 215 18409735036916558116
6138700 20 18266181634927136022
633830 44 18341327778375002567
69090 78 18411698824275380626
7808743 9 18193554699950538928
8272917 22 18270965635161171678
9709674 26 18409454686625679995
9999458 23 18259705610323412518

> <PUBCHEM_SHAPE_MULTIPOLES>
446.65
11.69
2.63
0.7
2.39
0.75
-0.08
-6.23
0.58
-0.93
-0.28
0.1
0.2
0.32

> <PUBCHEM_SHAPE_SELFOVERLAP>
1026.257

> <PUBCHEM_SHAPE_VOLUME>
227.7

> <PUBCHEM_COORDINATE_TYPE>
2
5
10

$$$$
