185481
  -OEChem-09102002153D

 63 69  0     1  0  0  0  0  0999 V2000
   -1.8932    1.9217    1.4533 O   0  0  0  0  0  0  0  0  0  0  0  0
   -4.0176    1.4239   -0.3277 O   0  0  0  0  0  0  0  0  0  0  0  0
    4.3177   -0.7704   -1.2246 O   0  0  0  0  0  0  0  0  0  0  0  0
    2.8110   -2.5109    1.4372 O   0  0  0  0  0  0  0  0  0  0  0  0
    0.7835    3.2129    1.2706 O   0  0  0  0  0  0  0  0  0  0  0  0
    3.0459    3.3063   -0.1370 O   0  0  0  0  0  0  0  0  0  0  0  0
   -3.6467    3.5906   -0.9122 O   0  0  0  0  0  0  0  0  0  0  0  0
   -5.7116   -2.8261    0.1014 O   0  0  0  0  0  0  0  0  0  0  0  0
    3.3523   -4.5078    0.5578 O   0  0  0  0  0  0  0  0  0  0  0  0
   -1.2179    1.1164    0.4483 C   0  0  1  0  0  0  0  0  0  0  0  0
    0.2684    0.8705    0.9155 C   0  0  1  0  0  0  0  0  0  0  0  0
   -2.0316   -0.0698   -0.1270 C   0  0  1  0  0  0  0  0  0  0  0  0
    0.8494   -0.2912    0.0497 C   0  0  1  0  0  0  0  0  0  0  0  0
   -1.8711    2.4638    0.1468 C   0  0  1  0  0  0  0  0  0  0  0  0
    2.3970   -0.4519    0.0899 C   0  0  2  0  0  0  0  0  0  0  0  0
   -1.4736   -1.3768    0.4684 C   0  0  0  0  0  0  0  0  0  0  0  0
    0.0296   -1.5891    0.2135 C   0  0  0  0  0  0  0  0  0  0  0  0
   -3.5370    0.1703    0.2642 C   0  0  2  0  0  0  0  0  0  0  0  0
    3.0399    0.8979   -0.1853 C   0  0  0  0  0  0  0  0  0  0  0  0
    1.1373    2.1366    0.7812 C   0  0  0  0  0  0  0  0  0  0  0  0
    2.9531   -1.2260   -1.1093 C   0  0  2  0  0  0  0  0  0  0  0  0
    0.3085    0.5501    2.4380 C   0  0  0  0  0  0  0  0  0  0  0  0
   -1.9264   -0.1230   -1.6797 C   0  0  0  0  0  0  0  0  0  0  0  0
   -3.2425    2.5496   -0.4097 C   0  0  0  0  0  0  0  0  0  0  0  0
    2.9997   -1.0897    1.3496 C   0  0  0  0  0  0  0  0  0  0  0  0
    4.3039    0.6612   -0.9975 C   0  0  0  0  0  0  0  0  0  0  0  0
    2.4725    2.0793    0.1171 C   0  0  0  0  0  0  0  0  0  0  0  0
    2.9596   -2.7383   -0.9900 C   0  0  0  0  0  0  0  0  0  0  0  0
   -4.4899   -0.9598   -0.0754 C   0  0  0  0  0  0  0  0  0  0  0  0
    4.2822    1.3197   -2.3849 C   0  0  0  0  0  0  0  0  0  0  0  0
    5.5982    1.0068   -0.2592 C   0  0  0  0  0  0  0  0  0  0  0  0
    3.0983   -3.3163    0.3931 C   0  0  0  0  0  0  0  0  0  0  0  0
   -5.1912   -1.1352   -1.2849 C   0  0  0  0  0  0  0  0  0  0  0  0
   -4.8340   -2.0066    0.7374 C   0  0  0  0  0  0  0  0  0  0  0  0
   -5.9237   -2.2888   -1.1286 C   0  0  0  0  0  0  0  0  0  0  0  0
    0.6763    0.0380   -0.9819 H   0  0  0  0  0  0  0  0  0  0  0  0
   -1.2338    3.3114   -0.0620 H   0  0  0  0  0  0  0  0  0  0  0  0
   -2.0068   -2.2498    0.0735 H   0  0  0  0  0  0  0  0  0  0  0  0
   -1.6558   -1.3849    1.5503 H   0  0  0  0  0  0  0  0  0  0  0  0
    0.4132   -2.2054    1.0307 H   0  0  0  0  0  0  0  0  0  0  0  0
    0.1340   -2.1856   -0.6994 H   0  0  0  0  0  0  0  0  0  0  0  0
   -3.6224    0.3052    1.3519 H   0  0  0  0  0  0  0  0  0  0  0  0
    2.4488   -0.9563   -2.0475 H   0  0  0  0  0  0  0  0  0  0  0  0
    1.2970    0.7398    2.8671 H   0  0  0  0  0  0  0  0  0  0  0  0
   -0.3644    1.1904    3.0181 H   0  0  0  0  0  0  0  0  0  0  0  0
    0.0349   -0.4820    2.6670 H   0  0  0  0  0  0  0  0  0  0  0  0
   -2.4464   -1.0021   -2.0752 H   0  0  0  0  0  0  0  0  0  0  0  0
   -2.3639    0.7578   -2.1591 H   0  0  0  0  0  0  0  0  0  0  0  0
   -0.9070   -0.1843   -2.0573 H   0  0  0  0  0  0  0  0  0  0  0  0
    4.0804   -0.9247    1.4227 H   0  0  0  0  0  0  0  0  0  0  0  0
    2.5934   -0.6689    2.2659 H   0  0  0  0  0  0  0  0  0  0  0  0
    3.7791   -3.1473   -1.5933 H   0  0  0  0  0  0  0  0  0  0  0  0
    2.0202   -3.1358   -1.3886 H   0  0  0  0  0  0  0  0  0  0  0  0
    3.3588    1.0856   -2.9268 H   0  0  0  0  0  0  0  0  0  0  0  0
    4.3708    2.4088   -2.3201 H   0  0  0  0  0  0  0  0  0  0  0  0
    5.1065    0.9454   -3.0033 H   0  0  0  0  0  0  0  0  0  0  0  0
    5.6814    2.0827   -0.0744 H   0  0  0  0  0  0  0  0  0  0  0  0
    5.6657    0.4905    0.7037 H   0  0  0  0  0  0  0  0  0  0  0  0
    6.4722    0.6879   -0.8390 H   0  0  0  0  0  0  0  0  0  0  0  0
    2.4332    3.9946    0.1742 H   0  0  0  0  0  0  0  0  0  0  0  0
   -5.1732   -0.5084   -2.1650 H   0  0  0  0  0  0  0  0  0  0  0  0
   -4.5614   -2.3029    1.7400 H   0  0  0  0  0  0  0  0  0  0  0  0
   -6.6075   -2.8319   -1.7642 H   0  0  0  0  0  0  0  0  0  0  0  0
  1 10  1  0  0  0  0
  1 14  1  0  0  0  0
  2 18  1  0  0  0  0
  2 24  1  0  0  0  0
  3 21  1  0  0  0  0
  3 26  1  0  0  0  0
  4 25  1  0  0  0  0
  4 32  1  0  0  0  0
  5 20  2  0  0  0  0
  6 27  1  0  0  0  0
  6 60  1  0  0  0  0
  7 24  2  0  0  0  0
  8 34  1  0  0  0  0
  8 35  1  0  0  0  0
  9 32  2  0  0  0  0
 10 11  1  0  0  0  0
 10 12  1  0  0  0  0
 10 14  1  0  0  0  0
 11 13  1  0  0  0  0
 11 20  1  0  0  0  0
 11 22  1  0  0  0  0
 12 16  1  0  0  0  0
 12 18  1  0  0  0  0
 12 23  1  0  0  0  0
 13 15  1  0  0  0  0
 13 17  1  0  0  0  0
 13 36  1  0  0  0  0
 14 24  1  0  0  0  0
 14 37  1  0  0  0  0
 15 19  1  0  0  0  0
 15 21  1  0  0  0  0
 15 25  1  0  0  0  0
 16 17  1  0  0  0  0
 16 38  1  0  0  0  0
 16 39  1  0  0  0  0
 17 40  1  0  0  0  0
 17 41  1  0  0  0  0
 18 29  1  0  0  0  0
 18 42  1  0  0  0  0
 19 26  1  0  0  0  0
 19 27  2  0  0  0  0
 20 27  1  0  0  0  0
 21 28  1  0  0  0  0
 21 43  1  0  0  0  0
 22 44  1  0  0  0  0
 22 45  1  0  0  0  0
 22 46  1  0  0  0  0
 23 47  1  0  0  0  0
 23 48  1  0  0  0  0
 23 49  1  0  0  0  0
 25 50  1  0  0  0  0
 25 51  1  0  0  0  0
 26 30  1  0  0  0  0
 26 31  1  0  0  0  0
 28 32  1  0  0  0  0
 28 52  1  0  0  0  0
 28 53  1  0  0  0  0
 29 33  1  0  0  0  0
 29 34  2  0  0  0  0
 30 54  1  0  0  0  0
 30 55  1  0  0  0  0
 30 56  1  0  0  0  0
 31 57  1  0  0  0  0
 31 58  1  0  0  0  0
 31 59  1  0  0  0  0
 33 35  2  0  0  0  0
 33 61  1  0  0  0  0
 34 62  1  0  0  0  0
 35 63  1  0  0  0  0
M  END
> <PUBCHEM_COMPOUND_CID>
185481

> <PUBCHEM_CONFORMER_RMSD>
0.8

> <PUBCHEM_CONFORMER_DIVERSEORDER>
1

> <PUBCHEM_MMFF94_PARTIAL_CHARGES>
33
1 -0.3
10 -0.04
11 0.16
12 0.09
14 0.05
15 0.14
18 0.46
19 -0.28
2 -0.43
20 0.49
21 0.28
24 0.72
25 0.28
26 0.42
27 0.09
28 0.06
29 -0.18
3 -0.56
32 0.66
33 -0.15
34 -0.01
35 -0.01
37 0.1
4 -0.43
5 -0.57
6 -0.53
60 0.45
61 0.15
62 0.15
63 0.15
7 -0.57
8 -0.28
9 -0.57

> <PUBCHEM_EFFECTIVE_ROTOR_COUNT>
3

> <PUBCHEM_PHARMACOPHORE_FEATURES>
14
1 1 acceptor
1 3 acceptor
1 5 acceptor
1 6 donor
1 7 acceptor
1 8 acceptor
1 9 acceptor
3 26 30 31 hydrophobe
5 3 15 19 21 26 rings
5 8 29 33 34 35 rings
6 10 11 12 13 16 17 rings
6 11 13 15 19 20 27 rings
6 4 15 21 25 28 32 rings
7 1 2 10 12 14 18 24 rings

> <PUBCHEM_HEAVY_ATOM_COUNT>
35

> <PUBCHEM_ATOM_DEF_STEREO_COUNT>
8

> <PUBCHEM_ATOM_UDEF_STEREO_COUNT>
0

> <PUBCHEM_BOND_DEF_STEREO_COUNT>
0

> <PUBCHEM_BOND_UDEF_STEREO_COUNT>
0

> <PUBCHEM_ISOTOPIC_ATOM_COUNT>
0

> <PUBCHEM_COMPONENT_COUNT>
1

> <PUBCHEM_CACTVS_TAUTO_COUNT>
2

> <PUBCHEM_CONFORMER_ID>
0002D48900000001

> <PUBCHEM_MMFF94_ENERGY>
126.9764

> <PUBCHEM_FEATURE_SELFOVERLAP>
71.345

> <PUBCHEM_SHAPE_FINGERPRINT>
10074138 170 16686779704264212120
10366900 7 18263087759076287987
10928967 22 17917422159976517951
11578080 2 17532074030038973068
11963148 33 18265886041813395779
12160290 23 15982018709420489512
12166972 35 18259988171958549660
12553582 1 18060127778102545103
12788726 201 18409445903850018147
13140716 1 17910099545293822258
13150687 139 18046645661940945500
13224815 77 17917707942509403194
13911987 19 18045524121135380652
15082195 135 18186513320048860653
15276724 80 18409165494721412333
15664445 248 17604986090999637133
17492 89 18339075995493948275
17909252 39 18412824711371187995
19319366 153 18337952415228116294
20691752 17 16732988565964537076
20775438 99 17758909902295855309
21033648 29 14333129620516844083
221357 26 18342176708662595725
22182313 1 18058429024211538745
22393880 68 18339367361996048180
23559900 14 18054225432439472414
249057 3 17902510385574265589
25222932 49 18201997767766353886
345986 75 17704356567700002819
350125 39 18412547630394265265
3504750 166 16746200066458598850
3737641 26 18339933700889902755
4017518 198 16032670818364146718
404807 78 17462574123597463819
4280585 95 17764037870109686222
44062 13 18267302020000674327
444735 86 18339352067623067559
460360 51 18335702676765909667
46194498 28 18200882893172688596
463206 1 17985265432896927711
484989 97 18047764972676748250
57527295 17 18115318756712828186
59755656 215 18263921197459140015
633830 44 16951421909430254169
6669772 16 17983572198276234256
7399639 24 18195511808756561697

> <PUBCHEM_SHAPE_MULTIPOLES>
667.46
11.45
4.25
1.56
8.42
0.89
-0.03
5
-4.32
-0.68
0.45
-0.73
-0.12
-0.73

> <PUBCHEM_SHAPE_SELFOVERLAP>
1494.058

> <PUBCHEM_SHAPE_VOLUME>
349.5

> <PUBCHEM_COORDINATE_TYPE>
2
5
10

$$$$
