5319601
  -OEChem-09092013343D

 57 58  0     0  0  0  0  0  0999 V2000
   -5.3204    2.7700    0.7032 O   0  0  0  0  0  0  0  0  0  0  0  0
   -3.7673   -0.7569   -0.6348 N   0  0  0  0  0  0  0  0  0  0  0  0
    3.3288    0.2559   -0.8278 C   0  0  0  0  0  0  0  0  0  0  0  0
    4.4933    0.0338    0.1428 C   0  0  0  0  0  0  0  0  0  0  0  0
    1.9551    0.1114   -0.1675 C   0  0  0  0  0  0  0  0  0  0  0  0
    5.8674    0.1525   -0.5203 C   0  0  0  0  0  0  0  0  0  0  0  0
    0.7906    0.3217   -1.1418 C   0  0  0  0  0  0  0  0  0  0  0  0
    6.9921   -0.0904    0.4888 C   0  0  0  0  0  0  0  0  0  0  0  0
   -0.5834    0.2512   -0.4662 C   0  0  0  0  0  0  0  0  0  0  0  0
    8.3662   -0.0042   -0.1778 C   0  0  0  0  0  0  0  0  0  0  0  0
   -1.7414    0.4524   -1.4464 C   0  0  0  0  0  0  0  0  0  0  0  0
    9.4910   -0.2143    0.8372 C   0  0  0  0  0  0  0  0  0  0  0  0
   -3.0768    0.4550   -0.7831 C   0  0  0  0  0  0  0  0  0  0  0  0
   10.8630   -0.1613    0.1656 C   0  0  0  0  0  0  0  0  0  0  0  0
   -5.0442   -0.7723   -0.0050 C   0  0  0  0  0  0  0  0  0  0  0  0
   -3.5553    1.6365   -0.3561 C   0  0  0  0  0  0  0  0  0  0  0  0
   -5.6105    0.4304    0.4686 C   0  0  0  0  0  0  0  0  0  0  0  0
   -4.8721    1.7015    0.3076 C   0  0  0  0  0  0  0  0  0  0  0  0
   -3.2516   -2.0489   -1.0964 C   0  0  0  0  0  0  0  0  0  0  0  0
   11.9823   -0.4032    1.1656 C   0  0  0  0  0  0  0  0  0  0  0  0
   -5.8021   -1.9451    0.1820 C   0  0  0  0  0  0  0  0  0  0  0  0
   -6.8653    0.4603    1.0945 C   0  0  0  0  0  0  0  0  0  0  0  0
   -7.0544   -1.9183    0.8060 C   0  0  0  0  0  0  0  0  0  0  0  0
   -7.5849   -0.7175    1.2614 C   0  0  0  0  0  0  0  0  0  0  0  0
    3.4072   -0.4623   -1.6532 H   0  0  0  0  0  0  0  0  0  0  0  0
    3.4143    1.2564   -1.2690 H   0  0  0  0  0  0  0  0  0  0  0  0
    4.4213    0.7615    0.9605 H   0  0  0  0  0  0  0  0  0  0  0  0
    4.3957   -0.9611    0.5950 H   0  0  0  0  0  0  0  0  0  0  0  0
    1.8746    0.8368    0.6516 H   0  0  0  0  0  0  0  0  0  0  0  0
    1.8712   -0.8854    0.2824 H   0  0  0  0  0  0  0  0  0  0  0  0
    5.9763    1.1499   -0.9629 H   0  0  0  0  0  0  0  0  0  0  0  0
    5.9418   -0.5748   -1.3378 H   0  0  0  0  0  0  0  0  0  0  0  0
    0.9005    1.2990   -1.6276 H   0  0  0  0  0  0  0  0  0  0  0  0
    0.8440   -0.4350   -1.9341 H   0  0  0  0  0  0  0  0  0  0  0  0
    6.9265    0.6503    1.2951 H   0  0  0  0  0  0  0  0  0  0  0  0
    6.8692   -1.0793    0.9471 H   0  0  0  0  0  0  0  0  0  0  0  0
   -0.6863   -0.7206    0.0326 H   0  0  0  0  0  0  0  0  0  0  0  0
   -0.6292    1.0137    0.3220 H   0  0  0  0  0  0  0  0  0  0  0  0
    8.4832    0.9759   -0.6561 H   0  0  0  0  0  0  0  0  0  0  0  0
    8.4371   -0.7606   -0.9689 H   0  0  0  0  0  0  0  0  0  0  0  0
   -1.6899   -0.2570   -2.2790 H   0  0  0  0  0  0  0  0  0  0  0  0
   -1.5870    1.4229   -1.9418 H   0  0  0  0  0  0  0  0  0  0  0  0
    9.4325    0.5545    1.6171 H   0  0  0  0  0  0  0  0  0  0  0  0
    9.3621   -1.1855    1.3306 H   0  0  0  0  0  0  0  0  0  0  0  0
   10.9203   -0.9178   -0.6258 H   0  0  0  0  0  0  0  0  0  0  0  0
   11.0076    0.8162   -0.3087 H   0  0  0  0  0  0  0  0  0  0  0  0
   -3.0100    2.5666   -0.4738 H   0  0  0  0  0  0  0  0  0  0  0  0
   -3.8684   -2.4385   -1.9144 H   0  0  0  0  0  0  0  0  0  0  0  0
   -3.2325   -2.7763   -0.2759 H   0  0  0  0  0  0  0  0  0  0  0  0
   -2.2230   -2.0189   -1.4615 H   0  0  0  0  0  0  0  0  0  0  0  0
   11.9730    0.3546    1.9555 H   0  0  0  0  0  0  0  0  0  0  0  0
   11.8850   -1.3883    1.6329 H   0  0  0  0  0  0  0  0  0  0  0  0
   12.9543   -0.3596    0.6644 H   0  0  0  0  0  0  0  0  0  0  0  0
   -5.4472   -2.9143   -0.1579 H   0  0  0  0  0  0  0  0  0  0  0  0
   -7.2942    1.3908    1.4562 H   0  0  0  0  0  0  0  0  0  0  0  0
   -7.6139   -2.8408    0.9328 H   0  0  0  0  0  0  0  0  0  0  0  0
   -8.5569   -0.6991    1.7449 H   0  0  0  0  0  0  0  0  0  0  0  0
  1 18  2  0  0  0  0
  2 13  1  0  0  0  0
  2 15  1  0  0  0  0
  2 19  1  0  0  0  0
  3  4  1  0  0  0  0
  3  5  1  0  0  0  0
  3 25  1  0  0  0  0
  3 26  1  0  0  0  0
  4  6  1  0  0  0  0
  4 27  1  0  0  0  0
  4 28  1  0  0  0  0
  5  7  1  0  0  0  0
  5 29  1  0  0  0  0
  5 30  1  0  0  0  0
  6  8  1  0  0  0  0
  6 31  1  0  0  0  0
  6 32  1  0  0  0  0
  7  9  1  0  0  0  0
  7 33  1  0  0  0  0
  7 34  1  0  0  0  0
  8 10  1  0  0  0  0
  8 35  1  0  0  0  0
  8 36  1  0  0  0  0
  9 11  1  0  0  0  0
  9 37  1  0  0  0  0
  9 38  1  0  0  0  0
 10 12  1  0  0  0  0
 10 39  1  0  0  0  0
 10 40  1  0  0  0  0
 11 13  1  0  0  0  0
 11 41  1  0  0  0  0
 11 42  1  0  0  0  0
 12 14  1  0  0  0  0
 12 43  1  0  0  0  0
 12 44  1  0  0  0  0
 13 16  2  0  0  0  0
 14 20  1  0  0  0  0
 14 45  1  0  0  0  0
 14 46  1  0  0  0  0
 15 17  1  0  0  0  0
 15 21  2  0  0  0  0
 16 18  1  0  0  0  0
 16 47  1  0  0  0  0
 17 18  1  0  0  0  0
 17 22  2  0  0  0  0
 19 48  1  0  0  0  0
 19 49  1  0  0  0  0
 19 50  1  0  0  0  0
 20 51  1  0  0  0  0
 20 52  1  0  0  0  0
 20 53  1  0  0  0  0
 21 23  1  0  0  0  0
 21 54  1  0  0  0  0
 22 24  1  0  0  0  0
 22 55  1  0  0  0  0
 23 24  2  0  0  0  0
 23 56  1  0  0  0  0
 24 57  1  0  0  0  0
M  END
> <PUBCHEM_COMPOUND_CID>
5319601

> <PUBCHEM_CONFORMER_RMSD>
1.2

> <PUBCHEM_CONFORMER_DIVERSEORDER>
1
8
76
78
116
2
40
98
27
19
22
12
26
120
144
107
53
18
4
86
63
137
69
35
32
70
13
124
61
132
57
75
84
48
89
149
59
102
65
83
7
93
126
82
68
52
10
125
96
91
24
109
21
50
111
11
133
62
142
9
151
55
80
130
60
39
5
41
103
140
113
54
17
73
122
127
121
88
94
6
28
14
66
74
81
104
129
143
38
16
115
36
105
131
20
147
90
136
42
45
99
47
92
108
43
49
37
112
72
138
23
85
33
34
148
146
145
77
123
150
117
118
15
134
64
95
30
106
141
51
29
44
67
114
71
3
135
25
46
110
139
97
56
100
119
58
31
87
101
128
79

> <PUBCHEM_MMFF94_PARTIAL_CHARGES>
18
1 -0.57
11 0.14
13 -0.04
15 0.1
16 -0.14
17 0.09
18 0.47
19 0.37
2 -0.57
21 -0.15
22 -0.15
23 -0.15
24 -0.15
47 0.15
54 0.15
55 0.15
56 0.15
57 0.15

> <PUBCHEM_EFFECTIVE_ROTOR_COUNT>
11

> <PUBCHEM_PHARMACOPHORE_FEATURES>
5
1 1 acceptor
1 2 cation
1 20 hydrophobe
6 15 17 21 22 23 24 rings
6 2 13 15 16 17 18 rings

> <PUBCHEM_HEAVY_ATOM_COUNT>
24

> <PUBCHEM_ATOM_DEF_STEREO_COUNT>
0

> <PUBCHEM_ATOM_UDEF_STEREO_COUNT>
0

> <PUBCHEM_BOND_DEF_STEREO_COUNT>
0

> <PUBCHEM_BOND_UDEF_STEREO_COUNT>
0

> <PUBCHEM_ISOTOPIC_ATOM_COUNT>
0

> <PUBCHEM_COMPONENT_COUNT>
1

> <PUBCHEM_CACTVS_TAUTO_COUNT>
3

> <PUBCHEM_CONFORMER_ID>
00512BB100000001

> <PUBCHEM_MMFF94_ENERGY>
41.5039

> <PUBCHEM_FEATURE_SELFOVERLAP>
25.394

> <PUBCHEM_SHAPE_FINGERPRINT>
10 15 17917713495733351007
10299344 5 18113901568071180854
11315181 36 18333450954578393677
12089408 11 17748547031585298932
13165054 27 13757254895896504155
13383668 90 14057278762532662003
13553643 46 15697990844122199274
14202775 3 17385442095547306674
14251764 18 18040438810825781124
14251764 46 14418134011469044944
14849402 71 18263086681552193900
15061470 23 11167935872156217234
15461852 350 8790879692731920584
15510794 2 17988928847507635446
155225 1 13542469756241127594
15716309 27 17894916243413278989
1754911 235 10447927279164550714
1818759 1 17821728330685970322
195137 175 11815900059133900510
21026386 39 18334577993728477251
21095086 128 17313101952536868952
21095123 145 18342458166664996830
21150785 3 12107785216220647054
21360442 43 10519686904645270125
21360443 89 18272366534226345591
21362267 20 17967530199611749338
22899556 105 10805639153392311265
232437 2 17967250889629746714
23528940 14 18261109716036312242
246663 6 17385443224579716438
5104073 3 18199197196129389283
54039377 194 17167861972191736830
59521270 166 14634860938779791111
59521660 218 15936703661433494620
636775 8 11314320446903049033
67123 10 18040715875567449740
9953998 17 18273217504374679027

> <PUBCHEM_SHAPE_MULTIPOLES>
483.06
37.94
1.7
1.18
121.93
0.13
-0.04
-8.49
17.44
-5.2
0.15
-0.52
-0.06
-0.69

> <PUBCHEM_SHAPE_SELFOVERLAP>
969.807

> <PUBCHEM_SHAPE_VOLUME>
284.7

> <PUBCHEM_COORDINATE_TYPE>
2
5
10

$$$$
