5319811
  -OEChem-09092013313D

 54 55  0     0  0  0  0  0  0999 V2000
    4.7872   -2.8171    0.5286 O   0  0  0  0  0  0  0  0  0  0  0  0
    3.2171    0.7659   -0.6285 N   0  0  0  0  0  0  0  0  0  0  0  0
   -2.4619   -0.0865   -0.0104 C   0  0  0  0  0  0  0  0  0  0  0  0
   -3.8383   -0.0974   -0.6795 C   0  0  0  0  0  0  0  0  0  0  0  0
   -1.3424   -0.2207   -1.0449 C   0  0  0  0  0  0  0  0  0  0  0  0
   -4.9581    0.0704    0.3490 C   0  0  0  0  0  0  0  0  0  0  0  0
    0.0590   -0.2462   -0.4264 C   0  0  0  0  0  0  0  0  0  0  0  0
   -6.3353    0.0260   -0.3154 C   0  0  0  0  0  0  0  0  0  0  0  0
    1.1753   -0.4056   -1.4597 C   0  0  0  0  0  0  0  0  0  0  0  0
   -7.4563    0.1605    0.7177 C   0  0  0  0  0  0  0  0  0  0  0  0
    2.5227   -0.4380   -0.8185 C   0  0  0  0  0  0  0  0  0  0  0  0
   -8.8333    0.0824    0.0544 C   0  0  0  0  0  0  0  0  0  0  0  0
   -9.9918    0.1878    1.0484 C   0  0  0  0  0  0  0  0  0  0  0  0
    4.5041    0.7530   -0.0196 C   0  0  0  0  0  0  0  0  0  0  0  0
    3.0066   -1.6374   -0.4512 C   0  0  0  0  0  0  0  0  0  0  0  0
    5.0765   -0.4696    0.3917 C   0  0  0  0  0  0  0  0  0  0  0  0
    4.3340   -1.7320    0.1874 C   0  0  0  0  0  0  0  0  0  0  0  0
    2.6958    2.0770   -1.0248 C   0  0  0  0  0  0  0  0  0  0  0  0
  -11.3626    0.1368    0.3915 C   0  0  0  0  0  0  0  0  0  0  0  0
    5.2666    1.9159    0.2060 C   0  0  0  0  0  0  0  0  0  0  0  0
    6.3412   -0.5276    0.9951 C   0  0  0  0  0  0  0  0  0  0  0  0
    6.5287    1.8612    0.8077 C   0  0  0  0  0  0  0  0  0  0  0  0
    7.0651    0.6414    1.2015 C   0  0  0  0  0  0  0  0  0  0  0  0
   -2.3965   -0.9103    0.7105 H   0  0  0  0  0  0  0  0  0  0  0  0
   -2.3299    0.8465    0.5507 H   0  0  0  0  0  0  0  0  0  0  0  0
   -3.9740   -1.0411   -1.2218 H   0  0  0  0  0  0  0  0  0  0  0  0
   -3.8958    0.7113   -1.4181 H   0  0  0  0  0  0  0  0  0  0  0  0
   -1.4936   -1.1415   -1.6219 H   0  0  0  0  0  0  0  0  0  0  0  0
   -1.4042    0.6124   -1.7559 H   0  0  0  0  0  0  0  0  0  0  0  0
   -4.8876   -0.7263    1.0996 H   0  0  0  0  0  0  0  0  0  0  0  0
   -4.8344    1.0238    0.8768 H   0  0  0  0  0  0  0  0  0  0  0  0
    0.1082   -1.0686    0.2992 H   0  0  0  0  0  0  0  0  0  0  0  0
    0.2093    0.6799    0.1428 H   0  0  0  0  0  0  0  0  0  0  0  0
   -6.4494   -0.9202   -0.8584 H   0  0  0  0  0  0  0  0  0  0  0  0
   -6.4148    0.8338   -1.0530 H   0  0  0  0  0  0  0  0  0  0  0  0
    1.0030   -1.3524   -1.9929 H   0  0  0  0  0  0  0  0  0  0  0  0
    1.1044    0.3443   -2.2538 H   0  0  0  0  0  0  0  0  0  0  0  0
   -7.3578    1.1149    1.2486 H   0  0  0  0  0  0  0  0  0  0  0  0
   -7.3665   -0.6369    1.4653 H   0  0  0  0  0  0  0  0  0  0  0  0
   -8.9192   -0.8641   -0.4938 H   0  0  0  0  0  0  0  0  0  0  0  0
   -8.9225    0.8863   -0.6869 H   0  0  0  0  0  0  0  0  0  0  0  0
   -9.9042    1.1261    1.6091 H   0  0  0  0  0  0  0  0  0  0  0  0
   -9.9184   -0.6267    1.7789 H   0  0  0  0  0  0  0  0  0  0  0  0
    2.4583   -2.5610   -0.6008 H   0  0  0  0  0  0  0  0  0  0  0  0
    3.2989    2.5010   -1.8358 H   0  0  0  0  0  0  0  0  0  0  0  0
    2.6922    2.7683   -0.1735 H   0  0  0  0  0  0  0  0  0  0  0  0
    1.6608    2.0643   -1.3725 H   0  0  0  0  0  0  0  0  0  0  0  0
  -12.1500    0.2157    1.1475 H   0  0  0  0  0  0  0  0  0  0  0  0
  -11.5011   -0.8048   -0.1489 H   0  0  0  0  0  0  0  0  0  0  0  0
  -11.4862    0.9614   -0.3176 H   0  0  0  0  0  0  0  0  0  0  0  0
    4.9075    2.8993   -0.0855 H   0  0  0  0  0  0  0  0  0  0  0  0
    6.7749   -1.4733    1.3088 H   0  0  0  0  0  0  0  0  0  0  0  0
    7.0915    2.7770    0.9655 H   0  0  0  0  0  0  0  0  0  0  0  0
    8.0448    0.6013    1.6679 H   0  0  0  0  0  0  0  0  0  0  0  0
  1 17  2  0  0  0  0
  2 11  1  0  0  0  0
  2 14  1  0  0  0  0
  2 18  1  0  0  0  0
  3  4  1  0  0  0  0
  3  5  1  0  0  0  0
  3 24  1  0  0  0  0
  3 25  1  0  0  0  0
  4  6  1  0  0  0  0
  4 26  1  0  0  0  0
  4 27  1  0  0  0  0
  5  7  1  0  0  0  0
  5 28  1  0  0  0  0
  5 29  1  0  0  0  0
  6  8  1  0  0  0  0
  6 30  1  0  0  0  0
  6 31  1  0  0  0  0
  7  9  1  0  0  0  0
  7 32  1  0  0  0  0
  7 33  1  0  0  0  0
  8 10  1  0  0  0  0
  8 34  1  0  0  0  0
  8 35  1  0  0  0  0
  9 11  1  0  0  0  0
  9 36  1  0  0  0  0
  9 37  1  0  0  0  0
 10 12  1  0  0  0  0
 10 38  1  0  0  0  0
 10 39  1  0  0  0  0
 11 15  2  0  0  0  0
 12 13  1  0  0  0  0
 12 40  1  0  0  0  0
 12 41  1  0  0  0  0
 13 19  1  0  0  0  0
 13 42  1  0  0  0  0
 13 43  1  0  0  0  0
 14 16  1  0  0  0  0
 14 20  2  0  0  0  0
 15 17  1  0  0  0  0
 15 44  1  0  0  0  0
 16 17  1  0  0  0  0
 16 21  2  0  0  0  0
 18 45  1  0  0  0  0
 18 46  1  0  0  0  0
 18 47  1  0  0  0  0
 19 48  1  0  0  0  0
 19 49  1  0  0  0  0
 19 50  1  0  0  0  0
 20 22  1  0  0  0  0
 20 51  1  0  0  0  0
 21 23  1  0  0  0  0
 21 52  1  0  0  0  0
 22 23  2  0  0  0  0
 22 53  1  0  0  0  0
 23 54  1  0  0  0  0
M  END
> <PUBCHEM_COMPOUND_CID>
5319811

> <PUBCHEM_CONFORMER_RMSD>
1

> <PUBCHEM_CONFORMER_DIVERSEORDER>
1
185
224
70
24
241
60
81
73
78
127
247
47
25
35
214
153
181
72
139
151
123
52
21
135
19
97
150
163
136
18
192
98
23
58
217
112
17
230
117
95
5
248
39
50
118
109
231
197
102
57
13
51
220
194
143
172
173
119
16
125
229
211
144
71
3
249
28
43
113
182
93
114
42
189
166
161
84
85
154
27
103
183
190
68
146
246
87
239
160
120
83
31
184
133
106
111
49
168
29
222
170
2
243
22
104
62
107
121
233
155
140
64
48
234
38
215
99
56
101
213
164
145
149
8
40
20
108
240
199
187
89
169
92
142
195
6
67
46
159
171
167
30
36
76
193
244
37
205
116
221
207
63
226
80
141
100
77
131
208
32
94
158
202
66
198
237
9
178
88
206
7
69
91
242
10
26
201
129
162
14
251
44
90
128
15
176
96
75
209
34
210
156
12
223
41
236
157
203
105
110
245
138
55
179
82
54
11
124
4
33
132
53
235
61
86
250
137
65
130
180
122
79
45
228
200
175
177
134
59
148
186
165
227
126
147
219
74
191
152
238
174
196
204
218
212
188
225
115
216
232

> <PUBCHEM_MMFF94_PARTIAL_CHARGES>
18
1 -0.57
11 -0.04
14 0.1
15 -0.14
16 0.09
17 0.47
18 0.37
2 -0.57
20 -0.15
21 -0.15
22 -0.15
23 -0.15
44 0.15
51 0.15
52 0.15
53 0.15
54 0.15
9 0.14

> <PUBCHEM_EFFECTIVE_ROTOR_COUNT>
10

> <PUBCHEM_PHARMACOPHORE_FEATURES>
5
1 1 acceptor
1 19 hydrophobe
1 2 cation
6 14 16 20 21 22 23 rings
6 2 11 14 15 16 17 rings

> <PUBCHEM_HEAVY_ATOM_COUNT>
23

> <PUBCHEM_ATOM_DEF_STEREO_COUNT>
0

> <PUBCHEM_ATOM_UDEF_STEREO_COUNT>
0

> <PUBCHEM_BOND_DEF_STEREO_COUNT>
0

> <PUBCHEM_BOND_UDEF_STEREO_COUNT>
0

> <PUBCHEM_ISOTOPIC_ATOM_COUNT>
0

> <PUBCHEM_COMPONENT_COUNT>
1

> <PUBCHEM_CACTVS_TAUTO_COUNT>
3

> <PUBCHEM_CONFORMER_ID>
00512C8300000001

> <PUBCHEM_MMFF94_ENERGY>
41.6272

> <PUBCHEM_FEATURE_SELFOVERLAP>
25.394

> <PUBCHEM_SHAPE_FINGERPRINT>
10 15 17846780707208570311
10162869 55 18341604963169839239
10693767 8 8502114967279040880
11534866 41 17240760666686669154
11607047 141 16917067712762562814
11638347 137 18040151803672951291
11724838 91 18271802462267874495
12592606 108 12468641643023627449
13533116 47 18335701603156415402
13692114 37 17022625303672754243
14216079 64 14273451474987211489
14251764 18 17917709119879023037
15061470 23 18130791128633802409
15475509 35 16878770605948839578
155225 1 16989123184226511432
15690457 1 14996281436036944753
1577012 14 17775560953725993159
15840311 113 18131069364197661344
16120349 18 18343298193612330121
1754911 235 11239998937523102737
1818759 1 12612755714566495353
20157964 124 18413670201638039486
20771845 140 15213286548321639096
20812841 46 18413106152415258952
21095086 128 11530484437661272385
21150785 3 12319739168140003753
21360443 126 13182733762870227837
21362267 313 17844535414608013803
21792934 111 18040714767234208021
22224240 67 18410292515261518383
246663 6 13334735730982876717
28498 318 11818989691540547345
4340502 62 18260824913076520970
5104073 3 18262791844604371760
5758199 1 16343706522196970567
59521099 67 11097859597027849254
6438161 24 14490191626760250365
67123 10 18131914871912686823

> <PUBCHEM_SHAPE_MULTIPOLES>
462.48
32.79
1.73
1.12
102.72
0.24
-0.08
-5.72
14.06
-4.96
0.09
-0.51
-0.07
-0.27

> <PUBCHEM_SHAPE_SELFOVERLAP>
932.28

> <PUBCHEM_SHAPE_VOLUME>
271.6

> <PUBCHEM_COORDINATE_TYPE>
2
5
10

$$$$
