398789
  -OEChem-09102003343D

 43 45  0     1  0  0  0  0  0999 V2000
    2.5984    0.7977    0.8456 O   0  0  0  0  0  0  0  0  0  0  0  0
   -3.6511   -2.4226   -0.3079 O   0  0  0  0  0  0  0  0  0  0  0  0
   -3.4939    2.2252   -0.4098 O   0  0  0  0  0  0  0  0  0  0  0  0
    1.1434   -1.5197    0.6230 O   0  0  0  0  0  0  0  0  0  0  0  0
    5.6952    1.2502   -1.0521 O   0  0  0  0  0  0  0  0  0  0  0  0
   -1.5113   -1.4533    0.0918 N   0  0  0  0  0  0  0  0  0  0  0  0
   -1.4681    0.9762    0.0307 C   0  0  0  0  0  0  0  0  0  0  0  0
   -0.8535   -0.2884    0.1895 C   0  0  0  0  0  0  0  0  0  0  0  0
   -2.8431    1.0334   -0.2453 C   0  0  0  0  0  0  0  0  0  0  0  0
   -3.5455   -0.1725   -0.3513 C   0  0  0  0  0  0  0  0  0  0  0  0
    0.5103   -0.3160    0.4621 C   0  0  0  0  0  0  0  0  0  0  0  0
    1.2637    0.8551    0.5783 C   0  0  0  0  0  0  0  0  0  0  0  0
   -0.7102    2.1530    0.1478 C   0  0  0  0  0  0  0  0  0  0  0  0
   -2.8238   -1.3459   -0.1732 C   0  0  0  0  0  0  0  0  0  0  0  0
    0.6528    2.0917    0.4212 C   0  0  0  0  0  0  0  0  0  0  0  0
    3.4776    1.3739   -0.1181 C   0  0  0  0  0  0  0  0  0  0  0  0
    4.8146    0.6327   -0.1151 C   0  0  1  0  0  0  0  0  0  0  0  0
   -4.8829   -0.5642   -0.6077 C   0  0  0  0  0  0  0  0  0  0  0  0
    4.6884   -0.8363   -0.4644 C   0  0  0  0  0  0  0  0  0  0  0  0
   -4.8929   -1.9391   -0.5701 C   0  0  0  0  0  0  0  0  0  0  0  0
    4.0932   -1.2013   -1.7964 C   0  0  0  0  0  0  0  0  0  0  0  0
   -4.5595    2.5051    0.4919 C   0  0  0  0  0  0  0  0  0  0  0  0
    1.1915   -2.0469    1.9438 C   0  0  0  0  0  0  0  0  0  0  0  0
    5.1067   -1.7882    0.3856 C   0  0  0  0  0  0  0  0  0  0  0  0
   -1.1674    3.1329    0.0304 H   0  0  0  0  0  0  0  0  0  0  0  0
    1.2194    3.0135    0.5160 H   0  0  0  0  0  0  0  0  0  0  0  0
    3.6470    2.4261    0.1429 H   0  0  0  0  0  0  0  0  0  0  0  0
    3.0372    1.3689   -1.1247 H   0  0  0  0  0  0  0  0  0  0  0  0
    5.2651    0.7448    0.8791 H   0  0  0  0  0  0  0  0  0  0  0  0
   -5.7388    0.0642   -0.8054 H   0  0  0  0  0  0  0  0  0  0  0  0
   -5.6640   -2.6833   -0.7052 H   0  0  0  0  0  0  0  0  0  0  0  0
    4.1297   -2.2807   -1.9797 H   0  0  0  0  0  0  0  0  0  0  0  0
    4.6409   -0.7136   -2.6089 H   0  0  0  0  0  0  0  0  0  0  0  0
    3.0439   -0.8965   -1.8497 H   0  0  0  0  0  0  0  0  0  0  0  0
    6.5510    0.7907   -1.0016 H   0  0  0  0  0  0  0  0  0  0  0  0
   -4.5667    3.5827    0.6810 H   0  0  0  0  0  0  0  0  0  0  0  0
   -4.4374    1.9923    1.4525 H   0  0  0  0  0  0  0  0  0  0  0  0
   -5.5159    2.2368    0.0359 H   0  0  0  0  0  0  0  0  0  0  0  0
    1.7436   -1.3746    2.6082 H   0  0  0  0  0  0  0  0  0  0  0  0
    1.7136   -3.0071    1.9103 H   0  0  0  0  0  0  0  0  0  0  0  0
    0.1825   -2.2129    2.3343 H   0  0  0  0  0  0  0  0  0  0  0  0
    5.5410   -1.5367    1.3474 H   0  0  0  0  0  0  0  0  0  0  0  0
    5.0221   -2.8418    0.1410 H   0  0  0  0  0  0  0  0  0  0  0  0
  1 12  1  0  0  0  0
  1 16  1  0  0  0  0
  2 14  1  0  0  0  0
  2 20  1  0  0  0  0
  3  9  1  0  0  0  0
  3 22  1  0  0  0  0
  4 11  1  0  0  0  0
  4 23  1  0  0  0  0
  5 17  1  0  0  0  0
  5 35  1  0  0  0  0
  6  8  1  0  0  0  0
  6 14  2  0  0  0  0
  7  8  2  0  0  0  0
  7  9  1  0  0  0  0
  7 13  1  0  0  0  0
  8 11  1  0  0  0  0
  9 10  2  0  0  0  0
 10 14  1  0  0  0  0
 10 18  1  0  0  0  0
 11 12  2  0  0  0  0
 12 15  1  0  0  0  0
 13 15  2  0  0  0  0
 13 25  1  0  0  0  0
 15 26  1  0  0  0  0
 16 17  1  0  0  0  0
 16 27  1  0  0  0  0
 16 28  1  0  0  0  0
 17 19  1  0  0  0  0
 17 29  1  0  0  0  0
 18 20  2  0  0  0  0
 18 30  1  0  0  0  0
 19 21  1  0  0  0  0
 19 24  2  0  0  0  0
 20 31  1  0  0  0  0
 21 32  1  0  0  0  0
 21 33  1  0  0  0  0
 21 34  1  0  0  0  0
 22 36  1  0  0  0  0
 22 37  1  0  0  0  0
 22 38  1  0  0  0  0
 23 39  1  0  0  0  0
 23 40  1  0  0  0  0
 23 41  1  0  0  0  0
 24 42  1  0  0  0  0
 24 43  1  0  0  0  0
M  END
> <PUBCHEM_COMPOUND_CID>
398789

> <PUBCHEM_CONFORMER_RMSD>
0.8

> <PUBCHEM_CONFORMER_DIVERSEORDER>
1
15
46
32
27
41
42
8
23
22
24
19
51
26
18
50
43
35
25
37
6
20
44
48
54
28
16
31
40
17
47
49
12
36
30
2
38
52
34
21
10
7
4
33
53
9
45
55
5
13
14
3
39
29
11

> <PUBCHEM_MMFF94_PARTIAL_CHARGES>
29
1 -0.36
11 0.08
12 0.08
13 -0.15
14 0.4
15 -0.15
16 0.28
17 0.42
18 -0.15
19 -0.28
2 -0.28
20 -0.01
21 0.14
22 0.28
23 0.28
24 -0.3
25 0.15
26 0.15
3 -0.36
30 0.15
31 0.15
35 0.4
4 -0.36
42 0.15
43 0.15
5 -0.68
6 -0.57
8 0.31
9 0.08

> <PUBCHEM_EFFECTIVE_ROTOR_COUNT>
6

> <PUBCHEM_PHARMACOPHORE_FEATURES>
8
1 1 acceptor
1 3 acceptor
1 4 acceptor
1 5 acceptor
1 5 donor
5 2 10 14 18 20 rings
6 6 7 8 9 10 14 rings
6 7 8 11 12 13 15 rings

> <PUBCHEM_HEAVY_ATOM_COUNT>
24

> <PUBCHEM_ATOM_DEF_STEREO_COUNT>
0

> <PUBCHEM_ATOM_UDEF_STEREO_COUNT>
1

> <PUBCHEM_BOND_DEF_STEREO_COUNT>
0

> <PUBCHEM_BOND_UDEF_STEREO_COUNT>
0

> <PUBCHEM_ISOTOPIC_ATOM_COUNT>
0

> <PUBCHEM_COMPONENT_COUNT>
1

> <PUBCHEM_CACTVS_TAUTO_COUNT>
1

> <PUBCHEM_CONFORMER_ID>
000615C500000001

> <PUBCHEM_MMFF94_ENERGY>
83.3412

> <PUBCHEM_FEATURE_SELFOVERLAP>
40.753

> <PUBCHEM_SHAPE_FINGERPRINT>
10595046 47 18336829792343805772
10693767 8 18270945951548509967
11796584 16 18200596895768948948
12954195 1 18343587339142025589
13140716 1 18194666095841928979
14347332 77 18272364308979189943
14790565 3 17765160466738291449
14955137 171 17969242099965007237
15183329 4 18412826858722797814
15196674 1 18411417302344154048
17844677 252 18341898519114638656
19591789 44 18411414037820973011
19784866 140 18409161143191631771
20871999 31 18336269024054532876
21236236 1 18413671305729347657
21267235 1 18266178512802227991
21279426 13 18340485560678245988
221357 26 18341890839881450653
22393880 68 18335972104174972341
23402539 116 18410571773707855404
23557571 272 18272655648904792684
23559900 14 18270672190227164777
23569914 152 17553176841432394687
25147074 1 18262786373010955883
2871803 45 18335409218867372635
3004659 81 18335985290547257030
335352 9 18340202973347606365
350125 39 18410856556210277969
4214541 1 18413107247125848269
4280585 95 17622168958461810502
4990 188 18343021073510482740
5104073 3 18272086093518569672
559249 180 18339637833066157498
59755656 215 18411133628687073047
633830 44 18186522098866424142
70251023 43 17699547432878682479
9709674 26 18266737064017820947

> <PUBCHEM_SHAPE_MULTIPOLES>
459.58
11.94
2.76
1.09
5.77
0.25
0.07
-1.78
-3.65
-1.81
0.27
0.95
-0.47
-0.68

> <PUBCHEM_SHAPE_SELFOVERLAP>
999.365

> <PUBCHEM_SHAPE_VOLUME>
252.4

> <PUBCHEM_COORDINATE_TYPE>
2
5
10

$$$$
