13967189
  -OEChem-09092013273D

 48 49  0     0  0  0  0  0  0999 V2000
   -3.7502   -2.8613   -0.3528 O   0  0  0  0  0  0  0  0  0  0  0  0
   -2.2083    0.7956    0.5912 N   0  0  0  0  0  0  0  0  0  0  0  0
    2.3979   -0.1496    0.9453 C   0  0  0  0  0  0  0  0  0  0  0  0
    3.4677    0.0187   -0.1371 C   0  0  0  0  0  0  0  0  0  0  0  0
    0.9916   -0.1647    0.3376 C   0  0  0  0  0  0  0  0  0  0  0  0
    4.8699    0.0663    0.4729 C   0  0  0  0  0  0  0  0  0  0  0  0
   -0.1129   -0.3020    1.3881 C   0  0  0  0  0  0  0  0  0  0  0  0
    5.9877    0.1436   -0.5716 C   0  0  0  0  0  0  0  0  0  0  0  0
   -1.4830   -0.3863    0.8031 C   0  0  0  0  0  0  0  0  0  0  0  0
    7.4176    0.1079   -0.0239 C   0  0  0  0  0  0  0  0  0  0  0  0
    8.4881    0.1251   -1.1152 C   0  0  0  0  0  0  0  0  0  0  0  0
   -3.5175    0.7333    0.0351 C   0  0  0  0  0  0  0  0  0  0  0  0
   -1.9566   -1.6087    0.5055 C   0  0  0  0  0  0  0  0  0  0  0  0
   -4.0809   -0.5159   -0.3019 C   0  0  0  0  0  0  0  0  0  0  0  0
   -3.3058   -1.7547   -0.0752 C   0  0  0  0  0  0  0  0  0  0  0  0
   -1.6982    2.1316    0.9117 C   0  0  0  0  0  0  0  0  0  0  0  0
    9.8874    0.0808   -0.5201 C   0  0  0  0  0  0  0  0  0  0  0  0
   -4.3114    1.8714   -0.2079 C   0  0  0  0  0  0  0  0  0  0  0  0
   -5.3669   -0.6225   -0.8515 C   0  0  0  0  0  0  0  0  0  0  0  0
   -5.5948    1.7681   -0.7561 C   0  0  0  0  0  0  0  0  0  0  0  0
   -6.1215    0.5232   -1.0772 C   0  0  0  0  0  0  0  0  0  0  0  0
    2.4735    0.6717    1.6681 H   0  0  0  0  0  0  0  0  0  0  0  0
    2.5705   -1.0828    1.4949 H   0  0  0  0  0  0  0  0  0  0  0  0
    3.4034   -0.8150   -0.8468 H   0  0  0  0  0  0  0  0  0  0  0  0
    3.2850    0.9403   -0.7026 H   0  0  0  0  0  0  0  0  0  0  0  0
    0.8380    0.7580   -0.2358 H   0  0  0  0  0  0  0  0  0  0  0  0
    0.9233   -0.9932   -0.3792 H   0  0  0  0  0  0  0  0  0  0  0  0
    5.0254   -0.8291    1.0877 H   0  0  0  0  0  0  0  0  0  0  0  0
    4.9476    0.9289    1.1459 H   0  0  0  0  0  0  0  0  0  0  0  0
    0.0889   -1.2234    1.9554 H   0  0  0  0  0  0  0  0  0  0  0  0
   -0.0349    0.4766    2.1541 H   0  0  0  0  0  0  0  0  0  0  0  0
    5.8572    1.0611   -1.1593 H   0  0  0  0  0  0  0  0  0  0  0  0
    5.8656   -0.6916   -1.2733 H   0  0  0  0  0  0  0  0  0  0  0  0
    7.5633    0.9651    0.6450 H   0  0  0  0  0  0  0  0  0  0  0  0
    7.5408   -0.7944    0.5879 H   0  0  0  0  0  0  0  0  0  0  0  0
    8.3522   -0.7337   -1.7825 H   0  0  0  0  0  0  0  0  0  0  0  0
    8.3821    1.0301   -1.7243 H   0  0  0  0  0  0  0  0  0  0  0  0
   -1.3845   -2.5151    0.6710 H   0  0  0  0  0  0  0  0  0  0  0  0
   -1.7405    2.7860    0.0326 H   0  0  0  0  0  0  0  0  0  0  0  0
   -0.6507    2.1519    1.2193 H   0  0  0  0  0  0  0  0  0  0  0  0
   -2.2780    2.5789    1.7271 H   0  0  0  0  0  0  0  0  0  0  0  0
   10.0651    0.9440    0.1293 H   0  0  0  0  0  0  0  0  0  0  0  0
   10.0344   -0.8295    0.0697 H   0  0  0  0  0  0  0  0  0  0  0  0
   10.6382    0.0946   -1.3165 H   0  0  0  0  0  0  0  0  0  0  0  0
   -3.9610    2.8726    0.0279 H   0  0  0  0  0  0  0  0  0  0  0  0
   -5.7934   -1.5885   -1.1081 H   0  0  0  0  0  0  0  0  0  0  0  0
   -6.1815    2.6660   -0.9291 H   0  0  0  0  0  0  0  0  0  0  0  0
   -7.1177    0.4454   -1.5019 H   0  0  0  0  0  0  0  0  0  0  0  0
  1 15  2  0  0  0  0
  2  9  1  0  0  0  0
  2 12  1  0  0  0  0
  2 16  1  0  0  0  0
  3  4  1  0  0  0  0
  3  5  1  0  0  0  0
  3 22  1  0  0  0  0
  3 23  1  0  0  0  0
  4  6  1  0  0  0  0
  4 24  1  0  0  0  0
  4 25  1  0  0  0  0
  5  7  1  0  0  0  0
  5 26  1  0  0  0  0
  5 27  1  0  0  0  0
  6  8  1  0  0  0  0
  6 28  1  0  0  0  0
  6 29  1  0  0  0  0
  7  9  1  0  0  0  0
  7 30  1  0  0  0  0
  7 31  1  0  0  0  0
  8 10  1  0  0  0  0
  8 32  1  0  0  0  0
  8 33  1  0  0  0  0
  9 13  2  0  0  0  0
 10 11  1  0  0  0  0
 10 34  1  0  0  0  0
 10 35  1  0  0  0  0
 11 17  1  0  0  0  0
 11 36  1  0  0  0  0
 11 37  1  0  0  0  0
 12 14  1  0  0  0  0
 12 18  2  0  0  0  0
 13 15  1  0  0  0  0
 13 38  1  0  0  0  0
 14 15  1  0  0  0  0
 14 19  2  0  0  0  0
 16 39  1  0  0  0  0
 16 40  1  0  0  0  0
 16 41  1  0  0  0  0
 17 42  1  0  0  0  0
 17 43  1  0  0  0  0
 17 44  1  0  0  0  0
 18 20  1  0  0  0  0
 18 45  1  0  0  0  0
 19 21  1  0  0  0  0
 19 46  1  0  0  0  0
 20 21  2  0  0  0  0
 20 47  1  0  0  0  0
 21 48  1  0  0  0  0
M  END
> <PUBCHEM_COMPOUND_CID>
13967189

> <PUBCHEM_CONFORMER_RMSD>
0.8

> <PUBCHEM_CONFORMER_DIVERSEORDER>
1
150
76
179
164
102
127
62
8
16
90
170
99
173
114
25
80
28
57
44
147
112
136
48
95
168
158
11
18
43
55
45
51
145
15
70
78
35
68
109
140
165
171
106
82
155
27
103
31
161
108
97
29
138
20
174
180
169
118
34
177
13
163
79
148
56
176
42
166
133
17
175
154
46
88
32
66
156
144
172
87
135
121
9
134
123
124
14
96
85
21
77
120
152
65
2
122
160
58
3
40
101
117
178
38
141
41
91
22
30
6
104
23
4
119
94
151
81
130
69
132
37
75
100
63
113
110
7
143
72
59
111
98
5
67
47
115
139
73
10
12
89
53
86
142
131
74
159
126
24
36
52
125
19
33
92
39
49
153
71
54
26
50
146
149
128
93
107
60
83
137
61
167
162
116
105
129
84
157
64

> <PUBCHEM_MMFF94_PARTIAL_CHARGES>
18
1 -0.57
12 0.1
13 -0.14
14 0.09
15 0.47
16 0.37
18 -0.15
19 -0.15
2 -0.57
20 -0.15
21 -0.15
38 0.15
45 0.15
46 0.15
47 0.15
48 0.15
7 0.14
9 -0.04

> <PUBCHEM_EFFECTIVE_ROTOR_COUNT>
8

> <PUBCHEM_PHARMACOPHORE_FEATURES>
5
1 1 acceptor
1 17 hydrophobe
1 2 cation
6 12 14 18 19 20 21 rings
6 2 9 12 13 14 15 rings

> <PUBCHEM_HEAVY_ATOM_COUNT>
21

> <PUBCHEM_ATOM_DEF_STEREO_COUNT>
0

> <PUBCHEM_ATOM_UDEF_STEREO_COUNT>
0

> <PUBCHEM_BOND_DEF_STEREO_COUNT>
0

> <PUBCHEM_BOND_UDEF_STEREO_COUNT>
0

> <PUBCHEM_ISOTOPIC_ATOM_COUNT>
0

> <PUBCHEM_COMPONENT_COUNT>
1

> <PUBCHEM_CACTVS_TAUTO_COUNT>
3

> <PUBCHEM_CONFORMER_ID>
00D51F5500000001

> <PUBCHEM_MMFF94_ENERGY>
42.5445

> <PUBCHEM_FEATURE_SELFOVERLAP>
25.394

> <PUBCHEM_SHAPE_FINGERPRINT>
10 15 11458424639914854696
10411042 1 18048878795842748019
106641 1 14851610973204052137
10670039 82 18333727996574231509
10730089 173 18335419058526814337
11315181 36 18272093816186252472
11719270 70 18131067096771758798
12091667 2 18114187453779059002
12236239 1 17821720616159582099
13668630 136 15985106306360653964
13964095 4 18410292514960402654
14849402 71 10591460829996050866
15183329 4 18408885118939577834
15716309 27 12607403299992818250
1577012 14 17676201373684640042
1813 80 13973693870216563096
18681886 176 18340761633029248920
195137 175 17967820453442556804
21095123 145 11025805297502935224
21150785 3 17989488516184955380
21267235 1 18339923814080584459
21756936 100 17312825970148207513
23198884 109 18410291389388827277
23559900 14 18272642480614451256
335352 9 18412255135280234701
3663271 9 10375881758121332678
4073 2 17676212373064795642
5969126 39 15769777927317193872
59755656 520 16588022420134042155
636775 8 18335420227544552159

> <PUBCHEM_SHAPE_MULTIPOLES>
421.32
24.14
1.83
1.08
68.96
0.36
-0.06
-3.73
11.11
-4.17
0.02
-0.03
-0.08
-0.1

> <PUBCHEM_SHAPE_SELFOVERLAP>
856.076

> <PUBCHEM_SHAPE_VOLUME>
246

> <PUBCHEM_COORDINATE_TYPE>
2
5
10

$$$$
