10447696
  -OEChem-09102003133D

 36 40  0     0  0  0  0  0  0999 V2000
   -2.6099   -2.8550    0.1867 O   0  0  0  0  0  0  0  0  0  0  0  0
   -2.8617    3.0973   -0.1050 O   0  0  0  0  0  0  0  0  0  0  0  0
   -0.7753   -1.4120    0.0934 N   0  0  0  0  0  0  0  0  0  0  0  0
    1.7999    1.2749    0.2033 N   0  0  0  0  0  0  0  0  0  0  0  0
   -1.1151    0.9525    0.0212 N   0  0  0  0  0  0  0  0  0  0  0  0
    2.0085   -0.9052   -0.1553 C   0  0  0  0  0  0  0  0  0  0  0  0
    1.5479   -2.2955   -0.3958 C   0  0  0  0  0  0  0  0  0  0  0  0
    1.0975    0.1104    0.0492 C   0  0  0  0  0  0  0  0  0  0  0  0
    0.1933   -2.5152    0.2933 C   0  0  0  0  0  0  0  0  0  0  0  0
   -0.3307   -0.0773    0.0620 C   0  0  0  0  0  0  0  0  0  0  0  0
    3.3129   -0.3447   -0.1083 C   0  0  0  0  0  0  0  0  0  0  0  0
    3.1531    1.0254    0.1212 C   0  0  0  0  0  0  0  0  0  0  0  0
   -2.1400   -1.7244    0.0985 C   0  0  0  0  0  0  0  0  0  0  0  0
   -3.0487   -0.5598    0.0149 C   0  0  0  0  0  0  0  0  0  0  0  0
   -2.4990    0.7265   -0.0100 C   0  0  0  0  0  0  0  0  0  0  0  0
    4.6170   -0.8615   -0.2431 C   0  0  0  0  0  0  0  0  0  0  0  0
    4.2379    1.9033    0.2271 C   0  0  0  0  0  0  0  0  0  0  0  0
    5.7103    0.0058   -0.1387 C   0  0  0  0  0  0  0  0  0  0  0  0
    5.5214    1.3666    0.0933 C   0  0  0  0  0  0  0  0  0  0  0  0
   -4.4350   -0.7464   -0.0242 C   0  0  0  0  0  0  0  0  0  0  0  0
   -3.3606    1.8275   -0.0764 C   0  0  0  0  0  0  0  0  0  0  0  0
   -5.2799    0.3605   -0.0907 C   0  0  0  0  0  0  0  0  0  0  0  0
   -4.7439    1.6461   -0.1166 C   0  0  0  0  0  0  0  0  0  0  0  0
    1.4381   -2.4477   -1.4765 H   0  0  0  0  0  0  0  0  0  0  0  0
    2.2758   -3.0261   -0.0276 H   0  0  0  0  0  0  0  0  0  0  0  0
   -0.2429   -3.4638   -0.0384 H   0  0  0  0  0  0  0  0  0  0  0  0
    0.3413   -2.5898    1.3788 H   0  0  0  0  0  0  0  0  0  0  0  0
    1.3892    2.1848    0.3614 H   0  0  0  0  0  0  0  0  0  0  0  0
    4.7802   -1.9199   -0.4250 H   0  0  0  0  0  0  0  0  0  0  0  0
    4.0924    2.9635    0.4051 H   0  0  0  0  0  0  0  0  0  0  0  0
    6.7181   -0.3882   -0.2406 H   0  0  0  0  0  0  0  0  0  0  0  0
    6.3849    2.0225    0.1702 H   0  0  0  0  0  0  0  0  0  0  0  0
   -4.8729   -1.7405   -0.0034 H   0  0  0  0  0  0  0  0  0  0  0  0
   -6.3565    0.2205   -0.1216 H   0  0  0  0  0  0  0  0  0  0  0  0
   -5.4087    2.5042   -0.1684 H   0  0  0  0  0  0  0  0  0  0  0  0
   -1.8907    3.0445   -0.0708 H   0  0  0  0  0  0  0  0  0  0  0  0
  1 13  2  0  0  0  0
  2 21  1  0  0  0  0
  2 36  1  0  0  0  0
  3  9  1  0  0  0  0
  3 10  1  0  0  0  0
  3 13  1  0  0  0  0
  4  8  1  0  0  0  0
  4 12  1  0  0  0  0
  4 28  1  0  0  0  0
  5 10  2  0  0  0  0
  5 15  1  0  0  0  0
  6  7  1  0  0  0  0
  6  8  2  0  0  0  0
  6 11  1  0  0  0  0
  7  9  1  0  0  0  0
  7 24  1  0  0  0  0
  7 25  1  0  0  0  0
  8 10  1  0  0  0  0
  9 26  1  0  0  0  0
  9 27  1  0  0  0  0
 11 12  1  0  0  0  0
 11 16  2  0  0  0  0
 12 17  2  0  0  0  0
 13 14  1  0  0  0  0
 14 15  2  0  0  0  0
 14 20  1  0  0  0  0
 15 21  1  0  0  0  0
 16 18  1  0  0  0  0
 16 29  1  0  0  0  0
 17 19  1  0  0  0  0
 17 30  1  0  0  0  0
 18 19  2  0  0  0  0
 18 31  1  0  0  0  0
 19 32  1  0  0  0  0
 20 22  2  0  0  0  0
 20 33  1  0  0  0  0
 21 23  2  0  0  0  0
 22 23  1  0  0  0  0
 22 34  1  0  0  0  0
 23 35  1  0  0  0  0
M  END
> <PUBCHEM_COMPOUND_CID>
10447696

> <PUBCHEM_CONFORMER_RMSD>
0.6

> <PUBCHEM_CONFORMER_DIVERSEORDER>
1

> <PUBCHEM_MMFF94_PARTIAL_CHARGES>
31
1 -0.57
10 0.59
12 -0.15
13 0.54
14 0.09
15 0.18
16 -0.15
17 -0.15
18 -0.15
19 -0.15
2 -0.53
20 -0.15
21 0.08
22 -0.15
23 -0.15
28 0.27
29 0.15
3 -0.42
30 0.15
31 0.15
32 0.15
33 0.15
34 0.15
35 0.15
36 0.45
4 0.03
5 -0.63
6 -0.18
7 0.18
8 -0.24
9 0.3

> <PUBCHEM_EFFECTIVE_ROTOR_COUNT>
0.4

> <PUBCHEM_PHARMACOPHORE_FEATURES>
9
1 1 acceptor
1 2 donor
1 4 cation
1 4 donor
5 4 6 8 11 12 rings
6 11 12 16 17 18 19 rings
6 14 15 20 21 22 23 rings
6 3 5 10 13 14 15 rings
6 3 6 7 8 9 10 rings

> <PUBCHEM_HEAVY_ATOM_COUNT>
23

> <PUBCHEM_ATOM_DEF_STEREO_COUNT>
0

> <PUBCHEM_ATOM_UDEF_STEREO_COUNT>
0

> <PUBCHEM_BOND_DEF_STEREO_COUNT>
0

> <PUBCHEM_BOND_UDEF_STEREO_COUNT>
0

> <PUBCHEM_ISOTOPIC_ATOM_COUNT>
0

> <PUBCHEM_COMPONENT_COUNT>
1

> <PUBCHEM_CACTVS_TAUTO_COUNT>
13

> <PUBCHEM_CONFORMER_ID>
009F6B5000000001

> <PUBCHEM_MMFF94_ENERGY>
54.2642

> <PUBCHEM_FEATURE_SELFOVERLAP>
45.911

> <PUBCHEM_SHAPE_FINGERPRINT>
10 15 18261672679443762928
10319926 262 18339909512024144698
10411042 1 17545602713297812411
10616163 171 18410856594152989487
10646746 165 18410575098075514566
11370993 70 18410572872776098487
11595378 159 17241033328089865256
12107183 9 17758952632677004168
12236239 1 17675923214000519320
12390115 104 18199483086200877977
12403259 226 17983573284438385890
12403259 415 18129943506965802240
12596602 18 16950564436505619208
12788726 201 17488746645018188681
12916748 109 18409171017078494912
13140716 1 18120664788558057443
13402501 40 18411981368736157089
138480 1 17545882629322402027
14341114 176 18409453595951692220
14466204 15 18410848842259052240
14790565 3 18410016537278496044
15042514 8 18191873546603331563
15196674 1 18411138056392185954
18608769 82 18410858806889224851
200 152 17632577158297859347
20645477 56 18408324367550508373
20645477 70 17203056188408889166
21033648 29 18059563759166341696
21065198 57 18410856590279554106
21236236 1 18341049717987241919
21267235 1 18410582789855766786
21279426 13 18268433434766870598
21315764 268 18335413582633870964
21421861 104 17750504075908861922
221357 26 18201717349167091321
22182313 1 18269297749031660846
23227448 37 18412825815246302631
23402539 116 18340762727728827775
23559900 14 18271526408410432822
245318 6 16665725109350425892
3004659 81 18335424526869599222
335352 9 18411138009807065526
34934 24 18410852157488643999
350125 39 18410577313798922640
3545911 37 18411703183598484348
3680242 22 18336826369265492202
4073 2 18041846229144583594
4214541 1 18410856568404076816
474 4 17821734943943536988
495365 180 17346587617678362408
5104073 3 18336266760269015778
59755656 215 18411985724302253678
59755656 520 17167860881048692746
6138700 20 18267026060094709822
6328613 192 18260557762169170852
9709674 26 18341900666524479255
9981440 41 18334013899857384363

> <PUBCHEM_SHAPE_MULTIPOLES>
446.65
11.98
2.74
0.62
4.51
0.35
0.01
-5.07
0.4
-1.35
-0.06
0.06
0.03
0.44

> <PUBCHEM_SHAPE_SELFOVERLAP>
1027.794

> <PUBCHEM_SHAPE_VOLUME>
228

> <PUBCHEM_COORDINATE_TYPE>
2
5
10

$$$$
