5319779
  -OEChem-09092014233D

 58 59  0     0  0  0  0  0  0999 V2000
   -4.4798   -3.1806    0.4014 O   0  0  0  0  0  0  0  0  0  0  0  0
   -3.9104    0.8587    0.3712 N   0  0  0  0  0  0  0  0  0  0  0  0
    0.7580    1.1906    0.9500 C   0  0  0  0  0  0  0  0  0  0  0  0
   -0.5641    0.6802    0.3684 C   0  0  0  0  0  0  0  0  0  0  0  0
    1.8217    1.3395   -0.1400 C   0  0  0  0  0  0  0  0  0  0  0  0
   -1.6676    0.5428    1.4202 C   0  0  0  0  0  0  0  0  0  0  0  0
    3.1334    1.8804    0.4327 C   0  0  0  0  0  0  0  0  0  0  0  0
   -2.9398   -0.0179    0.8787 C   0  0  0  0  0  0  0  0  0  0  0  0
    4.1861    2.0601   -0.6635 C   0  0  0  0  0  0  0  0  0  0  0  0
   -5.1307    0.3408   -0.1483 C   0  0  0  0  0  0  0  0  0  0  0  0
   -3.0909   -1.3534    0.9061 C   0  0  0  0  0  0  0  0  0  0  0  0
   -5.3599   -1.0517   -0.1520 C   0  0  0  0  0  0  0  0  0  0  0  0
    7.7207   -0.2720    0.0881 C   0  0  0  0  0  0  0  0  0  0  0  0
    5.4809    2.5588   -0.0908 C   0  0  0  0  0  0  0  0  0  0  0  0
   -4.3286   -1.9656    0.3845 C   0  0  0  0  0  0  0  0  0  0  0  0
    7.0594    0.7127   -0.8788 C   0  0  0  0  0  0  0  0  0  0  0  0
    8.0658   -1.5892   -0.6099 C   0  0  0  0  0  0  0  0  0  0  0  0
   -3.7524    2.3154    0.3366 C   0  0  0  0  0  0  0  0  0  0  0  0
    6.6927    1.9900   -0.1811 C   0  0  0  0  0  0  0  0  0  0  0  0
   -6.1554    1.1519   -0.6745 C   0  0  0  0  0  0  0  0  0  0  0  0
    8.7562   -2.5610    0.3468 C   0  0  0  0  0  0  0  0  0  0  0  0
   -6.5475   -1.6040   -0.6536 C   0  0  0  0  0  0  0  0  0  0  0  0
   -7.3414    0.6038   -1.1757 C   0  0  0  0  0  0  0  0  0  0  0  0
   -7.5370   -0.7718   -1.1652 C   0  0  0  0  0  0  0  0  0  0  0  0
    9.1306   -3.8586   -0.3515 C   0  0  0  0  0  0  0  0  0  0  0  0
    0.5912    2.1590    1.4370 H   0  0  0  0  0  0  0  0  0  0  0  0
    1.1131    0.4963    1.7210 H   0  0  0  0  0  0  0  0  0  0  0  0
   -0.8966    1.3638   -0.4228 H   0  0  0  0  0  0  0  0  0  0  0  0
   -0.3895   -0.2917   -0.1113 H   0  0  0  0  0  0  0  0  0  0  0  0
    1.4555    2.0190   -0.9192 H   0  0  0  0  0  0  0  0  0  0  0  0
    1.9998    0.3674   -0.6156 H   0  0  0  0  0  0  0  0  0  0  0  0
   -1.8239    1.4825    1.9602 H   0  0  0  0  0  0  0  0  0  0  0  0
   -1.2885   -0.1292    2.2049 H   0  0  0  0  0  0  0  0  0  0  0  0
    2.9484    2.8406    0.9309 H   0  0  0  0  0  0  0  0  0  0  0  0
    3.5085    1.1888    1.1980 H   0  0  0  0  0  0  0  0  0  0  0  0
    4.3100    1.1181   -1.2042 H   0  0  0  0  0  0  0  0  0  0  0  0
    3.8291    2.7956   -1.3947 H   0  0  0  0  0  0  0  0  0  0  0  0
   -2.3314   -2.0210    1.2981 H   0  0  0  0  0  0  0  0  0  0  0  0
    8.6333    0.1731    0.5047 H   0  0  0  0  0  0  0  0  0  0  0  0
    7.0478   -0.4729    0.9315 H   0  0  0  0  0  0  0  0  0  0  0  0
    5.4198    3.5047    0.4458 H   0  0  0  0  0  0  0  0  0  0  0  0
    7.7587    0.9535   -1.6887 H   0  0  0  0  0  0  0  0  0  0  0  0
    6.1942    0.2350   -1.3462 H   0  0  0  0  0  0  0  0  0  0  0  0
    7.1512   -2.0484   -1.0045 H   0  0  0  0  0  0  0  0  0  0  0  0
    8.7221   -1.3888   -1.4656 H   0  0  0  0  0  0  0  0  0  0  0  0
   -4.4711    2.7959    1.0103 H   0  0  0  0  0  0  0  0  0  0  0  0
   -3.8945    2.6986   -0.6811 H   0  0  0  0  0  0  0  0  0  0  0  0
   -2.7607    2.6679    0.6273 H   0  0  0  0  0  0  0  0  0  0  0  0
    7.5207    2.5187    0.2891 H   0  0  0  0  0  0  0  0  0  0  0  0
   -6.0676    2.2345   -0.7046 H   0  0  0  0  0  0  0  0  0  0  0  0
    8.0951   -2.7838    1.1922 H   0  0  0  0  0  0  0  0  0  0  0  0
    9.6628   -2.1003    0.7563 H   0  0  0  0  0  0  0  0  0  0  0  0
   -6.7161   -2.6774   -0.6526 H   0  0  0  0  0  0  0  0  0  0  0  0
   -8.1125    1.2579   -1.5729 H   0  0  0  0  0  0  0  0  0  0  0  0
   -8.4583   -1.1947   -1.5542 H   0  0  0  0  0  0  0  0  0  0  0  0
    8.2424   -4.3615   -0.7471 H   0  0  0  0  0  0  0  0  0  0  0  0
    9.8192   -3.6729   -1.1820 H   0  0  0  0  0  0  0  0  0  0  0  0
    9.6218   -4.5391    0.3511 H   0  0  0  0  0  0  0  0  0  0  0  0
  1 15  2  0  0  0  0
  2  8  1  0  0  0  0
  2 10  1  0  0  0  0
  2 18  1  0  0  0  0
  3  4  1  0  0  0  0
  3  5  1  0  0  0  0
  3 26  1  0  0  0  0
  3 27  1  0  0  0  0
  4  6  1  0  0  0  0
  4 28  1  0  0  0  0
  4 29  1  0  0  0  0
  5  7  1  0  0  0  0
  5 30  1  0  0  0  0
  5 31  1  0  0  0  0
  6  8  1  0  0  0  0
  6 32  1  0  0  0  0
  6 33  1  0  0  0  0
  7  9  1  0  0  0  0
  7 34  1  0  0  0  0
  7 35  1  0  0  0  0
  8 11  2  0  0  0  0
  9 14  1  0  0  0  0
  9 36  1  0  0  0  0
  9 37  1  0  0  0  0
 10 12  1  0  0  0  0
 10 20  2  0  0  0  0
 11 15  1  0  0  0  0
 11 38  1  0  0  0  0
 12 15  1  0  0  0  0
 12 22  2  0  0  0  0
 13 16  1  0  0  0  0
 13 17  1  0  0  0  0
 13 39  1  0  0  0  0
 13 40  1  0  0  0  0
 14 19  2  0  0  0  0
 14 41  1  0  0  0  0
 16 19  1  0  0  0  0
 16 42  1  0  0  0  0
 16 43  1  0  0  0  0
 17 21  1  0  0  0  0
 17 44  1  0  0  0  0
 17 45  1  0  0  0  0
 18 46  1  0  0  0  0
 18 47  1  0  0  0  0
 18 48  1  0  0  0  0
 19 49  1  0  0  0  0
 20 23  1  0  0  0  0
 20 50  1  0  0  0  0
 21 25  1  0  0  0  0
 21 51  1  0  0  0  0
 21 52  1  0  0  0  0
 22 24  1  0  0  0  0
 22 53  1  0  0  0  0
 23 24  2  0  0  0  0
 23 54  1  0  0  0  0
 24 55  1  0  0  0  0
 25 56  1  0  0  0  0
 25 57  1  0  0  0  0
 25 58  1  0  0  0  0
M  END
> <PUBCHEM_COMPOUND_CID>
5319779

> <PUBCHEM_CONFORMER_RMSD>
1.4

> <PUBCHEM_CONFORMER_DIVERSEORDER>
1
28
81
82
26
77
14
34
54
16
10
43
67
53
33
31
18
40
29
49
71
72
24
59
20
17
65
36
22
55
80
58
57
38
39
73
12
50
6
4
27
9
86
2
35
19
90
42
84
11
83
25
52
47
7
44
79
63
62
5
46
89
15
70
61
3
60
13
78
48
75
30
76
21
56
85
23
45
74
41
8
69
88
66
51
32
37
87
64
68

> <PUBCHEM_MMFF94_PARTIAL_CHARGES>
24
1 -0.57
10 0.1
11 -0.14
12 0.09
14 -0.29
15 0.47
16 0.14
18 0.37
19 -0.29
2 -0.57
20 -0.15
22 -0.15
23 -0.15
24 -0.15
38 0.15
41 0.15
49 0.15
50 0.15
53 0.15
54 0.15
55 0.15
6 0.14
8 -0.04
9 0.14

> <PUBCHEM_EFFECTIVE_ROTOR_COUNT>
11

> <PUBCHEM_PHARMACOPHORE_FEATURES>
6
1 1 acceptor
1 2 cation
1 25 hydrophobe
5 13 16 17 19 21 hydrophobe
6 10 12 20 22 23 24 rings
6 2 8 10 11 12 15 rings

> <PUBCHEM_HEAVY_ATOM_COUNT>
25

> <PUBCHEM_ATOM_DEF_STEREO_COUNT>
0

> <PUBCHEM_ATOM_UDEF_STEREO_COUNT>
0

> <PUBCHEM_BOND_DEF_STEREO_COUNT>
1

> <PUBCHEM_BOND_UDEF_STEREO_COUNT>
0

> <PUBCHEM_ISOTOPIC_ATOM_COUNT>
0

> <PUBCHEM_COMPONENT_COUNT>
1

> <PUBCHEM_CACTVS_TAUTO_COUNT>
3

> <PUBCHEM_CONFORMER_ID>
00512C6300000001

> <PUBCHEM_MMFF94_ENERGY>
43.7372

> <PUBCHEM_FEATURE_SELFOVERLAP>
30.469

> <PUBCHEM_SHAPE_FINGERPRINT>
10066227 49 18411982455816284302
10319688 67 15051726487521373340
10838868 160 8718247003169683670
11211813 163 18337390440358793145
11315181 36 18268716176674933697
11719270 70 18131071545972138590
12539765 74 11891329834239891576
12592606 108 18412826855503944878
12645989 146 18335989701189364372
13177829 20 10735883875924349204
14251764 18 11312060967128591368
14617042 71 9079106779234543854
14919807 6 17749661888092084956
15183329 4 18187643617601131344
16126227 98 9439395827160281604
2026 5 18272370862772749342
21521721 280 9871751291440597020
21781055 127 17916870115292506617
23524908 199 18334005073540796060
23559900 14 18196929084120072321
3663271 9 11455628572781187228
444735 82 9583516530379989690
474113 269 18343018857739939926
504579 68 18040992955943485688
531348 171 18410859866865055409
5718773 13 18411703154662490720
5758199 1 11240001161689096476
59682541 35 12175618499232353836
6438161 24 18412822478906020032
9689198 14 7997969085890516736
9953998 17 10303826397461286005

> <PUBCHEM_SHAPE_MULTIPOLES>
503.64
31.95
3.54
1.05
49.59
2.46
-0.02
20.58
9.85
7.63
0.04
-0.9
-0.03
0.06

> <PUBCHEM_SHAPE_SELFOVERLAP>
1014.165

> <PUBCHEM_SHAPE_VOLUME>
295.7

> <PUBCHEM_COORDINATE_TYPE>
2
5
10

$$$$
