68230
  -OEChem-09092014023D

 30 32  0     0  0  0  0  0  0999 V2000
   -1.2464   -1.2018   -0.0001 O   0  0  0  0  0  0  0  0  0  0  0  0
    0.0002    3.4162   -0.0003 O   0  0  0  0  0  0  0  0  0  0  0  0
    1.6377    1.8182   -0.0002 N   0  0  0  0  0  0  0  0  0  0  0  0
   -2.6656   -0.9341    0.0000 C   0  0  0  0  0  0  0  0  0  0  0  0
   -0.3546   -0.1513   -0.0003 C   0  0  0  0  0  0  0  0  0  0  0  0
   -0.7160    1.1453    0.0001 C   0  0  0  0  0  0  0  0  0  0  0  0
   -3.0389    0.5296    0.0008 C   0  0  0  0  0  0  0  0  0  0  0  0
    1.0655   -0.5376   -0.0004 C   0  0  0  0  0  0  0  0  0  0  0  0
   -3.2345   -1.6070    1.2536 C   0  0  0  0  0  0  0  0  0  0  0  0
   -3.2346   -1.6057   -1.2543 C   0  0  0  0  0  0  0  0  0  0  0  0
   -2.1145    1.4943    0.0009 C   0  0  0  0  0  0  0  0  0  0  0  0
    2.0353    0.4720   -0.0001 C   0  0  0  0  0  0  0  0  0  0  0  0
    0.3204    2.2283   -0.0002 C   0  0  0  0  0  0  0  0  0  0  0  0
    1.4902   -1.8738   -0.0005 C   0  0  0  0  0  0  0  0  0  0  0  0
    3.3987    0.1628    0.0002 C   0  0  0  0  0  0  0  0  0  0  0  0
    2.8524   -2.1861    0.0001 C   0  0  0  0  0  0  0  0  0  0  0  0
    3.8048   -1.1694    0.0006 C   0  0  0  0  0  0  0  0  0  0  0  0
   -4.0915    0.7996    0.0012 H   0  0  0  0  0  0  0  0  0  0  0  0
   -2.9783   -2.6729    1.2747 H   0  0  0  0  0  0  0  0  0  0  0  0
   -2.8033   -1.1692    2.1620 H   0  0  0  0  0  0  0  0  0  0  0  0
   -4.3245   -1.5137    1.3109 H   0  0  0  0  0  0  0  0  0  0  0  0
   -2.8035   -1.1668   -2.1622 H   0  0  0  0  0  0  0  0  0  0  0  0
   -2.9785   -2.6715   -1.2766 H   0  0  0  0  0  0  0  0  0  0  0  0
   -4.3247   -1.5122   -1.3114 H   0  0  0  0  0  0  0  0  0  0  0  0
   -2.4131    2.5364    0.0014 H   0  0  0  0  0  0  0  0  0  0  0  0
    2.3643    2.5286   -0.0002 H   0  0  0  0  0  0  0  0  0  0  0  0
    0.7745   -2.6923   -0.0008 H   0  0  0  0  0  0  0  0  0  0  0  0
    4.1486    0.9494    0.0004 H   0  0  0  0  0  0  0  0  0  0  0  0
    3.1690   -3.2252    0.0002 H   0  0  0  0  0  0  0  0  0  0  0  0
    4.8625   -1.4156    0.0011 H   0  0  0  0  0  0  0  0  0  0  0  0
  1  4  1  0  0  0  0
  1  5  1  0  0  0  0
  2 13  2  0  0  0  0
  3 12  1  0  0  0  0
  3 13  1  0  0  0  0
  3 26  1  0  0  0  0
  4  7  1  0  0  0  0
  4  9  1  0  0  0  0
  4 10  1  0  0  0  0
  5  6  2  0  0  0  0
  5  8  1  0  0  0  0
  6 11  1  0  0  0  0
  6 13  1  0  0  0  0
  7 11  2  0  0  0  0
  7 18  1  0  0  0  0
  8 12  1  0  0  0  0
  8 14  2  0  0  0  0
  9 19  1  0  0  0  0
  9 20  1  0  0  0  0
  9 21  1  0  0  0  0
 10 22  1  0  0  0  0
 10 23  1  0  0  0  0
 10 24  1  0  0  0  0
 11 25  1  0  0  0  0
 12 15  2  0  0  0  0
 14 16  1  0  0  0  0
 14 27  1  0  0  0  0
 15 17  1  0  0  0  0
 15 28  1  0  0  0  0
 16 17  2  0  0  0  0
 16 29  1  0  0  0  0
 17 30  1  0  0  0  0
M  END
> <PUBCHEM_COMPOUND_CID>
68230

> <PUBCHEM_CONFORMER_RMSD>
0.4

> <PUBCHEM_CONFORMER_DIVERSEORDER>
1

> <PUBCHEM_MMFF94_PARTIAL_CHARGES>
22
1 -0.36
11 -0.15
12 0.12
13 0.62
14 -0.15
15 -0.15
16 -0.15
17 -0.15
18 0.15
2 -0.57
25 0.15
26 0.37
27 0.15
28 0.15
29 0.15
3 -0.55
30 0.15
4 0.42
5 0.05
6 0.01
7 -0.29
8 0.03

> <PUBCHEM_EFFECTIVE_ROTOR_COUNT>
0.4

> <PUBCHEM_PHARMACOPHORE_FEATURES>
7
1 1 acceptor
1 2 acceptor
1 3 donor
3 4 9 10 hydrophobe
6 1 4 5 6 7 11 rings
6 3 5 6 8 12 13 rings
6 8 12 14 15 16 17 rings

> <PUBCHEM_HEAVY_ATOM_COUNT>
17

> <PUBCHEM_ATOM_DEF_STEREO_COUNT>
0

> <PUBCHEM_ATOM_UDEF_STEREO_COUNT>
0

> <PUBCHEM_BOND_DEF_STEREO_COUNT>
0

> <PUBCHEM_BOND_UDEF_STEREO_COUNT>
0

> <PUBCHEM_ISOTOPIC_ATOM_COUNT>
0

> <PUBCHEM_COMPONENT_COUNT>
1

> <PUBCHEM_CACTVS_TAUTO_COUNT>
2

> <PUBCHEM_CONFORMER_ID>
00010A8600000001

> <PUBCHEM_MMFF94_ENERGY>
49.8981

> <PUBCHEM_FEATURE_SELFOVERLAP>
35.57

> <PUBCHEM_SHAPE_FINGERPRINT>
10616163 171 18268151955147188630
10618630 7 18409730629995340526
10967382 1 18266458904666061988
11132069 177 18341043013316108394
11543360 7 15647344081870037022
11578080 2 17344883387276851041
12032990 46 18410017628205210650
12382932 28 18340488859255249240
12553582 1 18411704313264995790
13140716 1 18338800005047244728
13583140 156 14261061017992205422
14790565 3 17688048804199847965
15196674 1 18410856542771267170
16945 1 18194682794152594277
18186145 218 17313103046799097986
193761 8 17329991812005928452
19591789 44 17038963195767446092
200 152 18130777993368056327
20510252 161 17839176312317291000
20645477 70 18047176729845257791
20871998 184 18128535968298459118
21041028 32 18339095847159305817
21267235 1 18339089202370352638
21501502 16 18411420591993612780
221490 88 18263368147257714443
22213442 358 18411698789841646287
2255824 54 18123474048718909404
22721475 48 18409450279978184526
23184049 29 18192991522205374386
2334 1 18410576188517244202
23388829 49 18342453789518386940
23402539 116 18338787941017308134
23463225 33 18410576162958352638
23557571 272 18199192785055324398
23559900 14 18123744263151394826
2748010 2 18411694378984144900
3091708 16 9067117703796428112
3312278 4 18335424508787448618
335352 9 17978510836651504188
34934 24 18338227163757812041
352729 6 17185876091096132792
458136 41 17541964403761960369
5104073 3 18411136896914573322
54173680 148 18265336092777395256
6992083 37 18200887179591766897
7364860 26 18196652010782868840
7832392 63 18412825755264576649
81228 2 18193280680556746408
8809292 202 18261961734420416338
9709674 26 18053663581960827318

> <PUBCHEM_SHAPE_MULTIPOLES>
333.13
5.99
2.88
0.79
0.76
1.64
0
-3.44
0
0.04
0
-0.62
-0.34
0

> <PUBCHEM_SHAPE_SELFOVERLAP>
736.643

> <PUBCHEM_SHAPE_VOLUME>
178.3

> <PUBCHEM_COORDINATE_TYPE>
2
5
10

$$$$
