5322031
  -OEChem-09092013373D

 60 61  0     0  0  0  0  0  0999 V2000
   -6.0493    2.5707    0.9965 O   0  0  0  0  0  0  0  0  0  0  0  0
   -4.2331   -0.6565   -0.7150 N   0  0  0  0  0  0  0  0  0  0  0  0
    3.9186    0.2220    0.1785 C   0  0  0  0  0  0  0  0  0  0  0  0
    2.7730    0.5286   -0.7897 C   0  0  0  0  0  0  0  0  0  0  0  0
    5.3017    0.2855   -0.4760 C   0  0  0  0  0  0  0  0  0  0  0  0
    1.4171    0.4385   -0.0850 C   0  0  0  0  0  0  0  0  0  0  0  0
    6.4452   -0.0449    0.4858 C   0  0  0  0  0  0  0  0  0  0  0  0
    0.2286    0.7159   -1.0110 C   0  0  0  0  0  0  0  0  0  0  0  0
    7.8005    0.0215   -0.2221 C   0  0  0  0  0  0  0  0  0  0  0  0
   -1.1595    0.5571   -0.3817 C   0  0  0  0  0  0  0  0  0  0  0  0
    8.9496   -0.2710    0.7456 C   0  0  0  0  0  0  0  0  0  0  0  0
   -2.3037    0.7859   -1.3699 C   0  0  0  0  0  0  0  0  0  0  0  0
   10.3005   -0.2365    0.0273 C   0  0  0  0  0  0  0  0  0  0  0  0
   -3.6366    0.6131   -0.7211 C   0  0  0  0  0  0  0  0  0  0  0  0
   11.4837   -0.5534    0.9444 C   0  0  0  0  0  0  0  0  0  0  0  0
   -5.5050   -0.8387   -0.1015 C   0  0  0  0  0  0  0  0  0  0  0  0
   -4.2034    1.6997   -0.1683 C   0  0  0  0  0  0  0  0  0  0  0  0
   -6.1609    0.2570    0.4990 C   0  0  0  0  0  0  0  0  0  0  0  0
   -5.5213    1.5901    0.4874 C   0  0  0  0  0  0  0  0  0  0  0  0
   -3.6209   -1.8457   -1.3141 C   0  0  0  0  0  0  0  0  0  0  0  0
   12.8260   -0.5465    0.2298 C   0  0  0  0  0  0  0  0  0  0  0  0
   -6.1717   -2.0789   -0.0535 C   0  0  0  0  0  0  0  0  0  0  0  0
   -7.4143    0.1217    1.1137 C   0  0  0  0  0  0  0  0  0  0  0  0
   -7.4223   -2.2170    0.5591 C   0  0  0  0  0  0  0  0  0  0  0  0
   -8.0423   -1.1184    1.1417 C   0  0  0  0  0  0  0  0  0  0  0  0
    3.7722   -0.7779    0.6057 H   0  0  0  0  0  0  0  0  0  0  0  0
    3.8860    0.9313    1.0149 H   0  0  0  0  0  0  0  0  0  0  0  0
    2.9037    1.5329   -1.2096 H   0  0  0  0  0  0  0  0  0  0  0  0
    2.8005   -0.1794   -1.6265 H   0  0  0  0  0  0  0  0  0  0  0  0
    5.3285   -0.4133   -1.3215 H   0  0  0  0  0  0  0  0  0  0  0  0
    5.4550    1.2896   -0.8906 H   0  0  0  0  0  0  0  0  0  0  0  0
    1.3020   -0.5632    0.3475 H   0  0  0  0  0  0  0  0  0  0  0  0
    1.3904    1.1486    0.7507 H   0  0  0  0  0  0  0  0  0  0  0  0
    6.4311    0.6612    1.3249 H   0  0  0  0  0  0  0  0  0  0  0  0
    6.2959   -1.0478    0.9035 H   0  0  0  0  0  0  0  0  0  0  0  0
    0.3222    1.7344   -1.4086 H   0  0  0  0  0  0  0  0  0  0  0  0
    0.2963    0.0405   -1.8735 H   0  0  0  0  0  0  0  0  0  0  0  0
    7.8185   -0.7024   -1.0459 H   0  0  0  0  0  0  0  0  0  0  0  0
    7.9381    1.0165   -0.6627 H   0  0  0  0  0  0  0  0  0  0  0  0
   -1.2454    1.2582    0.4584 H   0  0  0  0  0  0  0  0  0  0  0  0
   -1.2359   -0.4507    0.0455 H   0  0  0  0  0  0  0  0  0  0  0  0
    8.9468    0.4657    1.5578 H   0  0  0  0  0  0  0  0  0  0  0  0
    8.8042   -1.2574    1.2021 H   0  0  0  0  0  0  0  0  0  0  0  0
   -2.2136    1.8139   -1.7512 H   0  0  0  0  0  0  0  0  0  0  0  0
   -2.1924    0.1748   -2.2711 H   0  0  0  0  0  0  0  0  0  0  0  0
   10.4484    0.7544   -0.4197 H   0  0  0  0  0  0  0  0  0  0  0  0
   10.2883   -0.9577   -0.7995 H   0  0  0  0  0  0  0  0  0  0  0  0
   11.3337   -1.5382    1.4029 H   0  0  0  0  0  0  0  0  0  0  0  0
   11.5137    0.1763    1.7624 H   0  0  0  0  0  0  0  0  0  0  0  0
   -3.7303    2.6756   -0.1769 H   0  0  0  0  0  0  0  0  0  0  0  0
   -2.5969   -1.6985   -1.6629 H   0  0  0  0  0  0  0  0  0  0  0  0
   -4.2054   -2.1853   -2.1769 H   0  0  0  0  0  0  0  0  0  0  0  0
   -3.5483   -2.6578   -0.5808 H   0  0  0  0  0  0  0  0  0  0  0  0
   13.6326   -0.7779    0.9324 H   0  0  0  0  0  0  0  0  0  0  0  0
   13.0281    0.4349   -0.2109 H   0  0  0  0  0  0  0  0  0  0  0  0
   12.8458   -1.2931   -0.5704 H   0  0  0  0  0  0  0  0  0  0  0  0
   -5.7444   -2.9742   -0.4969 H   0  0  0  0  0  0  0  0  0  0  0  0
   -7.9126    0.9707    1.5737 H   0  0  0  0  0  0  0  0  0  0  0  0
   -7.9102   -3.1875    0.5771 H   0  0  0  0  0  0  0  0  0  0  0  0
   -9.0129   -1.2278    1.6161 H   0  0  0  0  0  0  0  0  0  0  0  0
  1 19  2  0  0  0  0
  2 14  1  0  0  0  0
  2 16  1  0  0  0  0
  2 20  1  0  0  0  0
  3  4  1  0  0  0  0
  3  5  1  0  0  0  0
  3 26  1  0  0  0  0
  3 27  1  0  0  0  0
  4  6  1  0  0  0  0
  4 28  1  0  0  0  0
  4 29  1  0  0  0  0
  5  7  1  0  0  0  0
  5 30  1  0  0  0  0
  5 31  1  0  0  0  0
  6  8  1  0  0  0  0
  6 32  1  0  0  0  0
  6 33  1  0  0  0  0
  7  9  1  0  0  0  0
  7 34  1  0  0  0  0
  7 35  1  0  0  0  0
  8 10  1  0  0  0  0
  8 36  1  0  0  0  0
  8 37  1  0  0  0  0
  9 11  1  0  0  0  0
  9 38  1  0  0  0  0
  9 39  1  0  0  0  0
 10 12  1  0  0  0  0
 10 40  1  0  0  0  0
 10 41  1  0  0  0  0
 11 13  1  0  0  0  0
 11 42  1  0  0  0  0
 11 43  1  0  0  0  0
 12 14  1  0  0  0  0
 12 44  1  0  0  0  0
 12 45  1  0  0  0  0
 13 15  1  0  0  0  0
 13 46  1  0  0  0  0
 13 47  1  0  0  0  0
 14 17  2  0  0  0  0
 15 21  1  0  0  0  0
 15 48  1  0  0  0  0
 15 49  1  0  0  0  0
 16 18  1  0  0  0  0
 16 22  2  0  0  0  0
 17 19  1  0  0  0  0
 17 50  1  0  0  0  0
 18 19  1  0  0  0  0
 18 23  2  0  0  0  0
 20 51  1  0  0  0  0
 20 52  1  0  0  0  0
 20 53  1  0  0  0  0
 21 54  1  0  0  0  0
 21 55  1  0  0  0  0
 21 56  1  0  0  0  0
 22 24  1  0  0  0  0
 22 57  1  0  0  0  0
 23 25  1  0  0  0  0
 23 58  1  0  0  0  0
 24 25  2  0  0  0  0
 24 59  1  0  0  0  0
 25 60  1  0  0  0  0
M  END
> <PUBCHEM_COMPOUND_CID>
5322031

> <PUBCHEM_CONFORMER_RMSD>
1.2

> <PUBCHEM_CONFORMER_DIVERSEORDER>
1
282
24
229
25
292
222
248
158
61
64
47
95
207
170
40
263
69
116
279
36
194
20
224
103
182
3
259
171
100
219
270
51
167
169
242
14
275
7
90
189
277
38
253
183
283
187
258
236
268
50
68
135
280
162
276
49
11
246
138
37
245
79
46
166
215
139
75
260
101
111
98
286
262
70
186
104
17
5
265
65
106
199
165
188
130
209
142
120
34
119
203
212
33
77
63
9
62
146
266
99
102
73
235
22
293
10
136
184
267
163
105
43
84
255
32
211
144
272
93
164
261
132
180
196
181
76
110
133
281
89
154
256
161
92
58
31
225
15
151
143
4
285
240
291
150
97
239
244
126
278
221
67
216
264
45
153
88
113
82
83
118
230
227
202
156
30
54
251
226
18
121
114
16
72
288
52
78
74
12
145
173
81
148
218
197
223
176
287
205
243
57
28
134
59
175
274
195
149
269
94
174
8
123
290
87
155
208
80
127
191
21
271
137
122
198
44
252
140
213
35
233
39
193
71
6
200
168
234
41
96
48
86
250
172
60
284
56
107
55
91
117
131
85
109
152
241
157
254
29
42
192
129
232
26
19
289
147
124
27
214
257
13
204
160
141
273
210
238
66
53
190
128
247
231
217
23
228
249
108
112
178
159
206
220
2
115
185
201
125
177
179
237

> <PUBCHEM_MMFF94_PARTIAL_CHARGES>
18
1 -0.57
12 0.14
14 -0.04
16 0.1
17 -0.14
18 0.09
19 0.47
2 -0.57
20 0.37
22 -0.15
23 -0.15
24 -0.15
25 -0.15
50 0.15
57 0.15
58 0.15
59 0.15
60 0.15

> <PUBCHEM_EFFECTIVE_ROTOR_COUNT>
12

> <PUBCHEM_PHARMACOPHORE_FEATURES>
5
1 1 acceptor
1 2 cation
1 21 hydrophobe
6 16 18 22 23 24 25 rings
6 2 14 16 17 18 19 rings

> <PUBCHEM_HEAVY_ATOM_COUNT>
25

> <PUBCHEM_ATOM_DEF_STEREO_COUNT>
0

> <PUBCHEM_ATOM_UDEF_STEREO_COUNT>
0

> <PUBCHEM_BOND_DEF_STEREO_COUNT>
0

> <PUBCHEM_BOND_UDEF_STEREO_COUNT>
0

> <PUBCHEM_ISOTOPIC_ATOM_COUNT>
0

> <PUBCHEM_COMPONENT_COUNT>
1

> <PUBCHEM_CACTVS_TAUTO_COUNT>
3

> <PUBCHEM_CONFORMER_ID>
0051352F00000001

> <PUBCHEM_MMFF94_ENERGY>
42.0358

> <PUBCHEM_FEATURE_SELFOVERLAP>
25.394

> <PUBCHEM_SHAPE_FINGERPRINT>
10 15 17917433163629546933
10162869 55 15357697488678361798
10299344 5 18259988184458400964
11315181 36 18335421283937253773
12089408 11 17967817137859679636
12498461 61 18201998876158709367
12522641 33 11024109864017820340
12559415 86 16773527590990653464
13165054 27 12966311323804954451
13383668 90 14851880422869174091
13553643 46 15123782991028219610
14202775 3 18040998415797128250
14251764 46 12540698115990623440
15247644 1 17240203240151036658
15510794 2 18343587322843274158
155225 1 12463576174877983834
1754911 235 9367344839145480130
1818759 1 18187082850393072178
21026386 39 18338518647771285483
21095123 145 18273216425831576884
21360442 43 10159397830860096741
21360443 89 18340766044351363543
21362267 20 18260263062925814210
21362267 313 10807667662899590500
232437 2 18186519900682036202
23528940 14 18336826485098526003
335507 130 18410292523951251518
54039377 194 17676205784246651430
57676310 188 17749103375241482810
59520647 208 18200879453199933206
59521270 166 15502367916724559935
59521660 218 16154002343253699948
59584819 82 18040999596797395707
636775 8 15213024864511412841
67123 10 18186238434205543804
9937071 3 17203611455605139462
9953998 17 17775283893474625911

> <PUBCHEM_SHAPE_MULTIPOLES>
503.64
43.1
1.77
1.12
143.8
0.15
0.07
14.8
-15.12
-5.57
-0.13
-1.06
0.01
-0.91

> <PUBCHEM_SHAPE_SELFOVERLAP>
1007.098

> <PUBCHEM_SHAPE_VOLUME>
297.8

> <PUBCHEM_COORDINATE_TYPE>
2
5
10

$$$$
