189454
  -OEChem-09092013173D

 44 46  0     0  0  0  0  0  0999 V2000
    3.3971    2.3098    0.9161 O   0  0  0  0  0  0  0  0  0  0  0  0
    1.1903    1.9602    0.1638 N   0  0  0  0  0  0  0  0  0  0  0  0
   -2.9701   -2.1539   -0.0066 N   0  0  0  0  0  0  0  0  0  0  0  0
    3.5573    0.2956   -1.8106 N   0  0  0  0  0  0  0  0  0  0  0  0
   -0.7243    0.5795    0.8974 C   0  0  0  0  0  0  0  0  0  0  0  0
   -1.8242   -0.3199    0.4939 C   0  0  0  0  0  0  0  0  0  0  0  0
    0.1386    1.0811   -0.2721 C   0  0  0  0  0  0  0  0  0  0  0  0
   -3.1470    0.0653    0.1381 C   0  0  0  0  0  0  0  0  0  0  0  0
   -3.8452   -1.1039   -0.1714 C   0  0  0  0  0  0  0  0  0  0  0  0
   -1.7464   -1.6900    0.3955 C   0  0  0  0  0  0  0  0  0  0  0  0
   -3.8196    1.3004    0.0492 C   0  0  0  0  0  0  0  0  0  0  0  0
    2.4916    1.5648    0.5432 C   0  0  0  0  0  0  0  0  0  0  0  0
   -5.1876   -1.0998   -0.5668 C   0  0  0  0  0  0  0  0  0  0  0  0
    0.8688    3.3900    0.2122 C   0  0  0  0  0  0  0  0  0  0  0  0
    2.8045    0.1275    0.5066 C   0  0  0  0  0  0  0  0  0  0  0  0
   -5.1624    1.3197   -0.3449 C   0  0  0  0  0  0  0  0  0  0  0  0
   -5.8340    0.1369   -0.6478 C   0  0  0  0  0  0  0  0  0  0  0  0
    3.3177   -0.4601   -0.6411 C   0  0  0  0  0  0  0  0  0  0  0  0
    2.5717   -0.6230    1.6511 C   0  0  0  0  0  0  0  0  0  0  0  0
    3.6044   -1.8253   -0.6446 C   0  0  0  0  0  0  0  0  0  0  0  0
    2.8583   -1.9881    1.6473 C   0  0  0  0  0  0  0  0  0  0  0  0
    3.3745   -2.5893    0.4995 C   0  0  0  0  0  0  0  0  0  0  0  0
    4.0860   -0.2774   -3.0079 C   0  0  0  0  0  0  0  0  0  0  0  0
   -0.0978    0.0675    1.6354 H   0  0  0  0  0  0  0  0  0  0  0  0
   -1.1392    1.4427    1.4339 H   0  0  0  0  0  0  0  0  0  0  0  0
    0.5635    0.2226   -0.8021 H   0  0  0  0  0  0  0  0  0  0  0  0
   -0.4826    1.6097   -1.0060 H   0  0  0  0  0  0  0  0  0  0  0  0
   -0.9308   -2.3771    0.5740 H   0  0  0  0  0  0  0  0  0  0  0  0
   -3.1989   -3.1262   -0.1605 H   0  0  0  0  0  0  0  0  0  0  0  0
   -3.3108    2.2319    0.2802 H   0  0  0  0  0  0  0  0  0  0  0  0
   -5.7112   -2.0202   -0.8028 H   0  0  0  0  0  0  0  0  0  0  0  0
    0.0091    3.5386    0.8714 H   0  0  0  0  0  0  0  0  0  0  0  0
    0.6199    3.7262   -0.7986 H   0  0  0  0  0  0  0  0  0  0  0  0
    1.7079    3.9824    0.5851 H   0  0  0  0  0  0  0  0  0  0  0  0
   -5.6861    2.2694   -0.4155 H   0  0  0  0  0  0  0  0  0  0  0  0
   -6.8768    0.1752   -0.9520 H   0  0  0  0  0  0  0  0  0  0  0  0
    2.1774   -0.1637    2.5534 H   0  0  0  0  0  0  0  0  0  0  0  0
    4.0068   -2.3360   -1.5141 H   0  0  0  0  0  0  0  0  0  0  0  0
    2.6806   -2.5827    2.5386 H   0  0  0  0  0  0  0  0  0  0  0  0
    3.3395    1.2848   -1.7969 H   0  0  0  0  0  0  0  0  0  0  0  0
    3.5974   -3.6523    0.4974 H   0  0  0  0  0  0  0  0  0  0  0  0
    3.4222   -1.0467   -3.4162 H   0  0  0  0  0  0  0  0  0  0  0  0
    5.0843   -0.6984   -2.8492 H   0  0  0  0  0  0  0  0  0  0  0  0
    4.1835    0.5009   -3.7721 H   0  0  0  0  0  0  0  0  0  0  0  0
  1 12  2  0  0  0  0
  2  7  1  0  0  0  0
  2 12  1  0  0  0  0
  2 14  1  0  0  0  0
  3  9  1  0  0  0  0
  3 10  1  0  0  0  0
  3 29  1  0  0  0  0
  4 18  1  0  0  0  0
  4 23  1  0  0  0  0
  4 40  1  0  0  0  0
  5  6  1  0  0  0  0
  5  7  1  0  0  0  0
  5 24  1  0  0  0  0
  5 25  1  0  0  0  0
  6  8  1  0  0  0  0
  6 10  2  0  0  0  0
  7 26  1  0  0  0  0
  7 27  1  0  0  0  0
  8  9  1  0  0  0  0
  8 11  2  0  0  0  0
  9 13  2  0  0  0  0
 10 28  1  0  0  0  0
 11 16  1  0  0  0  0
 11 30  1  0  0  0  0
 12 15  1  0  0  0  0
 13 17  1  0  0  0  0
 13 31  1  0  0  0  0
 14 32  1  0  0  0  0
 14 33  1  0  0  0  0
 14 34  1  0  0  0  0
 15 18  1  0  0  0  0
 15 19  2  0  0  0  0
 16 17  2  0  0  0  0
 16 35  1  0  0  0  0
 17 36  1  0  0  0  0
 18 20  2  0  0  0  0
 19 21  1  0  0  0  0
 19 37  1  0  0  0  0
 20 22  1  0  0  0  0
 20 38  1  0  0  0  0
 21 22  2  0  0  0  0
 21 39  1  0  0  0  0
 22 41  1  0  0  0  0
 23 42  1  0  0  0  0
 23 43  1  0  0  0  0
 23 44  1  0  0  0  0
M  END
> <PUBCHEM_COMPOUND_CID>
189454

> <PUBCHEM_CONFORMER_RMSD>
0.8

> <PUBCHEM_CONFORMER_DIVERSEORDER>
1
90
129
69
143
92
78
33
174
62
58
115
15
83
141
50
49
81
21
171
145
48
144
27
136
29
75
57
158
156
147
117
59
107
51
5
95
3
176
165
126
64
53
98
102
22
2
127
161
109
120
89
18
45
67
30
130
167
66
77
55
43
160
39
121
162
153
12
103
114
123
146
88
11
17
20
134
142
6
8
106
9
44
124
54
135
163
138
155
28
159
63
96
68
32
178
132
170
24
56
112
152
86
84
4
116
36
14
164
105
61
131
177
154
52
93
119
148
97
71
118
133
31
65
25
37
101
87
74
149
76
150
85
104
72
113
172
34
42
151
82
60
166
110
70
79
40
139
169
100
26
175
80
10
13
111
122
7
47
125
99
91
179
38
173
128
73
137
168
35
157
140
23
19
94
41
108
46
16

> <PUBCHEM_MMFF94_PARTIAL_CHARGES>
33
1 -0.57
10 -0.3
11 -0.15
12 0.54
13 -0.15
14 0.3
15 0.09
16 -0.15
17 -0.15
18 0.1
19 -0.15
2 -0.66
20 -0.15
21 -0.15
22 -0.15
23 0.37
28 0.15
29 0.27
3 0.03
30 0.15
31 0.15
35 0.15
36 0.15
37 0.15
38 0.15
39 0.15
4 -0.87
40 0.4
41 0.15
5 0.18
6 -0.18
7 0.3
9 -0.15

> <PUBCHEM_EFFECTIVE_ROTOR_COUNT>
6

> <PUBCHEM_PHARMACOPHORE_FEATURES>
8
1 1 acceptor
1 3 cation
1 3 donor
1 4 cation
1 4 donor
5 3 6 8 9 10 rings
6 15 18 19 20 21 22 rings
6 8 9 11 13 16 17 rings

> <PUBCHEM_HEAVY_ATOM_COUNT>
23

> <PUBCHEM_ATOM_DEF_STEREO_COUNT>
0

> <PUBCHEM_ATOM_UDEF_STEREO_COUNT>
0

> <PUBCHEM_BOND_DEF_STEREO_COUNT>
0

> <PUBCHEM_BOND_UDEF_STEREO_COUNT>
0

> <PUBCHEM_ISOTOPIC_ATOM_COUNT>
0

> <PUBCHEM_COMPONENT_COUNT>
1

> <PUBCHEM_CACTVS_TAUTO_COUNT>
2

> <PUBCHEM_CONFORMER_ID>
0002E40E00000001

> <PUBCHEM_MMFF94_ENERGY>
66.4031

> <PUBCHEM_FEATURE_SELFOVERLAP>
40.688

> <PUBCHEM_SHAPE_FINGERPRINT>
11796584 16 17988922288797116311
11954058 11 14764077718260369444
12107183 9 18052816953897063337
12553582 1 18268448879068145402
12596599 1 18130519594855131194
12788726 201 18194413194755689160
13224815 77 10087921878419228355
13533116 47 18201431511125684657
13583140 156 17558820930828274753
14251764 30 13613144088196607676
14347332 77 18341038697655016167
14866123 147 17621883089305274593
15183329 4 18342172233839520621
15210252 30 17458918114533274036
15664445 248 18114753728053622268
16752209 62 18193277399127989785
17349148 13 17846500318610444739
17492 89 18339637970806343539
17818456 19 18060143085825164553
17844677 252 18412826906711282185
18608769 82 17897460607999637835
20369508 70 18412256225310325760
20645477 70 17988928898271678564
22393880 68 18339930423360240782
23559900 14 18202847672979711737
239999 70 18202002174777306188
3004659 81 18114462249992291074
49207404 50 10015577345979524165
5104073 3 18411415125196461209
543358 83 18409165515119991361
6442390 28 8718531844282259984
6443956 14 18408881815387085976
6823239 73 18272374191551166714
960060 61 18186525388368358943
9709674 26 18266176313219745011
9981440 41 17470156424807850729

> <PUBCHEM_SHAPE_MULTIPOLES>
452.52
11.57
2.84
1.58
12.35
1.02
1.05
-2.41
3.75
-1.73
-0.7
-2.86
-0.24
-0.18

> <PUBCHEM_SHAPE_SELFOVERLAP>
977.679

> <PUBCHEM_SHAPE_VOLUME>
249.7

> <PUBCHEM_COORDINATE_TYPE>
2
5
10

$$$$
