129668240
  -OEChem-11212003023D

 42 42  0     1  0  0  0  0  0999 V2000
    2.8166   -2.0332    0.9963 O   0  0  0  0  0  0  0  0  0  0  0  0
    5.2423   -0.7948    1.4781 O   0  0  0  0  0  0  0  0  0  0  0  0
    2.6262   -1.6481   -1.8156 O   0  0  0  0  0  0  0  0  0  0  0  0
    6.4627    0.8029   -0.4494 O   0  0  0  0  0  0  0  0  0  0  0  0
    5.0589    3.1545   -0.0351 O   0  0  0  0  0  0  0  0  0  0  0  0
    0.1412   -1.8371   -1.0783 O   0  0  0  0  0  0  0  0  0  0  0  0
   -7.8558    0.5065   -0.4397 O   0  0  0  0  0  0  0  0  0  0  0  0
    3.0679   -0.7600    0.4016 C   0  0  1  0  0  0  0  0  0  0  0  0
    4.5960   -0.5879    0.2235 C   0  0  1  0  0  0  0  0  0  0  0  0
    2.2335   -0.6494   -0.8853 C   0  0  2  0  0  0  0  0  0  0  0  0
    5.0407    0.7713   -0.3475 C   0  0  1  0  0  0  0  0  0  0  0  0
    0.7463   -0.8744   -0.6030 C   0  0  0  0  0  0  0  0  0  0  0  0
    4.5949    1.9364    0.5388 C   0  0  0  0  0  0  0  0  0  0  0  0
    0.0628    0.1292    0.3155 C   0  0  0  0  0  0  0  0  0  0  0  0
   -1.3809    0.2800   -0.0561 C   0  0  0  0  0  0  0  0  0  0  0  0
   -2.3905    0.0156    0.7881 C   0  0  0  0  0  0  0  0  0  0  0  0
   -3.8213    0.1429    0.4658 C   0  0  0  0  0  0  0  0  0  0  0  0
   -4.2267    0.9382   -0.6061 C   0  0  0  0  0  0  0  0  0  0  0  0
   -4.7718   -0.5307    1.2331 C   0  0  0  0  0  0  0  0  0  0  0  0
   -5.5825    1.0602   -0.9105 C   0  0  0  0  0  0  0  0  0  0  0  0
   -6.1276   -0.4087    0.9288 C   0  0  0  0  0  0  0  0  0  0  0  0
   -6.5329    0.3867   -0.1430 C   0  0  0  0  0  0  0  0  0  0  0  0
    2.7103   -0.0309    1.1366 H   0  0  0  0  0  0  0  0  0  0  0  0
    4.9718   -1.3887   -0.4254 H   0  0  0  0  0  0  0  0  0  0  0  0
    2.3472    0.3267   -1.3655 H   0  0  0  0  0  0  0  0  0  0  0  0
    4.6503    0.9040   -1.3623 H   0  0  0  0  0  0  0  0  0  0  0  0
    5.0300    1.8621    1.5405 H   0  0  0  0  0  0  0  0  0  0  0  0
    3.5063    1.9964    0.6159 H   0  0  0  0  0  0  0  0  0  0  0  0
    0.5510    1.1032    0.2022 H   0  0  0  0  0  0  0  0  0  0  0  0
    0.1954   -0.2059    1.3493 H   0  0  0  0  0  0  0  0  0  0  0  0
    3.3411   -2.0830    1.8137 H   0  0  0  0  0  0  0  0  0  0  0  0
    6.1992   -0.6966    1.3347 H   0  0  0  0  0  0  0  0  0  0  0  0
    2.6108   -2.5059   -1.3574 H   0  0  0  0  0  0  0  0  0  0  0  0
    6.7112    1.6745   -0.8021 H   0  0  0  0  0  0  0  0  0  0  0  0
   -1.5648    0.6161   -1.0724 H   0  0  0  0  0  0  0  0  0  0  0  0
    4.7652    3.8745    0.5488 H   0  0  0  0  0  0  0  0  0  0  0  0
   -2.1628   -0.3380    1.7912 H   0  0  0  0  0  0  0  0  0  0  0  0
   -3.5251    1.4973   -1.2179 H   0  0  0  0  0  0  0  0  0  0  0  0
   -4.4739   -1.1556    2.0715 H   0  0  0  0  0  0  0  0  0  0  0  0
   -5.8932    1.6848   -1.7436 H   0  0  0  0  0  0  0  0  0  0  0  0
   -6.8582   -0.9385    1.5342 H   0  0  0  0  0  0  0  0  0  0  0  0
   -8.3698   -0.0252    0.1920 H   0  0  0  0  0  0  0  0  0  0  0  0
  1  8  1  0  0  0  0
  1 31  1  0  0  0  0
  2  9  1  0  0  0  0
  2 32  1  0  0  0  0
  3 10  1  0  0  0  0
  3 33  1  0  0  0  0
  4 11  1  0  0  0  0
  4 34  1  0  0  0  0
  5 13  1  0  0  0  0
  5 36  1  0  0  0  0
  6 12  2  0  0  0  0
  7 22  1  0  0  0  0
  7 42  1  0  0  0  0
  8  9  1  0  0  0  0
  8 10  1  0  0  0  0
  8 23  1  0  0  0  0
  9 11  1  0  0  0  0
  9 24  1  0  0  0  0
 10 12  1  0  0  0  0
 10 25  1  0  0  0  0
 11 13  1  0  0  0  0
 11 26  1  0  0  0  0
 12 14  1  0  0  0  0
 13 27  1  0  0  0  0
 13 28  1  0  0  0  0
 14 15  1  0  0  0  0
 14 29  1  0  0  0  0
 14 30  1  0  0  0  0
 15 16  2  0  0  0  0
 15 35  1  0  0  0  0
 16 17  1  0  0  0  0
 16 37  1  0  0  0  0
 17 18  2  0  0  0  0
 17 19  1  0  0  0  0
 18 20  1  0  0  0  0
 18 38  1  0  0  0  0
 19 21  2  0  0  0  0
 19 39  1  0  0  0  0
 20 22  2  0  0  0  0
 20 40  1  0  0  0  0
 21 22  1  0  0  0  0
 21 41  1  0  0  0  0
M  END
> <PUBCHEM_COMPOUND_CID>
129668240

> <PUBCHEM_CONFORMER_RMSD>
1

> <PUBCHEM_CONFORMER_DIVERSEORDER>
1
24
10
99
57
81
51
9
11
18
123
112
30
13
95
103
4
16
47
41
74
59
46
49
94
66
75
117
2
97
83
69
89
43
82
85
35
118
125
34
105
110
86
55
56
23
53
92
31
102
38
62
124
58
42
5
84
39
100
96
109
6
79
20
32
114
22
45
90
70
33
25
21
76
64
91
113
68
71
54
48
36
15
122
80
93
65
88
60
107
78
72
106
87
17
63
77
52
12
108
50
61
98
121
101
37
27
126
7
111
19
40
8
116
29
115
14
67
119
104
28
3
44
26
73
120

> <PUBCHEM_MMFF94_PARTIAL_CHARGES>
34
1 -0.68
10 0.34
11 0.28
12 0.45
13 0.28
14 0.2
15 -0.29
16 -0.18
17 0.03
18 -0.15
19 -0.15
2 -0.68
20 -0.15
21 -0.15
22 0.08
3 -0.68
31 0.4
32 0.4
33 0.4
34 0.4
35 0.15
36 0.4
37 0.15
38 0.15
39 0.15
4 -0.68
40 0.15
41 0.15
42 0.45
5 -0.68
6 -0.57
7 -0.53
8 0.28
9 0.28

> <PUBCHEM_EFFECTIVE_ROTOR_COUNT>
8

> <PUBCHEM_PHARMACOPHORE_FEATURES>
13
1 1 acceptor
1 1 donor
1 2 acceptor
1 2 donor
1 3 acceptor
1 3 donor
1 4 acceptor
1 4 donor
1 5 acceptor
1 5 donor
1 6 acceptor
1 7 donor
6 17 18 19 20 21 22 rings

> <PUBCHEM_HEAVY_ATOM_COUNT>
22

> <PUBCHEM_ATOM_DEF_STEREO_COUNT>
4

> <PUBCHEM_ATOM_UDEF_STEREO_COUNT>
0

> <PUBCHEM_BOND_DEF_STEREO_COUNT>
1

> <PUBCHEM_BOND_UDEF_STEREO_COUNT>
0

> <PUBCHEM_ISOTOPIC_ATOM_COUNT>
0

> <PUBCHEM_COMPONENT_COUNT>
1

> <PUBCHEM_CACTVS_TAUTO_COUNT>
1001

> <PUBCHEM_CONFORMER_ID>
07BA949000000001

> <PUBCHEM_MMFF94_ENERGY>
46.7174

> <PUBCHEM_FEATURE_SELFOVERLAP>
66.021

> <PUBCHEM_SHAPE_FINGERPRINT>
10 15 18334579061919006627
10366900 7 17060335210957597515
10638233 991 17418376921767523985
10670039 82 17489319546822434056
10835480 77 18335134238308942957
11045977 3 18114186354177734586
11405975 8 12901845933773569561
11796584 16 13334748928890110624
12236239 1 15719398330539612355
12596602 18 17675924300305654809
12616971 3 18341317947210835550
13073987 5 17967815986454886353
13533116 47 17676481697246281114
13685833 64 8862946073898435348
13899415 154 17203894088766824729
13914758 101 13334726930795360703
14123256 10 17132113537220034541
14251732 16 18335703883941870027
14251764 18 14345803763658050871
14251764 30 10015575108733969403
14251764 75 18054507182547927832
14429380 56 18340475751305745173
14528608 73 16415476051807528219
14840074 17 17989487441895044645
15183329 4 11959739269421913014
15799311 1 14549027580415282093
16079462 125 17822283583456435213
17844677 252 18270407074907101625
17857418 61 12396297075575189081
18335252 114 18131354120592650820
19489759 90 17240204314113814433
20157964 124 18411700971890968854
20511986 3 17385712604781231667
20567600 234 17822575000855213684
21315759 40 16917071027575014206
21315763 178 12179843935450615416
21344244 78 18196635330068687586
23035841 295 13470688135943631655
23081809 10 16845297090721037251
23402539 116 17022904541182213335
23559900 14 17749403511360138846
239999 70 18270968947008789974
2916195 48 18186518813285254945
300161 21 17894631448627496947
3004659 81 14851614262352584895
345986 75 13334999634731798876
34797466 226 18271813406271656437
4073 2 16877952658373502083
4325135 7 17775567528877895669
4340502 62 17894911823728739066
5104073 3 17968663705461502017
5283173 99 18041837303744164957
5486654 2 17632858629232953343
67856867 119 16951140585093657069
8988823 20 18187361004679314810

> <PUBCHEM_SHAPE_MULTIPOLES>
411.66
19.51
1.82
1.19
13.8
0.8
0.08
6.8
-1.09
-3.43
0.1
-0.1
-0.41
0.79

> <PUBCHEM_SHAPE_SELFOVERLAP>
837.436

> <PUBCHEM_SHAPE_VOLUME>
237.2

> <PUBCHEM_COORDINATE_TYPE>
2
5
10

$$$$
