14825516
  -OEChem-11212003013D

 42 43  0     1  0  0  0  0  0999 V2000
    1.9783   -0.4913    0.4464 O   0  0  0  0  0  0  0  0  0  0  0  0
    1.1638    1.6533    0.0209 O   0  0  0  0  0  0  0  0  0  0  0  0
    5.8211    0.6505   -0.4460 O   0  0  0  0  0  0  0  0  0  0  0  0
    5.1341   -2.1565   -0.3793 O   0  0  0  0  0  0  0  0  0  0  0  0
    3.5374    2.2490   -1.4001 O   0  0  0  0  0  0  0  0  0  0  0  0
    1.1989   -3.0944    0.8619 O   0  0  0  0  0  0  0  0  0  0  0  0
   -0.2049    1.7807    2.4368 O   0  0  0  0  0  0  0  0  0  0  0  0
   -6.7589   -1.5685   -1.5077 O   0  0  0  0  0  0  0  0  0  0  0  0
   -7.0592   -0.4197    0.4404 O   0  0  0  0  0  0  0  0  0  0  0  0
    4.5167    0.1458   -0.7366 C   0  0  1  0  0  0  0  0  0  0  0  0
    4.2971   -1.1103    0.1067 C   0  0  1  0  0  0  0  0  0  0  0  0
    3.4736    1.2165   -0.4166 C   0  0  2  0  0  0  0  0  0  0  0  0
    2.8356   -1.5599    0.0410 C   0  0  1  0  0  0  0  0  0  0  0  0
    2.0598    0.6352   -0.4237 C   0  0  1  0  0  0  0  0  0  0  0  0
    2.5662   -2.7420    0.9667 C   0  0  0  0  0  0  0  0  0  0  0  0
   -0.1604    1.3168    0.0884 C   0  0  0  0  0  0  0  0  0  0  0  0
   -0.8417    1.3819    1.3006 C   0  0  0  0  0  0  0  0  0  0  0  0
   -0.8181    0.9085   -1.0687 C   0  0  0  0  0  0  0  0  0  0  0  0
   -2.1918    1.0357    1.3562 C   0  0  0  0  0  0  0  0  0  0  0  0
   -2.1681    0.5623   -1.0129 C   0  0  0  0  0  0  0  0  0  0  0  0
   -2.8550    0.6258    0.1995 C   0  0  0  0  0  0  0  0  0  0  0  0
   -4.2628    0.2651    0.2574 C   0  0  0  0  0  0  0  0  0  0  0  0
   -4.9140   -0.4897   -0.6553 C   0  0  0  0  0  0  0  0  0  0  0  0
   -6.3477   -0.7946   -0.4761 C   0  0  0  0  0  0  0  0  0  0  0  0
    4.5087   -0.0930   -1.8072 H   0  0  0  0  0  0  0  0  0  0  0  0
    4.5924   -0.9091    1.1438 H   0  0  0  0  0  0  0  0  0  0  0  0
    3.6944    1.6850    0.5499 H   0  0  0  0  0  0  0  0  0  0  0  0
    2.5604   -1.8592   -0.9795 H   0  0  0  0  0  0  0  0  0  0  0  0
    1.7922    0.3365   -1.4457 H   0  0  0  0  0  0  0  0  0  0  0  0
    2.7657   -2.4857    2.0125 H   0  0  0  0  0  0  0  0  0  0  0  0
    3.1686   -3.6140    0.6962 H   0  0  0  0  0  0  0  0  0  0  0  0
    6.4581   -0.0565   -0.6465 H   0  0  0  0  0  0  0  0  0  0  0  0
    4.8746   -2.3470   -1.2968 H   0  0  0  0  0  0  0  0  0  0  0  0
    3.3458    1.8523   -2.2671 H   0  0  0  0  0  0  0  0  0  0  0  0
    0.6738   -2.3102    1.0969 H   0  0  0  0  0  0  0  0  0  0  0  0
   -0.3070    0.8752   -2.0264 H   0  0  0  0  0  0  0  0  0  0  0  0
   -2.7229    1.0857    2.3045 H   0  0  0  0  0  0  0  0  0  0  0  0
   -2.6489    0.2724   -1.9426 H   0  0  0  0  0  0  0  0  0  0  0  0
   -0.8355    1.7630    3.1771 H   0  0  0  0  0  0  0  0  0  0  0  0
   -4.8059    0.6387    1.1231 H   0  0  0  0  0  0  0  0  0  0  0  0
   -4.4261   -0.9134   -1.5257 H   0  0  0  0  0  0  0  0  0  0  0  0
   -7.7095   -1.8004   -1.4369 H   0  0  0  0  0  0  0  0  0  0  0  0
  1 13  1  0  0  0  0
  1 14  1  0  0  0  0
  2 14  1  0  0  0  0
  2 16  1  0  0  0  0
  3 10  1  0  0  0  0
  3 32  1  0  0  0  0
  4 11  1  0  0  0  0
  4 33  1  0  0  0  0
  5 12  1  0  0  0  0
  5 34  1  0  0  0  0
  6 15  1  0  0  0  0
  6 35  1  0  0  0  0
  7 17  1  0  0  0  0
  7 39  1  0  0  0  0
  8 24  1  0  0  0  0
  8 42  1  0  0  0  0
  9 24  2  0  0  0  0
 10 11  1  0  0  0  0
 10 12  1  0  0  0  0
 10 25  1  0  0  0  0
 11 13  1  0  0  0  0
 11 26  1  0  0  0  0
 12 14  1  0  0  0  0
 12 27  1  0  0  0  0
 13 15  1  0  0  0  0
 13 28  1  0  0  0  0
 14 29  1  0  0  0  0
 15 30  1  0  0  0  0
 15 31  1  0  0  0  0
 16 17  2  0  0  0  0
 16 18  1  0  0  0  0
 17 19  1  0  0  0  0
 18 20  2  0  0  0  0
 18 36  1  0  0  0  0
 19 21  2  0  0  0  0
 19 37  1  0  0  0  0
 20 21  1  0  0  0  0
 20 38  1  0  0  0  0
 21 22  1  0  0  0  0
 22 23  2  0  0  0  0
 22 40  1  0  0  0  0
 23 24  1  0  0  0  0
 23 41  1  0  0  0  0
M  END
> <PUBCHEM_COMPOUND_CID>
14825516

> <PUBCHEM_CONFORMER_RMSD>
0.8

> <PUBCHEM_CONFORMER_DIVERSEORDER>
1
90
54
63
100
3
93
10
27
78
38
77
69
92
79
71
113
25
112
86
46
47
7
89
2
57
17
66
84
114
30
56
50
117
44
29
55
59
108
109
106
82
119
12
75
37
34
5
32
118
51
120
11
18
43
76
81
70
60
19
6
64
33
13
28
4
105
72
91
102
15
68
65
111
80
85
48
35
16
101
8
53
73
14
31
87
95
74
107
103
58
21
96
98
110
20
49
41
88
94
40
67
39
99
62
97
61
24
45
116
26
9
22
23
104
52
42
83
115
36

> <PUBCHEM_MMFF94_PARTIAL_CHARGES>
35
1 -0.56
10 0.28
11 0.28
12 0.28
13 0.28
14 0.56
15 0.28
16 0.08
17 0.08
18 -0.15
19 -0.15
2 -0.36
20 -0.15
21 0.03
22 -0.18
23 -0.14
24 0.71
3 -0.68
32 0.4
33 0.4
34 0.4
35 0.4
36 0.15
37 0.15
38 0.15
39 0.45
4 -0.68
40 0.15
41 0.15
42 0.5
5 -0.68
6 -0.68
7 -0.53
8 -0.65
9 -0.57

> <PUBCHEM_EFFECTIVE_ROTOR_COUNT>
6.2

> <PUBCHEM_PHARMACOPHORE_FEATURES>
16
1 1 acceptor
1 2 acceptor
1 3 acceptor
1 3 donor
1 4 acceptor
1 4 donor
1 5 acceptor
1 5 donor
1 6 acceptor
1 6 donor
1 7 donor
1 8 acceptor
1 9 acceptor
3 8 9 24 anion
6 1 10 11 12 13 14 rings
6 16 17 18 19 20 21 rings

> <PUBCHEM_HEAVY_ATOM_COUNT>
24

> <PUBCHEM_ATOM_DEF_STEREO_COUNT>
5

> <PUBCHEM_ATOM_UDEF_STEREO_COUNT>
0

> <PUBCHEM_BOND_DEF_STEREO_COUNT>
1

> <PUBCHEM_BOND_UDEF_STEREO_COUNT>
0

> <PUBCHEM_ISOTOPIC_ATOM_COUNT>
0

> <PUBCHEM_COMPONENT_COUNT>
1

> <PUBCHEM_CACTVS_TAUTO_COUNT>
3

> <PUBCHEM_CONFORMER_ID>
00E2382C00000001

> <PUBCHEM_MMFF94_ENERGY>
74.2519

> <PUBCHEM_FEATURE_SELFOVERLAP>
81.319

> <PUBCHEM_SHAPE_FINGERPRINT>
10366900 7 17241340070775318598
11796584 16 18202004344052126815
12107183 9 17690001137766278185
12236239 1 18201162074314894740
12553582 1 17417517064940405525
12596602 18 17704071785218276179
12788726 201 17917720076156031185
13533116 47 18413109480456062161
1361 2 18041001803270335940
13836976 161 18113624508215355710
13911987 19 17897186769675226668
15183329 4 18260540088346891197
15348495 7 12895064167966043319
15537594 2 18343298193533248215
17134984 74 18187076304472939019
17138139 8 18199175377236992815
17492 89 18055637218080567062
17857418 61 18342457045752398271
18335252 114 8286207119721257371
19319366 153 18411692214558699734
200 152 18411421687157844048
20028762 73 18341892931869154006
20567600 247 18410849997758352159
20645477 70 18040995133143647404
20715895 44 11242240841088890759
21285901 2 17167857539358031343
21637258 2 18412818080236932017
22224240 67 18336822096036886624
23522609 53 17984733184203928601
23559900 14 18262796401944494041
23598288 3 17772185314899235277
2838139 119 8574716780511362603
2871803 45 18186802456914436434
3004659 81 18408882914946225435
312425 54 13614527381176867743
314194 84 18413390951776076691
33382 64 18407761435119750355
3411729 13 16485832804415897520
351380 3 18131909365073790063
397830 11 12319160881005990845
4098825 35 18186798038126604605
4340502 62 18338791325314263864
439807 62 18337672053244105303
46194498 28 17458063793708029981
463206 1 18339357573934742571
465052 167 17989209278427198957
59682541 52 17968086522091865471
7970288 3 17988641852759912839

> <PUBCHEM_SHAPE_MULTIPOLES>
441.08
14.41
2.47
1.36
17.25
1.54
0.44
6.52
-4.68
-2.56
0.48
0.59
-0.44
-1.76

> <PUBCHEM_SHAPE_SELFOVERLAP>
927.28

> <PUBCHEM_SHAPE_VOLUME>
245.4

> <PUBCHEM_COORDINATE_TYPE>
2
5
10

$$$$
