5273566
  -OEChem-11212002373D

 60 62  0     1  0  0  0  0  0999 V2000
    2.0058   -0.5631   -0.9149 O   0  0  0  0  0  0  0  0  0  0  0  0
   -1.6000   -0.5254   -0.2740 O   0  0  0  0  0  0  0  0  0  0  0  0
    3.8036   -1.5229    0.2212 O   0  0  0  0  0  0  0  0  0  0  0  0
   -0.4614   -1.0222    2.3361 O   0  0  0  0  0  0  0  0  0  0  0  0
    1.9983   -2.6268    2.1002 O   0  0  0  0  0  0  0  0  0  0  0  0
    1.1462    0.2165   -3.4068 O   0  0  0  0  0  0  0  0  0  0  0  0
   -2.1458    0.9757    1.3954 O   0  0  0  0  0  0  0  0  0  0  0  0
    6.8619    1.9671    2.2544 O   0  0  0  0  0  0  0  0  0  0  0  0
    7.7721    3.3878    0.0453 O   0  0  0  0  0  0  0  0  0  0  0  0
   -9.4702    2.1293    0.6012 O   0  0  0  0  0  0  0  0  0  0  0  0
  -10.2506   -0.1086   -0.8495 O   0  0  0  0  0  0  0  0  0  0  0  0
   -0.2159   -0.3943    0.0396 C   0  0  1  0  0  0  0  0  0  0  0  0
    0.1587   -1.4178    1.1116 C   0  0  1  0  0  0  0  0  0  0  0  0
    0.6129   -0.6086   -1.2291 C   0  0  1  0  0  0  0  0  0  0  0  0
    1.6734   -1.4856    1.3068 C   0  0  2  0  0  0  0  0  0  0  0  0
    2.4015   -1.6098   -0.0316 C   0  0  1  0  0  0  0  0  0  0  0  0
    0.3408    0.4722   -2.2707 C   0  0  0  0  0  0  0  0  0  0  0  0
    4.5557   -2.0709   -0.8501 C   0  0  0  0  0  0  0  0  0  0  0  0
    6.0449   -1.9721   -0.5379 C   0  0  0  0  0  0  0  0  0  0  0  0
   -2.4513    0.2198    0.4867 C   0  0  0  0  0  0  0  0  0  0  0  0
    6.5044   -0.5431   -0.3789 C   0  0  0  0  0  0  0  0  0  0  0  0
   -3.8301   -0.0478    0.0185 C   0  0  0  0  0  0  0  0  0  0  0  0
    6.4725    0.0643    0.8764 C   0  0  0  0  0  0  0  0  0  0  0  0
    6.9611    0.1699   -1.4873 C   0  0  0  0  0  0  0  0  0  0  0  0
   -4.8610    0.5695    0.6131 C   0  0  0  0  0  0  0  0  0  0  0  0
    6.8976    1.3848    1.0233 C   0  0  0  0  0  0  0  0  0  0  0  0
    7.3858    1.4904   -1.3404 C   0  0  0  0  0  0  0  0  0  0  0  0
    7.3543    2.0978   -0.0852 C   0  0  0  0  0  0  0  0  0  0  0  0
   -6.2736    0.3945    0.2320 C   0  0  0  0  0  0  0  0  0  0  0  0
   -7.2187    1.3529    0.5981 C   0  0  0  0  0  0  0  0  0  0  0  0
   -6.6658   -0.7295   -0.4950 C   0  0  0  0  0  0  0  0  0  0  0  0
   -8.5559    1.1875    0.2370 C   0  0  0  0  0  0  0  0  0  0  0  0
   -8.0030   -0.8951   -0.8556 C   0  0  0  0  0  0  0  0  0  0  0  0
   -8.9481    0.0635   -0.4898 C   0  0  0  0  0  0  0  0  0  0  0  0
   -0.0013    0.6162    0.4167 H   0  0  0  0  0  0  0  0  0  0  0  0
   -0.2515   -2.4043    0.8655 H   0  0  0  0  0  0  0  0  0  0  0  0
    0.3879   -1.5827   -1.6843 H   0  0  0  0  0  0  0  0  0  0  0  0
    2.0296   -0.6064    1.8568 H   0  0  0  0  0  0  0  0  0  0  0  0
    2.1761   -2.5848   -0.4862 H   0  0  0  0  0  0  0  0  0  0  0  0
   -0.7092    0.4783   -2.5783 H   0  0  0  0  0  0  0  0  0  0  0  0
    0.6112    1.4615   -1.8863 H   0  0  0  0  0  0  0  0  0  0  0  0
   -0.1083   -0.1513    2.5863 H   0  0  0  0  0  0  0  0  0  0  0  0
    1.6896   -3.4195    1.6291 H   0  0  0  0  0  0  0  0  0  0  0  0
    4.2929   -3.1271   -0.9822 H   0  0  0  0  0  0  0  0  0  0  0  0
    4.3257   -1.5345   -1.7786 H   0  0  0  0  0  0  0  0  0  0  0  0
    6.6246   -2.4604   -1.3308 H   0  0  0  0  0  0  0  0  0  0  0  0
    6.2660   -2.5189    0.3877 H   0  0  0  0  0  0  0  0  0  0  0  0
    0.9603    0.9178   -4.0542 H   0  0  0  0  0  0  0  0  0  0  0  0
   -3.9436   -0.7305   -0.8154 H   0  0  0  0  0  0  0  0  0  0  0  0
    6.1168   -0.4919    1.7404 H   0  0  0  0  0  0  0  0  0  0  0  0
    6.9887   -0.2921   -2.4705 H   0  0  0  0  0  0  0  0  0  0  0  0
   -4.6843    1.2654    1.4300 H   0  0  0  0  0  0  0  0  0  0  0  0
    7.7387    2.0344   -2.2125 H   0  0  0  0  0  0  0  0  0  0  0  0
   -6.9168    2.2317    1.1642 H   0  0  0  0  0  0  0  0  0  0  0  0
   -5.9692   -1.5108   -0.7843 H   0  0  0  0  0  0  0  0  0  0  0  0
    6.5178    1.3252    2.8990 H   0  0  0  0  0  0  0  0  0  0  0  0
    8.0523    3.7196   -0.8250 H   0  0  0  0  0  0  0  0  0  0  0  0
   -8.2962   -1.7774   -1.4184 H   0  0  0  0  0  0  0  0  0  0  0  0
   -9.0196    2.8338    1.0977 H   0  0  0  0  0  0  0  0  0  0  0  0
  -10.3346   -0.9403   -1.3468 H   0  0  0  0  0  0  0  0  0  0  0  0
  1 14  1  0  0  0  0
  1 16  1  0  0  0  0
  2 12  1  0  0  0  0
  2 20  1  0  0  0  0
  3 16  1  0  0  0  0
  3 18  1  0  0  0  0
  4 13  1  0  0  0  0
  4 42  1  0  0  0  0
  5 15  1  0  0  0  0
  5 43  1  0  0  0  0
  6 17  1  0  0  0  0
  6 48  1  0  0  0  0
  7 20  2  0  0  0  0
  8 26  1  0  0  0  0
  8 56  1  0  0  0  0
  9 28  1  0  0  0  0
  9 57  1  0  0  0  0
 10 32  1  0  0  0  0
 10 59  1  0  0  0  0
 11 34  1  0  0  0  0
 11 60  1  0  0  0  0
 12 13  1  0  0  0  0
 12 14  1  0  0  0  0
 12 35  1  0  0  0  0
 13 15  1  0  0  0  0
 13 36  1  0  0  0  0
 14 17  1  0  0  0  0
 14 37  1  0  0  0  0
 15 16  1  0  0  0  0
 15 38  1  0  0  0  0
 16 39  1  0  0  0  0
 17 40  1  0  0  0  0
 17 41  1  0  0  0  0
 18 19  1  0  0  0  0
 18 44  1  0  0  0  0
 18 45  1  0  0  0  0
 19 21  1  0  0  0  0
 19 46  1  0  0  0  0
 19 47  1  0  0  0  0
 20 22  1  0  0  0  0
 21 23  2  0  0  0  0
 21 24  1  0  0  0  0
 22 25  2  0  0  0  0
 22 49  1  0  0  0  0
 23 26  1  0  0  0  0
 23 50  1  0  0  0  0
 24 27  2  0  0  0  0
 24 51  1  0  0  0  0
 25 29  1  0  0  0  0
 25 52  1  0  0  0  0
 26 28  2  0  0  0  0
 27 28  1  0  0  0  0
 27 53  1  0  0  0  0
 29 30  2  0  0  0  0
 29 31  1  0  0  0  0
 30 32  1  0  0  0  0
 30 54  1  0  0  0  0
 31 33  2  0  0  0  0
 31 55  1  0  0  0  0
 32 34  2  0  0  0  0
 33 34  1  0  0  0  0
 33 58  1  0  0  0  0
M  END
> <PUBCHEM_COMPOUND_CID>
5273566

> <PUBCHEM_CONFORMER_RMSD>
1

> <PUBCHEM_CONFORMER_DIVERSEORDER>
1
52
157
31
50
75
110
58
26
120
57
113
55
22
38
149
164
88
59
133
14
103
163
92
48
100
105
122
47
138
60
42
116
93
74
130
104
118
142
98
46
37
30
61
76
135
150
84
144
131
41
34
91
27
81
65
129
109
96
127
108
68
121
77
112
99
44
134
80
153
136
147
71
19
39
17
6
54
111
15
33
132
101
117
106
51
87
82
124
70
62
72
102
162
28
90
5
36
128
23
69
12
145
137
152
35
141
78
85
18
66
94
154
83
73
11
123
10
119
56
161
20
4
107
40
114
156
125
64
25
63
79
29
95
158
16
45
21
126
13
89
155
24
8
160
9
67
97
151
2
159
143
86
53
3
139
146
49
148
140
115
7
43
32

> <PUBCHEM_MMFF94_PARTIAL_CHARGES>
49
1 -0.56
10 -0.53
11 -0.53
12 0.28
13 0.28
14 0.28
15 0.28
16 0.56
17 0.28
18 0.28
19 0.14
2 -0.43
20 0.71
21 -0.14
22 -0.14
23 -0.15
24 -0.15
25 -0.18
26 0.08
27 -0.15
28 0.08
29 0.03
3 -0.56
30 -0.15
31 -0.15
32 0.08
33 -0.15
34 0.08
4 -0.68
42 0.4
43 0.4
48 0.4
49 0.15
5 -0.68
50 0.15
51 0.15
52 0.15
53 0.15
54 0.15
55 0.15
56 0.45
57 0.45
58 0.15
59 0.45
6 -0.68
60 0.45
7 -0.57
8 -0.53
9 -0.53

> <PUBCHEM_EFFECTIVE_ROTOR_COUNT>
10.2

> <PUBCHEM_PHARMACOPHORE_FEATURES>
16
1 1 acceptor
1 10 donor
1 11 donor
1 3 acceptor
1 4 acceptor
1 4 donor
1 5 acceptor
1 5 donor
1 6 acceptor
1 6 donor
1 7 acceptor
1 8 donor
1 9 donor
6 1 12 13 14 15 16 rings
6 21 23 24 26 27 28 rings
6 29 30 31 32 33 34 rings

> <PUBCHEM_HEAVY_ATOM_COUNT>
34

> <PUBCHEM_ATOM_DEF_STEREO_COUNT>
5

> <PUBCHEM_ATOM_UDEF_STEREO_COUNT>
0

> <PUBCHEM_BOND_DEF_STEREO_COUNT>
1

> <PUBCHEM_BOND_UDEF_STEREO_COUNT>
0

> <PUBCHEM_ISOTOPIC_ATOM_COUNT>
0

> <PUBCHEM_COMPONENT_COUNT>
1

> <PUBCHEM_CACTVS_TAUTO_COUNT>
180

> <PUBCHEM_CONFORMER_ID>
005077DE00000001

> <PUBCHEM_MMFF94_ENERGY>
91.3679

> <PUBCHEM_FEATURE_SELFOVERLAP>
81.272

> <PUBCHEM_SHAPE_FINGERPRINT>
10162869 55 17167865288418575087
10391435 84 17676211282190250075
10533779 47 8142088701898638173
11181472 205 17844256125236673099
11211813 74 18341612598699070697
11315181 36 17917713479866823747
11719270 70 15285359496635255674
11991303 11 16271919441661744556
12089408 11 18272369738282016903
12539765 74 17988369173897206559
12664476 115 18334859399404533068
12838862 33 16877937253111865423
13165053 371 17968376749600645597
13165053 68 18126562560224073215
13383665 225 16557927640627003769
13383668 254 18339096934356024129
13560911 43 15357702968355350269
13617811 41 15195570091977784050
14142895 15 18272088326901439543
14359421 15 11383296110408192092
14444916 359 12535629371465870421
14537116 161 16200432481759169416
150020 25 17846502555660892323
15840311 113 18411704270837121134
16120349 18 18187366540665390845
1754911 235 18272655644694325589
17686467 74 18411981378349419881
18365409 1 18338237175776122215
19301679 30 11386353839021686318
20105231 36 13758355575153723973
20554085 129 16877941646346289512
20771845 171 16916796150132106438
21267235 1 13758072983290499523
21344244 181 11672065242518688068
21362857 166 16271376201898546836
21781051 124 15339116879148605158
21792934 111 16660357065770098102
22224240 67 17821446863254754570
22899556 105 12390700519421955692
23576562 1 16199572723384450673
24771293 8 17822010929883432919
3178227 256 15574721291758238359
3418910 222 17131840846222260849
34797466 226 18201160958129871766
3552219 110 17988650666655153761
45270241 37 18272657800900264462
4625314 4 18202285766761684494
54583773 228 18272089457037020639
5470011 282 17989489593457070311
5758199 1 18113900451026645963

> <PUBCHEM_SHAPE_MULTIPOLES>
635.14
32.7
2.28
1.9
45.19
0.67
0.46
18.01
2.69
-4.8
-0.67
-2.15
-0.09
-0.35

> <PUBCHEM_SHAPE_SELFOVERLAP>
1349.347

> <PUBCHEM_SHAPE_VOLUME>
349.8

> <PUBCHEM_COORDINATE_TYPE>
2
5
10

$$$$
