23955893
  -OEChem-11212002153D

 71 74  0     1  0  0  0  0  0999 V2000
    3.0649   -1.3021    1.1903 O   0  0  0  0  0  0  0  0  0  0  0  0
   -2.1414   -0.7396    1.1568 O   0  0  0  0  0  0  0  0  0  0  0  0
    2.5731    0.4112   -0.3549 O   0  0  0  0  0  0  0  0  0  0  0  0
   -1.6851   -2.9901   -0.3004 O   0  0  0  0  0  0  0  0  0  0  0  0
    4.1330    1.7722    0.7214 O   0  0  0  0  0  0  0  0  0  0  0  0
    0.7880   -3.7120   -2.0565 O   0  0  0  0  0  0  0  0  0  0  0  0
    4.1760    0.4554   -2.6866 O   0  0  0  0  0  0  0  0  0  0  0  0
    2.3102   -4.9056   -0.7844 O   0  0  0  0  0  0  0  0  0  0  0  0
    5.8057    2.9042   -2.8546 O   0  0  0  0  0  0  0  0  0  0  0  0
    7.2583    3.3242   -0.3910 O   0  0  0  0  0  0  0  0  0  0  0  0
   -3.8980   -2.1341    1.7115 O   0  0  0  0  0  0  0  0  0  0  0  0
    5.2068    2.3605    3.1824 O   0  0  0  0  0  0  0  0  0  0  0  0
   -9.0688    3.6943   -1.6317 O   0  0  0  0  0  0  0  0  0  0  0  0
    0.7195   -0.5887    0.8029 C   0  0  1  0  0  0  0  0  0  0  0  0
    0.4629   -1.8333   -0.0910 C   0  0  2  0  0  0  0  0  0  0  0  0
    0.0653   -0.9474    2.1540 C   0  0  2  0  0  0  0  0  0  0  0  0
   -1.2100   -1.6676    1.7026 C   0  0  2  0  0  0  0  0  0  0  0  0
   -0.6778   -2.6040    0.6182 C   0  0  1  0  0  0  0  0  0  0  0  0
    2.2008   -0.2012    0.8838 C   0  0  1  0  0  0  0  0  0  0  0  0
    1.6909   -2.6905   -0.2115 C   0  0  0  0  0  0  0  0  0  0  0  0
   -0.1997    0.2652    3.0371 C   0  0  0  0  0  0  0  0  0  0  0  0
    2.8344   -2.4159    0.4255 C   0  0  0  0  0  0  0  0  0  0  0  0
    3.9366    0.8323   -0.3325 C   0  0  2  0  0  0  0  0  0  0  0  0
    1.6530   -3.9055   -1.0284 C   0  0  0  0  0  0  0  0  0  0  0  0
    4.2548    1.4694   -1.6850 C   0  0  1  0  0  0  0  0  0  0  0  0
    5.6544    2.0843   -1.6946 C   0  0  2  0  0  0  0  0  0  0  0  0
    5.8821    2.9611   -0.4630 C   0  0  1  0  0  0  0  0  0  0  0  0
    5.4879    2.2160    0.8144 C   0  0  1  0  0  0  0  0  0  0  0  0
   -3.4543   -1.1038    1.2299 C   0  0  0  0  0  0  0  0  0  0  0  0
    5.5954    3.1100    2.0457 C   0  0  0  0  0  0  0  0  0  0  0  0
   -4.2616   -0.0250    0.6163 C   0  0  0  0  0  0  0  0  0  0  0  0
    0.6402   -4.8198   -2.9507 C   0  0  0  0  0  0  0  0  0  0  0  0
   -5.5956   -0.1468    0.5630 C   0  0  0  0  0  0  0  0  0  0  0  0
   -6.5056    0.8595   -0.0121 C   0  0  0  0  0  0  0  0  0  0  0  0
   -6.0163    1.8135   -0.9045 C   0  0  0  0  0  0  0  0  0  0  0  0
   -7.8564    0.8582    0.3359 C   0  0  0  0  0  0  0  0  0  0  0  0
   -6.8775    2.7661   -1.4488 C   0  0  0  0  0  0  0  0  0  0  0  0
   -8.7177    1.8108   -0.2085 C   0  0  0  0  0  0  0  0  0  0  0  0
   -8.2283    2.7647   -1.1006 C   0  0  0  0  0  0  0  0  0  0  0  0
    0.1708    0.2557    0.3594 H   0  0  0  0  0  0  0  0  0  0  0  0
    0.1581   -1.4883   -1.0873 H   0  0  0  0  0  0  0  0  0  0  0  0
    0.7030   -1.6521    2.7046 H   0  0  0  0  0  0  0  0  0  0  0  0
   -1.6492   -2.2221    2.5405 H   0  0  0  0  0  0  0  0  0  0  0  0
   -0.2996   -3.5149    1.1004 H   0  0  0  0  0  0  0  0  0  0  0  0
    2.3193    0.5362    1.6846 H   0  0  0  0  0  0  0  0  0  0  0  0
   -0.7819   -0.0233    3.9186 H   0  0  0  0  0  0  0  0  0  0  0  0
    0.7387    0.7050    3.3884 H   0  0  0  0  0  0  0  0  0  0  0  0
   -0.7547    1.0452    2.5057 H   0  0  0  0  0  0  0  0  0  0  0  0
    3.7111   -3.0494    0.4276 H   0  0  0  0  0  0  0  0  0  0  0  0
   -1.2675   -3.5513   -0.9754 H   0  0  0  0  0  0  0  0  0  0  0  0
    4.5834   -0.0414   -0.1798 H   0  0  0  0  0  0  0  0  0  0  0  0
    3.5017    2.2245   -1.9398 H   0  0  0  0  0  0  0  0  0  0  0  0
    6.4236    1.3066   -1.7682 H   0  0  0  0  0  0  0  0  0  0  0  0
    5.3037    3.8882   -0.5587 H   0  0  0  0  0  0  0  0  0  0  0  0
    6.1310    1.3398    0.9746 H   0  0  0  0  0  0  0  0  0  0  0  0
    6.6185    3.4683    2.1939 H   0  0  0  0  0  0  0  0  0  0  0  0
    4.9193    3.9677    1.9651 H   0  0  0  0  0  0  0  0  0  0  0  0
    4.8362   -0.2273   -2.4776 H   0  0  0  0  0  0  0  0  0  0  0  0
   -3.7259    0.8420    0.2476 H   0  0  0  0  0  0  0  0  0  0  0  0
    5.1232    3.5962   -2.8270 H   0  0  0  0  0  0  0  0  0  0  0  0
    7.7793    2.5091   -0.2920 H   0  0  0  0  0  0  0  0  0  0  0  0
    0.2505   -5.6897   -2.4135 H   0  0  0  0  0  0  0  0  0  0  0  0
   -0.0759   -4.5367   -3.7266 H   0  0  0  0  0  0  0  0  0  0  0  0
    1.5981   -5.0546   -3.4245 H   0  0  0  0  0  0  0  0  0  0  0  0
    5.2787    2.9493    3.9528 H   0  0  0  0  0  0  0  0  0  0  0  0
   -6.0811   -1.0296    0.9728 H   0  0  0  0  0  0  0  0  0  0  0  0
   -4.9774    1.8404   -1.2196 H   0  0  0  0  0  0  0  0  0  0  0  0
   -8.2550    0.1231    1.0307 H   0  0  0  0  0  0  0  0  0  0  0  0
   -6.4919    3.5041   -2.1469 H   0  0  0  0  0  0  0  0  0  0  0  0
   -9.7678    1.7994    0.0708 H   0  0  0  0  0  0  0  0  0  0  0  0
   -9.9642    3.5456   -1.2823 H   0  0  0  0  0  0  0  0  0  0  0  0
  1 19  1  0  0  0  0
  1 22  1  0  0  0  0
  2 17  1  0  0  0  0
  2 29  1  0  0  0  0
  3 19  1  0  0  0  0
  3 23  1  0  0  0  0
  4 18  1  0  0  0  0
  4 50  1  0  0  0  0
  5 23  1  0  0  0  0
  5 28  1  0  0  0  0
  6 24  1  0  0  0  0
  6 32  1  0  0  0  0
  7 25  1  0  0  0  0
  7 58  1  0  0  0  0
  8 24  2  0  0  0  0
  9 26  1  0  0  0  0
  9 60  1  0  0  0  0
 10 27  1  0  0  0  0
 10 61  1  0  0  0  0
 11 29  2  0  0  0  0
 12 30  1  0  0  0  0
 12 65  1  0  0  0  0
 13 39  1  0  0  0  0
 13 71  1  0  0  0  0
 14 15  1  0  0  0  0
 14 16  1  0  0  0  0
 14 19  1  0  0  0  0
 14 40  1  0  0  0  0
 15 18  1  0  0  0  0
 15 20  1  0  0  0  0
 15 41  1  0  0  0  0
 16 17  1  0  0  0  0
 16 21  1  0  0  0  0
 16 42  1  0  0  0  0
 17 18  1  0  0  0  0
 17 43  1  0  0  0  0
 18 44  1  0  0  0  0
 19 45  1  0  0  0  0
 20 22  2  0  0  0  0
 20 24  1  0  0  0  0
 21 46  1  0  0  0  0
 21 47  1  0  0  0  0
 21 48  1  0  0  0  0
 22 49  1  0  0  0  0
 23 25  1  0  0  0  0
 23 51  1  0  0  0  0
 25 26  1  0  0  0  0
 25 52  1  0  0  0  0
 26 27  1  0  0  0  0
 26 53  1  0  0  0  0
 27 28  1  0  0  0  0
 27 54  1  0  0  0  0
 28 30  1  0  0  0  0
 28 55  1  0  0  0  0
 29 31  1  0  0  0  0
 30 56  1  0  0  0  0
 30 57  1  0  0  0  0
 31 33  2  0  0  0  0
 31 59  1  0  0  0  0
 32 62  1  0  0  0  0
 32 63  1  0  0  0  0
 32 64  1  0  0  0  0
 33 34  1  0  0  0  0
 33 66  1  0  0  0  0
 34 35  2  0  0  0  0
 34 36  1  0  0  0  0
 35 37  1  0  0  0  0
 35 67  1  0  0  0  0
 36 38  2  0  0  0  0
 36 68  1  0  0  0  0
 37 39  2  0  0  0  0
 37 69  1  0  0  0  0
 38 39  1  0  0  0  0
 38 70  1  0  0  0  0
M  END
> <PUBCHEM_COMPOUND_CID>
23955893

> <PUBCHEM_CONFORMER_RMSD>
1.2

> <PUBCHEM_CONFORMER_DIVERSEORDER>
1
7
2
26
4
28
30
23
10
20
17
12
13
29
9
15
5
24
11
14
18
3
31
19
16
21
25
8
6
22
27

> <PUBCHEM_MMFF94_PARTIAL_CHARGES>
49
1 -0.36
10 -0.68
11 -0.57
12 -0.68
13 -0.53
15 0.14
17 0.28
18 0.28
19 0.56
2 -0.43
20 -0.12
22 -0.07
23 0.56
24 0.71
25 0.28
26 0.28
27 0.28
28 0.28
29 0.71
3 -0.56
30 0.28
31 -0.14
32 0.28
33 -0.18
34 0.03
35 -0.15
36 -0.15
37 -0.15
38 -0.15
39 0.08
4 -0.68
49 0.15
5 -0.56
50 0.4
58 0.4
59 0.15
6 -0.43
60 0.4
61 0.4
65 0.4
66 0.15
67 0.15
68 0.15
69 0.15
7 -0.68
70 0.15
71 0.45
8 -0.57
9 -0.68

> <PUBCHEM_EFFECTIVE_ROTOR_COUNT>
11.2

> <PUBCHEM_PHARMACOPHORE_FEATURES>
20
1 1 acceptor
1 10 acceptor
1 10 donor
1 11 acceptor
1 12 acceptor
1 12 donor
1 13 donor
1 3 acceptor
1 4 acceptor
1 4 donor
1 5 acceptor
1 7 acceptor
1 7 donor
1 8 acceptor
1 9 acceptor
1 9 donor
5 14 15 16 17 18 rings
6 1 14 15 19 20 22 rings
6 34 35 36 37 38 39 rings
6 5 23 25 26 27 28 rings

> <PUBCHEM_HEAVY_ATOM_COUNT>
39

> <PUBCHEM_ATOM_DEF_STEREO_COUNT>
11

> <PUBCHEM_ATOM_UDEF_STEREO_COUNT>
0

> <PUBCHEM_BOND_DEF_STEREO_COUNT>
1

> <PUBCHEM_BOND_UDEF_STEREO_COUNT>
0

> <PUBCHEM_ISOTOPIC_ATOM_COUNT>
0

> <PUBCHEM_COMPONENT_COUNT>
1

> <PUBCHEM_CACTVS_TAUTO_COUNT>
2

> <PUBCHEM_CONFORMER_ID>
016D89B500000001

> <PUBCHEM_MMFF94_ENERGY>
117.1526

> <PUBCHEM_FEATURE_SELFOVERLAP>
101.776

> <PUBCHEM_SHAPE_FINGERPRINT>
10280341 67 18260819432540638789
10533779 1 18113887257415419645
10673678 19 18410015424913419971
10677351 27 14979661244626998949
11135609 127 18410566254679797261
11621639 179 18335993021594073988
11720765 8 17903636276918625643
12440610 7 18335706061638982611
12661589 4 12031780357895481789
12975358 362 17968678016683889957
13782708 43 11024110936835672649
14294032 229 18265895945938362718
14747282 540 18113899351246942084
14904525 67 18119253870839324409
15082195 135 18199189494778144291
15439362 3 18408045108941167314
15510800 12 9727642695965421865
15803439 3 17560807666371687727
15950262 2 17822579407549707673
19053607 189 18333731338174871189
19302320 297 17458632254015580981
19304144 158 18336269037287698579
21033648 29 17603592907215063315
22033318 11 17095235943237688468
22122407 14 16952548020044091396
23516275 100 18186515476339487885
23522609 53 16299526061643557812
2748736 6 18040428915269194821
3534868 343 17415564212130988067
3862424 121 14045167650162549637
3918712 181 18337672022356856248
406291 66 11239993461192802717
44249763 50 18199179762540558921
44802255 64 18051438428514487694
46194498 28 18196651792493846103
5109719 28 17968389970459236457
5718773 13 11167942451070194321
6712543 237 13118004405642627001
9555976 147 16662344028914739210

> <PUBCHEM_SHAPE_MULTIPOLES>
726.3
22.45
5.95
2.69
44
4.41
-0.07
-37.24
-7.96
-5.08
-3.86
-3.02
-0.15
3.69

> <PUBCHEM_SHAPE_SELFOVERLAP>
1547.979

> <PUBCHEM_SHAPE_VOLUME>
397.7

> <PUBCHEM_COORDINATE_TYPE>
2
5
10

$$$$
