6442162
  -OEChem-11212002143D

 74 77  0     1  0  0  0  0  0999 V2000
   -2.7921    0.6917    1.9532 O   0  0  0  0  0  0  0  0  0  0  0  0
    0.1467    1.8812   -0.6641 O   0  0  0  0  0  0  0  0  0  0  0  0
   -3.6121   -0.7186    0.2754 O   0  0  0  0  0  0  0  0  0  0  0  0
   -2.3042    3.3901   -2.8739 O   0  0  0  0  0  0  0  0  0  0  0  0
   -1.8695   -2.1961   -0.1980 O   0  0  0  0  0  0  0  0  0  0  0  0
   -1.2374    5.0068    1.2074 O   0  0  0  0  0  0  0  0  0  0  0  0
   -5.2009   -2.8999    1.1272 O   0  0  0  0  0  0  0  0  0  0  0  0
   -0.2678    3.8647    2.9722 O   0  0  0  0  0  0  0  0  0  0  0  0
   -4.4242   -5.4117   -0.2025 O   0  0  0  0  0  0  0  0  0  0  0  0
   -1.5746   -5.8396    0.0277 O   0  0  0  0  0  0  0  0  0  0  0  0
    1.6696    3.1910   -1.8055 O   0  0  0  0  0  0  0  0  0  0  0  0
    0.8698   -2.4012   -0.2993 O   0  0  0  0  0  0  0  0  0  0  0  0
    7.6400   -2.3137    0.6299 O   0  0  0  0  0  0  0  0  0  0  0  0
   -2.9187    1.5173   -0.3924 C   0  0  1  0  0  0  0  0  0  0  0  0
   -2.0625    2.7456   -0.0153 C   0  0  2  0  0  0  0  0  0  0  0  0
   -2.5329    1.1642   -1.8555 C   0  0  2  0  0  0  0  0  0  0  0  0
   -0.9078    2.7607   -1.0278 C   0  0  2  0  0  0  0  0  0  0  0  0
   -1.5885    2.2944   -2.3168 C   0  0  2  0  0  0  0  0  0  0  0  0
   -2.6917    0.3330    0.5689 C   0  0  1  0  0  0  0  0  0  0  0  0
   -1.6991    2.7712    1.4318 C   0  0  0  0  0  0  0  0  0  0  0  0
   -3.7510    0.9511   -2.7466 C   0  0  0  0  0  0  0  0  0  0  0  0
   -2.0916    1.8213    2.2876 C   0  0  0  0  0  0  0  0  0  0  0  0
   -3.0516   -1.9968    0.5736 C   0  0  2  0  0  0  0  0  0  0  0  0
   -0.9777    3.9206    1.9793 C   0  0  0  0  0  0  0  0  0  0  0  0
   -4.0974   -3.0596    0.2361 C   0  0  1  0  0  0  0  0  0  0  0  0
   -3.5252   -4.4695    0.3844 C   0  0  2  0  0  0  0  0  0  0  0  0
   -2.1770   -4.5971   -0.3249 C   0  0  1  0  0  0  0  0  0  0  0  0
   -1.2434   -3.4514    0.0730 C   0  0  1  0  0  0  0  0  0  0  0  0
    1.3864    2.2194   -1.1229 C   0  0  0  0  0  0  0  0  0  0  0  0
    0.0650   -3.4913   -0.7102 C   0  0  0  0  0  0  0  0  0  0  0  0
    2.3436    1.1945   -0.6482 C   0  0  0  0  0  0  0  0  0  0  0  0
   -0.5977    6.2197    1.6178 C   0  0  0  0  0  0  0  0  0  0  0  0
    3.6404    1.3019   -0.9710 C   0  0  0  0  0  0  0  0  0  0  0  0
    4.6882    0.3546   -0.5515 C   0  0  0  0  0  0  0  0  0  0  0  0
    4.4734   -0.4836    0.5425 C   0  0  0  0  0  0  0  0  0  0  0  0
    5.8951    0.2959   -1.2487 C   0  0  0  0  0  0  0  0  0  0  0  0
    5.4652   -1.3803    0.9396 C   0  0  0  0  0  0  0  0  0  0  0  0
    6.8870   -0.6006   -0.8516 C   0  0  0  0  0  0  0  0  0  0  0  0
    6.6721   -1.4388    0.2425 C   0  0  0  0  0  0  0  0  0  0  0  0
    7.3542   -3.1411    1.7567 C   0  0  0  0  0  0  0  0  0  0  0  0
   -3.9790    1.8006   -0.3342 H   0  0  0  0  0  0  0  0  0  0  0  0
   -2.6964    3.6212   -0.2235 H   0  0  0  0  0  0  0  0  0  0  0  0
   -1.9499    0.2335   -1.8566 H   0  0  0  0  0  0  0  0  0  0  0  0
   -0.5393    3.7907   -1.1176 H   0  0  0  0  0  0  0  0  0  0  0  0
   -0.8810    1.9229   -3.0656 H   0  0  0  0  0  0  0  0  0  0  0  0
   -1.6590   -0.0108    0.4200 H   0  0  0  0  0  0  0  0  0  0  0  0
   -3.4426    0.7471   -3.7771 H   0  0  0  0  0  0  0  0  0  0  0  0
   -4.3399    0.0973   -2.3959 H   0  0  0  0  0  0  0  0  0  0  0  0
   -4.4068    1.8278   -2.7545 H   0  0  0  0  0  0  0  0  0  0  0  0
   -1.9388    1.8540    3.3582 H   0  0  0  0  0  0  0  0  0  0  0  0
   -1.6528    4.0661   -3.1273 H   0  0  0  0  0  0  0  0  0  0  0  0
   -2.8075   -2.0215    1.6444 H   0  0  0  0  0  0  0  0  0  0  0  0
   -4.4852   -2.9068   -0.7781 H   0  0  0  0  0  0  0  0  0  0  0  0
   -3.4385   -4.7480    1.4412 H   0  0  0  0  0  0  0  0  0  0  0  0
   -2.3313   -4.6048   -1.4109 H   0  0  0  0  0  0  0  0  0  0  0  0
   -0.9994   -3.4947    1.1432 H   0  0  0  0  0  0  0  0  0  0  0  0
    0.6135   -4.4205   -0.5296 H   0  0  0  0  0  0  0  0  0  0  0  0
   -0.1198   -3.3823   -1.7841 H   0  0  0  0  0  0  0  0  0  0  0  0
   -4.8770   -3.0308    2.0347 H   0  0  0  0  0  0  0  0  0  0  0  0
    1.9408    0.3811   -0.0563 H   0  0  0  0  0  0  0  0  0  0  0  0
   -4.5359   -5.1797   -1.1402 H   0  0  0  0  0  0  0  0  0  0  0  0
   -1.4208   -5.8372    0.9880 H   0  0  0  0  0  0  0  0  0  0  0  0
   -0.8894    7.0102    0.9213 H   0  0  0  0  0  0  0  0  0  0  0  0
    0.4898    6.1038    1.5826 H   0  0  0  0  0  0  0  0  0  0  0  0
   -0.9247    6.4988    2.6239 H   0  0  0  0  0  0  0  0  0  0  0  0
    1.6940   -2.4414   -0.8137 H   0  0  0  0  0  0  0  0  0  0  0  0
    3.9841    2.1289   -1.5882 H   0  0  0  0  0  0  0  0  0  0  0  0
    3.5574   -0.4586    1.1257 H   0  0  0  0  0  0  0  0  0  0  0  0
    6.0794    0.9407   -2.1046 H   0  0  0  0  0  0  0  0  0  0  0  0
    5.2345   -1.9993    1.7999 H   0  0  0  0  0  0  0  0  0  0  0  0
    7.8249   -0.6421   -1.3986 H   0  0  0  0  0  0  0  0  0  0  0  0
    7.2111   -2.5473    2.6659 H   0  0  0  0  0  0  0  0  0  0  0  0
    6.5096   -3.8104    1.5606 H   0  0  0  0  0  0  0  0  0  0  0  0
    8.2317   -3.7744    1.9235 H   0  0  0  0  0  0  0  0  0  0  0  0
  1 19  1  0  0  0  0
  1 22  1  0  0  0  0
  2 17  1  0  0  0  0
  2 29  1  0  0  0  0
  3 19  1  0  0  0  0
  3 23  1  0  0  0  0
  4 18  1  0  0  0  0
  4 51  1  0  0  0  0
  5 23  1  0  0  0  0
  5 28  1  0  0  0  0
  6 24  1  0  0  0  0
  6 32  1  0  0  0  0
  7 25  1  0  0  0  0
  7 59  1  0  0  0  0
  8 24  2  0  0  0  0
  9 26  1  0  0  0  0
  9 61  1  0  0  0  0
 10 27  1  0  0  0  0
 10 62  1  0  0  0  0
 11 29  2  0  0  0  0
 12 30  1  0  0  0  0
 12 66  1  0  0  0  0
 13 39  1  0  0  0  0
 13 40  1  0  0  0  0
 14 15  1  0  0  0  0
 14 16  1  0  0  0  0
 14 19  1  0  0  0  0
 14 41  1  0  0  0  0
 15 17  1  0  0  0  0
 15 20  1  0  0  0  0
 15 42  1  0  0  0  0
 16 18  1  0  0  0  0
 16 21  1  0  0  0  0
 16 43  1  0  0  0  0
 17 18  1  0  0  0  0
 17 44  1  0  0  0  0
 18 45  1  0  0  0  0
 19 46  1  0  0  0  0
 20 22  2  0  0  0  0
 20 24  1  0  0  0  0
 21 47  1  0  0  0  0
 21 48  1  0  0  0  0
 21 49  1  0  0  0  0
 22 50  1  0  0  0  0
 23 25  1  0  0  0  0
 23 52  1  0  0  0  0
 25 26  1  0  0  0  0
 25 53  1  0  0  0  0
 26 27  1  0  0  0  0
 26 54  1  0  0  0  0
 27 28  1  0  0  0  0
 27 55  1  0  0  0  0
 28 30  1  0  0  0  0
 28 56  1  0  0  0  0
 29 31  1  0  0  0  0
 30 57  1  0  0  0  0
 30 58  1  0  0  0  0
 31 33  2  0  0  0  0
 31 60  1  0  0  0  0
 32 63  1  0  0  0  0
 32 64  1  0  0  0  0
 32 65  1  0  0  0  0
 33 34  1  0  0  0  0
 33 67  1  0  0  0  0
 34 35  2  0  0  0  0
 34 36  1  0  0  0  0
 35 37  1  0  0  0  0
 35 68  1  0  0  0  0
 36 38  2  0  0  0  0
 36 69  1  0  0  0  0
 37 39  2  0  0  0  0
 37 70  1  0  0  0  0
 38 39  1  0  0  0  0
 38 71  1  0  0  0  0
 40 72  1  0  0  0  0
 40 73  1  0  0  0  0
 40 74  1  0  0  0  0
M  END
> <PUBCHEM_COMPOUND_CID>
6442162

> <PUBCHEM_CONFORMER_RMSD>
1.2

> <PUBCHEM_CONFORMER_DIVERSEORDER>
1
4
41
29
9
17
64
72
68
43
10
61
57
14
69
35
13
40
30
59
18
45
21
27
28
62
66
3
63
39
53
22
23
48
71
52
24
12
49
32
70
37
2
15
47
36
26
67
56
19
58
25
55
31
42
54
33
46
5
20
7
8
16
44
38
65
60
50
6
51
34
11

> <PUBCHEM_MMFF94_PARTIAL_CHARGES>
49
1 -0.36
10 -0.68
11 -0.57
12 -0.68
13 -0.36
15 0.14
17 0.28
18 0.28
19 0.56
2 -0.43
20 -0.12
22 -0.07
23 0.56
24 0.71
25 0.28
26 0.28
27 0.28
28 0.28
29 0.71
3 -0.56
30 0.28
31 -0.14
32 0.28
33 -0.18
34 0.03
35 -0.15
36 -0.15
37 -0.15
38 -0.15
39 0.08
4 -0.68
40 0.28
5 -0.56
50 0.15
51 0.4
59 0.4
6 -0.43
60 0.15
61 0.4
62 0.4
66 0.4
67 0.15
68 0.15
69 0.15
7 -0.68
70 0.15
71 0.15
8 -0.57
9 -0.68

> <PUBCHEM_EFFECTIVE_ROTOR_COUNT>
12.2

> <PUBCHEM_PHARMACOPHORE_FEATURES>
20
1 1 acceptor
1 10 acceptor
1 10 donor
1 11 acceptor
1 12 acceptor
1 12 donor
1 13 acceptor
1 3 acceptor
1 4 acceptor
1 4 donor
1 5 acceptor
1 7 acceptor
1 7 donor
1 8 acceptor
1 9 acceptor
1 9 donor
5 14 15 16 17 18 rings
6 1 14 15 19 20 22 rings
6 34 35 36 37 38 39 rings
6 5 23 25 26 27 28 rings

> <PUBCHEM_HEAVY_ATOM_COUNT>
40

> <PUBCHEM_ATOM_DEF_STEREO_COUNT>
7

> <PUBCHEM_ATOM_UDEF_STEREO_COUNT>
4

> <PUBCHEM_BOND_DEF_STEREO_COUNT>
1

> <PUBCHEM_BOND_UDEF_STEREO_COUNT>
0

> <PUBCHEM_ISOTOPIC_ATOM_COUNT>
0

> <PUBCHEM_COMPONENT_COUNT>
1

> <PUBCHEM_CACTVS_TAUTO_COUNT>
1

> <PUBCHEM_CONFORMER_ID>
00624CB200000001

> <PUBCHEM_MMFF94_ENERGY>
128.6222

> <PUBCHEM_FEATURE_SELFOVERLAP>
101.707

> <PUBCHEM_SHAPE_FINGERPRINT>
10483366 6 18188755211831520823
10622 236 18260266391192170762
11285246 1 17607524931814636362
11434127 23 18129941170698837284
12655364 131 17476911364850318370
12677640 9 18271820068451858443
12969540 37 17619632822753137741
131258 38 17619630623682260550
13165053 137 17975961077793424642
14117953 113 18409169922437393615
14856354 85 18201173057264014260
14950920 106 18343587326621523648
15448158 6 17974853079151594454
15538507 19 18412544276863161794
15911013 46 17834682973482516763
15968369 26 16747609132841094183
20775530 9 18122912194003254254
23523787 8 17682641127067367261
32027 91 18053380183239525507
484985 159 18336830801397648933
56638632 10 16825599081926854727
56638632 33 18050012391697391131
6201320 77 16737796962663972027

> <PUBCHEM_SHAPE_MULTIPOLES>
746.88
13.59
8.88
2.3
37.72
3.45
0.13
13.58
-1.51
-11.12
-3.2
-1.43
-3.19
-1.43

> <PUBCHEM_SHAPE_SELFOVERLAP>
1583.741

> <PUBCHEM_SHAPE_VOLUME>
412

> <PUBCHEM_COORDINATE_TYPE>
2
5
10

$$$$
