95224501
  -OEChem-11212002183D

 55 57  0     1  0  0  0  0  0999 V2000
   -0.1782   -0.2340   -1.4906 O   0  0  0  0  0  0  0  0  0  0  0  0
    0.6932    0.1505    0.6676 O   0  0  0  0  0  0  0  0  0  0  0  0
   -4.7405    0.2205    1.0806 O   0  0  0  0  0  0  0  0  0  0  0  0
   -3.6715   -2.1358    1.9162 O   0  0  0  0  0  0  0  0  0  0  0  0
   -2.4931   -4.5376   -0.1908 O   0  0  0  0  0  0  0  0  0  0  0  0
    2.6931   -0.8505    0.0025 O   0  0  0  0  0  0  0  0  0  0  0  0
    2.0610    2.6039    1.0109 O   0  0  0  0  0  0  0  0  0  0  0  0
   -3.2748    2.8092    0.1466 O   0  0  0  0  0  0  0  0  0  0  0  0
    4.9115    2.1962    1.6346 O   0  0  0  0  0  0  0  0  0  0  0  0
    6.1215    0.4054   -0.2851 O   0  0  0  0  0  0  0  0  0  0  0  0
   -3.0180    2.7575   -2.1536 O   0  0  0  0  0  0  0  0  0  0  0  0
    3.7327   -2.8336   -1.5920 O   0  0  0  0  0  0  0  0  0  0  0  0
   -1.4223   -0.9805    0.5232 C   0  0  1  0  0  0  0  0  0  0  0  0
   -2.3869    0.2319    0.4063 C   0  0  2  0  0  0  0  0  0  0  0  0
   -2.2309   -2.1678   -0.0411 C   0  0  2  0  0  0  0  0  0  0  0  0
   -3.7918   -0.3935    0.2256 C   0  0  1  0  0  0  0  0  0  0  0  0
   -3.6309   -1.8854    0.5154 C   0  0  2  0  0  0  0  0  0  0  0  0
   -0.0683   -0.7395   -0.1545 C   0  0  1  0  0  0  0  0  0  0  0  0
   -2.0378    1.1060   -0.7646 C   0  0  0  0  0  0  0  0  0  0  0  0
   -1.6749   -3.5254    0.3686 C   0  0  0  0  0  0  0  0  0  0  0  0
   -1.0443    0.8212   -1.6134 C   0  0  0  0  0  0  0  0  0  0  0  0
    1.9878    0.3834    0.1135 C   0  0  2  0  0  0  0  0  0  0  0  0
    2.7311    1.3440    1.0417 C   0  0  1  0  0  0  0  0  0  0  0  0
   -2.8251    2.3114   -1.0333 C   0  0  0  0  0  0  0  0  0  0  0  0
    4.1832    1.5306    0.6016 C   0  0  2  0  0  0  0  0  0  0  0  0
    4.8590    0.1849    0.3383 C   0  0  1  0  0  0  0  0  0  0  0  0
    3.9919   -0.6896   -0.5705 C   0  0  1  0  0  0  0  0  0  0  0  0
    4.5898   -2.0812   -0.7529 C   0  0  0  0  0  0  0  0  0  0  0  0
   -4.0668    3.9976    0.0494 C   0  0  0  0  0  0  0  0  0  0  0  0
   -1.2401   -1.1573    1.5938 H   0  0  0  0  0  0  0  0  0  0  0  0
   -2.3217    0.8176    1.3321 H   0  0  0  0  0  0  0  0  0  0  0  0
   -2.2751   -2.1138   -1.1378 H   0  0  0  0  0  0  0  0  0  0  0  0
   -4.1472   -0.2762   -0.8065 H   0  0  0  0  0  0  0  0  0  0  0  0
   -4.4188   -2.4744    0.0353 H   0  0  0  0  0  0  0  0  0  0  0  0
    0.4627   -1.6951   -0.2137 H   0  0  0  0  0  0  0  0  0  0  0  0
   -1.6369   -3.6538    1.4547 H   0  0  0  0  0  0  0  0  0  0  0  0
   -0.6623   -3.6619   -0.0227 H   0  0  0  0  0  0  0  0  0  0  0  0
   -0.8147    1.3808   -2.5102 H   0  0  0  0  0  0  0  0  0  0  0  0
    1.8805    0.8434   -0.8773 H   0  0  0  0  0  0  0  0  0  0  0  0
   -4.7628    1.1676    0.8621 H   0  0  0  0  0  0  0  0  0  0  0  0
   -3.7227   -3.0985    2.0406 H   0  0  0  0  0  0  0  0  0  0  0  0
    2.6865    0.9874    2.0777 H   0  0  0  0  0  0  0  0  0  0  0  0
    4.2449    2.1781   -0.2809 H   0  0  0  0  0  0  0  0  0  0  0  0
    5.0491   -0.3246    1.2908 H   0  0  0  0  0  0  0  0  0  0  0  0
    3.8800   -0.2360   -1.5648 H   0  0  0  0  0  0  0  0  0  0  0  0
   -2.1141   -5.3926    0.0754 H   0  0  0  0  0  0  0  0  0  0  0  0
    4.6600   -2.6043    0.2067 H   0  0  0  0  0  0  0  0  0  0  0  0
    5.5812   -2.0354   -1.2136 H   0  0  0  0  0  0  0  0  0  0  0  0
    2.0872    2.9374    0.0978 H   0  0  0  0  0  0  0  0  0  0  0  0
    4.8604    1.6525    2.4392 H   0  0  0  0  0  0  0  0  0  0  0  0
    5.9628    0.8449   -1.1379 H   0  0  0  0  0  0  0  0  0  0  0  0
   -4.9695    3.8030   -0.5375 H   0  0  0  0  0  0  0  0  0  0  0  0
   -3.4818    4.8072   -0.3972 H   0  0  0  0  0  0  0  0  0  0  0  0
   -4.3618    4.2928    1.0598 H   0  0  0  0  0  0  0  0  0  0  0  0
    4.1295   -3.7158   -1.6907 H   0  0  0  0  0  0  0  0  0  0  0  0
  1 18  1  0  0  0  0
  1 21  1  0  0  0  0
  2 18  1  0  0  0  0
  2 22  1  0  0  0  0
  3 16  1  0  0  0  0
  3 40  1  0  0  0  0
  4 17  1  0  0  0  0
  4 41  1  0  0  0  0
  5 20  1  0  0  0  0
  5 46  1  0  0  0  0
  6 22  1  0  0  0  0
  6 27  1  0  0  0  0
  7 23  1  0  0  0  0
  7 49  1  0  0  0  0
  8 24  1  0  0  0  0
  8 29  1  0  0  0  0
  9 25  1  0  0  0  0
  9 50  1  0  0  0  0
 10 26  1  0  0  0  0
 10 51  1  0  0  0  0
 11 24  2  0  0  0  0
 12 28  1  0  0  0  0
 12 55  1  0  0  0  0
 13 14  1  0  0  0  0
 13 15  1  0  0  0  0
 13 18  1  0  0  0  0
 13 30  1  0  0  0  0
 14 16  1  0  0  0  0
 14 19  1  0  0  0  0
 14 31  1  0  0  0  0
 15 17  1  0  0  0  0
 15 20  1  0  0  0  0
 15 32  1  0  0  0  0
 16 17  1  0  0  0  0
 16 33  1  0  0  0  0
 17 34  1  0  0  0  0
 18 35  1  0  0  0  0
 19 21  2  0  0  0  0
 19 24  1  0  0  0  0
 20 36  1  0  0  0  0
 20 37  1  0  0  0  0
 21 38  1  0  0  0  0
 22 23  1  0  0  0  0
 22 39  1  0  0  0  0
 23 25  1  0  0  0  0
 23 42  1  0  0  0  0
 25 26  1  0  0  0  0
 25 43  1  0  0  0  0
 26 27  1  0  0  0  0
 26 44  1  0  0  0  0
 27 28  1  0  0  0  0
 27 45  1  0  0  0  0
 28 47  1  0  0  0  0
 28 48  1  0  0  0  0
 29 52  1  0  0  0  0
 29 53  1  0  0  0  0
 29 54  1  0  0  0  0
M  END
> <PUBCHEM_COMPOUND_CID>
95224501

> <PUBCHEM_CONFORMER_RMSD>
1

> <PUBCHEM_CONFORMER_DIVERSEORDER>
1
4
47
60
30
40
48
27
2
7
49
6
28
53
10
19
13
58
61
11
31
23
14
54
37
45
18
17
26
39
44
24
56
15
52
57
59
34
9
3
41
22
29
33
51
25
20
46
12
21
5
43
55
38
42
16
50
32
8
35
36

> <PUBCHEM_MMFF94_PARTIAL_CHARGES>
35
1 -0.36
10 -0.68
11 -0.57
12 -0.68
14 0.14
16 0.28
17 0.28
18 0.56
19 -0.12
2 -0.56
20 0.28
21 -0.07
22 0.56
23 0.28
24 0.71
25 0.28
26 0.28
27 0.28
28 0.28
29 0.28
3 -0.68
38 0.15
4 -0.68
40 0.4
41 0.4
46 0.4
49 0.4
5 -0.68
50 0.4
51 0.4
55 0.4
6 -0.56
7 -0.68
8 -0.43
9 -0.68

> <PUBCHEM_EFFECTIVE_ROTOR_COUNT>
8.2

> <PUBCHEM_PHARMACOPHORE_FEATURES>
21
1 1 acceptor
1 10 acceptor
1 10 donor
1 11 acceptor
1 12 acceptor
1 12 donor
1 2 acceptor
1 3 acceptor
1 3 donor
1 4 acceptor
1 4 donor
1 5 acceptor
1 5 donor
1 6 acceptor
1 7 acceptor
1 7 donor
1 9 acceptor
1 9 donor
5 13 14 15 16 17 rings
6 1 13 14 18 19 21 rings
6 6 22 23 25 26 27 rings

> <PUBCHEM_HEAVY_ATOM_COUNT>
29

> <PUBCHEM_ATOM_DEF_STEREO_COUNT>
11

> <PUBCHEM_ATOM_UDEF_STEREO_COUNT>
0

> <PUBCHEM_BOND_DEF_STEREO_COUNT>
0

> <PUBCHEM_BOND_UDEF_STEREO_COUNT>
0

> <PUBCHEM_ISOTOPIC_ATOM_COUNT>
0

> <PUBCHEM_COMPONENT_COUNT>
1

> <PUBCHEM_CACTVS_TAUTO_COUNT>
1

> <PUBCHEM_CONFORMER_ID>
05AD02B500000001

> <PUBCHEM_MMFF94_ENERGY>
88.7251

> <PUBCHEM_FEATURE_SELFOVERLAP>
106.868

> <PUBCHEM_SHAPE_FINGERPRINT>
10165383 225 17901396593191410253
10319926 262 18262501642786567394
10369192 42 17769658930175606420
1100329 8 15385559519939856820
11370993 144 18272380758313491515
11405975 8 18335978658737853032
11595378 159 17603855715541303264
12633257 1 18058466433234021843
13140716 1 18045228390940323931
13583140 156 18201717371031844102
14251757 17 18341613681468211698
14910302 57 18410575110786661550
14955137 171 17899709148223276347
15042514 8 18261964067331800923
15230672 131 18117561722291027470
15361156 5 18263657319285441454
17349148 13 15864341493747094666
1813 80 17168705361412394711
20600515 1 16736066317895641624
20645477 56 18409448076659948688
20693207 138 18270698518782754542
21033648 29 18339914931281692609
21033650 10 17605291601103517428
21065198 57 18411136939890417722
23557571 272 18333170570396710612
23559900 14 18271527593446756466
3298306 158 18122908633502337463
3380486 145 18195249051858977315
350125 39 18337115566624912585
4058900 60 17759809139446059153
469060 322 16978960595544874086
508706 21 18334289846967954876
5104073 3 18261946367707855352
6287921 2 18190747633758566892
633830 44 18055619634368282925
7399639 24 17910662495653561768
9709674 26 18341331171288786014
9981440 41 17124463234156824776
9995097 60 18343582945627657472

> <PUBCHEM_SHAPE_MULTIPOLES>
526.37
11.1
4.43
1.39
11.9
1.13
0.25
-2.35
-1.32
-4.81
0.15
-0.17
-0.33
3.11

> <PUBCHEM_SHAPE_SELFOVERLAP>
1107.278

> <PUBCHEM_SHAPE_VOLUME>
291.4

> <PUBCHEM_COORDINATE_TYPE>
2
5
10

$$$$
