341846
  -OEChem-11212002183D

 54 56  0     1  0  0  0  0  0999 V2000
    0.2508   -1.1161    0.1869 O   0  0  0  0  0  0  0  0  0  0  0  0
   -1.2069    0.2895   -1.0099 O   0  0  0  0  0  0  0  0  0  0  0  0
    3.5473    1.2512    1.2891 O   0  0  0  0  0  0  0  0  0  0  0  0
    2.5943    3.7055    0.7564 O   0  0  0  0  0  0  0  0  0  0  0  0
   -2.5382   -1.1374    0.3382 O   0  0  0  0  0  0  0  0  0  0  0  0
   -4.2250   -1.4683   -2.0484 O   0  0  0  0  0  0  0  0  0  0  0  0
    4.7483   -1.3173   -0.9298 O   0  0  0  0  0  0  0  0  0  0  0  0
   -3.6871    1.9830   -0.9962 O   0  0  0  0  0  0  0  0  0  0  0  0
   -5.4529   -0.8115    0.5050 O   0  0  0  0  0  0  0  0  0  0  0  0
    4.1464   -2.3828    1.0352 O   0  0  0  0  0  0  0  0  0  0  0  0
   -2.1251   -1.0529    3.0406 O   0  0  0  0  0  0  0  0  0  0  0  0
    1.1365    0.8492   -1.0419 C   0  0  2  0  0  0  0  0  0  0  0  0
    2.5935    0.3559   -0.8178 C   0  0  1  0  0  0  0  0  0  0  0  0
    0.9533    2.0768   -0.1228 C   0  0  2  0  0  0  0  0  0  0  0  0
    3.3142    1.5233   -0.0889 C   0  0  1  0  0  0  0  0  0  0  0  0
    2.3510    2.7066   -0.2128 C   0  0  2  0  0  0  0  0  0  0  0  0
    0.1001   -0.2775   -0.9637 C   0  0  1  0  0  0  0  0  0  0  0  0
    2.6321   -0.9685   -0.1159 C   0  0  0  0  0  0  0  0  0  0  0  0
    0.4807    1.7878    1.3024 C   0  0  0  0  0  0  0  0  0  0  0  0
    1.5338   -1.5750    0.3490 C   0  0  0  0  0  0  0  0  0  0  0  0
   -2.2124   -0.7197   -0.9912 C   0  0  1  0  0  0  0  0  0  0  0  0
   -3.4602   -0.2956   -1.7749 C   0  0  2  0  0  0  0  0  0  0  0  0
   -4.3224    0.7067   -0.9955 C   0  0  1  0  0  0  0  0  0  0  0  0
    3.9132   -1.6475    0.0880 C   0  0  0  0  0  0  0  0  0  0  0  0
   -4.5267    0.2721    0.4595 C   0  0  2  0  0  0  0  0  0  0  0  0
   -3.1973   -0.1316    1.1145 C   0  0  1  0  0  0  0  0  0  0  0  0
   -3.3922   -0.6981    2.5169 C   0  0  0  0  0  0  0  0  0  0  0  0
    6.0507   -1.9081   -0.8719 C   0  0  0  0  0  0  0  0  0  0  0  0
    1.0767    1.2505   -2.0665 H   0  0  0  0  0  0  0  0  0  0  0  0
    3.0299    0.2436   -1.8199 H   0  0  0  0  0  0  0  0  0  0  0  0
    0.2215    2.7667   -0.5625 H   0  0  0  0  0  0  0  0  0  0  0  0
    4.2840    1.7432   -0.5478 H   0  0  0  0  0  0  0  0  0  0  0  0
    2.4653    3.1641   -1.2045 H   0  0  0  0  0  0  0  0  0  0  0  0
    0.2240   -0.9082   -1.8568 H   0  0  0  0  0  0  0  0  0  0  0  0
    0.4716    2.7054    1.9000 H   0  0  0  0  0  0  0  0  0  0  0  0
   -0.5372    1.4006    1.3033 H   0  0  0  0  0  0  0  0  0  0  0  0
    1.1094    1.0600    1.8200 H   0  0  0  0  0  0  0  0  0  0  0  0
    1.5262   -2.4892    0.9271 H   0  0  0  0  0  0  0  0  0  0  0  0
   -1.8233   -1.6188   -1.4873 H   0  0  0  0  0  0  0  0  0  0  0  0
    3.9385    2.0494    1.6828 H   0  0  0  0  0  0  0  0  0  0  0  0
    3.5090    4.0127    0.6361 H   0  0  0  0  0  0  0  0  0  0  0  0
   -3.1622    0.1495   -2.7317 H   0  0  0  0  0  0  0  0  0  0  0  0
   -5.2966    0.8125   -1.4866 H   0  0  0  0  0  0  0  0  0  0  0  0
   -4.9679    1.0956    1.0330 H   0  0  0  0  0  0  0  0  0  0  0  0
   -2.5382    0.7374    1.1833 H   0  0  0  0  0  0  0  0  0  0  0  0
   -3.9947   -1.6114    2.5008 H   0  0  0  0  0  0  0  0  0  0  0  0
   -3.8670    0.0265    3.1856 H   0  0  0  0  0  0  0  0  0  0  0  0
   -3.6889   -2.0441   -2.6199 H   0  0  0  0  0  0  0  0  0  0  0  0
   -2.7701    1.8756   -0.6937 H   0  0  0  0  0  0  0  0  0  0  0  0
   -5.0440   -1.5723    0.0586 H   0  0  0  0  0  0  0  0  0  0  0  0
    5.9737   -2.9989   -0.9088 H   0  0  0  0  0  0  0  0  0  0  0  0
    6.5713   -1.5875    0.0355 H   0  0  0  0  0  0  0  0  0  0  0  0
    6.6180   -1.5662   -1.7417 H   0  0  0  0  0  0  0  0  0  0  0  0
   -1.5871   -0.2442    3.0867 H   0  0  0  0  0  0  0  0  0  0  0  0
  1 17  1  0  0  0  0
  1 20  1  0  0  0  0
  2 17  1  0  0  0  0
  2 21  1  0  0  0  0
  3 15  1  0  0  0  0
  3 40  1  0  0  0  0
  4 16  1  0  0  0  0
  4 41  1  0  0  0  0
  5 21  1  0  0  0  0
  5 26  1  0  0  0  0
  6 22  1  0  0  0  0
  6 48  1  0  0  0  0
  7 24  1  0  0  0  0
  7 28  1  0  0  0  0
  8 23  1  0  0  0  0
  8 49  1  0  0  0  0
  9 25  1  0  0  0  0
  9 50  1  0  0  0  0
 10 24  2  0  0  0  0
 11 27  1  0  0  0  0
 11 54  1  0  0  0  0
 12 13  1  0  0  0  0
 12 14  1  0  0  0  0
 12 17  1  0  0  0  0
 12 29  1  0  0  0  0
 13 15  1  0  0  0  0
 13 18  1  0  0  0  0
 13 30  1  0  0  0  0
 14 16  1  0  0  0  0
 14 19  1  0  0  0  0
 14 31  1  0  0  0  0
 15 16  1  0  0  0  0
 15 32  1  0  0  0  0
 16 33  1  0  0  0  0
 17 34  1  0  0  0  0
 18 20  2  0  0  0  0
 18 24  1  0  0  0  0
 19 35  1  0  0  0  0
 19 36  1  0  0  0  0
 19 37  1  0  0  0  0
 20 38  1  0  0  0  0
 21 22  1  0  0  0  0
 21 39  1  0  0  0  0
 22 23  1  0  0  0  0
 22 42  1  0  0  0  0
 23 25  1  0  0  0  0
 23 43  1  0  0  0  0
 25 26  1  0  0  0  0
 25 44  1  0  0  0  0
 26 27  1  0  0  0  0
 26 45  1  0  0  0  0
 27 46  1  0  0  0  0
 27 47  1  0  0  0  0
 28 51  1  0  0  0  0
 28 52  1  0  0  0  0
 28 53  1  0  0  0  0
M  END
> <PUBCHEM_COMPOUND_CID>
341846

> <PUBCHEM_CONFORMER_RMSD>
1

> <PUBCHEM_CONFORMER_DIVERSEORDER>
5
1
579
170
640
245
319
650
2
652
480
395
48
152
107
349
775
585
61
59
157
134
78
357
603
672
280
225
554
408
31
394
410
664
33
244
69
27
313
716
431
186
113
767
684
24
495
240
305
432
320
469
491
281
137
253
232
17
447
148
81
557
141
39
55
374
302
439
199
102
520
153
193
21
4
158
485
749
750
167
105
370
700
172
350
279
849
841
609
13
550
340
607
676
523
633
159
605
34
95
637
6
791
169
119
128
307
12
261
594
267
96
3
696
127
252
150
442
203
87
71
231
212
599
333
483
35
468
774
761
22
420
384
70
819
110
130
371
9
209
37
424
422
14
834
248
821
367
409
74
214
43
164
243
29
183
542
823
202
606
188
359
246
176
263
120
80
850
587
518
51

> <PUBCHEM_MMFF94_PARTIAL_CHARGES>
32
1 -0.36
10 -0.57
11 -0.68
13 0.14
15 0.28
16 0.28
17 0.56
18 -0.12
2 -0.56
20 -0.07
21 0.56
22 0.28
23 0.28
24 0.71
25 0.28
26 0.28
27 0.28
28 0.28
3 -0.68
38 0.15
4 -0.68
40 0.4
41 0.4
48 0.4
49 0.4
5 -0.56
50 0.4
54 0.4
6 -0.68
7 -0.43
8 -0.68
9 -0.68

> <PUBCHEM_EFFECTIVE_ROTOR_COUNT>
7.2

> <PUBCHEM_PHARMACOPHORE_FEATURES>
19
1 1 acceptor
1 10 acceptor
1 11 acceptor
1 11 donor
1 2 acceptor
1 3 acceptor
1 3 donor
1 4 acceptor
1 4 donor
1 5 acceptor
1 6 acceptor
1 6 donor
1 8 acceptor
1 8 donor
1 9 acceptor
1 9 donor
5 12 13 14 15 16 rings
6 1 12 13 17 18 20 rings
6 5 21 22 23 25 26 rings

> <PUBCHEM_HEAVY_ATOM_COUNT>
28

> <PUBCHEM_ATOM_DEF_STEREO_COUNT>
6

> <PUBCHEM_ATOM_UDEF_STEREO_COUNT>
5

> <PUBCHEM_BOND_DEF_STEREO_COUNT>
0

> <PUBCHEM_BOND_UDEF_STEREO_COUNT>
0

> <PUBCHEM_ISOTOPIC_ATOM_COUNT>
0

> <PUBCHEM_COMPONENT_COUNT>
1

> <PUBCHEM_CACTVS_TAUTO_COUNT>
1

> <PUBCHEM_CONFORMER_ID>
0005375600000005

> <PUBCHEM_MMFF94_ENERGY>
92.6891

> <PUBCHEM_FEATURE_SELFOVERLAP>
96.68

> <PUBCHEM_SHAPE_FINGERPRINT>
10366900 7 17822285765051992687
10369192 42 17245286445773335884
10764073 3 14473614092611891596
11595378 159 16343705447405237160
12166972 35 17917988378104008859
12236239 1 17775288265804034927
12549972 3 18113902679956553729
12553582 1 18339919312723217406
12596599 1 17775294871363516399
12596602 18 17346588695051060842
12616971 3 18131913776010321879
12633257 1 18060424603555901517
12760667 363 18191865622610222862
12788726 201 17903067842328085240
13009979 54 17418097628201338026
13134695 92 18411138030727987948
13224815 77 17968656133191253725
13533116 47 18337951302831053543
13583140 156 18267595786846491811
13590594 115 18271248223036117440
13631057 29 11242843420626619401
13726171 33 15285638725048509614
14347329 18 16227435271217739733
14739800 52 16056018290849784978
14950920 106 18267892586709834907
15238133 3 18194140541879122861
15295992 7 18334865996015538881
15788980 27 18272649026144434687
17349148 13 17203891864010545213
17492 89 18128527348331479199
17980427 23 16630529514184130392
1813 80 18129959866512011622
18222031 100 18272080553464671774
20600515 1 15554153861640531979
20739085 24 18202567280846462836
20832881 197 18262512577171974082
21033648 29 17603856819796336893
22849341 161 18059307482667719564
23175994 123 18337117765136575534
23557571 272 17024319732658196121
23559900 14 18410004438128276173
312423 11 17988081209345814895
314194 84 18336827498953134622
345986 75 18198894821646605658
474 4 18054219105583646636
5104073 3 18130785702750008491
513202 73 17696490489732402238
5895379 119 15769235897912204704
602551 16 16371008545910647657
6823239 73 17095532832814425732
7615 1 17417819473397643585
8863177 126 18187375371197792243
9709674 26 18113899407428441093
9971528 1 18202557372377860446
9981440 41 17549805029706379600

> <PUBCHEM_SHAPE_MULTIPOLES>
511.66
11.02
2.72
1.89
0.35
1.92
-0.94
-4.83
1.14
-3.6
-0.41
2.3
-0.53
0.78

> <PUBCHEM_SHAPE_SELFOVERLAP>
1077.941

> <PUBCHEM_SHAPE_VOLUME>
280.7

> <PUBCHEM_COORDINATE_TYPE>
2
5
10

$$$$
