10725564
  -OEChem-11212002173D

 21 22  0     1  0  0  0  0  0999 V2000
    0.6961    1.7060    0.0662 O   0  0  0  0  0  0  0  0  0  0  0  0
    1.3535   -1.6684    1.0824 O   0  0  0  0  0  0  0  0  0  0  0  0
   -3.0553    0.4024   -0.1944 O   0  0  0  0  0  0  0  0  0  0  0  0
    0.9597   -0.6574    0.1673 C   0  0  1  0  0  0  0  0  0  0  0  0
    0.4017    0.5639    0.8938 C   0  0  2  0  0  0  0  0  0  0  0  0
    2.1837   -0.0514   -0.4982 C   0  0  0  0  0  0  0  0  0  0  0  0
   -1.0912    0.5038    1.1782 C   0  0  0  0  0  0  0  0  0  0  0  0
    1.7092    1.3360   -0.8803 C   0  0  0  0  0  0  0  0  0  0  0  0
    0.0121   -1.2543   -0.8369 C   0  0  0  0  0  0  0  0  0  0  0  0
   -1.8913    0.0447   -0.0216 C   0  0  0  0  0  0  0  0  0  0  0  0
   -1.2780   -0.9254   -0.9567 C   0  0  0  0  0  0  0  0  0  0  0  0
    0.9249    0.7267    1.8451 H   0  0  0  0  0  0  0  0  0  0  0  0
    2.5612   -0.6159   -1.3571 H   0  0  0  0  0  0  0  0  0  0  0  0
    3.0129    0.0234    0.2174 H   0  0  0  0  0  0  0  0  0  0  0  0
   -1.4536    1.4989    1.4598 H   0  0  0  0  0  0  0  0  0  0  0  0
   -1.2985   -0.1945    1.9966 H   0  0  0  0  0  0  0  0  0  0  0  0
    2.5169    2.0732   -0.8597 H   0  0  0  0  0  0  0  0  0  0  0  0
    1.2562    1.3452   -1.8771 H   0  0  0  0  0  0  0  0  0  0  0  0
    0.4166   -1.9976   -1.5202 H   0  0  0  0  0  0  0  0  0  0  0  0
   -1.9077   -1.3713   -1.7176 H   0  0  0  0  0  0  0  0  0  0  0  0
    1.9580   -1.2765    1.7353 H   0  0  0  0  0  0  0  0  0  0  0  0
  1  5  1  0  0  0  0
  1  8  1  0  0  0  0
  2  4  1  0  0  0  0
  2 21  1  0  0  0  0
  3 10  2  0  0  0  0
  4  5  1  0  0  0  0
  4  6  1  0  0  0  0
  4  9  1  0  0  0  0
  5  7  1  0  0  0  0
  5 12  1  0  0  0  0
  6  8  1  0  0  0  0
  6 13  1  0  0  0  0
  6 14  1  0  0  0  0
  7 10  1  0  0  0  0
  7 15  1  0  0  0  0
  7 16  1  0  0  0  0
  8 17  1  0  0  0  0
  8 18  1  0  0  0  0
  9 11  2  0  0  0  0
  9 19  1  0  0  0  0
 10 11  1  0  0  0  0
 11 20  1  0  0  0  0
M  END
> <PUBCHEM_COMPOUND_CID>
10725564

> <PUBCHEM_CONFORMER_RMSD>
0.4

> <PUBCHEM_CONFORMER_DIVERSEORDER>
1
2

> <PUBCHEM_MMFF94_PARTIAL_CHARGES>
13
1 -0.56
10 0.49
11 -0.14
19 0.15
2 -0.68
20 0.15
21 0.4
3 -0.57
4 0.42
5 0.28
7 0.06
8 0.28
9 -0.29

> <PUBCHEM_EFFECTIVE_ROTOR_COUNT>
0.8

> <PUBCHEM_PHARMACOPHORE_FEATURES>
6
1 1 acceptor
1 2 acceptor
1 2 donor
1 3 acceptor
5 1 4 5 6 8 rings
6 4 5 7 9 10 11 rings

> <PUBCHEM_HEAVY_ATOM_COUNT>
11

> <PUBCHEM_ATOM_DEF_STEREO_COUNT>
2

> <PUBCHEM_ATOM_UDEF_STEREO_COUNT>
0

> <PUBCHEM_BOND_DEF_STEREO_COUNT>
0

> <PUBCHEM_BOND_UDEF_STEREO_COUNT>
0

> <PUBCHEM_ISOTOPIC_ATOM_COUNT>
0

> <PUBCHEM_COMPONENT_COUNT>
1

> <PUBCHEM_CACTVS_TAUTO_COUNT>
2

> <PUBCHEM_CONFORMER_ID>
00A3A8BC00000001

> <PUBCHEM_MMFF94_ENERGY>
21.0842

> <PUBCHEM_FEATURE_SELFOVERLAP>
30.734

> <PUBCHEM_SHAPE_FINGERPRINT>
12423570 1 17119765807065909698
13024252 1 17469339478866805708
137420 1 14256548446362438690
13839132 238 16298380241061165605
15557651 10 16733822141685947236
15775835 57 18338243776733836133
16945 1 17987535821392210796
18185500 45 18343579637896216854
20653085 51 18047206407752840228
21040471 1 17988638631581230879
23552423 10 18269548506480839607
241688 4 17336765417502407923
2748010 2 17558259088701868623
29004967 10 17894911785036726618
4369600 1 17275106154078522601
5084963 1 18193006021587411949
528886 8 18261672666062696044
63268167 104 18339652216948522644

> <PUBCHEM_SHAPE_MULTIPOLES>
208.77
2.91
1.52
1.14
1.26
0.07
0.16
-0.43
-0.57
-0.4
-0.02
-0.15
0.1
-0.53

> <PUBCHEM_SHAPE_SELFOVERLAP>
443.57

> <PUBCHEM_SHAPE_VOLUME>
116.2

> <PUBCHEM_COORDINATE_TYPE>
2
5
10

$$$$
