564934
  -OEChem-11212008032D

 39 42  0     1  0  0  0  0  0999 V2000
    4.3097   -0.3750    0.0000 C   0  0  3  0  0  0  0  0  0  0  0  0
    3.5007    0.2128    0.0000 C   0  0  3  0  0  0  0  0  0  0  0  0
    5.3076   -0.3733    0.0000 C   0  0  3  0  0  0  0  0  0  0  0  0
    5.1187    0.2128    0.0000 C   0  0  3  0  0  0  0  0  0  0  0  0
    4.8097    1.1638    0.0000 C   0  0  3  0  0  0  0  0  0  0  0  0
    3.8097    1.1638    0.0000 C   0  0  3  0  0  0  0  0  0  0  0  0
    5.6160    0.5759    0.0000 C   0  0  0  0  0  0  0  0  0  0  0  0
    2.9999    0.5566    0.0000 C   0  0  0  0  0  0  0  0  0  0  0  0
    4.5516   -1.3453    0.0000 C   0  0  0  0  0  0  0  0  0  0  0  0
    4.7914   -0.7450    0.0000 C   0  0  0  0  0  0  0  0  0  0  0  0
    6.0698   -0.0962    0.0000 C   0  0  0  0  0  0  0  0  0  0  0  0
    3.0076   -0.4555    0.0000 C   0  0  0  0  0  0  0  0  0  0  0  0
    3.8264   -1.0504    0.0000 C   0  0  0  0  0  0  0  0  0  0  0  0
    2.3852    1.3453    0.0000 C   0  0  0  0  0  0  0  0  0  0  0  0
    2.0000    0.5677    0.0000 C   0  0  0  0  0  0  0  0  0  0  0  0
    2.9110    0.0212    0.0000 H   0  0  0  0  0  0  0  0  0  0  0  0
    5.6725   -0.8745    0.0000 H   0  0  0  0  0  0  0  0  0  0  0  0
    5.0018    1.7533    0.0000 H   0  0  0  0  0  0  0  0  0  0  0  0
    3.6136    1.7520    0.0000 H   0  0  0  0  0  0  0  0  0  0  0  0
    6.1823    0.3234    0.0000 H   0  0  0  0  0  0  0  0  0  0  0  0
    5.9267    1.1124    0.0000 H   0  0  0  0  0  0  0  0  0  0  0  0
    3.9500   -1.4953    0.0000 H   0  0  0  0  0  0  0  0  0  0  0  0
    4.7016   -1.9469    0.0000 H   0  0  0  0  0  0  0  0  0  0  0  0
    5.1532   -1.1953    0.0000 H   0  0  0  0  0  0  0  0  0  0  0  0
    4.8500   -1.3622    0.0000 H   0  0  0  0  0  0  0  0  0  0  0  0
    5.4071   -0.8175    0.0000 H   0  0  0  0  0  0  0  0  0  0  0  0
    5.8782   -0.6859    0.0000 H   0  0  0  0  0  0  0  0  0  0  0  0
    6.6594   -0.2878    0.0000 H   0  0  0  0  0  0  0  0  0  0  0  0
    6.2613    0.4934    0.0000 H   0  0  0  0  0  0  0  0  0  0  0  0
    2.4005   -0.3297    0.0000 H   0  0  0  0  0  0  0  0  0  0  0  0
    2.7569   -1.0226    0.0000 H   0  0  0  0  0  0  0  0  0  0  0  0
    3.3646   -1.4641    0.0000 H   0  0  0  0  0  0  0  0  0  0  0  0
    4.1337   -1.5889    0.0000 H   0  0  0  0  0  0  0  0  0  0  0  0
    2.8741    1.7265    0.0000 H   0  0  0  0  0  0  0  0  0  0  0  0
    2.0040    1.8343    0.0000 H   0  0  0  0  0  0  0  0  0  0  0  0
    1.8962    0.9641    0.0000 H   0  0  0  0  0  0  0  0  0  0  0  0
    2.0069    1.1876    0.0000 H   0  0  0  0  0  0  0  0  0  0  0  0
    1.3800    0.5746    0.0000 H   0  0  0  0  0  0  0  0  0  0  0  0
    1.9931   -0.0523    0.0000 H   0  0  0  0  0  0  0  0  0  0  0  0
  1  2  1  0  0  0  0
  1  3  1  0  0  0  0
  1  4  1  0  0  0  0
  1  9  1  0  0  0  0
  2  3  1  0  0  0  0
  2  6  1  0  0  0  0
  2 16  1  0  0  0  0
  3  7  1  0  0  0  0
  3 17  1  0  0  0  0
  4  5  1  0  0  0  0
  4 10  1  0  0  0  0
  4 11  1  0  0  0  0
  5  6  1  0  0  0  0
  5  7  1  0  0  0  0
  5 18  1  0  0  0  0
  6  8  1  0  0  0  0
  6 19  1  0  0  0  0
  7 20  1  0  0  0  0
  7 21  1  0  0  0  0
  8 12  1  0  0  0  0
  8 14  1  0  0  0  0
  8 15  1  0  0  0  0
  9 22  1  0  0  0  0
  9 23  1  0  0  0  0
  9 24  1  0  0  0  0
 10 13  1  0  0  0  0
 10 25  1  0  0  0  0
 10 26  1  0  0  0  0
 11 27  1  0  0  0  0
 11 28  1  0  0  0  0
 11 29  1  0  0  0  0
 12 13  1  0  0  0  0
 12 30  1  0  0  0  0
 12 31  1  0  0  0  0
 13 32  1  0  0  0  0
 13 33  1  0  0  0  0
 14 34  1  0  0  0  0
 14 35  1  0  0  0  0
 14 36  1  0  0  0  0
 15 37  1  0  0  0  0
 15 38  1  0  0  0  0
 15 39  1  0  0  0  0
M  END
> <PUBCHEM_COMPOUND_CID>
564934

> <PUBCHEM_COMPOUND_CANONICALIZED>
1

> <PUBCHEM_CACTVS_COMPLEXITY>
342

> <PUBCHEM_CACTVS_HBOND_ACCEPTOR>
0

> <PUBCHEM_CACTVS_HBOND_DONOR>
0

> <PUBCHEM_CACTVS_ROTATABLE_BOND>
0

> <PUBCHEM_CACTVS_SUBSKEYS>
AAADceBwAAAAAAAAAAAAAAAAGAAAAYMGAAAAAAAABgAYAAAAAAAAGAAAAAAADwCAAAACAAAAAAAAAAAAAAAAAAAAAAAAAAAAAAAAAAIAAAAAAAAAAAAAAAEAgMAPgAAAAAAAAACAAAQAACAAAQAACAAAAA==

> <PUBCHEM_IUPAC_OPENEYE_NAME>
2,6,6,9-tetramethyltetracyclo[5.4.0.02,9.08,10]undecane

> <PUBCHEM_IUPAC_CAS_NAME>
2,6,6,9-tetramethyltetracyclo[5.4.0.02,9.08,10]undecane

> <PUBCHEM_IUPAC_NAME_MARKUP>
2,6,6,9-tetramethyltetracyclo[5.4.0.0<SUP>2,9</SUP>.0<SUP>8,10</SUP>]undecane

> <PUBCHEM_IUPAC_NAME>
2,6,6,9-tetramethyltetracyclo[5.4.0.02,9.08,10]undecane

> <PUBCHEM_IUPAC_SYSTEMATIC_NAME>
2,6,6,9-tetramethyltetracyclo[5.4.0.02,9.08,10]undecane

> <PUBCHEM_IUPAC_TRADITIONAL_NAME>
2,6,6,9-tetramethyltetracyclo[5.4.0.02,9.08,10]undecane

> <PUBCHEM_IUPAC_INCHI>
InChI=1S/C15H24/c1-13(2)6-5-7-14(3)9-8-10-12(11(9)13)15(10,14)4/h9-12H,5-8H2,1-4H3

> <PUBCHEM_IUPAC_INCHIKEY>
WCEIQUQVIOGRBF-UHFFFAOYSA-N

> <PUBCHEM_XLOGP3_AA>
5

> <PUBCHEM_EXACT_MASS>
204.187801

> <PUBCHEM_MOLECULAR_FORMULA>
C15H24

> <PUBCHEM_MOLECULAR_WEIGHT>
204.35

> <PUBCHEM_OPENEYE_CAN_SMILES>
CC1(CCCC2(C3C1C4C2(C4C3)C)C)C

> <PUBCHEM_OPENEYE_ISO_SMILES>
CC1(CCCC2(C3C1C4C2(C4C3)C)C)C

> <PUBCHEM_CACTVS_TPSA>
0

> <PUBCHEM_MONOISOTOPIC_WEIGHT>
204.187801

> <PUBCHEM_TOTAL_CHARGE>
0

> <PUBCHEM_HEAVY_ATOM_COUNT>
15

> <PUBCHEM_ATOM_DEF_STEREO_COUNT>
0

> <PUBCHEM_ATOM_UDEF_STEREO_COUNT>
6

> <PUBCHEM_BOND_DEF_STEREO_COUNT>
0

> <PUBCHEM_BOND_UDEF_STEREO_COUNT>
0

> <PUBCHEM_ISOTOPIC_ATOM_COUNT>
0

> <PUBCHEM_COMPONENT_COUNT>
1

> <PUBCHEM_CACTVS_TAUTO_COUNT>
-1

> <PUBCHEM_COORDINATE_TYPE>
1
5
255

> <PUBCHEM_BONDANNOTATIONS>
1  9  3
2  3  3
3  7  3
4  11  3
5  7  3
6  8  3

$$$$
