74358
  -OEChem-08222004593D

 42 44  0     0  0  0  0  0  0999 V2000
    1.5300   -2.3060    2.7363 O   0  5  0  0  0  0  0  0  0  0  0  0
    1.3271    3.2450   -1.5690 O   0  5  0  0  0  0  0  0  0  0  0  0
   -0.4059   -1.3530    2.3326 O   0  0  0  0  0  0  0  0  0  0  0  0
   -0.5482    2.5295   -0.6800 O   0  0  0  0  0  0  0  0  0  0  0  0
    5.5523   -0.6536    0.7331 O   0  5  0  0  0  0  0  0  0  0  0  0
    5.4893    1.0801   -0.6120 O   0  0  0  0  0  0  0  0  0  0  0  0
   -1.6182    0.0332    0.0272 N   0  0  0  0  0  0  0  0  0  0  0  0
   -0.6518    0.5981    0.8485 N   0  0  0  0  0  0  0  0  0  0  0  0
    0.8346   -1.4291    2.1729 N   0  3  0  0  0  0  0  0  0  0  0  0
    0.6925    2.4507   -0.8365 N   0  3  0  0  0  0  0  0  0  0  0  0
    4.9190    0.2512    0.1375 N   0  3  0  0  0  0  0  0  0  0  0  0
    0.7424    0.5117    0.6707 C   0  0  0  0  0  0  0  0  0  0  0  0
   -1.1257   -0.8760   -0.9964 C   0  0  0  0  0  0  0  0  0  0  0  0
   -2.9760    0.2971    0.3029 C   0  0  0  0  0  0  0  0  0  0  0  0
    1.4765   -0.4858    1.3217 C   0  0  0  0  0  0  0  0  0  0  0  0
    1.4063    1.4223   -0.1587 C   0  0  0  0  0  0  0  0  0  0  0  0
    2.8576   -0.5716    1.1454 C   0  0  0  0  0  0  0  0  0  0  0  0
    2.7873    1.3364   -0.3348 C   0  0  0  0  0  0  0  0  0  0  0  0
    3.5131    0.3394    0.3172 C   0  0  0  0  0  0  0  0  0  0  0  0
   -0.8906   -0.3772   -2.2541 C   0  0  0  0  0  0  0  0  0  0  0  0
   -3.9371   -0.6889    0.0803 C   0  0  0  0  0  0  0  0  0  0  0  0
   -0.9178   -2.1903   -0.6574 C   0  0  0  0  0  0  0  0  0  0  0  0
   -3.3576    1.5436    0.7988 C   0  0  0  0  0  0  0  0  0  0  0  0
   -0.4176   -1.2485   -3.2354 C   0  0  0  0  0  0  0  0  0  0  0  0
   -5.2800   -0.4285    0.3536 C   0  0  0  0  0  0  0  0  0  0  0  0
   -0.4448   -3.0614   -1.6387 C   0  0  0  0  0  0  0  0  0  0  0  0
   -4.7004    1.8041    1.0723 C   0  0  0  0  0  0  0  0  0  0  0  0
   -0.1947   -2.5905   -2.9276 C   0  0  0  0  0  0  0  0  0  0  0  0
   -5.6615    0.8180    0.8497 C   0  0  0  0  0  0  0  0  0  0  0  0
   -0.9174    0.6011    1.8314 H   0  0  0  0  0  0  0  0  0  0  0  0
    3.4274   -1.3475    1.6514 H   0  0  0  0  0  0  0  0  0  0  0  0
    3.3028    2.0441   -0.9798 H   0  0  0  0  0  0  0  0  0  0  0  0
   -1.0790    0.6595   -2.5102 H   0  0  0  0  0  0  0  0  0  0  0  0
   -3.6760   -1.6721   -0.2991 H   0  0  0  0  0  0  0  0  0  0  0  0
   -1.1466   -2.5849    0.3249 H   0  0  0  0  0  0  0  0  0  0  0  0
   -2.6347    2.3329    0.9830 H   0  0  0  0  0  0  0  0  0  0  0  0
   -0.2274   -0.8829   -4.2402 H   0  0  0  0  0  0  0  0  0  0  0  0
   -6.0285   -1.1964    0.1817 H   0  0  0  0  0  0  0  0  0  0  0  0
   -0.2807   -4.1086   -1.4019 H   0  0  0  0  0  0  0  0  0  0  0  0
   -4.9980    2.7746    1.4586 H   0  0  0  0  0  0  0  0  0  0  0  0
    0.1706   -3.2696   -3.6924 H   0  0  0  0  0  0  0  0  0  0  0  0
   -6.7069    1.0208    1.0629 H   0  0  0  0  0  0  0  0  0  0  0  0
  1  9  1  0  0  0  0
  2 10  1  0  0  0  0
  3  9  2  0  0  0  0
  4 10  2  0  0  0  0
  5 11  1  0  0  0  0
  6 11  2  0  0  0  0
  7  8  1  0  0  0  0
  7 13  1  0  0  0  0
  7 14  1  0  0  0  0
  8 12  1  0  0  0  0
  8 30  1  0  0  0  0
  9 15  1  0  0  0  0
 10 16  1  0  0  0  0
 11 19  1  0  0  0  0
 12 15  2  0  0  0  0
 12 16  1  0  0  0  0
 13 20  2  0  0  0  0
 13 22  1  0  0  0  0
 14 21  2  0  0  0  0
 14 23  1  0  0  0  0
 15 17  1  0  0  0  0
 16 18  2  0  0  0  0
 17 19  2  0  0  0  0
 17 31  1  0  0  0  0
 18 19  1  0  0  0  0
 18 32  1  0  0  0  0
 20 24  1  0  0  0  0
 20 33  1  0  0  0  0
 21 25  1  0  0  0  0
 21 34  1  0  0  0  0
 22 26  2  0  0  0  0
 22 35  1  0  0  0  0
 23 27  2  0  0  0  0
 23 36  1  0  0  0  0
 24 28  2  0  0  0  0
 24 37  1  0  0  0  0
 25 29  2  0  0  0  0
 25 38  1  0  0  0  0
 26 28  1  0  0  0  0
 26 39  1  0  0  0  0
 27 29  1  0  0  0  0
 27 40  1  0  0  0  0
 28 41  1  0  0  0  0
 29 42  1  0  0  0  0
M  CHG  6   1  -1   2  -1   5  -1   9   1  10   1  11   1
M  END
> <PUBCHEM_COMPOUND_CID>
74358

> <PUBCHEM_CONFORMER_RMSD>
0.8

> <PUBCHEM_CONFORMER_DIVERSEORDER>
1
4
3
2

> <PUBCHEM_MMFF94_PARTIAL_CHARGES>
42
1 -0.52
10 0.91
11 0.91
12 0.1
13 0.1
14 0.1
15 0.13
16 0.13
17 -0.15
18 -0.15
19 0.13
2 -0.52
20 -0.15
21 -0.15
22 -0.15
23 -0.15
24 -0.15
25 -0.15
26 -0.15
27 -0.15
28 -0.15
29 -0.15
3 -0.52
30 0.4
31 0.15
32 0.15
33 0.15
34 0.15
35 0.15
36 0.15
37 0.15
38 0.15
39 0.15
4 -0.52
40 0.15
41 0.15
42 0.15
5 -0.52
6 -0.52
7 -0.2
8 -0.5
9 0.91

> <PUBCHEM_EFFECTIVE_ROTOR_COUNT>
7

> <PUBCHEM_PHARMACOPHORE_FEATURES>
13
1 1 acceptor
1 1 anion
1 2 acceptor
1 2 anion
1 3 acceptor
1 4 acceptor
1 5 acceptor
1 5 anion
1 6 acceptor
1 8 donor
6 12 15 16 17 18 19 rings
6 13 20 22 24 26 28 rings
6 14 21 23 25 27 29 rings

> <PUBCHEM_HEAVY_ATOM_COUNT>
29

> <PUBCHEM_ATOM_DEF_STEREO_COUNT>
0

> <PUBCHEM_ATOM_UDEF_STEREO_COUNT>
0

> <PUBCHEM_BOND_DEF_STEREO_COUNT>
0

> <PUBCHEM_BOND_UDEF_STEREO_COUNT>
0

> <PUBCHEM_ISOTOPIC_ATOM_COUNT>
0

> <PUBCHEM_COMPONENT_COUNT>
1

> <PUBCHEM_CACTVS_TAUTO_COUNT>
1

> <PUBCHEM_CONFORMER_ID>
0001227600000001

> <PUBCHEM_MMFF94_ENERGY>
143.9713

> <PUBCHEM_FEATURE_SELFOVERLAP>
66.22

> <PUBCHEM_SHAPE_FINGERPRINT>
107951 10 18201444700628152222
11370993 70 17561367270576726180
11578080 2 17413889639027015193
12156800 1 17317083352007025954
12236239 1 18411139134249837529
12422481 6 17984978189858493442
12592029 89 18202012001203712451
12741549 16 16153698847494820477
133893 2 17485123758642103451
13583140 156 17822285808703032103
14294032 229 17845932924131672793
15274700 242 18115848782027045010
15849732 13 18342176682703017884
1601671 61 18341614780616186681
16752209 62 17630588206594307071
18681886 176 18130502024481578897
20197701 30 17632860802280534103
20691752 17 18049470070714128497
21033648 29 17060043840133241465
229495 10 17169242911145810235
22956985 138 17986118413967189263
23419403 2 16404765430116680579
23559900 14 17914628155380848943
249057 3 17775005713534604472
298252 57 18201725071533925707
3383291 50 14835857106276996220
3411729 13 17701830890743279739
469060 322 15358809201026942050
5265222 85 17417251082301141116
5385378 56 17488760964818934779
57527306 92 18409725153643584761
7226269 152 16128656349264306938
7495541 125 8069442843675773817
81228 2 16482712429661629439
9999458 23 17822015354074397665

> <PUBCHEM_SHAPE_MULTIPOLES>
536.69
9.07
2.99
2.43
0.89
2.97
0.67
-5.07
1.86
1.23
-2.07
-1.57
0.31
-0.9

> <PUBCHEM_SHAPE_SELFOVERLAP>
1178.608

> <PUBCHEM_SHAPE_VOLUME>
287.3

> <PUBCHEM_COORDINATE_TYPE>
2
5
10

$$$$
