5490334
  -OEChem-08222004483D

 53 56  0     1  0  0  0  0  0999 V2000
    0.7826    1.6759    0.7753 O   0  0  0  0  0  0  0  0  0  0  0  0
   -1.5213    1.7133    1.1406 O   0  0  0  0  0  0  0  0  0  0  0  0
    0.7230    5.4491   -0.8468 O   0  0  0  0  0  0  0  0  0  0  0  0
   -1.7554    3.8681   -0.6722 O   0  0  0  0  0  0  0  0  0  0  0  0
    2.9829    3.6896   -1.3417 O   0  0  0  0  0  0  0  0  0  0  0  0
    4.1834    1.6204   -0.0955 O   0  0  0  0  0  0  0  0  0  0  0  0
   -0.7530   -0.7740    0.3863 O   0  0  0  0  0  0  0  0  0  0  0  0
    3.0320    0.9846    1.7662 O   0  0  0  0  0  0  0  0  0  0  0  0
   -4.1838    2.4584    1.0183 O   0  0  0  0  0  0  0  0  0  0  0  0
   -5.3722   -1.8232   -0.6380 O   0  0  0  0  0  0  0  0  0  0  0  0
   -0.7458   -4.2641   -0.8000 O   0  0  0  0  0  0  0  0  0  0  0  0
   -3.4276   -3.5430   -0.9490 O   0  0  0  0  0  0  0  0  0  0  0  0
    4.1505   -1.8789   -1.8554 O   0  0  0  0  0  0  0  0  0  0  0  0
    5.1956   -2.8348    0.5363 O   0  0  0  0  0  0  0  0  0  0  0  0
    0.6439    4.0233   -0.8757 C   0  0  2  0  0  0  0  0  0  0  0  0
   -0.5287    3.5595   -0.0110 C   0  0  2  0  0  0  0  0  0  0  0  0
    1.9713    3.4655   -0.3611 C   0  0  1  0  0  0  0  0  0  0  0  0
   -0.4785    2.0499    0.2263 C   0  0  1  0  0  0  0  0  0  0  0  0
    1.8638    1.9678   -0.1027 C   0  0  1  0  0  0  0  0  0  0  0  0
    3.0576    1.4664    0.6434 C   0  0  0  0  0  0  0  0  0  0  0  0
   -2.4598    0.8264    0.6978 C   0  0  0  0  0  0  0  0  0  0  0  0
   -2.0846   -0.4587    0.3045 C   0  0  0  0  0  0  0  0  0  0  0  0
   -3.0481   -1.3586   -0.1454 C   0  0  0  0  0  0  0  0  0  0  0  0
   -3.8006    1.2066    0.6382 C   0  0  0  0  0  0  0  0  0  0  0  0
   -4.3919   -0.9816   -0.2068 C   0  0  0  0  0  0  0  0  0  0  0  0
   -4.7646    0.3044    0.1867 C   0  0  0  0  0  0  0  0  0  0  0  0
   -2.6263   -2.7081   -0.5508 C   0  0  0  0  0  0  0  0  0  0  0  0
   -0.3480   -2.0402   -0.0056 C   0  0  0  0  0  0  0  0  0  0  0  0
   -1.1767   -3.0032   -0.4487 C   0  0  0  0  0  0  0  0  0  0  0  0
    1.1047   -2.2472    0.1331 C   0  0  0  0  0  0  0  0  0  0  0  0
    1.9556   -1.9635   -0.9357 C   0  0  0  0  0  0  0  0  0  0  0  0
    1.6301   -2.7273    1.3332 C   0  0  0  0  0  0  0  0  0  0  0  0
    3.3303   -2.1596   -0.8045 C   0  0  0  0  0  0  0  0  0  0  0  0
    3.0048   -2.9235    1.4645 C   0  0  0  0  0  0  0  0  0  0  0  0
    3.8548   -2.6395    0.3956 C   0  0  0  0  0  0  0  0  0  0  0  0
    0.4878    3.7420   -1.9247 H   0  0  0  0  0  0  0  0  0  0  0  0
   -0.5344    4.0946    0.9469 H   0  0  0  0  0  0  0  0  0  0  0  0
    2.2744    4.0026    0.5462 H   0  0  0  0  0  0  0  0  0  0  0  0
   -0.6195    1.5391   -0.7376 H   0  0  0  0  0  0  0  0  0  0  0  0
    1.7636    1.3776   -1.0220 H   0  0  0  0  0  0  0  0  0  0  0  0
   -0.0878    5.7978   -1.2538 H   0  0  0  0  0  0  0  0  0  0  0  0
   -1.8228    4.8357   -0.7327 H   0  0  0  0  0  0  0  0  0  0  0  0
    2.7297    3.2133   -2.1508 H   0  0  0  0  0  0  0  0  0  0  0  0
   -5.8086    0.6054    0.1421 H   0  0  0  0  0  0  0  0  0  0  0  0
    4.9790    1.2953    0.3773 H   0  0  0  0  0  0  0  0  0  0  0  0
   -3.3913    2.9489    1.2977 H   0  0  0  0  0  0  0  0  0  0  0  0
    1.5550   -1.5868   -1.8743 H   0  0  0  0  0  0  0  0  0  0  0  0
    0.9799   -2.9520    2.1753 H   0  0  0  0  0  0  0  0  0  0  0  0
   -4.9983   -2.6818   -0.8882 H   0  0  0  0  0  0  0  0  0  0  0  0
    0.2159   -4.3277   -0.6852 H   0  0  0  0  0  0  0  0  0  0  0  0
    3.4002   -3.2973    2.4051 H   0  0  0  0  0  0  0  0  0  0  0  0
    5.0662   -2.0709   -1.5883 H   0  0  0  0  0  0  0  0  0  0  0  0
    5.3748   -3.1692    1.4319 H   0  0  0  0  0  0  0  0  0  0  0  0
  1 18  1  0  0  0  0
  1 19  1  0  0  0  0
  2 18  1  0  0  0  0
  2 21  1  0  0  0  0
  3 15  1  0  0  0  0
  3 41  1  0  0  0  0
  4 16  1  0  0  0  0
  4 42  1  0  0  0  0
  5 17  1  0  0  0  0
  5 43  1  0  0  0  0
  6 20  1  0  0  0  0
  6 45  1  0  0  0  0
  7 22  1  0  0  0  0
  7 28  1  0  0  0  0
  8 20  2  0  0  0  0
  9 24  1  0  0  0  0
  9 46  1  0  0  0  0
 10 25  1  0  0  0  0
 10 49  1  0  0  0  0
 11 29  1  0  0  0  0
 11 50  1  0  0  0  0
 12 27  2  0  0  0  0
 13 33  1  0  0  0  0
 13 52  1  0  0  0  0
 14 35  1  0  0  0  0
 14 53  1  0  0  0  0
 15 16  1  0  0  0  0
 15 17  1  0  0  0  0
 15 36  1  0  0  0  0
 16 18  1  0  0  0  0
 16 37  1  0  0  0  0
 17 19  1  0  0  0  0
 17 38  1  0  0  0  0
 18 39  1  0  0  0  0
 19 20  1  0  0  0  0
 19 40  1  0  0  0  0
 21 22  1  0  0  0  0
 21 24  2  0  0  0  0
 22 23  2  0  0  0  0
 23 25  1  0  0  0  0
 23 27  1  0  0  0  0
 24 26  1  0  0  0  0
 25 26  2  0  0  0  0
 26 44  1  0  0  0  0
 27 29  1  0  0  0  0
 28 29  2  0  0  0  0
 28 30  1  0  0  0  0
 30 31  2  0  0  0  0
 30 32  1  0  0  0  0
 31 33  1  0  0  0  0
 31 47  1  0  0  0  0
 32 34  2  0  0  0  0
 32 48  1  0  0  0  0
 33 35  2  0  0  0  0
 34 35  1  0  0  0  0
 34 51  1  0  0  0  0
M  END
> <PUBCHEM_COMPOUND_CID>
5490334

> <PUBCHEM_CONFORMER_RMSD>
0.8

> <PUBCHEM_CONFORMER_DIVERSEORDER>
1
58
134
46
44
108
132
68
48
107
139
111
72
84
131
47
126
73
120
122
98
121
86
88
63
123
53
40
26
18
130
80
113
129
124
25
90
83
125
10
85
31
19
75
11
135
60
71
33
61
55
95
115
20
138
109
140
21
117
116
118
79
5
101
128
81
28
7
56
100
114
22
105
66
99
2
104
52
69
39
23
12
8
59
94
9
96
93
112
27
65
141
42
6
91
97
50
76
36
3
62
89
57
142
103
43
77
137
143
32
51
4
14
133
70
110
144
45
74
38
127
82
30
106
37
16
102
119
13
136
64
17
87
145
92
54
78
24
49
35
41
34
67
29
15

> <PUBCHEM_MMFF94_PARTIAL_CHARGES>
48
1 -0.56
10 -0.53
11 -0.53
12 -0.57
13 -0.53
14 -0.53
15 0.28
16 0.28
17 0.28
18 0.56
19 0.34
2 -0.36
20 0.66
21 0.08
22 0.08
23 0.09
24 0.08
25 0.08
26 -0.15
27 0.47
28 0.05
29 0.09
3 -0.68
30 0.03
31 -0.15
32 -0.15
33 0.08
34 -0.15
35 0.08
4 -0.68
41 0.4
42 0.4
43 0.4
44 0.15
45 0.5
46 0.45
47 0.15
48 0.15
49 0.45
5 -0.68
50 0.45
51 0.15
52 0.45
53 0.45
6 -0.65
7 -0.16
8 -0.57
9 -0.53

> <PUBCHEM_EFFECTIVE_ROTOR_COUNT>
5.2

> <PUBCHEM_PHARMACOPHORE_FEATURES>
22
1 1 acceptor
1 10 donor
1 11 donor
1 12 acceptor
1 13 donor
1 14 donor
1 2 acceptor
1 3 acceptor
1 3 donor
1 4 acceptor
1 4 donor
1 5 acceptor
1 5 donor
1 6 acceptor
1 7 acceptor
1 8 acceptor
1 9 donor
3 6 8 20 anion
6 1 15 16 17 18 19 rings
6 21 22 23 24 25 26 rings
6 30 31 32 33 34 35 rings
6 7 22 23 27 28 29 rings

> <PUBCHEM_HEAVY_ATOM_COUNT>
35

> <PUBCHEM_ATOM_DEF_STEREO_COUNT>
5

> <PUBCHEM_ATOM_UDEF_STEREO_COUNT>
0

> <PUBCHEM_BOND_DEF_STEREO_COUNT>
0

> <PUBCHEM_BOND_UDEF_STEREO_COUNT>
0

> <PUBCHEM_ISOTOPIC_ATOM_COUNT>
0

> <PUBCHEM_COMPONENT_COUNT>
1

> <PUBCHEM_CACTVS_TAUTO_COUNT>
435

> <PUBCHEM_CONFORMER_ID>
0053C69E00000001

> <PUBCHEM_MMFF94_ENERGY>
107.2347

> <PUBCHEM_FEATURE_SELFOVERLAP>
111.834

> <PUBCHEM_SHAPE_FINGERPRINT>
1100329 8 18411703145186891659
11421498 54 17825110303297993874
11513181 2 17989207070318760815
11578080 2 17750772437780764287
12156800 1 11780283634551510852
12422481 6 18199159885864619018
12553582 1 18194406580695574043
12788726 201 17901684678069677802
13122387 1 17762621694177869838
13140716 1 18340771434155233003
138480 1 18409448098287876408
14020679 6 17899725387552119097
14114211 80 17191240625597780456
14117953 113 17908423554797712085
14955137 171 17979109044355896787
15927050 60 17764031668250899799
16719943 64 17545321234341950468
17627616 140 18263650721867333420
19319366 153 16024206374067916712
20642791 178 18268442252160720905
20691752 17 18040436559735585834
20739085 24 18267889206480986225
20764821 26 18263923233136683604
20775438 99 14601917791662588566
20905425 154 18200878490651673110
22113638 7 18339644421530074519
22149856 69 16322885834115873505
23559900 14 18202567293082875526
338550 245 18410857689226874456
4409770 3 17470716716012445498
463206 1 18409740551327758704
469060 322 18051709754161464635
6608658 132 18191323580351539446
9981440 41 17688024636491927946

> <PUBCHEM_SHAPE_MULTIPOLES>
638.11
8.61
6.99
1.2
1.71
5.5
-0.05
-4.78
-0.2
-2.16
2.04
-0.79
-0.15
-1.55

> <PUBCHEM_SHAPE_SELFOVERLAP>
1414.875

> <PUBCHEM_SHAPE_VOLUME>
336.1

> <PUBCHEM_COORDINATE_TYPE>
2
5
10

$$$$
