7157118
  -OEChem-08232008253D

 76 79  0     1  0  0  0  0  0999 V2000
   -7.5609    1.4133   -0.5033 O   0  0  0  0  0  0  0  0  0  0  0  0
    0.8010   -0.8462    0.5134 C   0  0  1  0  0  0  0  0  0  0  0  0
    0.1286   -0.5986   -0.8489 C   0  0  2  0  0  0  0  0  0  0  0  0
   -1.4011   -0.5020   -0.8670 C   0  0  2  0  0  0  0  0  0  0  0  0
   -1.9213    0.4524    0.2616 C   0  0  1  0  0  0  0  0  0  0  0  0
   -3.4977    0.3922    0.4466 C   0  0  2  0  0  0  0  0  0  0  0  0
    2.2862   -0.7988    0.0620 C   0  0  2  0  0  0  0  0  0  0  0  0
    0.3887    0.3020    1.4437 C   0  0  0  0  0  0  0  0  0  0  0  0
   -4.1391   -0.1157   -0.8793 C   0  0  1  0  0  0  0  0  0  0  0  0
   -1.1366    0.3690    1.5994 C   0  0  0  0  0  0  0  0  0  0  0  0
    0.8449   -1.5570   -1.7955 C   0  0  0  0  0  0  0  0  0  0  0  0
   -2.1961   -1.8050   -0.9492 C   0  0  0  0  0  0  0  0  0  0  0  0
    2.2931   -1.5829   -1.2712 C   0  0  0  0  0  0  0  0  0  0  0  0
   -3.6849   -1.5450   -1.2271 C   0  0  0  0  0  0  0  0  0  0  0  0
   -4.0235    1.8289    0.7325 C   0  0  0  0  0  0  0  0  0  0  0  0
    0.4713   -2.2073    1.1651 C   0  0  0  0  0  0  0  0  0  0  0  0
    3.3221   -1.3105    1.0532 C   0  0  1  0  0  0  0  0  0  0  0  0
   -5.6712   -0.0068   -0.9031 C   0  0  0  0  0  0  0  0  0  0  0  0
   -3.9143   -0.5168    1.6337 C   0  0  0  0  0  0  0  0  0  0  0  0
   -5.5482    1.9349    0.7173 C   0  0  0  0  0  0  0  0  0  0  0  0
   -6.1397    1.4129   -0.5881 C   0  0  2  0  0  0  0  0  0  0  0  0
    4.7660   -1.1931    0.5219 C   0  0  0  0  0  0  0  0  0  0  0  0
    3.2069   -0.5432    2.3763 C   0  0  0  0  0  0  0  0  0  0  0  0
    5.2219    0.2152    0.1175 C   0  0  0  0  0  0  0  0  0  0  0  0
    6.6359    0.2544   -0.4706 C   0  0  0  0  0  0  0  0  0  0  0  0
    7.1195    1.6778   -0.8102 C   0  0  0  0  0  0  0  0  0  0  0  0
    7.0913    2.6121    0.4005 C   0  0  0  0  0  0  0  0  0  0  0  0
    6.2571    2.2637   -1.9314 C   0  0  0  0  0  0  0  0  0  0  0  0
    0.4489    0.4077   -1.1756 H   0  0  0  0  0  0  0  0  0  0  0  0
   -1.6164    0.0064   -1.8209 H   0  0  0  0  0  0  0  0  0  0  0  0
   -1.6856    1.4560   -0.1267 H   0  0  0  0  0  0  0  0  0  0  0  0
    2.5106    0.2503   -0.1748 H   0  0  0  0  0  0  0  0  0  0  0  0
    0.7467    1.2629    1.0526 H   0  0  0  0  0  0  0  0  0  0  0  0
    0.7956    0.2028    2.4500 H   0  0  0  0  0  0  0  0  0  0  0  0
   -3.7850    0.5430   -1.6869 H   0  0  0  0  0  0  0  0  0  0  0  0
   -1.4487   -0.5039    2.1791 H   0  0  0  0  0  0  0  0  0  0  0  0
   -1.3853    1.2435    2.2135 H   0  0  0  0  0  0  0  0  0  0  0  0
    0.8000   -1.2138   -2.8340 H   0  0  0  0  0  0  0  0  0  0  0  0
    0.4249   -2.5671   -1.7601 H   0  0  0  0  0  0  0  0  0  0  0  0
   -2.1079   -2.3786   -0.0249 H   0  0  0  0  0  0  0  0  0  0  0  0
   -1.8108   -2.4514   -1.7448 H   0  0  0  0  0  0  0  0  0  0  0  0
    2.6162   -2.6218   -1.1392 H   0  0  0  0  0  0  0  0  0  0  0  0
    2.9752   -1.1151   -1.9898 H   0  0  0  0  0  0  0  0  0  0  0  0
   -3.8842   -1.7212   -2.2922 H   0  0  0  0  0  0  0  0  0  0  0  0
   -4.2816   -2.2894   -0.6853 H   0  0  0  0  0  0  0  0  0  0  0  0
   -3.6320    2.5208   -0.0251 H   0  0  0  0  0  0  0  0  0  0  0  0
   -3.6481    2.1866    1.6990 H   0  0  0  0  0  0  0  0  0  0  0  0
   -0.5919   -2.3254    1.3755 H   0  0  0  0  0  0  0  0  0  0  0  0
    0.7650   -3.0530    0.5354 H   0  0  0  0  0  0  0  0  0  0  0  0
    0.9747   -2.3327    2.1277 H   0  0  0  0  0  0  0  0  0  0  0  0
    3.1576   -2.3746    1.2636 H   0  0  0  0  0  0  0  0  0  0  0  0
   -6.0482   -0.2964   -1.8929 H   0  0  0  0  0  0  0  0  0  0  0  0
   -6.1329   -0.7178   -0.2071 H   0  0  0  0  0  0  0  0  0  0  0  0
   -4.9951   -0.6761    1.6807 H   0  0  0  0  0  0  0  0  0  0  0  0
   -3.4537   -1.5069    1.5790 H   0  0  0  0  0  0  0  0  0  0  0  0
   -3.6310   -0.0717    2.5942 H   0  0  0  0  0  0  0  0  0  0  0  0
   -5.9832    1.3988    1.5694 H   0  0  0  0  0  0  0  0  0  0  0  0
   -5.8464    2.9815    0.8572 H   0  0  0  0  0  0  0  0  0  0  0  0
   -5.8561    2.0858   -1.4065 H   0  0  0  0  0  0  0  0  0  0  0  0
    5.4581   -1.5831    1.2799 H   0  0  0  0  0  0  0  0  0  0  0  0
    4.8788   -1.8570   -0.3446 H   0  0  0  0  0  0  0  0  0  0  0  0
    3.0876    0.5346    2.2268 H   0  0  0  0  0  0  0  0  0  0  0  0
    4.1141   -0.6819    2.9773 H   0  0  0  0  0  0  0  0  0  0  0  0
    2.3979   -0.9243    3.0018 H   0  0  0  0  0  0  0  0  0  0  0  0
    4.5301    0.6180   -0.6258 H   0  0  0  0  0  0  0  0  0  0  0  0
    5.1655    0.8592    1.0000 H   0  0  0  0  0  0  0  0  0  0  0  0
   -7.9065    1.0990   -1.3562 H   0  0  0  0  0  0  0  0  0  0  0  0
    6.6770   -0.3729   -1.3698 H   0  0  0  0  0  0  0  0  0  0  0  0
    7.3333   -0.1896    0.2510 H   0  0  0  0  0  0  0  0  0  0  0  0
    8.1534    1.6034   -1.1696 H   0  0  0  0  0  0  0  0  0  0  0  0
    7.6197    2.1661    1.2494 H   0  0  0  0  0  0  0  0  0  0  0  0
    7.5902    3.5571    0.1586 H   0  0  0  0  0  0  0  0  0  0  0  0
    6.0727    2.8576    0.7165 H   0  0  0  0  0  0  0  0  0  0  0  0
    6.2085    1.5831   -2.7879 H   0  0  0  0  0  0  0  0  0  0  0  0
    6.6899    3.2065   -2.2847 H   0  0  0  0  0  0  0  0  0  0  0  0
    5.2356    2.4808   -1.6043 H   0  0  0  0  0  0  0  0  0  0  0  0
  1 21  1  0  0  0  0
  1 67  1  0  0  0  0
  2  3  1  0  0  0  0
  2  7  1  0  0  0  0
  2  8  1  0  0  0  0
  2 16  1  0  0  0  0
  3  4  1  0  0  0  0
  3 11  1  0  0  0  0
  3 29  1  0  0  0  0
  4  5  1  0  0  0  0
  4 12  1  0  0  0  0
  4 30  1  0  0  0  0
  5  6  1  0  0  0  0
  5 10  1  0  0  0  0
  5 31  1  0  0  0  0
  6  9  1  0  0  0  0
  6 15  1  0  0  0  0
  6 19  1  0  0  0  0
  7 13  1  0  0  0  0
  7 17  1  0  0  0  0
  7 32  1  0  0  0  0
  8 10  1  0  0  0  0
  8 33  1  0  0  0  0
  8 34  1  0  0  0  0
  9 14  1  0  0  0  0
  9 18  1  0  0  0  0
  9 35  1  0  0  0  0
 10 36  1  0  0  0  0
 10 37  1  0  0  0  0
 11 13  1  0  0  0  0
 11 38  1  0  0  0  0
 11 39  1  0  0  0  0
 12 14  1  0  0  0  0
 12 40  1  0  0  0  0
 12 41  1  0  0  0  0
 13 42  1  0  0  0  0
 13 43  1  0  0  0  0
 14 44  1  0  0  0  0
 14 45  1  0  0  0  0
 15 20  1  0  0  0  0
 15 46  1  0  0  0  0
 15 47  1  0  0  0  0
 16 48  1  0  0  0  0
 16 49  1  0  0  0  0
 16 50  1  0  0  0  0
 17 22  1  0  0  0  0
 17 23  1  0  0  0  0
 17 51  1  0  0  0  0
 18 21  1  0  0  0  0
 18 52  1  0  0  0  0
 18 53  1  0  0  0  0
 19 54  1  0  0  0  0
 19 55  1  0  0  0  0
 19 56  1  0  0  0  0
 20 21  1  0  0  0  0
 20 57  1  0  0  0  0
 20 58  1  0  0  0  0
 21 59  1  0  0  0  0
 22 24  1  0  0  0  0
 22 60  1  0  0  0  0
 22 61  1  0  0  0  0
 23 62  1  0  0  0  0
 23 63  1  0  0  0  0
 23 64  1  0  0  0  0
 24 25  1  0  0  0  0
 24 65  1  0  0  0  0
 24 66  1  0  0  0  0
 25 26  1  0  0  0  0
 25 68  1  0  0  0  0
 25 69  1  0  0  0  0
 26 27  1  0  0  0  0
 26 28  1  0  0  0  0
 26 70  1  0  0  0  0
 27 71  1  0  0  0  0
 27 72  1  0  0  0  0
 27 73  1  0  0  0  0
 28 74  1  0  0  0  0
 28 75  1  0  0  0  0
 28 76  1  0  0  0  0
M  END
> <PUBCHEM_COMPOUND_CID>
7157118

> <PUBCHEM_CONFORMER_RMSD>
0.8

> <PUBCHEM_CONFORMER_DIVERSEORDER>
1
2
3

> <PUBCHEM_MMFF94_PARTIAL_CHARGES>
3
1 -0.68
21 0.28
67 0.4

> <PUBCHEM_EFFECTIVE_ROTOR_COUNT>
7.2

> <PUBCHEM_PHARMACOPHORE_FEATURES>
9
1 1 acceptor
1 1 donor
1 23 hydrophobe
3 26 27 28 hydrophobe
5 17 22 24 25 26 hydrophobe
5 2 3 7 11 13 rings
6 2 3 4 5 8 10 rings
6 4 5 6 9 12 14 rings
6 6 9 15 18 20 21 rings

> <PUBCHEM_HEAVY_ATOM_COUNT>
28

> <PUBCHEM_ATOM_DEF_STEREO_COUNT>
9

> <PUBCHEM_ATOM_UDEF_STEREO_COUNT>
0

> <PUBCHEM_BOND_DEF_STEREO_COUNT>
0

> <PUBCHEM_BOND_UDEF_STEREO_COUNT>
0

> <PUBCHEM_ISOTOPIC_ATOM_COUNT>
0

> <PUBCHEM_COMPONENT_COUNT>
1

> <PUBCHEM_CACTVS_TAUTO_COUNT>
1

> <PUBCHEM_CONFORMER_ID>
006D357E00000001

> <PUBCHEM_MMFF94_ENERGY>
102.7119

> <PUBCHEM_FEATURE_SELFOVERLAP>
45.773

> <PUBCHEM_SHAPE_FINGERPRINT>
10 15 14345800457134431430
10366900 7 16415191248500682515
10554248 39 18127677258433961702
10591671 39 17846779636996803359
10670039 82 16988571173628607160
10693767 8 13758079554753869972
10906281 52 17845946143085610475
11646440 116 15285359496671847404
12011746 2 16630235948969433143
12035758 1 14923944561360256302
12236239 1 18335978692792116807
12596602 18 17967816041561610730
13540713 4 16126945616989255386
13540713 5 14275459273567305210
13668630 136 13830119603755356621
13685833 64 11455889161558465448
13690498 29 17272843457859448959
13782708 43 11167934762493185156
14251757 52 18408882932479821328
14251764 18 10953748793901553018
14251764 30 11815895643701752856
14347332 77 11167953445922591650
15082195 135 17703792518445585952
15131766 46 18261951977014583404
15183329 4 17275111630821181872
15575132 122 18343586226830262248
15840311 113 18113620049443307630
15961568 22 18411140208081858372
16728300 4 10737825626671211400
16994733 274 18260824903980411728
17980427 23 16950852508631425526
18335252 114 18413673496685051300
19784866 240 10952052256176260968
2026 5 12966587313607280580
20511986 3 17240477001181463883
20567600 247 11600009821560066804
20771845 171 18201159845585766294
21033648 29 15864061049261653303
21130935 74 16515964753629965235
21267235 1 16558744646675451031
21298829 104 18262801886834528860
21344244 181 13614517472244639604
21521239 73 13039183710843312132
21637258 2 10519987045838732366
21641784 216 17346607322429816960
21682296 61 12967141509889142276
21792934 111 14635136889763602509
21792961 116 17346886632832609046
22122407 14 18187940499148155248
221357 26 15195562390647897578
2215653 11 15195569018114491006
22224240 67 16950282901525759019
23559900 14 17059753599560737619
23569914 152 13897718462914908920
23576562 1 17987228013966377101
24771293 8 16226334810871870982
2838139 119 18410577331865106120
34797466 226 18260547775536607910
3545911 37 17203318993183907795
392239 28 16660363718716650764
394071 54 17385445427892827372
397830 11 17386301972497865296
4058900 60 18202291268662490414
4093350 32 17822289033685810594
4258327 124 18412549838096853469
4340502 62 15719390625415626514
5104073 3 16732987517834281481
5265222 85 17917144013066263215
5364581 5 15792308122886970700
543368 44 18336545014368439188
59682541 52 15051734209936316200
59755656 215 16559029367993167182
6328613 192 18342457045230496544

> <PUBCHEM_SHAPE_MULTIPOLES>
570.36
18.48
2.31
1.8
10.54
0.69
0.27
15.53
-4.48
1.47
-0.36
0.79
-0.26
-1.77

> <PUBCHEM_SHAPE_SELFOVERLAP>
1173.34

> <PUBCHEM_SHAPE_VOLUME>
327.4

> <PUBCHEM_COORDINATE_TYPE>
2
5
10

$$$$
