21594175
  -OEChem-08232008113D

 81 85  0     1  0  0  0  0  0999 V2000
   -7.3585   -1.7985    0.0683 O   0  0  0  0  0  0  0  0  0  0  0  0
    4.0124    2.0574   -1.8707 O   0  0  0  0  0  0  0  0  0  0  0  0
    2.8396    3.4907   -0.5417 O   0  0  0  0  0  0  0  0  0  0  0  0
    6.7532   -2.4255    0.5968 O   0  0  0  0  0  0  0  0  0  0  0  0
    4.8561   -2.6981    1.8308 O   0  0  0  0  0  0  0  0  0  0  0  0
   -1.1835    0.9701    0.2195 C   0  0  2  0  0  0  0  0  0  0  0  0
   -1.7989   -0.2834   -0.5149 C   0  0  1  0  0  0  0  0  0  0  0  0
   -3.3743   -0.2791   -0.7749 C   0  0  2  0  0  0  0  0  0  0  0  0
    0.3413    0.6016    0.6926 C   0  0  1  0  0  0  0  0  0  0  0  0
   -4.0704    0.0517    0.5967 C   0  0  1  0  0  0  0  0  0  0  0  0
   -2.0725    1.3483    1.4374 C   0  0  0  0  0  0  0  0  0  0  0  0
   -3.5744    1.4040    1.1471 C   0  0  0  0  0  0  0  0  0  0  0  0
    1.1428   -0.0069   -0.4702 C   0  0  0  0  0  0  0  0  0  0  0  0
   -5.6279   -0.1606    0.6543 C   0  0  0  0  0  0  0  0  0  0  0  0
   -0.9496   -0.6721   -1.7431 C   0  0  0  0  0  0  0  0  0  0  0  0
    2.6747    0.0083   -0.4562 C   0  0  1  0  0  0  0  0  0  0  0  0
   -3.8081   -1.7157   -1.2002 C   0  0  0  0  0  0  0  0  0  0  0  0
    1.0667    1.8714    1.2262 C   0  0  0  0  0  0  0  0  0  0  0  0
    3.3254    1.2375    0.2371 C   0  0  1  0  0  0  0  0  0  0  0  0
   -1.1514    2.2062   -0.7285 C   0  0  0  0  0  0  0  0  0  0  0  0
    2.5593    1.6786    1.4967 C   0  0  0  0  0  0  0  0  0  0  0  0
   -5.9475   -1.6018    0.1591 C   0  0  2  0  0  0  0  0  0  0  0  0
    0.5287   -0.5594   -1.5351 C   0  0  0  0  0  0  0  0  0  0  0  0
   -3.7900    0.6850   -1.9146 C   0  0  0  0  0  0  0  0  0  0  0  0
   -5.3179   -1.9470   -1.1867 C   0  0  0  0  0  0  0  0  0  0  0  0
    0.3398   -0.4487    1.8432 C   0  0  0  0  0  0  0  0  0  0  0  0
    3.2749   -1.3075    0.0816 C   0  0  0  0  0  0  0  0  0  0  0  0
    4.8048    0.9687    0.6239 C   0  0  0  0  0  0  0  0  0  0  0  0
    4.7861   -1.4249   -0.2345 C   0  0  2  0  0  0  0  0  0  0  0  0
   -6.1152   -0.0682    2.1280 C   0  0  0  0  0  0  0  0  0  0  0  0
   -6.4349    0.8982   -0.1241 C   0  0  0  0  0  0  0  0  0  0  0  0
    5.4724   -0.0434   -0.3087 C   0  0  0  0  0  0  0  0  0  0  0  0
    3.3486    2.3973   -0.7388 C   0  0  0  0  0  0  0  0  0  0  0  0
    5.0146   -2.1848   -1.5483 C   0  0  0  0  0  0  0  0  0  0  0  0
    5.4336   -2.2494    0.8518 C   0  0  0  0  0  0  0  0  0  0  0  0
   -1.6690   -1.1189    0.1860 H   0  0  0  0  0  0  0  0  0  0  0  0
   -3.6809   -0.7021    1.3021 H   0  0  0  0  0  0  0  0  0  0  0  0
   -1.7582    2.3121    1.8556 H   0  0  0  0  0  0  0  0  0  0  0  0
   -1.9519    0.6179    2.2423 H   0  0  0  0  0  0  0  0  0  0  0  0
   -3.8031    2.2337    0.4735 H   0  0  0  0  0  0  0  0  0  0  0  0
   -4.0704    1.6417    2.0931 H   0  0  0  0  0  0  0  0  0  0  0  0
   -1.1656   -1.7104   -2.0198 H   0  0  0  0  0  0  0  0  0  0  0  0
   -1.1910   -0.0587   -2.6146 H   0  0  0  0  0  0  0  0  0  0  0  0
    2.9635    0.0260   -1.5170 H   0  0  0  0  0  0  0  0  0  0  0  0
   -3.4345   -1.9438   -2.2059 H   0  0  0  0  0  0  0  0  0  0  0  0
   -3.3500   -2.4522   -0.5266 H   0  0  0  0  0  0  0  0  0  0  0  0
    0.5950    2.1939    2.1634 H   0  0  0  0  0  0  0  0  0  0  0  0
    0.9465    2.7100    0.5422 H   0  0  0  0  0  0  0  0  0  0  0  0
   -0.9186    3.1270   -0.1830 H   0  0  0  0  0  0  0  0  0  0  0  0
   -0.4141    2.1029   -1.5299 H   0  0  0  0  0  0  0  0  0  0  0  0
   -2.1092    2.4068   -1.2011 H   0  0  0  0  0  0  0  0  0  0  0  0
    2.9696    2.6208    1.8848 H   0  0  0  0  0  0  0  0  0  0  0  0
    2.6961    0.9479    2.3021 H   0  0  0  0  0  0  0  0  0  0  0  0
   -5.5767   -2.3203    0.9025 H   0  0  0  0  0  0  0  0  0  0  0  0
    1.1331   -0.9708   -2.3415 H   0  0  0  0  0  0  0  0  0  0  0  0
   -4.6844    0.3491   -2.4441 H   0  0  0  0  0  0  0  0  0  0  0  0
   -3.0306    0.7723   -2.6935 H   0  0  0  0  0  0  0  0  0  0  0  0
   -4.0138    1.6934   -1.5635 H   0  0  0  0  0  0  0  0  0  0  0  0
   -5.8157   -1.3962   -1.9919 H   0  0  0  0  0  0  0  0  0  0  0  0
   -5.5173   -3.0023   -1.4153 H   0  0  0  0  0  0  0  0  0  0  0  0
   -0.0878   -0.0437    2.7654 H   0  0  0  0  0  0  0  0  0  0  0  0
   -0.2066   -1.3599    1.5870 H   0  0  0  0  0  0  0  0  0  0  0  0
    1.3451   -0.7731    2.1178 H   0  0  0  0  0  0  0  0  0  0  0  0
    3.1029   -1.3396    1.1615 H   0  0  0  0  0  0  0  0  0  0  0  0
    2.7401   -2.1746   -0.3279 H   0  0  0  0  0  0  0  0  0  0  0  0
    4.8684    0.5822    1.6496 H   0  0  0  0  0  0  0  0  0  0  0  0
    5.3848    1.9009    0.6181 H   0  0  0  0  0  0  0  0  0  0  0  0
   -6.0497    0.9523    2.5184 H   0  0  0  0  0  0  0  0  0  0  0  0
   -7.1643   -0.3714    2.2232 H   0  0  0  0  0  0  0  0  0  0  0  0
   -5.5258   -0.7197    2.7828 H   0  0  0  0  0  0  0  0  0  0  0  0
   -6.1221    1.9143    0.1360 H   0  0  0  0  0  0  0  0  0  0  0  0
   -7.5044    0.8288    0.1091 H   0  0  0  0  0  0  0  0  0  0  0  0
   -6.3542    0.7845   -1.2052 H   0  0  0  0  0  0  0  0  0  0  0  0
    6.5322   -0.1058   -0.0330 H   0  0  0  0  0  0  0  0  0  0  0  0
    5.4743    0.3220   -1.3398 H   0  0  0  0  0  0  0  0  0  0  0  0
   -7.5108   -2.7210   -0.1986 H   0  0  0  0  0  0  0  0  0  0  0  0
    4.6703   -3.2233   -1.4743 H   0  0  0  0  0  0  0  0  0  0  0  0
    6.0734   -2.2114   -1.8312 H   0  0  0  0  0  0  0  0  0  0  0  0
    4.4706   -1.7138   -2.3747 H   0  0  0  0  0  0  0  0  0  0  0  0
    4.0371    2.7952   -2.5166 H   0  0  0  0  0  0  0  0  0  0  0  0
    7.1929   -2.9582    1.2932 H   0  0  0  0  0  0  0  0  0  0  0  0
  1 22  1  0  0  0  0
  1 76  1  0  0  0  0
  2 33  1  0  0  0  0
  2 80  1  0  0  0  0
  3 33  2  0  0  0  0
  4 35  1  0  0  0  0
  4 81  1  0  0  0  0
  5 35  2  0  0  0  0
  6  7  1  0  0  0  0
  6  9  1  0  0  0  0
  6 11  1  0  0  0  0
  6 20  1  0  0  0  0
  7  8  1  0  0  0  0
  7 15  1  0  0  0  0
  7 36  1  0  0  0  0
  8 10  1  0  0  0  0
  8 17  1  0  0  0  0
  8 24  1  0  0  0  0
  9 13  1  0  0  0  0
  9 18  1  0  0  0  0
  9 26  1  0  0  0  0
 10 12  1  0  0  0  0
 10 14  1  0  0  0  0
 10 37  1  0  0  0  0
 11 12  1  0  0  0  0
 11 38  1  0  0  0  0
 11 39  1  0  0  0  0
 12 40  1  0  0  0  0
 12 41  1  0  0  0  0
 13 16  1  0  0  0  0
 13 23  2  0  0  0  0
 14 22  1  0  0  0  0
 14 30  1  0  0  0  0
 14 31  1  0  0  0  0
 15 23  1  0  0  0  0
 15 42  1  0  0  0  0
 15 43  1  0  0  0  0
 16 19  1  0  0  0  0
 16 27  1  0  0  0  0
 16 44  1  0  0  0  0
 17 25  1  0  0  0  0
 17 45  1  0  0  0  0
 17 46  1  0  0  0  0
 18 21  1  0  0  0  0
 18 47  1  0  0  0  0
 18 48  1  0  0  0  0
 19 21  1  0  0  0  0
 19 28  1  0  0  0  0
 19 33  1  0  0  0  0
 20 49  1  0  0  0  0
 20 50  1  0  0  0  0
 20 51  1  0  0  0  0
 21 52  1  0  0  0  0
 21 53  1  0  0  0  0
 22 25  1  0  0  0  0
 22 54  1  0  0  0  0
 23 55  1  0  0  0  0
 24 56  1  0  0  0  0
 24 57  1  0  0  0  0
 24 58  1  0  0  0  0
 25 59  1  0  0  0  0
 25 60  1  0  0  0  0
 26 61  1  0  0  0  0
 26 62  1  0  0  0  0
 26 63  1  0  0  0  0
 27 29  1  0  0  0  0
 27 64  1  0  0  0  0
 27 65  1  0  0  0  0
 28 32  1  0  0  0  0
 28 66  1  0  0  0  0
 28 67  1  0  0  0  0
 29 32  1  0  0  0  0
 29 34  1  0  0  0  0
 29 35  1  0  0  0  0
 30 68  1  0  0  0  0
 30 69  1  0  0  0  0
 30 70  1  0  0  0  0
 31 71  1  0  0  0  0
 31 72  1  0  0  0  0
 31 73  1  0  0  0  0
 32 74  1  0  0  0  0
 32 75  1  0  0  0  0
 34 77  1  0  0  0  0
 34 78  1  0  0  0  0
 34 79  1  0  0  0  0
M  END
> <PUBCHEM_COMPOUND_CID>
21594175

> <PUBCHEM_CONFORMER_RMSD>
0.8

> <PUBCHEM_CONFORMER_DIVERSEORDER>
2
1
3

> <PUBCHEM_MMFF94_PARTIAL_CHARGES>
19
1 -0.68
13 -0.28
15 0.14
16 0.14
19 0.06
2 -0.65
22 0.28
23 -0.29
29 0.06
3 -0.57
33 0.66
35 0.66
4 -0.65
5 -0.57
55 0.15
76 0.4
80 0.5
81 0.5
9 0.14

> <PUBCHEM_EFFECTIVE_ROTOR_COUNT>
4.6

> <PUBCHEM_PHARMACOPHORE_FEATURES>
14
1 1 acceptor
1 1 donor
1 2 acceptor
1 3 acceptor
1 4 acceptor
1 5 acceptor
3 14 30 31 hydrophobe
3 2 3 33 anion
3 4 5 35 anion
6 16 19 27 28 29 32 rings
6 6 7 8 10 11 12 rings
6 6 7 9 13 15 23 rings
6 8 10 14 17 22 25 rings
6 9 13 16 18 19 21 rings

> <PUBCHEM_HEAVY_ATOM_COUNT>
35

> <PUBCHEM_ATOM_DEF_STEREO_COUNT>
9

> <PUBCHEM_ATOM_UDEF_STEREO_COUNT>
0

> <PUBCHEM_BOND_DEF_STEREO_COUNT>
0

> <PUBCHEM_BOND_UDEF_STEREO_COUNT>
0

> <PUBCHEM_ISOTOPIC_ATOM_COUNT>
0

> <PUBCHEM_COMPONENT_COUNT>
1

> <PUBCHEM_CACTVS_TAUTO_COUNT>
1

> <PUBCHEM_CONFORMER_ID>
0149803F00000002

> <PUBCHEM_MMFF94_ENERGY>
154.5146

> <PUBCHEM_FEATURE_SELFOVERLAP>
71.223

> <PUBCHEM_SHAPE_FINGERPRINT>
10319926 262 17561081389269707091
10670039 82 14635145673336032022
11456790 92 17703801336520282931
11719270 70 17704355450908298383
11756154 67 17484822424132795270
11991303 11 15285650918740484691
12107698 1 18408604725545831624
12166972 35 18187368731077879060
12236239 1 18341896303101138665
12422481 6 17560806493939949799
12616971 3 18202282507023431197
12633257 1 17704076196381803633
12788726 201 16415213294340804240
13533116 47 18261396671733241428
13782708 43 17749388165589540755
14341114 176 18273498974328506573
14347332 77 18335417924492067384
14955137 171 17775006739625287854
15001296 14 18262513813959817715
15131766 46 18121782996200683109
15183329 4 17988924483250883461
15238133 3 16845302613811356649
15788980 27 18408322189986291157
15799311 1 18338811125002826119
17349148 13 18060702771423559540
17844677 252 18259983764715683021
17857418 61 18272650147157233547
17980427 23 14907027471587992024
1813 80 18337957762846689924
1979834 28 16343992390181387894
19958102 18 17749108915696325771
20028762 73 18271526407941564670
21267235 1 18131637760211448438
21792934 111 17846494812789529801
23522609 53 18055664873665474361
23559900 14 18334571364947157232
23569914 152 16595573703202315623
23569943 247 17677884631007595995
3004659 81 18273219698839288350
3383291 50 18272647935218525358
3411729 13 16414056686040268120
34797466 226 17023183894081089693
350125 39 18202846551903687188
3680242 22 17917441925125291539
392239 28 18272379676525311595
397830 11 12894780510887574319
4073 2 18191868035737849626
4098825 35 18187082849475408572
439807 62 18412262861515138283
46194498 28 17385442142221740692
465052 167 18272936024586218374
5104073 3 17703788167279868115
513202 73 18334577906857718597
513532 50 16009033917106519836
54039377 194 18340772542668732510
6081469 158 18411412913699785877
6086070 43 17823401734820568493
6608658 132 12468631699679154159
70251023 43 18114176424081743296
7495541 125 18131350829856190609

> <PUBCHEM_SHAPE_MULTIPOLES>
690.94
16.7
2.8
1.78
7.88
0.2
-0.09
-9.41
-2.67
-3.06
0.16
0.14
-0.04
-1.72

> <PUBCHEM_SHAPE_SELFOVERLAP>
1478.767

> <PUBCHEM_SHAPE_VOLUME>
377.1

> <PUBCHEM_COORDINATE_TYPE>
2
5
10

$$$$
