91753200
  -OEChem-11232014303D

 39 40  0     1  0  0  0  0  0999 V2000
    1.5641   -0.4841    0.6215 C   0  0  2  0  0  0  0  0  0  0  0  0
   -0.5278    0.5845   -0.4531 C   0  0  1  0  0  0  0  0  0  0  0  0
   -0.1367    1.9542    0.1707 C   0  0  1  0  0  0  0  0  0  0  0  0
    0.0698   -0.5418    0.3792 C   0  0  0  0  0  0  0  0  0  0  0  0
    1.9413    0.8891    1.1927 C   0  0  0  0  0  0  0  0  0  0  0  0
    1.3896    2.0531    0.3706 C   0  0  0  0  0  0  0  0  0  0  0  0
    2.3549   -0.8210   -0.6457 C   0  0  0  0  0  0  0  0  0  0  0  0
   -2.0230    0.4450   -0.6454 C   0  0  0  0  0  0  0  0  0  0  0  0
   -0.6849   -1.5163    0.9169 C   0  0  0  0  0  0  0  0  0  0  0  0
   -0.5998    3.1494   -0.6722 C   0  0  0  0  0  0  0  0  0  0  0  0
   -2.1705   -1.6159    0.7498 C   0  0  0  0  0  0  0  0  0  0  0  0
   -2.7693   -0.5359   -0.1099 C   0  0  0  0  0  0  0  0  0  0  0  0
    3.8540   -0.7208   -0.3807 C   0  0  0  0  0  0  0  0  0  0  0  0
    1.9870   -2.2134   -1.1488 C   0  0  0  0  0  0  0  0  0  0  0  0
   -4.2487   -0.6261   -0.3455 C   0  0  0  0  0  0  0  0  0  0  0  0
    1.8332   -1.2232    1.3905 H   0  0  0  0  0  0  0  0  0  0  0  0
   -0.0903    0.5235   -1.4589 H   0  0  0  0  0  0  0  0  0  0  0  0
   -0.6125    2.0429    1.1581 H   0  0  0  0  0  0  0  0  0  0  0  0
    3.0183    1.0075    1.3393 H   0  0  0  0  0  0  0  0  0  0  0  0
    1.5126    0.9650    2.2027 H   0  0  0  0  0  0  0  0  0  0  0  0
    1.6322    2.9917    0.8842 H   0  0  0  0  0  0  0  0  0  0  0  0
    1.8949    2.0914   -0.6023 H   0  0  0  0  0  0  0  0  0  0  0  0
    2.1221   -0.1138   -1.4512 H   0  0  0  0  0  0  0  0  0  0  0  0
   -2.5070    1.1784   -1.2854 H   0  0  0  0  0  0  0  0  0  0  0  0
   -0.2173   -2.2910    1.5194 H   0  0  0  0  0  0  0  0  0  0  0  0
   -0.2340    3.0735   -1.7017 H   0  0  0  0  0  0  0  0  0  0  0  0
   -0.2273    4.0894   -0.2504 H   0  0  0  0  0  0  0  0  0  0  0  0
   -1.6909    3.2239   -0.6995 H   0  0  0  0  0  0  0  0  0  0  0  0
   -2.4001   -2.5933    0.3087 H   0  0  0  0  0  0  0  0  0  0  0  0
   -2.6344   -1.5843    1.7428 H   0  0  0  0  0  0  0  0  0  0  0  0
    0.9481   -2.2669   -1.4889 H   0  0  0  0  0  0  0  0  0  0  0  0
    2.6108   -2.4902   -2.0062 H   0  0  0  0  0  0  0  0  0  0  0  0
    4.4218   -1.1407   -1.2190 H   0  0  0  0  0  0  0  0  0  0  0  0
    2.1366   -2.9728   -0.3735 H   0  0  0  0  0  0  0  0  0  0  0  0
    4.1445   -1.2708    0.5208 H   0  0  0  0  0  0  0  0  0  0  0  0
    4.1846    0.3173   -0.2815 H   0  0  0  0  0  0  0  0  0  0  0  0
   -4.4976   -1.5708   -0.8396 H   0  0  0  0  0  0  0  0  0  0  0  0
   -4.6175    0.1883   -0.9778 H   0  0  0  0  0  0  0  0  0  0  0  0
   -4.7874   -0.5788    0.6064 H   0  0  0  0  0  0  0  0  0  0  0  0
  1  4  1  0  0  0  0
  1  5  1  0  0  0  0
  1  7  1  0  0  0  0
  1 16  1  0  0  0  0
  2  3  1  0  0  0  0
  2  4  1  0  0  0  0
  2  8  1  0  0  0  0
  2 17  1  0  0  0  0
  3  6  1  0  0  0  0
  3 10  1  0  0  0  0
  3 18  1  0  0  0  0
  4  9  2  0  0  0  0
  5  6  1  0  0  0  0
  5 19  1  0  0  0  0
  5 20  1  0  0  0  0
  6 21  1  0  0  0  0
  6 22  1  0  0  0  0
  7 13  1  0  0  0  0
  7 14  1  0  0  0  0
  7 23  1  0  0  0  0
  8 12  2  0  0  0  0
  8 24  1  0  0  0  0
  9 11  1  0  0  0  0
  9 25  1  0  0  0  0
 10 26  1  0  0  0  0
 10 27  1  0  0  0  0
 10 28  1  0  0  0  0
 11 12  1  0  0  0  0
 11 29  1  0  0  0  0
 11 30  1  0  0  0  0
 12 15  1  0  0  0  0
 13 33  1  0  0  0  0
 13 35  1  0  0  0  0
 13 36  1  0  0  0  0
 14 31  1  0  0  0  0
 14 32  1  0  0  0  0
 14 34  1  0  0  0  0
 15 37  1  0  0  0  0
 15 38  1  0  0  0  0
 15 39  1  0  0  0  0
M  END
> <PUBCHEM_COMPOUND_CID>
91753200

> <PUBCHEM_CONFORMER_RMSD>
0.6

> <PUBCHEM_CONFORMER_DIVERSEORDER>
1
2
4
3
5

> <PUBCHEM_MMFF94_PARTIAL_CHARGES>
10
1 0.14
11 0.28
12 -0.28
15 0.14
2 0.28
24 0.15
25 0.15
4 -0.28
8 -0.29
9 -0.29

> <PUBCHEM_EFFECTIVE_ROTOR_COUNT>
2

> <PUBCHEM_PHARMACOPHORE_FEATURES>
3
3 7 13 14 hydrophobe
6 1 2 3 4 5 6 rings
6 2 4 8 9 11 12 rings

> <PUBCHEM_HEAVY_ATOM_COUNT>
15

> <PUBCHEM_ATOM_DEF_STEREO_COUNT>
2

> <PUBCHEM_ATOM_UDEF_STEREO_COUNT>
1

> <PUBCHEM_BOND_DEF_STEREO_COUNT>
0

> <PUBCHEM_BOND_UDEF_STEREO_COUNT>
0

> <PUBCHEM_ISOTOPIC_ATOM_COUNT>
0

> <PUBCHEM_COMPONENT_COUNT>
1

> <PUBCHEM_CACTVS_TAUTO_COUNT>
1

> <PUBCHEM_CONFORMER_ID>
05780AF000000001

> <PUBCHEM_MMFF94_ENERGY>
18.8434

> <PUBCHEM_FEATURE_SELFOVERLAP>
15.249

> <PUBCHEM_SHAPE_FINGERPRINT>
1 1 17691694801783551544
10353120 184 18335135350098453589
11680986 33 18192997247254134467
116883 192 18341050718345330885
12138202 78 18340770446070122408
12423570 1 17842803781533872936
12524768 44 18339354274929821755
14115302 16 17676492747986253302
14251745 187 18341047398340548032
14648413 74 18046630280849992305
14761567 1 17685753753985351021
15219456 202 18266461090656833250
15848700 24 18412535522859852229
161256 15 18341324535368913960
16945 1 18262226751061037897
17357779 13 18341041935121237197
17990270 104 18119809367952497859
18186145 218 18335127714221542799
19591789 44 17475241197897416273
20201158 50 18412266129399798422
20233049 118 17894904122883642255
20344682 1 18273214196944198638
20511035 2 17469029420619197537
20588541 1 18411135870163992760
20645476 183 16298105410568102211
20645477 70 18121487214856077615
20711985 344 18263925432101650233
20871998 22 18341610395359287373
20871999 31 18336266717345917517
21130352 189 18410575123323137395
21501502 16 18124320411090780866
21524375 3 16966613148658468489
22721475 48 18412550890047212746
22802520 49 18055910992059031246
2334 1 18119808259761245225
23402539 116 18335413513908736302
23557571 272 18270125587440900918
23559900 14 17550097066741335250
2748010 2 18264762332243713817
353137 74 18115873996830337038
576247 118 18194711265380205082
7364860 26 18123192565373907573
81228 2 18264781960323559928
84936 31 17274821411032593684
9709674 26 18047186642698660515

> <PUBCHEM_SHAPE_MULTIPOLES>
308.69
5.16
2.72
1.06
1.68
1.88
-0.05
-2.56
0.88
-0.29
0.39
-0.28
-0.17
0.96

> <PUBCHEM_SHAPE_SELFOVERLAP>
629.052

> <PUBCHEM_SHAPE_VOLUME>
172.6

> <PUBCHEM_COORDINATE_TYPE>
2
5
10

$$$$
