25086832
  -OEChem-11232014243D

 26 27  0     1  0  0  0  0  0999 V2000
   -0.4641    0.3363    0.2396 C   0  0  2  0  0  0  0  0  0  0  0  0
    0.7258    0.7546   -0.5857 C   0  0  1  0  0  0  0  0  0  0  0  0
    0.1223    1.7126    0.3985 C   0  0  0  0  0  0  0  0  0  0  0  0
   -0.0553   -0.7871    1.1493 C   0  0  0  0  0  0  0  0  0  0  0  0
   -1.7898    0.2132   -0.4261 C   0  0  0  0  0  0  0  0  0  0  0  0
    1.8336   -0.1285   -0.1946 C   0  0  0  0  0  0  0  0  0  0  0  0
    1.2962   -1.2862    0.6136 C   0  0  0  0  0  0  0  0  0  0  0  0
   -1.8607   -1.0237   -1.3427 C   0  0  0  0  0  0  0  0  0  0  0  0
   -2.9426    0.1513    0.5945 C   0  0  0  0  0  0  0  0  0  0  0  0
    3.1346    0.0575   -0.4463 C   0  0  0  0  0  0  0  0  0  0  0  0
    0.5956    0.9431   -1.6435 H   0  0  0  0  0  0  0  0  0  0  0  0
    0.6688    1.9405    1.3067 H   0  0  0  0  0  0  0  0  0  0  0  0
   -0.4203    2.5629    0.0011 H   0  0  0  0  0  0  0  0  0  0  0  0
   -0.7652   -1.6175    1.2033 H   0  0  0  0  0  0  0  0  0  0  0  0
    0.0643   -0.4065    2.1714 H   0  0  0  0  0  0  0  0  0  0  0  0
   -1.9678    1.0918   -1.0610 H   0  0  0  0  0  0  0  0  0  0  0  0
    1.1375   -2.1447   -0.0495 H   0  0  0  0  0  0  0  0  0  0  0  0
    1.9598   -1.5888    1.4294 H   0  0  0  0  0  0  0  0  0  0  0  0
   -1.7802   -1.9601   -0.7821 H   0  0  0  0  0  0  0  0  0  0  0  0
   -1.0553   -1.0085   -2.0844 H   0  0  0  0  0  0  0  0  0  0  0  0
   -2.8126   -1.0425   -1.8844 H   0  0  0  0  0  0  0  0  0  0  0  0
   -2.8973   -0.7503    1.2135 H   0  0  0  0  0  0  0  0  0  0  0  0
   -3.9102    0.1569    0.0815 H   0  0  0  0  0  0  0  0  0  0  0  0
   -2.9095    1.0178    1.2636 H   0  0  0  0  0  0  0  0  0  0  0  0
    3.4754    0.9179   -1.0122 H   0  0  0  0  0  0  0  0  0  0  0  0
    3.8809   -0.6460   -0.0933 H   0  0  0  0  0  0  0  0  0  0  0  0
  1  2  1  0  0  0  0
  1  3  1  0  0  0  0
  1  4  1  0  0  0  0
  1  5  1  0  0  0  0
  2  3  1  0  0  0  0
  2  6  1  0  0  0  0
  2 11  1  0  0  0  0
  3 12  1  0  0  0  0
  3 13  1  0  0  0  0
  4  7  1  0  0  0  0
  4 14  1  0  0  0  0
  4 15  1  0  0  0  0
  5  8  1  0  0  0  0
  5  9  1  0  0  0  0
  5 16  1  0  0  0  0
  6  7  1  0  0  0  0
  6 10  2  0  0  0  0
  7 17  1  0  0  0  0
  7 18  1  0  0  0  0
  8 19  1  0  0  0  0
  8 20  1  0  0  0  0
  8 21  1  0  0  0  0
  9 22  1  0  0  0  0
  9 23  1  0  0  0  0
  9 24  1  0  0  0  0
 10 25  1  0  0  0  0
 10 26  1  0  0  0  0
M  END
> <PUBCHEM_COMPOUND_CID>
25086832

> <PUBCHEM_CONFORMER_RMSD>
0.4

> <PUBCHEM_CONFORMER_DIVERSEORDER>
1
6
3
4
5
2

> <PUBCHEM_MMFF94_PARTIAL_CHARGES>
13
1 -0.19
10 -0.3
11 0.1
12 0.1
13 0.1
2 -0.06
25 0.15
26 0.15
3 -0.2
4 0.09
5 0.09
6 -0.18
7 0.14

> <PUBCHEM_EFFECTIVE_ROTOR_COUNT>
1.6

> <PUBCHEM_PHARMACOPHORE_FEATURES>
2
3 5 8 9 hydrophobe
6 1 2 3 4 6 7 rings

> <PUBCHEM_HEAVY_ATOM_COUNT>
10

> <PUBCHEM_ATOM_DEF_STEREO_COUNT>
1

> <PUBCHEM_ATOM_UDEF_STEREO_COUNT>
1

> <PUBCHEM_BOND_DEF_STEREO_COUNT>
0

> <PUBCHEM_BOND_UDEF_STEREO_COUNT>
0

> <PUBCHEM_ISOTOPIC_ATOM_COUNT>
0

> <PUBCHEM_COMPONENT_COUNT>
1

> <PUBCHEM_CACTVS_TAUTO_COUNT>
1

> <PUBCHEM_CONFORMER_ID>
017ECB7000000001

> <PUBCHEM_MMFF94_ENERGY>
22.7686

> <PUBCHEM_FEATURE_SELFOVERLAP>
10.148

> <PUBCHEM_SHAPE_FINGERPRINT>
12423570 1 10375870740707519088
12897270 3 17385438804298739767
12932764 1 18342449331374073024
13024252 1 17895490171197587596
137420 1 13588562791300344801
14128692 85 17773872180505058164
14993402 34 18131348583973267117
15310529 11 17968093080032023175
16945 1 18114174259243730542
18185500 45 18339349790963008559
20653091 64 17985814054949978617
21040471 1 17822012042469833866
23235685 24 17895198813400882560
23552423 10 18198050576893940645
2748010 2 17827089707478806584
29004967 10 18040156188633996257
369184 2 18408325467030455152
5084963 1 13912325672293969110
528886 8 17676203559100339173
68250623 7 17771627029322021397

> <PUBCHEM_SHAPE_MULTIPOLES>
205.8
3.71
1.32
1.1
0.18
0.18
-0.08
-0.31
-0.51
0.08
0.12
-0.34
-0.27
-0.39

> <PUBCHEM_SHAPE_SELFOVERLAP>
422.533

> <PUBCHEM_SHAPE_VOLUME>
120.6

> <PUBCHEM_COORDINATE_TYPE>
2
5
10

$$$$
