9928190
  -OEChem-09022013053D

 47 48  0     1  0  0  0  0  0999 V2000
    2.8063    4.1792    0.8200 O   0  0  0  0  0  0  0  0  0  0  0  0
   -0.0166    3.8370    1.2125 O   0  0  0  0  0  0  0  0  0  0  0  0
    0.9442   -3.3580    0.6691 O   0  0  0  0  0  0  0  0  0  0  0  0
    3.4998   -4.4441    0.5431 O   0  0  0  0  0  0  0  0  0  0  0  0
   -3.2857   -2.8077    0.6700 O   0  0  0  0  0  0  0  0  0  0  0  0
   -5.5681   -2.2005   -0.7960 O   0  0  0  0  0  0  0  0  0  0  0  0
    2.5646    3.3283   -0.2984 C   0  0  1  0  0  0  0  0  0  0  0  0
    2.7748    1.8714    0.1300 C   0  0  0  0  0  0  0  0  0  0  0  0
    1.1660    3.5940   -0.8604 C   0  0  0  0  0  0  0  0  0  0  0  0
    2.6110    0.8981   -1.0435 C   0  0  0  0  0  0  0  0  0  0  0  0
    0.0566    3.2647    0.1254 C   0  0  0  0  0  0  0  0  0  0  0  0
   -0.9154    2.1688   -0.2866 C   0  0  0  0  0  0  0  0  0  0  0  0
   -2.0148    1.9045    0.7434 C   0  0  0  0  0  0  0  0  0  0  0  0
    2.8450   -0.5297   -0.6185 C   0  0  0  0  0  0  0  0  0  0  0  0
   -2.9633    0.8034    0.3329 C   0  0  0  0  0  0  0  0  0  0  0  0
    1.7766   -1.2896   -0.1671 C   0  0  0  0  0  0  0  0  0  0  0  0
    4.1248   -1.0589   -0.6864 C   0  0  0  0  0  0  0  0  0  0  0  0
   -2.6827   -0.5043    0.6945 C   0  0  0  0  0  0  0  0  0  0  0  0
   -4.0968    1.1218   -0.3977 C   0  0  0  0  0  0  0  0  0  0  0  0
    1.9931   -2.6105    0.2256 C   0  0  0  0  0  0  0  0  0  0  0  0
    4.3413   -2.3797   -0.2933 C   0  0  0  0  0  0  0  0  0  0  0  0
    3.2755   -3.1555    0.1625 C   0  0  0  0  0  0  0  0  0  0  0  0
   -3.5591   -1.5211    0.3157 C   0  0  0  0  0  0  0  0  0  0  0  0
   -4.9730    0.1049   -0.7768 C   0  0  0  0  0  0  0  0  0  0  0  0
   -4.7043   -1.2166   -0.4201 C   0  0  0  0  0  0  0  0  0  0  0  0
    3.3012    3.5945   -1.0658 H   0  0  0  0  0  0  0  0  0  0  0  0
    2.0919    1.6119    0.9492 H   0  0  0  0  0  0  0  0  0  0  0  0
    3.7807    1.7697    0.5594 H   0  0  0  0  0  0  0  0  0  0  0  0
    1.0573    4.6613   -1.0911 H   0  0  0  0  0  0  0  0  0  0  0  0
    1.0000    3.0565   -1.7987 H   0  0  0  0  0  0  0  0  0  0  0  0
    1.6185    0.9668   -1.4982 H   0  0  0  0  0  0  0  0  0  0  0  0
    3.3170    1.1600   -1.8425 H   0  0  0  0  0  0  0  0  0  0  0  0
   -1.3650    2.4644   -1.2417 H   0  0  0  0  0  0  0  0  0  0  0  0
   -0.3451    1.2513   -0.4511 H   0  0  0  0  0  0  0  0  0  0  0  0
   -1.5641    1.6522    1.7127 H   0  0  0  0  0  0  0  0  0  0  0  0
   -2.5829    2.8265    0.9262 H   0  0  0  0  0  0  0  0  0  0  0  0
    3.7163    4.0173    1.1219 H   0  0  0  0  0  0  0  0  0  0  0  0
    0.7761   -0.8701   -0.1142 H   0  0  0  0  0  0  0  0  0  0  0  0
    4.9616   -0.4624   -1.0382 H   0  0  0  0  0  0  0  0  0  0  0  0
   -1.7876   -0.7375    1.2654 H   0  0  0  0  0  0  0  0  0  0  0  0
   -4.3132    2.1477   -0.6815 H   0  0  0  0  0  0  0  0  0  0  0  0
    5.3428   -2.7982   -0.3443 H   0  0  0  0  0  0  0  0  0  0  0  0
   -5.8632    0.3488   -1.3504 H   0  0  0  0  0  0  0  0  0  0  0  0
    1.1497   -4.3016    0.5703 H   0  0  0  0  0  0  0  0  0  0  0  0
    2.7931   -4.7366    1.1409 H   0  0  0  0  0  0  0  0  0  0  0  0
   -2.4528   -2.8282    1.1719 H   0  0  0  0  0  0  0  0  0  0  0  0
   -5.2270   -3.0496   -0.4652 H   0  0  0  0  0  0  0  0  0  0  0  0
  1  7  1  0  0  0  0
  1 37  1  0  0  0  0
  2 11  2  0  0  0  0
  3 20  1  0  0  0  0
  3 44  1  0  0  0  0
  4 22  1  0  0  0  0
  4 45  1  0  0  0  0
  5 23  1  0  0  0  0
  5 46  1  0  0  0  0
  6 25  1  0  0  0  0
  6 47  1  0  0  0  0
  7  8  1  0  0  0  0
  7  9  1  0  0  0  0
  7 26  1  0  0  0  0
  8 10  1  0  0  0  0
  8 27  1  0  0  0  0
  8 28  1  0  0  0  0
  9 11  1  0  0  0  0
  9 29  1  0  0  0  0
  9 30  1  0  0  0  0
 10 14  1  0  0  0  0
 10 31  1  0  0  0  0
 10 32  1  0  0  0  0
 11 12  1  0  0  0  0
 12 13  1  0  0  0  0
 12 33  1  0  0  0  0
 12 34  1  0  0  0  0
 13 15  1  0  0  0  0
 13 35  1  0  0  0  0
 13 36  1  0  0  0  0
 14 16  2  0  0  0  0
 14 17  1  0  0  0  0
 15 18  2  0  0  0  0
 15 19  1  0  0  0  0
 16 20  1  0  0  0  0
 16 38  1  0  0  0  0
 17 21  2  0  0  0  0
 17 39  1  0  0  0  0
 18 23  1  0  0  0  0
 18 40  1  0  0  0  0
 19 24  2  0  0  0  0
 19 41  1  0  0  0  0
 20 22  2  0  0  0  0
 21 22  1  0  0  0  0
 21 42  1  0  0  0  0
 23 25  2  0  0  0  0
 24 25  1  0  0  0  0
 24 43  1  0  0  0  0
M  END
> <PUBCHEM_COMPOUND_CID>
9928190

> <PUBCHEM_CONFORMER_RMSD>
1.2

> <PUBCHEM_CONFORMER_DIVERSEORDER>
1
194
339
138
63
93
327
229
219
215
328
84
280
151
341
18
269
314
226
196
4
30
150
37
294
248
273
71
323
208
67
72
202
287
290
192
172
200
3
292
25
17
149
99
133
162
127
152
144
125
255
171
9
285
73
6
205
129
128
120
201
78
121
338
148
134
95
191
329
315
302
80
147
132
97
324
76
90
23
217
35
320
142
107
54
230
257
156
268
106
331
33
336
65
225
108
91
184
167
69
259
224
289
177
19
278
13
112
212
55
11
197
270
113
92
15
79
299
206
176
50
210
325
77
115
118
85
189
316
119
195
98
175
183
276
39
157
68
26
186
31
89
274
311
56
64
61
190
103
234
2
96
163
27
283
48
53
237
60
81
306
185
117
334
161
218
263
267
22
193
251
70
249
38
20
284
143
238
104
179
169
221
32
309
62
7
204
242
57
209
136
126
279
253
261
303
308
46
319
318
312
109
59
321
110
277
180
82
252
182
260
5
116
154
36
135
88
168
305
49
330
214
223
199
295
233
297
332
254
52
145
58
47
131
335
160
10
188
266
198
86
34
122
181
8
74
75
243
114
272
246
155
275
271
326
245
262
159
102
236
51
264
100
170
16
42
342
158
265
322
235
12
211
40
45
28
166
105
207
256
250
137
282
178
333
140
21
29
44
291
310
293
87
343
228
307
24
41
313
317
141
14
164
241
173
298
66
139
187
288
146
111
281
83
286
94
231
213
244
174
220
300
203
43
124
222
101
153
130
123
340
344
258
239
227
232
240
247
337
296
304
301
165
216

> <PUBCHEM_MMFF94_PARTIAL_CHARGES>
35
1 -0.68
10 0.14
11 0.45
12 0.06
13 0.14
14 -0.14
15 -0.14
16 -0.15
17 -0.15
18 -0.15
19 -0.15
2 -0.57
20 0.08
21 -0.15
22 0.08
23 0.08
24 -0.15
25 0.08
3 -0.53
37 0.4
38 0.15
39 0.15
4 -0.53
40 0.15
41 0.15
42 0.15
43 0.15
44 0.45
45 0.45
46 0.45
47 0.45
5 -0.53
6 -0.53
7 0.28
9 0.06

> <PUBCHEM_EFFECTIVE_ROTOR_COUNT>
8

> <PUBCHEM_PHARMACOPHORE_FEATURES>
9
1 1 acceptor
1 1 donor
1 2 acceptor
1 3 donor
1 4 donor
1 5 donor
1 6 donor
6 14 16 17 20 21 22 rings
6 15 18 19 23 24 25 rings

> <PUBCHEM_HEAVY_ATOM_COUNT>
25

> <PUBCHEM_ATOM_DEF_STEREO_COUNT>
1

> <PUBCHEM_ATOM_UDEF_STEREO_COUNT>
0

> <PUBCHEM_BOND_DEF_STEREO_COUNT>
0

> <PUBCHEM_BOND_UDEF_STEREO_COUNT>
0

> <PUBCHEM_ISOTOPIC_ATOM_COUNT>
0

> <PUBCHEM_COMPONENT_COUNT>
1

> <PUBCHEM_CACTVS_TAUTO_COUNT>
998

> <PUBCHEM_CONFORMER_ID>
00977DFE00000001

> <PUBCHEM_MMFF94_ENERGY>
55.6108

> <PUBCHEM_FEATURE_SELFOVERLAP>
45.684

> <PUBCHEM_SHAPE_FINGERPRINT>
1100329 8 18195531377039077441
11014199 57 18195252122132911394
114674 6 18266743661056166464
11552529 35 17762335813039434718
11719270 70 18194956568580874376
12553582 1 18194133927238733136
12969540 37 18409166606543312172
13122387 1 16679506962953012987
13533116 47 18270682099486459989
138480 1 18410294700861619860
14117953 113 17837209282110077197
14844126 61 17542509332116712040
14863182 85 18192999446415410500
14866123 147 17908425758390968881
15110567 62 18195252345718844817
152267 14 18122904222707840238
15352361 1 18338517426253402238
18681886 176 18413101745669108746
19026451 147 18412539925064745559
19930381 70 18265336281898530611
20028762 73 18200031875931642876
20621476 13 18337392767634546394
20775530 9 18335427811422081360
23559900 14 18410847755389544441
238918 7 17621324971332563776
3298306 158 18051132793898207029
4280585 95 18263915558282878402
444735 79 18266437864523665218
463206 1 18263936427244139442
556388 4 18411982485511952773
6433294 58 18338237184090600039
9709674 26 18335703905390540417
9777508 108 16685408669030910368

> <PUBCHEM_SHAPE_MULTIPOLES>
479.27
10.32
6.3
0.94
8.68
2.07
0.01
-8.68
2
-5.74
-1.32
0.11
0.26
-0.49

> <PUBCHEM_SHAPE_SELFOVERLAP>
1007.802

> <PUBCHEM_SHAPE_VOLUME>
269

> <PUBCHEM_COORDINATE_TYPE>
2
5
10

$$$$
