14707658
  -OEChem-09022012163D

 64 66  0     1  0  0  0  0  0999 V2000
   -1.5298    0.2499   -0.5850 O   0  0  0  0  0  0  0  0  0  0  0  0
   -2.6703    2.2839   -0.4659 O   0  0  0  0  0  0  0  0  0  0  0  0
   -3.7252   -1.0190    0.7229 O   0  0  0  0  0  0  0  0  0  0  0  0
   -5.1830    0.7989    2.4283 O   0  0  0  0  0  0  0  0  0  0  0  0
   -5.8916    3.2490    0.9484 O   0  0  0  0  0  0  0  0  0  0  0  0
    0.2750   -2.1172   -3.0887 O   0  0  0  0  0  0  0  0  0  0  0  0
    4.8952    0.7270    2.1107 O   0  0  0  0  0  0  0  0  0  0  0  0
    6.6419    1.9274    0.3121 O   0  0  0  0  0  0  0  0  0  0  0  0
    3.0928   -2.2439    0.5939 O   0  0  0  0  0  0  0  0  0  0  0  0
    1.9330   -1.7679    3.0748 O   0  0  0  0  0  0  0  0  0  0  0  0
   -3.4602    0.3803    0.8190 C   0  0  2  0  0  0  0  0  0  0  0  0
   -4.7793    1.1025    1.0924 C   0  0  2  0  0  0  0  0  0  0  0  0
   -2.8130    0.8648   -0.4795 C   0  0  2  0  0  0  0  0  0  0  0  0
   -4.6179    2.6144    0.9395 C   0  0  1  0  0  0  0  0  0  0  0  0
   -0.8584    0.6504   -1.7774 C   0  0  1  0  0  0  0  0  0  0  0  0
   -3.9250    2.9495   -0.3738 C   0  0  0  0  0  0  0  0  0  0  0  0
    0.6518    0.6746   -1.5141 C   0  0  0  0  0  0  0  0  0  0  0  0
   -1.2530   -0.2744   -2.9312 C   0  0  0  0  0  0  0  0  0  0  0  0
    1.0756    1.9118   -0.7134 C   0  0  0  0  0  0  0  0  0  0  0  0
   -0.8255   -1.7167   -2.7103 C   0  0  0  0  0  0  0  0  0  0  0  0
   -1.8427   -2.6329   -2.0461 C   0  0  0  0  0  0  0  0  0  0  0  0
    2.5580    1.9144   -0.4370 C   0  0  0  0  0  0  0  0  0  0  0  0
   -1.2114   -3.7404   -1.2009 C   0  0  0  0  0  0  0  0  0  0  0  0
    3.0528    1.3144    0.7210 C   0  0  0  0  0  0  0  0  0  0  0  0
    3.4346    2.5167   -1.3395 C   0  0  0  0  0  0  0  0  0  0  0  0
   -0.3698   -3.2146   -0.0626 C   0  0  0  0  0  0  0  0  0  0  0  0
    4.4241    1.3165    0.9765 C   0  0  0  0  0  0  0  0  0  0  0  0
    4.8059    2.5190   -1.0839 C   0  0  0  0  0  0  0  0  0  0  0  0
    5.3006    1.9188    0.0740 C   0  0  0  0  0  0  0  0  0  0  0  0
    0.9893   -2.9676   -0.2561 C   0  0  0  0  0  0  0  0  0  0  0  0
   -0.9517   -2.9757    1.1824 C   0  0  0  0  0  0  0  0  0  0  0  0
    1.7666   -2.4814    0.7953 C   0  0  0  0  0  0  0  0  0  0  0  0
   -0.1744   -2.4899    2.2338 C   0  0  0  0  0  0  0  0  0  0  0  0
    1.1847   -2.2427    2.0402 C   0  0  0  0  0  0  0  0  0  0  0  0
   -2.7683    0.5117    1.6597 H   0  0  0  0  0  0  0  0  0  0  0  0
   -5.5776    0.7310    0.4392 H   0  0  0  0  0  0  0  0  0  0  0  0
   -3.4235    0.5609   -1.3391 H   0  0  0  0  0  0  0  0  0  0  0  0
   -4.0406    3.0089    1.7846 H   0  0  0  0  0  0  0  0  0  0  0  0
   -1.1472    1.6651   -2.0789 H   0  0  0  0  0  0  0  0  0  0  0  0
   -3.7421    4.0280   -0.4367 H   0  0  0  0  0  0  0  0  0  0  0  0
   -4.5502    2.6936   -1.2387 H   0  0  0  0  0  0  0  0  0  0  0  0
    1.1935    0.6726   -2.4685 H   0  0  0  0  0  0  0  0  0  0  0  0
    0.9525   -0.2229   -0.9667 H   0  0  0  0  0  0  0  0  0  0  0  0
   -2.3341   -0.2666   -3.1057 H   0  0  0  0  0  0  0  0  0  0  0  0
   -0.7889    0.0672   -3.8645 H   0  0  0  0  0  0  0  0  0  0  0  0
    0.5278    1.9538    0.2366 H   0  0  0  0  0  0  0  0  0  0  0  0
    0.8036    2.8258   -1.2567 H   0  0  0  0  0  0  0  0  0  0  0  0
   -4.3297   -1.1601   -0.0256 H   0  0  0  0  0  0  0  0  0  0  0  0
   -4.5013    1.1356    3.0344 H   0  0  0  0  0  0  0  0  0  0  0  0
   -5.7440    4.2065    0.8648 H   0  0  0  0  0  0  0  0  0  0  0  0
   -2.5078   -2.0335   -1.4199 H   0  0  0  0  0  0  0  0  0  0  0  0
   -2.4529   -3.0735   -2.8423 H   0  0  0  0  0  0  0  0  0  0  0  0
   -0.5940   -4.3901   -1.8347 H   0  0  0  0  0  0  0  0  0  0  0  0
   -2.0033   -4.3856   -0.7998 H   0  0  0  0  0  0  0  0  0  0  0  0
    2.3676    0.8469    1.4239 H   0  0  0  0  0  0  0  0  0  0  0  0
    3.0612    2.9856   -2.2460 H   0  0  0  0  0  0  0  0  0  0  0  0
    5.4776    2.9914   -1.7958 H   0  0  0  0  0  0  0  0  0  0  0  0
    1.4583   -3.1814   -1.2119 H   0  0  0  0  0  0  0  0  0  0  0  0
   -2.0082   -3.1684    1.3465 H   0  0  0  0  0  0  0  0  0  0  0  0
   -0.6406   -2.3082    3.1984 H   0  0  0  0  0  0  0  0  0  0  0  0
    4.1467    0.3585    2.6107 H   0  0  0  0  0  0  0  0  0  0  0  0
    7.0904    2.3871   -0.4185 H   0  0  0  0  0  0  0  0  0  0  0  0
    3.3162   -2.4517   -0.3297 H   0  0  0  0  0  0  0  0  0  0  0  0
    1.3625   -1.6605    3.8552 H   0  0  0  0  0  0  0  0  0  0  0  0
  1 13  1  0  0  0  0
  1 15  1  0  0  0  0
  2 13  1  0  0  0  0
  2 16  1  0  0  0  0
  3 11  1  0  0  0  0
  3 48  1  0  0  0  0
  4 12  1  0  0  0  0
  4 49  1  0  0  0  0
  5 14  1  0  0  0  0
  5 50  1  0  0  0  0
  6 20  2  0  0  0  0
  7 27  1  0  0  0  0
  7 61  1  0  0  0  0
  8 29  1  0  0  0  0
  8 62  1  0  0  0  0
  9 32  1  0  0  0  0
  9 63  1  0  0  0  0
 10 34  1  0  0  0  0
 10 64  1  0  0  0  0
 11 12  1  0  0  0  0
 11 13  1  0  0  0  0
 11 35  1  0  0  0  0
 12 14  1  0  0  0  0
 12 36  1  0  0  0  0
 13 37  1  0  0  0  0
 14 16  1  0  0  0  0
 14 38  1  0  0  0  0
 15 17  1  0  0  0  0
 15 18  1  0  0  0  0
 15 39  1  0  0  0  0
 16 40  1  0  0  0  0
 16 41  1  0  0  0  0
 17 19  1  0  0  0  0
 17 42  1  0  0  0  0
 17 43  1  0  0  0  0
 18 20  1  0  0  0  0
 18 44  1  0  0  0  0
 18 45  1  0  0  0  0
 19 22  1  0  0  0  0
 19 46  1  0  0  0  0
 19 47  1  0  0  0  0
 20 21  1  0  0  0  0
 21 23  1  0  0  0  0
 21 51  1  0  0  0  0
 21 52  1  0  0  0  0
 22 24  2  0  0  0  0
 22 25  1  0  0  0  0
 23 26  1  0  0  0  0
 23 53  1  0  0  0  0
 23 54  1  0  0  0  0
 24 27  1  0  0  0  0
 24 55  1  0  0  0  0
 25 28  2  0  0  0  0
 25 56  1  0  0  0  0
 26 30  2  0  0  0  0
 26 31  1  0  0  0  0
 27 29  2  0  0  0  0
 28 29  1  0  0  0  0
 28 57  1  0  0  0  0
 30 32  1  0  0  0  0
 30 58  1  0  0  0  0
 31 33  2  0  0  0  0
 31 59  1  0  0  0  0
 32 34  2  0  0  0  0
 33 34  1  0  0  0  0
 33 60  1  0  0  0  0
M  END
> <PUBCHEM_COMPOUND_CID>
14707658

> <PUBCHEM_CONFORMER_RMSD>
1.6

> <PUBCHEM_CONFORMER_DIVERSEORDER>
1
36
20
76
111
47
7
104
103
80
41
30
40
102
83
50
37
143
137
70
97
24
96
48
131
58
146
3
63
129
98
127
11
62
135
147
86
109
84
34
81
15
53
140
115
23
21
13
136
130
106
55
45
117
25
123
92
56
108
43
153
90
44
91
113
54
12
119
125
42
151
51
74
61
26
112
18
105
49
72
39
28
114
46
88
133
152
64
101
100
144
32
87
93
31
69
29
38
2
4
71
5
68
116
118
150
10
94
132
156
67
154
22
128
8
57
142
149
6
65
14
148
99
59
155
27
16
126
9
110
73
82
122
35
77
17
19
124
134
107
89
120
78
145
95
52
75
141
121
33
85
66
60
139
79
138

> <PUBCHEM_MMFF94_PARTIAL_CHARGES>
46
1 -0.56
10 -0.53
11 0.28
12 0.28
13 0.56
14 0.28
15 0.28
16 0.28
18 0.06
19 0.14
2 -0.56
20 0.45
21 0.06
22 -0.14
23 0.14
24 -0.15
25 -0.15
26 -0.14
27 0.08
28 -0.15
29 0.08
3 -0.68
30 -0.15
31 -0.15
32 0.08
33 -0.15
34 0.08
4 -0.68
48 0.4
49 0.4
5 -0.68
50 0.4
55 0.15
56 0.15
57 0.15
58 0.15
59 0.15
6 -0.57
60 0.15
61 0.45
62 0.45
63 0.45
64 0.45
7 -0.53
8 -0.53
9 -0.53

> <PUBCHEM_EFFECTIVE_ROTOR_COUNT>
11.2

> <PUBCHEM_PHARMACOPHORE_FEATURES>
16
1 1 acceptor
1 10 donor
1 2 acceptor
1 3 acceptor
1 3 donor
1 4 acceptor
1 4 donor
1 5 acceptor
1 5 donor
1 6 acceptor
1 7 donor
1 8 donor
1 9 donor
6 2 11 12 13 14 16 rings
6 22 24 25 27 28 29 rings
6 26 30 31 32 33 34 rings

> <PUBCHEM_HEAVY_ATOM_COUNT>
34

> <PUBCHEM_ATOM_DEF_STEREO_COUNT>
5

> <PUBCHEM_ATOM_UDEF_STEREO_COUNT>
0

> <PUBCHEM_BOND_DEF_STEREO_COUNT>
0

> <PUBCHEM_BOND_UDEF_STEREO_COUNT>
0

> <PUBCHEM_ISOTOPIC_ATOM_COUNT>
0

> <PUBCHEM_COMPONENT_COUNT>
1

> <PUBCHEM_CACTVS_TAUTO_COUNT>
998

> <PUBCHEM_CONFORMER_ID>
00E06BCA00000001

> <PUBCHEM_MMFF94_ENERGY>
82.7025

> <PUBCHEM_FEATURE_SELFOVERLAP>
81.266

> <PUBCHEM_SHAPE_FINGERPRINT>
12058002 1 15478773380228783335
12156800 1 17244745404083814230
12422481 6 17749383750389306872
12788726 201 17832156291176750628
131258 38 15876751964493927659
13135754 10 17607265417385095018
14028597 1 18191295182123022375
14395042 70 17770519546583162721
14955137 171 17978234850733220846
15420108 30 18412259506960810637
15968369 153 17907301305454971506
16112460 7 17898562344578793108
21756936 100 18341326799196538992
3411729 13 18338525123246714401
35225 105 18196946679856726569
394071 54 17979360755457218281
469060 322 14708880220132375362
50150288 127 17324971355703752844
6438754 60 8934703522799938541

> <PUBCHEM_SHAPE_MULTIPOLES>
641.01
10.64
5.06
2.81
4.7
2.23
0.62
-14.33
-5.49
-1.68
-0.15
-0.65
1.84
-2.5

> <PUBCHEM_SHAPE_SELFOVERLAP>
1350.919

> <PUBCHEM_SHAPE_VOLUME>
356.6

> <PUBCHEM_COORDINATE_TYPE>
2
5
10

$$$$
