11771038
  -OEChem-09022012123D

 46 47  0     1  0  0  0  0  0999 V2000
   -1.8356   -3.5100    0.8108 O   0  0  0  0  0  0  0  0  0  0  0  0
   -7.0376    2.9858    0.1394 O   0  0  0  0  0  0  0  0  0  0  0  0
    8.3019    1.1589    0.7526 O   0  0  0  0  0  0  0  0  0  0  0  0
    0.1019   -2.1604    0.3796 C   0  0  0  0  0  0  0  0  0  0  0  0
   -1.3533   -2.4508   -0.0185 C   0  0  2  0  0  0  0  0  0  0  0  0
    0.8336   -1.1186   -0.4719 C   0  0  0  0  0  0  0  0  0  0  0  0
   -2.2792   -1.2345    0.1119 C   0  0  0  0  0  0  0  0  0  0  0  0
    2.3009   -0.9238   -0.0752 C   0  0  0  0  0  0  0  0  0  0  0  0
   -3.7358   -1.5745   -0.2257 C   0  0  0  0  0  0  0  0  0  0  0  0
    2.9927    0.1795   -0.8859 C   0  0  0  0  0  0  0  0  0  0  0  0
   -4.6181   -0.3552   -0.1279 C   0  0  0  0  0  0  0  0  0  0  0  0
    4.4133    0.4413   -0.4472 C   0  0  0  0  0  0  0  0  0  0  0  0
   -5.2290   -0.0521    1.0791 C   0  0  0  0  0  0  0  0  0  0  0  0
   -4.8039    0.4414   -1.2475 C   0  0  0  0  0  0  0  0  0  0  0  0
    4.6570    1.3860    0.5367 C   0  0  0  0  0  0  0  0  0  0  0  0
    5.4474   -0.2677   -1.0374 C   0  0  0  0  0  0  0  0  0  0  0  0
   -6.0457    1.0752    1.1688 C   0  0  0  0  0  0  0  0  0  0  0  0
   -5.6204    1.5686   -1.1576 C   0  0  0  0  0  0  0  0  0  0  0  0
    5.9698    1.6283    0.9413 C   0  0  0  0  0  0  0  0  0  0  0  0
    6.7601   -0.0254   -0.6327 C   0  0  0  0  0  0  0  0  0  0  0  0
   -6.2414    1.8856    0.0505 C   0  0  0  0  0  0  0  0  0  0  0  0
    7.0214    0.9225    0.3566 C   0  0  0  0  0  0  0  0  0  0  0  0
    0.1288   -1.8525    1.4333 H   0  0  0  0  0  0  0  0  0  0  0  0
    0.6661   -3.1021    0.3444 H   0  0  0  0  0  0  0  0  0  0  0  0
   -1.3806   -2.8118   -1.0536 H   0  0  0  0  0  0  0  0  0  0  0  0
    0.7825   -1.4147   -1.5266 H   0  0  0  0  0  0  0  0  0  0  0  0
    0.3199   -0.1544   -0.3860 H   0  0  0  0  0  0  0  0  0  0  0  0
   -2.2343   -0.8558    1.1415 H   0  0  0  0  0  0  0  0  0  0  0  0
   -1.9311   -0.4280   -0.5436 H   0  0  0  0  0  0  0  0  0  0  0  0
    2.3519   -0.6775    0.9931 H   0  0  0  0  0  0  0  0  0  0  0  0
    2.8417   -1.8700   -0.2026 H   0  0  0  0  0  0  0  0  0  0  0  0
   -4.1183   -2.3528    0.4465 H   0  0  0  0  0  0  0  0  0  0  0  0
   -3.7993   -1.9947   -1.2376 H   0  0  0  0  0  0  0  0  0  0  0  0
    2.4167    1.1112   -0.8100 H   0  0  0  0  0  0  0  0  0  0  0  0
    2.9820   -0.0840   -1.9517 H   0  0  0  0  0  0  0  0  0  0  0  0
   -1.2696   -4.2854    0.6567 H   0  0  0  0  0  0  0  0  0  0  0  0
   -5.0811   -0.6760    1.9559 H   0  0  0  0  0  0  0  0  0  0  0  0
   -4.3231    0.2038   -2.1921 H   0  0  0  0  0  0  0  0  0  0  0  0
    3.8444    1.9390    0.9992 H   0  0  0  0  0  0  0  0  0  0  0  0
    5.2534   -1.0091   -1.8071 H   0  0  0  0  0  0  0  0  0  0  0  0
   -6.5231    1.3114    2.1160 H   0  0  0  0  0  0  0  0  0  0  0  0
   -5.7685    2.1965   -2.0320 H   0  0  0  0  0  0  0  0  0  0  0  0
    6.1599    2.3689    1.7135 H   0  0  0  0  0  0  0  0  0  0  0  0
    7.5750   -0.5788   -1.0914 H   0  0  0  0  0  0  0  0  0  0  0  0
   -7.3837    3.0520    1.0459 H   0  0  0  0  0  0  0  0  0  0  0  0
    8.2968    1.8435    1.4436 H   0  0  0  0  0  0  0  0  0  0  0  0
  1  5  1  0  0  0  0
  1 36  1  0  0  0  0
  2 21  1  0  0  0  0
  2 45  1  0  0  0  0
  3 22  1  0  0  0  0
  3 46  1  0  0  0  0
  4  5  1  0  0  0  0
  4  6  1  0  0  0  0
  4 23  1  0  0  0  0
  4 24  1  0  0  0  0
  5  7  1  0  0  0  0
  5 25  1  0  0  0  0
  6  8  1  0  0  0  0
  6 26  1  0  0  0  0
  6 27  1  0  0  0  0
  7  9  1  0  0  0  0
  7 28  1  0  0  0  0
  7 29  1  0  0  0  0
  8 10  1  0  0  0  0
  8 30  1  0  0  0  0
  8 31  1  0  0  0  0
  9 11  1  0  0  0  0
  9 32  1  0  0  0  0
  9 33  1  0  0  0  0
 10 12  1  0  0  0  0
 10 34  1  0  0  0  0
 10 35  1  0  0  0  0
 11 13  2  0  0  0  0
 11 14  1  0  0  0  0
 12 15  2  0  0  0  0
 12 16  1  0  0  0  0
 13 17  1  0  0  0  0
 13 37  1  0  0  0  0
 14 18  2  0  0  0  0
 14 38  1  0  0  0  0
 15 19  1  0  0  0  0
 15 39  1  0  0  0  0
 16 20  2  0  0  0  0
 16 40  1  0  0  0  0
 17 21  2  0  0  0  0
 17 41  1  0  0  0  0
 18 21  1  0  0  0  0
 18 42  1  0  0  0  0
 19 22  2  0  0  0  0
 19 43  1  0  0  0  0
 20 22  1  0  0  0  0
 20 44  1  0  0  0  0
M  END
> <PUBCHEM_COMPOUND_CID>
11771038

> <PUBCHEM_CONFORMER_RMSD>
0.8

> <PUBCHEM_CONFORMER_DIVERSEORDER>
1
91
27
14
51
78
158
82
160
163
161
166
169
73
61
80
30
134
118
140
68
7
167
102
100
22
38
136
77
3
159
11
93
124
96
43
115
148
112
46
151
2
92
131
90
24
45
66
6
62
13
57
164
126
42
53
138
111
153
26
76
41
147
168
108
25
10
165
9
55
156
16
99
143
116
18
59
119
84
15
56
64
88
85
39
122
23
29
48
5
34
114
146
103
142
94
79
128
8
69
50
31
110
44
35
107
132
37
87
70
36
19
106
86
155
20
157
33
21
28
58
141
101
129
4
113
105
123
83
145
109
74
144
32
47
120
139
12
135
65
54
162
67
40
52
130
149
63
72
137
97
127
95
150
75
60
98
117
71
154
125
152
17
89
49
133
121
104
81

> <PUBCHEM_MMFF94_PARTIAL_CHARGES>
29
1 -0.68
10 0.14
11 -0.14
12 -0.14
13 -0.15
14 -0.15
15 -0.15
16 -0.15
17 -0.15
18 -0.15
19 -0.15
2 -0.53
20 -0.15
21 0.08
22 0.08
3 -0.53
36 0.4
37 0.15
38 0.15
39 0.15
40 0.15
41 0.15
42 0.15
43 0.15
44 0.15
45 0.45
46 0.45
5 0.28
9 0.14

> <PUBCHEM_EFFECTIVE_ROTOR_COUNT>
8

> <PUBCHEM_PHARMACOPHORE_FEATURES>
7
1 1 acceptor
1 1 donor
1 2 donor
1 3 donor
4 4 6 8 10 hydrophobe
6 11 13 14 17 18 21 rings
6 12 15 16 19 20 22 rings

> <PUBCHEM_HEAVY_ATOM_COUNT>
22

> <PUBCHEM_ATOM_DEF_STEREO_COUNT>
1

> <PUBCHEM_ATOM_UDEF_STEREO_COUNT>
0

> <PUBCHEM_BOND_DEF_STEREO_COUNT>
0

> <PUBCHEM_BOND_UDEF_STEREO_COUNT>
0

> <PUBCHEM_ISOTOPIC_ATOM_COUNT>
0

> <PUBCHEM_COMPONENT_COUNT>
1

> <PUBCHEM_CACTVS_TAUTO_COUNT>
4

> <PUBCHEM_CONFORMER_ID>
00B39C9E00000001

> <PUBCHEM_MMFF94_ENERGY>
46.3099

> <PUBCHEM_FEATURE_SELFOVERLAP>
35.522

> <PUBCHEM_SHAPE_FINGERPRINT>
10674148 151 17967250915383635474
11297750 10 16769280391145241055
11475781 23 18273220794314418454
11963148 33 9655306908395863964
12778500 126 18261104163718920426
13668630 136 9655570799543544197
13673619 4 11097852999572297758
13690498 29 16629103555394202855
14123256 34 9439399138347438613
14556957 393 14979689830636831922
14729087 3 18272368694093040296
14950920 106 15140971685768358965
15183329 4 17989488506782676706
15350500 55 17750227020786003109
15716309 27 12468639434692954023
15778101 99 18410858763596751191
17780758 139 12468630617679191639
19438510 23 18260834752830382875
20281389 69 18408605868007093339
20621476 66 18407762551415582452
21033648 29 18187375302704895775
21054139 6 12103574086886692916
21196832 93 12103264058445633404
21307412 95 11887371588480451901
21315759 148 12901814009471640410
21756936 100 18409447012189242903
21774942 28 17703515385454289816
22288116 15 16845281783394038247
23389318 12 10519693510931679418
23522609 53 17024048106289551806
270888 7 18338516340375729975
2748736 6 18411412921277279421
2838139 119 18272366507474671383
2916195 48 18412267242202451511
437795 171 17540532419054438237
445580 204 18060422382794305689
5104073 3 17967531264029901939
5385378 56 18114461171997892970
543368 44 18201720627202746489
5969126 39 18054504975014021727
636775 72 18340764952891821296
636775 8 8935003698518255256
7226269 152 18342740719335886545
7970288 3 9294992562911714593
999808 66 11097851887011906361

> <PUBCHEM_SHAPE_MULTIPOLES>
435.14
24.41
2.79
1.1
16.23
1.02
0.05
-19.72
-1.91
-4.03
-0.59
-0.39
-0.2
1.32

> <PUBCHEM_SHAPE_SELFOVERLAP>
899.966

> <PUBCHEM_SHAPE_VOLUME>
249

> <PUBCHEM_COORDINATE_TYPE>
2
5
10

$$$$
