841658
  -OEChem-11232013503D

 23 24  0     0  0  0  0  0  0999 V2000
   -5.3037    0.0338    0.1978 O   0  0  0  0  0  0  0  0  0  0  0  0
   -3.4992   -0.0721    1.5714 O   0  0  0  0  0  0  0  0  0  0  0  0
    2.4398    0.0200    0.0285 N   0  0  0  0  0  0  0  0  0  0  0  0
    3.1579   -1.1108    0.1221 N   0  0  0  0  0  0  0  0  0  0  0  0
    4.4897    0.6615    0.3575 N   0  0  0  0  0  0  0  0  0  0  0  0
    4.4081   -0.7122    0.3225 N   0  0  0  0  0  0  0  0  0  0  0  0
   -1.6836    0.0126   -0.6098 C   0  0  0  0  0  0  0  0  0  0  0  0
    1.0732    0.0177   -0.1827 C   0  0  0  0  0  0  0  0  0  0  0  0
   -3.1573    0.0098   -0.8384 C   0  0  0  0  0  0  0  0  0  0  0  0
   -0.9997    1.2217   -0.4835 C   0  0  0  0  0  0  0  0  0  0  0  0
   -0.9891   -1.1940   -0.5225 C   0  0  0  0  0  0  0  0  0  0  0  0
    0.3788    1.2242   -0.2701 C   0  0  0  0  0  0  0  0  0  0  0  0
    0.3893   -1.1914   -0.3089 C   0  0  0  0  0  0  0  0  0  0  0  0
   -3.9677   -0.0147    0.4427 C   0  0  0  0  0  0  0  0  0  0  0  0
    3.2636    1.0940    0.1735 C   0  0  0  0  0  0  0  0  0  0  0  0
   -3.4406   -0.8639   -1.4378 H   0  0  0  0  0  0  0  0  0  0  0  0
   -3.4457    0.9013   -1.4085 H   0  0  0  0  0  0  0  0  0  0  0  0
   -1.5301    2.1682   -0.5477 H   0  0  0  0  0  0  0  0  0  0  0  0
   -1.5111   -2.1425   -0.6173 H   0  0  0  0  0  0  0  0  0  0  0  0
    0.8626    2.1913   -0.1783 H   0  0  0  0  0  0  0  0  0  0  0  0
    0.8944   -2.1518   -0.2463 H   0  0  0  0  0  0  0  0  0  0  0  0
    2.9686    2.1327    0.1444 H   0  0  0  0  0  0  0  0  0  0  0  0
   -5.8278    0.0174    1.0269 H   0  0  0  0  0  0  0  0  0  0  0  0
  1 14  1  0  0  0  0
  1 23  1  0  0  0  0
  2 14  2  0  0  0  0
  3  4  1  0  0  0  0
  3  8  1  0  0  0  0
  3 15  1  0  0  0  0
  4  6  2  0  0  0  0
  5  6  1  0  0  0  0
  5 15  2  0  0  0  0
  7  9  1  0  0  0  0
  7 10  2  0  0  0  0
  7 11  1  0  0  0  0
  8 12  2  0  0  0  0
  8 13  1  0  0  0  0
  9 14  1  0  0  0  0
  9 16  1  0  0  0  0
  9 17  1  0  0  0  0
 10 12  1  0  0  0  0
 10 18  1  0  0  0  0
 11 13  2  0  0  0  0
 11 19  1  0  0  0  0
 12 20  1  0  0  0  0
 13 21  1  0  0  0  0
 15 22  1  0  0  0  0
M  END
> <PUBCHEM_COMPOUND_CID>
841658

> <PUBCHEM_CONFORMER_RMSD>
0.6

> <PUBCHEM_CONFORMER_DIVERSEORDER>
1
10
6
4
7
5
9
8
3
2

> <PUBCHEM_MMFF94_PARTIAL_CHARGES>
20
1 -0.65
10 -0.15
11 -0.15
12 -0.15
13 -0.15
14 0.66
15 0.04
18 0.15
19 0.15
2 -0.57
20 0.15
21 0.15
22 0.15
23 0.5
3 0.59
4 -0.42
5 -0.34
7 -0.14
8 -0.02
9 0.2

> <PUBCHEM_EFFECTIVE_ROTOR_COUNT>
3

> <PUBCHEM_PHARMACOPHORE_FEATURES>
6
1 1 acceptor
1 2 acceptor
3 1 2 14 anion
3 3 5 15 cation
5 3 4 5 6 15 rings
6 7 8 10 11 12 13 rings

> <PUBCHEM_HEAVY_ATOM_COUNT>
15

> <PUBCHEM_ATOM_DEF_STEREO_COUNT>
0

> <PUBCHEM_ATOM_UDEF_STEREO_COUNT>
0

> <PUBCHEM_BOND_DEF_STEREO_COUNT>
0

> <PUBCHEM_BOND_UDEF_STEREO_COUNT>
0

> <PUBCHEM_ISOTOPIC_ATOM_COUNT>
0

> <PUBCHEM_COMPONENT_COUNT>
1

> <PUBCHEM_CACTVS_TAUTO_COUNT>
1

> <PUBCHEM_CONFORMER_ID>
000CD7BA00000001

> <PUBCHEM_MMFF94_ENERGY>
30.2531

> <PUBCHEM_FEATURE_SELFOVERLAP>
30.504

> <PUBCHEM_SHAPE_FINGERPRINT>
10219947 1 18410857663667956893
10465860 250 17167860872463902421
11132069 177 18411973685018195390
12032990 46 18187083931753828278
12236239 1 17775282764414931703
12251169 10 18413108385260305901
124424 183 17749108907306129565
13675066 3 18187362138191945877
13760787 19 14908177555811781925
13760787 5 18409441509691974308
14252887 29 18409173181831877698
14445660 50 18201999971026332854
14943859 89 15554447392453116863
15048467 5 17489305304098703736
15209294 21 17703515406786512977
15309172 13 18341892987259850599
16945 1 18410853265452647412
17834072 33 17703501194802865069
17844478 74 18040994025036908068
18186145 218 17989481935699088900
19026448 4 16877935031880303820
19026448 5 16845285055568305996
200 152 18272360997902029815
20279233 1 17967819336402821915
20645477 70 18265601113713848510
21267235 1 18409169871008152470
22485316 2 17676485055778596891
22854114 59 18412827988631505913
23402539 116 15841544176918143005
23557571 272 16878501224687125343
23559900 14 17023176077293228314
26918003 58 17748543744801128673
2748010 2 18122903123011037996
42 15 18260829293246427918
5104073 3 18268981154745142186
69090 78 18272362096601618550

> <PUBCHEM_SHAPE_MULTIPOLES>
277.03
9.01
1.22
0.87
0.63
0
0.14
-0.11
2.39
-0.63
-0.12
0.74
0
0.01

> <PUBCHEM_SHAPE_SELFOVERLAP>
593.32

> <PUBCHEM_SHAPE_VOLUME>
153.7

> <PUBCHEM_COORDINATE_TYPE>
2
5
10

$$$$
