527426
  -OEChem-11232014293D

 22 23  0     1  0  0  0  0  0999 V2000
   -2.9559   -0.0546    0.6142 O   0  0  0  0  0  0  0  0  0  0  0  0
    0.4694    0.3431   -0.2915 C   0  0  1  0  0  0  0  0  0  0  0  0
   -0.7182    0.8064    0.5278 C   0  0  1  0  0  0  0  0  0  0  0  0
   -0.0951    1.7091   -0.4991 C   0  0  0  0  0  0  0  0  0  0  0  0
    1.8018    0.2203    0.3985 C   0  0  0  0  0  0  0  0  0  0  0  0
   -0.0323   -0.8244   -1.0088 C   0  0  0  0  0  0  0  0  0  0  0  0
   -1.8229   -0.1258    0.1735 C   0  0  0  0  0  0  0  0  0  0  0  0
   -1.3165   -1.1380   -0.7816 C   0  0  0  0  0  0  0  0  0  0  0  0
    1.7582   -0.8613    1.4768 C   0  0  0  0  0  0  0  0  0  0  0  0
    2.9114   -0.0747   -0.6099 C   0  0  0  0  0  0  0  0  0  0  0  0
   -0.5878    1.0548    1.5731 H   0  0  0  0  0  0  0  0  0  0  0  0
    0.4594    2.5685   -0.1389 H   0  0  0  0  0  0  0  0  0  0  0  0
   -0.6468    1.9135   -1.4101 H   0  0  0  0  0  0  0  0  0  0  0  0
    2.0496    1.1688    0.8934 H   0  0  0  0  0  0  0  0  0  0  0  0
    0.5805   -1.3938   -1.6959 H   0  0  0  0  0  0  0  0  0  0  0  0
   -1.8933   -1.9415   -1.2042 H   0  0  0  0  0  0  0  0  0  0  0  0
    1.5544   -1.8525    1.0575 H   0  0  0  0  0  0  0  0  0  0  0  0
    2.7191   -0.9172    2.0003 H   0  0  0  0  0  0  0  0  0  0  0  0
    0.9886   -0.6529    2.2268 H   0  0  0  0  0  0  0  0  0  0  0  0
    2.8079   -1.0654   -1.0643 H   0  0  0  0  0  0  0  0  0  0  0  0
    3.8911   -0.0402   -0.1209 H   0  0  0  0  0  0  0  0  0  0  0  0
    2.9132    0.6666   -1.4164 H   0  0  0  0  0  0  0  0  0  0  0  0
  1  7  2  0  0  0  0
  2  3  1  0  0  0  0
  2  4  1  0  0  0  0
  2  5  1  0  0  0  0
  2  6  1  0  0  0  0
  3  4  1  0  0  0  0
  3  7  1  0  0  0  0
  3 11  1  0  0  0  0
  4 12  1  0  0  0  0
  4 13  1  0  0  0  0
  5  9  1  0  0  0  0
  5 10  1  0  0  0  0
  5 14  1  0  0  0  0
  6  8  2  0  0  0  0
  6 15  1  0  0  0  0
  7  8  1  0  0  0  0
  8 16  1  0  0  0  0
  9 17  1  0  0  0  0
  9 18  1  0  0  0  0
  9 19  1  0  0  0  0
 10 20  1  0  0  0  0
 10 21  1  0  0  0  0
 10 22  1  0  0  0  0
M  END
> <PUBCHEM_COMPOUND_CID>
527426

> <PUBCHEM_CONFORMER_RMSD>
0.4

> <PUBCHEM_CONFORMER_DIVERSEORDER>
1
3
6
5
4
2

> <PUBCHEM_MMFF94_PARTIAL_CHARGES>
13
1 -0.57
11 0.1
12 0.1
13 0.1
15 0.15
16 0.15
2 -0.05
3 -0.1
4 -0.2
5 0.09
6 -0.19
7 0.56
8 -0.14

> <PUBCHEM_EFFECTIVE_ROTOR_COUNT>
1.2

> <PUBCHEM_PHARMACOPHORE_FEATURES>
3
1 1 acceptor
3 5 9 10 hydrophobe
6 2 3 4 6 7 8 rings

> <PUBCHEM_HEAVY_ATOM_COUNT>
10

> <PUBCHEM_ATOM_DEF_STEREO_COUNT>
0

> <PUBCHEM_ATOM_UDEF_STEREO_COUNT>
2

> <PUBCHEM_BOND_DEF_STEREO_COUNT>
0

> <PUBCHEM_BOND_UDEF_STEREO_COUNT>
0

> <PUBCHEM_ISOTOPIC_ATOM_COUNT>
0

> <PUBCHEM_COMPONENT_COUNT>
1

> <PUBCHEM_CACTVS_TAUTO_COUNT>
2

> <PUBCHEM_CONFORMER_ID>
00080C4200000001

> <PUBCHEM_MMFF94_ENERGY>
26.188

> <PUBCHEM_FEATURE_SELFOVERLAP>
15.223

> <PUBCHEM_SHAPE_FINGERPRINT>
10219947 1 18271536342126138193
10857977 72 18131346436125583171
12423570 1 8930843154412086725
12897270 3 14056713543685780098
13024252 1 16877944914695049148
137420 1 13944290704475576292
14993402 34 18342460369608751181
15310529 11 17385435514353797406
16945 1 18201995512728888765
18185500 45 18264475346976962566
20645464 45 16916485018068599450
20653091 64 17977374259450727495
21040471 1 17703520960120996311
21922407 69 17459193980176752112
23235685 24 17917715681892764421
23552423 10 18194678400311392940
29004967 10 17240757406421024112
369184 2 18114729478287700088
5084963 1 16271929302558398049
68250623 7 17761234484076204662

> <PUBCHEM_SHAPE_MULTIPOLES>
199.93
3.37
1.27
1.15
0.32
0.29
0.17
-0.51
0.46
-0.15
-0.18
0.31
-0.26
-0.33

> <PUBCHEM_SHAPE_SELFOVERLAP>
421.54

> <PUBCHEM_SHAPE_VOLUME>
115.4

> <PUBCHEM_COORDINATE_TYPE>
2
5
10

$$$$
