543423
  -OEChem-11232013503D

 48 49  0     1  0  0  0  0  0999 V2000
    9.3762   -0.4259    0.3947 O   0  0  0  0  0  0  0  0  0  0  0  0
   -9.3833    0.4258    0.2702 O   0  0  0  0  0  0  0  0  0  0  0  0
    8.2530    0.1603   -0.2754 C   0  0  1  0  0  0  0  0  0  0  0  0
   -8.2344   -0.2081   -0.3065 C   0  0  1  0  0  0  0  0  0  0  0  0
    6.9874   -0.6373   -0.1866 C   0  0  0  0  0  0  0  0  0  0  0  0
   -6.9703    0.5900   -0.2153 C   0  0  0  0  0  0  0  0  0  0  0  0
    5.7501    0.2612   -0.2234 C   0  0  0  0  0  0  0  0  0  0  0  0
   -5.7358   -0.3096   -0.1341 C   0  0  0  0  0  0  0  0  0  0  0  0
    8.8595    0.7935    0.9431 C   0  0  0  0  0  0  0  0  0  0  0  0
   -8.8990   -0.7545    0.9235 C   0  0  0  0  0  0  0  0  0  0  0  0
    4.4305   -0.5149   -0.2142 C   0  0  0  0  0  0  0  0  0  0  0  0
   -4.4490    0.5165   -0.0866 C   0  0  0  0  0  0  0  0  0  0  0  0
    3.1940    0.3880   -0.2254 C   0  0  0  0  0  0  0  0  0  0  0  0
   -3.1774   -0.3367   -0.0770 C   0  0  0  0  0  0  0  0  0  0  0  0
    1.9064   -0.4394   -0.1846 C   0  0  0  0  0  0  0  0  0  0  0  0
   -1.8897    0.4900   -0.1041 C   0  0  0  0  0  0  0  0  0  0  0  0
    0.6343    0.4134   -0.1822 C   0  0  0  0  0  0  0  0  0  0  0  0
   -0.6525   -0.4124   -0.1163 C   0  0  0  0  0  0  0  0  0  0  0  0
    8.4171    0.6185   -1.2409 H   0  0  0  0  0  0  0  0  0  0  0  0
   -8.3572   -0.7311   -1.2447 H   0  0  0  0  0  0  0  0  0  0  0  0
    6.9588   -1.3402   -1.0274 H   0  0  0  0  0  0  0  0  0  0  0  0
    6.9737   -1.2383    0.7310 H   0  0  0  0  0  0  0  0  0  0  0  0
   -6.9977    1.2519    0.6595 H   0  0  0  0  0  0  0  0  0  0  0  0
   -6.9027    1.2352   -1.0991 H   0  0  0  0  0  0  0  0  0  0  0  0
    5.7746    0.9443    0.6351 H   0  0  0  0  0  0  0  0  0  0  0  0
    5.7876    0.8929   -1.1201 H   0  0  0  0  0  0  0  0  0  0  0  0
   -5.7978   -0.9491    0.7547 H   0  0  0  0  0  0  0  0  0  0  0  0
   -5.7129   -0.9787   -1.0032 H   0  0  0  0  0  0  0  0  0  0  0  0
    8.3268    0.7336    1.8832 H   0  0  0  0  0  0  0  0  0  0  0  0
    9.4506    1.6903    0.8108 H   0  0  0  0  0  0  0  0  0  0  0  0
   -8.4090   -0.6319    1.8805 H   0  0  0  0  0  0  0  0  0  0  0  0
   -9.4888   -1.6566    0.8261 H   0  0  0  0  0  0  0  0  0  0  0  0
    4.4004   -1.1814   -1.0850 H   0  0  0  0  0  0  0  0  0  0  0  0
    4.4014   -1.1556    0.6760 H   0  0  0  0  0  0  0  0  0  0  0  0
   -4.4597    1.1564    0.8044 H   0  0  0  0  0  0  0  0  0  0  0  0
   -4.4196    1.1853   -0.9559 H   0  0  0  0  0  0  0  0  0  0  0  0
    3.2238    1.0628    0.6384 H   0  0  0  0  0  0  0  0  0  0  0  0
    3.2026    1.0132   -1.1261 H   0  0  0  0  0  0  0  0  0  0  0  0
   -3.1915   -1.0066   -0.9457 H   0  0  0  0  0  0  0  0  0  0  0  0
   -3.1817   -0.9754    0.8150 H   0  0  0  0  0  0  0  0  0  0  0  0
    1.9125   -1.0722    0.7116 H   0  0  0  0  0  0  0  0  0  0  0  0
    1.8822   -1.1149   -1.0488 H   0  0  0  0  0  0  0  0  0  0  0  0
   -1.8586    1.1497    0.7714 H   0  0  0  0  0  0  0  0  0  0  0  0
   -1.8869    1.1313   -0.9936 H   0  0  0  0  0  0  0  0  0  0  0  0
    0.6665    1.0991    0.6737 H   0  0  0  0  0  0  0  0  0  0  0  0
    0.6200    1.0358   -1.0856 H   0  0  0  0  0  0  0  0  0  0  0  0
   -0.6955   -1.0884   -0.9787 H   0  0  0  0  0  0  0  0  0  0  0  0
   -0.6426   -1.0368    0.7850 H   0  0  0  0  0  0  0  0  0  0  0  0
  1  3  1  0  0  0  0
  1  9  1  0  0  0  0
  2  4  1  0  0  0  0
  2 10  1  0  0  0  0
  3  5  1  0  0  0  0
  3  9  1  0  0  0  0
  3 19  1  0  0  0  0
  4  6  1  0  0  0  0
  4 10  1  0  0  0  0
  4 20  1  0  0  0  0
  5  7  1  0  0  0  0
  5 21  1  0  0  0  0
  5 22  1  0  0  0  0
  6  8  1  0  0  0  0
  6 23  1  0  0  0  0
  6 24  1  0  0  0  0
  7 11  1  0  0  0  0
  7 25  1  0  0  0  0
  7 26  1  0  0  0  0
  8 12  1  0  0  0  0
  8 27  1  0  0  0  0
  8 28  1  0  0  0  0
  9 29  1  0  0  0  0
  9 30  1  0  0  0  0
 10 31  1  0  0  0  0
 10 32  1  0  0  0  0
 11 13  1  0  0  0  0
 11 33  1  0  0  0  0
 11 34  1  0  0  0  0
 12 14  1  0  0  0  0
 12 35  1  0  0  0  0
 12 36  1  0  0  0  0
 13 15  1  0  0  0  0
 13 37  1  0  0  0  0
 13 38  1  0  0  0  0
 14 16  1  0  0  0  0
 14 39  1  0  0  0  0
 14 40  1  0  0  0  0
 15 17  1  0  0  0  0
 15 41  1  0  0  0  0
 15 42  1  0  0  0  0
 16 18  1  0  0  0  0
 16 43  1  0  0  0  0
 16 44  1  0  0  0  0
 17 18  1  0  0  0  0
 17 45  1  0  0  0  0
 17 46  1  0  0  0  0
 18 47  1  0  0  0  0
 18 48  1  0  0  0  0
M  END
> <PUBCHEM_COMPOUND_CID>
543423

> <PUBCHEM_CONFORMER_RMSD>
1.4

> <PUBCHEM_CONFORMER_DIVERSEORDER>
1
6
23
5
19
18
24
2
33
29
22
4
28
26
3
34
15
25
37
36
7
16
21
10
9
8
30
32
20
27
11
13
31
12
14
17
35

> <PUBCHEM_MMFF94_PARTIAL_CHARGES>
14
1 -0.3
10 -0.05
19 0.1
2 -0.3
20 0.1
29 0.1
3 -0.05
30 0.1
31 0.1
32 0.1
4 -0.05
5 0.09
6 0.09
9 -0.05

> <PUBCHEM_EFFECTIVE_ROTOR_COUNT>
14.2

> <PUBCHEM_PHARMACOPHORE_FEATURES>
2
1 1 acceptor
1 2 acceptor

> <PUBCHEM_HEAVY_ATOM_COUNT>
18

> <PUBCHEM_ATOM_DEF_STEREO_COUNT>
0

> <PUBCHEM_ATOM_UDEF_STEREO_COUNT>
2

> <PUBCHEM_BOND_DEF_STEREO_COUNT>
0

> <PUBCHEM_BOND_UDEF_STEREO_COUNT>
0

> <PUBCHEM_ISOTOPIC_ATOM_COUNT>
0

> <PUBCHEM_COMPONENT_COUNT>
1

> <PUBCHEM_CACTVS_TAUTO_COUNT>
1

> <PUBCHEM_CONFORMER_ID>
00084ABF00000001

> <PUBCHEM_MMFF94_ENERGY>
7.8358

> <PUBCHEM_FEATURE_SELFOVERLAP>
10.149

> <PUBCHEM_SHAPE_FINGERPRINT>
11315181 36 16845855711189201083
11638347 137 17822007589258972954
14123256 10 18410856555350103567
14202775 3 16950286191297070514
14251764 18 18410856542459920384
14251764 46 16774079574536391638
14428016 248 15698284429677517224
15510794 2 18335144180836668010
155225 1 16773792633348377408
16120349 18 18201715193916578088
18335252 98 18411419484129485830
20621476 8 8862942771115914507
21095086 128 14490189418614342857
21362267 2 17131533008451743320
21362267 20 16805608100829023259
21362267 313 18268709411863487698
22224240 67 18412824690519031646
232437 2 16877661262296565626
23521765 1 18341895190377327511
23581129 1 18409449184756236327
246663 6 18040437689723265581
33684 2 18410573980856483854
59682541 35 18412544322878609034
67123 10 18411136943694807092
8209 1 18273496771189618885

> <PUBCHEM_SHAPE_MULTIPOLES>
358.69
37.93
0.84
0.75
0.22
0
-0.08
-0.15
-6.6
-0.05
-0.04
-0.06
0
0.65

> <PUBCHEM_SHAPE_SELFOVERLAP>
670.285

> <PUBCHEM_SHAPE_VOLUME>
224.9

> <PUBCHEM_COORDINATE_TYPE>
2
5
10

$$$$
