296573
  -OEChem-11232013573D

 73 74  0     1  0  0  0  0  0999 V2000
    6.7321    0.2395    0.8403 C   0  0  2  0  0  0  0  0  0  0  0  0
    8.0273   -0.3589    0.2380 C   0  0  1  0  0  0  0  0  0  0  0  0
    5.4621   -0.3012    0.1266 C   0  0  1  0  0  0  0  0  0  0  0  0
    6.8367    1.7763    0.8555 C   0  0  0  0  0  0  0  0  0  0  0  0
    7.9713   -1.8919    0.2010 C   0  0  0  0  0  0  0  0  0  0  0  0
    5.4534   -1.8398    0.1341 C   0  0  0  0  0  0  0  0  0  0  0  0
    8.3450    0.2322   -1.1480 C   0  0  0  0  0  0  0  0  0  0  0  0
    6.7178   -2.4275   -0.4805 C   0  0  0  0  0  0  0  0  0  0  0  0
    7.1445    2.3660   -0.5177 C   0  0  0  0  0  0  0  0  0  0  0  0
    8.4092    1.7570   -1.1127 C   0  0  0  0  0  0  0  0  0  0  0  0
    4.1664    0.2087    0.7660 C   0  0  0  0  0  0  0  0  0  0  0  0
    2.9386   -0.2488   -0.0225 C   0  0  0  0  0  0  0  0  0  0  0  0
    1.6152    0.2455    0.5686 C   0  0  0  0  0  0  0  0  0  0  0  0
    0.3828   -0.2727   -0.1776 C   0  0  0  0  0  0  0  0  0  0  0  0
   -0.9065    0.2777    0.4384 C   0  0  0  0  0  0  0  0  0  0  0  0
   -2.1743   -0.1995   -0.2777 C   0  0  0  0  0  0  0  0  0  0  0  0
   -3.4609    0.3726    0.3237 C   0  0  0  0  0  0  0  0  0  0  0  0
   -4.7312   -0.1513   -0.3547 C   0  0  0  0  0  0  0  0  0  0  0  0
   -6.0200    0.3633    0.2922 C   0  0  0  0  0  0  0  0  0  0  0  0
   -7.2550   -0.2454   -0.3768 C   0  0  0  0  0  0  0  0  0  0  0  0
   -8.5775    0.2586    0.2096 C   0  0  0  0  0  0  0  0  0  0  0  0
   -9.8501   -0.2980   -0.4380 C   0  0  0  0  0  0  0  0  0  0  0  0
  -11.1360    0.1942    0.2308 C   0  0  0  0  0  0  0  0  0  0  0  0
  -12.4055   -0.3006   -0.4670 C   0  0  0  0  0  0  0  0  0  0  0  0
  -13.6855    0.2441    0.1485 C   0  0  0  0  0  0  0  0  0  0  0  0
    6.6762   -0.0855    1.8895 H   0  0  0  0  0  0  0  0  0  0  0  0
    8.8613   -0.0858    0.9004 H   0  0  0  0  0  0  0  0  0  0  0  0
    5.4746    0.0289   -0.9198 H   0  0  0  0  0  0  0  0  0  0  0  0
    7.6494    2.0576    1.5395 H   0  0  0  0  0  0  0  0  0  0  0  0
    5.9389    2.2429    1.2697 H   0  0  0  0  0  0  0  0  0  0  0  0
    8.8614   -2.2924   -0.2983 H   0  0  0  0  0  0  0  0  0  0  0  0
    7.9981   -2.2691    1.2317 H   0  0  0  0  0  0  0  0  0  0  0  0
    4.6185   -2.2426   -0.4455 H   0  0  0  0  0  0  0  0  0  0  0  0
    5.3425   -2.2102    1.1612 H   0  0  0  0  0  0  0  0  0  0  0  0
    9.3071   -0.1566   -1.5030 H   0  0  0  0  0  0  0  0  0  0  0  0
    7.5955   -0.0737   -1.8861 H   0  0  0  0  0  0  0  0  0  0  0  0
    6.7467   -2.2035   -1.5531 H   0  0  0  0  0  0  0  0  0  0  0  0
    6.6940   -3.5199   -0.3910 H   0  0  0  0  0  0  0  0  0  0  0  0
    7.2714    3.4511   -0.4289 H   0  0  0  0  0  0  0  0  0  0  0  0
    6.2988    2.2032   -1.1955 H   0  0  0  0  0  0  0  0  0  0  0  0
    8.5635    2.1435   -2.1264 H   0  0  0  0  0  0  0  0  0  0  0  0
    9.2771    2.0692   -0.5187 H   0  0  0  0  0  0  0  0  0  0  0  0
    4.1490    1.3022    0.7877 H   0  0  0  0  0  0  0  0  0  0  0  0
    4.0929   -0.1342    1.8054 H   0  0  0  0  0  0  0  0  0  0  0  0
    2.8738   -1.3401   -0.0436 H   0  0  0  0  0  0  0  0  0  0  0  0
    3.0183    0.0913   -1.0623 H   0  0  0  0  0  0  0  0  0  0  0  0
    1.6103    1.3426    0.5609 H   0  0  0  0  0  0  0  0  0  0  0  0
    1.5542   -0.0636    1.6196 H   0  0  0  0  0  0  0  0  0  0  0  0
    0.4410    0.0225   -1.2321 H   0  0  0  0  0  0  0  0  0  0  0  0
    0.3665   -1.3686   -0.1477 H   0  0  0  0  0  0  0  0  0  0  0  0
   -0.9588   -0.0177    1.4937 H   0  0  0  0  0  0  0  0  0  0  0  0
   -0.8771    1.3743    0.4175 H   0  0  0  0  0  0  0  0  0  0  0  0
   -2.2138   -1.2951   -0.2404 H   0  0  0  0  0  0  0  0  0  0  0  0
   -2.1184    0.0798   -1.3370 H   0  0  0  0  0  0  0  0  0  0  0  0
   -3.4392    1.4670    0.2544 H   0  0  0  0  0  0  0  0  0  0  0  0
   -3.4972    0.1232    1.3914 H   0  0  0  0  0  0  0  0  0  0  0  0
   -4.7164    0.1322   -1.4143 H   0  0  0  0  0  0  0  0  0  0  0  0
   -4.7254   -1.2479   -0.3199 H   0  0  0  0  0  0  0  0  0  0  0  0
   -6.0230    0.1130    1.3598 H   0  0  0  0  0  0  0  0  0  0  0  0
   -6.0572    1.4564    0.2151 H   0  0  0  0  0  0  0  0  0  0  0  0
   -7.2182   -1.3379   -0.2846 H   0  0  0  0  0  0  0  0  0  0  0  0
   -7.2348   -0.0177   -1.4497 H   0  0  0  0  0  0  0  0  0  0  0  0
   -8.5995    1.3536    0.1378 H   0  0  0  0  0  0  0  0  0  0  0  0
   -8.5958    0.0195    1.2806 H   0  0  0  0  0  0  0  0  0  0  0  0
   -9.8228   -1.3939   -0.4012 H   0  0  0  0  0  0  0  0  0  0  0  0
   -9.8599   -0.0168   -1.4982 H   0  0  0  0  0  0  0  0  0  0  0  0
  -11.1374    1.2914    0.2382 H   0  0  0  0  0  0  0  0  0  0  0  0
  -11.1480   -0.1296    1.2786 H   0  0  0  0  0  0  0  0  0  0  0  0
  -12.4328   -1.3963   -0.4363 H   0  0  0  0  0  0  0  0  0  0  0  0
  -12.3750   -0.0128   -1.5247 H   0  0  0  0  0  0  0  0  0  0  0  0
  -14.5589   -0.1420   -0.3860 H   0  0  0  0  0  0  0  0  0  0  0  0
  -13.7092    1.3372    0.0966 H   0  0  0  0  0  0  0  0  0  0  0  0
  -13.7694   -0.0520    1.1989 H   0  0  0  0  0  0  0  0  0  0  0  0
  1  2  1  0  0  0  0
  1  3  1  0  0  0  0
  1  4  1  0  0  0  0
  1 26  1  0  0  0  0
  2  5  1  0  0  0  0
  2  7  1  0  0  0  0
  2 27  1  0  0  0  0
  3  6  1  0  0  0  0
  3 11  1  0  0  0  0
  3 28  1  0  0  0  0
  4  9  1  0  0  0  0
  4 29  1  0  0  0  0
  4 30  1  0  0  0  0
  5  8  1  0  0  0  0
  5 31  1  0  0  0  0
  5 32  1  0  0  0  0
  6  8  1  0  0  0  0
  6 33  1  0  0  0  0
  6 34  1  0  0  0  0
  7 10  1  0  0  0  0
  7 35  1  0  0  0  0
  7 36  1  0  0  0  0
  8 37  1  0  0  0  0
  8 38  1  0  0  0  0
  9 10  1  0  0  0  0
  9 39  1  0  0  0  0
  9 40  1  0  0  0  0
 10 41  1  0  0  0  0
 10 42  1  0  0  0  0
 11 12  1  0  0  0  0
 11 43  1  0  0  0  0
 11 44  1  0  0  0  0
 12 13  1  0  0  0  0
 12 45  1  0  0  0  0
 12 46  1  0  0  0  0
 13 14  1  0  0  0  0
 13 47  1  0  0  0  0
 13 48  1  0  0  0  0
 14 15  1  0  0  0  0
 14 49  1  0  0  0  0
 14 50  1  0  0  0  0
 15 16  1  0  0  0  0
 15 51  1  0  0  0  0
 15 52  1  0  0  0  0
 16 17  1  0  0  0  0
 16 53  1  0  0  0  0
 16 54  1  0  0  0  0
 17 18  1  0  0  0  0
 17 55  1  0  0  0  0
 17 56  1  0  0  0  0
 18 19  1  0  0  0  0
 18 57  1  0  0  0  0
 18 58  1  0  0  0  0
 19 20  1  0  0  0  0
 19 59  1  0  0  0  0
 19 60  1  0  0  0  0
 20 21  1  0  0  0  0
 20 61  1  0  0  0  0
 20 62  1  0  0  0  0
 21 22  1  0  0  0  0
 21 63  1  0  0  0  0
 21 64  1  0  0  0  0
 22 23  1  0  0  0  0
 22 65  1  0  0  0  0
 22 66  1  0  0  0  0
 23 24  1  0  0  0  0
 23 67  1  0  0  0  0
 23 68  1  0  0  0  0
 24 25  1  0  0  0  0
 24 69  1  0  0  0  0
 24 70  1  0  0  0  0
 25 71  1  0  0  0  0
 25 72  1  0  0  0  0
 25 73  1  0  0  0  0
M  END
> <PUBCHEM_COMPOUND_CID>
296573

> <PUBCHEM_CONFORMER_RMSD>
1.6

> <PUBCHEM_CONFORMER_DIVERSEORDER>
1
31
63
101
17
98
26
73
32
77
24
49
4
128
106
14
38
107
51
25
21
122
133
35
40
68
116
134
71
18
114
7
52
27
103
60
39
42
20
57
104
58
109
41
136
79
44
19
132
75
119
12
99
86
36
50
76
96
70
124
90
69
115
127
135
28
72
33
67
83
23
64
130
121
2
80
62
43
110
97
55
93
48
8
54
94
15
95
118
11
117
112
111
16
30
82
92
47
45
78
126
5
91
85
65
120
84
59
100
53
10
105
88
46
6
56
113
125
9
22
3
37
29
81
87
74
102
131
89
13
66
34
61
129
123
108

> <PUBCHEM_MMFF94_PARTIAL_CHARGES>
0

> <PUBCHEM_EFFECTIVE_ROTOR_COUNT>
15.6

> <PUBCHEM_PHARMACOPHORE_FEATURES>
3
1 25 hydrophobe
6 1 2 3 5 6 8 rings
6 1 2 4 7 9 10 rings

> <PUBCHEM_HEAVY_ATOM_COUNT>
25

> <PUBCHEM_ATOM_DEF_STEREO_COUNT>
0

> <PUBCHEM_ATOM_UDEF_STEREO_COUNT>
3

> <PUBCHEM_BOND_DEF_STEREO_COUNT>
0

> <PUBCHEM_BOND_UDEF_STEREO_COUNT>
0

> <PUBCHEM_ISOTOPIC_ATOM_COUNT>
0

> <PUBCHEM_COMPONENT_COUNT>
1

> <PUBCHEM_CACTVS_TAUTO_COUNT>
1

> <PUBCHEM_CONFORMER_ID>
0004867D00000001

> <PUBCHEM_MMFF94_ENERGY>
15.5592

> <PUBCHEM_FEATURE_SELFOVERLAP>
15.277

> <PUBCHEM_SHAPE_FINGERPRINT>
10299344 5 18059855064927533766
12089408 11 18273214188802390441
12522641 33 18343022186182254695
12559415 86 18130796608294633925
12559415 90 8862949364751128551
12664476 115 12396298167473049583
14251764 18 17917714591013204608
14251764 46 17632577150630928387
14251920 1 17988924465828453722
14344974 52 16950286239559165081
15061470 23 18412542103546860817
15510794 2 18334860528759742995
16120349 18 18409448103078891316
16728433 110 18040716983627184669
21360442 33 17896877665638611762
21360442 67 18260268547540664666
21362267 2 18114730642462455893
21362267 313 11819535014505379797
21792934 111 12468357972764851510
232437 2 18131067135452103767
23581129 1 18409446981728202891
33684 2 9655577414304571129
59520647 119 18409730702958193331
59521506 201 17697313277493964944
67123 10 18409729565365521579
9663363 56 16877661266401622356

> <PUBCHEM_SHAPE_MULTIPOLES>
514.49
53
1.66
0.89
171.17
0.12
-0.06
-2.19
-5.4
-6.85
-0.21
-1.19
-0.16
-0.76

> <PUBCHEM_SHAPE_SELFOVERLAP>
982.247

> <PUBCHEM_SHAPE_VOLUME>
312.9

> <PUBCHEM_COORDINATE_TYPE>
2
5
10

$$$$
