1549109
  -OEChem-11232013473D

 42 41  0     0  0  0  0  0  0999 V2000
   -0.7339    1.7290   -2.4535 O   0  0  0  0  0  0  0  0  0  0  0  0
    0.4741   -2.0492    0.0663 C   0  0  0  0  0  0  0  0  0  0  0  0
   -2.0699   -1.0689    1.6707 C   0  0  0  0  0  0  0  0  0  0  0  0
   -0.9641   -2.1103   -0.4044 C   0  0  0  0  0  0  0  0  0  0  0  0
   -2.7079    0.3239    1.6170 C   0  0  0  0  0  0  0  0  0  0  0  0
    1.2292   -0.7896   -0.3808 C   0  0  0  0  0  0  0  0  0  0  0  0
   -2.0334   -1.7051    0.3086 C   0  0  0  0  0  0  0  0  0  0  0  0
   -1.8986    1.2866    0.7757 C   0  0  0  0  0  0  0  0  0  0  0  0
   -1.1678   -2.7294   -1.7651 C   0  0  0  0  0  0  0  0  0  0  0  0
    2.6887   -0.8268   -0.0221 C   0  0  0  0  0  0  0  0  0  0  0  0
    3.5096    0.2077    0.2408 C   0  0  0  0  0  0  0  0  0  0  0  0
   -0.8144    2.0272    1.5142 C   0  0  0  0  0  0  0  0  0  0  0  0
   -2.1076    1.5171   -0.5347 C   0  0  0  0  0  0  0  0  0  0  0  0
   -1.3634    2.4690   -1.4148 C   0  0  0  0  0  0  0  0  0  0  0  0
    4.9652    0.0971    0.5942 C   0  0  0  0  0  0  0  0  0  0  0  0
    2.9942    1.6217    0.1881 C   0  0  0  0  0  0  0  0  0  0  0  0
    0.5206   -2.1287    1.1592 H   0  0  0  0  0  0  0  0  0  0  0  0
    0.9960   -2.9448   -0.2981 H   0  0  0  0  0  0  0  0  0  0  0  0
   -2.6682   -1.7082    2.3308 H   0  0  0  0  0  0  0  0  0  0  0  0
   -1.0743   -1.0036    2.1198 H   0  0  0  0  0  0  0  0  0  0  0  0
   -3.7269    0.2488    1.2145 H   0  0  0  0  0  0  0  0  0  0  0  0
   -2.8173    0.7218    2.6333 H   0  0  0  0  0  0  0  0  0  0  0  0
    1.1546   -0.6964   -1.4707 H   0  0  0  0  0  0  0  0  0  0  0  0
    0.7414    0.0803    0.0634 H   0  0  0  0  0  0  0  0  0  0  0  0
   -3.0187   -1.8393   -0.1381 H   0  0  0  0  0  0  0  0  0  0  0  0
   -2.2220   -2.7571   -2.0600 H   0  0  0  0  0  0  0  0  0  0  0  0
   -0.7944   -3.7586   -1.7734 H   0  0  0  0  0  0  0  0  0  0  0  0
   -0.6281   -2.1568   -2.5263 H   0  0  0  0  0  0  0  0  0  0  0  0
    3.1331   -1.8214    0.0006 H   0  0  0  0  0  0  0  0  0  0  0  0
   -0.0270    2.4370    0.8812 H   0  0  0  0  0  0  0  0  0  0  0  0
   -0.3075    1.3515    2.2125 H   0  0  0  0  0  0  0  0  0  0  0  0
   -1.2518    2.8437    2.0980 H   0  0  0  0  0  0  0  0  0  0  0  0
   -2.9099    0.9681   -1.0254 H   0  0  0  0  0  0  0  0  0  0  0  0
   -0.6138    3.0898   -0.9240 H   0  0  0  0  0  0  0  0  0  0  0  0
   -2.0811    3.1500   -1.8840 H   0  0  0  0  0  0  0  0  0  0  0  0
    5.1553    0.5492    1.5729 H   0  0  0  0  0  0  0  0  0  0  0  0
    5.2897   -0.9477    0.6401 H   0  0  0  0  0  0  0  0  0  0  0  0
    5.5814    0.6062   -0.1537 H   0  0  0  0  0  0  0  0  0  0  0  0
    3.7167    2.2658   -0.3261 H   0  0  0  0  0  0  0  0  0  0  0  0
    2.8542    2.0096    1.2022 H   0  0  0  0  0  0  0  0  0  0  0  0
    2.0541    1.7287   -0.3585 H   0  0  0  0  0  0  0  0  0  0  0  0
   -0.0112    1.2186   -2.0509 H   0  0  0  0  0  0  0  0  0  0  0  0
  1 14  1  0  0  0  0
  1 42  1  0  0  0  0
  2  4  1  0  0  0  0
  2  6  1  0  0  0  0
  2 17  1  0  0  0  0
  2 18  1  0  0  0  0
  3  5  1  0  0  0  0
  3  7  1  0  0  0  0
  3 19  1  0  0  0  0
  3 20  1  0  0  0  0
  4  7  2  0  0  0  0
  4  9  1  0  0  0  0
  5  8  1  0  0  0  0
  5 21  1  0  0  0  0
  5 22  1  0  0  0  0
  6 10  1  0  0  0  0
  6 23  1  0  0  0  0
  6 24  1  0  0  0  0
  7 25  1  0  0  0  0
  8 12  1  0  0  0  0
  8 13  2  0  0  0  0
  9 26  1  0  0  0  0
  9 27  1  0  0  0  0
  9 28  1  0  0  0  0
 10 11  2  0  0  0  0
 10 29  1  0  0  0  0
 11 15  1  0  0  0  0
 11 16  1  0  0  0  0
 12 30  1  0  0  0  0
 12 31  1  0  0  0  0
 12 32  1  0  0  0  0
 13 14  1  0  0  0  0
 13 33  1  0  0  0  0
 14 34  1  0  0  0  0
 14 35  1  0  0  0  0
 15 36  1  0  0  0  0
 15 37  1  0  0  0  0
 15 38  1  0  0  0  0
 16 39  1  0  0  0  0
 16 40  1  0  0  0  0
 16 41  1  0  0  0  0
M  END
> <PUBCHEM_COMPOUND_CID>
1549109

> <PUBCHEM_CONFORMER_RMSD>
0.8

> <PUBCHEM_CONFORMER_DIVERSEORDER>
13
259
396
177
171
139
112
203
159
77
317
377
293
184
39
386
355
232
148
274
225
216
237
278
165
6
372
249
330
347
319
370
151
275
91
391
210
24
104
345
69
209
402
389
191
279
394
109
349
314
80
303
183
368
102
29
333
250
107
341
263
195
136
99
211
334
11
332
215
27
180
408
34
268
111
231
125
224
87
273
264
103
54
374
383
246
173
61
220
23
316
19
222
254
48
286
194
96
193
256
146
241
387
36
133
166
51
38
261
400
44
258
218
356
113
410
289
285
291
143
162
230
134
45
37
200
297
40
284
170
132
228
129
346
267
74
156
205
83
414
161
219
353
84
53
321
196
306
280
255
362
323
262
127
17
121
239
8
407
43
172
181
185
361
18
71
89
81
311
154
15
192
97
270
67
94
175
329
331
343
142
281
120
242
28
339
31
3
126
406
135
376
390
233
367
59
247
248
298
163
90
4
405
411
234
65
344
201
309
245
337
79
55
155
315
351
68
305
62
199
169
380
14
404
283
176
50
318
16
269
35
22
158
147
385
86
25
340
98
401
342
348
119
5
221
178
388
153
358
108
75
140
188
381
253
9
257
338
375
287
301
32
72
378
217
266
93
325
20
179
364
398
10
252
299
63
85
352
114
78
359
226
189
21
302
105
117
265
30
384
371
382
357
95
412
64
326
363
168
138
379
46
56
260
141
130
49
373
360
208
327
152
213
41
290
238
174
272
137
296
1
328
2
206
92
236
12
369
322
88
82
167
202
197
149
207
198
182
251
164
33
47
292
187
190
240
392
26
335
212
115
204
399
409
73
397
66
145
76
52
415
350
42
223
122
118
307
60
123
214
288
124
365
313
312
294
227
354
336
395
300
110
144
304
308
131
413
320
100
277
295
58
403
276
7
186
229
150
106
160
101
70
282
243
235
310
244
324
57
157
271
366
128
393
116

> <PUBCHEM_MMFF94_PARTIAL_CHARGES>
20
1 -0.68
10 -0.29
11 -0.28
12 0.14
13 -0.29
14 0.42
15 0.14
16 0.14
2 0.14
25 0.15
29 0.15
3 0.14
33 0.15
4 -0.28
42 0.4
5 0.14
6 0.14
7 -0.29
8 -0.28
9 0.14

> <PUBCHEM_EFFECTIVE_ROTOR_COUNT>
7

> <PUBCHEM_PHARMACOPHORE_FEATURES>
7
1 1 acceptor
1 1 donor
1 12 hydrophobe
1 9 hydrophobe
3 11 15 16 hydrophobe
4 2 4 6 10 hydrophobe
4 3 5 7 8 hydrophobe

> <PUBCHEM_HEAVY_ATOM_COUNT>
16

> <PUBCHEM_ATOM_DEF_STEREO_COUNT>
0

> <PUBCHEM_ATOM_UDEF_STEREO_COUNT>
0

> <PUBCHEM_BOND_DEF_STEREO_COUNT>
2

> <PUBCHEM_BOND_UDEF_STEREO_COUNT>
0

> <PUBCHEM_ISOTOPIC_ATOM_COUNT>
0

> <PUBCHEM_COMPONENT_COUNT>
1

> <PUBCHEM_CACTVS_TAUTO_COUNT>
1

> <PUBCHEM_CONFORMER_ID>
0017A3350000000D

> <PUBCHEM_MMFF94_ENERGY>
15.5863

> <PUBCHEM_FEATURE_SELFOVERLAP>
35.532

> <PUBCHEM_SHAPE_FINGERPRINT>
11045515 52 17977085083640457823
12077114 3 18187358775665030712
12403814 3 18261115200724574249
14142880 1 18411418380386369633
14251751 93 18187358788840128832
14614273 12 18410853256878900495
14817 1 11753662486753187269
17492 54 18192964116229711719
18219364 16 18339080367875611600
18981168 100 18058709408445293792
21296965 12 18337392621690106287
21524375 3 18266459806409227843
220403 375 17826791439217080259
2306618 200 18338220652793295038
23402539 116 17774153651398629759
23419403 2 17482799631484006917
23590187 152 18188771639221655492
238 59 17542202585357480229
81228 2 18267866262449361174

> <PUBCHEM_SHAPE_MULTIPOLES>
323.4
5.95
3.19
1.8
9.62
0.5
0.63
-1.1
-1.98
-1.93
1.24
-1.52
-0.6
0.19

> <PUBCHEM_SHAPE_SELFOVERLAP>
606.314

> <PUBCHEM_SHAPE_VOLUME>
202.6

> <PUBCHEM_COORDINATE_TYPE>
2
5
10

$$$$
