572962
  -OEChem-11232013493D

 31 32  0     1  0  0  0  0  0999 V2000
   -3.2498    1.0755    0.5917 N   0  0  0  0  0  0  0  0  0  0  0  0
    0.4672   -0.9147   -0.1284 C   0  0  1  0  0  0  0  0  0  0  0  0
    0.2013    0.4301   -0.8774 C   0  0  2  0  0  0  0  0  0  0  0  0
    1.2551   -0.6800    1.1847 C   0  0  0  0  0  0  0  0  0  0  0  0
    1.4641    1.3022   -0.9965 C   0  0  0  0  0  0  0  0  0  0  0  0
   -0.9519    1.2137   -0.2182 C   0  0  0  0  0  0  0  0  0  0  0  0
    2.5058    0.1773    1.0048 C   0  0  0  0  0  0  0  0  0  0  0  0
    2.1874    1.5046    0.3303 C   0  0  0  0  0  0  0  0  0  0  0  0
   -0.8359   -1.6093    0.2344 C   0  0  0  0  0  0  0  0  0  0  0  0
   -2.2556    0.3992   -0.2433 C   0  0  1  0  0  0  0  0  0  0  0  0
    1.2556   -1.8685   -1.0524 C   0  0  0  0  0  0  0  0  0  0  0  0
   -2.0432   -1.0300    0.1704 C   0  0  0  0  0  0  0  0  0  0  0  0
   -0.1225    0.2030   -1.9043 H   0  0  0  0  0  0  0  0  0  0  0  0
    1.5468   -1.6407    1.6299 H   0  0  0  0  0  0  0  0  0  0  0  0
    0.6094   -0.1911    1.9270 H   0  0  0  0  0  0  0  0  0  0  0  0
    1.2070    2.2795   -1.4227 H   0  0  0  0  0  0  0  0  0  0  0  0
    2.1571    0.8376   -1.7086 H   0  0  0  0  0  0  0  0  0  0  0  0
   -1.1078    2.1624   -0.7486 H   0  0  0  0  0  0  0  0  0  0  0  0
   -0.6886    1.4760    0.8147 H   0  0  0  0  0  0  0  0  0  0  0  0
    3.2533   -0.3669    0.4163 H   0  0  0  0  0  0  0  0  0  0  0  0
    2.9603    0.3667    1.9843 H   0  0  0  0  0  0  0  0  0  0  0  0
    1.5758    2.1207    0.9997 H   0  0  0  0  0  0  0  0  0  0  0  0
    3.1170    2.0592    0.1583 H   0  0  0  0  0  0  0  0  0  0  0  0
   -0.7801   -2.6439    0.5665 H   0  0  0  0  0  0  0  0  0  0  0  0
   -2.6395    0.3876   -1.2714 H   0  0  0  0  0  0  0  0  0  0  0  0
    2.2146   -1.4457   -1.3661 H   0  0  0  0  0  0  0  0  0  0  0  0
    1.4699   -2.8212   -0.5529 H   0  0  0  0  0  0  0  0  0  0  0  0
    0.6870   -2.0975   -1.9619 H   0  0  0  0  0  0  0  0  0  0  0  0
   -2.9184   -1.6248    0.4201 H   0  0  0  0  0  0  0  0  0  0  0  0
   -4.1628    0.6436    0.4520 H   0  0  0  0  0  0  0  0  0  0  0  0
   -3.3493    2.0443    0.2899 H   0  0  0  0  0  0  0  0  0  0  0  0
  1 10  1  0  0  0  0
  1 30  1  0  0  0  0
  1 31  1  0  0  0  0
  2  3  1  0  0  0  0
  2  4  1  0  0  0  0
  2  9  1  0  0  0  0
  2 11  1  0  0  0  0
  3  5  1  0  0  0  0
  3  6  1  0  0  0  0
  3 13  1  0  0  0  0
  4  7  1  0  0  0  0
  4 14  1  0  0  0  0
  4 15  1  0  0  0  0
  5  8  1  0  0  0  0
  5 16  1  0  0  0  0
  5 17  1  0  0  0  0
  6 10  1  0  0  0  0
  6 18  1  0  0  0  0
  6 19  1  0  0  0  0
  7  8  1  0  0  0  0
  7 20  1  0  0  0  0
  7 21  1  0  0  0  0
  8 22  1  0  0  0  0
  8 23  1  0  0  0  0
  9 12  2  0  0  0  0
  9 24  1  0  0  0  0
 10 12  1  0  0  0  0
 10 25  1  0  0  0  0
 11 26  1  0  0  0  0
 11 27  1  0  0  0  0
 11 28  1  0  0  0  0
 12 29  1  0  0  0  0
M  END
> <PUBCHEM_COMPOUND_CID>
572962

> <PUBCHEM_CONFORMER_RMSD>
0.4

> <PUBCHEM_CONFORMER_DIVERSEORDER>
8
1
3
10
2
11
4
6
7
12
5
9

> <PUBCHEM_MMFF94_PARTIAL_CHARGES>
9
1 -0.99
10 0.41
12 -0.29
2 0.14
24 0.15
29 0.15
30 0.36
31 0.36
9 -0.29

> <PUBCHEM_EFFECTIVE_ROTOR_COUNT>
1.2

> <PUBCHEM_PHARMACOPHORE_FEATURES>
4
1 1 cation
1 1 donor
6 2 3 4 5 7 8 rings
6 2 3 6 9 10 12 rings

> <PUBCHEM_HEAVY_ATOM_COUNT>
12

> <PUBCHEM_ATOM_DEF_STEREO_COUNT>
0

> <PUBCHEM_ATOM_UDEF_STEREO_COUNT>
3

> <PUBCHEM_BOND_DEF_STEREO_COUNT>
0

> <PUBCHEM_BOND_UDEF_STEREO_COUNT>
0

> <PUBCHEM_ISOTOPIC_ATOM_COUNT>
0

> <PUBCHEM_COMPONENT_COUNT>
1

> <PUBCHEM_CACTVS_TAUTO_COUNT>
1

> <PUBCHEM_CONFORMER_ID>
0008BE2200000008

> <PUBCHEM_MMFF94_ENERGY>
16.723

> <PUBCHEM_FEATURE_SELFOVERLAP>
20.341

> <PUBCHEM_SHAPE_FINGERPRINT>
12251169 10 18261100872697759576
12382932 28 18408602573999305593
12423570 1 10940051073600091974
12524768 44 18336546027869892887
12696612 119 18114181942776861668
13571099 52 17346306124730680064
13839132 238 18272375282140381581
14817 1 7958656442301428354
15076042 46 18337663239100100176
15557651 10 17059775653632207080
15775835 57 18335422429928721680
16945 1 18115009862374392016
21040471 1 18338241560509248407
21501502 16 18413105065256140150
230 275 18411984620205442897
23235685 24 18412258428428263764
241688 4 17546170701135958922
2748010 2 18336277777324456943
29004967 10 13912588468690037298
5084963 1 18042110128270930772
68250623 7 18115592693953193514
7364860 26 18201443514894749102

> <PUBCHEM_SHAPE_MULTIPOLES>
241.97
3.63
1.89
1.11
1.54
0.32
-0.02
-1.24
0.95
-0.16
-0.28
-0.5
0.1
-0.02

> <PUBCHEM_SHAPE_SELFOVERLAP>
494.601

> <PUBCHEM_SHAPE_VOLUME>
137.3

> <PUBCHEM_COORDINATE_TYPE>
2
5
10

$$$$
