442462
  -OEChem-11232013333D

 26 27  0     1  0  0  0  0  0999 V2000
    1.5741    1.0688    1.0660 O   0  0  0  0  0  0  0  0  0  0  0  0
    1.8344   -2.0875    0.2762 O   0  0  0  0  0  0  0  0  0  0  0  0
    1.8370    0.2351   -0.0768 C   0  0  2  0  0  0  0  0  0  0  0  0
    1.0097    1.4844   -0.1822 C   0  0  1  0  0  0  0  0  0  0  0  0
   -0.4788    1.3900   -0.2920 C   0  0  0  0  0  0  0  0  0  0  0  0
   -1.0349    0.0615    0.2446 C   0  0  2  0  0  0  0  0  0  0  0  0
    1.1831   -1.0876   -0.0018 C   0  0  0  0  0  0  0  0  0  0  0  0
   -0.2852   -1.1308   -0.3597 C   0  0  0  0  0  0  0  0  0  0  0  0
    3.2512    0.3314   -0.5414 C   0  0  0  0  0  0  0  0  0  0  0  0
   -2.5032   -0.0513   -0.0289 C   0  0  0  0  0  0  0  0  0  0  0  0
   -3.3937   -0.1581    1.1734 C   0  0  0  0  0  0  0  0  0  0  0  0
   -2.9936   -0.0559   -1.2773 C   0  0  0  0  0  0  0  0  0  0  0  0
    1.4156    2.3712   -0.6493 H   0  0  0  0  0  0  0  0  0  0  0  0
   -0.7338    1.5283   -1.3496 H   0  0  0  0  0  0  0  0  0  0  0  0
   -0.9302    2.2293    0.2515 H   0  0  0  0  0  0  0  0  0  0  0  0
   -0.8688    0.0443    1.3312 H   0  0  0  0  0  0  0  0  0  0  0  0
   -0.3531   -1.1555   -1.4536 H   0  0  0  0  0  0  0  0  0  0  0  0
   -0.6973   -2.0712    0.0263 H   0  0  0  0  0  0  0  0  0  0  0  0
    3.3384   -0.0424   -1.5668 H   0  0  0  0  0  0  0  0  0  0  0  0
    3.6271    1.3605   -0.5278 H   0  0  0  0  0  0  0  0  0  0  0  0
    3.9087   -0.2678    0.0972 H   0  0  0  0  0  0  0  0  0  0  0  0
   -3.1359   -1.0461    1.7598 H   0  0  0  0  0  0  0  0  0  0  0  0
   -3.2808    0.7256    1.8099 H   0  0  0  0  0  0  0  0  0  0  0  0
   -4.4507   -0.2367    0.8979 H   0  0  0  0  0  0  0  0  0  0  0  0
   -4.0605   -0.1378   -1.4587 H   0  0  0  0  0  0  0  0  0  0  0  0
   -2.3547    0.0178   -2.1504 H   0  0  0  0  0  0  0  0  0  0  0  0
  1  3  1  0  0  0  0
  1  4  1  0  0  0  0
  2  7  2  0  0  0  0
  3  4  1  0  0  0  0
  3  7  1  0  0  0  0
  3  9  1  0  0  0  0
  4  5  1  0  0  0  0
  4 13  1  0  0  0  0
  5  6  1  0  0  0  0
  5 14  1  0  0  0  0
  5 15  1  0  0  0  0
  6  8  1  0  0  0  0
  6 10  1  0  0  0  0
  6 16  1  0  0  0  0
  7  8  1  0  0  0  0
  8 17  1  0  0  0  0
  8 18  1  0  0  0  0
  9 19  1  0  0  0  0
  9 20  1  0  0  0  0
  9 21  1  0  0  0  0
 10 11  1  0  0  0  0
 10 12  2  0  0  0  0
 11 22  1  0  0  0  0
 11 23  1  0  0  0  0
 11 24  1  0  0  0  0
 12 25  1  0  0  0  0
 12 26  1  0  0  0  0
M  END
> <PUBCHEM_COMPOUND_CID>
442462

> <PUBCHEM_CONFORMER_RMSD>
0.4

> <PUBCHEM_CONFORMER_DIVERSEORDER>
1
4
3
6
2
5

> <PUBCHEM_MMFF94_PARTIAL_CHARGES>
15
1 -0.3
10 -0.28
11 0.14
12 -0.3
13 0.1
2 -0.57
25 0.15
26 0.15
3 0.05
4 -0.05
5 0.09
6 0.14
7 0.51
8 0.06
9 0.09

> <PUBCHEM_EFFECTIVE_ROTOR_COUNT>
1.8

> <PUBCHEM_PHARMACOPHORE_FEATURES>
3
1 1 acceptor
1 2 acceptor
7 1 3 4 5 6 7 8 rings

> <PUBCHEM_HEAVY_ATOM_COUNT>
12

> <PUBCHEM_ATOM_DEF_STEREO_COUNT>
3

> <PUBCHEM_ATOM_UDEF_STEREO_COUNT>
0

> <PUBCHEM_BOND_DEF_STEREO_COUNT>
0

> <PUBCHEM_BOND_UDEF_STEREO_COUNT>
0

> <PUBCHEM_ISOTOPIC_ATOM_COUNT>
0

> <PUBCHEM_COMPONENT_COUNT>
1

> <PUBCHEM_CACTVS_TAUTO_COUNT>
2

> <PUBCHEM_CONFORMER_ID>
0006C05E00000001

> <PUBCHEM_MMFF94_ENERGY>
21.8687

> <PUBCHEM_FEATURE_SELFOVERLAP>
15.223

> <PUBCHEM_SHAPE_FINGERPRINT>
10219947 1 18334860553637749604
12138202 97 17458614649329047895
12423570 1 13579321619629005928
12897270 3 18408318899730132085
12932764 1 18131630080303533701
13380536 305 18263938802646267444
15219456 202 18040999505768442911
15775835 57 18060144245123007305
16945 1 18410569608622104456
17844478 74 17967823747149547189
20201158 50 18259702298402577611
20645477 70 18337382735108167799
21040471 1 18123184881703574380
21501502 16 18193271888642692309
23235685 24 18334858358962150380
23402655 69 18267005199427796381
23552423 10 18044094553448673334
23557571 272 16515405170698833893
2748010 2 18194394490214910476
29004967 10 18260548930872105201
5084963 1 18201154455084947317
528886 8 18337391638221444008
53812653 166 18341614862468108338
63268167 104 18413103948722580411
8030462 33 18341609304770059589

> <PUBCHEM_SHAPE_MULTIPOLES>
235.22
4.85
1.54
0.99
1.84
0.3
0
0.13
-0.03
-0.9
0.05
0.64
-0.06
0.04

> <PUBCHEM_SHAPE_SELFOVERLAP>
485.321

> <PUBCHEM_SHAPE_VOLUME>
136.2

> <PUBCHEM_COORDINATE_TYPE>
2
5
10

$$$$
