6428435
  -OEChem-11232013533D

 42 43  0     1  0  0  0  0  0999 V2000
   -3.8265   -0.1520    0.6896 O   0  0  0  0  0  0  0  0  0  0  0  0
   -0.7372   -0.2986   -0.0938 C   0  0  2  0  0  0  0  0  0  0  0  0
   -1.5661    0.5916    0.7720 C   0  0  1  0  0  0  0  0  0  0  0  0
   -0.2843    1.1121    0.1705 C   0  0  0  0  0  0  0  0  0  0  0  0
   -2.9084    0.7724    0.1067 C   0  0  1  0  0  0  0  0  0  0  0  0
   -1.5429   -0.6631   -1.3077 C   0  0  0  0  0  0  0  0  0  0  0  0
    0.0437   -1.4030    0.5400 C   0  0  2  0  0  0  0  0  0  0  0  0
   -2.6696    0.3826   -1.3672 C   0  0  0  0  0  0  0  0  0  0  0  0
   -3.4553    2.1821    0.2680 C   0  0  0  0  0  0  0  0  0  0  0  0
    1.0558   -2.0341   -0.4388 C   0  0  0  0  0  0  0  0  0  0  0  0
   -0.9114   -2.4840    1.0588 C   0  0  0  0  0  0  0  0  0  0  0  0
    2.1398   -1.0805   -0.9627 C   0  0  0  0  0  0  0  0  0  0  0  0
    2.9454   -0.4533    0.1408 C   0  0  0  0  0  0  0  0  0  0  0  0
    3.6249    0.7092    0.1230 C   0  0  0  0  0  0  0  0  0  0  0  0
    4.3732    1.1696    1.3465 C   0  0  0  0  0  0  0  0  0  0  0  0
    3.7190    1.6488   -1.0455 C   0  0  0  0  0  0  0  0  0  0  0  0
   -1.6045    0.4510    1.8428 H   0  0  0  0  0  0  0  0  0  0  0  0
   -0.3367    1.8351   -0.6343 H   0  0  0  0  0  0  0  0  0  0  0  0
    0.5371    1.2910    0.8541 H   0  0  0  0  0  0  0  0  0  0  0  0
   -1.9904   -1.6583   -1.2431 H   0  0  0  0  0  0  0  0  0  0  0  0
   -0.9393   -0.6266   -2.2206 H   0  0  0  0  0  0  0  0  0  0  0  0
    0.5851   -1.0235    1.4161 H   0  0  0  0  0  0  0  0  0  0  0  0
   -2.3233    1.2473   -1.9470 H   0  0  0  0  0  0  0  0  0  0  0  0
   -3.5625   -0.0221   -1.8544 H   0  0  0  0  0  0  0  0  0  0  0  0
   -4.4296    2.2790   -0.2232 H   0  0  0  0  0  0  0  0  0  0  0  0
   -3.6095    2.4178    1.3272 H   0  0  0  0  0  0  0  0  0  0  0  0
   -2.7768    2.9333   -0.1493 H   0  0  0  0  0  0  0  0  0  0  0  0
    0.5333   -2.4666   -1.3015 H   0  0  0  0  0  0  0  0  0  0  0  0
    1.5499   -2.8767    0.0641 H   0  0  0  0  0  0  0  0  0  0  0  0
   -1.4096   -3.0339    0.2551 H   0  0  0  0  0  0  0  0  0  0  0  0
   -0.3545   -3.2216    1.6482 H   0  0  0  0  0  0  0  0  0  0  0  0
   -1.6826   -2.0643    1.7124 H   0  0  0  0  0  0  0  0  0  0  0  0
   -3.5078   -1.0544    0.5209 H   0  0  0  0  0  0  0  0  0  0  0  0
    1.6754   -0.3150   -1.5923 H   0  0  0  0  0  0  0  0  0  0  0  0
    2.8198   -1.6574   -1.6009 H   0  0  0  0  0  0  0  0  0  0  0  0
    3.0050   -1.0474    1.0527 H   0  0  0  0  0  0  0  0  0  0  0  0
    4.2774    0.4707    2.1841 H   0  0  0  0  0  0  0  0  0  0  0  0
    5.4397    1.2739    1.1216 H   0  0  0  0  0  0  0  0  0  0  0  0
    3.9913    2.1401    1.6802 H   0  0  0  0  0  0  0  0  0  0  0  0
    4.7681    1.8264   -1.3047 H   0  0  0  0  0  0  0  0  0  0  0  0
    3.2256    1.2618   -1.9410 H   0  0  0  0  0  0  0  0  0  0  0  0
    3.2556    2.6090   -0.7967 H   0  0  0  0  0  0  0  0  0  0  0  0
  1  5  1  0  0  0  0
  1 33  1  0  0  0  0
  2  3  1  0  0  0  0
  2  4  1  0  0  0  0
  2  6  1  0  0  0  0
  2  7  1  0  0  0  0
  3  4  1  0  0  0  0
  3  5  1  0  0  0  0
  3 17  1  0  0  0  0
  4 18  1  0  0  0  0
  4 19  1  0  0  0  0
  5  8  1  0  0  0  0
  5  9  1  0  0  0  0
  6  8  1  0  0  0  0
  6 20  1  0  0  0  0
  6 21  1  0  0  0  0
  7 10  1  0  0  0  0
  7 11  1  0  0  0  0
  7 22  1  0  0  0  0
  8 23  1  0  0  0  0
  8 24  1  0  0  0  0
  9 25  1  0  0  0  0
  9 26  1  0  0  0  0
  9 27  1  0  0  0  0
 10 12  1  0  0  0  0
 10 28  1  0  0  0  0
 10 29  1  0  0  0  0
 11 30  1  0  0  0  0
 11 31  1  0  0  0  0
 11 32  1  0  0  0  0
 12 13  1  0  0  0  0
 12 34  1  0  0  0  0
 12 35  1  0  0  0  0
 13 14  2  0  0  0  0
 13 36  1  0  0  0  0
 14 15  1  0  0  0  0
 14 16  1  0  0  0  0
 15 37  1  0  0  0  0
 15 38  1  0  0  0  0
 15 39  1  0  0  0  0
 16 40  1  0  0  0  0
 16 41  1  0  0  0  0
 16 42  1  0  0  0  0
M  END
> <PUBCHEM_COMPOUND_CID>
6428435

> <PUBCHEM_CONFORMER_RMSD>
0.6

> <PUBCHEM_CONFORMER_DIVERSEORDER>
1
20
47
24
7
53
40
33
38
17
37
56
32
36
42
44
2
9
11
57
16
51
46
30
25
35
4
31
23
39
13
55
15
29
5
52
41
50
6
18
43
49
28
27
54
21
3
12
34
48
26
10
45
14
22
19
8

> <PUBCHEM_MMFF94_PARTIAL_CHARGES>
17
1 -0.68
12 0.14
13 -0.29
14 -0.28
15 0.14
16 0.14
17 0.1
18 0.1
19 0.1
2 -0.19
3 -0.19
33 0.4
36 0.15
4 -0.2
5 0.38
6 0.09
7 0.09

> <PUBCHEM_EFFECTIVE_ROTOR_COUNT>
4.8

> <PUBCHEM_PHARMACOPHORE_FEATURES>
6
1 1 acceptor
1 1 donor
1 11 hydrophobe
3 14 15 16 hydrophobe
4 7 10 12 13 hydrophobe
6 2 3 4 5 6 8 rings

> <PUBCHEM_HEAVY_ATOM_COUNT>
16

> <PUBCHEM_ATOM_DEF_STEREO_COUNT>
2

> <PUBCHEM_ATOM_UDEF_STEREO_COUNT>
2

> <PUBCHEM_BOND_DEF_STEREO_COUNT>
0

> <PUBCHEM_BOND_UDEF_STEREO_COUNT>
0

> <PUBCHEM_ISOTOPIC_ATOM_COUNT>
0

> <PUBCHEM_COMPONENT_COUNT>
1

> <PUBCHEM_CACTVS_TAUTO_COUNT>
1

> <PUBCHEM_CONFORMER_ID>
0062171300000001

> <PUBCHEM_MMFF94_ENERGY>
35.7237

> <PUBCHEM_FEATURE_SELFOVERLAP>
30.447

> <PUBCHEM_SHAPE_FINGERPRINT>
11132069 177 18408885156813600418
11543360 7 15482382144810081408
11715629 250 18201715120247720484
11725454 13 16010401657494049199
12006461 19 11169916061182370116
12173636 292 18413669114868694127
122479 349 18410577296924781218
12403814 3 17458339792706724719
12491281 212 17632303341216176163
12892183 10 14851602176783956524
13544592 271 18271522104404471738
13583140 156 16588297323837117432
13764800 53 18338528541998243818
14250199 8 18057893441731269862
14787075 74 18339929315696372331
15342168 16 18261403242674852957
15775835 57 17917709111025350740
16945 1 17988345023474883299
18186145 218 18263364702757006398
19765921 60 18340478980825382251
200 152 12967133817718857116
20374829 77 9943808867934125816
21524375 3 18410849950070496242
22079108 93 18410862062115342889
23419403 2 17324341391475527231
23500284 214 18409730677271583954
23557571 272 18196952164925966262
23559900 14 18337678521063569102
25 1 18340487772770928486
2748010 2 18268167468679948566
4340502 62 18187933837848246083
474 4 18409168783743155700
6333272 397 18261399957093033634
633830 44 18340208466652527805
7364860 26 17981043011994134142
81228 2 17824282593948054435
90316 7 16298106484166962437
9981440 41 18200296836616968154

> <PUBCHEM_SHAPE_MULTIPOLES>
323.4
7.27
2.26
1.25
4.11
0.6
0.14
-4.76
-0.7
-0.1
-0.32
0.16
0.04
0.18

> <PUBCHEM_SHAPE_SELFOVERLAP>
653.344

> <PUBCHEM_SHAPE_VOLUME>
193.9

> <PUBCHEM_COORDINATE_TYPE>
2
5
10

$$$$
