538938
  -OEChem-11232013563D

 41 43  0     1  0  0  0  0  0999 V2000
    2.2966    1.3960    1.2054 O   0  0  0  0  0  0  0  0  0  0  0  0
    2.6309    0.5299   -1.9626 O   0  0  0  0  0  0  0  0  0  0  0  0
   -0.3768   -0.2259    0.0009 C   0  0  1  0  0  0  0  0  0  0  0  0
   -1.9142   -0.1058   -0.2040 C   0  0  1  0  0  0  0  0  0  0  0  0
    0.0742    0.3355    1.3806 C   0  0  0  0  0  0  0  0  0  0  0  0
    1.5562    0.2202    1.5628 C   0  0  1  0  0  0  0  0  0  0  0  0
   -0.1927   -1.7786   -0.0480 C   0  0  1  0  0  0  0  0  0  0  0  0
    2.4583    0.2504    0.3597 C   0  0  1  0  0  0  0  0  0  0  0  0
    0.3839    0.5450   -1.0992 C   0  0  0  0  0  0  0  0  0  0  0  0
   -2.5083   -1.2616    0.6095 C   0  0  0  0  0  0  0  0  0  0  0  0
   -1.4129   -2.3226    0.7149 C   0  0  0  0  0  0  0  0  0  0  0  0
    1.8896    0.4244   -0.9919 C   0  0  0  0  0  0  0  0  0  0  0  0
   -2.5569    1.2305    0.1501 C   0  0  0  0  0  0  0  0  0  0  0  0
   -0.1378   -2.3926   -1.4517 C   0  0  0  0  0  0  0  0  0  0  0  0
    3.7941   -0.3948    0.5182 C   0  0  0  0  0  0  0  0  0  0  0  0
   -1.9195    2.3646   -0.6514 C   0  0  0  0  0  0  0  0  0  0  0  0
   -4.0646    1.1853   -0.0933 C   0  0  0  0  0  0  0  0  0  0  0  0
   -2.1343   -0.3107   -1.2623 H   0  0  0  0  0  0  0  0  0  0  0  0
   -0.4232   -0.1919    2.2023 H   0  0  0  0  0  0  0  0  0  0  0  0
   -0.1991    1.3899    1.4907 H   0  0  0  0  0  0  0  0  0  0  0  0
    1.8488   -0.3112    2.4572 H   0  0  0  0  0  0  0  0  0  0  0  0
    0.7212   -2.0921    0.4699 H   0  0  0  0  0  0  0  0  0  0  0  0
    0.2533    1.6207   -1.0658 H   0  0  0  0  0  0  0  0  0  0  0  0
    0.0827    0.2109   -2.0979 H   0  0  0  0  0  0  0  0  0  0  0  0
   -3.3981   -1.6723    0.1196 H   0  0  0  0  0  0  0  0  0  0  0  0
   -2.8052   -0.9457    1.6166 H   0  0  0  0  0  0  0  0  0  0  0  0
   -1.1557   -2.4736    1.7704 H   0  0  0  0  0  0  0  0  0  0  0  0
   -1.7552   -3.2908    0.3340 H   0  0  0  0  0  0  0  0  0  0  0  0
   -2.4242    1.4504    1.2164 H   0  0  0  0  0  0  0  0  0  0  0  0
   -0.0874   -3.4853   -1.3866 H   0  0  0  0  0  0  0  0  0  0  0  0
   -1.0165   -2.1389   -2.0520 H   0  0  0  0  0  0  0  0  0  0  0  0
    0.7550   -2.0651   -1.9926 H   0  0  0  0  0  0  0  0  0  0  0  0
    4.1137   -0.4438    1.5650 H   0  0  0  0  0  0  0  0  0  0  0  0
    3.7678   -1.4179    0.1290 H   0  0  0  0  0  0  0  0  0  0  0  0
    4.5591    0.1612   -0.0339 H   0  0  0  0  0  0  0  0  0  0  0  0
   -1.7496    2.1007   -1.6995 H   0  0  0  0  0  0  0  0  0  0  0  0
   -2.5951    3.2299   -0.6675 H   0  0  0  0  0  0  0  0  0  0  0  0
   -1.0165    2.7467   -0.1707 H   0  0  0  0  0  0  0  0  0  0  0  0
   -4.2921    0.9398   -1.1364 H   0  0  0  0  0  0  0  0  0  0  0  0
   -4.5226    2.1558    0.1281 H   0  0  0  0  0  0  0  0  0  0  0  0
   -4.5601    0.4487    0.5467 H   0  0  0  0  0  0  0  0  0  0  0  0
  1  6  1  0  0  0  0
  1  8  1  0  0  0  0
  2 12  2  0  0  0  0
  3  4  1  0  0  0  0
  3  5  1  0  0  0  0
  3  7  1  0  0  0  0
  3  9  1  0  0  0  0
  4 10  1  0  0  0  0
  4 13  1  0  0  0  0
  4 18  1  0  0  0  0
  5  6  1  0  0  0  0
  5 19  1  0  0  0  0
  5 20  1  0  0  0  0
  6  8  1  0  0  0  0
  6 21  1  0  0  0  0
  7 11  1  0  0  0  0
  7 14  1  0  0  0  0
  7 22  1  0  0  0  0
  8 12  1  0  0  0  0
  8 15  1  0  0  0  0
  9 12  1  0  0  0  0
  9 23  1  0  0  0  0
  9 24  1  0  0  0  0
 10 11  1  0  0  0  0
 10 25  1  0  0  0  0
 10 26  1  0  0  0  0
 11 27  1  0  0  0  0
 11 28  1  0  0  0  0
 13 16  1  0  0  0  0
 13 17  1  0  0  0  0
 13 29  1  0  0  0  0
 14 30  1  0  0  0  0
 14 31  1  0  0  0  0
 14 32  1  0  0  0  0
 15 33  1  0  0  0  0
 15 34  1  0  0  0  0
 15 35  1  0  0  0  0
 16 36  1  0  0  0  0
 16 37  1  0  0  0  0
 16 38  1  0  0  0  0
 17 39  1  0  0  0  0
 17 40  1  0  0  0  0
 17 41  1  0  0  0  0
M  END
> <PUBCHEM_COMPOUND_CID>
538938

> <PUBCHEM_CONFORMER_RMSD>
0.6

> <PUBCHEM_CONFORMER_DIVERSEORDER>
7
33
20
2
51
19
21
32
24
29
54
15
55
4
61
28
31
57
23
9
1
58
18
12
5
30
13
45
27
42
11
41
46
14
52
36
17
59
50
25
48
26
22
3
8
10
47
49
37
56
6
44
43
38
16
40
60
53
34
39
35

> <PUBCHEM_MMFF94_PARTIAL_CHARGES>
9
1 -0.3
12 0.51
15 0.09
2 -0.57
21 0.1
5 0.09
6 -0.05
8 0.05
9 0.06

> <PUBCHEM_EFFECTIVE_ROTOR_COUNT>
2.4

> <PUBCHEM_PHARMACOPHORE_FEATURES>
5
1 1 acceptor
1 2 acceptor
3 13 16 17 hydrophobe
5 3 4 7 10 11 rings
7 1 3 5 6 8 9 12 rings

> <PUBCHEM_HEAVY_ATOM_COUNT>
17

> <PUBCHEM_ATOM_DEF_STEREO_COUNT>
0

> <PUBCHEM_ATOM_UDEF_STEREO_COUNT>
5

> <PUBCHEM_BOND_DEF_STEREO_COUNT>
0

> <PUBCHEM_BOND_UDEF_STEREO_COUNT>
0

> <PUBCHEM_ISOTOPIC_ATOM_COUNT>
0

> <PUBCHEM_COMPONENT_COUNT>
1

> <PUBCHEM_CACTVS_TAUTO_COUNT>
2

> <PUBCHEM_CONFORMER_ID>
0008393A00000007

> <PUBCHEM_MMFF94_ENERGY>
56.4991

> <PUBCHEM_FEATURE_SELFOVERLAP>
25.373

> <PUBCHEM_SHAPE_FINGERPRINT>
10863032 1 17458922533679548194
12138202 97 17845648278223353150
12423570 1 15482382054562695994
124424 183 17988920059592752906
12491281 212 17749687249821069996
12808571 1 17749398069593831058
13132413 78 16470085169354335209
13172582 1 18187081754374448085
13380535 76 18338796715535111063
13464514 151 17699011686694459665
13538477 17 17894914069869670173
13581323 91 18336540607600072810
13898156 1 17750505342222275178
14181834 199 17908138781027999271
14817 1 14608111675663433283
15076042 46 18187928434004141827
15207287 21 16845564301858020262
15279308 10 17822865310632464884
15775835 57 18411975832538831681
15852999 172 18340207393111384519
16752209 62 18188766270913598531
16945 1 18189904282285136171
18186145 218 17775014470186508657
19049666 15 18059305270395643090
19422 9 17603872246886308050
20511035 2 18337946788287993562
20645476 183 18040156227283609147
21524375 3 18339356362600497059
21947302 44 17346874555046624624
22112679 90 17822007674287822236
22802520 49 18272101473727715175
23236772 104 17314242239640147837
23402539 116 18337659876499254351
23419403 2 16822563510489502979
23493267 7 18115327655410162155
23526113 38 17701561544522059652
23557571 272 18197221562227598752
23559900 14 18273214176186611386
23598294 1 18042703856134075235
25 1 18058447604192127041
2748010 2 18130511949723335459
276578 36 18337674096914522705
305870 269 18045774585920381297
5845 1 17620738914280906383
6992083 37 17749383737425159932
7364860 26 17840302225340838567
77492 1 17458343091083378177
81228 2 17979613943430832811
90525 40 18260556644475269167

> <PUBCHEM_SHAPE_MULTIPOLES>
338.11
5.12
2.24
1.47
0.01
0.89
0.21
-1.99
-0.34
-1.5
0.36
0.92
0.01
0.36

> <PUBCHEM_SHAPE_SELFOVERLAP>
709.172

> <PUBCHEM_SHAPE_VOLUME>
192.3

> <PUBCHEM_COORDINATE_TYPE>
2
5
10

$$$$
