631957
  -OEChem-11232014002D

 73 76  0     1  0  0  0  0  0999 V2000
    3.7320   -2.3392    0.0000 O   0  0  0  0  0  0  0  0  0  0  0  0
   11.6712    3.1251    0.0000 O   0  0  0  0  0  0  0  0  0  0  0  0
   12.0284    1.4303    0.0000 O   0  0  0  0  0  0  0  0  0  0  0  0
    2.8718   -0.8359    0.0000 O   0  0  0  0  0  0  0  0  0  0  0  0
    9.1251    0.7131    0.0000 C   0  0  3  0  0  0  0  0  0  0  0  0
    9.1251   -0.2869    0.0000 C   0  0  3  0  0  0  0  0  0  0  0  0
    6.4831   -0.7937    0.0000 C   0  0  3  0  0  0  0  0  0  0  0  0
   10.0713    1.0179    0.0000 C   0  0  3  0  0  0  0  0  0  0  0  0
    8.2591   -0.7869    0.0000 C   0  0  0  0  0  0  0  0  0  0  0  0
    6.4750   -1.8353    0.0000 C   0  0  3  0  0  0  0  0  0  0  0  0
    7.3931   -0.2869    0.0000 C   0  0  0  0  0  0  0  0  0  0  0  0
   10.0713   -0.5916    0.0000 C   0  0  0  0  0  0  0  0  0  0  0  0
    8.2591    1.2131    0.0000 C   0  0  0  0  0  0  0  0  0  0  0  0
   10.6550    0.2131    0.0000 C   0  0  0  0  0  0  0  0  0  0  0  0
    5.5396   -2.3850    0.0000 C   0  0  0  0  0  0  0  0  0  0  0  0
    7.3931    0.7131    0.0000 C   0  0  0  0  0  0  0  0  0  0  0  0
    8.2752   -1.8284    0.0000 C   0  0  0  0  0  0  0  0  0  0  0  0
    7.3771   -2.3561    0.0000 C   0  0  0  0  0  0  0  0  0  0  0  0
    5.5562   -0.2296    0.0000 C   0  0  0  0  0  0  0  0  0  0  0  0
    9.1251    1.7131    0.0000 C   0  0  0  0  0  0  0  0  0  0  0  0
    9.1251   -1.2869    0.0000 C   0  0  0  0  0  0  0  0  0  0  0  0
    4.6000   -1.8425    0.0000 C   0  0  3  0  0  0  0  0  0  0  0  0
   10.3820    1.9684    0.0000 C   0  0  3  0  0  0  0  0  0  0  0  0
    4.6084   -0.7576    0.0000 C   0  0  0  0  0  0  0  0  0  0  0  0
    6.4908    0.2063    0.0000 C   0  0  0  0  0  0  0  0  0  0  0  0
    5.0430   -3.2530    0.0000 C   0  0  0  0  0  0  0  0  0  0  0  0
    6.0430   -3.2491    0.0000 C   0  0  0  0  0  0  0  0  0  0  0  0
    9.7142    2.7127    0.0000 C   0  0  0  0  0  0  0  0  0  0  0  0
   11.3605    2.1746    0.0000 C   0  0  0  0  0  0  0  0  0  0  0  0
    2.8680   -1.8359    0.0000 C   0  0  0  0  0  0  0  0  0  0  0  0
    2.0000   -2.3325    0.0000 C   0  0  0  0  0  0  0  0  0  0  0  0
   10.6838    1.1141    0.0000 H   0  0  0  0  0  0  0  0  0  0  0  0
    6.4774   -2.4553    0.0000 H   0  0  0  0  0  0  0  0  0  0  0  0
    9.8203   -1.1585    0.0000 H   0  0  0  0  0  0  0  0  0  0  0  0
   10.6087   -0.9008    0.0000 H   0  0  0  0  0  0  0  0  0  0  0  0
    8.6576    1.6881    0.0000 H   0  0  0  0  0  0  0  0  0  0  0  0
    7.8606    1.6881    0.0000 H   0  0  0  0  0  0  0  0  0  0  0  0
   11.1158   -0.2016    0.0000 H   0  0  0  0  0  0  0  0  0  0  0  0
   11.1158    0.6279    0.0000 H   0  0  0  0  0  0  0  0  0  0  0  0
    7.1810    1.2957    0.0000 H   0  0  0  0  0  0  0  0  0  0  0  0
    6.7825    0.6055    0.0000 H   0  0  0  0  0  0  0  0  0  0  0  0
    8.4932   -2.4088    0.0000 H   0  0  0  0  0  0  0  0  0  0  0  0
    8.8843   -1.7129    0.0000 H   0  0  0  0  0  0  0  0  0  0  0  0
    6.9798   -2.8321    0.0000 H   0  0  0  0  0  0  0  0  0  0  0  0
    7.7781   -2.8290    0.0000 H   0  0  0  0  0  0  0  0  0  0  0  0
    5.9644    0.2370    0.0000 H   0  0  0  0  0  0  0  0  0  0  0  0
    5.1663    0.2524    0.0000 H   0  0  0  0  0  0  0  0  0  0  0  0
    9.7451    1.7131    0.0000 H   0  0  0  0  0  0  0  0  0  0  0  0
    9.1251    2.3331    0.0000 H   0  0  0  0  0  0  0  0  0  0  0  0
    8.5051    1.7131    0.0000 H   0  0  0  0  0  0  0  0  0  0  0  0
    8.5051   -1.2869    0.0000 H   0  0  0  0  0  0  0  0  0  0  0  0
    9.1251   -1.9069    0.0000 H   0  0  0  0  0  0  0  0  0  0  0  0
    9.7451   -1.2869    0.0000 H   0  0  0  0  0  0  0  0  0  0  0  0
    4.0648   -1.5294    0.0000 H   0  0  0  0  0  0  0  0  0  0  0  0
   10.5746    2.5577    0.0000 H   0  0  0  0  0  0  0  0  0  0  0  0
    4.4038   -0.1723    0.0000 H   0  0  0  0  0  0  0  0  0  0  0  0
    3.9967   -0.8590    0.0000 H   0  0  0  0  0  0  0  0  0  0  0  0
    7.1108    0.2015    0.0000 H   0  0  0  0  0  0  0  0  0  0  0  0
    6.4956    0.8262    0.0000 H   0  0  0  0  0  0  0  0  0  0  0  0
    5.8708    0.2110    0.0000 H   0  0  0  0  0  0  0  0  0  0  0  0
    4.5048   -2.9450    0.0000 H   0  0  0  0  0  0  0  0  0  0  0  0
    4.7350   -3.7911    0.0000 H   0  0  0  0  0  0  0  0  0  0  0  0
    5.5811   -3.5609    0.0000 H   0  0  0  0  0  0  0  0  0  0  0  0
    5.5072   -3.5612    0.0000 H   0  0  0  0  0  0  0  0  0  0  0  0
    6.3550   -3.7849    0.0000 H   0  0  0  0  0  0  0  0  0  0  0  0
    6.5787   -2.9371    0.0000 H   0  0  0  0  0  0  0  0  0  0  0  0
   10.1756    3.1268    0.0000 H   0  0  0  0  0  0  0  0  0  0  0  0
    9.3001    3.1742    0.0000 H   0  0  0  0  0  0  0  0  0  0  0  0
    9.2527    2.2986    0.0000 H   0  0  0  0  0  0  0  0  0  0  0  0
   12.2778    3.2530    0.0000 H   0  0  0  0  0  0  0  0  0  0  0  0
    1.6921   -1.7944    0.0000 H   0  0  0  0  0  0  0  0  0  0  0  0
    1.4619   -2.6404    0.0000 H   0  0  0  0  0  0  0  0  0  0  0  0
    2.3079   -2.8706    0.0000 H   0  0  0  0  0  0  0  0  0  0  0  0
  1 22  1  0  0  0  0
  1 30  1  0  0  0  0
  2 29  1  0  0  0  0
  2 70  1  0  0  0  0
  3 29  2  0  0  0  0
  4 30  2  0  0  0  0
  5  6  1  0  0  0  0
  5  8  1  0  0  0  0
  5 13  1  0  0  0  0
  5 20  1  0  0  0  0
  6  9  1  0  0  0  0
  6 12  1  0  0  0  0
  6 21  1  0  0  0  0
  7 10  1  0  0  0  0
  7 11  1  0  0  0  0
  7 19  1  0  0  0  0
  7 25  1  0  0  0  0
  8 14  1  0  0  0  0
  8 23  1  0  0  0  0
  8 32  1  0  0  0  0
  9 11  2  0  0  0  0
  9 17  1  0  0  0  0
 10 15  1  0  0  0  0
 10 18  1  0  0  0  0
 10 33  1  0  0  0  0
 11 16  1  0  0  0  0
 12 14  1  0  0  0  0
 12 34  1  0  0  0  0
 12 35  1  0  0  0  0
 13 16  1  0  0  0  0
 13 36  1  0  0  0  0
 13 37  1  0  0  0  0
 14 38  1  0  0  0  0
 14 39  1  0  0  0  0
 15 22  1  0  0  0  0
 15 26  1  0  0  0  0
 15 27  1  0  0  0  0
 16 40  1  0  0  0  0
 16 41  1  0  0  0  0
 17 18  1  0  0  0  0
 17 42  1  0  0  0  0
 17 43  1  0  0  0  0
 18 44  1  0  0  0  0
 18 45  1  0  0  0  0
 19 24  1  0  0  0  0
 19 46  1  0  0  0  0
 19 47  1  0  0  0  0
 20 48  1  0  0  0  0
 20 49  1  0  0  0  0
 20 50  1  0  0  0  0
 21 51  1  0  0  0  0
 21 52  1  0  0  0  0
 21 53  1  0  0  0  0
 22 24  1  0  0  0  0
 22 54  1  0  0  0  0
 23 28  1  0  0  0  0
 23 29  1  0  0  0  0
 23 55  1  0  0  0  0
 24 56  1  0  0  0  0
 24 57  1  0  0  0  0
 25 58  1  0  0  0  0
 25 59  1  0  0  0  0
 25 60  1  0  0  0  0
 26 61  1  0  0  0  0
 26 62  1  0  0  0  0
 26 63  1  0  0  0  0
 27 64  1  0  0  0  0
 27 65  1  0  0  0  0
 27 66  1  0  0  0  0
 28 67  1  0  0  0  0
 28 68  1  0  0  0  0
 28 69  1  0  0  0  0
 30 31  1  0  0  0  0
 31 71  1  0  0  0  0
 31 72  1  0  0  0  0
 31 73  1  0  0  0  0
M  END
> <PUBCHEM_COMPOUND_CID>
631957

> <PUBCHEM_COMPOUND_CANONICALIZED>
1

> <PUBCHEM_CACTVS_COMPLEXITY>
825

> <PUBCHEM_CACTVS_HBOND_ACCEPTOR>
4

> <PUBCHEM_CACTVS_HBOND_DONOR>
1

> <PUBCHEM_CACTVS_ROTATABLE_BOND>
4

> <PUBCHEM_CACTVS_SUBSKEYS>
AAADcfB4OAAAAAAAAAAAAAAAAAAAAYAAAAAwQIAAAAAAAEDAAAAAGgAACAAADxSggAICCAAABgCIAgDQCAAAAAAgAAAACAEAAAgAABIAAAACQAAEgAAIAAOIyPCPgAAAAAAAAABAAAYAADAAAQAACAAAAA==

> <PUBCHEM_IUPAC_OPENEYE_NAME>
2-(3-acetoxy-4,4,10,13,14-pentamethyl-2,3,5,6,7,11,12,15,16,17-decahydro-1H-cyclopenta[a]phenanthren-17-yl)propanoic acid

> <PUBCHEM_IUPAC_CAS_NAME>
2-(3-acetyloxy-4,4,10,13,14-pentamethyl-2,3,5,6,7,11,12,15,16,17-decahydro-1H-cyclopenta[a]phenanthren-17-yl)propanoic acid

> <PUBCHEM_IUPAC_NAME_MARKUP>
2-(3-acetyloxy-4,4,10,13,14-pentamethyl-2,3,5,6,7,11,12,15,16,17-decahydro-1<I>H</I>-cyclopenta[a]phenanthren-17-yl)propanoic acid

> <PUBCHEM_IUPAC_NAME>
2-(3-acetyloxy-4,4,10,13,14-pentamethyl-2,3,5,6,7,11,12,15,16,17-decahydro-1H-cyclopenta[a]phenanthren-17-yl)propanoic acid

> <PUBCHEM_IUPAC_SYSTEMATIC_NAME>
2-(3-acetyloxy-4,4,10,13,14-pentamethyl-2,3,5,6,7,11,12,15,16,17-decahydro-1H-cyclopenta[a]phenanthren-17-yl)propanoic acid

> <PUBCHEM_IUPAC_TRADITIONAL_NAME>
2-(3-acetoxy-4,4,10,13,14-pentamethyl-2,3,5,6,7,11,12,15,16,17-decahydro-1H-cyclopenta[a]phenanthren-17-yl)propionic acid

> <PUBCHEM_IUPAC_INCHI>
InChI=1S/C27H42O4/c1-16(23(29)30)18-10-14-27(7)20-8-9-21-24(3,4)22(31-17(2)28)12-13-25(21,5)19(20)11-15-26(18,27)6/h16,18,21-22H,8-15H2,1-7H3,(H,29,30)

> <PUBCHEM_IUPAC_INCHIKEY>
HVIBGCANOBQDPU-UHFFFAOYSA-N

> <PUBCHEM_XLOGP3_AA>
6.3

> <PUBCHEM_EXACT_MASS>
430.30831

> <PUBCHEM_MOLECULAR_FORMULA>
C27H42O4

> <PUBCHEM_MOLECULAR_WEIGHT>
430.6

> <PUBCHEM_OPENEYE_CAN_SMILES>
CC(C1CCC2(C1(CCC3=C2CCC4C3(CCC(C4(C)C)OC(=O)C)C)C)C)C(=O)O

> <PUBCHEM_OPENEYE_ISO_SMILES>
CC(C1CCC2(C1(CCC3=C2CCC4C3(CCC(C4(C)C)OC(=O)C)C)C)C)C(=O)O

> <PUBCHEM_CACTVS_TPSA>
63.6

> <PUBCHEM_MONOISOTOPIC_WEIGHT>
430.30831

> <PUBCHEM_TOTAL_CHARGE>
0

> <PUBCHEM_HEAVY_ATOM_COUNT>
31

> <PUBCHEM_ATOM_DEF_STEREO_COUNT>
0

> <PUBCHEM_ATOM_UDEF_STEREO_COUNT>
7

> <PUBCHEM_BOND_DEF_STEREO_COUNT>
0

> <PUBCHEM_BOND_UDEF_STEREO_COUNT>
0

> <PUBCHEM_ISOTOPIC_ATOM_COUNT>
0

> <PUBCHEM_COMPONENT_COUNT>
1

> <PUBCHEM_CACTVS_TAUTO_COUNT>
-1

> <PUBCHEM_COORDINATE_TYPE>
1
5
255

> <PUBCHEM_BONDANNOTATIONS>
22  1  3
10  18  3
23  28  3
5  20  3
6  21  3
7  25  3
8  14  3

$$$$
