442635
  -OEChem-09012009303D

 35 37  0     1  0  0  0  0  0999 V2000
   -1.0304    1.2325    0.3335 O   0  0  0  0  0  0  0  0  0  0  0  0
   -2.9531    2.1429   -0.4432 O   0  0  0  0  0  0  0  0  0  0  0  0
    2.7109   -0.6710   -0.2162 N   0  0  1  0  0  0  0  0  0  0  0  0
   -0.1241    0.0936    0.3260 C   0  0  2  0  0  0  0  0  0  0  0  0
    1.0684    0.4492    1.2646 C   0  0  2  0  0  0  0  0  0  0  0  0
    1.9575    0.2086   -1.1301 C   0  0  1  0  0  0  0  0  0  0  0  0
    0.4431   -0.0973   -1.1085 C   0  0  0  0  0  0  0  0  0  0  0  0
    1.7013    1.7851    0.8178 C   0  0  0  0  0  0  0  0  0  0  0  0
    2.1599   -0.6368    1.1505 C   0  0  0  0  0  0  0  0  0  0  0  0
    2.1746    1.6532   -0.6353 C   0  0  0  0  0  0  0  0  0  0  0  0
   -0.8931   -1.1398    0.8261 C   0  0  0  0  0  0  0  0  0  0  0  0
    2.8716   -2.0311   -0.7125 C   0  0  0  0  0  0  0  0  0  0  0  0
   -2.2037   -1.2779    0.1085 C   0  0  0  0  0  0  0  0  0  0  0  0
   -2.2822    1.1499   -0.1846 C   0  0  0  0  0  0  0  0  0  0  0  0
   -2.8257   -0.2028   -0.3921 C   0  0  0  0  0  0  0  0  0  0  0  0
   -2.7750   -2.6582   -0.0046 C   0  0  0  0  0  0  0  0  0  0  0  0
    0.7271    0.5494    2.3016 H   0  0  0  0  0  0  0  0  0  0  0  0
    2.3447    0.1260   -2.1526 H   0  0  0  0  0  0  0  0  0  0  0  0
   -0.0622    0.5677   -1.8199 H   0  0  0  0  0  0  0  0  0  0  0  0
    0.2751   -1.1187   -1.4691 H   0  0  0  0  0  0  0  0  0  0  0  0
    2.5534    2.0299    1.4639 H   0  0  0  0  0  0  0  0  0  0  0  0
    0.9945    2.6167    0.9140 H   0  0  0  0  0  0  0  0  0  0  0  0
    2.9794   -0.4110    1.8435 H   0  0  0  0  0  0  0  0  0  0  0  0
    1.7569   -1.6079    1.4599 H   0  0  0  0  0  0  0  0  0  0  0  0
    1.6219    2.3558   -1.2710 H   0  0  0  0  0  0  0  0  0  0  0  0
    3.2331    1.9319   -0.7082 H   0  0  0  0  0  0  0  0  0  0  0  0
   -1.1049   -1.0543    1.8994 H   0  0  0  0  0  0  0  0  0  0  0  0
   -0.2943   -2.0460    0.6818 H   0  0  0  0  0  0  0  0  0  0  0  0
    3.5393   -2.5982   -0.0543 H   0  0  0  0  0  0  0  0  0  0  0  0
    3.3378   -2.0280   -1.7037 H   0  0  0  0  0  0  0  0  0  0  0  0
    1.9223   -2.5724   -0.7802 H   0  0  0  0  0  0  0  0  0  0  0  0
   -3.7798   -0.2815   -0.9014 H   0  0  0  0  0  0  0  0  0  0  0  0
   -2.0950   -3.3059   -0.5676 H   0  0  0  0  0  0  0  0  0  0  0  0
   -3.7422   -2.6630   -0.5179 H   0  0  0  0  0  0  0  0  0  0  0  0
   -2.9230   -3.0898    0.9906 H   0  0  0  0  0  0  0  0  0  0  0  0
  1  4  1  0  0  0  0
  1 14  1  0  0  0  0
  2 14  2  0  0  0  0
  3  6  1  0  0  0  0
  3  9  1  0  0  0  0
  3 12  1  0  0  0  0
  4  5  1  0  0  0  0
  4  7  1  0  0  0  0
  4 11  1  0  0  0  0
  5  8  1  0  0  0  0
  5  9  1  0  0  0  0
  5 17  1  0  0  0  0
  6  7  1  0  0  0  0
  6 10  1  0  0  0  0
  6 18  1  0  0  0  0
  7 19  1  0  0  0  0
  7 20  1  0  0  0  0
  8 10  1  0  0  0  0
  8 21  1  0  0  0  0
  8 22  1  0  0  0  0
  9 23  1  0  0  0  0
  9 24  1  0  0  0  0
 10 25  1  0  0  0  0
 10 26  1  0  0  0  0
 11 13  1  0  0  0  0
 11 27  1  0  0  0  0
 11 28  1  0  0  0  0
 12 29  1  0  0  0  0
 12 30  1  0  0  0  0
 12 31  1  0  0  0  0
 13 15  2  0  0  0  0
 13 16  1  0  0  0  0
 14 15  1  0  0  0  0
 15 32  1  0  0  0  0
 16 33  1  0  0  0  0
 16 34  1  0  0  0  0
 16 35  1  0  0  0  0
M  END
> <PUBCHEM_COMPOUND_CID>
442635

> <PUBCHEM_CONFORMER_RMSD>
0.6

> <PUBCHEM_CONFORMER_DIVERSEORDER>
1
2

> <PUBCHEM_MMFF94_PARTIAL_CHARGES>
13
1 -0.43
11 0.14
12 0.27
13 -0.28
14 0.71
15 -0.14
16 0.14
2 -0.57
3 -0.81
32 0.15
4 0.28
6 0.27
9 0.27

> <PUBCHEM_EFFECTIVE_ROTOR_COUNT>
1.4

> <PUBCHEM_PHARMACOPHORE_FEATURES>
4
1 2 acceptor
1 3 cation
6 1 4 11 13 14 15 rings
8 3 4 5 6 7 8 9 10 rings

> <PUBCHEM_HEAVY_ATOM_COUNT>
16

> <PUBCHEM_ATOM_DEF_STEREO_COUNT>
3

> <PUBCHEM_ATOM_UDEF_STEREO_COUNT>
0

> <PUBCHEM_BOND_DEF_STEREO_COUNT>
0

> <PUBCHEM_BOND_UDEF_STEREO_COUNT>
0

> <PUBCHEM_ISOTOPIC_ATOM_COUNT>
0

> <PUBCHEM_COMPONENT_COUNT>
1

> <PUBCHEM_CACTVS_TAUTO_COUNT>
1

> <PUBCHEM_CONFORMER_ID>
0006C10B00000001

> <PUBCHEM_MMFF94_ENERGY>
46.3172

> <PUBCHEM_FEATURE_SELFOVERLAP>
20.298

> <PUBCHEM_SHAPE_FINGERPRINT>
10756046 5 18335151885870139268
10863032 1 18411702080219287212
10922523 26 18411700950342279423
12326174 3 16988565761969664352
12423570 1 15665636236156917528
12491281 212 17822304482392790004
12500047 106 18338228258958602934
12716758 59 18411134710728564091
12932764 1 18339092578288045635
13538477 17 18113612400517970515
13571099 22 18129378198711214742
14115302 16 18338805493952294685
14252887 29 17978521059059277811
14648413 74 18411982464074039416
15207287 21 17558258826487499750
15219456 202 18272649090505627472
15375462 6 18196653110299498679
15775835 57 17895479115851787877
16945 1 18264766562796965432
17990270 104 18412544327474379946
18186145 218 18263914463335652445
18511873 20 18190745219648822808
18522853 266 18409167701316321695
20344682 6 17905058293054572820
20511035 2 18130776846163258884
21069387 34 17273966956878987847
21501502 16 18410579517074629129
21524375 3 17971190327484796701
22802520 49 18412266155295735075
23184049 29 18337382829117172859
23402539 116 17973149909980511268
23419403 2 16908021875353844376
23552423 10 18259982703721552059
23557571 272 18191860335124991339
23559900 14 18198621039484056530
2748010 2 18410568526496054769
3060560 45 17902215733743749909
528886 8 16081949048171825680
5845 1 14548746053682737800
7364860 26 18341612659292498536
74978 22 18408602530864795197
7832392 63 18114182995054606820
8030462 33 17822008761030586123
81228 2 18261954175947667593

> <PUBCHEM_SHAPE_MULTIPOLES>
312.55
4.88
2.35
1.14
1.47
0.33
0.08
1.02
-0.68
0.77
-0.17
-0.61
0
0.46

> <PUBCHEM_SHAPE_SELFOVERLAP>
667.06

> <PUBCHEM_SHAPE_VOLUME>
172

> <PUBCHEM_COORDINATE_TYPE>
2
5
10

$$$$
