44256715
  -OEChem-09012009453D

 53 56  0     1  0  0  0  0  0999 V2000
   -1.0801    2.4218    0.4446 O   0  0  0  0  0  0  0  0  0  0  0  0
   -0.5719    0.2844    1.2705 O   0  0  0  0  0  0  0  0  0  0  0  0
   -4.9972    1.3243   -0.3247 O   0  0  0  0  0  0  0  0  0  0  0  0
   -3.8744    3.6662   -1.5904 O   0  0  0  0  0  0  0  0  0  0  0  0
   -3.1836    1.0874    1.7811 O   0  0  0  0  0  0  0  0  0  0  0  0
    0.0424    4.7744   -0.3961 O   0  0  0  0  0  0  0  0  0  0  0  0
    2.0508   -1.6341   -0.4978 O   0  3  0  0  0  0  0  0  0  0  0  0
    4.1243    2.3451    1.3648 O   0  0  0  0  0  0  0  0  0  0  0  0
    6.7016   -0.7200   -1.2031 O   0  0  0  0  0  0  0  0  0  0  0  0
   -2.6207   -4.1234    1.8521 O   0  0  0  0  0  0  0  0  0  0  0  0
   -3.5037   -4.7148   -0.7166 O   0  0  0  0  0  0  0  0  0  0  0  0
   -3.6036    1.4987   -0.5652 C   0  0  1  0  0  0  0  0  0  0  0  0
   -3.2635    2.9897   -0.4946 C   0  0  1  0  0  0  0  0  0  0  0  0
   -2.7910    0.7065    0.4588 C   0  0  1  0  0  0  0  0  0  0  0  0
   -1.7438    3.1969   -0.5592 C   0  0  1  0  0  0  0  0  0  0  0  0
   -1.3039    1.0182    0.2935 C   0  0  1  0  0  0  0  0  0  0  0  0
   -1.3672    4.6578   -0.3345 C   0  0  0  0  0  0  0  0  0  0  0  0
    0.6876   -0.0419    0.8232 C   0  0  0  0  0  0  0  0  0  0  0  0
    0.9113   -1.2980    0.0394 C   0  0  0  0  0  0  0  0  0  0  0  0
    1.7540    0.7468    1.0091 C   0  0  0  0  0  0  0  0  0  0  0  0
    3.0543    0.3847    0.4566 C   0  0  0  0  0  0  0  0  0  0  0  0
    3.1598   -0.7919   -0.2925 C   0  0  0  0  0  0  0  0  0  0  0  0
   -0.2502   -2.1970   -0.1559 C   0  0  0  0  0  0  0  0  0  0  0  0
    4.1823    1.1888    0.6441 C   0  0  0  0  0  0  0  0  0  0  0  0
    4.3838   -1.1625   -0.8501 C   0  0  0  0  0  0  0  0  0  0  0  0
   -0.9003   -2.7467    0.9490 C   0  0  0  0  0  0  0  0  0  0  0  0
   -0.6932   -2.4938   -1.4447 C   0  0  0  0  0  0  0  0  0  0  0  0
    5.4063    0.8150    0.0863 C   0  0  0  0  0  0  0  0  0  0  0  0
    5.5067   -0.3589   -0.6603 C   0  0  0  0  0  0  0  0  0  0  0  0
   -1.9937   -3.5933    0.7651 C   0  0  0  0  0  0  0  0  0  0  0  0
   -1.7864   -3.3405   -1.6287 C   0  0  0  0  0  0  0  0  0  0  0  0
   -2.4367   -3.8901   -0.5238 C   0  0  0  0  0  0  0  0  0  0  0  0
   -3.4042    1.1215   -1.5760 H   0  0  0  0  0  0  0  0  0  0  0  0
   -3.6797    3.4237    0.4220 H   0  0  0  0  0  0  0  0  0  0  0  0
   -2.9922   -0.3659    0.3745 H   0  0  0  0  0  0  0  0  0  0  0  0
   -1.3502    2.8949   -1.5394 H   0  0  0  0  0  0  0  0  0  0  0  0
   -0.9966    0.7205   -0.7202 H   0  0  0  0  0  0  0  0  0  0  0  0
   -1.6860    4.9936    0.6580 H   0  0  0  0  0  0  0  0  0  0  0  0
   -1.8087    5.3081   -1.0957 H   0  0  0  0  0  0  0  0  0  0  0  0
   -5.1832    0.3706   -0.3639 H   0  0  0  0  0  0  0  0  0  0  0  0
   -3.5115    3.2956   -2.4129 H   0  0  0  0  0  0  0  0  0  0  0  0
   -2.8451    1.9817    1.9555 H   0  0  0  0  0  0  0  0  0  0  0  0
    0.2600    5.7102   -0.2459 H   0  0  0  0  0  0  0  0  0  0  0  0
    1.6547    1.6781    1.5565 H   0  0  0  0  0  0  0  0  0  0  0  0
    4.4554   -2.0790   -1.4290 H   0  0  0  0  0  0  0  0  0  0  0  0
   -0.5512   -2.5241    1.9547 H   0  0  0  0  0  0  0  0  0  0  0  0
   -0.1941   -2.0693   -2.3119 H   0  0  0  0  0  0  0  0  0  0  0  0
    6.2847    1.4395    0.2319 H   0  0  0  0  0  0  0  0  0  0  0  0
   -2.1214   -3.5629   -2.6382 H   0  0  0  0  0  0  0  0  0  0  0  0
    5.0045    2.7584    1.3801 H   0  0  0  0  0  0  0  0  0  0  0  0
    7.3685   -0.0505   -0.9724 H   0  0  0  0  0  0  0  0  0  0  0  0
   -2.1791   -3.8070    2.6588 H   0  0  0  0  0  0  0  0  0  0  0  0
   -3.6661   -4.8047   -1.6714 H   0  0  0  0  0  0  0  0  0  0  0  0
  1 15  1  0  0  0  0
  1 16  1  0  0  0  0
  2 16  1  0  0  0  0
  2 18  1  0  0  0  0
  3 12  1  0  0  0  0
  3 40  1  0  0  0  0
  4 13  1  0  0  0  0
  4 41  1  0  0  0  0
  5 14  1  0  0  0  0
  5 42  1  0  0  0  0
  6 17  1  0  0  0  0
  6 43  1  0  0  0  0
  7 19  2  0  0  0  0
  7 22  1  0  0  0  0
  8 24  1  0  0  0  0
  8 50  1  0  0  0  0
  9 29  1  0  0  0  0
  9 51  1  0  0  0  0
 10 30  1  0  0  0  0
 10 52  1  0  0  0  0
 11 32  1  0  0  0  0
 11 53  1  0  0  0  0
 12 13  1  0  0  0  0
 12 14  1  0  0  0  0
 12 33  1  0  0  0  0
 13 15  1  0  0  0  0
 13 34  1  0  0  0  0
 14 16  1  0  0  0  0
 14 35  1  0  0  0  0
 15 17  1  0  0  0  0
 15 36  1  0  0  0  0
 16 37  1  0  0  0  0
 17 38  1  0  0  0  0
 17 39  1  0  0  0  0
 18 19  1  0  0  0  0
 18 20  2  0  0  0  0
 19 23  1  0  0  0  0
 20 21  1  0  0  0  0
 20 44  1  0  0  0  0
 21 22  1  0  0  0  0
 21 24  2  0  0  0  0
 22 25  2  0  0  0  0
 23 26  2  0  0  0  0
 23 27  1  0  0  0  0
 24 28  1  0  0  0  0
 25 29  1  0  0  0  0
 25 45  1  0  0  0  0
 26 30  1  0  0  0  0
 26 46  1  0  0  0  0
 27 31  2  0  0  0  0
 27 47  1  0  0  0  0
 28 29  2  0  0  0  0
 28 48  1  0  0  0  0
 30 32  2  0  0  0  0
 31 32  1  0  0  0  0
 31 49  1  0  0  0  0
M  CHG  1   7   1
M  END
> <PUBCHEM_COMPOUND_CID>
44256715

> <PUBCHEM_CONFORMER_RMSD>
0.8

> <PUBCHEM_CONFORMER_DIVERSEORDER>
1
232
199
56
180
28
172
261
77
61
175
105
212
119
81
165
43
150
139
104
209
32
95
249
117
124
112
260
254
226
74
163
114
244
210
94
73
51
91
207
235
142
255
133
46
239
84
219
158
153
233
190
179
76
168
256
225
197
21
193
5
238
156
120
146
93
171
251
191
38
90
161
14
67
143
262
242
68
200
26
141
103
36
29
9
13
45
157
97
188
132
18
145
25
60
243
164
149
10
140
234
246
34
137
135
223
115
86
241
174
41
27
44
169
194
70
89
222
19
162
20
53
253
155
39
58
125
259
35
12
30
4
47
248
176
31
96
102
111
11
182
208
23
8
240
252
100
83
187
183
87
245
205
106
211
250
122
121
123
218
258
79
64
52
213
228
101
177
80
215
92
204
85
131
7
2
128
217
24
198
66
40
129
159
134
62
71
170
216
6
37
203
69
108
173
189
54
130
221
229
195
116
186
3
63
148
181
231
50
22
57
144
152
99
201
15
185
138
33
72
160
65
109
247
126
154
75
16
59
48
167
78
98
227
113
127
88
192
136
107
49
178
237
196
184
118
42
230
214
82
206
166
224
220
202
151
257
147
17
110
55
236

> <PUBCHEM_MMFF94_PARTIAL_CHARGES>
46
1 -0.56
10 -0.53
11 -0.53
12 0.28
13 0.28
14 0.28
15 0.28
16 0.56
17 0.28
18 0.09
19 0.85
2 -0.36
20 -0.18
21 0.03
22 0.92
23 0.09
24 0.08
25 -0.15
26 -0.15
27 -0.15
28 -0.15
29 0.08
3 -0.68
30 0.08
31 -0.15
32 0.08
4 -0.68
40 0.4
41 0.4
42 0.4
43 0.4
44 0.15
45 0.15
46 0.15
47 0.15
48 0.15
49 0.15
5 -0.68
50 0.45
51 0.45
52 0.45
53 0.45
6 -0.68
7 -0.87
8 -0.53
9 -0.53

> <PUBCHEM_EFFECTIVE_ROTOR_COUNT>
5.2

> <PUBCHEM_PHARMACOPHORE_FEATURES>
18
1 1 acceptor
1 10 donor
1 11 donor
1 2 acceptor
1 3 acceptor
1 3 donor
1 4 acceptor
1 4 donor
1 5 acceptor
1 5 donor
1 6 acceptor
1 6 donor
1 8 donor
1 9 donor
6 1 12 13 14 15 16 rings
6 21 22 24 25 28 29 rings
6 23 26 27 30 31 32 rings
6 7 18 19 20 21 22 rings

> <PUBCHEM_HEAVY_ATOM_COUNT>
32

> <PUBCHEM_ATOM_DEF_STEREO_COUNT>
2

> <PUBCHEM_ATOM_UDEF_STEREO_COUNT>
3

> <PUBCHEM_BOND_DEF_STEREO_COUNT>
0

> <PUBCHEM_BOND_UDEF_STEREO_COUNT>
0

> <PUBCHEM_ISOTOPIC_ATOM_COUNT>
0

> <PUBCHEM_COMPONENT_COUNT>
1

> <PUBCHEM_CACTVS_TAUTO_COUNT>
171

> <PUBCHEM_CONFORMER_ID>
02A34DCB00000001

> <PUBCHEM_MMFF94_ENERGY>
101.3304

> <PUBCHEM_FEATURE_SELFOVERLAP>
91.456

> <PUBCHEM_SHAPE_FINGERPRINT>
10688039 33 18122906696572118382
11045515 52 18053375792976262942
11578080 2 16772090648286294850
11991303 11 18261395507433419687
12156800 1 17982482522165316727
12160290 23 18200855349336286235
12422481 6 18054252052583658691
12788726 201 18261943141639289747
13540713 4 18059288868738310400
1361 2 18266725919005703149
13690498 29 18198646470027478518
140371 6 17617092946760992938
14508225 48 18195523929090675239
15131766 46 15504094235800491430
15484559 13 17909816652846054829
1813 80 17839197542425141518
20101258 96 18192160510109792618
20587220 46 14896870453315948247
20775438 99 17696147703696394077
21033648 144 18272652351203696864
21033648 29 18337946788726116568
21133410 90 16987441017979140099
21641784 216 18048327935456653428
21703447 108 18197764713183626242
23175994 123 17903634425460523955
23227448 37 18412825811194084196
23559900 14 18060702780646588066
238 59 17908409265520704245
3380486 145 18266757950227881105
376196 1 17608367935242279401
4058900 60 18049449136400332697
513202 73 18339933726459785610
7164475 11 18194404618153820420
7237137 82 18198640997996114588
9981440 41 18045499707913587905

> <PUBCHEM_SHAPE_MULTIPOLES>
593.98
9.94
6.66
1.35
14.69
0.04
-0.11
-2.17
2.16
-9.93
1.21
-0.44
0.53
1.68

> <PUBCHEM_SHAPE_SELFOVERLAP>
1302.197

> <PUBCHEM_SHAPE_VOLUME>
316.6

> <PUBCHEM_COORDINATE_TYPE>
2
5
10

$$$$
