23265676
  -OEChem-09012009193D

 85 89  0     1  0  0  0  0  0999 V2000
    4.9721   -0.5039    0.3736 O   0  0  0  0  0  0  0  0  0  0  0  0
    3.0853   -2.7519    1.2238 O   0  0  0  0  0  0  0  0  0  0  0  0
   -4.4129   -2.5975   -1.0294 O   0  0  0  0  0  0  0  0  0  0  0  0
   -7.2736    1.9000   -0.4029 O   0  0  0  0  0  0  0  0  0  0  0  0
    4.9133    1.2461   -1.8320 O   0  0  0  0  0  0  0  0  0  0  0  0
    0.2547   -1.1793   -0.2839 C   0  0  2  0  0  0  0  0  0  0  0  0
    1.1485   -0.1198    0.4506 C   0  0  1  0  0  0  0  0  0  0  0  0
   -1.2269   -1.0146    0.1909 C   0  0  1  0  0  0  0  0  0  0  0  0
    2.5815   -0.5960    0.0841 C   0  0  2  0  0  0  0  0  0  0  0  0
    0.9539   -2.4861    0.1253 C   0  0  0  0  0  0  0  0  0  0  0  0
   -3.1798    0.7255    0.4695 C   0  0  2  0  0  0  0  0  0  0  0  0
   -1.6721    0.4642    0.1638 C   0  0  0  0  0  0  0  0  0  0  0  0
    2.4639   -2.1491    0.0995 C   0  0  2  0  0  0  0  0  0  0  0  0
   -4.0772   -0.2281   -0.4220 C   0  0  1  0  0  0  0  0  0  0  0  0
    0.7428    1.2680   -0.0699 C   0  0  0  0  0  0  0  0  0  0  0  0
   -2.1950   -1.9139   -0.5867 C   0  0  0  0  0  0  0  0  0  0  0  0
    3.7264   -0.0177    0.9104 C   0  0  2  0  0  0  0  0  0  0  0  0
   -3.6623   -1.7122   -0.2057 C   0  0  2  0  0  0  0  0  0  0  0  0
   -5.6407    0.0625   -0.3917 C   0  0  0  0  0  0  0  0  0  0  0  0
    0.3320   -1.0831   -1.8459 C   0  0  0  0  0  0  0  0  0  0  0  0
    0.9918   -0.1189    2.0060 C   0  0  0  0  0  0  0  0  0  0  0  0
   -0.7605    1.4556   -0.0029 C   0  0  0  0  0  0  0  0  0  0  0  0
   -3.5853    2.1998    0.1909 C   0  0  0  0  0  0  0  0  0  0  0  0
   -5.8918    1.5884   -0.5874 C   0  0  2  0  0  0  0  0  0  0  0  0
    3.7883    1.5049    0.8128 C   0  0  0  0  0  0  0  0  0  0  0  0
   -3.3208    0.4826    1.9960 C   0  0  0  0  0  0  0  0  0  0  0  0
   -5.0738    2.4736    0.3379 C   0  0  0  0  0  0  0  0  0  0  0  0
    3.6244   -0.4964    2.3613 C   0  0  0  0  0  0  0  0  0  0  0  0
    5.2669    1.7858    0.9392 C   0  0  0  0  0  0  0  0  0  0  0  0
    5.8973    0.5898    0.2445 C   0  0  2  0  0  0  0  0  0  0  0  0
   -6.3606   -0.6356   -1.5843 C   0  0  0  0  0  0  0  0  0  0  0  0
   -6.3367   -0.4591    0.8833 C   0  0  0  0  0  0  0  0  0  0  0  0
    6.1474    0.8298   -1.2382 C   0  0  0  0  0  0  0  0  0  0  0  0
    6.6017   -0.4576   -1.9329 C   0  0  0  0  0  0  0  0  0  0  0  0
    7.1779    1.9439   -1.4473 C   0  0  0  0  0  0  0  0  0  0  0  0
   -1.2833   -1.3459    1.2361 H   0  0  0  0  0  0  0  0  0  0  0  0
    2.7834   -0.3147   -0.9575 H   0  0  0  0  0  0  0  0  0  0  0  0
    0.7310   -3.3141   -0.5570 H   0  0  0  0  0  0  0  0  0  0  0  0
    0.6393   -2.8200    1.1211 H   0  0  0  0  0  0  0  0  0  0  0  0
    2.9372   -2.5581   -0.8007 H   0  0  0  0  0  0  0  0  0  0  0  0
   -3.7953    0.0039   -1.4634 H   0  0  0  0  0  0  0  0  0  0  0  0
    1.1908    2.0578    0.5414 H   0  0  0  0  0  0  0  0  0  0  0  0
    1.0792    1.4380   -1.0987 H   0  0  0  0  0  0  0  0  0  0  0  0
   -2.1199   -1.7432   -1.6672 H   0  0  0  0  0  0  0  0  0  0  0  0
   -1.9215   -2.9668   -0.4390 H   0  0  0  0  0  0  0  0  0  0  0  0
   -3.8318   -2.0200    0.8300 H   0  0  0  0  0  0  0  0  0  0  0  0
   -0.0856   -1.9818   -2.3143 H   0  0  0  0  0  0  0  0  0  0  0  0
    1.3513   -1.0069   -2.2311 H   0  0  0  0  0  0  0  0  0  0  0  0
   -0.2228   -0.2248   -2.2378 H   0  0  0  0  0  0  0  0  0  0  0  0
   -0.0315    0.1642    2.2821 H   0  0  0  0  0  0  0  0  0  0  0  0
    1.5654    0.6642    2.5001 H   0  0  0  0  0  0  0  0  0  0  0  0
    1.0916   -1.0998    2.4704 H   0  0  0  0  0  0  0  0  0  0  0  0
   -1.0666    2.4963   -0.0184 H   0  0  0  0  0  0  0  0  0  0  0  0
   -3.2895    2.4766   -0.8305 H   0  0  0  0  0  0  0  0  0  0  0  0
   -3.0553    2.8807    0.8696 H   0  0  0  0  0  0  0  0  0  0  0  0
   -5.6448    1.8551   -1.6240 H   0  0  0  0  0  0  0  0  0  0  0  0
    3.4264    1.8764   -0.1494 H   0  0  0  0  0  0  0  0  0  0  0  0
    3.2193    2.0268    1.5879 H   0  0  0  0  0  0  0  0  0  0  0  0
   -4.2839    0.7972    2.3957 H   0  0  0  0  0  0  0  0  0  0  0  0
   -3.1810   -0.5640    2.2792 H   0  0  0  0  0  0  0  0  0  0  0  0
   -2.5696    1.0609    2.5501 H   0  0  0  0  0  0  0  0  0  0  0  0
   -5.4055    2.3632    1.3757 H   0  0  0  0  0  0  0  0  0  0  0  0
   -5.2692    3.5266    0.0955 H   0  0  0  0  0  0  0  0  0  0  0  0
    3.4821    0.3416    3.0555 H   0  0  0  0  0  0  0  0  0  0  0  0
    4.6063   -0.8944    2.6609 H   0  0  0  0  0  0  0  0  0  0  0  0
    2.9459   -1.2767    2.6759 H   0  0  0  0  0  0  0  0  0  0  0  0
    5.5483    2.7697    0.5610 H   0  0  0  0  0  0  0  0  0  0  0  0
    5.5412    1.7653    2.0018 H   0  0  0  0  0  0  0  0  0  0  0  0
    6.8309    0.3029    0.7422 H   0  0  0  0  0  0  0  0  0  0  0  0
   -6.5027   -1.7069   -1.4195 H   0  0  0  0  0  0  0  0  0  0  0  0
   -5.8073   -0.4972   -2.5196 H   0  0  0  0  0  0  0  0  0  0  0  0
   -7.3669   -0.2291   -1.7408 H   0  0  0  0  0  0  0  0  0  0  0  0
   -7.4281   -0.4136    0.7827 H   0  0  0  0  0  0  0  0  0  0  0  0
   -6.0869   -1.5056    1.0828 H   0  0  0  0  0  0  0  0  0  0  0  0
   -6.0910    0.1222    1.7711 H   0  0  0  0  0  0  0  0  0  0  0  0
    2.9388   -3.7111    1.1601 H   0  0  0  0  0  0  0  0  0  0  0  0
   -4.1409   -3.5059   -0.8140 H   0  0  0  0  0  0  0  0  0  0  0  0
   -7.3902    2.8468   -0.5916 H   0  0  0  0  0  0  0  0  0  0  0  0
    6.7976   -0.2761   -2.9962 H   0  0  0  0  0  0  0  0  0  0  0  0
    7.5146   -0.8580   -1.4802 H   0  0  0  0  0  0  0  0  0  0  0  0
    5.8245   -1.2292   -1.9003 H   0  0  0  0  0  0  0  0  0  0  0  0
    7.4188    2.0459   -2.5124 H   0  0  0  0  0  0  0  0  0  0  0  0
    6.8021    2.9247   -1.1418 H   0  0  0  0  0  0  0  0  0  0  0  0
    8.1093    1.7365   -0.9107 H   0  0  0  0  0  0  0  0  0  0  0  0
    5.0740    1.4025   -2.7782 H   0  0  0  0  0  0  0  0  0  0  0  0
  1 17  1  0  0  0  0
  1 30  1  0  0  0  0
  2 13  1  0  0  0  0
  2 76  1  0  0  0  0
  3 18  1  0  0  0  0
  3 77  1  0  0  0  0
  4 24  1  0  0  0  0
  4 78  1  0  0  0  0
  5 33  1  0  0  0  0
  5 85  1  0  0  0  0
  6  7  1  0  0  0  0
  6  8  1  0  0  0  0
  6 10  1  0  0  0  0
  6 20  1  0  0  0  0
  7  9  1  0  0  0  0
  7 15  1  0  0  0  0
  7 21  1  0  0  0  0
  8 12  1  0  0  0  0
  8 16  1  0  0  0  0
  8 36  1  0  0  0  0
  9 13  1  0  0  0  0
  9 17  1  0  0  0  0
  9 37  1  0  0  0  0
 10 13  1  0  0  0  0
 10 38  1  0  0  0  0
 10 39  1  0  0  0  0
 11 12  1  0  0  0  0
 11 14  1  0  0  0  0
 11 23  1  0  0  0  0
 11 26  1  0  0  0  0
 12 22  2  0  0  0  0
 13 40  1  0  0  0  0
 14 18  1  0  0  0  0
 14 19  1  0  0  0  0
 14 41  1  0  0  0  0
 15 22  1  0  0  0  0
 15 42  1  0  0  0  0
 15 43  1  0  0  0  0
 16 18  1  0  0  0  0
 16 44  1  0  0  0  0
 16 45  1  0  0  0  0
 17 25  1  0  0  0  0
 17 28  1  0  0  0  0
 18 46  1  0  0  0  0
 19 24  1  0  0  0  0
 19 31  1  0  0  0  0
 19 32  1  0  0  0  0
 20 47  1  0  0  0  0
 20 48  1  0  0  0  0
 20 49  1  0  0  0  0
 21 50  1  0  0  0  0
 21 51  1  0  0  0  0
 21 52  1  0  0  0  0
 22 53  1  0  0  0  0
 23 27  1  0  0  0  0
 23 54  1  0  0  0  0
 23 55  1  0  0  0  0
 24 27  1  0  0  0  0
 24 56  1  0  0  0  0
 25 29  1  0  0  0  0
 25 57  1  0  0  0  0
 25 58  1  0  0  0  0
 26 59  1  0  0  0  0
 26 60  1  0  0  0  0
 26 61  1  0  0  0  0
 27 62  1  0  0  0  0
 27 63  1  0  0  0  0
 28 64  1  0  0  0  0
 28 65  1  0  0  0  0
 28 66  1  0  0  0  0
 29 30  1  0  0  0  0
 29 67  1  0  0  0  0
 29 68  1  0  0  0  0
 30 33  1  0  0  0  0
 30 69  1  0  0  0  0
 31 70  1  0  0  0  0
 31 71  1  0  0  0  0
 31 72  1  0  0  0  0
 32 73  1  0  0  0  0
 32 74  1  0  0  0  0
 32 75  1  0  0  0  0
 33 34  1  0  0  0  0
 33 35  1  0  0  0  0
 34 79  1  0  0  0  0
 34 80  1  0  0  0  0
 34 81  1  0  0  0  0
 35 82  1  0  0  0  0
 35 83  1  0  0  0  0
 35 84  1  0  0  0  0
M  END
> <PUBCHEM_COMPOUND_CID>
23265676

> <PUBCHEM_CONFORMER_RMSD>
0.8

> <PUBCHEM_CONFORMER_DIVERSEORDER>
1
3
4
2

> <PUBCHEM_MMFF94_PARTIAL_CHARGES>
21
1 -0.56
11 0.14
12 -0.28
13 0.28
15 0.14
17 0.28
18 0.28
2 -0.68
22 -0.29
24 0.28
3 -0.68
30 0.28
33 0.28
4 -0.68
5 -0.68
53 0.15
76 0.4
77 0.4
78 0.4
8 0.14
85 0.4

> <PUBCHEM_EFFECTIVE_ROTOR_COUNT>
5

> <PUBCHEM_PHARMACOPHORE_FEATURES>
16
1 1 acceptor
1 2 acceptor
1 2 donor
1 3 acceptor
1 3 donor
1 4 acceptor
1 4 donor
1 5 acceptor
1 5 donor
3 19 31 32 hydrophobe
3 33 34 35 hydrophobe
5 1 17 25 29 30 rings
5 6 7 9 10 13 rings
6 11 14 19 23 24 27 rings
6 6 7 8 12 15 22 rings
6 8 11 12 14 16 18 rings

> <PUBCHEM_HEAVY_ATOM_COUNT>
35

> <PUBCHEM_ATOM_DEF_STEREO_COUNT>
11

> <PUBCHEM_ATOM_UDEF_STEREO_COUNT>
0

> <PUBCHEM_BOND_DEF_STEREO_COUNT>
0

> <PUBCHEM_BOND_UDEF_STEREO_COUNT>
0

> <PUBCHEM_ISOTOPIC_ATOM_COUNT>
0

> <PUBCHEM_COMPONENT_COUNT>
1

> <PUBCHEM_CACTVS_TAUTO_COUNT>
1

> <PUBCHEM_CONFORMER_ID>
0163018C00000001

> <PUBCHEM_MMFF94_ENERGY>
185.2637

> <PUBCHEM_FEATURE_SELFOVERLAP>
81.293

> <PUBCHEM_SHAPE_FINGERPRINT>
10 15 18260551109180075921
10190206 1 18060151929236835888
10290309 65 18272092656920525319
10554248 39 18191285118634632167
10591671 39 18412546535240427591
10670039 82 17774730770649347928
10906281 52 18186809075348315419
11007060 377 18268433619307981152
11488393 25 17202221624471065598
11578080 2 17605540068670996589
11991303 11 16988554757999774079
12011746 2 17846494837862942441
12107698 1 14692574316552696073
12236239 1 18040150712545321691
12516196 113 12901546844814088428
12596602 18 17530682100321935713
13782708 43 12751229316215605381
14294032 229 18262518079221259916
14347332 77 10015862081205625859
14528608 73 18341610417061094192
14790565 3 18338514274079969600
14840074 17 17967814954982312116
14856354 85 18338800125934563879
14931854 50 17774715369234195289
15001296 14 18265324182812790120
15131766 46 16444762768928432892
15183329 4 17060069146507738574
15352257 5 15267059280836783237
15685185 35 17243316078229456780
1577012 14 18335134272594496677
15840311 113 17821732701902082652
15961568 22 18187930547065346189
1601671 61 18411978061911746768
17980427 23 17676212394022160487
18608769 82 18339365283638539507
18681886 176 18131061679656929409
19611394 137 17969237792175197921
20511986 3 18261938688110903651
21033648 29 17560221630984445370
21033650 10 16128106533774323907
21130935 74 12396571914980980129
22061861 79 15769775766790368020
22122407 14 17676781940819183380
22393880 68 18202279234205616954
23559900 14 17489583510715942137
23569914 152 15980335314422242981
23569943 247 13613975348218469156
23576562 1 18265336298809966228
24771293 8 18267855267803004112
27425 322 17896047706094028390
2747138 104 18192998351161515459
3383291 50 9655573019878892509
34797466 226 17489306438123219416
350125 39 18342735243526741369
394071 54 16443069404698694812
397830 11 13118290295185489892
4058900 60 18261115149301479066
4073 2 18041001751894512219
4340502 62 16081085978920622034
439807 62 10807922791961896805
445580 37 18412831299914264749
504579 68 18412816997704857007
5104073 3 18337110047744879843
5265222 85 18272090555831223623
59755656 215 18131070419915149356
6086070 43 17775563139521390330
6328613 192 18335140899133046149

> <PUBCHEM_SHAPE_MULTIPOLES>
690.94
18.28
2.54
1.68
1.07
0.43
-0.15
-7.97
6.35
-0.97
0.15
1.76
0.08
-1.17

> <PUBCHEM_SHAPE_SELFOVERLAP>
1478.373

> <PUBCHEM_SHAPE_VOLUME>
381.7

> <PUBCHEM_COORDINATE_TYPE>
2
5
10

$$$$
