12306054
  -OEChem-09242016363D

 39 40  0     1  0  0  0  0  0999 V2000
    1.5113   -0.3033   -0.1876 C   0  0  2  0  0  0  0  0  0  0  0  0
    0.1282    0.2748   -0.5938 C   0  0  1  0  0  0  0  0  0  0  0  0
    1.3815   -1.2407    1.0109 C   0  0  0  0  0  0  0  0  0  0  0  0
   -0.9819   -0.7800   -0.5530 C   0  0  0  0  0  0  0  0  0  0  0  0
    2.5963    0.7478    0.0504 C   0  0  0  0  0  0  0  0  0  0  0  0
    0.4724   -2.4163    0.6573 C   0  0  0  0  0  0  0  0  0  0  0  0
   -0.8183   -2.0115   -0.0204 C   0  0  0  0  0  0  0  0  0  0  0  0
   -2.2864   -0.2143   -1.0626 C   0  0  0  0  0  0  0  0  0  0  0  0
   -0.3299    1.5135    0.1545 C   0  0  0  0  0  0  0  0  0  0  0  0
   -2.7454    0.9095   -0.1210 C   0  0  0  0  0  0  0  0  0  0  0  0
   -1.6278    1.8040    0.3713 C   0  0  0  0  0  0  0  0  0  0  0  0
    3.9368    0.0720    0.3111 C   0  0  0  0  0  0  0  0  0  0  0  0
    2.6853    1.6931   -1.1413 C   0  0  0  0  0  0  0  0  0  0  0  0
   -1.8702   -3.0877    0.0147 C   0  0  0  0  0  0  0  0  0  0  0  0
   -2.0521    3.0392    1.1096 C   0  0  0  0  0  0  0  0  0  0  0  0
    1.8439   -0.9231   -1.0363 H   0  0  0  0  0  0  0  0  0  0  0  0
    0.2309    0.5797   -1.6462 H   0  0  0  0  0  0  0  0  0  0  0  0
    0.9754   -0.6982    1.8743 H   0  0  0  0  0  0  0  0  0  0  0  0
    2.3383   -1.6660    1.3246 H   0  0  0  0  0  0  0  0  0  0  0  0
    2.3659    1.3421    0.9429 H   0  0  0  0  0  0  0  0  0  0  0  0
    0.2484   -2.9602    1.5834 H   0  0  0  0  0  0  0  0  0  0  0  0
    1.0076   -3.1122   -0.0011 H   0  0  0  0  0  0  0  0  0  0  0  0
   -2.1332    0.1828   -2.0746 H   0  0  0  0  0  0  0  0  0  0  0  0
   -3.0873   -0.9513   -1.1499 H   0  0  0  0  0  0  0  0  0  0  0  0
    0.4102    2.2240    0.5063 H   0  0  0  0  0  0  0  0  0  0  0  0
   -3.2401    0.4666    0.7533 H   0  0  0  0  0  0  0  0  0  0  0  0
   -3.4975    1.5127   -0.6437 H   0  0  0  0  0  0  0  0  0  0  0  0
    4.1628   -0.6908   -0.4417 H   0  0  0  0  0  0  0  0  0  0  0  0
    4.7491    0.8077    0.2849 H   0  0  0  0  0  0  0  0  0  0  0  0
    3.9824   -0.3889    1.3020 H   0  0  0  0  0  0  0  0  0  0  0  0
    2.8715    1.1415   -2.0698 H   0  0  0  0  0  0  0  0  0  0  0  0
    3.5180    2.3937   -1.0084 H   0  0  0  0  0  0  0  0  0  0  0  0
    1.7934    2.3053   -1.2880 H   0  0  0  0  0  0  0  0  0  0  0  0
   -2.2405   -3.2189    1.0366 H   0  0  0  0  0  0  0  0  0  0  0  0
   -1.4413   -4.0392   -0.3194 H   0  0  0  0  0  0  0  0  0  0  0  0
   -2.7254   -2.8923   -0.6342 H   0  0  0  0  0  0  0  0  0  0  0  0
   -1.1972    3.6350    1.4463 H   0  0  0  0  0  0  0  0  0  0  0  0
   -2.6382    2.7688    1.9939 H   0  0  0  0  0  0  0  0  0  0  0  0
   -2.6679    3.6744    0.4647 H   0  0  0  0  0  0  0  0  0  0  0  0
  1  2  1  0  0  0  0
  1  3  1  0  0  0  0
  1  5  1  0  0  0  0
  1 16  1  0  0  0  0
  2  4  1  0  0  0  0
  2  9  1  0  0  0  0
  2 17  1  0  0  0  0
  3  6  1  0  0  0  0
  3 18  1  0  0  0  0
  3 19  1  0  0  0  0
  4  7  2  0  0  0  0
  4  8  1  0  0  0  0
  5 12  1  0  0  0  0
  5 13  1  0  0  0  0
  5 20  1  0  0  0  0
  6  7  1  0  0  0  0
  6 21  1  0  0  0  0
  6 22  1  0  0  0  0
  7 14  1  0  0  0  0
  8 10  1  0  0  0  0
  8 23  1  0  0  0  0
  8 24  1  0  0  0  0
  9 11  2  0  0  0  0
  9 25  1  0  0  0  0
 10 11  1  0  0  0  0
 10 26  1  0  0  0  0
 10 27  1  0  0  0  0
 11 15  1  0  0  0  0
 12 28  1  0  0  0  0
 12 29  1  0  0  0  0
 12 30  1  0  0  0  0
 13 31  1  0  0  0  0
 13 32  1  0  0  0  0
 13 33  1  0  0  0  0
 14 34  1  0  0  0  0
 14 35  1  0  0  0  0
 14 36  1  0  0  0  0
 15 37  1  0  0  0  0
 15 38  1  0  0  0  0
 15 39  1  0  0  0  0
M  END
> <PUBCHEM_COMPOUND_CID>
12306054

> <PUBCHEM_CONFORMER_RMSD>
0.6

> <PUBCHEM_CONFORMER_DIVERSEORDER>
1
2

> <PUBCHEM_MMFF94_PARTIAL_CHARGES>
11
10 0.14
11 -0.28
14 0.14
15 0.14
2 0.28
25 0.15
4 -0.28
6 0.14
7 -0.28
8 0.14
9 -0.29

> <PUBCHEM_EFFECTIVE_ROTOR_COUNT>
2

> <PUBCHEM_PHARMACOPHORE_FEATURES>
3
3 5 12 13 hydrophobe
6 1 2 3 4 6 7 rings
6 2 4 8 9 10 11 rings

> <PUBCHEM_HEAVY_ATOM_COUNT>
15

> <PUBCHEM_ATOM_DEF_STEREO_COUNT>
2

> <PUBCHEM_ATOM_UDEF_STEREO_COUNT>
0

> <PUBCHEM_BOND_DEF_STEREO_COUNT>
0

> <PUBCHEM_BOND_UDEF_STEREO_COUNT>
0

> <PUBCHEM_ISOTOPIC_ATOM_COUNT>
0

> <PUBCHEM_COMPONENT_COUNT>
1

> <PUBCHEM_CACTVS_TAUTO_COUNT>
1

> <PUBCHEM_CONFORMER_ID>
00BBC68600000001

> <PUBCHEM_MMFF94_ENERGY>
25.4103

> <PUBCHEM_FEATURE_SELFOVERLAP>
15.268

> <PUBCHEM_SHAPE_FINGERPRINT>
108231 29 17905323279536003923
12491281 212 18408610240589450608
12696612 119 17618784652595160307
13027679 85 17544483410496574933
13140716 1 18267300030866184161
13538477 17 18335700585043119684
14617773 55 18191593153773048386
14713566 1 18335689581178573714
14761567 1 18048005718356908095
14817 1 12747877115631180461
15279307 12 18334857186541599706
15490181 8 18267868289547187967
15775835 57 18199749128864137536
15906896 17 18272649039203396959
16945 1 18342183292567788140
20510252 161 18192711378552247210
20511035 2 17121685528867234509
20671657 1 17479182959730433745
21029758 11 17907571789457539863
21524375 3 18128256688145306813
22802520 49 18130805472378814638
2334 1 17906166609238743893
23402539 116 18272075128308709591
23419403 2 17184994780933602783
23557571 272 18125162890685337012
23558518 356 18341057302435055359
23559900 14 18341887529300663024
2748010 2 17398089579209386734
305870 269 18121783828906509248
352729 6 18409728486527416262
353137 74 18410283709866099741
430814 3 18267304222828189328
528862 383 18044653096644186928
53812653 8 18340482279449754161
6992083 37 18186799163022771180
7364860 26 17693661415678897237
81228 2 18193570075495160504

> <PUBCHEM_SHAPE_MULTIPOLES>
308.69
4.53
3.34
1.02
3.36
0.71
0.02
-1.69
0.18
-2.33
-0.9
-0.01
-0.24
-1.07

> <PUBCHEM_SHAPE_SELFOVERLAP>
629.261

> <PUBCHEM_SHAPE_VOLUME>
177.9

> <PUBCHEM_COORDINATE_TYPE>
2
5
10

$$$$
