268740
  -OEChem-09242017263D

 15 15  0     0  0  0  0  0  0999 V2000
    3.4290    0.0975    0.0012 O   0  0  0  0  0  0  0  0  0  0  0  0
   -2.6206    1.2077    0.0009 O   0  0  0  0  0  0  0  0  0  0  0  0
   -2.8279   -1.0559    0.0005 O   0  0  0  0  0  0  0  0  0  0  0  0
   -0.0593    1.1545   -0.0007 N   0  0  0  0  0  0  0  0  0  0  0  0
   -0.6523   -0.0604   -0.0006 C   0  0  0  0  0  0  0  0  0  0  0  0
    0.0393   -1.2610   -0.0004 C   0  0  0  0  0  0  0  0  0  0  0  0
    1.4289   -1.2116   -0.0001 C   0  0  0  0  0  0  0  0  0  0  0  0
    2.0753    0.0194   -0.0001 C   0  0  0  0  0  0  0  0  0  0  0  0
    1.2925    1.1627   -0.0006 C   0  0  0  0  0  0  0  0  0  0  0  0
   -2.1050   -0.0529   -0.0001 C   0  0  0  0  0  0  0  0  0  0  0  0
   -0.4680   -2.2198   -0.0003 H   0  0  0  0  0  0  0  0  0  0  0  0
    2.0023   -2.1343    0.0004 H   0  0  0  0  0  0  0  0  0  0  0  0
    1.7383    2.1526   -0.0004 H   0  0  0  0  0  0  0  0  0  0  0  0
    3.6893    1.0348    0.0013 H   0  0  0  0  0  0  0  0  0  0  0  0
   -3.6016    1.2004    0.0017 H   0  0  0  0  0  0  0  0  0  0  0  0
  1  8  1  0  0  0  0
  1 14  1  0  0  0  0
  2 10  1  0  0  0  0
  2 15  1  0  0  0  0
  3 10  2  0  0  0  0
  4  5  2  0  0  0  0
  4  9  1  0  0  0  0
  5  6  1  0  0  0  0
  5 10  1  0  0  0  0
  6  7  2  0  0  0  0
  6 11  1  0  0  0  0
  7  8  1  0  0  0  0
  7 12  1  0  0  0  0
  8  9  2  0  0  0  0
  9 13  1  0  0  0  0
M  END
> <PUBCHEM_COMPOUND_CID>
268740

> <PUBCHEM_CONFORMER_RMSD>
0.4

> <PUBCHEM_CONFORMER_DIVERSEORDER>
1
2

> <PUBCHEM_MMFF94_PARTIAL_CHARGES>
15
1 -0.53
10 0.63
11 0.15
12 0.15
13 0.15
14 0.45
15 0.5
2 -0.65
3 -0.57
4 -0.62
5 0.4
6 -0.15
7 -0.15
8 0.08
9 0.16

> <PUBCHEM_EFFECTIVE_ROTOR_COUNT>
1

> <PUBCHEM_PHARMACOPHORE_FEATURES>
6
1 1 donor
1 2 acceptor
1 3 acceptor
1 4 acceptor
3 2 3 10 anion
6 4 5 6 7 8 9 rings

> <PUBCHEM_HEAVY_ATOM_COUNT>
10

> <PUBCHEM_ATOM_DEF_STEREO_COUNT>
0

> <PUBCHEM_ATOM_UDEF_STEREO_COUNT>
0

> <PUBCHEM_BOND_DEF_STEREO_COUNT>
0

> <PUBCHEM_BOND_UDEF_STEREO_COUNT>
0

> <PUBCHEM_ISOTOPIC_ATOM_COUNT>
0

> <PUBCHEM_COMPONENT_COUNT>
1

> <PUBCHEM_CACTVS_TAUTO_COUNT>
4

> <PUBCHEM_CONFORMER_ID>
000419C400000001

> <PUBCHEM_MMFF94_ENERGY>
24.3924

> <PUBCHEM_FEATURE_SELFOVERLAP>
30.518

> <PUBCHEM_SHAPE_FINGERPRINT>
10857977 72 18410846689810270371
12032990 46 18411990160803159398
12897270 3 18410853269895314007
12932764 1 17275096241146219231
14325111 11 18410855468966094180
16945 1 18410575131960629094
193761 8 17546165199609861222
21040471 1 18338797926441361062
23235685 24 18410007741253551876
23402655 69 18268695127293248477
23552423 10 18261116218594925766
2748010 2 18267305339498652294
29004967 10 18408608045523617170
5084963 1 18271810171802534323
528886 8 18411131407545285665

> <PUBCHEM_SHAPE_MULTIPOLES>
183.21
4.16
1.39
0.58
0.17
0.02
0
-0.13
0
0.16
0
-0.02
0.01
0

> <PUBCHEM_SHAPE_SELFOVERLAP>
386.358

> <PUBCHEM_SHAPE_VOLUME>
101.9

> <PUBCHEM_COORDINATE_TYPE>
2
5
10

$$$$
