11809448
  -OEChem-09242018253D

 56 55  0     1  0  0  0  0  0999 V2000
   -2.5276   -3.6349   -0.3415 P   0  0  0  0  0  0  0  0  0  0  0  0
   -2.0631   -2.3937    0.5857 O   0  0  0  0  0  0  0  0  0  0  0  0
   -2.9791   -2.9078   -1.7135 O   0  0  0  0  0  0  0  0  0  0  0  0
   -1.1372   -4.3565   -0.7432 O   0  0  0  0  0  0  0  0  0  0  0  0
   -3.5630   -4.5325    0.2706 O   0  0  0  0  0  0  0  0  0  0  0  0
   -0.7751   -0.3898    1.0960 C   0  0  1  0  0  0  0  0  0  0  0  0
    0.3792    0.4868    0.5530 C   0  0  0  0  0  0  0  0  0  0  0  0
   -2.0124    0.4687    1.4440 C   0  0  0  0  0  0  0  0  0  0  0  0
    1.7603   -0.1661    0.6735 C   0  0  0  0  0  0  0  0  0  0  0  0
   -2.6059    1.2130    0.2428 C   0  0  0  0  0  0  0  0  0  0  0  0
    2.8637    0.7815    0.1958 C   0  0  0  0  0  0  0  0  0  0  0  0
   -1.0852   -1.4986    0.0754 C   0  0  0  0  0  0  0  0  0  0  0  0
   -3.7735    2.1078    0.6671 C   0  0  0  0  0  0  0  0  0  0  0  0
    4.2409    0.1215    0.2846 C   0  0  0  0  0  0  0  0  0  0  0  0
    5.3474    1.0801   -0.1615 C   0  0  0  0  0  0  0  0  0  0  0  0
   -4.3447    2.8793   -0.5239 C   0  0  0  0  0  0  0  0  0  0  0  0
    6.7203    0.4066   -0.1036 C   0  0  0  0  0  0  0  0  0  0  0  0
   -5.4887    3.7975   -0.0946 C   0  0  0  0  0  0  0  0  0  0  0  0
    7.8618    1.3163   -0.5629 C   0  0  0  0  0  0  0  0  0  0  0  0
   -6.0371    4.5910   -1.2696 C   0  0  0  0  0  0  0  0  0  0  0  0
    9.2189    0.6297   -0.5741 C   0  0  0  0  0  0  0  0  0  0  0  0
   -0.4568   -0.8638    2.0342 H   0  0  0  0  0  0  0  0  0  0  0  0
    0.1956    0.7536   -0.4952 H   0  0  0  0  0  0  0  0  0  0  0  0
    0.4035    1.4281    1.1175 H   0  0  0  0  0  0  0  0  0  0  0  0
   -1.7307    1.1947    2.2174 H   0  0  0  0  0  0  0  0  0  0  0  0
   -2.7840   -0.1714    1.8895 H   0  0  0  0  0  0  0  0  0  0  0  0
    1.9446   -0.4455    1.7178 H   0  0  0  0  0  0  0  0  0  0  0  0
    1.7967   -1.0862    0.0805 H   0  0  0  0  0  0  0  0  0  0  0  0
   -2.9639    0.4991   -0.5069 H   0  0  0  0  0  0  0  0  0  0  0  0
   -1.8419    1.8353   -0.2352 H   0  0  0  0  0  0  0  0  0  0  0  0
    2.8528    1.6935    0.8050 H   0  0  0  0  0  0  0  0  0  0  0  0
    2.6679    1.0821   -0.8406 H   0  0  0  0  0  0  0  0  0  0  0  0
   -0.1797   -2.0773   -0.1287 H   0  0  0  0  0  0  0  0  0  0  0  0
   -1.4274   -1.0788   -0.8752 H   0  0  0  0  0  0  0  0  0  0  0  0
   -4.5612    1.4947    1.1216 H   0  0  0  0  0  0  0  0  0  0  0  0
   -3.4326    2.8162    1.4320 H   0  0  0  0  0  0  0  0  0  0  0  0
    4.4295   -0.2005    1.3160 H   0  0  0  0  0  0  0  0  0  0  0  0
    4.2568   -0.7778   -0.3432 H   0  0  0  0  0  0  0  0  0  0  0  0
    5.1501    1.4190   -1.1857 H   0  0  0  0  0  0  0  0  0  0  0  0
    5.3479    1.9697    0.4798 H   0  0  0  0  0  0  0  0  0  0  0  0
   -3.5507    3.4768   -0.9885 H   0  0  0  0  0  0  0  0  0  0  0  0
   -4.7034    2.1731   -1.2826 H   0  0  0  0  0  0  0  0  0  0  0  0
    6.9189    0.0718    0.9221 H   0  0  0  0  0  0  0  0  0  0  0  0
    6.7062   -0.4924   -0.7325 H   0  0  0  0  0  0  0  0  0  0  0  0
   -5.1385    4.4943    0.6757 H   0  0  0  0  0  0  0  0  0  0  0  0
   -6.2965    3.2033    0.3483 H   0  0  0  0  0  0  0  0  0  0  0  0
    7.9118    2.1940    0.0922 H   0  0  0  0  0  0  0  0  0  0  0  0
    7.6475    1.6858   -1.5728 H   0  0  0  0  0  0  0  0  0  0  0  0
   -6.4243    3.9242   -2.0467 H   0  0  0  0  0  0  0  0  0  0  0  0
   -6.8549    5.2397   -0.9403 H   0  0  0  0  0  0  0  0  0  0  0  0
   -5.2607    5.2222   -1.7136 H   0  0  0  0  0  0  0  0  0  0  0  0
    9.2161   -0.2294   -1.2524 H   0  0  0  0  0  0  0  0  0  0  0  0
    9.9947    1.3256   -0.9079 H   0  0  0  0  0  0  0  0  0  0  0  0
    9.4850    0.2761    0.4271 H   0  0  0  0  0  0  0  0  0  0  0  0
   -3.3950   -3.4451   -2.4209 H   0  0  0  0  0  0  0  0  0  0  0  0
   -1.1670   -5.1889   -1.2612 H   0  0  0  0  0  0  0  0  0  0  0  0
  1  2  1  0  0  0  0
  1  3  1  0  0  0  0
  1  4  1  0  0  0  0
  1  5  2  0  0  0  0
  2 12  1  0  0  0  0
  3 55  1  0  0  0  0
  4 56  1  0  0  0  0
  6  7  1  0  0  0  0
  6  8  1  0  0  0  0
  6 12  1  0  0  0  0
  6 22  1  0  0  0  0
  7  9  1  0  0  0  0
  7 23  1  0  0  0  0
  7 24  1  0  0  0  0
  8 10  1  0  0  0  0
  8 25  1  0  0  0  0
  8 26  1  0  0  0  0
  9 11  1  0  0  0  0
  9 27  1  0  0  0  0
  9 28  1  0  0  0  0
 10 13  1  0  0  0  0
 10 29  1  0  0  0  0
 10 30  1  0  0  0  0
 11 14  1  0  0  0  0
 11 31  1  0  0  0  0
 11 32  1  0  0  0  0
 12 33  1  0  0  0  0
 12 34  1  0  0  0  0
 13 16  1  0  0  0  0
 13 35  1  0  0  0  0
 13 36  1  0  0  0  0
 14 15  1  0  0  0  0
 14 37  1  0  0  0  0
 14 38  1  0  0  0  0
 15 17  1  0  0  0  0
 15 39  1  0  0  0  0
 15 40  1  0  0  0  0
 16 18  1  0  0  0  0
 16 41  1  0  0  0  0
 16 42  1  0  0  0  0
 17 19  1  0  0  0  0
 17 43  1  0  0  0  0
 17 44  1  0  0  0  0
 18 20  1  0  0  0  0
 18 45  1  0  0  0  0
 18 46  1  0  0  0  0
 19 21  1  0  0  0  0
 19 47  1  0  0  0  0
 19 48  1  0  0  0  0
 20 49  1  0  0  0  0
 20 50  1  0  0  0  0
 20 51  1  0  0  0  0
 21 52  1  0  0  0  0
 21 53  1  0  0  0  0
 21 54  1  0  0  0  0
M  END
> <PUBCHEM_COMPOUND_CID>
11809448

> <PUBCHEM_CONFORMER_RMSD>
1.4

> <PUBCHEM_CONFORMER_DIVERSEORDER>
1
11
16
24
28
2
32
6
8
34
7
12
18
10
29
9
3
13
26
33
30
17
14
22
27
31
20
15
21
25
23
5
19
35
4

> <PUBCHEM_MMFF94_PARTIAL_CHARGES>
8
1 1.51
12 0.28
2 -0.55
3 -0.77
4 -0.77
5 -0.7
55 0.5
56 0.5

> <PUBCHEM_EFFECTIVE_ROTOR_COUNT>
15

> <PUBCHEM_PHARMACOPHORE_FEATURES>
6
1 20 hydrophobe
1 21 hydrophobe
1 3 acceptor
1 4 acceptor
1 5 acceptor
4 1 3 4 5 anion

> <PUBCHEM_HEAVY_ATOM_COUNT>
21

> <PUBCHEM_ATOM_DEF_STEREO_COUNT>
0

> <PUBCHEM_ATOM_UDEF_STEREO_COUNT>
1

> <PUBCHEM_BOND_DEF_STEREO_COUNT>
0

> <PUBCHEM_BOND_UDEF_STEREO_COUNT>
0

> <PUBCHEM_ISOTOPIC_ATOM_COUNT>
0

> <PUBCHEM_COMPONENT_COUNT>
1

> <PUBCHEM_CACTVS_TAUTO_COUNT>
1

> <PUBCHEM_CONFORMER_ID>
00B432A800000001

> <PUBCHEM_MMFF94_ENERGY>
-22.5543

> <PUBCHEM_FEATURE_SELFOVERLAP>
30.482

> <PUBCHEM_SHAPE_FINGERPRINT>
105312 117 18410859828189205429
11297750 10 17914046762225903449
11809386 21 18337951302968626170
13540713 5 18115289117091083466
13757389 114 18409448076919132933
167882 2 18122907525548162595
17539 30 18269828886726251187
19427546 20 18410857702380697778
20505436 4 18040714714897704056
20771845 165 18193566566633733844
21426921 1 18339645654016916058
21756936 100 17749113287471671912
23081809 10 17967817202479315616
23523787 8 17345452813930185277
4409770 3 18411417354400999299
504843 32 18336265661432678979
6025842 7 17836072387546333757
6327066 14 18262235508748040773
77188 2 17617097345124372123

> <PUBCHEM_SHAPE_MULTIPOLES>
412.54
20.02
6.09
1.11
51.56
5.32
0.08
-23.07
6.68
-17.62
2.6
-0.97
0.07
0.45

> <PUBCHEM_SHAPE_SELFOVERLAP>
742.896

> <PUBCHEM_SHAPE_VOLUME>
265.4

> <PUBCHEM_COORDINATE_TYPE>
2
5
10

$$$$
