4715126
  -OEChem-09242017273D

 18 18  0     0  0  0  0  0  0999 V2000
    2.3417   -0.8460    0.0001 O   0  0  0  0  0  0  0  0  0  0  0  0
   -3.7714   -0.3957    0.0008 O   0  0  0  0  0  0  0  0  0  0  0  0
    2.3151    1.4472   -0.0002 O   0  0  0  0  0  0  0  0  0  0  0  0
   -0.1870   -1.0559   -0.0006 N   0  0  0  0  0  0  0  0  0  0  0  0
    0.2666    0.2177   -0.0003 C   0  0  0  0  0  0  0  0  0  0  0  0
   -0.5549    1.3336    0.0000 C   0  0  0  0  0  0  0  0  0  0  0  0
   -1.9303    1.1292    0.0002 C   0  0  0  0  0  0  0  0  0  0  0  0
   -2.4350   -0.1664   -0.0001 C   0  0  0  0  0  0  0  0  0  0  0  0
   -1.5295   -1.2152   -0.0005 C   0  0  0  0  0  0  0  0  0  0  0  0
    1.7111    0.3723   -0.0004 C   0  0  0  0  0  0  0  0  0  0  0  0
    3.7737   -0.8210    0.0009 C   0  0  0  0  0  0  0  0  0  0  0  0
   -0.1580    2.3432    0.0003 H   0  0  0  0  0  0  0  0  0  0  0  0
   -2.6033    1.9820    0.0007 H   0  0  0  0  0  0  0  0  0  0  0  0
   -1.8617   -2.2487   -0.0005 H   0  0  0  0  0  0  0  0  0  0  0  0
    4.1433   -0.3209   -0.8992 H   0  0  0  0  0  0  0  0  0  0  0  0
    4.1315   -1.8540    0.0013 H   0  0  0  0  0  0  0  0  0  0  0  0
    4.1422   -0.3206    0.9014 H   0  0  0  0  0  0  0  0  0  0  0  0
   -3.9252   -1.3562    0.0006 H   0  0  0  0  0  0  0  0  0  0  0  0
  1 10  1  0  0  0  0
  1 11  1  0  0  0  0
  2  8  1  0  0  0  0
  2 18  1  0  0  0  0
  3 10  2  0  0  0  0
  4  5  2  0  0  0  0
  4  9  1  0  0  0  0
  5  6  1  0  0  0  0
  5 10  1  0  0  0  0
  6  7  2  0  0  0  0
  6 12  1  0  0  0  0
  7  8  1  0  0  0  0
  7 13  1  0  0  0  0
  8  9  2  0  0  0  0
  9 14  1  0  0  0  0
 11 15  1  0  0  0  0
 11 16  1  0  0  0  0
 11 17  1  0  0  0  0
M  END
> <PUBCHEM_COMPOUND_CID>
4715126

> <PUBCHEM_CONFORMER_RMSD>
0.4

> <PUBCHEM_CONFORMER_DIVERSEORDER>
1
4
3
2

> <PUBCHEM_MMFF94_PARTIAL_CHARGES>
15
1 -0.43
10 0.63
11 0.28
12 0.15
13 0.15
14 0.15
18 0.45
2 -0.53
3 -0.57
4 -0.62
5 0.4
6 -0.15
7 -0.15
8 0.08
9 0.16

> <PUBCHEM_EFFECTIVE_ROTOR_COUNT>
2

> <PUBCHEM_PHARMACOPHORE_FEATURES>
4
1 2 donor
1 3 acceptor
1 4 acceptor
6 4 5 6 7 8 9 rings

> <PUBCHEM_HEAVY_ATOM_COUNT>
11

> <PUBCHEM_ATOM_DEF_STEREO_COUNT>
0

> <PUBCHEM_ATOM_UDEF_STEREO_COUNT>
0

> <PUBCHEM_BOND_DEF_STEREO_COUNT>
0

> <PUBCHEM_BOND_UDEF_STEREO_COUNT>
0

> <PUBCHEM_ISOTOPIC_ATOM_COUNT>
0

> <PUBCHEM_COMPONENT_COUNT>
1

> <PUBCHEM_CACTVS_TAUTO_COUNT>
4

> <PUBCHEM_CONFORMER_ID>
0047F27600000001

> <PUBCHEM_MMFF94_ENERGY>
27.6223

> <PUBCHEM_FEATURE_SELFOVERLAP>
20.297

> <PUBCHEM_SHAPE_FINGERPRINT>
11062470 55 12535344593052101347
12032990 46 18336271218861910035
12932764 1 17168133542372423817
13690532 89 18336543828815164058
14144814 61 18337952299057620906
14325111 11 18410855455891483105
16945 1 18410856521016790887
20201158 50 18341896264293575566
23402539 116 18059846243365330005
23402655 69 18195508313665948749
23463225 33 18409449154870975734
23552423 10 18260267494560552206
2748010 2 18265897049750148039
369184 2 18343018912878260193
5084963 1 18342174444824453569
7364860 26 18270400611345558376

> <PUBCHEM_SHAPE_MULTIPOLES>
203.79
5.38
1.43
0.58
1.68
0.21
0
-1.23
0
0.07
0
-0.01
0.01
0

> <PUBCHEM_SHAPE_SELFOVERLAP>
424.387

> <PUBCHEM_SHAPE_VOLUME>
115.4

> <PUBCHEM_COORDINATE_TYPE>
2
5
10

$$$$
