12285902
  -OEChem-09242017253D

 29 29  0     1  0  0  0  0  0999 V2000
    2.5887   -1.8063    0.0535 O   0  0  0  0  0  0  0  0  0  0  0  0
    0.0925   -2.3841    1.2088 O   0  0  0  0  0  0  0  0  0  0  0  0
    2.8821    0.3070   -1.7271 O   0  0  0  0  0  0  0  0  0  0  0  0
    2.9644    2.4379    0.0795 O   0  0  0  0  0  0  0  0  0  0  0  0
   -1.5071   -0.6820   -0.4964 N   0  0  0  0  0  0  0  0  0  0  0  0
   -2.3181    1.4584    1.1245 N   0  0  0  0  0  0  0  0  0  0  0  0
    1.4520   -1.0091   -0.2889 C   0  0  1  0  0  0  0  0  0  0  0  0
    0.4531   -1.0425    0.8872 C   0  0  1  0  0  0  0  0  0  0  0  0
    1.9281    0.4056   -0.6682 C   0  0  1  0  0  0  0  0  0  0  0  0
   -0.8182   -0.2788    0.5743 C   0  0  0  0  0  0  0  0  0  0  0  0
    2.5802    1.1345    0.5058 C   0  0  0  0  0  0  0  0  0  0  0  0
   -1.1937    0.7590    1.3759 C   0  0  0  0  0  0  0  0  0  0  0  0
   -2.6316    0.0173   -0.7477 C   0  0  0  0  0  0  0  0  0  0  0  0
   -3.0299    1.0687    0.0483 C   0  0  0  0  0  0  0  0  0  0  0  0
   -3.4424   -0.3855   -1.9295 C   0  0  0  0  0  0  0  0  0  0  0  0
    1.0130   -1.4973   -1.1680 H   0  0  0  0  0  0  0  0  0  0  0  0
    0.9261   -0.6533    1.7953 H   0  0  0  0  0  0  0  0  0  0  0  0
    1.0975    1.0082   -1.0527 H   0  0  0  0  0  0  0  0  0  0  0  0
    1.9019    1.2626    1.3510 H   0  0  0  0  0  0  0  0  0  0  0  0
    3.4848    0.6226    0.8496 H   0  0  0  0  0  0  0  0  0  0  0  0
    3.2062   -1.7712   -0.6971 H   0  0  0  0  0  0  0  0  0  0  0  0
    0.9163   -2.8789    1.3579 H   0  0  0  0  0  0  0  0  0  0  0  0
   -0.6283    1.0780    2.2424 H   0  0  0  0  0  0  0  0  0  0  0  0
    2.4451   -0.1374   -2.4735 H   0  0  0  0  0  0  0  0  0  0  0  0
    3.5696    2.3313   -0.6742 H   0  0  0  0  0  0  0  0  0  0  0  0
   -3.9323    1.6359   -0.1473 H   0  0  0  0  0  0  0  0  0  0  0  0
   -4.4489   -0.6824   -1.6179 H   0  0  0  0  0  0  0  0  0  0  0  0
   -3.5182    0.4436   -2.6401 H   0  0  0  0  0  0  0  0  0  0  0  0
   -2.9854   -1.2345   -2.4486 H   0  0  0  0  0  0  0  0  0  0  0  0
  1  7  1  0  0  0  0
  1 21  1  0  0  0  0
  2  8  1  0  0  0  0
  2 22  1  0  0  0  0
  3  9  1  0  0  0  0
  3 24  1  0  0  0  0
  4 11  1  0  0  0  0
  4 25  1  0  0  0  0
  5 10  2  0  0  0  0
  5 13  1  0  0  0  0
  6 12  2  0  0  0  0
  6 14  1  0  0  0  0
  7  8  1  0  0  0  0
  7  9  1  0  0  0  0
  7 16  1  0  0  0  0
  8 10  1  0  0  0  0
  8 17  1  0  0  0  0
  9 11  1  0  0  0  0
  9 18  1  0  0  0  0
 10 12  1  0  0  0  0
 11 19  1  0  0  0  0
 11 20  1  0  0  0  0
 12 23  1  0  0  0  0
 13 14  2  0  0  0  0
 13 15  1  0  0  0  0
 14 26  1  0  0  0  0
 15 27  1  0  0  0  0
 15 28  1  0  0  0  0
 15 29  1  0  0  0  0
M  END
> <PUBCHEM_COMPOUND_CID>
12285902

> <PUBCHEM_CONFORMER_RMSD>
0.6

> <PUBCHEM_CONFORMER_DIVERSEORDER>
1
150
221
256
200
130
279
21
195
118
87
44
230
146
159
164
182
74
108
273
267
266
120
107
110
249
166
102
54
152
274
117
77
258
64
165
246
132
69
231
135
262
48
68
123
126
127
257
174
175
247
33
242
38
12
213
37
191
215
75
147
252
211
225
161
35
210
114
260
72
232
27
240
208
226
111
91
233
238
265
13
98
79
151
245
113
176
18
85
277
168
156
283
3
220
96
272
218
271
5
229
204
17
178
11
199
32
170
67
93
202
188
261
106
30
25
116
49
29
237
99
177
269
86
56
270
239
205
254
31
206
104
47
276
10
192
63
58
115
193
83
42
60
94
173
134
190
129
7
282
136
34
217
26
172
121
185
15
224
248
19
59
251
219
23
264
133
154
216
100
179
97
53
255
214
22
145
138
51
103
76
155
162
62
57
89
228
243
43
281
131
163
9
143
122
275
46
65
39
8
6
90
14
139
186
157
194
66
80
78
234
212
268
20
81
2
253
160
137
278
148
183
244
142
112
4
181
197
198
187
109
223
128
169
101
227
207
189
24
73
40
201
119
45
144
180
28
196
167
235
16
222
241
153
263
92
125
52
36
280
88
140
203
84
55
61
95
209
259
70
71
171
149
250
50
82
184
236
158
105
141
41
124

> <PUBCHEM_MMFF94_PARTIAL_CHARGES>
21
1 -0.68
10 0.17
11 0.28
12 0.16
13 0.17
14 0.16
15 0.14
2 -0.68
21 0.4
22 0.4
23 0.15
24 0.4
25 0.4
26 0.15
3 -0.68
4 -0.68
5 -0.62
6 -0.62
7 0.28
8 0.42
9 0.28

> <PUBCHEM_EFFECTIVE_ROTOR_COUNT>
4

> <PUBCHEM_PHARMACOPHORE_FEATURES>
11
1 1 acceptor
1 1 donor
1 2 acceptor
1 2 donor
1 3 acceptor
1 3 donor
1 4 acceptor
1 4 donor
1 5 acceptor
1 6 acceptor
6 5 6 10 12 13 14 rings

> <PUBCHEM_HEAVY_ATOM_COUNT>
15

> <PUBCHEM_ATOM_DEF_STEREO_COUNT>
0

> <PUBCHEM_ATOM_UDEF_STEREO_COUNT>
3

> <PUBCHEM_BOND_DEF_STEREO_COUNT>
0

> <PUBCHEM_BOND_UDEF_STEREO_COUNT>
0

> <PUBCHEM_ISOTOPIC_ATOM_COUNT>
0

> <PUBCHEM_COMPONENT_COUNT>
1

> <PUBCHEM_CACTVS_TAUTO_COUNT>
1

> <PUBCHEM_CONFORMER_ID>
00BB77CE00000001

> <PUBCHEM_MMFF94_ENERGY>
37.6485

> <PUBCHEM_FEATURE_SELFOVERLAP>
55.854

> <PUBCHEM_SHAPE_FINGERPRINT>
12400797 292 17917425475205576917
13296908 3 12967126099340586911
13571099 52 17822559603370843268
14115302 16 16773236154702453387
14250199 8 18412545375177420413
15775835 57 18339372863427258405
15852999 172 18188478207245766978
16945 1 17986944335712900859
17357990 137 17698742306234651177
18186145 218 18408604759894695781
18522851 268 16917077650135062124
192875 21 18270100431533196272
19765921 60 18192411155953612251
20645476 183 18127967500050547151
20653085 51 18059314087815795881
20711985 344 12318641794820625994
21639500 275 18260265209432345827
21947302 44 18411982490007094144
228727 97 18131064982882165401
230 275 17385719171274121164
23419403 2 16391249743303375671
23552423 10 18128807565283119747
23559900 14 16126679294688904566
23598291 2 18128539258375166135
25 1 18262536792208203350
2748010 2 17968674785939249826
3082319 5 17704354372475633973
353137 74 18271800276419592809
5262128 65 17274000045534395940
549884 4 18270697358851212904
59915604 170 18200023087705732057
63268167 104 18336837376923649960
6992083 37 17410499783841839379
77492 1 18270397166364782795
7832392 63 18054793870907404553
8030462 33 18342462529755696214
81228 2 17463717611247203266
9939556 21 17987798501565562913
9981440 41 18125709334979298288

> <PUBCHEM_SHAPE_MULTIPOLES>
275.25
5.47
1.94
1.5
0.62
0.08
0.33
1.63
2.4
-1.23
-0.58
0.51
-0.18
-0.77

> <PUBCHEM_SHAPE_SELFOVERLAP>
558.795

> <PUBCHEM_SHAPE_VOLUME>
159.9

> <PUBCHEM_COORDINATE_TYPE>
2
5
10

$$$$
