363209
  -OEChem-08232010293D

 42 45  0     0  0  0  0  0  0999 V2000
    3.9679    1.5427   -0.3127 O   0  0  0  0  0  0  0  0  0  0  0  0
   -5.0792   -2.4400   -0.3088 O   0  0  0  0  0  0  0  0  0  0  0  0
   -6.4621   -0.0692    0.1131 O   0  0  0  0  0  0  0  0  0  0  0  0
    5.5585   -0.6419    0.1747 O   0  0  0  0  0  0  0  0  0  0  0  0
   -0.2060    1.1572   -0.2734 N   0  3  0  0  0  0  0  0  0  0  0  0
   -1.0159    2.3639   -0.5795 C   0  0  0  0  0  0  0  0  0  0  0  0
   -0.7979   -0.0500   -0.0382 C   0  0  0  0  0  0  0  0  0  0  0  0
   -2.2390    2.4031    0.3167 C   0  0  0  0  0  0  0  0  0  0  0  0
   -2.2733   -0.0767   -0.0323 C   0  0  0  0  0  0  0  0  0  0  0  0
   -2.9989    1.1181    0.1524 C   0  0  0  0  0  0  0  0  0  0  0  0
    1.1411    1.2831   -0.2894 C   0  0  0  0  0  0  0  0  0  0  0  0
    1.9846    0.1998   -0.0491 C   0  0  0  0  0  0  0  0  0  0  0  0
    0.0161   -1.1674    0.2148 C   0  0  0  0  0  0  0  0  0  0  0  0
    1.4101   -1.0538    0.2107 C   0  0  0  0  0  0  0  0  0  0  0  0
   -3.0100   -1.2639   -0.1933 C   0  0  0  0  0  0  0  0  0  0  0  0
   -4.3996    1.1122    0.2137 C   0  0  0  0  0  0  0  0  0  0  0  0
    3.3828    0.3334   -0.0610 C   0  0  0  0  0  0  0  0  0  0  0  0
    2.2468   -2.1555    0.4595 C   0  0  0  0  0  0  0  0  0  0  0  0
   -4.4076   -1.2651   -0.1486 C   0  0  0  0  0  0  0  0  0  0  0  0
   -5.1017   -0.0789    0.0604 C   0  0  0  0  0  0  0  0  0  0  0  0
    4.2021   -0.7681    0.1857 C   0  0  0  0  0  0  0  0  0  0  0  0
    3.6345   -2.0117    0.4464 C   0  0  0  0  0  0  0  0  0  0  0  0
    4.2285    2.3779    0.8110 C   0  0  0  0  0  0  0  0  0  0  0  0
    6.2185   -0.8493   -1.0726 C   0  0  0  0  0  0  0  0  0  0  0  0
   -1.2754    2.2953   -1.6429 H   0  0  0  0  0  0  0  0  0  0  0  0
   -0.4072    3.2595   -0.4180 H   0  0  0  0  0  0  0  0  0  0  0  0
   -2.8598    3.2634    0.0431 H   0  0  0  0  0  0  0  0  0  0  0  0
   -1.9482    2.5122    1.3682 H   0  0  0  0  0  0  0  0  0  0  0  0
    1.5158    2.2761   -0.5116 H   0  0  0  0  0  0  0  0  0  0  0  0
   -0.4312   -2.1348    0.4321 H   0  0  0  0  0  0  0  0  0  0  0  0
   -2.5057   -2.2125   -0.3639 H   0  0  0  0  0  0  0  0  0  0  0  0
   -4.9353    2.0448    0.3751 H   0  0  0  0  0  0  0  0  0  0  0  0
    1.8228   -3.1363    0.6644 H   0  0  0  0  0  0  0  0  0  0  0  0
    4.2650   -2.8751    0.6407 H   0  0  0  0  0  0  0  0  0  0  0  0
   -6.0333   -2.2580   -0.2492 H   0  0  0  0  0  0  0  0  0  0  0  0
   -6.7674    0.8419    0.2642 H   0  0  0  0  0  0  0  0  0  0  0  0
    3.3121    2.5799    1.3742 H   0  0  0  0  0  0  0  0  0  0  0  0
    4.6285    3.3278    0.4458 H   0  0  0  0  0  0  0  0  0  0  0  0
    4.9738    1.9158    1.4662 H   0  0  0  0  0  0  0  0  0  0  0  0
    6.0510   -1.8704   -1.4296 H   0  0  0  0  0  0  0  0  0  0  0  0
    7.2915   -0.7035   -0.9207 H   0  0  0  0  0  0  0  0  0  0  0  0
    5.8696   -0.1282   -1.8184 H   0  0  0  0  0  0  0  0  0  0  0  0
  1 17  1  0  0  0  0
  1 23  1  0  0  0  0
  2 19  1  0  0  0  0
  2 35  1  0  0  0  0
  3 20  1  0  0  0  0
  3 36  1  0  0  0  0
  4 21  1  0  0  0  0
  4 24  1  0  0  0  0
  5  6  1  0  0  0  0
  5  7  2  0  0  0  0
  5 11  1  0  0  0  0
  6  8  1  0  0  0  0
  6 25  1  0  0  0  0
  6 26  1  0  0  0  0
  7  9  1  0  0  0  0
  7 13  1  0  0  0  0
  8 10  1  0  0  0  0
  8 27  1  0  0  0  0
  8 28  1  0  0  0  0
  9 10  1  0  0  0  0
  9 15  2  0  0  0  0
 10 16  2  0  0  0  0
 11 12  2  0  0  0  0
 11 29  1  0  0  0  0
 12 14  1  0  0  0  0
 12 17  1  0  0  0  0
 13 14  2  0  0  0  0
 13 30  1  0  0  0  0
 14 18  1  0  0  0  0
 15 19  1  0  0  0  0
 15 31  1  0  0  0  0
 16 20  1  0  0  0  0
 16 32  1  0  0  0  0
 17 21  2  0  0  0  0
 18 22  2  0  0  0  0
 18 33  1  0  0  0  0
 19 20  2  0  0  0  0
 21 22  1  0  0  0  0
 22 34  1  0  0  0  0
 23 37  1  0  0  0  0
 23 38  1  0  0  0  0
 23 39  1  0  0  0  0
 24 40  1  0  0  0  0
 24 41  1  0  0  0  0
 24 42  1  0  0  0  0
M  CHG  1   5   1
M  END
> <PUBCHEM_COMPOUND_CID>
363209

> <PUBCHEM_CONFORMER_RMSD>
0.6

> <PUBCHEM_CONFORMER_DIVERSEORDER>
1
2

> <PUBCHEM_MMFF94_PARTIAL_CHARGES>
29
1 -0.36
10 -0.14
11 0.21
13 -0.15
15 -0.15
16 -0.15
17 0.08
18 -0.15
19 0.08
2 -0.53
20 0.08
21 0.08
22 -0.15
23 0.28
24 0.28
29 0.15
3 -0.53
30 0.15
31 0.15
32 0.15
33 0.15
34 0.15
35 0.45
36 0.45
4 -0.36
5 -0.21
6 0.49
7 0.36
8 0.14

> <PUBCHEM_EFFECTIVE_ROTOR_COUNT>
2.4

> <PUBCHEM_PHARMACOPHORE_FEATURES>
8
1 1 acceptor
1 2 donor
1 3 donor
1 4 acceptor
6 12 14 17 18 21 22 rings
6 5 6 7 8 9 10 rings
6 5 7 11 12 13 14 rings
6 9 10 15 16 19 20 rings

> <PUBCHEM_HEAVY_ATOM_COUNT>
24

> <PUBCHEM_ATOM_DEF_STEREO_COUNT>
0

> <PUBCHEM_ATOM_UDEF_STEREO_COUNT>
0

> <PUBCHEM_BOND_DEF_STEREO_COUNT>
0

> <PUBCHEM_BOND_UDEF_STEREO_COUNT>
0

> <PUBCHEM_ISOTOPIC_ATOM_COUNT>
0

> <PUBCHEM_COMPONENT_COUNT>
1

> <PUBCHEM_CACTVS_TAUTO_COUNT>
18

> <PUBCHEM_CONFORMER_ID>
00058AC900000001

> <PUBCHEM_MMFF94_ENERGY>
96.5796

> <PUBCHEM_FEATURE_SELFOVERLAP>
40.684

> <PUBCHEM_SHAPE_FINGERPRINT>
10366900 7 18040442066500766352
10616163 171 18412262800863441127
11045515 52 18040149609277401429
11524674 6 16559028272808643095
11963148 33 18409163324640444606
12107183 9 17618222806216219675
12166972 35 17676491665591049020
12236239 1 18201720678399332727
12403259 226 18336820893251157164
12403259 415 18261103067684906932
13140716 1 17904757039970008328
13167823 11 18413105061029692647
13288520 33 18412827975836287901
13533116 47 17531519885027218274
13862211 1 18334572443258495466
14341114 176 18412267250444051177
14528608 73 18409168839751654478
14787075 74 18261110802582877073
14849402 71 18340483482943476608
15196674 1 18410572907283594833
15536298 74 18411699889606598608
15880784 105 18131354149955490283
15927050 60 17549262978921298036
16087824 20 18264488379111415317
17349148 13 17748827414606341192
17492 89 18338796702160280907
17834072 33 18409729564516318958
17844677 252 18342182154380725977
17857418 61 18408037390372616482
1813 80 17312823766772157333
18681886 176 18343861130828425866
200 152 18410290294383052947
20028762 73 18343016709698045294
21267235 1 18410301293420011439
21792934 111 18338505362423991297
221357 26 18341615889329373268
2297311 6 18201164268995418077
23402539 116 18411132546102236663
23522609 53 18119279219219094164
23557571 272 18201724998508847564
23559900 14 18411974767271242000
239999 70 18272655649680337326
2871803 45 18261107469725197970
3004659 81 18259702298165129286
335352 9 18409730646858601519
34797466 226 17346325937314881869
34934 24 18411414055549260431
350125 39 18410292489232920296
3545911 37 18407761421844536095
4073 2 18113905999728857683
4214541 1 18339079289712226145
4325135 7 18260833670182320598
474 4 17822299019568916404
5104073 3 18410575076410878793
5283173 99 17895744085744233037
59755656 215 18336267855665406934
67856867 119 18335983150915409596
7495541 125 17560795567474577234
9709674 26 18336834091210891250
9981440 41 17469607772399760625

> <PUBCHEM_SHAPE_MULTIPOLES>
465.45
13.31
2.55
0.74
0.89
0.53
0.03
-3.36
0.75
-0.13
-0.18
-0.46
0.04
-0.06

> <PUBCHEM_SHAPE_SELFOVERLAP>
1040.978

> <PUBCHEM_SHAPE_VOLUME>
247.4

> <PUBCHEM_COORDINATE_TYPE>
2
5
10

$$$$
