3084288
  -OEChem-08232010303D

 40 44  0     0  0  0  0  0  0999 V2000
   -5.8814    0.1351   -0.1985 O   0  0  0  0  0  0  0  0  0  0  0  0
   -4.8197   -1.9787    0.2560 O   0  0  0  0  0  0  0  0  0  0  0  0
    4.5730    1.3185    0.4357 O   0  0  0  0  0  0  0  0  0  0  0  0
    6.0451   -0.9663    0.0431 O   0  0  0  0  0  0  0  0  0  0  0  0
    0.3863    1.1747    0.2931 N   0  3  0  0  0  0  0  0  0  0  0  0
   -0.3585    2.4340    0.5466 C   0  0  0  0  0  0  0  0  0  0  0  0
   -1.5468    2.5247   -0.3911 C   0  0  0  0  0  0  0  0  0  0  0  0
   -0.2692   -0.0015    0.0710 C   0  0  0  0  0  0  0  0  0  0  0  0
   -2.3949    1.2966   -0.2151 C   0  0  0  0  0  0  0  0  0  0  0  0
   -1.7439    0.0555    0.0262 C   0  0  0  0  0  0  0  0  0  0  0  0
    1.7377    1.2225    0.3425 C   0  0  0  0  0  0  0  0  0  0  0  0
    0.4842   -1.1703   -0.1332 C   0  0  0  0  0  0  0  0  0  0  0  0
    2.5220    0.0863    0.1512 C   0  0  0  0  0  0  0  0  0  0  0  0
    1.8819   -1.1380   -0.0941 C   0  0  0  0  0  0  0  0  0  0  0  0
   -3.7924    1.3880   -0.3176 C   0  0  0  0  0  0  0  0  0  0  0  0
   -2.5457   -1.0894    0.2028 C   0  0  0  0  0  0  0  0  0  0  0  0
   -4.5260    0.2366   -0.1454 C   0  0  0  0  0  0  0  0  0  0  0  0
   -3.9199   -0.9670    0.1121 C   0  0  0  0  0  0  0  0  0  0  0  0
    3.9248    0.1389    0.1977 C   0  0  0  0  0  0  0  0  0  0  0  0
    2.6586   -2.2923   -0.2937 C   0  0  0  0  0  0  0  0  0  0  0  0
   -6.0614   -1.2723    0.0584 C   0  0  0  0  0  0  0  0  0  0  0  0
    4.6842   -1.0142   -0.0006 C   0  0  0  0  0  0  0  0  0  0  0  0
    4.0516   -2.2291   -0.2467 C   0  0  0  0  0  0  0  0  0  0  0  0
    4.9107    2.1080   -0.7005 C   0  0  0  0  0  0  0  0  0  0  0  0
    0.3078    3.2877    0.3863 H   0  0  0  0  0  0  0  0  0  0  0  0
   -0.6554    2.4061    1.6021 H   0  0  0  0  0  0  0  0  0  0  0  0
   -1.2169    2.5823   -1.4351 H   0  0  0  0  0  0  0  0  0  0  0  0
   -2.1189    3.4309   -0.1630 H   0  0  0  0  0  0  0  0  0  0  0  0
    2.1644    2.1973    0.5507 H   0  0  0  0  0  0  0  0  0  0  0  0
   -0.0136   -2.1153   -0.3392 H   0  0  0  0  0  0  0  0  0  0  0  0
   -4.2812    2.3355   -0.5179 H   0  0  0  0  0  0  0  0  0  0  0  0
   -2.1163   -2.0638    0.4128 H   0  0  0  0  0  0  0  0  0  0  0  0
    2.1831   -3.2517   -0.4864 H   0  0  0  0  0  0  0  0  0  0  0  0
   -6.5885   -1.7199   -0.7920 H   0  0  0  0  0  0  0  0  0  0  0  0
   -6.6788   -1.3894    0.9565 H   0  0  0  0  0  0  0  0  0  0  0  0
    4.6290   -3.1361   -0.4037 H   0  0  0  0  0  0  0  0  0  0  0  0
    6.3993   -1.8579   -0.1174 H   0  0  0  0  0  0  0  0  0  0  0  0
    5.3577    3.0416   -0.3478 H   0  0  0  0  0  0  0  0  0  0  0  0
    4.0219    2.3495   -1.2919 H   0  0  0  0  0  0  0  0  0  0  0  0
    5.6426    1.5864   -1.3252 H   0  0  0  0  0  0  0  0  0  0  0  0
  1 17  1  0  0  0  0
  1 21  1  0  0  0  0
  2 18  1  0  0  0  0
  2 21  1  0  0  0  0
  3 19  1  0  0  0  0
  3 24  1  0  0  0  0
  4 22  1  0  0  0  0
  4 37  1  0  0  0  0
  5  6  1  0  0  0  0
  5  8  2  0  0  0  0
  5 11  1  0  0  0  0
  6  7  1  0  0  0  0
  6 25  1  0  0  0  0
  6 26  1  0  0  0  0
  7  9  1  0  0  0  0
  7 27  1  0  0  0  0
  7 28  1  0  0  0  0
  8 10  1  0  0  0  0
  8 12  1  0  0  0  0
  9 10  1  0  0  0  0
  9 15  2  0  0  0  0
 10 16  2  0  0  0  0
 11 13  2  0  0  0  0
 11 29  1  0  0  0  0
 12 14  2  0  0  0  0
 12 30  1  0  0  0  0
 13 14  1  0  0  0  0
 13 19  1  0  0  0  0
 14 20  1  0  0  0  0
 15 17  1  0  0  0  0
 15 31  1  0  0  0  0
 16 18  1  0  0  0  0
 16 32  1  0  0  0  0
 17 18  2  0  0  0  0
 19 22  2  0  0  0  0
 20 23  2  0  0  0  0
 20 33  1  0  0  0  0
 21 34  1  0  0  0  0
 21 35  1  0  0  0  0
 22 23  1  0  0  0  0
 23 36  1  0  0  0  0
 24 38  1  0  0  0  0
 24 39  1  0  0  0  0
 24 40  1  0  0  0  0
M  CHG  1   5   1
M  END
> <PUBCHEM_COMPOUND_CID>
3084288

> <PUBCHEM_CONFORMER_RMSD>
0.6

> <PUBCHEM_CONFORMER_DIVERSEORDER>
1

> <PUBCHEM_MMFF94_PARTIAL_CHARGES>
28
1 -0.36
11 0.21
12 -0.15
15 -0.15
16 -0.15
17 0.08
18 0.08
19 0.08
2 -0.36
20 -0.15
21 0.56
22 0.08
23 -0.15
24 0.28
29 0.15
3 -0.36
30 0.15
31 0.15
32 0.15
33 0.15
36 0.15
37 0.45
4 -0.53
5 -0.21
6 0.49
7 0.14
8 0.36
9 -0.14

> <PUBCHEM_EFFECTIVE_ROTOR_COUNT>
2

> <PUBCHEM_PHARMACOPHORE_FEATURES>
9
1 1 acceptor
1 2 acceptor
1 3 acceptor
1 4 donor
5 1 2 17 18 21 rings
6 13 14 19 20 22 23 rings
6 5 6 7 8 9 10 rings
6 5 8 11 12 13 14 rings
6 9 10 15 16 17 18 rings

> <PUBCHEM_HEAVY_ATOM_COUNT>
24

> <PUBCHEM_ATOM_DEF_STEREO_COUNT>
0

> <PUBCHEM_ATOM_UDEF_STEREO_COUNT>
0

> <PUBCHEM_BOND_DEF_STEREO_COUNT>
0

> <PUBCHEM_BOND_UDEF_STEREO_COUNT>
0

> <PUBCHEM_ISOTOPIC_ATOM_COUNT>
0

> <PUBCHEM_COMPONENT_COUNT>
1

> <PUBCHEM_CACTVS_TAUTO_COUNT>
3

> <PUBCHEM_CONFORMER_ID>
002F100000000001

> <PUBCHEM_MMFF94_ENERGY>
86.0761

> <PUBCHEM_FEATURE_SELFOVERLAP>
45.906

> <PUBCHEM_SHAPE_FINGERPRINT>
10 15 18340755023723277898
10835480 77 18409439289574411261
10906281 52 18337974358141456945
11578080 2 16880461576388680903
11963148 33 18337664338502075410
12107183 9 17691125928969834083
12166972 35 17894634751357108204
12236239 1 17530964666004087003
12403259 226 18265046943232716508
12516196 113 18273212015116447969
12916754 54 18269841925866900506
13140716 1 17981595280669332568
13288520 33 18411138018037959341
13402501 40 18411136939732629931
13544653 18 18408611361560181449
13685833 64 18336269020313492763
138480 1 14664143806339094025
13862211 1 18412259540904044631
14341114 176 18410860966735275147
14787075 74 18335701684306671746
14790565 3 18413112766264390161
15196674 1 18411136917930291017
15352361 1 18411136931295312283
15537594 2 18059856211567699343
15927050 60 17551230005571678724
15961568 22 17676210212627745620
17349148 13 17894916209005937650
17492 89 18268147544300528862
17844677 252 18410017606503618316
1813 80 17530966882260044341
18681886 176 18411697678494922458
19141452 34 18202281429393224471
200 152 18059852844540107723
20261772 1 17917423237496045503
20645477 70 18342740685187281182
21033648 29 17274239666038567739
21236236 1 18342175510773168273
21267235 1 18341337712697882206
21279426 13 18337668603899407437
21792934 111 18342164549473323361
221490 88 18410014338054267352
22149856 69 18341626931563594001
22393880 68 18042398032697626126
22950370 63 18413110567509867641
2297311 6 18341901748792447094
23402539 116 18334853905350089895
23522609 53 18126876926050105241
23557571 272 18342179916639103997
23559900 14 18196084448377346002
239999 70 18342461413829636190
2871803 45 18335137566175075330
3004659 81 18260266339520317730
314194 84 18273209824667458623
329604 57 18410576180111977900
335352 9 18410290290858446677
350125 39 18411699873028070636
4073 2 18114467850597945083
4214541 1 18338516335437411785
4325135 7 18335140920813546092
465052 167 18202005438388117958
5104073 3 18342735165689751536
5283173 99 18187920613148608781
59755656 215 18410577258391940750
7495541 125 17988636406977978546
9709674 26 18126287437145017542

> <PUBCHEM_SHAPE_MULTIPOLES>
465.45
13.22
2.6
0.68
3.01
0.52
0.01
-3.98
0.6
-0.93
0.15
-0.11
0.1
0.28

> <PUBCHEM_SHAPE_SELFOVERLAP>
1063.533

> <PUBCHEM_SHAPE_VOLUME>
241.4

> <PUBCHEM_COORDINATE_TYPE>
2
5
10

$$$$
