485077
  -OEChem-08232010253D

 45 49  0     1  0  0  0  0  0999 V2000
    5.2730    1.7869    0.0701 O   0  0  0  0  0  0  0  0  0  0  0  0
   -4.0558    1.9379    0.6768 O   0  0  0  0  0  0  0  0  0  0  0  0
    6.1730   -0.4469    0.0643 O   0  0  0  0  0  0  0  0  0  0  0  0
   -5.8207   -0.0957    0.1004 O   0  0  0  0  0  0  0  0  0  0  0  0
    0.0259    1.3992   -0.1086 N   0  0  2  0  0  0  0  0  0  0  0  0
    0.6221    0.1167   -0.0326 C   0  0  0  0  0  0  0  0  0  0  0  0
   -0.2288   -1.0277    0.0048 C   0  0  0  0  0  0  0  0  0  0  0  0
   -1.2187    1.5509    0.6498 C   0  0  0  0  0  0  0  0  0  0  0  0
   -2.1996    0.4550    0.3141 C   0  0  0  0  0  0  0  0  0  0  0  0
   -1.6995   -0.8303    0.0099 C   0  0  0  0  0  0  0  0  0  0  0  0
    2.0438   -0.0302   -0.0089 C   0  0  0  0  0  0  0  0  0  0  0  0
    2.5986   -1.3446    0.0127 C   0  0  0  0  0  0  0  0  0  0  0  0
    0.3617   -2.2979    0.0393 C   0  0  0  0  0  0  0  0  0  0  0  0
   -3.5783    0.7006    0.3571 C   0  0  0  0  0  0  0  0  0  0  0  0
    1.7478   -2.4525    0.0317 C   0  0  0  0  0  0  0  0  0  0  0  0
    2.9399    1.0671    0.0251 C   0  0  0  0  0  0  0  0  0  0  0  0
    0.0924    2.0403   -1.4208 C   0  0  0  0  0  0  0  0  0  0  0  0
   -2.6291   -1.8411   -0.2848 C   0  0  0  0  0  0  0  0  0  0  0  0
    3.9916   -1.5398    0.0295 C   0  0  0  0  0  0  0  0  0  0  0  0
    4.3009    0.8351    0.0440 C   0  0  0  0  0  0  0  0  0  0  0  0
    4.8130   -0.4344    0.0420 C   0  0  0  0  0  0  0  0  0  0  0  0
   -4.4779   -0.3208    0.0691 C   0  0  0  0  0  0  0  0  0  0  0  0
   -4.0040   -1.5880   -0.2554 C   0  0  0  0  0  0  0  0  0  0  0  0
    6.4591    0.9665    0.0798 C   0  0  0  0  0  0  0  0  0  0  0  0
   -4.8600    2.5927   -0.3011 C   0  0  0  0  0  0  0  0  0  0  0  0
   -6.6706   -1.1990   -0.2081 C   0  0  0  0  0  0  0  0  0  0  0  0
   -1.6421    2.5415    0.4489 H   0  0  0  0  0  0  0  0  0  0  0  0
   -0.9998    1.5107    1.7247 H   0  0  0  0  0  0  0  0  0  0  0  0
   -0.2410   -3.2013    0.0812 H   0  0  0  0  0  0  0  0  0  0  0  0
    2.1545   -3.4622    0.0566 H   0  0  0  0  0  0  0  0  0  0  0  0
    2.5820    2.0924    0.0441 H   0  0  0  0  0  0  0  0  0  0  0  0
    1.1002    2.0229   -1.8470 H   0  0  0  0  0  0  0  0  0  0  0  0
   -0.2048    3.0915   -1.3409 H   0  0  0  0  0  0  0  0  0  0  0  0
   -0.5845    1.5486   -2.1285 H   0  0  0  0  0  0  0  0  0  0  0  0
   -2.3072   -2.8439   -0.5525 H   0  0  0  0  0  0  0  0  0  0  0  0
    4.4224   -2.5372    0.0408 H   0  0  0  0  0  0  0  0  0  0  0  0
   -4.6428   -2.4307   -0.4974 H   0  0  0  0  0  0  0  0  0  0  0  0
    7.0388    1.1977    0.9808 H   0  0  0  0  0  0  0  0  0  0  0  0
    7.0636    1.2124   -0.8009 H   0  0  0  0  0  0  0  0  0  0  0  0
   -4.6329    2.2572   -1.3191 H   0  0  0  0  0  0  0  0  0  0  0  0
   -4.6523    3.6653   -0.2432 H   0  0  0  0  0  0  0  0  0  0  0  0
   -5.9198    2.4422   -0.0769 H   0  0  0  0  0  0  0  0  0  0  0  0
   -6.5619   -2.0088    0.5214 H   0  0  0  0  0  0  0  0  0  0  0  0
   -6.5274   -1.5428   -1.2382 H   0  0  0  0  0  0  0  0  0  0  0  0
   -7.7027   -0.8408   -0.1336 H   0  0  0  0  0  0  0  0  0  0  0  0
  1 20  1  0  0  0  0
  1 24  1  0  0  0  0
  2 14  1  0  0  0  0
  2 25  1  0  0  0  0
  3 21  1  0  0  0  0
  3 24  1  0  0  0  0
  4 22  1  0  0  0  0
  4 26  1  0  0  0  0
  5  6  1  0  0  0  0
  5  8  1  0  0  0  0
  5 17  1  0  0  0  0
  6  7  2  0  0  0  0
  6 11  1  0  0  0  0
  7 10  1  0  0  0  0
  7 13  1  0  0  0  0
  8  9  1  0  0  0  0
  8 27  1  0  0  0  0
  8 28  1  0  0  0  0
  9 10  2  0  0  0  0
  9 14  1  0  0  0  0
 10 18  1  0  0  0  0
 11 12  1  0  0  0  0
 11 16  2  0  0  0  0
 12 15  1  0  0  0  0
 12 19  2  0  0  0  0
 13 15  2  0  0  0  0
 13 29  1  0  0  0  0
 14 22  2  0  0  0  0
 15 30  1  0  0  0  0
 16 20  1  0  0  0  0
 16 31  1  0  0  0  0
 17 32  1  0  0  0  0
 17 33  1  0  0  0  0
 17 34  1  0  0  0  0
 18 23  2  0  0  0  0
 18 35  1  0  0  0  0
 19 21  1  0  0  0  0
 19 36  1  0  0  0  0
 20 21  2  0  0  0  0
 22 23  1  0  0  0  0
 23 37  1  0  0  0  0
 24 38  1  0  0  0  0
 24 39  1  0  0  0  0
 25 40  1  0  0  0  0
 25 41  1  0  0  0  0
 25 42  1  0  0  0  0
 26 43  1  0  0  0  0
 26 44  1  0  0  0  0
 26 45  1  0  0  0  0
M  END
> <PUBCHEM_COMPOUND_CID>
485077

> <PUBCHEM_CONFORMER_RMSD>
0.6

> <PUBCHEM_CONFORMER_DIVERSEORDER>
1
2

> <PUBCHEM_MMFF94_PARTIAL_CHARGES>
28
1 -0.36
13 -0.15
14 0.08
15 -0.15
16 -0.15
17 0.37
18 -0.15
19 -0.15
2 -0.36
20 0.08
21 0.08
22 0.08
23 -0.15
24 0.56
25 0.28
26 0.28
29 0.15
3 -0.36
30 0.15
31 0.15
35 0.15
36 0.15
37 0.15
4 -0.36
5 -0.84
6 0.1
8 0.51
9 -0.14

> <PUBCHEM_EFFECTIVE_ROTOR_COUNT>
3

> <PUBCHEM_PHARMACOPHORE_FEATURES>
10
1 1 acceptor
1 2 acceptor
1 3 acceptor
1 4 acceptor
1 5 cation
5 1 3 20 21 24 rings
6 11 12 16 19 20 21 rings
6 5 6 7 8 9 10 rings
6 6 7 11 12 13 15 rings
6 9 10 14 18 22 23 rings

> <PUBCHEM_HEAVY_ATOM_COUNT>
26

> <PUBCHEM_ATOM_DEF_STEREO_COUNT>
0

> <PUBCHEM_ATOM_UDEF_STEREO_COUNT>
0

> <PUBCHEM_BOND_DEF_STEREO_COUNT>
0

> <PUBCHEM_BOND_UDEF_STEREO_COUNT>
0

> <PUBCHEM_ISOTOPIC_ATOM_COUNT>
0

> <PUBCHEM_COMPONENT_COUNT>
1

> <PUBCHEM_CACTVS_TAUTO_COUNT>
1

> <PUBCHEM_CONFORMER_ID>
000766D500000001

> <PUBCHEM_MMFF94_ENERGY>
120.6383

> <PUBCHEM_FEATURE_SELFOVERLAP>
50.977

> <PUBCHEM_SHAPE_FINGERPRINT>
10050765 1 18267585694153725123
10595046 47 18412824694239044307
10906281 52 18187947078747200646
1100329 8 18267304428939016728
11578080 2 17242718802210973143
12107183 9 17763746490151738458
12236239 1 18272370871478208303
12403259 415 18130497608906961112
12516196 113 17988923392123605193
12788726 201 17273980129649556993
12838862 33 18339342154426597805
13140716 1 17832150789661650611
13785724 45 17762334718056091466
14528608 73 18412546513712843582
14787075 74 18343300387728325074
14790565 3 18409733997439767060
15131766 46 16155973866676336860
15196674 1 18411419470949243163
1601671 61 18410292501927859660
16087824 20 18341891936328044671
1813 80 17240206512562038220
18608769 82 18338519763502290099
18681886 176 18341607165612517872
200 152 18201718452957517955
20511986 3 18336252475376489513
21033648 29 18272921743651349617
21236236 1 18412262826954809805
21267235 1 18411989065628761843
21279426 13 18268713818325898910
21304253 335 18262527983019595013
21421861 104 17751633252564612458
23402539 116 18341608261156472766
23559900 14 18199741604039276128
23569917 315 18408891741379481786
3004659 81 18409450263705741642
335352 9 18410577310564115894
34797466 226 17346044458412280732
34934 24 18336543807461426091
350125 39 18412545423239718697
3545911 37 18413389847357473826
4073 2 18114187479649473050
4214541 1 18412263917618027201
4325135 7 18341894103777131366
474 4 18113904887532501674
5104073 3 18335425604014834803
5486654 2 18340491157479594342
59755656 215 18341338808236432838

> <PUBCHEM_SHAPE_MULTIPOLES>
506.61
14.36
2.56
0.73
1.5
0.15
-0.1
1.96
0.36
-1.02
-0.21
-0.15
0.21
-0.28

> <PUBCHEM_SHAPE_SELFOVERLAP>
1146.737

> <PUBCHEM_SHAPE_VOLUME>
266.5

> <PUBCHEM_COORDINATE_TYPE>
2
5
10

$$$$
