71308174
  -OEChem-09162016133D

 37 38  0     1  0  0  0  0  0999 V2000
   -0.1539    2.3491   -0.9337 O   0  0  0  0  0  0  0  0  0  0  0  0
    0.6400   -1.8199    1.8222 O   0  0  0  0  0  0  0  0  0  0  0  0
   -0.6770   -2.3422   -0.8680 O   0  0  0  0  0  0  0  0  0  0  0  0
   -0.3491    2.4994    2.6426 O   0  0  0  0  0  0  0  0  0  0  0  0
   -2.1266   -2.3792    0.8770 O   0  0  0  0  0  0  0  0  0  0  0  0
    1.4405    2.2006   -2.5307 O   0  0  0  0  0  0  0  0  0  0  0  0
    1.0895    3.4757    1.1684 O   0  0  0  0  0  0  0  0  0  0  0  0
    3.1270   -2.7227    1.1034 O   0  0  0  0  0  0  0  0  0  0  0  0
    4.5543   -1.4264   -0.8792 O   0  0  0  0  0  0  0  0  0  0  0  0
   -5.2876   -0.5424    0.1088 O   0  0  0  0  0  0  0  0  0  0  0  0
   -4.0618   -0.9207   -1.7700 O   0  0  0  0  0  0  0  0  0  0  0  0
   -0.5823    0.4652    0.5962 C   0  0  2  0  0  0  0  0  0  0  0  0
   -1.6551   -0.2584   -0.2229 C   0  0  2  0  0  0  0  0  0  0  0  0
   -0.6323    1.9750    0.3674 C   0  0  1  0  0  0  0  0  0  0  0  0
    0.7851   -0.0391    0.2164 C   0  0  0  0  0  0  0  0  0  0  0  0
   -3.0652    0.2249    0.1425 C   0  0  0  0  0  0  0  0  0  0  0  0
    1.5149    0.6088   -0.7871 C   0  0  0  0  0  0  0  0  0  0  0  0
    1.3341   -1.1638    0.8467 C   0  0  0  0  0  0  0  0  0  0  0  0
   -1.5286   -1.7532    0.0115 C   0  0  0  0  0  0  0  0  0  0  0  0
    0.9465    1.7799   -1.4925 C   0  0  0  0  0  0  0  0  0  0  0  0
    0.1429    2.7391    1.4025 C   0  0  0  0  0  0  0  0  0  0  0  0
    2.7807    0.1377   -1.1542 C   0  0  0  0  0  0  0  0  0  0  0  0
    2.5975   -1.6298    0.4831 C   0  0  0  0  0  0  0  0  0  0  0  0
    3.3197   -0.9792   -0.5153 C   0  0  0  0  0  0  0  0  0  0  0  0
   -4.1530   -0.4784   -0.6350 C   0  0  0  0  0  0  0  0  0  0  0  0
   -0.7799    0.3030    1.6600 H   0  0  0  0  0  0  0  0  0  0  0  0
   -1.5110   -0.0884   -1.2993 H   0  0  0  0  0  0  0  0  0  0  0  0
   -1.6425    2.3831    0.4402 H   0  0  0  0  0  0  0  0  0  0  0  0
   -3.2107    1.2856   -0.0762 H   0  0  0  0  0  0  0  0  0  0  0  0
   -3.2419    0.0681    1.2140 H   0  0  0  0  0  0  0  0  0  0  0  0
    3.3502    0.6372   -1.9341 H   0  0  0  0  0  0  0  0  0  0  0  0
   -0.1003   -1.3036    2.1673 H   0  0  0  0  0  0  0  0  0  0  0  0
   -0.6037   -3.3082   -0.7145 H   0  0  0  0  0  0  0  0  0  0  0  0
    0.1462    2.9880    3.3340 H   0  0  0  0  0  0  0  0  0  0  0  0
    4.0048   -2.8974    0.7219 H   0  0  0  0  0  0  0  0  0  0  0  0
    4.9042   -0.8551   -1.5843 H   0  0  0  0  0  0  0  0  0  0  0  0
   -6.0161   -0.9885   -0.3735 H   0  0  0  0  0  0  0  0  0  0  0  0
  1 14  1  0  0  0  0
  1 20  1  0  0  0  0
  2 18  1  0  0  0  0
  2 32  1  0  0  0  0
  3 19  1  0  0  0  0
  3 33  1  0  0  0  0
  4 21  1  0  0  0  0
  4 34  1  0  0  0  0
  5 19  2  0  0  0  0
  6 20  2  0  0  0  0
  7 21  2  0  0  0  0
  8 23  1  0  0  0  0
  8 35  1  0  0  0  0
  9 24  1  0  0  0  0
  9 36  1  0  0  0  0
 10 25  1  0  0  0  0
 10 37  1  0  0  0  0
 11 25  2  0  0  0  0
 12 13  1  0  0  0  0
 12 14  1  0  0  0  0
 12 15  1  0  0  0  0
 12 26  1  0  0  0  0
 13 16  1  0  0  0  0
 13 19  1  0  0  0  0
 13 27  1  0  0  0  0
 14 21  1  0  0  0  0
 14 28  1  0  0  0  0
 15 17  1  0  0  0  0
 15 18  2  0  0  0  0
 16 25  1  0  0  0  0
 16 29  1  0  0  0  0
 16 30  1  0  0  0  0
 17 20  1  0  0  0  0
 17 22  2  0  0  0  0
 18 23  1  0  0  0  0
 22 24  1  0  0  0  0
 22 31  1  0  0  0  0
 23 24  2  0  0  0  0
M  END
> <PUBCHEM_COMPOUND_CID>
71308174

> <PUBCHEM_CONFORMER_RMSD>
0.8

> <PUBCHEM_CONFORMER_DIVERSEORDER>
1
7
10
15
12
2
4
8
6
5
13
9
14
11
3

> <PUBCHEM_MMFF94_PARTIAL_CHARGES>
32
1 -0.43
10 -0.65
11 -0.57
12 0.14
13 0.06
14 0.34
15 -0.14
16 0.06
17 0.09
18 0.08
19 0.66
2 -0.53
20 0.63
21 0.66
22 -0.15
23 0.08
24 0.08
25 0.66
3 -0.65
31 0.15
32 0.45
33 0.5
34 0.5
35 0.45
36 0.45
37 0.5
4 -0.65
5 -0.57
6 -0.57
7 -0.57
8 -0.53
9 -0.53

> <PUBCHEM_EFFECTIVE_ROTOR_COUNT>
5.6

> <PUBCHEM_PHARMACOPHORE_FEATURES>
15
1 10 acceptor
1 11 acceptor
1 2 donor
1 3 acceptor
1 4 acceptor
1 5 acceptor
1 6 acceptor
1 7 acceptor
1 8 donor
1 9 donor
3 10 11 25 anion
3 3 5 19 anion
3 4 7 21 anion
6 1 12 14 15 17 20 rings
6 15 17 18 22 23 24 rings

> <PUBCHEM_HEAVY_ATOM_COUNT>
25

> <PUBCHEM_ATOM_DEF_STEREO_COUNT>
3

> <PUBCHEM_ATOM_UDEF_STEREO_COUNT>
0

> <PUBCHEM_BOND_DEF_STEREO_COUNT>
0

> <PUBCHEM_BOND_UDEF_STEREO_COUNT>
0

> <PUBCHEM_ISOTOPIC_ATOM_COUNT>
0

> <PUBCHEM_COMPONENT_COUNT>
1

> <PUBCHEM_CACTVS_TAUTO_COUNT>
296

> <PUBCHEM_CONFORMER_ID>
0440138E00000001

> <PUBCHEM_MMFF94_ENERGY>
70.8379

> <PUBCHEM_FEATURE_SELFOVERLAP>
76.333

> <PUBCHEM_SHAPE_FINGERPRINT>
104564 63 18266740173568777557
10764073 3 17614507792744579184
11578080 2 18192689216316232884
12293681 160 18123777475854134404
12553582 1 18342451509117995695
12788726 201 18270407061958688466
13009979 54 18049719620703725282
13134695 92 18271803561943045245
13140716 1 18048592909047621777
14178342 30 17761764470704261649
14787075 74 18341890853051734824
14817 1 14648148235494591344
14955137 171 18199768993667993931
1601671 61 18199749138208108145
16752209 62 18265043631279811079
16945 1 18113343011115046189
18981168 100 17753030985409849639
20510252 161 18128534856271045170
20600515 1 18335988566647513591
20775438 99 17620442016410114903
22112679 90 18057630714139405569
229495 10 17320744798746258459
23402539 116 18200876162657865214
23419403 2 17907534195677629692
23557571 272 18201430330067843586
23559900 14 18265623259367021372
25222932 49 16332415928964656791
266924 78 17245313834157042588
2748010 2 17974286835363957683
34934 24 18341331214227493918
5895379 119 16486157049325690553
6992083 37 17686070392239031056
7364860 26 18128249193506152345
81228 2 18193564371947617402

> <PUBCHEM_SHAPE_MULTIPOLES>
449.93
6.22
3.41
1.79
4.46
1.72
-0.06
-4.51
2.06
-1.16
-1.22
-0.36
1.06
-0.88

> <PUBCHEM_SHAPE_SELFOVERLAP>
980.883

> <PUBCHEM_SHAPE_VOLUME>
240.1

> <PUBCHEM_COORDINATE_TYPE>
2
5
10

$$$$
