3081374
  -OEChem-09162016243D

 37 39  0     1  0  0  0  0  0999 V2000
    0.4864    0.7979    0.3278 O   0  0  0  0  0  0  0  0  0  0  0  0
    0.1360   -1.1297   -1.7568 O   0  0  0  0  0  0  0  0  0  0  0  0
    2.2362   -2.7315   -1.0153 O   0  0  0  0  0  0  0  0  0  0  0  0
    4.5704   -1.8011   -0.0618 O   0  0  0  0  0  0  0  0  0  0  0  0
    4.7137    2.9192    0.4529 O   0  0  0  0  0  0  0  0  0  0  0  0
   -3.8992    1.9988   -1.7109 O   0  0  0  0  0  0  0  0  0  0  0  0
   -4.9604   -1.2330    1.6605 O   0  0  0  0  0  0  0  0  0  0  0  0
   -5.7857    0.6417   -0.2034 O   0  0  0  0  0  0  0  0  0  0  0  0
    0.2273   -1.5418   -0.3907 C   0  0  2  0  0  0  0  0  0  0  0  0
   -0.2637   -0.4128    0.5233 C   0  0  2  0  0  0  0  0  0  0  0  0
    1.6834   -1.8560   -0.0391 C   0  0  2  0  0  0  0  0  0  0  0  0
    2.4895   -0.5878    0.0838 C   0  0  0  0  0  0  0  0  0  0  0  0
    1.8489    0.6463    0.2716 C   0  0  0  0  0  0  0  0  0  0  0  0
   -1.7416   -0.1308    0.3286 C   0  0  0  0  0  0  0  0  0  0  0  0
    3.8916   -0.6239    0.0607 C   0  0  0  0  0  0  0  0  0  0  0  0
    2.5961    1.8226    0.3815 C   0  0  0  0  0  0  0  0  0  0  0  0
   -2.6869   -0.8167    1.0894 C   0  0  0  0  0  0  0  0  0  0  0  0
   -2.1517    0.8134   -0.6115 C   0  0  0  0  0  0  0  0  0  0  0  0
    4.6356    0.5506    0.1830 C   0  0  0  0  0  0  0  0  0  0  0  0
    3.9879    1.7736    0.3377 C   0  0  0  0  0  0  0  0  0  0  0  0
   -3.5106    1.0723   -0.7909 C   0  0  0  0  0  0  0  0  0  0  0  0
   -4.0457   -0.5579    0.9099 C   0  0  0  0  0  0  0  0  0  0  0  0
   -4.4576    0.3866   -0.0302 C   0  0  0  0  0  0  0  0  0  0  0  0
   -0.3883   -2.4432   -0.2877 H   0  0  0  0  0  0  0  0  0  0  0  0
   -0.1217   -0.7008    1.5752 H   0  0  0  0  0  0  0  0  0  0  0  0
    1.7228   -2.3655    0.9322 H   0  0  0  0  0  0  0  0  0  0  0  0
    2.0926    2.7779    0.5092 H   0  0  0  0  0  0  0  0  0  0  0  0
    0.5031   -1.8470   -2.3011 H   0  0  0  0  0  0  0  0  0  0  0  0
   -2.3643   -1.5542    1.8204 H   0  0  0  0  0  0  0  0  0  0  0  0
   -1.4278    1.3508   -1.2187 H   0  0  0  0  0  0  0  0  0  0  0  0
    1.6880   -3.5345   -1.0319 H   0  0  0  0  0  0  0  0  0  0  0  0
    5.7223    0.5132    0.1608 H   0  0  0  0  0  0  0  0  0  0  0  0
    5.5267   -1.6247   -0.0534 H   0  0  0  0  0  0  0  0  0  0  0  0
    5.6600    2.7002    0.4025 H   0  0  0  0  0  0  0  0  0  0  0  0
   -4.8708    2.0499   -1.7018 H   0  0  0  0  0  0  0  0  0  0  0  0
   -4.4934   -1.8438    2.2561 H   0  0  0  0  0  0  0  0  0  0  0  0
   -6.2892    0.0759    0.4073 H   0  0  0  0  0  0  0  0  0  0  0  0
  1 10  1  0  0  0  0
  1 13  1  0  0  0  0
  2  9  1  0  0  0  0
  2 28  1  0  0  0  0
  3 11  1  0  0  0  0
  3 31  1  0  0  0  0
  4 15  1  0  0  0  0
  4 33  1  0  0  0  0
  5 20  1  0  0  0  0
  5 34  1  0  0  0  0
  6 21  1  0  0  0  0
  6 35  1  0  0  0  0
  7 22  1  0  0  0  0
  7 36  1  0  0  0  0
  8 23  1  0  0  0  0
  8 37  1  0  0  0  0
  9 10  1  0  0  0  0
  9 11  1  0  0  0  0
  9 24  1  0  0  0  0
 10 14  1  0  0  0  0
 10 25  1  0  0  0  0
 11 12  1  0  0  0  0
 11 26  1  0  0  0  0
 12 13  1  0  0  0  0
 12 15  2  0  0  0  0
 13 16  2  0  0  0  0
 14 17  2  0  0  0  0
 14 18  1  0  0  0  0
 15 19  1  0  0  0  0
 16 20  1  0  0  0  0
 16 27  1  0  0  0  0
 17 22  1  0  0  0  0
 17 29  1  0  0  0  0
 18 21  2  0  0  0  0
 18 30  1  0  0  0  0
 19 20  2  0  0  0  0
 19 32  1  0  0  0  0
 21 23  1  0  0  0  0
 22 23  2  0  0  0  0
M  END
> <PUBCHEM_COMPOUND_CID>
3081374

> <PUBCHEM_CONFORMER_RMSD>
0.6

> <PUBCHEM_CONFORMER_DIVERSEORDER>
5
6
9
11
20
16
14
13
12
1
8
4
10
21
2
19
7
15
3
17
22
18

> <PUBCHEM_MMFF94_PARTIAL_CHARGES>
34
1 -0.36
10 0.42
11 0.42
12 -0.14
13 0.08
14 -0.14
15 0.08
16 -0.15
17 -0.15
18 -0.15
19 -0.15
2 -0.68
20 0.08
21 0.08
22 0.08
23 0.08
27 0.15
28 0.4
29 0.15
3 -0.68
30 0.15
31 0.4
32 0.15
33 0.45
34 0.45
35 0.45
36 0.45
37 0.45
4 -0.53
5 -0.53
6 -0.53
7 -0.53
8 -0.53
9 0.28

> <PUBCHEM_EFFECTIVE_ROTOR_COUNT>
1.8

> <PUBCHEM_PHARMACOPHORE_FEATURES>
13
1 1 acceptor
1 2 acceptor
1 2 donor
1 3 acceptor
1 3 donor
1 4 donor
1 5 donor
1 6 donor
1 7 donor
1 8 donor
6 1 9 10 11 12 13 rings
6 12 13 15 16 19 20 rings
6 14 17 18 21 22 23 rings

> <PUBCHEM_HEAVY_ATOM_COUNT>
23

> <PUBCHEM_ATOM_DEF_STEREO_COUNT>
0

> <PUBCHEM_ATOM_UDEF_STEREO_COUNT>
3

> <PUBCHEM_BOND_DEF_STEREO_COUNT>
0

> <PUBCHEM_BOND_UDEF_STEREO_COUNT>
0

> <PUBCHEM_ISOTOPIC_ATOM_COUNT>
0

> <PUBCHEM_COMPONENT_COUNT>
1

> <PUBCHEM_CACTVS_TAUTO_COUNT>
99

> <PUBCHEM_CONFORMER_ID>
002F049E00000005

> <PUBCHEM_MMFF94_ENERGY>
67.4064

> <PUBCHEM_FEATURE_SELFOVERLAP>
66.034

> <PUBCHEM_SHAPE_FINGERPRINT>
10 15 18188483713853251024
10319926 262 17822280280647508712
10411042 1 17837776625942688310
10646746 165 17967532337617977829
11045977 3 18260270745692793283
11471102 20 18342738503338243162
11595378 159 16081358618780631741
12236239 1 16702018652252243603
12403259 415 18334579039979978956
12507560 40 18261110789756114200
12616971 3 17489588943744069515
12730499 353 18411143545101992595
12892183 10 17603578660075267360
13140716 1 18272081764703478042
13402501 40 18333447651474431033
13583140 156 18334573491072506983
13675066 3 18260550047457977210
14341114 176 18260554419972321281
15196674 1 18411136969491075683
15219456 202 18407760330880612475
15375358 24 18333731316778571611
15788980 27 18412261727015875127
15961568 22 17386011727499273204
17349148 13 17489308551278653946
17844677 252 18341619178799815193
1813 80 12613021744117792010
18186145 218 17846498183648026736
200 152 17989201530390560233
204376 136 18200877378207501718
20645477 70 18271525312571195814
21033648 29 18336815463911341913
21065201 7 17386005044286767683
22122407 14 17631751425783143953
22854114 59 18410858788759464931
23227448 37 18339921640067652878
23402539 116 17749105621593117459
23557571 272 17822296738909621021
23559900 14 17822298928968719998
335352 9 18342176692273880972
474 4 18272652372208703770
495365 180 18201145633739014936
5104073 3 18260548900891854441
5895379 119 17241338945035147052
633830 44 18335974303087282727
8272917 22 18272654506580791494
9709674 26 18337671893496085895
9999458 23 18409167701886254870

> <PUBCHEM_SHAPE_MULTIPOLES>
426.37
11.31
2.33
1.12
5.01
0.18
0.18
3.4
-1.34
-2.56
0.37
1.13
-0.12
1.97

> <PUBCHEM_SHAPE_SELFOVERLAP>
944.421

> <PUBCHEM_SHAPE_VOLUME>
226.2

> <PUBCHEM_COORDINATE_TYPE>
2
5
10

$$$$
