530427
  -OEChem-09162016483D

 39 41  0     1  0  0  0  0  0999 V2000
   -0.3425    0.8109   -0.4469 C   0  0  2  0  0  0  0  0  0  0  0  0
    0.9393    0.4352   -1.2091 C   0  0  2  0  0  0  0  0  0  0  0  0
    1.4342   -0.7849   -0.3718 C   0  0  1  0  0  0  0  0  0  0  0  0
    0.4203    1.0470    0.8743 C   0  0  1  0  0  0  0  0  0  0  0  0
   -1.4277   -0.2798   -0.5078 C   0  0  1  0  0  0  0  0  0  0  0  0
    1.7949    1.7041   -0.9863 C   0  0  0  0  0  0  0  0  0  0  0  0
    1.2328   -0.2239    1.0306 C   0  0  0  0  0  0  0  0  0  0  0  0
    1.4250    2.1319    0.4470 C   0  0  0  0  0  0  0  0  0  0  0  0
    0.4740   -1.9726   -0.6089 C   0  0  0  0  0  0  0  0  0  0  0  0
   -0.9466   -1.6833   -0.1194 C   0  0  0  0  0  0  0  0  0  0  0  0
    2.8720   -1.1948   -0.6942 C   0  0  0  0  0  0  0  0  0  0  0  0
   -2.6497    0.1131    0.3227 C   0  0  0  0  0  0  0  0  0  0  0  0
    1.6648   -0.7352    2.1884 C   0  0  0  0  0  0  0  0  0  0  0  0
   -3.1097    1.5234   -0.0367 C   0  0  0  0  0  0  0  0  0  0  0  0
   -3.7810   -0.8909    0.1182 C   0  0  0  0  0  0  0  0  0  0  0  0
   -0.7339    1.7484   -0.8613 H   0  0  0  0  0  0  0  0  0  0  0  0
    0.7912    0.2077   -2.2689 H   0  0  0  0  0  0  0  0  0  0  0  0
   -0.1930    1.3158    1.7362 H   0  0  0  0  0  0  0  0  0  0  0  0
   -1.7322   -0.3396   -1.5637 H   0  0  0  0  0  0  0  0  0  0  0  0
    1.5035    2.4903   -1.6928 H   0  0  0  0  0  0  0  0  0  0  0  0
    2.8676    1.5354   -1.1069 H   0  0  0  0  0  0  0  0  0  0  0  0
    2.3053    2.1843    1.0968 H   0  0  0  0  0  0  0  0  0  0  0  0
    0.9514    3.1203    0.4353 H   0  0  0  0  0  0  0  0  0  0  0  0
    0.8401   -2.8745   -0.1017 H   0  0  0  0  0  0  0  0  0  0  0  0
    0.4451   -2.2084   -1.6808 H   0  0  0  0  0  0  0  0  0  0  0  0
   -1.6135   -2.4478   -0.5358 H   0  0  0  0  0  0  0  0  0  0  0  0
   -0.9827   -1.8111    0.9702 H   0  0  0  0  0  0  0  0  0  0  0  0
    3.5989   -0.4333   -0.3942 H   0  0  0  0  0  0  0  0  0  0  0  0
    3.1478   -2.1179   -0.1713 H   0  0  0  0  0  0  0  0  0  0  0  0
    2.9934   -1.3739   -1.7681 H   0  0  0  0  0  0  0  0  0  0  0  0
   -2.3930    0.1105    1.3900 H   0  0  0  0  0  0  0  0  0  0  0  0
    2.2351   -1.6568    2.2173 H   0  0  0  0  0  0  0  0  0  0  0  0
    1.4516   -0.2407    3.1297 H   0  0  0  0  0  0  0  0  0  0  0  0
   -3.2226    1.6504   -1.1189 H   0  0  0  0  0  0  0  0  0  0  0  0
   -4.0825    1.7376    0.4210 H   0  0  0  0  0  0  0  0  0  0  0  0
   -2.4249    2.2887    0.3413 H   0  0  0  0  0  0  0  0  0  0  0  0
   -4.0273   -1.0077   -0.9428 H   0  0  0  0  0  0  0  0  0  0  0  0
   -4.6890   -0.5590    0.6343 H   0  0  0  0  0  0  0  0  0  0  0  0
   -3.5342   -1.8757    0.5260 H   0  0  0  0  0  0  0  0  0  0  0  0
  1  2  1  0  0  0  0
  1  4  1  0  0  0  0
  1  5  1  0  0  0  0
  1 16  1  0  0  0  0
  2  3  1  0  0  0  0
  2  6  1  0  0  0  0
  2 17  1  0  0  0  0
  3  7  1  0  0  0  0
  3  9  1  0  0  0  0
  3 11  1  0  0  0  0
  4  7  1  0  0  0  0
  4  8  1  0  0  0  0
  4 18  1  0  0  0  0
  5 10  1  0  0  0  0
  5 12  1  0  0  0  0
  5 19  1  0  0  0  0
  6  8  1  0  0  0  0
  6 20  1  0  0  0  0
  6 21  1  0  0  0  0
  7 13  2  0  0  0  0
  8 22  1  0  0  0  0
  8 23  1  0  0  0  0
  9 10  1  0  0  0  0
  9 24  1  0  0  0  0
  9 25  1  0  0  0  0
 10 26  1  0  0  0  0
 10 27  1  0  0  0  0
 11 28  1  0  0  0  0
 11 29  1  0  0  0  0
 11 30  1  0  0  0  0
 12 14  1  0  0  0  0
 12 15  1  0  0  0  0
 12 31  1  0  0  0  0
 13 32  1  0  0  0  0
 13 33  1  0  0  0  0
 14 34  1  0  0  0  0
 14 35  1  0  0  0  0
 14 36  1  0  0  0  0
 15 37  1  0  0  0  0
 15 38  1  0  0  0  0
 15 39  1  0  0  0  0
M  END
> <PUBCHEM_COMPOUND_CID>
530427

> <PUBCHEM_CONFORMER_RMSD>
0.6

> <PUBCHEM_CONFORMER_DIVERSEORDER>
1
2
3
4

> <PUBCHEM_MMFF94_PARTIAL_CHARGES>
6
13 -0.3
3 0.14
32 0.15
33 0.15
4 0.14
7 -0.28

> <PUBCHEM_EFFECTIVE_ROTOR_COUNT>
2

> <PUBCHEM_PHARMACOPHORE_FEATURES>
3
3 12 14 15 hydrophobe
7 1 2 3 4 6 7 8 rings
8 1 2 3 4 5 7 9 10 rings

> <PUBCHEM_HEAVY_ATOM_COUNT>
15

> <PUBCHEM_ATOM_DEF_STEREO_COUNT>
0

> <PUBCHEM_ATOM_UDEF_STEREO_COUNT>
5

> <PUBCHEM_BOND_DEF_STEREO_COUNT>
0

> <PUBCHEM_BOND_UDEF_STEREO_COUNT>
0

> <PUBCHEM_ISOTOPIC_ATOM_COUNT>
0

> <PUBCHEM_COMPONENT_COUNT>
1

> <PUBCHEM_CACTVS_TAUTO_COUNT>
1

> <PUBCHEM_CONFORMER_ID>
000817FB00000001

> <PUBCHEM_MMFF94_ENERGY>
55.9274

> <PUBCHEM_FEATURE_SELFOVERLAP>
17.044

> <PUBCHEM_SHAPE_FINGERPRINT>
10863032 1 18269286818550213454
10948715 1 18191029104202783684
11680611 10 18118379942733759875
12326174 3 18113052740219386648
12423570 1 13287733330544270738
12725867 57 18058727979467325196
12932764 1 17530965757289718725
13132413 78 18200878357555036356
13134695 92 16701732727262218072
13172582 1 18265316357260375259
14648413 74 18339931501280662407
14817 1 11493756432049691720
15775835 57 18200041771224861221
16945 1 18335128752928473262
17990270 104 18408888399772423719
20233049 118 18189900803319571493
20511035 2 17917140697525694430
20559304 39 18341894099856560881
20653091 64 18186516609497436289
21501502 16 18198906005345896087
21524375 3 17899982925906565564
22344851 341 18116153449130685130
22892500 29 16772084961596262825
230 275 17703784842927584297
23419403 2 16543794277091240986
23559900 14 18129949967055876142
2748010 2 18410853291554961861
430814 3 17753049680811612932
5084963 1 18060704987537097895
528886 8 18339367357453076414
5337951 7 17346324837766070927
7364860 26 18343303712117576924

> <PUBCHEM_SHAPE_MULTIPOLES>
308.69
4.29
2.08
1.34
4.25
0.28
-0.59
-0.21
-0.02
-0.46
0.21
-0.93
-0.11
-0.08

> <PUBCHEM_SHAPE_SELFOVERLAP>
662.119

> <PUBCHEM_SHAPE_VOLUME>
170.3

> <PUBCHEM_COORDINATE_TYPE>
2
5
10

$$$$
