549159
  -OEChem-09162016573D

 58 57  0     0  0  0  0  0  0999 V2000
    1.4445    0.7858   -0.3439 C   0  0  0  0  0  0  0  0  0  0  0  0
    2.6102   -0.0160    0.2415 C   0  0  0  0  0  0  0  0  0  0  0  0
    0.0711    0.2952    0.1270 C   0  0  0  0  0  0  0  0  0  0  0  0
    3.9844    0.5203   -0.1736 C   0  0  0  0  0  0  0  0  0  0  0  0
   -1.0934    1.1402   -0.3973 C   0  0  0  0  0  0  0  0  0  0  0  0
    5.1513   -0.3220    0.3472 C   0  0  0  0  0  0  0  0  0  0  0  0
   -2.4291    0.6479    0.1670 C   0  0  0  0  0  0  0  0  0  0  0  0
    6.4916    0.2156   -0.1601 C   0  0  0  0  0  0  0  0  0  0  0  0
   -3.6329    1.4728   -0.3013 C   0  0  0  0  0  0  0  0  0  0  0  0
    7.6571   -0.6475    0.3265 C   0  0  0  0  0  0  0  0  0  0  0  0
   -4.9557    1.0254    0.3259 C   0  0  0  0  0  0  0  0  0  0  0  0
    8.9938   -0.1298   -0.2073 C   0  0  0  0  0  0  0  0  0  0  0  0
   -6.1637    1.8508   -0.1395 C   0  0  0  0  0  0  0  0  0  0  0  0
   10.1547   -1.0119    0.2516 C   0  0  0  0  0  0  0  0  0  0  0  0
   -7.5078    1.4604    0.4789 C   0  0  0  0  0  0  0  0  0  0  0  0
   11.4890   -0.4819   -0.2489 C   0  0  0  0  0  0  0  0  0  0  0  0
   -7.8968    0.0832    0.1477 C   0  0  0  0  0  0  0  0  0  0  0  0
   -8.2095   -1.0456   -0.1177 C   0  0  0  0  0  0  0  0  0  0  0  0
   -8.5847   -2.4273   -0.4405 C   0  0  0  0  0  0  0  0  0  0  0  0
   -7.5741   -3.4156    0.1168 C   0  0  0  0  0  0  0  0  0  0  0  0
    1.4874    0.7424   -1.4390 H   0  0  0  0  0  0  0  0  0  0  0  0
    1.5614    1.8401   -0.0639 H   0  0  0  0  0  0  0  0  0  0  0  0
    2.5419   -0.0100    1.3363 H   0  0  0  0  0  0  0  0  0  0  0  0
    2.5182   -1.0619   -0.0760 H   0  0  0  0  0  0  0  0  0  0  0  0
   -0.0653   -0.7469   -0.1871 H   0  0  0  0  0  0  0  0  0  0  0  0
    0.0517    0.2998    1.2241 H   0  0  0  0  0  0  0  0  0  0  0  0
    4.0920    1.5515    0.1847 H   0  0  0  0  0  0  0  0  0  0  0  0
    4.0312    0.5599   -1.2692 H   0  0  0  0  0  0  0  0  0  0  0  0
   -1.1157    1.0986   -1.4926 H   0  0  0  0  0  0  0  0  0  0  0  0
   -0.9422    2.1889   -0.1150 H   0  0  0  0  0  0  0  0  0  0  0  0
    5.1419   -0.3244    1.4437 H   0  0  0  0  0  0  0  0  0  0  0  0
    5.0252   -1.3610    0.0197 H   0  0  0  0  0  0  0  0  0  0  0  0
   -2.5805   -0.4003   -0.1190 H   0  0  0  0  0  0  0  0  0  0  0  0
   -2.3866    0.6736    1.2631 H   0  0  0  0  0  0  0  0  0  0  0  0
    6.6283    1.2480    0.1837 H   0  0  0  0  0  0  0  0  0  0  0  0
    6.4862    0.2377   -1.2568 H   0  0  0  0  0  0  0  0  0  0  0  0
   -3.4613    2.5285   -0.0573 H   0  0  0  0  0  0  0  0  0  0  0  0
   -3.7090    1.4085   -1.3937 H   0  0  0  0  0  0  0  0  0  0  0  0
    7.6761   -0.6561    1.4231 H   0  0  0  0  0  0  0  0  0  0  0  0
    7.5083   -1.6832   -0.0024 H   0  0  0  0  0  0  0  0  0  0  0  0
   -5.1163   -0.0322    0.0854 H   0  0  0  0  0  0  0  0  0  0  0  0
   -4.8779    1.0935    1.4180 H   0  0  0  0  0  0  0  0  0  0  0  0
    8.9674   -0.1010   -1.3034 H   0  0  0  0  0  0  0  0  0  0  0  0
    9.1526    0.8987    0.1391 H   0  0  0  0  0  0  0  0  0  0  0  0
   -6.2371    1.7796   -1.2327 H   0  0  0  0  0  0  0  0  0  0  0  0
   -5.9755    2.9070    0.0907 H   0  0  0  0  0  0  0  0  0  0  0  0
   10.1761   -1.0595    1.3466 H   0  0  0  0  0  0  0  0  0  0  0  0
   10.0125   -2.0352   -0.1150 H   0  0  0  0  0  0  0  0  0  0  0  0
   -8.2793    2.1520    0.1212 H   0  0  0  0  0  0  0  0  0  0  0  0
   -7.4564    1.5768    1.5677 H   0  0  0  0  0  0  0  0  0  0  0  0
   11.5128   -0.4500   -1.3428 H   0  0  0  0  0  0  0  0  0  0  0  0
   11.6766    0.5282    0.1289 H   0  0  0  0  0  0  0  0  0  0  0  0
   12.3047   -1.1282    0.0899 H   0  0  0  0  0  0  0  0  0  0  0  0
   -9.5756   -2.6489   -0.0289 H   0  0  0  0  0  0  0  0  0  0  0  0
   -8.6517   -2.5494   -1.5273 H   0  0  0  0  0  0  0  0  0  0  0  0
   -6.5756   -3.2360   -0.2967 H   0  0  0  0  0  0  0  0  0  0  0  0
   -7.5040   -3.3375    1.2073 H   0  0  0  0  0  0  0  0  0  0  0  0
   -7.8666   -4.4405   -0.1328 H   0  0  0  0  0  0  0  0  0  0  0  0
  1  2  1  0  0  0  0
  1  3  1  0  0  0  0
  1 21  1  0  0  0  0
  1 22  1  0  0  0  0
  2  4  1  0  0  0  0
  2 23  1  0  0  0  0
  2 24  1  0  0  0  0
  3  5  1  0  0  0  0
  3 25  1  0  0  0  0
  3 26  1  0  0  0  0
  4  6  1  0  0  0  0
  4 27  1  0  0  0  0
  4 28  1  0  0  0  0
  5  7  1  0  0  0  0
  5 29  1  0  0  0  0
  5 30  1  0  0  0  0
  6  8  1  0  0  0  0
  6 31  1  0  0  0  0
  6 32  1  0  0  0  0
  7  9  1  0  0  0  0
  7 33  1  0  0  0  0
  7 34  1  0  0  0  0
  8 10  1  0  0  0  0
  8 35  1  0  0  0  0
  8 36  1  0  0  0  0
  9 11  1  0  0  0  0
  9 37  1  0  0  0  0
  9 38  1  0  0  0  0
 10 12  1  0  0  0  0
 10 39  1  0  0  0  0
 10 40  1  0  0  0  0
 11 13  1  0  0  0  0
 11 41  1  0  0  0  0
 11 42  1  0  0  0  0
 12 14  1  0  0  0  0
 12 43  1  0  0  0  0
 12 44  1  0  0  0  0
 13 15  1  0  0  0  0
 13 45  1  0  0  0  0
 13 46  1  0  0  0  0
 14 16  1  0  0  0  0
 14 47  1  0  0  0  0
 14 48  1  0  0  0  0
 15 17  1  0  0  0  0
 15 49  1  0  0  0  0
 15 50  1  0  0  0  0
 16 51  1  0  0  0  0
 16 52  1  0  0  0  0
 16 53  1  0  0  0  0
 17 18  3  0  0  0  0
 18 19  1  0  0  0  0
 19 20  1  0  0  0  0
 19 54  1  0  0  0  0
 19 55  1  0  0  0  0
 20 56  1  0  0  0  0
 20 57  1  0  0  0  0
 20 58  1  0  0  0  0
M  END
> <PUBCHEM_COMPOUND_CID>
549159

> <PUBCHEM_CONFORMER_RMSD>
1.6

> <PUBCHEM_CONFORMER_DIVERSEORDER>
1
16
28
12
5
31
13
32
15
39
29
42
37
17
34
2
20
19
43
41
21
24
18
11
30
40
4
27
14
38
10
35
3
6
33
23
7
22
9
36
44
25
8
26
45

> <PUBCHEM_MMFF94_PARTIAL_CHARGES>
4
15 0.2
17 -0.2
18 -0.2
19 0.2

> <PUBCHEM_EFFECTIVE_ROTOR_COUNT>
14

> <PUBCHEM_PHARMACOPHORE_FEATURES>
2
1 16 hydrophobe
1 20 hydrophobe

> <PUBCHEM_HEAVY_ATOM_COUNT>
20

> <PUBCHEM_ATOM_DEF_STEREO_COUNT>
0

> <PUBCHEM_ATOM_UDEF_STEREO_COUNT>
0

> <PUBCHEM_BOND_DEF_STEREO_COUNT>
0

> <PUBCHEM_BOND_UDEF_STEREO_COUNT>
0

> <PUBCHEM_ISOTOPIC_ATOM_COUNT>
0

> <PUBCHEM_COMPONENT_COUNT>
1

> <PUBCHEM_CACTVS_TAUTO_COUNT>
1

> <PUBCHEM_CONFORMER_ID>
0008612700000001

> <PUBCHEM_MMFF94_ENERGY>
-5.3213

> <PUBCHEM_FEATURE_SELFOVERLAP>
10.149

> <PUBCHEM_SHAPE_FINGERPRINT>
11135609 99 18341049726756102749
12498461 61 18409725162724110154
12838862 33 15140675908656547736
14202775 3 18271812285892704870
14251764 18 17821727221671577281
14251764 46 15430042041243020432
14344974 52 18411699912147201424
14671636 106 18409729603761985275
15461852 350 18408045117382752893
15510794 2 18272937103303803638
16120349 18 17531252777644702740
21095086 128 18334575724950755912
21095123 145 18260829289220720220
21315763 28 18409167709833007269
21362267 2 13768218250738349870
21362267 20 18412260640379859986
232437 2 18408886218445813682
23378982 89 15940034988523724535
23521765 1 18342457011593464152
23528940 14 17775279509363349079
33684 2 16515688819520105824
395649 100 17894916269531755995
57676310 188 18040994016975235251
59521270 166 18260261916812084653
59682541 35 17775281673055544576
67123 10 18409167701944198888
8209 1 10807927164164646944

> <PUBCHEM_SHAPE_MULTIPOLES>
411.59
44.02
2.22
0.69
63.94
2.03
0
22.19
0.11
-9.07
0.07
-0.06
-0.01
-0.74

> <PUBCHEM_SHAPE_SELFOVERLAP>
743.746

> <PUBCHEM_SHAPE_VOLUME>
263.6

> <PUBCHEM_COORDINATE_TYPE>
2
5
10

$$$$
