72284
  -OEChem-09162016152D

100106  0     1  0  0  0  0  0999 V2000
    7.9632   -1.0616    0.0000 O   0  0  0  0  0  0  0  0  0  0  0  0
    8.3746    1.6634    0.0000 O   0  0  0  0  0  0  0  0  0  0  0  0
    5.5048    0.1839    0.0000 O   0  0  0  0  0  0  0  0  0  0  0  0
    8.1497   -0.6770    0.0000 O   0  0  0  0  0  0  0  0  0  0  0  0
    6.4650   -1.9084    0.0000 O   0  0  0  0  0  0  0  0  0  0  0  0
    5.0764    4.7331    0.0000 O   0  0  0  0  0  0  0  0  0  0  0  0
   10.1059    0.4794    0.0000 O   0  0  0  0  0  0  0  0  0  0  0  0
    7.3282    4.9653    0.0000 O   0  0  0  0  0  0  0  0  0  0  0  0
    9.0114    2.8748    0.0000 O   0  0  0  0  0  0  0  0  0  0  0  0
    3.9798    0.6714    0.0000 O   0  0  0  0  0  0  0  0  0  0  0  0
    6.3368    5.9220    0.0000 O   0  0  0  0  0  0  0  0  0  0  0  0
    3.3321    4.6493    0.0000 O   0  0  0  0  0  0  0  0  0  0  0  0
    8.5463    5.6266    0.0000 O   0  0  0  0  0  0  0  0  0  0  0  0
    2.3079    2.8754    0.0000 O   0  0  0  0  0  0  0  0  0  0  0  0
    9.3643    4.0999    0.0000 O   0  0  0  0  0  0  0  0  0  0  0  0
    7.5615   -2.5171    0.0000 O   0  0  0  0  0  0  0  0  0  0  0  0
    4.9610   -1.0494    0.0000 O   0  0  0  0  0  0  0  0  0  0  0  0
   11.5120   -0.5319    0.0000 O   0  0  0  0  0  0  0  0  0  0  0  0
    9.6895   -4.7549    0.0000 O   0  0  0  0  0  0  0  0  0  0  0  0
   11.5623   -1.8407    0.0000 O   0  0  0  0  0  0  0  0  0  0  0  0
   11.4671   -3.8385    0.0000 O   0  0  0  0  0  0  0  0  0  0  0  0
    2.4732   -3.6592    0.0000 O   0  0  0  0  0  0  0  0  0  0  0  0
    5.4813   -5.3772    0.0000 O   0  0  0  0  0  0  0  0  0  0  0  0
    3.4813   -5.3866    0.0000 O   0  0  0  0  0  0  0  0  0  0  0  0
   11.4463    3.8265    0.0000 O   0  0  0  0  0  0  0  0  0  0  0  0
   14.2586    1.8039    0.0000 O   0  0  0  0  0  0  0  0  0  0  0  0
   13.4364    3.6271    0.0000 O   0  0  0  0  0  0  0  0  0  0  0  0
    8.1388    0.6915    0.0000 C   0  0  1  0  0  0  0  0  0  0  0  0
    7.4151    0.0015    0.0000 C   0  0  1  0  0  0  0  0  0  0  0  0
    6.4332   -0.1878    0.0000 C   0  0  2  0  0  0  0  0  0  0  0  0
    8.5270   -0.2327    0.0000 C   0  0  1  0  0  0  0  0  0  0  0  0
    6.2660    3.3216    0.0000 C   0  0  1  0  0  0  0  0  0  0  0  0
    7.2615    3.2265    0.0000 C   0  0  1  0  0  0  0  0  0  0  0  0
    6.9609   -1.0401    0.0000 C   0  0  1  0  0  0  0  0  0  0  0  0
    5.3772    2.8633    0.0000 C   0  0  0  0  0  0  0  0  0  0  0  0
    6.6614    4.2200    0.0000 C   0  0  1  0  0  0  0  0  0  0  0  0
    9.5220   -0.3324    0.0000 C   0  0  0  0  0  0  0  0  0  0  0  0
    8.0475    2.6084    0.0000 C   0  0  0  0  0  0  0  0  0  0  0  0
    7.6332    4.1549    0.0000 C   0  0  0  0  0  0  0  0  0  0  0  0
    4.8772    1.9973    0.0000 C   0  0  0  0  0  0  0  0  0  0  0  0
    4.8703    3.7734    0.0000 C   0  0  0  0  0  0  0  0  0  0  0  0
    4.9248    0.9985    0.0000 C   0  0  0  0  0  0  0  0  0  0  0  0
    6.0288    4.9706    0.0000 C   0  0  0  0  0  0  0  0  0  0  0  0
    3.8357    1.9813    0.0000 C   0  0  0  0  0  0  0  0  0  0  0  0
    3.8287    3.7814    0.0000 C   0  0  0  0  0  0  0  0  0  0  0  0
    8.5146    4.6272    0.0000 C   0  0  0  0  0  0  0  0  0  0  0  0
    3.3079    2.8793    0.0000 C   0  0  0  0  0  0  0  0  0  0  0  0
    8.1022   -1.6759    0.0000 C   0  0  0  0  0  0  0  0  0  0  0  0
    5.4650   -1.9131    0.0000 C   0  0  0  0  0  0  0  0  0  0  0  0
    8.9434   -2.2165    0.0000 C   0  0  0  0  0  0  0  0  0  0  0  0
   11.1009    0.3797    0.0000 C   0  0  0  0  0  0  0  0  0  0  0  0
    4.9691   -2.7815    0.0000 C   0  0  0  0  0  0  0  0  0  0  0  0
   11.6847    1.1915    0.0000 C   0  0  0  0  0  0  0  0  0  0  0  0
    9.8322   -1.7583    0.0000 C   0  0  0  0  0  0  0  0  0  0  0  0
    8.8958   -3.2154    0.0000 C   0  0  0  0  0  0  0  0  0  0  0  0
    5.4731   -3.6451    0.0000 C   0  0  0  0  0  0  0  0  0  0  0  0
    3.9691   -2.7862    0.0000 C   0  0  0  0  0  0  0  0  0  0  0  0
    9.7370   -3.7561    0.0000 C   0  0  0  0  0  0  0  0  0  0  0  0
   10.6735   -2.2990    0.0000 C   0  0  0  0  0  0  0  0  0  0  0  0
   12.6798    1.0918    0.0000 C   0  0  0  0  0  0  0  0  0  0  0  0
   11.2736    2.1031    0.0000 C   0  0  0  0  0  0  0  0  0  0  0  0
   10.6259   -3.2978    0.0000 C   0  0  0  0  0  0  0  0  0  0  0  0
    3.4732   -3.6545    0.0000 C   0  0  0  0  0  0  0  0  0  0  0  0
    4.9772   -4.5135    0.0000 C   0  0  0  0  0  0  0  0  0  0  0  0
    3.9772   -4.5182    0.0000 C   0  0  0  0  0  0  0  0  0  0  0  0
   11.8575    2.9149    0.0000 C   0  0  0  0  0  0  0  0  0  0  0  0
   13.2636    1.9036    0.0000 C   0  0  0  0  0  0  0  0  0  0  0  0
   12.8525    2.8152    0.0000 C   0  0  0  0  0  0  0  0  0  0  0  0
    7.4027    1.1165    0.0000 H   0  0  0  0  0  0  0  0  0  0  0  0
    7.2452   -0.5948    0.0000 H   0  0  0  0  0  0  0  0  0  0  0  0
    5.8865   -0.8387    0.0000 H   0  0  0  0  0  0  0  0  0  0  0  0
    8.7892   -0.7945    0.0000 H   0  0  0  0  0  0  0  0  0  0  0  0
    7.0215    3.7111    0.0000 H   0  0  0  0  0  0  0  0  0  0  0  0
    7.8604    3.3870    0.0000 H   0  0  0  0  0  0  0  0  0  0  0  0
    7.2664   -1.5796    0.0000 H   0  0  0  0  0  0  0  0  0  0  0  0
    7.1827    3.8843    0.0000 H   0  0  0  0  0  0  0  0  0  0  0  0
    9.3540   -0.9292    0.0000 H   0  0  0  0  0  0  0  0  0  0  0  0
   10.0805   -0.6015    0.0000 H   0  0  0  0  0  0  0  0  0  0  0  0
    7.5094    4.7624    0.0000 H   0  0  0  0  0  0  0  0  0  0  0  0
    7.0157    4.2105    0.0000 H   0  0  0  0  0  0  0  0  0  0  0  0
    3.5319    1.4408    0.0000 H   0  0  0  0  0  0  0  0  0  0  0  0
    7.1347    5.5544    0.0000 H   0  0  0  0  0  0  0  0  0  0  0  0
    2.7121    4.6517    0.0000 H   0  0  0  0  0  0  0  0  0  0  0  0
    9.0928    5.9195    0.0000 H   0  0  0  0  0  0  0  0  0  0  0  0
    2.0000    2.3373    0.0000 H   0  0  0  0  0  0  0  0  0  0  0  0
    9.8617   -1.1390    0.0000 H   0  0  0  0  0  0  0  0  0  0  0  0
    8.3447   -3.4995    0.0000 H   0  0  0  0  0  0  0  0  0  0  0  0
    6.0931   -3.6422    0.0000 H   0  0  0  0  0  0  0  0  0  0  0  0
    3.6566   -2.2507    0.0000 H   0  0  0  0  0  0  0  0  0  0  0  0
   12.9347    0.5266    0.0000 H   0  0  0  0  0  0  0  0  0  0  0  0
   10.6567    2.1649    0.0000 H   0  0  0  0  0  0  0  0  0  0  0  0
   10.2110   -5.0901    0.0000 H   0  0  0  0  0  0  0  0  0  0  0  0
   12.0839   -2.1759    0.0000 H   0  0  0  0  0  0  0  0  0  0  0  0
   11.4376   -4.4578    0.0000 H   0  0  0  0  0  0  0  0  0  0  0  0
    2.1657   -4.1976    0.0000 H   0  0  0  0  0  0  0  0  0  0  0  0
    6.1013   -5.3743    0.0000 H   0  0  0  0  0  0  0  0  0  0  0  0
    3.7938   -5.9220    0.0000 H   0  0  0  0  0  0  0  0  0  0  0  0
   11.8083    4.3299    0.0000 H   0  0  0  0  0  0  0  0  0  0  0  0
   14.5136    1.2388    0.0000 H   0  0  0  0  0  0  0  0  0  0  0  0
   14.0533    3.5652    0.0000 H   0  0  0  0  0  0  0  0  0  0  0  0
  1 31  1  0  0  0  0
  1 34  1  0  0  0  0
  2 28  1  0  0  0  0
  2 38  1  0  0  0  0
  3 30  1  0  0  0  0
  3 42  1  0  0  0  0
 29  4  1  6  0  0  0
  4 48  1  0  0  0  0
 34  5  1  1  0  0  0
  5 49  1  0  0  0  0
  6 41  1  0  0  0  0
  6 43  1  0  0  0  0
  7 37  1  0  0  0  0
  7 51  1  0  0  0  0
 36  8  1  1  0  0  0
  8 82  1  0  0  0  0
  9 38  2  0  0  0  0
 10 42  2  0  0  0  0
 11 43  2  0  0  0  0
 12 45  1  0  0  0  0
 12 83  1  0  0  0  0
 13 46  1  0  0  0  0
 13 84  1  0  0  0  0
 14 47  1  0  0  0  0
 14 85  1  0  0  0  0
 15 46  2  0  0  0  0
 16 48  2  0  0  0  0
 17 49  2  0  0  0  0
 18 51  2  0  0  0  0
 19 58  1  0  0  0  0
 19 92  1  0  0  0  0
 20 59  1  0  0  0  0
 20 93  1  0  0  0  0
 21 62  1  0  0  0  0
 21 94  1  0  0  0  0
 22 63  1  0  0  0  0
 22 95  1  0  0  0  0
 23 64  1  0  0  0  0
 23 96  1  0  0  0  0
 24 65  1  0  0  0  0
 24 97  1  0  0  0  0
 25 66  1  0  0  0  0
 25 98  1  0  0  0  0
 26 67  1  0  0  0  0
 26 99  1  0  0  0  0
 27 68  1  0  0  0  0
 27100  1  0  0  0  0
 28 29  1  0  0  0  0
 28 31  1  0  0  0  0
 28 69  1  1  0  0  0
 29 30  1  0  0  0  0
 29 70  1  0  0  0  0
 30 34  1  0  0  0  0
 30 71  1  1  0  0  0
 31 37  1  1  0  0  0
 31 72  1  0  0  0  0
 32 33  1  0  0  0  0
 32 35  1  0  0  0  0
 32 36  1  0  0  0  0
 32 73  1  6  0  0  0
 33 38  1  0  0  0  0
 33 39  1  6  0  0  0
 33 74  1  0  0  0  0
 34 75  1  0  0  0  0
 35 40  1  0  0  0  0
 35 41  2  0  0  0  0
 36 43  1  0  0  0  0
 36 76  1  0  0  0  0
 37 77  1  0  0  0  0
 37 78  1  0  0  0  0
 39 46  1  0  0  0  0
 39 79  1  0  0  0  0
 39 80  1  0  0  0  0
 40 42  1  0  0  0  0
 40 44  2  0  0  0  0
 41 45  1  0  0  0  0
 44 47  1  0  0  0  0
 44 81  1  0  0  0  0
 45 47  2  0  0  0  0
 48 50  1  0  0  0  0
 49 52  1  0  0  0  0
 50 54  2  0  0  0  0
 50 55  1  0  0  0  0
 51 53  1  0  0  0  0
 52 56  2  0  0  0  0
 52 57  1  0  0  0  0
 53 60  2  0  0  0  0
 53 61  1  0  0  0  0
 54 59  1  0  0  0  0
 54 86  1  0  0  0  0
 55 58  2  0  0  0  0
 55 87  1  0  0  0  0
 56 64  1  0  0  0  0
 56 88  1  0  0  0  0
 57 63  2  0  0  0  0
 57 89  1  0  0  0  0
 58 62  1  0  0  0  0
 59 62  2  0  0  0  0
 60 67  1  0  0  0  0
 60 90  1  0  0  0  0
 61 66  2  0  0  0  0
 61 91  1  0  0  0  0
 63 65  1  0  0  0  0
 64 65  2  0  0  0  0
 66 68  1  0  0  0  0
 67 68  2  0  0  0  0
M  END
> <PUBCHEM_COMPOUND_CID>
72284

> <PUBCHEM_COMPOUND_CANONICALIZED>
1

> <PUBCHEM_CACTVS_COMPLEXITY>
1880

> <PUBCHEM_CACTVS_HBOND_ACCEPTOR>
27

> <PUBCHEM_CACTVS_HBOND_DONOR>
13

> <PUBCHEM_CACTVS_ROTATABLE_BOND>
12

> <PUBCHEM_CACTVS_SUBSKEYS>
AAADcfB8PgAAAAAAAAAAAAAAAAAAAAAAAAA0aMGCAAAAAACRVAAAGgAACAAADRSwmAMwDoAABgCIAiDSCAICCAAkIAAAiAFGiMgdNzKGNRqieyOlwBUPuYfL7vzOoAABCAAYQABAAAIQADCAAAAAAAAAAA==

> <PUBCHEM_IUPAC_OPENEYE_NAME>
2-[(4R,5S,7R,8R,11S,12S,13S,21S)-13,17,18-trihydroxy-2,10,14-trioxo-5,21-bis[(3,4,5-trihydroxybenzoyl)oxy]-7-[(3,4,5-trihydroxybenzoyl)oxymethyl]-3,6,9,15-tetraoxatetracyclo[10.7.1.14,8.016,20]henicosa-1(19),16(20),17-trien-11-yl]acetic acid

> <PUBCHEM_IUPAC_CAS_NAME>
2-[(4R,5S,7R,8R,11S,12S,13S,21S)-13,17,18-trihydroxy-2,10,14-trioxo-5,21-bis[oxo-(3,4,5-trihydroxyphenyl)methoxy]-7-[[oxo-(3,4,5-trihydroxyphenyl)methoxy]methyl]-3,6,9,15-tetraoxatetracyclo[10.7.1.14,8.016,20]heneicosa-1(19),16(20),17-trien-11-yl]acetic acid

> <PUBCHEM_IUPAC_NAME_MARKUP>
2-[(4<I>R</I>,5<I>S</I>,7<I>R</I>,8<I>R</I>,11<I>S</I>,12<I>S</I>,13<I>S</I>,21<I>S</I>)-13,17,18-trihydroxy-2,10,14-trioxo-5,21-bis[(3,4,5-trihydroxybenzoyl)oxy]-7-[(3,4,5-trihydroxybenzoyl)oxymethyl]-3,6,9,15-tetraoxatetracyclo[10.7.1.1<SUP>4,8</SUP>.0<SUP>16,20</SUP>]henicosa-1(19),16(20),17-trien-11-yl]acetic acid

> <PUBCHEM_IUPAC_NAME>
2-[(4R,5S,7R,8R,11S,12S,13S,21S)-13,17,18-trihydroxy-2,10,14-trioxo-5,21-bis[(3,4,5-trihydroxybenzoyl)oxy]-7-[(3,4,5-trihydroxybenzoyl)oxymethyl]-3,6,9,15-tetraoxatetracyclo[10.7.1.14,8.016,20]henicosa-1(19),16(20),17-trien-11-yl]acetic acid

> <PUBCHEM_IUPAC_SYSTEMATIC_NAME>
2-[(4R,5S,7R,8R,11S,12S,13S,21S)-13,17,18-tris(oxidanyl)-2,10,14-tris(oxidanylidene)-5,21-bis[[3,4,5-tris(oxidanyl)phenyl]carbonyloxy]-7-[[3,4,5-tris(oxidanyl)phenyl]carbonyloxymethyl]-3,6,9,15-tetraoxatetracyclo[10.7.1.14,8.016,20]henicosa-1(19),16(20),17-trien-11-yl]ethanoic acid

> <PUBCHEM_IUPAC_TRADITIONAL_NAME>
2-[(4R,5S,7R,8R,11S,12S,13S,21S)-5,21-digalloyloxy-7-(galloyloxymethyl)-13,17,18-trihydroxy-2,10,14-triketo-3,6,9,15-tetraoxatetracyclo[10.7.1.14,8.016,20]heneicosa-1(19),16(20),17-trien-11-yl]acetic acid

> <PUBCHEM_IUPAC_INCHI>
InChI=1S/C41H32O27/c42-15-1-10(2-16(43)26(15)51)35(56)62-9-22-31-33(66-36(57)11-3-17(44)27(52)18(45)4-11)34(41(63-22)68-37(58)12-5-19(46)28(53)20(47)6-12)67-38(59)13-7-21(48)29(54)32-25(13)24(30(55)40(61)65-32)14(8-23(49)50)39(60)64-31/h1-7,14,22,24,30-31,33-34,41-48,51-55H,8-9H2,(H,49,50)/t14-,22+,24-,30-,31+,33-,34+,41-/m0/s1

> <PUBCHEM_IUPAC_INCHIKEY>
YGVHOSGNOYKRIH-FJPMMHPYSA-N

> <PUBCHEM_XLOGP3_AA>
0.7

> <PUBCHEM_EXACT_MASS>
956.113096

> <PUBCHEM_MOLECULAR_FORMULA>
C41H32O27

> <PUBCHEM_MOLECULAR_WEIGHT>
956.7

> <PUBCHEM_OPENEYE_CAN_SMILES>
C1=C(C=C(C(=C1O)O)O)C(=O)OCC2C3C(C(C(O2)OC(=O)C4=CC(=C(C(=C4)O)O)O)OC(=O)C5=CC(=C(C6=C5C(C(C(=O)O3)CC(=O)O)C(C(=O)O6)O)O)O)OC(=O)C7=CC(=C(C(=C7)O)O)O

> <PUBCHEM_OPENEYE_ISO_SMILES>
C1=C(C=C(C(=C1O)O)O)C(=O)OC[C@@H]2[C@@H]3[C@@H]([C@H]([C@@H](O2)OC(=O)C4=CC(=C(C(=C4)O)O)O)OC(=O)C5=CC(=C(C6=C5[C@H]([C@@H](C(=O)O3)CC(=O)O)[C@@H](C(=O)O6)O)O)O)OC(=O)C7=CC(=C(C(=C7)O)O)O

> <PUBCHEM_CACTVS_TPSA>
447

> <PUBCHEM_MONOISOTOPIC_WEIGHT>
956.113096

> <PUBCHEM_TOTAL_CHARGE>
0

> <PUBCHEM_HEAVY_ATOM_COUNT>
68

> <PUBCHEM_ATOM_DEF_STEREO_COUNT>
8

> <PUBCHEM_ATOM_UDEF_STEREO_COUNT>
0

> <PUBCHEM_BOND_DEF_STEREO_COUNT>
0

> <PUBCHEM_BOND_UDEF_STEREO_COUNT>
0

> <PUBCHEM_ISOTOPIC_ATOM_COUNT>
0

> <PUBCHEM_COMPONENT_COUNT>
1

> <PUBCHEM_CACTVS_TAUTO_COUNT>
-1

> <PUBCHEM_COORDINATE_TYPE>
1
5
255

> <PUBCHEM_BONDANNOTATIONS>
28  69  5
30  71  5
31  37  5
32  73  6
33  39  6
35  40  8
35  41  8
29  4  6
40  44  8
41  45  8
44  47  8
45  47  8
34  5  5
50  54  8
50  55  8
52  56  8
52  57  8
53  60  8
53  61  8
54  59  8
55  58  8
56  64  8
57  63  8
58  62  8
59  62  8
60  67  8
61  66  8
63  65  8
64  65  8
66  68  8
67  68  8
36  8  5

$$$$
