14411426
  -OEChem-09162017272D

 82 87  0     1  0  0  0  0  0999 V2000
    7.0649    0.1416    0.0000 O   0  0  0  0  0  0  0  0  0  0  0  0
    9.4313    1.1626    0.0000 O   0  0  0  0  0  0  0  0  0  0  0  0
    8.9654   -1.3765    0.0000 O   0  0  0  0  0  0  0  0  0  0  0  0
    9.3324    1.7104    0.0000 O   0  0  0  0  0  0  0  0  0  0  0  0
    6.6525    1.3441    0.0000 O   0  0  0  0  0  0  0  0  0  0  0  0
    5.8264    0.1967    0.0000 O   0  0  0  0  0  0  0  0  0  0  0  0
   10.0385    2.6285    0.0000 O   0  0  0  0  0  0  0  0  0  0  0  0
    7.4654   -2.2425    0.0000 O   0  0  0  0  0  0  0  0  0  0  0  0
    6.0601   -0.2835    0.0000 O   0  0  0  0  0  0  0  0  0  0  0  0
    4.5676    1.1626    0.0000 O   0  0  0  0  0  0  0  0  0  0  0  0
    6.3033    4.5084    0.0000 O   0  0  0  0  0  0  0  0  0  0  0  0
    6.8625    4.6583    0.0000 O   0  0  0  0  0  0  0  0  0  0  0  0
    9.6612    5.2733    0.0000 O   0  0  0  0  0  0  0  0  0  0  0  0
    7.6827    5.8034    0.0000 O   0  0  0  0  0  0  0  0  0  0  0  0
    5.0204    5.0901    0.0000 O   0  0  0  0  0  0  0  0  0  0  0  0
    3.5720    3.6417    0.0000 O   0  0  0  0  0  0  0  0  0  0  0  0
   11.4654   -3.9745    0.0000 O   0  0  0  0  0  0  0  0  0  0  0  0
    8.4654   -5.7066    0.0000 O   0  0  0  0  0  0  0  0  0  0  0  0
   10.4654   -5.7066    0.0000 O   0  0  0  0  0  0  0  0  0  0  0  0
    4.7018   -2.5540    0.0000 O   0  0  0  0  0  0  0  0  0  0  0  0
    2.4749    0.0997    0.0000 O   0  0  0  0  0  0  0  0  0  0  0  0
    2.8223   -1.8699    0.0000 O   0  0  0  0  0  0  0  0  0  0  0  0
    8.4654   -0.5104    0.0000 C   0  0  1  0  0  0  0  0  0  0  0  0
    9.1725    0.1967    0.0000 C   0  0  1  0  0  0  0  0  0  0  0  0
    7.4995   -0.7693    0.0000 C   0  0  1  0  0  0  0  0  0  0  0  0
    8.6010    1.0284    0.0000 C   0  0  2  0  0  0  0  0  0  0  0  0
    7.5922    1.0020    0.0000 C   0  0  1  0  0  0  0  0  0  0  0  0
    6.5335   -0.5104    0.0000 C   0  0  0  0  0  0  0  0  0  0  0  0
    9.1725    2.1285    0.0000 C   0  0  0  0  0  0  0  0  0  0  0  0
    8.4654   -2.2425    0.0000 C   0  0  0  0  0  0  0  0  0  0  0  0
    8.4654    2.8356    0.0000 C   0  0  0  0  0  0  0  0  0  0  0  0
    5.8864    0.7013    0.0000 C   0  0  0  0  0  0  0  0  0  0  0  0
    5.5676    1.1626    0.0000 C   0  0  0  0  0  0  0  0  0  0  0  0
    7.4995    3.0944    0.0000 C   0  0  0  0  0  0  0  0  0  0  0  0
    5.8264    2.1285    0.0000 C   0  0  0  0  0  0  0  0  0  0  0  0
    6.5335    2.8356    0.0000 C   0  0  0  0  0  0  0  0  0  0  0  0
    8.9654   -3.1085    0.0000 C   0  0  0  0  0  0  0  0  0  0  0  0
    9.2132    3.5607    0.0000 C   0  0  0  0  0  0  0  0  0  0  0  0
    5.1204    0.0585    0.0000 C   0  0  0  0  0  0  0  0  0  0  0  0
    7.2144    4.0963    0.0000 C   0  0  0  0  0  0  0  0  0  0  0  0
    6.2795    3.8458    0.0000 C   0  0  0  0  0  0  0  0  0  0  0  0
    4.8163    2.3826    0.0000 C   0  0  0  0  0  0  0  0  0  0  0  0
    8.9514    4.5689    0.0000 C   0  0  0  0  0  0  0  0  0  0  0  0
    7.9452    4.8385    0.0000 C   0  0  0  0  0  0  0  0  0  0  0  0
    8.4654   -3.9745    0.0000 C   0  0  0  0  0  0  0  0  0  0  0  0
    9.9654   -3.1085    0.0000 C   0  0  0  0  0  0  0  0  0  0  0  0
    5.2755    4.1232    0.0000 C   0  0  0  0  0  0  0  0  0  0  0  0
    4.5389    3.3866    0.0000 C   0  0  0  0  0  0  0  0  0  0  0  0
    4.1807    0.4005    0.0000 C   0  0  0  0  0  0  0  0  0  0  0  0
    5.2941   -0.9263    0.0000 C   0  0  0  0  0  0  0  0  0  0  0  0
   10.4654   -3.9745    0.0000 C   0  0  0  0  0  0  0  0  0  0  0  0
    8.9654   -4.8406    0.0000 C   0  0  0  0  0  0  0  0  0  0  0  0
    9.9654   -4.8406    0.0000 C   0  0  0  0  0  0  0  0  0  0  0  0
    4.5281   -1.5691    0.0000 C   0  0  0  0  0  0  0  0  0  0  0  0
    3.4147   -0.2423    0.0000 C   0  0  0  0  0  0  0  0  0  0  0  0
    3.5883   -1.2271    0.0000 C   0  0  0  0  0  0  0  0  0  0  0  0
    9.0801   -0.5914    0.0000 H   0  0  0  0  0  0  0  0  0  0  0  0
    9.6539   -0.5039    0.0000 H   0  0  0  0  0  0  0  0  0  0  0  0
    7.4995   -1.6193    0.0000 H   0  0  0  0  0  0  0  0  0  0  0  0
    8.3663    1.6022    0.0000 H   0  0  0  0  0  0  0  0  0  0  0  0
    7.6919    1.6140    0.0000 H   0  0  0  0  0  0  0  0  0  0  0  0
    5.9716   -0.7725    0.0000 H   0  0  0  0  0  0  0  0  0  0  0  0
    6.8435    0.0265    0.0000 H   0  0  0  0  0  0  0  0  0  0  0  0
    9.9253    1.5290    0.0000 H   0  0  0  0  0  0  0  0  0  0  0  0
    9.8102    3.3934    0.0000 H   0  0  0  0  0  0  0  0  0  0  0  0
    4.3830    1.9391    0.0000 H   0  0  0  0  0  0  0  0  0  0  0  0
    7.8454   -3.9745    0.0000 H   0  0  0  0  0  0  0  0  0  0  0  0
   10.2754   -2.5716    0.0000 H   0  0  0  0  0  0  0  0  0  0  0  0
    4.0730    1.0111    0.0000 H   0  0  0  0  0  0  0  0  0  0  0  0
    5.8768   -1.1384    0.0000 H   0  0  0  0  0  0  0  0  0  0  0  0
    6.0348    5.0673    0.0000 H   0  0  0  0  0  0  0  0  0  0  0  0
    6.8156    5.2765    0.0000 H   0  0  0  0  0  0  0  0  0  0  0  0
   10.2595    5.1105    0.0000 H   0  0  0  0  0  0  0  0  0  0  0  0
    8.1194    6.2435    0.0000 H   0  0  0  0  0  0  0  0  0  0  0  0
    4.4221    5.2528    0.0000 H   0  0  0  0  0  0  0  0  0  0  0  0
    3.1353    3.2016    0.0000 H   0  0  0  0  0  0  0  0  0  0  0  0
   11.7754   -4.5115    0.0000 H   0  0  0  0  0  0  0  0  0  0  0  0
    7.8454   -5.7066    0.0000 H   0  0  0  0  0  0  0  0  0  0  0  0
   10.1554   -6.2435    0.0000 H   0  0  0  0  0  0  0  0  0  0  0  0
    4.2268   -2.9525    0.0000 H   0  0  0  0  0  0  0  0  0  0  0  0
    2.0000   -0.2988    0.0000 H   0  0  0  0  0  0  0  0  0  0  0  0
    2.9300   -2.4805    0.0000 H   0  0  0  0  0  0  0  0  0  0  0  0
  1 25  1  0  0  0  0
  1 27  1  0  0  0  0
  2 24  1  0  0  0  0
  2 29  1  0  0  0  0
 23  3  1  6  0  0  0
  3 30  1  0  0  0  0
 26  4  1  6  0  0  0
  4 64  1  0  0  0  0
 27  5  1  1  0  0  0
  5 32  1  0  0  0  0
  6 28  1  0  0  0  0
  6 33  1  0  0  0  0
  7 29  2  0  0  0  0
  8 30  2  0  0  0  0
  9 32  2  0  0  0  0
 10 33  2  0  0  0  0
 11 40  1  0  0  0  0
 11 71  1  0  0  0  0
 12 41  1  0  0  0  0
 12 72  1  0  0  0  0
 13 43  1  0  0  0  0
 13 73  1  0  0  0  0
 14 44  1  0  0  0  0
 14 74  1  0  0  0  0
 15 47  1  0  0  0  0
 15 75  1  0  0  0  0
 16 48  1  0  0  0  0
 16 76  1  0  0  0  0
 17 51  1  0  0  0  0
 17 77  1  0  0  0  0
 18 52  1  0  0  0  0
 18 78  1  0  0  0  0
 19 53  1  0  0  0  0
 19 79  1  0  0  0  0
 20 54  1  0  0  0  0
 20 80  1  0  0  0  0
 21 55  1  0  0  0  0
 21 81  1  0  0  0  0
 22 56  1  0  0  0  0
 22 82  1  0  0  0  0
 23 24  1  0  0  0  0
 23 25  1  0  0  0  0
 23 57  1  0  0  0  0
 24 26  1  0  0  0  0
 24 58  1  6  0  0  0
 25 28  1  0  0  0  0
 25 59  1  6  0  0  0
 26 27  1  0  0  0  0
 26 60  1  0  0  0  0
 27 61  1  0  0  0  0
 28 62  1  0  0  0  0
 28 63  1  0  0  0  0
 29 31  1  0  0  0  0
 30 37  1  0  0  0  0
 31 34  1  0  0  0  0
 31 38  2  0  0  0  0
 32 39  1  0  0  0  0
 33 35  1  0  0  0  0
 34 36  1  0  0  0  0
 34 40  2  0  0  0  0
 35 36  1  0  0  0  0
 35 42  2  0  0  0  0
 36 41  2  0  0  0  0
 37 45  2  0  0  0  0
 37 46  1  0  0  0  0
 38 43  1  0  0  0  0
 38 65  1  0  0  0  0
 39 49  2  0  0  0  0
 39 50  1  0  0  0  0
 40 44  1  0  0  0  0
 41 47  1  0  0  0  0
 42 48  1  0  0  0  0
 42 66  1  0  0  0  0
 43 44  2  0  0  0  0
 45 52  1  0  0  0  0
 45 67  1  0  0  0  0
 46 51  2  0  0  0  0
 46 68  1  0  0  0  0
 47 48  2  0  0  0  0
 49 55  1  0  0  0  0
 49 69  1  0  0  0  0
 50 54  2  0  0  0  0
 50 70  1  0  0  0  0
 51 53  1  0  0  0  0
 52 53  2  0  0  0  0
 54 56  1  0  0  0  0
 55 56  2  0  0  0  0
M  END
> <PUBCHEM_COMPOUND_CID>
14411426

> <PUBCHEM_COMPOUND_CANONICALIZED>
1

> <PUBCHEM_CACTVS_COMPLEXITY>
1420

> <PUBCHEM_CACTVS_HBOND_ACCEPTOR>
22

> <PUBCHEM_CACTVS_HBOND_DONOR>
13

> <PUBCHEM_CACTVS_ROTATABLE_BOND>
6

> <PUBCHEM_CACTVS_SUBSKEYS>
AAADceB8PgAAAAAAAAAAAAAAAAAAAAAAAAA0YMGCAAAAAAABVAAAGgAACAAADBSwmAMwDoAABgCIAiDSCAACAAAkIAAAiAEGiMgZNzKCNRqicQElwBUPuYfK7PzOoAABCAAYQABAAAIQADCAAAAAAAAAAA==

> <PUBCHEM_IUPAC_OPENEYE_NAME>
[(1R,19R,21S,22R,23R)-6,7,8,11,12,13,22-heptahydroxy-3,16-dioxo-21-(3,4,5-trihydroxybenzoyl)oxy-2,17,20-trioxatetracyclo[17.3.1.04,9.010,15]tricosa-4,6,8,10,12,14-hexaen-23-yl] 3,4,5-trihydroxybenzoate

> <PUBCHEM_IUPAC_CAS_NAME>
3,4,5-trihydroxybenzoic acid [(1R,19R,21S,22R,23R)-6,7,8,11,12,13,22-heptahydroxy-3,16-dioxo-21-[oxo-(3,4,5-trihydroxyphenyl)methoxy]-2,17,20-trioxatetracyclo[17.3.1.04,9.010,15]tricosa-4,6,8,10,12,14-hexaen-23-yl] ester

> <PUBCHEM_IUPAC_NAME_MARKUP>
[(1<I>R</I>,19<I>R</I>,21<I>S</I>,22<I>R</I>,23<I>R</I>)-6,7,8,11,12,13,22-heptahydroxy-3,16-dioxo-21-(3,4,5-trihydroxybenzoyl)oxy-2,17,20-trioxatetracyclo[17.3.1.0<SUP>4,9</SUP>.0<SUP>10,15</SUP>]tricosa-4,6,8,10,12,14-hexaen-23-yl] 3,4,5-trihydroxybenzoate

> <PUBCHEM_IUPAC_NAME>
[(1R,19R,21S,22R,23R)-6,7,8,11,12,13,22-heptahydroxy-3,16-dioxo-21-(3,4,5-trihydroxybenzoyl)oxy-2,17,20-trioxatetracyclo[17.3.1.04,9.010,15]tricosa-4,6,8,10,12,14-hexaen-23-yl] 3,4,5-trihydroxybenzoate

> <PUBCHEM_IUPAC_SYSTEMATIC_NAME>
[(1R,19R,21S,22R,23R)-6,7,8,11,12,13,22-heptakis(oxidanyl)-3,16-bis(oxidanylidene)-21-[3,4,5-tris(oxidanyl)phenyl]carbonyloxy-2,17,20-trioxatetracyclo[17.3.1.04,9.010,15]tricosa-4,6,8,10,12,14-hexaen-23-yl] 3,4,5-tris(oxidanyl)benzoate

> <PUBCHEM_IUPAC_TRADITIONAL_NAME>
3,4,5-trihydroxybenzoic acid [(1R,19R,21S,22R,23R)-21-galloyloxy-6,7,8,11,12,13,22-heptahydroxy-3,16-diketo-2,17,20-trioxatetracyclo[17.3.1.04,9.010,15]tricosa-4,6,8,10,12,14-hexaen-23-yl] ester

> <PUBCHEM_IUPAC_INCHI>
InChI=1S/C34H26O22/c35-12-1-8(2-13(36)21(12)41)30(48)54-28-18-7-52-32(50)10-5-16(39)23(43)25(45)19(10)20-11(6-17(40)24(44)26(20)46)33(51)55-29(28)27(47)34(53-18)56-31(49)9-3-14(37)22(42)15(38)4-9/h1-6,18,27-29,34-47H,7H2/t18-,27-,28-,29-,34+/m1/s1

> <PUBCHEM_IUPAC_INCHIKEY>
NALYUPYCMXELRP-LQZDAVIGSA-N

> <PUBCHEM_XLOGP3_AA>
1.2

> <PUBCHEM_EXACT_MASS>
786.091572

> <PUBCHEM_MOLECULAR_FORMULA>
C34H26O22

> <PUBCHEM_MOLECULAR_WEIGHT>
786.6

> <PUBCHEM_OPENEYE_CAN_SMILES>
C1C2C(C(C(C(O2)OC(=O)C3=CC(=C(C(=C3)O)O)O)O)OC(=O)C4=CC(=C(C(=C4C5=C(C(=C(C=C5C(=O)O1)O)O)O)O)O)O)OC(=O)C6=CC(=C(C(=C6)O)O)O

> <PUBCHEM_OPENEYE_ISO_SMILES>
C1[C@@H]2[C@H]([C@@H]([C@H]([C@@H](O2)OC(=O)C3=CC(=C(C(=C3)O)O)O)O)OC(=O)C4=CC(=C(C(=C4C5=C(C(=C(C=C5C(=O)O1)O)O)O)O)O)O)OC(=O)C6=CC(=C(C(=C6)O)O)O

> <PUBCHEM_CACTVS_TPSA>
377

> <PUBCHEM_MONOISOTOPIC_WEIGHT>
786.091572

> <PUBCHEM_TOTAL_CHARGE>
0

> <PUBCHEM_HEAVY_ATOM_COUNT>
56

> <PUBCHEM_ATOM_DEF_STEREO_COUNT>
5

> <PUBCHEM_ATOM_UDEF_STEREO_COUNT>
0

> <PUBCHEM_BOND_DEF_STEREO_COUNT>
0

> <PUBCHEM_BOND_UDEF_STEREO_COUNT>
0

> <PUBCHEM_ISOTOPIC_ATOM_COUNT>
0

> <PUBCHEM_COMPONENT_COUNT>
1

> <PUBCHEM_CACTVS_TAUTO_COUNT>
-1

> <PUBCHEM_COORDINATE_TYPE>
1
5
255

> <PUBCHEM_BONDANNOTATIONS>
24  58  6
25  59  6
23  3  6
31  34  8
31  38  8
34  40  8
35  36  8
35  42  8
36  41  8
37  45  8
37  46  8
38  43  8
39  49  8
39  50  8
26  4  6
40  44  8
41  47  8
42  48  8
43  44  8
45  52  8
46  51  8
47  48  8
49  55  8
27  5  5
50  54  8
51  53  8
52  53  8
54  56  8
55  56  8

$$$$
