119058017
  -OEChem-09162015302D

 76 82  0     1  0  0  0  0  0999 V2000
    5.9860    1.8909    0.0000 O   0  0  0  0  0  0  0  0  0  0  0  0
    6.8680   -0.6506    0.0000 O   0  0  0  0  0  0  0  0  0  0  0  0
    8.4266   -0.1035    0.0000 O   0  0  0  0  0  0  0  0  0  0  0  0
    4.8772   -0.6165    0.0000 O   0  0  0  0  0  0  0  0  0  0  0  0
    8.4494    2.8475    0.0000 O   0  0  0  0  0  0  0  0  0  0  0  0
    6.8802    3.4187    0.0000 O   0  0  0  0  0  0  0  0  0  0  0  0
    5.8477   -2.3309    0.0000 O   0  0  0  0  0  0  0  0  0  0  0  0
    6.3741   -4.9848    0.0000 O   0  0  0  0  0  0  0  0  0  0  0  0
    5.8772   -0.6165    0.0000 O   0  0  0  0  0  0  0  0  0  0  0  0
    5.3803   -4.9848    0.0000 O   0  0  0  0  0  0  0  0  0  0  0  0
    9.4939   -1.4913    0.0000 O   0  0  0  0  0  0  0  0  0  0  0  0
   13.4922    0.8851    0.0000 O   0  0  0  0  0  0  0  0  0  0  0  0
   13.4991    1.7810    0.0000 O   0  0  0  0  0  0  0  0  0  0  0  0
    9.5379    4.2187    0.0000 O   0  0  0  0  0  0  0  0  0  0  0  0
    8.4223   -5.0006    0.0000 O   0  0  0  0  0  0  0  0  0  0  0  0
    9.4464   -3.2267    0.0000 O   0  0  0  0  0  0  0  0  0  0  0  0
    3.3321   -5.0006    0.0000 O   0  0  0  0  0  0  0  0  0  0  0  0
    2.3079   -3.2267    0.0000 O   0  0  0  0  0  0  0  0  0  0  0  0
   13.9982   -0.5746    0.0000 O   0  0  0  0  0  0  0  0  0  0  0  0
   12.6718   -2.3464    0.0000 O   0  0  0  0  0  0  0  0  0  0  0  0
   14.0275    3.2326    0.0000 O   0  0  0  0  0  0  0  0  0  0  0  0
   12.7286    5.0247    0.0000 O   0  0  0  0  0  0  0  0  0  0  0  0
    6.0020    0.8494    0.0000 C   0  0  1  0  0  0  0  0  0  0  0  0
    6.8680    0.3494    0.0000 C   0  0  2  0  0  0  0  0  0  0  0  0
    7.7780    0.8563    0.0000 C   0  0  0  0  0  0  0  0  0  0  0  0
    5.1360    0.3494    0.0000 C   0  0  0  0  0  0  0  0  0  0  0  0
    7.7861    1.8978    0.0000 C   0  0  0  0  0  0  0  0  0  0  0  0
    6.8840    2.4187    0.0000 C   0  0  0  0  0  0  0  0  0  0  0  0
    6.3772   -3.2146    0.0000 C   0  0  0  0  0  0  0  0  0  0  0  0
    6.8772   -2.3486    0.0000 C   0  0  0  0  0  0  0  0  0  0  0  0
    5.3772   -3.2146    0.0000 C   0  0  0  0  0  0  0  0  0  0  0  0
    6.3772   -1.4825    0.0000 C   0  0  0  0  0  0  0  0  0  0  0  0
    4.8772   -2.3486    0.0000 C   0  0  0  0  0  0  0  0  0  0  0  0
   11.3212    0.7706    0.0000 C   0  0  0  0  0  0  0  0  0  0  0  0
   11.3301    1.9289    0.0000 C   0  0  0  0  0  0  0  0  0  0  0  0
   10.6270   -0.1567    0.0000 C   0  0  0  0  0  0  0  0  0  0  0  0
    5.3772   -1.4825    0.0000 C   0  0  0  0  0  0  0  0  0  0  0  0
   10.6503    2.8668    0.0000 C   0  0  0  0  0  0  0  0  0  0  0  0
    9.5180   -0.4916    0.0000 C   0  0  0  0  0  0  0  0  0  0  0  0
    6.8840   -4.1246    0.0000 C   0  0  0  0  0  0  0  0  0  0  0  0
    7.9187   -2.3325    0.0000 C   0  0  0  0  0  0  0  0  0  0  0  0
    4.8703   -4.1246    0.0000 C   0  0  0  0  0  0  0  0  0  0  0  0
    9.5466    3.2187    0.0000 C   0  0  0  0  0  0  0  0  0  0  0  0
    3.8357   -2.3325    0.0000 C   0  0  0  0  0  0  0  0  0  0  0  0
   12.5213    0.6458    0.0000 C   0  0  0  0  0  0  0  0  0  0  0  0
   12.5320    2.0352    0.0000 C   0  0  0  0  0  0  0  0  0  0  0  0
   11.0848   -1.2731    0.0000 C   0  0  0  0  0  0  0  0  0  0  0  0
    7.9256   -4.1326    0.0000 C   0  0  0  0  0  0  0  0  0  0  0  0
    8.4464   -3.2306    0.0000 C   0  0  0  0  0  0  0  0  0  0  0  0
   11.1252    3.9760    0.0000 C   0  0  0  0  0  0  0  0  0  0  0  0
    3.8287   -4.1326    0.0000 C   0  0  0  0  0  0  0  0  0  0  0  0
    3.3079   -3.2306    0.0000 C   0  0  0  0  0  0  0  0  0  0  0  0
   13.0048   -0.4597    0.0000 C   0  0  0  0  0  0  0  0  0  0  0  0
   12.2817   -1.4256    0.0000 C   0  0  0  0  0  0  0  0  0  0  0  0
   13.0325    3.1331    0.0000 C   0  0  0  0  0  0  0  0  0  0  0  0
   12.3243    4.1100    0.0000 C   0  0  0  0  0  0  0  0  0  0  0  0
    5.2626    1.2687    0.0000 H   0  0  0  0  0  0  0  0  0  0  0  0
    7.6009   -0.0813    0.0000 H   0  0  0  0  0  0  0  0  0  0  0  0
    4.9755    0.9483    0.0000 H   0  0  0  0  0  0  0  0  0  0  0  0
    4.5160    0.3494    0.0000 H   0  0  0  0  0  0  0  0  0  0  0  0
    8.2225   -1.7920    0.0000 H   0  0  0  0  0  0  0  0  0  0  0  0
    3.5319   -1.7920    0.0000 H   0  0  0  0  0  0  0  0  0  0  0  0
   10.7075   -1.7651    0.0000 H   0  0  0  0  0  0  0  0  0  0  0  0
   10.7556    4.4738    0.0000 H   0  0  0  0  0  0  0  0  0  0  0  0
    6.6778   -5.5253    0.0000 H   0  0  0  0  0  0  0  0  0  0  0  0
    5.0766   -5.5253    0.0000 H   0  0  0  0  0  0  0  0  0  0  0  0
   13.9217    0.4379    0.0000 H   0  0  0  0  0  0  0  0  0  0  0  0
   13.9355    2.2214    0.0000 H   0  0  0  0  0  0  0  0  0  0  0  0
    9.0423   -5.0030    0.0000 H   0  0  0  0  0  0  0  0  0  0  0  0
    9.7585   -3.7624    0.0000 H   0  0  0  0  0  0  0  0  0  0  0  0
    2.7121   -5.0030    0.0000 H   0  0  0  0  0  0  0  0  0  0  0  0
    2.0000   -2.6886    0.0000 H   0  0  0  0  0  0  0  0  0  0  0  0
   14.2444   -1.1436    0.0000 H   0  0  0  0  0  0  0  0  0  0  0  0
   12.2983   -2.8413    0.0000 H   0  0  0  0  0  0  0  0  0  0  0  0
   14.2825    3.7978    0.0000 H   0  0  0  0  0  0  0  0  0  0  0  0
   12.3628    5.5253    0.0000 H   0  0  0  0  0  0  0  0  0  0  0  0
  1 23  1  0  0  0  0
  1 28  1  0  0  0  0
  2 24  1  0  0  0  0
  2 32  1  0  0  0  0
  3 25  1  0  0  0  0
  3 39  1  0  0  0  0
  4 26  1  0  0  0  0
  4 37  1  0  0  0  0
  5 27  1  0  0  0  0
  5 43  1  0  0  0  0
  6 28  2  0  0  0  0
  7 32  2  0  0  0  0
  8 40  1  0  0  0  0
  8 65  1  0  0  0  0
  9 37  2  0  0  0  0
 10 42  1  0  0  0  0
 10 66  1  0  0  0  0
 11 39  2  0  0  0  0
 12 45  1  0  0  0  0
 12 67  1  0  0  0  0
 13 46  1  0  0  0  0
 13 68  1  0  0  0  0
 14 43  2  0  0  0  0
 15 48  1  0  0  0  0
 15 69  1  0  0  0  0
 16 49  1  0  0  0  0
 16 70  1  0  0  0  0
 17 51  1  0  0  0  0
 17 71  1  0  0  0  0
 18 52  1  0  0  0  0
 18 72  1  0  0  0  0
 19 53  1  0  0  0  0
 19 73  1  0  0  0  0
 20 54  1  0  0  0  0
 20 74  1  0  0  0  0
 21 55  1  0  0  0  0
 21 75  1  0  0  0  0
 22 56  1  0  0  0  0
 22 76  1  0  0  0  0
 23 24  1  0  0  0  0
 23 26  1  0  0  0  0
 23 57  1  6  0  0  0
 24 25  1  0  0  0  0
 24 58  1  1  0  0  0
 25 27  2  0  0  0  0
 26 59  1  0  0  0  0
 26 60  1  0  0  0  0
 27 28  1  0  0  0  0
 29 30  1  0  0  0  0
 29 31  1  0  0  0  0
 29 40  2  0  0  0  0
 30 32  1  0  0  0  0
 30 41  2  0  0  0  0
 31 33  1  0  0  0  0
 31 42  2  0  0  0  0
 33 37  1  0  0  0  0
 33 44  2  0  0  0  0
 34 35  1  0  0  0  0
 34 36  1  0  0  0  0
 34 45  2  0  0  0  0
 35 38  1  0  0  0  0
 35 46  2  0  0  0  0
 36 39  1  0  0  0  0
 36 47  2  0  0  0  0
 38 43  1  0  0  0  0
 38 50  2  0  0  0  0
 40 48  1  0  0  0  0
 41 49  1  0  0  0  0
 41 61  1  0  0  0  0
 42 51  1  0  0  0  0
 44 52  1  0  0  0  0
 44 62  1  0  0  0  0
 45 53  1  0  0  0  0
 46 55  1  0  0  0  0
 47 54  1  0  0  0  0
 47 63  1  0  0  0  0
 48 49  2  0  0  0  0
 50 56  1  0  0  0  0
 50 64  1  0  0  0  0
 51 52  2  0  0  0  0
 53 54  2  0  0  0  0
 55 56  2  0  0  0  0
M  END
> <PUBCHEM_COMPOUND_CID>
119058017

> <PUBCHEM_COMPOUND_CANONICALIZED>
1

> <PUBCHEM_CACTVS_COMPLEXITY>
1630

> <PUBCHEM_CACTVS_HBOND_ACCEPTOR>
22

> <PUBCHEM_CACTVS_HBOND_DONOR>
12

> <PUBCHEM_CACTVS_ROTATABLE_BOND>
0

> <PUBCHEM_CACTVS_SUBSKEYS>
AAADceB8PgAAAAAAAAAAAAAAAAAAAAAAAAAwYMGCAAAAAACBVAAAGgAACAAADBSgmAIwDoAABgCIAiDSCAICCAAkIAAAiAFGiMgJJzKCNB6CcQElwBULuYfK7PzOoAABCAAYQABAAAIQADCAAAAAAAAAAA==

> <PUBCHEM_IUPAC_OPENEYE_NAME>
(1R,22R)-7,8,9,12,13,14,28,29,30,33,34,35-dodecahydroxy-3,18,21,24,39-pentaoxaheptacyclo[20.17.0.02,19.05,10.011,16.026,31.032,37]nonatriaconta-2(19),5,7,9,11,13,15,26,28,30,32,34,36-tridecaene-4,17,20,25,38-pentone

> <PUBCHEM_IUPAC_CAS_NAME>
(1R,22R)-7,8,9,12,13,14,28,29,30,33,34,35-dodecahydroxy-3,18,21,24,39-pentaoxaheptacyclo[20.17.0.02,19.05,10.011,16.026,31.032,37]nonatriaconta-2(19),5,7,9,11,13,15,26,28,30,32,34,36-tridecaene-4,17,20,25,38-pentone

> <PUBCHEM_IUPAC_NAME_MARKUP>
(1<I>R</I>,22<I>R</I>)-7,8,9,12,13,14,28,29,30,33,34,35-dodecahydroxy-3,18,21,24,39-pentaoxaheptacyclo[20.17.0.0<SUP>2,19</SUP>.0<SUP>5,10</SUP>.0<SUP>11,16</SUP>.0<SUP>26,31</SUP>.0<SUP>32,37</SUP>]nonatriaconta-2(19),5,7,9,11,13,15,26,28,30,32,34,36-tridecaene-4,17,20,25,38-pentone

> <PUBCHEM_IUPAC_NAME>
(1R,22R)-7,8,9,12,13,14,28,29,30,33,34,35-dodecahydroxy-3,18,21,24,39-pentaoxaheptacyclo[20.17.0.02,19.05,10.011,16.026,31.032,37]nonatriaconta-2(19),5,7,9,11,13,15,26,28,30,32,34,36-tridecaene-4,17,20,25,38-pentone

> <PUBCHEM_IUPAC_SYSTEMATIC_NAME>
(1R,22R)-7,8,9,12,13,14,28,29,30,33,34,35-dodecakis(oxidanyl)-3,18,21,24,39-pentaoxaheptacyclo[20.17.0.02,19.05,10.011,16.026,31.032,37]nonatriaconta-2(19),5,7,9,11,13,15,26,28,30,32,34,36-tridecaene-4,17,20,25,38-pentone

> <PUBCHEM_IUPAC_TRADITIONAL_NAME>
(1R,22R)-7,8,9,12,13,14,28,29,30,33,34,35-dodecahydroxy-3,18,21,24,39-pentaoxaheptacyclo[20.17.0.02,19.05,10.011,16.026,31.032,37]nonatriaconta-2(19),5,7,9,11,13,15,26,28,30,32,34,36-tridecaene-4,17,20,25,38-pentone

> <PUBCHEM_IUPAC_INCHI>
InChI=1S/C34H20O22/c35-10-1-6-15(23(43)19(10)39)16-7(2-11(36)20(40)24(16)44)31(48)54-27-14(5-52-30(6)47)53-34(51)29-28(27)55-32(49)8-3-12(37)21(41)25(45)17(8)18-9(33(50)56-29)4-13(38)22(42)26(18)46/h1-4,14,27,35-46H,5H2/t14-,27-/m1/s1

> <PUBCHEM_IUPAC_INCHIKEY>
JNSDMRUXOVAXNP-LOKFHWFJSA-N

> <PUBCHEM_XLOGP3_AA>
1.3

> <PUBCHEM_EXACT_MASS>
780.044622

> <PUBCHEM_MOLECULAR_FORMULA>
C34H20O22

> <PUBCHEM_MOLECULAR_WEIGHT>
780.5

> <PUBCHEM_OPENEYE_CAN_SMILES>
C1C2C(C3=C(C(=O)O2)OC(=O)C4=CC(=C(C(=C4C5=C(C(=C(C=C5C(=O)O3)O)O)O)O)O)O)OC(=O)C6=CC(=C(C(=C6C7=C(C(=C(C=C7C(=O)O1)O)O)O)O)O)O

> <PUBCHEM_OPENEYE_ISO_SMILES>
C1[C@@H]2[C@H](C3=C(C(=O)O2)OC(=O)C4=CC(=C(C(=C4C5=C(C(=C(C=C5C(=O)O3)O)O)O)O)O)O)OC(=O)C6=CC(=C(C(=C6C7=C(C(=C(C=C7C(=O)O1)O)O)O)O)O)O

> <PUBCHEM_CACTVS_TPSA>
374

> <PUBCHEM_MONOISOTOPIC_WEIGHT>
780.044622

> <PUBCHEM_TOTAL_CHARGE>
0

> <PUBCHEM_HEAVY_ATOM_COUNT>
56

> <PUBCHEM_ATOM_DEF_STEREO_COUNT>
2

> <PUBCHEM_ATOM_UDEF_STEREO_COUNT>
0

> <PUBCHEM_BOND_DEF_STEREO_COUNT>
0

> <PUBCHEM_BOND_UDEF_STEREO_COUNT>
0

> <PUBCHEM_ISOTOPIC_ATOM_COUNT>
0

> <PUBCHEM_COMPONENT_COUNT>
1

> <PUBCHEM_CACTVS_TAUTO_COUNT>
-1

> <PUBCHEM_COORDINATE_TYPE>
1
5
255

> <PUBCHEM_BONDANNOTATIONS>
23  57  6
24  58  5
25  27  8
29  30  8
29  40  8
3  25  8
3  39  8
30  41  8
31  33  8
31  42  8
33  44  8
34  35  8
34  36  8
34  45  8
35  38  8
35  46  8
36  39  8
36  47  8
38  43  8
38  50  8
40  48  8
41  49  8
42  51  8
44  52  8
45  53  8
46  55  8
47  54  8
48  49  8
5  27  8
5  43  8
50  56  8
51  52  8
53  54  8
55  56  8

$$$$
