119058016
  -OEChem-09162015282D

 78 83  0     1  0  0  0  0  0999 V2000
    5.9860    1.3036    0.0000 O   0  0  0  0  0  0  0  0  0  0  0  0
    6.8680   -1.2379    0.0000 O   0  0  0  0  0  0  0  0  0  0  0  0
    4.8772   -1.2038    0.0000 O   0  0  0  0  0  0  0  0  0  0  0  0
    8.6382   -0.2410    0.0000 O   0  0  0  0  0  0  0  0  0  0  0  0
    8.6540    1.8072    0.0000 O   0  0  0  0  0  0  0  0  0  0  0  0
    6.8802    2.8314    0.0000 O   0  0  0  0  0  0  0  0  0  0  0  0
    5.8477   -2.9182    0.0000 O   0  0  0  0  0  0  0  0  0  0  0  0
    6.3741   -5.5721    0.0000 O   0  0  0  0  0  0  0  0  0  0  0  0
    5.3803   -5.5721    0.0000 O   0  0  0  0  0  0  0  0  0  0  0  0
    5.8772   -1.2038    0.0000 O   0  0  0  0  0  0  0  0  0  0  0  0
    8.4223   -5.5879    0.0000 O   0  0  0  0  0  0  0  0  0  0  0  0
    9.4464   -3.8140    0.0000 O   0  0  0  0  0  0  0  0  0  0  0  0
    3.3321   -5.5879    0.0000 O   0  0  0  0  0  0  0  0  0  0  0  0
    2.3079   -3.8140    0.0000 O   0  0  0  0  0  0  0  0  0  0  0  0
    9.5216    1.2488    0.0000 O   0  0  0  0  0  0  0  0  0  0  0  0
    7.7938    3.3105    0.0000 O   0  0  0  0  0  0  0  0  0  0  0  0
   12.9739    0.2089    0.0000 O   0  0  0  0  0  0  0  0  0  0  0  0
   11.2072   -2.7709    0.0000 O   0  0  0  0  0  0  0  0  0  0  0  0
   12.9507   -1.7910    0.0000 O   0  0  0  0  0  0  0  0  0  0  0  0
   10.4015    5.8005    0.0000 O   0  0  0  0  0  0  0  0  0  0  0  0
   12.1220    2.7938    0.0000 O   0  0  0  0  0  0  0  0  0  0  0  0
   12.1297    4.7938    0.0000 O   0  0  0  0  0  0  0  0  0  0  0  0
    6.0020    0.2621    0.0000 C   0  0  1  0  0  0  0  0  0  0  0  0
    6.8680   -0.2379    0.0000 C   0  0  2  0  0  0  0  0  0  0  0  0
    5.1360   -0.2379    0.0000 C   0  0  0  0  0  0  0  0  0  0  0  0
    7.7780    0.2690    0.0000 C   0  0  0  0  0  0  0  0  0  0  0  0
    7.7861    1.3106    0.0000 C   0  0  0  0  0  0  0  0  0  0  0  0
    6.8840    1.8314    0.0000 C   0  0  0  0  0  0  0  0  0  0  0  0
    6.3772   -3.8019    0.0000 C   0  0  0  0  0  0  0  0  0  0  0  0
    6.8772   -2.9359    0.0000 C   0  0  0  0  0  0  0  0  0  0  0  0
    5.3772   -3.8019    0.0000 C   0  0  0  0  0  0  0  0  0  0  0  0
    6.3772   -2.0699    0.0000 C   0  0  0  0  0  0  0  0  0  0  0  0
    4.8772   -2.9359    0.0000 C   0  0  0  0  0  0  0  0  0  0  0  0
    5.3772   -2.0699    0.0000 C   0  0  0  0  0  0  0  0  0  0  0  0
    6.8840   -4.7119    0.0000 C   0  0  0  0  0  0  0  0  0  0  0  0
    4.8703   -4.7119    0.0000 C   0  0  0  0  0  0  0  0  0  0  0  0
    7.9187   -2.9198    0.0000 C   0  0  0  0  0  0  0  0  0  0  0  0
    3.8357   -2.9198    0.0000 C   0  0  0  0  0  0  0  0  0  0  0  0
    7.9256   -4.7199    0.0000 C   0  0  0  0  0  0  0  0  0  0  0  0
    8.4464   -3.8178    0.0000 C   0  0  0  0  0  0  0  0  0  0  0  0
    3.8287   -4.7199    0.0000 C   0  0  0  0  0  0  0  0  0  0  0  0
    3.3079   -3.8178    0.0000 C   0  0  0  0  0  0  0  0  0  0  0  0
    9.5100    0.2489    0.0000 C   0  0  0  0  0  0  0  0  0  0  0  0
    8.6579    2.8072    0.0000 C   0  0  0  0  0  0  0  0  0  0  0  0
   10.3702   -0.2611    0.0000 C   0  0  0  0  0  0  0  0  0  0  0  0
    9.5258    3.3039    0.0000 C   0  0  0  0  0  0  0  0  0  0  0  0
   10.3586   -1.2610    0.0000 C   0  0  0  0  0  0  0  0  0  0  0  0
   11.2419    0.2289    0.0000 C   0  0  0  0  0  0  0  0  0  0  0  0
   10.3899    2.8005    0.0000 C   0  0  0  0  0  0  0  0  0  0  0  0
    9.5297    4.3038    0.0000 C   0  0  0  0  0  0  0  0  0  0  0  0
   12.1021   -0.2811    0.0000 C   0  0  0  0  0  0  0  0  0  0  0  0
   11.2188   -1.7710    0.0000 C   0  0  0  0  0  0  0  0  0  0  0  0
   12.0905   -1.2810    0.0000 C   0  0  0  0  0  0  0  0  0  0  0  0
   10.3976    4.8005    0.0000 C   0  0  0  0  0  0  0  0  0  0  0  0
   11.2579    3.2972    0.0000 C   0  0  0  0  0  0  0  0  0  0  0  0
   11.2617    4.2972    0.0000 C   0  0  0  0  0  0  0  0  0  0  0  0
    5.2626    0.6814    0.0000 H   0  0  0  0  0  0  0  0  0  0  0  0
    7.6009   -0.6686    0.0000 H   0  0  0  0  0  0  0  0  0  0  0  0
    4.9755    0.3610    0.0000 H   0  0  0  0  0  0  0  0  0  0  0  0
    4.5160   -0.2379    0.0000 H   0  0  0  0  0  0  0  0  0  0  0  0
    8.2225   -2.3793    0.0000 H   0  0  0  0  0  0  0  0  0  0  0  0
    3.5319   -2.3793    0.0000 H   0  0  0  0  0  0  0  0  0  0  0  0
    6.6778   -6.1126    0.0000 H   0  0  0  0  0  0  0  0  0  0  0  0
    5.0766   -6.1126    0.0000 H   0  0  0  0  0  0  0  0  0  0  0  0
    9.0423   -5.5903    0.0000 H   0  0  0  0  0  0  0  0  0  0  0  0
    9.7544   -3.2759    0.0000 H   0  0  0  0  0  0  0  0  0  0  0  0
    9.8181   -1.5648    0.0000 H   0  0  0  0  0  0  0  0  0  0  0  0
   11.2491    0.8489    0.0000 H   0  0  0  0  0  0  0  0  0  0  0  0
    2.7121   -5.5903    0.0000 H   0  0  0  0  0  0  0  0  0  0  0  0
    2.0000   -3.2759    0.0000 H   0  0  0  0  0  0  0  0  0  0  0  0
   10.3875    2.1805    0.0000 H   0  0  0  0  0  0  0  0  0  0  0  0
    8.9940    4.6159    0.0000 H   0  0  0  0  0  0  0  0  0  0  0  0
   12.9810    0.8288    0.0000 H   0  0  0  0  0  0  0  0  0  0  0  0
   11.7405   -3.0871    0.0000 H   0  0  0  0  0  0  0  0  0  0  0  0
   13.4912   -1.4872    0.0000 H   0  0  0  0  0  0  0  0  0  0  0  0
    9.8658    6.1126    0.0000 H   0  0  0  0  0  0  0  0  0  0  0  0
   12.6601    3.1018    0.0000 H   0  0  0  0  0  0  0  0  0  0  0  0
   12.1321    5.4138    0.0000 H   0  0  0  0  0  0  0  0  0  0  0  0
  1 23  1  0  0  0  0
  1 28  1  0  0  0  0
  2 24  1  0  0  0  0
  2 32  1  0  0  0  0
  3 25  1  0  0  0  0
  3 34  1  0  0  0  0
  4 26  1  0  0  0  0
  4 43  1  0  0  0  0
  5 27  1  0  0  0  0
  5 44  1  0  0  0  0
  6 28  2  0  0  0  0
  7 32  2  0  0  0  0
  8 35  1  0  0  0  0
  8 63  1  0  0  0  0
  9 36  1  0  0  0  0
  9 64  1  0  0  0  0
 10 34  2  0  0  0  0
 11 39  1  0  0  0  0
 11 65  1  0  0  0  0
 12 40  1  0  0  0  0
 12 66  1  0  0  0  0
 13 41  1  0  0  0  0
 13 69  1  0  0  0  0
 14 42  1  0  0  0  0
 14 70  1  0  0  0  0
 15 43  2  0  0  0  0
 16 44  2  0  0  0  0
 17 51  1  0  0  0  0
 17 73  1  0  0  0  0
 18 52  1  0  0  0  0
 18 74  1  0  0  0  0
 19 53  1  0  0  0  0
 19 75  1  0  0  0  0
 20 54  1  0  0  0  0
 20 76  1  0  0  0  0
 21 55  1  0  0  0  0
 21 77  1  0  0  0  0
 22 56  1  0  0  0  0
 22 78  1  0  0  0  0
 23 24  1  0  0  0  0
 23 25  1  0  0  0  0
 23 57  1  6  0  0  0
 24 26  1  0  0  0  0
 24 58  1  1  0  0  0
 25 59  1  0  0  0  0
 25 60  1  0  0  0  0
 26 27  2  0  0  0  0
 27 28  1  0  0  0  0
 29 30  1  0  0  0  0
 29 31  1  0  0  0  0
 29 35  2  0  0  0  0
 30 32  1  0  0  0  0
 30 37  2  0  0  0  0
 31 33  1  0  0  0  0
 31 36  2  0  0  0  0
 33 34  1  0  0  0  0
 33 38  2  0  0  0  0
 35 39  1  0  0  0  0
 36 41  1  0  0  0  0
 37 40  1  0  0  0  0
 37 61  1  0  0  0  0
 38 42  1  0  0  0  0
 38 62  1  0  0  0  0
 39 40  2  0  0  0  0
 41 42  2  0  0  0  0
 43 45  1  0  0  0  0
 44 46  1  0  0  0  0
 45 47  2  0  0  0  0
 45 48  1  0  0  0  0
 46 49  2  0  0  0  0
 46 50  1  0  0  0  0
 47 52  1  0  0  0  0
 47 67  1  0  0  0  0
 48 51  2  0  0  0  0
 48 68  1  0  0  0  0
 49 55  1  0  0  0  0
 49 71  1  0  0  0  0
 50 54  2  0  0  0  0
 50 72  1  0  0  0  0
 51 53  1  0  0  0  0
 52 53  2  0  0  0  0
 54 56  1  0  0  0  0
 55 56  2  0  0  0  0
M  END
> <PUBCHEM_COMPOUND_CID>
119058016

> <PUBCHEM_COMPOUND_CANONICALIZED>
1

> <PUBCHEM_CACTVS_COMPLEXITY>
1540

> <PUBCHEM_CACTVS_HBOND_ACCEPTOR>
22

> <PUBCHEM_CACTVS_HBOND_DONOR>
12

> <PUBCHEM_CACTVS_ROTATABLE_BOND>
6

> <PUBCHEM_CACTVS_SUBSKEYS>
AAADceB8PgAAAAAAAAAAAAAAAAAAAAAAAAAwYMGCAAAAAAABVAAAGgAACAAADBSgmAIwDoAABgCIAiDSCAICCAAkIAAAiAFGiMgJJzKCNR6CcQElwBULuYfK7PzOoAABCAAYQABAAAIQADCAAAAAAAAAAA==

> <PUBCHEM_IUPAC_OPENEYE_NAME>
[(10R,15R)-3,4,5,21,22,23-hexahydroxy-8,13,18-trioxo-12-(3,4,5-trihydroxybenzoyl)oxy-9,14,17-trioxatetracyclo[17.4.0.02,7.010,15]tricosa-1(23),2,4,6,11,19,21-heptaen-11-yl] 3,4,5-trihydroxybenzoate

> <PUBCHEM_IUPAC_CAS_NAME>
3,4,5-trihydroxybenzoic acid [(10R,15R)-3,4,5,21,22,23-hexahydroxy-8,13,18-trioxo-12-[oxo-(3,4,5-trihydroxyphenyl)methoxy]-9,14,17-trioxatetracyclo[17.4.0.02,7.010,15]tricosa-1(23),2,4,6,11,19,21-heptaen-11-yl] ester

> <PUBCHEM_IUPAC_NAME_MARKUP>
[(10<I>R</I>,15<I>R</I>)-3,4,5,21,22,23-hexahydroxy-8,13,18-trioxo-12-(3,4,5-trihydroxybenzoyl)oxy-9,14,17-trioxatetracyclo[17.4.0.0<SUP>2,7</SUP>.0<SUP>10,15</SUP>]tricosa-1(23),2,4,6,11,19,21-heptaen-11-yl] 3,4,5-trihydroxybenzoate

> <PUBCHEM_IUPAC_NAME>
[(10R,15R)-3,4,5,21,22,23-hexahydroxy-8,13,18-trioxo-12-(3,4,5-trihydroxybenzoyl)oxy-9,14,17-trioxatetracyclo[17.4.0.02,7.010,15]tricosa-1(23),2,4,6,11,19,21-heptaen-11-yl] 3,4,5-trihydroxybenzoate

> <PUBCHEM_IUPAC_SYSTEMATIC_NAME>
[(10R,15R)-3,4,5,21,22,23-hexakis(oxidanyl)-8,13,18-tris(oxidanylidene)-12-[3,4,5-tris(oxidanyl)phenyl]carbonyloxy-9,14,17-trioxatetracyclo[17.4.0.02,7.010,15]tricosa-1(23),2,4,6,11,19,21-heptaen-11-yl] 3,4,5-tris(oxidanyl)benzoate

> <PUBCHEM_IUPAC_TRADITIONAL_NAME>
3,4,5-trihydroxybenzoic acid [(10R,15R)-12-galloyloxy-3,4,5,21,22,23-hexahydroxy-8,13,18-triketo-9,14,17-trioxatetracyclo[17.4.0.02,7.010,15]tricosa-1(23),2,4,6,11,19,21-heptaen-11-yl] ester

> <PUBCHEM_IUPAC_INCHI>
InChI=1S/C34H22O22/c35-12-1-8(2-13(36)21(12)41)30(47)55-28-27-18(53-34(51)29(28)56-31(48)9-3-14(37)22(42)15(38)4-9)7-52-32(49)10-5-16(39)23(43)25(45)19(10)20-11(33(50)54-27)6-17(40)24(44)26(20)46/h1-6,18,27,35-46H,7H2/t18-,27-/m1/s1

> <PUBCHEM_IUPAC_INCHIKEY>
UEHSSTYZXFBDNL-DNOBIOAJSA-N

> <PUBCHEM_XLOGP3_AA>
1.6

> <PUBCHEM_EXACT_MASS>
782.060272

> <PUBCHEM_MOLECULAR_FORMULA>
C34H22O22

> <PUBCHEM_MOLECULAR_WEIGHT>
782.5

> <PUBCHEM_OPENEYE_CAN_SMILES>
C1C2C(C(=C(C(=O)O2)OC(=O)C3=CC(=C(C(=C3)O)O)O)OC(=O)C4=CC(=C(C(=C4)O)O)O)OC(=O)C5=CC(=C(C(=C5C6=C(C(=C(C=C6C(=O)O1)O)O)O)O)O)O

> <PUBCHEM_OPENEYE_ISO_SMILES>
C1[C@@H]2[C@H](C(=C(C(=O)O2)OC(=O)C3=CC(=C(C(=C3)O)O)O)OC(=O)C4=CC(=C(C(=C4)O)O)O)OC(=O)C5=CC(=C(C(=C5C6=C(C(=C(C=C6C(=O)O1)O)O)O)O)O)O

> <PUBCHEM_CACTVS_TPSA>
374

> <PUBCHEM_MONOISOTOPIC_WEIGHT>
782.060272

> <PUBCHEM_TOTAL_CHARGE>
0

> <PUBCHEM_HEAVY_ATOM_COUNT>
56

> <PUBCHEM_ATOM_DEF_STEREO_COUNT>
2

> <PUBCHEM_ATOM_UDEF_STEREO_COUNT>
0

> <PUBCHEM_BOND_DEF_STEREO_COUNT>
0

> <PUBCHEM_BOND_UDEF_STEREO_COUNT>
0

> <PUBCHEM_ISOTOPIC_ATOM_COUNT>
0

> <PUBCHEM_COMPONENT_COUNT>
1

> <PUBCHEM_CACTVS_TAUTO_COUNT>
-1

> <PUBCHEM_COORDINATE_TYPE>
1
5
255

> <PUBCHEM_BONDANNOTATIONS>
23  57  6
24  58  5
29  30  8
29  35  8
30  37  8
31  33  8
31  36  8
33  38  8
35  39  8
36  41  8
37  40  8
38  42  8
39  40  8
41  42  8
45  47  8
45  48  8
46  49  8
46  50  8
47  52  8
48  51  8
49  55  8
50  54  8
51  53  8
52  53  8
54  56  8
55  56  8

$$$$
