131751968
  -OEChem-09162016032D

 70 74  0     1  0  0  0  0  0999 V2000
    7.9632   -0.5854    0.0000 O   0  0  0  0  0  0  0  0  0  0  0  0
    8.3746    2.1395    0.0000 O   0  0  0  0  0  0  0  0  0  0  0  0
    5.5048    0.6600    0.0000 O   0  0  0  0  0  0  0  0  0  0  0  0
    7.8787    4.5417    0.0000 O   0  0  0  0  0  0  0  0  0  0  0  0
    8.1497   -0.2009    0.0000 O   0  0  0  0  0  0  0  0  0  0  0  0
    6.4650   -1.4323    0.0000 O   0  0  0  0  0  0  0  0  0  0  0  0
    9.9331   -0.7679    0.0000 O   0  0  0  0  0  0  0  0  0  0  0  0
    8.8621    3.6646    0.0000 O   0  0  0  0  0  0  0  0  0  0  0  0
    4.3963    5.7267    0.0000 O   0  0  0  0  0  0  0  0  0  0  0  0
    5.3803    5.1097    0.0000 O   0  0  0  0  0  0  0  0  0  0  0  0
    8.0365    6.3049    0.0000 O   0  0  0  0  0  0  0  0  0  0  0  0
    4.4029    3.9141    0.0000 O   0  0  0  0  0  0  0  0  0  0  0  0
    3.9798    1.1475    0.0000 O   0  0  0  0  0  0  0  0  0  0  0  0
    3.3321    5.1255    0.0000 O   0  0  0  0  0  0  0  0  0  0  0  0
    2.3079    3.3516    0.0000 O   0  0  0  0  0  0  0  0  0  0  0  0
    7.9690   -2.2913    0.0000 O   0  0  0  0  0  0  0  0  0  0  0  0
    6.9853   -5.7600    0.0000 O   0  0  0  0  0  0  0  0  0  0  0  0
    3.9772   -4.0420    0.0000 O   0  0  0  0  0  0  0  0  0  0  0  0
    4.9853   -5.7694    0.0000 O   0  0  0  0  0  0  0  0  0  0  0  0
    8.1388    1.1677    0.0000 C   0  0  3  0  0  0  0  0  0  0  0  0
    6.2660    3.7977    0.0000 C   0  0  3  0  0  0  0  0  0  0  0  0
    7.4151    0.4776    0.0000 C   0  0  3  0  0  0  0  0  0  0  0  0
    6.4332    0.2884    0.0000 C   0  0  3  0  0  0  0  0  0  0  0  0
    8.5270    0.2434    0.0000 C   0  0  3  0  0  0  0  0  0  0  0  0
    7.2615    3.7027    0.0000 C   0  0  3  0  0  0  0  0  0  0  0  0
    5.8188    4.7384    0.0000 C   0  0  3  0  0  0  0  0  0  0  0  0
    6.9609   -0.5639    0.0000 C   0  0  3  0  0  0  0  0  0  0  0  0
    5.3772    3.3395    0.0000 C   0  0  0  0  0  0  0  0  0  0  0  0
    6.4164    5.5916    0.0000 C   0  0  0  0  0  0  0  0  0  0  0  0
    8.0475    3.0845    0.0000 C   0  0  0  0  0  0  0  0  0  0  0  0
    9.5220    0.1437    0.0000 C   0  0  0  0  0  0  0  0  0  0  0  0
    4.8772    2.4735    0.0000 C   0  0  0  0  0  0  0  0  0  0  0  0
    7.4533    5.4925    0.0000 C   0  0  0  0  0  0  0  0  0  0  0  0
    4.8223    4.8220    0.0000 C   0  0  0  0  0  0  0  0  0  0  0  0
    4.8703    4.2495    0.0000 C   0  0  0  0  0  0  0  0  0  0  0  0
    4.9248    1.4746    0.0000 C   0  0  0  0  0  0  0  0  0  0  0  0
    3.8357    2.4574    0.0000 C   0  0  0  0  0  0  0  0  0  0  0  0
    3.8287    4.2575    0.0000 C   0  0  0  0  0  0  0  0  0  0  0  0
    3.3079    3.3554    0.0000 C   0  0  0  0  0  0  0  0  0  0  0  0
    6.9691   -2.2960    0.0000 C   0  0  0  0  0  0  0  0  0  0  0  0
    6.4731   -3.1643    0.0000 C   0  0  0  0  0  0  0  0  0  0  0  0
    5.4731   -3.1690    0.0000 C   0  0  0  0  0  0  0  0  0  0  0  0
    6.9772   -4.0280    0.0000 C   0  0  0  0  0  0  0  0  0  0  0  0
    6.4813   -4.8963    0.0000 C   0  0  0  0  0  0  0  0  0  0  0  0
    4.9772   -4.0374    0.0000 C   0  0  0  0  0  0  0  0  0  0  0  0
    5.4813   -4.9010    0.0000 C   0  0  0  0  0  0  0  0  0  0  0  0
    8.7569    1.2171    0.0000 H   0  0  0  0  0  0  0  0  0  0  0  0
    5.6786    3.9960    0.0000 H   0  0  0  0  0  0  0  0  0  0  0  0
    7.2452   -0.1186    0.0000 H   0  0  0  0  0  0  0  0  0  0  0  0
    6.0344   -0.1864    0.0000 H   0  0  0  0  0  0  0  0  0  0  0  0
    8.7892   -0.3184    0.0000 H   0  0  0  0  0  0  0  0  0  0  0  0
    7.8758    3.7862    0.0000 H   0  0  0  0  0  0  0  0  0  0  0  0
    5.5558    5.2999    0.0000 H   0  0  0  0  0  0  0  0  0  0  0  0
    7.2664   -1.1034    0.0000 H   0  0  0  0  0  0  0  0  0  0  0  0
    6.5801    6.1896    0.0000 H   0  0  0  0  0  0  0  0  0  0  0  0
    5.8552    5.8551    0.0000 H   0  0  0  0  0  0  0  0  0  0  0  0
   10.1228    0.2966    0.0000 H   0  0  0  0  0  0  0  0  0  0  0  0
    9.4758    0.7620    0.0000 H   0  0  0  0  0  0  0  0  0  0  0  0
    8.7545   -0.3375    0.0000 H   0  0  0  0  0  0  0  0  0  0  0  0
    3.5319    1.9169    0.0000 H   0  0  0  0  0  0  0  0  0  0  0  0
   10.5500   -0.8297    0.0000 H   0  0  0  0  0  0  0  0  0  0  0  0
    4.7501    6.2359    0.0000 H   0  0  0  0  0  0  0  0  0  0  0  0
    5.0766    5.6502    0.0000 H   0  0  0  0  0  0  0  0  0  0  0  0
    2.7121    5.1278    0.0000 H   0  0  0  0  0  0  0  0  0  0  0  0
    2.0000    2.8135    0.0000 H   0  0  0  0  0  0  0  0  0  0  0  0
    5.1606   -2.6335    0.0000 H   0  0  0  0  0  0  0  0  0  0  0  0
    7.5972   -4.0251    0.0000 H   0  0  0  0  0  0  0  0  0  0  0  0
    7.6053   -5.7571    0.0000 H   0  0  0  0  0  0  0  0  0  0  0  0
    3.6697   -4.5804    0.0000 H   0  0  0  0  0  0  0  0  0  0  0  0
    5.2979   -6.3049    0.0000 H   0  0  0  0  0  0  0  0  0  0  0  0
  1 24  1  0  0  0  0
  1 27  1  0  0  0  0
  2 20  1  0  0  0  0
  2 30  1  0  0  0  0
  3 23  1  0  0  0  0
  3 36  1  0  0  0  0
  4 25  1  0  0  0  0
  4 33  1  0  0  0  0
  5 22  1  0  0  0  0
  5 59  1  0  0  0  0
  6 27  1  0  0  0  0
  6 40  1  0  0  0  0
  7 31  1  0  0  0  0
  7 61  1  0  0  0  0
  8 30  2  0  0  0  0
  9 34  1  0  0  0  0
  9 62  1  0  0  0  0
 10 35  1  0  0  0  0
 10 63  1  0  0  0  0
 11 33  2  0  0  0  0
 12 34  2  0  0  0  0
 13 36  2  0  0  0  0
 14 38  1  0  0  0  0
 14 64  1  0  0  0  0
 15 39  1  0  0  0  0
 15 65  1  0  0  0  0
 16 40  2  0  0  0  0
 17 44  1  0  0  0  0
 17 68  1  0  0  0  0
 18 45  1  0  0  0  0
 18 69  1  0  0  0  0
 19 46  1  0  0  0  0
 19 70  1  0  0  0  0
 20 22  1  0  0  0  0
 20 24  1  0  0  0  0
 20 47  1  0  0  0  0
 21 25  1  0  0  0  0
 21 26  1  0  0  0  0
 21 28  1  0  0  0  0
 21 48  1  0  0  0  0
 22 23  1  0  0  0  0
 22 49  1  0  0  0  0
 23 27  1  0  0  0  0
 23 50  1  0  0  0  0
 24 31  1  0  0  0  0
 24 51  1  0  0  0  0
 25 30  1  0  0  0  0
 25 52  1  0  0  0  0
 26 29  1  0  0  0  0
 26 34  1  0  0  0  0
 26 53  1  0  0  0  0
 27 54  1  0  0  0  0
 28 32  1  0  0  0  0
 28 35  2  0  0  0  0
 29 33  1  0  0  0  0
 29 55  1  0  0  0  0
 29 56  1  0  0  0  0
 31 57  1  0  0  0  0
 31 58  1  0  0  0  0
 32 36  1  0  0  0  0
 32 37  2  0  0  0  0
 35 38  1  0  0  0  0
 37 39  1  0  0  0  0
 37 60  1  0  0  0  0
 38 39  2  0  0  0  0
 40 41  1  0  0  0  0
 41 42  2  0  0  0  0
 41 43  1  0  0  0  0
 42 45  1  0  0  0  0
 42 66  1  0  0  0  0
 43 44  2  0  0  0  0
 43 67  1  0  0  0  0
 44 46  1  0  0  0  0
 45 46  2  0  0  0  0
M  END
> <PUBCHEM_COMPOUND_CID>
131751968

> <PUBCHEM_COMPOUND_CANONICALIZED>
1

> <PUBCHEM_CACTVS_COMPLEXITY>
1200

> <PUBCHEM_CACTVS_HBOND_ACCEPTOR>
19

> <PUBCHEM_CACTVS_HBOND_DONOR>
9

> <PUBCHEM_CACTVS_ROTATABLE_BOND>
5

> <PUBCHEM_CACTVS_SUBSKEYS>
AAADceB4PgAAAAAAAAAAAAAAAAAAAAAAAAA0aIEAAAAAAAABQAAAGgAACAAADRSwmAMwDoAABgCIAiDSCAICAAAkIAAAiAFGiMgZNzKCNR6icQElwBUPuYfL7vzOoAABCAAYQABAAAIQADCAAAAAAAAAAA==

> <PUBCHEM_IUPAC_OPENEYE_NAME>
11,12,13,22-tetrahydroxy-21-(hydroxymethyl)-3,6,16-trioxo-19-(3,4,5-trihydroxybenzoyl)oxy-2,5,17,20-tetraoxatetracyclo[16.3.1.04,9.010,15]docosa-10,12,14-triene-8-carboxylic acid

> <PUBCHEM_IUPAC_CAS_NAME>
11,12,13,22-tetrahydroxy-21-(hydroxymethyl)-3,6,16-trioxo-19-[oxo-(3,4,5-trihydroxyphenyl)methoxy]-2,5,17,20-tetraoxatetracyclo[16.3.1.04,9.010,15]docosa-10,12,14-triene-8-carboxylic acid

> <PUBCHEM_IUPAC_NAME_MARKUP>
11,12,13,22-tetrahydroxy-21-(hydroxymethyl)-3,6,16-trioxo-19-(3,4,5-trihydroxybenzoyl)oxy-2,5,17,20-tetraoxatetracyclo[16.3.1.0<SUP>4,9</SUP>.0<SUP>10,15</SUP>]docosa-10,12,14-triene-8-carboxylic acid

> <PUBCHEM_IUPAC_NAME>
11,12,13,22-tetrahydroxy-21-(hydroxymethyl)-3,6,16-trioxo-19-(3,4,5-trihydroxybenzoyl)oxy-2,5,17,20-tetraoxatetracyclo[16.3.1.04,9.010,15]docosa-10,12,14-triene-8-carboxylic acid

> <PUBCHEM_IUPAC_SYSTEMATIC_NAME>
21-(hydroxymethyl)-11,12,13,22-tetrakis(oxidanyl)-3,6,16-tris(oxidanylidene)-19-[3,4,5-tris(oxidanyl)phenyl]carbonyloxy-2,5,17,20-tetraoxatetracyclo[16.3.1.04,9.010,15]docosa-10,12,14-triene-8-carboxylic acid

> <PUBCHEM_IUPAC_TRADITIONAL_NAME>
19-galloyloxy-11,12,13,22-tetrahydroxy-3,6,16-triketo-21-methylol-2,5,17,20-tetraoxatetracyclo[16.3.1.04,9.010,15]docosa-10,12,14-triene-8-carboxylic acid

> <PUBCHEM_IUPAC_INCHI>
InChI=1S/C27H24O19/c28-5-12-20-19(36)22(27(42-12)46-24(39)6-1-9(29)16(33)10(30)2-6)45-25(40)8-3-11(31)17(34)18(35)14(8)15-7(23(37)38)4-13(32)43-21(15)26(41)44-20/h1-3,7,12,15,19-22,27-31,33-36H,4-5H2,(H,37,38)

> <PUBCHEM_IUPAC_INCHIKEY>
KFDXRACNJCIDON-UHFFFAOYSA-N

> <PUBCHEM_XLOGP3_AA>
-1.2

> <PUBCHEM_EXACT_MASS>
652.091179

> <PUBCHEM_MOLECULAR_FORMULA>
C27H24O19

> <PUBCHEM_MOLECULAR_WEIGHT>
652.5

> <PUBCHEM_OPENEYE_CAN_SMILES>
C1C(C2C(C(=O)OC3C(OC(C(C3O)OC(=O)C4=CC(=C(C(=C24)O)O)O)OC(=O)C5=CC(=C(C(=C5)O)O)O)CO)OC1=O)C(=O)O

> <PUBCHEM_OPENEYE_ISO_SMILES>
C1C(C2C(C(=O)OC3C(OC(C(C3O)OC(=O)C4=CC(=C(C(=C24)O)O)O)OC(=O)C5=CC(=C(C(=C5)O)O)O)CO)OC1=O)C(=O)O

> <PUBCHEM_CACTVS_TPSA>
314

> <PUBCHEM_MONOISOTOPIC_WEIGHT>
652.091179

> <PUBCHEM_TOTAL_CHARGE>
0

> <PUBCHEM_HEAVY_ATOM_COUNT>
46

> <PUBCHEM_ATOM_DEF_STEREO_COUNT>
0

> <PUBCHEM_ATOM_UDEF_STEREO_COUNT>
8

> <PUBCHEM_BOND_DEF_STEREO_COUNT>
0

> <PUBCHEM_BOND_UDEF_STEREO_COUNT>
0

> <PUBCHEM_ISOTOPIC_ATOM_COUNT>
0

> <PUBCHEM_COMPONENT_COUNT>
1

> <PUBCHEM_CACTVS_TAUTO_COUNT>
-1

> <PUBCHEM_COORDINATE_TYPE>
1
5
255

> <PUBCHEM_BONDANNOTATIONS>
20  2  3
21  28  3
24  31  3
25  30  3
26  34  3
28  32  8
28  35  8
23  3  3
32  37  8
35  38  8
37  39  8
38  39  8
41  42  8
41  43  8
42  45  8
43  44  8
44  46  8
45  46  8
22  5  3
27  6  3

$$$$
