21636239
  -OEChem-08312011533D

 42 43  0     0  0  0  0  0  0999 V2000
    0.7242    2.1132   -0.1207 O   0  0  0  0  0  0  0  0  0  0  0  0
    4.8661   -1.4346    0.7100 O   0  0  0  0  0  0  0  0  0  0  0  0
    2.5472   -2.3049   -0.4917 O   0  0  0  0  0  0  0  0  0  0  0  0
    5.1072    1.2101    1.4939 O   0  0  0  0  0  0  0  0  0  0  0  0
   -3.1661    1.6473    0.1850 O   0  0  0  0  0  0  0  0  0  0  0  0
    0.3955   -1.0163   -2.1078 O   0  0  0  0  0  0  0  0  0  0  0  0
    1.6122   -0.1078   -0.3192 C   0  0  0  0  0  0  0  0  0  0  0  0
    1.7380    1.2236    0.0771 C   0  0  0  0  0  0  0  0  0  0  0  0
    2.6626   -1.0010   -0.1073 C   0  0  0  0  0  0  0  0  0  0  0  0
    3.8387   -0.5626    0.5014 C   0  0  0  0  0  0  0  0  0  0  0  0
    2.9139    1.6619    0.6857 C   0  0  0  0  0  0  0  0  0  0  0  0
    3.9643    0.7689    0.8979 C   0  0  0  0  0  0  0  0  0  0  0  0
    0.3610   -0.5723   -0.9655 C   0  0  0  0  0  0  0  0  0  0  0  0
   -3.3787   -0.7310   -0.0888 C   0  0  0  0  0  0  0  0  0  0  0  0
   -0.9052   -0.4456   -0.1914 C   0  0  0  0  0  0  0  0  0  0  0  0
   -2.0795   -0.8240   -0.7411 C   0  0  0  0  0  0  0  0  0  0  0  0
   -3.8771    0.4955    0.3507 C   0  0  0  0  0  0  0  0  0  0  0  0
   -4.1273   -1.8938    0.0938 C   0  0  0  0  0  0  0  0  0  0  0  0
   -5.1241    0.5591    0.9727 C   0  0  0  0  0  0  0  0  0  0  0  0
   -5.3742   -1.8301    0.7160 C   0  0  0  0  0  0  0  0  0  0  0  0
   -5.8725   -0.6037    1.1554 C   0  0  0  0  0  0  0  0  0  0  0  0
    0.7229    2.8293   -1.3537 C   0  0  0  0  0  0  0  0  0  0  0  0
    5.8339   -1.5545   -0.3298 C   0  0  0  0  0  0  0  0  0  0  0  0
   -3.3829    2.3731   -1.0227 C   0  0  0  0  0  0  0  0  0  0  0  0
    3.0053    2.7009    0.9934 H   0  0  0  0  0  0  0  0  0  0  0  0
   -0.8563   -0.0439    0.8154 H   0  0  0  0  0  0  0  0  0  0  0  0
   -2.1047   -1.2499   -1.7415 H   0  0  0  0  0  0  0  0  0  0  0  0
   -3.7535   -2.8582   -0.2423 H   0  0  0  0  0  0  0  0  0  0  0  0
   -5.5187    1.5106    1.3186 H   0  0  0  0  0  0  0  0  0  0  0  0
   -5.9570   -2.7354    0.8585 H   0  0  0  0  0  0  0  0  0  0  0  0
   -6.8432   -0.5543    1.6400 H   0  0  0  0  0  0  0  0  0  0  0  0
    1.6793   -2.4692   -0.8937 H   0  0  0  0  0  0  0  0  0  0  0  0
   -0.1374    3.5040   -1.3566 H   0  0  0  0  0  0  0  0  0  0  0  0
    0.6312    2.1429   -2.2010 H   0  0  0  0  0  0  0  0  0  0  0  0
    1.6350    3.4267   -1.4517 H   0  0  0  0  0  0  0  0  0  0  0  0
    5.0137    2.1566    1.6975 H   0  0  0  0  0  0  0  0  0  0  0  0
    5.3658   -1.9085   -1.2538 H   0  0  0  0  0  0  0  0  0  0  0  0
    6.3321   -0.5957   -0.5053 H   0  0  0  0  0  0  0  0  0  0  0  0
    6.5843   -2.2855   -0.0166 H   0  0  0  0  0  0  0  0  0  0  0  0
   -2.7622    3.2728   -0.9969 H   0  0  0  0  0  0  0  0  0  0  0  0
   -4.4315    2.6760   -1.1062 H   0  0  0  0  0  0  0  0  0  0  0  0
   -3.0950    1.7756   -1.8932 H   0  0  0  0  0  0  0  0  0  0  0  0
  1  8  1  0  0  0  0
  1 22  1  0  0  0  0
  2 10  1  0  0  0  0
  2 23  1  0  0  0  0
  3  9  1  0  0  0  0
  3 32  1  0  0  0  0
  4 12  1  0  0  0  0
  4 36  1  0  0  0  0
  5 17  1  0  0  0  0
  5 24  1  0  0  0  0
  6 13  2  0  0  0  0
  7  8  2  0  0  0  0
  7  9  1  0  0  0  0
  7 13  1  0  0  0  0
  8 11  1  0  0  0  0
  9 10  2  0  0  0  0
 10 12  1  0  0  0  0
 11 12  2  0  0  0  0
 11 25  1  0  0  0  0
 13 15  1  0  0  0  0
 14 16  1  0  0  0  0
 14 17  1  0  0  0  0
 14 18  2  0  0  0  0
 15 16  2  0  0  0  0
 15 26  1  0  0  0  0
 16 27  1  0  0  0  0
 17 19  2  0  0  0  0
 18 20  1  0  0  0  0
 18 28  1  0  0  0  0
 19 21  1  0  0  0  0
 19 29  1  0  0  0  0
 20 21  2  0  0  0  0
 20 30  1  0  0  0  0
 21 31  1  0  0  0  0
 22 33  1  0  0  0  0
 22 34  1  0  0  0  0
 22 35  1  0  0  0  0
 23 37  1  0  0  0  0
 23 38  1  0  0  0  0
 23 39  1  0  0  0  0
 24 40  1  0  0  0  0
 24 41  1  0  0  0  0
 24 42  1  0  0  0  0
M  END
> <PUBCHEM_COMPOUND_CID>
21636239

> <PUBCHEM_CONFORMER_RMSD>
0.8

> <PUBCHEM_CONFORMER_DIVERSEORDER>
2
48
25
43
81
20
14
63
55
73
83
67
18
47
85
53
79
15
11
49
37
8
76
29
45
60
26
17
4
80
32
66
16
74
62
58
50
68
24
21
6
84
40
27
3
51
33
82
72
23
28
9
34
77
75
19
61
30
59
5
71
7
78
52
22
44
10
36
46
12
13
65
31
69
42
39
1
35
41
38
56
64
54
70
57

> <PUBCHEM_MMFF94_PARTIAL_CHARGES>
33
1 -0.36
10 0.08
11 -0.15
12 0.08
13 0.47
14 0.03
15 -0.14
16 -0.18
17 0.08
18 -0.15
19 -0.15
2 -0.36
20 -0.15
21 -0.15
22 0.28
23 0.28
24 0.28
25 0.15
26 0.15
27 0.15
28 0.15
29 0.15
3 -0.53
30 0.15
31 0.15
32 0.45
36 0.45
4 -0.53
5 -0.36
6 -0.57
7 0.09
8 0.08
9 0.08

> <PUBCHEM_EFFECTIVE_ROTOR_COUNT>
6

> <PUBCHEM_PHARMACOPHORE_FEATURES>
8
1 1 acceptor
1 2 acceptor
1 3 donor
1 4 donor
1 5 acceptor
1 6 acceptor
6 14 17 18 19 20 21 rings
6 7 8 9 10 11 12 rings

> <PUBCHEM_HEAVY_ATOM_COUNT>
24

> <PUBCHEM_ATOM_DEF_STEREO_COUNT>
0

> <PUBCHEM_ATOM_UDEF_STEREO_COUNT>
0

> <PUBCHEM_BOND_DEF_STEREO_COUNT>
1

> <PUBCHEM_BOND_UDEF_STEREO_COUNT>
0

> <PUBCHEM_ISOTOPIC_ATOM_COUNT>
0

> <PUBCHEM_COMPONENT_COUNT>
1

> <PUBCHEM_CACTVS_TAUTO_COUNT>
12

> <PUBCHEM_CONFORMER_ID>
014A248F00000002

> <PUBCHEM_MMFF94_ENERGY>
106.6516

> <PUBCHEM_FEATURE_SELFOVERLAP>
40.598

> <PUBCHEM_SHAPE_FINGERPRINT>
12107183 9 17836369250689194851
12236239 1 17703508873898792290
12507557 5 18335978749006291965
12507560 40 18341889692887890220
12596602 18 17458622349941678945
12616971 3 17203322317024351846
12633257 1 18115024237693209467
12892183 10 18411694391847869710
13583140 156 18339351968843854399
13675066 3 18342171172075055180
13914758 101 18040985247268408567
14251764 30 17748824090576194850
14341114 176 18410296934260184899
14528608 73 9583522014193331907
14790565 3 18122620820019216576
15081414 286 18272647974553115544
15188451 53 17531525512051729563
15463212 79 13326855513793015013
15475509 84 17702945825646368912
1813 80 17312819381563049324
18222031 100 16515682268687527927
20715895 44 18056769732938717761
20739085 24 18410014355772440716
21033648 29 17988626472586890793
21065199 12 18411417293685654211
21267235 1 18410864247763423562
21859007 373 18115866296861694493
22950370 63 18187649076841843086
23402655 69 8358264743333092371
23559900 14 18334575793612203963
29717793 49 12973870503686724170
3737641 26 17896596189780620962
4214541 1 18411419488603677763
4409770 3 17607795111217255933
465052 167 18412831270324565470
5104073 3 18341040840226239584
9995097 60 18271525299659868119

> <PUBCHEM_SHAPE_MULTIPOLES>
458.69
13.31
2.57
1.24
2.97
1.13
0.21
-4.89
-5.54
-0.08
0.59
-0.18
0.18
1.03

> <PUBCHEM_SHAPE_SELFOVERLAP>
980.601

> <PUBCHEM_SHAPE_VOLUME>
254.6

> <PUBCHEM_COORDINATE_TYPE>
2
5
10

$$$$
