13889019
  -OEChem-08312012143D

 43 45  0     1  0  0  0  0  0999 V2000
   -0.1773    0.3752   -0.0643 O   0  0  0  0  0  0  0  0  0  0  0  0
    1.6645    2.2865   -0.5662 O   0  0  0  0  0  0  0  0  0  0  0  0
    0.9198   -3.4373    0.9802 O   0  0  0  0  0  0  0  0  0  0  0  0
   -1.9529    1.3888    1.3439 O   0  0  0  0  0  0  0  0  0  0  0  0
    3.4257   -2.7987    0.6734 O   0  0  0  0  0  0  0  0  0  0  0  0
    4.3647    1.7021   -0.4811 O   0  0  0  0  0  0  0  0  0  0  0  0
   -3.0661   -1.8456   -2.0169 O   0  0  0  0  0  0  0  0  0  0  0  0
   -1.0451   -0.7375   -0.3316 C   0  0  1  0  0  0  0  0  0  0  0  0
   -0.8522   -1.8439    0.7037 C   0  0  0  0  0  0  0  0  0  0  0  0
   -2.4748   -0.2391   -0.3377 C   0  0  0  0  0  0  0  0  0  0  0  0
    1.5820   -1.2681    0.3248 C   0  0  0  0  0  0  0  0  0  0  0  0
    1.1451    0.0185   -0.0037 C   0  0  0  0  0  0  0  0  0  0  0  0
    0.5838   -2.2993    0.6750 C   0  0  0  0  0  0  0  0  0  0  0  0
    2.0785    1.0234   -0.2613 C   0  0  0  0  0  0  0  0  0  0  0  0
    2.9474   -1.5614    0.3634 C   0  0  0  0  0  0  0  0  0  0  0  0
   -2.8558    0.8060    0.5064 C   0  0  0  0  0  0  0  0  0  0  0  0
   -3.4165   -0.8232   -1.1872 C   0  0  0  0  0  0  0  0  0  0  0  0
    3.4426    0.7331   -0.2215 C   0  0  0  0  0  0  0  0  0  0  0  0
    3.8756   -0.5575    0.0851 C   0  0  0  0  0  0  0  0  0  0  0  0
   -4.1730    1.2652    0.5006 C   0  0  0  0  0  0  0  0  0  0  0  0
   -4.7338   -0.3641   -1.1927 C   0  0  0  0  0  0  0  0  0  0  0  0
   -5.1121    0.6800   -0.3489 C   0  0  0  0  0  0  0  0  0  0  0  0
    1.4828    3.1881    0.5231 C   0  0  0  0  0  0  0  0  0  0  0  0
   -2.4271    2.4492    2.1714 C   0  0  0  0  0  0  0  0  0  0  0  0
    4.7744    1.8597   -1.8379 C   0  0  0  0  0  0  0  0  0  0  0  0
   -0.7735   -1.0861   -1.3374 H   0  0  0  0  0  0  0  0  0  0  0  0
   -1.4980   -2.7006    0.4829 H   0  0  0  0  0  0  0  0  0  0  0  0
   -1.0673   -1.4930    1.7199 H   0  0  0  0  0  0  0  0  0  0  0  0
    4.9420   -0.7695    0.1131 H   0  0  0  0  0  0  0  0  0  0  0  0
   -4.5399    2.0708    1.1271 H   0  0  0  0  0  0  0  0  0  0  0  0
   -5.4703   -0.8159   -1.8517 H   0  0  0  0  0  0  0  0  0  0  0  0
   -6.1380    1.0366   -0.3540 H   0  0  0  0  0  0  0  0  0  0  0  0
    4.3976   -2.7873    0.6453 H   0  0  0  0  0  0  0  0  0  0  0  0
   -2.2898   -2.3141   -1.6727 H   0  0  0  0  0  0  0  0  0  0  0  0
    0.7581    2.7907    1.2404 H   0  0  0  0  0  0  0  0  0  0  0  0
    1.0993    4.1320    0.1262 H   0  0  0  0  0  0  0  0  0  0  0  0
    2.4371    3.3808    1.0231 H   0  0  0  0  0  0  0  0  0  0  0  0
   -3.1915    2.1021    2.8750 H   0  0  0  0  0  0  0  0  0  0  0  0
   -2.7630    3.3058    1.5772 H   0  0  0  0  0  0  0  0  0  0  0  0
   -1.5777    2.7931    2.7709 H   0  0  0  0  0  0  0  0  0  0  0  0
    3.9201    2.1188   -2.4713 H   0  0  0  0  0  0  0  0  0  0  0  0
    5.2495    0.9440   -2.2037 H   0  0  0  0  0  0  0  0  0  0  0  0
    5.5028    2.6738   -1.8834 H   0  0  0  0  0  0  0  0  0  0  0  0
  1  8  1  0  0  0  0
  1 12  1  0  0  0  0
  2 14  1  0  0  0  0
  2 23  1  0  0  0  0
  3 13  2  0  0  0  0
  4 16  1  0  0  0  0
  4 24  1  0  0  0  0
  5 15  1  0  0  0  0
  5 33  1  0  0  0  0
  6 18  1  0  0  0  0
  6 25  1  0  0  0  0
  7 17  1  0  0  0  0
  7 34  1  0  0  0  0
  8  9  1  0  0  0  0
  8 10  1  0  0  0  0
  8 26  1  0  0  0  0
  9 13  1  0  0  0  0
  9 27  1  0  0  0  0
  9 28  1  0  0  0  0
 10 16  1  0  0  0  0
 10 17  2  0  0  0  0
 11 12  2  0  0  0  0
 11 13  1  0  0  0  0
 11 15  1  0  0  0  0
 12 14  1  0  0  0  0
 14 18  2  0  0  0  0
 15 19  2  0  0  0  0
 16 20  2  0  0  0  0
 17 21  1  0  0  0  0
 18 19  1  0  0  0  0
 19 29  1  0  0  0  0
 20 22  1  0  0  0  0
 20 30  1  0  0  0  0
 21 22  2  0  0  0  0
 21 31  1  0  0  0  0
 22 32  1  0  0  0  0
 23 35  1  0  0  0  0
 23 36  1  0  0  0  0
 23 37  1  0  0  0  0
 24 38  1  0  0  0  0
 24 39  1  0  0  0  0
 24 40  1  0  0  0  0
 25 41  1  0  0  0  0
 25 42  1  0  0  0  0
 25 43  1  0  0  0  0
M  END
> <PUBCHEM_COMPOUND_CID>
13889019

> <PUBCHEM_CONFORMER_RMSD>
0.8

> <PUBCHEM_CONFORMER_DIVERSEORDER>
3
6
9
2
10
7
5
8
4
1

> <PUBCHEM_MMFF94_PARTIAL_CHARGES>
31
1 -0.36
10 -0.14
11 0.09
12 0.08
13 0.42
14 0.08
15 0.08
16 0.08
17 0.08
18 0.08
19 -0.15
2 -0.36
20 -0.15
21 -0.15
22 -0.15
23 0.28
24 0.28
25 0.28
29 0.15
3 -0.57
30 0.15
31 0.15
32 0.15
33 0.45
34 0.45
4 -0.36
5 -0.53
6 -0.36
7 -0.53
8 0.42
9 0.06

> <PUBCHEM_EFFECTIVE_ROTOR_COUNT>
4.6

> <PUBCHEM_PHARMACOPHORE_FEATURES>
10
1 1 acceptor
1 2 acceptor
1 3 acceptor
1 4 acceptor
1 5 donor
1 6 acceptor
1 7 donor
6 1 8 9 11 12 13 rings
6 10 16 17 20 21 22 rings
6 11 12 14 15 18 19 rings

> <PUBCHEM_HEAVY_ATOM_COUNT>
25

> <PUBCHEM_ATOM_DEF_STEREO_COUNT>
0

> <PUBCHEM_ATOM_UDEF_STEREO_COUNT>
1

> <PUBCHEM_BOND_DEF_STEREO_COUNT>
0

> <PUBCHEM_BOND_UDEF_STEREO_COUNT>
0

> <PUBCHEM_ISOTOPIC_ATOM_COUNT>
0

> <PUBCHEM_COMPONENT_COUNT>
1

> <PUBCHEM_CACTVS_TAUTO_COUNT>
21

> <PUBCHEM_CONFORMER_ID>
00D3EDFB00000003

> <PUBCHEM_MMFF94_ENERGY>
107.3939

> <PUBCHEM_FEATURE_SELFOVERLAP>
50.81

> <PUBCHEM_SHAPE_FINGERPRINT>
10411042 1 17613147478045106290
12236239 1 18272365343496511279
12788726 201 17774726377187649073
13009979 54 17986107401069070690
13140716 1 18261112955005629658
13583140 156 18116159870708244321
13965767 371 17050223869878627401
14739800 52 17845070987959849728
14787075 74 18267025149529773787
14790565 3 18334586741205039844
14931854 50 18341613745603019205
15342168 16 18041005067413481621
15420108 30 17264418630394843272
16752209 62 17631719462535844273
17492 89 18272368668187035359
17818456 19 17629200407670113275
1813 80 17978511932169643790
192875 21 18341323427209173753
20511986 3 18270662195684987224
20600515 1 16271628054127347899
20612939 158 18333727992289411190
20739085 24 18042701519835688764
21033648 29 16515676715532119983
21033650 10 17701849668398762032
23557571 272 16200153166517849785
23559900 14 17131834278647233564
23598291 2 18271529676057294015
25147074 1 18341337678358957120
283562 15 17466231151132456658
335352 9 18333452045911569574
34797466 226 16486967448807198785
350125 39 17972330765301983523
4409770 3 16105834138583965617
474 4 18334294262231420563
5895379 119 17702952405103632048
6034566 193 17461463574108757484
633830 44 18408606937464727302
9981440 41 17691670599664178816

> <PUBCHEM_SHAPE_MULTIPOLES>
473.4
9.4
3.29
1.41
2.21
0.27
-0.11
-2.75
-3.36
-2.26
1.08
0.69
-0.33
-2.65

> <PUBCHEM_SHAPE_SELFOVERLAP>
1035.975

> <PUBCHEM_SHAPE_VOLUME>
256.2

> <PUBCHEM_COORDINATE_TYPE>
2
5
10

$$$$
