101669621
  -OEChem-08312011473D

 39 41  0     1  0  0  0  0  0999 V2000
    0.0769   -0.7194   -0.1218 O   0  0  0  0  0  0  0  0  0  0  0  0
    1.1024    3.1507   -1.0160 O   0  0  0  0  0  0  0  0  0  0  0  0
    1.9282   -2.5275    0.6518 O   0  0  0  0  0  0  0  0  0  0  0  0
   -3.2065    1.3179    1.3777 O   0  0  0  0  0  0  0  0  0  0  0  0
    3.5677    2.6518   -0.3416 O   0  0  0  0  0  0  0  0  0  0  0  0
    4.5760   -1.7937    0.9598 O   0  0  0  0  0  0  0  0  0  0  0  0
   -0.8806    0.3427    0.0106 C   0  0  1  0  0  0  0  0  0  0  0  0
   -0.6004    1.4611   -0.9913 C   0  0  0  0  0  0  0  0  0  0  0  0
   -2.2663   -0.2341   -0.1888 C   0  0  0  0  0  0  0  0  0  0  0  0
    1.7807    1.0199   -0.2590 C   0  0  0  0  0  0  0  0  0  0  0  0
    1.3722   -0.2899    0.0091 C   0  0  0  0  0  0  0  0  0  0  0  0
    0.7888    1.9952   -0.7566 C   0  0  0  0  0  0  0  0  0  0  0  0
    2.3121   -1.2421    0.4055 C   0  0  0  0  0  0  0  0  0  0  0  0
    3.1188    1.3886   -0.0994 C   0  0  0  0  0  0  0  0  0  0  0  0
   -3.3603    0.2827    0.5051 C   0  0  0  0  0  0  0  0  0  0  0  0
   -2.4420   -1.2945   -1.0779 C   0  0  0  0  0  0  0  0  0  0  0  0
    3.6493   -0.8765    0.5637 C   0  0  0  0  0  0  0  0  0  0  0  0
    4.0504    0.4368    0.3166 C   0  0  0  0  0  0  0  0  0  0  0  0
   -4.6300   -0.2607    0.3099 C   0  0  0  0  0  0  0  0  0  0  0  0
   -3.7118   -1.8379   -1.2731 C   0  0  0  0  0  0  0  0  0  0  0  0
   -4.8059   -1.3210   -0.5792 C   0  0  0  0  0  0  0  0  0  0  0  0
    1.9590   -3.4332   -0.4488 C   0  0  0  0  0  0  0  0  0  0  0  0
   -4.3787    1.7831    2.0437 C   0  0  0  0  0  0  0  0  0  0  0  0
   -0.7977    0.7170    1.0412 H   0  0  0  0  0  0  0  0  0  0  0  0
   -1.3190    2.2786   -0.8659 H   0  0  0  0  0  0  0  0  0  0  0  0
   -0.6479    1.1027   -2.0263 H   0  0  0  0  0  0  0  0  0  0  0  0
   -1.6100   -1.7076   -1.6418 H   0  0  0  0  0  0  0  0  0  0  0  0
    5.0923    0.7237    0.4396 H   0  0  0  0  0  0  0  0  0  0  0  0
   -5.5254    0.0881    0.8127 H   0  0  0  0  0  0  0  0  0  0  0  0
   -3.8495   -2.6614   -1.9677 H   0  0  0  0  0  0  0  0  0  0  0  0
   -5.7942   -1.7445   -0.7326 H   0  0  0  0  0  0  0  0  0  0  0  0
    2.8279    3.2402   -0.5564 H   0  0  0  0  0  0  0  0  0  0  0  0
    5.4462   -1.3627    1.0144 H   0  0  0  0  0  0  0  0  0  0  0  0
    1.6289   -4.4136   -0.0946 H   0  0  0  0  0  0  0  0  0  0  0  0
    2.9761   -3.5279   -0.8419 H   0  0  0  0  0  0  0  0  0  0  0  0
    1.2801   -3.1014   -1.2408 H   0  0  0  0  0  0  0  0  0  0  0  0
   -4.8103    1.0105    2.6890 H   0  0  0  0  0  0  0  0  0  0  0  0
   -5.1085    2.1937    1.3375 H   0  0  0  0  0  0  0  0  0  0  0  0
   -4.0719    2.6067    2.6970 H   0  0  0  0  0  0  0  0  0  0  0  0
  1  7  1  0  0  0  0
  1 11  1  0  0  0  0
  2 12  2  0  0  0  0
  3 13  1  0  0  0  0
  3 22  1  0  0  0  0
  4 15  1  0  0  0  0
  4 23  1  0  0  0  0
  5 14  1  0  0  0  0
  5 32  1  0  0  0  0
  6 17  1  0  0  0  0
  6 33  1  0  0  0  0
  7  8  1  0  0  0  0
  7  9  1  0  0  0  0
  7 24  1  0  0  0  0
  8 12  1  0  0  0  0
  8 25  1  0  0  0  0
  8 26  1  0  0  0  0
  9 15  1  0  0  0  0
  9 16  2  0  0  0  0
 10 11  2  0  0  0  0
 10 12  1  0  0  0  0
 10 14  1  0  0  0  0
 11 13  1  0  0  0  0
 13 17  2  0  0  0  0
 14 18  2  0  0  0  0
 15 19  2  0  0  0  0
 16 20  1  0  0  0  0
 16 27  1  0  0  0  0
 17 18  1  0  0  0  0
 18 28  1  0  0  0  0
 19 21  1  0  0  0  0
 19 29  1  0  0  0  0
 20 21  2  0  0  0  0
 20 30  1  0  0  0  0
 21 31  1  0  0  0  0
 22 34  1  0  0  0  0
 22 35  1  0  0  0  0
 22 36  1  0  0  0  0
 23 37  1  0  0  0  0
 23 38  1  0  0  0  0
 23 39  1  0  0  0  0
M  END
> <PUBCHEM_COMPOUND_CID>
101669621

> <PUBCHEM_CONFORMER_RMSD>
0.6

> <PUBCHEM_CONFORMER_DIVERSEORDER>
1
16
11
14
18
15
6
13
3
9
5
7
2
10
17
8
4
12

> <PUBCHEM_MMFF94_PARTIAL_CHARGES>
30
1 -0.36
10 0.09
11 0.08
12 0.42
13 0.08
14 0.08
15 0.08
16 -0.15
17 0.08
18 -0.15
19 -0.15
2 -0.57
20 -0.15
21 -0.15
22 0.28
23 0.28
27 0.15
28 0.15
29 0.15
3 -0.36
30 0.15
31 0.15
32 0.45
33 0.45
4 -0.36
5 -0.53
6 -0.53
7 0.42
8 0.06
9 -0.14

> <PUBCHEM_EFFECTIVE_ROTOR_COUNT>
3.6

> <PUBCHEM_PHARMACOPHORE_FEATURES>
9
1 1 acceptor
1 2 acceptor
1 3 acceptor
1 4 acceptor
1 5 donor
1 6 donor
6 1 7 8 10 11 12 rings
6 10 11 13 14 17 18 rings
6 9 15 16 19 20 21 rings

> <PUBCHEM_HEAVY_ATOM_COUNT>
23

> <PUBCHEM_ATOM_DEF_STEREO_COUNT>
1

> <PUBCHEM_ATOM_UDEF_STEREO_COUNT>
0

> <PUBCHEM_BOND_DEF_STEREO_COUNT>
0

> <PUBCHEM_BOND_UDEF_STEREO_COUNT>
0

> <PUBCHEM_ISOTOPIC_ATOM_COUNT>
0

> <PUBCHEM_COMPONENT_COUNT>
1

> <PUBCHEM_CACTVS_TAUTO_COUNT>
15

> <PUBCHEM_CONFORMER_ID>
060F5AF500000001

> <PUBCHEM_MMFF94_ENERGY>
88.1245

> <PUBCHEM_FEATURE_SELFOVERLAP>
45.709

> <PUBCHEM_SHAPE_FINGERPRINT>
10369192 42 15289338792076664805
10616163 171 18270398429249348063
10967382 1 18262511615363037478
11578080 2 18055603275181237337
12107183 9 17839188407208648603
12236239 1 18272369810272925269
12553582 1 18262238815904091374
12670546 56 18131629015146473601
12788726 201 17917436488351062835
13009979 54 18272657835132791449
13140716 1 18334855073860977386
13167823 11 18343302586999701615
13533116 47 18340203098407676803
13544653 18 17894910702668090188
13965767 371 17769122076052871777
14739800 52 17631158874519823704
14790565 3 18117852212055985228
14844126 61 16747601942971207898
17349148 13 18335133237074822947
17357779 13 17604130602228079877
17492 89 18413674608623177575
17818456 19 17844538695203470337
1813 80 17968952884997494855
200 152 18269267019262694935
20028762 73 18271234006715811342
20511986 3 18271509945468341625
20645477 70 18041268958762440039
20715895 44 17839189511464429121
20739085 24 18261118473795816636
21065198 48 18342741836111727489
21267235 1 18409732867467898222
21427221 339 18200046027416262393
2255824 54 18263647427590390204
23559900 14 18337661027381729867
23598288 3 17846213380588373351
23598291 2 18343302573977585103
2748010 2 17689702074971985782
3633792 109 18338221697340656615
4409770 3 16681765359921491558
474 4 18190180281015176469
5104073 3 18412262848060154681
573450 72 18131350817319175305
7064713 232 18059569153049308947
7097593 13 18270403789383577875
8272917 22 18408323319430886383
9709674 26 18408324367440362275
9849439 229 16482782497974602809
9981440 41 17257082100562395577

> <PUBCHEM_SHAPE_MULTIPOLES>
438.11
9.52
3.15
1.21
4.43
0.48
0.26
1.28
2.35
-2.03
-0.45
1.08
-0.38
-2.46

> <PUBCHEM_SHAPE_SELFOVERLAP>
961.932

> <PUBCHEM_SHAPE_VOLUME>
237

> <PUBCHEM_COORDINATE_TYPE>
2
5
10

$$$$
