13889021
  -OEChem-08312011403D

 37 39  0     0  0  0  0  0  0999 V2000
    0.0279    0.5525    0.1288 O   0  0  0  0  0  0  0  0  0  0  0  0
   -1.6699    2.6148   -0.3308 O   0  0  0  0  0  0  0  0  0  0  0  0
   -3.7545   -2.4787    0.1198 O   0  0  0  0  0  0  0  0  0  0  0  0
    2.6790   -0.3941   -1.8927 O   0  0  0  0  0  0  0  0  0  0  0  0
   -4.3893    2.1702   -0.5715 O   0  0  0  0  0  0  0  0  0  0  0  0
   -1.2870   -3.2855    0.5011 O   0  0  0  0  0  0  0  0  0  0  0  0
   -1.8279   -1.0147    0.1341 C   0  0  0  0  0  0  0  0  0  0  0  0
   -1.3110    0.2747    0.0187 C   0  0  0  0  0  0  0  0  0  0  0  0
    0.9039   -0.4978    0.3569 C   0  0  0  0  0  0  0  0  0  0  0  0
    2.3183   -0.0870    0.4634 C   0  0  0  0  0  0  0  0  0  0  0  0
   -2.1672    1.3502   -0.2184 C   0  0  0  0  0  0  0  0  0  0  0  0
   -0.9026   -2.1301    0.3857 C   0  0  0  0  0  0  0  0  0  0  0  0
   -3.2013   -1.2388    0.0134 C   0  0  0  0  0  0  0  0  0  0  0  0
    0.5280   -1.7794    0.4930 C   0  0  0  0  0  0  0  0  0  0  0  0
   -3.5396    1.1307   -0.3398 C   0  0  0  0  0  0  0  0  0  0  0  0
   -4.0552   -0.1611   -0.2242 C   0  0  0  0  0  0  0  0  0  0  0  0
    3.1502   -0.0504   -0.6600 C   0  0  0  0  0  0  0  0  0  0  0  0
    2.8321    0.2711    1.7133 C   0  0  0  0  0  0  0  0  0  0  0  0
    4.4832    0.3405   -0.5342 C   0  0  0  0  0  0  0  0  0  0  0  0
    4.1651    0.6622    1.8390 C   0  0  0  0  0  0  0  0  0  0  0  0
    4.9907    0.6969    0.7153 C   0  0  0  0  0  0  0  0  0  0  0  0
   -1.5723    3.3805    0.8679 C   0  0  0  0  0  0  0  0  0  0  0  0
    3.5996   -0.3265   -2.9789 C   0  0  0  0  0  0  0  0  0  0  0  0
    1.2346   -2.5806    0.6786 H   0  0  0  0  0  0  0  0  0  0  0  0
   -5.1258   -0.3267   -0.3193 H   0  0  0  0  0  0  0  0  0  0  0  0
    2.2023    0.2507    2.5998 H   0  0  0  0  0  0  0  0  0  0  0  0
    5.1853    0.3926   -1.3590 H   0  0  0  0  0  0  0  0  0  0  0  0
    4.5603    0.9399    2.8118 H   0  0  0  0  0  0  0  0  0  0  0  0
    6.0286    1.0016    0.8145 H   0  0  0  0  0  0  0  0  0  0  0  0
   -3.0689   -3.1444    0.2823 H   0  0  0  0  0  0  0  0  0  0  0  0
   -3.8645    2.9834   -0.6679 H   0  0  0  0  0  0  0  0  0  0  0  0
   -0.8732    2.9110    1.5672 H   0  0  0  0  0  0  0  0  0  0  0  0
   -2.5538    3.4928    1.3392 H   0  0  0  0  0  0  0  0  0  0  0  0
   -1.1935    4.3732    0.6100 H   0  0  0  0  0  0  0  0  0  0  0  0
    4.4266   -1.0339   -2.8537 H   0  0  0  0  0  0  0  0  0  0  0  0
    3.9466    0.6979   -3.1526 H   0  0  0  0  0  0  0  0  0  0  0  0
    3.0566   -0.6325   -3.8794 H   0  0  0  0  0  0  0  0  0  0  0  0
  1  8  1  0  0  0  0
  1  9  1  0  0  0  0
  2 11  1  0  0  0  0
  2 22  1  0  0  0  0
  3 13  1  0  0  0  0
  3 30  1  0  0  0  0
  4 17  1  0  0  0  0
  4 23  1  0  0  0  0
  5 15  1  0  0  0  0
  5 31  1  0  0  0  0
  6 12  2  0  0  0  0
  7  8  2  0  0  0  0
  7 12  1  0  0  0  0
  7 13  1  0  0  0  0
  8 11  1  0  0  0  0
  9 10  1  0  0  0  0
  9 14  2  0  0  0  0
 10 17  1  0  0  0  0
 10 18  2  0  0  0  0
 11 15  2  0  0  0  0
 12 14  1  0  0  0  0
 13 16  2  0  0  0  0
 14 24  1  0  0  0  0
 15 16  1  0  0  0  0
 16 25  1  0  0  0  0
 17 19  2  0  0  0  0
 18 20  1  0  0  0  0
 18 26  1  0  0  0  0
 19 21  1  0  0  0  0
 19 27  1  0  0  0  0
 20 21  2  0  0  0  0
 20 28  1  0  0  0  0
 21 29  1  0  0  0  0
 22 32  1  0  0  0  0
 22 33  1  0  0  0  0
 22 34  1  0  0  0  0
 23 35  1  0  0  0  0
 23 36  1  0  0  0  0
 23 37  1  0  0  0  0
M  END
> <PUBCHEM_COMPOUND_CID>
13889021

> <PUBCHEM_CONFORMER_RMSD>
0.6

> <PUBCHEM_CONFORMER_DIVERSEORDER>
3
9
7
10
8
4
12
2
6
5
1
11

> <PUBCHEM_MMFF94_PARTIAL_CHARGES>
31
1 -0.16
10 0.03
11 0.08
12 0.47
13 0.08
14 -0.14
15 0.08
16 -0.15
17 0.08
18 -0.15
19 -0.15
2 -0.36
20 -0.15
21 -0.15
22 0.28
23 0.28
24 0.15
25 0.15
26 0.15
27 0.15
28 0.15
29 0.15
3 -0.53
30 0.45
31 0.45
4 -0.36
5 -0.53
6 -0.57
7 0.09
8 0.08
9 0.05

> <PUBCHEM_EFFECTIVE_ROTOR_COUNT>
3

> <PUBCHEM_PHARMACOPHORE_FEATURES>
9
1 1 acceptor
1 2 acceptor
1 3 donor
1 4 acceptor
1 5 donor
1 6 acceptor
6 1 7 8 9 12 14 rings
6 10 17 18 19 20 21 rings
6 7 8 11 13 15 16 rings

> <PUBCHEM_HEAVY_ATOM_COUNT>
23

> <PUBCHEM_ATOM_DEF_STEREO_COUNT>
0

> <PUBCHEM_ATOM_UDEF_STEREO_COUNT>
0

> <PUBCHEM_BOND_DEF_STEREO_COUNT>
0

> <PUBCHEM_BOND_UDEF_STEREO_COUNT>
0

> <PUBCHEM_ISOTOPIC_ATOM_COUNT>
0

> <PUBCHEM_COMPONENT_COUNT>
1

> <PUBCHEM_CACTVS_TAUTO_COUNT>
12

> <PUBCHEM_CONFORMER_ID>
00D3EDFD00000003

> <PUBCHEM_MMFF94_ENERGY>
91.2819

> <PUBCHEM_FEATURE_SELFOVERLAP>
45.707

> <PUBCHEM_SHAPE_FINGERPRINT>
10319926 262 18268122384914067472
10411042 1 17759519267665873259
10498660 4 18410290281245352693
10646746 165 18412258424555081896
11582403 64 16984575582923048050
11640471 11 17313397759197155830
11725454 13 17416089933486969762
12173636 292 18337386016199054589
12236239 1 17458619047691771466
12390115 104 18270408191973262313
12788726 201 17316501774706420818
13140716 1 17902793295207775187
13402501 40 18130213956571943424
13965767 371 17536024459681054196
14081887 123 18412534410094336856
14739800 52 18045774857253219288
14790565 3 17909551654182419705
15375358 24 18202560709298469442
15961568 22 18194398021232870356
16752209 62 18261394480994244747
16988056 13 15522898731629890708
17349148 13 17821725048529005506
17818456 19 18190727657912996786
18186145 218 18130797728262674922
18915476 22 17060624399753184678
20510252 161 18413103961523112729
20600515 1 18336540633227809012
20645477 70 16988851579390510974
20715895 44 17026818660653720173
22122407 14 15864077528977790021
22149856 69 18045797693873874705
23366157 5 17752484248636821675
23402539 116 18339348747306957350
23526113 38 17560803174151867010
23557571 272 18342745160426808172
23559900 14 18342178826366231430
350125 39 18120089481361512570
469060 322 18262536861270663337
474 4 16660368086550561074
5895379 119 18335998501640306940
77492 1 17385441050825267018
81228 2 18339939184929682537
9981440 41 18260823744708124299

> <PUBCHEM_SHAPE_MULTIPOLES>
438.11
9.23
2.8
1.59
3.98
0.45
-1
1.96
-0.85
-3.88
0.62
2.85
-0.03
1.07

> <PUBCHEM_SHAPE_SELFOVERLAP>
968.482

> <PUBCHEM_SHAPE_VOLUME>
234.2

> <PUBCHEM_COORDINATE_TYPE>
2
5
10

$$$$
