12305177
  -OEChem-09092010543D

 81 85  0     1  0  0  0  0  0999 V2000
    7.2670   -0.4301   -0.2931 O   0  0  0  0  0  0  0  0  0  0  0  0
   -1.4606   -0.8653    0.2058 C   0  0  1  0  0  0  0  0  0  0  0  0
   -0.8404    0.5192   -0.2913 C   0  0  2  0  0  0  0  0  0  0  0  0
   -2.9607   -0.9018   -0.1894 C   0  0  2  0  0  0  0  0  0  0  0  0
   -3.8397    0.2731    0.3192 C   0  0  2  0  0  0  0  0  0  0  0  0
    0.6553    0.5969    0.2287 C   0  0  1  0  0  0  0  0  0  0  0  0
   -1.7129    1.7074    0.2337 C   0  0  0  0  0  0  0  0  0  0  0  0
   -5.1597   -0.1117   -0.4097 C   0  0  1  0  0  0  0  0  0  0  0  0
   -3.2120    1.6014   -0.1360 C   0  0  0  0  0  0  0  0  0  0  0  0
   -3.8221   -2.1397    0.0640 C   0  0  0  0  0  0  0  0  0  0  0  0
   -0.6814   -2.0029   -0.5031 C   0  0  0  0  0  0  0  0  0  0  0  0
    1.4568   -0.6920   -0.0548 C   0  0  0  0  0  0  0  0  0  0  0  0
    2.9914   -0.6571    0.2315 C   0  0  2  0  0  0  0  0  0  0  0  0
   -5.2591   -1.6428   -0.1980 C   0  0  0  0  0  0  0  0  0  0  0  0
    3.6310    0.6968   -0.2295 C   0  0  1  0  0  0  0  0  0  0  0  0
    1.3961    1.8464   -0.2779 C   0  0  0  0  0  0  0  0  0  0  0  0
   -1.2777   -1.0896    1.7376 C   0  0  0  0  0  0  0  0  0  0  0  0
   -0.8291    0.6452   -1.8553 C   0  0  0  0  0  0  0  0  0  0  0  0
    2.8236    1.9163    0.2458 C   0  0  0  0  0  0  0  0  0  0  0  0
    0.8148   -1.8309   -0.4084 C   0  0  0  0  0  0  0  0  0  0  0  0
   -4.0868    0.3353    1.8457 C   0  0  0  0  0  0  0  0  0  0  0  0
    5.1860    0.8442    0.0321 C   0  0  0  0  0  0  0  0  0  0  0  0
   -6.4283    0.6233   -0.0006 C   0  0  0  0  0  0  0  0  0  0  0  0
    3.7497   -1.8094   -0.5104 C   0  0  0  0  0  0  0  0  0  0  0  0
    5.8881   -0.5457    0.0598 C   0  0  1  0  0  0  0  0  0  0  0  0
    3.0983   -0.8806    1.7617 C   0  0  0  0  0  0  0  0  0  0  0  0
    5.2134   -1.5401   -0.8688 C   0  0  0  0  0  0  0  0  0  0  0  0
    5.5210    1.5725    1.3545 C   0  0  0  0  0  0  0  0  0  0  0  0
    5.7772    1.7216   -1.1071 C   0  0  0  0  0  0  0  0  0  0  0  0
   -6.2675    2.1310   -0.1953 C   0  0  0  0  0  0  0  0  0  0  0  0
   -7.6314    0.1091   -0.7914 C   0  0  0  0  0  0  0  0  0  0  0  0
   -2.9584   -0.8394   -1.2874 H   0  0  0  0  0  0  0  0  0  0  0  0
    0.6170    0.6982    1.3223 H   0  0  0  0  0  0  0  0  0  0  0  0
   -1.3429    2.6558   -0.1744 H   0  0  0  0  0  0  0  0  0  0  0  0
   -1.6071    1.8000    1.3198 H   0  0  0  0  0  0  0  0  0  0  0  0
   -5.0147    0.0539   -1.4892 H   0  0  0  0  0  0  0  0  0  0  0  0
   -3.7019    2.4623    0.3245 H   0  0  0  0  0  0  0  0  0  0  0  0
   -3.3257    1.7264   -1.2191 H   0  0  0  0  0  0  0  0  0  0  0  0
   -3.7390   -2.5146    1.0877 H   0  0  0  0  0  0  0  0  0  0  0  0
   -3.5606   -2.9623   -0.6098 H   0  0  0  0  0  0  0  0  0  0  0  0
   -0.9563   -2.0826   -1.5616 H   0  0  0  0  0  0  0  0  0  0  0  0
   -0.9482   -2.9659   -0.0483 H   0  0  0  0  0  0  0  0  0  0  0  0
   -5.6801   -2.1299   -1.0846 H   0  0  0  0  0  0  0  0  0  0  0  0
   -5.8955   -1.9011    0.6562 H   0  0  0  0  0  0  0  0  0  0  0  0
    3.5190    0.6903   -1.3271 H   0  0  0  0  0  0  0  0  0  0  0  0
    0.8719    2.7533    0.0420 H   0  0  0  0  0  0  0  0  0  0  0  0
    1.4364    1.8689   -1.3724 H   0  0  0  0  0  0  0  0  0  0  0  0
   -0.2850   -1.4763    1.9922 H   0  0  0  0  0  0  0  0  0  0  0  0
   -1.3814   -0.1726    2.3169 H   0  0  0  0  0  0  0  0  0  0  0  0
   -1.9843   -1.8248    2.1314 H   0  0  0  0  0  0  0  0  0  0  0  0
   -1.7935    0.4247   -2.3166 H   0  0  0  0  0  0  0  0  0  0  0  0
   -0.5857    1.6679   -2.1657 H   0  0  0  0  0  0  0  0  0  0  0  0
   -0.0923   -0.0118   -2.3267 H   0  0  0  0  0  0  0  0  0  0  0  0
    3.2735    2.8430   -0.1271 H   0  0  0  0  0  0  0  0  0  0  0  0
    2.8111    1.9879    1.3387 H   0  0  0  0  0  0  0  0  0  0  0  0
    1.3681   -2.7509   -0.5689 H   0  0  0  0  0  0  0  0  0  0  0  0
   -3.2036    0.6353    2.4075 H   0  0  0  0  0  0  0  0  0  0  0  0
   -4.8380    1.0872    2.1050 H   0  0  0  0  0  0  0  0  0  0  0  0
   -4.4296   -0.6183    2.2577 H   0  0  0  0  0  0  0  0  0  0  0  0
   -6.6591    0.4376    1.0551 H   0  0  0  0  0  0  0  0  0  0  0  0
    3.2558   -2.0430   -1.4628 H   0  0  0  0  0  0  0  0  0  0  0  0
    3.7004   -2.7282    0.0892 H   0  0  0  0  0  0  0  0  0  0  0  0
    5.8843   -0.9671    1.0692 H   0  0  0  0  0  0  0  0  0  0  0  0
    4.1231   -1.0089    2.1093 H   0  0  0  0  0  0  0  0  0  0  0  0
    2.6642   -0.0533    2.3322 H   0  0  0  0  0  0  0  0  0  0  0  0
    2.5632   -1.7903    2.0638 H   0  0  0  0  0  0  0  0  0  0  0  0
    5.7700   -2.4858   -0.8800 H   0  0  0  0  0  0  0  0  0  0  0  0
    5.2754   -1.1713   -1.9013 H   0  0  0  0  0  0  0  0  0  0  0  0
    6.6023    1.6103    1.5280 H   0  0  0  0  0  0  0  0  0  0  0  0
    5.1713    2.6104    1.3485 H   0  0  0  0  0  0  0  0  0  0  0  0
    5.0711    1.0758    2.2184 H   0  0  0  0  0  0  0  0  0  0  0  0
    5.2665    2.6877   -1.1771 H   0  0  0  0  0  0  0  0  0  0  0  0
    6.8390    1.9392   -0.9463 H   0  0  0  0  0  0  0  0  0  0  0  0
    5.6823    1.2274   -2.0801 H   0  0  0  0  0  0  0  0  0  0  0  0
   -5.7924    2.3765   -1.1503 H   0  0  0  0  0  0  0  0  0  0  0  0
   -7.2480    2.6221   -0.1905 H   0  0  0  0  0  0  0  0  0  0  0  0
   -5.7131    2.5913    0.6240 H   0  0  0  0  0  0  0  0  0  0  0  0
   -7.4802    0.2312   -1.8695 H   0  0  0  0  0  0  0  0  0  0  0  0
   -8.5389    0.6586   -0.5174 H   0  0  0  0  0  0  0  0  0  0  0  0
   -7.8274   -0.9490   -0.5921 H   0  0  0  0  0  0  0  0  0  0  0  0
    7.7079    0.0951    0.3954 H   0  0  0  0  0  0  0  0  0  0  0  0
  1 25  1  0  0  0  0
  1 81  1  0  0  0  0
  2  3  1  0  0  0  0
  2  4  1  0  0  0  0
  2 11  1  0  0  0  0
  2 17  1  0  0  0  0
  3  6  1  0  0  0  0
  3  7  1  0  0  0  0
  3 18  1  0  0  0  0
  4  5  1  0  0  0  0
  4 10  1  0  0  0  0
  4 32  1  0  0  0  0
  5  8  1  0  0  0  0
  5  9  1  0  0  0  0
  5 21  1  0  0  0  0
  6 12  1  0  0  0  0
  6 16  1  0  0  0  0
  6 33  1  0  0  0  0
  7  9  1  0  0  0  0
  7 34  1  0  0  0  0
  7 35  1  0  0  0  0
  8 14  1  0  0  0  0
  8 23  1  0  0  0  0
  8 36  1  0  0  0  0
  9 37  1  0  0  0  0
  9 38  1  0  0  0  0
 10 14  1  0  0  0  0
 10 39  1  0  0  0  0
 10 40  1  0  0  0  0
 11 20  1  0  0  0  0
 11 41  1  0  0  0  0
 11 42  1  0  0  0  0
 12 13  1  0  0  0  0
 12 20  2  0  0  0  0
 13 15  1  0  0  0  0
 13 24  1  0  0  0  0
 13 26  1  0  0  0  0
 14 43  1  0  0  0  0
 14 44  1  0  0  0  0
 15 19  1  0  0  0  0
 15 22  1  0  0  0  0
 15 45  1  0  0  0  0
 16 19  1  0  0  0  0
 16 46  1  0  0  0  0
 16 47  1  0  0  0  0
 17 48  1  0  0  0  0
 17 49  1  0  0  0  0
 17 50  1  0  0  0  0
 18 51  1  0  0  0  0
 18 52  1  0  0  0  0
 18 53  1  0  0  0  0
 19 54  1  0  0  0  0
 19 55  1  0  0  0  0
 20 56  1  0  0  0  0
 21 57  1  0  0  0  0
 21 58  1  0  0  0  0
 21 59  1  0  0  0  0
 22 25  1  0  0  0  0
 22 28  1  0  0  0  0
 22 29  1  0  0  0  0
 23 30  1  0  0  0  0
 23 31  1  0  0  0  0
 23 60  1  0  0  0  0
 24 27  1  0  0  0  0
 24 61  1  0  0  0  0
 24 62  1  0  0  0  0
 25 27  1  0  0  0  0
 25 63  1  0  0  0  0
 26 64  1  0  0  0  0
 26 65  1  0  0  0  0
 26 66  1  0  0  0  0
 27 67  1  0  0  0  0
 27 68  1  0  0  0  0
 28 69  1  0  0  0  0
 28 70  1  0  0  0  0
 28 71  1  0  0  0  0
 29 72  1  0  0  0  0
 29 73  1  0  0  0  0
 29 74  1  0  0  0  0
 30 75  1  0  0  0  0
 30 76  1  0  0  0  0
 30 77  1  0  0  0  0
 31 78  1  0  0  0  0
 31 79  1  0  0  0  0
 31 80  1  0  0  0  0
M  END
> <PUBCHEM_COMPOUND_CID>
12305177

> <PUBCHEM_CONFORMER_RMSD>
0.8

> <PUBCHEM_CONFORMER_DIVERSEORDER>
1

> <PUBCHEM_MMFF94_PARTIAL_CHARGES>
9
1 -0.68
11 0.14
12 -0.28
13 0.14
20 -0.29
25 0.28
56 0.15
6 0.14
81 0.4

> <PUBCHEM_EFFECTIVE_ROTOR_COUNT>
3.4

> <PUBCHEM_PHARMACOPHORE_FEATURES>
9
1 1 acceptor
1 1 donor
3 22 28 29 hydrophobe
3 23 30 31 hydrophobe
5 4 5 8 10 14 rings
6 13 15 22 24 25 27 rings
6 2 3 4 5 7 9 rings
6 2 3 6 11 12 20 rings
6 6 12 13 15 16 19 rings

> <PUBCHEM_HEAVY_ATOM_COUNT>
31

> <PUBCHEM_ATOM_DEF_STEREO_COUNT>
9

> <PUBCHEM_ATOM_UDEF_STEREO_COUNT>
0

> <PUBCHEM_BOND_DEF_STEREO_COUNT>
0

> <PUBCHEM_BOND_UDEF_STEREO_COUNT>
0

> <PUBCHEM_ISOTOPIC_ATOM_COUNT>
0

> <PUBCHEM_COMPONENT_COUNT>
1

> <PUBCHEM_CACTVS_TAUTO_COUNT>
1

> <PUBCHEM_CONFORMER_ID>
00BBC31900000001

> <PUBCHEM_MMFF94_ENERGY>
150.5325

> <PUBCHEM_FEATURE_SELFOVERLAP>
45.771

> <PUBCHEM_SHAPE_FINGERPRINT>
10 15 18041000665183058465
10906281 52 18261407645226846745
11315181 36 17846501448012796577
11578080 2 14044644136672277505
11719270 70 18272649035046047366
12011746 2 18335422356840008782
12107183 9 17763183540187637714
12166972 35 17561362893931433009
12236239 1 18261110798309028151
12516196 113 18272649051972461953
12788726 201 18338515240136739369
13402501 40 18409449176235061996
13533116 47 17274825714463503206
13811026 1 18408884062114242411
14341114 176 18411986849209014989
14790565 3 18410578409258033420
14856354 85 15913326918824225197
15131766 46 16372994354838201772
15183329 4 18413674603710167760
15196674 1 18411983567674691814
15361156 5 18114472256901743420
15788980 27 18259989279253087634
15849732 13 17847058887275380812
17980427 23 18113624508162732021
1813 80 17313103072922297876
18681886 176 18271519879168307371
20511986 3 18201427099556221275
21033648 29 18058997484596795538
21150785 3 16487252188122591093
21267235 1 18410580603701510923
21279426 13 18411983529362721941
21792934 111 18339910533799027832
221357 26 18342457024051007224
23522609 53 18195559010468614016
23559900 14 18340200890620725217
23569914 2 17622953107167068689
23569917 315 18273220815632175439
3004659 81 18334573546764332224
335352 9 18411138047522534095
34797466 226 17632864135090824645
350125 39 18410011043809479380
3633792 109 18341327800351044085
4017518 198 17346888849526572774
404807 14 17194624952210480782
4073 2 18114186383826105538
4325135 7 18334577941048372876
5104073 3 18413110554277027786
59755656 215 18411138004747005711
59755656 520 17312819403370500587
6328613 192 18261397775186681757

> <PUBCHEM_SHAPE_MULTIPOLES>
632.1
17.41
2.26
1.23
2.63
0.01
-0.33
2.96
1.73
-0.11
0.17
-0.2
0.01
0.29

> <PUBCHEM_SHAPE_SELFOVERLAP>
1338.974

> <PUBCHEM_SHAPE_VOLUME>
352.1

> <PUBCHEM_COORDINATE_TYPE>
2
5
10

$$$$
