162384
  -OEChem-09092013333D

 42 41  0     0  0  0  0  0  0999 V2000
    1.4262   -2.3643    0.8468 O   0  0  0  0  0  0  0  0  0  0  0  0
    0.4413   -3.1355   -1.0615 O   0  0  0  0  0  0  0  0  0  0  0  0
   -0.3899    2.8012   -0.3641 C   0  0  0  0  0  0  0  0  0  0  0  0
   -1.7170    2.9936    0.3771 C   0  0  0  0  0  0  0  0  0  0  0  0
    0.6412    1.9048    0.3288 C   0  0  0  0  0  0  0  0  0  0  0  0
   -2.5546    1.7287    0.5914 C   0  0  0  0  0  0  0  0  0  0  0  0
    1.9726    1.8117   -0.4190 C   0  0  0  0  0  0  0  0  0  0  0  0
   -2.8966    0.9942   -0.7066 C   0  0  0  0  0  0  0  0  0  0  0  0
    2.9688    0.8517    0.2414 C   0  0  0  0  0  0  0  0  0  0  0  0
   -3.7956   -0.2312   -0.4948 C   0  0  0  0  0  0  0  0  0  0  0  0
    4.2894    0.6463   -0.5059 C   0  0  0  0  0  0  0  0  0  0  0  0
   -3.2420   -1.3216    0.4302 C   0  0  0  0  0  0  0  0  0  0  0  0
    5.2632   -0.2698    0.2182 C   0  0  0  0  0  0  0  0  0  0  0  0
   -1.9771   -1.9564   -0.0728 C   0  0  0  0  0  0  0  0  0  0  0  0
   -0.8130   -1.9092    0.5876 C   0  0  0  0  0  0  0  0  0  0  0  0
    0.3833   -2.5440    0.0032 C   0  0  0  0  0  0  0  0  0  0  0  0
   -0.5780    2.4269   -1.3769 H   0  0  0  0  0  0  0  0  0  0  0  0
    0.0588    3.7946   -0.4962 H   0  0  0  0  0  0  0  0  0  0  0  0
   -1.5159    3.4484    1.3549 H   0  0  0  0  0  0  0  0  0  0  0  0
   -2.3197    3.7203   -0.1821 H   0  0  0  0  0  0  0  0  0  0  0  0
    0.2260    0.8976    0.4362 H   0  0  0  0  0  0  0  0  0  0  0  0
    0.8235    2.2819    1.3424 H   0  0  0  0  0  0  0  0  0  0  0  0
   -2.0127    1.0640    1.2720 H   0  0  0  0  0  0  0  0  0  0  0  0
   -3.4831    2.0093    1.1034 H   0  0  0  0  0  0  0  0  0  0  0  0
    2.4237    2.8087   -0.4893 H   0  0  0  0  0  0  0  0  0  0  0  0
    1.7843    1.4750   -1.4459 H   0  0  0  0  0  0  0  0  0  0  0  0
   -3.4069    1.6855   -1.3884 H   0  0  0  0  0  0  0  0  0  0  0  0
   -1.9805    0.6727   -1.2135 H   0  0  0  0  0  0  0  0  0  0  0  0
    2.4880   -0.1229    0.3635 H   0  0  0  0  0  0  0  0  0  0  0  0
    3.1872    1.2177    1.2526 H   0  0  0  0  0  0  0  0  0  0  0  0
   -4.7577    0.1068   -0.0892 H   0  0  0  0  0  0  0  0  0  0  0  0
   -4.0156   -0.6707   -1.4763 H   0  0  0  0  0  0  0  0  0  0  0  0
    4.0807    0.2320   -1.4993 H   0  0  0  0  0  0  0  0  0  0  0  0
    4.7693    1.6196   -0.6621 H   0  0  0  0  0  0  0  0  0  0  0  0
   -3.9973   -2.1129    0.5185 H   0  0  0  0  0  0  0  0  0  0  0  0
   -3.1083   -0.9243    1.4428 H   0  0  0  0  0  0  0  0  0  0  0  0
    5.5245    0.1365    1.2004 H   0  0  0  0  0  0  0  0  0  0  0  0
    6.1846   -0.3805   -0.3616 H   0  0  0  0  0  0  0  0  0  0  0  0
    4.8286   -1.2641    0.3624 H   0  0  0  0  0  0  0  0  0  0  0  0
   -2.0472   -2.4691   -1.0291 H   0  0  0  0  0  0  0  0  0  0  0  0
   -0.7217   -1.4028    1.5422 H   0  0  0  0  0  0  0  0  0  0  0  0
    2.2517   -2.7671    0.5021 H   0  0  0  0  0  0  0  0  0  0  0  0
  1 16  1  0  0  0  0
  1 42  1  0  0  0  0
  2 16  2  0  0  0  0
  3  4  1  0  0  0  0
  3  5  1  0  0  0  0
  3 17  1  0  0  0  0
  3 18  1  0  0  0  0
  4  6  1  0  0  0  0
  4 19  1  0  0  0  0
  4 20  1  0  0  0  0
  5  7  1  0  0  0  0
  5 21  1  0  0  0  0
  5 22  1  0  0  0  0
  6  8  1  0  0  0  0
  6 23  1  0  0  0  0
  6 24  1  0  0  0  0
  7  9  1  0  0  0  0
  7 25  1  0  0  0  0
  7 26  1  0  0  0  0
  8 10  1  0  0  0  0
  8 27  1  0  0  0  0
  8 28  1  0  0  0  0
  9 11  1  0  0  0  0
  9 29  1  0  0  0  0
  9 30  1  0  0  0  0
 10 12  1  0  0  0  0
 10 31  1  0  0  0  0
 10 32  1  0  0  0  0
 11 13  1  0  0  0  0
 11 33  1  0  0  0  0
 11 34  1  0  0  0  0
 12 14  1  0  0  0  0
 12 35  1  0  0  0  0
 12 36  1  0  0  0  0
 13 37  1  0  0  0  0
 13 38  1  0  0  0  0
 13 39  1  0  0  0  0
 14 15  2  3  0  0  0
 14 40  1  0  0  0  0
 15 16  1  0  0  0  0
 15 41  1  0  0  0  0
M  END
> <PUBCHEM_COMPOUND_CID>
162384

> <PUBCHEM_CONFORMER_RMSD>
1

> <PUBCHEM_CONFORMER_DIVERSEORDER>
1
117
87
47
127
45
109
55
144
58
111
5
207
123
158
183
155
27
3
115
173
73
112
86
148
129
21
51
72
11
83
41
26
156
128
186
7
33
31
182
98
9
167
93
211
14
20
133
181
196
114
77
210
64
154
197
191
185
209
59
56
92
25
76
212
63
43
30
179
44
48
62
69
13
39
19
120
90
49
40
134
126
165
121
10
52
195
79
104
146
101
29
163
214
137
24
193
18
94
107
96
78
88
177
138
131
36
42
159
61
32
170
135
203
132
103
65
50
110
192
70
85
171
124
202
34
145
102
89
213
180
84
16
125
8
113
17
206
188
130
169
140
151
175
187
200
75
28
53
161
12
6
205
23
38
80
4
150
15
66
136
68
54
118
116
46
95
119
157
122
60
100
97
152
153
105
194
142
57
190
172
168
204
2
74
162
22
141
201
198
71
176
108
91
37
81
166
149
106
139
147
199
82
143
208
164
99
67
174
160
189
35
178
184

> <PUBCHEM_MMFF94_PARTIAL_CHARGES>
9
1 -0.65
12 0.14
14 -0.29
15 -0.14
16 0.71
2 -0.57
40 0.15
41 0.15
42 0.5

> <PUBCHEM_EFFECTIVE_ROTOR_COUNT>
11

> <PUBCHEM_PHARMACOPHORE_FEATURES>
4
1 1 acceptor
1 13 hydrophobe
1 2 acceptor
3 1 2 16 anion

> <PUBCHEM_HEAVY_ATOM_COUNT>
16

> <PUBCHEM_ATOM_DEF_STEREO_COUNT>
0

> <PUBCHEM_ATOM_UDEF_STEREO_COUNT>
0

> <PUBCHEM_BOND_DEF_STEREO_COUNT>
0

> <PUBCHEM_BOND_UDEF_STEREO_COUNT>
1

> <PUBCHEM_ISOTOPIC_ATOM_COUNT>
0

> <PUBCHEM_COMPONENT_COUNT>
1

> <PUBCHEM_CACTVS_TAUTO_COUNT>
1

> <PUBCHEM_CONFORMER_ID>
00027A5000000001

> <PUBCHEM_MMFF94_ENERGY>
5.1992

> <PUBCHEM_FEATURE_SELFOVERLAP>
20.353

> <PUBCHEM_SHAPE_FINGERPRINT>
10616163 171 18409449146202043360
10759866 29 17825399728353796532
11458722 379 18409450293042525452
1420 336 17905887333417034283
14251745 187 18343018874355442936
14251751 93 18410853227125099444
14251757 17 17986971652127241270
14251757 5 18047490082216562532
14916288 52 17834399294918440773
15006816 218 18412268311126776638
17977361 122 18409727382731123780
19930381 70 16320619336970709450
20905425 154 18341334375054417895
21141583 151 18270684284992064440
21673915 165 18411135793282011588
23559900 14 18269550697431833344

> <PUBCHEM_SHAPE_MULTIPOLES>
317.53
7.64
4.2
0.86
8.37
0.64
0.04
-0.22
0.35
-1.3
0.01
-0.1
0.13
-0.21

> <PUBCHEM_SHAPE_SELFOVERLAP>
583.121

> <PUBCHEM_SHAPE_VOLUME>
200.4

> <PUBCHEM_COORDINATE_TYPE>
2
5
10

$$$$
