96204
  -OEChem-09092013323D

 36 35  0     0  0  0  0  0  0999 V2000
    6.5905    0.1068    1.0812 O   0  0  0  0  0  0  0  0  0  0  0  0
    5.9085   -1.2591   -0.6142 O   0  0  0  0  0  0  0  0  0  0  0  0
   -2.9487    0.4586   -0.0162 C   0  0  0  0  0  0  0  0  0  0  0  0
   -1.5865   -0.2392    0.0555 C   0  0  0  0  0  0  0  0  0  0  0  0
   -4.1293   -0.4917    0.1959 C   0  0  0  0  0  0  0  0  0  0  0  0
   -0.4109    0.6993   -0.2296 C   0  0  0  0  0  0  0  0  0  0  0  0
   -5.4642    0.2410    0.0430 C   0  0  0  0  0  0  0  0  0  0  0  0
    0.9476   -0.0101   -0.2168 C   0  0  0  0  0  0  0  0  0  0  0  0
   -6.6454   -0.7135    0.2170 C   0  0  0  0  0  0  0  0  0  0  0  0
    2.1259    0.9319   -0.4769 C   0  0  0  0  0  0  0  0  0  0  0  0
   -7.9732    0.0041    0.0338 C   0  0  0  0  0  0  0  0  0  0  0  0
    3.4238    0.1756   -0.5226 C   0  0  0  0  0  0  0  0  0  0  0  0
    4.4606    0.4428    0.2824 C   0  0  0  0  0  0  0  0  0  0  0  0
    5.7012   -0.3464    0.1673 C   0  0  0  0  0  0  0  0  0  0  0  0
   -2.9842    1.2572    0.7349 H   0  0  0  0  0  0  0  0  0  0  0  0
   -3.0481    0.9414   -0.9965 H   0  0  0  0  0  0  0  0  0  0  0  0
   -1.5686   -1.0635   -0.6682 H   0  0  0  0  0  0  0  0  0  0  0  0
   -1.4614   -0.6870    1.0490 H   0  0  0  0  0  0  0  0  0  0  0  0
   -4.0639   -0.9417    1.1937 H   0  0  0  0  0  0  0  0  0  0  0  0
   -4.0744   -1.3096   -0.5327 H   0  0  0  0  0  0  0  0  0  0  0  0
   -0.5562    1.1736   -1.2079 H   0  0  0  0  0  0  0  0  0  0  0  0
   -0.4055    1.5043    0.5156 H   0  0  0  0  0  0  0  0  0  0  0  0
   -5.5289    1.0472    0.7837 H   0  0  0  0  0  0  0  0  0  0  0  0
   -5.5148    0.7080   -0.9483 H   0  0  0  0  0  0  0  0  0  0  0  0
    1.0845   -0.5034    0.7542 H   0  0  0  0  0  0  0  0  0  0  0  0
    0.9379   -0.8053   -0.9737 H   0  0  0  0  0  0  0  0  0  0  0  0
   -6.6141   -1.1659    1.2150 H   0  0  0  0  0  0  0  0  0  0  0  0
   -6.5759   -1.5295   -0.5116 H   0  0  0  0  0  0  0  0  0  0  0  0
    2.1507    1.7115    0.2939 H   0  0  0  0  0  0  0  0  0  0  0  0
    1.9864    1.4375   -1.4398 H   0  0  0  0  0  0  0  0  0  0  0  0
   -8.0889    0.8082    0.7675 H   0  0  0  0  0  0  0  0  0  0  0  0
   -8.8038   -0.6967    0.1639 H   0  0  0  0  0  0  0  0  0  0  0  0
   -8.0494    0.4389   -0.9679 H   0  0  0  0  0  0  0  0  0  0  0  0
    3.4967   -0.6119   -1.2689 H   0  0  0  0  0  0  0  0  0  0  0  0
    4.4112    1.2293    1.0276 H   0  0  0  0  0  0  0  0  0  0  0  0
    7.4372   -0.3875    1.0466 H   0  0  0  0  0  0  0  0  0  0  0  0
  1 14  1  0  0  0  0
  1 36  1  0  0  0  0
  2 14  2  0  0  0  0
  3  4  1  0  0  0  0
  3  5  1  0  0  0  0
  3 15  1  0  0  0  0
  3 16  1  0  0  0  0
  4  6  1  0  0  0  0
  4 17  1  0  0  0  0
  4 18  1  0  0  0  0
  5  7  1  0  0  0  0
  5 19  1  0  0  0  0
  5 20  1  0  0  0  0
  6  8  1  0  0  0  0
  6 21  1  0  0  0  0
  6 22  1  0  0  0  0
  7  9  1  0  0  0  0
  7 23  1  0  0  0  0
  7 24  1  0  0  0  0
  8 10  1  0  0  0  0
  8 25  1  0  0  0  0
  8 26  1  0  0  0  0
  9 11  1  0  0  0  0
  9 27  1  0  0  0  0
  9 28  1  0  0  0  0
 10 12  1  0  0  0  0
 10 29  1  0  0  0  0
 10 30  1  0  0  0  0
 11 31  1  0  0  0  0
 11 32  1  0  0  0  0
 11 33  1  0  0  0  0
 12 13  2  3  0  0  0
 12 34  1  0  0  0  0
 13 14  1  0  0  0  0
 13 35  1  0  0  0  0
M  END
> <PUBCHEM_COMPOUND_CID>
96204

> <PUBCHEM_CONFORMER_RMSD>
0.8

> <PUBCHEM_CONFORMER_DIVERSEORDER>
1
273
6
272
179
3
293
85
184
223
287
4
267
26
28
275
123
128
108
286
9
81
130
234
265
143
42
290
10
186
268
122
132
116
285
34
136
56
256
121
291
131
206
38
75
151
174
202
31
154
40
167
165
65
209
36
22
274
94
112
19
60
164
276
203
129
11
264
222
208
93
139
16
280
21
159
46
101
284
124
153
156
43
135
242
54
283
78
145
14
181
288
27
261
200
266
138
224
77
240
23
277
32
219
96
137
197
172
100
238
281
126
244
220
82
150
171
37
17
41
35
193
74
195
182
119
52
177
191
211
133
98
144
214
201
199
187
245
91
117
216
228
80
114
180
192
45
20
58
231
212
269
62
110
188
253
105
282
125
111
47
271
251
67
115
92
221
61
254
262
134
236
147
215
30
8
160
279
196
7
210
227
292
33
260
66
89
289
84
13
12
173
70
25
29
86
107
217
250
72
204
109
226
64
161
18
39
148
57
189
247
73
95
53
2
48
270
185
76
213
106
15
90
102
5
218
190
83
241
252
44
120
63
51
152
97
162
158
207
99
175
88
118
68
50
170
176
59
24
235
155
49
71
229
163
246
103
113
225
79
55
87
149
258
239
127
230
142
248
233
183
237
178
249
157
169
141
166
259
104
168
255
278
205
257
243
232
194
140
198
146
69
263

> <PUBCHEM_MMFF94_PARTIAL_CHARGES>
9
1 -0.65
10 0.14
12 -0.29
13 -0.14
14 0.71
2 -0.57
34 0.15
35 0.15
36 0.5

> <PUBCHEM_EFFECTIVE_ROTOR_COUNT>
9

> <PUBCHEM_PHARMACOPHORE_FEATURES>
4
1 1 acceptor
1 11 hydrophobe
1 2 acceptor
3 1 2 14 anion

> <PUBCHEM_HEAVY_ATOM_COUNT>
14

> <PUBCHEM_ATOM_DEF_STEREO_COUNT>
0

> <PUBCHEM_ATOM_UDEF_STEREO_COUNT>
0

> <PUBCHEM_BOND_DEF_STEREO_COUNT>
0

> <PUBCHEM_BOND_UDEF_STEREO_COUNT>
1

> <PUBCHEM_ISOTOPIC_ATOM_COUNT>
0

> <PUBCHEM_COMPONENT_COUNT>
1

> <PUBCHEM_CACTVS_TAUTO_COUNT>
1

> <PUBCHEM_CONFORMER_ID>
000177CC00000001

> <PUBCHEM_MMFF94_ENERGY>
3.4675

> <PUBCHEM_FEATURE_SELFOVERLAP>
20.353

> <PUBCHEM_SHAPE_FINGERPRINT>
10354089 29 13183020718203374402
10968037 39 10231757786890148945
11638347 137 16773803579827506230
12091667 2 18409730665204222941
12714333 28 10879993557788451397
13533116 47 16486979449637174062
14123256 10 9295290538561562575
1420 363 18409732858772078831
14251718 22 10015866479215103085
14251764 18 18413674621027557209
14251764 46 18334294271306417899
14729087 3 14979683161607447563
15048467 5 11383834865807267171
15716309 27 17489868237235999263
17834072 8 15791451538999134657
17834076 25 10015866474772423205
18006028 8 18335420175471772469
20281389 69 11600009829632860842
20621476 38 18335139761156902338
20621476 8 17313099740528582285
20735858 18 18060418014838776702
20767249 213 13973965415159974912
21130983 4 13470689260586818227
21150785 3 14129062521094986047
22224240 67 16559028298757307111
23035841 295 17385723608455320963
23402539 116 18343861130527602709
23521765 1 18413671318545456897
28498 318 18186799158764564711
33532 11 18335138669950535083
42788 4 18334577949422204773
57583515 80 18334296470799217465
59682541 35 15626216953231440739
59755656 215 17676205749671050795
59755656 520 16443062837947394195
6438161 24 13190324761663786592
8209 1 8646771097177507065

> <PUBCHEM_SHAPE_MULTIPOLES>
276.37
22.24
0.9
0.74
11.94
0.02
0.04
4.63
2.36
-0.33
-0.08
-0.67
0.02
0.25

> <PUBCHEM_SHAPE_SELFOVERLAP>
506.666

> <PUBCHEM_SHAPE_VOLUME>
175.1

> <PUBCHEM_COORDINATE_TYPE>
2
5
10

$$$$
