97981
  -OEChem-09092010313D

 29 29  0     1  0  0  0  0  0999 V2000
    2.1104   -0.2493    0.3443 O   0  0  0  0  0  0  0  0  0  0  0  0
    1.4171    1.2807   -1.2416 O   0  0  0  0  0  0  0  0  0  0  0  0
   -2.2259   -0.9912    0.1937 N   0  0  1  0  0  0  0  0  0  0  0  0
   -0.1500    0.3499    0.3305 C   0  0  1  0  0  0  0  0  0  0  0  0
   -0.9565    1.6426    0.2223 C   0  0  0  0  0  0  0  0  0  0  0  0
   -0.8739   -0.8141   -0.3552 C   0  0  0  0  0  0  0  0  0  0  0  0
   -2.3819    1.4217    0.7161 C   0  0  0  0  0  0  0  0  0  0  0  0
   -3.0325    0.2249    0.0210 C   0  0  0  0  0  0  0  0  0  0  0  0
    1.1975    0.5343   -0.2972 C   0  0  0  0  0  0  0  0  0  0  0  0
   -2.8868   -2.1366   -0.4315 C   0  0  0  0  0  0  0  0  0  0  0  0
    3.4485   -0.1708   -0.1571 C   0  0  0  0  0  0  0  0  0  0  0  0
    4.3340   -1.0921    0.6546 C   0  0  0  0  0  0  0  0  0  0  0  0
   -0.0116    0.1275    1.3976 H   0  0  0  0  0  0  0  0  0  0  0  0
   -0.9937    1.9913   -0.8181 H   0  0  0  0  0  0  0  0  0  0  0  0
   -0.4786    2.4414    0.8021 H   0  0  0  0  0  0  0  0  0  0  0  0
   -0.9121   -0.6506   -1.4415 H   0  0  0  0  0  0  0  0  0  0  0  0
   -0.2911   -1.7310   -0.1968 H   0  0  0  0  0  0  0  0  0  0  0  0
   -2.3714    1.2560    1.8010 H   0  0  0  0  0  0  0  0  0  0  0  0
   -2.9790    2.3231    0.5371 H   0  0  0  0  0  0  0  0  0  0  0  0
   -4.0271    0.0758    0.4587 H   0  0  0  0  0  0  0  0  0  0  0  0
   -3.1755    0.4510   -1.0440 H   0  0  0  0  0  0  0  0  0  0  0  0
   -2.3116   -3.0534   -0.2602 H   0  0  0  0  0  0  0  0  0  0  0  0
   -3.0112   -2.0040   -1.5123 H   0  0  0  0  0  0  0  0  0  0  0  0
   -3.8753   -2.2999    0.0121 H   0  0  0  0  0  0  0  0  0  0  0  0
    3.4625   -0.4761   -1.2093 H   0  0  0  0  0  0  0  0  0  0  0  0
    3.8102    0.8600   -0.0724 H   0  0  0  0  0  0  0  0  0  0  0  0
    5.3669   -1.0569    0.2972 H   0  0  0  0  0  0  0  0  0  0  0  0
    4.3160   -0.8105    1.7127 H   0  0  0  0  0  0  0  0  0  0  0  0
    3.9739   -2.1244    0.5944 H   0  0  0  0  0  0  0  0  0  0  0  0
  1  9  1  0  0  0  0
  1 11  1  0  0  0  0
  2  9  2  0  0  0  0
  3  6  1  0  0  0  0
  3  8  1  0  0  0  0
  3 10  1  0  0  0  0
  4  5  1  0  0  0  0
  4  6  1  0  0  0  0
  4  9  1  0  0  0  0
  4 13  1  0  0  0  0
  5  7  1  0  0  0  0
  5 14  1  0  0  0  0
  5 15  1  0  0  0  0
  6 16  1  0  0  0  0
  6 17  1  0  0  0  0
  7  8  1  0  0  0  0
  7 18  1  0  0  0  0
  7 19  1  0  0  0  0
  8 20  1  0  0  0  0
  8 21  1  0  0  0  0
 10 22  1  0  0  0  0
 10 23  1  0  0  0  0
 10 24  1  0  0  0  0
 11 12  1  0  0  0  0
 11 25  1  0  0  0  0
 11 26  1  0  0  0  0
 12 27  1  0  0  0  0
 12 28  1  0  0  0  0
 12 29  1  0  0  0  0
M  END
> <PUBCHEM_COMPOUND_CID>
97981

> <PUBCHEM_CONFORMER_RMSD>
0.6

> <PUBCHEM_CONFORMER_DIVERSEORDER>
1
25
53
90
18
67
21
48
37
55
17
46
89
13
15
42
63
85
24
68
2
80
77
12
84
47
76
60
26
29
38
75
16
64
9
70
10
56
7
69
88
65
83
11
44
31
14
82
59
41
45
62
22
52
34
73
54
61
87
58
71
43
20
23
28
79
51
33
6
49
81
50
86
4
30
19
35
40
39
32
5
78
72
27
66
74
36
57
8
3

> <PUBCHEM_MMFF94_PARTIAL_CHARGES>
9
1 -0.43
10 0.27
11 0.28
2 -0.57
3 -0.81
4 0.06
6 0.27
8 0.27
9 0.66

> <PUBCHEM_EFFECTIVE_ROTOR_COUNT>
4.2

> <PUBCHEM_PHARMACOPHORE_FEATURES>
3
1 2 acceptor
1 3 cation
6 3 4 5 6 7 8 rings

> <PUBCHEM_HEAVY_ATOM_COUNT>
12

> <PUBCHEM_ATOM_DEF_STEREO_COUNT>
0

> <PUBCHEM_ATOM_UDEF_STEREO_COUNT>
1

> <PUBCHEM_BOND_DEF_STEREO_COUNT>
0

> <PUBCHEM_BOND_UDEF_STEREO_COUNT>
0

> <PUBCHEM_ISOTOPIC_ATOM_COUNT>
0

> <PUBCHEM_COMPONENT_COUNT>
1

> <PUBCHEM_CACTVS_TAUTO_COUNT>
1

> <PUBCHEM_CONFORMER_ID>
00017EBD00000001

> <PUBCHEM_MMFF94_ENERGY>
10.466

> <PUBCHEM_FEATURE_SELFOVERLAP>
15.223

> <PUBCHEM_SHAPE_FINGERPRINT>
11769659 78 18408599296870485326
124424 183 17489299742369119992
12500047 106 18269548334629510640
13024252 1 15791737373663199241
14128692 85 18335139838186336084
14577589 140 18115028493826568473
16945 1 18201173087032943881
18186145 218 13695593230746693164
18511873 20 18261395520455198273
19422 9 18334860519752719382
20281475 54 18335416829982243098
20361792 2 17385723578227052060
20645464 45 17132117922481929073
20871998 184 17988926690732341607
21061003 4 16343708758835552266
21501502 16 18341900752360495520
22485316 2 18261386720515556314
232386 152 18413393158898442100
23402539 116 18130777933396828157
23463225 33 18262800662246057362
23552423 10 18261395619223563381
23559900 14 18130505233132910784
3086196 2 18201431497613171618
75552 356 18342176648163677889
9939556 21 18333739038892607317

> <PUBCHEM_SHAPE_MULTIPOLES>
230.23
6.44
1.81
0.84
5.99
0.37
0.09
2.59
-0.97
-1.53
0.07
0.23
-0.13
-0.8

> <PUBCHEM_SHAPE_SELFOVERLAP>
447.311

> <PUBCHEM_SHAPE_VOLUME>
139.8

> <PUBCHEM_COORDINATE_TYPE>
2
5
10

$$$$
