71448962
  -OEChem-09092010512D

167181  0     1  0  0  0  0  0999 V2000
    9.5412   -2.3730    0.0000 O   0  0  0  0  0  0  0  0  0  0  0  0
    6.7878   -5.2384    0.0000 O   0  0  0  0  0  0  0  0  0  0  0  0
    8.2340    1.1822    0.0000 O   0  0  0  0  0  0  0  0  0  0  0  0
   11.2732   -0.3730    0.0000 O   0  0  0  0  0  0  0  0  0  0  0  0
    5.8158   -2.7777    0.0000 O   0  0  0  0  0  0  0  0  0  0  0  0
    7.2619    3.6429    0.0000 O   0  0  0  0  0  0  0  0  0  0  0  0
    8.4371   -8.8539    0.0000 O   0  0  0  0  0  0  0  0  0  0  0  0
    7.1473    0.4351    0.0000 O   0  0  0  0  0  0  0  0  0  0  0  0
    5.8752   -1.8976    0.0000 O   0  0  0  0  0  0  0  0  0  0  0  0
   10.1691   -6.8539    0.0000 O   0  0  0  0  0  0  0  0  0  0  0  0
   11.8506    0.4168    0.0000 O   0  0  0  0  0  0  0  0  0  0  0  0
    9.8732   -3.2410    0.0000 O   0  0  0  0  0  0  0  0  0  0  0  0
   11.4227    3.0392    0.0000 O   0  0  0  0  0  0  0  0  0  0  0  0
   10.4044   -6.0038    0.0000 O   0  0  0  0  0  0  0  0  0  0  0  0
   10.2497    6.8776    0.0000 O   0  0  0  0  0  0  0  0  0  0  0  0
    7.5931    4.5865    0.0000 O   0  0  0  0  0  0  0  0  0  0  0  0
   11.1969    4.0357    0.0000 O   0  0  0  0  0  0  0  0  0  0  0  0
    6.1872   -5.9474    0.0000 O   0  0  0  0  0  0  0  0  0  0  0  0
    7.8989    8.2362    0.0000 O   0  0  0  0  0  0  0  0  0  0  0  0
   13.8713   -1.8730    0.0000 O   0  0  0  0  0  0  0  0  0  0  0  0
    3.5085   -6.7371    0.0000 O   0  0  0  0  0  0  0  0  0  0  0  0
    4.9069   -8.8780    0.0000 O   0  0  0  0  0  0  0  0  0  0  0  0
   13.8713   -3.8730    0.0000 O   0  0  0  0  0  0  0  0  0  0  0  0
    4.9032    4.1366    0.0000 O   0  0  0  0  0  0  0  0  0  0  0  0
    2.2053   -5.2199    0.0000 O   0  0  0  0  0  0  0  0  0  0  0  0
    3.6355    2.5899    0.0000 O   0  0  0  0  0  0  0  0  0  0  0  0
   11.0351  -11.3539    0.0000 O   0  0  0  0  0  0  0  0  0  0  0  0
   12.7672  -10.3539    0.0000 O   0  0  0  0  0  0  0  0  0  0  0  0
    8.9493   11.0796    0.0000 O   0  0  0  0  0  0  0  0  0  0  0  0
   10.9161   11.4421    0.0000 O   0  0  0  0  0  0  0  0  0  0  0  0
    9.5412   -0.3730    0.0000 C   0  0  2  0  0  0  0  0  0  0  0  0
    7.4501   -3.3512    0.0000 C   0  0  1  0  0  0  0  0  0  0  0  0
   10.4072   -0.8730    0.0000 C   0  0  2  0  0  0  0  0  0  0  0  0
    8.6752   -0.8730    0.0000 C   0  0  0  0  0  0  0  0  0  0  0  0
    6.4674   -3.5363    0.0000 C   0  0  2  0  0  0  0  0  0  0  0  0
    7.7812   -2.4076    0.0000 C   0  0  0  0  0  0  0  0  0  0  0  0
    8.6752   -1.8730    0.0000 C   0  0  0  0  0  0  0  0  0  0  0  0
   10.4072   -1.8730    0.0000 C   0  0  1  0  0  0  0  0  0  0  0  0
    9.8832    0.5667    0.0000 C   0  0  0  0  0  0  0  0  0  0  0  0
    8.1017   -4.1098    0.0000 C   0  0  0  0  0  0  0  0  0  0  0  0
    8.8963    3.0694    0.0000 C   0  0  1  0  0  0  0  0  0  0  0  0
    6.1363   -4.4799    0.0000 C   0  0  1  0  0  0  0  0  0  0  0  0
    9.2168    1.3672    0.0000 C   0  0  0  0  0  0  0  0  0  0  0  0
    7.7706   -5.0534    0.0000 C   0  0  0  0  0  0  0  0  0  0  0  0
    9.5479    2.3108    0.0000 C   0  0  0  0  0  0  0  0  0  0  0  0
    7.9135    2.8843    0.0000 C   0  0  2  0  0  0  0  0  0  0  0  0
    8.4371   -6.8539    0.0000 C   0  0  2  0  0  0  0  0  0  0  0  0
    8.4370   -5.8539    0.0000 C   0  0  0  0  0  0  0  0  0  0  0  0
    7.5824    1.9408    0.0000 C   0  0  1  0  0  0  0  0  0  0  0  0
    7.7812   -0.3383    0.0000 C   0  0  0  0  0  0  0  0  0  0  0  0
    6.8752   -1.8938    0.0000 C   0  0  0  0  0  0  0  0  0  0  0  0
    9.3031   -7.3539    0.0000 C   0  0  2  0  0  0  0  0  0  0  0  0
    9.2274    4.0129    0.0000 C   0  0  0  0  0  0  0  0  0  0  0  0
   10.9083    0.7515    0.0000 C   0  0  0  0  0  0  0  0  0  0  0  0
    9.1222   -3.9013    0.0000 C   0  0  0  0  0  0  0  0  0  0  0  0
   11.2732   -2.3730    0.0000 C   0  0  0  0  0  0  0  0  0  0  0  0
   10.5684    2.5193    0.0000 C   0  0  0  0  0  0  0  0  0  0  0  0
    6.8752   -0.8522    0.0000 C   0  0  0  0  0  0  0  0  0  0  0  0
    7.5710   -7.3539    0.0000 C   0  0  0  0  0  0  0  0  0  0  0  0
    9.3032   -8.3539    0.0000 C   0  0  1  0  0  0  0  0  0  0  0  0
    5.1535   -4.6649    0.0000 C   0  0  0  0  0  0  0  0  0  0  0  0
    9.4621   -5.6691    0.0000 C   0  0  0  0  0  0  0  0  0  0  0  0
   11.2532    1.7344    0.0000 C   0  0  0  0  0  0  0  0  0  0  0  0
    6.5957    2.1031    0.0000 C   0  0  0  0  0  0  0  0  0  0  0  0
    9.8070   -4.6862    0.0000 C   0  0  0  0  0  0  0  0  0  0  0  0
    8.5758    4.7715    0.0000 C   0  0  0  0  0  0  0  0  0  0  0  0
    7.5710   -8.3539    0.0000 C   0  0  0  0  0  0  0  0  0  0  0  0
   10.2101    4.1980    0.0000 C   0  0  0  0  0  0  0  0  0  0  0  0
    8.9069    5.7151    0.0000 C   0  0  0  0  0  0  0  0  0  0  0  0
   12.1393   -1.8730    0.0000 C   0  0  0  0  0  0  0  0  0  0  0  0
   11.2732   -3.3730    0.0000 C   0  0  0  0  0  0  0  0  0  0  0  0
   10.1691   -8.8539    0.0000 C   0  0  0  0  0  0  0  0  0  0  0  0
    6.6770   -6.8192    0.0000 C   0  0  0  0  0  0  0  0  0  0  0  0
    8.2161    6.4947    0.0000 C   0  0  0  0  0  0  0  0  0  0  0  0
    9.8897    5.9001    0.0000 C   0  0  0  0  0  0  0  0  0  0  0  0
    4.8224   -5.6085    0.0000 C   0  0  0  0  0  0  0  0  0  0  0  0
    4.5019   -3.9063    0.0000 C   0  0  0  0  0  0  0  0  0  0  0  0
    8.5534    7.4802    0.0000 C   0  0  1  0  0  0  0  0  0  0  0  0
   10.5413    5.1415    0.0000 C   0  0  0  0  0  0  0  0  0  0  0  0
    9.5771    7.6729    0.0000 C   0  0  1  0  0  0  0  0  0  0  0  0
    6.2428    3.0387    0.0000 C   0  0  0  0  0  0  0  0  0  0  0  0
    5.9618    1.3297    0.0000 C   0  0  0  0  0  0  0  0  0  0  0  0
    6.6771   -8.8886    0.0000 C   0  0  0  0  0  0  0  0  0  0  0  0
   13.0053   -2.3730    0.0000 C   0  0  0  0  0  0  0  0  0  0  0  0
    5.7710   -7.3330    0.0000 C   0  0  0  0  0  0  0  0  0  0  0  0
   12.1393   -3.8730    0.0000 C   0  0  0  0  0  0  0  0  0  0  0  0
    3.8397   -5.7935    0.0000 C   0  0  0  0  0  0  0  0  0  0  0  0
    5.7710   -8.3747    0.0000 C   0  0  0  0  0  0  0  0  0  0  0  0
    3.5192   -4.0913    0.0000 C   0  0  0  0  0  0  0  0  0  0  0  0
   10.1691   -9.8539    0.0000 C   0  0  0  0  0  0  0  0  0  0  0  0
   11.0351   -8.3539    0.0000 C   0  0  0  0  0  0  0  0  0  0  0  0
   13.0053   -3.3730    0.0000 C   0  0  0  0  0  0  0  0  0  0  0  0
    5.2560    3.2009    0.0000 C   0  0  0  0  0  0  0  0  0  0  0  0
    3.1880   -5.0349    0.0000 C   0  0  0  0  0  0  0  0  0  0  0  0
    4.9751    1.4919    0.0000 C   0  0  0  0  0  0  0  0  0  0  0  0
    9.9118    8.6152    0.0000 C   0  0  0  0  0  0  0  0  0  0  0  0
    4.6222    2.4276    0.0000 C   0  0  0  0  0  0  0  0  0  0  0  0
   11.0351  -10.3539    0.0000 C   0  0  0  0  0  0  0  0  0  0  0  0
   11.9011   -8.8539    0.0000 C   0  0  0  0  0  0  0  0  0  0  0  0
   11.9011   -9.8539    0.0000 C   0  0  0  0  0  0  0  0  0  0  0  0
    9.2632    9.3763    0.0000 C   0  0  0  0  0  0  0  0  0  0  0  0
   10.8953    8.7964    0.0000 C   0  0  0  0  0  0  0  0  0  0  0  0
    9.5979   10.3186    0.0000 C   0  0  0  0  0  0  0  0  0  0  0  0
   11.2301    9.7387    0.0000 C   0  0  0  0  0  0  0  0  0  0  0  0
   10.5814   10.4998    0.0000 C   0  0  0  0  0  0  0  0  0  0  0  0
   10.3399   -0.0823    0.0000 H   0  0  0  0  0  0  0  0  0  0  0  0
    6.8962   -2.7065    0.0000 H   0  0  0  0  0  0  0  0  0  0  0  0
   10.9442   -1.1830    0.0000 H   0  0  0  0  0  0  0  0  0  0  0  0
    5.8581   -3.6510    0.0000 H   0  0  0  0  0  0  0  0  0  0  0  0
   10.4072   -2.4930    0.0000 H   0  0  0  0  0  0  0  0  0  0  0  0
    9.7316    3.2266    0.0000 H   0  0  0  0  0  0  0  0  0  0  0  0
    5.9310   -5.0649    0.0000 H   0  0  0  0  0  0  0  0  0  0  0  0
    8.1188    3.4694    0.0000 H   0  0  0  0  0  0  0  0  0  0  0  0
    9.1732   -6.4289    0.0000 H   0  0  0  0  0  0  0  0  0  0  0  0
    7.2786    1.4003    0.0000 H   0  0  0  0  0  0  0  0  0  0  0  0
    9.3031   -6.7339    0.0000 H   0  0  0  0  0  0  0  0  0  0  0  0
    6.3394   -0.5401    0.0000 H   0  0  0  0  0  0  0  0  0  0  0  0
    9.8401   -8.0439    0.0000 H   0  0  0  0  0  0  0  0  0  0  0  0
   11.8621    1.8515    0.0000 H   0  0  0  0  0  0  0  0  0  0  0  0
   11.8102   -0.6830    0.0000 H   0  0  0  0  0  0  0  0  0  0  0  0
   10.4159   -4.5691    0.0000 H   0  0  0  0  0  0  0  0  0  0  0  0
    5.2065   -2.8924    0.0000 H   0  0  0  0  0  0  0  0  0  0  0  0
    6.6526    3.5282    0.0000 H   0  0  0  0  0  0  0  0  0  0  0  0
   12.1393   -1.2530    0.0000 H   0  0  0  0  0  0  0  0  0  0  0  0
   10.7363   -3.6830    0.0000 H   0  0  0  0  0  0  0  0  0  0  0  0
    7.6725    6.7929    0.0000 H   0  0  0  0  0  0  0  0  0  0  0  0
    7.8293    6.0101    0.0000 H   0  0  0  0  0  0  0  0  0  0  0  0
    5.2264   -6.0788    0.0000 H   0  0  0  0  0  0  0  0  0  0  0  0
    4.7072   -3.3213    0.0000 H   0  0  0  0  0  0  0  0  0  0  0  0
    8.7576    8.0656    0.0000 H   0  0  0  0  0  0  0  0  0  0  0  0
    6.5356    0.3345    0.0000 H   0  0  0  0  0  0  0  0  0  0  0  0
   11.1506    5.2563    0.0000 H   0  0  0  0  0  0  0  0  0  0  0  0
    5.5631   -1.3618    0.0000 H   0  0  0  0  0  0  0  0  0  0  0  0
   10.7060   -7.1639    0.0000 H   0  0  0  0  0  0  0  0  0  0  0  0
   10.1870    7.7841    0.0000 H   0  0  0  0  0  0  0  0  0  0  0  0
   12.3225    0.8189    0.0000 H   0  0  0  0  0  0  0  0  0  0  0  0
    6.6358    3.5182    0.0000 H   0  0  0  0  0  0  0  0  0  0  0  0
    6.1806    0.7495    0.0000 H   0  0  0  0  0  0  0  0  0  0  0  0
   10.4606   -3.4395    0.0000 H   0  0  0  0  0  0  0  0  0  0  0  0
    6.6842   -9.5085    0.0000 H   0  0  0  0  0  0  0  0  0  0  0  0
   11.9666    2.7417    0.0000 H   0  0  0  0  0  0  0  0  0  0  0  0
   10.8763   -5.6016    0.0000 H   0  0  0  0  0  0  0  0  0  0  0  0
    5.2353   -7.0210    0.0000 H   0  0  0  0  0  0  0  0  0  0  0  0
   12.1393   -4.4930    0.0000 H   0  0  0  0  0  0  0  0  0  0  0  0
    3.1152   -3.6210    0.0000 H   0  0  0  0  0  0  0  0  0  0  0  0
    9.6322  -10.1639    0.0000 H   0  0  0  0  0  0  0  0  0  0  0  0
   11.0351   -7.7339    0.0000 H   0  0  0  0  0  0  0  0  0  0  0  0
    7.1891    5.0568    0.0000 H   0  0  0  0  0  0  0  0  0  0  0  0
    4.5820    1.0124    0.0000 H   0  0  0  0  0  0  0  0  0  0  0  0
   11.5899    4.5152    0.0000 H   0  0  0  0  0  0  0  0  0  0  0  0
    5.5673   -5.9402    0.0000 H   0  0  0  0  0  0  0  0  0  0  0  0
    7.2901    8.1192    0.0000 H   0  0  0  0  0  0  0  0  0  0  0  0
   12.4381   -8.5439    0.0000 H   0  0  0  0  0  0  0  0  0  0  0  0
    8.6534    9.2639    0.0000 H   0  0  0  0  0  0  0  0  0  0  0  0
   11.2975    8.3246    0.0000 H   0  0  0  0  0  0  0  0  0  0  0  0
   14.4083   -2.1830    0.0000 H   0  0  0  0  0  0  0  0  0  0  0  0
    2.8992   -6.8518    0.0000 H   0  0  0  0  0  0  0  0  0  0  0  0
    4.9093   -9.4980    0.0000 H   0  0  0  0  0  0  0  0  0  0  0  0
   13.8713   -4.4930    0.0000 H   0  0  0  0  0  0  0  0  0  0  0  0
    4.2914    4.2372    0.0000 H   0  0  0  0  0  0  0  0  0  0  0  0
    2.0000   -5.8050    0.0000 H   0  0  0  0  0  0  0  0  0  0  0  0
    3.2424    2.1104    0.0000 H   0  0  0  0  0  0  0  0  0  0  0  0
   11.8398    9.8511    0.0000 H   0  0  0  0  0  0  0  0  0  0  0  0
   10.4983  -11.6639    0.0000 H   0  0  0  0  0  0  0  0  0  0  0  0
   12.7672  -10.9739    0.0000 H   0  0  0  0  0  0  0  0  0  0  0  0
    9.1568   11.6639    0.0000 H   0  0  0  0  0  0  0  0  0  0  0  0
   11.5259   11.5545    0.0000 H   0  0  0  0  0  0  0  0  0  0  0  0
  1 37  1  0  0  0  0
  1 38  1  0  0  0  0
  2 42  1  0  0  0  0
  2 44  1  0  0  0  0
  3 43  1  0  0  0  0
  3 49  1  0  0  0  0
 33  4  1  1  0  0  0
  4120  1  0  0  0  0
 35  5  1  6  0  0  0
  5122  1  0  0  0  0
 46  6  1  6  0  0  0
  6123  1  0  0  0  0
  7 60  1  0  0  0  0
  7 67  1  0  0  0  0
  8 50  1  0  0  0  0
  8131  1  0  0  0  0
  9 51  1  0  0  0  0
  9133  1  0  0  0  0
 52 10  1  1  0  0  0
 10134  1  0  0  0  0
 11 54  1  0  0  0  0
 11136  1  0  0  0  0
 12 55  1  0  0  0  0
 12139  1  0  0  0  0
 13 57  1  0  0  0  0
 13141  1  0  0  0  0
 14 62  1  0  0  0  0
 14142  1  0  0  0  0
 15 75  1  0  0  0  0
 15 80  1  0  0  0  0
 16 66  1  0  0  0  0
 16148  1  0  0  0  0
 17 68  1  0  0  0  0
 17150  1  0  0  0  0
 18 73  1  0  0  0  0
 18151  1  0  0  0  0
 78 19  1  6  0  0  0
 19152  1  0  0  0  0
 20 84  1  0  0  0  0
 20156  1  0  0  0  0
 21 87  1  0  0  0  0
 21157  1  0  0  0  0
 22 88  1  0  0  0  0
 22158  1  0  0  0  0
 23 92  1  0  0  0  0
 23159  1  0  0  0  0
 24 93  1  0  0  0  0
 24160  1  0  0  0  0
 25 94  1  0  0  0  0
 25161  1  0  0  0  0
 26 97  1  0  0  0  0
 26162  1  0  0  0  0
 27 98  1  0  0  0  0
 27164  1  0  0  0  0
 28100  1  0  0  0  0
 28165  1  0  0  0  0
 29103  1  0  0  0  0
 29166  1  0  0  0  0
 30105  1  0  0  0  0
 30167  1  0  0  0  0
 31 33  1  0  0  0  0
 31 34  1  0  0  0  0
 31 39  1  0  0  0  0
 31106  1  1  0  0  0
 32 35  1  0  0  0  0
 32 36  1  0  0  0  0
 32 40  1  0  0  0  0
 32107  1  6  0  0  0
 33 38  1  0  0  0  0
 33108  1  0  0  0  0
 34 37  1  0  0  0  0
 34 50  2  0  0  0  0
 35 42  1  0  0  0  0
 35109  1  0  0  0  0
 36 37  2  0  0  0  0
 36 51  1  0  0  0  0
 38 56  1  1  0  0  0
 38110  1  0  0  0  0
 39 43  2  0  0  0  0
 39 54  1  0  0  0  0
 40 44  1  0  0  0  0
 40 55  2  0  0  0  0
 41 45  1  0  0  0  0
 41 46  1  0  0  0  0
 41 53  1  0  0  0  0
 41111  1  6  0  0  0
 42 61  1  6  0  0  0
 42112  1  0  0  0  0
 43 45  1  0  0  0  0
 44 48  2  0  0  0  0
 45 57  2  0  0  0  0
 46 49  1  0  0  0  0
 46113  1  0  0  0  0
 47 48  1  0  0  0  0
 47 52  1  0  0  0  0
 47 59  1  0  0  0  0
 47114  1  1  0  0  0
 48 62  1  0  0  0  0
 49 64  1  6  0  0  0
 49115  1  0  0  0  0
 50 58  1  0  0  0  0
 51 58  2  0  0  0  0
 52 60  1  0  0  0  0
 52116  1  0  0  0  0
 53 66  2  0  0  0  0
 53 68  1  0  0  0  0
 54 63  2  0  0  0  0
 55 65  1  0  0  0  0
 56 70  2  0  0  0  0
 56 71  1  0  0  0  0
 57 63  1  0  0  0  0
 58117  1  0  0  0  0
 59 67  1  0  0  0  0
 59 73  2  0  0  0  0
 60 72  1  1  0  0  0
 60118  1  0  0  0  0
 61 76  2  0  0  0  0
 61 77  1  0  0  0  0
 62 65  2  0  0  0  0
 63119  1  0  0  0  0
 64 81  2  0  0  0  0
 64 82  1  0  0  0  0
 65121  1  0  0  0  0
 66 69  1  0  0  0  0
 67 83  2  0  0  0  0
 68 79  2  0  0  0  0
 69 74  1  0  0  0  0
 69 75  2  0  0  0  0
 70 84  1  0  0  0  0
 70124  1  0  0  0  0
 71 86  2  0  0  0  0
 71125  1  0  0  0  0
 72 90  2  0  0  0  0
 72 91  1  0  0  0  0
 73 85  1  0  0  0  0
 74 78  1  0  0  0  0
 74126  1  0  0  0  0
 74127  1  0  0  0  0
 75 79  1  0  0  0  0
 76 87  1  0  0  0  0
 76128  1  0  0  0  0
 77 89  2  0  0  0  0
 77129  1  0  0  0  0
 78 80  1  0  0  0  0
 78130  1  0  0  0  0
 79132  1  0  0  0  0
 80 96  1  1  0  0  0
 80135  1  0  0  0  0
 81 93  1  0  0  0  0
 81137  1  0  0  0  0
 82 95  2  0  0  0  0
 82138  1  0  0  0  0
 83 88  1  0  0  0  0
 83140  1  0  0  0  0
 84 92  2  0  0  0  0
 85 88  2  0  0  0  0
 85143  1  0  0  0  0
 86 92  1  0  0  0  0
 86144  1  0  0  0  0
 87 94  2  0  0  0  0
 89 94  1  0  0  0  0
 89145  1  0  0  0  0
 90 98  1  0  0  0  0
 90146  1  0  0  0  0
 91 99  2  0  0  0  0
 91147  1  0  0  0  0
 93 97  2  0  0  0  0
 95 97  1  0  0  0  0
 95149  1  0  0  0  0
 96101  2  0  0  0  0
 96102  1  0  0  0  0
 98100  2  0  0  0  0
 99100  1  0  0  0  0
 99153  1  0  0  0  0
101103  1  0  0  0  0
101154  1  0  0  0  0
102104  2  0  0  0  0
102155  1  0  0  0  0
103105  2  0  0  0  0
104105  1  0  0  0  0
104163  1  0  0  0  0
M  END
> <PUBCHEM_COMPOUND_CID>
71448962

> <PUBCHEM_COMPOUND_CANONICALIZED>
1

> <PUBCHEM_CACTVS_COMPLEXITY>
2900

> <PUBCHEM_CACTVS_HBOND_ACCEPTOR>
30

> <PUBCHEM_CACTVS_HBOND_DONOR>
25

> <PUBCHEM_CACTVS_ROTATABLE_BOND>
9

> <PUBCHEM_CACTVS_SUBSKEYS>
AAADcfB8PgAAAAAAAAAAAAAAAAAAAAAAAAA0aNGjQAAAAACRVAAAGgAACAAADRSgmAIwBoAABgCAAiBCAAACCAAgIAAIiAAGiIgNNyKGMRqCeCGlwBULuAfA4PwOoAADCAAIQABAAAYQABCAAAAAAAAAAA==

> <PUBCHEM_IUPAC_OPENEYE_NAME>
(2R,3R,4R)-2-(3,4-dihydroxyphenyl)-4-[(2R,3R,4R)-2-(3,4-dihydroxyphenyl)-4-[(2R,3R,4S)-2-(3,4-dihydroxyphenyl)-4-[(2R,3S)-2-(3,4-dihydroxyphenyl)-3,5,7-trihydroxy-chroman-6-yl]-3,5,7-trihydroxy-chroman-8-yl]-3,5,7-trihydroxy-chroman-8-yl]-8-[(2R,3R,4R)-2-(3,4-dihydroxyphenyl)-3,5,7-trihydroxy-chroman-4-yl]chromane-3,5,7-triol

> <PUBCHEM_IUPAC_CAS_NAME>
(2R,3R,4R)-2-(3,4-dihydroxyphenyl)-4-[(2R,3R,4R)-2-(3,4-dihydroxyphenyl)-4-[(2R,3R,4S)-2-(3,4-dihydroxyphenyl)-4-[(2R,3S)-2-(3,4-dihydroxyphenyl)-3,5,7-trihydroxy-3,4-dihydro-2H-1-benzopyran-6-yl]-3,5,7-trihydroxy-3,4-dihydro-2H-1-benzopyran-8-yl]-3,5,7-trihydroxy-3,4-dihydro-2H-1-benzopyran-8-yl]-8-[(2R,3R,4R)-2-(3,4-dihydroxyphenyl)-3,5,7-trihydroxy-3,4-dihydro-2H-1-benzopyran-4-yl]-3,4-dihydro-2H-1-benzopyran-3,5,7-triol

> <PUBCHEM_IUPAC_NAME_MARKUP>
(2<I>R</I>,3<I>R</I>,4<I>R</I>)-2-(3,4-dihydroxyphenyl)-4-[(2<I>R</I>,3<I>R</I>,4<I>R</I>)-2-(3,4-dihydroxyphenyl)-4-[(2<I>R</I>,3<I>R</I>,4<I>S</I>)-2-(3,4-dihydroxyphenyl)-4-[(2<I>R</I>,3<I>S</I>)-2-(3,4-dihydroxyphenyl)-3,5,7-trihydroxy-3,4-dihydro-2<I>H</I>-chromen-6-yl]-3,5,7-trihydroxy-3,4-dihydro-2<I>H</I>-chromen-8-yl]-3,5,7-trihydroxy-3,4-dihydro-2<I>H</I>-chromen-8-yl]-8-[(2<I>R</I>,3<I>R</I>,4<I>R</I>)-2-(3,4-dihydroxyphenyl)-3,5,7-trihydroxy-3,4-dihydro-2<I>H</I>-chromen-4-yl]-3,4-dihydro-2<I>H</I>-chromene-3,5,7-triol

> <PUBCHEM_IUPAC_NAME>
(2R,3R,4R)-2-(3,4-dihydroxyphenyl)-4-[(2R,3R,4R)-2-(3,4-dihydroxyphenyl)-4-[(2R,3R,4S)-2-(3,4-dihydroxyphenyl)-4-[(2R,3S)-2-(3,4-dihydroxyphenyl)-3,5,7-trihydroxy-3,4-dihydro-2H-chromen-6-yl]-3,5,7-trihydroxy-3,4-dihydro-2H-chromen-8-yl]-3,5,7-trihydroxy-3,4-dihydro-2H-chromen-8-yl]-8-[(2R,3R,4R)-2-(3,4-dihydroxyphenyl)-3,5,7-trihydroxy-3,4-dihydro-2H-chromen-4-yl]-3,4-dihydro-2H-chromene-3,5,7-triol

> <PUBCHEM_IUPAC_SYSTEMATIC_NAME>
(2R,3R,4R)-2-[3,4-bis(oxidanyl)phenyl]-4-[(2R,3R,4R)-2-[3,4-bis(oxidanyl)phenyl]-4-[(2R,3R,4S)-2-[3,4-bis(oxidanyl)phenyl]-4-[(2R,3S)-2-[3,4-bis(oxidanyl)phenyl]-3,5,7-tris(oxidanyl)-3,4-dihydro-2H-chromen-6-yl]-3,5,7-tris(oxidanyl)-3,4-dihydro-2H-chromen-8-yl]-3,5,7-tris(oxidanyl)-3,4-dihydro-2H-chromen-8-yl]-8-[(2R,3R,4R)-2-[3,4-bis(oxidanyl)phenyl]-3,5,7-tris(oxidanyl)-3,4-dihydro-2H-chromen-4-yl]-3,4-dihydro-2H-chromene-3,5,7-triol

> <PUBCHEM_IUPAC_TRADITIONAL_NAME>
(2R,3R,4R)-2-(3,4-dihydroxyphenyl)-4-[(2R,3R,4R)-2-(3,4-dihydroxyphenyl)-4-[(2R,3R,4S)-2-(3,4-dihydroxyphenyl)-4-[(2R,3S)-2-(3,4-dihydroxyphenyl)-3,5,7-trihydroxy-chroman-6-yl]-3,5,7-trihydroxy-chroman-8-yl]-3,5,7-trihydroxy-chroman-8-yl]-8-[(2R,3R,4R)-2-(3,4-dihydroxyphenyl)-3,5,7-trihydroxy-chroman-4-yl]chroman-3,5,7-triol

> <PUBCHEM_IUPAC_INCHI>
InChI=1S/C75H62O30/c76-28-16-40(87)51-50(17-28)102-69(24-2-7-31(78)36(83)12-24)64(97)59(51)53-41(88)19-43(90)55-61(66(99)71(104-73(53)55)26-4-9-33(80)38(85)14-26)57-45(92)21-46(93)58-62(67(100)72(105-75(57)58)27-5-10-34(81)39(86)15-27)56-44(91)20-42(89)54-60(65(98)70(103-74(54)56)25-3-8-32(79)37(84)13-25)52-47(94)22-49-29(63(52)96)18-48(95)68(101-49)23-1-6-30(77)35(82)11-23/h1-17,19-22,48,59-62,64-72,76-100H,18H2/t48-,59+,60-,61+,62-,64+,65+,66+,67+,68+,69+,70+,71+,72+/m0/s1

> <PUBCHEM_IUPAC_INCHIKEY>
OPJKXOWSIGSXPM-BFRGWOJKSA-N

> <PUBCHEM_XLOGP3_AA>
5.2

> <PUBCHEM_EXACT_MASS>
1442.332591

> <PUBCHEM_MOLECULAR_FORMULA>
C75H62O30

> <PUBCHEM_MOLECULAR_WEIGHT>
1443.3

> <PUBCHEM_OPENEYE_CAN_SMILES>
C1C(C(OC2=C1C(=C(C(=C2)O)C3C(C(OC4=C(C(=CC(=C34)O)O)C5C(C(OC6=C(C(=CC(=C56)O)O)C7C(C(OC8=C(C(=CC(=C78)O)O)C9C(C(OC1=CC(=CC(=C91)O)O)C1=CC(=C(C=C1)O)O)O)C1=CC(=C(C=C1)O)O)O)C1=CC(=C(C=C1)O)O)O)C1=CC(=C(C=C1)O)O)O)O)C1=CC(=C(C=C1)O)O)O

> <PUBCHEM_OPENEYE_ISO_SMILES>
C1[C@@H]([C@H](OC2=C1C(=C(C(=C2)O)[C@@H]3[C@H]([C@H](OC4=C(C(=CC(=C34)O)O)[C@@H]5[C@H]([C@H](OC6=C(C(=CC(=C56)O)O)[C@@H]7[C@H]([C@H](OC8=C(C(=CC(=C78)O)O)[C@@H]9[C@H]([C@H](OC1=CC(=CC(=C91)O)O)C1=CC(=C(C=C1)O)O)O)C1=CC(=C(C=C1)O)O)O)C1=CC(=C(C=C1)O)O)O)C1=CC(=C(C=C1)O)O)O)O)C1=CC(=C(C=C1)O)O)O

> <PUBCHEM_CACTVS_TPSA>
552

> <PUBCHEM_MONOISOTOPIC_WEIGHT>
1442.332591

> <PUBCHEM_TOTAL_CHARGE>
0

> <PUBCHEM_HEAVY_ATOM_COUNT>
105

> <PUBCHEM_ATOM_DEF_STEREO_COUNT>
14

> <PUBCHEM_ATOM_UDEF_STEREO_COUNT>
0

> <PUBCHEM_BOND_DEF_STEREO_COUNT>
0

> <PUBCHEM_BOND_UDEF_STEREO_COUNT>
0

> <PUBCHEM_ISOTOPIC_ATOM_COUNT>
0

> <PUBCHEM_COMPONENT_COUNT>
1

> <PUBCHEM_CACTVS_TAUTO_COUNT>
-1

> <PUBCHEM_COORDINATE_TYPE>
1
5
255

> <PUBCHEM_BONDANNOTATIONS>
52  10  5
101  103  8
102  104  8
103  105  8
104  105  8
78  19  6
31  106  5
32  107  6
34  37  8
34  50  8
36  37  8
36  51  8
38  56  5
39  43  8
39  54  8
33  4  5
40  44  8
40  55  8
41  111  6
42  61  6
43  45  8
44  48  8
45  57  8
47  114  5
48  62  8
49  64  6
35  5  6
50  58  8
51  58  8
53  66  8
53  68  8
54  63  8
55  65  8
56  70  8
56  71  8
57  63  8
59  67  8
59  73  8
46  6  6
60  72  5
61  76  8
61  77  8
62  65  8
64  81  8
64  82  8
66  69  8
67  83  8
68  79  8
69  75  8
70  84  8
71  86  8
72  90  8
72  91  8
73  85  8
75  79  8
76  87  8
77  89  8
80  96  5
81  93  8
82  95  8
83  88  8
84  92  8
85  88  8
86  92  8
87  94  8
89  94  8
90  98  8
91  99  8
93  97  8
95  97  8
96  101  8
96  102  8
98  100  8
99  100  8

$$$$
