12087363
  -OEChem-11212004063D

 90 95  0     1  0  0  0  0  0999 V2000
    1.0124    0.5768   -1.2026 O   0  0  0  0  0  0  0  0  0  0  0  0
   -1.0244    1.8781    1.7603 O   0  0  0  0  0  0  0  0  0  0  0  0
    6.6377   -1.2507    1.0243 O   0  0  0  0  0  0  0  0  0  0  0  0
   -7.1388    1.4287    0.2232 O   0  0  0  0  0  0  0  0  0  0  0  0
    7.6874    0.0154   -0.6304 O   0  0  0  0  0  0  0  0  0  0  0  0
   -7.3434   -0.8018   -0.4299 O   0  0  0  0  0  0  0  0  0  0  0  0
    4.9379   -2.4971   -0.7879 O   0  0  0  0  0  0  0  0  0  0  0  0
   -5.6513    2.1062   -2.0287 O   0  0  0  0  0  0  0  0  0  0  0  0
    9.0803   -1.4317    2.4338 O   0  0  0  0  0  0  0  0  0  0  0  0
   -9.7130    1.3236    1.3841 O   0  0  0  0  0  0  0  0  0  0  0  0
   10.4532    0.7950    1.5368 O   0  0  0  0  0  0  0  0  0  0  0  0
  -10.0245   -1.3750    1.9019 O   0  0  0  0  0  0  0  0  0  0  0  0
   10.2465   -0.8629   -1.6993 O   0  0  0  0  0  0  0  0  0  0  0  0
   -9.7925   -1.6987   -1.7182 O   0  0  0  0  0  0  0  0  0  0  0  0
    7.5022    2.2897   -2.4903 O   0  0  0  0  0  0  0  0  0  0  0  0
   -6.0240   -3.4146   -0.7433 O   0  0  0  0  0  0  0  0  0  0  0  0
    0.3634    0.0968    1.0508 C   0  0  1  0  0  0  0  0  0  0  0  0
   -0.8561    0.0979    0.1691 C   0  0  1  0  0  0  0  0  0  0  0  0
    1.4199    0.7735    0.1670 C   0  0  1  0  0  0  0  0  0  0  0  0
   -1.4760    1.4729    0.4516 C   0  0  1  0  0  0  0  0  0  0  0  0
   -0.2754   -0.0548   -1.2190 C   0  0  0  0  0  0  0  0  0  0  0  0
   -0.0752    0.9173    2.2432 C   0  0  0  0  0  0  0  0  0  0  0  0
    2.8107    0.2308    0.3934 C   0  0  0  0  0  0  0  0  0  0  0  0
   -2.9847    1.4625    0.3873 C   0  0  0  0  0  0  0  0  0  0  0  0
    3.2426   -0.8956   -0.3069 C   0  0  0  0  0  0  0  0  0  0  0  0
   -3.6346    1.7925   -0.8020 C   0  0  0  0  0  0  0  0  0  0  0  0
    3.6637    0.8561    1.3027 C   0  0  0  0  0  0  0  0  0  0  0  0
   -3.7284    1.1225    1.5174 C   0  0  0  0  0  0  0  0  0  0  0  0
    4.5276   -1.3966   -0.0980 C   0  0  0  0  0  0  0  0  0  0  0  0
   -5.0281    1.7823   -0.8614 C   0  0  0  0  0  0  0  0  0  0  0  0
    4.9486    0.3550    1.5119 C   0  0  0  0  0  0  0  0  0  0  0  0
   -5.1220    1.1126    1.4580 C   0  0  0  0  0  0  0  0  0  0  0  0
    5.3806   -0.7713    0.8115 C   0  0  0  0  0  0  0  0  0  0  0  0
   -5.7719    1.4424    0.2687 C   0  0  0  0  0  0  0  0  0  0  0  0
    7.7248   -0.3686    0.7438 C   0  0  2  0  0  0  0  0  0  0  0  0
   -7.7749    0.1828    0.5091 C   0  0  2  0  0  0  0  0  0  0  0  0
    9.0247   -1.1160    1.0461 C   0  0  1  0  0  0  0  0  0  0  0  0
   -9.2860    0.3914    0.3958 C   0  0  1  0  0  0  0  0  0  0  0  0
   10.2584   -0.3002    0.6421 C   0  0  1  0  0  0  0  0  0  0  0  0
  -10.0560   -0.9259    0.5473 C   0  0  1  0  0  0  0  0  0  0  0  0
   10.1156    0.2271   -0.7880 C   0  0  2  0  0  0  0  0  0  0  0  0
   -9.4672   -2.0063   -0.3634 C   0  0  2  0  0  0  0  0  0  0  0  0
    8.7493    0.9029   -0.9975 C   0  0  1  0  0  0  0  0  0  0  0  0
   -7.9379   -2.0863   -0.2143 C   0  0  1  0  0  0  0  0  0  0  0  0
    8.5207    1.3068   -2.4504 C   0  0  0  0  0  0  0  0  0  0  0  0
   -7.3088   -3.0507   -1.2145 C   0  0  0  0  0  0  0  0  0  0  0  0
    4.0053   -3.0765   -1.6983 C   0  0  0  0  0  0  0  0  0  0  0  0
   -4.8183    2.4415   -3.1367 C   0  0  0  0  0  0  0  0  0  0  0  0
    0.6692   -0.9146    1.3418 H   0  0  0  0  0  0  0  0  0  0  0  0
   -1.5499   -0.7148    0.4126 H   0  0  0  0  0  0  0  0  0  0  0  0
    1.4353    1.8606    0.3169 H   0  0  0  0  0  0  0  0  0  0  0  0
   -1.0960    2.2364   -0.2393 H   0  0  0  0  0  0  0  0  0  0  0  0
   -0.8932    0.3907   -2.0037 H   0  0  0  0  0  0  0  0  0  0  0  0
   -0.1180   -1.1115   -1.4611 H   0  0  0  0  0  0  0  0  0  0  0  0
    0.7472    1.4339    2.7457 H   0  0  0  0  0  0  0  0  0  0  0  0
   -0.5907    0.2904    2.9788 H   0  0  0  0  0  0  0  0  0  0  0  0
    2.5402   -1.3560   -0.9919 H   0  0  0  0  0  0  0  0  0  0  0  0
   -3.0043    2.0464   -1.6476 H   0  0  0  0  0  0  0  0  0  0  0  0
    3.3370    1.7312    1.8582 H   0  0  0  0  0  0  0  0  0  0  0  0
   -3.2451    0.8559    2.4530 H   0  0  0  0  0  0  0  0  0  0  0  0
    5.5902    0.8456    2.2383 H   0  0  0  0  0  0  0  0  0  0  0  0
   -5.6823    0.8614    2.3540 H   0  0  0  0  0  0  0  0  0  0  0  0
    7.6513    0.5181    1.3864 H   0  0  0  0  0  0  0  0  0  0  0  0
   -7.5226   -0.1317    1.5299 H   0  0  0  0  0  0  0  0  0  0  0  0
    9.0222   -2.0651    0.4951 H   0  0  0  0  0  0  0  0  0  0  0  0
   -9.5090    0.8301   -0.5852 H   0  0  0  0  0  0  0  0  0  0  0  0
   11.1438   -0.9405    0.7346 H   0  0  0  0  0  0  0  0  0  0  0  0
  -11.1093   -0.7425    0.3034 H   0  0  0  0  0  0  0  0  0  0  0  0
   10.9095    0.9489   -1.0136 H   0  0  0  0  0  0  0  0  0  0  0  0
   -9.9007   -2.9858   -0.1296 H   0  0  0  0  0  0  0  0  0  0  0  0
    8.6756    1.7947   -0.3609 H   0  0  0  0  0  0  0  0  0  0  0  0
   -7.6813   -2.4073    0.8042 H   0  0  0  0  0  0  0  0  0  0  0  0
    8.2015    0.4564   -3.0618 H   0  0  0  0  0  0  0  0  0  0  0  0
    9.4240    1.7497   -2.8815 H   0  0  0  0  0  0  0  0  0  0  0  0
   -7.1953   -2.5925   -2.2024 H   0  0  0  0  0  0  0  0  0  0  0  0
   -7.9005   -3.9673   -1.3014 H   0  0  0  0  0  0  0  0  0  0  0  0
    9.9152   -1.9039    2.5931 H   0  0  0  0  0  0  0  0  0  0  0  0
  -10.6742    1.4337    1.2866 H   0  0  0  0  0  0  0  0  0  0  0  0
   11.2577    1.2634    1.2558 H   0  0  0  0  0  0  0  0  0  0  0  0
  -10.5454   -2.1947    1.9510 H   0  0  0  0  0  0  0  0  0  0  0  0
   11.1290   -1.2497   -1.5683 H   0  0  0  0  0  0  0  0  0  0  0  0
  -10.7621   -1.6870   -1.7911 H   0  0  0  0  0  0  0  0  0  0  0  0
    3.7493   -2.3859   -2.5091 H   0  0  0  0  0  0  0  0  0  0  0  0
    4.4998   -3.9374   -2.1604 H   0  0  0  0  0  0  0  0  0  0  0  0
    3.1200   -3.4606   -1.1800 H   0  0  0  0  0  0  0  0  0  0  0  0
   -5.4797    2.6710   -3.9787 H   0  0  0  0  0  0  0  0  0  0  0  0
   -4.1954    1.5946   -3.4446 H   0  0  0  0  0  0  0  0  0  0  0  0
   -4.2293    3.3440   -2.9409 H   0  0  0  0  0  0  0  0  0  0  0  0
    7.3753    2.5344   -3.4228 H   0  0  0  0  0  0  0  0  0  0  0  0
   -5.6436   -4.0302   -1.3928 H   0  0  0  0  0  0  0  0  0  0  0  0
  1 19  1  0  0  0  0
  1 21  1  0  0  0  0
  2 20  1  0  0  0  0
  2 22  1  0  0  0  0
  3 33  1  0  0  0  0
  3 35  1  0  0  0  0
  4 34  1  0  0  0  0
  4 36  1  0  0  0  0
  5 35  1  0  0  0  0
  5 43  1  0  0  0  0
  6 36  1  0  0  0  0
  6 44  1  0  0  0  0
  7 29  1  0  0  0  0
  7 47  1  0  0  0  0
  8 30  1  0  0  0  0
  8 48  1  0  0  0  0
  9 37  1  0  0  0  0
  9 77  1  0  0  0  0
 10 38  1  0  0  0  0
 10 78  1  0  0  0  0
 11 39  1  0  0  0  0
 11 79  1  0  0  0  0
 12 40  1  0  0  0  0
 12 80  1  0  0  0  0
 13 41  1  0  0  0  0
 13 81  1  0  0  0  0
 14 42  1  0  0  0  0
 14 82  1  0  0  0  0
 15 45  1  0  0  0  0
 15 89  1  0  0  0  0
 16 46  1  0  0  0  0
 16 90  1  0  0  0  0
 17 18  1  0  0  0  0
 17 19  1  0  0  0  0
 17 22  1  0  0  0  0
 17 49  1  0  0  0  0
 18 20  1  0  0  0  0
 18 21  1  0  0  0  0
 18 50  1  0  0  0  0
 19 23  1  0  0  0  0
 19 51  1  0  0  0  0
 20 24  1  0  0  0  0
 20 52  1  0  0  0  0
 21 53  1  0  0  0  0
 21 54  1  0  0  0  0
 22 55  1  0  0  0  0
 22 56  1  0  0  0  0
 23 25  2  0  0  0  0
 23 27  1  0  0  0  0
 24 26  2  0  0  0  0
 24 28  1  0  0  0  0
 25 29  1  0  0  0  0
 25 57  1  0  0  0  0
 26 30  1  0  0  0  0
 26 58  1  0  0  0  0
 27 31  2  0  0  0  0
 27 59  1  0  0  0  0
 28 32  2  0  0  0  0
 28 60  1  0  0  0  0
 29 33  2  0  0  0  0
 30 34  2  0  0  0  0
 31 33  1  0  0  0  0
 31 61  1  0  0  0  0
 32 34  1  0  0  0  0
 32 62  1  0  0  0  0
 35 37  1  0  0  0  0
 35 63  1  0  0  0  0
 36 38  1  0  0  0  0
 36 64  1  0  0  0  0
 37 39  1  0  0  0  0
 37 65  1  0  0  0  0
 38 40  1  0  0  0  0
 38 66  1  0  0  0  0
 39 41  1  0  0  0  0
 39 67  1  0  0  0  0
 40 42  1  0  0  0  0
 40 68  1  0  0  0  0
 41 43  1  0  0  0  0
 41 69  1  0  0  0  0
 42 44  1  0  0  0  0
 42 70  1  0  0  0  0
 43 45  1  0  0  0  0
 43 71  1  0  0  0  0
 44 46  1  0  0  0  0
 44 72  1  0  0  0  0
 45 73  1  0  0  0  0
 45 74  1  0  0  0  0
 46 75  1  0  0  0  0
 46 76  1  0  0  0  0
 47 83  1  0  0  0  0
 47 84  1  0  0  0  0
 47 85  1  0  0  0  0
 48 86  1  0  0  0  0
 48 87  1  0  0  0  0
 48 88  1  0  0  0  0
M  END
> <PUBCHEM_COMPOUND_CID>
12087363

> <PUBCHEM_CONFORMER_RMSD>
1.4

> <PUBCHEM_CONFORMER_DIVERSEORDER>
2
34
42
35
16
33
47
27
25
23
39
1
8
49
9
6
26
31
12
4
48
45
10
43
36
32
13
40
18
28
19
7
29
15
44
21
46
24
37
50
30
14
22
3
20
38
5
11
17
41

> <PUBCHEM_MMFF94_PARTIAL_CHARGES>
60
1 -0.56
10 -0.68
11 -0.68
12 -0.68
13 -0.68
14 -0.68
15 -0.68
16 -0.68
19 0.42
2 -0.56
20 0.42
21 0.28
22 0.28
23 -0.14
24 -0.14
25 -0.15
26 -0.15
27 -0.15
28 -0.15
29 0.08
3 -0.36
30 0.08
31 -0.15
32 -0.15
33 0.08
34 0.08
35 0.56
36 0.56
37 0.28
38 0.28
39 0.28
4 -0.36
40 0.28
41 0.28
42 0.28
43 0.28
44 0.28
45 0.28
46 0.28
47 0.28
48 0.28
5 -0.56
57 0.15
58 0.15
59 0.15
6 -0.56
60 0.15
61 0.15
62 0.15
7 -0.36
77 0.4
78 0.4
79 0.4
8 -0.36
80 0.4
81 0.4
82 0.4
89 0.4
9 -0.68
90 0.4

> <PUBCHEM_EFFECTIVE_ROTOR_COUNT>
13.6

> <PUBCHEM_PHARMACOPHORE_FEATURES>
30
1 1 acceptor
1 10 acceptor
1 10 donor
1 11 acceptor
1 11 donor
1 12 acceptor
1 12 donor
1 13 acceptor
1 13 donor
1 14 acceptor
1 14 donor
1 15 acceptor
1 15 donor
1 16 acceptor
1 16 donor
1 2 acceptor
1 3 acceptor
1 4 acceptor
1 5 acceptor
1 6 acceptor
1 7 acceptor
1 8 acceptor
1 9 acceptor
1 9 donor
5 1 17 18 19 21 rings
5 2 17 18 20 22 rings
6 23 25 27 29 31 33 rings
6 24 26 28 30 32 34 rings
6 5 35 37 39 41 43 rings
6 6 36 38 40 42 44 rings

> <PUBCHEM_HEAVY_ATOM_COUNT>
48

> <PUBCHEM_ATOM_DEF_STEREO_COUNT>
14

> <PUBCHEM_ATOM_UDEF_STEREO_COUNT>
0

> <PUBCHEM_BOND_DEF_STEREO_COUNT>
0

> <PUBCHEM_BOND_UDEF_STEREO_COUNT>
0

> <PUBCHEM_ISOTOPIC_ATOM_COUNT>
0

> <PUBCHEM_COMPONENT_COUNT>
1

> <PUBCHEM_CACTVS_TAUTO_COUNT>
1

> <PUBCHEM_CONFORMER_ID>
00B8704300000002

> <PUBCHEM_MMFF94_ENERGY>
182.9082

> <PUBCHEM_FEATURE_SELFOVERLAP>
152.907

> <PUBCHEM_SHAPE_FINGERPRINT>
10162869 55 18186239537695614708
10533779 47 14979963558257300734
11477941 20 17240475889560544213
12013929 94 18060137660732628843
12089408 11 17531246119522071688
12098696 120 16415479329300410364
13811026 1 17312827060875182732
13947947 19 18272088323239968540
14118638 360 18058732378299917744
14359421 15 14404364781133965788
15065858 18 18261387798272772912
15392192 104 18343864390788036334
15461852 350 18187642501051877021
15554971 5 17240765039306188684
15664458 157 17822009834698966555
16728433 110 16515410677047834789
19841028 212 18058733481268405082
20105231 36 17060339617219146206
21792965 68 11312063163017117051
21927370 108 16988565701687460657
3092352 35 18335701617080528322
335507 130 18411419518605178029
44280117 145 18260266340238061021
44426699 60 18341895229918886952
44880568 143 17970349217753018572
4874694 18 15502097449321859512
5028188 123 18260267435518180713
54039377 194 18273214210034822005
9663363 56 11386371444672576122
9937071 3 16271931506615111924
9962374 69 18334856142743493792

> <PUBCHEM_SHAPE_MULTIPOLES>
893.91
44.31
2.7
2.2
14.24
1.68
0.83
13.57
1.08
-4.63
1.39
1.55
-0.9
-1.59

> <PUBCHEM_SHAPE_SELFOVERLAP>
1923.611

> <PUBCHEM_SHAPE_VOLUME>
489.1

> <PUBCHEM_COORDINATE_TYPE>
2
5
10

$$$$
