6475593
  -OEChem-11212004203D

102107  0     1  0  0  0  0  0999 V2000
   -3.7537   -0.2373   -0.1205 O   0  0  0  0  0  0  0  0  0  0  0  0
    8.5743   -2.2300    0.4294 O   0  0  0  0  0  0  0  0  0  0  0  0
    7.0649   -1.1782    1.7752 O   0  0  0  0  0  0  0  0  0  0  0  0
   -4.1567    1.7121   -1.2930 O   0  0  0  0  0  0  0  0  0  0  0  0
  -10.5395   -0.9183    1.6636 O   0  0  0  0  0  0  0  0  0  0  0  0
  -12.4166    0.3446    0.0500 O   0  0  0  0  0  0  0  0  0  0  0  0
    2.9447   -1.2361   -0.1493 C   0  0  1  0  0  0  0  0  0  0  0  0
    4.3261   -0.6801   -0.8118 C   0  0  1  0  0  0  0  0  0  0  0  0
    2.0269   -0.0017    0.2311 C   0  0  1  0  0  0  0  0  0  0  0  0
    5.0293    0.2895    0.2245 C   0  0  1  0  0  0  0  0  0  0  0  0
    0.5249   -0.3342    0.6577 C   0  0  2  0  0  0  0  0  0  0  0  0
    6.4141    0.7454   -0.2874 C   0  0  2  0  0  0  0  0  0  0  0  0
   -0.0945   -1.2296   -0.4826 C   0  0  1  0  0  0  0  0  0  0  0  0
    7.3330   -0.4637   -0.5367 C   0  0  1  0  0  0  0  0  0  0  0  0
    2.1736   -2.1537   -1.1389 C   0  0  0  0  0  0  0  0  0  0  0  0
    2.7635    0.9773    1.1733 C   0  0  0  0  0  0  0  0  0  0  0  0
    5.3158   -1.8380   -1.1950 C   0  0  0  0  0  0  0  0  0  0  0  0
    4.1119    1.4504    0.6235 C   0  0  0  0  0  0  0  0  0  0  0  0
    0.7437   -2.5029   -0.7115 C   0  0  0  0  0  0  0  0  0  0  0  0
    6.7305   -1.3745   -1.6054 C   0  0  0  0  0  0  0  0  0  0  0  0
   -1.6497   -1.4658   -0.4113 C   0  0  0  0  0  0  0  0  0  0  0  0
    7.2899    1.6802    0.5694 C   0  0  1  0  0  0  0  0  0  0  0  0
   -0.2901    0.9971    0.7093 C   0  0  0  0  0  0  0  0  0  0  0  0
    3.2702   -2.1071    1.1012 C   0  0  0  0  0  0  0  0  0  0  0  0
    4.0365    0.0777   -2.1525 C   0  0  0  0  0  0  0  0  0  0  0  0
    8.6430    0.2254   -0.9138 C   0  0  0  0  0  0  0  0  0  0  0  0
    8.7231    1.4317    0.0401 C   0  0  0  0  0  0  0  0  0  0  0  0
    0.4493   -0.9763    2.0637 C   0  0  0  0  0  0  0  0  0  0  0  0
   -2.3478   -0.0774   -0.3107 C   0  0  2  0  0  0  0  0  0  0  0  0
   -1.8030    0.8096    0.8031 C   0  0  0  0  0  0  0  0  0  0  0  0
    7.6169   -1.3074    0.6926 C   0  0  0  0  0  0  0  0  0  0  0  0
   -2.0070   -2.2517    0.8811 C   0  0  0  0  0  0  0  0  0  0  0  0
   -2.2123   -2.2984   -1.5804 C   0  0  0  0  0  0  0  0  0  0  0  0
    6.9274    3.1278    0.4824 C   0  0  0  0  0  0  0  0  0  0  0  0
    6.5902    3.8043    1.7779 C   0  0  0  0  0  0  0  0  0  0  0  0
    6.9044    3.7841   -0.6872 C   0  0  0  0  0  0  0  0  0  0  0  0
   -4.5357    0.7347   -0.6672 C   0  0  0  0  0  0  0  0  0  0  0  0
   -5.9466    0.4006   -0.3676 C   0  0  0  0  0  0  0  0  0  0  0  0
   -6.9235    1.2107   -0.8000 C   0  0  0  0  0  0  0  0  0  0  0  0
   -8.3615    0.9812   -0.5752 C   0  0  0  0  0  0  0  0  0  0  0  0
   -8.7806    0.1314    0.4486 C   0  0  0  0  0  0  0  0  0  0  0  0
   -9.3039    1.6140   -1.3859 C   0  0  0  0  0  0  0  0  0  0  0  0
  -10.1419   -0.0854    0.6617 C   0  0  0  0  0  0  0  0  0  0  0  0
  -10.6652    1.3968   -1.1729 C   0  0  0  0  0  0  0  0  0  0  0  0
  -11.0843    0.5472   -0.1491 C   0  0  0  0  0  0  0  0  0  0  0  0
   -9.5140   -1.5258    2.4468 C   0  0  0  0  0  0  0  0  0  0  0  0
    1.8894    0.5624   -0.6999 H   0  0  0  0  0  0  0  0  0  0  0  0
    5.1793   -0.2619    1.1504 H   0  0  0  0  0  0  0  0  0  0  0  0
    6.2554    1.2484   -1.2484 H   0  0  0  0  0  0  0  0  0  0  0  0
    0.0294   -0.6472   -1.4115 H   0  0  0  0  0  0  0  0  0  0  0  0
    2.7266   -3.0869   -1.3011 H   0  0  0  0  0  0  0  0  0  0  0  0
    2.0900   -1.6769   -2.1196 H   0  0  0  0  0  0  0  0  0  0  0  0
    2.1572    1.8714    1.3488 H   0  0  0  0  0  0  0  0  0  0  0  0
    2.9312    0.5265    2.1560 H   0  0  0  0  0  0  0  0  0  0  0  0
    4.8975   -2.4341   -2.0151 H   0  0  0  0  0  0  0  0  0  0  0  0
    5.4440   -2.5283   -0.3581 H   0  0  0  0  0  0  0  0  0  0  0  0
    3.9527    2.1309   -0.2202 H   0  0  0  0  0  0  0  0  0  0  0  0
    4.5721    2.0335    1.4178 H   0  0  0  0  0  0  0  0  0  0  0  0
    0.7495   -3.1530    0.1667 H   0  0  0  0  0  0  0  0  0  0  0  0
    0.3130   -3.0999   -1.5222 H   0  0  0  0  0  0  0  0  0  0  0  0
    6.6856   -0.8539   -2.5690 H   0  0  0  0  0  0  0  0  0  0  0  0
    7.3551   -2.2594   -1.7788 H   0  0  0  0  0  0  0  0  0  0  0  0
    7.2502    1.3611    1.6186 H   0  0  0  0  0  0  0  0  0  0  0  0
   -0.0784    1.5908   -0.1900 H   0  0  0  0  0  0  0  0  0  0  0  0
    0.0252    1.6074    1.5637 H   0  0  0  0  0  0  0  0  0  0  0  0
    3.9129   -2.9559    0.8547 H   0  0  0  0  0  0  0  0  0  0  0  0
    2.3836   -2.5662    1.5354 H   0  0  0  0  0  0  0  0  0  0  0  0
    3.7536   -1.5497    1.9054 H   0  0  0  0  0  0  0  0  0  0  0  0
    3.3486    0.9168   -2.0389 H   0  0  0  0  0  0  0  0  0  0  0  0
    4.9378    0.4941   -2.6083 H   0  0  0  0  0  0  0  0  0  0  0  0
    3.6220   -0.5900   -2.9133 H   0  0  0  0  0  0  0  0  0  0  0  0
    8.5937    0.5933   -1.9468 H   0  0  0  0  0  0  0  0  0  0  0  0
    9.5408   -0.3960   -0.8395 H   0  0  0  0  0  0  0  0  0  0  0  0
    9.1820    2.2871   -0.4672 H   0  0  0  0  0  0  0  0  0  0  0  0
    9.3773    1.1872    0.8868 H   0  0  0  0  0  0  0  0  0  0  0  0
    0.4142   -2.0662    2.0420 H   0  0  0  0  0  0  0  0  0  0  0  0
    1.3075   -0.7041    2.6829 H   0  0  0  0  0  0  0  0  0  0  0  0
   -0.4099   -0.6352    2.6463 H   0  0  0  0  0  0  0  0  0  0  0  0
   -2.1634    0.4255   -1.2713 H   0  0  0  0  0  0  0  0  0  0  0  0
   -2.2750    1.7989    0.7383 H   0  0  0  0  0  0  0  0  0  0  0  0
   -2.1039    0.4427    1.7893 H   0  0  0  0  0  0  0  0  0  0  0  0
   -3.0447   -2.6082    0.8291 H   0  0  0  0  0  0  0  0  0  0  0  0
   -1.3913   -3.1500    0.9902 H   0  0  0  0  0  0  0  0  0  0  0  0
   -1.9595   -1.6818    1.8049 H   0  0  0  0  0  0  0  0  0  0  0  0
   -3.3071   -2.3380   -1.5604 H   0  0  0  0  0  0  0  0  0  0  0  0
   -1.9181   -1.8597   -2.5401 H   0  0  0  0  0  0  0  0  0  0  0  0
   -1.8571   -3.3336   -1.5563 H   0  0  0  0  0  0  0  0  0  0  0  0
    6.1235    4.7821    1.6176 H   0  0  0  0  0  0  0  0  0  0  0  0
    7.5073    3.9638    2.3559 H   0  0  0  0  0  0  0  0  0  0  0  0
    5.9129    3.2155    2.3991 H   0  0  0  0  0  0  0  0  0  0  0  0
    8.7728   -2.7855    1.2131 H   0  0  0  0  0  0  0  0  0  0  0  0
    6.6387    4.8354   -0.7322 H   0  0  0  0  0  0  0  0  0  0  0  0
    7.1551    3.3039   -1.6267 H   0  0  0  0  0  0  0  0  0  0  0  0
   -6.1265   -0.5181    0.1782 H   0  0  0  0  0  0  0  0  0  0  0  0
   -6.6807    2.1051   -1.3692 H   0  0  0  0  0  0  0  0  0  0  0  0
   -8.0300   -0.3245    1.0811 H   0  0  0  0  0  0  0  0  0  0  0  0
   -8.9955    2.2785   -2.1893 H   0  0  0  0  0  0  0  0  0  0  0  0
  -11.3887    1.8961   -1.8119 H   0  0  0  0  0  0  0  0  0  0  0  0
  -12.9169    0.8628   -0.6036 H   0  0  0  0  0  0  0  0  0  0  0  0
   -8.8800   -2.1850    1.8439 H   0  0  0  0  0  0  0  0  0  0  0  0
   -8.9358   -0.7808    3.0040 H   0  0  0  0  0  0  0  0  0  0  0  0
  -10.0105   -2.1591    3.1896 H   0  0  0  0  0  0  0  0  0  0  0  0
  1 29  1  0  0  0  0
  1 37  1  0  0  0  0
  2 31  1  0  0  0  0
  2 91  1  0  0  0  0
  3 31  2  0  0  0  0
  4 37  2  0  0  0  0
  5 43  1  0  0  0  0
  5 46  1  0  0  0  0
  6 45  1  0  0  0  0
  6 99  1  0  0  0  0
  7  8  1  0  0  0  0
  7  9  1  0  0  0  0
  7 15  1  0  0  0  0
  7 24  1  0  0  0  0
  8 10  1  0  0  0  0
  8 17  1  0  0  0  0
  8 25  1  0  0  0  0
  9 11  1  0  0  0  0
  9 16  1  0  0  0  0
  9 47  1  0  0  0  0
 10 12  1  0  0  0  0
 10 18  1  0  0  0  0
 10 48  1  0  0  0  0
 11 13  1  0  0  0  0
 11 23  1  0  0  0  0
 11 28  1  0  0  0  0
 12 14  1  0  0  0  0
 12 22  1  0  0  0  0
 12 49  1  0  0  0  0
 13 19  1  0  0  0  0
 13 21  1  0  0  0  0
 13 50  1  0  0  0  0
 14 20  1  0  0  0  0
 14 26  1  0  0  0  0
 14 31  1  0  0  0  0
 15 19  1  0  0  0  0
 15 51  1  0  0  0  0
 15 52  1  0  0  0  0
 16 18  1  0  0  0  0
 16 53  1  0  0  0  0
 16 54  1  0  0  0  0
 17 20  1  0  0  0  0
 17 55  1  0  0  0  0
 17 56  1  0  0  0  0
 18 57  1  0  0  0  0
 18 58  1  0  0  0  0
 19 59  1  0  0  0  0
 19 60  1  0  0  0  0
 20 61  1  0  0  0  0
 20 62  1  0  0  0  0
 21 29  1  0  0  0  0
 21 32  1  0  0  0  0
 21 33  1  0  0  0  0
 22 27  1  0  0  0  0
 22 34  1  0  0  0  0
 22 63  1  0  0  0  0
 23 30  1  0  0  0  0
 23 64  1  0  0  0  0
 23 65  1  0  0  0  0
 24 66  1  0  0  0  0
 24 67  1  0  0  0  0
 24 68  1  0  0  0  0
 25 69  1  0  0  0  0
 25 70  1  0  0  0  0
 25 71  1  0  0  0  0
 26 27  1  0  0  0  0
 26 72  1  0  0  0  0
 26 73  1  0  0  0  0
 27 74  1  0  0  0  0
 27 75  1  0  0  0  0
 28 76  1  0  0  0  0
 28 77  1  0  0  0  0
 28 78  1  0  0  0  0
 29 30  1  0  0  0  0
 29 79  1  0  0  0  0
 30 80  1  0  0  0  0
 30 81  1  0  0  0  0
 32 82  1  0  0  0  0
 32 83  1  0  0  0  0
 32 84  1  0  0  0  0
 33 85  1  0  0  0  0
 33 86  1  0  0  0  0
 33 87  1  0  0  0  0
 34 35  1  0  0  0  0
 34 36  2  0  0  0  0
 35 88  1  0  0  0  0
 35 89  1  0  0  0  0
 35 90  1  0  0  0  0
 36 92  1  0  0  0  0
 36 93  1  0  0  0  0
 37 38  1  0  0  0  0
 38 39  2  0  0  0  0
 38 94  1  0  0  0  0
 39 40  1  0  0  0  0
 39 95  1  0  0  0  0
 40 41  2  0  0  0  0
 40 42  1  0  0  0  0
 41 43  1  0  0  0  0
 41 96  1  0  0  0  0
 42 44  2  0  0  0  0
 42 97  1  0  0  0  0
 43 45  2  0  0  0  0
 44 45  1  0  0  0  0
 44 98  1  0  0  0  0
 46100  1  0  0  0  0
 46101  1  0  0  0  0
 46102  1  0  0  0  0
M  END
> <PUBCHEM_COMPOUND_CID>
6475593

> <PUBCHEM_CONFORMER_RMSD>
1.2

> <PUBCHEM_CONFORMER_DIVERSEORDER>
12
19
17
80
109
96
34
64
107
23
18
128
127
33
84
53
98
14
46
100
48
40
115
3
75
83
26
66
24
130
108
62
43
35
73
120
94
113
1
41
95
57
4
29
117
50
11
74
105
13
79
47
129
101
9
31
81
124
54
118
10
85
49
99
22
2
28
44
39
88
45
72
32
42
111
16
102
63
125
8
69
51
97
68
37
36
60
61
121
7
38
106
65
89
6
58
78
55
15
21
119
90
126
70
76
92
20
56
71
123
114
27
112
30
104
122
82
86
116
52
87
103
25
91
77
67
110
5
59
93

> <PUBCHEM_MMFF94_PARTIAL_CHARGES>
32
1 -0.43
14 0.06
2 -0.65
22 0.14
29 0.28
3 -0.57
31 0.66
34 -0.28
35 0.14
36 -0.3
37 0.71
38 -0.14
39 -0.18
4 -0.57
40 0.03
41 -0.15
42 -0.15
43 0.08
44 -0.15
45 0.08
46 0.28
5 -0.36
6 -0.53
91 0.5
92 0.15
93 0.15
94 0.15
95 0.15
96 0.15
97 0.15
98 0.15
99 0.45

> <PUBCHEM_EFFECTIVE_ROTOR_COUNT>
9.6

> <PUBCHEM_PHARMACOPHORE_FEATURES>
13
1 2 acceptor
1 3 acceptor
1 4 acceptor
1 5 acceptor
1 6 donor
3 2 3 31 anion
3 21 32 33 hydrophobe
5 12 14 22 26 27 rings
6 11 13 21 23 29 30 rings
6 40 41 42 43 44 45 rings
6 7 8 9 10 16 18 rings
6 7 9 11 13 15 19 rings
6 8 10 12 14 17 20 rings

> <PUBCHEM_HEAVY_ATOM_COUNT>
46

> <PUBCHEM_ATOM_DEF_STEREO_COUNT>
6

> <PUBCHEM_ATOM_UDEF_STEREO_COUNT>
4

> <PUBCHEM_BOND_DEF_STEREO_COUNT>
1

> <PUBCHEM_BOND_UDEF_STEREO_COUNT>
0

> <PUBCHEM_ISOTOPIC_ATOM_COUNT>
0

> <PUBCHEM_COMPONENT_COUNT>
1

> <PUBCHEM_CACTVS_TAUTO_COUNT>
3

> <PUBCHEM_CONFORMER_ID>
0062CF490000000C

> <PUBCHEM_MMFF94_ENERGY>
207.4392

> <PUBCHEM_FEATURE_SELFOVERLAP>
66.123

> <PUBCHEM_SHAPE_FINGERPRINT>
10674148 151 14261344748749802303
11115154 58 15841554071900372955
11607047 141 18041548154261770586
11966995 178 18335139770295099326
12013929 94 18272088328320861127
12089408 11 15430042054644497351
12098696 120 18410569596249223965
12120059 9 7925623420054713633
12522641 33 17060622187971855927
12664476 115 18409164399151447157
12758862 56 11527652078423056631
13740195 50 18260267469566208571
13782708 43 11095622108413692324
13811026 1 18260550051784638405
13947947 74 17989486316307404800
14017578 135 18342468023869051673
14040221 8 13398634965342613931
15064986 266 18270396221730960791
15183329 4 18059858364079387762
15392192 104 15285358409950462056
15510794 2 18260831493192966667
15530121 191 18334005082611967581
15840311 113 18333732420996792508
16728433 110 18410293610842019893
16758388 162 18262226734888802514
17686467 74 17967533463997201349
19301679 30 11026061457789376702
19315958 150 18341614836413565612
20105231 36 18411418411321585087
21033648 29 18114735062816225824
21362267 2 18338501007211888221
24893992 56 18334856112715574643
3092352 35 16487253271525053679
335507 130 18201997712586010397
4149490 64 18041276573930269970
437795 160 17095808806649972545
474113 269 7997975678549271509
6126387 218 11025794294139497253
6201320 215 12901810694659430535
9663363 56 10087638187677386046

> <PUBCHEM_SHAPE_MULTIPOLES>
911.44
40.6
3
1.66
105.64
1.55
-0.33
15.67
-1.37
-6.64
-0.16
0.76
-0.3
3.26

> <PUBCHEM_SHAPE_SELFOVERLAP>
1951.184

> <PUBCHEM_SHAPE_VOLUME>
502.3

> <PUBCHEM_COORDINATE_TYPE>
2
5
10

$$$$
