21579254
  -OEChem-11212004243D

 87 91  0     1  0  0  0  0  0999 V2000
    4.3218    1.8668    0.2263 O   0  0  0  0  0  0  0  0  0  0  0  0
    5.6934   -0.8944   -1.6767 O   0  0  0  0  0  0  0  0  0  0  0  0
   -5.1251   -2.8178    0.3225 O   0  0  0  0  0  0  0  0  0  0  0  0
   -3.8373   -2.1727   -1.4441 O   0  0  0  0  0  0  0  0  0  0  0  0
    6.2878    2.9552   -0.3098 O   0  0  0  0  0  0  0  0  0  0  0  0
    0.0043   -1.1437    0.3547 C   0  0  2  0  0  0  0  0  0  0  0  0
    0.8621   -0.2293   -0.6011 C   0  0  1  0  0  0  0  0  0  0  0  0
    2.3969   -0.6077   -0.8340 C   0  0  2  0  0  0  0  0  0  0  0  0
   -1.3621   -0.3278    0.7443 C   0  0  1  0  0  0  0  0  0  0  0  0
    3.0440   -0.9132    0.5593 C   0  0  1  0  0  0  0  0  0  0  0  0
    0.8295   -1.5121    1.6167 C   0  0  0  0  0  0  0  0  0  0  0  0
    2.2494   -1.9935    1.3214 C   0  0  0  0  0  0  0  0  0  0  0  0
    4.6075   -1.1421    0.5577 C   0  0  0  0  0  0  0  0  0  0  0  0
   -2.0678    0.1553   -0.5417 C   0  0  0  0  0  0  0  0  0  0  0  0
    3.1124    0.6358   -1.4803 C   0  0  0  0  0  0  0  0  0  0  0  0
   -3.5753    0.4353   -0.5445 C   0  0  1  0  0  0  0  0  0  0  0  0
    0.0763    0.0711   -1.8974 C   0  0  0  0  0  0  0  0  0  0  0  0
   -2.2976   -1.2205    1.6145 C   0  0  0  0  0  0  0  0  0  0  0  0
   -4.3824   -0.5740    0.3069 C   0  0  1  0  0  0  0  0  0  0  0  0
   -0.3763   -2.4846   -0.3495 C   0  0  0  0  0  0  0  0  0  0  0  0
   -3.7524   -0.7437    1.7001 C   0  0  0  0  0  0  0  0  0  0  0  0
    5.3216   -0.2094   -0.4820 C   0  0  2  0  0  0  0  0  0  0  0  0
    4.4852    1.0015   -0.8956 C   0  0  2  0  0  0  0  0  0  0  0  0
    2.5767   -1.7889   -1.8195 C   0  0  0  0  0  0  0  0  0  0  0  0
   -1.3870    0.3270   -1.6929 C   0  0  0  0  0  0  0  0  0  0  0  0
   -1.0525    0.9474    1.5871 C   0  0  0  0  0  0  0  0  0  0  0  0
   -3.8669    1.9105   -0.1863 C   0  0  0  0  0  0  0  0  0  0  0  0
   -5.8707   -0.1739    0.4169 C   0  0  0  0  0  0  0  0  0  0  0  0
   -5.3675    2.2699   -0.1488 C   0  0  0  0  0  0  0  0  0  0  0  0
    5.0049   -2.6223    0.3581 C   0  0  0  0  0  0  0  0  0  0  0  0
    5.1431   -0.7531    1.9683 C   0  0  0  0  0  0  0  0  0  0  0  0
   -6.0998    1.2893    0.7858 C   0  0  0  0  0  0  0  0  0  0  0  0
   -4.3980   -1.9212   -0.3879 C   0  0  0  0  0  0  0  0  0  0  0  0
   -5.5258    3.6989    0.4077 C   0  0  0  0  0  0  0  0  0  0  0  0
   -5.9754    2.2475   -1.5640 C   0  0  0  0  0  0  0  0  0  0  0  0
    5.3027    2.8009    0.3995 C   0  0  0  0  0  0  0  0  0  0  0  0
    5.0003    3.6335    1.6084 C   0  0  0  0  0  0  0  0  0  0  0  0
    0.9330    0.7323   -0.0754 H   0  0  0  0  0  0  0  0  0  0  0  0
    2.8900    0.0057    1.1470 H   0  0  0  0  0  0  0  0  0  0  0  0
    0.3102   -2.2815    2.2012 H   0  0  0  0  0  0  0  0  0  0  0  0
    0.9341   -0.6530    2.2830 H   0  0  0  0  0  0  0  0  0  0  0  0
    2.2265   -2.9431    0.7795 H   0  0  0  0  0  0  0  0  0  0  0  0
    2.7262   -2.2064    2.2844 H   0  0  0  0  0  0  0  0  0  0  0  0
    2.4812    1.5283   -1.3873 H   0  0  0  0  0  0  0  0  0  0  0  0
    3.2217    0.4672   -2.5601 H   0  0  0  0  0  0  0  0  0  0  0  0
   -3.9187    0.3171   -1.5831 H   0  0  0  0  0  0  0  0  0  0  0  0
    0.5063    0.9460   -2.3975 H   0  0  0  0  0  0  0  0  0  0  0  0
    0.1450   -0.7598   -2.6047 H   0  0  0  0  0  0  0  0  0  0  0  0
   -1.8972   -1.2932    2.6339 H   0  0  0  0  0  0  0  0  0  0  0  0
   -2.3283   -2.2471    1.2437 H   0  0  0  0  0  0  0  0  0  0  0  0
   -1.1229   -2.3571   -1.1368 H   0  0  0  0  0  0  0  0  0  0  0  0
    0.4764   -2.9767   -0.8089 H   0  0  0  0  0  0  0  0  0  0  0  0
   -0.7737   -3.2181    0.3596 H   0  0  0  0  0  0  0  0  0  0  0  0
   -4.3154   -1.4695    2.3010 H   0  0  0  0  0  0  0  0  0  0  0  0
   -3.7995    0.1965    2.2601 H   0  0  0  0  0  0  0  0  0  0  0  0
    6.2658    0.1380   -0.0449 H   0  0  0  0  0  0  0  0  0  0  0  0
    5.0008    1.5453   -1.6996 H   0  0  0  0  0  0  0  0  0  0  0  0
    3.5979   -1.8525   -2.1989 H   0  0  0  0  0  0  0  0  0  0  0  0
    1.9557   -1.6888   -2.7121 H   0  0  0  0  0  0  0  0  0  0  0  0
    2.3680   -2.7608   -1.3742 H   0  0  0  0  0  0  0  0  0  0  0  0
   -1.9208    0.6610   -2.5803 H   0  0  0  0  0  0  0  0  0  0  0  0
   -0.5342    1.7206    1.0119 H   0  0  0  0  0  0  0  0  0  0  0  0
   -0.4577    0.7320    2.4768 H   0  0  0  0  0  0  0  0  0  0  0  0
   -1.9598    1.4133    1.9774 H   0  0  0  0  0  0  0  0  0  0  0  0
   -3.4425    2.1496    0.7919 H   0  0  0  0  0  0  0  0  0  0  0  0
   -3.3517    2.5670   -0.9010 H   0  0  0  0  0  0  0  0  0  0  0  0
   -6.3869   -0.3826   -0.5298 H   0  0  0  0  0  0  0  0  0  0  0  0
   -6.3817   -0.7933    1.1664 H   0  0  0  0  0  0  0  0  0  0  0  0
    6.0963   -2.7293    0.3407 H   0  0  0  0  0  0  0  0  0  0  0  0
    4.6393   -3.2576    1.1718 H   0  0  0  0  0  0  0  0  0  0  0  0
    4.6248   -3.0374   -0.5773 H   0  0  0  0  0  0  0  0  0  0  0  0
    6.2327   -0.8649    2.0198 H   0  0  0  0  0  0  0  0  0  0  0  0
    4.9073    0.2846    2.2231 H   0  0  0  0  0  0  0  0  0  0  0  0
    4.7212   -1.3872    2.7545 H   0  0  0  0  0  0  0  0  0  0  0  0
   -5.7714    1.4488    1.8209 H   0  0  0  0  0  0  0  0  0  0  0  0
   -7.1780    1.4942    0.7760 H   0  0  0  0  0  0  0  0  0  0  0  0
    6.2067   -0.2784   -2.2267 H   0  0  0  0  0  0  0  0  0  0  0  0
   -5.0055    4.4286   -0.2228 H   0  0  0  0  0  0  0  0  0  0  0  0
   -6.5812    3.9900    0.4559 H   0  0  0  0  0  0  0  0  0  0  0  0
   -5.1130    3.7807    1.4196 H   0  0  0  0  0  0  0  0  0  0  0  0
   -5.4638    2.9607   -2.2205 H   0  0  0  0  0  0  0  0  0  0  0  0
   -5.9080    1.2643   -2.0375 H   0  0  0  0  0  0  0  0  0  0  0  0
   -7.0356    2.5242   -1.5383 H   0  0  0  0  0  0  0  0  0  0  0  0
   -5.1472   -3.6972   -0.1114 H   0  0  0  0  0  0  0  0  0  0  0  0
    4.9751    2.9994    2.4981 H   0  0  0  0  0  0  0  0  0  0  0  0
    5.7851    4.3844    1.7372 H   0  0  0  0  0  0  0  0  0  0  0  0
    4.0452    4.1476    1.4745 H   0  0  0  0  0  0  0  0  0  0  0  0
  1 23  1  0  0  0  0
  1 36  1  0  0  0  0
  2 22  1  0  0  0  0
  2 77  1  0  0  0  0
  3 33  1  0  0  0  0
  3 84  1  0  0  0  0
  4 33  2  0  0  0  0
  5 36  2  0  0  0  0
  6  7  1  0  0  0  0
  6  9  1  0  0  0  0
  6 11  1  0  0  0  0
  6 20  1  0  0  0  0
  7  8  1  0  0  0  0
  7 17  1  0  0  0  0
  7 38  1  0  0  0  0
  8 10  1  0  0  0  0
  8 15  1  0  0  0  0
  8 24  1  0  0  0  0
  9 14  1  0  0  0  0
  9 18  1  0  0  0  0
  9 26  1  0  0  0  0
 10 12  1  0  0  0  0
 10 13  1  0  0  0  0
 10 39  1  0  0  0  0
 11 12  1  0  0  0  0
 11 40  1  0  0  0  0
 11 41  1  0  0  0  0
 12 42  1  0  0  0  0
 12 43  1  0  0  0  0
 13 22  1  0  0  0  0
 13 30  1  0  0  0  0
 13 31  1  0  0  0  0
 14 16  1  0  0  0  0
 14 25  2  0  0  0  0
 15 23  1  0  0  0  0
 15 44  1  0  0  0  0
 15 45  1  0  0  0  0
 16 19  1  0  0  0  0
 16 27  1  0  0  0  0
 16 46  1  0  0  0  0
 17 25  1  0  0  0  0
 17 47  1  0  0  0  0
 17 48  1  0  0  0  0
 18 21  1  0  0  0  0
 18 49  1  0  0  0  0
 18 50  1  0  0  0  0
 19 21  1  0  0  0  0
 19 28  1  0  0  0  0
 19 33  1  0  0  0  0
 20 51  1  0  0  0  0
 20 52  1  0  0  0  0
 20 53  1  0  0  0  0
 21 54  1  0  0  0  0
 21 55  1  0  0  0  0
 22 23  1  0  0  0  0
 22 56  1  0  0  0  0
 23 57  1  0  0  0  0
 24 58  1  0  0  0  0
 24 59  1  0  0  0  0
 24 60  1  0  0  0  0
 25 61  1  0  0  0  0
 26 62  1  0  0  0  0
 26 63  1  0  0  0  0
 26 64  1  0  0  0  0
 27 29  1  0  0  0  0
 27 65  1  0  0  0  0
 27 66  1  0  0  0  0
 28 32  1  0  0  0  0
 28 67  1  0  0  0  0
 28 68  1  0  0  0  0
 29 32  1  0  0  0  0
 29 34  1  0  0  0  0
 29 35  1  0  0  0  0
 30 69  1  0  0  0  0
 30 70  1  0  0  0  0
 30 71  1  0  0  0  0
 31 72  1  0  0  0  0
 31 73  1  0  0  0  0
 31 74  1  0  0  0  0
 32 75  1  0  0  0  0
 32 76  1  0  0  0  0
 34 78  1  0  0  0  0
 34 79  1  0  0  0  0
 34 80  1  0  0  0  0
 35 81  1  0  0  0  0
 35 82  1  0  0  0  0
 35 83  1  0  0  0  0
 36 37  1  0  0  0  0
 37 85  1  0  0  0  0
 37 86  1  0  0  0  0
 37 87  1  0  0  0  0
M  END
> <PUBCHEM_COMPOUND_CID>
21579254

> <PUBCHEM_CONFORMER_RMSD>
0.8

> <PUBCHEM_CONFORMER_DIVERSEORDER>
1
3
4
2

> <PUBCHEM_MMFF94_PARTIAL_CHARGES>
19
1 -0.43
14 -0.28
16 0.14
17 0.14
19 0.06
2 -0.68
22 0.28
23 0.28
25 -0.29
3 -0.65
33 0.66
36 0.66
37 0.06
4 -0.57
5 -0.57
61 0.15
77 0.4
84 0.5
9 0.14

> <PUBCHEM_EFFECTIVE_ROTOR_COUNT>
5.6

> <PUBCHEM_PHARMACOPHORE_FEATURES>
13
1 2 acceptor
1 2 donor
1 3 acceptor
1 4 acceptor
1 5 acceptor
3 13 30 31 hydrophobe
3 29 34 35 hydrophobe
3 3 4 33 anion
6 16 19 27 28 29 32 rings
6 6 7 8 10 11 12 rings
6 6 7 9 14 17 25 rings
6 8 10 13 15 22 23 rings
6 9 14 16 18 19 21 rings

> <PUBCHEM_HEAVY_ATOM_COUNT>
37

> <PUBCHEM_ATOM_DEF_STEREO_COUNT>
9

> <PUBCHEM_ATOM_UDEF_STEREO_COUNT>
0

> <PUBCHEM_BOND_DEF_STEREO_COUNT>
0

> <PUBCHEM_BOND_UDEF_STEREO_COUNT>
0

> <PUBCHEM_ISOTOPIC_ATOM_COUNT>
0

> <PUBCHEM_COMPONENT_COUNT>
1

> <PUBCHEM_CACTVS_TAUTO_COUNT>
1

> <PUBCHEM_CONFORMER_ID>
014945F600000001

> <PUBCHEM_MMFF94_ENERGY>
162.7154

> <PUBCHEM_FEATURE_SELFOVERLAP>
66.109

> <PUBCHEM_SHAPE_FINGERPRINT>
10906281 52 16878811312535877938
11456790 92 17896318009439010880
11479125 193 17770492342319176792
11578080 2 18408039623755857433
11991303 11 17346311631153191095
12236239 1 18260269607822001755
12422481 6 16950562130244941389
12633257 1 15575006094970489511
13583140 156 17703780402095294303
13690498 29 18059006319930657327
13811026 1 18342735222083793476
13911987 19 17203613705144518309
14739800 52 18409158896602210457
14790565 3 18410573968335851867
14849402 71 18260266365791749132
15082195 135 17846223189824639872
15183329 4 17821450136299096927
15840311 113 18260270699181532061
17349148 13 16081371842826622038
17844677 252 18412831278423564752
17980427 23 17895203186105085927
20511986 3 18040988528169573023
20775438 99 11887659698780818940
21033648 29 18041284348268772984
22122407 14 18341902839788597977
23522609 53 17460624470442710372
23559900 14 18128264384631970551
23569914 2 17834345229977036445
23569943 247 16445023107485155771
24771293 8 17968097568922038892
2747138 104 18042701674560104491
34797466 226 18059866068649479727
392239 28 17968367962313406384
4073 2 18040724700844418202
4093350 32 18131355203003076236
4144715 1 18409456877285464675
44317340 157 18201725080482420072
5104073 3 17894911819327932656
513532 50 18409740564914131686
57816373 69 17908126699449363910
6086070 43 18410571773259436360

> <PUBCHEM_SHAPE_MULTIPOLES>
732.1
16.57
3.53
1.8
1.12
2.47
0.06
8.99
-0.72
-0.72
-0.7
-0.74
-0.15
0.78

> <PUBCHEM_SHAPE_SELFOVERLAP>
1553.916

> <PUBCHEM_SHAPE_VOLUME>
403

> <PUBCHEM_COORDINATE_TYPE>
2
5
10

$$$$
