79441
  -OEChem-11212004013D

 25 26  0     0  0  0  0  0  0999 V2000
    2.8755   -0.8982    0.3275 O   0  0  0  0  0  0  0  0  0  0  0  0
   -0.1409    2.7936   -0.0576 O   0  0  0  0  0  0  0  0  0  0  0  0
    0.6953   -2.4669    0.2631 O   0  0  0  0  0  0  0  0  0  0  0  0
   -1.0788    0.6477   -0.0176 C   0  0  0  0  0  0  0  0  0  0  0  0
   -0.8650   -0.7250    0.0653 C   0  0  0  0  0  0  0  0  0  0  0  0
    1.4411    1.0297    0.1372 C   0  0  0  0  0  0  0  0  0  0  0  0
    0.0567    1.5850    0.0154 C   0  0  0  0  0  0  0  0  0  0  0  0
    1.6363   -0.2998    0.2159 C   0  0  0  0  0  0  0  0  0  0  0  0
    0.4999   -1.2585    0.1875 C   0  0  0  0  0  0  0  0  0  0  0  0
   -2.3836    1.1444   -0.1330 C   0  0  0  0  0  0  0  0  0  0  0  0
   -1.9529   -1.6065    0.0328 C   0  0  0  0  0  0  0  0  0  0  0  0
    2.5208    2.0786    0.1609 C   0  0  0  0  0  0  0  0  0  0  0  0
   -3.4661    0.2648   -0.1652 C   0  0  0  0  0  0  0  0  0  0  0  0
   -3.2510   -1.1089   -0.0826 C   0  0  0  0  0  0  0  0  0  0  0  0
    3.4127   -1.1802   -0.9496 C   0  0  0  0  0  0  0  0  0  0  0  0
   -2.5782    2.2116   -0.1993 H   0  0  0  0  0  0  0  0  0  0  0  0
   -1.8106   -2.6820    0.0959 H   0  0  0  0  0  0  0  0  0  0  0  0
    2.3604    2.7768    0.9891 H   0  0  0  0  0  0  0  0  0  0  0  0
    2.5283    2.6416   -0.7783 H   0  0  0  0  0  0  0  0  0  0  0  0
    3.5150    1.6406    0.2932 H   0  0  0  0  0  0  0  0  0  0  0  0
   -4.4771    0.6516   -0.2549 H   0  0  0  0  0  0  0  0  0  0  0  0
   -4.0942   -1.7930   -0.1078 H   0  0  0  0  0  0  0  0  0  0  0  0
    3.5643   -0.2650   -1.5324 H   0  0  0  0  0  0  0  0  0  0  0  0
    2.7784   -1.8774   -1.5080 H   0  0  0  0  0  0  0  0  0  0  0  0
    4.3892   -1.6540   -0.8106 H   0  0  0  0  0  0  0  0  0  0  0  0
  1  8  1  0  0  0  0
  1 15  1  0  0  0  0
  2  7  2  0  0  0  0
  3  9  2  0  0  0  0
  4  5  1  0  0  0  0
  4  7  1  0  0  0  0
  4 10  2  0  0  0  0
  5  9  1  0  0  0  0
  5 11  2  0  0  0  0
  6  7  1  0  0  0  0
  6  8  2  0  0  0  0
  6 12  1  0  0  0  0
  8  9  1  0  0  0  0
 10 13  1  0  0  0  0
 10 16  1  0  0  0  0
 11 14  1  0  0  0  0
 11 17  1  0  0  0  0
 12 18  1  0  0  0  0
 12 19  1  0  0  0  0
 12 20  1  0  0  0  0
 13 14  2  0  0  0  0
 13 21  1  0  0  0  0
 14 22  1  0  0  0  0
 15 23  1  0  0  0  0
 15 24  1  0  0  0  0
 15 25  1  0  0  0  0
M  END
> <PUBCHEM_COMPOUND_CID>
79441

> <PUBCHEM_CONFORMER_RMSD>
0.4

> <PUBCHEM_CONFORMER_DIVERSEORDER>
1
2

> <PUBCHEM_MMFF94_PARTIAL_CHARGES>
19
1 -0.36
10 -0.15
11 -0.15
12 0.14
13 -0.15
14 -0.15
15 0.28
16 0.15
17 0.15
2 -0.57
21 0.15
22 0.15
3 -0.57
4 0.09
5 0.09
6 -0.12
7 0.47
8 0.09
9 0.47

> <PUBCHEM_EFFECTIVE_ROTOR_COUNT>
1

> <PUBCHEM_PHARMACOPHORE_FEATURES>
5
1 1 acceptor
1 2 acceptor
1 3 acceptor
6 4 5 10 11 13 14 rings
6 4 5 6 7 8 9 rings

> <PUBCHEM_HEAVY_ATOM_COUNT>
15

> <PUBCHEM_ATOM_DEF_STEREO_COUNT>
0

> <PUBCHEM_ATOM_UDEF_STEREO_COUNT>
0

> <PUBCHEM_BOND_DEF_STEREO_COUNT>
0

> <PUBCHEM_BOND_UDEF_STEREO_COUNT>
0

> <PUBCHEM_ISOTOPIC_ATOM_COUNT>
0

> <PUBCHEM_COMPONENT_COUNT>
1

> <PUBCHEM_CACTVS_TAUTO_COUNT>
3

> <PUBCHEM_CONFORMER_ID>
0001365100000001

> <PUBCHEM_MMFF94_ENERGY>
45.044

> <PUBCHEM_FEATURE_SELFOVERLAP>
25.4

> <PUBCHEM_SHAPE_FINGERPRINT>
10465860 71 18270137729097292574
10608611 8 18409442609446500053
10967382 1 18266176330151382321
11132069 177 18411692175602553659
11206711 2 18263926527397419212
11471102 20 18337946887746864103
12032990 46 18411143532338487723
13140716 1 18410291414958171456
13221675 6 18338235955640451347
13380535 76 18050279564226972544
14617773 55 17775022175157586009
14911166 2 18337953381109746319
15196674 1 18410572924769269699
15536298 74 18271525385580267528
16945 1 18265890259385572161
17990270 104 18337668749368976681
18186145 218 18334290972397027373
193761 8 17545598950921291451
20201158 50 18337387154323313039
20588541 1 18338801087453070295
20645477 70 18342168995096537183
21267235 1 18411427202249318891
21501502 16 18339078293416736137
22721475 48 18339927008707940982
22802520 49 18342188773035864966
2334 1 18337952418979062480
23402539 116 18340198601656383598
23463225 33 18408317795907595744
23552423 10 18334855047674097507
23559900 14 18341614755832781022
2748010 2 18337668714914344636
335352 9 18194681466881229597
528886 8 18410567396719144075
63268167 104 18340771554124127777
7364860 26 18199186359510248032
8809292 202 18260271858358510803

> <PUBCHEM_SHAPE_MULTIPOLES>
291.09
5.07
2.55
0.68
0.54
0.61
0.06
-0.93
0.68
-0.84
-0.04
-0.2
-0.09
0.31

> <PUBCHEM_SHAPE_SELFOVERLAP>
634.517

> <PUBCHEM_SHAPE_VOLUME>
158.8

> <PUBCHEM_COORDINATE_TYPE>
2
5
10

$$$$
