69866203
  -OEChem-11212004043D

 33 35  0     0  0  0  0  0  0999 V2000
    0.5770   -1.5277    0.1688 O   0  0  0  0  0  0  0  0  0  0  0  0
   -4.2181    1.2055   -0.1349 O   0  0  0  0  0  0  0  0  0  0  0  0
   -4.1587   -1.5547    0.1698 O   0  0  0  0  0  0  0  0  0  0  0  0
    0.6647    2.5385   -0.2804 O   0  0  0  0  0  0  0  0  0  0  0  0
    3.2989    2.4755   -0.2728 O   0  0  0  0  0  0  0  0  0  0  0  0
    5.3107   -1.7986    0.2021 O   0  0  0  0  0  0  0  0  0  0  0  0
   -0.6171    0.5898   -0.0654 C   0  0  0  0  0  0  0  0  0  0  0  0
    1.8852    0.5223   -0.0570 C   0  0  0  0  0  0  0  0  0  0  0  0
   -0.5822   -0.7959    0.0875 C   0  0  0  0  0  0  0  0  0  0  0  0
    1.7745   -0.8595    0.0957 C   0  0  0  0  0  0  0  0  0  0  0  0
    0.6550    1.3237   -0.1461 C   0  0  0  0  0  0  0  0  0  0  0  0
   -1.8379    1.2653   -0.1404 C   0  0  0  0  0  0  0  0  0  0  0  0
   -1.7780   -1.5127    0.1662 C   0  0  0  0  0  0  0  0  0  0  0  0
   -3.0293    0.5437   -0.0612 C   0  0  0  0  0  0  0  0  0  0  0  0
    3.1412    1.1309   -0.1235 C   0  0  0  0  0  0  0  0  0  0  0  0
   -2.9997   -0.8426    0.0918 C   0  0  0  0  0  0  0  0  0  0  0  0
    2.9294   -1.6398    0.1824 C   0  0  0  0  0  0  0  0  0  0  0  0
    4.2913    0.3461   -0.0361 C   0  0  0  0  0  0  0  0  0  0  0  0
    4.1859   -1.0365    0.1167 C   0  0  0  0  0  0  0  0  0  0  0  0
   -4.7838    1.6593    1.0932 C   0  0  0  0  0  0  0  0  0  0  0  0
   -4.7090   -2.0325   -1.0563 C   0  0  0  0  0  0  0  0  0  0  0  0
   -1.8743    2.3449   -0.2605 H   0  0  0  0  0  0  0  0  0  0  0  0
   -1.7587   -2.5933    0.2862 H   0  0  0  0  0  0  0  0  0  0  0  0
    2.8448   -2.7174    0.3014 H   0  0  0  0  0  0  0  0  0  0  0  0
    5.2728    0.8114   -0.0870 H   0  0  0  0  0  0  0  0  0  0  0  0
    2.4360    2.9147   -0.3226 H   0  0  0  0  0  0  0  0  0  0  0  0
   -5.7299    2.1600    0.8701 H   0  0  0  0  0  0  0  0  0  0  0  0
   -4.1153    2.3754    1.5817 H   0  0  0  0  0  0  0  0  0  0  0  0
   -4.9834    0.8153    1.7609 H   0  0  0  0  0  0  0  0  0  0  0  0
   -4.9468   -1.1979   -1.7233 H   0  0  0  0  0  0  0  0  0  0  0  0
   -4.0124   -2.7195   -1.5472 H   0  0  0  0  0  0  0  0  0  0  0  0
   -5.6321   -2.5730   -0.8298 H   0  0  0  0  0  0  0  0  0  0  0  0
    5.0531   -2.7308    0.3051 H   0  0  0  0  0  0  0  0  0  0  0  0
  1  9  1  0  0  0  0
  1 10  1  0  0  0  0
  2 14  1  0  0  0  0
  2 20  1  0  0  0  0
  3 16  1  0  0  0  0
  3 21  1  0  0  0  0
  4 11  2  0  0  0  0
  5 15  1  0  0  0  0
  5 26  1  0  0  0  0
  6 19  1  0  0  0  0
  6 33  1  0  0  0  0
  7  9  1  0  0  0  0
  7 11  1  0  0  0  0
  7 12  2  0  0  0  0
  8 10  1  0  0  0  0
  8 11  1  0  0  0  0
  8 15  2  0  0  0  0
  9 13  2  0  0  0  0
 10 17  2  0  0  0  0
 12 14  1  0  0  0  0
 12 22  1  0  0  0  0
 13 16  1  0  0  0  0
 13 23  1  0  0  0  0
 14 16  2  0  0  0  0
 15 18  1  0  0  0  0
 17 19  1  0  0  0  0
 17 24  1  0  0  0  0
 18 19  2  0  0  0  0
 18 25  1  0  0  0  0
 20 27  1  0  0  0  0
 20 28  1  0  0  0  0
 20 29  1  0  0  0  0
 21 30  1  0  0  0  0
 21 31  1  0  0  0  0
 21 32  1  0  0  0  0
M  END
> <PUBCHEM_COMPOUND_CID>
69866203

> <PUBCHEM_CONFORMER_RMSD>
0.6

> <PUBCHEM_CONFORMER_DIVERSEORDER>
2
1

> <PUBCHEM_MMFF94_PARTIAL_CHARGES>
27
1 -0.17
10 0.08
11 0.4
12 -0.15
13 -0.15
14 0.08
15 0.08
16 0.08
17 -0.15
18 -0.15
19 0.08
2 -0.36
20 0.28
21 0.28
22 0.15
23 0.15
24 0.15
25 0.15
26 0.45
3 -0.36
33 0.45
4 -0.57
5 -0.53
6 -0.53
7 0.09
8 0.09
9 0.08

> <PUBCHEM_EFFECTIVE_ROTOR_COUNT>
2

> <PUBCHEM_PHARMACOPHORE_FEATURES>
9
1 1 acceptor
1 2 acceptor
1 3 acceptor
1 4 acceptor
1 5 donor
1 6 donor
6 1 7 8 9 10 11 rings
6 7 9 12 13 14 16 rings
6 8 10 15 17 18 19 rings

> <PUBCHEM_HEAVY_ATOM_COUNT>
21

> <PUBCHEM_ATOM_DEF_STEREO_COUNT>
0

> <PUBCHEM_ATOM_UDEF_STEREO_COUNT>
0

> <PUBCHEM_BOND_DEF_STEREO_COUNT>
0

> <PUBCHEM_BOND_UDEF_STEREO_COUNT>
0

> <PUBCHEM_ISOTOPIC_ATOM_COUNT>
0

> <PUBCHEM_COMPONENT_COUNT>
1

> <PUBCHEM_CACTVS_TAUTO_COUNT>
12

> <PUBCHEM_CONFORMER_ID>
042A12DB00000002

> <PUBCHEM_MMFF94_ENERGY>
84.5638

> <PUBCHEM_FEATURE_SELFOVERLAP>
45.733

> <PUBCHEM_SHAPE_FINGERPRINT>
10062212 137 18341889697483628855
10616163 171 18413109480609283503
10967382 1 18264771141569764964
11405975 8 18412546491969047001
11471102 20 18408319982583961108
11806522 49 18337105786678541439
12107183 9 18124599669521222683
12236239 1 18060416881146855953
12403259 226 18410003360107919861
13140716 1 18409453578592241424
13167823 11 18413105086894494007
13583140 156 15769483258032221887
13760787 5 17894918429319485038
13862211 1 18408316679749511338
15196674 1 18410012147599840736
15442244 35 18410294709250918984
15536298 74 18412544336206667920
16945 1 18120098535178692738
17492 89 18339080496561723703
17804303 29 18411703175108841508
1813 80 17095244722023708804
18186145 218 17530679913846055722
19141452 34 18341051826757746261
19591789 44 18409165523815687018
200 152 18272364313226632327
20281475 54 18410855477413844413
20645477 70 18410008870919979054
20691752 17 17676202481005434752
21267235 1 18409737273993658491
21421861 104 17753047198663693610
21452121 103 18341885347124980568
21501502 16 18410857685369653037
21709351 56 18410005524807912518
221490 88 18262244420904893610
23402539 116 18341607088340295990
23463225 33 18408604760274562260
23559900 14 18412822474257592264
23622692 118 18272078448909448431
2871803 45 18187075182853042959
312423 11 18335991964398966303
335352 9 18337673005570868965
34934 24 18263921038840690731
4214541 1 18411418393260423057
474 4 17459473441014449580
5104073 3 18410575101858825257
633830 44 17312825978522169057
7364860 26 18267303316938496184
77779 3 18410576201391525155
9709674 26 18336270131871375650
9981440 41 17399513923314106832

> <PUBCHEM_SHAPE_MULTIPOLES>
396.95
10.21
2.48
0.73
1.03
0.4
-0.01
-2.18
-0.34
0.24
0.14
0.51
-0.01
-1.14

> <PUBCHEM_SHAPE_SELFOVERLAP>
884.731

> <PUBCHEM_SHAPE_VOLUME>
212.3

> <PUBCHEM_COORDINATE_TYPE>
2
5
10

$$$$
