12304094
  -OEChem-11212003503D

 51 54  0     1  0  0  0  0  0999 V2000
    3.4295    0.0315   -0.5739 O   0  0  0  0  0  0  0  0  0  0  0  0
    2.6342   -0.5968    1.5275 O   0  0  0  0  0  0  0  0  0  0  0  0
    4.5981    3.1999    0.6709 O   0  0  0  0  0  0  0  0  0  0  0  0
    6.2856    0.4196   -0.9677 O   0  0  0  0  0  0  0  0  0  0  0  0
    4.2472    1.3876    2.7299 O   0  0  0  0  0  0  0  0  0  0  0  0
    2.7974    0.0711   -3.2355 O   0  0  0  0  0  0  0  0  0  0  0  0
   -1.9486    0.0243    0.4458 O   0  0  0  0  0  0  0  0  0  0  0  0
    0.1422   -4.3203   -0.0532 O   0  0  0  0  0  0  0  0  0  0  0  0
   -2.3819   -3.8837   -0.6211 O   0  0  0  0  0  0  0  0  0  0  0  0
   -7.2981    3.3400   -0.1642 O   0  0  0  0  0  0  0  0  0  0  0  0
    5.2564    1.9355    0.5947 C   0  0  2  0  0  0  0  0  0  0  0  0
    5.3588    1.5000   -0.8692 C   0  0  2  0  0  0  0  0  0  0  0  0
    4.5077    0.8849    1.4232 C   0  0  2  0  0  0  0  0  0  0  0  0
    3.9920    1.0473   -1.4116 C   0  0  1  0  0  0  0  0  0  0  0  0
    3.1912    0.4724    0.7625 C   0  0  1  0  0  0  0  0  0  0  0  0
    4.0909    0.4703   -2.8199 C   0  0  0  0  0  0  0  0  0  0  0  0
    1.4541   -1.1148    1.0826 C   0  0  0  0  0  0  0  0  0  0  0  0
    0.3290   -0.2962    0.9801 C   0  0  0  0  0  0  0  0  0  0  0  0
    1.3735   -2.4631    0.7314 C   0  0  0  0  0  0  0  0  0  0  0  0
   -0.8772   -0.8290    0.5249 C   0  0  0  0  0  0  0  0  0  0  0  0
   -0.9557   -2.1759    0.1748 C   0  0  0  0  0  0  0  0  0  0  0  0
    0.1681   -2.9989    0.2762 C   0  0  0  0  0  0  0  0  0  0  0  0
   -2.2405   -2.7118   -0.3003 C   0  0  0  0  0  0  0  0  0  0  0  0
   -3.1590   -0.4756   -0.0098 C   0  0  0  0  0  0  0  0  0  0  0  0
   -3.3617   -1.7531   -0.3696 C   0  0  0  0  0  0  0  0  0  0  0  0
   -4.2444    0.5248   -0.0496 C   0  0  0  0  0  0  0  0  0  0  0  0
   -5.5694    0.1315    0.1536 C   0  0  0  0  0  0  0  0  0  0  0  0
   -3.9509    1.8691   -0.2915 C   0  0  0  0  0  0  0  0  0  0  0  0
   -6.5945    1.0768    0.1151 C   0  0  0  0  0  0  0  0  0  0  0  0
   -4.9759    2.8143   -0.3298 C   0  0  0  0  0  0  0  0  0  0  0  0
   -6.2978    2.4181   -0.1265 C   0  0  0  0  0  0  0  0  0  0  0  0
    6.2545    2.0786    1.0241 H   0  0  0  0  0  0  0  0  0  0  0  0
    5.7405    2.3230   -1.4838 H   0  0  0  0  0  0  0  0  0  0  0  0
    5.1465    0.0007    1.5406 H   0  0  0  0  0  0  0  0  0  0  0  0
    3.2855    1.8867   -1.4328 H   0  0  0  0  0  0  0  0  0  0  0  0
    2.4918    1.3174    0.7634 H   0  0  0  0  0  0  0  0  0  0  0  0
    4.4734    1.2120   -3.5272 H   0  0  0  0  0  0  0  0  0  0  0  0
    4.7315   -0.4165   -2.8567 H   0  0  0  0  0  0  0  0  0  0  0  0
    3.6920    3.1039    0.3363 H   0  0  0  0  0  0  0  0  0  0  0  0
    5.8845   -0.3644   -0.5564 H   0  0  0  0  0  0  0  0  0  0  0  0
    3.7587    0.7005    3.2147 H   0  0  0  0  0  0  0  0  0  0  0  0
    2.4684   -0.5788   -2.5909 H   0  0  0  0  0  0  0  0  0  0  0  0
    0.3751    0.7507    1.2680 H   0  0  0  0  0  0  0  0  0  0  0  0
    2.2540   -3.0959    0.8129 H   0  0  0  0  0  0  0  0  0  0  0  0
   -4.3055   -2.1385   -0.7370 H   0  0  0  0  0  0  0  0  0  0  0  0
   -0.7417   -4.5779   -0.3569 H   0  0  0  0  0  0  0  0  0  0  0  0
   -5.8396   -0.8994    0.3663 H   0  0  0  0  0  0  0  0  0  0  0  0
   -2.9307    2.2044   -0.4618 H   0  0  0  0  0  0  0  0  0  0  0  0
   -7.6198    0.7565    0.2798 H   0  0  0  0  0  0  0  0  0  0  0  0
   -4.7390    3.8575   -0.5204 H   0  0  0  0  0  0  0  0  0  0  0  0
   -8.1462    2.8916   -0.0036 H   0  0  0  0  0  0  0  0  0  0  0  0
  1 14  1  0  0  0  0
  1 15  1  0  0  0  0
  2 15  1  0  0  0  0
  2 17  1  0  0  0  0
  3 11  1  0  0  0  0
  3 39  1  0  0  0  0
  4 12  1  0  0  0  0
  4 40  1  0  0  0  0
  5 13  1  0  0  0  0
  5 41  1  0  0  0  0
  6 16  1  0  0  0  0
  6 42  1  0  0  0  0
  7 20  1  0  0  0  0
  7 24  1  0  0  0  0
  8 22  1  0  0  0  0
  8 46  1  0  0  0  0
  9 23  2  0  0  0  0
 10 31  1  0  0  0  0
 10 51  1  0  0  0  0
 11 12  1  0  0  0  0
 11 13  1  0  0  0  0
 11 32  1  0  0  0  0
 12 14  1  0  0  0  0
 12 33  1  0  0  0  0
 13 15  1  0  0  0  0
 13 34  1  0  0  0  0
 14 16  1  0  0  0  0
 14 35  1  0  0  0  0
 15 36  1  0  0  0  0
 16 37  1  0  0  0  0
 16 38  1  0  0  0  0
 17 18  1  0  0  0  0
 17 19  2  0  0  0  0
 18 20  2  0  0  0  0
 18 43  1  0  0  0  0
 19 22  1  0  0  0  0
 19 44  1  0  0  0  0
 20 21  1  0  0  0  0
 21 22  2  0  0  0  0
 21 23  1  0  0  0  0
 23 25  1  0  0  0  0
 24 25  2  0  0  0  0
 24 26  1  0  0  0  0
 25 45  1  0  0  0  0
 26 27  2  0  0  0  0
 26 28  1  0  0  0  0
 27 29  1  0  0  0  0
 27 47  1  0  0  0  0
 28 30  2  0  0  0  0
 28 48  1  0  0  0  0
 29 31  2  0  0  0  0
 29 49  1  0  0  0  0
 30 31  1  0  0  0  0
 30 50  1  0  0  0  0
M  END
> <PUBCHEM_COMPOUND_CID>
12304094

> <PUBCHEM_CONFORMER_RMSD>
0.8

> <PUBCHEM_CONFORMER_DIVERSEORDER>
2
63
62
73
33
75
18
51
59
80
71
45
53
74
88
40
61
67
57
50
22
43
8
76
83
77
58
24
32
55
46
35
86
31
52
44
69
27
19
3
23
42
34
47
91
38
11
60
66
54
25
68
79
21
6
26
28
87
30
16
78
1
7
84
20
14
65
13
39
12
37
49
41
72
56
70
85
64
29
36
48
15
9
81
4
82
17
5
10
89
90

> <PUBCHEM_MMFF94_PARTIAL_CHARGES>
44
1 -0.56
10 -0.53
11 0.28
12 0.28
13 0.28
14 0.28
15 0.56
16 0.28
17 0.08
18 -0.15
19 -0.15
2 -0.36
20 0.08
21 0.09
22 0.08
23 0.47
24 0.05
25 -0.14
26 0.03
27 -0.15
28 -0.15
29 -0.15
3 -0.68
30 -0.15
31 0.08
39 0.4
4 -0.68
40 0.4
41 0.4
42 0.4
43 0.15
44 0.15
45 0.15
46 0.45
47 0.15
48 0.15
49 0.15
5 -0.68
50 0.15
51 0.45
6 -0.68
7 -0.16
8 -0.53
9 -0.57

> <PUBCHEM_EFFECTIVE_ROTOR_COUNT>
5.2

> <PUBCHEM_PHARMACOPHORE_FEATURES>
18
1 1 acceptor
1 10 donor
1 2 acceptor
1 3 acceptor
1 3 donor
1 4 acceptor
1 4 donor
1 5 acceptor
1 5 donor
1 6 acceptor
1 6 donor
1 7 acceptor
1 8 donor
1 9 acceptor
6 1 11 12 13 14 15 rings
6 17 18 19 20 21 22 rings
6 26 27 28 29 30 31 rings
6 7 20 21 23 24 25 rings

> <PUBCHEM_HEAVY_ATOM_COUNT>
31

> <PUBCHEM_ATOM_DEF_STEREO_COUNT>
5

> <PUBCHEM_ATOM_UDEF_STEREO_COUNT>
0

> <PUBCHEM_BOND_DEF_STEREO_COUNT>
0

> <PUBCHEM_BOND_UDEF_STEREO_COUNT>
0

> <PUBCHEM_ISOTOPIC_ATOM_COUNT>
0

> <PUBCHEM_COMPONENT_COUNT>
1

> <PUBCHEM_CACTVS_TAUTO_COUNT>
21

> <PUBCHEM_CONFORMER_ID>
00BBBEDE00000002

> <PUBCHEM_MMFF94_ENERGY>
104.9167

> <PUBCHEM_FEATURE_SELFOVERLAP>
91.449

> <PUBCHEM_SHAPE_FINGERPRINT>
10615611 76 17531534290131036422
10670039 82 18334856155918149974
10721379 63 18055923090824376022
11720765 8 17844255012972467214
12107183 9 18263625322074492666
12390115 104 18343587348111736331
12422481 6 17095794430550628797
12633257 1 15502659342359559232
12788726 201 17173225570048233418
13540713 5 18265871653957589723
13617811 41 18050005790296403527
13944108 23 18053383206480238569
14294032 229 18260259755293437365
1454969 45 18410287039610472759
14790565 3 18411697656524577689
14840074 17 17603305968296504549
15163728 17 18335709329575812215
15183329 4 15985107384128575641
15198563 99 17982443004483326583
15297060 5 18412554201414400136
15513586 35 16953385882205861717
15721738 202 11169920476841560110
15961568 22 17822578205428694909
17134984 74 14404889302289651317
19304671 126 17489584541656403585
21033648 29 18340761645761488616
21033650 10 18118698836061437730
21302155 148 18334857212775581665
21315764 119 18340217327745248022
22122407 14 17168722910902512597
23559900 14 18131357449186621170
2838139 119 18411410722148152059
3388396 114 17185875537124519373
3459 39 18334849515756636533
3472631 163 18340485659462727460
38570 142 17168728396028846094
44249763 50 17845076553514693672
513532 50 18202002084382247604
5219985 13 18410006607804321927
5283173 99 18198625621749496088
59025328 239 14549027567678001626
5951187 136 18412550937788394644
59682541 52 16056880191601332485
6609424 69 16879906340312600670
7288768 16 17967249806549350563
7808743 9 18410566319072834003
7970288 3 9583526425072581881
960060 61 15339119039390534416
9849439 229 18409162195637805043

> <PUBCHEM_SHAPE_MULTIPOLES>
579.27
16.35
4.16
1.77
9.53
2.58
-0.91
-19.1
-1.58
3.64
-0.06
-4.06
-0.53
0.1

> <PUBCHEM_SHAPE_SELFOVERLAP>
1271.392

> <PUBCHEM_SHAPE_VOLUME>
309.5

> <PUBCHEM_COORDINATE_TYPE>
2
5
10

$$$$
