15101829
  -OEChem-11212003483D

 61 64  0     1  0  0  0  0  0999 V2000
    1.7916    1.7282    0.2761 O   0  0  0  0  0  0  0  0  0  0  0  0
   -1.9357   -0.6703   -0.6932 O   0  0  0  0  0  0  0  0  0  0  0  0
    0.9620   -0.0360    1.5580 O   0  0  0  0  0  0  0  0  0  0  0  0
   -1.2035   -1.7426    1.2453 O   0  0  0  0  0  0  0  0  0  0  0  0
   -0.9931    4.3259    1.8138 O   0  0  0  0  0  0  0  0  0  0  0  0
    0.4255    5.0085   -0.6106 O   0  0  0  0  0  0  0  0  0  0  0  0
   -5.7570   -0.3429    0.7754 O   0  0  0  0  0  0  0  0  0  0  0  0
   -5.2706   -0.0076   -2.0543 O   0  0  0  0  0  0  0  0  0  0  0  0
   -1.4318    1.4165    1.9678 O   0  0  0  0  0  0  0  0  0  0  0  0
   -3.8919   -2.3183    1.9157 O   0  0  0  0  0  0  0  0  0  0  0  0
    3.4579    2.3202   -1.8285 O   0  0  0  0  0  0  0  0  0  0  0  0
   -1.2219   -0.0852   -3.2825 O   0  0  0  0  0  0  0  0  0  0  0  0
    3.4318   -0.7233    0.5838 O   0  0  0  0  0  0  0  0  0  0  0  0
    5.6498   -0.2565    0.2553 O   0  0  0  0  0  0  0  0  0  0  0  0
   -0.4913    3.3595    0.8891 C   0  0  1  0  0  0  0  0  0  0  0  0
    0.7759    3.9289    0.2512 C   0  0  1  0  0  0  0  0  0  0  0  0
   -4.6864   -0.9770    0.0737 C   0  0  1  0  0  0  0  0  0  0  0  0
   -4.2498   -0.0497   -1.0606 C   0  0  1  0  0  0  0  0  0  0  0  0
   -0.2003    2.0525    1.6268 C   0  0  2  0  0  0  0  0  0  0  0  0
   -3.5341   -1.2486    1.0411 C   0  0  2  0  0  0  0  0  0  0  0  0
    1.5076    2.8541   -0.5562 C   0  0  1  0  0  0  0  0  0  0  0  0
   -2.9469   -0.5430   -1.6944 C   0  0  1  0  0  0  0  0  0  0  0  0
    0.6101    1.0916    0.7569 C   0  0  1  0  0  0  0  0  0  0  0  0
   -2.2620   -1.6470    0.2928 C   0  0  1  0  0  0  0  0  0  0  0  0
    2.8352    3.3665   -1.1057 C   0  0  0  0  0  0  0  0  0  0  0  0
   -2.4292    0.4287   -2.7501 C   0  0  0  0  0  0  0  0  0  0  0  0
    1.1108   -1.2282    0.9180 C   0  0  0  0  0  0  0  0  0  0  0  0
    0.0282   -2.0861    0.7595 C   0  0  0  0  0  0  0  0  0  0  0  0
    2.3504   -1.6111    0.4098 C   0  0  0  0  0  0  0  0  0  0  0  0
    0.1838   -3.3066    0.1040 C   0  0  0  0  0  0  0  0  0  0  0  0
    2.5291   -2.8250   -0.2483 C   0  0  0  0  0  0  0  0  0  0  0  0
    1.4335   -3.6778   -0.4006 C   0  0  0  0  0  0  0  0  0  0  0  0
    3.8495   -3.1607   -0.7533 C   0  0  0  0  0  0  0  0  0  0  0  0
    4.7045   -1.0234    0.1090 C   0  0  0  0  0  0  0  0  0  0  0  0
    4.8684   -2.3142   -0.5850 C   0  0  0  0  0  0  0  0  0  0  0  0
   -1.2772    3.2119    0.1379 H   0  0  0  0  0  0  0  0  0  0  0  0
    1.4282    4.3333    1.0349 H   0  0  0  0  0  0  0  0  0  0  0  0
   -5.0892   -1.9181   -0.3205 H   0  0  0  0  0  0  0  0  0  0  0  0
   -4.1274    0.9688   -0.6719 H   0  0  0  0  0  0  0  0  0  0  0  0
    0.3230    2.2559    2.5686 H   0  0  0  0  0  0  0  0  0  0  0  0
   -3.3626   -0.3751    1.6774 H   0  0  0  0  0  0  0  0  0  0  0  0
    0.8979    2.5149   -1.4050 H   0  0  0  0  0  0  0  0  0  0  0  0
   -3.0871   -1.5213   -2.1741 H   0  0  0  0  0  0  0  0  0  0  0  0
    0.0128    0.7631   -0.1017 H   0  0  0  0  0  0  0  0  0  0  0  0
   -2.4101   -2.6239   -0.1856 H   0  0  0  0  0  0  0  0  0  0  0  0
    2.6938    4.2151   -1.7809 H   0  0  0  0  0  0  0  0  0  0  0  0
    3.5138    3.6652   -0.2999 H   0  0  0  0  0  0  0  0  0  0  0  0
   -3.1419    0.5544   -3.5701 H   0  0  0  0  0  0  0  0  0  0  0  0
   -2.2111    1.4108   -2.3172 H   0  0  0  0  0  0  0  0  0  0  0  0
   -1.1552    5.1466    1.3176 H   0  0  0  0  0  0  0  0  0  0  0  0
   -0.1478    4.6578   -1.3135 H   0  0  0  0  0  0  0  0  0  0  0  0
   -6.4658   -0.1717    0.1318 H   0  0  0  0  0  0  0  0  0  0  0  0
   -5.3806   -0.9059   -2.4101 H   0  0  0  0  0  0  0  0  0  0  0  0
   -1.9265    1.2703    1.1435 H   0  0  0  0  0  0  0  0  0  0  0  0
   -4.0577   -3.1086    1.3739 H   0  0  0  0  0  0  0  0  0  0  0  0
   -0.6490   -3.9949   -0.0090 H   0  0  0  0  0  0  0  0  0  0  0  0
    3.5716    1.5695   -1.2207 H   0  0  0  0  0  0  0  0  0  0  0  0
   -0.5974   -0.1932   -2.5446 H   0  0  0  0  0  0  0  0  0  0  0  0
    1.5382   -4.6349   -0.9055 H   0  0  0  0  0  0  0  0  0  0  0  0
    3.9925   -4.1051   -1.2667 H   0  0  0  0  0  0  0  0  0  0  0  0
    5.8568   -2.5576   -0.9594 H   0  0  0  0  0  0  0  0  0  0  0  0
  1 21  1  0  0  0  0
  1 23  1  0  0  0  0
  2 22  1  0  0  0  0
  2 24  1  0  0  0  0
  3 23  1  0  0  0  0
  3 27  1  0  0  0  0
  4 24  1  0  0  0  0
  4 28  1  0  0  0  0
  5 15  1  0  0  0  0
  5 50  1  0  0  0  0
  6 16  1  0  0  0  0
  6 51  1  0  0  0  0
  7 17  1  0  0  0  0
  7 52  1  0  0  0  0
  8 18  1  0  0  0  0
  8 53  1  0  0  0  0
  9 19  1  0  0  0  0
  9 54  1  0  0  0  0
 10 20  1  0  0  0  0
 10 55  1  0  0  0  0
 11 25  1  0  0  0  0
 11 57  1  0  0  0  0
 12 26  1  0  0  0  0
 12 58  1  0  0  0  0
 13 29  1  0  0  0  0
 13 34  1  0  0  0  0
 14 34  2  0  0  0  0
 15 16  1  0  0  0  0
 15 19  1  0  0  0  0
 15 36  1  0  0  0  0
 16 21  1  0  0  0  0
 16 37  1  0  0  0  0
 17 18  1  0  0  0  0
 17 20  1  0  0  0  0
 17 38  1  0  0  0  0
 18 22  1  0  0  0  0
 18 39  1  0  0  0  0
 19 23  1  0  0  0  0
 19 40  1  0  0  0  0
 20 24  1  0  0  0  0
 20 41  1  0  0  0  0
 21 25  1  0  0  0  0
 21 42  1  0  0  0  0
 22 26  1  0  0  0  0
 22 43  1  0  0  0  0
 23 44  1  0  0  0  0
 24 45  1  0  0  0  0
 25 46  1  0  0  0  0
 25 47  1  0  0  0  0
 26 48  1  0  0  0  0
 26 49  1  0  0  0  0
 27 28  2  0  0  0  0
 27 29  1  0  0  0  0
 28 30  1  0  0  0  0
 29 31  2  0  0  0  0
 30 32  2  0  0  0  0
 30 56  1  0  0  0  0
 31 32  1  0  0  0  0
 31 33  1  0  0  0  0
 32 59  1  0  0  0  0
 33 35  2  0  0  0  0
 33 60  1  0  0  0  0
 34 35  1  0  0  0  0
 35 61  1  0  0  0  0
M  END
> <PUBCHEM_COMPOUND_CID>
15101829

> <PUBCHEM_CONFORMER_RMSD>
1

> <PUBCHEM_CONFORMER_DIVERSEORDER>
1
39
468
123
317
406
38
309
215
138
323
423
125
358
439
300
315
444
57
261
52
116
6
340
411
42
293
401
208
428
318
183
489
458
311
435
212
237
76
499
75
442
72
34
299
482
361
449
18
451
103
290
4
301
181
231
124
342
408
405
53
59
207
289
3
366
93
490
179
264
392
203
429
397
162
294
440
182
168
472
407
356
170
270
71
417
434
473
58
165
415
254
494
56
334
355
357
256
360
166
470
314
200
483
453
106
466
437
338
368
284
198
455
393
409
81
85
10
267
69
209
217
154
330
30
292
266
478
278
43
102
147
248
214
433
286
119
51
425
185
88
32
339
313
283
362
226
80
383
452
269
496
156
350
404
486
233
174
142
322
7
280
92
378
24
420
382
197
79
367
175
394
467
371
327
28
151
193
36
192
363
474
376
211
171
246
481
189
421
157
129
445
462
326
195
234
220
61
15
29
275
325
158
87
463
173
241
370
74
107
153
199
469
319
204
96
265
150
260
255
122
398
448
84
46
16
186
396
419
45
303
443
287
438
273
20
253
110
137
436
263
431
236
131
495
347
99
64
441
78
344
5
70
143
375
312
306
364
65
258
447
331
353
456
23
115
77
62
112
176
60
240
391
227
249
282
343
25
83
86
480
281
221
202
305
90
239
172
113
274
329
117
155
461
369
320
167
454
190
259
148
184
410
101
477
11
250
127
67
380
55
491
285
19
384
41
120
359
337
341
298
229
118
251
335
128
17
191
302
35
296
400
389
413
97
14
333
422
225
66
459
432
89
372
328
44
9
114
488
493
272
149
91
238
247
111
201
345
464
351
336
487
206
252
288
276
354
414
63
205
245
135
348
308
49
152
222
297
310
385
402
244
349
54
95
40
446
146
497
213
242
132
476
388
109
12
219
8
291
216
430
321
307
141
100
426
387
460
316
416
224
139
2
159
304
196
279
465
73
47
94
145
13
218
223
82
230
412
133
37
163
26
232
188
484
346
471
104
130
22
492
479
21
257
160
352
498
381
399
475
324
418
424
108
365
164
373
50
136
379
395
144
31
243
210
177
390
485
161
27
235
262
374
98
178
277
140
105
180
228
134
271
169
268
33
68
194
386
427
121
377
295
457
126
450
332
403
48
187

> <PUBCHEM_MMFF94_PARTIAL_CHARGES>
47
1 -0.56
10 -0.68
11 -0.68
12 -0.68
13 -0.23
14 -0.57
15 0.28
16 0.28
17 0.28
18 0.28
19 0.28
2 -0.56
20 0.28
21 0.28
22 0.28
23 0.56
24 0.56
25 0.28
26 0.28
27 0.08
28 0.08
29 0.08
3 -0.36
30 -0.15
31 0.03
32 -0.15
33 -0.18
34 0.71
35 -0.14
4 -0.36
5 -0.68
50 0.4
51 0.4
52 0.4
53 0.4
54 0.4
55 0.4
56 0.15
57 0.4
58 0.4
59 0.15
6 -0.68
60 0.15
61 0.15
7 -0.68
8 -0.68
9 -0.68

> <PUBCHEM_EFFECTIVE_ROTOR_COUNT>
8.4

> <PUBCHEM_PHARMACOPHORE_FEATURES>
25
1 1 acceptor
1 10 acceptor
1 10 donor
1 11 acceptor
1 11 donor
1 12 acceptor
1 12 donor
1 14 acceptor
1 2 acceptor
1 3 acceptor
1 4 acceptor
1 5 acceptor
1 5 donor
1 6 acceptor
1 6 donor
1 7 acceptor
1 7 donor
1 8 acceptor
1 8 donor
1 9 acceptor
1 9 donor
6 1 15 16 19 21 23 rings
6 13 29 31 33 34 35 rings
6 2 17 18 20 22 24 rings
6 27 28 29 30 31 32 rings

> <PUBCHEM_HEAVY_ATOM_COUNT>
35

> <PUBCHEM_ATOM_DEF_STEREO_COUNT>
10

> <PUBCHEM_ATOM_UDEF_STEREO_COUNT>
0

> <PUBCHEM_BOND_DEF_STEREO_COUNT>
0

> <PUBCHEM_BOND_UDEF_STEREO_COUNT>
0

> <PUBCHEM_ISOTOPIC_ATOM_COUNT>
0

> <PUBCHEM_COMPONENT_COUNT>
1

> <PUBCHEM_CACTVS_TAUTO_COUNT>
1

> <PUBCHEM_CONFORMER_ID>
00E66F8500000001

> <PUBCHEM_MMFF94_ENERGY>
121.8848

> <PUBCHEM_FEATURE_SELFOVERLAP>
127.054

> <PUBCHEM_SHAPE_FINGERPRINT>
10165383 225 17830184858649832189
10930396 42 17906688723772179602
11115154 58 17914868999914841909
11578080 2 15359131337138882306
12156800 1 17552674394303827061
12160290 23 17478021896825976145
12422481 6 17273152197478003027
12788726 201 17977652122565618979
13642711 20 18125172777172811652
13911987 19 18409451397197897638
140371 6 18337966622948081290
14251757 17 18040702641897504780
14537116 161 17187228598368976653
14840074 17 17704071798314440814
151778 21 18120095245576869233
15210252 30 18189043201440110500
17357779 13 18270953549244838426
21304303 64 18412545426817319914
21641784 216 18267320737399377422
23419403 2 17461757074571663347
23536364 44 18118675530851328846
23559900 14 18339915009450869075
238 59 17760886974241134007
24893989 43 13168052331522010190
3298306 158 18047759479317974988
35225 105 17122241894192725397
4394409 98 17901122025176421732
46194498 28 18261386793430098551
513202 73 17771350768515399046
5265222 85 17106523753210552700
6287921 2 17972039403600831415

> <PUBCHEM_SHAPE_MULTIPOLES>
638.11
9.09
5.73
2.06
1.86
6.32
1.16
-6
2.08
-3.55
-0.52
2.07
0.62
-0.07

> <PUBCHEM_SHAPE_SELFOVERLAP>
1366.638

> <PUBCHEM_SHAPE_VOLUME>
346.5

> <PUBCHEM_COORDINATE_TYPE>
2
5
10

$$$$
