185819
  -OEChem-11212003483D

 59 63  0     1  0  0  0  0  0999 V2000
    4.8904    0.6376   -0.7717 O   0  0  0  0  0  0  0  0  0  0  0  0
    3.3310   -1.0939   -0.8916 O   0  0  0  0  0  0  0  0  0  0  0  0
    7.9874   -2.0122   -0.2686 O   0  0  0  0  0  0  0  0  0  0  0  0
    8.3597    0.7768    0.3937 O   0  0  0  0  0  0  0  0  0  0  0  0
    5.2163   -2.8438    0.2880 O   0  0  0  0  0  0  0  0  0  0  0  0
    5.1303    3.3622   -0.4967 O   0  0  0  0  0  0  0  0  0  0  0  0
    2.0665   -2.6234    1.0517 O   0  0  0  0  0  0  0  0  0  0  0  0
   -0.2667    2.0483   -0.7946 O   0  0  0  0  0  0  0  0  0  0  0  0
   -3.3784    2.1746    1.1698 O   0  0  0  0  0  0  0  0  0  0  0  0
   -1.9863    3.5537   -0.7515 O   0  0  0  0  0  0  0  0  0  0  0  0
   -5.9517   -0.7370   -1.6213 O   0  0  0  0  0  0  0  0  0  0  0  0
   -7.1948   -2.1347   -2.9430 O   0  0  0  0  0  0  0  0  0  0  0  0
    6.9326   -1.1519    0.1643 C   0  0  1  0  0  0  0  0  0  0  0  0
    7.2434    0.2619   -0.3273 C   0  0  1  0  0  0  0  0  0  0  0  0
    5.6028   -1.6538   -0.3989 C   0  0  2  0  0  0  0  0  0  0  0  0
    6.0397    1.1849   -0.1231 C   0  0  1  0  0  0  0  0  0  0  0  0
    4.4953   -0.6156   -0.2187 C   0  0  1  0  0  0  0  0  0  0  0  0
    6.2843    2.5705   -0.7124 C   0  0  0  0  0  0  0  0  0  0  0  0
    2.1241   -0.7042   -0.3789 C   0  0  0  0  0  0  0  0  0  0  0  0
    1.4927   -1.4741    0.5963 C   0  0  0  0  0  0  0  0  0  0  0  0
    1.5366    0.4683   -0.8405 C   0  0  0  0  0  0  0  0  0  0  0  0
    0.3081    0.8571   -0.3105 C   0  0  0  0  0  0  0  0  0  0  0  0
   -0.3404    0.1049    0.6635 C   0  0  0  0  0  0  0  0  0  0  0  0
    0.2603   -1.0712    1.1187 C   0  0  0  0  0  0  0  0  0  0  0  0
   -1.6198    0.5699    1.1720 C   0  0  0  0  0  0  0  0  0  0  0  0
   -2.1654    1.7024    0.7116 C   0  0  0  0  0  0  0  0  0  0  0  0
   -1.4903    2.5162   -0.3244 C   0  0  0  0  0  0  0  0  0  0  0  0
    1.3542   -3.3513    2.0498 C   0  0  0  0  0  0  0  0  0  0  0  0
   -4.4619    1.3615    0.9968 C   0  0  0  0  0  0  0  0  0  0  0  0
   -4.6611    0.7227   -0.2226 C   0  0  0  0  0  0  0  0  0  0  0  0
   -6.6854   -0.3010    0.6581 C   0  0  0  0  0  0  0  0  0  0  0  0
   -5.7738   -0.1020   -0.3753 C   0  0  0  0  0  0  0  0  0  0  0  0
   -5.3628    1.1761    2.0454 C   0  0  0  0  0  0  0  0  0  0  0  0
   -6.4748    0.3455    1.8779 C   0  0  0  0  0  0  0  0  0  0  0  0
   -7.8238   -1.1744    0.4298 C   0  0  0  0  0  0  0  0  0  0  0  0
   -7.9851   -1.7726   -0.7532 C   0  0  0  0  0  0  0  0  0  0  0  0
   -7.0333   -1.5779   -1.8626 C   0  0  0  0  0  0  0  0  0  0  0  0
    6.9279   -1.1951    1.2605 H   0  0  0  0  0  0  0  0  0  0  0  0
    7.5259    0.2253   -1.3866 H   0  0  0  0  0  0  0  0  0  0  0  0
    5.7148   -1.9205   -1.4565 H   0  0  0  0  0  0  0  0  0  0  0  0
    5.8125    1.3064    0.9448 H   0  0  0  0  0  0  0  0  0  0  0  0
    4.2724   -0.4871    0.8505 H   0  0  0  0  0  0  0  0  0  0  0  0
    6.4587    2.5217   -1.7924 H   0  0  0  0  0  0  0  0  0  0  0  0
    7.1363    3.0672   -0.2396 H   0  0  0  0  0  0  0  0  0  0  0  0
    8.8181   -1.6595    0.0940 H   0  0  0  0  0  0  0  0  0  0  0  0
    8.1159    0.8197    1.3341 H   0  0  0  0  0  0  0  0  0  0  0  0
    5.1027   -2.6258    1.2289 H   0  0  0  0  0  0  0  0  0  0  0  0
    4.3791    2.9080   -0.9153 H   0  0  0  0  0  0  0  0  0  0  0  0
    2.0244    1.0709   -1.6009 H   0  0  0  0  0  0  0  0  0  0  0  0
   -0.2751   -1.6313    1.8786 H   0  0  0  0  0  0  0  0  0  0  0  0
   -2.1109   -0.0216    1.9380 H   0  0  0  0  0  0  0  0  0  0  0  0
    1.9549   -4.2339    2.2936 H   0  0  0  0  0  0  0  0  0  0  0  0
    1.2509   -2.7738    2.9748 H   0  0  0  0  0  0  0  0  0  0  0  0
    0.3923   -3.7169    1.6744 H   0  0  0  0  0  0  0  0  0  0  0  0
   -3.9852    0.8642   -1.0609 H   0  0  0  0  0  0  0  0  0  0  0  0
   -5.2055    1.6753    2.9978 H   0  0  0  0  0  0  0  0  0  0  0  0
   -7.1664    0.2126    2.7060 H   0  0  0  0  0  0  0  0  0  0  0  0
   -8.5362   -1.3317    1.2320 H   0  0  0  0  0  0  0  0  0  0  0  0
   -8.8322   -2.4261   -0.9311 H   0  0  0  0  0  0  0  0  0  0  0  0
  1 16  1  0  0  0  0
  1 17  1  0  0  0  0
  2 17  1  0  0  0  0
  2 19  1  0  0  0  0
  3 13  1  0  0  0  0
  3 45  1  0  0  0  0
  4 14  1  0  0  0  0
  4 46  1  0  0  0  0
  5 15  1  0  0  0  0
  5 47  1  0  0  0  0
  6 18  1  0  0  0  0
  6 48  1  0  0  0  0
  7 20  1  0  0  0  0
  7 28  1  0  0  0  0
  8 22  1  0  0  0  0
  8 27  1  0  0  0  0
  9 26  1  0  0  0  0
  9 29  1  0  0  0  0
 10 27  2  0  0  0  0
 11 32  1  0  0  0  0
 11 37  1  0  0  0  0
 12 37  2  0  0  0  0
 13 14  1  0  0  0  0
 13 15  1  0  0  0  0
 13 38  1  0  0  0  0
 14 16  1  0  0  0  0
 14 39  1  0  0  0  0
 15 17  1  0  0  0  0
 15 40  1  0  0  0  0
 16 18  1  0  0  0  0
 16 41  1  0  0  0  0
 17 42  1  0  0  0  0
 18 43  1  0  0  0  0
 18 44  1  0  0  0  0
 19 20  2  0  0  0  0
 19 21  1  0  0  0  0
 20 24  1  0  0  0  0
 21 22  2  0  0  0  0
 21 49  1  0  0  0  0
 22 23  1  0  0  0  0
 23 24  2  0  0  0  0
 23 25  1  0  0  0  0
 24 50  1  0  0  0  0
 25 26  2  0  0  0  0
 25 51  1  0  0  0  0
 26 27  1  0  0  0  0
 28 52  1  0  0  0  0
 28 53  1  0  0  0  0
 28 54  1  0  0  0  0
 29 30  2  0  0  0  0
 29 33  1  0  0  0  0
 30 32  1  0  0  0  0
 30 55  1  0  0  0  0
 31 32  2  0  0  0  0
 31 34  1  0  0  0  0
 31 35  1  0  0  0  0
 33 34  2  0  0  0  0
 33 56  1  0  0  0  0
 34 57  1  0  0  0  0
 35 36  2  0  0  0  0
 35 58  1  0  0  0  0
 36 37  1  0  0  0  0
 36 59  1  0  0  0  0
M  END
> <PUBCHEM_COMPOUND_CID>
185819

> <PUBCHEM_CONFORMER_RMSD>
1

> <PUBCHEM_CONFORMER_DIVERSEORDER>
15
190
22
164
57
141
349
274
394
436
450
82
202
322
273
389
439
425
162
52
325
445
399
77
171
227
282
430
214
367
33
234
432
382
392
309
376
416
157
431
407
263
306
288
316
408
167
73
272
317
277
44
301
290
64
239
184
70
178
421
201
161
449
422
296
412
415
110
203
58
257
32
177
280
29
182
370
143
237
121
326
93
297
269
55
220
216
259
434
365
298
18
357
262
1
438
381
319
307
229
107
26
454
388
134
375
284
100
191
254
173
60
332
158
330
130
314
308
99
427
334
47
387
12
379
337
8
238
9
212
335
270
54
87
333
437
250
340
116
53
283
433
170
395
393
364
318
380
252
23
258
37
347
95
148
451
435
215
409
222
342
448
86
413
142
323
71
355
10
113
315
398
126
102
373
418
20
150
243
289
358
213
136
403
118
128
186
402
198
205
85
13
98
268
372
101
429
35
428
149
59
406
36
351
246
75
4
180
125
446
89
204
424
366
106
5
440
444
414
179
19
419
108
218
420
34
56
300
105
363
195
285
241
79
267
226
7
139
11
231
140
348
112
423
174
305
304
176
6
336
169
146
244
2
266
324
39
25
328
447
147
66
197
362
160
144
453
133
17
210
154
279
291
261
426
452
278
14
369
235
62
313
276
103
50
339
16
159
359
63
211
153
247
386
245
265
193
207
78
151
374
292
329
24
396
397
31
123
371
21
109
264
320
185
38
30
232
181
117
343
260
138
405
97
400
302
255
360
114
345
91
411
80
443
321
45
92
346
94
72
175
311
233
183
43
287
404
104
228
341
111
401
249
312
172
127
225
90
353
354
441
65
271
442
74
61
166
240
281
352
119
377
3
361
46
152
48
41
165
383
145
209
196
189
295
42
206
391
200
122
378
251
120
390
219
81
199
187
275
155
356
67
156
129
236
230
368
242
192
49
293
131
163
124
28
68
224
96
84
286
217
221
344
385
331
132
299
303
410
88
194
83
350
253
137
417
338
69
40
51
76
248
294
27
135
256
223
208
310
115
168
384
327
188

> <PUBCHEM_MMFF94_PARTIAL_CHARGES>
49
1 -0.56
10 -0.57
11 -0.23
12 -0.57
13 0.28
14 0.28
15 0.28
16 0.28
17 0.56
18 0.28
19 0.08
2 -0.36
20 0.08
21 -0.15
22 0.08
23 0.03
24 -0.15
25 -0.18
26 0.09
27 0.71
28 0.28
29 0.08
3 -0.68
30 -0.15
31 0.03
32 0.08
33 -0.15
34 -0.15
35 -0.18
36 -0.14
37 0.71
4 -0.68
45 0.4
46 0.4
47 0.4
48 0.4
49 0.15
5 -0.68
50 0.15
51 0.15
55 0.15
56 0.15
57 0.15
58 0.15
59 0.15
6 -0.68
7 -0.36
8 -0.23
9 -0.16

> <PUBCHEM_EFFECTIVE_ROTOR_COUNT>
7.2

> <PUBCHEM_PHARMACOPHORE_FEATURES>
19
1 1 acceptor
1 10 acceptor
1 12 acceptor
1 2 acceptor
1 3 acceptor
1 3 donor
1 4 acceptor
1 4 donor
1 5 acceptor
1 5 donor
1 6 acceptor
1 6 donor
1 7 acceptor
1 9 acceptor
6 1 13 14 15 16 17 rings
6 11 31 32 35 36 37 rings
6 19 20 21 22 23 24 rings
6 29 30 31 32 33 34 rings
6 8 22 23 25 26 27 rings

> <PUBCHEM_HEAVY_ATOM_COUNT>
37

> <PUBCHEM_ATOM_DEF_STEREO_COUNT>
5

> <PUBCHEM_ATOM_UDEF_STEREO_COUNT>
0

> <PUBCHEM_BOND_DEF_STEREO_COUNT>
0

> <PUBCHEM_BOND_UDEF_STEREO_COUNT>
0

> <PUBCHEM_ISOTOPIC_ATOM_COUNT>
0

> <PUBCHEM_COMPONENT_COUNT>
1

> <PUBCHEM_CACTVS_TAUTO_COUNT>
1

> <PUBCHEM_CONFORMER_ID>
0002D5DB0000000F

> <PUBCHEM_MMFF94_ENERGY>
145.2824

> <PUBCHEM_FEATURE_SELFOVERLAP>
96.56

> <PUBCHEM_SHAPE_FINGERPRINT>
10162869 55 18336262427533210772
10299344 5 18060140942345897639
10674148 151 8790884060966933692
10917259 128 14057259988412076311
11135926 11 17967256377970515867
11497681 19 18342175531498892694
11724838 91 18413672414136852316
11828042 279 18114737239536672172
12144603 126 18342179934958488801
12559416 138 18410570683398897251
1361 4 17846219912654265583
13692114 37 18410008854273431658
13782708 43 18264494979594395018
13811026 1 18113338617574641992
13914758 101 13190341266151810041
14068700 675 17775003509957639881
14394314 77 18337116657858472553
1454969 45 18335421261765747339
14856354 85 16917350321024881973
15064981 113 13623522511536752771
15131766 46 14709779591281382702
15276724 80 18410289198813153551
15320295 40 16805317803873031436
15728490 51 18131070450275215543
17852330 134 18114728362504137069
19315958 150 17630622120135786313
20105231 36 13901911111515733540
21781051 124 16200442368620566598
21792938 703 18263364862515419683
21792965 302 18118390976852766807
21987483 16 18187649145276718074
22149856 69 16773250499745873419
23522609 53 17915768468491848417
24771293 8 18336839644915088204
335352 9 18334305250076601366
397830 11 16988830692705932075
4173938 306 16588021342060151817
44880568 143 16515402967539153157
4516262 110 16806752731936991116
4625314 4 18201443519316498661
474113 269 16009295527833035306
4760202 70 18058442286943863949
50009960 94 16881025618008335018
5381727 24 18131630072668621606
54039377 194 18342739668113709183
5969126 39 18261110747387379029
68570916 9 18202290186261783401
9962374 69 18410294667261848590

> <PUBCHEM_SHAPE_MULTIPOLES>
691.01
25.84
3.31
1.64
1.29
0.49
-0.21
-7.58
-5.8
2.41
0.06
-3.78
-0.75
-3.55

> <PUBCHEM_SHAPE_SELFOVERLAP>
1519.611

> <PUBCHEM_SHAPE_VOLUME>
368.2

> <PUBCHEM_COORDINATE_TYPE>
2
5
10

$$$$
