189451
  -OEChem-11212004003D

 63 66  0     1  0  0  0  0  0999 V2000
    2.9293   -0.9036    0.5641 O   0  0  0  0  0  0  0  0  0  0  0  0
   -3.0453   -0.4343   -0.5298 O   0  0  0  0  0  0  0  0  0  0  0  0
    2.7276    1.4058    0.8283 O   0  0  0  0  0  0  0  0  0  0  0  0
   -2.7927    1.4412    0.8350 O   0  0  0  0  0  0  0  0  0  0  0  0
    6.9945   -0.6207    0.0533 O   0  0  0  0  0  0  0  0  0  0  0  0
   -7.0663   -0.6422    0.2796 O   0  0  0  0  0  0  0  0  0  0  0  0
    5.6085   -3.0265   -0.7508 O   0  0  0  0  0  0  0  0  0  0  0  0
   -5.7072   -2.9291   -0.8512 O   0  0  0  0  0  0  0  0  0  0  0  0
    5.2794    1.7410   -0.3482 O   0  0  0  0  0  0  0  0  0  0  0  0
   -5.2649    0.8441    2.0758 O   0  0  0  0  0  0  0  0  0  0  0  0
    1.4788   -3.2025    0.1551 O   0  0  0  0  0  0  0  0  0  0  0  0
   -1.6406   -2.3729   -1.8807 O   0  0  0  0  0  0  0  0  0  0  0  0
    1.3173    0.0154    2.7256 O   0  0  0  0  0  0  0  0  0  0  0  0
    5.6317   -0.6461   -0.3739 C   0  0  1  0  0  0  0  0  0  0  0  0
   -5.6833   -0.9287    0.4929 C   0  0  1  0  0  0  0  0  0  0  0  0
    5.0316   -1.9901    0.0392 C   0  0  1  0  0  0  0  0  0  0  0  0
   -5.1456   -1.6226   -0.7587 C   0  0  1  0  0  0  0  0  0  0  0  0
    4.8756    0.5179    0.2669 C   0  0  2  0  0  0  0  0  0  0  0  0
   -4.9309    0.3729    0.7705 C   0  0  2  0  0  0  0  0  0  0  0  0
    3.5136   -1.9903   -0.1564 C   0  0  1  0  0  0  0  0  0  0  0  0
   -3.6197   -1.7304   -0.7068 C   0  0  1  0  0  0  0  0  0  0  0  0
    3.3653    0.3668    0.0860 C   0  0  1  0  0  0  0  0  0  0  0  0
   -3.4177    0.1642    0.7094 C   0  0  1  0  0  0  0  0  0  0  0  0
    2.8781   -3.2779    0.3582 C   0  0  0  0  0  0  0  0  0  0  0  0
   -3.0506   -2.3134   -1.9964 C   0  0  0  0  0  0  0  0  0  0  0  0
    1.3612    1.4375    0.7975 C   0  0  0  0  0  0  0  0  0  0  0  0
   -1.4254    1.4601    0.7964 C   0  0  0  0  0  0  0  0  0  0  0  0
    0.6808    2.1704   -0.1885 C   0  0  0  0  0  0  0  0  0  0  0  0
   -0.7345    2.1820   -0.1890 C   0  0  0  0  0  0  0  0  0  0  0  0
    0.6565    0.7260    1.7689 C   0  0  0  0  0  0  0  0  0  0  0  0
   -0.7352    0.7373    1.7684 C   0  0  0  0  0  0  0  0  0  0  0  0
    1.3737    2.8923   -1.1738 C   0  0  0  0  0  0  0  0  0  0  0  0
   -1.4149    2.9149   -1.1749 C   0  0  0  0  0  0  0  0  0  0  0  0
    0.6814    3.6151   -2.1458 C   0  0  0  0  0  0  0  0  0  0  0  0
   -0.7102    3.6264   -2.1463 C   0  0  0  0  0  0  0  0  0  0  0  0
    5.6459   -0.5411   -1.4659 H   0  0  0  0  0  0  0  0  0  0  0  0
   -5.6358   -1.5950    1.3631 H   0  0  0  0  0  0  0  0  0  0  0  0
    5.2890   -2.1858    1.0884 H   0  0  0  0  0  0  0  0  0  0  0  0
   -5.4627   -1.0654   -1.6489 H   0  0  0  0  0  0  0  0  0  0  0  0
    5.1258    0.5961    1.3322 H   0  0  0  0  0  0  0  0  0  0  0  0
   -5.2429    1.1504    0.0632 H   0  0  0  0  0  0  0  0  0  0  0  0
    3.2549   -1.8852   -1.2189 H   0  0  0  0  0  0  0  0  0  0  0  0
   -3.2973   -2.3708    0.1256 H   0  0  0  0  0  0  0  0  0  0  0  0
    3.0956    0.4766   -0.9731 H   0  0  0  0  0  0  0  0  0  0  0  0
   -3.1065   -0.4801    1.5418 H   0  0  0  0  0  0  0  0  0  0  0  0
    3.0533   -3.3972    1.4326 H   0  0  0  0  0  0  0  0  0  0  0  0
    3.2546   -4.1577   -0.1710 H   0  0  0  0  0  0  0  0  0  0  0  0
   -3.4239   -3.3243   -2.1835 H   0  0  0  0  0  0  0  0  0  0  0  0
   -3.2883   -1.6836   -2.8601 H   0  0  0  0  0  0  0  0  0  0  0  0
    7.4432   -1.3786   -0.3593 H   0  0  0  0  0  0  0  0  0  0  0  0
   -7.5129   -1.4859    0.0928 H   0  0  0  0  0  0  0  0  0  0  0  0
    5.4117   -3.8746   -0.3189 H   0  0  0  0  0  0  0  0  0  0  0  0
   -5.4251   -3.4333   -0.0690 H   0  0  0  0  0  0  0  0  0  0  0  0
    6.2440    1.8123   -0.2465 H   0  0  0  0  0  0  0  0  0  0  0  0
   -4.9970    0.1660    2.7192 H   0  0  0  0  0  0  0  0  0  0  0  0
   -1.2666    0.1960    2.5465 H   0  0  0  0  0  0  0  0  0  0  0  0
    1.0939   -4.0276    0.4966 H   0  0  0  0  0  0  0  0  0  0  0  0
   -1.3210   -1.4709   -1.7063 H   0  0  0  0  0  0  0  0  0  0  0  0
    2.4606    2.9143   -1.2015 H   0  0  0  0  0  0  0  0  0  0  0  0
   -2.5020    2.9441   -1.2040 H   0  0  0  0  0  0  0  0  0  0  0  0
    1.2292    4.1706   -2.9014 H   0  0  0  0  0  0  0  0  0  0  0  0
   -1.2484    4.1895   -2.9032 H   0  0  0  0  0  0  0  0  0  0  0  0
    2.2736    0.1362    2.5951 H   0  0  0  0  0  0  0  0  0  0  0  0
  1 20  1  0  0  0  0
  1 22  1  0  0  0  0
  2 21  1  0  0  0  0
  2 23  1  0  0  0  0
  3 22  1  0  0  0  0
  3 26  1  0  0  0  0
  4 23  1  0  0  0  0
  4 27  1  0  0  0  0
  5 14  1  0  0  0  0
  5 50  1  0  0  0  0
  6 15  1  0  0  0  0
  6 51  1  0  0  0  0
  7 16  1  0  0  0  0
  7 52  1  0  0  0  0
  8 17  1  0  0  0  0
  8 53  1  0  0  0  0
  9 18  1  0  0  0  0
  9 54  1  0  0  0  0
 10 19  1  0  0  0  0
 10 55  1  0  0  0  0
 11 24  1  0  0  0  0
 11 57  1  0  0  0  0
 12 25  1  0  0  0  0
 12 58  1  0  0  0  0
 13 30  1  0  0  0  0
 13 63  1  0  0  0  0
 14 16  1  0  0  0  0
 14 18  1  0  0  0  0
 14 36  1  0  0  0  0
 15 17  1  0  0  0  0
 15 19  1  0  0  0  0
 15 37  1  0  0  0  0
 16 20  1  0  0  0  0
 16 38  1  0  0  0  0
 17 21  1  0  0  0  0
 17 39  1  0  0  0  0
 18 22  1  0  0  0  0
 18 40  1  0  0  0  0
 19 23  1  0  0  0  0
 19 41  1  0  0  0  0
 20 24  1  0  0  0  0
 20 42  1  0  0  0  0
 21 25  1  0  0  0  0
 21 43  1  0  0  0  0
 22 44  1  0  0  0  0
 23 45  1  0  0  0  0
 24 46  1  0  0  0  0
 24 47  1  0  0  0  0
 25 48  1  0  0  0  0
 25 49  1  0  0  0  0
 26 28  1  0  0  0  0
 26 30  2  0  0  0  0
 27 29  1  0  0  0  0
 27 31  2  0  0  0  0
 28 29  1  0  0  0  0
 28 32  2  0  0  0  0
 29 33  2  0  0  0  0
 30 31  1  0  0  0  0
 31 56  1  0  0  0  0
 32 34  1  0  0  0  0
 32 59  1  0  0  0  0
 33 35  1  0  0  0  0
 33 60  1  0  0  0  0
 34 35  2  0  0  0  0
 34 61  1  0  0  0  0
 35 62  1  0  0  0  0
M  END
> <PUBCHEM_COMPOUND_CID>
189451

> <PUBCHEM_CONFORMER_RMSD>
1

> <PUBCHEM_CONFORMER_DIVERSEORDER>
1
40
104
60
299
209
291
121
130
354
300
269
345
141
52
311
8
174
116
340
298
239
7
314
317
20
169
86
274
91
226
312
356
136
29
200
381
294
324
295
119
336
80
122
292
170
26
10
284
348
67
88
328
168
288
309
297
346
258
105
310
189
368
240
55
358
159
272
231
156
162
145
123
106
21
303
333
315
127
75
74
268
150
369
131
107
230
313
362
144
304
129
241
179
166
139
120
30
282
366
61
253
379
113
349
242
111
137
217
66
99
27
232
363
191
112
92
82
352
186
63
102
160
301
183
2
76
210
202
359
337
321
335
214
322
44
11
157
35
77
246
93
283
327
153
70
228
78
84
6
254
208
97
344
306
194
190
365
171
187
64
143
237
329
199
262
375
57
286
205
109
334
182
18
72
255
216
261
323
252
42
25
259
192
175
260
34
331
115
36
330
263
3
243
125
38
308
236
43
376
188
98
128
16
316
23
132
39
126
250
197
37
341
238
154
56
13
32
158
374
135
164
110
142
248
277
332
211
155
178
371
307
118
276
14
177
318
58
69
325
124
355
367
163
364
278
271
181
267
204
377
195
229
290
45
148
285
372
4
33
251
62
326
117
100
5
338
206
225
215
59
273
161
220
31
73
370
9
151
218
134
96
224
361
180
138
12
47
114
22
146
108
172
176
320
196
235
46
270
343
94
256
339
24
207
103
95
281
51
347
342
152
360
378
213
249
167
245
302
65
41
203
81
165
234
28
90
275
287
353
68
357
71
48
233
185
257
15
83
101
184
223
296
133
351
266
279
319
149
222
280
140
54
212
87
227
305
247
264
19
79
50
350
219
53
201
85
173
380
265
244
193
198
289
49
221
89
17
293
147
373

> <PUBCHEM_MMFF94_PARTIAL_CHARGES>
47
1 -0.56
10 -0.68
11 -0.68
12 -0.68
13 -0.53
14 0.28
15 0.28
16 0.28
17 0.28
18 0.28
19 0.28
2 -0.56
20 0.28
21 0.28
22 0.56
23 0.56
24 0.28
25 0.28
26 0.08
27 0.08
3 -0.36
30 0.08
31 -0.15
32 -0.15
33 -0.15
34 -0.15
35 -0.15
4 -0.36
5 -0.68
50 0.4
51 0.4
52 0.4
53 0.4
54 0.4
55 0.4
56 0.15
57 0.4
58 0.4
59 0.15
6 -0.68
60 0.15
61 0.15
62 0.15
63 0.45
7 -0.68
8 -0.68
9 -0.68

> <PUBCHEM_EFFECTIVE_ROTOR_COUNT>
8.4

> <PUBCHEM_PHARMACOPHORE_FEATURES>
25
1 1 acceptor
1 10 acceptor
1 10 donor
1 11 acceptor
1 11 donor
1 12 acceptor
1 12 donor
1 13 donor
1 2 acceptor
1 3 acceptor
1 4 acceptor
1 5 acceptor
1 5 donor
1 6 acceptor
1 6 donor
1 7 acceptor
1 7 donor
1 8 acceptor
1 8 donor
1 9 acceptor
1 9 donor
6 1 14 16 18 20 22 rings
6 2 15 17 19 21 23 rings
6 26 27 28 29 30 31 rings
6 28 29 32 33 34 35 rings

> <PUBCHEM_HEAVY_ATOM_COUNT>
35

> <PUBCHEM_ATOM_DEF_STEREO_COUNT>
10

> <PUBCHEM_ATOM_UDEF_STEREO_COUNT>
0

> <PUBCHEM_BOND_DEF_STEREO_COUNT>
0

> <PUBCHEM_BOND_UDEF_STEREO_COUNT>
0

> <PUBCHEM_ISOTOPIC_ATOM_COUNT>
0

> <PUBCHEM_COMPONENT_COUNT>
1

> <PUBCHEM_CACTVS_TAUTO_COUNT>
3

> <PUBCHEM_CONFORMER_ID>
0002E40B00000001

> <PUBCHEM_MMFF94_ENERGY>
121.7965

> <PUBCHEM_FEATURE_SELFOVERLAP>
127.047

> <PUBCHEM_SHAPE_FINGERPRINT>
11315621 136 18117841229755511235
11331351 85 18336273366562771213
11621639 254 18188228584633092276
117089 54 18122069968772585427
11796584 16 17775294850120846617
12403259 327 17060335271102697425
12422481 6 18200880578068783807
12633046 712 17987508222086081984
12633257 1 15697433455233650653
1361 2 18262523718708030204
13690498 29 18046075856839378390
13911987 19 16877954853481714816
14040221 299 17489875916732990598
14068700 675 18272373096213499160
14347332 77 17970061154670209848
14840074 17 18411427201921966238
15361156 5 17897185536914117116
16110190 28 18272937098333583351
1813 80 18260819423723142857
18336668 15 18272089413633751167
19319366 153 17116353425938063405
20775530 9 18270385127397625846
21344244 181 17542766635118350941
21641784 216 16371002966748695773
22393880 68 17901108521714423834
23536364 44 17385994049329284821
23559900 14 18338510967419382043
24771750 20 16521910074420375044
2838139 119 11602827912331447690
338550 245 18342176730285229167
3737641 26 18411415081840884966
46194498 28 17750506467841460421
463206 1 18339928211499536458
469060 322 18334856095862636182
5081480 168 16733259153626577061
513202 73 18261955120228594911
66674814 147 18335979873786940674

> <PUBCHEM_SHAPE_MULTIPOLES>
643.98
14.17
4.42
1.85
1.07
0.65
-0.11
-11.34
-0.2
-1.24
3.04
1.24
0.69
-1.18

> <PUBCHEM_SHAPE_SELFOVERLAP>
1385.244

> <PUBCHEM_SHAPE_VOLUME>
348.7

> <PUBCHEM_COORDINATE_TYPE>
2
5
10

$$$$
