11996857
  -OEChem-11212003523D

 51 54  0     1  0  0  0  0  0999 V2000
   -3.7335    0.8758    0.3172 O   0  0  0  0  0  0  0  0  0  0  0  0
   -2.3440   -0.7083    1.3186 O   0  0  0  0  0  0  0  0  0  0  0  0
   -6.6498   -1.9297   -0.3878 O   0  0  0  0  0  0  0  0  0  0  0  0
   -3.8777   -2.7700    0.1433 O   0  0  0  0  0  0  0  0  0  0  0  0
   -6.6562    0.5756   -1.8613 O   0  0  0  0  0  0  0  0  0  0  0  0
   -5.7812    3.0971   -1.4712 O   0  0  0  0  0  0  0  0  0  0  0  0
   -4.5877    3.2776    0.4624 O   0  0  0  0  0  0  0  0  0  0  0  0
    2.9655    0.5491    0.4478 O   0  0  0  0  0  0  0  0  0  0  0  0
   -0.6879   -2.6255    0.2997 O   0  0  0  0  0  0  0  0  0  0  0  0
   -1.3673    1.8128    1.9018 O   0  0  0  0  0  0  0  0  0  0  0  0
    1.7305   -3.2207   -0.4808 O   0  0  0  0  0  0  0  0  0  0  0  0
    9.1033    1.4841   -0.7491 O   0  0  0  0  0  0  0  0  0  0  0  0
   -5.4790   -1.1706   -0.6930 C   0  0  2  0  0  0  0  0  0  0  0  0
   -4.3984   -1.4572    0.3499 C   0  0  2  0  0  0  0  0  0  0  0  0
   -5.8645    0.3090   -0.7049 C   0  0  1  0  0  0  0  0  0  0  0  0
   -3.2440   -0.4608    0.2392 C   0  0  1  0  0  0  0  0  0  0  0  0
   -4.6224    1.1903   -0.7484 C   0  0  1  0  0  0  0  0  0  0  0  0
   -4.9719    2.6208   -0.4938 C   0  0  0  0  0  0  0  0  0  0  0  0
   -1.0284   -0.4182    1.0966 C   0  0  0  0  0  0  0  0  0  0  0  0
   -0.1755   -1.3920    0.5751 C   0  0  0  0  0  0  0  0  0  0  0  0
   -0.5411    0.8558    1.3922 C   0  0  0  0  0  0  0  0  0  0  0  0
    1.1680   -1.0820    0.3522 C   0  0  0  0  0  0  0  0  0  0  0  0
    1.6565    0.1898    0.6471 C   0  0  0  0  0  0  0  0  0  0  0  0
    0.8016    1.1616    1.1678 C   0  0  0  0  0  0  0  0  0  0  0  0
    2.0911   -2.0868   -0.1970 C   0  0  0  0  0  0  0  0  0  0  0  0
    3.8402   -0.3985   -0.0613 C   0  0  0  0  0  0  0  0  0  0  0  0
    3.4893   -1.6520   -0.3898 C   0  0  0  0  0  0  0  0  0  0  0  0
    5.2206    0.0946   -0.2411 C   0  0  0  0  0  0  0  0  0  0  0  0
    6.0213   -0.4187   -1.2644 C   0  0  0  0  0  0  0  0  0  0  0  0
    5.7313    1.0771    0.6105 C   0  0  0  0  0  0  0  0  0  0  0  0
    7.3249    0.0476   -1.4349 C   0  0  0  0  0  0  0  0  0  0  0  0
    7.0347    1.5435    0.4399 C   0  0  0  0  0  0  0  0  0  0  0  0
    7.8316    1.0286   -0.5826 C   0  0  0  0  0  0  0  0  0  0  0  0
   -5.1564   -1.4882   -1.6924 H   0  0  0  0  0  0  0  0  0  0  0  0
   -4.8285   -1.4410    1.3582 H   0  0  0  0  0  0  0  0  0  0  0  0
   -6.4782    0.5435    0.1744 H   0  0  0  0  0  0  0  0  0  0  0  0
   -2.7182   -0.6001   -0.7167 H   0  0  0  0  0  0  0  0  0  0  0  0
   -4.0900    1.1338   -1.7060 H   0  0  0  0  0  0  0  0  0  0  0  0
   -6.3885   -2.8660   -0.3584 H   0  0  0  0  0  0  0  0  0  0  0  0
   -3.5110   -2.8104   -0.7565 H   0  0  0  0  0  0  0  0  0  0  0  0
   -7.4283   -0.0147   -1.8271 H   0  0  0  0  0  0  0  0  0  0  0  0
    1.1790    2.1546    1.3988 H   0  0  0  0  0  0  0  0  0  0  0  0
   -6.0239    4.0357   -1.3211 H   0  0  0  0  0  0  0  0  0  0  0  0
    4.1777   -2.3945   -0.7760 H   0  0  0  0  0  0  0  0  0  0  0  0
   -1.6178   -2.6505    0.5826 H   0  0  0  0  0  0  0  0  0  0  0  0
   -2.2529    1.4270    2.0160 H   0  0  0  0  0  0  0  0  0  0  0  0
    5.6565   -1.1672   -1.9628 H   0  0  0  0  0  0  0  0  0  0  0  0
    5.1355    1.4901    1.4208 H   0  0  0  0  0  0  0  0  0  0  0  0
    7.9342   -0.3577   -2.2384 H   0  0  0  0  0  0  0  0  0  0  0  0
    7.4247    2.3068    1.1079 H   0  0  0  0  0  0  0  0  0  0  0  0
    9.5084    1.0195   -1.5014 H   0  0  0  0  0  0  0  0  0  0  0  0
  1 16  1  0  0  0  0
  1 17  1  0  0  0  0
  2 16  1  0  0  0  0
  2 19  1  0  0  0  0
  3 13  1  0  0  0  0
  3 39  1  0  0  0  0
  4 14  1  0  0  0  0
  4 40  1  0  0  0  0
  5 15  1  0  0  0  0
  5 41  1  0  0  0  0
  6 18  1  0  0  0  0
  6 43  1  0  0  0  0
  7 18  2  0  0  0  0
  8 23  1  0  0  0  0
  8 26  1  0  0  0  0
  9 20  1  0  0  0  0
  9 45  1  0  0  0  0
 10 21  1  0  0  0  0
 10 46  1  0  0  0  0
 11 25  2  0  0  0  0
 12 33  1  0  0  0  0
 12 51  1  0  0  0  0
 13 14  1  0  0  0  0
 13 15  1  0  0  0  0
 13 34  1  0  0  0  0
 14 16  1  0  0  0  0
 14 35  1  0  0  0  0
 15 17  1  0  0  0  0
 15 36  1  0  0  0  0
 16 37  1  0  0  0  0
 17 18  1  0  0  0  0
 17 38  1  0  0  0  0
 19 20  2  0  0  0  0
 19 21  1  0  0  0  0
 20 22  1  0  0  0  0
 21 24  2  0  0  0  0
 22 23  2  0  0  0  0
 22 25  1  0  0  0  0
 23 24  1  0  0  0  0
 24 42  1  0  0  0  0
 25 27  1  0  0  0  0
 26 27  2  0  0  0  0
 26 28  1  0  0  0  0
 27 44  1  0  0  0  0
 28 29  2  0  0  0  0
 28 30  1  0  0  0  0
 29 31  1  0  0  0  0
 29 47  1  0  0  0  0
 30 32  2  0  0  0  0
 30 48  1  0  0  0  0
 31 33  2  0  0  0  0
 31 49  1  0  0  0  0
 32 33  1  0  0  0  0
 32 50  1  0  0  0  0
M  END
> <PUBCHEM_COMPOUND_CID>
11996857

> <PUBCHEM_CONFORMER_RMSD>
0.8

> <PUBCHEM_CONFORMER_DIVERSEORDER>
1
25
36
42
26
28
37
31
8
39
43
29
33
5
38
41
14
32
10
35
2
18
21
34
23
16
11
40
7
9
44
3
22
15
4
12
27
17
24
6
19
13
30
20

> <PUBCHEM_MMFF94_PARTIAL_CHARGES>
46
1 -0.56
10 -0.53
11 -0.57
12 -0.53
13 0.28
14 0.28
15 0.28
16 0.56
17 0.34
18 0.66
19 0.08
2 -0.36
20 0.08
21 0.08
22 0.09
23 0.08
24 -0.15
25 0.47
26 0.05
27 -0.14
28 0.03
29 -0.15
3 -0.68
30 -0.15
31 -0.15
32 -0.15
33 0.08
39 0.4
4 -0.68
40 0.4
41 0.4
42 0.15
43 0.5
44 0.15
45 0.45
46 0.45
47 0.15
48 0.15
49 0.15
5 -0.68
50 0.15
51 0.45
6 -0.65
7 -0.57
8 -0.16
9 -0.53

> <PUBCHEM_EFFECTIVE_ROTOR_COUNT>
5.2

> <PUBCHEM_PHARMACOPHORE_FEATURES>
20
1 1 acceptor
1 10 donor
1 11 acceptor
1 12 donor
1 2 acceptor
1 3 acceptor
1 3 donor
1 4 acceptor
1 4 donor
1 5 acceptor
1 5 donor
1 6 acceptor
1 7 acceptor
1 8 acceptor
1 9 donor
3 6 7 18 anion
6 1 13 14 15 16 17 rings
6 19 20 21 22 23 24 rings
6 28 29 30 31 32 33 rings
6 8 22 23 25 26 27 rings

> <PUBCHEM_HEAVY_ATOM_COUNT>
33

> <PUBCHEM_ATOM_DEF_STEREO_COUNT>
5

> <PUBCHEM_ATOM_UDEF_STEREO_COUNT>
0

> <PUBCHEM_BOND_DEF_STEREO_COUNT>
0

> <PUBCHEM_BOND_UDEF_STEREO_COUNT>
0

> <PUBCHEM_ISOTOPIC_ATOM_COUNT>
0

> <PUBCHEM_COMPONENT_COUNT>
1

> <PUBCHEM_CACTVS_TAUTO_COUNT>
57

> <PUBCHEM_CONFORMER_ID>
00B70EB900000001

> <PUBCHEM_MMFF94_ENERGY>
102.9718

> <PUBCHEM_FEATURE_SELFOVERLAP>
101.668

> <PUBCHEM_SHAPE_FINGERPRINT>
10076449 9 18410858807105515611
10190206 1 18131360695923635792
10299344 5 13038909949712169636
10669705 176 18410014330166154318
11135926 11 18060146418123764615
11181472 205 17676490524290167468
11387372 6 11887658594583970253
11505856 67 16843057303287906281
12124843 1 18126265486400800341
12422481 6 11241979178258032392
13540713 5 17842849819436395738
13668630 136 16343695552407112173
13673619 4 12247676063295324418
13690498 29 18201150070651800119
13726171 33 18337394812867317417
13782708 43 12463566258193895860
13911987 19 18202001027694185431
13914758 101 18113617872759960594
14118638 360 18260263040975313859
14294032 229 17822005368613558756
14420673 8 9583523122363309741
14675019 173 11743839161776285370
14767858 380 18060137643927032856
150020 25 18273495676448167052
15064986 266 18341058420028521891
15064986 96 12396567516707622648
15183329 4 17967249806359231540
15348495 7 7925618999609517902
15352257 5 12175626170429417348
16994733 274 17822286860184581724
17913733 40 13479131263889839497
18608769 82 18336267938124477467
18681886 176 18341890848703663192
2026 5 15624844660542524492
21424621 283 17749108850743665305
21792961 116 18412831286924296586
21859007 373 18335971044078264216
22122407 14 16805903882705604172
221357 26 18272358773240955867
22393880 68 18272642450945149771
23559900 14 18201715206073279016
23569914 152 16980126709372928428
23576562 1 18044665436897943580
2838139 119 17240204352088305052
3103668 31 17983853664363123254
397638 26 11746935390893826957
397830 11 8502359011061301102
4058900 60 18187087217515378930
4073 2 18186805759845027499
4353968 344 17845382051461939124
437795 83 18341897376490073829
484989 97 18128539460497520802
5937810 71 18272094863816225873
6691757 9 15430044278762649000
9953998 17 8935005871570882973
999808 66 10087640399195263396

> <PUBCHEM_SHAPE_MULTIPOLES>
608.69
22
2.94
1.29
21.35
0.11
-0.03
10.2
-10.74
-3.93
-0.24
-0.43
0.47
1.1

> <PUBCHEM_SHAPE_SELFOVERLAP>
1345.943

> <PUBCHEM_SHAPE_VOLUME>
321.4

> <PUBCHEM_COORDINATE_TYPE>
2
5
10

$$$$
