197673
  -OEChem-08302002332D

182191  0     1  0  0  0  0  0999 V2000
   16.7773    8.4266    0.0000 O   0  0  0  0  0  0  0  0  0  0  0  0
   16.2108    8.1024    0.0000 O   0  0  0  0  0  0  0  0  0  0  0  0
   19.6884    7.0744    0.0000 O   0  0  0  0  0  0  0  0  0  0  0  0
   19.1415    5.6514    0.0000 O   0  0  0  0  0  0  0  0  0  0  0  0
   20.0419    9.2181    0.0000 O   0  0  0  0  0  0  0  0  0  0  0  0
   12.9292    4.0310    0.0000 O   0  0  0  0  0  0  0  0  0  0  0  0
   18.2697    4.1548    0.0000 O   0  0  0  0  0  0  0  0  0  0  0  0
   12.0632    2.5310    0.0000 O   0  0  0  0  0  0  0  0  0  0  0  0
   14.6613    1.0310    0.0000 O   0  0  0  0  0  0  0  0  0  0  0  0
   12.9292    0.0310    0.0000 O   0  0  0  0  0  0  0  0  0  0  0  0
   11.1972    0.0310    0.0000 O   0  0  0  0  0  0  0  0  0  0  0  0
   11.1972   -2.9690    0.0000 O   0  0  0  0  0  0  0  0  0  0  0  0
    9.4651   -1.9690    0.0000 O   0  0  0  0  0  0  0  0  0  0  0  0
    8.5991   -3.4690    0.0000 O   0  0  0  0  0  0  0  0  0  0  0  0
    9.4651   -5.9690    0.0000 O   0  0  0  0  0  0  0  0  0  0  0  0
   11.1972   -4.9690    0.0000 O   0  0  0  0  0  0  0  0  0  0  0  0
    7.7331   -5.9690    0.0000 O   0  0  0  0  0  0  0  0  0  0  0  0
    6.0010   -7.9690    0.0000 O   0  0  0  0  0  0  0  0  0  0  0  0
    7.7331   -8.9690    0.0000 O   0  0  0  0  0  0  0  0  0  0  0  0
    9.4651   -7.9690    0.0000 O   0  0  0  0  0  0  0  0  0  0  0  0
    5.1350   -6.4690    0.0000 O   0  0  0  0  0  0  0  0  0  0  0  0
    4.2690   -8.9690    0.0000 O   0  0  0  0  0  0  0  0  0  0  0  0
    2.5369   -7.9690    0.0000 O   0  0  0  0  0  0  0  0  0  0  0  0
    2.5369   -5.9690    0.0000 O   0  0  0  0  0  0  0  0  0  0  0  0
    5.1350   -4.4690    0.0000 O   0  0  0  0  0  0  0  0  0  0  0  0
   20.8620    2.6448    0.0000 N   0  0  0  0  0  0  0  0  0  0  0  0
   18.2813    7.1547    0.0000 C   0  0  3  0  0  0  0  0  0  0  0  0
   17.4172    7.6581    0.0000 C   0  0  3  0  0  0  0  0  0  0  0  0
   16.5492    7.1614    0.0000 C   0  0  3  0  0  0  0  0  0  0  0  0
   16.5454    6.1614    0.0000 C   0  0  3  0  0  0  0  0  0  0  0  0
   19.0208    7.8190    0.0000 C   0  0  3  0  0  0  0  0  0  0  0  0
   18.2774    6.1547    0.0000 C   0  0  3  0  0  0  0  0  0  0  0  0
   17.6301    8.6291    0.0000 C   0  0  0  0  0  0  0  0  0  0  0  0
   15.6494    5.6302    0.0000 C   0  0  3  0  0  0  0  0  0  0  0  0
   17.4095    5.6581    0.0000 C   0  0  0  0  0  0  0  0  0  0  0  0
   18.6192    8.7283    0.0000 C   0  0  0  0  0  0  0  0  0  0  0  0
   15.6573    7.6995    0.0000 C   0  0  0  0  0  0  0  0  0  0  0  0
   19.1454    6.6514    0.0000 C   0  0  0  0  0  0  0  0  0  0  0  0
   14.7453    6.1475    0.0000 C   0  0  0  0  0  0  0  0  0  0  0  0
   19.9352    8.2238    0.0000 C   0  0  3  0  0  0  0  0  0  0  0  0
   15.6703    4.5454    0.0000 C   0  0  0  0  0  0  0  0  0  0  0  0
   14.7493    7.1892    0.0000 C   0  0  0  0  0  0  0  0  0  0  0  0
   16.5173    5.1335    0.0000 C   0  0  0  0  0  0  0  0  0  0  0  0
   13.7994    5.6160    0.0000 C   0  0  0  0  0  0  0  0  0  0  0  0
   14.7370    3.9921    0.0000 C   0  0  0  0  0  0  0  0  0  0  0  0
   13.7953    4.5310    0.0000 C   0  0  3  0  0  0  0  0  0  0  0  0
   20.7430    7.6343    0.0000 C   0  0  0  0  0  0  0  0  0  0  0  0
   19.1376    4.6514    0.0000 C   0  0  0  0  0  0  0  0  0  0  0  0
   12.9292    3.0310    0.0000 C   0  0  3  0  0  0  0  0  0  0  0  0
   20.0017    4.1481    0.0000 C   0  0  0  0  0  0  0  0  0  0  0  0
   13.7953    2.5310    0.0000 C   0  0  0  0  0  0  0  0  0  0  0  0
   13.7953    1.5310    0.0000 C   0  0  3  0  0  0  0  0  0  0  0  0
   20.8697    4.6447    0.0000 C   0  0  0  0  0  0  0  0  0  0  0  0
   19.9979    3.1481    0.0000 C   0  0  0  0  0  0  0  0  0  0  0  0
   12.0632    1.5310    0.0000 C   0  0  3  0  0  0  0  0  0  0  0  0
   12.9292    1.0310    0.0000 C   0  0  3  0  0  0  0  0  0  0  0  0
   21.7338    4.1414    0.0000 C   0  0  0  0  0  0  0  0  0  0  0  0
   11.1972    1.0310    0.0000 C   0  0  0  0  0  0  0  0  0  0  0  0
   21.7299    3.1414    0.0000 C   0  0  0  0  0  0  0  0  0  0  0  0
   12.0632   -0.4690    0.0000 C   0  0  3  0  0  0  0  0  0  0  0  0
   15.5273    1.5310    0.0000 C   0  0  0  0  0  0  0  0  0  0  0  0
   12.0632   -1.4690    0.0000 C   0  0  0  0  0  0  0  0  0  0  0  0
   11.1972   -1.9690    0.0000 C   0  0  3  0  0  0  0  0  0  0  0  0
   10.3312   -0.4690    0.0000 C   0  0  3  0  0  0  0  0  0  0  0  0
   10.3312   -1.4690    0.0000 C   0  0  3  0  0  0  0  0  0  0  0  0
    9.4651    0.0310    0.0000 C   0  0  0  0  0  0  0  0  0  0  0  0
    9.4651   -2.9690    0.0000 C   0  0  3  0  0  0  0  0  0  0  0  0
   12.0632   -3.4690    0.0000 C   0  0  0  0  0  0  0  0  0  0  0  0
   10.3312   -3.4690    0.0000 C   0  0  0  0  0  0  0  0  0  0  0  0
   10.3312   -4.4690    0.0000 C   0  0  3  0  0  0  0  0  0  0  0  0
    9.4651   -4.9690    0.0000 C   0  0  3  0  0  0  0  0  0  0  0  0
    8.5991   -4.4690    0.0000 C   0  0  3  0  0  0  0  0  0  0  0  0
    7.7331   -4.9690    0.0000 C   0  0  0  0  0  0  0  0  0  0  0  0
    8.5991   -6.4690    0.0000 C   0  0  3  0  0  0  0  0  0  0  0  0
    8.5991   -7.4690    0.0000 C   0  0  3  0  0  0  0  0  0  0  0  0
    7.7331   -7.9690    0.0000 C   0  0  3  0  0  0  0  0  0  0  0  0
    6.8671   -7.4690    0.0000 C   0  0  3  0  0  0  0  0  0  0  0  0
    6.8671   -6.4690    0.0000 C   0  0  3  0  0  0  0  0  0  0  0  0
   12.0632   -4.4690    0.0000 C   0  0  0  0  0  0  0  0  0  0  0  0
    5.1350   -7.4690    0.0000 C   0  0  3  0  0  0  0  0  0  0  0  0
    6.0010   -5.9690    0.0000 C   0  0  0  0  0  0  0  0  0  0  0  0
    4.2690   -7.9690    0.0000 C   0  0  3  0  0  0  0  0  0  0  0  0
    3.4030   -7.4690    0.0000 C   0  0  3  0  0  0  0  0  0  0  0  0
    3.4030   -6.4690    0.0000 C   0  0  3  0  0  0  0  0  0  0  0  0
    4.2690   -5.9690    0.0000 C   0  0  3  0  0  0  0  0  0  0  0  0
    8.5991   -9.4690    0.0000 C   0  0  0  0  0  0  0  0  0  0  0  0
    4.2690   -4.9690    0.0000 C   0  0  0  0  0  0  0  0  0  0  0  0
   17.0835    6.4694    0.0000 H   0  0  0  0  0  0  0  0  0  0  0  0
   18.2750    5.5348    0.0000 H   0  0  0  0  0  0  0  0  0  0  0  0
   17.6334    9.2491    0.0000 H   0  0  0  0  0  0  0  0  0  0  0  0
   17.0139    8.6975    0.0000 H   0  0  0  0  0  0  0  0  0  0  0  0
   17.0091    5.1847    0.0000 H   0  0  0  0  0  0  0  0  0  0  0  0
   17.8062    5.1816    0.0000 H   0  0  0  0  0  0  0  0  0  0  0  0
   19.2096    8.9178    0.0000 H   0  0  0  0  0  0  0  0  0  0  0  0
   18.4928    9.3353    0.0000 H   0  0  0  0  0  0  0  0  0  0  0  0
   16.0638    8.1677    0.0000 H   0  0  0  0  0  0  0  0  0  0  0  0
   15.2656    8.1800    0.0000 H   0  0  0  0  0  0  0  0  0  0  0  0
   18.8333    6.1157    0.0000 H   0  0  0  0  0  0  0  0  0  0  0  0
   19.6811    6.3393    0.0000 H   0  0  0  0  0  0  0  0  0  0  0  0
   19.4574    7.1871    0.0000 H   0  0  0  0  0  0  0  0  0  0  0  0
   20.5022    8.4747    0.0000 H   0  0  0  0  0  0  0  0  0  0  0  0
   15.8905    3.9659    0.0000 H   0  0  0  0  0  0  0  0  0  0  0  0
   16.2790    4.6633    0.0000 H   0  0  0  0  0  0  0  0  0  0  0  0
   14.2148    7.5033    0.0000 H   0  0  0  0  0  0  0  0  0  0  0  0
   16.9916    9.0084    0.0000 H   0  0  0  0  0  0  0  0  0  0  0  0
   16.2094    4.5954    0.0000 H   0  0  0  0  0  0  0  0  0  0  0  0
   17.0554    4.8256    0.0000 H   0  0  0  0  0  0  0  0  0  0  0  0
   16.8252    5.6717    0.0000 H   0  0  0  0  0  0  0  0  0  0  0  0
   15.7374    8.5028    0.0000 H   0  0  0  0  0  0  0  0  0  0  0  0
   13.5926    6.2004    0.0000 H   0  0  0  0  0  0  0  0  0  0  0  0
   13.1882    5.5122    0.0000 H   0  0  0  0  0  0  0  0  0  0  0  0
   14.3415    3.5146    0.0000 H   0  0  0  0  0  0  0  0  0  0  0  0
   15.1398    3.5207    0.0000 H   0  0  0  0  0  0  0  0  0  0  0  0
   20.2951    7.2020    0.0000 H   0  0  0  0  0  0  0  0  0  0  0  0
   13.7965    3.9110    0.0000 H   0  0  0  0  0  0  0  0  0  0  0  0
   20.3775    7.1334    0.0000 H   0  0  0  0  0  0  0  0  0  0  0  0
   21.2438    7.2688    0.0000 H   0  0  0  0  0  0  0  0  0  0  0  0
   21.1085    8.1351    0.0000 H   0  0  0  0  0  0  0  0  0  0  0  0
   20.6088    9.4690    0.0000 H   0  0  0  0  0  0  0  0  0  0  0  0
   12.3923    3.3410    0.0000 H   0  0  0  0  0  0  0  0  0  0  0  0
   14.4058    2.4233    0.0000 H   0  0  0  0  0  0  0  0  0  0  0  0
   14.0073    3.1136    0.0000 H   0  0  0  0  0  0  0  0  0  0  0  0
   14.3322    1.8410    0.0000 H   0  0  0  0  0  0  0  0  0  0  0  0
   20.8721    5.2647    0.0000 H   0  0  0  0  0  0  0  0  0  0  0  0
   19.4598    2.8402    0.0000 H   0  0  0  0  0  0  0  0  0  0  0  0
   11.5263    1.8410    0.0000 H   0  0  0  0  0  0  0  0  0  0  0  0
   12.3923    0.7210    0.0000 H   0  0  0  0  0  0  0  0  0  0  0  0
   22.2719    4.4493    0.0000 H   0  0  0  0  0  0  0  0  0  0  0  0
   10.8872    1.5679    0.0000 H   0  0  0  0  0  0  0  0  0  0  0  0
   10.6603    0.7210    0.0000 H   0  0  0  0  0  0  0  0  0  0  0  0
   11.5072    0.4940    0.0000 H   0  0  0  0  0  0  0  0  0  0  0  0
   22.2657    2.8293    0.0000 H   0  0  0  0  0  0  0  0  0  0  0  0
   12.6002   -0.7790    0.0000 H   0  0  0  0  0  0  0  0  0  0  0  0
   15.8373    0.9940    0.0000 H   0  0  0  0  0  0  0  0  0  0  0  0
   16.0643    1.8410    0.0000 H   0  0  0  0  0  0  0  0  0  0  0  0
   15.2173    2.0679    0.0000 H   0  0  0  0  0  0  0  0  0  0  0  0
   12.2753   -2.0516    0.0000 H   0  0  0  0  0  0  0  0  0  0  0  0
   12.6738   -1.3614    0.0000 H   0  0  0  0  0  0  0  0  0  0  0  0
   11.7341   -2.2790    0.0000 H   0  0  0  0  0  0  0  0  0  0  0  0
   10.3312    0.1510    0.0000 H   0  0  0  0  0  0  0  0  0  0  0  0
    9.7942   -1.1590    0.0000 H   0  0  0  0  0  0  0  0  0  0  0  0
    9.7751    0.5679    0.0000 H   0  0  0  0  0  0  0  0  0  0  0  0
    8.9282    0.3410    0.0000 H   0  0  0  0  0  0  0  0  0  0  0  0
    9.1551   -0.5060    0.0000 H   0  0  0  0  0  0  0  0  0  0  0  0
   10.0021   -2.6590    0.0000 H   0  0  0  0  0  0  0  0  0  0  0  0
   11.7532   -4.0060    0.0000 H   0  0  0  0  0  0  0  0  0  0  0  0
   12.6002   -3.7790    0.0000 H   0  0  0  0  0  0  0  0  0  0  0  0
   12.3732   -2.9321    0.0000 H   0  0  0  0  0  0  0  0  0  0  0  0
   10.9417   -3.5767    0.0000 H   0  0  0  0  0  0  0  0  0  0  0  0
   10.5432   -2.8864    0.0000 H   0  0  0  0  0  0  0  0  0  0  0  0
   10.8681   -4.1590    0.0000 H   0  0  0  0  0  0  0  0  0  0  0  0
   10.0021   -5.2790    0.0000 H   0  0  0  0  0  0  0  0  0  0  0  0
    8.0622   -4.1590    0.0000 H   0  0  0  0  0  0  0  0  0  0  0  0
    7.4231   -4.4321    0.0000 H   0  0  0  0  0  0  0  0  0  0  0  0
    7.1962   -5.2790    0.0000 H   0  0  0  0  0  0  0  0  0  0  0  0
    8.0431   -5.5060    0.0000 H   0  0  0  0  0  0  0  0  0  0  0  0
    8.5991   -5.8490    0.0000 H   0  0  0  0  0  0  0  0  0  0  0  0
    8.5991   -8.0890    0.0000 H   0  0  0  0  0  0  0  0  0  0  0  0
    7.1962   -8.2790    0.0000 H   0  0  0  0  0  0  0  0  0  0  0  0
    6.3301   -7.1590    0.0000 H   0  0  0  0  0  0  0  0  0  0  0  0
    6.8671   -5.8490    0.0000 H   0  0  0  0  0  0  0  0  0  0  0  0
   12.3732   -5.0060    0.0000 H   0  0  0  0  0  0  0  0  0  0  0  0
   12.6002   -4.1590    0.0000 H   0  0  0  0  0  0  0  0  0  0  0  0
   11.7532   -3.9321    0.0000 H   0  0  0  0  0  0  0  0  0  0  0  0
    5.1350   -8.0890    0.0000 H   0  0  0  0  0  0  0  0  0  0  0  0
    6.3110   -5.4321    0.0000 H   0  0  0  0  0  0  0  0  0  0  0  0
    5.4641   -5.6590    0.0000 H   0  0  0  0  0  0  0  0  0  0  0  0
    5.6910   -6.5060    0.0000 H   0  0  0  0  0  0  0  0  0  0  0  0
    3.7320   -8.2790    0.0000 H   0  0  0  0  0  0  0  0  0  0  0  0
    2.8660   -7.1590    0.0000 H   0  0  0  0  0  0  0  0  0  0  0  0
   10.0021   -7.6590    0.0000 H   0  0  0  0  0  0  0  0  0  0  0  0
    3.4030   -5.8490    0.0000 H   0  0  0  0  0  0  0  0  0  0  0  0
    4.8059   -5.6590    0.0000 H   0  0  0  0  0  0  0  0  0  0  0  0
    8.2891  -10.0060    0.0000 H   0  0  0  0  0  0  0  0  0  0  0  0
    9.1360   -9.7790    0.0000 H   0  0  0  0  0  0  0  0  0  0  0  0
    8.9091   -8.9321    0.0000 H   0  0  0  0  0  0  0  0  0  0  0  0
    4.0569   -4.3864    0.0000 H   0  0  0  0  0  0  0  0  0  0  0  0
    3.6584   -5.0767    0.0000 H   0  0  0  0  0  0  0  0  0  0  0  0
    3.7320   -9.2790    0.0000 H   0  0  0  0  0  0  0  0  0  0  0  0
    2.0000   -7.6590    0.0000 H   0  0  0  0  0  0  0  0  0  0  0  0
    2.5369   -5.3490    0.0000 H   0  0  0  0  0  0  0  0  0  0  0  0
    5.1350   -3.8490    0.0000 H   0  0  0  0  0  0  0  0  0  0  0  0
  1 28  1  0  0  0  0
  1105  1  0  0  0  0
  2 29  1  0  0  0  0
  2109  1  0  0  0  0
  3 31  1  0  0  0  0
  3114  1  0  0  0  0
  4 32  1  0  0  0  0
  4 48  1  0  0  0  0
  5 40  1  0  0  0  0
  5119  1  0  0  0  0
  6 46  1  0  0  0  0
  6 49  1  0  0  0  0
  7 48  2  0  0  0  0
  8 49  1  0  0  0  0
  8 55  1  0  0  0  0
  9 52  1  0  0  0  0
  9 61  1  0  0  0  0
 10 56  1  0  0  0  0
 10 60  1  0  0  0  0
 11 60  1  0  0  0  0
 11 64  1  0  0  0  0
 12 63  1  0  0  0  0
 12 68  1  0  0  0  0
 13 65  1  0  0  0  0
 13 67  1  0  0  0  0
 14 67  1  0  0  0  0
 14 72  1  0  0  0  0
 15 71  1  0  0  0  0
 15 74  1  0  0  0  0
 16 70  1  0  0  0  0
 16 79  1  0  0  0  0
 17 74  1  0  0  0  0
 17 78  1  0  0  0  0
 18 77  1  0  0  0  0
 18 80  1  0  0  0  0
 19 76  1  0  0  0  0
 19 86  1  0  0  0  0
 20 75  1  0  0  0  0
 20171  1  0  0  0  0
 21 80  1  0  0  0  0
 21 85  1  0  0  0  0
 22 82  1  0  0  0  0
 22179  1  0  0  0  0
 23 83  1  0  0  0  0
 23180  1  0  0  0  0
 24 84  1  0  0  0  0
 24181  1  0  0  0  0
 25 87  1  0  0  0  0
 25182  1  0  0  0  0
 26 54  1  0  0  0  0
 26 59  2  0  0  0  0
 27 28  1  0  0  0  0
 27 31  1  0  0  0  0
 27 32  1  0  0  0  0
 27 38  1  0  0  0  0
 28 29  1  0  0  0  0
 28 33  1  0  0  0  0
 29 30  1  0  0  0  0
 29 37  1  0  0  0  0
 30 34  1  0  0  0  0
 30 35  1  0  0  0  0
 30 88  1  0  0  0  0
 31 36  1  0  0  0  0
 31 40  1  0  0  0  0
 32 35  1  0  0  0  0
 32 89  1  0  0  0  0
 33 36  1  0  0  0  0
 33 90  1  0  0  0  0
 33 91  1  0  0  0  0
 34 39  1  0  0  0  0
 34 41  1  0  0  0  0
 34 43  1  0  0  0  0
 35 92  1  0  0  0  0
 35 93  1  0  0  0  0
 36 94  1  0  0  0  0
 36 95  1  0  0  0  0
 37 42  1  0  0  0  0
 37 96  1  0  0  0  0
 37 97  1  0  0  0  0
 38 98  1  0  0  0  0
 38 99  1  0  0  0  0
 38100  1  0  0  0  0
 39 42  2  0  0  0  0
 39 44  1  0  0  0  0
 40 47  1  0  0  0  0
 40101  1  0  0  0  0
 41 45  1  0  0  0  0
 41102  1  0  0  0  0
 41103  1  0  0  0  0
 42104  1  0  0  0  0
 43106  1  0  0  0  0
 43107  1  0  0  0  0
 43108  1  0  0  0  0
 44 46  1  0  0  0  0
 44110  1  0  0  0  0
 44111  1  0  0  0  0
 45 46  1  0  0  0  0
 45112  1  0  0  0  0
 45113  1  0  0  0  0
 46115  1  0  0  0  0
 47116  1  0  0  0  0
 47117  1  0  0  0  0
 47118  1  0  0  0  0
 48 50  1  0  0  0  0
 49 51  1  0  0  0  0
 49120  1  0  0  0  0
 50 53  1  0  0  0  0
 50 54  2  0  0  0  0
 51 52  1  0  0  0  0
 51121  1  0  0  0  0
 51122  1  0  0  0  0
 52 56  1  0  0  0  0
 52123  1  0  0  0  0
 53 57  2  0  0  0  0
 53124  1  0  0  0  0
 54125  1  0  0  0  0
 55 56  1  0  0  0  0
 55 58  1  0  0  0  0
 55126  1  0  0  0  0
 56127  1  0  0  0  0
 57 59  1  0  0  0  0
 57128  1  0  0  0  0
 58129  1  0  0  0  0
 58130  1  0  0  0  0
 58131  1  0  0  0  0
 59132  1  0  0  0  0
 60 62  1  0  0  0  0
 60133  1  0  0  0  0
 61134  1  0  0  0  0
 61135  1  0  0  0  0
 61136  1  0  0  0  0
 62 63  1  0  0  0  0
 62137  1  0  0  0  0
 62138  1  0  0  0  0
 63 65  1  0  0  0  0
 63139  1  0  0  0  0
 64 65  1  0  0  0  0
 64 66  1  0  0  0  0
 64140  1  0  0  0  0
 65141  1  0  0  0  0
 66142  1  0  0  0  0
 66143  1  0  0  0  0
 66144  1  0  0  0  0
 67 69  1  0  0  0  0
 67145  1  0  0  0  0
 68146  1  0  0  0  0
 68147  1  0  0  0  0
 68148  1  0  0  0  0
 69 70  1  0  0  0  0
 69149  1  0  0  0  0
 69150  1  0  0  0  0
 70 71  1  0  0  0  0
 70151  1  0  0  0  0
 71 72  1  0  0  0  0
 71152  1  0  0  0  0
 72 73  1  0  0  0  0
 72153  1  0  0  0  0
 73154  1  0  0  0  0
 73155  1  0  0  0  0
 73156  1  0  0  0  0
 74 75  1  0  0  0  0
 74157  1  0  0  0  0
 75 76  1  0  0  0  0
 75158  1  0  0  0  0
 76 77  1  0  0  0  0
 76159  1  0  0  0  0
 77 78  1  0  0  0  0
 77160  1  0  0  0  0
 78 81  1  0  0  0  0
 78161  1  0  0  0  0
 79162  1  0  0  0  0
 79163  1  0  0  0  0
 79164  1  0  0  0  0
 80 82  1  0  0  0  0
 80165  1  0  0  0  0
 81166  1  0  0  0  0
 81167  1  0  0  0  0
 81168  1  0  0  0  0
 82 83  1  0  0  0  0
 82169  1  0  0  0  0
 83 84  1  0  0  0  0
 83170  1  0  0  0  0
 84 85  1  0  0  0  0
 84172  1  0  0  0  0
 85 87  1  0  0  0  0
 85173  1  0  0  0  0
 86174  1  0  0  0  0
 86175  1  0  0  0  0
 86176  1  0  0  0  0
 87177  1  0  0  0  0
 87178  1  0  0  0  0
M  END
> <PUBCHEM_COMPOUND_CID>
197673

> <PUBCHEM_COMPOUND_CANONICALIZED>
1

> <PUBCHEM_CACTVS_COMPLEXITY>
2350

> <PUBCHEM_CACTVS_HBOND_ACCEPTOR>
26

> <PUBCHEM_CACTVS_HBOND_DONOR>
9

> <PUBCHEM_CACTVS_ROTATABLE_BOND>
19

> <PUBCHEM_CACTVS_SUBSKEYS>
AAADcfB+PgAAAAAAAAAAAAAAAAAAAYAAAAA8aJEiQAAAAGCBgAAAHgAACAAAD1Txmgc+iJIIFgCoAjD3TACCgCA1AiAI2CE4bNgZNvrAtZmmcYhnwAHP6cfY8f4PgAAAAAAAAADCAAYQADCAAYQADAAAAA==

> <PUBCHEM_IUPAC_OPENEYE_NAME>
[8,14,17-trihydroxy-17-(1-hydroxyethyl)-3-[5-[5-[5-[3-hydroxy-4-methoxy-6-methyl-5-[3,4,5-trihydroxy-6-(hydroxymethyl)tetrahydropyran-2-yl]oxy-tetrahydropyran-2-yl]oxy-4-methoxy-6-methyl-tetrahydropyran-2-yl]oxy-4-methoxy-6-methyl-tetrahydropyran-2-yl]oxy-4-methoxy-6-methyl-tetrahydropyran-2-yl]oxy-10,13-dimethyl-1,2,3,4,7,9,11,12,15,16-decahydrocyclopenta[a]phenanthren-12-yl] pyridine-3-carboxylate

> <PUBCHEM_IUPAC_CAS_NAME>
3-pyridinecarboxylic acid [8,14,17-trihydroxy-17-(1-hydroxyethyl)-3-[[5-[[5-[[5-[[3-hydroxy-4-methoxy-6-methyl-5-[[3,4,5-trihydroxy-6-(hydroxymethyl)-2-oxanyl]oxy]-2-oxanyl]oxy]-4-methoxy-6-methyl-2-oxanyl]oxy]-4-methoxy-6-methyl-2-oxanyl]oxy]-4-methoxy-6-methyl-2-oxanyl]oxy]-10,13-dimethyl-1,2,3,4,7,9,11,12,15,16-decahydrocyclopenta[a]phenanthren-12-yl] ester

> <PUBCHEM_IUPAC_NAME_MARKUP>
[8,14,17-trihydroxy-17-(1-hydroxyethyl)-3-[5-[5-[5-[3-hydroxy-4-methoxy-6-methyl-5-[3,4,5-trihydroxy-6-(hydroxymethyl)oxan-2-yl]oxyoxan-2-yl]oxy-4-methoxy-6-methyloxan-2-yl]oxy-4-methoxy-6-methyloxan-2-yl]oxy-4-methoxy-6-methyloxan-2-yl]oxy-10,13-dimethyl-1,2,3,4,7,9,11,12,15,16-decahydrocyclopenta[a]phenanthren-12-yl] pyridine-3-carboxylate

> <PUBCHEM_IUPAC_NAME>
[8,14,17-trihydroxy-17-(1-hydroxyethyl)-3-[5-[5-[5-[3-hydroxy-4-methoxy-6-methyl-5-[3,4,5-trihydroxy-6-(hydroxymethyl)oxan-2-yl]oxyoxan-2-yl]oxy-4-methoxy-6-methyloxan-2-yl]oxy-4-methoxy-6-methyloxan-2-yl]oxy-4-methoxy-6-methyloxan-2-yl]oxy-10,13-dimethyl-1,2,3,4,7,9,11,12,15,16-decahydrocyclopenta[a]phenanthren-12-yl] pyridine-3-carboxylate

> <PUBCHEM_IUPAC_SYSTEMATIC_NAME>
[17-(1-hydroxyethyl)-3-[5-[5-[5-[5-[6-(hydroxymethyl)-3,4,5-tris(oxidanyl)oxan-2-yl]oxy-4-methoxy-6-methyl-3-oxidanyl-oxan-2-yl]oxy-4-methoxy-6-methyl-oxan-2-yl]oxy-4-methoxy-6-methyl-oxan-2-yl]oxy-4-methoxy-6-methyl-oxan-2-yl]oxy-10,13-dimethyl-8,14,17-tris(oxidanyl)-1,2,3,4,7,9,11,12,15,16-decahydrocyclopenta[a]phenanthren-12-yl] pyridine-3-carboxylate

> <PUBCHEM_IUPAC_TRADITIONAL_NAME>
nicotinic acid [8,14,17-trihydroxy-17-(1-hydroxyethyl)-3-[5-[5-[5-[3-hydroxy-4-methoxy-6-methyl-5-(3,4,5-trihydroxy-6-methylol-tetrahydropyran-2-yl)oxy-tetrahydropyran-2-yl]oxy-4-methoxy-6-methyl-tetrahydropyran-2-yl]oxy-4-methoxy-6-methyl-tetrahydropyran-2-yl]oxy-4-methoxy-6-methyl-tetrahydropyran-2-yl]oxy-10,13-dimethyl-1,2,3,4,7,9,11,12,15,16-decahydrocyclopenta[a]phenanthren-12-yl] ester

> <PUBCHEM_IUPAC_INCHI>
InChI=1S/C61H95NO25/c1-28-49(36(73-8)22-42(77-28)81-35-15-16-57(6)34(21-35)14-17-60(71)40(57)25-41(83-54(69)33-13-12-20-62-26-33)58(7)59(70,32(5)64)18-19-61(58,60)72)84-43-23-37(74-9)50(29(2)78-43)85-44-24-38(75-10)51(30(3)79-44)86-56-48(68)53(76-11)52(31(4)80-56)87-55-47(67)46(66)45(65)39(27-63)82-55/h12-14,20,26,28-32,35-53,55-56,63-68,70-72H,15-19,21-25,27H2,1-11H3

> <PUBCHEM_IUPAC_INCHIKEY>
RGGYEMBOCOZNNC-UHFFFAOYSA-N

> <PUBCHEM_XLOGP3_AA>
-0.1

> <PUBCHEM_EXACT_MASS>
1241.619318

> <PUBCHEM_MOLECULAR_FORMULA>
C61H95NO25

> <PUBCHEM_MOLECULAR_WEIGHT>
1242.4

> <PUBCHEM_OPENEYE_CAN_SMILES>
CC1C(C(CC(O1)OC2CCC3(C4CC(C5(C(CCC5(C4(CC=C3C2)O)O)(C(C)O)O)C)OC(=O)C6=CN=CC=C6)C)OC)OC7CC(C(C(O7)C)OC8CC(C(C(O8)C)OC9C(C(C(C(O9)C)OC1C(C(C(C(O1)CO)O)O)O)OC)O)OC)OC

> <PUBCHEM_OPENEYE_ISO_SMILES>
CC1C(C(CC(O1)OC2CCC3(C4CC(C5(C(CCC5(C4(CC=C3C2)O)O)(C(C)O)O)C)OC(=O)C6=CN=CC=C6)C)OC)OC7CC(C(C(O7)C)OC8CC(C(C(O8)C)OC9C(C(C(C(O9)C)OC1C(C(C(C(O1)CO)O)O)O)OC)O)OC)OC

> <PUBCHEM_CACTVS_TPSA>
351

> <PUBCHEM_MONOISOTOPIC_WEIGHT>
1241.619318

> <PUBCHEM_TOTAL_CHARGE>
0

> <PUBCHEM_HEAVY_ATOM_COUNT>
87

> <PUBCHEM_ATOM_DEF_STEREO_COUNT>
0

> <PUBCHEM_ATOM_UDEF_STEREO_COUNT>
31

> <PUBCHEM_BOND_DEF_STEREO_COUNT>
0

> <PUBCHEM_BOND_UDEF_STEREO_COUNT>
0

> <PUBCHEM_ISOTOPIC_ATOM_COUNT>
0

> <PUBCHEM_COMPONENT_COUNT>
1

> <PUBCHEM_CACTVS_TAUTO_COUNT>
-1

> <PUBCHEM_COORDINATE_TYPE>
1
5
255

> <PUBCHEM_BONDANNOTATIONS>
28  1  3
56  10  3
60  10  3
63  12  3
65  13  3
67  13  3
71  15  3
74  15  3
70  16  3
77  18  3
80  18  3
76  19  3
29  2  3
75  20  3
82  22  3
83  23  3
84  24  3
26  54  8
26  59  8
27  38  3
31  3  3
30  35  3
34  43  3
32  4  3
40  5  3
50  53  8
50  54  8
53  57  8
55  58  3
57  59  8
46  6  3
49  6  3
64  66  3
72  73  3
78  81  3
85  87  3
52  9  3

$$$$
