44263865
  -OEChem-08302001452D

136141  0     1  0  0  0  0  0999 V2000
   10.3312    2.0381    0.0000 O   0  0  0  0  0  0  0  0  0  0  0  0
   11.1972    0.5381    0.0000 O   0  0  0  0  0  0  0  0  0  0  0  0
   10.3312   -1.9619    0.0000 O   0  0  0  0  0  0  0  0  0  0  0  0
   10.3312    4.0381    0.0000 O   0  0  0  0  0  0  0  0  0  0  0  0
   12.9292    2.5381    0.0000 O   0  0  0  0  0  0  0  0  0  0  0  0
    8.5991   -1.9619    0.0000 O   0  0  0  0  0  0  0  0  0  0  0  0
   10.3312   -3.9619    0.0000 O   0  0  0  0  0  0  0  0  0  0  0  0
    8.5991   -0.9619    0.0000 O   0  0  0  0  0  0  0  0  0  0  0  0
   10.6319    5.7439    0.0000 O   0  0  0  0  0  0  0  0  0  0  0  0
    8.5991   -4.9619    0.0000 O   0  0  0  0  0  0  0  0  0  0  0  0
   13.7953    4.0381    0.0000 O   0  0  0  0  0  0  0  0  0  0  0  0
    6.8671   -3.9619    0.0000 O   0  0  0  0  0  0  0  0  0  0  0  0
    6.8671   -0.9619    0.0000 O   0  0  0  0  0  0  0  0  0  0  0  0
   12.9292   -0.4619    0.0000 O   0  0  0  0  0  0  0  0  0  0  0  0
    9.4651   -5.4619    0.0000 O   0  0  0  0  0  0  0  0  0  0  0  0
   12.9292    0.5381    0.0000 O   0  0  0  0  0  0  0  0  0  0  0  0
    8.3616    4.3854    0.0000 O   0  0  0  0  0  0  0  0  0  0  0  0
    7.6775    6.2648    0.0000 O   0  0  0  0  0  0  0  0  0  0  0  0
    5.1350   -0.9619    0.0000 O   0  0  0  0  0  0  0  0  0  0  0  0
    8.9631    7.7969    0.0000 O   0  0  0  0  0  0  0  0  0  0  0  0
   12.0632   -4.9619    0.0000 O   0  0  0  0  0  0  0  0  0  0  0  0
   12.0632   -6.9619    0.0000 O   0  0  0  0  0  0  0  0  0  0  0  0
    6.8671    1.0381    0.0000 O   0  0  0  0  0  0  0  0  0  0  0  0
   10.3312   -7.9619    0.0000 O   0  0  0  0  0  0  0  0  0  0  0  0
    9.4651    2.5381    0.0000 O   0  0  0  0  0  0  0  0  0  0  0  0
    5.1350    2.0381    0.0000 O   0  0  0  0  0  0  0  0  0  0  0  0
    3.4030    1.0381    0.0000 O   0  0  0  0  0  0  0  0  0  0  0  0
   13.7953    5.0381    0.0000 O   0  0  0  0  0  0  0  0  0  0  0  0
    2.5369   -0.4619    0.0000 O   0  0  0  0  0  0  0  0  0  0  0  0
    8.5991    1.0381    0.0000 N   0  0  0  0  0  0  0  0  0  0  0  0
   12.0632    5.0381    0.0000 N   0  0  0  0  0  0  0  0  0  0  0  0
   10.3312   -0.9619    0.0000 C   0  0  1  0  0  0  0  0  0  0  0  0
   11.1972    2.5381    0.0000 C   0  0  1  0  0  0  0  0  0  0  0  0
    9.4651    0.5381    0.0000 C   0  0  2  0  0  0  0  0  0  0  0  0
    9.4651   -0.4619    0.0000 C   0  0  1  0  0  0  0  0  0  0  0  0
   11.1972    3.5381    0.0000 C   0  0  1  0  0  0  0  0  0  0  0  0
   10.3312    1.0381    0.0000 C   0  0  2  0  0  0  0  0  0  0  0  0
   11.1972   -0.4619    0.0000 C   0  0  1  0  0  0  0  0  0  0  0  0
   12.0632    4.0381    0.0000 C   0  0  2  0  0  0  0  0  0  0  0  0
   12.0632    2.0381    0.0000 C   0  0  1  0  0  0  0  0  0  0  0  0
    9.4651   -2.4619    0.0000 C   0  0  2  0  0  0  0  0  0  0  0  0
    9.4651   -3.4619    0.0000 C   0  0  2  0  0  0  0  0  0  0  0  0
    8.5991   -3.9619    0.0000 C   0  0  2  0  0  0  0  0  0  0  0  0
   12.9292    3.5381    0.0000 C   0  0  3  0  0  0  0  0  0  0  0  0
    7.7331   -3.4619    0.0000 C   0  0  1  0  0  0  0  0  0  0  0  0
    7.7331   -2.4619    0.0000 C   0  0  1  0  0  0  0  0  0  0  0  0
    9.9891    4.9778    0.0000 C   0  0  2  0  0  0  0  0  0  0  0  0
   12.0632   -0.9619    0.0000 C   0  0  0  0  0  0  0  0  0  0  0  0
   12.0632    1.0381    0.0000 C   0  0  0  0  0  0  0  0  0  0  0  0
    9.0043    5.1515    0.0000 C   0  0  2  0  0  0  0  0  0  0  0  0
    6.8671   -1.9619    0.0000 C   0  0  0  0  0  0  0  0  0  0  0  0
    8.6623    6.0912    0.0000 C   0  0  1  0  0  0  0  0  0  0  0  0
    9.3051    6.8572    0.0000 C   0  0  1  0  0  0  0  0  0  0  0  0
   10.3312   -4.9619    0.0000 C   0  0  2  0  0  0  0  0  0  0  0  0
   10.2899    6.6836    0.0000 C   0  0  2  0  0  0  0  0  0  0  0  0
   11.1972   -5.4619    0.0000 C   0  0  1  0  0  0  0  0  0  0  0  0
   11.1972   -6.4619    0.0000 C   0  0  2  0  0  0  0  0  0  0  0  0
    8.5991    2.0381    0.0000 C   0  0  0  0  0  0  0  0  0  0  0  0
    6.0010   -0.4619    0.0000 C   0  0  1  0  0  0  0  0  0  0  0  0
    6.0010    0.5381    0.0000 C   0  0  2  0  0  0  0  0  0  0  0  0
   10.3312   -6.9619    0.0000 C   0  0  1  0  0  0  0  0  0  0  0  0
   12.9292    5.5381    0.0000 C   0  0  0  0  0  0  0  0  0  0  0  0
    5.1350    1.0381    0.0000 C   0  0  2  0  0  0  0  0  0  0  0  0
   10.9327    7.4496    0.0000 C   0  0  0  0  0  0  0  0  0  0  0  0
    9.4651   -6.4619    0.0000 C   0  0  0  0  0  0  0  0  0  0  0  0
    4.2690    0.5381    0.0000 C   0  0  1  0  0  0  0  0  0  0  0  0
    4.2690   -0.4619    0.0000 C   0  0  1  0  0  0  0  0  0  0  0  0
    7.7331    2.5381    0.0000 C   0  0  0  0  0  0  0  0  0  0  0  0
   12.9292    6.5381    0.0000 C   0  0  0  0  0  0  0  0  0  0  0  0
    3.4030   -0.9619    0.0000 C   0  0  0  0  0  0  0  0  0  0  0  0
    9.7942   -1.2719    0.0000 H   0  0  0  0  0  0  0  0  0  0  0  0
   10.6603    2.8481    0.0000 H   0  0  0  0  0  0  0  0  0  0  0  0
    9.4651    1.1581    0.0000 H   0  0  0  0  0  0  0  0  0  0  0  0
    8.9282   -0.1519    0.0000 H   0  0  0  0  0  0  0  0  0  0  0  0
   11.1972    4.1581    0.0000 H   0  0  0  0  0  0  0  0  0  0  0  0
    9.7942    1.3481    0.0000 H   0  0  0  0  0  0  0  0  0  0  0  0
   11.7341   -0.1519    0.0000 H   0  0  0  0  0  0  0  0  0  0  0  0
   11.5263    4.3481    0.0000 H   0  0  0  0  0  0  0  0  0  0  0  0
   12.6002    1.7281    0.0000 H   0  0  0  0  0  0  0  0  0  0  0  0
   10.0021   -2.7719    0.0000 H   0  0  0  0  0  0  0  0  0  0  0  0
    9.4651   -4.0819    0.0000 H   0  0  0  0  0  0  0  0  0  0  0  0
    9.1360   -4.2719    0.0000 H   0  0  0  0  0  0  0  0  0  0  0  0
   12.9292    4.1581    0.0000 H   0  0  0  0  0  0  0  0  0  0  0  0
    7.7331   -4.0819    0.0000 H   0  0  0  0  0  0  0  0  0  0  0  0
    7.7331   -1.8419    0.0000 H   0  0  0  0  0  0  0  0  0  0  0  0
    9.5906    4.5029    0.0000 H   0  0  0  0  0  0  0  0  0  0  0  0
   11.6647   -1.4368    0.0000 H   0  0  0  0  0  0  0  0  0  0  0  0
   12.4617   -1.4368    0.0000 H   0  0  0  0  0  0  0  0  0  0  0  0
    8.0622    0.7281    0.0000 H   0  0  0  0  0  0  0  0  0  0  0  0
   11.4526    1.1458    0.0000 H   0  0  0  0  0  0  0  0  0  0  0  0
   11.8512    0.4555    0.0000 H   0  0  0  0  0  0  0  0  0  0  0  0
    8.3938    5.2591    0.0000 H   0  0  0  0  0  0  0  0  0  0  0  0
   11.6647    5.5131    0.0000 H   0  0  0  0  0  0  0  0  0  0  0  0
    6.2565   -1.8542    0.0000 H   0  0  0  0  0  0  0  0  0  0  0  0
    6.6550   -2.5445    0.0000 H   0  0  0  0  0  0  0  0  0  0  0  0
    8.4503    6.6738    0.0000 H   0  0  0  0  0  0  0  0  0  0  0  0
    8.0622   -0.6519    0.0000 H   0  0  0  0  0  0  0  0  0  0  0  0
    9.7036    7.3322    0.0000 H   0  0  0  0  0  0  0  0  0  0  0  0
    9.7942   -4.6519    0.0000 H   0  0  0  0  0  0  0  0  0  0  0  0
   10.9005    6.5759    0.0000 H   0  0  0  0  0  0  0  0  0  0  0  0
   11.7341   -5.7719    0.0000 H   0  0  0  0  0  0  0  0  0  0  0  0
    8.0622   -5.2719    0.0000 H   0  0  0  0  0  0  0  0  0  0  0  0
   11.1972   -7.0819    0.0000 H   0  0  0  0  0  0  0  0  0  0  0  0
   14.3322    3.7281    0.0000 H   0  0  0  0  0  0  0  0  0  0  0  0
    6.5380   -0.1519    0.0000 H   0  0  0  0  0  0  0  0  0  0  0  0
    6.3301   -3.6519    0.0000 H   0  0  0  0  0  0  0  0  0  0  0  0
    6.0010    1.1581    0.0000 H   0  0  0  0  0  0  0  0  0  0  0  0
    9.7942   -7.2719    0.0000 H   0  0  0  0  0  0  0  0  0  0  0  0
    4.5981    1.3481    0.0000 H   0  0  0  0  0  0  0  0  0  0  0  0
   11.4076    7.0511    0.0000 H   0  0  0  0  0  0  0  0  0  0  0  0
   11.3312    7.9246    0.0000 H   0  0  0  0  0  0  0  0  0  0  0  0
   10.4578    7.8481    0.0000 H   0  0  0  0  0  0  0  0  0  0  0  0
    8.8546   -6.3542    0.0000 H   0  0  0  0  0  0  0  0  0  0  0  0
    9.2531   -7.0445    0.0000 H   0  0  0  0  0  0  0  0  0  0  0  0
   13.4662   -0.7719    0.0000 H   0  0  0  0  0  0  0  0  0  0  0  0
    4.2690    1.1581    0.0000 H   0  0  0  0  0  0  0  0  0  0  0  0
    4.2690   -1.0819    0.0000 H   0  0  0  0  0  0  0  0  0  0  0  0
   13.4662    0.8481    0.0000 H   0  0  0  0  0  0  0  0  0  0  0  0
    7.7510    4.4931    0.0000 H   0  0  0  0  0  0  0  0  0  0  0  0
    7.4655    6.8474    0.0000 H   0  0  0  0  0  0  0  0  0  0  0  0
    9.3616    8.2719    0.0000 H   0  0  0  0  0  0  0  0  0  0  0  0
    8.0431    3.0751    0.0000 H   0  0  0  0  0  0  0  0  0  0  0  0
    7.1962    2.8481    0.0000 H   0  0  0  0  0  0  0  0  0  0  0  0
    7.4231    2.0012    0.0000 H   0  0  0  0  0  0  0  0  0  0  0  0
   13.5492    6.5381    0.0000 H   0  0  0  0  0  0  0  0  0  0  0  0
   12.9292    7.1581    0.0000 H   0  0  0  0  0  0  0  0  0  0  0  0
   12.3092    6.5381    0.0000 H   0  0  0  0  0  0  0  0  0  0  0  0
   12.6002   -5.2719    0.0000 H   0  0  0  0  0  0  0  0  0  0  0  0
    3.0044   -1.4368    0.0000 H   0  0  0  0  0  0  0  0  0  0  0  0
    3.8015   -1.4368    0.0000 H   0  0  0  0  0  0  0  0  0  0  0  0
   12.0632   -7.5819    0.0000 H   0  0  0  0  0  0  0  0  0  0  0  0
    6.8671    1.6581    0.0000 H   0  0  0  0  0  0  0  0  0  0  0  0
    9.7942   -8.2719    0.0000 H   0  0  0  0  0  0  0  0  0  0  0  0
    4.5981    2.3481    0.0000 H   0  0  0  0  0  0  0  0  0  0  0  0
    3.4030    1.6581    0.0000 H   0  0  0  0  0  0  0  0  0  0  0  0
    2.0000   -0.7719    0.0000 H   0  0  0  0  0  0  0  0  0  0  0  0
 33  1  1  1  0  0  0
 37  1  1  6  0  0  0
  2 37  1  0  0  0  0
  2 38  1  0  0  0  0
 32  3  1  1  0  0  0
 41  3  1  1  0  0  0
 36  4  1  6  0  0  0
 47  4  1  1  0  0  0
  5 40  1  0  0  0  0
  5 44  1  0  0  0  0
  6 41  1  0  0  0  0
  6 46  1  0  0  0  0
 42  7  1  1  0  0  0
 54  7  1  1  0  0  0
 35  8  1  6  0  0  0
  8 97  1  0  0  0  0
  9 47  1  0  0  0  0
  9 55  1  0  0  0  0
 43 10  1  1  0  0  0
 10102  1  0  0  0  0
 11 44  1  0  0  0  0
 11104  1  0  0  0  0
 45 12  1  6  0  0  0
 12106  1  0  0  0  0
 13 51  1  0  0  0  0
 59 13  1  1  0  0  0
 14 48  1  0  0  0  0
 14115  1  0  0  0  0
 15 54  1  0  0  0  0
 15 65  1  0  0  0  0
 16 49  1  0  0  0  0
 16118  1  0  0  0  0
 50 17  1  1  0  0  0
 17119  1  0  0  0  0
 52 18  1  6  0  0  0
 18120  1  0  0  0  0
 19 59  1  0  0  0  0
 19 67  1  0  0  0  0
 53 20  1  6  0  0  0
 20121  1  0  0  0  0
 56 21  1  6  0  0  0
 21128  1  0  0  0  0
 57 22  1  1  0  0  0
 22131  1  0  0  0  0
 60 23  1  6  0  0  0
 23132  1  0  0  0  0
 61 24  1  6  0  0  0
 24133  1  0  0  0  0
 25 58  2  0  0  0  0
 63 26  1  6  0  0  0
 26134  1  0  0  0  0
 66 27  1  1  0  0  0
 27135  1  0  0  0  0
 28 62  2  0  0  0  0
 29 70  1  0  0  0  0
 29136  1  0  0  0  0
 34 30  1  1  0  0  0
 30 58  1  0  0  0  0
 30 89  1  0  0  0  0
 39 31  1  1  0  0  0
 31 62  1  0  0  0  0
 31 93  1  0  0  0  0
 32 35  1  0  0  0  0
 32 38  1  0  0  0  0
 32 71  1  0  0  0  0
 33 36  1  0  0  0  0
 33 40  1  0  0  0  0
 33 72  1  0  0  0  0
 34 35  1  0  0  0  0
 34 37  1  0  0  0  0
 34 73  1  0  0  0  0
 35 74  1  0  0  0  0
 36 39  1  0  0  0  0
 36 75  1  0  0  0  0
 37 76  1  0  0  0  0
 38 48  1  6  0  0  0
 38 77  1  0  0  0  0
 39 44  1  0  0  0  0
 39 78  1  0  0  0  0
 40 49  1  6  0  0  0
 40 79  1  0  0  0  0
 41 42  1  0  0  0  0
 41 80  1  0  0  0  0
 42 43  1  0  0  0  0
 42 81  1  0  0  0  0
 43 45  1  0  0  0  0
 43 82  1  0  0  0  0
 44 83  1  0  0  0  0
 45 46  1  0  0  0  0
 45 84  1  0  0  0  0
 46 51  1  1  0  0  0
 46 85  1  0  0  0  0
 47 50  1  0  0  0  0
 47 86  1  0  0  0  0
 48 87  1  0  0  0  0
 48 88  1  0  0  0  0
 49 90  1  0  0  0  0
 49 91  1  0  0  0  0
 50 52  1  0  0  0  0
 50 92  1  0  0  0  0
 51 94  1  0  0  0  0
 51 95  1  0  0  0  0
 52 53  1  0  0  0  0
 52 96  1  0  0  0  0
 53 55  1  0  0  0  0
 53 98  1  0  0  0  0
 54 56  1  0  0  0  0
 54 99  1  0  0  0  0
 55 64  1  6  0  0  0
 55100  1  0  0  0  0
 56 57  1  0  0  0  0
 56101  1  0  0  0  0
 57 61  1  0  0  0  0
 57103  1  0  0  0  0
 58 68  1  0  0  0  0
 59 60  1  0  0  0  0
 59105  1  0  0  0  0
 60 63  1  0  0  0  0
 60107  1  0  0  0  0
 61 65  1  0  0  0  0
 61108  1  0  0  0  0
 62 69  1  0  0  0  0
 63 66  1  0  0  0  0
 63109  1  0  0  0  0
 64110  1  0  0  0  0
 64111  1  0  0  0  0
 64112  1  0  0  0  0
 65113  1  0  0  0  0
 65114  1  0  0  0  0
 66 67  1  0  0  0  0
 66116  1  0  0  0  0
 67 70  1  6  0  0  0
 67117  1  0  0  0  0
 68122  1  0  0  0  0
 68123  1  0  0  0  0
 68124  1  0  0  0  0
 69125  1  0  0  0  0
 69126  1  0  0  0  0
 69127  1  0  0  0  0
 70129  1  0  0  0  0
 70130  1  0  0  0  0
M  END
> <PUBCHEM_COMPOUND_CID>
44263865

> <PUBCHEM_COMPOUND_CANONICALIZED>
1

> <PUBCHEM_CACTVS_COMPLEXITY>
1680

> <PUBCHEM_CACTVS_HBOND_ACCEPTOR>
29

> <PUBCHEM_CACTVS_HBOND_DONOR>
18

> <PUBCHEM_CACTVS_ROTATABLE_BOND>
16

> <PUBCHEM_CACTVS_SUBSKEYS>
AAADcfB/PgAAAAAAAAAAAAAAAAAAAAAAAAAkSJEiQAAAAAAAAAAAHgAQCAAACDzxgAcCCALABgAIAAEQEAAAAAAAAAAAAIAIAAATEAIAgAAnQAAHFgCXAAHwcA8AAAAAAAAAAAAAAAAAAAAAAAAAAAAAAA==

> <PUBCHEM_IUPAC_OPENEYE_NAME>
N-[(2S,3R,4R,5S,6R)-2-[(2R,3S,4R,5R)-5-acetamido-6-hydroxy-2-(hydroxymethyl)-4-[(2S,3S,4R,5S,6S)-3,4,5-trihydroxy-6-methyl-tetrahydropyran-2-yl]oxy-tetrahydropyran-3-yl]oxy-5-[(2S,3S,4S,5S,6R)-4,5-dihydroxy-6-[[(2S,3S,4S,5S,6R)-3,4,5-trihydroxy-6-(hydroxymethyl)tetrahydropyran-2-yl]oxymethyl]-3-[(2S,3R,4S,5R)-3,4,5-trihydroxytetrahydropyran-2-yl]oxy-tetrahydropyran-2-yl]oxy-4-hydroxy-6-(hydroxymethyl)tetrahydropyran-3-yl]acetamide

> <PUBCHEM_IUPAC_CAS_NAME>
N-[(2S,3R,4R,5S,6R)-2-[[(2R,3S,4R,5R)-5-acetamido-6-hydroxy-2-(hydroxymethyl)-4-[[(2S,3S,4R,5S,6S)-3,4,5-trihydroxy-6-methyl-2-oxanyl]oxy]-3-oxanyl]oxy]-5-[[(2S,3S,4S,5S,6R)-4,5-dihydroxy-6-[[(2S,3S,4S,5S,6R)-3,4,5-trihydroxy-6-(hydroxymethyl)-2-oxanyl]oxymethyl]-3-[[(2S,3R,4S,5R)-3,4,5-trihydroxy-2-oxanyl]oxy]-2-oxanyl]oxy]-4-hydroxy-6-(hydroxymethyl)-3-oxanyl]acetamide

> <PUBCHEM_IUPAC_NAME_MARKUP>
<I>N</I>-[(2<I>S</I>,3<I>R</I>,4<I>R</I>,5<I>S</I>,6<I>R</I>)-2-[(2<I>R</I>,3<I>S</I>,4<I>R</I>,5<I>R</I>)-5-acetamido-6-hydroxy-2-(hydroxymethyl)-4-[(2<I>S</I>,3<I>S</I>,4<I>R</I>,5<I>S</I>,6<I>S</I>)-3,4,5-trihydroxy-6-methyloxan-2-yl]oxyoxan-3-yl]oxy-5-[(2<I>S</I>,3<I>S</I>,4<I>S</I>,5<I>S</I>,6<I>R</I>)-4,5-dihydroxy-6-[[(2<I>S</I>,3<I>S</I>,4<I>S</I>,5<I>S</I>,6<I>R</I>)-3,4,5-trihydroxy-6-(hydroxymethyl)oxan-2-yl]oxymethyl]-3-[(2<I>S</I>,3<I>R</I>,4<I>S</I>,5<I>R</I>)-3,4,5-trihydroxyoxan-2-yl]oxyoxan-2-yl]oxy-4-hydroxy-6-(hydroxymethyl)oxan-3-yl]acetamide

> <PUBCHEM_IUPAC_NAME>
N-[(2S,3R,4R,5S,6R)-2-[(2R,3S,4R,5R)-5-acetamido-6-hydroxy-2-(hydroxymethyl)-4-[(2S,3S,4R,5S,6S)-3,4,5-trihydroxy-6-methyloxan-2-yl]oxyoxan-3-yl]oxy-5-[(2S,3S,4S,5S,6R)-4,5-dihydroxy-6-[[(2S,3S,4S,5S,6R)-3,4,5-trihydroxy-6-(hydroxymethyl)oxan-2-yl]oxymethyl]-3-[(2S,3R,4S,5R)-3,4,5-trihydroxyoxan-2-yl]oxyoxan-2-yl]oxy-4-hydroxy-6-(hydroxymethyl)oxan-3-yl]acetamide

> <PUBCHEM_IUPAC_SYSTEMATIC_NAME>
N-[(2S,3R,4R,5S,6R)-2-[(2R,3S,4R,5R)-5-acetamido-2-(hydroxymethyl)-4-[(2S,3S,4R,5S,6S)-6-methyl-3,4,5-tris(oxidanyl)oxan-2-yl]oxy-6-oxidanyl-oxan-3-yl]oxy-6-(hydroxymethyl)-5-[(2S,3S,4S,5S,6R)-6-[[(2S,3S,4S,5S,6R)-6-(hydroxymethyl)-3,4,5-tris(oxidanyl)oxan-2-yl]oxymethyl]-4,5-bis(oxidanyl)-3-[(2S,3R,4S,5R)-3,4,5-tris(oxidanyl)oxan-2-yl]oxy-oxan-2-yl]oxy-4-oxidanyl-oxan-3-yl]ethanamide

> <PUBCHEM_IUPAC_TRADITIONAL_NAME>
N-[(2S,3R,4R,5S,6R)-2-[(2R,3S,4R,5R)-5-acetamido-6-hydroxy-2-methylol-4-[(2S,3S,4R,5S,6S)-3,4,5-trihydroxy-6-methyl-tetrahydropyran-2-yl]oxy-tetrahydropyran-3-yl]oxy-5-[(2S,3S,4S,5S,6R)-4,5-dihydroxy-6-[[(2S,3S,4S,5S,6R)-3,4,5-trihydroxy-6-methylol-tetrahydropyran-2-yl]oxymethyl]-3-[(2S,3R,4S,5R)-3,4,5-trihydroxytetrahydropyran-2-yl]oxy-tetrahydropyran-2-yl]oxy-4-hydroxy-6-methylol-tetrahydropyran-3-yl]acetamide

> <PUBCHEM_IUPAC_INCHI>
InChI=1S/C39H66N2O29/c1-9-19(48)24(53)29(58)38(62-9)69-32-18(41-11(3)46)34(59)63-15(6-44)31(32)68-35-17(40-10(2)45)23(52)30(14(5-43)65-35)67-39-33(70-37-27(56)20(49)12(47)7-60-37)26(55)22(51)16(66-39)8-61-36-28(57)25(54)21(50)13(4-42)64-36/h9,12-39,42-44,47-59H,4-8H2,1-3H3,(H,40,45)(H,41,46)/t9-,12+,13+,14+,15+,16+,17+,18+,19+,20-,21+,22+,23+,24+,25-,26-,27+,28-,29-,30+,31+,32+,33-,34?,35-,36-,37-,38-,39-/m0/s1

> <PUBCHEM_IUPAC_INCHIKEY>
UNMLVGNWZDHBRA-UFAVQCRNSA-N

> <PUBCHEM_XLOGP3_AA>
-11.6

> <PUBCHEM_EXACT_MASS>
1026.375124

> <PUBCHEM_MOLECULAR_FORMULA>
C39H66N2O29

> <PUBCHEM_MOLECULAR_WEIGHT>
1026.9

> <PUBCHEM_OPENEYE_CAN_SMILES>
CC1C(C(C(C(O1)OC2C(C(OC(C2OC3C(C(C(C(O3)CO)OC4C(C(C(C(O4)COC5C(C(C(C(O5)CO)O)O)O)O)O)OC6C(C(C(CO6)O)O)O)O)NC(=O)C)CO)O)NC(=O)C)O)O)O

> <PUBCHEM_OPENEYE_ISO_SMILES>
C[C@H]1[C@H]([C@H]([C@@H]([C@@H](O1)O[C@H]2[C@@H]([C@H](OC([C@@H]2NC(=O)C)O)CO)O[C@H]3[C@@H]([C@H]([C@@H]([C@H](O3)CO)O[C@H]4[C@H]([C@H]([C@@H]([C@H](O4)CO[C@@H]5[C@H]([C@H]([C@@H]([C@H](O5)CO)O)O)O)O)O)O[C@H]6[C@@H]([C@H]([C@@H](CO6)O)O)O)O)NC(=O)C)O)O)O

> <PUBCHEM_CACTVS_TPSA>
483

> <PUBCHEM_MONOISOTOPIC_WEIGHT>
1026.375124

> <PUBCHEM_TOTAL_CHARGE>
0

> <PUBCHEM_HEAVY_ATOM_COUNT>
70

> <PUBCHEM_ATOM_DEF_STEREO_COUNT>
28

> <PUBCHEM_ATOM_UDEF_STEREO_COUNT>
1

> <PUBCHEM_BOND_DEF_STEREO_COUNT>
0

> <PUBCHEM_BOND_UDEF_STEREO_COUNT>
0

> <PUBCHEM_ISOTOPIC_ATOM_COUNT>
0

> <PUBCHEM_COMPONENT_COUNT>
1

> <PUBCHEM_CACTVS_TAUTO_COUNT>
-1

> <PUBCHEM_COORDINATE_TYPE>
1
5
255

> <PUBCHEM_BONDANNOTATIONS>
33  1  5
37  1  6
43  10  5
44  11  3
45  12  6
59  13  5
50  17  5
52  18  6
53  20  6
56  21  6
57  22  5
60  23  6
61  24  6
63  26  6
66  27  5
32  3  5
41  3  5
34  30  5
39  31  5
38  48  6
36  4  6
47  4  5
40  49  6
46  51  5
55  64  6
67  70  6
42  7  5
54  7  5
35  8  6

$$$$
