115269
  -OEChem-09062000453D

 40 43  0     1  0  0  0  0  0999 V2000
    2.9413    2.2842    0.4491 O   0  0  0  0  0  0  0  0  0  0  0  0
   -2.0943   -0.2813    0.5695 N   0  0  2  0  0  0  0  0  0  0  0  0
    1.3555    0.6472   -0.0639 N   0  0  0  0  0  0  0  0  0  0  0  0
   -1.4152   -0.1342   -0.7366 C   0  0  2  0  0  0  0  0  0  0  0  0
   -0.2378   -1.1244   -0.9032 C   0  0  1  0  0  0  0  0  0  0  0  0
   -0.8920    1.2983   -0.9521 C   0  0  2  0  0  0  0  0  0  0  0  0
    0.9903   -0.7833   -0.0048 C   0  0  1  0  0  0  0  0  0  0  0  0
   -0.7597   -2.5579   -0.6990 C   0  0  0  0  0  0  0  0  0  0  0  0
    0.2679    1.6214   -0.0085 C   0  0  0  0  0  0  0  0  0  0  0  0
   -2.0312    2.3141   -0.7978 C   0  0  0  0  0  0  0  0  0  0  0  0
   -2.5916   -1.6538    0.7645 C   0  0  0  0  0  0  0  0  0  0  0  0
   -3.2217    0.6612    0.6882 C   0  0  0  0  0  0  0  0  0  0  0  0
   -1.4862   -2.6989    0.6327 C   0  0  0  0  0  0  0  0  0  0  0  0
   -2.7886    2.1151    0.5107 C   0  0  0  0  0  0  0  0  0  0  0  0
    2.1772   -1.6894   -0.3808 C   0  0  0  0  0  0  0  0  0  0  0  0
    2.6318    1.1034    0.2851 C   0  0  0  0  0  0  0  0  0  0  0  0
    3.4728   -1.1988    0.1610 C   0  0  0  0  0  0  0  0  0  0  0  0
    3.6814    0.0769    0.4861 C   0  0  0  0  0  0  0  0  0  0  0  0
   -2.1445   -0.3467   -1.5334 H   0  0  0  0  0  0  0  0  0  0  0  0
    0.0951   -1.0479   -1.9491 H   0  0  0  0  0  0  0  0  0  0  0  0
   -0.5141    1.3741   -1.9814 H   0  0  0  0  0  0  0  0  0  0  0  0
    0.7432   -0.9622    1.0499 H   0  0  0  0  0  0  0  0  0  0  0  0
    0.0412   -3.2992   -0.7717 H   0  0  0  0  0  0  0  0  0  0  0  0
   -1.4615   -2.7956   -1.5098 H   0  0  0  0  0  0  0  0  0  0  0  0
    0.6589    2.6182   -0.2447 H   0  0  0  0  0  0  0  0  0  0  0  0
   -0.0545    1.6556    1.0385 H   0  0  0  0  0  0  0  0  0  0  0  0
   -2.7314    2.1926   -1.6345 H   0  0  0  0  0  0  0  0  0  0  0  0
   -1.6474    3.3391   -0.8563 H   0  0  0  0  0  0  0  0  0  0  0  0
   -3.3860   -1.8823    0.0412 H   0  0  0  0  0  0  0  0  0  0  0  0
   -3.0306   -1.7468    1.7654 H   0  0  0  0  0  0  0  0  0  0  0  0
   -3.6805    0.5628    1.6797 H   0  0  0  0  0  0  0  0  0  0  0  0
   -3.9993    0.4270   -0.0515 H   0  0  0  0  0  0  0  0  0  0  0  0
   -1.9227   -3.7018    0.7059 H   0  0  0  0  0  0  0  0  0  0  0  0
   -0.7791   -2.6040    1.4647 H   0  0  0  0  0  0  0  0  0  0  0  0
   -2.1657    2.4226    1.3587 H   0  0  0  0  0  0  0  0  0  0  0  0
   -3.6719    2.7644    0.5233 H   0  0  0  0  0  0  0  0  0  0  0  0
    2.2774   -1.7763   -1.4697 H   0  0  0  0  0  0  0  0  0  0  0  0
    2.0036   -2.6982    0.0101 H   0  0  0  0  0  0  0  0  0  0  0  0
    4.2811   -1.9149    0.2754 H   0  0  0  0  0  0  0  0  0  0  0  0
    4.6441    0.4063    0.8609 H   0  0  0  0  0  0  0  0  0  0  0  0
  1 16  2  0  0  0  0
  2  4  1  0  0  0  0
  2 11  1  0  0  0  0
  2 12  1  0  0  0  0
  3  7  1  0  0  0  0
  3  9  1  0  0  0  0
  3 16  1  0  0  0  0
  4  5  1  0  0  0  0
  4  6  1  0  0  0  0
  4 19  1  0  0  0  0
  5  7  1  0  0  0  0
  5  8  1  0  0  0  0
  5 20  1  0  0  0  0
  6  9  1  0  0  0  0
  6 10  1  0  0  0  0
  6 21  1  0  0  0  0
  7 15  1  0  0  0  0
  7 22  1  0  0  0  0
  8 13  1  0  0  0  0
  8 23  1  0  0  0  0
  8 24  1  0  0  0  0
  9 25  1  0  0  0  0
  9 26  1  0  0  0  0
 10 14  1  0  0  0  0
 10 27  1  0  0  0  0
 10 28  1  0  0  0  0
 11 13  1  0  0  0  0
 11 29  1  0  0  0  0
 11 30  1  0  0  0  0
 12 14  1  0  0  0  0
 12 31  1  0  0  0  0
 12 32  1  0  0  0  0
 13 33  1  0  0  0  0
 13 34  1  0  0  0  0
 14 35  1  0  0  0  0
 14 36  1  0  0  0  0
 15 17  1  0  0  0  0
 15 37  1  0  0  0  0
 15 38  1  0  0  0  0
 16 18  1  0  0  0  0
 17 18  2  0  0  0  0
 17 39  1  0  0  0  0
 18 40  1  0  0  0  0
M  END
> <PUBCHEM_COMPOUND_CID>
115269

> <PUBCHEM_CONFORMER_RMSD>
0.6

> <PUBCHEM_CONFORMER_DIVERSEORDER>
1

> <PUBCHEM_MMFF94_PARTIAL_CHARGES>
14
1 -0.57
11 0.27
12 0.27
15 0.14
16 0.62
17 -0.29
18 -0.14
2 -0.81
3 -0.66
39 0.15
4 0.27
40 0.15
7 0.3
9 0.3

> <PUBCHEM_EFFECTIVE_ROTOR_COUNT>
1.6

> <PUBCHEM_PHARMACOPHORE_FEATURES>
6
1 1 acceptor
1 2 cation
6 2 4 5 8 11 13 rings
6 2 4 6 10 12 14 rings
6 3 4 5 6 7 9 rings
6 3 7 15 16 17 18 rings

> <PUBCHEM_HEAVY_ATOM_COUNT>
18

> <PUBCHEM_ATOM_DEF_STEREO_COUNT>
4

> <PUBCHEM_ATOM_UDEF_STEREO_COUNT>
0

> <PUBCHEM_BOND_DEF_STEREO_COUNT>
0

> <PUBCHEM_BOND_UDEF_STEREO_COUNT>
0

> <PUBCHEM_ISOTOPIC_ATOM_COUNT>
0

> <PUBCHEM_COMPONENT_COUNT>
1

> <PUBCHEM_CACTVS_TAUTO_COUNT>
1

> <PUBCHEM_CONFORMER_ID>
0001C24500000001

> <PUBCHEM_MMFF94_ENERGY>
28.5698

> <PUBCHEM_FEATURE_SELFOVERLAP>
30.624

> <PUBCHEM_SHAPE_FINGERPRINT>
10608611 8 18411697690614998080
10616163 171 18265901435264964192
10967382 1 18123187896670343990
1100329 8 15600048146734828640
11132069 177 18337957788009935819
12011746 2 18336830792844222039
12251169 10 18409735049205354393
12382932 28 18411704326075583538
12423570 1 9791724389568133015
12553582 1 17832431169084025454
12633257 1 18339933614425723633
12730499 353 17612303057884578613
13004483 165 18125143081822369207
13140716 1 18339079276658486944
13380535 21 18410862074826333620
13380535 76 18267299842182957077
14178342 30 18266166409088275752
14223421 5 18339363084018554608
14790565 3 17038398051387105725
15295992 7 17775276153890726968
15309172 13 18269271266267886661
16945 1 18267590293393416013
17804303 29 18337681810596749390
18219364 16 18192993708048445821
18981168 100 17416384658126266464
20510252 161 18342176691366565225
21501502 16 18411134779384802262
21524375 3 18340763720214523543
21731228 192 18339927004666207459
22112679 90 16907514360316829519
2334 1 18411134727502439892
23388829 49 17762337315745303535
23402539 116 18340761624735064103
23559900 14 18269557127598956974
238 59 17686304630959985093
25 1 17979631230267913365
2748010 2 18338801113101386213
350125 39 18411705391238041740
5104073 3 18338785793934327824
598444 67 18264212413316176535
69090 78 18411132511689464777
7097593 13 18042669638414887314
7364860 26 17546727050057260983
81228 2 18261664990982401471
8809292 202 18336549305088305642
9709674 26 18413670201511445606

> <PUBCHEM_SHAPE_MULTIPOLES>
354.6
5.48
3.07
0.95
3
0.54
0.08
-1.33
-1.47
-1.08
-0.02
-0.36
0.06
0.57

> <PUBCHEM_SHAPE_SELFOVERLAP>
757.933

> <PUBCHEM_SHAPE_VOLUME>
191

> <PUBCHEM_COORDINATE_TYPE>
2
5
10

$$$$
