5319322
  -OEChem-09062001103D

 30 34  0     0  0  0  0  0  0999 V2000
    0.1271   -1.4575    0.0019 O   0  0  0  0  0  0  0  0  0  0  0  0
   -2.1600    1.9260    0.0010 O   0  0  0  0  0  0  0  0  0  0  0  0
    4.9992    0.9349   -0.0020 O   0  0  0  0  0  0  0  0  0  0  0  0
    4.9935   -1.4730   -0.0017 O   0  0  0  0  0  0  0  0  0  0  0  0
   -0.1990    3.1494   -0.0006 O   0  0  0  0  0  0  0  0  0  0  0  0
   -6.2822   -0.5371   -0.0047 O   0  0  0  0  0  0  0  0  0  0  0  0
    1.3579    0.4599    0.0010 C   0  0  0  0  0  0  0  0  0  0  0  0
   -0.0200    0.7990    0.0015 C   0  0  0  0  0  0  0  0  0  0  0  0
   -0.7011   -0.3915    0.0021 C   0  0  0  0  0  0  0  0  0  0  0  0
    1.3959   -0.9441    0.0012 C   0  0  0  0  0  0  0  0  0  0  0  0
   -2.1283   -0.5372    0.0019 C   0  0  0  0  0  0  0  0  0  0  0  0
    2.5717    1.1772    0.0002 C   0  0  0  0  0  0  0  0  0  0  0  0
    3.7357    0.4224   -0.0006 C   0  0  0  0  0  0  0  0  0  0  0  0
    3.7319   -0.9550   -0.0004 C   0  0  0  0  0  0  0  0  0  0  0  0
    2.5683   -1.7044    0.0006 C   0  0  0  0  0  0  0  0  0  0  0  0
   -2.8460    0.6691    0.0010 C   0  0  0  0  0  0  0  0  0  0  0  0
   -0.7435    2.0516    0.0011 C   0  0  0  0  0  0  0  0  0  0  0  0
   -2.8172   -1.7461    0.0014 C   0  0  0  0  0  0  0  0  0  0  0  0
    5.7883   -0.2708   -0.0019 C   0  0  0  0  0  0  0  0  0  0  0  0
   -4.2364    0.6891   -0.0010 C   0  0  0  0  0  0  0  0  0  0  0  0
   -4.2154   -1.7359   -0.0002 C   0  0  0  0  0  0  0  0  0  0  0  0
   -4.9204   -0.5258   -0.0016 C   0  0  0  0  0  0  0  0  0  0  0  0
    2.5978    2.2609   -0.0002 H   0  0  0  0  0  0  0  0  0  0  0  0
    2.5600   -2.7863    0.0006 H   0  0  0  0  0  0  0  0  0  0  0  0
   -2.2903   -2.6960    0.0019 H   0  0  0  0  0  0  0  0  0  0  0  0
    6.4269   -0.2725   -0.8927 H   0  0  0  0  0  0  0  0  0  0  0  0
    6.4272   -0.2723    0.8887 H   0  0  0  0  0  0  0  0  0  0  0  0
   -4.7723    1.6334   -0.0023 H   0  0  0  0  0  0  0  0  0  0  0  0
   -4.7554   -2.6795   -0.0009 H   0  0  0  0  0  0  0  0  0  0  0  0
   -6.6049    0.3804   -0.0056 H   0  0  0  0  0  0  0  0  0  0  0  0
  1  9  1  0  0  0  0
  1 10  1  0  0  0  0
  2 16  1  0  0  0  0
  2 17  1  0  0  0  0
  3 13  1  0  0  0  0
  3 19  1  0  0  0  0
  4 14  1  0  0  0  0
  4 19  1  0  0  0  0
  5 17  2  0  0  0  0
  6 22  1  0  0  0  0
  6 30  1  0  0  0  0
  7  8  1  0  0  0  0
  7 10  1  0  0  0  0
  7 12  2  0  0  0  0
  8  9  2  0  0  0  0
  8 17  1  0  0  0  0
  9 11  1  0  0  0  0
 10 15  2  0  0  0  0
 11 16  2  0  0  0  0
 11 18  1  0  0  0  0
 12 13  1  0  0  0  0
 12 23  1  0  0  0  0
 13 14  2  0  0  0  0
 14 15  1  0  0  0  0
 15 24  1  0  0  0  0
 16 20  1  0  0  0  0
 18 21  2  0  0  0  0
 18 25  1  0  0  0  0
 19 26  1  0  0  0  0
 19 27  1  0  0  0  0
 20 22  2  0  0  0  0
 20 28  1  0  0  0  0
 21 22  1  0  0  0  0
 21 29  1  0  0  0  0
M  END
> <PUBCHEM_COMPOUND_CID>
5319322

> <PUBCHEM_CONFORMER_RMSD>
0.6

> <PUBCHEM_CONFORMER_DIVERSEORDER>
1

> <PUBCHEM_MMFF94_PARTIAL_CHARGES>
27
1 -0.28
10 0.14
11 0.05
12 -0.15
13 0.08
14 0.08
15 -0.15
16 0.08
17 0.81
18 -0.15
19 0.56
2 -0.23
20 -0.15
21 -0.15
22 0.08
23 0.15
24 0.15
25 0.15
28 0.15
29 0.15
3 -0.36
30 0.45
4 -0.36
5 -0.57
6 -0.53
8 -0.09
9 0.09

> <PUBCHEM_EFFECTIVE_ROTOR_COUNT>
0.6

> <PUBCHEM_PHARMACOPHORE_FEATURES>
10
1 1 acceptor
1 3 acceptor
1 4 acceptor
1 5 acceptor
1 6 donor
5 1 7 8 9 10 rings
5 3 4 13 14 19 rings
6 11 16 18 20 21 22 rings
6 2 8 9 11 16 17 rings
6 7 10 12 13 14 15 rings

> <PUBCHEM_HEAVY_ATOM_COUNT>
22

> <PUBCHEM_ATOM_DEF_STEREO_COUNT>
0

> <PUBCHEM_ATOM_UDEF_STEREO_COUNT>
0

> <PUBCHEM_BOND_DEF_STEREO_COUNT>
0

> <PUBCHEM_BOND_UDEF_STEREO_COUNT>
0

> <PUBCHEM_ISOTOPIC_ATOM_COUNT>
0

> <PUBCHEM_COMPONENT_COUNT>
1

> <PUBCHEM_CACTVS_TAUTO_COUNT>
4

> <PUBCHEM_CONFORMER_ID>
00512A9A00000001

> <PUBCHEM_MMFF94_ENERGY>
59.3566

> <PUBCHEM_FEATURE_SELFOVERLAP>
51.143

> <PUBCHEM_SHAPE_FINGERPRINT>
10 15 18341037615465533440
10906281 52 18267043742026161227
10967382 1 18410855481608292515
11045515 52 18113615681609942685
11963148 33 18411695517220401582
12011746 2 18411412917477762285
12107183 9 17616812137282862298
12166972 35 17748830730368619140
12236239 1 17822010891487176646
12403259 226 18339637846447158992
12516196 113 18343862242749954857
12553582 1 18338219531907213491
12788726 201 18262513689241664705
13288520 33 18411983550473704191
13533116 47 13686031860288277700
13544653 18 18334301984751222411
13583140 156 13901905609562270399
138480 1 14880034022311880800
13862211 1 18410852174594556223
14251764 18 18272656753792744539
14341114 176 18409735062174860002
14787075 74 18261111915174559480
15196674 1 18410575063278075616
15352361 1 18410575093263576005
15927050 60 17477486868676842676
16087824 20 18265615391277578917
17349148 13 17894915113937048266
17492 89 18194117413464831858
1813 80 17530969072550771636
19141452 34 18059574732644544599
200 152 18201999927986982611
20261772 1 18060696212639552142
20510252 161 18270681948271204304
21029758 11 18411698807501764881
21236236 1 18341895148129722689
21267235 1 18410301310689596879
21279426 13 18265331707700279879
21421861 104 17971471806081469514
21641784 216 18041294183332834396
221490 88 18118971527545029227
2297311 6 18342466911049580334
23352939 185 18201442492692812440
23402539 116 18342452660084672903
23557571 272 18272657809484449652
23559900 14 18339073899396544033
26918003 58 17967816067331427171
2871803 45 18334855004687735210
3004659 81 18186801379215138334
335352 9 18410574003238630077
34797466 226 16916794027922479876
34934 24 18409443653381931355
350125 39 18411419527422387768
3545911 37 18410012139020663567
3886686 26 17109845992165509002
4073 2 18041002894572006226
4214541 1 18410855430073972705
4463277 17 18410856555846047169
5104073 3 18341609266278690146
5283173 99 18115016399515583789
5486654 2 18409172138387004950
59755656 215 18409451358369047134
7495541 125 17917706933445186088
9709674 26 18410581647753551974

> <PUBCHEM_SHAPE_MULTIPOLES>
417.53
11.79
2.2
0.59
0.87
1
0
-3.58
-0.02
-0.42
0
-0.01
-0.01
0

> <PUBCHEM_SHAPE_SELFOVERLAP>
975.231

> <PUBCHEM_SHAPE_VOLUME>
212.9

> <PUBCHEM_COORDINATE_TYPE>
2
5
10

$$$$
