56776306
  -OEChem-09062000483D

 39 41  0     1  0  0  0  0  0999 V2000
    1.3537    2.1676   -0.6339 O   0  0  0  0  0  0  0  0  0  0  0  0
   -2.5927    1.4926    1.9268 O   0  0  0  0  0  0  0  0  0  0  0  0
    0.8010    4.3988   -0.6860 O   0  0  0  0  0  0  0  0  0  0  0  0
   -5.1354   -2.1415    0.1953 O   0  0  0  0  0  0  0  0  0  0  0  0
    6.0757   -2.3755   -0.3036 O   0  0  0  0  0  0  0  0  0  0  0  0
    0.6263    0.9427   -0.4351 C   0  0  1  0  0  0  0  0  0  0  0  0
    1.1934    0.2589    0.8025 C   0  0  0  0  0  0  0  0  0  0  0  0
   -0.7872    1.3920   -0.2925 C   0  0  0  0  0  0  0  0  0  0  0  0
   -1.9312    0.4750   -0.1476 C   0  0  0  0  0  0  0  0  0  0  0  0
    2.4932   -0.4425    0.5084 C   0  0  0  0  0  0  0  0  0  0  0  0
   -0.8630    2.7220   -0.3723 C   0  0  0  0  0  0  0  0  0  0  0  0
    0.4962    3.2239   -0.5760 C   0  0  0  0  0  0  0  0  0  0  0  0
   -2.7865    0.5599    0.9512 C   0  0  0  0  0  0  0  0  0  0  0  0
   -2.1529   -0.4891   -1.1311 C   0  0  0  0  0  0  0  0  0  0  0  0
    3.7017    0.2396    0.6508 C   0  0  0  0  0  0  0  0  0  0  0  0
    2.4888   -1.7743    0.0937 C   0  0  0  0  0  0  0  0  0  0  0  0
   -3.8632   -0.3194    1.0664 C   0  0  0  0  0  0  0  0  0  0  0  0
   -3.2294   -1.3686   -1.0157 C   0  0  0  0  0  0  0  0  0  0  0  0
   -4.0846   -1.2837    0.0831 C   0  0  0  0  0  0  0  0  0  0  0  0
    4.9056   -0.4101    0.3781 C   0  0  0  0  0  0  0  0  0  0  0  0
    3.6926   -2.4240   -0.1793 C   0  0  0  0  0  0  0  0  0  0  0  0
    4.9010   -1.7418   -0.0370 C   0  0  0  0  0  0  0  0  0  0  0  0
   -5.3031   -3.1022   -0.8463 C   0  0  0  0  0  0  0  0  0  0  0  0
    0.7508    0.3309   -1.3365 H   0  0  0  0  0  0  0  0  0  0  0  0
    0.4866   -0.4833    1.1959 H   0  0  0  0  0  0  0  0  0  0  0  0
    1.3534    0.9828    1.6131 H   0  0  0  0  0  0  0  0  0  0  0  0
   -1.7408    3.3446   -0.3257 H   0  0  0  0  0  0  0  0  0  0  0  0
   -1.5001   -0.5681   -1.9971 H   0  0  0  0  0  0  0  0  0  0  0  0
    3.7190    1.2773    0.9733 H   0  0  0  0  0  0  0  0  0  0  0  0
    1.5536   -2.3156   -0.0233 H   0  0  0  0  0  0  0  0  0  0  0  0
   -4.5349   -0.2604    1.9194 H   0  0  0  0  0  0  0  0  0  0  0  0
   -3.3437   -2.0922   -1.8155 H   0  0  0  0  0  0  0  0  0  0  0  0
    5.8402    0.1324    0.4927 H   0  0  0  0  0  0  0  0  0  0  0  0
    3.6827   -3.4612   -0.5029 H   0  0  0  0  0  0  0  0  0  0  0  0
   -3.2849    1.3957    2.6030 H   0  0  0  0  0  0  0  0  0  0  0  0
    6.8096   -1.7552   -0.1530 H   0  0  0  0  0  0  0  0  0  0  0  0
   -5.5071   -2.6207   -1.8088 H   0  0  0  0  0  0  0  0  0  0  0  0
   -4.4536   -3.7916   -0.8986 H   0  0  0  0  0  0  0  0  0  0  0  0
   -6.1851   -3.7005   -0.5952 H   0  0  0  0  0  0  0  0  0  0  0  0
  1  6  1  0  0  0  0
  1 12  1  0  0  0  0
  2 13  1  0  0  0  0
  2 35  1  0  0  0  0
  3 12  2  0  0  0  0
  4 19  1  0  0  0  0
  4 23  1  0  0  0  0
  5 22  1  0  0  0  0
  5 36  1  0  0  0  0
  6  7  1  0  0  0  0
  6  8  1  0  0  0  0
  6 24  1  0  0  0  0
  7 10  1  0  0  0  0
  7 25  1  0  0  0  0
  7 26  1  0  0  0  0
  8  9  1  0  0  0  0
  8 11  2  0  0  0  0
  9 13  2  0  0  0  0
  9 14  1  0  0  0  0
 10 15  2  0  0  0  0
 10 16  1  0  0  0  0
 11 12  1  0  0  0  0
 11 27  1  0  0  0  0
 13 17  1  0  0  0  0
 14 18  2  0  0  0  0
 14 28  1  0  0  0  0
 15 20  1  0  0  0  0
 15 29  1  0  0  0  0
 16 21  2  0  0  0  0
 16 30  1  0  0  0  0
 17 19  2  0  0  0  0
 17 31  1  0  0  0  0
 18 19  1  0  0  0  0
 18 32  1  0  0  0  0
 20 22  2  0  0  0  0
 20 33  1  0  0  0  0
 21 22  1  0  0  0  0
 21 34  1  0  0  0  0
 23 37  1  0  0  0  0
 23 38  1  0  0  0  0
 23 39  1  0  0  0  0
M  END
> <PUBCHEM_COMPOUND_CID>
56776306

> <PUBCHEM_CONFORMER_RMSD>
0.8

> <PUBCHEM_CONFORMER_DIVERSEORDER>
1
7
4
15
5
8
19
18
6
13
16
3
14
9
10
17
11
2
12

> <PUBCHEM_MMFF94_PARTIAL_CHARGES>
33
1 -0.43
10 -0.14
11 -0.14
12 0.71
13 0.08
14 -0.15
15 -0.15
16 -0.15
17 -0.15
18 -0.15
19 0.08
2 -0.53
20 -0.15
21 -0.15
22 0.08
23 0.28
27 0.15
28 0.15
29 0.15
3 -0.57
30 0.15
31 0.15
32 0.15
33 0.15
34 0.15
35 0.45
36 0.45
4 -0.36
5 -0.53
6 0.42
7 0.14
8 -0.17
9 0.03

> <PUBCHEM_EFFECTIVE_ROTOR_COUNT>
4.4

> <PUBCHEM_PHARMACOPHORE_FEATURES>
7
1 2 donor
1 3 acceptor
1 4 acceptor
1 5 donor
5 1 6 8 11 12 rings
6 10 15 16 20 21 22 rings
6 9 13 14 17 18 19 rings

> <PUBCHEM_HEAVY_ATOM_COUNT>
23

> <PUBCHEM_ATOM_DEF_STEREO_COUNT>
0

> <PUBCHEM_ATOM_UDEF_STEREO_COUNT>
1

> <PUBCHEM_BOND_DEF_STEREO_COUNT>
0

> <PUBCHEM_BOND_UDEF_STEREO_COUNT>
0

> <PUBCHEM_ISOTOPIC_ATOM_COUNT>
0

> <PUBCHEM_COMPONENT_COUNT>
1

> <PUBCHEM_CACTVS_TAUTO_COUNT>
12

> <PUBCHEM_CONFORMER_ID>
0362567200000001

> <PUBCHEM_MMFF94_ENERGY>
66.9953

> <PUBCHEM_FEATURE_SELFOVERLAP>
35.522

> <PUBCHEM_SHAPE_FINGERPRINT>
10042902 136 18342748415933339382
11045515 52 18113615655697486716
11135609 187 17974291229111143092
11370993 144 17344068468529123978
11552529 35 18129661885395772688
11578080 2 18057865005196792041
12107183 9 18340497690673270267
12363563 72 18260552212100492842
12553582 1 18261105240616280642
12623949 98 17917438631265684550
12633257 1 15338834326314586995
12788726 201 17825943724115562353
12892183 10 17775280569159135994
13009979 54 18202293519288066137
13103583 49 17988655068553149875
13533116 47 18122906693041860307
13544653 18 18259987059024007972
13583140 156 15625648402524569242
14178000 29 18409728490795639432
14178342 30 18059310764012099679
14767858 380 18115322175949440316
14787075 74 18113341938043239040
15352361 1 18409447003066356907
17492 89 18266461095680138435
17780758 139 17917426467554012778
1813 80 18340779190517957980
18222031 100 18408316709428699466
18927931 339 18117566124262656042
19141452 34 18269278958828893513
19784866 240 18409448115937432527
20645477 70 17971741427480672861
2255824 54 18120380018682736316
22950370 63 18410579470199351518
23402539 116 17968662593170388834
23559900 14 18339069519257428115
314194 84 18335429014050036138
3421961 26 18338231695053940773
3737641 26 18268436724448704898
437795 70 17678709355549813255
4409770 3 17973439897820533365
46194498 28 17387122272865714743
5104073 3 18129933474175686114
5309563 4 18409444791100261807
6669772 16 17833281088005654876
7970288 3 18409445894880905198

> <PUBCHEM_SHAPE_MULTIPOLES>
443.98
11.23
3.99
1.09
3.61
2.8
0.23
-13.71
0.4
-0.1
-1.34
-0.87
0.21
-0.85

> <PUBCHEM_SHAPE_SELFOVERLAP>
970.879

> <PUBCHEM_SHAPE_VOLUME>
241.9

> <PUBCHEM_COORDINATE_TYPE>
2
5
10

$$$$
