44257299
  -OEChem-09062000153D

 53 57  0     1  0  0  0  0  0999 V2000
    4.3358   -0.5551    0.7804 O   0  0  0  0  0  0  0  0  0  0  0  0
    3.4324    1.5540    0.2865 O   0  0  0  0  0  0  0  0  0  0  0  0
    7.5539    0.1002   -1.7404 O   0  0  0  0  0  0  0  0  0  0  0  0
    6.8935   -2.5851   -0.9035 O   0  0  0  0  0  0  0  0  0  0  0  0
    6.2113    1.4966    0.2664 O   0  0  0  0  0  0  0  0  0  0  0  0
    3.7646   -2.9723    1.9348 O   0  0  0  0  0  0  0  0  0  0  0  0
   -0.5884   -0.9835    0.3264 O   0  0  0  0  0  0  0  0  0  0  0  0
   -0.7195    3.8464   -0.0513 O   0  0  0  0  0  0  0  0  0  0  0  0
   -6.9572   -1.8772   -1.6469 O   0  0  0  0  0  0  0  0  0  0  0  0
   -8.3094   -0.8350    0.0540 O   0  0  0  0  0  0  0  0  0  0  0  0
   -2.8669    2.3799   -0.0536 O   0  0  0  0  0  0  0  0  0  0  0  0
    6.2450   -0.3039   -1.3484 C   0  0  1  0  0  0  0  0  0  0  0  0
    6.3538   -1.4128   -0.2985 C   0  0  1  0  0  0  0  0  0  0  0  0
    5.4693    0.8924   -0.7975 C   0  0  1  0  0  0  0  0  0  0  0  0
    4.9711   -1.7377    0.2838 C   0  0  1  0  0  0  0  0  0  0  0  0
    4.1258    0.4257   -0.2379 C   0  0  1  0  0  0  0  0  0  0  0  0
    5.0685   -2.7269    1.4409 C   0  0  0  0  0  0  0  0  0  0  0  0
    2.0647    1.5130    0.2366 C   0  0  0  0  0  0  0  0  0  0  0  0
    1.4018    0.2876    0.3057 C   0  0  0  0  0  0  0  0  0  0  0  0
    1.3361    2.6970    0.1166 C   0  0  0  0  0  0  0  0  0  0  0  0
    0.0080    0.2491    0.2549 C   0  0  0  0  0  0  0  0  0  0  0  0
   -0.7200    1.4324    0.1354 C   0  0  0  0  0  0  0  0  0  0  0  0
   -0.0582    2.6611    0.0656 C   0  0  0  0  0  0  0  0  0  0  0  0
   -2.1921    1.3673    0.0801 C   0  0  0  0  0  0  0  0  0  0  0  0
   -2.7991    0.0114    0.1810 C   0  0  0  0  0  0  0  0  0  0  0  0
   -4.2571   -0.1915    0.1781 C   0  0  0  0  0  0  0  0  0  0  0  0
   -1.9611   -1.0302    0.2947 C   0  0  0  0  0  0  0  0  0  0  0  0
   -4.8444   -0.9854   -0.8099 C   0  0  0  0  0  0  0  0  0  0  0  0
   -6.2144   -1.1456   -0.7722 C   0  0  0  0  0  0  0  0  0  0  0  0
   -5.0462    0.4167    1.1703 C   0  0  0  0  0  0  0  0  0  0  0  0
   -6.9867   -0.5503    0.1990 C   0  0  0  0  0  0  0  0  0  0  0  0
   -6.4316    0.2380    1.1858 C   0  0  0  0  0  0  0  0  0  0  0  0
   -8.2834   -1.6763   -1.1170 C   0  0  0  0  0  0  0  0  0  0  0  0
    5.7487   -0.6929   -2.2462 H   0  0  0  0  0  0  0  0  0  0  0  0
    7.0508   -1.1104    0.4918 H   0  0  0  0  0  0  0  0  0  0  0  0
    5.3397    1.6657   -1.5617 H   0  0  0  0  0  0  0  0  0  0  0  0
    4.3191   -2.1790   -0.4824 H   0  0  0  0  0  0  0  0  0  0  0  0
    3.5620   -0.0185   -1.0718 H   0  0  0  0  0  0  0  0  0  0  0  0
    5.6620   -2.3091    2.2609 H   0  0  0  0  0  0  0  0  0  0  0  0
    5.5095   -3.6761    1.1219 H   0  0  0  0  0  0  0  0  0  0  0  0
    7.4560    0.8106   -2.3971 H   0  0  0  0  0  0  0  0  0  0  0  0
    6.2831   -2.8700   -1.6047 H   0  0  0  0  0  0  0  0  0  0  0  0
    6.1781    0.9056    1.0374 H   0  0  0  0  0  0  0  0  0  0  0  0
    3.8504   -3.5999    2.6725 H   0  0  0  0  0  0  0  0  0  0  0  0
    1.9240   -0.6561    0.4210 H   0  0  0  0  0  0  0  0  0  0  0  0
    1.8584    3.6493    0.0630 H   0  0  0  0  0  0  0  0  0  0  0  0
   -2.2845   -2.0602    0.3840 H   0  0  0  0  0  0  0  0  0  0  0  0
   -4.2568   -1.4606   -1.5889 H   0  0  0  0  0  0  0  0  0  0  0  0
   -4.5888    1.0312    1.9428 H   0  0  0  0  0  0  0  0  0  0  0  0
   -7.0433    0.7044    1.9495 H   0  0  0  0  0  0  0  0  0  0  0  0
   -1.6781    3.7035   -0.0555 H   0  0  0  0  0  0  0  0  0  0  0  0
   -8.7091   -2.6524   -0.8574 H   0  0  0  0  0  0  0  0  0  0  0  0
   -8.9055   -1.2164   -1.8934 H   0  0  0  0  0  0  0  0  0  0  0  0
  1 15  1  0  0  0  0
  1 16  1  0  0  0  0
  2 16  1  0  0  0  0
  2 18  1  0  0  0  0
  3 12  1  0  0  0  0
  3 41  1  0  0  0  0
  4 13  1  0  0  0  0
  4 42  1  0  0  0  0
  5 14  1  0  0  0  0
  5 43  1  0  0  0  0
  6 17  1  0  0  0  0
  6 44  1  0  0  0  0
  7 21  1  0  0  0  0
  7 27  1  0  0  0  0
  8 23  1  0  0  0  0
  8 51  1  0  0  0  0
  9 29  1  0  0  0  0
  9 33  1  0  0  0  0
 10 31  1  0  0  0  0
 10 33  1  0  0  0  0
 11 24  2  0  0  0  0
 12 13  1  0  0  0  0
 12 14  1  0  0  0  0
 12 34  1  0  0  0  0
 13 15  1  0  0  0  0
 13 35  1  0  0  0  0
 14 16  1  0  0  0  0
 14 36  1  0  0  0  0
 15 17  1  0  0  0  0
 15 37  1  0  0  0  0
 16 38  1  0  0  0  0
 17 39  1  0  0  0  0
 17 40  1  0  0  0  0
 18 19  1  0  0  0  0
 18 20  2  0  0  0  0
 19 21  2  0  0  0  0
 19 45  1  0  0  0  0
 20 23  1  0  0  0  0
 20 46  1  0  0  0  0
 21 22  1  0  0  0  0
 22 23  2  0  0  0  0
 22 24  1  0  0  0  0
 24 25  1  0  0  0  0
 25 26  1  0  0  0  0
 25 27  2  0  0  0  0
 26 28  2  0  0  0  0
 26 30  1  0  0  0  0
 27 47  1  0  0  0  0
 28 29  1  0  0  0  0
 28 48  1  0  0  0  0
 29 31  2  0  0  0  0
 30 32  2  0  0  0  0
 30 49  1  0  0  0  0
 31 32  1  0  0  0  0
 32 50  1  0  0  0  0
 33 52  1  0  0  0  0
 33 53  1  0  0  0  0
M  END
> <PUBCHEM_COMPOUND_CID>
44257299

> <PUBCHEM_CONFORMER_RMSD>
0.8

> <PUBCHEM_CONFORMER_DIVERSEORDER>
3
61
253
355
230
335
63
250
351
215
146
270
262
338
225
263
27
206
148
203
236
162
281
125
267
11
330
303
50
181
332
201
322
173
329
219
259
169
217
224
112
290
211
300
83
258
339
306
165
176
97
126
304
24
277
164
42
340
207
254
88
106
298
117
102
344
33
19
74
265
212
151
255
241
51
7
96
110
307
343
158
155
65
235
26
107
35
239
55
314
21
269
337
115
77
227
334
174
48
122
294
223
154
282
285
208
218
288
256
75
47
205
90
309
38
209
194
319
266
159
260
18
354
91
190
70
69
5
128
305
228
251
353
150
80
129
234
168
95
142
289
131
293
187
331
139
68
137
93
231
177
242
311
156
114
264
292
257
320
279
14
94
180
191
345
280
310
326
113
58
243
246
6
87
347
232
352
78
32
184
76
349
202
222
22
4
199
284
13
28
54
317
109
220
278
171
356
108
45
321
41
67
308
123
229
82
89
318
299
8
167
64
20
213
276
132
127
341
16
98
286
116
31
71
37
9
287
357
124
153
323
342
197
302
29
134
275
17
252
104
183
136
1
188
25
92
149
195
274
226
170
214
120
166
100
59
178
182
138
333
133
189
103
198
200
85
192
161
135
324
15
163
12
204
327
2
66
121
221
36
297
295
140
46
261
244
186
210
40
313
44
196
348
62
152
84
240
248
56
145
147
130
144
245
86
10
237
346
283
119
216
157
249
271
175
81
101
23
350
57
301
73
296
233
268
34
336
193
43
238
179
273
328
111
52
99
72
53
291
272
60
247
141
105
325
160
30
39
172
118
79
312
49
185
316
143
315

> <PUBCHEM_MMFF94_PARTIAL_CHARGES>
44
1 -0.56
10 -0.36
11 -0.57
12 0.28
13 0.28
14 0.28
15 0.28
16 0.56
17 0.28
18 0.08
19 -0.15
2 -0.36
20 -0.15
21 0.08
22 0.09
23 0.08
24 0.47
25 -0.01
26 0.03
27 -0.07
28 -0.15
29 0.08
3 -0.68
30 -0.15
31 0.08
32 -0.15
33 0.56
4 -0.68
41 0.4
42 0.4
43 0.4
44 0.4
45 0.15
46 0.15
47 0.15
48 0.15
49 0.15
5 -0.68
50 0.15
51 0.45
6 -0.68
7 -0.16
8 -0.53
9 -0.36

> <PUBCHEM_EFFECTIVE_ROTOR_COUNT>
5.8

> <PUBCHEM_PHARMACOPHORE_FEATURES>
20
1 1 acceptor
1 10 acceptor
1 11 acceptor
1 2 acceptor
1 3 acceptor
1 3 donor
1 4 acceptor
1 4 donor
1 5 acceptor
1 5 donor
1 6 acceptor
1 6 donor
1 7 acceptor
1 8 donor
1 9 acceptor
5 9 10 29 31 33 rings
6 1 12 13 14 15 16 rings
6 18 19 20 21 22 23 rings
6 26 28 29 30 31 32 rings
6 7 21 22 24 25 27 rings

> <PUBCHEM_HEAVY_ATOM_COUNT>
33

> <PUBCHEM_ATOM_DEF_STEREO_COUNT>
3

> <PUBCHEM_ATOM_UDEF_STEREO_COUNT>
2

> <PUBCHEM_BOND_DEF_STEREO_COUNT>
0

> <PUBCHEM_BOND_UDEF_STEREO_COUNT>
0

> <PUBCHEM_ISOTOPIC_ATOM_COUNT>
0

> <PUBCHEM_COMPONENT_COUNT>
1

> <PUBCHEM_CACTVS_TAUTO_COUNT>
5

> <PUBCHEM_CONFORMER_ID>
02A3501300000003

> <PUBCHEM_MMFF94_ENERGY>
110.6489

> <PUBCHEM_FEATURE_SELFOVERLAP>
101.762

> <PUBCHEM_SHAPE_FINGERPRINT>
10 15 12103845669999839095
10299344 5 18273218599280349951
10319926 262 16559029390021898275
10622 236 17826216407758487658
11524674 6 15913328005276670575
117089 54 18056210072825146534
11719270 70 17060344028245667367
11963148 33 18343015545672393550
11991303 11 17608641713843922205
12166972 35 18040719173053047797
12236239 1 17988081218811416361
12522641 33 18193278714607203532
12592606 108 18272370897538240711
12645989 146 18341050813578156773
12760667 363 18410295796283852977
13248334 5 18053943136734729265
13533116 47 18334573529916772730
13617811 41 18113336431932563316
13782708 43 17775278387595317649
13862211 1 18412826889220247841
14068700 675 18060142050632635665
14118638 360 17967813821596346052
14251764 18 18202004351993201457
14347332 77 18337104566665294665
14931854 50 18040715844379273498
15183329 4 18412827997253433263
15198563 99 17385720249548810453
15320294 125 17489584624140951823
16628084 112 18188483554422586851
16994733 274 12829480459516124317
17134984 74 17967250910329454834
17492 89 18120934997946976506
18393751 57 10952053359988663429
19319366 153 17821722823974077314
20028762 73 18131632292101311679
2026 5 17915190023072058782
20554085 129 12107786341307257492
21130935 74 17988925582530656163
21267235 1 18411705417825737473
21585483 132 18056176185411835951
21781055 127 17274837835689569947
21814621 53 15266514910969665435
22002106 203 18337944577393225570
22956985 138 17200254538419188854
23522609 53 18126318352130574185
23559900 14 18264204884623596281
23569917 315 18129668629481826167
23569943 247 18341897329535766291
23576562 1 17169553128845285911
2748736 6 8790880783147198695
3004659 81 18259987089310623932
335352 9 18410577323063759389
34797466 226 15864075390183802239
3504750 166 17917709107321350717
3534868 343 18261123958865043868
397830 11 13901609905411701151
4073 2 18192429903269581738
445580 126 8935005849779606854
46194498 28 16950565514953724660
5080951 261 13614229392447289845
5219985 9 18412827984184148985
5372103 7 15864931983611230132
9831232 110 17774171076470885614

> <PUBCHEM_SHAPE_MULTIPOLES>
614.56
23.71
3.06
1.2
11.96
0.96
0.02
-16.23
6.63
-2.67
-0.41
-0.43
-0.73
-2.24

> <PUBCHEM_SHAPE_SELFOVERLAP>
1367.714

> <PUBCHEM_SHAPE_VOLUME>
323.3

> <PUBCHEM_COORDINATE_TYPE>
2
5
10

$$$$
