9846221
  -OEChem-09062000313D

 82 86  0     1  0  0  0  0  0999 V2000
    7.0536   -1.3425   -0.5311 O   0  0  0  0  0  0  0  0  0  0  0  0
   -5.8920    0.7487    1.3742 O   0  0  0  0  0  0  0  0  0  0  0  0
    0.6946    0.8973    0.0943 C   0  0  2  0  0  0  0  0  0  0  0  0
    1.4013   -0.4822    0.3763 C   0  0  1  0  0  0  0  0  0  0  0  0
    2.9657   -0.4482    0.6772 C   0  0  2  0  0  0  0  0  0  0  0  0
   -0.7861    0.5831   -0.5291 C   0  0  1  0  0  0  0  0  0  0  0  0
    3.6412    0.3755   -0.4822 C   0  0  1  0  0  0  0  0  0  0  0  0
    1.5523    1.7534   -0.8807 C   0  0  0  0  0  0  0  0  0  0  0  0
   -1.5640   -0.3444    0.4282 C   0  0  0  0  0  0  0  0  0  0  0  0
   -3.0978   -0.3437    0.4414 C   0  0  1  0  0  0  0  0  0  0  0  0
    3.0490    1.7978   -0.5600 C   0  0  0  0  0  0  0  0  0  0  0  0
   -3.7072    1.0797    0.2956 C   0  0  1  0  0  0  0  0  0  0  0  0
    5.2121    0.3046   -0.5564 C   0  0  0  0  0  0  0  0  0  0  0  0
   -1.5513    1.9079   -0.8339 C   0  0  0  0  0  0  0  0  0  0  0  0
    0.5745   -1.3406    1.3643 C   0  0  0  0  0  0  0  0  0  0  0  0
    3.5067   -1.9095    0.6158 C   0  0  0  0  0  0  0  0  0  0  0  0
   -3.0749    1.7716   -0.9380 C   0  0  0  0  0  0  0  0  0  0  0  0
    0.5614    1.7226    1.4124 C   0  0  0  0  0  0  0  0  0  0  0  0
   -0.9144   -1.1942    1.2486 C   0  0  0  0  0  0  0  0  0  0  0  0
    5.6342   -1.1951   -0.5608 C   0  0  2  0  0  0  0  0  0  0  0  0
    3.2917    0.1111    2.0857 C   0  0  0  0  0  0  0  0  0  0  0  0
   -0.6871   -0.1880   -1.8850 C   0  0  0  0  0  0  0  0  0  0  0  0
   -3.6347   -1.3579   -0.5977 C   0  0  0  0  0  0  0  0  0  0  0  0
    5.0294   -2.0149    0.5746 C   0  0  0  0  0  0  0  0  0  0  0  0
   -5.2578    1.0214    0.1235 C   0  0  1  0  0  0  0  0  0  0  0  0
   -5.1711   -1.4285   -0.6983 C   0  0  0  0  0  0  0  0  0  0  0  0
   -5.7378   -0.0070   -0.9054 C   0  0  0  0  0  0  0  0  0  0  0  0
   -3.4016    1.9130    1.5711 C   0  0  0  0  0  0  0  0  0  0  0  0
    5.7020    0.9184   -1.8978 C   0  0  0  0  0  0  0  0  0  0  0  0
    5.9257    1.0979    0.5566 C   0  0  0  0  0  0  0  0  0  0  0  0
   -5.5512   -2.2853   -1.9255 C   0  0  0  0  0  0  0  0  0  0  0  0
   -5.7661   -2.1218    0.5419 C   0  0  0  0  0  0  0  0  0  0  0  0
    1.3482   -1.0278   -0.5761 H   0  0  0  0  0  0  0  0  0  0  0  0
    3.3135   -0.1188   -1.4126 H   0  0  0  0  0  0  0  0  0  0  0  0
    1.1713    2.7818   -0.9165 H   0  0  0  0  0  0  0  0  0  0  0  0
    1.4765    1.3789   -1.9035 H   0  0  0  0  0  0  0  0  0  0  0  0
   -3.4160   -0.7163    1.4258 H   0  0  0  0  0  0  0  0  0  0  0  0
    3.5262    2.3706   -1.3612 H   0  0  0  0  0  0  0  0  0  0  0  0
    3.2251    2.3676    0.3557 H   0  0  0  0  0  0  0  0  0  0  0  0
   -1.1804    2.3376   -1.7742 H   0  0  0  0  0  0  0  0  0  0  0  0
   -1.3508    2.6762   -0.0863 H   0  0  0  0  0  0  0  0  0  0  0  0
    0.8277   -1.1148    2.4027 H   0  0  0  0  0  0  0  0  0  0  0  0
    0.8169   -2.3989    1.2103 H   0  0  0  0  0  0  0  0  0  0  0  0
    3.1122   -2.4098   -0.2786 H   0  0  0  0  0  0  0  0  0  0  0  0
    3.1434   -2.4855    1.4757 H   0  0  0  0  0  0  0  0  0  0  0  0
   -3.5013    2.7765   -1.0566 H   0  0  0  0  0  0  0  0  0  0  0  0
   -3.3267    1.2342   -1.8584 H   0  0  0  0  0  0  0  0  0  0  0  0
   -0.0554    1.2288    2.1672 H   0  0  0  0  0  0  0  0  0  0  0  0
    1.5243    1.9271    1.8766 H   0  0  0  0  0  0  0  0  0  0  0  0
    0.1317    2.7126    1.2389 H   0  0  0  0  0  0  0  0  0  0  0  0
   -1.4914   -1.8444    1.9029 H   0  0  0  0  0  0  0  0  0  0  0  0
    5.3011   -1.6424   -1.5074 H   0  0  0  0  0  0  0  0  0  0  0  0
    2.5052   -0.0885    2.8152 H   0  0  0  0  0  0  0  0  0  0  0  0
    4.1887   -0.3385    2.5184 H   0  0  0  0  0  0  0  0  0  0  0  0
    3.4655    1.1881    2.0902 H   0  0  0  0  0  0  0  0  0  0  0  0
    0.0270    0.2556   -2.5801 H   0  0  0  0  0  0  0  0  0  0  0  0
   -0.4110   -1.2397   -1.7536 H   0  0  0  0  0  0  0  0  0  0  0  0
   -1.6353   -0.1818   -2.4288 H   0  0  0  0  0  0  0  0  0  0  0  0
   -3.2502   -1.1141   -1.5908 H   0  0  0  0  0  0  0  0  0  0  0  0
   -3.2391   -2.3569   -0.3673 H   0  0  0  0  0  0  0  0  0  0  0  0
    5.4786   -1.7271    1.5311 H   0  0  0  0  0  0  0  0  0  0  0  0
    5.3092   -3.0689    0.4468 H   0  0  0  0  0  0  0  0  0  0  0  0
   -5.6178    2.0121   -0.1821 H   0  0  0  0  0  0  0  0  0  0  0  0
   -6.8348   -0.0536   -0.8892 H   0  0  0  0  0  0  0  0  0  0  0  0
   -5.4617    0.3496   -1.9059 H   0  0  0  0  0  0  0  0  0  0  0  0
   -3.8234    1.4471    2.4687 H   0  0  0  0  0  0  0  0  0  0  0  0
   -2.3326    2.0213    1.7641 H   0  0  0  0  0  0  0  0  0  0  0  0
   -3.8250    2.9203    1.4865 H   0  0  0  0  0  0  0  0  0  0  0  0
    6.7729    0.7421   -2.0515 H   0  0  0  0  0  0  0  0  0  0  0  0
    5.1725    0.4812   -2.7516 H   0  0  0  0  0  0  0  0  0  0  0  0
    5.5574    2.0029   -1.9298 H   0  0  0  0  0  0  0  0  0  0  0  0
    5.8304    0.6319    1.5375 H   0  0  0  0  0  0  0  0  0  0  0  0
    7.0021    1.1694    0.3585 H   0  0  0  0  0  0  0  0  0  0  0  0
    5.5495    2.1232    0.6275 H   0  0  0  0  0  0  0  0  0  0  0  0
   -5.1480   -3.3007   -1.8405 H   0  0  0  0  0  0  0  0  0  0  0  0
   -6.6394   -2.3642   -2.0299 H   0  0  0  0  0  0  0  0  0  0  0  0
   -5.1596   -1.8513   -2.8526 H   0  0  0  0  0  0  0  0  0  0  0  0
   -6.8614   -2.1185    0.5056 H   0  0  0  0  0  0  0  0  0  0  0  0
   -5.4421   -3.1679    0.5964 H   0  0  0  0  0  0  0  0  0  0  0  0
   -5.4633   -1.6522    1.4804 H   0  0  0  0  0  0  0  0  0  0  0  0
    7.2532   -2.2924   -0.5892 H   0  0  0  0  0  0  0  0  0  0  0  0
   -6.8533    0.7859    1.2327 H   0  0  0  0  0  0  0  0  0  0  0  0
  1 20  1  0  0  0  0
  1 81  1  0  0  0  0
  2 25  1  0  0  0  0
  2 82  1  0  0  0  0
  3  4  1  0  0  0  0
  3  6  1  0  0  0  0
  3  8  1  0  0  0  0
  3 18  1  0  0  0  0
  4  5  1  0  0  0  0
  4 15  1  0  0  0  0
  4 33  1  0  0  0  0
  5  7  1  0  0  0  0
  5 16  1  0  0  0  0
  5 21  1  0  0  0  0
  6  9  1  0  0  0  0
  6 14  1  0  0  0  0
  6 22  1  0  0  0  0
  7 11  1  0  0  0  0
  7 13  1  0  0  0  0
  7 34  1  0  0  0  0
  8 11  1  0  0  0  0
  8 35  1  0  0  0  0
  8 36  1  0  0  0  0
  9 10  1  0  0  0  0
  9 19  2  0  0  0  0
 10 12  1  0  0  0  0
 10 23  1  0  0  0  0
 10 37  1  0  0  0  0
 11 38  1  0  0  0  0
 11 39  1  0  0  0  0
 12 17  1  0  0  0  0
 12 25  1  0  0  0  0
 12 28  1  0  0  0  0
 13 20  1  0  0  0  0
 13 29  1  0  0  0  0
 13 30  1  0  0  0  0
 14 17  1  0  0  0  0
 14 40  1  0  0  0  0
 14 41  1  0  0  0  0
 15 19  1  0  0  0  0
 15 42  1  0  0  0  0
 15 43  1  0  0  0  0
 16 24  1  0  0  0  0
 16 44  1  0  0  0  0
 16 45  1  0  0  0  0
 17 46  1  0  0  0  0
 17 47  1  0  0  0  0
 18 48  1  0  0  0  0
 18 49  1  0  0  0  0
 18 50  1  0  0  0  0
 19 51  1  0  0  0  0
 20 24  1  0  0  0  0
 20 52  1  0  0  0  0
 21 53  1  0  0  0  0
 21 54  1  0  0  0  0
 21 55  1  0  0  0  0
 22 56  1  0  0  0  0
 22 57  1  0  0  0  0
 22 58  1  0  0  0  0
 23 26  1  0  0  0  0
 23 59  1  0  0  0  0
 23 60  1  0  0  0  0
 24 61  1  0  0  0  0
 24 62  1  0  0  0  0
 25 27  1  0  0  0  0
 25 63  1  0  0  0  0
 26 27  1  0  0  0  0
 26 31  1  0  0  0  0
 26 32  1  0  0  0  0
 27 64  1  0  0  0  0
 27 65  1  0  0  0  0
 28 66  1  0  0  0  0
 28 67  1  0  0  0  0
 28 68  1  0  0  0  0
 29 69  1  0  0  0  0
 29 70  1  0  0  0  0
 29 71  1  0  0  0  0
 30 72  1  0  0  0  0
 30 73  1  0  0  0  0
 30 74  1  0  0  0  0
 31 75  1  0  0  0  0
 31 76  1  0  0  0  0
 31 77  1  0  0  0  0
 32 78  1  0  0  0  0
 32 79  1  0  0  0  0
 32 80  1  0  0  0  0
M  END
> <PUBCHEM_COMPOUND_CID>
9846221

> <PUBCHEM_CONFORMER_RMSD>
0.8

> <PUBCHEM_CONFORMER_DIVERSEORDER>
1

> <PUBCHEM_MMFF94_PARTIAL_CHARGES>
12
1 -0.68
10 0.14
15 0.14
19 -0.29
2 -0.68
20 0.28
25 0.28
51 0.15
6 0.14
81 0.4
82 0.4
9 -0.28

> <PUBCHEM_EFFECTIVE_ROTOR_COUNT>
2.6

> <PUBCHEM_PHARMACOPHORE_FEATURES>
11
1 1 acceptor
1 1 donor
1 2 acceptor
1 2 donor
3 13 29 30 hydrophobe
3 26 31 32 hydrophobe
6 10 12 23 25 26 27 rings
6 3 4 5 7 8 11 rings
6 3 4 6 9 15 19 rings
6 5 7 13 16 20 24 rings
6 6 9 10 12 14 17 rings

> <PUBCHEM_HEAVY_ATOM_COUNT>
32

> <PUBCHEM_ATOM_DEF_STEREO_COUNT>
9

> <PUBCHEM_ATOM_UDEF_STEREO_COUNT>
0

> <PUBCHEM_BOND_DEF_STEREO_COUNT>
0

> <PUBCHEM_BOND_UDEF_STEREO_COUNT>
0

> <PUBCHEM_ISOTOPIC_ATOM_COUNT>
0

> <PUBCHEM_COMPONENT_COUNT>
1

> <PUBCHEM_CACTVS_TAUTO_COUNT>
1

> <PUBCHEM_CONFORMER_ID>
00963DCD00000001

> <PUBCHEM_MMFF94_ENERGY>
150.699

> <PUBCHEM_FEATURE_SELFOVERLAP>
55.905

> <PUBCHEM_SHAPE_FINGERPRINT>
10595046 47 18410575084926868506
11524674 6 16487253279524528135
11545043 162 17489868232661483137
11796584 16 17489590052078046190
12011746 2 17676487250190302517
12107183 9 17762902065311186281
12166972 35 18343022215661151672
12236239 1 18342740719251425364
12516196 113 18410572894488519680
12596602 18 17988923388097624320
12788726 201 18262799536891279976
13583140 156 16630523999430128789
1361 2 18408604751811975194
13782708 43 17060336344380395487
13911987 19 16877936140541567715
14347332 77 18412822491141990957
14787075 74 18260267438536177432
14790565 3 17895763893764065132
14840074 17 17603589629469584399
14856354 85 17918277550073512333
14955137 171 17918270965351057856
15082195 135 17605850337541268572
15183329 4 18186519899584978670
15788980 27 15841547470567091889
15799311 1 18200887192092021078
17349148 13 18186800292630539041
17844677 252 17632294583719987128
17857418 61 18408881841077690647
18681886 176 18411133667220394344
18927931 339 17989207062677800207
19319366 153 17167857569908657978
19958102 18 18261105283650700262
21033648 29 15338832024032346595
21236236 1 18410856555825058651
21267235 1 18334579075320944755
21424621 283 13624352526983657207
21859007 373 13397534289979056939
221357 26 18260545615357838884
22393880 68 18041267786320985301
22950370 63 18411698772677633860
23516275 137 18055661462981744083
23522609 53 18194430881304900724
23559900 14 18261953071640308545
23569914 152 16378556478815039295
23569943 247 18117556224173791786
24771293 8 18335415829266023364
3004659 81 18187365399005897474
34797466 226 17489029361599026296
350125 39 18407759227237859505
3633792 109 18187352251936736687
397830 11 16629663167619892682
4015057 19 17822860895722848581
4073 2 17894920658391915146
4325135 7 18186520982259472942
4340502 62 14056999421341716176
497634 4 18412262809711793197
504579 68 18409439294137702679
5104073 3 18272087210289148849
6086070 43 17917415524589538433
7495541 125 17846775238892354296

> <PUBCHEM_SHAPE_MULTIPOLES>
646.81
16.14
2.32
1.64
3.23
0.26
0.03
5.09
3.21
-0.84
0.07
-0.18
-0.04
-1.5

> <PUBCHEM_SHAPE_SELFOVERLAP>
1367.32

> <PUBCHEM_SHAPE_VOLUME>
358.6

> <PUBCHEM_COORDINATE_TYPE>
2
5
10

$$$$
