6326060
  -OEChem-09062001063D

 54 59  0     1  0  0  0  0  0999 V2000
    3.4647    1.9345    0.8706 O   0  0  0  0  0  0  0  0  0  0  0  0
   -3.8591    0.2542   -0.7474 O   0  0  0  0  0  0  0  0  0  0  0  0
    0.9447    0.5279   -1.8369 O   0  0  0  0  0  0  0  0  0  0  0  0
   -2.8032    1.5645    0.8687 O   0  0  0  0  0  0  0  0  0  0  0  0
   -6.4221   -1.3432    2.0358 O   0  0  0  0  0  0  0  0  0  0  0  0
   -6.0889   -2.6427   -0.5247 O   0  0  0  0  0  0  0  0  0  0  0  0
   -3.8987   -0.0851    2.8903 O   0  0  0  0  0  0  0  0  0  0  0  0
    5.3159   -2.9842   -0.5354 O   0  0  0  0  0  0  0  0  0  0  0  0
    5.5698   -2.3480    1.7764 O   0  0  0  0  0  0  0  0  0  0  0  0
   -3.6347   -0.6463   -3.3349 O   0  0  0  0  0  0  0  0  0  0  0  0
    3.1957    1.4673   -1.4962 C   0  0  1  0  0  0  0  0  0  0  0  0
    2.6995    2.3087   -0.3066 C   0  0  1  0  0  0  0  0  0  0  0  0
    3.8018    0.3242   -0.7584 C   0  0  0  0  0  0  0  0  0  0  0  0
    2.0785    1.1284   -2.4697 C   0  0  0  0  0  0  0  0  0  0  0  0
   -5.2224   -1.2782    1.2631 C   0  0  1  0  0  0  0  0  0  0  0  0
   -5.6082   -1.3373   -0.2149 C   0  0  1  0  0  0  0  0  0  0  0  0
    1.2259    2.1317   -0.0263 C   0  0  0  0  0  0  0  0  0  0  0  0
   -4.4766    0.0160    1.5891 C   0  0  2  0  0  0  0  0  0  0  0  0
   -4.4039   -1.0176   -1.1038 C   0  0  1  0  0  0  0  0  0  0  0  0
   -3.3539    0.2786    0.5855 C   0  0  1  0  0  0  0  0  0  0  0  0
    3.9541    0.6836    0.5838 C   0  0  0  0  0  0  0  0  0  0  0  0
    0.4444    1.2576   -0.7910 C   0  0  0  0  0  0  0  0  0  0  0  0
    4.2422   -0.9042   -1.2261 C   0  0  0  0  0  0  0  0  0  0  0  0
    0.6235    2.8339    1.0277 C   0  0  0  0  0  0  0  0  0  0  0  0
   -4.7907   -0.9555   -2.5781 C   0  0  0  0  0  0  0  0  0  0  0  0
   -1.4882    1.7538    0.5735 C   0  0  0  0  0  0  0  0  0  0  0  0
   -0.9026    1.0553   -0.4809 C   0  0  0  0  0  0  0  0  0  0  0  0
    4.5451   -0.1493    1.5173 C   0  0  0  0  0  0  0  0  0  0  0  0
    4.8218   -1.7390   -0.2885 C   0  0  0  0  0  0  0  0  0  0  0  0
   -0.7271    2.6469    1.3242 C   0  0  0  0  0  0  0  0  0  0  0  0
    4.9693   -1.3732    1.0388 C   0  0  0  0  0  0  0  0  0  0  0  0
    5.7834   -3.3632    0.7748 C   0  0  0  0  0  0  0  0  0  0  0  0
    4.0071    1.9929   -2.0158 H   0  0  0  0  0  0  0  0  0  0  0  0
    2.8831    3.3715   -0.5105 H   0  0  0  0  0  0  0  0  0  0  0  0
   -4.6229   -2.1514    1.5484 H   0  0  0  0  0  0  0  0  0  0  0  0
    1.7447    2.0287   -3.0019 H   0  0  0  0  0  0  0  0  0  0  0  0
    2.4318    0.4245   -3.2312 H   0  0  0  0  0  0  0  0  0  0  0  0
   -6.4267   -0.6325   -0.4064 H   0  0  0  0  0  0  0  0  0  0  0  0
   -5.1757    0.8603    1.6173 H   0  0  0  0  0  0  0  0  0  0  0  0
   -3.6180   -1.7770   -0.9917 H   0  0  0  0  0  0  0  0  0  0  0  0
   -2.5874   -0.5003    0.7157 H   0  0  0  0  0  0  0  0  0  0  0  0
    4.1474   -1.1921   -2.2654 H   0  0  0  0  0  0  0  0  0  0  0  0
    1.2077    3.5248    1.6306 H   0  0  0  0  0  0  0  0  0  0  0  0
   -5.5322   -0.1717   -2.7654 H   0  0  0  0  0  0  0  0  0  0  0  0
   -5.1895   -1.9102   -2.9327 H   0  0  0  0  0  0  0  0  0  0  0  0
   -1.4594    0.3662   -1.1070 H   0  0  0  0  0  0  0  0  0  0  0  0
    4.6613    0.1370    2.5545 H   0  0  0  0  0  0  0  0  0  0  0  0
   -1.1776    3.1953    2.1469 H   0  0  0  0  0  0  0  0  0  0  0  0
   -6.8784   -2.1680    1.7961 H   0  0  0  0  0  0  0  0  0  0  0  0
   -5.3670   -3.2743   -0.3649 H   0  0  0  0  0  0  0  0  0  0  0  0
   -3.2774   -0.8332    2.8879 H   0  0  0  0  0  0  0  0  0  0  0  0
    5.2603   -4.2757    1.0834 H   0  0  0  0  0  0  0  0  0  0  0  0
    6.8569   -3.5766    0.7157 H   0  0  0  0  0  0  0  0  0  0  0  0
   -3.2888    0.2028   -3.0104 H   0  0  0  0  0  0  0  0  0  0  0  0
  1 12  1  0  0  0  0
  1 21  1  0  0  0  0
  2 19  1  0  0  0  0
  2 20  1  0  0  0  0
  3 14  1  0  0  0  0
  3 22  1  0  0  0  0
  4 20  1  0  0  0  0
  4 26  1  0  0  0  0
  5 15  1  0  0  0  0
  5 49  1  0  0  0  0
  6 16  1  0  0  0  0
  6 50  1  0  0  0  0
  7 18  1  0  0  0  0
  7 51  1  0  0  0  0
  8 29  1  0  0  0  0
  8 32  1  0  0  0  0
  9 31  1  0  0  0  0
  9 32  1  0  0  0  0
 10 25  1  0  0  0  0
 10 54  1  0  0  0  0
 11 12  1  0  0  0  0
 11 13  1  0  0  0  0
 11 14  1  0  0  0  0
 11 33  1  0  0  0  0
 12 17  1  0  0  0  0
 12 34  1  0  0  0  0
 13 21  1  0  0  0  0
 13 23  2  0  0  0  0
 14 36  1  0  0  0  0
 14 37  1  0  0  0  0
 15 16  1  0  0  0  0
 15 18  1  0  0  0  0
 15 35  1  0  0  0  0
 16 19  1  0  0  0  0
 16 38  1  0  0  0  0
 17 22  2  0  0  0  0
 17 24  1  0  0  0  0
 18 20  1  0  0  0  0
 18 39  1  0  0  0  0
 19 25  1  0  0  0  0
 19 40  1  0  0  0  0
 20 41  1  0  0  0  0
 21 28  2  0  0  0  0
 22 27  1  0  0  0  0
 23 29  1  0  0  0  0
 23 42  1  0  0  0  0
 24 30  2  0  0  0  0
 24 43  1  0  0  0  0
 25 44  1  0  0  0  0
 25 45  1  0  0  0  0
 26 27  2  0  0  0  0
 26 30  1  0  0  0  0
 27 46  1  0  0  0  0
 28 31  1  0  0  0  0
 28 47  1  0  0  0  0
 29 31  2  0  0  0  0
 30 48  1  0  0  0  0
 32 52  1  0  0  0  0
 32 53  1  0  0  0  0
M  END
> <PUBCHEM_COMPOUND_CID>
6326060

> <PUBCHEM_CONFORMER_RMSD>
0.8

> <PUBCHEM_CONFORMER_DIVERSEORDER>
3
26
118
77
114
53
59
116
38
101
54
104
93
72
27
113
44
7
50
100
56
41
99
16
1
40
4
107
9
6
129
103
10
39
130
42
12
11
98
105
91
15
43
102
122
51
120
5
128
86
117
76
8
20
63
57
106
110
65
37
48
46
52
14
109
131
112
24
45
32
13
58
31
68
88
126
70
79
22
111
115
95
17
36
47
67
125
121
74
55
97
49
35
83
132
84
94
90
119
96
73
64
62
60
123
80
2
85
127
71
34
75
23
18
33
78
25
66
124
92
89
61
28
82
21
69
30
29
19
108
81
87

> <PUBCHEM_MMFF94_PARTIAL_CHARGES>
41
1 -0.36
10 -0.68
11 0.14
12 0.42
13 -0.14
14 0.28
15 0.28
16 0.28
17 -0.14
18 0.28
19 0.28
2 -0.56
20 0.56
21 0.08
22 0.08
23 -0.15
24 -0.15
25 0.28
26 0.08
27 -0.15
28 -0.15
29 0.08
3 -0.36
30 -0.15
31 0.08
32 0.56
4 -0.36
42 0.15
43 0.15
46 0.15
47 0.15
48 0.15
49 0.4
5 -0.68
50 0.4
51 0.4
54 0.4
6 -0.68
7 -0.68
8 -0.36
9 -0.36

> <PUBCHEM_EFFECTIVE_ROTOR_COUNT>
5.4

> <PUBCHEM_PHARMACOPHORE_FEATURES>
20
1 1 acceptor
1 10 acceptor
1 10 donor
1 2 acceptor
1 3 acceptor
1 4 acceptor
1 5 acceptor
1 5 donor
1 6 acceptor
1 6 donor
1 7 acceptor
1 7 donor
1 8 acceptor
1 9 acceptor
5 1 11 12 13 21 rings
5 8 9 29 31 32 rings
6 13 21 23 28 29 31 rings
6 17 22 24 26 27 30 rings
6 2 15 16 18 19 20 rings
6 3 11 12 14 17 22 rings

> <PUBCHEM_HEAVY_ATOM_COUNT>
32

> <PUBCHEM_ATOM_DEF_STEREO_COUNT>
7

> <PUBCHEM_ATOM_UDEF_STEREO_COUNT>
0

> <PUBCHEM_BOND_DEF_STEREO_COUNT>
0

> <PUBCHEM_BOND_UDEF_STEREO_COUNT>
0

> <PUBCHEM_ISOTOPIC_ATOM_COUNT>
0

> <PUBCHEM_COMPONENT_COUNT>
1

> <PUBCHEM_CACTVS_TAUTO_COUNT>
1

> <PUBCHEM_CONFORMER_ID>
0060872C00000003

> <PUBCHEM_MMFF94_ENERGY>
108.1251

> <PUBCHEM_FEATURE_SELFOVERLAP>
102.134

> <PUBCHEM_SHAPE_FINGERPRINT>
10319926 262 16845023294607762040
10622 236 18335703793436320424
11070050 100 14836403619184677830
11135609 201 10519116266868018292
11135926 11 18189344635705339372
11497681 19 18190468148211791046
117089 54 18122918529719267426
11763715 3 18117302297365256596
11796584 16 17967806159058185705
11991303 11 17898853440182455853
12166972 35 18113904861588657318
12422481 6 16988566770833350629
12633257 1 16271626916129923192
12655364 74 12313763476941331762
13533116 47 18335988652689115312
13627167 48 11891332028303469839
13692114 37 17413607051712187417
13782708 43 17822856502424953219
14289278 72 16343990183169571638
14537116 161 14562798972533786591
14848178 5 18261107461356783592
14848178 96 7925916967202882340
14950920 106 16773789252154047970
15064981 194 13190332466866237255
15082195 135 11242252995524643737
15163728 17 8069738637540868632
15183329 4 15791723118576969021
15510800 12 18040437694066083306
16067690 210 12462752619658757823
16989378 47 17897187770476453102
17349148 13 18336558160925572773
1813 80 18269567190153703277
18393751 57 11239732877110254977
19377110 9 17489584622991398840
19438510 23 10735861869065533350
1979834 28 16343438262048789229
19958102 18 16805600408742509179
20028762 73 18342458119199810646
20691028 202 8862953779439445103
20775438 99 17169000052689316866
20775530 9 17681836203168220834
208703 8 18412261722721498979
22061861 79 17676487276350541775
22393880 68 16153421761900293449
25122255 55 17967534579765181203
25222932 49 17983021334091252054
2748736 6 9222937146100491610
2838139 119 9798817365365703578
3459 110 13614226136154515021
34797466 226 16154279458675086725
3610482 184 13984941762937333519
3680242 22 18201446912646448759
3882209 13 14185872213224390157
3886686 26 17193490243530701290
392239 28 15697704987118308855
4017518 198 14433279453682723954
437795 70 15574711357351294183
44062 13 18115869603026643485
46194498 28 15865218937900501468
474113 269 18273207600481243055
4756326 101 14635735132846086998
5085150 59 17203334378210299861
5104073 3 17846504733494499521
513202 73 18334579036624034533
7064713 232 16056607577215922589
960060 61 14996004341700100480

> <PUBCHEM_SHAPE_MULTIPOLES>
599.85
16.15
3.28
2.46
8.16
0.78
-0.89
16.61
3.32
-3.56
0.81
2.47
0.36
-1.75

> <PUBCHEM_SHAPE_SELFOVERLAP>
1345.317

> <PUBCHEM_SHAPE_VOLUME>
312.8

> <PUBCHEM_COORDINATE_TYPE>
2
5
10

$$$$
