11968944
  -OEChem-09052023483D

 71 75  0     1  0  0  0  0  0999 V2000
    4.3372   -0.0784   -0.4465 O   0  0  0  0  0  0  0  0  0  0  0  0
    1.5892   -2.3218    0.4283 O   0  0  0  0  0  0  0  0  0  0  0  0
    5.1713    1.2953    1.2995 O   0  0  0  0  0  0  0  0  0  0  0  0
    5.6753   -2.6333    0.1556 O   0  0  0  0  0  0  0  0  0  0  0  0
    1.7031    0.0033    0.5847 O   0  0  0  0  0  0  0  0  0  0  0  0
    4.0080   -4.8593   -0.6322 O   0  0  0  0  0  0  0  0  0  0  0  0
    7.7238    1.1637   -0.0149 O   0  0  0  0  0  0  0  0  0  0  0  0
    7.0056    2.9303   -2.0417 O   0  0  0  0  0  0  0  0  0  0  0  0
    4.9603    4.3916   -0.6899 O   0  0  0  0  0  0  0  0  0  0  0  0
   -0.1482   -4.4137    0.0263 O   0  0  0  0  0  0  0  0  0  0  0  0
   -5.6547    2.4842    0.0251 O   0  0  0  0  0  0  0  0  0  0  0  0
   -4.4380   -1.4084   -0.1041 O   0  0  0  0  0  0  0  0  0  0  0  0
   -6.9131   -2.1860   -0.2822 O   0  0  0  0  0  0  0  0  0  0  0  0
  -10.2167    1.2233   -0.3499 O   0  0  0  0  0  0  0  0  0  0  0  0
    3.7310   -1.2016    0.1925 C   0  0  2  0  0  0  0  0  0  0  0  0
    4.3481   -2.4896   -0.3526 C   0  0  2  0  0  0  0  0  0  0  0  0
    3.5417   -3.7150    0.0779 C   0  0  1  0  0  0  0  0  0  0  0  0
    5.4907    0.3632    0.2608 C   0  0  2  0  0  0  0  0  0  0  0  0
    6.4950    0.9701   -0.7172 C   0  0  1  0  0  0  0  0  0  0  0  0
    2.2266   -1.1496   -0.0740 C   0  0  1  0  0  0  0  0  0  0  0  0
    2.0520   -3.5133   -0.2098 C   0  0  1  0  0  0  0  0  0  0  0  0
    5.9886    2.3074   -1.2604 C   0  0  1  0  0  0  0  0  0  0  0  0
    5.5846    3.2434   -0.1208 C   0  0  2  0  0  0  0  0  0  0  0  0
    4.6156    2.5282    0.8309 C   0  0  2  0  0  0  0  0  0  0  0  0
    1.2130   -4.6731    0.3174 C   0  0  0  0  0  0  0  0  0  0  0  0
    4.2980    3.3708    2.0631 C   0  0  0  0  0  0  0  0  0  0  0  0
    0.3574    0.2184    0.4656 C   0  0  0  0  0  0  0  0  0  0  0  0
   -0.4392    0.2566    1.6057 C   0  0  0  0  0  0  0  0  0  0  0  0
   -0.2044    0.3964   -0.7947 C   0  0  0  0  0  0  0  0  0  0  0  0
   -1.8114    0.4753    1.4843 C   0  0  0  0  0  0  0  0  0  0  0  0
   -1.5766    0.6154   -0.9162 C   0  0  0  0  0  0  0  0  0  0  0  0
   -2.3802    0.6548    0.2233 C   0  0  0  0  0  0  0  0  0  0  0  0
   -3.8284    0.8848    0.0950 C   0  0  0  0  0  0  0  0  0  0  0  0
   -4.7953   -0.2389   -0.0448 C   0  0  0  0  0  0  0  0  0  0  0  0
   -4.3311    2.1284    0.1190 C   0  0  0  0  0  0  0  0  0  0  0  0
   -6.2211    0.1287   -0.1238 C   0  0  0  0  0  0  0  0  0  0  0  0
   -6.5779    1.4762   -0.0856 C   0  0  0  0  0  0  0  0  0  0  0  0
   -7.2055   -0.8563   -0.2390 C   0  0  0  0  0  0  0  0  0  0  0  0
   -7.9209    1.8466   -0.1624 C   0  0  0  0  0  0  0  0  0  0  0  0
   -8.5482   -0.4833   -0.3151 C   0  0  0  0  0  0  0  0  0  0  0  0
   -8.9053    0.8651   -0.2770 C   0  0  0  0  0  0  0  0  0  0  0  0
    3.8887   -1.1404    1.2793 H   0  0  0  0  0  0  0  0  0  0  0  0
    4.4376   -2.4377   -1.4447 H   0  0  0  0  0  0  0  0  0  0  0  0
    3.7061   -3.9024    1.1461 H   0  0  0  0  0  0  0  0  0  0  0  0
    5.9939   -0.4602    0.7737 H   0  0  0  0  0  0  0  0  0  0  0  0
    6.7014    0.2887   -1.5495 H   0  0  0  0  0  0  0  0  0  0  0  0
    2.0523   -1.0606   -1.1544 H   0  0  0  0  0  0  0  0  0  0  0  0
    1.8672   -3.4245   -1.2891 H   0  0  0  0  0  0  0  0  0  0  0  0
    5.1339    2.1386   -1.9272 H   0  0  0  0  0  0  0  0  0  0  0  0
    6.4818    3.5865    0.4089 H   0  0  0  0  0  0  0  0  0  0  0  0
    3.6657    2.3229    0.3208 H   0  0  0  0  0  0  0  0  0  0  0  0
    1.3085   -4.7755    1.4034 H   0  0  0  0  0  0  0  0  0  0  0  0
    1.4913   -5.6209   -0.1522 H   0  0  0  0  0  0  0  0  0  0  0  0
    3.6534    2.8108    2.7497 H   0  0  0  0  0  0  0  0  0  0  0  0
    3.7896    4.3025    1.8000 H   0  0  0  0  0  0  0  0  0  0  0  0
    5.2117    3.6120    2.6175 H   0  0  0  0  0  0  0  0  0  0  0  0
    6.0353   -3.4632   -0.2013 H   0  0  0  0  0  0  0  0  0  0  0  0
    3.8606   -4.7045   -1.5809 H   0  0  0  0  0  0  0  0  0  0  0  0
    7.5335    1.6392    0.8111 H   0  0  0  0  0  0  0  0  0  0  0  0
    6.6548    3.7836   -2.3492 H   0  0  0  0  0  0  0  0  0  0  0  0
    4.8535    5.0516    0.0152 H   0  0  0  0  0  0  0  0  0  0  0  0
   -0.3818   -3.5659    0.4418 H   0  0  0  0  0  0  0  0  0  0  0  0
   -0.0004    0.1164    2.5895 H   0  0  0  0  0  0  0  0  0  0  0  0
    0.4076    0.3869   -1.6918 H   0  0  0  0  0  0  0  0  0  0  0  0
   -2.4248    0.5019    2.3817 H   0  0  0  0  0  0  0  0  0  0  0  0
   -2.0049    0.7564   -1.9057 H   0  0  0  0  0  0  0  0  0  0  0  0
   -3.7248    3.0203    0.2210 H   0  0  0  0  0  0  0  0  0  0  0  0
   -8.2014    2.8964   -0.1328 H   0  0  0  0  0  0  0  0  0  0  0  0
   -9.3215   -1.2430   -0.4045 H   0  0  0  0  0  0  0  0  0  0  0  0
   -7.7364   -2.6971   -0.3639 H   0  0  0  0  0  0  0  0  0  0  0  0
  -10.7598    0.4200   -0.4251 H   0  0  0  0  0  0  0  0  0  0  0  0
  1 15  1  0  0  0  0
  1 18  1  0  0  0  0
  2 20  1  0  0  0  0
  2 21  1  0  0  0  0
  3 18  1  0  0  0  0
  3 24  1  0  0  0  0
  4 16  1  0  0  0  0
  4 57  1  0  0  0  0
  5 20  1  0  0  0  0
  5 27  1  0  0  0  0
  6 17  1  0  0  0  0
  6 58  1  0  0  0  0
  7 19  1  0  0  0  0
  7 59  1  0  0  0  0
  8 22  1  0  0  0  0
  8 60  1  0  0  0  0
  9 23  1  0  0  0  0
  9 61  1  0  0  0  0
 10 25  1  0  0  0  0
 10 62  1  0  0  0  0
 11 35  1  0  0  0  0
 11 37  1  0  0  0  0
 12 34  2  0  0  0  0
 13 38  1  0  0  0  0
 13 70  1  0  0  0  0
 14 41  1  0  0  0  0
 14 71  1  0  0  0  0
 15 16  1  0  0  0  0
 15 20  1  0  0  0  0
 15 42  1  0  0  0  0
 16 17  1  0  0  0  0
 16 43  1  0  0  0  0
 17 21  1  0  0  0  0
 17 44  1  0  0  0  0
 18 19  1  0  0  0  0
 18 45  1  0  0  0  0
 19 22  1  0  0  0  0
 19 46  1  0  0  0  0
 20 47  1  0  0  0  0
 21 25  1  0  0  0  0
 21 48  1  0  0  0  0
 22 23  1  0  0  0  0
 22 49  1  0  0  0  0
 23 24  1  0  0  0  0
 23 50  1  0  0  0  0
 24 26  1  0  0  0  0
 24 51  1  0  0  0  0
 25 52  1  0  0  0  0
 25 53  1  0  0  0  0
 26 54  1  0  0  0  0
 26 55  1  0  0  0  0
 26 56  1  0  0  0  0
 27 28  2  0  0  0  0
 27 29  1  0  0  0  0
 28 30  1  0  0  0  0
 28 63  1  0  0  0  0
 29 31  2  0  0  0  0
 29 64  1  0  0  0  0
 30 32  2  0  0  0  0
 30 65  1  0  0  0  0
 31 32  1  0  0  0  0
 31 66  1  0  0  0  0
 32 33  1  0  0  0  0
 33 34  1  0  0  0  0
 33 35  2  0  0  0  0
 34 36  1  0  0  0  0
 35 67  1  0  0  0  0
 36 37  1  0  0  0  0
 36 38  2  0  0  0  0
 37 39  2  0  0  0  0
 38 40  1  0  0  0  0
 39 41  1  0  0  0  0
 39 68  1  0  0  0  0
 40 41  2  0  0  0  0
 40 69  1  0  0  0  0
M  END
> <PUBCHEM_COMPOUND_CID>
11968944

> <PUBCHEM_CONFORMER_RMSD>
1

> <PUBCHEM_CONFORMER_DIVERSEORDER>
1
89
75
110
305
150
422
361
383
35
399
235
175
392
233
153
151
249
252
317
354
390
275
102
321
271
95
415
386
340
319
406
34
320
164
218
148
202
364
274
184
83
205
301
421
273
114
272
277
357
327
330
391
182
157
158
348
213
216
304
268
12
70
332
405
101
112
76
380
58
134
293
217
108
152
165
384
46
291
400
55
423
23
215
62
169
286
306
388
161
345
328
302
238
290
296
220
99
408
267
139
36
418
111
137
255
81
80
125
107
412
208
280
201
371
177
231
261
331
367
382
377
372
64
186
324
97
129
242
131
96
285
193
147
314
270
154
311
204
385
120
276
349
417
188
389
396
185
225
73
63
245
53
163
127
251
90
411
398
115
326
118
6
370
236
407
365
37
344
77
146
378
57
263
295
337
24
145
54
258
416
401
176
78
356
159
141
341
243
181
312
288
315
289
363
420
50
105
19
299
409
207
250
195
68
381
355
395
155
136
98
228
113
246
262
93
198
316
221
227
269
303
84
226
60
266
373
52
5
187
224
72
352
190
402
123
87
214
404
376
323
264
74
368
244
33
282
253
209
140
403
85
27
144
234
203
121
335
375
119
103
3
38
59
329
393
138
189
254
156
199
265
66
172
44
168
278
191
325
284
173
343
179
100
167
31
45
366
292
79
241
109
300
369
42
257
116
353
4
313
308
92
387
219
279
91
56
8
166
339
128
71
41
237
413
298
21
48
309
397
347
200
239
174
230
94
211
307
281
25
410
360
117
338
183
394
180
192
222
32
223
362
260
358
414
133
28
29
65
39
61
206
122
287
336
16
15
43
259
351
232
82
342
194
171
310
49
13
419
130
210
132
297
248
196
20
256
240
135
47
229
143
69
106
359
160
18
170
334
104
142
318
294
124
9
14
22
247
333
162
322
86
283
379
374
2
67
51
178
126
149
350
346
212
7
10
197
11
30
40
88
26
17

> <PUBCHEM_MMFF94_PARTIAL_CHARGES>
55
1 -0.56
10 -0.68
11 -0.16
12 -0.57
13 -0.53
14 -0.53
15 0.28
16 0.28
17 0.28
18 0.56
19 0.28
2 -0.56
20 0.56
21 0.28
22 0.28
23 0.28
24 0.28
25 0.28
27 0.08
28 -0.15
29 -0.15
3 -0.56
30 -0.15
31 -0.15
32 0.03
33 -0.01
34 0.47
35 -0.07
36 0.09
37 0.08
38 0.08
39 -0.15
4 -0.68
40 -0.15
41 0.08
5 -0.36
57 0.4
58 0.4
59 0.4
6 -0.68
60 0.4
61 0.4
62 0.4
63 0.15
64 0.15
65 0.15
66 0.15
67 0.15
68 0.15
69 0.15
7 -0.68
70 0.45
71 0.45
8 -0.68
9 -0.68

> <PUBCHEM_EFFECTIVE_ROTOR_COUNT>
8.4

> <PUBCHEM_PHARMACOPHORE_FEATURES>
25
1 1 acceptor
1 10 acceptor
1 10 donor
1 11 acceptor
1 12 acceptor
1 13 donor
1 14 donor
1 2 acceptor
1 3 acceptor
1 4 acceptor
1 4 donor
1 5 acceptor
1 6 acceptor
1 6 donor
1 7 acceptor
1 7 donor
1 8 acceptor
1 8 donor
1 9 acceptor
1 9 donor
6 11 33 34 35 36 37 rings
6 2 15 16 17 20 21 rings
6 27 28 29 30 31 32 rings
6 3 18 19 22 23 24 rings
6 36 37 38 39 40 41 rings

> <PUBCHEM_HEAVY_ATOM_COUNT>
41

> <PUBCHEM_ATOM_DEF_STEREO_COUNT>
10

> <PUBCHEM_ATOM_UDEF_STEREO_COUNT>
0

> <PUBCHEM_BOND_DEF_STEREO_COUNT>
0

> <PUBCHEM_BOND_UDEF_STEREO_COUNT>
0

> <PUBCHEM_ISOTOPIC_ATOM_COUNT>
0

> <PUBCHEM_COMPONENT_COUNT>
1

> <PUBCHEM_CACTVS_TAUTO_COUNT>
12

> <PUBCHEM_CONFORMER_ID>
00B6A1B000000001

> <PUBCHEM_MMFF94_ENERGY>
137.2436

> <PUBCHEM_FEATURE_SELFOVERLAP>
127.039

> <PUBCHEM_SHAPE_FINGERPRINT>
10050765 1 18194401091896778861
10165383 225 18335422396676668476
10595046 47 18340770338943944417
10673678 19 18339646736860559208
10835480 77 18408324376277489267
11135609 187 18410856589709855306
11181472 205 17916313745403627121
11607047 191 17344040101204455080
12144603 126 18202286884486727089
12522641 33 18333732424985940555
1361 2 18407761447572174314
14118638 360 18130508544231488545
14675020 138 18129081442942680728
15082195 135 18342459218684077842
15276724 80 18339923715270638373
15361156 5 18412821418144225119
15400415 2 18411416181647905163
15890870 6 18410296956579514316
15927050 60 18199460133816903703
18365409 1 18266742578745936295
19315958 150 18408325463474037551
24771293 8 17822295690790434221
24893992 56 18412544323638238272
255183 451 17984992488601350190
27425 322 17603871160876780594
335507 130 18342731906036478439
4073 2 18333454244776848971
437795 163 18268989959555322719
44317340 157 18340760477298223149
45270241 37 18338520746885718455
45377200 153 16056591123665554927
4625314 4 18410292489253772709
504579 68 17917716807322272473
5109719 28 18410863169663309737
5265222 85 18268710696180073563
5776283 40 18341049735098215073
9831232 110 18196652882619389678
9849439 229 18268423702745875016
99344 41 18409448106740615661

> <PUBCHEM_SHAPE_MULTIPOLES>
761.59
26.63
5.38
1.12
44.98
5
0.18
-15.67
-5.63
-11.26
-0.22
-1.58
-0.87
-0.44

> <PUBCHEM_SHAPE_SELFOVERLAP>
1656.039

> <PUBCHEM_SHAPE_VOLUME>
408.7

> <PUBCHEM_COORDINATE_TYPE>
2
5
10

$$$$
