13845970
  -OEChem-09062000133D

 37 39  0     0  0  0  0  0  0999 V2000
   -1.5275    1.8913    0.2593 O   0  0  0  0  0  0  0  0  0  0  0  0
   -5.9398    0.1408    0.3622 O   0  0  0  0  0  0  0  0  0  0  0  0
   -2.3459   -2.8064   -0.6071 O   0  0  0  0  0  0  0  0  0  0  0  0
    0.0345   -1.7612   -0.6726 O   0  0  0  0  0  0  0  0  0  0  0  0
    4.8320   -0.1525    1.7733 O   0  0  0  0  0  0  0  0  0  0  0  0
    6.0362    0.2957   -0.6912 O   0  0  0  0  0  0  0  0  0  0  0  0
   -1.8722   -0.4705   -0.1817 C   0  0  0  0  0  0  0  0  0  0  0  0
    0.4360    0.5375   -0.1990 C   0  0  0  0  0  0  0  0  0  0  0  0
   -2.3508    0.8028    0.1249 C   0  0  0  0  0  0  0  0  0  0  0  0
   -0.4233   -0.6658   -0.3739 C   0  0  0  0  0  0  0  0  0  0  0  0
    1.9012    0.4731   -0.3240 C   0  0  0  0  0  0  0  0  0  0  0  0
   -2.7587   -1.5432   -0.3078 C   0  0  0  0  0  0  0  0  0  0  0  0
   -0.1776    1.6929    0.0986 C   0  0  0  0  0  0  0  0  0  0  0  0
   -3.7184    1.0109    0.3074 C   0  0  0  0  0  0  0  0  0  0  0  0
    2.6882    0.1877    0.7936 C   0  0  0  0  0  0  0  0  0  0  0  0
   -4.6051   -0.0586    0.1825 C   0  0  0  0  0  0  0  0  0  0  0  0
   -4.1261   -1.3328   -0.1244 C   0  0  0  0  0  0  0  0  0  0  0  0
    2.5089    0.6984   -1.5611 C   0  0  0  0  0  0  0  0  0  0  0  0
    4.0769    0.1277    0.6748 C   0  0  0  0  0  0  0  0  0  0  0  0
    3.8973    0.6385   -1.6799 C   0  0  0  0  0  0  0  0  0  0  0  0
    4.6813    0.3530   -0.5621 C   0  0  0  0  0  0  0  0  0  0  0  0
   -6.3614    1.4673    0.6756 C   0  0  0  0  0  0  0  0  0  0  0  0
    5.1143   -1.5263    2.0326 C   0  0  0  0  0  0  0  0  0  0  0  0
    0.3448    2.6291    0.2525 H   0  0  0  0  0  0  0  0  0  0  0  0
   -4.0308    2.0226    0.5440 H   0  0  0  0  0  0  0  0  0  0  0  0
    2.2248    0.0105    1.7620 H   0  0  0  0  0  0  0  0  0  0  0  0
   -4.8219   -2.1629   -0.2205 H   0  0  0  0  0  0  0  0  0  0  0  0
    1.9116    0.9211   -2.4420 H   0  0  0  0  0  0  0  0  0  0  0  0
    4.3622    0.8145   -2.6461 H   0  0  0  0  0  0  0  0  0  0  0  0
   -1.3811   -2.8390   -0.6928 H   0  0  0  0  0  0  0  0  0  0  0  0
   -6.1380    2.1640   -0.1395 H   0  0  0  0  0  0  0  0  0  0  0  0
   -5.9524    1.8039    1.6343 H   0  0  0  0  0  0  0  0  0  0  0  0
   -7.4506    1.4426    0.7846 H   0  0  0  0  0  0  0  0  0  0  0  0
    6.4235    0.1272    0.1850 H   0  0  0  0  0  0  0  0  0  0  0  0
    5.6418   -1.9812    1.1882 H   0  0  0  0  0  0  0  0  0  0  0  0
    4.1886   -2.0741    2.2354 H   0  0  0  0  0  0  0  0  0  0  0  0
    5.7551   -1.5834    2.9168 H   0  0  0  0  0  0  0  0  0  0  0  0
  1  9  1  0  0  0  0
  1 13  1  0  0  0  0
  2 16  1  0  0  0  0
  2 22  1  0  0  0  0
  3 12  1  0  0  0  0
  3 30  1  0  0  0  0
  4 10  2  0  0  0  0
  5 19  1  0  0  0  0
  5 23  1  0  0  0  0
  6 21  1  0  0  0  0
  6 34  1  0  0  0  0
  7  9  1  0  0  0  0
  7 10  1  0  0  0  0
  7 12  2  0  0  0  0
  8 10  1  0  0  0  0
  8 11  1  0  0  0  0
  8 13  2  0  0  0  0
  9 14  2  0  0  0  0
 11 15  2  0  0  0  0
 11 18  1  0  0  0  0
 12 17  1  0  0  0  0
 13 24  1  0  0  0  0
 14 16  1  0  0  0  0
 14 25  1  0  0  0  0
 15 19  1  0  0  0  0
 15 26  1  0  0  0  0
 16 17  2  0  0  0  0
 17 27  1  0  0  0  0
 18 20  2  0  0  0  0
 18 28  1  0  0  0  0
 19 21  2  0  0  0  0
 20 21  1  0  0  0  0
 20 29  1  0  0  0  0
 22 31  1  0  0  0  0
 22 32  1  0  0  0  0
 22 33  1  0  0  0  0
 23 35  1  0  0  0  0
 23 36  1  0  0  0  0
 23 37  1  0  0  0  0
M  END
> <PUBCHEM_COMPOUND_CID>
13845970

> <PUBCHEM_CONFORMER_RMSD>
0.6

> <PUBCHEM_CONFORMER_DIVERSEORDER>
3
6
8
9
11
1
2
12
5
7
4
10

> <PUBCHEM_MMFF94_PARTIAL_CHARGES>
31
1 -0.16
10 0.47
11 0.03
12 0.08
13 -0.07
14 -0.15
15 -0.15
16 0.08
17 -0.15
18 -0.15
19 0.08
2 -0.36
20 -0.15
21 0.08
22 0.28
23 0.28
24 0.15
25 0.15
26 0.15
27 0.15
28 0.15
29 0.15
3 -0.53
30 0.45
34 0.45
4 -0.57
5 -0.36
6 -0.53
7 0.09
8 -0.01
9 0.08

> <PUBCHEM_EFFECTIVE_ROTOR_COUNT>
3

> <PUBCHEM_PHARMACOPHORE_FEATURES>
9
1 1 acceptor
1 2 acceptor
1 3 donor
1 4 acceptor
1 5 acceptor
1 6 donor
6 1 7 8 9 10 13 rings
6 11 15 18 19 20 21 rings
6 7 9 12 14 16 17 rings

> <PUBCHEM_HEAVY_ATOM_COUNT>
23

> <PUBCHEM_ATOM_DEF_STEREO_COUNT>
0

> <PUBCHEM_ATOM_UDEF_STEREO_COUNT>
0

> <PUBCHEM_BOND_DEF_STEREO_COUNT>
0

> <PUBCHEM_BOND_UDEF_STEREO_COUNT>
0

> <PUBCHEM_ISOTOPIC_ATOM_COUNT>
0

> <PUBCHEM_COMPONENT_COUNT>
1

> <PUBCHEM_CACTVS_TAUTO_COUNT>
14

> <PUBCHEM_CONFORMER_ID>
00D345D200000003

> <PUBCHEM_MMFF94_ENERGY>
90.8307

> <PUBCHEM_FEATURE_SELFOVERLAP>
45.701

> <PUBCHEM_SHAPE_FINGERPRINT>
10062212 137 18335418019160767431
11045977 3 17704069624670592384
11646440 116 17774736328800746113
12107183 9 17463961368148083360
12236239 1 18113622308997096516
12403814 3 17822009813862037413
12616971 3 17822006518999628719
12788726 201 18336553728672895648
13140716 1 18270116963041341761
13533116 47 17748824094981691824
13551218 46 18261385590311858563
13760787 5 17676202502591028111
13862211 1 18412821417706284375
14341114 176 16588026796705514581
14386348 63 17489878149983660188
15196674 1 18270403926859623573
15788980 27 17530678814376587165
17349148 13 18410008849191610270
17804303 29 18272091651422573145
1813 80 17386285368919475334
200 152 17095519599941234348
20554085 129 17774709858817242795
20645477 70 15936403430223610848
21033648 29 16702299040232983256
21267235 1 18341058531581867263
21421861 104 18115303363286438394
220451 1 17967536787161956930
23366157 5 17902509625133816093
23402539 116 18130786776549673101
23536379 177 16877661253928417317
23557571 272 17846509097302655788
23559900 14 18131079255348803076
2838139 119 14044919018594698931
3004659 81 18334582334768320172
335352 9 18342179986086795573
345986 75 17750216042496146896
34934 24 18343585127450139783
3680242 22 18410296891152438505
4072396 5 18412260610461365879
4340502 62 14979958090162650525
465052 167 17676494938202958938
495365 180 16559030467879542710
5104073 3 18268996552160563913
5385378 56 18199483069395353747
542803 24 17894915147837948260
573450 72 18409162238070532698
59755656 215 18200886084280479598
7226269 152 18131355198270642313

> <PUBCHEM_SHAPE_MULTIPOLES>
438.11
13.75
1.81
1.3
1.16
0.77
0.18
-0.68
3.46
1.3
-0.05
-2.14
0.19
-2.09

> <PUBCHEM_SHAPE_SELFOVERLAP>
967.931

> <PUBCHEM_SHAPE_VOLUME>
235.2

> <PUBCHEM_COORDINATE_TYPE>
2
5
10

$$$$
