44715841
  -OEChem-09062001053D

 71 73  0     1  0  0  0  0  0999 V2000
   -2.6559    0.9605   -0.8919 O   0  0  0  0  0  0  0  0  0  0  0  0
   -3.8424   -0.1130    0.8527 O   0  0  0  0  0  0  0  0  0  0  0  0
    0.4539    1.1975    1.0115 O   0  0  0  0  0  0  0  0  0  0  0  0
   -2.3256    3.8524   -0.4351 O   0  0  0  0  0  0  0  0  0  0  0  0
   -6.7182    0.2008    0.2595 O   0  0  0  0  0  0  0  0  0  0  0  0
   -5.5130    0.9845   -2.1281 O   0  0  0  0  0  0  0  0  0  0  0  0
   -1.0551   -0.5760    0.8644 O   0  0  0  0  0  0  0  0  0  0  0  0
    0.4764    4.5631   -0.4325 O   0  0  0  0  0  0  0  0  0  0  0  0
    3.1271    1.7906    1.3931 O   0  0  0  0  0  0  0  0  0  0  0  0
   -7.3003   -2.5178   -0.0475 O   0  0  0  0  0  0  0  0  0  0  0  0
    1.2429   -3.3755    0.3815 O   0  0  0  0  0  0  0  0  0  0  0  0
    5.7273    0.4199   -1.6436 O   0  0  0  0  0  0  0  0  0  0  0  0
    4.2223    2.5982   -0.4711 O   0  0  0  0  0  0  0  0  0  0  0  0
    0.4748   -0.5755    3.1908 O   0  0  0  0  0  0  0  0  0  0  0  0
    3.4750   -3.0716   -1.8431 O   0  0  0  0  0  0  0  0  0  0  0  0
    4.2276   -1.4688   -3.2606 O   0  0  0  0  0  0  0  0  0  0  0  0
   -1.7342    1.5559    0.0211 C   0  0  2  0  0  0  0  0  0  0  0  0
   -1.2654    2.9003   -0.5356 C   0  0  2  0  0  0  0  0  0  0  0  0
   -5.7915   -0.6917   -0.3601 C   0  0  1  0  0  0  0  0  0  0  0  0
   -4.8518    0.0689   -1.2769 C   0  0  2  0  0  0  0  0  0  0  0  0
   -3.9250    0.7597   -0.2872 C   0  0  2  0  0  0  0  0  0  0  0  0
   -0.0703    3.4386    0.2515 C   0  0  1  0  0  0  0  0  0  0  0  0
    1.0092    2.3642    0.4021 C   0  0  1  0  0  0  0  0  0  0  0  0
   -0.5616    0.5942    0.2131 C   0  0  1  0  0  0  0  0  0  0  0  0
   -4.8169   -1.1661    0.7060 C   0  0  0  0  0  0  0  0  0  0  0  0
   -6.5617   -1.8147   -1.0330 C   0  0  0  0  0  0  0  0  0  0  0  0
    2.1602    2.8398    1.2830 C   0  0  0  0  0  0  0  0  0  0  0  0
   -0.0731   -1.4851    1.0662 C   0  0  0  0  0  0  0  0  0  0  0  0
    4.1062    1.7928    0.4438 C   0  0  0  0  0  0  0  0  0  0  0  0
    5.0672    0.6497    0.6880 C   0  0  0  0  0  0  0  0  0  0  0  0
    5.2017   -0.2934   -0.5220 C   0  0  1  0  0  0  0  0  0  0  0  0
    0.2330   -2.4429    0.1669 C   0  0  0  0  0  0  0  0  0  0  0  0
    0.7033   -1.4227    2.3345 C   0  0  0  0  0  0  0  0  0  0  0  0
    3.8418   -0.9113   -0.9156 C   0  0  0  0  0  0  0  0  0  0  0  0
    6.1849   -1.4360   -0.2294 C   0  0  0  0  0  0  0  0  0  0  0  0
   -0.4646   -2.6177   -1.1458 C   0  0  0  0  0  0  0  0  0  0  0  0
    1.7664   -2.4279    2.5216 C   0  0  0  0  0  0  0  0  0  0  0  0
    1.9582   -3.3192    1.5491 C   0  0  0  0  0  0  0  0  0  0  0  0
    3.8671   -1.8046   -2.1413 C   0  0  0  0  0  0  0  0  0  0  0  0
   -2.2063    1.7366    0.9979 H   0  0  0  0  0  0  0  0  0  0  0  0
   -1.0286    2.8169   -1.6027 H   0  0  0  0  0  0  0  0  0  0  0  0
   -4.2825   -0.6253   -1.9089 H   0  0  0  0  0  0  0  0  0  0  0  0
   -4.3360    1.7264    0.0311 H   0  0  0  0  0  0  0  0  0  0  0  0
   -0.4040    3.7858    1.2370 H   0  0  0  0  0  0  0  0  0  0  0  0
    1.4165    2.0836   -0.5784 H   0  0  0  0  0  0  0  0  0  0  0  0
   -0.1480    0.3112   -0.7656 H   0  0  0  0  0  0  0  0  0  0  0  0
   -4.2744   -2.0680    0.4018 H   0  0  0  0  0  0  0  0  0  0  0  0
   -5.2825   -1.3376    1.6811 H   0  0  0  0  0  0  0  0  0  0  0  0
   -5.8914   -2.5185   -1.5370 H   0  0  0  0  0  0  0  0  0  0  0  0
   -7.2733   -1.4138   -1.7624 H   0  0  0  0  0  0  0  0  0  0  0  0
    1.8028    3.0318    2.3010 H   0  0  0  0  0  0  0  0  0  0  0  0
    2.6157    3.7671    0.9173 H   0  0  0  0  0  0  0  0  0  0  0  0
   -2.5740    3.9316    0.5017 H   0  0  0  0  0  0  0  0  0  0  0  0
   -7.2663   -0.3182    0.8728 H   0  0  0  0  0  0  0  0  0  0  0  0
   -4.8290    1.4954   -2.5936 H   0  0  0  0  0  0  0  0  0  0  0  0
    0.7886    4.2625   -1.3030 H   0  0  0  0  0  0  0  0  0  0  0  0
   -7.7855   -3.2259   -0.5042 H   0  0  0  0  0  0  0  0  0  0  0  0
    4.7439    0.0822    1.5694 H   0  0  0  0  0  0  0  0  0  0  0  0
    6.0339    1.1057    0.9339 H   0  0  0  0  0  0  0  0  0  0  0  0
    3.1096   -0.1286   -1.1502 H   0  0  0  0  0  0  0  0  0  0  0  0
    3.4347   -1.4715   -0.0684 H   0  0  0  0  0  0  0  0  0  0  0  0
    6.3704   -2.0509   -1.1169 H   0  0  0  0  0  0  0  0  0  0  0  0
    5.8245   -2.0813    0.5784 H   0  0  0  0  0  0  0  0  0  0  0  0
    7.1603   -1.0317    0.0658 H   0  0  0  0  0  0  0  0  0  0  0  0
    0.2313   -2.4243   -1.9685 H   0  0  0  0  0  0  0  0  0  0  0  0
   -0.8324   -3.6447   -1.2410 H   0  0  0  0  0  0  0  0  0  0  0  0
   -1.3236   -1.9507   -1.2649 H   0  0  0  0  0  0  0  0  0  0  0  0
    2.3570   -2.4179    3.4282 H   0  0  0  0  0  0  0  0  0  0  0  0
    5.0716    1.0851   -1.9130 H   0  0  0  0  0  0  0  0  0  0  0  0
    2.7096   -4.0947    1.5845 H   0  0  0  0  0  0  0  0  0  0  0  0
    3.5076   -3.6585   -2.6284 H   0  0  0  0  0  0  0  0  0  0  0  0
  1 17  1  0  0  0  0
  1 21  1  0  0  0  0
  2 21  1  0  0  0  0
  2 25  1  0  0  0  0
  3 23  1  0  0  0  0
  3 24  1  0  0  0  0
  4 18  1  0  0  0  0
  4 53  1  0  0  0  0
  5 19  1  0  0  0  0
  5 54  1  0  0  0  0
  6 20  1  0  0  0  0
  6 55  1  0  0  0  0
  7 24  1  0  0  0  0
  7 28  1  0  0  0  0
  8 22  1  0  0  0  0
  8 56  1  0  0  0  0
  9 27  1  0  0  0  0
  9 29  1  0  0  0  0
 10 26  1  0  0  0  0
 10 57  1  0  0  0  0
 11 32  1  0  0  0  0
 11 38  1  0  0  0  0
 12 31  1  0  0  0  0
 12 69  1  0  0  0  0
 13 29  2  0  0  0  0
 14 33  2  0  0  0  0
 15 39  1  0  0  0  0
 15 71  1  0  0  0  0
 16 39  2  0  0  0  0
 17 18  1  0  0  0  0
 17 24  1  0  0  0  0
 17 40  1  0  0  0  0
 18 22  1  0  0  0  0
 18 41  1  0  0  0  0
 19 20  1  0  0  0  0
 19 25  1  0  0  0  0
 19 26  1  0  0  0  0
 20 21  1  0  0  0  0
 20 42  1  0  0  0  0
 21 43  1  0  0  0  0
 22 23  1  0  0  0  0
 22 44  1  0  0  0  0
 23 27  1  0  0  0  0
 23 45  1  0  0  0  0
 24 46  1  0  0  0  0
 25 47  1  0  0  0  0
 25 48  1  0  0  0  0
 26 49  1  0  0  0  0
 26 50  1  0  0  0  0
 27 51  1  0  0  0  0
 27 52  1  0  0  0  0
 28 32  2  0  0  0  0
 28 33  1  0  0  0  0
 29 30  1  0  0  0  0
 30 31  1  0  0  0  0
 30 58  1  0  0  0  0
 30 59  1  0  0  0  0
 31 34  1  0  0  0  0
 31 35  1  0  0  0  0
 32 36  1  0  0  0  0
 33 37  1  0  0  0  0
 34 39  1  0  0  0  0
 34 60  1  0  0  0  0
 34 61  1  0  0  0  0
 35 62  1  0  0  0  0
 35 63  1  0  0  0  0
 35 64  1  0  0  0  0
 36 65  1  0  0  0  0
 36 66  1  0  0  0  0
 36 67  1  0  0  0  0
 37 38  2  0  0  0  0
 37 68  1  0  0  0  0
 38 70  1  0  0  0  0
M  END
> <PUBCHEM_COMPOUND_CID>
44715841

> <PUBCHEM_CONFORMER_RMSD>
1.2

> <PUBCHEM_CONFORMER_DIVERSEORDER>
2
63
32
70
80
81
46
41
7
67
13
64
55
40
44
25
60
51
24
26
36
65
69
4
75
53
42
68
35
78
22
66
57
23
33
58
31
50
37
12
72
21
43
17
74
52
39
19
62
77
71
18
49
28
34
47
48
54
9
15
79
11
10
59
6
3
45
29
27
56
14
16
30
61
8
38
20
73
76
5
1

> <PUBCHEM_MMFF94_PARTIAL_CHARGES>
47
1 -0.56
10 -0.68
11 -0.15
12 -0.68
13 -0.57
14 -0.57
15 -0.65
16 -0.57
17 0.28
18 0.28
19 0.28
2 -0.56
20 0.28
21 0.56
22 0.28
23 0.28
24 0.56
25 0.28
26 0.28
27 0.28
28 0.09
29 0.66
3 -0.56
30 0.06
31 0.28
32 -0.06
33 0.54
34 0.06
36 0.14
37 -0.14
38 -0.07
39 0.66
4 -0.68
5 -0.68
53 0.4
54 0.4
55 0.4
56 0.4
57 0.4
6 -0.68
68 0.15
69 0.4
7 -0.36
70 0.15
71 0.5
8 -0.68
9 -0.43

> <PUBCHEM_EFFECTIVE_ROTOR_COUNT>
14.2

> <PUBCHEM_PHARMACOPHORE_FEATURES>
25
1 1 acceptor
1 10 acceptor
1 10 donor
1 11 acceptor
1 12 acceptor
1 12 donor
1 13 acceptor
1 14 acceptor
1 15 acceptor
1 16 acceptor
1 2 acceptor
1 3 acceptor
1 4 acceptor
1 4 donor
1 5 acceptor
1 5 donor
1 6 acceptor
1 6 donor
1 7 acceptor
1 8 acceptor
1 8 donor
3 15 16 39 anion
5 2 19 20 21 25 rings
6 11 28 32 33 37 38 rings
6 3 17 18 22 23 24 rings

> <PUBCHEM_HEAVY_ATOM_COUNT>
39

> <PUBCHEM_ATOM_DEF_STEREO_COUNT>
8

> <PUBCHEM_ATOM_UDEF_STEREO_COUNT>
1

> <PUBCHEM_BOND_DEF_STEREO_COUNT>
0

> <PUBCHEM_BOND_UDEF_STEREO_COUNT>
0

> <PUBCHEM_ISOTOPIC_ATOM_COUNT>
0

> <PUBCHEM_COMPONENT_COUNT>
1

> <PUBCHEM_CACTVS_TAUTO_COUNT>
3

> <PUBCHEM_CONFORMER_ID>
02AA4F4100000002

> <PUBCHEM_MMFF94_ENERGY>
107.6947

> <PUBCHEM_FEATURE_SELFOVERLAP>
127.09

> <PUBCHEM_SHAPE_FINGERPRINT>
10190108 129 18335715918678318865
10693767 8 18342446088869248879
10816530 23 17268331135522804296
11828532 37 18188214332723788994
13402501 40 18413390956144779884
1361 2 18202006568412584894
14725015 67 18410849937675951896
14747281 78 18121207694300509885
14931854 50 18335147441190995558
15721738 202 17274830133647136666
17909252 39 18272091535352987094
19319366 153 17822002099547795587
20028762 73 17981314909641725999
22899556 105 18336268921218677650
23569914 152 17336723640915073565
27425 322 16516812666353739060
3298306 158 18187352255588352801
354706 35 18264788712803336492
484989 97 18334864956380440754
57359948 33 16371824294378639199
57527295 17 18050588257002704046
57527306 92 14996278154866476044
59755656 215 18187639228471212627
6669772 16 18266733778415546088
86090 222 18410011082485011498

> <PUBCHEM_SHAPE_MULTIPOLES>
708.69
14.31
4.72
2.19
14.9
2.51
-0.04
-5.53
6.74
-1.58
-0.18
-2.07
-1.57
1.26

> <PUBCHEM_SHAPE_SELFOVERLAP>
1482.951

> <PUBCHEM_SHAPE_VOLUME>
395.5

> <PUBCHEM_COORDINATE_TYPE>
2
5
10

$$$$
