6452639
  -OEChem-09062000233D

 34 37  0     1  0  0  0  0  0999 V2000
    2.0458   -1.1136    1.5341 O   0  0  0  0  0  0  0  0  0  0  0  0
   -3.8292    2.0711    0.7336 O   0  0  0  0  0  0  0  0  0  0  0  0
   -5.3713    0.3927   -0.0490 O   0  0  0  0  0  0  0  0  0  0  0  0
    0.4571    0.5516   -1.8686 O   0  0  0  0  0  0  0  0  0  0  0  0
   -1.8251   -2.7670   -0.8385 O   0  0  0  0  0  0  0  0  0  0  0  0
    6.3602    0.5369    0.4655 O   0  0  0  0  0  0  0  0  0  0  0  0
    0.1061   -0.8562    0.0717 C   0  0  2  0  0  0  0  0  0  0  0  0
   -1.3794   -0.5672    0.0211 C   0  0  0  0  0  0  0  0  0  0  0  0
    0.6683   -0.7264    1.4876 C   0  0  0  0  0  0  0  0  0  0  0  0
    0.9110    0.0424   -0.8503 C   0  0  0  0  0  0  0  0  0  0  0  0
    2.3349    0.2180   -0.4891 C   0  0  0  0  0  0  0  0  0  0  0  0
   -1.8421    0.6853    0.4343 C   0  0  0  0  0  0  0  0  0  0  0  0
    2.8257   -0.3871    0.6720 C   0  0  0  0  0  0  0  0  0  0  0  0
   -2.2804   -1.5462   -0.4354 C   0  0  0  0  0  0  0  0  0  0  0  0
   -3.2008    0.9182    0.3763 C   0  0  0  0  0  0  0  0  0  0  0  0
   -4.0812   -0.0402   -0.0705 C   0  0  0  0  0  0  0  0  0  0  0  0
   -3.6517   -1.2846   -0.4839 C   0  0  0  0  0  0  0  0  0  0  0  0
    3.1912    0.9461   -1.3197 C   0  0  0  0  0  0  0  0  0  0  0  0
    4.1829   -0.2920    0.9839 C   0  0  0  0  0  0  0  0  0  0  0  0
   -5.2041    1.7310    0.4621 C   0  0  0  0  0  0  0  0  0  0  0  0
    4.5431    1.0545   -0.9918 C   0  0  0  0  0  0  0  0  0  0  0  0
    5.0390    0.4329    0.1545 C   0  0  0  0  0  0  0  0  0  0  0  0
    0.3129   -1.8744   -0.2830 H   0  0  0  0  0  0  0  0  0  0  0  0
    0.5769    0.2893    1.8951 H   0  0  0  0  0  0  0  0  0  0  0  0
    0.1268   -1.3914    2.1706 H   0  0  0  0  0  0  0  0  0  0  0  0
   -1.1682    1.4602    0.7830 H   0  0  0  0  0  0  0  0  0  0  0  0
   -4.3599   -2.0280   -0.8336 H   0  0  0  0  0  0  0  0  0  0  0  0
    2.8290    1.4242   -2.2254 H   0  0  0  0  0  0  0  0  0  0  0  0
    4.5730   -0.7728    1.8776 H   0  0  0  0  0  0  0  0  0  0  0  0
   -5.7792    1.8265    1.3903 H   0  0  0  0  0  0  0  0  0  0  0  0
   -5.6023    2.4397   -0.2732 H   0  0  0  0  0  0  0  0  0  0  0  0
    5.2027    1.6211   -1.6439 H   0  0  0  0  0  0  0  0  0  0  0  0
   -2.5813   -3.3104   -1.1190 H   0  0  0  0  0  0  0  0  0  0  0  0
    6.8030    1.0730   -0.2146 H   0  0  0  0  0  0  0  0  0  0  0  0
  1  9  1  0  0  0  0
  1 13  1  0  0  0  0
  2 15  1  0  0  0  0
  2 20  1  0  0  0  0
  3 16  1  0  0  0  0
  3 20  1  0  0  0  0
  4 10  2  0  0  0  0
  5 14  1  0  0  0  0
  5 33  1  0  0  0  0
  6 22  1  0  0  0  0
  6 34  1  0  0  0  0
  7  8  1  0  0  0  0
  7  9  1  0  0  0  0
  7 10  1  0  0  0  0
  7 23  1  0  0  0  0
  8 12  2  0  0  0  0
  8 14  1  0  0  0  0
  9 24  1  0  0  0  0
  9 25  1  0  0  0  0
 10 11  1  0  0  0  0
 11 13  2  0  0  0  0
 11 18  1  0  0  0  0
 12 15  1  0  0  0  0
 12 26  1  0  0  0  0
 13 19  1  0  0  0  0
 14 17  2  0  0  0  0
 15 16  2  0  0  0  0
 16 17  1  0  0  0  0
 17 27  1  0  0  0  0
 18 21  2  0  0  0  0
 18 28  1  0  0  0  0
 19 22  2  0  0  0  0
 19 29  1  0  0  0  0
 20 30  1  0  0  0  0
 20 31  1  0  0  0  0
 21 22  1  0  0  0  0
 21 32  1  0  0  0  0
M  END
> <PUBCHEM_COMPOUND_CID>
6452639

> <PUBCHEM_CONFORMER_RMSD>
0.6

> <PUBCHEM_CONFORMER_DIVERSEORDER>
2
20
19
3
6
15
8
11
7
5
4
12
17
9
10
16
13
18
14
1

> <PUBCHEM_MMFF94_PARTIAL_CHARGES>
29
1 -0.36
10 0.42
11 0.09
12 -0.15
13 0.08
14 0.08
15 0.08
16 0.08
17 -0.15
18 -0.15
19 -0.15
2 -0.36
20 0.56
21 -0.15
22 0.08
26 0.15
27 0.15
28 0.15
29 0.15
3 -0.36
32 0.15
33 0.45
34 0.45
4 -0.57
5 -0.53
6 -0.53
7 0.2
8 -0.14
9 0.28

> <PUBCHEM_EFFECTIVE_ROTOR_COUNT>
2.2

> <PUBCHEM_PHARMACOPHORE_FEATURES>
10
1 1 acceptor
1 2 acceptor
1 3 acceptor
1 4 acceptor
1 5 donor
1 6 donor
5 2 3 15 16 20 rings
6 1 7 9 10 11 13 rings
6 11 13 18 19 21 22 rings
6 8 12 14 15 16 17 rings

> <PUBCHEM_HEAVY_ATOM_COUNT>
22

> <PUBCHEM_ATOM_DEF_STEREO_COUNT>
0

> <PUBCHEM_ATOM_UDEF_STEREO_COUNT>
1

> <PUBCHEM_BOND_DEF_STEREO_COUNT>
0

> <PUBCHEM_BOND_UDEF_STEREO_COUNT>
0

> <PUBCHEM_ISOTOPIC_ATOM_COUNT>
0

> <PUBCHEM_COMPONENT_COUNT>
1

> <PUBCHEM_CACTVS_TAUTO_COUNT>
37

> <PUBCHEM_CONFORMER_ID>
0062759F00000002

> <PUBCHEM_MMFF94_ENERGY>
63.2223

> <PUBCHEM_FEATURE_SELFOVERLAP>
50.932

> <PUBCHEM_SHAPE_FINGERPRINT>
10366900 7 16487256556120071107
10411042 1 17767115781160627327
10906281 52 17677063442640922164
11089746 13 18410287034228952172
11370993 70 18131637781053607398
11796584 16 17917997170583215174
12107183 9 17759235198332691480
12236239 1 18259982673841332291
12390115 104 17631182901046561369
12403259 415 16558460976348005595
12403814 3 17894628137286781101
12500047 106 18060135461656755646
12596602 18 17894917347309694465
12616971 3 17676485073206301534
12788726 201 18046630280951193603
12916748 109 18341903982544627929
12969540 114 15985098600503717628
13140716 1 16806176595864134288
13583140 156 17417808487230367014
13760787 5 16950563320277988526
13911987 19 15410617046909304496
13965767 371 17758131301871178169
14294032 229 18272367522332463773
14386348 63 16630528453010579867
14573314 32 17846785091784506854
14739800 52 18270945943395970952
15209294 21 18333450936781274308
15475509 8 18042423356790031718
15788980 27 18342181080939270366
17980427 23 18340770433275184373
1813 80 17023190370965735734
18222031 100 11887675048676650214
19489759 90 18060700606306374823
20511986 3 18187912997823264085
20645477 56 18273779345920595891
21033648 144 17386846299995246142
21033648 29 16415470545596216682
21267235 1 16733255752602997138
221357 26 14548736166910725977
23175994 123 15213019353841538351
23402539 116 18202559592469835741
23536379 177 18344146982339725306
23557571 272 17846782939726323040
23559900 14 17917723361732244110
23569914 2 17338662285936843704
23569943 247 17679293075844551154
26918003 58 15864074269060525609
345986 75 17678155141380951960
3472631 163 18413392046454946389
34797466 226 17703519907938827196
3633792 109 17969204682589239415
474 4 17749113321999837824
5104073 3 17024029449041541648
542803 24 18333733524259860216
6034566 193 15723925204510670292
633830 44 17967542302359122046
77492 1 18259699008536945043
7808743 9 18271810069209213833
9849439 229 17767414483282817489
9981440 41 18341338829458347403

> <PUBCHEM_SHAPE_MULTIPOLES>
417.53
12.01
1.69
1.26
3.36
0.37
0.07
-4.92
-1.21
-1.92
0.13
0.77
0.04
-1.56

> <PUBCHEM_SHAPE_SELFOVERLAP>
944.066

> <PUBCHEM_SHAPE_VOLUME>
217.2

> <PUBCHEM_COORDINATE_TYPE>
2
5
10

$$$$
