102500447
  -OEChem-09062000322D

121127  0     1  0  0  0  0  0999 V2000
    6.8671   -1.6941    0.0000 O   0  0  0  0  0  0  0  0  0  0  0  0
    8.6424    7.6604    0.0000 O   0  0  0  0  0  0  0  0  0  0  0  0
    5.1350   -1.6941    0.0000 O   0  0  0  0  0  0  0  0  0  0  0  0
    6.8671   -3.6941    0.0000 O   0  0  0  0  0  0  0  0  0  0  0  0
    5.1350   -4.6941    0.0000 O   0  0  0  0  0  0  0  0  0  0  0  0
    3.4030   -3.6941    0.0000 O   0  0  0  0  0  0  0  0  0  0  0  0
    6.0010   -5.1941    0.0000 O   0  0  0  0  0  0  0  0  0  0  0  0
    2.5369   -2.1941    0.0000 O   0  0  0  0  0  0  0  0  0  0  0  0
    3.4030   -0.6941    0.0000 O   0  0  0  0  0  0  0  0  0  0  0  0
    8.5991   -4.6941    0.0000 O   0  0  0  0  0  0  0  0  0  0  0  0
    8.5991   -6.6941    0.0000 O   0  0  0  0  0  0  0  0  0  0  0  0
    6.8671   -7.6941    0.0000 O   0  0  0  0  0  0  0  0  0  0  0  0
    5.1350   -7.6941    0.0000 O   0  0  0  0  0  0  0  0  0  0  0  0
    7.7681    3.0061    0.0000 C   0  0  2  0  0  0  0  0  0  0  0  0
    6.8920    1.4612    0.0000 C   0  0  2  0  0  0  0  0  0  0  0  0
    6.9040    2.5027    0.0000 C   0  0  1  0  0  0  0  0  0  0  0  0
    7.7643    4.0061    0.0000 C   0  0  1  0  0  0  0  0  0  0  0  0
    7.7920    0.9369    0.0000 C   0  0  2  0  0  0  0  0  0  0  0  0
    8.6801    2.5027    0.0000 C   0  0  0  0  0  0  0  0  0  0  0  0
    7.8046   -0.1480    0.0000 C   0  0  0  0  0  0  0  0  0  0  0  0
    8.6921    1.4612    0.0000 C   0  0  0  0  0  0  0  0  0  0  0  0
    6.8963    4.5027    0.0000 C   0  0  0  0  0  0  0  0  0  0  0  0
    5.9421    0.9369    0.0000 C   0  0  0  0  0  0  0  0  0  0  0  0
    6.0361    2.9994    0.0000 C   0  0  0  0  0  0  0  0  0  0  0  0
    6.8762    5.5442    0.0000 C   0  0  1  0  0  0  0  0  0  0  0  0
    8.6723    4.5164    0.0000 C   0  0  0  0  0  0  0  0  0  0  0  0
    7.7722    6.0754    0.0000 C   0  0  1  0  0  0  0  0  0  0  0  0
    6.8671   -0.6941    0.0000 C   0  0  2  0  0  0  0  0  0  0  0  0
    8.7522    3.1835    0.0000 C   0  0  0  0  0  0  0  0  0  0  0  0
    6.0279    1.9645    0.0000 C   0  0  0  0  0  0  0  0  0  0  0  0
    5.9295   -0.1480    0.0000 C   0  0  0  0  0  0  0  0  0  0  0  0
    8.6763    5.5580    0.0000 C   0  0  0  0  0  0  0  0  0  0  0  0
    6.0322    3.9994    0.0000 C   0  0  0  0  0  0  0  0  0  0  0  0
    8.7497    3.8362    0.0000 C   0  0  0  0  0  0  0  0  0  0  0  0
    5.9223    6.0611    0.0000 C   0  0  0  0  0  0  0  0  0  0  0  0
    8.8046   -0.1403    0.0000 C   0  0  0  0  0  0  0  0  0  0  0  0
    8.3113   -1.0102    0.0000 C   0  0  0  0  0  0  0  0  0  0  0  0
    5.9014    7.1459    0.0000 C   0  0  0  0  0  0  0  0  0  0  0  0
    7.7764    7.1604    0.0000 C   0  0  0  0  0  0  0  0  0  0  0  0
    8.6324    6.5854    0.0000 C   0  0  0  0  0  0  0  0  0  0  0  0
    6.8347    7.6992    0.0000 C   0  0  0  0  0  0  0  0  0  0  0  0
    5.3881    8.0041    0.0000 C   0  0  0  0  0  0  0  0  0  0  0  0
    4.9015    7.1305    0.0000 C   0  0  0  0  0  0  0  0  0  0  0  0
    6.0010   -2.1941    0.0000 C   0  0  2  0  0  0  0  0  0  0  0  0
    6.0010   -3.1941    0.0000 C   0  0  1  0  0  0  0  0  0  0  0  0
    5.1350   -3.6941    0.0000 C   0  0  2  0  0  0  0  0  0  0  0  0
    4.2690   -2.1941    0.0000 C   0  0  1  0  0  0  0  0  0  0  0  0
    4.2690   -3.1941    0.0000 C   0  0  1  0  0  0  0  0  0  0  0  0
    6.8671   -4.6941    0.0000 C   0  0  2  0  0  0  0  0  0  0  0  0
    3.4030   -1.6941    0.0000 C   0  0  0  0  0  0  0  0  0  0  0  0
    7.7331   -5.1941    0.0000 C   0  0  1  0  0  0  0  0  0  0  0  0
    7.7331   -6.1941    0.0000 C   0  0  2  0  0  0  0  0  0  0  0  0
    6.0010   -6.1941    0.0000 C   0  0  1  0  0  0  0  0  0  0  0  0
    6.8671   -6.6941    0.0000 C   0  0  2  0  0  0  0  0  0  0  0  0
    5.1350   -6.6941    0.0000 C   0  0  0  0  0  0  0  0  0  0  0  0
    7.6385    2.0749    0.0000 H   0  0  0  0  0  0  0  0  0  0  0  0
    8.5314    0.5176    0.0000 H   0  0  0  0  0  0  0  0  0  0  0  0
    9.2921    2.4037    0.0000 H   0  0  0  0  0  0  0  0  0  0  0  0
    8.8824    3.0888    0.0000 H   0  0  0  0  0  0  0  0  0  0  0  0
    8.9079    0.8800    0.0000 H   0  0  0  0  0  0  0  0  0  0  0  0
    9.3017    1.5743    0.0000 H   0  0  0  0  0  0  0  0  0  0  0  0
    5.7398    1.5230    0.0000 H   0  0  0  0  0  0  0  0  0  0  0  0
    5.3300    0.8379    0.0000 H   0  0  0  0  0  0  0  0  0  0  0  0
    5.4251    3.1047    0.0000 H   0  0  0  0  0  0  0  0  0  0  0  0
    5.8263    2.4160    0.0000 H   0  0  0  0  0  0  0  0  0  0  0  0
    6.1502    5.1023    0.0000 H   0  0  0  0  0  0  0  0  0  0  0  0
    8.8791    3.9319    0.0000 H   0  0  0  0  0  0  0  0  0  0  0  0
    9.2836    4.6202    0.0000 H   0  0  0  0  0  0  0  0  0  0  0  0
    7.4046   -1.0031    0.0000 H   0  0  0  0  0  0  0  0  0  0  0  0
    8.8623    2.5734    0.0000 H   0  0  0  0  0  0  0  0  0  0  0  0
    9.3624    3.2936    0.0000 H   0  0  0  0  0  0  0  0  0  0  0  0
    8.6422    3.7937    0.0000 H   0  0  0  0  0  0  0  0  0  0  0  0
    6.3400    2.5003    0.0000 H   0  0  0  0  0  0  0  0  0  0  0  0
    5.4922    2.2766    0.0000 H   0  0  0  0  0  0  0  0  0  0  0  0
    5.7158    1.4288    0.0000 H   0  0  0  0  0  0  0  0  0  0  0  0
    5.3199   -0.0349    0.0000 H   0  0  0  0  0  0  0  0  0  0  0  0
    5.7137   -0.7293    0.0000 H   0  0  0  0  0  0  0  0  0  0  0  0
    9.2868    5.4496    0.0000 H   0  0  0  0  0  0  0  0  0  0  0  0
    8.8876    6.1409    0.0000 H   0  0  0  0  0  0  0  0  0  0  0  0
    5.4941    4.3073    0.0000 H   0  0  0  0  0  0  0  0  0  0  0  0
    8.6444    3.2252    0.0000 H   0  0  0  0  0  0  0  0  0  0  0  0
    9.3607    3.7309    0.0000 H   0  0  0  0  0  0  0  0  0  0  0  0
    8.8550    4.4472    0.0000 H   0  0  0  0  0  0  0  0  0  0  0  0
    5.3095    6.1554    0.0000 H   0  0  0  0  0  0  0  0  0  0  0  0
    5.7246    5.4735    0.0000 H   0  0  0  0  0  0  0  0  0  0  0  0
    8.8094   -0.7603    0.0000 H   0  0  0  0  0  0  0  0  0  0  0  0
    9.4246   -0.1355    0.0000 H   0  0  0  0  0  0  0  0  0  0  0  0
    8.7998    0.4797    0.0000 H   0  0  0  0  0  0  0  0  0  0  0  0
    7.7767   -1.3243    0.0000 H   0  0  0  0  0  0  0  0  0  0  0  0
    8.6254   -1.5447    0.0000 H   0  0  0  0  0  0  0  0  0  0  0  0
    8.8458   -0.6960    0.0000 H   0  0  0  0  0  0  0  0  0  0  0  0
    8.9486    6.0521    0.0000 H   0  0  0  0  0  0  0  0  0  0  0  0
    9.1657    6.9016    0.0000 H   0  0  0  0  0  0  0  0  0  0  0  0
    8.3162    7.1187    0.0000 H   0  0  0  0  0  0  0  0  0  0  0  0
    7.2302    8.1767    0.0000 H   0  0  0  0  0  0  0  0  0  0  0  0
    6.4319    8.1706    0.0000 H   0  0  0  0  0  0  0  0  0  0  0  0
    5.9202    8.3224    0.0000 H   0  0  0  0  0  0  0  0  0  0  0  0
    5.0699    8.5362    0.0000 H   0  0  0  0  0  0  0  0  0  0  0  0
    4.8560    7.6859    0.0000 H   0  0  0  0  0  0  0  0  0  0  0  0
    4.8920    7.7504    0.0000 H   0  0  0  0  0  0  0  0  0  0  0  0
    4.2816    7.1209    0.0000 H   0  0  0  0  0  0  0  0  0  0  0  0
    4.9111    6.5106    0.0000 H   0  0  0  0  0  0  0  0  0  0  0  0
    6.0010   -1.5741    0.0000 H   0  0  0  0  0  0  0  0  0  0  0  0
    6.0010   -3.8141    0.0000 H   0  0  0  0  0  0  0  0  0  0  0  0
    4.5981   -4.0041    0.0000 H   0  0  0  0  0  0  0  0  0  0  0  0
    4.2690   -1.5741    0.0000 H   0  0  0  0  0  0  0  0  0  0  0  0
    3.7320   -2.8841    0.0000 H   0  0  0  0  0  0  0  0  0  0  0  0
    7.4040   -4.3841    0.0000 H   0  0  0  0  0  0  0  0  0  0  0  0
    4.5981   -5.0041    0.0000 H   0  0  0  0  0  0  0  0  0  0  0  0
    3.4030   -4.3141    0.0000 H   0  0  0  0  0  0  0  0  0  0  0  0
    8.2700   -5.5041    0.0000 H   0  0  0  0  0  0  0  0  0  0  0  0
    7.7331   -6.8141    0.0000 H   0  0  0  0  0  0  0  0  0  0  0  0
    5.4641   -5.8841    0.0000 H   0  0  0  0  0  0  0  0  0  0  0  0
    7.4040   -7.0041    0.0000 H   0  0  0  0  0  0  0  0  0  0  0  0
    2.0000   -1.8841    0.0000 H   0  0  0  0  0  0  0  0  0  0  0  0
    9.1360   -5.0041    0.0000 H   0  0  0  0  0  0  0  0  0  0  0  0
    4.9230   -6.1115    0.0000 H   0  0  0  0  0  0  0  0  0  0  0  0
    4.5244   -6.8018    0.0000 H   0  0  0  0  0  0  0  0  0  0  0  0
    9.1360   -6.3841    0.0000 H   0  0  0  0  0  0  0  0  0  0  0  0
    7.4040   -8.0041    0.0000 H   0  0  0  0  0  0  0  0  0  0  0  0
    5.6720   -8.0041    0.0000 H   0  0  0  0  0  0  0  0  0  0  0  0
 28  1  1  1  0  0  0
 44  1  1  1  0  0  0
  2 39  2  0  0  0  0
  3 44  1  0  0  0  0
  3 47  1  0  0  0  0
 45  4  1  6  0  0  0
 49  4  1  1  0  0  0
 46  5  1  1  0  0  0
  5109  1  0  0  0  0
 48  6  1  6  0  0  0
  6110  1  0  0  0  0
  7 49  1  0  0  0  0
  7 53  1  0  0  0  0
  8 50  1  0  0  0  0
  8115  1  0  0  0  0
  9 50  2  0  0  0  0
 51 10  1  6  0  0  0
 10116  1  0  0  0  0
 52 11  1  1  0  0  0
 11119  1  0  0  0  0
 54 12  1  1  0  0  0
 12120  1  0  0  0  0
 13 55  1  0  0  0  0
 13121  1  0  0  0  0
 14 16  1  0  0  0  0
 14 17  1  0  0  0  0
 14 19  1  0  0  0  0
 14 29  1  1  0  0  0
 15 16  1  0  0  0  0
 15 18  1  0  0  0  0
 15 23  1  0  0  0  0
 15 30  1  1  0  0  0
 16 24  1  0  0  0  0
 16 56  1  6  0  0  0
 17 22  1  0  0  0  0
 17 26  1  0  0  0  0
 17 34  1  6  0  0  0
 18 20  1  0  0  0  0
 18 21  1  0  0  0  0
 18 57  1  6  0  0  0
 19 21  1  0  0  0  0
 19 58  1  0  0  0  0
 19 59  1  0  0  0  0
 20 28  1  0  0  0  0
 20 36  1  0  0  0  0
 20 37  1  0  0  0  0
 21 60  1  0  0  0  0
 21 61  1  0  0  0  0
 22 25  1  0  0  0  0
 22 33  2  0  0  0  0
 23 31  1  0  0  0  0
 23 62  1  0  0  0  0
 23 63  1  0  0  0  0
 24 33  1  0  0  0  0
 24 64  1  0  0  0  0
 24 65  1  0  0  0  0
 25 27  1  0  0  0  0
 25 35  1  0  0  0  0
 25 66  1  1  0  0  0
 26 32  1  0  0  0  0
 26 67  1  0  0  0  0
 26 68  1  0  0  0  0
 27 32  1  0  0  0  0
 27 39  1  0  0  0  0
 27 40  1  1  0  0  0
 28 31  1  0  0  0  0
 28 69  1  0  0  0  0
 29 70  1  0  0  0  0
 29 71  1  0  0  0  0
 29 72  1  0  0  0  0
 30 73  1  0  0  0  0
 30 74  1  0  0  0  0
 30 75  1  0  0  0  0
 31 76  1  0  0  0  0
 31 77  1  0  0  0  0
 32 78  1  0  0  0  0
 32 79  1  0  0  0  0
 33 80  1  0  0  0  0
 34 81  1  0  0  0  0
 34 82  1  0  0  0  0
 34 83  1  0  0  0  0
 35 38  1  0  0  0  0
 35 84  1  0  0  0  0
 35 85  1  0  0  0  0
 36 86  1  0  0  0  0
 36 87  1  0  0  0  0
 36 88  1  0  0  0  0
 37 89  1  0  0  0  0
 37 90  1  0  0  0  0
 37 91  1  0  0  0  0
 38 41  1  0  0  0  0
 38 42  1  0  0  0  0
 38 43  1  0  0  0  0
 39 41  1  0  0  0  0
 40 92  1  0  0  0  0
 40 93  1  0  0  0  0
 40 94  1  0  0  0  0
 41 95  1  0  0  0  0
 41 96  1  0  0  0  0
 42 97  1  0  0  0  0
 42 98  1  0  0  0  0
 42 99  1  0  0  0  0
 43100  1  0  0  0  0
 43101  1  0  0  0  0
 43102  1  0  0  0  0
 44 45  1  0  0  0  0
 44103  1  0  0  0  0
 45 46  1  0  0  0  0
 45104  1  0  0  0  0
 46 48  1  0  0  0  0
 46105  1  0  0  0  0
 47 48  1  0  0  0  0
 47 50  1  1  0  0  0
 47106  1  0  0  0  0
 48107  1  0  0  0  0
 49 51  1  0  0  0  0
 49108  1  0  0  0  0
 51 52  1  0  0  0  0
 51111  1  0  0  0  0
 52 54  1  0  0  0  0
 52112  1  0  0  0  0
 53 54  1  0  0  0  0
 53 55  1  1  0  0  0
 53113  1  0  0  0  0
 54114  1  0  0  0  0
 55117  1  0  0  0  0
 55118  1  0  0  0  0
M  END
> <PUBCHEM_COMPOUND_CID>
102500447

> <PUBCHEM_COMPOUND_CANONICALIZED>
1

> <PUBCHEM_CACTVS_COMPLEXITY>
1550

> <PUBCHEM_CACTVS_HBOND_ACCEPTOR>
13

> <PUBCHEM_CACTVS_HBOND_DONOR>
7

> <PUBCHEM_CACTVS_ROTATABLE_BOND>
6

> <PUBCHEM_CACTVS_SUBSKEYS>
AAADcfB8PAAAAAAAAAAAAAAAAAAAAAAAAAA0aMGCAAAAAADAAAAAGgAACAAADxSwgAMCCAAABgCIAqDSCAIAAAAgAAAACAFAAAgREBYAAQQiQAAFoAAPAAPK7PzPgAAAAAAAAADAAAYAADAAAAAAAAAAAA==

> <PUBCHEM_IUPAC_OPENEYE_NAME>
(2S,3S,4S,5R,6R)-6-[[(3S,4aR,6aR,6bS,8aR,12aS,14aR,14bR)-4,4,6a,6b,8a,11,11,14b-octamethyl-9-oxo-2,3,4a,5,6,7,8,10,12,12a,14,14a-dodecahydro-1H-picen-3-yl]oxy]-3,4-dihydroxy-5-[(2S,3R,4S,5R,6R)-3,4,5-trihydroxy-6-(hydroxymethyl)tetrahydropyran-2-yl]oxy-tetrahydropyran-2-carboxylic acid

> <PUBCHEM_IUPAC_CAS_NAME>
(2S,3S,4S,5R,6R)-6-[[(3S,4aR,6aR,6bS,8aR,12aS,14aR,14bR)-4,4,6a,6b,8a,11,11,14b-octamethyl-9-oxo-2,3,4a,5,6,7,8,10,12,12a,14,14a-dodecahydro-1H-picen-3-yl]oxy]-3,4-dihydroxy-5-[[(2S,3R,4S,5R,6R)-3,4,5-trihydroxy-6-(hydroxymethyl)-2-oxanyl]oxy]-2-oxanecarboxylic acid

> <PUBCHEM_IUPAC_NAME_MARKUP>
(2<I>S</I>,3<I>S</I>,4<I>S</I>,5<I>R</I>,6<I>R</I>)-6-[[(3<I>S</I>,4<I>a</I><I>R</I>,6<I>a</I><I>R</I>,6<I>b</I><I>S</I>,8<I>a</I><I>R</I>,12<I>a</I><I>S</I>,14<I>a</I><I>R</I>,14<I>b</I><I>R</I>)-4,4,6<I>a</I>,6<I>b</I>,8<I>a</I>,11,11,14<I>b</I>-octamethyl-9-oxo-2,3,4<I>a</I>,5,6,7,8,10,12,12<I>a</I>,14,14<I>a</I>-dodecahydro-1<I>H</I>-picen-3-yl]oxy]-3,4-dihydroxy-5-[(2<I>S</I>,3<I>R</I>,4<I>S</I>,5<I>R</I>,6<I>R</I>)-3,4,5-trihydroxy-6-(hydroxymethyl)oxan-2-yl]oxyoxane-2-carboxylic acid

> <PUBCHEM_IUPAC_NAME>
(2S,3S,4S,5R,6R)-6-[[(3S,4aR,6aR,6bS,8aR,12aS,14aR,14bR)-4,4,6a,6b,8a,11,11,14b-octamethyl-9-oxo-2,3,4a,5,6,7,8,10,12,12a,14,14a-dodecahydro-1H-picen-3-yl]oxy]-3,4-dihydroxy-5-[(2S,3R,4S,5R,6R)-3,4,5-trihydroxy-6-(hydroxymethyl)oxan-2-yl]oxyoxane-2-carboxylic acid

> <PUBCHEM_IUPAC_SYSTEMATIC_NAME>
(2S,3S,4S,5R,6R)-6-[[(3S,4aR,6aR,6bS,8aR,12aS,14aR,14bR)-4,4,6a,6b,8a,11,11,14b-octamethyl-9-oxidanylidene-2,3,4a,5,6,7,8,10,12,12a,14,14a-dodecahydro-1H-picen-3-yl]oxy]-5-[(2S,3R,4S,5R,6R)-6-(hydroxymethyl)-3,4,5-tris(oxidanyl)oxan-2-yl]oxy-3,4-bis(oxidanyl)oxane-2-carboxylic acid

> <PUBCHEM_IUPAC_TRADITIONAL_NAME>
(2S,3S,4S,5R,6R)-6-[[(3S,4aR,6aR,6bS,8aR,12aS,14aR,14bR)-9-keto-4,4,6a,6b,8a,11,11,14b-octamethyl-2,3,4a,5,6,7,8,10,12,12a,14,14a-dodecahydro-1H-picen-3-yl]oxy]-3,4-dihydroxy-5-[(2S,3R,4S,5R,6R)-3,4,5-trihydroxy-6-methylol-tetrahydropyran-2-yl]oxy-tetrahydropyran-2-carboxylic acid

> <PUBCHEM_IUPAC_INCHI>
InChI=1S/C42H66O13/c1-37(2)17-21-20-9-10-24-40(6)13-12-26(38(3,4)23(40)11-14-42(24,8)41(20,7)16-15-39(21,5)25(44)18-37)53-36-33(30(48)29(47)32(54-36)34(50)51)55-35-31(49)28(46)27(45)22(19-43)52-35/h9,21-24,26-33,35-36,43,45-49H,10-19H2,1-8H3,(H,50,51)/t21-,22+,23-,24+,26-,27-,28-,29-,30-,31+,32-,33+,35-,36+,39+,40-,41+,42+/m0/s1

> <PUBCHEM_IUPAC_INCHIKEY>
KEZYYTJSDKZBRV-LBTNAZGOSA-N

> <PUBCHEM_XLOGP3_AA>
4.4

> <PUBCHEM_EXACT_MASS>
778.450342

> <PUBCHEM_MOLECULAR_FORMULA>
C42H66O13

> <PUBCHEM_MOLECULAR_WEIGHT>
779

> <PUBCHEM_OPENEYE_CAN_SMILES>
CC1(CC2C3=CCC4C5(CCC(C(C5CCC4(C3(CCC2(C(=O)C1)C)C)C)(C)C)OC6C(C(C(C(O6)C(=O)O)O)O)OC7C(C(C(C(O7)CO)O)O)O)C)C

> <PUBCHEM_OPENEYE_ISO_SMILES>
C[C@]12CC[C@@H](C([C@@H]1CC[C@@]3([C@@H]2CC=C4[C@]3(CC[C@@]5([C@H]4CC(CC5=O)(C)C)C)C)C)(C)C)O[C@H]6[C@@H]([C@H]([C@@H]([C@H](O6)C(=O)O)O)O)O[C@H]7[C@@H]([C@H]([C@H]([C@H](O7)CO)O)O)O

> <PUBCHEM_CACTVS_TPSA>
213

> <PUBCHEM_MONOISOTOPIC_WEIGHT>
778.450342

> <PUBCHEM_TOTAL_CHARGE>
0

> <PUBCHEM_HEAVY_ATOM_COUNT>
55

> <PUBCHEM_ATOM_DEF_STEREO_COUNT>
18

> <PUBCHEM_ATOM_UDEF_STEREO_COUNT>
0

> <PUBCHEM_BOND_DEF_STEREO_COUNT>
0

> <PUBCHEM_BOND_UDEF_STEREO_COUNT>
0

> <PUBCHEM_ISOTOPIC_ATOM_COUNT>
0

> <PUBCHEM_COMPONENT_COUNT>
1

> <PUBCHEM_CACTVS_TAUTO_COUNT>
-1

> <PUBCHEM_COORDINATE_TYPE>
1
5
255

> <PUBCHEM_BONDANNOTATIONS>
28  1  5
44  1  5
51  10  6
52  11  5
54  12  5
14  29  5
15  30  5
16  56  6
17  34  6
18  57  6
25  66  5
27  40  5
45  4  6
49  4  5
47  50  5
46  5  5
53  55  5
48  6  6

$$$$
