442106
  -OEChem-08312014203D

 36 37  0     1  0  0  0  0  0999 V2000
   -1.6653    2.1201   -0.5198 O   0  5  0  0  0  0  0  0  0  0  0  0
   -1.1906    1.7554    1.6868 O   0  0  0  0  0  0  0  0  0  0  0  0
   -3.1899   -0.3929   -0.0803 N   0  3  0  0  0  0  0  0  0  0  0  0
    2.2292   -2.1184    0.5234 N   0  0  0  0  0  0  0  0  0  0  0  0
   -1.7483   -0.0920    0.3040 C   0  0  1  0  0  0  0  0  0  0  0  0
   -0.8469   -0.6618   -0.7988 C   0  0  0  0  0  0  0  0  0  0  0  0
   -3.5308    0.3290   -1.3760 C   0  0  0  0  0  0  0  0  0  0  0  0
   -3.3601   -1.8926   -0.2752 C   0  0  0  0  0  0  0  0  0  0  0  0
   -4.1201    0.0838    1.0258 C   0  0  0  0  0  0  0  0  0  0  0  0
    0.5339   -1.0021   -0.3106 C   0  0  0  0  0  0  0  0  0  0  0  0
   -1.5131    1.4109    0.5152 C   0  0  0  0  0  0  0  0  0  0  0  0
    1.6396   -0.1314   -0.3018 C   0  0  0  0  0  0  0  0  0  0  0  0
    0.9035   -2.2103    0.1942 C   0  0  0  0  0  0  0  0  0  0  0  0
    2.7050   -0.8601    0.2313 C   0  0  0  0  0  0  0  0  0  0  0  0
    1.8590    1.2054   -0.6897 C   0  0  0  0  0  0  0  0  0  0  0  0
    3.9840   -0.3165    0.3967 C   0  0  0  0  0  0  0  0  0  0  0  0
    3.1331    1.7623   -0.5302 C   0  0  0  0  0  0  0  0  0  0  0  0
    4.1778    1.0112    0.0049 C   0  0  0  0  0  0  0  0  0  0  0  0
   -1.5699   -0.6185    1.2520 H   0  0  0  0  0  0  0  0  0  0  0  0
   -1.2090   -1.5745   -1.2741 H   0  0  0  0  0  0  0  0  0  0  0  0
   -0.7251    0.0537   -1.6225 H   0  0  0  0  0  0  0  0  0  0  0  0
   -2.7782    0.1579   -2.1463 H   0  0  0  0  0  0  0  0  0  0  0  0
   -4.4792   -0.0912   -1.7323 H   0  0  0  0  0  0  0  0  0  0  0  0
   -3.7121    1.3892   -1.1874 H   0  0  0  0  0  0  0  0  0  0  0  0
   -4.4251   -2.1276   -0.1715 H   0  0  0  0  0  0  0  0  0  0  0  0
   -3.0609   -2.1872   -1.2842 H   0  0  0  0  0  0  0  0  0  0  0  0
   -2.7977   -2.4259    0.4969 H   0  0  0  0  0  0  0  0  0  0  0  0
   -3.8518   -0.4348    1.9511 H   0  0  0  0  0  0  0  0  0  0  0  0
   -4.0232    1.1661    1.1466 H   0  0  0  0  0  0  0  0  0  0  0  0
   -5.1481   -0.1596    0.7397 H   0  0  0  0  0  0  0  0  0  0  0  0
    0.3584   -3.1298    0.3552 H   0  0  0  0  0  0  0  0  0  0  0  0
    2.7797   -2.8658    0.9233 H   0  0  0  0  0  0  0  0  0  0  0  0
    1.0618    1.8061   -1.1163 H   0  0  0  0  0  0  0  0  0  0  0  0
    4.7979   -0.9005    0.8130 H   0  0  0  0  0  0  0  0  0  0  0  0
    3.3086    2.7922   -0.8293 H   0  0  0  0  0  0  0  0  0  0  0  0
    5.1595    1.4636    0.1195 H   0  0  0  0  0  0  0  0  0  0  0  0
  1 11  1  0  0  0  0
  2 11  2  0  0  0  0
  3  5  1  0  0  0  0
  3  7  1  0  0  0  0
  3  8  1  0  0  0  0
  3  9  1  0  0  0  0
  4 13  1  0  0  0  0
  4 14  1  0  0  0  0
  4 32  1  0  0  0  0
  5  6  1  0  0  0  0
  5 11  1  0  0  0  0
  5 19  1  0  0  0  0
  6 10  1  0  0  0  0
  6 20  1  0  0  0  0
  6 21  1  0  0  0  0
  7 22  1  0  0  0  0
  7 23  1  0  0  0  0
  7 24  1  0  0  0  0
  8 25  1  0  0  0  0
  8 26  1  0  0  0  0
  8 27  1  0  0  0  0
  9 28  1  0  0  0  0
  9 29  1  0  0  0  0
  9 30  1  0  0  0  0
 10 12  1  0  0  0  0
 10 13  2  0  0  0  0
 12 14  1  0  0  0  0
 12 15  2  0  0  0  0
 13 31  1  0  0  0  0
 14 16  2  0  0  0  0
 15 17  1  0  0  0  0
 15 33  1  0  0  0  0
 16 18  1  0  0  0  0
 16 34  1  0  0  0  0
 17 18  2  0  0  0  0
 17 35  1  0  0  0  0
 18 36  1  0  0  0  0
M  CHG  2   1  -1   3   1
M  END
> <PUBCHEM_COMPOUND_CID>
442106

> <PUBCHEM_CONFORMER_RMSD>
0.6

> <PUBCHEM_CONFORMER_DIVERSEORDER>
3
5
8
7
6
9
4
2
1

> <PUBCHEM_MMFF94_PARTIAL_CHARGES>
23
1 -0.9
10 -0.18
11 0.91
13 -0.3
14 -0.15
15 -0.15
16 -0.15
17 -0.15
18 -0.15
2 -0.9
3 -1.01
31 0.15
32 0.27
33 0.15
34 0.15
35 0.15
36 0.15
4 0.03
5 0.4
6 0.18
7 0.5
8 0.5
9 0.5

> <PUBCHEM_EFFECTIVE_ROTOR_COUNT>
4

> <PUBCHEM_PHARMACOPHORE_FEATURES>
8
1 1 acceptor
1 2 acceptor
1 3 cation
1 4 cation
1 4 donor
3 1 2 11 anion
5 4 10 12 13 14 rings
6 12 14 15 16 17 18 rings

> <PUBCHEM_HEAVY_ATOM_COUNT>
18

> <PUBCHEM_ATOM_DEF_STEREO_COUNT>
1

> <PUBCHEM_ATOM_UDEF_STEREO_COUNT>
0

> <PUBCHEM_BOND_DEF_STEREO_COUNT>
0

> <PUBCHEM_BOND_UDEF_STEREO_COUNT>
0

> <PUBCHEM_ISOTOPIC_ATOM_COUNT>
0

> <PUBCHEM_COMPONENT_COUNT>
1

> <PUBCHEM_CACTVS_TAUTO_COUNT>
1

> <PUBCHEM_CONFORMER_ID>
0006BEFA00000003

> <PUBCHEM_MMFF94_ENERGY>
56.1059

> <PUBCHEM_FEATURE_SELFOVERLAP>
40.741

> <PUBCHEM_SHAPE_FINGERPRINT>
11132069 177 18272373087480743083
12403814 3 18333452045589698917
12507557 5 18187074045129587264
13009979 54 17913208668294291690
13140716 1 18194686101229939760
13224815 77 18342176682644774447
13583140 156 16226871384840276750
14223421 5 18338239266975853662
14787075 74 18193839481714411763
15196674 1 18409729598965715230
15375462 189 18342461478021647275
15420108 30 15176699890674327081
15442244 35 18194117404937635562
15775835 57 18272656761459590880
15852999 172 14779263098736142136
16945 1 18408888403809032231
17492 89 18336543828837003851
17802600 8 18412256246970018760
18186145 218 18410859867012767982
19050596 39 18410857667778483251
192875 21 18335971013432666200
200 152 18341321249887504023
20449540 30 18411418397597887213
20525323 117 18059574625217159585
20559304 39 18411420583799278042
20715895 44 18047740517396715717
21524375 3 18340771533034406422
22854114 111 18408323306661833828
23402539 116 18059572533510051516
23557571 272 17274822424122532282
23559900 14 18338506427016795626
26918003 58 17894915139669993995
2838139 119 15983960718498145016
353137 74 18413108372385933993
474 4 18261396693192299156
5104073 3 18408884057281017418
537710 114 18342177812395337577
6333272 397 18334859458853521378
7364860 26 18270404884658670070
7832392 63 17979641139000233528
9709674 26 18334580126702085723

> <PUBCHEM_SHAPE_MULTIPOLES>
348.73
7.62
2.21
1.05
0.22
0.22
0.09
-0.61
0.18
-0.35
0.15
0.72
-0.31
-0.62

> <PUBCHEM_SHAPE_SELFOVERLAP>
739.636

> <PUBCHEM_SHAPE_VOLUME>
198

> <PUBCHEM_COORDINATE_TYPE>
2
5
10

$$$$
