102260292
  -OEChem-09222005423D

 52 57  0     1  0  0  0  0  0999 V2000
    1.0760    3.3489   -0.0317 O   0  0  0  0  0  0  0  0  0  0  0  0
   -2.5160   -2.9187   -0.6429 O   0  0  0  0  0  0  0  0  0  0  0  0
   -1.7978    0.4449    1.7931 N   0  0  1  0  0  0  0  0  0  0  0  0
   -2.9270   -0.7608    0.1276 N   0  0  0  0  0  0  0  0  0  0  0  0
    2.8297    0.6659   -0.9686 N   0  0  0  0  0  0  0  0  0  0  0  0
   -0.6202    0.0843   -0.3891 C   0  0  2  0  0  0  0  0  0  0  0  0
    0.7946    0.2650    0.2775 C   0  0  2  0  0  0  0  0  0  0  0  0
   -1.1104    1.5383   -0.7652 C   0  0  1  0  0  0  0  0  0  0  0  0
   -1.1471    2.4032    0.5340 C   0  0  1  0  0  0  0  0  0  0  0  0
   -0.7945    1.5242    1.7690 C   0  0  2  0  0  0  0  0  0  0  0  0
    0.6275    0.9419    1.6551 C   0  0  0  0  0  0  0  0  0  0  0  0
   -1.6156   -0.4936    0.6750 C   0  0  1  0  0  0  0  0  0  0  0  0
   -0.1956    2.2035   -1.8086 C   0  0  0  0  0  0  0  0  0  0  0  0
    1.6680    1.1572   -0.6450 C   0  0  0  0  0  0  0  0  0  0  0  0
    1.1487    2.4753   -1.1507 C   0  0  2  0  0  0  0  0  0  0  0  0
   -0.2415    3.6422    0.4291 C   0  0  0  0  0  0  0  0  0  0  0  0
    1.7328   -0.9103    0.3641 C   0  0  0  0  0  0  0  0  0  0  0  0
   -0.5893   -0.8111   -1.6067 C   0  0  0  0  0  0  0  0  0  0  0  0
    2.8902   -0.6002   -0.3637 C   0  0  0  0  0  0  0  0  0  0  0  0
   -1.9076   -0.2296    3.0813 C   0  0  0  0  0  0  0  0  0  0  0  0
    1.6160   -2.1174    1.0326 C   0  0  0  0  0  0  0  0  0  0  0  0
   -1.4096   -0.6783   -2.6545 C   0  0  0  0  0  0  0  0  0  0  0  0
    3.9439   -1.4960   -0.4491 C   0  0  0  0  0  0  0  0  0  0  0  0
   -3.2617   -1.9555   -0.4856 C   0  0  0  0  0  0  0  0  0  0  0  0
    2.6739   -3.0260    0.9508 C   0  0  0  0  0  0  0  0  0  0  0  0
    3.8285   -2.7186    0.2146 C   0  0  0  0  0  0  0  0  0  0  0  0
   -4.6958   -1.9786   -0.9422 C   0  0  0  0  0  0  0  0  0  0  0  0
   -2.1312    1.5156   -1.1661 H   0  0  0  0  0  0  0  0  0  0  0  0
   -2.1732    2.7738    0.6727 H   0  0  0  0  0  0  0  0  0  0  0  0
   -0.8773    2.1367    2.6752 H   0  0  0  0  0  0  0  0  0  0  0  0
    1.3753    1.7273    1.8167 H   0  0  0  0  0  0  0  0  0  0  0  0
    0.7943    0.2305    2.4733 H   0  0  0  0  0  0  0  0  0  0  0  0
   -1.2172   -1.4496    1.0340 H   0  0  0  0  0  0  0  0  0  0  0  0
   -0.6499    3.1426   -2.1474 H   0  0  0  0  0  0  0  0  0  0  0  0
   -0.0612    1.5907   -2.7042 H   0  0  0  0  0  0  0  0  0  0  0  0
    1.8597    2.8969   -1.8679 H   0  0  0  0  0  0  0  0  0  0  0  0
   -0.6843    4.3836   -0.2469 H   0  0  0  0  0  0  0  0  0  0  0  0
   -0.1505    4.1337    1.4039 H   0  0  0  0  0  0  0  0  0  0  0  0
    0.0919   -1.6571   -1.6182 H   0  0  0  0  0  0  0  0  0  0  0  0
   -3.6230   -0.0248    0.1982 H   0  0  0  0  0  0  0  0  0  0  0  0
   -2.7511   -0.9290    3.0753 H   0  0  0  0  0  0  0  0  0  0  0  0
   -2.1087    0.4935    3.8792 H   0  0  0  0  0  0  0  0  0  0  0  0
   -1.0058   -0.7912    3.3454 H   0  0  0  0  0  0  0  0  0  0  0  0
    0.7374   -2.3624    1.6172 H   0  0  0  0  0  0  0  0  0  0  0  0
   -1.3416   -1.3852   -3.4759 H   0  0  0  0  0  0  0  0  0  0  0  0
   -2.1664    0.0894   -2.7446 H   0  0  0  0  0  0  0  0  0  0  0  0
    4.8380   -1.2597   -1.0162 H   0  0  0  0  0  0  0  0  0  0  0  0
    2.6051   -3.9803    1.4662 H   0  0  0  0  0  0  0  0  0  0  0  0
    4.6405   -3.4388    0.1641 H   0  0  0  0  0  0  0  0  0  0  0  0
   -4.9308   -1.0674   -1.5000 H   0  0  0  0  0  0  0  0  0  0  0  0
   -4.8604   -2.8401   -1.5951 H   0  0  0  0  0  0  0  0  0  0  0  0
   -5.3542   -2.0541   -0.0726 H   0  0  0  0  0  0  0  0  0  0  0  0
  1 15  1  0  0  0  0
  1 16  1  0  0  0  0
  2 24  2  0  0  0  0
  3 10  1  0  0  0  0
  3 12  1  0  0  0  0
  3 20  1  0  0  0  0
  4 12  1  0  0  0  0
  4 24  1  0  0  0  0
  4 40  1  0  0  0  0
  5 14  2  0  0  0  0
  5 19  1  0  0  0  0
  6  7  1  0  0  0  0
  6  8  1  0  0  0  0
  6 12  1  0  0  0  0
  6 18  1  0  0  0  0
  7 11  1  0  0  0  0
  7 14  1  0  0  0  0
  7 17  1  0  0  0  0
  8  9  1  0  0  0  0
  8 13  1  0  0  0  0
  8 28  1  0  0  0  0
  9 10  1  0  0  0  0
  9 16  1  0  0  0  0
  9 29  1  0  0  0  0
 10 11  1  0  0  0  0
 10 30  1  0  0  0  0
 11 31  1  0  0  0  0
 11 32  1  0  0  0  0
 12 33  1  0  0  0  0
 13 15  1  0  0  0  0
 13 34  1  0  0  0  0
 13 35  1  0  0  0  0
 14 15  1  0  0  0  0
 15 36  1  0  0  0  0
 16 37  1  0  0  0  0
 16 38  1  0  0  0  0
 17 19  1  0  0  0  0
 17 21  2  0  0  0  0
 18 22  2  0  0  0  0
 18 39  1  0  0  0  0
 19 23  2  0  0  0  0
 20 41  1  0  0  0  0
 20 42  1  0  0  0  0
 20 43  1  0  0  0  0
 21 25  1  0  0  0  0
 21 44  1  0  0  0  0
 22 45  1  0  0  0  0
 22 46  1  0  0  0  0
 23 26  1  0  0  0  0
 23 47  1  0  0  0  0
 24 27  1  0  0  0  0
 25 26  2  0  0  0  0
 25 48  1  0  0  0  0
 26 49  1  0  0  0  0
 27 50  1  0  0  0  0
 27 51  1  0  0  0  0
 27 52  1  0  0  0  0
M  END
> <PUBCHEM_COMPOUND_CID>
102260292

> <PUBCHEM_CONFORMER_RMSD>
0.8

> <PUBCHEM_CONFORMER_DIVERSEORDER>
1

> <PUBCHEM_MMFF94_PARTIAL_CHARGES>
31
1 -0.56
10 0.27
12 0.57
14 0.33
15 0.34
16 0.28
17 -0.14
18 -0.29
19 0.18
2 -0.57
20 0.27
21 -0.15
22 -0.3
23 -0.15
24 0.57
25 -0.15
26 -0.15
27 0.06
3 -0.81
39 0.15
4 -0.73
40 0.37
44 0.15
45 0.15
46 0.15
47 0.15
48 0.15
49 0.15
5 -0.63
6 0.14
7 0.2

> <PUBCHEM_EFFECTIVE_ROTOR_COUNT>
4.2

> <PUBCHEM_PHARMACOPHORE_FEATURES>
11
1 1 acceptor
1 2 acceptor
1 22 hydrophobe
1 3 cation
1 4 donor
1 5 acceptor
5 5 7 14 17 19 rings
6 1 8 9 13 15 16 rings
6 17 19 21 23 25 26 rings
6 6 7 8 13 14 15 rings
8 3 6 7 8 9 10 11 12 rings

> <PUBCHEM_HEAVY_ATOM_COUNT>
27

> <PUBCHEM_ATOM_DEF_STEREO_COUNT>
7

> <PUBCHEM_ATOM_UDEF_STEREO_COUNT>
0

> <PUBCHEM_BOND_DEF_STEREO_COUNT>
0

> <PUBCHEM_BOND_UDEF_STEREO_COUNT>
0

> <PUBCHEM_ISOTOPIC_ATOM_COUNT>
0

> <PUBCHEM_COMPONENT_COUNT>
1

> <PUBCHEM_CACTVS_TAUTO_COUNT>
3

> <PUBCHEM_CONFORMER_ID>
06185E4400000001

> <PUBCHEM_MMFF94_ENERGY>
104.6514

> <PUBCHEM_FEATURE_SELFOVERLAP>
57.966

> <PUBCHEM_SHAPE_FINGERPRINT>
10863032 1 18410008814768990549
10948715 1 16749030191574777144
11370993 70 17327733410716908559
11578080 2 18200572744767683816
12422481 6 17545349396679829713
12553582 1 18335714822865416082
12788726 201 18120644730638869691
13004483 165 18265883684023302915
13911987 19 17824842250457385124
13965767 371 17627832726837964969
14787075 74 17483958546889038312
14817 1 15841554080332005741
15131766 46 15001976824765258286
16945 1 18120680142533832256
19765921 60 16977584045810746957
20600515 1 16773516676434262691
22112679 90 17914645897141844321
229495 10 18188511140971057877
23419403 2 17030726543621032728
23728640 28 17689705364516287202
238 59 17827078720820900099
25222932 49 16828182333210364083
404807 78 15882898256216782799
4340502 62 17401767918261689971
46194498 28 17532927419273006239
484985 159 17829879941410051414
70251023 43 18335140847572774898

> <PUBCHEM_SHAPE_MULTIPOLES>
528.97
5.35
3.92
2.11
1.73
1.26
0.58
-6.29
-0.61
-0.55
-0.34
-1.33
0.06
-1.32

> <PUBCHEM_SHAPE_SELFOVERLAP>
1198.234

> <PUBCHEM_SHAPE_VOLUME>
268.9

> <PUBCHEM_COORDINATE_TYPE>
2
5
10

$$$$
