136811988
  -OEChem-09222004523D

 62 67  0     1  0  0  0  0  0999 V2000
   -3.2523   -2.2571   -1.1986 O   0  0  0  0  0  0  0  0  0  0  0  0
   -0.3475    0.9195    0.1167 O   0  0  0  0  0  0  0  0  0  0  0  0
   -1.8304    3.3891    0.0014 O   0  0  0  0  0  0  0  0  0  0  0  0
    5.9115    1.2708   -1.9050 O   0  0  0  0  0  0  0  0  0  0  0  0
    7.5824    1.3960    0.3132 O   0  0  0  0  0  0  0  0  0  0  0  0
   -0.1424   -1.6723    1.6165 N   0  0  0  0  0  0  0  0  0  0  0  0
   -2.3397    2.0983    0.0000 N   0  0  0  0  0  0  0  0  0  0  0  0
   -1.5068   -3.1777    0.3307 C   0  0  1  0  0  0  0  0  0  0  0  0
   -2.5538   -0.2556    0.0277 C   0  0  2  0  0  0  0  0  0  0  0  0
   -0.4142   -2.6150   -0.5575 C   0  0  1  0  0  0  0  0  0  0  0  0
   -1.5290   -2.1772    1.4923 C   0  0  2  0  0  0  0  0  0  0  0  0
   -2.3707   -1.1282   -1.2430 C   0  0  1  0  0  0  0  0  0  0  0  0
   -2.5118   -1.0093    1.3760 C   0  0  0  0  0  0  0  0  0  0  0  0
   -0.9531   -1.6180   -1.5756 C   0  0  0  0  0  0  0  0  0  0  0  0
   -2.8273   -3.3607   -0.4040 C   0  0  0  0  0  0  0  0  0  0  0  0
    0.4364   -1.9503    0.4903 C   0  0  0  0  0  0  0  0  0  0  0  0
   -3.9031    0.4869   -0.0667 C   0  0  0  0  0  0  0  0  0  0  0  0
   -1.5654    0.9665    0.0470 C   0  0  0  0  0  0  0  0  0  0  0  0
   -3.6952    1.8668   -0.0931 C   0  0  0  0  0  0  0  0  0  0  0  0
    1.8409   -1.6345    0.2001 C   0  0  0  0  0  0  0  0  0  0  0  0
   -5.1942   -0.0157   -0.1318 C   0  0  0  0  0  0  0  0  0  0  0  0
   -4.7292    2.7792   -0.1883 C   0  0  0  0  0  0  0  0  0  0  0  0
    2.5487   -2.5600   -0.7382 C   0  0  0  0  0  0  0  0  0  0  0  0
   -6.2583    0.8872   -0.2275 C   0  0  0  0  0  0  0  0  0  0  0  0
    2.3399   -0.5609    0.8366 C   0  0  0  0  0  0  0  0  0  0  0  0
   -6.0272    2.2728   -0.2571 C   0  0  0  0  0  0  0  0  0  0  0  0
    3.7089   -0.0490    0.6969 C   0  0  0  0  0  0  0  0  0  0  0  0
   -1.7571    3.8629    1.3473 C   0  0  0  0  0  0  0  0  0  0  0  0
    4.1710    0.3741   -0.5493 C   0  0  0  0  0  0  0  0  0  0  0  0
    4.5474    0.0142    1.8098 C   0  0  0  0  0  0  0  0  0  0  0  0
    5.4716    0.8604   -0.6827 C   0  0  0  0  0  0  0  0  0  0  0  0
    5.8481    0.5002    1.6764 C   0  0  0  0  0  0  0  0  0  0  0  0
    6.3102    0.9233    0.4302 C   0  0  0  0  0  0  0  0  0  0  0  0
    4.9917    1.1734   -2.9907 C   0  0  0  0  0  0  0  0  0  0  0  0
   -1.1823   -4.1487    0.7307 H   0  0  0  0  0  0  0  0  0  0  0  0
    0.1219   -3.4240   -1.0614 H   0  0  0  0  0  0  0  0  0  0  0  0
   -1.7663   -2.7207    2.4159 H   0  0  0  0  0  0  0  0  0  0  0  0
   -2.6938   -0.5357   -2.1101 H   0  0  0  0  0  0  0  0  0  0  0  0
   -3.5062   -1.4223    1.5941 H   0  0  0  0  0  0  0  0  0  0  0  0
   -2.3120   -0.2979    2.1899 H   0  0  0  0  0  0  0  0  0  0  0  0
   -0.2672   -0.7808   -1.7374 H   0  0  0  0  0  0  0  0  0  0  0  0
   -1.0125   -2.1462   -2.5377 H   0  0  0  0  0  0  0  0  0  0  0  0
   -2.7450   -4.2169   -1.0833 H   0  0  0  0  0  0  0  0  0  0  0  0
   -3.6320   -3.5994    0.2998 H   0  0  0  0  0  0  0  0  0  0  0  0
   -5.3899   -1.0819   -0.1075 H   0  0  0  0  0  0  0  0  0  0  0  0
   -4.5536    3.8486   -0.2098 H   0  0  0  0  0  0  0  0  0  0  0  0
    2.2135   -2.3999   -1.7679 H   0  0  0  0  0  0  0  0  0  0  0  0
    2.3667   -3.6048   -0.4638 H   0  0  0  0  0  0  0  0  0  0  0  0
    3.6342   -2.4248   -0.7178 H   0  0  0  0  0  0  0  0  0  0  0  0
   -7.2774    0.5133   -0.2798 H   0  0  0  0  0  0  0  0  0  0  0  0
    1.7379    0.0175    1.5340 H   0  0  0  0  0  0  0  0  0  0  0  0
   -6.8696    2.9552   -0.3325 H   0  0  0  0  0  0  0  0  0  0  0  0
   -1.3311    4.8698    1.3282 H   0  0  0  0  0  0  0  0  0  0  0  0
   -1.1025    3.2213    1.9458 H   0  0  0  0  0  0  0  0  0  0  0  0
   -2.7515    3.9169    1.8005 H   0  0  0  0  0  0  0  0  0  0  0  0
    3.4757    0.3133   -1.3805 H   0  0  0  0  0  0  0  0  0  0  0  0
    4.2013   -0.3125    2.7875 H   0  0  0  0  0  0  0  0  0  0  0  0
    6.4908    0.5436    2.5516 H   0  0  0  0  0  0  0  0  0  0  0  0
    8.0130    1.3656    1.1848 H   0  0  0  0  0  0  0  0  0  0  0  0
    5.5088    1.5390   -3.8841 H   0  0  0  0  0  0  0  0  0  0  0  0
    4.1208    1.8209   -2.8417 H   0  0  0  0  0  0  0  0  0  0  0  0
    4.7107    0.1337   -3.1906 H   0  0  0  0  0  0  0  0  0  0  0  0
  1 12  1  0  0  0  0
  1 15  1  0  0  0  0
  2 18  2  0  0  0  0
  3  7  1  0  0  0  0
  3 28  1  0  0  0  0
  4 31  1  0  0  0  0
  4 34  1  0  0  0  0
  5 33  1  0  0  0  0
  5 59  1  0  0  0  0
  6 11  1  0  0  0  0
  6 16  2  0  0  0  0
  7 18  1  0  0  0  0
  7 19  1  0  0  0  0
  8 10  1  0  0  0  0
  8 11  1  0  0  0  0
  8 15  1  0  0  0  0
  8 35  1  0  0  0  0
  9 12  1  0  0  0  0
  9 13  1  0  0  0  0
  9 17  1  0  0  0  0
  9 18  1  0  0  0  0
 10 14  1  0  0  0  0
 10 16  1  0  0  0  0
 10 36  1  0  0  0  0
 11 13  1  0  0  0  0
 11 37  1  0  0  0  0
 12 14  1  0  0  0  0
 12 38  1  0  0  0  0
 13 39  1  0  0  0  0
 13 40  1  0  0  0  0
 14 41  1  0  0  0  0
 14 42  1  0  0  0  0
 15 43  1  0  0  0  0
 15 44  1  0  0  0  0
 16 20  1  0  0  0  0
 17 19  1  0  0  0  0
 17 21  2  0  0  0  0
 19 22  2  0  0  0  0
 20 23  1  0  0  0  0
 20 25  2  0  0  0  0
 21 24  1  0  0  0  0
 21 45  1  0  0  0  0
 22 26  1  0  0  0  0
 22 46  1  0  0  0  0
 23 47  1  0  0  0  0
 23 48  1  0  0  0  0
 23 49  1  0  0  0  0
 24 26  2  0  0  0  0
 24 50  1  0  0  0  0
 25 27  1  0  0  0  0
 25 51  1  0  0  0  0
 26 52  1  0  0  0  0
 27 29  2  0  0  0  0
 27 30  1  0  0  0  0
 28 53  1  0  0  0  0
 28 54  1  0  0  0  0
 28 55  1  0  0  0  0
 29 31  1  0  0  0  0
 29 56  1  0  0  0  0
 30 32  2  0  0  0  0
 30 57  1  0  0  0  0
 31 33  2  0  0  0  0
 32 33  1  0  0  0  0
 32 58  1  0  0  0  0
 34 60  1  0  0  0  0
 34 61  1  0  0  0  0
 34 62  1  0  0  0  0
M  END
> <PUBCHEM_COMPOUND_CID>
136811988

> <PUBCHEM_CONFORMER_RMSD>
0.8

> <PUBCHEM_CONFORMER_DIVERSEORDER>
1
6
10
15
8
4
14
11
12
5
9
2
13
7
3

> <PUBCHEM_MMFF94_PARTIAL_CHARGES>
40
1 -0.56
10 0.06
11 0.25
12 0.28
15 0.28
16 0.37
17 -0.14
18 0.57
19 0.12
2 -0.57
20 -0.12
21 -0.15
22 -0.15
23 0.14
24 -0.15
25 -0.18
26 -0.15
27 0.03
28 0.28
29 -0.15
3 -0.32
30 -0.15
31 0.08
32 -0.15
33 0.08
34 0.28
4 -0.36
45 0.15
46 0.15
5 -0.53
50 0.15
51 0.15
52 0.15
56 0.15
57 0.15
58 0.15
59 0.45
6 -0.7
7 -0.14
9 0.2

> <PUBCHEM_EFFECTIVE_ROTOR_COUNT>
5

> <PUBCHEM_PHARMACOPHORE_FEATURES>
11
1 1 acceptor
1 2 acceptor
1 23 hydrophobe
1 4 acceptor
1 5 donor
1 6 acceptor
5 6 8 10 11 16 rings
5 7 9 17 18 19 rings
6 17 19 21 22 24 26 rings
6 27 29 30 31 32 33 rings
9 1 8 9 10 11 12 13 14 15 rings

> <PUBCHEM_HEAVY_ATOM_COUNT>
34

> <PUBCHEM_ATOM_DEF_STEREO_COUNT>
5

> <PUBCHEM_ATOM_UDEF_STEREO_COUNT>
0

> <PUBCHEM_BOND_DEF_STEREO_COUNT>
1

> <PUBCHEM_BOND_UDEF_STEREO_COUNT>
0

> <PUBCHEM_ISOTOPIC_ATOM_COUNT>
0

> <PUBCHEM_COMPONENT_COUNT>
1

> <PUBCHEM_CACTVS_TAUTO_COUNT>
-1

> <PUBCHEM_CONFORMER_ID>
082795D400000001

> <PUBCHEM_MMFF94_ENERGY>
138.3943

> <PUBCHEM_FEATURE_SELFOVERLAP>
56.566

> <PUBCHEM_SHAPE_FINGERPRINT>
10411042 1 17834390499528142791
10670039 82 18337116752410270700
10675989 125 17108457287811356237
10906281 52 18264783082048651833
1100329 8 18339073891181292129
12107183 9 18117824518365005618
12788726 201 18411981321449455881
13617811 41 18409725132543638669
13911987 19 18266722625002663957
14400156 188 16236216336435346227
14790565 3 18269272362102271553
14840074 17 17530974583078507540
14849402 71 17973162820816597770
15001296 14 18116153445042219364
15131766 46 16227471757276233620
15297060 5 18342742923060038160
15840311 113 18118406142909822685
15876981 60 18264768950978462135
15968369 153 18198622331572841625
17980427 23 18040713714418535974
18608769 82 18340206392721829227
19319366 153 18041551451720662874
20511986 3 17822280297901847248
21033650 10 18265916773215819926
21756936 100 18410003360160511402
22122407 14 17749963279164663512
23559900 14 17404291907802374863
23569914 152 16626042239748369804
2838139 119 18342444929027268010
3383291 50 18341895233854599179
3552219 110 17532939518349326779
3610482 184 18187937213486851646
38570 142 17459210559462697534
4098825 35 15267073501325754713
44249763 50 17702646891716964616
44802255 64 17916592080648332198
469060 322 18196384820820302395
508706 21 18198889487228405280
5171179 24 17770489043540985513
5486654 2 18412822465504393681
550186 72 18336540522339894597
57527585 21 17627766653778858333
57724786 102 17821728330353667286
6700243 42 17767998641494310694
7288768 16 18040435473288578395
7808743 9 18410566280038359075
9981440 41 18334576841099694674

> <PUBCHEM_SHAPE_MULTIPOLES>
660.4
15.18
3.97
1.67
17.65
0.11
-0.57
11.82
-1.78
-4.41
0.14
2.52
0.1
-0.85

> <PUBCHEM_SHAPE_SELFOVERLAP>
1474.545

> <PUBCHEM_SHAPE_VOLUME>
348.1

> <PUBCHEM_COORDINATE_TYPE>
2
5
10

$$$$
