101798872
  -OEChem-09222006283D

 36 38  0     1  0  0  0  0  0999 V2000
   -1.3605    2.1561    0.1280 O   0  0  0  0  0  0  0  0  0  0  0  0
    1.1915   -0.4741   -1.3119 O   0  0  0  0  0  0  0  0  0  0  0  0
   -1.1086   -2.2044    0.8966 O   0  0  0  0  0  0  0  0  0  0  0  0
   -3.4906   -0.6086    1.0382 O   0  0  0  0  0  0  0  0  0  0  0  0
    2.7136   -0.2187    0.4937 O   0  0  0  0  0  0  0  0  0  0  0  0
    0.4837    3.0278   -0.8895 O   0  0  0  0  0  0  0  0  0  0  0  0
   -0.4369    0.1246    0.9694 C   0  0  2  0  0  0  0  0  0  0  0  0
   -0.7164   -1.1014    0.0710 C   0  0  2  0  0  0  0  0  0  0  0  0
   -1.6952    0.9983    0.9026 C   0  0  2  0  0  0  0  0  0  0  0  0
   -1.9020   -0.6597   -0.8191 C   0  0  2  0  0  0  0  0  0  0  0  0
    0.6787    1.0574    0.5230 C   0  0  1  0  0  0  0  0  0  0  0  0
   -2.7467    0.1991    0.1369 C   0  0  1  0  0  0  0  0  0  0  0  0
    0.5050   -1.5633   -0.7118 C   0  0  0  0  0  0  0  0  0  0  0  0
    1.7535    0.4169   -0.3496 C   0  0  2  0  0  0  0  0  0  0  0  0
   -0.0366    2.1787   -0.1816 C   0  0  0  0  0  0  0  0  0  0  0  0
   -2.6904   -1.7981   -1.4591 C   0  0  0  0  0  0  0  0  0  0  0  0
    3.9404   -0.4280   -0.1879 C   0  0  0  0  0  0  0  0  0  0  0  0
    4.9175   -1.1025    0.7512 C   0  0  0  0  0  0  0  0  0  0  0  0
   -0.2615   -0.2086    2.0000 H   0  0  0  0  0  0  0  0  0  0  0  0
   -2.0325    1.3197    1.8934 H   0  0  0  0  0  0  0  0  0  0  0  0
   -1.5256   -0.0108   -1.6220 H   0  0  0  0  0  0  0  0  0  0  0  0
    1.1372    1.5113    1.4120 H   0  0  0  0  0  0  0  0  0  0  0  0
   -3.4425    0.8346   -0.4213 H   0  0  0  0  0  0  0  0  0  0  0  0
    1.1978   -2.1338   -0.0803 H   0  0  0  0  0  0  0  0  0  0  0  0
    0.2115   -2.2539   -1.5097 H   0  0  0  0  0  0  0  0  0  0  0  0
    2.2607    1.2077   -0.9158 H   0  0  0  0  0  0  0  0  0  0  0  0
   -3.5356   -1.3995   -2.0302 H   0  0  0  0  0  0  0  0  0  0  0  0
   -2.0613   -2.3664   -2.1512 H   0  0  0  0  0  0  0  0  0  0  0  0
   -3.0906   -2.4984   -0.7194 H   0  0  0  0  0  0  0  0  0  0  0  0
   -0.3774   -2.4016    1.5066 H   0  0  0  0  0  0  0  0  0  0  0  0
   -3.9649   -0.0115    1.6414 H   0  0  0  0  0  0  0  0  0  0  0  0
    3.7790   -1.0622   -1.0667 H   0  0  0  0  0  0  0  0  0  0  0  0
    4.3569    0.5320   -0.5134 H   0  0  0  0  0  0  0  0  0  0  0  0
    5.0854   -0.4865    1.6409 H   0  0  0  0  0  0  0  0  0  0  0  0
    4.5183   -2.0612    1.0987 H   0  0  0  0  0  0  0  0  0  0  0  0
    5.8772   -1.2782    0.2573 H   0  0  0  0  0  0  0  0  0  0  0  0
  1  9  1  0  0  0  0
  1 15  1  0  0  0  0
  2 13  1  0  0  0  0
  2 14  1  0  0  0  0
  3  8  1  0  0  0  0
  3 30  1  0  0  0  0
  4 12  1  0  0  0  0
  4 31  1  0  0  0  0
  5 14  1  0  0  0  0
  5 17  1  0  0  0  0
  6 15  2  0  0  0  0
  7  8  1  0  0  0  0
  7  9  1  0  0  0  0
  7 11  1  0  0  0  0
  7 19  1  0  0  0  0
  8 10  1  0  0  0  0
  8 13  1  0  0  0  0
  9 12  1  0  0  0  0
  9 20  1  0  0  0  0
 10 12  1  0  0  0  0
 10 16  1  0  0  0  0
 10 21  1  0  0  0  0
 11 14  1  0  0  0  0
 11 15  1  0  0  0  0
 11 22  1  0  0  0  0
 12 23  1  0  0  0  0
 13 24  1  0  0  0  0
 13 25  1  0  0  0  0
 14 26  1  0  0  0  0
 16 27  1  0  0  0  0
 16 28  1  0  0  0  0
 16 29  1  0  0  0  0
 17 18  1  0  0  0  0
 17 32  1  0  0  0  0
 17 33  1  0  0  0  0
 18 34  1  0  0  0  0
 18 35  1  0  0  0  0
 18 36  1  0  0  0  0
M  END
> <PUBCHEM_COMPOUND_CID>
101798872

> <PUBCHEM_CONFORMER_RMSD>
0.6

> <PUBCHEM_CONFORMER_DIVERSEORDER>
1
7
8
2
4
5
3
6

> <PUBCHEM_MMFF94_PARTIAL_CHARGES>
16
1 -0.43
11 0.06
12 0.28
13 0.28
14 0.56
15 0.66
17 0.28
2 -0.56
3 -0.68
30 0.4
31 0.4
4 -0.68
5 -0.56
6 -0.57
8 0.28
9 0.28

> <PUBCHEM_EFFECTIVE_ROTOR_COUNT>
3.2

> <PUBCHEM_PHARMACOPHORE_FEATURES>
10
1 2 acceptor
1 3 acceptor
1 3 donor
1 4 acceptor
1 4 donor
1 5 acceptor
1 6 acceptor
5 1 7 9 11 15 rings
5 7 8 9 10 12 rings
6 2 7 8 11 13 14 rings

> <PUBCHEM_HEAVY_ATOM_COUNT>
18

> <PUBCHEM_ATOM_DEF_STEREO_COUNT>
7

> <PUBCHEM_ATOM_UDEF_STEREO_COUNT>
0

> <PUBCHEM_BOND_DEF_STEREO_COUNT>
0

> <PUBCHEM_BOND_UDEF_STEREO_COUNT>
0

> <PUBCHEM_ISOTOPIC_ATOM_COUNT>
0

> <PUBCHEM_COMPONENT_COUNT>
1

> <PUBCHEM_CACTVS_TAUTO_COUNT>
2

> <PUBCHEM_CONFORMER_ID>
061153D800000001

> <PUBCHEM_MMFF94_ENERGY>
53.2765

> <PUBCHEM_FEATURE_SELFOVERLAP>
51.735

> <PUBCHEM_SHAPE_FINGERPRINT>
10062212 137 18272928366686182751
11132069 177 18059852836013534958
11680986 33 18122621918749258944
12403814 3 18342176622509931785
12423570 1 18201168706123948185
13024252 1 17458349597890279433
13140716 1 18199474435920043915
13172582 1 18341339958643745385
14142880 1 18127415548817859417
14181834 199 18054787548889650868
14614273 12 18197498428556454340
15219456 202 17702105764234060814
16945 1 17917997148469502993
200 152 17749102267281558210
20511035 2 17984706885210955985
20871998 184 18269277872075475876
21029758 27 18334305283212460520
21339142 126 18340482262275153260
21501502 16 18058169620844479809
22112679 90 17916030238252757149
22182313 1 17982750588180372981
22344851 262 18130794464203639383
22344851 341 17908149784707662635
2334 1 17910681191387510645
23402539 116 18412255121329800303
23419403 2 17270557508739465849
23463225 33 18411142441648604316
23559900 14 18271516530016982552
2748010 2 17910133325417333317
3286 77 17895767321416622299
81228 2 18339655434026649048
90316 7 18263362504135067144

> <PUBCHEM_SHAPE_MULTIPOLES>
335.22
5.67
2.41
1.16
6.87
1.18
-0.08
-2.76
1.02
-0.76
-0.55
-0.37
-0.22
-0.56

> <PUBCHEM_SHAPE_SELFOVERLAP>
718.447

> <PUBCHEM_SHAPE_VOLUME>
186.2

> <PUBCHEM_COORDINATE_TYPE>
2
5
10

$$$$
