102254466
  -OEChem-09222004293D

 41 45  0     1  0  0  0  0  0999 V2000
   -0.9733    2.2984   -0.8005 O   0  0  0  0  0  0  0  0  0  0  0  0
   -3.7648   -2.0415   -0.3801 O   0  0  0  0  0  0  0  0  0  0  0  0
   -0.4922   -2.1539   -0.3804 O   0  0  0  0  0  0  0  0  0  0  0  0
    2.3473   -2.6309   -0.5338 O   0  0  0  0  0  0  0  0  0  0  0  0
   -2.6228   -0.9063    1.3156 N   0  0  0  0  0  0  0  0  0  0  0  0
    1.7062   -1.4230   -0.2986 N   0  0  0  0  0  0  0  0  0  0  0  0
   -2.8315    1.2700    0.5109 C   0  0  2  0  0  0  0  0  0  0  0  0
    0.0684    0.2477    0.0389 C   0  0  2  0  0  0  0  0  0  0  0  0
   -2.0815    0.4107    1.5348 C   0  0  2  0  0  0  0  0  0  0  0  0
   -3.1064    0.2895   -0.6332 C   0  0  1  0  0  0  0  0  0  0  0  0
   -0.6857    0.9338   -1.1314 C   0  0  1  0  0  0  0  0  0  0  0  0
   -0.5536    0.4307    1.4420 C   0  0  0  0  0  0  0  0  0  0  0  0
   -1.9692    0.2652   -1.6473 C   0  0  0  0  0  0  0  0  0  0  0  0
   -2.1031    2.5206    0.0388 C   0  0  0  0  0  0  0  0  0  0  0  0
   -3.2421   -1.0383    0.0807 C   0  0  0  0  0  0  0  0  0  0  0  0
    1.5150    0.7825    0.0827 C   0  0  0  0  0  0  0  0  0  0  0  0
    0.3430   -1.2729   -0.2502 C   0  0  0  0  0  0  0  0  0  0  0  0
    2.4214   -0.2557   -0.1379 C   0  0  0  0  0  0  0  0  0  0  0  0
    1.9824    2.0716    0.2909 C   0  0  0  0  0  0  0  0  0  0  0  0
    3.7898   -0.0627   -0.1660 C   0  0  0  0  0  0  0  0  0  0  0  0
    3.3634    2.2930    0.2681 C   0  0  0  0  0  0  0  0  0  0  0  0
    4.2591    1.2346    0.0402 C   0  0  0  0  0  0  0  0  0  0  0  0
    2.6304   -3.2629    0.7159 C   0  0  0  0  0  0  0  0  0  0  0  0
   -3.7905    1.5650    0.9600 H   0  0  0  0  0  0  0  0  0  0  0  0
   -2.3682    0.7075    2.5507 H   0  0  0  0  0  0  0  0  0  0  0  0
   -4.0588    0.5172   -1.1251 H   0  0  0  0  0  0  0  0  0  0  0  0
   -0.0053    0.9771   -1.9931 H   0  0  0  0  0  0  0  0  0  0  0  0
   -0.2312    1.3928    1.8629 H   0  0  0  0  0  0  0  0  0  0  0  0
   -0.1496   -0.3309    2.1244 H   0  0  0  0  0  0  0  0  0  0  0  0
   -1.7737   -0.7443   -2.0224 H   0  0  0  0  0  0  0  0  0  0  0  0
   -2.3069    0.8470   -2.5165 H   0  0  0  0  0  0  0  0  0  0  0  0
   -2.7967    3.1453   -0.5359 H   0  0  0  0  0  0  0  0  0  0  0  0
   -1.7766    3.1247    0.8923 H   0  0  0  0  0  0  0  0  0  0  0  0
   -2.5559   -1.6625    1.9895 H   0  0  0  0  0  0  0  0  0  0  0  0
    1.3046    2.8987    0.4707 H   0  0  0  0  0  0  0  0  0  0  0  0
    4.4828   -0.8777   -0.3404 H   0  0  0  0  0  0  0  0  0  0  0  0
    3.7498    3.2960    0.4287 H   0  0  0  0  0  0  0  0  0  0  0  0
    5.3279    1.4305    0.0265 H   0  0  0  0  0  0  0  0  0  0  0  0
    3.1112   -4.2226    0.5078 H   0  0  0  0  0  0  0  0  0  0  0  0
    1.7052   -3.4519    1.2697 H   0  0  0  0  0  0  0  0  0  0  0  0
    3.3144   -2.6569    1.3176 H   0  0  0  0  0  0  0  0  0  0  0  0
  1 11  1  0  0  0  0
  1 14  1  0  0  0  0
  2 15  2  0  0  0  0
  3 17  2  0  0  0  0
  4  6  1  0  0  0  0
  4 23  1  0  0  0  0
  5  9  1  0  0  0  0
  5 15  1  0  0  0  0
  5 34  1  0  0  0  0
  6 17  1  0  0  0  0
  6 18  1  0  0  0  0
  7  9  1  0  0  0  0
  7 10  1  0  0  0  0
  7 14  1  0  0  0  0
  7 24  1  0  0  0  0
  8 11  1  0  0  0  0
  8 12  1  0  0  0  0
  8 16  1  0  0  0  0
  8 17  1  0  0  0  0
  9 12  1  0  0  0  0
  9 25  1  0  0  0  0
 10 13  1  0  0  0  0
 10 15  1  0  0  0  0
 10 26  1  0  0  0  0
 11 13  1  0  0  0  0
 11 27  1  0  0  0  0
 12 28  1  0  0  0  0
 12 29  1  0  0  0  0
 13 30  1  0  0  0  0
 13 31  1  0  0  0  0
 14 32  1  0  0  0  0
 14 33  1  0  0  0  0
 16 18  1  0  0  0  0
 16 19  2  0  0  0  0
 18 20  2  0  0  0  0
 19 21  1  0  0  0  0
 19 35  1  0  0  0  0
 20 22  1  0  0  0  0
 20 36  1  0  0  0  0
 21 22  2  0  0  0  0
 21 37  1  0  0  0  0
 22 38  1  0  0  0  0
 23 39  1  0  0  0  0
 23 40  1  0  0  0  0
 23 41  1  0  0  0  0
M  END
> <PUBCHEM_COMPOUND_CID>
102254466

> <PUBCHEM_CONFORMER_RMSD>
0.6

> <PUBCHEM_CONFORMER_DIVERSEORDER>
1

> <PUBCHEM_MMFF94_PARTIAL_CHARGES>
25
1 -0.56
10 0.06
11 0.28
14 0.28
15 0.57
16 -0.14
17 0.57
18 0.12
19 -0.15
2 -0.57
20 -0.15
21 -0.15
22 -0.15
23 0.28
3 -0.57
34 0.37
35 0.15
36 0.15
37 0.15
38 0.15
4 -0.32
5 -0.73
6 -0.14
8 0.2
9 0.3

> <PUBCHEM_EFFECTIVE_ROTOR_COUNT>
2.2

> <PUBCHEM_PHARMACOPHORE_FEATURES>
8
1 1 acceptor
1 2 acceptor
1 3 acceptor
1 5 donor
5 5 7 9 10 15 rings
5 6 8 16 17 18 rings
6 16 18 19 20 21 22 rings
9 1 7 8 9 10 11 12 13 14 rings

> <PUBCHEM_HEAVY_ATOM_COUNT>
23

> <PUBCHEM_ATOM_DEF_STEREO_COUNT>
5

> <PUBCHEM_ATOM_UDEF_STEREO_COUNT>
0

> <PUBCHEM_BOND_DEF_STEREO_COUNT>
0

> <PUBCHEM_BOND_UDEF_STEREO_COUNT>
0

> <PUBCHEM_ISOTOPIC_ATOM_COUNT>
0

> <PUBCHEM_COMPONENT_COUNT>
1

> <PUBCHEM_CACTVS_TAUTO_COUNT>
3

> <PUBCHEM_CONFORMER_ID>
0618478200000001

> <PUBCHEM_MMFF94_ENERGY>
93.2701

> <PUBCHEM_FEATURE_SELFOVERLAP>
41.332

> <PUBCHEM_SHAPE_FINGERPRINT>
10366900 7 18186810196693391338
10411042 1 16032954127818841446
10863032 1 18413106143741129405
10948715 1 18269558235125369665
10967382 1 18339359798426562932
11578080 2 17169537516005921926
12403259 226 18411696599925692752
12403260 363 18337383933308857216
12553582 1 17691411815247800350
12592029 89 18410007767171166026
12633257 1 18053111622696419091
12839892 36 18266439045149093330
13140716 1 18123183769444143066
13224815 77 18409730668544583564
14223421 5 18411704265946041186
14289901 80 18412545405268507024
14787075 74 17628920320083877113
15209289 33 18059017318719091336
15309172 13 18338519758695249232
15375462 6 18409449206236360532
16945 1 18412543236389085036
17492 89 18411418375981314611
18186145 218 18130797750085794292
19049666 15 18115872888887160240
19591789 44 18411703205711715382
19930381 70 18267581501553845224
200 152 18201152252056809917
20600515 1 16370733646534382436
21501502 16 18337953368182620153
21524375 3 18199752608399069990
2334 1 16321751138330655334
23557571 272 17531539753709056563
23559900 14 18339633422171538018
238 59 18196062543743307316
2748010 2 18194960738982699012
350125 39 18268148850233980168
46194498 28 17392453882686459815
5104073 3 18412262843981686088
77492 1 17489584515675082784
81228 2 17676495990860778285
9709674 26 18337111172388234391

> <PUBCHEM_SHAPE_MULTIPOLES>
439.89
6.53
3
1.16
2.02
1.27
-0.1
-0.07
-0.15
1.57
-0.08
-0.77
-0.05
0.03

> <PUBCHEM_SHAPE_SELFOVERLAP>
991.114

> <PUBCHEM_SHAPE_VOLUME>
228.5

> <PUBCHEM_COORDINATE_TYPE>
2
5
10

$$$$
