46176622
  -OEChem-09222006253D

 26 28  0     1  0  0  0  0  0999 V2000
   -1.6131    1.3720   -0.3591 O   0  0  0  0  0  0  0  0  0  0  0  0
    0.4237   -2.5136    0.6125 O   0  0  0  0  0  0  0  0  0  0  0  0
    0.4785    2.5320    0.9406 O   0  0  0  0  0  0  0  0  0  0  0  0
   -3.1540   -0.0034    0.6766 O   0  0  0  0  0  0  0  0  0  0  0  0
   -0.1127   -0.2649   -1.1773 C   0  0  2  0  0  0  0  0  0  0  0  0
    1.3148   -0.5888   -0.7605 C   0  0  1  0  0  0  0  0  0  0  0  0
    1.5801    0.4320    0.3676 C   0  0  2  0  0  0  0  0  0  0  0  0
   -0.3229    1.2223   -0.9836 C   0  0  2  0  0  0  0  0  0  0  0  0
    0.8697    1.7043   -0.1379 C   0  0  1  0  0  0  0  0  0  0  0  0
   -1.0536   -0.8109   -0.1781 C   0  0  0  0  0  0  0  0  0  0  0  0
    1.3982   -2.0705   -0.3521 C   0  0  0  0  0  0  0  0  0  0  0  0
    3.0639    0.6567    0.6316 C   0  0  0  0  0  0  0  0  0  0  0  0
   -2.0961    0.1785    0.1047 C   0  0  0  0  0  0  0  0  0  0  0  0
   -0.7763   -1.8457    0.6150 C   0  0  0  0  0  0  0  0  0  0  0  0
   -0.3634   -0.6076   -2.1862 H   0  0  0  0  0  0  0  0  0  0  0  0
    1.9999   -0.3988   -1.5969 H   0  0  0  0  0  0  0  0  0  0  0  0
    1.1287    0.1132    1.3158 H   0  0  0  0  0  0  0  0  0  0  0  0
   -0.3458    1.7535   -1.9416 H   0  0  0  0  0  0  0  0  0  0  0  0
    1.5467    2.2766   -0.7846 H   0  0  0  0  0  0  0  0  0  0  0  0
    1.2759   -2.7006   -1.2418 H   0  0  0  0  0  0  0  0  0  0  0  0
    2.3872   -2.2923    0.0624 H   0  0  0  0  0  0  0  0  0  0  0  0
    3.5861    0.9874   -0.2724 H   0  0  0  0  0  0  0  0  0  0  0  0
    3.5406   -0.2662    0.9770 H   0  0  0  0  0  0  0  0  0  0  0  0
    3.2110    1.4191    1.4033 H   0  0  0  0  0  0  0  0  0  0  0  0
   -1.4008   -2.1832    1.4297 H   0  0  0  0  0  0  0  0  0  0  0  0
    1.2804    2.7757    1.4329 H   0  0  0  0  0  0  0  0  0  0  0  0
  1  8  1  0  0  0  0
  1 13  1  0  0  0  0
  2 11  1  0  0  0  0
  2 14  1  0  0  0  0
  3  9  1  0  0  0  0
  3 26  1  0  0  0  0
  4 13  2  0  0  0  0
  5  6  1  0  0  0  0
  5  8  1  0  0  0  0
  5 10  1  0  0  0  0
  5 15  1  0  0  0  0
  6  7  1  0  0  0  0
  6 11  1  0  0  0  0
  6 16  1  0  0  0  0
  7  9  1  0  0  0  0
  7 12  1  0  0  0  0
  7 17  1  0  0  0  0
  8  9  1  0  0  0  0
  8 18  1  0  0  0  0
  9 19  1  0  0  0  0
 10 13  1  0  0  0  0
 10 14  2  0  0  0  0
 11 20  1  0  0  0  0
 11 21  1  0  0  0  0
 12 22  1  0  0  0  0
 12 23  1  0  0  0  0
 12 24  1  0  0  0  0
 14 25  1  0  0  0  0
M  END
> <PUBCHEM_COMPOUND_CID>
46176622

> <PUBCHEM_CONFORMER_RMSD>
0.4

> <PUBCHEM_CONFORMER_DIVERSEORDER>
1

> <PUBCHEM_MMFF94_PARTIAL_CHARGES>
13
1 -0.43
10 -0.12
11 0.28
13 0.71
14 -0.07
2 -0.36
25 0.15
26 0.4
3 -0.68
4 -0.57
5 0.14
8 0.28
9 0.28

> <PUBCHEM_EFFECTIVE_ROTOR_COUNT>
1

> <PUBCHEM_PHARMACOPHORE_FEATURES>
7
1 2 acceptor
1 3 acceptor
1 3 donor
1 4 acceptor
5 1 5 8 10 13 rings
5 5 6 7 8 9 rings
6 2 5 6 10 11 14 rings

> <PUBCHEM_HEAVY_ATOM_COUNT>
14

> <PUBCHEM_ATOM_DEF_STEREO_COUNT>
5

> <PUBCHEM_ATOM_UDEF_STEREO_COUNT>
0

> <PUBCHEM_BOND_DEF_STEREO_COUNT>
0

> <PUBCHEM_BOND_UDEF_STEREO_COUNT>
0

> <PUBCHEM_ISOTOPIC_ATOM_COUNT>
0

> <PUBCHEM_COMPONENT_COUNT>
1

> <PUBCHEM_CACTVS_TAUTO_COUNT>
1

> <PUBCHEM_CONFORMER_ID>
02C0996E00000001

> <PUBCHEM_MMFF94_ENERGY>
49.8965

> <PUBCHEM_FEATURE_SELFOVERLAP>
36.412

> <PUBCHEM_SHAPE_FINGERPRINT>
12423570 1 12576554035405373461
13024252 1 14347167132533360692
14761567 1 17397261638120916631
15076042 46 17691403431254711144
16945 1 18410012160542830093
20511035 2 17907299101973211508
20588541 1 18409736183245629438
21501502 16 17977665634422046468
22802520 49 16115989653090066654
2334 1 17761212515402797125
23419403 2 15372809046375471255
23559900 14 16613073371620387798
241688 4 17902522488417637168
2748010 2 18191866717145628575
5084963 1 17914887862471558852
53812653 166 18411704278836217867
568465 68 18263102026825699017

> <PUBCHEM_SHAPE_MULTIPOLES>
264.64
3.06
2.47
1
0.23
0.5
-0.11
-0.55
0.9
-0.42
0.4
-0.05
-0.07
0.35

> <PUBCHEM_SHAPE_SELFOVERLAP>
582.775

> <PUBCHEM_SHAPE_VOLUME>
143.3

> <PUBCHEM_COORDINATE_TYPE>
2
5
10

$$$$
