53260760
  -OEChem-09222006263D

 30 32  0     1  0  0  0  0  0999 V2000
   -0.3290   -2.0746   -0.1424 O   0  0  0  0  0  0  0  0  0  0  0  0
    1.5412    1.0827    1.1962 O   0  0  0  0  0  0  0  0  0  0  0  0
   -1.0374    2.1386   -1.1502 O   0  0  0  0  0  0  0  0  0  0  0  0
   -2.9202   -1.4446    0.2474 O   0  0  0  0  0  0  0  0  0  0  0  0
    3.1127    1.1320   -0.5859 O   0  0  0  0  0  0  0  0  0  0  0  0
    1.6380   -2.4772    0.9372 O   0  0  0  0  0  0  0  0  0  0  0  0
    0.1547    0.0521   -1.0939 C   0  0  2  0  0  0  0  0  0  0  0  0
   -0.4236    1.2111   -0.2449 C   0  0  2  0  0  0  0  0  0  0  0  0
   -0.8760   -1.0776   -1.0176 C   0  0  2  0  0  0  0  0  0  0  0  0
   -1.5191    0.5419    0.6184 C   0  0  2  0  0  0  0  0  0  0  0  0
    1.4357   -0.5883   -0.5816 C   0  0  1  0  0  0  0  0  0  0  0  0
   -2.1167   -0.4620   -0.3762 C   0  0  2  0  0  0  0  0  0  0  0  0
    0.6349    1.9646    0.5497 C   0  0  0  0  0  0  0  0  0  0  0  0
    2.3156    0.3178    0.2730 C   0  0  2  0  0  0  0  0  0  0  0  0
    0.9634   -1.7991    0.1770 C   0  0  0  0  0  0  0  0  0  0  0  0
   -2.5741    1.4826    1.1935 C   0  0  0  0  0  0  0  0  0  0  0  0
    0.2829    0.3812   -2.1326 H   0  0  0  0  0  0  0  0  0  0  0  0
   -1.0898   -1.5494   -1.9815 H   0  0  0  0  0  0  0  0  0  0  0  0
   -1.0675   -0.0003    1.4604 H   0  0  0  0  0  0  0  0  0  0  0  0
    2.0066   -0.9734   -1.4370 H   0  0  0  0  0  0  0  0  0  0  0  0
   -2.7213    0.0555   -1.1313 H   0  0  0  0  0  0  0  0  0  0  0  0
    1.1915    2.6659   -0.0847 H   0  0  0  0  0  0  0  0  0  0  0  0
    0.1649    2.5857    1.3197 H   0  0  0  0  0  0  0  0  0  0  0  0
    3.0088   -0.2889    0.8663 H   0  0  0  0  0  0  0  0  0  0  0  0
   -3.1141    2.0199    0.4073 H   0  0  0  0  0  0  0  0  0  0  0  0
   -2.1183    2.2220    1.8588 H   0  0  0  0  0  0  0  0  0  0  0  0
   -3.3118    0.9203    1.7758 H   0  0  0  0  0  0  0  0  0  0  0  0
   -0.3437    2.5043   -1.7252 H   0  0  0  0  0  0  0  0  0  0  0  0
   -3.1712   -2.0915   -0.4338 H   0  0  0  0  0  0  0  0  0  0  0  0
    3.9231    1.3558   -0.0977 H   0  0  0  0  0  0  0  0  0  0  0  0
  1  9  1  0  0  0  0
  1 15  1  0  0  0  0
  2 13  1  0  0  0  0
  2 14  1  0  0  0  0
  3  8  1  0  0  0  0
  3 28  1  0  0  0  0
  4 12  1  0  0  0  0
  4 29  1  0  0  0  0
  5 14  1  0  0  0  0
  5 30  1  0  0  0  0
  6 15  2  0  0  0  0
  7  8  1  0  0  0  0
  7  9  1  0  0  0  0
  7 11  1  0  0  0  0
  7 17  1  0  0  0  0
  8 10  1  0  0  0  0
  8 13  1  0  0  0  0
  9 12  1  0  0  0  0
  9 18  1  0  0  0  0
 10 12  1  0  0  0  0
 10 16  1  0  0  0  0
 10 19  1  0  0  0  0
 11 14  1  0  0  0  0
 11 15  1  0  0  0  0
 11 20  1  0  0  0  0
 12 21  1  0  0  0  0
 13 22  1  0  0  0  0
 13 23  1  0  0  0  0
 14 24  1  0  0  0  0
 16 25  1  0  0  0  0
 16 26  1  0  0  0  0
 16 27  1  0  0  0  0
M  END
> <PUBCHEM_COMPOUND_CID>
53260760

> <PUBCHEM_CONFORMER_RMSD>
0.6

> <PUBCHEM_CONFORMER_DIVERSEORDER>
1
2

> <PUBCHEM_MMFF94_PARTIAL_CHARGES>
16
1 -0.43
11 0.06
12 0.28
13 0.28
14 0.56
15 0.66
2 -0.56
28 0.4
29 0.4
3 -0.68
30 0.4
4 -0.68
5 -0.68
6 -0.57
8 0.28
9 0.28

> <PUBCHEM_EFFECTIVE_ROTOR_COUNT>
1.2

> <PUBCHEM_PHARMACOPHORE_FEATURES>
11
1 2 acceptor
1 3 acceptor
1 3 donor
1 4 acceptor
1 4 donor
1 5 acceptor
1 5 donor
1 6 acceptor
5 1 7 9 11 15 rings
5 7 8 9 10 12 rings
6 2 7 8 11 13 14 rings

> <PUBCHEM_HEAVY_ATOM_COUNT>
16

> <PUBCHEM_ATOM_DEF_STEREO_COUNT>
7

> <PUBCHEM_ATOM_UDEF_STEREO_COUNT>
0

> <PUBCHEM_BOND_DEF_STEREO_COUNT>
0

> <PUBCHEM_BOND_UDEF_STEREO_COUNT>
0

> <PUBCHEM_ISOTOPIC_ATOM_COUNT>
0

> <PUBCHEM_COMPONENT_COUNT>
1

> <PUBCHEM_CACTVS_TAUTO_COUNT>
2

> <PUBCHEM_CONFORMER_ID>
032CB1D800000001

> <PUBCHEM_MMFF94_ENERGY>
49.3695

> <PUBCHEM_FEATURE_SELFOVERLAP>
56.814

> <PUBCHEM_SHAPE_FINGERPRINT>
10863032 1 18130238068148531842
11086676 242 17762643701643114129
12423570 1 9688366018405680615
12491281 212 17058961924812240720
13024252 1 14491009671616362348
13140716 1 18197496229506994170
15076042 46 17911805978697681977
15775835 57 18341622481434311616
16945 1 17916587694552629846
20511035 2 17981018852818320860
21501502 16 18267860593181889365
22344851 341 18341063921259239558
23236772 104 18200600305635371753
2334 1 18413105039507266519
23419403 2 14234777213994455151
23559900 14 18131075927371614700
241688 4 18124586741643287368
2748010 2 18341890732217144126
5084963 1 18272088361150615796
5255222 1 18339358556975578356
528862 383 18265902345576601968
53812653 166 18272094893874948913

> <PUBCHEM_SHAPE_MULTIPOLES>
294.06
3.43
2.46
1.13
0.2
0.41
-0.03
-0.32
0.61
-0.15
0.32
0.09
-0.17
-0.37

> <PUBCHEM_SHAPE_SELFOVERLAP>
642.309

> <PUBCHEM_SHAPE_VOLUME>
159.9

> <PUBCHEM_COORDINATE_TYPE>
2
5
10

$$$$
