101951238
  -OEChem-09222004493D

 47 52  0     1  0  0  0  0  0999 V2000
   -3.7155   -0.2222    1.4381 O   0  0  0  0  0  0  0  0  0  0  0  0
   -0.3062    2.4325   -0.9155 O   0  0  0  0  0  0  0  0  0  0  0  0
   -0.3677   -2.0270   -0.2903 O   0  0  0  0  0  0  0  0  0  0  0  0
    2.3941   -2.8332   -0.4487 O   0  0  0  0  0  0  0  0  0  0  0  0
   -2.2992   -0.5274    1.4168 N   0  0  1  0  0  0  0  0  0  0  0  0
    1.8993   -1.5513   -0.2562 N   0  0  0  0  0  0  0  0  0  0  0  0
   -3.0670   -0.4749    0.1781 C   0  0  2  0  0  0  0  0  0  0  0  0
   -2.7162    0.7568   -0.6109 C   0  0  1  0  0  0  0  0  0  0  0  0
   -2.2536    1.7328    0.4753 C   0  0  1  0  0  0  0  0  0  0  0  0
   -1.6299    0.7910    1.5383 C   0  0  2  0  0  0  0  0  0  0  0  0
   -1.5962    0.5240   -1.6302 C   0  0  0  0  0  0  0  0  0  0  0  0
    0.4673    0.3079    0.0275 C   0  0  1  0  0  0  0  0  0  0  0  0
   -0.1076    0.6248    1.4272 C   0  0  0  0  0  0  0  0  0  0  0  0
   -0.2173    1.0256   -1.1677 C   0  0  2  0  0  0  0  0  0  0  0  0
   -1.3571    2.8451   -0.0494 C   0  0  0  0  0  0  0  0  0  0  0  0
   -3.5863   -1.6996   -0.4861 C   0  0  0  0  0  0  0  0  0  0  0  0
    1.9675    0.6743    0.0357 C   0  0  0  0  0  0  0  0  0  0  0  0
    0.5634   -1.2430   -0.2015 C   0  0  0  0  0  0  0  0  0  0  0  0
   -4.8755   -1.4660   -1.2345 C   0  0  0  0  0  0  0  0  0  0  0  0
    2.7459   -0.4690   -0.1506 C   0  0  0  0  0  0  0  0  0  0  0  0
    2.5836    1.9078    0.1881 C   0  0  0  0  0  0  0  0  0  0  0  0
    4.1269   -0.4367   -0.1994 C   0  0  0  0  0  0  0  0  0  0  0  0
    3.9805    1.9671    0.1435 C   0  0  0  0  0  0  0  0  0  0  0  0
    4.7454    0.8046   -0.0502 C   0  0  0  0  0  0  0  0  0  0  0  0
    2.6215   -3.4441    0.8227 C   0  0  0  0  0  0  0  0  0  0  0  0
   -3.6047    1.1480   -1.1198 H   0  0  0  0  0  0  0  0  0  0  0  0
   -3.1390    2.2001    0.9310 H   0  0  0  0  0  0  0  0  0  0  0  0
   -1.8403    1.1941    2.5380 H   0  0  0  0  0  0  0  0  0  0  0  0
   -1.5425   -0.5119   -1.9731 H   0  0  0  0  0  0  0  0  0  0  0  0
   -1.8611    1.1128   -2.5205 H   0  0  0  0  0  0  0  0  0  0  0  0
    0.3326    1.5584    1.8043 H   0  0  0  0  0  0  0  0  0  0  0  0
    0.2197   -0.1422    2.1444 H   0  0  0  0  0  0  0  0  0  0  0  0
    0.4422    0.9258   -2.0410 H   0  0  0  0  0  0  0  0  0  0  0  0
   -1.9649    3.5568   -0.6200 H   0  0  0  0  0  0  0  0  0  0  0  0
   -0.9147    3.4108    0.7777 H   0  0  0  0  0  0  0  0  0  0  0  0
   -2.8436   -2.1062   -1.1795 H   0  0  0  0  0  0  0  0  0  0  0  0
   -3.7570   -2.4871    0.2597 H   0  0  0  0  0  0  0  0  0  0  0  0
   -5.6478   -1.0552   -0.5760 H   0  0  0  0  0  0  0  0  0  0  0  0
   -5.2501   -2.4060   -1.6522 H   0  0  0  0  0  0  0  0  0  0  0  0
   -4.7351   -0.7658   -2.0641 H   0  0  0  0  0  0  0  0  0  0  0  0
    2.0089    2.8143    0.3418 H   0  0  0  0  0  0  0  0  0  0  0  0
    4.7190   -1.3325   -0.3470 H   0  0  0  0  0  0  0  0  0  0  0  0
    4.4819    2.9243    0.2605 H   0  0  0  0  0  0  0  0  0  0  0  0
    5.8293    0.8751   -0.0818 H   0  0  0  0  0  0  0  0  0  0  0  0
    2.9858   -4.4603    0.6489 H   0  0  0  0  0  0  0  0  0  0  0  0
    1.6892   -3.5032    1.3934 H   0  0  0  0  0  0  0  0  0  0  0  0
    3.3796   -2.8978    1.3921 H   0  0  0  0  0  0  0  0  0  0  0  0
  1  5  1  0  0  0  0
  1  7  1  0  0  0  0
  2 14  1  0  0  0  0
  2 15  1  0  0  0  0
  3 18  2  0  0  0  0
  4  6  1  0  0  0  0
  4 25  1  0  0  0  0
  5  7  1  0  0  0  0
  5 10  1  0  0  0  0
  6 18  1  0  0  0  0
  6 20  1  0  0  0  0
  7  8  1  0  0  0  0
  7 16  1  0  0  0  0
  8  9  1  0  0  0  0
  8 11  1  0  0  0  0
  8 26  1  0  0  0  0
  9 10  1  0  0  0  0
  9 15  1  0  0  0  0
  9 27  1  0  0  0  0
 10 13  1  0  0  0  0
 10 28  1  0  0  0  0
 11 14  1  0  0  0  0
 11 29  1  0  0  0  0
 11 30  1  0  0  0  0
 12 13  1  0  0  0  0
 12 14  1  0  0  0  0
 12 17  1  0  0  0  0
 12 18  1  0  0  0  0
 13 31  1  0  0  0  0
 13 32  1  0  0  0  0
 14 33  1  0  0  0  0
 15 34  1  0  0  0  0
 15 35  1  0  0  0  0
 16 19  1  0  0  0  0
 16 36  1  0  0  0  0
 16 37  1  0  0  0  0
 17 20  1  0  0  0  0
 17 21  2  0  0  0  0
 19 38  1  0  0  0  0
 19 39  1  0  0  0  0
 19 40  1  0  0  0  0
 20 22  2  0  0  0  0
 21 23  1  0  0  0  0
 21 41  1  0  0  0  0
 22 24  1  0  0  0  0
 22 42  1  0  0  0  0
 23 24  2  0  0  0  0
 23 43  1  0  0  0  0
 24 44  1  0  0  0  0
 25 45  1  0  0  0  0
 25 46  1  0  0  0  0
 25 47  1  0  0  0  0
M  END
> <PUBCHEM_COMPOUND_CID>
101951238

> <PUBCHEM_CONFORMER_RMSD>
0.6

> <PUBCHEM_CONFORMER_DIVERSEORDER>
1
2

> <PUBCHEM_MMFF94_PARTIAL_CHARGES>
25
1 -0.05
10 0.27
12 0.2
14 0.28
15 0.28
16 0.09
17 -0.14
18 0.57
2 -0.56
20 0.12
21 -0.15
22 -0.15
23 -0.15
24 -0.15
25 0.28
3 -0.57
4 -0.32
41 0.15
42 0.15
43 0.15
44 0.15
5 -0.53
6 -0.14
7 0.12
8 0.09

> <PUBCHEM_EFFECTIVE_ROTOR_COUNT>
3.2

> <PUBCHEM_PHARMACOPHORE_FEATURES>
7
1 19 hydrophobe
1 2 acceptor
1 3 acceptor
5 6 12 17 18 20 rings
6 1 5 7 8 9 10 rings
6 17 20 21 22 23 24 rings
9 2 8 9 10 11 12 13 14 15 rings

> <PUBCHEM_HEAVY_ATOM_COUNT>
25

> <PUBCHEM_ATOM_DEF_STEREO_COUNT>
6

> <PUBCHEM_ATOM_UDEF_STEREO_COUNT>
0

> <PUBCHEM_BOND_DEF_STEREO_COUNT>
0

> <PUBCHEM_BOND_UDEF_STEREO_COUNT>
0

> <PUBCHEM_ISOTOPIC_ATOM_COUNT>
0

> <PUBCHEM_COMPONENT_COUNT>
1

> <PUBCHEM_CACTVS_TAUTO_COUNT>
1

> <PUBCHEM_CONFORMER_ID>
0613A70600000001

> <PUBCHEM_MMFF94_ENERGY>
93.3875

> <PUBCHEM_FEATURE_SELFOVERLAP>
35.825

> <PUBCHEM_SHAPE_FINGERPRINT>
10074138 170 17474356529571893808
10366900 7 18187654608849300258
10863032 1 18341328903609181781
10948715 1 18051415067955521753
10967382 1 18338797922330964702
1100329 8 17836082642946704119
11578080 2 17242163540449374446
12011746 2 18336826501902945909
12236239 1 17703794759769849741
12403259 226 18411415082183951444
12403260 363 18408880737909587304
12633257 1 17908997503893346625
13004483 165 18340194203630763487
13083527 12 18190438533404515298
13140716 1 18266460004520574930
13224815 77 18410854343711036420
13544653 18 18335425698730688421
13911987 19 18116437140189513556
14223421 5 18338521833148382096
14289901 80 18341332210464773296
14341114 328 17632029622934571617
14787075 74 17916587698858309184
15209289 33 18059578052353245936
15309172 13 18410577318505262104
16945 1 18410301332137903728
17349148 13 17967254221458783860
17357779 13 18114175380430850117
17492 89 18340204072928286367
19591789 44 18411421692185826606
19930381 70 18339358686041258472
200 152 18341608256840198461
21501502 16 18265615377299770400
22393880 68 18341054004300929942
23402539 116 18260265269767681425
23557571 272 17530974557224254889
23559900 14 18195799679076193514
2871803 45 18411695517166413127
350125 39 18340205301974053200
3797600 57 17560803264098260250
46194498 28 17606948762753198471
5283173 99 18041824131158388581
6913067 236 18263346127197472244
70251023 43 18191015717064503099
9709674 26 18335145249982532634

> <PUBCHEM_SHAPE_MULTIPOLES>
481.05
7.76
3.02
1.26
1
1.27
-0.18
1.58
0.66
1.41
-0.01
-1.05
-0.08
-0.49

> <PUBCHEM_SHAPE_SELFOVERLAP>
1077.678

> <PUBCHEM_SHAPE_VOLUME>
252.8

> <PUBCHEM_COORDINATE_TYPE>
2
5
10

$$$$
