101953000
  -OEChem-09222006323D

 54 56  0     1  0  0  0  0  0999 V2000
   -0.9592   -0.5897   -1.0619 O   0  0  0  0  0  0  0  0  0  0  0  0
    2.8234   -2.5465    0.8937 O   0  0  0  0  0  0  0  0  0  0  0  0
    1.4126    0.7194   -1.6512 O   0  0  0  0  0  0  0  0  0  0  0  0
    4.7731   -1.2721   -0.9649 O   0  0  0  0  0  0  0  0  0  0  0  0
   -2.8687   -0.9434    0.2313 O   0  0  0  0  0  0  0  0  0  0  0  0
   -1.9656    1.9456   -1.8152 O   0  0  0  0  0  0  0  0  0  0  0  0
   -4.9097    2.0277   -1.7368 O   0  0  0  0  0  0  0  0  0  0  0  0
    2.9636    1.9886    1.8079 O   0  0  0  0  0  0  0  0  0  0  0  0
   -5.8821    1.0572    0.8065 O   0  0  0  0  0  0  0  0  0  0  0  0
    4.5645    2.7084    0.2985 O   0  0  0  0  0  0  0  0  0  0  0  0
   -3.7873   -2.2110    2.4907 O   0  0  0  0  0  0  0  0  0  0  0  0
    2.4495   -1.6737   -0.1720 C   0  0  1  0  0  0  0  0  0  0  0  0
    1.0165   -2.0002   -0.6881 C   0  0  2  0  0  0  0  0  0  0  0  0
    2.3747   -0.2237    0.3765 C   0  0  2  0  0  0  0  0  0  0  0  0
    0.1654   -0.8027   -0.2297 C   0  0  1  0  0  0  0  0  0  0  0  0
    1.1359    0.3761   -0.2977 C   0  0  2  0  0  0  0  0  0  0  0  0
    3.4877   -1.8158   -1.2961 C   0  0  0  0  0  0  0  0  0  0  0  0
    3.6555    0.5224    0.1853 C   0  0  0  0  0  0  0  0  0  0  0  0
    0.4397   -3.3319   -0.2198 C   0  0  0  0  0  0  0  0  0  0  0  0
   -2.0265    0.0446   -0.3580 C   0  0  2  0  0  0  0  0  0  0  0  0
    4.7248   -0.0213   -0.4063 C   0  0  0  0  0  0  0  0  0  0  0  0
   -2.8127    0.8914   -1.3586 C   0  0  1  0  0  0  0  0  0  0  0  0
   -4.0659    1.4886   -0.7182 C   0  0  2  0  0  0  0  0  0  0  0  0
   -4.8603    0.4249    0.0400 C   0  0  1  0  0  0  0  0  0  0  0  0
   -3.9468   -0.3719    0.9743 C   0  0  1  0  0  0  0  0  0  0  0  0
    3.8008    1.8664    0.7462 C   0  0  0  0  0  0  0  0  0  0  0  0
   -4.6935   -1.5151    1.6545 C   0  0  0  0  0  0  0  0  0  0  0  0
    2.9906    3.2578    2.4691 C   0  0  0  0  0  0  0  0  0  0  0  0
    1.0080   -2.0165   -1.7868 H   0  0  0  0  0  0  0  0  0  0  0  0
    2.1746   -0.2870    1.4564 H   0  0  0  0  0  0  0  0  0  0  0  0
   -0.1467   -0.9753    0.8112 H   0  0  0  0  0  0  0  0  0  0  0  0
    0.7449    1.2623    0.2115 H   0  0  0  0  0  0  0  0  0  0  0  0
    3.6471   -2.8753   -1.5265 H   0  0  0  0  0  0  0  0  0  0  0  0
    3.1532   -1.3280   -2.2201 H   0  0  0  0  0  0  0  0  0  0  0  0
   -0.5474   -3.4964   -0.6654 H   0  0  0  0  0  0  0  0  0  0  0  0
    1.0856   -4.1624   -0.5226 H   0  0  0  0  0  0  0  0  0  0  0  0
    0.3165   -3.3677    0.8674 H   0  0  0  0  0  0  0  0  0  0  0  0
   -1.6198    0.6970    0.4277 H   0  0  0  0  0  0  0  0  0  0  0  0
    2.1988   -2.4216    1.6279 H   0  0  0  0  0  0  0  0  0  0  0  0
    5.6970    0.4484   -0.4748 H   0  0  0  0  0  0  0  0  0  0  0  0
    1.9843    1.5056   -1.6449 H   0  0  0  0  0  0  0  0  0  0  0  0
   -3.0785    0.2954   -2.2398 H   0  0  0  0  0  0  0  0  0  0  0  0
   -3.8080    2.3268   -0.0603 H   0  0  0  0  0  0  0  0  0  0  0  0
   -5.3544   -0.2449   -0.6744 H   0  0  0  0  0  0  0  0  0  0  0  0
   -3.5266    0.2721    1.7589 H   0  0  0  0  0  0  0  0  0  0  0  0
   -5.0767   -2.2255    0.9143 H   0  0  0  0  0  0  0  0  0  0  0  0
   -5.5229   -1.1461    2.2653 H   0  0  0  0  0  0  0  0  0  0  0  0
   -1.7115    2.4832   -1.0457 H   0  0  0  0  0  0  0  0  0  0  0  0
   -5.1423    1.3088   -2.3489 H   0  0  0  0  0  0  0  0  0  0  0  0
   -5.4533    1.6437    1.4528 H   0  0  0  0  0  0  0  0  0  0  0  0
   -4.2819   -2.9359    2.9095 H   0  0  0  0  0  0  0  0  0  0  0  0
    2.2794    3.2240    3.2986 H   0  0  0  0  0  0  0  0  0  0  0  0
    2.6877    4.0505    1.7783 H   0  0  0  0  0  0  0  0  0  0  0  0
    3.9895    3.4548    2.8699 H   0  0  0  0  0  0  0  0  0  0  0  0
  1 15  1  0  0  0  0
  1 20  1  0  0  0  0
  2 12  1  0  0  0  0
  2 39  1  0  0  0  0
  3 16  1  0  0  0  0
  3 41  1  0  0  0  0
  4 17  1  0  0  0  0
  4 21  1  0  0  0  0
  5 20  1  0  0  0  0
  5 25  1  0  0  0  0
  6 22  1  0  0  0  0
  6 48  1  0  0  0  0
  7 23  1  0  0  0  0
  7 49  1  0  0  0  0
  8 26  1  0  0  0  0
  8 28  1  0  0  0  0
  9 24  1  0  0  0  0
  9 50  1  0  0  0  0
 10 26  2  0  0  0  0
 11 27  1  0  0  0  0
 11 51  1  0  0  0  0
 12 13  1  0  0  0  0
 12 14  1  0  0  0  0
 12 17  1  0  0  0  0
 13 15  1  0  0  0  0
 13 19  1  0  0  0  0
 13 29  1  0  0  0  0
 14 16  1  0  0  0  0
 14 18  1  0  0  0  0
 14 30  1  0  0  0  0
 15 16  1  0  0  0  0
 15 31  1  0  0  0  0
 16 32  1  0  0  0  0
 17 33  1  0  0  0  0
 17 34  1  0  0  0  0
 18 21  2  0  0  0  0
 18 26  1  0  0  0  0
 19 35  1  0  0  0  0
 19 36  1  0  0  0  0
 19 37  1  0  0  0  0
 20 22  1  0  0  0  0
 20 38  1  0  0  0  0
 21 40  1  0  0  0  0
 22 23  1  0  0  0  0
 22 42  1  0  0  0  0
 23 24  1  0  0  0  0
 23 43  1  0  0  0  0
 24 25  1  0  0  0  0
 24 44  1  0  0  0  0
 25 27  1  0  0  0  0
 25 45  1  0  0  0  0
 27 46  1  0  0  0  0
 27 47  1  0  0  0  0
 28 52  1  0  0  0  0
 28 53  1  0  0  0  0
 28 54  1  0  0  0  0
M  END
> <PUBCHEM_COMPOUND_CID>
101953000

> <PUBCHEM_CONFORMER_RMSD>
0.8

> <PUBCHEM_CONFORMER_DIVERSEORDER>
1
41
96
78
66
43
117
125
97
80
5
34
18
95
39
32
142
6
144
89
2
139
33
103
59
24
149
11
50
61
4
56
123
15
46
113
8
12
51
40
132
90
88
147
150
136
124
30
63
55
134
101
53
106
21
3
65
143
81
115
9
29
72
74
133
42
137
135
141
67
131
138
127
13
126
20
114
57
107
105
54
128
23
44
79
28
98
118
108
22
93
69
25
17
122
120
45
37
86
60
68
73
91
100
16
145
77
10
99
130
19
116
102
71
62
112
119
148
7
76
48
36
83
104
84
87
49
52
110
64
14
70
75
35
140
92
38
121
146
94
129
82
47
31
109
85
26
27
58
111

> <PUBCHEM_MMFF94_PARTIAL_CHARGES>
33
1 -0.56
10 -0.57
11 -0.68
12 0.28
14 0.14
15 0.28
16 0.28
17 0.28
18 -0.12
2 -0.68
20 0.56
21 -0.07
22 0.28
23 0.28
24 0.28
25 0.28
26 0.71
27 0.28
28 0.28
3 -0.68
39 0.4
4 -0.36
40 0.15
41 0.4
48 0.4
49 0.4
5 -0.56
50 0.4
51 0.4
6 -0.68
7 -0.68
8 -0.43
9 -0.68

> <PUBCHEM_EFFECTIVE_ROTOR_COUNT>
7.2

> <PUBCHEM_PHARMACOPHORE_FEATURES>
19
1 1 acceptor
1 10 acceptor
1 11 acceptor
1 11 donor
1 2 acceptor
1 2 donor
1 3 acceptor
1 3 donor
1 4 acceptor
1 5 acceptor
1 6 acceptor
1 6 donor
1 7 acceptor
1 7 donor
1 9 acceptor
1 9 donor
5 12 13 14 15 16 rings
6 4 12 14 17 18 21 rings
6 5 20 22 23 24 25 rings

> <PUBCHEM_HEAVY_ATOM_COUNT>
28

> <PUBCHEM_ATOM_DEF_STEREO_COUNT>
10

> <PUBCHEM_ATOM_UDEF_STEREO_COUNT>
0

> <PUBCHEM_BOND_DEF_STEREO_COUNT>
0

> <PUBCHEM_BOND_UDEF_STEREO_COUNT>
0

> <PUBCHEM_ISOTOPIC_ATOM_COUNT>
0

> <PUBCHEM_COMPONENT_COUNT>
1

> <PUBCHEM_CACTVS_TAUTO_COUNT>
1

> <PUBCHEM_CONFORMER_ID>
0613ADE800000001

> <PUBCHEM_MMFF94_ENERGY>
92.2134

> <PUBCHEM_FEATURE_SELFOVERLAP>
96.598

> <PUBCHEM_SHAPE_FINGERPRINT>
10165383 225 18339648966143829604
10319926 262 17895180087659873320
10366900 7 18337950070032807005
10615611 76 16629984190897623313
11045977 3 18409454669746198891
11370993 144 18341060610124141811
11595378 159 16443057266651831925
12236239 1 16486970661822485919
12403259 415 18409173224528089724
12769317 202 18130495427374979840
13034934 17 18336824307401354947
13583140 156 18412824672885390847
13590594 115 17774731848960238080
13675066 3 18408326605054383463
14341114 176 17968950686306658751
14508693 111 16155968368300760627
14848178 96 18059000813175987208
15629462 23 17767142912315645874
17349148 13 13984662551023031801
1768 85 18200876304497670993
17844677 252 18130515158280326237
18681886 176 17604448374137017342
20775530 9 12470566797210158808
21033648 29 18339069488623497104
21065201 7 17603868875416101875
21792961 116 18268157466339439590
22122407 14 17703241633071539945
23557571 272 18041005024954386229
23559900 14 17896039853802093503
3178227 256 18410577245781046698
469060 322 18047738588871769895
474 4 17846209020790561160
49207404 50 18408039636682554251
495365 180 18268409292074957678
5104073 3 18260830354520160011
57724786 102 18130794442876873001
602551 16 17530972405356053603
613672 6 17534915379351791123
633830 44 18060129946976360822
6442390 28 18260551168882791586
6823239 73 18113345206228690420
7808743 9 18047468109196199988
9777508 108 18194962065954247690

> <PUBCHEM_SHAPE_MULTIPOLES>
511.66
11.89
3.28
1.83
8.56
0.3
-0.59
4
-1.78
-2.92
-1.19
1.27
0.63
3.68

> <PUBCHEM_SHAPE_SELFOVERLAP>
1078.254

> <PUBCHEM_SHAPE_VOLUME>
285.7

> <PUBCHEM_COORDINATE_TYPE>
2
5
10

$$$$
