5321582
  -OEChem-09222006193D

 49 52  0     1  0  0  0  0  0999 V2000
   -0.7000   -2.4485    0.8793 O   0  0  0  0  0  0  0  0  0  0  0  0
   -1.1900    1.7134    0.1389 N   0  0  2  0  0  0  0  0  0  0  0  0
    2.0146   -1.3846   -1.0012 N   0  0  0  0  0  0  0  0  0  0  0  0
   -2.8118   -1.0566   -0.4873 C   0  0  1  0  0  0  0  0  0  0  0  0
   -1.4291   -1.1942   -1.1629 C   0  0  0  0  0  0  0  0  0  0  0  0
   -0.3293   -1.9581   -0.4032 C   0  0  1  0  0  0  0  0  0  0  0  0
   -3.0005   -1.8921    0.7906 C   0  0  0  0  0  0  0  0  0  0  0  0
    0.9137   -1.1380   -0.2138 C   0  0  0  0  0  0  0  0  0  0  0  0
   -3.2671    0.3916   -0.2985 C   0  0  0  0  0  0  0  0  0  0  0  0
   -1.9992   -3.0231    0.8805 C   0  0  0  0  0  0  0  0  0  0  0  0
    1.2433   -0.0940    0.6435 C   0  0  0  0  0  0  0  0  0  0  0  0
   -2.5069    1.3010    0.6511 C   0  0  0  0  0  0  0  0  0  0  0  0
    0.3769    0.5559    1.6844 C   0  0  0  0  0  0  0  0  0  0  0  0
   -0.2119    1.8989    1.2198 C   0  0  0  0  0  0  0  0  0  0  0  0
    2.6033    0.2729    0.3562 C   0  0  0  0  0  0  0  0  0  0  0  0
    3.0520   -0.5488   -0.6747 C   0  0  0  0  0  0  0  0  0  0  0  0
   -4.3674    0.8468   -0.9237 C   0  0  0  0  0  0  0  0  0  0  0  0
   -1.3021    2.9225   -0.6788 C   0  0  0  0  0  0  0  0  0  0  0  0
    3.4922    1.2370    0.8794 C   0  0  0  0  0  0  0  0  0  0  0  0
    4.3415   -0.4607   -1.2119 C   0  0  0  0  0  0  0  0  0  0  0  0
   -4.9100    2.2198   -0.7463 C   0  0  0  0  0  0  0  0  0  0  0  0
    4.7857    1.3385    0.3549 C   0  0  0  0  0  0  0  0  0  0  0  0
    5.2021    0.5005   -0.6761 C   0  0  0  0  0  0  0  0  0  0  0  0
   -3.5067   -1.5093   -1.2127 H   0  0  0  0  0  0  0  0  0  0  0  0
   -1.0638   -0.2377   -1.5544 H   0  0  0  0  0  0  0  0  0  0  0  0
   -1.5975   -1.7671   -2.0891 H   0  0  0  0  0  0  0  0  0  0  0  0
   -0.0641   -2.8417   -1.0011 H   0  0  0  0  0  0  0  0  0  0  0  0
   -4.0208   -2.2936    0.8236 H   0  0  0  0  0  0  0  0  0  0  0  0
   -2.8882   -1.2748    1.6874 H   0  0  0  0  0  0  0  0  0  0  0  0
   -2.1284   -3.5624    1.8241 H   0  0  0  0  0  0  0  0  0  0  0  0
   -2.1076   -3.7457    0.0631 H   0  0  0  0  0  0  0  0  0  0  0  0
   -3.0821    2.1758    0.9765 H   0  0  0  0  0  0  0  0  0  0  0  0
   -2.3857    0.7431    1.5856 H   0  0  0  0  0  0  0  0  0  0  0  0
   -0.4101   -0.1305    2.0112 H   0  0  0  0  0  0  0  0  0  0  0  0
    0.9887    0.7400    2.5773 H   0  0  0  0  0  0  0  0  0  0  0  0
   -0.6668    2.4250    2.0690 H   0  0  0  0  0  0  0  0  0  0  0  0
    0.6178    2.5305    0.8762 H   0  0  0  0  0  0  0  0  0  0  0  0
    2.0573   -2.0919   -1.7217 H   0  0  0  0  0  0  0  0  0  0  0  0
   -4.9319    0.1858   -1.5762 H   0  0  0  0  0  0  0  0  0  0  0  0
   -1.9558    2.7537   -1.5404 H   0  0  0  0  0  0  0  0  0  0  0  0
   -0.3254    3.1964   -1.0941 H   0  0  0  0  0  0  0  0  0  0  0  0
   -1.6820    3.7761   -0.1063 H   0  0  0  0  0  0  0  0  0  0  0  0
    3.1834    1.8999    1.6829 H   0  0  0  0  0  0  0  0  0  0  0  0
    4.6653   -1.1137   -2.0155 H   0  0  0  0  0  0  0  0  0  0  0  0
   -5.5626    2.4571   -1.5942 H   0  0  0  0  0  0  0  0  0  0  0  0
   -4.1465    2.9996   -0.7278 H   0  0  0  0  0  0  0  0  0  0  0  0
   -5.5201    2.2793    0.1601 H   0  0  0  0  0  0  0  0  0  0  0  0
    5.4706    2.0801    0.7571 H   0  0  0  0  0  0  0  0  0  0  0  0
    6.2104    0.5947   -1.0708 H   0  0  0  0  0  0  0  0  0  0  0  0
  1  6  1  0  0  0  0
  1 10  1  0  0  0  0
  2 12  1  0  0  0  0
  2 14  1  0  0  0  0
  2 18  1  0  0  0  0
  3  8  1  0  0  0  0
  3 16  1  0  0  0  0
  3 38  1  0  0  0  0
  4  5  1  0  0  0  0
  4  7  1  0  0  0  0
  4  9  1  0  0  0  0
  4 24  1  0  0  0  0
  5  6  1  0  0  0  0
  5 25  1  0  0  0  0
  5 26  1  0  0  0  0
  6  8  1  0  0  0  0
  6 27  1  0  0  0  0
  7 10  1  0  0  0  0
  7 28  1  0  0  0  0
  7 29  1  0  0  0  0
  8 11  2  0  0  0  0
  9 12  1  0  0  0  0
  9 17  2  0  0  0  0
 10 30  1  0  0  0  0
 10 31  1  0  0  0  0
 11 13  1  0  0  0  0
 11 15  1  0  0  0  0
 12 32  1  0  0  0  0
 12 33  1  0  0  0  0
 13 14  1  0  0  0  0
 13 34  1  0  0  0  0
 13 35  1  0  0  0  0
 14 36  1  0  0  0  0
 14 37  1  0  0  0  0
 15 16  1  0  0  0  0
 15 19  2  0  0  0  0
 16 20  2  0  0  0  0
 17 21  1  0  0  0  0
 17 39  1  0  0  0  0
 18 40  1  0  0  0  0
 18 41  1  0  0  0  0
 18 42  1  0  0  0  0
 19 22  1  0  0  0  0
 19 43  1  0  0  0  0
 20 23  1  0  0  0  0
 20 44  1  0  0  0  0
 21 45  1  0  0  0  0
 21 46  1  0  0  0  0
 21 47  1  0  0  0  0
 22 23  2  0  0  0  0
 22 48  1  0  0  0  0
 23 49  1  0  0  0  0
M  END
> <PUBCHEM_COMPOUND_CID>
5321582

> <PUBCHEM_CONFORMER_RMSD>
0.6

> <PUBCHEM_CONFORMER_DIVERSEORDER>
4
5
23
39
14
34
9
29
25
37
33
31
26
8
35
12
11
19
28
22
20
18
36
15
17
27
2
3
7
10
21
6
38
32
30
13
1
16
24

> <PUBCHEM_MMFF94_PARTIAL_CHARGES>
26
1 -0.56
10 0.28
11 -0.18
12 0.41
13 0.18
14 0.27
16 -0.15
17 -0.29
18 0.27
19 -0.15
2 -0.81
20 -0.15
21 0.14
22 -0.15
23 -0.15
3 0.03
38 0.27
39 0.15
4 0.14
43 0.15
44 0.15
48 0.15
49 0.15
6 0.46
8 -0.33
9 -0.28

> <PUBCHEM_EFFECTIVE_ROTOR_COUNT>
1.6

> <PUBCHEM_PHARMACOPHORE_FEATURES>
8
1 1 acceptor
1 2 cation
1 21 hydrophobe
1 3 cation
1 3 donor
5 3 8 11 15 16 rings
6 1 4 5 6 7 10 rings
6 15 16 19 20 22 23 rings

> <PUBCHEM_HEAVY_ATOM_COUNT>
23

> <PUBCHEM_ATOM_DEF_STEREO_COUNT>
0

> <PUBCHEM_ATOM_UDEF_STEREO_COUNT>
2

> <PUBCHEM_BOND_DEF_STEREO_COUNT>
1

> <PUBCHEM_BOND_UDEF_STEREO_COUNT>
0

> <PUBCHEM_ISOTOPIC_ATOM_COUNT>
0

> <PUBCHEM_COMPONENT_COUNT>
1

> <PUBCHEM_CACTVS_TAUTO_COUNT>
1

> <PUBCHEM_CONFORMER_ID>
0051336E00000004

> <PUBCHEM_MMFF94_ENERGY>
61.3788

> <PUBCHEM_FEATURE_SELFOVERLAP>
40.685

> <PUBCHEM_SHAPE_FINGERPRINT>
10498660 4 18409725136658465485
10759866 29 18187642458149651050
107951 10 18334576832815500003
11112241 14 16628251458861189289
11370993 70 18336542712055050197
11961588 58 18187631510568007989
12011746 2 18273490165867859277
12788726 201 18129941161354905473
12969540 114 18189038846723282237
13034934 17 17556561468829824800
13224815 77 18131636720428377602
13402501 40 18343299288248566469
13583140 156 17458070378067175648
14251745 187 18272642472003151081
14363568 33 17257387756041023385
14790565 3 18196376918676751601
15163728 17 17534046481639470933
15196674 1 18343862216721668789
17357779 13 18128242588010143975
173720 79 18041545971310380312
17492 54 18339344289832498485
18608769 82 18411135871055672563
200 152 16487262066869105770
20715895 44 18189046508728998205
20871999 31 18409724084670896821
221357 26 17988916804118357789
22182313 1 18056470888338431744
23227448 37 18335422421375762532
23402539 116 18409722989380272950
23493267 7 18334853952441976986
23557571 272 18337962301931088054
23559900 14 18341896273516389398
238 59 17618757190769942877
2748010 2 18054495065980052833
2871803 45 18201151044849551629
350125 39 18046060454532695198
3759504 43 18187364324826262571
4028521 119 18413386523152851301
469060 322 17896622728514892307
59755656 520 18040992921330922846
70251023 43 17765705115783446847
9709674 26 18130517348924774022
9981440 41 18408599262411170403

> <PUBCHEM_SHAPE_MULTIPOLES>
457.5
9.11
2.96
1.28
5.13
0.35
-0.14
-3.76
2.67
-2.88
-0.31
0.08
0
1.35

> <PUBCHEM_SHAPE_SELFOVERLAP>
981.999

> <PUBCHEM_SHAPE_VOLUME>
251.7

> <PUBCHEM_COORDINATE_TYPE>
2
5
10

$$$$
