101727431
  -OEChem-09202016133D

 61 65  0     1  0  0  0  0  0999 V2000
   -0.2869   -0.3667    2.3472 O   0  0  0  0  0  0  0  0  0  0  0  0
    1.3773   -2.2913    1.1048 O   0  0  0  0  0  0  0  0  0  0  0  0
    5.0153    1.6507   -0.9199 O   0  0  0  0  0  0  0  0  0  0  0  0
   -0.1473    0.3176   -2.1389 O   0  0  0  0  0  0  0  0  0  0  0  0
   -2.8513   -0.2502   -2.8843 O   0  0  0  0  0  0  0  0  0  0  0  0
    0.3460   -3.3942   -0.6435 O   0  0  0  0  0  0  0  0  0  0  0  0
    1.8637    1.7222   -0.5534 N   0  0  2  0  0  0  0  0  0  0  0  0
   -2.4020    0.1351   -1.6286 N   0  0  0  0  0  0  0  0  0  0  0  0
    2.2397   -0.0746    0.8910 C   0  0  2  0  0  0  0  0  0  0  0  0
    1.6682    1.0530    1.7513 C   0  0  1  0  0  0  0  0  0  0  0  0
    1.1483    2.0505    0.6962 C   0  0  2  0  0  0  0  0  0  0  0  0
    2.9119    0.7312   -0.2581 C   0  0  1  0  0  0  0  0  0  0  0  0
    1.0926   -1.0276    0.4753 C   0  0  2  0  0  0  0  0  0  0  0  0
   -0.9802    0.6058    0.2008 C   0  0  2  0  0  0  0  0  0  0  0  0
   -0.3165   -0.5940    0.9342 C   0  0  2  0  0  0  0  0  0  0  0  0
   -0.3701    1.9995    0.4752 C   0  0  0  0  0  0  0  0  0  0  0  0
    0.6732    0.5767    2.8004 C   0  0  0  0  0  0  0  0  0  0  0  0
    3.2446   -0.1245   -1.4921 C   0  0  0  0  0  0  0  0  0  0  0  0
    4.2457    1.3603    0.2229 C   0  0  0  0  0  0  0  0  0  0  0  0
   -2.4796    0.6383    0.5603 C   0  0  0  0  0  0  0  0  0  0  0  0
   -1.0745    0.3379   -1.3451 C   0  0  0  0  0  0  0  0  0  0  0  0
    2.2626    2.8945   -1.3158 C   0  0  0  0  0  0  0  0  0  0  0  0
   -3.2531    0.3455   -0.5642 C   0  0  0  0  0  0  0  0  0  0  0  0
    4.1969   -1.2439   -1.1347 C   0  0  0  0  0  0  0  0  0  0  0  0
   -3.1007    0.9002    1.7724 C   0  0  0  0  0  0  0  0  0  0  0  0
    0.9418   -3.3853    0.4252 C   0  0  0  0  0  0  0  0  0  0  0  0
   -4.6345    0.3027   -0.5340 C   0  0  0  0  0  0  0  0  0  0  0  0
   -4.4979    0.8618    1.8297 C   0  0  0  0  0  0  0  0  0  0  0  0
   -5.2580    0.5651    0.6859 C   0  0  0  0  0  0  0  0  0  0  0  0
    1.3051   -4.6195    1.1938 C   0  0  0  0  0  0  0  0  0  0  0  0
   -2.8805   -1.6768   -2.9539 C   0  0  0  0  0  0  0  0  0  0  0  0
    2.9937   -0.6258    1.4678 H   0  0  0  0  0  0  0  0  0  0  0  0
    2.4905    1.5437    2.2907 H   0  0  0  0  0  0  0  0  0  0  0  0
    1.4087    3.0615    1.0386 H   0  0  0  0  0  0  0  0  0  0  0  0
    1.0811   -1.1852   -0.5994 H   0  0  0  0  0  0  0  0  0  0  0  0
   -0.9777   -1.4624    0.8093 H   0  0  0  0  0  0  0  0  0  0  0  0
   -0.8316    2.4426    1.3677 H   0  0  0  0  0  0  0  0  0  0  0  0
   -0.6391    2.6871   -0.3394 H   0  0  0  0  0  0  0  0  0  0  0  0
    1.2195    0.0882    3.6155 H   0  0  0  0  0  0  0  0  0  0  0  0
    0.1440    1.4220    3.2530 H   0  0  0  0  0  0  0  0  0  0  0  0
    2.3496   -0.5587   -1.9458 H   0  0  0  0  0  0  0  0  0  0  0  0
    3.6701    0.4659   -2.3130 H   0  0  0  0  0  0  0  0  0  0  0  0
    4.8120    0.6665    0.8541 H   0  0  0  0  0  0  0  0  0  0  0  0
    4.1003    2.2783    0.8018 H   0  0  0  0  0  0  0  0  0  0  0  0
    2.7346    2.6120   -2.2619 H   0  0  0  0  0  0  0  0  0  0  0  0
    2.9454    3.5510   -0.7669 H   0  0  0  0  0  0  0  0  0  0  0  0
    1.3806    3.4875   -1.5826 H   0  0  0  0  0  0  0  0  0  0  0  0
    5.1799   -0.8943   -0.8092 H   0  0  0  0  0  0  0  0  0  0  0  0
    4.3693   -1.8647   -2.0217 H   0  0  0  0  0  0  0  0  0  0  0  0
    3.7950   -1.9074   -0.3646 H   0  0  0  0  0  0  0  0  0  0  0  0
   -2.5293    1.1344    2.6638 H   0  0  0  0  0  0  0  0  0  0  0  0
    5.8543    2.0351   -0.6140 H   0  0  0  0  0  0  0  0  0  0  0  0
   -5.2214    0.0772   -1.4170 H   0  0  0  0  0  0  0  0  0  0  0  0
   -5.0031    1.0648    2.7703 H   0  0  0  0  0  0  0  0  0  0  0  0
   -6.3423    0.5418    0.7540 H   0  0  0  0  0  0  0  0  0  0  0  0
    0.9554   -5.5014    0.6494 H   0  0  0  0  0  0  0  0  0  0  0  0
    0.8220   -4.6017    2.1740 H   0  0  0  0  0  0  0  0  0  0  0  0
    2.3909   -4.6841    1.2999 H   0  0  0  0  0  0  0  0  0  0  0  0
   -3.2164   -1.9599   -3.9551 H   0  0  0  0  0  0  0  0  0  0  0  0
   -3.5832   -2.0893   -2.2233 H   0  0  0  0  0  0  0  0  0  0  0  0
   -1.8801   -2.0917   -2.7935 H   0  0  0  0  0  0  0  0  0  0  0  0
  1 15  1  0  0  0  0
  1 17  1  0  0  0  0
  2 13  1  0  0  0  0
  2 26  1  0  0  0  0
  3 19  1  0  0  0  0
  3 52  1  0  0  0  0
  4 21  2  0  0  0  0
  5  8  1  0  0  0  0
  5 31  1  0  0  0  0
  6 26  2  0  0  0  0
  7 11  1  0  0  0  0
  7 12  1  0  0  0  0
  7 22  1  0  0  0  0
  8 21  1  0  0  0  0
  8 23  1  0  0  0  0
  9 10  1  0  0  0  0
  9 12  1  0  0  0  0
  9 13  1  0  0  0  0
  9 32  1  0  0  0  0
 10 11  1  0  0  0  0
 10 17  1  0  0  0  0
 10 33  1  0  0  0  0
 11 16  1  0  0  0  0
 11 34  1  0  0  0  0
 12 18  1  0  0  0  0
 12 19  1  0  0  0  0
 13 15  1  0  0  0  0
 13 35  1  0  0  0  0
 14 15  1  0  0  0  0
 14 16  1  0  0  0  0
 14 20  1  0  0  0  0
 14 21  1  0  0  0  0
 15 36  1  0  0  0  0
 16 37  1  0  0  0  0
 16 38  1  0  0  0  0
 17 39  1  0  0  0  0
 17 40  1  0  0  0  0
 18 24  1  0  0  0  0
 18 41  1  0  0  0  0
 18 42  1  0  0  0  0
 19 43  1  0  0  0  0
 19 44  1  0  0  0  0
 20 23  1  0  0  0  0
 20 25  2  0  0  0  0
 22 45  1  0  0  0  0
 22 46  1  0  0  0  0
 22 47  1  0  0  0  0
 23 27  2  0  0  0  0
 24 48  1  0  0  0  0
 24 49  1  0  0  0  0
 24 50  1  0  0  0  0
 25 28  1  0  0  0  0
 25 51  1  0  0  0  0
 26 30  1  0  0  0  0
 27 29  1  0  0  0  0
 27 53  1  0  0  0  0
 28 29  2  0  0  0  0
 28 54  1  0  0  0  0
 29 55  1  0  0  0  0
 30 56  1  0  0  0  0
 30 57  1  0  0  0  0
 30 58  1  0  0  0  0
 31 59  1  0  0  0  0
 31 60  1  0  0  0  0
 31 61  1  0  0  0  0
M  END
> <PUBCHEM_COMPOUND_CID>
101727431

> <PUBCHEM_CONFORMER_RMSD>
0.8

> <PUBCHEM_CONFORMER_DIVERSEORDER>
1

> <PUBCHEM_MMFF94_PARTIAL_CHARGES>
31
1 -0.56
11 0.27
12 0.27
13 0.28
14 0.2
15 0.28
17 0.28
19 0.28
2 -0.43
20 -0.14
21 0.57
22 0.27
23 0.12
25 -0.15
26 0.66
27 -0.15
28 -0.15
29 -0.15
3 -0.68
30 0.06
31 0.28
4 -0.57
5 -0.32
51 0.15
52 0.4
53 0.15
54 0.15
55 0.15
6 -0.57
7 -0.81
8 -0.14

> <PUBCHEM_EFFECTIVE_ROTOR_COUNT>
6.4

> <PUBCHEM_PHARMACOPHORE_FEATURES>
11
1 1 acceptor
1 24 hydrophobe
1 3 acceptor
1 3 donor
1 4 acceptor
1 6 acceptor
1 7 cation
5 7 9 10 11 12 rings
5 8 14 20 21 23 rings
6 20 23 25 27 28 29 rings
9 1 9 10 11 13 14 15 16 17 rings

> <PUBCHEM_HEAVY_ATOM_COUNT>
31

> <PUBCHEM_ATOM_DEF_STEREO_COUNT>
7

> <PUBCHEM_ATOM_UDEF_STEREO_COUNT>
0

> <PUBCHEM_BOND_DEF_STEREO_COUNT>
0

> <PUBCHEM_BOND_UDEF_STEREO_COUNT>
0

> <PUBCHEM_ISOTOPIC_ATOM_COUNT>
0

> <PUBCHEM_COMPONENT_COUNT>
1

> <PUBCHEM_CACTVS_TAUTO_COUNT>
2

> <PUBCHEM_CONFORMER_ID>
06103CC700000001

> <PUBCHEM_MMFF94_ENERGY>
128.6194

> <PUBCHEM_FEATURE_SELFOVERLAP>
56.479

> <PUBCHEM_SHAPE_FINGERPRINT>
10369192 42 17749967633886871468
10863032 1 18196951052291832264
10948715 1 14634864245588149852
11421498 54 18201169758285759817
11488393 25 17968658190354534170
11578080 2 17907024229031875800
12156800 1 17467115063665016551
12160290 23 17611730602366255730
12236239 1 17917438617768748352
12788726 201 17619905497183505903
13224815 77 17095511907965946017
133893 2 18120907565436929771
14713325 29 17330832938375609416
16945 1 18113339699874921088
1813 80 17766560153319096335
19319366 153 18343588425684446707
20691752 17 18198885071738826056
23419403 2 17101765822355962578
23559900 14 17461987779225296899
238 59 17752173262822924749
3060560 45 18261110781477363972
35225 105 17768551717027494351
57527585 21 17604412051551161709
6669772 16 18186523211806792898

> <PUBCHEM_SHAPE_MULTIPOLES>
592.79
7.95
3.31
2.54
3.92
4.41
-0.6
-2.7
-1.59
-3
0.62
1.38
0.4
-1.64

> <PUBCHEM_SHAPE_SELFOVERLAP>
1297.32

> <PUBCHEM_SHAPE_VOLUME>
317.5

> <PUBCHEM_COORDINATE_TYPE>
2
5
10

$$$$
