5318332
  -OEChem-09202014133D

 50 54  0     1  0  0  0  0  0999 V2000
   -0.3643    2.2375   -1.2533 O   0  0  0  0  0  0  0  0  0  0  0  0
   -0.6998   -1.9453    0.4218 O   0  0  0  0  0  0  0  0  0  0  0  0
    1.9792   -2.9885    0.3049 O   0  0  0  0  0  0  0  0  0  0  0  0
    5.9697    0.4549   -0.0020 O   0  0  0  0  0  0  0  0  0  0  0  0
   -2.4810   -0.0247    1.8799 N   0  0  0  0  0  0  0  0  0  0  0  0
    1.5903   -1.6648    0.1582 N   0  0  0  0  0  0  0  0  0  0  0  0
   -2.3705    1.8726    0.1829 C   0  0  1  0  0  0  0  0  0  0  0  0
    0.3093    0.3199    0.1363 C   0  0  2  0  0  0  0  0  0  0  0  0
   -2.8525    0.8428   -0.8496 C   0  0  1  0  0  0  0  0  0  0  0  0
   -1.7831    1.2006    1.4547 C   0  0  2  0  0  0  0  0  0  0  0  0
   -0.3035    0.8068   -1.2053 C   0  0  1  0  0  0  0  0  0  0  0  0
   -0.2602    0.9738    1.4114 C   0  0  0  0  0  0  0  0  0  0  0  0
   -1.6679    0.2256   -1.6054 C   0  0  0  0  0  0  0  0  0  0  0  0
   -1.4013    2.8498   -0.4891 C   0  0  0  0  0  0  0  0  0  0  0  0
   -3.7602   -0.1863   -0.2081 C   0  0  0  0  0  0  0  0  0  0  0  0
    1.8299    0.5692    0.0964 C   0  0  0  0  0  0  0  0  0  0  0  0
    0.2872   -1.2451    0.2568 C   0  0  0  0  0  0  0  0  0  0  0  0
   -3.8112   -0.1702    1.2958 C   0  0  0  0  0  0  0  0  0  0  0  0
    2.5182   -0.6452    0.1086 C   0  0  0  0  0  0  0  0  0  0  0  0
   -4.4865   -1.0511   -0.9333 C   0  0  0  0  0  0  0  0  0  0  0  0
    2.5354    1.7620    0.0465 C   0  0  0  0  0  0  0  0  0  0  0  0
    3.8977   -0.7239    0.0785 C   0  0  0  0  0  0  0  0  0  0  0  0
    3.9327    1.7087    0.0140 C   0  0  0  0  0  0  0  0  0  0  0  0
   -5.4025   -2.0658   -0.3423 C   0  0  0  0  0  0  0  0  0  0  0  0
    4.6076    0.4761    0.0302 C   0  0  0  0  0  0  0  0  0  0  0  0
    2.1874   -3.5894   -0.9888 C   0  0  0  0  0  0  0  0  0  0  0  0
   -3.2430    2.4577    0.5109 H   0  0  0  0  0  0  0  0  0  0  0  0
   -3.4631    1.3900   -1.5839 H   0  0  0  0  0  0  0  0  0  0  0  0
   -1.9461    1.9254    2.2662 H   0  0  0  0  0  0  0  0  0  0  0  0
    0.3851    0.5155   -2.0109 H   0  0  0  0  0  0  0  0  0  0  0  0
    0.2097    1.9549    1.5662 H   0  0  0  0  0  0  0  0  0  0  0  0
    0.0427    0.3927    2.2952 H   0  0  0  0  0  0  0  0  0  0  0  0
   -1.6626   -0.8676   -1.5695 H   0  0  0  0  0  0  0  0  0  0  0  0
   -1.8194    0.4680   -2.6677 H   0  0  0  0  0  0  0  0  0  0  0  0
   -1.9570    3.4916   -1.1828 H   0  0  0  0  0  0  0  0  0  0  0  0
   -0.9415    3.5216    0.2438 H   0  0  0  0  0  0  0  0  0  0  0  0
   -2.5283   -0.0645    2.8971 H   0  0  0  0  0  0  0  0  0  0  0  0
   -4.4637    0.6426    1.6382 H   0  0  0  0  0  0  0  0  0  0  0  0
   -4.2244   -1.0965    1.7043 H   0  0  0  0  0  0  0  0  0  0  0  0
   -4.4110   -1.0331   -2.0176 H   0  0  0  0  0  0  0  0  0  0  0  0
    2.0281    2.7203    0.0347 H   0  0  0  0  0  0  0  0  0  0  0  0
    4.4107   -1.6792    0.0950 H   0  0  0  0  0  0  0  0  0  0  0  0
    4.4997    2.6357   -0.0240 H   0  0  0  0  0  0  0  0  0  0  0  0
   -6.1588   -2.3432   -1.0849 H   0  0  0  0  0  0  0  0  0  0  0  0
   -5.9501   -1.6932    0.5280 H   0  0  0  0  0  0  0  0  0  0  0  0
   -4.8526   -2.9729   -0.0746 H   0  0  0  0  0  0  0  0  0  0  0  0
    2.4578   -4.6368   -0.8322 H   0  0  0  0  0  0  0  0  0  0  0  0
    3.0017   -3.0907   -1.5219 H   0  0  0  0  0  0  0  0  0  0  0  0
    1.2644   -3.5464   -1.5754 H   0  0  0  0  0  0  0  0  0  0  0  0
    6.2707   -0.4698    0.0147 H   0  0  0  0  0  0  0  0  0  0  0  0
  1 11  1  0  0  0  0
  1 14  1  0  0  0  0
  2 17  2  0  0  0  0
  3  6  1  0  0  0  0
  3 26  1  0  0  0  0
  4 25  1  0  0  0  0
  4 50  1  0  0  0  0
  5 10  1  0  0  0  0
  5 18  1  0  0  0  0
  5 37  1  0  0  0  0
  6 17  1  0  0  0  0
  6 19  1  0  0  0  0
  7  9  1  0  0  0  0
  7 10  1  0  0  0  0
  7 14  1  0  0  0  0
  7 27  1  0  0  0  0
  8 11  1  0  0  0  0
  8 12  1  0  0  0  0
  8 16  1  0  0  0  0
  8 17  1  0  0  0  0
  9 13  1  0  0  0  0
  9 15  1  0  0  0  0
  9 28  1  0  0  0  0
 10 12  1  0  0  0  0
 10 29  1  0  0  0  0
 11 13  1  0  0  0  0
 11 30  1  0  0  0  0
 12 31  1  0  0  0  0
 12 32  1  0  0  0  0
 13 33  1  0  0  0  0
 13 34  1  0  0  0  0
 14 35  1  0  0  0  0
 14 36  1  0  0  0  0
 15 18  1  0  0  0  0
 15 20  2  0  0  0  0
 16 19  2  0  0  0  0
 16 21  1  0  0  0  0
 18 38  1  0  0  0  0
 18 39  1  0  0  0  0
 19 22  1  0  0  0  0
 20 24  1  0  0  0  0
 20 40  1  0  0  0  0
 21 23  2  0  0  0  0
 21 41  1  0  0  0  0
 22 25  2  0  0  0  0
 22 42  1  0  0  0  0
 23 25  1  0  0  0  0
 23 43  1  0  0  0  0
 24 44  1  0  0  0  0
 24 45  1  0  0  0  0
 24 46  1  0  0  0  0
 26 47  1  0  0  0  0
 26 48  1  0  0  0  0
 26 49  1  0  0  0  0
M  END
> <PUBCHEM_COMPOUND_CID>
5318332

> <PUBCHEM_CONFORMER_RMSD>
0.6

> <PUBCHEM_CONFORMER_DIVERSEORDER>
1
2
7
5
13
9
11
6
8
14
12
4
3
10

> <PUBCHEM_MMFF94_PARTIAL_CHARGES>
29
1 -0.56
10 0.27
11 0.28
14 0.28
15 -0.28
16 -0.14
17 0.57
18 0.41
19 0.12
2 -0.57
20 -0.29
21 -0.15
22 -0.15
23 -0.15
24 0.14
25 0.08
26 0.28
3 -0.32
37 0.36
4 -0.53
40 0.15
41 0.15
42 0.15
43 0.15
5 -0.9
50 0.45
6 -0.14
8 0.2
9 0.14

> <PUBCHEM_EFFECTIVE_ROTOR_COUNT>
2.4

> <PUBCHEM_PHARMACOPHORE_FEATURES>
10
1 1 acceptor
1 2 acceptor
1 24 hydrophobe
1 4 donor
1 5 cation
1 5 donor
5 6 8 16 17 19 rings
6 16 19 21 22 23 25 rings
6 5 7 9 10 15 18 rings
9 1 7 8 9 10 11 12 13 14 rings

> <PUBCHEM_HEAVY_ATOM_COUNT>
26

> <PUBCHEM_ATOM_DEF_STEREO_COUNT>
0

> <PUBCHEM_ATOM_UDEF_STEREO_COUNT>
5

> <PUBCHEM_BOND_DEF_STEREO_COUNT>
1

> <PUBCHEM_BOND_UDEF_STEREO_COUNT>
0

> <PUBCHEM_ISOTOPIC_ATOM_COUNT>
0

> <PUBCHEM_COMPONENT_COUNT>
1

> <PUBCHEM_CACTVS_TAUTO_COUNT>
3

> <PUBCHEM_CONFORMER_ID>
005126BC00000001

> <PUBCHEM_MMFF94_ENERGY>
99.8493

> <PUBCHEM_FEATURE_SELFOVERLAP>
51.026

> <PUBCHEM_SHAPE_FINGERPRINT>
10 15 18041551577430397968
10366900 7 18040720268570193392
10863032 1 18341045212587647405
11315181 36 15213021553392645260
11578080 2 16880461585268610118
12011746 2 18187080689064238149
12236239 1 17917996096033931328
12403259 226 18335975360229720004
12403260 363 18333726906163948904
13140716 1 18191876827825716968
13224815 77 18337390448383712104
13544653 18 18334017207287552437
13583140 156 17560223752677424089
13911987 19 18116440421396893092
14223421 5 18338519608075689460
14289901 80 18342175514324090457
14341114 328 17917441916556462921
14787075 74 18130509750679137041
15209289 33 18201438120410511472
15238133 3 9799416675868772274
16945 1 18409739451604984928
17349148 13 17894351085598857876
17357779 13 17967532389468925765
17492 89 18269835315891977511
17980427 23 17168436999113426412
19591789 44 18195522816667648350
19930381 70 18409443725953718512
200 152 18411133654008587513
20028762 73 18200873006063203014
221490 88 18193842544179081166
23402539 116 18333445452303242069
23557571 272 17604160250324175977
23559900 14 18124584293570171906
23566358 27 18128551366030872646
23598288 3 17201920328019420265
350125 39 18338517560115131384
46194498 28 17533205600294371215
463206 1 18193555795267471567
474229 33 18337669814747881678
5104073 3 18337104549975997688
5283173 99 17677596606537807973
59755656 215 18334011691990791086
6913067 236 18261663844347517768
7226269 152 10735884950156484934
9709674 26 18262523580551437778

> <PUBCHEM_SHAPE_MULTIPOLES>
501.63
9.13
2.97
1.29
2.09
1.75
-0.15
2.09
0.28
0.71
0.6
-1.09
-0.23
-0.03

> <PUBCHEM_SHAPE_SELFOVERLAP>
1107.224

> <PUBCHEM_SHAPE_VOLUME>
262.8

> <PUBCHEM_COORDINATE_TYPE>
2
5
10

$$$$
