44583830
  -OEChem-09222006203D

 50 54  0     1  0  0  0  0  0999 V2000
   -1.2877   -1.7339    2.4697 O   0  0  0  0  0  0  0  0  0  0  0  0
   -2.2806   -2.6824   -0.5325 O   0  0  0  0  0  0  0  0  0  0  0  0
   -3.7825   -1.1911    0.3931 O   0  0  0  0  0  0  0  0  0  0  0  0
   -0.7190    1.2013   -1.2277 N   0  0  2  0  0  0  0  0  0  0  0  0
    2.5590    1.7001    0.4469 N   0  0  0  0  0  0  0  0  0  0  0  0
   -1.4145   -0.6710    0.3341 C   0  0  2  0  0  0  0  0  0  0  0  0
   -0.7518   -0.2978   -1.0541 C   0  0  2  0  0  0  0  0  0  0  0  0
   -1.8752    0.6461    1.0369 C   0  0  1  0  0  0  0  0  0  0  0  0
    0.0692    1.8062   -0.1037 C   0  0  1  0  0  0  0  0  0  0  0  0
   -0.6617    1.5812    1.2463 C   0  0  0  0  0  0  0  0  0  0  0  0
    0.6764   -0.8690   -1.3217 C   0  0  0  0  0  0  0  0  0  0  0  0
   -2.1029    1.7341   -1.2106 C   0  0  0  0  0  0  0  0  0  0  0  0
   -2.7895    1.3993    0.0876 C   0  0  0  0  0  0  0  0  0  0  0  0
    1.4248    1.1747   -0.0988 C   0  0  0  0  0  0  0  0  0  0  0  0
    1.7245   -0.0574   -0.6377 C   0  0  0  0  0  0  0  0  0  0  0  0
   -0.5471   -1.5122    1.2890 C   0  0  0  0  0  0  0  0  0  0  0  0
   -2.6461   -1.5215    0.0821 C   0  0  0  0  0  0  0  0  0  0  0  0
    3.1050   -0.3000   -0.4093 C   0  0  0  0  0  0  0  0  0  0  0  0
   -4.0566    1.7323    0.3631 C   0  0  0  0  0  0  0  0  0  0  0  0
    3.6042    0.8158    0.2743 C   0  0  0  0  0  0  0  0  0  0  0  0
    3.9849   -1.3572   -0.7150 C   0  0  0  0  0  0  0  0  0  0  0  0
   -4.9464    2.4742   -0.5757 C   0  0  0  0  0  0  0  0  0  0  0  0
    4.9434    0.9194    0.6676 C   0  0  0  0  0  0  0  0  0  0  0  0
    5.3261   -1.2643   -0.3269 C   0  0  0  0  0  0  0  0  0  0  0  0
   -3.3513   -3.5837   -0.8310 C   0  0  0  0  0  0  0  0  0  0  0  0
    5.7957   -0.1430    0.3538 C   0  0  0  0  0  0  0  0  0  0  0  0
   -1.3747   -0.6954   -1.8681 H   0  0  0  0  0  0  0  0  0  0  0  0
   -2.3770    0.4616    1.9941 H   0  0  0  0  0  0  0  0  0  0  0  0
    0.1877    2.8818   -0.2873 H   0  0  0  0  0  0  0  0  0  0  0  0
   -1.0163    2.5501    1.6246 H   0  0  0  0  0  0  0  0  0  0  0  0
    0.0048    1.1794    2.0181 H   0  0  0  0  0  0  0  0  0  0  0  0
    0.7434   -1.9246   -1.0420 H   0  0  0  0  0  0  0  0  0  0  0  0
    0.8734   -0.8194   -2.4013 H   0  0  0  0  0  0  0  0  0  0  0  0
   -2.0627    2.8206   -1.3552 H   0  0  0  0  0  0  0  0  0  0  0  0
   -2.6530    1.3108   -2.0596 H   0  0  0  0  0  0  0  0  0  0  0  0
    0.3785   -1.0067    1.5711 H   0  0  0  0  0  0  0  0  0  0  0  0
   -0.2803   -2.4888    0.8728 H   0  0  0  0  0  0  0  0  0  0  0  0
    2.6267    2.5940    0.9140 H   0  0  0  0  0  0  0  0  0  0  0  0
   -4.4845    1.4598    1.3243 H   0  0  0  0  0  0  0  0  0  0  0  0
   -0.7299   -2.2612    3.0666 H   0  0  0  0  0  0  0  0  0  0  0  0
    3.6332   -2.2379   -1.2447 H   0  0  0  0  0  0  0  0  0  0  0  0
   -4.4744    2.7450   -1.5230 H   0  0  0  0  0  0  0  0  0  0  0  0
   -5.8269    1.8651   -0.8040 H   0  0  0  0  0  0  0  0  0  0  0  0
   -5.2901    3.3986   -0.1004 H   0  0  0  0  0  0  0  0  0  0  0  0
    5.3115    1.7920    1.1969 H   0  0  0  0  0  0  0  0  0  0  0  0
    6.0084   -2.0775   -0.5599 H   0  0  0  0  0  0  0  0  0  0  0  0
   -3.8498   -3.8975    0.0911 H   0  0  0  0  0  0  0  0  0  0  0  0
   -4.0634   -3.1121   -1.5148 H   0  0  0  0  0  0  0  0  0  0  0  0
   -2.9273   -4.4655   -1.3187 H   0  0  0  0  0  0  0  0  0  0  0  0
    6.8416   -0.0921    0.6457 H   0  0  0  0  0  0  0  0  0  0  0  0
  1 16  1  0  0  0  0
  1 40  1  0  0  0  0
  2 17  1  0  0  0  0
  2 25  1  0  0  0  0
  3 17  2  0  0  0  0
  4  7  1  0  0  0  0
  4  9  1  0  0  0  0
  4 12  1  0  0  0  0
  5 14  1  0  0  0  0
  5 20  1  0  0  0  0
  5 38  1  0  0  0  0
  6  7  1  0  0  0  0
  6  8  1  0  0  0  0
  6 16  1  0  0  0  0
  6 17  1  0  0  0  0
  7 11  1  0  0  0  0
  7 27  1  0  0  0  0
  8 10  1  0  0  0  0
  8 13  1  0  0  0  0
  8 28  1  0  0  0  0
  9 10  1  0  0  0  0
  9 14  1  0  0  0  0
  9 29  1  0  0  0  0
 10 30  1  0  0  0  0
 10 31  1  0  0  0  0
 11 15  1  0  0  0  0
 11 32  1  0  0  0  0
 11 33  1  0  0  0  0
 12 13  1  0  0  0  0
 12 34  1  0  0  0  0
 12 35  1  0  0  0  0
 13 19  2  0  0  0  0
 14 15  2  0  0  0  0
 15 18  1  0  0  0  0
 16 36  1  0  0  0  0
 16 37  1  0  0  0  0
 18 20  1  0  0  0  0
 18 21  2  0  0  0  0
 19 22  1  0  0  0  0
 19 39  1  0  0  0  0
 20 23  2  0  0  0  0
 21 24  1  0  0  0  0
 21 41  1  0  0  0  0
 22 42  1  0  0  0  0
 22 43  1  0  0  0  0
 22 44  1  0  0  0  0
 23 26  1  0  0  0  0
 23 45  1  0  0  0  0
 24 26  2  0  0  0  0
 24 46  1  0  0  0  0
 25 47  1  0  0  0  0
 25 48  1  0  0  0  0
 25 49  1  0  0  0  0
 26 50  1  0  0  0  0
M  END
> <PUBCHEM_COMPOUND_CID>
44583830

> <PUBCHEM_CONFORMER_RMSD>
0.8

> <PUBCHEM_CONFORMER_DIVERSEORDER>
1
4
5
2
3

> <PUBCHEM_MMFF94_PARTIAL_CHARGES>
31
1 -0.68
11 0.18
12 0.41
13 -0.28
14 -0.33
15 -0.18
16 0.28
17 0.66
19 -0.29
2 -0.43
20 -0.15
21 -0.15
22 0.14
23 -0.15
24 -0.15
25 0.28
26 -0.15
3 -0.57
38 0.27
39 0.15
4 -0.81
40 0.4
41 0.15
45 0.15
46 0.15
5 0.03
50 0.15
6 0.06
7 0.27
8 0.14
9 0.45

> <PUBCHEM_EFFECTIVE_ROTOR_COUNT>
3.8

> <PUBCHEM_PHARMACOPHORE_FEATURES>
11
1 1 acceptor
1 1 donor
1 22 hydrophobe
1 3 acceptor
1 4 cation
1 5 cation
1 5 donor
5 5 14 15 18 20 rings
6 18 20 21 23 24 26 rings
6 4 7 9 11 14 15 rings
8 4 6 7 8 9 10 12 13 rings

> <PUBCHEM_HEAVY_ATOM_COUNT>
26

> <PUBCHEM_ATOM_DEF_STEREO_COUNT>
3

> <PUBCHEM_ATOM_UDEF_STEREO_COUNT>
1

> <PUBCHEM_BOND_DEF_STEREO_COUNT>
1

> <PUBCHEM_BOND_UDEF_STEREO_COUNT>
0

> <PUBCHEM_ISOTOPIC_ATOM_COUNT>
0

> <PUBCHEM_COMPONENT_COUNT>
1

> <PUBCHEM_CACTVS_TAUTO_COUNT>
1

> <PUBCHEM_CONFORMER_ID>
02A84B9600000001

> <PUBCHEM_MMFF94_ENERGY>
79.1763

> <PUBCHEM_FEATURE_SELFOVERLAP>
56.329

> <PUBCHEM_SHAPE_FINGERPRINT>
10863032 1 18272652354712446817
10906281 52 17986691301978729136
10948715 1 18270117886374979165
11315181 36 18335697278551291388
11552529 35 17988643042576363150
11578080 2 17202184408468039113
1200032 147 16157043442398390831
12011746 2 18269841913230146012
12236239 1 15141256385949536724
12293681 4 18131073688433319265
12422481 6 18122940653237435835
12553582 1 16298104281302471748
12633257 1 17916043384741722059
12969540 114 18191572074258650821
13004483 165 18055344997148578831
13140716 1 18272367590186595156
13224815 77 18272097106389722340
13544653 18 18194688283063107642
13583140 156 17561075947382385160
15196674 1 18413108368676509596
15209289 33 18113901567649402154
16752209 62 16661186140144170782
16945 1 18128275405828989125
17980427 23 17822014259211263396
1813 80 17530687623734267860
19141452 34 18410294687765650060
19930381 70 17476647472984966599
200 152 17489298668358523964
20197701 30 18262237695265624305
21033648 29 17631717349295864778
21065198 57 18413388735393649156
229495 10 16984325061633084393
23402539 116 18334009462987238597
23419403 2 16915929867839046131
23558518 356 18189897711222868365
23559900 14 18343299254516731680
26918003 58 18272930488748076088
335352 9 18340207375826033676
3380486 145 18270978937112581641
34934 24 18336825290991057090
38695281 34 18195808458443117965
4015057 19 18201704176450062849
404807 14 15331549743673430614
4340502 62 18268718221311299469
5104073 3 18271513265836504760
559249 180 18334292024838322098
5924683 9 18341046414661558206
59554788 248 17131559460737742860
59755656 520 18336538310124983181
70251023 43 18050281763350942307
9709674 26 18263085573164651250

> <PUBCHEM_SHAPE_MULTIPOLES>
507.5
9.89
2.91
1.32
10.06
1.81
-0.39
-0.67
0.13
-3.9
0.29
-0.51
0.29
0.64

> <PUBCHEM_SHAPE_SELFOVERLAP>
1134.883

> <PUBCHEM_SHAPE_VOLUME>
266.5

> <PUBCHEM_COORDINATE_TYPE>
2
5
10

$$$$
