102297300
  -OEChem-09222004483D

 59 64  0     1  0  0  0  0  0999 V2000
   -0.2669   -0.4507    2.3282 O   0  0  0  0  0  0  0  0  0  0  0  0
    4.1521    2.5679   -0.5715 O   0  0  0  0  0  0  0  0  0  0  0  0
    1.3060   -2.4199    1.0605 O   0  0  0  0  0  0  0  0  0  0  0  0
   -0.1217    0.3311   -2.1431 O   0  0  0  0  0  0  0  0  0  0  0  0
   -2.8495   -0.1129   -2.8829 O   0  0  0  0  0  0  0  0  0  0  0  0
    0.2051   -3.4806   -0.6714 O   0  0  0  0  0  0  0  0  0  0  0  0
    1.9496    1.6667   -0.5521 N   0  0  1  0  0  0  0  0  0  0  0  0
   -2.3781    0.2261   -1.6220 N   0  0  0  0  0  0  0  0  0  0  0  0
    2.2541   -0.2416    0.8300 C   0  0  1  0  0  0  0  0  0  0  0  0
    2.8959    0.5616   -0.3213 C   0  0  2  0  0  0  0  0  0  0  0  0
    1.7520    0.8813    1.7394 C   0  0  1  0  0  0  0  0  0  0  0  0
    1.2632    1.9421    0.7330 C   0  0  2  0  0  0  0  0  0  0  0  0
    1.0657   -1.1464    0.4331 C   0  0  2  0  0  0  0  0  0  0  0  0
   -0.9272    0.5930    0.2082 C   0  0  2  0  0  0  0  0  0  0  0  0
   -0.3164   -0.6516    0.9120 C   0  0  2  0  0  0  0  0  0  0  0  0
   -0.2570    1.9515    0.5145 C   0  0  0  0  0  0  0  0  0  0  0  0
    0.7541    0.4196    2.7922 C   0  0  0  0  0  0  0  0  0  0  0  0
    4.1940    1.2900    0.0746 C   0  0  0  0  0  0  0  0  0  0  0  0
    3.1668   -0.2453   -1.6002 C   0  0  0  0  0  0  0  0  0  0  0  0
    2.8034    2.7638   -1.0032 C   0  0  0  0  0  0  0  0  0  0  0  0
   -2.4227    0.6825    0.5777 C   0  0  0  0  0  0  0  0  0  0  0  0
   -1.0419    0.3674   -1.3421 C   0  0  0  0  0  0  0  0  0  0  0  0
    4.2637   -1.2638   -1.3787 C   0  0  0  0  0  0  0  0  0  0  0  0
   -3.2139    0.4484   -0.5481 C   0  0  0  0  0  0  0  0  0  0  0  0
   -3.0257    0.9430    1.7994 C   0  0  0  0  0  0  0  0  0  0  0  0
    0.8155   -3.4956    0.3889 C   0  0  0  0  0  0  0  0  0  0  0  0
   -4.5956    0.4639   -0.5103 C   0  0  0  0  0  0  0  0  0  0  0  0
   -4.4228    0.9624    1.8646 C   0  0  0  0  0  0  0  0  0  0  0  0
   -5.2009    0.7246    0.7191 C   0  0  0  0  0  0  0  0  0  0  0  0
    1.1375   -4.7433    1.1543 C   0  0  0  0  0  0  0  0  0  0  0  0
   -2.9383   -1.5351   -2.9830 C   0  0  0  0  0  0  0  0  0  0  0  0
    3.0200   -0.8252    1.3566 H   0  0  0  0  0  0  0  0  0  0  0  0
    2.5941    1.3156    2.2924 H   0  0  0  0  0  0  0  0  0  0  0  0
    1.5385    2.9296    1.1277 H   0  0  0  0  0  0  0  0  0  0  0  0
    1.0289   -1.3042   -0.6407 H   0  0  0  0  0  0  0  0  0  0  0  0
   -1.0197   -1.4847    0.7771 H   0  0  0  0  0  0  0  0  0  0  0  0
   -0.6980    2.3896    1.4200 H   0  0  0  0  0  0  0  0  0  0  0  0
   -0.4978    2.6716   -0.2812 H   0  0  0  0  0  0  0  0  0  0  0  0
    1.2889   -0.1279    3.5770 H   0  0  0  0  0  0  0  0  0  0  0  0
    0.2813    1.2755    3.2858 H   0  0  0  0  0  0  0  0  0  0  0  0
    4.2794    1.4873    1.1465 H   0  0  0  0  0  0  0  0  0  0  0  0
    5.1291    0.8075   -0.2070 H   0  0  0  0  0  0  0  0  0  0  0  0
    2.2791   -0.7380   -1.9994 H   0  0  0  0  0  0  0  0  0  0  0  0
    3.4944    0.4209   -2.4099 H   0  0  0  0  0  0  0  0  0  0  0  0
    2.8174    2.7797   -2.0991 H   0  0  0  0  0  0  0  0  0  0  0  0
    2.4567    3.7535   -0.6861 H   0  0  0  0  0  0  0  0  0  0  0  0
    5.2651   -0.8269   -1.3686 H   0  0  0  0  0  0  0  0  0  0  0  0
    4.2620   -1.9757   -2.2127 H   0  0  0  0  0  0  0  0  0  0  0  0
    4.1190   -1.8472   -0.4652 H   0  0  0  0  0  0  0  0  0  0  0  0
   -2.4400    1.1320    2.6922 H   0  0  0  0  0  0  0  0  0  0  0  0
   -5.1963    0.2838   -1.3944 H   0  0  0  0  0  0  0  0  0  0  0  0
   -4.9139    1.1650    2.8127 H   0  0  0  0  0  0  0  0  0  0  0  0
   -6.2848    0.7458    0.7935 H   0  0  0  0  0  0  0  0  0  0  0  0
    2.2210   -4.8532    1.2457 H   0  0  0  0  0  0  0  0  0  0  0  0
    0.7438   -5.6103    0.6162 H   0  0  0  0  0  0  0  0  0  0  0  0
    0.6691   -4.7043    2.1411 H   0  0  0  0  0  0  0  0  0  0  0  0
   -3.2903   -1.7822   -3.9883 H   0  0  0  0  0  0  0  0  0  0  0  0
   -3.6543   -1.9337   -2.2577 H   0  0  0  0  0  0  0  0  0  0  0  0
   -1.9554   -1.9946   -2.8370 H   0  0  0  0  0  0  0  0  0  0  0  0
  1 15  1  0  0  0  0
  1 17  1  0  0  0  0
  2 18  1  0  0  0  0
  2 20  1  0  0  0  0
  3 13  1  0  0  0  0
  3 26  1  0  0  0  0
  4 22  2  0  0  0  0
  5  8  1  0  0  0  0
  5 31  1  0  0  0  0
  6 26  2  0  0  0  0
  7 10  1  0  0  0  0
  7 12  1  0  0  0  0
  7 20  1  0  0  0  0
  8 22  1  0  0  0  0
  8 24  1  0  0  0  0
  9 10  1  0  0  0  0
  9 11  1  0  0  0  0
  9 13  1  0  0  0  0
  9 32  1  0  0  0  0
 10 18  1  0  0  0  0
 10 19  1  0  0  0  0
 11 12  1  0  0  0  0
 11 17  1  0  0  0  0
 11 33  1  0  0  0  0
 12 16  1  0  0  0  0
 12 34  1  0  0  0  0
 13 15  1  0  0  0  0
 13 35  1  0  0  0  0
 14 15  1  0  0  0  0
 14 16  1  0  0  0  0
 14 21  1  0  0  0  0
 14 22  1  0  0  0  0
 15 36  1  0  0  0  0
 16 37  1  0  0  0  0
 16 38  1  0  0  0  0
 17 39  1  0  0  0  0
 17 40  1  0  0  0  0
 18 41  1  0  0  0  0
 18 42  1  0  0  0  0
 19 23  1  0  0  0  0
 19 43  1  0  0  0  0
 19 44  1  0  0  0  0
 20 45  1  0  0  0  0
 20 46  1  0  0  0  0
 21 24  1  0  0  0  0
 21 25  2  0  0  0  0
 23 47  1  0  0  0  0
 23 48  1  0  0  0  0
 23 49  1  0  0  0  0
 24 27  2  0  0  0  0
 25 28  1  0  0  0  0
 25 50  1  0  0  0  0
 26 30  1  0  0  0  0
 27 29  1  0  0  0  0
 27 51  1  0  0  0  0
 28 29  2  0  0  0  0
 28 52  1  0  0  0  0
 29 53  1  0  0  0  0
 30 54  1  0  0  0  0
 30 55  1  0  0  0  0
 30 56  1  0  0  0  0
 31 57  1  0  0  0  0
 31 58  1  0  0  0  0
 31 59  1  0  0  0  0
M  END
> <PUBCHEM_COMPOUND_CID>
102297300

> <PUBCHEM_CONFORMER_RMSD>
0.8

> <PUBCHEM_CONFORMER_DIVERSEORDER>
1
2

> <PUBCHEM_MMFF94_PARTIAL_CHARGES>
30
1 -0.56
10 0.27
12 0.27
13 0.28
14 0.2
15 0.28
17 0.28
18 0.28
2 -0.56
20 0.55
21 -0.14
22 0.57
24 0.12
25 -0.15
26 0.66
27 -0.15
28 -0.15
29 -0.15
3 -0.43
30 0.06
31 0.28
4 -0.57
5 -0.32
50 0.15
51 0.15
52 0.15
53 0.15
6 -0.57
7 -0.81
8 -0.14

> <PUBCHEM_EFFECTIVE_ROTOR_COUNT>
5.6

> <PUBCHEM_PHARMACOPHORE_FEATURES>
11
1 1 acceptor
1 2 acceptor
1 23 hydrophobe
1 4 acceptor
1 6 acceptor
1 7 cation
5 2 7 10 18 20 rings
5 7 9 10 11 12 rings
5 8 14 21 22 24 rings
6 21 24 25 27 28 29 rings
9 1 9 11 12 13 14 15 16 17 rings

> <PUBCHEM_HEAVY_ATOM_COUNT>
31

> <PUBCHEM_ATOM_DEF_STEREO_COUNT>
7

> <PUBCHEM_ATOM_UDEF_STEREO_COUNT>
0

> <PUBCHEM_BOND_DEF_STEREO_COUNT>
0

> <PUBCHEM_BOND_UDEF_STEREO_COUNT>
0

> <PUBCHEM_ISOTOPIC_ATOM_COUNT>
0

> <PUBCHEM_COMPONENT_COUNT>
1

> <PUBCHEM_CACTVS_TAUTO_COUNT>
2

> <PUBCHEM_CONFORMER_ID>
0618EED400000001

> <PUBCHEM_MMFF94_ENERGY>
130.6447

> <PUBCHEM_FEATURE_SELFOVERLAP>
57.012

> <PUBCHEM_SHAPE_FINGERPRINT>
10165383 225 18042148534037219006
10863032 1 18270414904637796048
11421498 54 18129956593557333729
11488393 25 17823702962568216746
11578080 2 17828517930682572860
12156800 1 17540580049840116079
12160290 23 17685473743402941874
12236239 1 17917999360172250584
12788726 201 17836358628881954942
13224815 77 17241033371376823553
133893 2 18122317143738867911
14713325 29 17689727776009091524
16945 1 18187367597301289432
17138139 8 17768783684285644679
1813 80 17766842723512421943
19319366 153 18272092682151518459
20691752 17 18127669703533980064
21033650 10 17558304057337557952
23419403 2 17604149199262540394
23559900 14 17899686861421069057
238 59 17897417606327731407
27425 322 18271818976876478853
3060560 45 18333733511649212948
469060 322 16372965775777815591
57527585 21 17604132775603007373
633830 44 18341339945579690349
6669772 16 18408046217453880990
8272917 22 18337679603184136369

> <PUBCHEM_SHAPE_MULTIPOLES>
592.79
7.74
3.45
2.53
4.7
4.7
-0.65
-3.26
-1.62
-3.3
0.73
1.44
0.52
-1.49

> <PUBCHEM_SHAPE_SELFOVERLAP>
1315.052

> <PUBCHEM_SHAPE_VOLUME>
313.2

> <PUBCHEM_COORDINATE_TYPE>
2
5
10

$$$$
