16086585
  -OEChem-09202015323D

 73 80  0     1  0  0  0  0  0999 V2000
    3.9580    1.2206    1.1613 O   0  0  0  0  0  0  0  0  0  0  0  0
   -0.0095   -0.4148    2.1635 O   0  0  0  0  0  0  0  0  0  0  0  0
   -4.8001    0.1714    1.3595 O   0  0  0  0  0  0  0  0  0  0  0  0
   -4.8905    2.3656    0.7203 O   0  0  0  0  0  0  0  0  0  0  0  0
   -1.7406    0.0572   -2.5023 O   0  0  0  0  0  0  0  0  0  0  0  0
    3.1652   -1.8608   -1.9861 N   0  0  1  0  0  0  0  0  0  0  0  0
   -0.5449    1.4538    0.8731 N   0  0  0  0  0  0  0  0  0  0  0  0
    1.8485   -0.6009   -0.4398 C   0  0  2  0  0  0  0  0  0  0  0  0
    2.1245   -2.0057    0.1483 C   0  0  2  0  0  0  0  0  0  0  0  0
    3.4276   -1.7097    0.9474 C   0  0  1  0  0  0  0  0  0  0  0  0
    3.2051   -0.6110   -1.1906 C   0  0  1  0  0  0  0  0  0  0  0  0
    4.2600   -0.9014   -0.0873 C   0  0  1  0  0  0  0  0  0  0  0  0
    1.6691    0.5572    0.5918 C   0  0  1  0  0  0  0  0  0  0  0  0
    2.7826    0.5848    1.6746 C   0  0  1  0  0  0  0  0  0  0  0  0
    3.1396   -0.8252    2.1713 C   0  0  0  0  0  0  0  0  0  0  0  0
    2.4488   -2.8195   -1.1283 C   0  0  0  0  0  0  0  0  0  0  0  0
    4.8805    0.3599    0.5044 C   0  0  0  0  0  0  0  0  0  0  0  0
    1.0472   -2.7017    0.9058 C   0  0  0  0  0  0  0  0  0  0  0  0
    1.4561    1.8873   -0.1356 C   0  0  0  0  0  0  0  0  0  0  0  0
    0.2838    0.4248    1.3239 C   0  0  0  0  0  0  0  0  0  0  0  0
    2.5260   -1.6853   -3.2848 C   0  0  0  0  0  0  0  0  0  0  0  0
    0.1431    2.3308    0.0354 C   0  0  0  0  0  0  0  0  0  0  0  0
    2.3276    2.6459   -0.9064 C   0  0  0  0  0  0  0  0  0  0  0  0
   -1.9134    1.6629    1.2877 C   0  0  0  0  0  0  0  0  0  0  0  0
    1.2707   -3.6256    1.8465 C   0  0  0  0  0  0  0  0  0  0  0  0
   -2.8974    1.0525    0.2952 C   0  0  1  0  0  0  0  0  0  0  0  0
   -0.3341    3.4973   -0.5459 C   0  0  0  0  0  0  0  0  0  0  0  0
   -2.8062   -0.4671    0.2526 C   0  0  1  0  0  0  0  0  0  0  0  0
   -3.8606   -0.9095    1.2648 C   0  0  2  0  0  0  0  0  0  0  0  0
   -3.1777   -1.2017   -1.0672 C   0  0  1  0  0  0  0  0  0  0  0  0
    1.8680    3.8268   -1.4996 C   0  0  0  0  0  0  0  0  0  0  0  0
   -4.5808   -1.7885   -0.8316 C   0  0  2  0  0  0  0  0  0  0  0  0
    0.5446    4.2480   -1.3234 C   0  0  0  0  0  0  0  0  0  0  0  0
   -4.5546   -2.1203    0.6606 C   0  0  0  0  0  0  0  0  0  0  0  0
   -4.2968    1.2995    0.7832 C   0  0  0  0  0  0  0  0  0  0  0  0
   -3.0763   -0.3921   -2.3523 C   0  0  0  0  0  0  0  0  0  0  0  0
   -4.8933   -3.0055   -1.6902 C   0  0  0  0  0  0  0  0  0  0  0  0
    0.9904   -0.6190   -1.1255 H   0  0  0  0  0  0  0  0  0  0  0  0
    3.9562   -2.6220    1.2450 H   0  0  0  0  0  0  0  0  0  0  0  0
    3.4435    0.2591   -1.8035 H   0  0  0  0  0  0  0  0  0  0  0  0
    5.0779   -1.5172   -0.4859 H   0  0  0  0  0  0  0  0  0  0  0  0
    2.4602    1.1947    2.5272 H   0  0  0  0  0  0  0  0  0  0  0  0
    2.3466   -1.2360    2.8008 H   0  0  0  0  0  0  0  0  0  0  0  0
    4.0379   -0.7782    2.8000 H   0  0  0  0  0  0  0  0  0  0  0  0
    3.0888   -3.6820   -0.9088 H   0  0  0  0  0  0  0  0  0  0  0  0
    1.5336   -3.1924   -1.6076 H   0  0  0  0  0  0  0  0  0  0  0  0
    5.3798    0.9432   -0.2767 H   0  0  0  0  0  0  0  0  0  0  0  0
    5.6549    0.0874    1.2312 H   0  0  0  0  0  0  0  0  0  0  0  0
    0.0186   -2.5136    0.6095 H   0  0  0  0  0  0  0  0  0  0  0  0
    2.5292   -2.6313   -3.8374 H   0  0  0  0  0  0  0  0  0  0  0  0
    3.0880   -0.9654   -3.8898 H   0  0  0  0  0  0  0  0  0  0  0  0
    1.4905   -1.3360   -3.2138 H   0  0  0  0  0  0  0  0  0  0  0  0
    3.3577    2.3520   -1.0663 H   0  0  0  0  0  0  0  0  0  0  0  0
   -2.1015    2.7328    1.4350 H   0  0  0  0  0  0  0  0  0  0  0  0
   -2.0435    1.2018    2.2756 H   0  0  0  0  0  0  0  0  0  0  0  0
    0.4342   -4.1245    2.3246 H   0  0  0  0  0  0  0  0  0  0  0  0
    2.2667   -3.9160    2.1580 H   0  0  0  0  0  0  0  0  0  0  0  0
   -2.7737    1.5171   -0.6838 H   0  0  0  0  0  0  0  0  0  0  0  0
   -1.8261   -0.8492    0.5378 H   0  0  0  0  0  0  0  0  0  0  0  0
   -1.3553    3.8357   -0.4134 H   0  0  0  0  0  0  0  0  0  0  0  0
   -3.4575   -1.1084    2.2625 H   0  0  0  0  0  0  0  0  0  0  0  0
   -2.4687   -2.0398   -1.1537 H   0  0  0  0  0  0  0  0  0  0  0  0
    2.5452    4.4229   -2.1056 H   0  0  0  0  0  0  0  0  0  0  0  0
   -5.3429   -1.0210   -1.0219 H   0  0  0  0  0  0  0  0  0  0  0  0
    0.2040    5.1666   -1.7928 H   0  0  0  0  0  0  0  0  0  0  0  0
   -3.9671   -3.0268    0.8479 H   0  0  0  0  0  0  0  0  0  0  0  0
   -5.5666   -2.2636    1.0522 H   0  0  0  0  0  0  0  0  0  0  0  0
   -3.3253   -1.0030   -3.2258 H   0  0  0  0  0  0  0  0  0  0  0  0
   -3.7490    0.4707   -2.3559 H   0  0  0  0  0  0  0  0  0  0  0  0
   -4.1469   -3.7952   -1.5536 H   0  0  0  0  0  0  0  0  0  0  0  0
   -5.8724   -3.4194   -1.4272 H   0  0  0  0  0  0  0  0  0  0  0  0
   -4.9156   -2.7419   -2.7520 H   0  0  0  0  0  0  0  0  0  0  0  0
   -1.1660   -0.7262   -2.5413 H   0  0  0  0  0  0  0  0  0  0  0  0
  1 14  1  0  0  0  0
  1 17  1  0  0  0  0
  2 20  2  0  0  0  0
  3 29  1  0  0  0  0
  3 35  1  0  0  0  0
  4 35  2  0  0  0  0
  5 36  1  0  0  0  0
  5 73  1  0  0  0  0
  6 11  1  0  0  0  0
  6 16  1  0  0  0  0
  6 21  1  0  0  0  0
  7 20  1  0  0  0  0
  7 22  1  0  0  0  0
  7 24  1  0  0  0  0
  8  9  1  0  0  0  0
  8 11  1  0  0  0  0
  8 13  1  0  0  0  0
  8 38  1  0  0  0  0
  9 10  1  0  0  0  0
  9 16  1  0  0  0  0
  9 18  1  0  0  0  0
 10 12  1  0  0  0  0
 10 15  1  0  0  0  0
 10 39  1  0  0  0  0
 11 12  1  0  0  0  0
 11 40  1  0  0  0  0
 12 17  1  0  0  0  0
 12 41  1  0  0  0  0
 13 14  1  0  0  0  0
 13 19  1  0  0  0  0
 13 20  1  0  0  0  0
 14 15  1  0  0  0  0
 14 42  1  0  0  0  0
 15 43  1  0  0  0  0
 15 44  1  0  0  0  0
 16 45  1  0  0  0  0
 16 46  1  0  0  0  0
 17 47  1  0  0  0  0
 17 48  1  0  0  0  0
 18 25  2  0  0  0  0
 18 49  1  0  0  0  0
 19 22  1  0  0  0  0
 19 23  2  0  0  0  0
 21 50  1  0  0  0  0
 21 51  1  0  0  0  0
 21 52  1  0  0  0  0
 22 27  2  0  0  0  0
 23 31  1  0  0  0  0
 23 53  1  0  0  0  0
 24 26  1  0  0  0  0
 24 54  1  0  0  0  0
 24 55  1  0  0  0  0
 25 56  1  0  0  0  0
 25 57  1  0  0  0  0
 26 28  1  0  0  0  0
 26 35  1  0  0  0  0
 26 58  1  0  0  0  0
 27 33  1  0  0  0  0
 27 60  1  0  0  0  0
 28 29  1  0  0  0  0
 28 30  1  0  0  0  0
 28 59  1  0  0  0  0
 29 34  1  0  0  0  0
 29 61  1  0  0  0  0
 30 32  1  0  0  0  0
 30 36  1  0  0  0  0
 30 62  1  0  0  0  0
 31 33  2  0  0  0  0
 31 63  1  0  0  0  0
 32 34  1  0  0  0  0
 32 37  1  0  0  0  0
 32 64  1  0  0  0  0
 33 65  1  0  0  0  0
 34 66  1  0  0  0  0
 34 67  1  0  0  0  0
 36 68  1  0  0  0  0
 36 69  1  0  0  0  0
 37 70  1  0  0  0  0
 37 71  1  0  0  0  0
 37 72  1  0  0  0  0
M  END
> <PUBCHEM_COMPOUND_CID>
16086585

> <PUBCHEM_CONFORMER_RMSD>
1

> <PUBCHEM_CONFORMER_DIVERSEORDER>
1
2
6
5
10
7
8
9
4
3

> <PUBCHEM_MMFF94_PARTIAL_CHARGES>
36
1 -0.56
11 0.27
13 0.2
14 0.28
16 0.27
17 0.28
18 -0.29
19 -0.14
2 -0.57
20 0.57
21 0.27
22 0.12
23 -0.15
24 0.3
25 -0.3
26 0.06
27 -0.15
29 0.28
3 -0.43
31 -0.15
33 -0.15
35 0.66
36 0.28
4 -0.57
49 0.15
5 -0.68
53 0.15
56 0.15
57 0.15
6 -0.81
60 0.15
63 0.15
65 0.15
7 -0.48
73 0.4
9 0.14

> <PUBCHEM_EFFECTIVE_ROTOR_COUNT>
6.2

> <PUBCHEM_PHARMACOPHORE_FEATURES>
13
1 1 acceptor
1 2 acceptor
1 25 hydrophobe
1 4 acceptor
1 5 acceptor
1 5 donor
1 6 cation
10 1 8 9 10 11 12 13 14 15 17 rings
5 28 29 30 32 34 rings
5 3 26 28 29 35 rings
5 7 13 19 20 22 rings
6 19 22 23 27 31 33 rings
7 6 8 9 10 11 12 16 rings

> <PUBCHEM_HEAVY_ATOM_COUNT>
37

> <PUBCHEM_ATOM_DEF_STEREO_COUNT>
10

> <PUBCHEM_ATOM_UDEF_STEREO_COUNT>
2

> <PUBCHEM_BOND_DEF_STEREO_COUNT>
0

> <PUBCHEM_BOND_UDEF_STEREO_COUNT>
0

> <PUBCHEM_ISOTOPIC_ATOM_COUNT>
0

> <PUBCHEM_COMPONENT_COUNT>
1

> <PUBCHEM_CACTVS_TAUTO_COUNT>
2

> <PUBCHEM_CONFORMER_ID>
00F5763900000001

> <PUBCHEM_MMFF94_ENERGY>
147.1456

> <PUBCHEM_FEATURE_SELFOVERLAP>
67.514

> <PUBCHEM_SHAPE_FINGERPRINT>
11421498 54 17896619288246237078
11513181 2 16917066620701088967
12156800 1 13574100348304689328
12166972 35 16443635606032023144
12422481 6 17988062410696213170
12553582 1 18261673662458185609
12633046 712 17530966857007270331
12788726 201 17680727929332406784
13224815 77 18202275896921342283
13782708 43 18200307716228096906
13911987 19 17968104152906131382
150020 26 16915964901766499975
15664445 248 18263661601399497028
17349148 13 18410291449581693016
17809404 112 18269534092781630215
17818456 19 17987252036203728209
1813 80 18409453570086936477
20691752 17 18335415738490799090
20764821 26 18259982643565473643
23559900 14 17631737058489439472
238 59 17972888226208059865
25019877 29 17845367912329783436
340366 18 18340494366084330853
35225 105 17476361599839802311
46194498 28 17970891474943501183
463206 1 18055914540108661051
57527293 21 18339347566718537056
6287921 2 18271814565532985605
6669772 16 17828207920001487956

> <PUBCHEM_SHAPE_MULTIPOLES>
722.13
9.5
4.49
2.38
8.81
2.48
1.18
-4.02
-0.12
-0.78
1.24
-0.42
-1.04
-1.24

> <PUBCHEM_SHAPE_SELFOVERLAP>
1630.541

> <PUBCHEM_SHAPE_VOLUME>
382.6

> <PUBCHEM_COORDINATE_TYPE>
2
5
10

$$$$
