102185548
  -OEChem-09202016123D

 53 57  0     1  0  0  0  0  0999 V2000
   -0.0574    1.5920   -1.5766 O   0  0  0  0  0  0  0  0  0  0  0  0
   -3.8357    0.8773   -1.1385 O   0  0  0  0  0  0  0  0  0  0  0  0
   -1.7883   -1.4742   -0.9562 O   0  0  0  0  0  0  0  0  0  0  0  0
    0.0845   -1.3088    1.7689 O   0  0  0  0  0  0  0  0  0  0  0  0
    2.8512   -2.1204    1.8436 O   0  0  0  0  0  0  0  0  0  0  0  0
   -1.0929   -2.0703   -3.0771 O   0  0  0  0  0  0  0  0  0  0  0  0
   -2.0609    1.0182    1.8957 N   0  0  0  0  0  0  0  0  0  0  0  0
    2.3217   -1.0312    1.1678 N   0  0  0  0  0  0  0  0  0  0  0  0
   -1.9948    2.1963   -0.1982 C   0  0  1  0  0  0  0  0  0  0  0  0
   -2.6099    0.8036   -0.4510 C   0  0  2  0  0  0  0  0  0  0  0  0
    0.8190    0.5916    0.3237 C   0  0  2  0  0  0  0  0  0  0  0  0
   -0.1454    0.3283   -0.8896 C   0  0  1  0  0  0  0  0  0  0  0  0
   -1.2894    2.0641    1.1787 C   0  0  2  0  0  0  0  0  0  0  0  0
   -1.6007   -0.1025   -1.2661 C   0  0  1  0  0  0  0  0  0  0  0  0
    0.2571    1.7687    1.2267 C   0  0  0  0  0  0  0  0  0  0  0  0
   -1.0524    2.5764   -1.3194 C   0  0  0  0  0  0  0  0  0  0  0  0
   -2.7916    0.4038    1.0108 C   0  0  0  0  0  0  0  0  0  0  0  0
    2.2706    0.8317   -0.0982 C   0  0  0  0  0  0  0  0  0  0  0  0
    0.9879   -0.7208    1.1946 C   0  0  0  0  0  0  0  0  0  0  0  0
   -3.7031   -0.7159    1.4091 C   0  0  0  0  0  0  0  0  0  0  0  0
    3.0959   -0.1733    0.4144 C   0  0  0  0  0  0  0  0  0  0  0  0
    2.8292    1.8523   -0.8527 C   0  0  0  0  0  0  0  0  0  0  0  0
   -4.7676   -0.2140    2.3597 C   0  0  0  0  0  0  0  0  0  0  0  0
    4.4588   -0.2188    0.1835 C   0  0  0  0  0  0  0  0  0  0  0  0
   -1.4953   -2.3594   -1.9583 C   0  0  0  0  0  0  0  0  0  0  0  0
    4.2065    1.8298   -1.0997 C   0  0  0  0  0  0  0  0  0  0  0  0
    5.0137    0.8002   -0.5894 C   0  0  0  0  0  0  0  0  0  0  0  0
   -1.7394   -3.7622   -1.4906 C   0  0  0  0  0  0  0  0  0  0  0  0
    2.8287   -3.2624    0.9847 C   0  0  0  0  0  0  0  0  0  0  0  0
   -2.7878    2.9522   -0.1199 H   0  0  0  0  0  0  0  0  0  0  0  0
    0.4522   -0.3638   -1.5031 H   0  0  0  0  0  0  0  0  0  0  0  0
   -1.4393    3.0062    1.7222 H   0  0  0  0  0  0  0  0  0  0  0  0
   -1.7959    0.0789   -2.3333 H   0  0  0  0  0  0  0  0  0  0  0  0
    0.7567    2.7026    0.9371 H   0  0  0  0  0  0  0  0  0  0  0  0
    0.5427    1.5891    2.2717 H   0  0  0  0  0  0  0  0  0  0  0  0
   -1.6118    2.7253   -2.2499 H   0  0  0  0  0  0  0  0  0  0  0  0
   -0.5445    3.5221   -1.1023 H   0  0  0  0  0  0  0  0  0  0  0  0
   -4.3989    1.5338   -0.6949 H   0  0  0  0  0  0  0  0  0  0  0  0
   -4.1714   -1.1490    0.5201 H   0  0  0  0  0  0  0  0  0  0  0  0
   -3.1045   -1.4989    1.8865 H   0  0  0  0  0  0  0  0  0  0  0  0
    2.2286    2.6643   -1.2472 H   0  0  0  0  0  0  0  0  0  0  0  0
    5.0847   -1.0047    0.5905 H   0  0  0  0  0  0  0  0  0  0  0  0
   -4.3279    0.1701    3.2861 H   0  0  0  0  0  0  0  0  0  0  0  0
   -5.4555   -1.0234    2.6230 H   0  0  0  0  0  0  0  0  0  0  0  0
   -5.3490    0.5961    1.9066 H   0  0  0  0  0  0  0  0  0  0  0  0
    4.6590    2.6209   -1.6920 H   0  0  0  0  0  0  0  0  0  0  0  0
    6.0811    0.8043   -0.7926 H   0  0  0  0  0  0  0  0  0  0  0  0
   -2.7894   -3.8819   -1.2121 H   0  0  0  0  0  0  0  0  0  0  0  0
   -1.5115   -4.4602   -2.3012 H   0  0  0  0  0  0  0  0  0  0  0  0
   -1.0877   -3.9869   -0.6425 H   0  0  0  0  0  0  0  0  0  0  0  0
    3.2348   -4.1115    1.5411 H   0  0  0  0  0  0  0  0  0  0  0  0
    3.4506   -3.0999    0.0992 H   0  0  0  0  0  0  0  0  0  0  0  0
    1.8025   -3.5017    0.6879 H   0  0  0  0  0  0  0  0  0  0  0  0
  1 12  1  0  0  0  0
  1 16  1  0  0  0  0
  2 10  1  0  0  0  0
  2 38  1  0  0  0  0
  3 14  1  0  0  0  0
  3 25  1  0  0  0  0
  4 19  2  0  0  0  0
  5  8  1  0  0  0  0
  5 29  1  0  0  0  0
  6 25  2  0  0  0  0
  7 13  1  0  0  0  0
  7 17  2  0  0  0  0
  8 19  1  0  0  0  0
  8 21  1  0  0  0  0
  9 10  1  0  0  0  0
  9 13  1  0  0  0  0
  9 16  1  0  0  0  0
  9 30  1  0  0  0  0
 10 14  1  0  0  0  0
 10 17  1  0  0  0  0
 11 12  1  0  0  0  0
 11 15  1  0  0  0  0
 11 18  1  0  0  0  0
 11 19  1  0  0  0  0
 12 14  1  0  0  0  0
 12 31  1  0  0  0  0
 13 15  1  0  0  0  0
 13 32  1  0  0  0  0
 14 33  1  0  0  0  0
 15 34  1  0  0  0  0
 15 35  1  0  0  0  0
 16 36  1  0  0  0  0
 16 37  1  0  0  0  0
 17 20  1  0  0  0  0
 18 21  1  0  0  0  0
 18 22  2  0  0  0  0
 20 23  1  0  0  0  0
 20 39  1  0  0  0  0
 20 40  1  0  0  0  0
 21 24  2  0  0  0  0
 22 26  1  0  0  0  0
 22 41  1  0  0  0  0
 23 43  1  0  0  0  0
 23 44  1  0  0  0  0
 23 45  1  0  0  0  0
 24 27  1  0  0  0  0
 24 42  1  0  0  0  0
 25 28  1  0  0  0  0
 26 27  2  0  0  0  0
 26 46  1  0  0  0  0
 27 47  1  0  0  0  0
 28 48  1  0  0  0  0
 28 49  1  0  0  0  0
 28 50  1  0  0  0  0
 29 51  1  0  0  0  0
 29 52  1  0  0  0  0
 29 53  1  0  0  0  0
M  END
> <PUBCHEM_COMPOUND_CID>
102185548

> <PUBCHEM_CONFORMER_RMSD>
0.8

> <PUBCHEM_CONFORMER_DIVERSEORDER>
1
2

> <PUBCHEM_MMFF94_PARTIAL_CHARGES>
31
1 -0.56
10 0.34
11 0.2
12 0.28
13 0.25
14 0.28
16 0.28
17 0.33
18 -0.14
19 0.57
2 -0.68
20 0.06
21 0.12
22 -0.15
24 -0.15
25 0.66
26 -0.15
27 -0.15
28 0.06
29 0.28
3 -0.43
38 0.4
4 -0.57
41 0.15
42 0.15
46 0.15
47 0.15
5 -0.32
6 -0.57
7 -0.7
8 -0.14

> <PUBCHEM_EFFECTIVE_ROTOR_COUNT>
5

> <PUBCHEM_PHARMACOPHORE_FEATURES>
11
1 1 acceptor
1 2 acceptor
1 2 donor
1 23 hydrophobe
1 4 acceptor
1 6 acceptor
1 7 acceptor
5 7 9 10 13 17 rings
5 8 11 18 19 21 rings
6 18 21 22 24 26 27 rings
9 1 9 10 11 12 13 14 15 16 rings

> <PUBCHEM_HEAVY_ATOM_COUNT>
29

> <PUBCHEM_ATOM_DEF_STEREO_COUNT>
5

> <PUBCHEM_ATOM_UDEF_STEREO_COUNT>
1

> <PUBCHEM_BOND_DEF_STEREO_COUNT>
0

> <PUBCHEM_BOND_UDEF_STEREO_COUNT>
0

> <PUBCHEM_ISOTOPIC_ATOM_COUNT>
0

> <PUBCHEM_COMPONENT_COUNT>
1

> <PUBCHEM_CACTVS_TAUTO_COUNT>
4

> <PUBCHEM_CONFORMER_ID>
06173A4C00000001

> <PUBCHEM_MMFF94_ENERGY>
130.1381

> <PUBCHEM_FEATURE_SELFOVERLAP>
56.579

> <PUBCHEM_SHAPE_FINGERPRINT>
10863032 1 17821730498953397289
11578080 2 17980158081180331032
12156800 1 17396470354811348550
12553582 1 18054205889958825183
12633257 1 17704079516011988177
12788726 201 18129644396574098303
13140716 1 17702384150649393561
13224815 77 17894352155383409288
133893 2 17125359027222357453
13583140 156 18186239541320968173
14223421 5 17968383333943245792
14787075 74 18189913082536053937
16752209 62 17987501655022622133
16945 1 18131914879374220753
19319366 153 18337396040684423906
20775438 99 15821813792888103894
229495 10 18260825990432778333
23419403 2 17258846520619658062
23559900 14 17823409397369038616
238 59 17459444767796749158
2818148 4 18340763840141863659
35225 105 17631428159998961775
427121 178 16557374603600084147
469060 322 17970900283325475138
57527585 21 16660634194113377358
90525 40 18197488541499580004
9709674 26 17751073617951182256

> <PUBCHEM_SHAPE_MULTIPOLES>
551.63
7.59
3.3
2.28
3.92
2.6
0.32
-0.55
-1.79
-0.11
1.12
-1.67
1.12
-1.97

> <PUBCHEM_SHAPE_SELFOVERLAP>
1210.521

> <PUBCHEM_SHAPE_VOLUME>
294.7

> <PUBCHEM_COORDINATE_TYPE>
2
5
10

$$$$
