101951239
  -OEChem-09222004553D

 52 55  0     1  0  0  0  0  0999 V2000
    0.1285    2.6670    0.1006 O   0  0  0  0  0  0  0  0  0  0  0  0
    0.0213   -1.6419   -1.0173 O   0  0  0  0  0  0  0  0  0  0  0  0
    2.7431   -2.4671   -1.5074 O   0  0  0  0  0  0  0  0  0  0  0  0
   -4.3188    0.5208   -0.4400 O   0  0  0  0  0  0  0  0  0  0  0  0
   -3.4491   -0.8977    3.0194 O   0  0  0  0  0  0  0  0  0  0  0  0
    2.3180   -1.3416   -0.8170 N   0  0  0  0  0  0  0  0  0  0  0  0
   -1.7521   -1.0560    1.4341 N   0  0  0  0  0  0  0  0  0  0  0  0
    0.9826    0.3716    0.1036 C   0  0  1  0  0  0  0  0  0  0  0  0
    0.3799    0.1848    1.5184 C   0  0  0  0  0  0  0  0  0  0  0  0
    0.3331    1.5082   -0.7364 C   0  0  1  0  0  0  0  0  0  0  0  0
   -1.1571    0.2438    1.6524 C   0  0  1  0  0  0  0  0  0  0  0  0
   -1.8686    1.3603    0.8452 C   0  0  1  0  0  0  0  0  0  0  0  0
    2.4899    0.6370    0.2373 C   0  0  0  0  0  0  0  0  0  0  0  0
   -1.0717    2.6761    0.8906 C   0  0  0  0  0  0  0  0  0  0  0  0
   -2.0347    1.0176   -0.6068 C   0  0  0  0  0  0  0  0  0  0  0  0
    0.9977   -1.0026   -0.6564 C   0  0  0  0  0  0  0  0  0  0  0  0
   -0.9613    1.1134   -1.3961 C   0  0  0  0  0  0  0  0  0  0  0  0
    3.2148   -0.4081   -0.3390 C   0  0  0  0  0  0  0  0  0  0  0  0
    3.1570    1.7109    0.8058 C   0  0  0  0  0  0  0  0  0  0  0  0
   -3.3199    0.6110   -1.1636 C   0  0  0  0  0  0  0  0  0  0  0  0
    4.5960   -0.4283   -0.3756 C   0  0  0  0  0  0  0  0  0  0  0  0
   -2.8502   -1.5123    2.1408 C   0  0  0  0  0  0  0  0  0  0  0  0
    4.5554    1.7128    0.7823 C   0  0  0  0  0  0  0  0  0  0  0  0
   -3.3622    0.3111   -2.6563 C   0  0  0  0  0  0  0  0  0  0  0  0
    5.2683    0.6526    0.1958 C   0  0  0  0  0  0  0  0  0  0  0  0
   -3.2798   -2.8854    1.6982 C   0  0  0  0  0  0  0  0  0  0  0  0
   -4.7349   -0.1300   -3.1340 C   0  0  0  0  0  0  0  0  0  0  0  0
    2.9749   -3.5277   -0.5785 C   0  0  0  0  0  0  0  0  0  0  0  0
    0.7794    0.9713    2.1745 H   0  0  0  0  0  0  0  0  0  0  0  0
    0.7431   -0.7563    1.9564 H   0  0  0  0  0  0  0  0  0  0  0  0
    1.0195    1.8276   -1.5311 H   0  0  0  0  0  0  0  0  0  0  0  0
   -1.3401    0.4771    2.7115 H   0  0  0  0  0  0  0  0  0  0  0  0
   -2.8481    1.5446    1.3042 H   0  0  0  0  0  0  0  0  0  0  0  0
   -1.6891    3.5013    0.5144 H   0  0  0  0  0  0  0  0  0  0  0  0
   -0.7967    2.9365    1.9187 H   0  0  0  0  0  0  0  0  0  0  0  0
   -0.9337    0.8922   -2.4548 H   0  0  0  0  0  0  0  0  0  0  0  0
   -1.3804   -1.6298    0.6828 H   0  0  0  0  0  0  0  0  0  0  0  0
    2.6192    2.5352    1.2608 H   0  0  0  0  0  0  0  0  0  0  0  0
    5.1490   -1.2435   -0.8277 H   0  0  0  0  0  0  0  0  0  0  0  0
    5.0993    2.5446    1.2221 H   0  0  0  0  0  0  0  0  0  0  0  0
   -3.0823    1.2137   -3.2107 H   0  0  0  0  0  0  0  0  0  0  0  0
   -2.6560   -0.4965   -2.8791 H   0  0  0  0  0  0  0  0  0  0  0  0
    6.3547    0.6770    0.1888 H   0  0  0  0  0  0  0  0  0  0  0  0
   -3.7665   -2.8161    0.7214 H   0  0  0  0  0  0  0  0  0  0  0  0
   -3.9838   -3.3025    2.4235 H   0  0  0  0  0  0  0  0  0  0  0  0
   -2.4148   -3.5511    1.6280 H   0  0  0  0  0  0  0  0  0  0  0  0
   -5.0582   -1.0379   -2.6140 H   0  0  0  0  0  0  0  0  0  0  0  0
   -5.4837    0.6469   -2.9474 H   0  0  0  0  0  0  0  0  0  0  0  0
   -4.7175   -0.3380   -4.2082 H   0  0  0  0  0  0  0  0  0  0  0  0
    3.2776   -4.4128   -1.1447 H   0  0  0  0  0  0  0  0  0  0  0  0
    2.0576   -3.7643   -0.0297 H   0  0  0  0  0  0  0  0  0  0  0  0
    3.7777   -3.2724    0.1195 H   0  0  0  0  0  0  0  0  0  0  0  0
  1 10  1  0  0  0  0
  1 14  1  0  0  0  0
  2 16  2  0  0  0  0
  3  6  1  0  0  0  0
  3 28  1  0  0  0  0
  4 20  2  0  0  0  0
  5 22  2  0  0  0  0
  6 16  1  0  0  0  0
  6 18  1  0  0  0  0
  7 11  1  0  0  0  0
  7 22  1  0  0  0  0
  7 37  1  0  0  0  0
  8  9  1  0  0  0  0
  8 10  1  0  0  0  0
  8 13  1  0  0  0  0
  8 16  1  0  0  0  0
  9 11  1  0  0  0  0
  9 29  1  0  0  0  0
  9 30  1  0  0  0  0
 10 17  1  0  0  0  0
 10 31  1  0  0  0  0
 11 12  1  0  0  0  0
 11 32  1  0  0  0  0
 12 14  1  0  0  0  0
 12 15  1  0  0  0  0
 12 33  1  0  0  0  0
 13 18  1  0  0  0  0
 13 19  2  0  0  0  0
 14 34  1  0  0  0  0
 14 35  1  0  0  0  0
 15 17  2  0  0  0  0
 15 20  1  0  0  0  0
 17 36  1  0  0  0  0
 18 21  2  0  0  0  0
 19 23  1  0  0  0  0
 19 38  1  0  0  0  0
 20 24  1  0  0  0  0
 21 25  1  0  0  0  0
 21 39  1  0  0  0  0
 22 26  1  0  0  0  0
 23 25  2  0  0  0  0
 23 40  1  0  0  0  0
 24 27  1  0  0  0  0
 24 41  1  0  0  0  0
 24 42  1  0  0  0  0
 25 43  1  0  0  0  0
 26 44  1  0  0  0  0
 26 45  1  0  0  0  0
 26 46  1  0  0  0  0
 27 47  1  0  0  0  0
 27 48  1  0  0  0  0
 27 49  1  0  0  0  0
 28 50  1  0  0  0  0
 28 51  1  0  0  0  0
 28 52  1  0  0  0  0
M  END
> <PUBCHEM_COMPOUND_CID>
101951239

> <PUBCHEM_CONFORMER_RMSD>
0.8

> <PUBCHEM_CONFORMER_DIVERSEORDER>
1
3
9
5
11
13
8
6
7
12
4
2
10

> <PUBCHEM_MMFF94_PARTIAL_CHARGES>
32
1 -0.56
10 0.42
11 0.3
12 0.14
13 -0.14
14 0.28
15 -0.12
16 0.57
17 -0.29
18 0.12
19 -0.15
2 -0.57
20 0.49
21 -0.15
22 0.57
23 -0.15
24 0.06
25 -0.15
26 0.06
28 0.28
3 -0.32
36 0.15
37 0.37
38 0.15
39 0.15
4 -0.57
40 0.15
43 0.15
5 -0.57
6 -0.14
7 -0.73
8 0.2

> <PUBCHEM_EFFECTIVE_ROTOR_COUNT>
6

> <PUBCHEM_PHARMACOPHORE_FEATURES>
9
1 1 acceptor
1 2 acceptor
1 27 hydrophobe
1 4 acceptor
1 5 acceptor
1 7 donor
5 6 8 13 16 18 rings
6 13 18 19 21 23 25 rings
9 1 8 9 10 11 12 14 15 17 rings

> <PUBCHEM_HEAVY_ATOM_COUNT>
28

> <PUBCHEM_ATOM_DEF_STEREO_COUNT>
4

> <PUBCHEM_ATOM_UDEF_STEREO_COUNT>
0

> <PUBCHEM_BOND_DEF_STEREO_COUNT>
0

> <PUBCHEM_BOND_UDEF_STEREO_COUNT>
0

> <PUBCHEM_ISOTOPIC_ATOM_COUNT>
0

> <PUBCHEM_COMPONENT_COUNT>
1

> <PUBCHEM_CACTVS_TAUTO_COUNT>
6

> <PUBCHEM_CONFORMER_ID>
0613A70700000001

> <PUBCHEM_MMFF94_ENERGY>
94.6766

> <PUBCHEM_FEATURE_SELFOVERLAP>
45.757

> <PUBCHEM_SHAPE_FINGERPRINT>
10366900 7 18411418380708103436
10721379 63 16742233101318046901
10863032 1 17631159806137173389
12236239 1 16917065568307597100
12293681 25 18333449828864685475
12714826 92 17386587841595261353
13140716 1 18057331793622333818
13149001 5 17968366944717510741
13224815 77 18272937085691021224
13583140 156 17632030718399204425
13911987 19 18268145542940675996
14223421 5 18269291100949138330
14787075 74 17346021394337823616
15238133 3 11531045084947993438
16945 1 18201445778901650572
17349148 13 18336256873618575700
17980427 23 14562529613659395534
1813 80 17098369616032806083
200 152 17988636402488202364
20600515 1 17389134378907174473
21033648 144 18041272270668438468
21033650 10 16371300913061642206
21285901 2 17751373987069686195
21424621 283 17605543363328468957
22182313 1 18260840284089194827
229495 10 17702680855849122648
23419403 2 18046343299810117481
23557571 272 17968672578272903122
23558518 356 18122913027375154568
23559900 14 17822008662916192882
3380486 145 18337680839986933635
469060 322 18125151886504819262
5845 1 17754499820953772545
70251023 43 18056188073353283511
9709674 26 18267309737903657978

> <PUBCHEM_SHAPE_MULTIPOLES>
536.92
8.86
2.88
2.45
3.33
1.8
0.2
0.65
2.18
0.64
-0.42
-4.11
0.81
2.8

> <PUBCHEM_SHAPE_SELFOVERLAP>
1166.118

> <PUBCHEM_SHAPE_VOLUME>
288.4

> <PUBCHEM_COORDINATE_TYPE>
2
5
10

$$$$
