53260763
  -OEChem-09222006293D

 28 29  0     1  0  0  0  0  0999 V2000
    1.7243   -1.0272    0.0163 O   0  0  0  0  0  0  0  0  0  0  0  0
   -2.1289    0.7831   -0.9859 O   0  0  0  0  0  0  0  0  0  0  0  0
   -0.2293   -2.9699    0.1197 O   0  0  0  0  0  0  0  0  0  0  0  0
   -0.9333    2.9927    0.1321 O   0  0  0  0  0  0  0  0  0  0  0  0
    3.1267    0.4725    1.0306 O   0  0  0  0  0  0  0  0  0  0  0  0
    0.2486    0.4983   -1.0268 C   0  0  2  0  0  0  0  0  0  0  0  0
   -1.0075    0.6164   -0.1034 C   0  0  2  0  0  0  0  0  0  0  0  0
   -1.1157   -0.7518    0.6140 C   0  0  2  0  0  0  0  0  0  0  0  0
    0.6652   -0.9713   -0.9543 C   0  0  2  0  0  0  0  0  0  0  0  0
   -0.5605   -1.7137   -0.4391 C   0  0  1  0  0  0  0  0  0  0  0  0
    1.5186    1.2154   -0.6149 C   0  0  0  0  0  0  0  0  0  0  0  0
   -1.0158    1.7888    0.8729 C   0  0  0  0  0  0  0  0  0  0  0  0
   -2.5099   -1.1546    1.0836 C   0  0  0  0  0  0  0  0  0  0  0  0
    2.2176    0.2212    0.2553 C   0  0  0  0  0  0  0  0  0  0  0  0
   -0.0238    0.7704   -2.0541 H   0  0  0  0  0  0  0  0  0  0  0  0
   -0.4592   -0.7657    1.4954 H   0  0  0  0  0  0  0  0  0  0  0  0
    1.0433   -1.3788   -1.8971 H   0  0  0  0  0  0  0  0  0  0  0  0
   -1.2858   -1.8676   -1.2476 H   0  0  0  0  0  0  0  0  0  0  0  0
    1.3712    2.1586   -0.0916 H   0  0  0  0  0  0  0  0  0  0  0  0
    2.1568    1.3928   -1.4878 H   0  0  0  0  0  0  0  0  0  0  0  0
   -0.1879    1.7397    1.5869 H   0  0  0  0  0  0  0  0  0  0  0  0
   -1.9565    1.8170    1.4327 H   0  0  0  0  0  0  0  0  0  0  0  0
   -3.2137   -1.2349    0.2488 H   0  0  0  0  0  0  0  0  0  0  0  0
   -2.9075   -0.4235    1.7942 H   0  0  0  0  0  0  0  0  0  0  0  0
   -2.4807   -2.1271    1.5863 H   0  0  0  0  0  0  0  0  0  0  0  0
   -2.0469    1.6560   -1.4072 H   0  0  0  0  0  0  0  0  0  0  0  0
    0.2115   -3.4899   -0.5736 H   0  0  0  0  0  0  0  0  0  0  0  0
   -0.9438    3.7247    0.7720 H   0  0  0  0  0  0  0  0  0  0  0  0
  1  9  1  0  0  0  0
  1 14  1  0  0  0  0
  2  7  1  0  0  0  0
  2 26  1  0  0  0  0
  3 10  1  0  0  0  0
  3 27  1  0  0  0  0
  4 12  1  0  0  0  0
  4 28  1  0  0  0  0
  5 14  2  0  0  0  0
  6  7  1  0  0  0  0
  6  9  1  0  0  0  0
  6 11  1  0  0  0  0
  6 15  1  0  0  0  0
  7  8  1  0  0  0  0
  7 12  1  0  0  0  0
  8 10  1  0  0  0  0
  8 13  1  0  0  0  0
  8 16  1  0  0  0  0
  9 10  1  0  0  0  0
  9 17  1  0  0  0  0
 10 18  1  0  0  0  0
 11 14  1  0  0  0  0
 11 19  1  0  0  0  0
 11 20  1  0  0  0  0
 12 21  1  0  0  0  0
 12 22  1  0  0  0  0
 13 23  1  0  0  0  0
 13 24  1  0  0  0  0
 13 25  1  0  0  0  0
M  END
> <PUBCHEM_COMPOUND_CID>
53260763

> <PUBCHEM_CONFORMER_RMSD>
0.6

> <PUBCHEM_CONFORMER_DIVERSEORDER>
1
3
2
5
4

> <PUBCHEM_MMFF94_PARTIAL_CHARGES>
14
1 -0.43
10 0.28
11 0.06
12 0.28
14 0.66
2 -0.68
26 0.4
27 0.4
28 0.4
3 -0.68
4 -0.68
5 -0.57
7 0.28
9 0.28

> <PUBCHEM_EFFECTIVE_ROTOR_COUNT>
2

> <PUBCHEM_PHARMACOPHORE_FEATURES>
9
1 2 acceptor
1 2 donor
1 3 acceptor
1 3 donor
1 4 acceptor
1 4 donor
1 5 acceptor
5 1 6 9 11 14 rings
5 6 7 8 9 10 rings

> <PUBCHEM_HEAVY_ATOM_COUNT>
14

> <PUBCHEM_ATOM_DEF_STEREO_COUNT>
5

> <PUBCHEM_ATOM_UDEF_STEREO_COUNT>
0

> <PUBCHEM_BOND_DEF_STEREO_COUNT>
0

> <PUBCHEM_BOND_UDEF_STEREO_COUNT>
0

> <PUBCHEM_ISOTOPIC_ATOM_COUNT>
0

> <PUBCHEM_COMPONENT_COUNT>
1

> <PUBCHEM_CACTVS_TAUTO_COUNT>
2

> <PUBCHEM_CONFORMER_ID>
032CB1DB00000001

> <PUBCHEM_MMFF94_ENERGY>
43.8297

> <PUBCHEM_FEATURE_SELFOVERLAP>
46.261

> <PUBCHEM_SHAPE_FINGERPRINT>
12382932 28 18196381535175088546
12423570 1 15896984507563658263
13024252 1 13479679890131966324
13380536 237 17978789008898629609
15076042 46 18408886235150981216
15557651 10 17275110556409341010
15852999 172 17897431814279772557
16945 1 18191586560729269358
20511035 2 18052547568772917782
21922407 69 15504380095120853358
23419403 2 17041424916302379948
23559900 14 17550125666949789366
241688 4 17111845964570623139
2748010 2 18338528438533893927
369184 2 18059283357509324690
5084963 1 18058752220278522606
53812654 25 18123756619017950847
63268167 104 17115794314999900577

> <PUBCHEM_SHAPE_MULTIPOLES>
258.77
3.04
2.57
1.08
1.04
0.59
-0.01
-0.39
1.09
-0.86
0.08
-0.01
0.07
0.09

> <PUBCHEM_SHAPE_SELFOVERLAP>
547.413

> <PUBCHEM_SHAPE_VOLUME>
147.4

> <PUBCHEM_COORDINATE_TYPE>
2
5
10

$$$$
