119077162
  -OEChem-09222006213D

 42 47  0     1  0  0  0  0  0999 V2000
    0.0842    2.5061   -0.1261 O   0  0  0  0  0  0  0  0  0  0  0  0
   -1.4824   -0.5908    1.1926 N   0  0  2  0  0  0  0  0  0  0  0  0
    1.7508   -1.7913   -0.1626 N   0  0  0  0  0  0  0  0  0  0  0  0
   -1.2365    0.7967    0.7327 C   0  0  2  0  0  0  0  0  0  0  0  0
   -1.3934    0.9064   -0.8039 C   0  0  1  0  0  0  0  0  0  0  0  0
   -2.3909   -0.1430   -1.2585 C   0  0  1  0  0  0  0  0  0  0  0  0
   -0.7733   -1.5044    0.2416 C   0  0  1  0  0  0  0  0  0  0  0  0
    0.1668    1.3753    0.8215 C   0  0  1  0  0  0  0  0  0  0  0  0
   -1.5332   -1.4745   -1.1447 C   0  0  0  0  0  0  0  0  0  0  0  0
   -2.9593   -0.8036    1.0996 C   0  0  0  0  0  0  0  0  0  0  0  0
   -1.1680    2.3775   -0.9194 C   0  0  0  0  0  0  0  0  0  0  0  0
   -3.4926   -0.3144   -0.2384 C   0  0  0  0  0  0  0  0  0  0  0  0
    0.6735   -1.0228    0.1697 C   0  0  0  0  0  0  0  0  0  0  0  0
    1.1279    0.2732    0.4299 C   0  0  0  0  0  0  0  0  0  0  0  0
    2.5346    0.2763    0.2448 C   0  0  0  0  0  0  0  0  0  0  0  0
   -4.7820   -0.0431   -0.4718 C   0  0  0  0  0  0  0  0  0  0  0  0
    2.8985   -1.0248   -0.1254 C   0  0  0  0  0  0  0  0  0  0  0  0
    3.5399    1.2577    0.3521 C   0  0  0  0  0  0  0  0  0  0  0  0
   -5.8619   -0.1845    0.5472 C   0  0  0  0  0  0  0  0  0  0  0  0
    4.2248   -1.3853   -0.3917 C   0  0  0  0  0  0  0  0  0  0  0  0
    4.8687    0.9075    0.0884 C   0  0  0  0  0  0  0  0  0  0  0  0
    5.2037   -0.3943   -0.2775 C   0  0  0  0  0  0  0  0  0  0  0  0
   -1.9219    1.4788    1.2602 H   0  0  0  0  0  0  0  0  0  0  0  0
   -0.5059    0.5814   -1.3728 H   0  0  0  0  0  0  0  0  0  0  0  0
   -2.7498    0.0082   -2.2803 H   0  0  0  0  0  0  0  0  0  0  0  0
   -0.7807   -2.5274    0.6374 H   0  0  0  0  0  0  0  0  0  0  0  0
    0.4085    1.7606    1.8169 H   0  0  0  0  0  0  0  0  0  0  0  0
   -0.8240   -1.5433   -1.9792 H   0  0  0  0  0  0  0  0  0  0  0  0
   -2.2010   -2.3434   -1.2180 H   0  0  0  0  0  0  0  0  0  0  0  0
   -3.4228   -0.2557    1.9285 H   0  0  0  0  0  0  0  0  0  0  0  0
   -3.1865   -1.8670    1.2426 H   0  0  0  0  0  0  0  0  0  0  0  0
   -1.9420    2.9985   -0.4579 H   0  0  0  0  0  0  0  0  0  0  0  0
   -0.9668    2.7223   -1.9369 H   0  0  0  0  0  0  0  0  0  0  0  0
    1.7185   -2.7728   -0.4021 H   0  0  0  0  0  0  0  0  0  0  0  0
   -5.0809    0.3209   -1.4513 H   0  0  0  0  0  0  0  0  0  0  0  0
    3.2938    2.2770    0.6358 H   0  0  0  0  0  0  0  0  0  0  0  0
   -6.6928   -0.7530    0.1164 H   0  0  0  0  0  0  0  0  0  0  0  0
   -6.2398    0.8036    0.8274 H   0  0  0  0  0  0  0  0  0  0  0  0
   -5.5550   -0.7070    1.4562 H   0  0  0  0  0  0  0  0  0  0  0  0
    4.4884   -2.3983   -0.6774 H   0  0  0  0  0  0  0  0  0  0  0  0
    5.6475    1.6611    0.1702 H   0  0  0  0  0  0  0  0  0  0  0  0
    6.2424   -0.6445   -0.4780 H   0  0  0  0  0  0  0  0  0  0  0  0
  1  8  1  0  0  0  0
  1 11  1  0  0  0  0
  2  4  1  0  0  0  0
  2  7  1  0  0  0  0
  2 10  1  0  0  0  0
  3 13  1  0  0  0  0
  3 17  1  0  0  0  0
  3 34  1  0  0  0  0
  4  5  1  0  0  0  0
  4  8  1  0  0  0  0
  4 23  1  0  0  0  0
  5  6  1  0  0  0  0
  5 11  1  0  0  0  0
  5 24  1  0  0  0  0
  6  9  1  0  0  0  0
  6 12  1  0  0  0  0
  6 25  1  0  0  0  0
  7  9  1  0  0  0  0
  7 13  1  0  0  0  0
  7 26  1  0  0  0  0
  8 14  1  0  0  0  0
  8 27  1  0  0  0  0
  9 28  1  0  0  0  0
  9 29  1  0  0  0  0
 10 12  1  0  0  0  0
 10 30  1  0  0  0  0
 10 31  1  0  0  0  0
 11 32  1  0  0  0  0
 11 33  1  0  0  0  0
 12 16  2  0  0  0  0
 13 14  2  0  0  0  0
 14 15  1  0  0  0  0
 15 17  1  0  0  0  0
 15 18  2  0  0  0  0
 16 19  1  0  0  0  0
 16 35  1  0  0  0  0
 17 20  2  0  0  0  0
 18 21  1  0  0  0  0
 18 36  1  0  0  0  0
 19 37  1  0  0  0  0
 19 38  1  0  0  0  0
 19 39  1  0  0  0  0
 20 22  1  0  0  0  0
 20 40  1  0  0  0  0
 21 22  2  0  0  0  0
 21 41  1  0  0  0  0
 22 42  1  0  0  0  0
M  END
> <PUBCHEM_COMPOUND_CID>
119077162

> <PUBCHEM_CONFORMER_RMSD>
0.6

> <PUBCHEM_CONFORMER_DIVERSEORDER>
1

> <PUBCHEM_MMFF94_PARTIAL_CHARGES>
25
1 -0.56
10 0.41
11 0.28
12 -0.28
13 -0.33
14 -0.18
16 -0.29
17 -0.15
18 -0.15
19 0.14
2 -0.81
20 -0.15
21 -0.15
22 -0.15
3 0.03
34 0.27
35 0.15
36 0.15
4 0.27
40 0.15
41 0.15
42 0.15
6 0.14
7 0.45
8 0.46

> <PUBCHEM_EFFECTIVE_ROTOR_COUNT>
0.8

> <PUBCHEM_PHARMACOPHORE_FEATURES>
10
1 1 acceptor
1 19 hydrophobe
1 2 cation
1 3 cation
1 3 donor
5 1 4 5 8 11 rings
5 3 13 14 15 17 rings
6 15 17 18 20 21 22 rings
6 2 4 7 8 13 14 rings
8 2 4 5 6 7 9 10 12 rings

> <PUBCHEM_HEAVY_ATOM_COUNT>
22

> <PUBCHEM_ATOM_DEF_STEREO_COUNT>
5

> <PUBCHEM_ATOM_UDEF_STEREO_COUNT>
0

> <PUBCHEM_BOND_DEF_STEREO_COUNT>
1

> <PUBCHEM_BOND_UDEF_STEREO_COUNT>
0

> <PUBCHEM_ISOTOPIC_ATOM_COUNT>
0

> <PUBCHEM_COMPONENT_COUNT>
1

> <PUBCHEM_CACTVS_TAUTO_COUNT>
7

> <PUBCHEM_CONFORMER_ID>
0718F92A00000001

> <PUBCHEM_MMFF94_ENERGY>
99.2284

> <PUBCHEM_FEATURE_SELFOVERLAP>
51.68

> <PUBCHEM_SHAPE_FINGERPRINT>
10863032 1 17970618593832372069
10906281 52 18263947512707860401
11132069 177 18272362122793103538
12011746 2 18335135389275242951
12035758 1 18113907112731678713
12236239 1 17489590073695027851
12403259 415 18341883092209315992
12403814 3 18412260627472390989
12553582 1 18341596127477891181
12788726 201 18188482476306564177
128620 24 18411134736661852788
12969540 114 18262219076482306343
13140716 1 18121774195326526192
13224815 77 18413384324635965336
14115302 16 17676496076379874255
14142880 1 18198911313925759953
14170010 4 18411138074194489113
14790565 3 18412549782136093649
14955137 171 18339652247377121793
15196674 1 18339359669371971572
15840311 113 18201729440354890617
15848702 151 17846225418643400895
1601671 61 18341331111438604329
16945 1 18128796673187820449
17357779 13 18336254700037972749
17492 89 18120650236946010794
1813 80 18272386255755774429
18785283 64 17752497717875580485
19141452 34 18131348648155281031
200 152 18060134327800791298
21267235 1 18341620287186214150
221357 26 18341897355737118620
22182313 1 18265026129140945509
23175994 123 18260834812654099053
23352939 185 18342741822995100529
23402539 116 18411412934077791966
23419403 2 15577006132824442669
23557571 272 17822292353368151636
23559900 14 18186521003977084370
2871803 45 18408323259559780786
296302 2 18411699911039198095
34934 24 18410851100921336650
350125 39 18341050723019995856
4028521 119 18261384521128252148
4340502 62 16877943828116063051
5104073 3 18339918196073386416
59755656 215 18334018250965326414
7495541 125 16298679381639303913
9709674 26 18339083675280257702

> <PUBCHEM_SHAPE_MULTIPOLES>
436.92
9.72
1.93
1.04
0.89
0.7
-0.04
-1.23
0.01
0.54
-0.28
-0.69
0
0.45

> <PUBCHEM_SHAPE_SELFOVERLAP>
1001.95

> <PUBCHEM_SHAPE_VOLUME>
227.2

> <PUBCHEM_COORDINATE_TYPE>
2
5
10

$$$$
