44583829
  -OEChem-09222004263D

 48 52  0     1  0  0  0  0  0999 V2000
   -0.2789    2.2251   -0.8758 O   0  0  0  0  0  0  0  0  0  0  0  0
   -3.8187    0.6962   -1.0937 O   0  0  0  0  0  0  0  0  0  0  0  0
   -1.7839    0.7070   -2.7013 O   0  0  0  0  0  0  0  0  0  0  0  0
   -0.1957   -2.1317    0.3396 O   0  0  0  0  0  0  0  0  0  0  0  0
    2.5331   -2.8629   -0.1100 O   0  0  0  0  0  0  0  0  0  0  0  0
   -2.2211   -0.4731    1.7368 N   0  0  0  0  0  0  0  0  0  0  0  0
    2.0421   -1.5796    0.0872 N   0  0  0  0  0  0  0  0  0  0  0  0
   -2.2479    1.6061    0.5297 C   0  0  1  0  0  0  0  0  0  0  0  0
   -2.5939    0.4754   -0.4255 C   0  0  2  0  0  0  0  0  0  0  0  0
    0.5607    0.2511    0.2906 C   0  0  2  0  0  0  0  0  0  0  0  0
   -0.1222    0.8024   -0.9895 C   0  0  1  0  0  0  0  0  0  0  0  0
   -1.5774    0.8594    1.6891 C   0  0  2  0  0  0  0  0  0  0  0  0
   -1.4622    0.1707   -1.4102 C   0  0  2  0  0  0  0  0  0  0  0  0
   -0.0545    0.7091    1.6317 C   0  0  0  0  0  0  0  0  0  0  0  0
   -1.3997    2.6857   -0.1282 C   0  0  0  0  0  0  0  0  0  0  0  0
   -2.7694   -0.6416    0.5732 C   0  0  0  0  0  0  0  0  0  0  0  0
    2.0480    0.6605    0.2662 C   0  0  0  0  0  0  0  0  0  0  0  0
    0.7049   -1.3129    0.2461 C   0  0  0  0  0  0  0  0  0  0  0  0
   -3.5199   -1.8908    0.2295 C   0  0  0  0  0  0  0  0  0  0  0  0
    2.8580   -0.4691    0.1393 C   0  0  0  0  0  0  0  0  0  0  0  0
    2.6276    1.9183    0.3426 C   0  0  0  0  0  0  0  0  0  0  0  0
    4.2375   -0.4002    0.0882 C   0  0  0  0  0  0  0  0  0  0  0  0
   -4.9799   -1.7452    0.5985 C   0  0  0  0  0  0  0  0  0  0  0  0
    4.0220    2.0148    0.2916 C   0  0  0  0  0  0  0  0  0  0  0  0
    4.8200    0.8650    0.1655 C   0  0  0  0  0  0  0  0  0  0  0  0
    2.5713   -3.1397   -1.5110 C   0  0  0  0  0  0  0  0  0  0  0  0
   -3.1644    2.0773    0.9118 H   0  0  0  0  0  0  0  0  0  0  0  0
    0.5698    0.6629   -1.8320 H   0  0  0  0  0  0  0  0  0  0  0  0
   -1.8244    1.3777    2.6245 H   0  0  0  0  0  0  0  0  0  0  0  0
   -1.3525   -0.9077   -1.5599 H   0  0  0  0  0  0  0  0  0  0  0  0
    0.2637    0.0277    2.4334 H   0  0  0  0  0  0  0  0  0  0  0  0
    0.3588    1.6885    1.9082 H   0  0  0  0  0  0  0  0  0  0  0  0
   -2.0226    3.2593   -0.8242 H   0  0  0  0  0  0  0  0  0  0  0  0
   -1.0344    3.3979    0.6197 H   0  0  0  0  0  0  0  0  0  0  0  0
   -4.4666    1.0386   -0.4551 H   0  0  0  0  0  0  0  0  0  0  0  0
   -3.0800   -2.7279    0.7824 H   0  0  0  0  0  0  0  0  0  0  0  0
   -3.4136   -2.1045   -0.8384 H   0  0  0  0  0  0  0  0  0  0  0  0
   -1.0835    0.4324   -3.3174 H   0  0  0  0  0  0  0  0  0  0  0  0
    2.0257    2.8148    0.4421 H   0  0  0  0  0  0  0  0  0  0  0  0
    4.8537   -1.2869   -0.0071 H   0  0  0  0  0  0  0  0  0  0  0  0
   -5.4772   -0.9755    0.0019 H   0  0  0  0  0  0  0  0  0  0  0  0
   -5.0973   -1.4746    1.6533 H   0  0  0  0  0  0  0  0  0  0  0  0
   -5.5080   -2.6890    0.4294 H   0  0  0  0  0  0  0  0  0  0  0  0
    4.4958    2.9912    0.3508 H   0  0  0  0  0  0  0  0  0  0  0  0
    5.9015    0.9646    0.1288 H   0  0  0  0  0  0  0  0  0  0  0  0
    1.5682   -3.0755   -1.9447 H   0  0  0  0  0  0  0  0  0  0  0  0
    3.2516   -2.4547   -2.0262 H   0  0  0  0  0  0  0  0  0  0  0  0
    2.9415   -4.1599   -1.6442 H   0  0  0  0  0  0  0  0  0  0  0  0
  1 11  1  0  0  0  0
  1 15  1  0  0  0  0
  2  9  1  0  0  0  0
  2 35  1  0  0  0  0
  3 13  1  0  0  0  0
  3 38  1  0  0  0  0
  4 18  2  0  0  0  0
  5  7  1  0  0  0  0
  5 26  1  0  0  0  0
  6 12  1  0  0  0  0
  6 16  2  0  0  0  0
  7 18  1  0  0  0  0
  7 20  1  0  0  0  0
  8  9  1  0  0  0  0
  8 12  1  0  0  0  0
  8 15  1  0  0  0  0
  8 27  1  0  0  0  0
  9 13  1  0  0  0  0
  9 16  1  0  0  0  0
 10 11  1  0  0  0  0
 10 14  1  0  0  0  0
 10 17  1  0  0  0  0
 10 18  1  0  0  0  0
 11 13  1  0  0  0  0
 11 28  1  0  0  0  0
 12 14  1  0  0  0  0
 12 29  1  0  0  0  0
 13 30  1  0  0  0  0
 14 31  1  0  0  0  0
 14 32  1  0  0  0  0
 15 33  1  0  0  0  0
 15 34  1  0  0  0  0
 16 19  1  0  0  0  0
 17 20  1  0  0  0  0
 17 21  2  0  0  0  0
 19 23  1  0  0  0  0
 19 36  1  0  0  0  0
 19 37  1  0  0  0  0
 20 22  2  0  0  0  0
 21 24  1  0  0  0  0
 21 39  1  0  0  0  0
 22 25  1  0  0  0  0
 22 40  1  0  0  0  0
 23 41  1  0  0  0  0
 23 42  1  0  0  0  0
 23 43  1  0  0  0  0
 24 25  2  0  0  0  0
 24 44  1  0  0  0  0
 25 45  1  0  0  0  0
 26 46  1  0  0  0  0
 26 47  1  0  0  0  0
 26 48  1  0  0  0  0
M  END
> <PUBCHEM_COMPOUND_CID>
44583829

> <PUBCHEM_CONFORMER_RMSD>
0.6

> <PUBCHEM_CONFORMER_DIVERSEORDER>
1
2

> <PUBCHEM_MMFF94_PARTIAL_CHARGES>
29
1 -0.56
10 0.2
11 0.28
12 0.25
13 0.28
15 0.28
16 0.33
17 -0.14
18 0.57
19 0.06
2 -0.68
20 0.12
21 -0.15
22 -0.15
24 -0.15
25 -0.15
26 0.28
3 -0.68
35 0.4
38 0.4
39 0.15
4 -0.57
40 0.15
44 0.15
45 0.15
5 -0.32
6 -0.7
7 -0.14
9 0.34

> <PUBCHEM_EFFECTIVE_ROTOR_COUNT>
3

> <PUBCHEM_PHARMACOPHORE_FEATURES>
12
1 1 acceptor
1 2 acceptor
1 2 donor
1 23 hydrophobe
1 3 acceptor
1 3 donor
1 4 acceptor
1 6 acceptor
5 6 8 9 12 16 rings
5 7 10 17 18 20 rings
6 17 20 21 22 24 25 rings
9 1 8 9 10 11 12 13 14 15 rings

> <PUBCHEM_HEAVY_ATOM_COUNT>
26

> <PUBCHEM_ATOM_DEF_STEREO_COUNT>
6

> <PUBCHEM_ATOM_UDEF_STEREO_COUNT>
0

> <PUBCHEM_BOND_DEF_STEREO_COUNT>
0

> <PUBCHEM_BOND_UDEF_STEREO_COUNT>
0

> <PUBCHEM_ISOTOPIC_ATOM_COUNT>
0

> <PUBCHEM_COMPONENT_COUNT>
1

> <PUBCHEM_CACTVS_TAUTO_COUNT>
1

> <PUBCHEM_CONFORMER_ID>
02A84B9500000001

> <PUBCHEM_MMFF94_ENERGY>
103.5972

> <PUBCHEM_FEATURE_SELFOVERLAP>
61.671

> <PUBCHEM_SHAPE_FINGERPRINT>
10863032 1 18412826859155580801
10906281 52 17896902017258400609
10948715 1 18124032330554907681
11315181 36 13623526871081817224
11370993 70 18410571816419930706
11578080 2 18115876208686085381
12236239 1 17561086920776069033
12403259 226 18408601431917741456
12623949 98 17916328124189678703
13140716 1 18123746719561218282
13224815 77 18408042905485014936
13544653 18 18261962954697400755
13583140 156 17917987274081525873
14223421 5 18341336595668495754
14787075 74 17843968271626885817
14863182 85 18193576672597127855
16752209 62 16343410709881083549
16945 1 18058714909844855312
17349148 13 17603868931213714480
17357779 13 18041551568132996631
17980427 23 16660647392547734492
1813 80 17458642120161074951
19930381 70 18266177408199353480
200 152 18341890826764596193
20600515 1 16805615801377621095
221490 88 18340492149627978918
22182313 1 18187653483430906931
23227448 37 18267869376374425937
23402539 116 16660352706304335589
23419403 2 17027421527959135689
23557571 272 18040437698081130547
23559900 14 18268423538798178090
23598288 3 16772402707487262579
238 59 18195218110492123006
2748010 2 18188217519578323034
350125 39 18267588090835088872
5104073 3 18412258416007618976
59755656 215 18335422387079314282
6287921 2 18336564741237801524
9709674 26 18267300937088511134

> <PUBCHEM_SHAPE_MULTIPOLES>
495.76
7.72
2.89
1.48
1.44
1.34
0.48
1.37
-0.64
1.16
0.5
-1.04
-0.17
1.02

> <PUBCHEM_SHAPE_SELFOVERLAP>
1108.14

> <PUBCHEM_SHAPE_VOLUME>
259.8

> <PUBCHEM_COORDINATE_TYPE>
2
5
10

$$$$
