14217347
  -OEChem-09222004243D

 47 51  0     1  0  0  0  0  0999 V2000
   -0.3419    2.2180   -1.0227 O   0  0  0  0  0  0  0  0  0  0  0  0
   -1.8727    0.6024   -2.8131 O   0  0  0  0  0  0  0  0  0  0  0  0
   -0.3933   -2.0892    0.3811 O   0  0  0  0  0  0  0  0  0  0  0  0
    2.3297   -2.8941    0.0080 O   0  0  0  0  0  0  0  0  0  0  0  0
   -2.4415   -0.3333    1.6294 N   0  0  0  0  0  0  0  0  0  0  0  0
    1.8623   -1.5955    0.1521 N   0  0  0  0  0  0  0  0  0  0  0  0
   -2.3513    1.7049    0.3610 C   0  0  1  0  0  0  0  0  0  0  0  0
    0.4171    0.2719    0.2530 C   0  0  2  0  0  0  0  0  0  0  0  0
   -2.7127    0.5609   -0.5679 C   0  0  1  0  0  0  0  0  0  0  0  0
   -0.2170    0.7898   -1.0676 C   0  0  1  0  0  0  0  0  0  0  0  0
   -1.7480    0.9739    1.5651 C   0  0  2  0  0  0  0  0  0  0  0  0
   -1.5595    0.1653   -1.4841 C   0  0  2  0  0  0  0  0  0  0  0  0
   -0.2292    0.7796    1.5614 C   0  0  0  0  0  0  0  0  0  0  0  0
   -1.4519    2.7377   -0.2993 C   0  0  0  0  0  0  0  0  0  0  0  0
   -2.9773   -0.5018    0.4599 C   0  0  0  0  0  0  0  0  0  0  0  0
    1.9121    0.6489    0.2578 C   0  0  0  0  0  0  0  0  0  0  0  0
    0.5278   -1.2955    0.2686 C   0  0  0  0  0  0  0  0  0  0  0  0
    2.7005   -0.5010    0.1899 C   0  0  0  0  0  0  0  0  0  0  0  0
   -3.7882   -1.7115    0.1225 C   0  0  0  0  0  0  0  0  0  0  0  0
    2.5162    1.8964    0.3101 C   0  0  0  0  0  0  0  0  0  0  0  0
    4.0821   -0.4621    0.1754 C   0  0  0  0  0  0  0  0  0  0  0  0
   -5.2625   -1.5037    0.4181 C   0  0  0  0  0  0  0  0  0  0  0  0
    3.9133    1.9623    0.2952 C   0  0  0  0  0  0  0  0  0  0  0  0
    4.6893    0.7927    0.2284 C   0  0  0  0  0  0  0  0  0  0  0  0
    2.3966   -3.2170   -1.3821 C   0  0  0  0  0  0  0  0  0  0  0  0
   -3.2737    2.1992    0.6975 H   0  0  0  0  0  0  0  0  0  0  0  0
   -3.6289    0.7759   -1.1282 H   0  0  0  0  0  0  0  0  0  0  0  0
    0.4889    0.5947   -1.8871 H   0  0  0  0  0  0  0  0  0  0  0  0
   -2.0085    1.5291    2.4754 H   0  0  0  0  0  0  0  0  0  0  0  0
   -1.4709   -0.9226   -1.5568 H   0  0  0  0  0  0  0  0  0  0  0  0
    0.2031    1.7539    1.8269 H   0  0  0  0  0  0  0  0  0  0  0  0
    0.0433    0.1113    2.3904 H   0  0  0  0  0  0  0  0  0  0  0  0
   -2.0410    3.3224   -1.0152 H   0  0  0  0  0  0  0  0  0  0  0  0
   -1.0699    3.4490    0.4412 H   0  0  0  0  0  0  0  0  0  0  0  0
   -3.6507   -1.9530   -0.9364 H   0  0  0  0  0  0  0  0  0  0  0  0
   -3.4128   -2.5598    0.7056 H   0  0  0  0  0  0  0  0  0  0  0  0
   -1.1556    0.3029   -3.3976 H   0  0  0  0  0  0  0  0  0  0  0  0
    1.9310    2.8078    0.3639 H   0  0  0  0  0  0  0  0  0  0  0  0
    4.6814   -1.3640    0.1264 H   0  0  0  0  0  0  0  0  0  0  0  0
   -5.8333   -2.4040    0.1714 H   0  0  0  0  0  0  0  0  0  0  0  0
   -5.6653   -0.6696   -0.1657 H   0  0  0  0  0  0  0  0  0  0  0  0
   -5.4209   -1.2742    1.4770 H   0  0  0  0  0  0  0  0  0  0  0  0
    4.4063    2.9301    0.3364 H   0  0  0  0  0  0  0  0  0  0  0  0
    5.7733    0.8686    0.2190 H   0  0  0  0  0  0  0  0  0  0  0  0
    1.4062   -3.1455   -1.8430 H   0  0  0  0  0  0  0  0  0  0  0  0
    2.7474   -4.2486   -1.4732 H   0  0  0  0  0  0  0  0  0  0  0  0
    3.1044   -2.5634   -1.9013 H   0  0  0  0  0  0  0  0  0  0  0  0
  1 10  1  0  0  0  0
  1 14  1  0  0  0  0
  2 12  1  0  0  0  0
  2 37  1  0  0  0  0
  3 17  2  0  0  0  0
  4  6  1  0  0  0  0
  4 25  1  0  0  0  0
  5 11  1  0  0  0  0
  5 15  2  0  0  0  0
  6 17  1  0  0  0  0
  6 18  1  0  0  0  0
  7  9  1  0  0  0  0
  7 11  1  0  0  0  0
  7 14  1  0  0  0  0
  7 26  1  0  0  0  0
  8 10  1  0  0  0  0
  8 13  1  0  0  0  0
  8 16  1  0  0  0  0
  8 17  1  0  0  0  0
  9 12  1  0  0  0  0
  9 15  1  0  0  0  0
  9 27  1  0  0  0  0
 10 12  1  0  0  0  0
 10 28  1  0  0  0  0
 11 13  1  0  0  0  0
 11 29  1  0  0  0  0
 12 30  1  0  0  0  0
 13 31  1  0  0  0  0
 13 32  1  0  0  0  0
 14 33  1  0  0  0  0
 14 34  1  0  0  0  0
 15 19  1  0  0  0  0
 16 18  1  0  0  0  0
 16 20  2  0  0  0  0
 18 21  2  0  0  0  0
 19 22  1  0  0  0  0
 19 35  1  0  0  0  0
 19 36  1  0  0  0  0
 20 23  1  0  0  0  0
 20 38  1  0  0  0  0
 21 24  1  0  0  0  0
 21 39  1  0  0  0  0
 22 40  1  0  0  0  0
 22 41  1  0  0  0  0
 22 42  1  0  0  0  0
 23 24  2  0  0  0  0
 23 43  1  0  0  0  0
 24 44  1  0  0  0  0
 25 45  1  0  0  0  0
 25 46  1  0  0  0  0
 25 47  1  0  0  0  0
M  END
> <PUBCHEM_COMPOUND_CID>
14217347

> <PUBCHEM_CONFORMER_RMSD>
0.6

> <PUBCHEM_CONFORMER_DIVERSEORDER>
1
2

> <PUBCHEM_MMFF94_PARTIAL_CHARGES>
27
1 -0.56
10 0.28
11 0.25
12 0.28
14 0.28
15 0.33
16 -0.14
17 0.57
18 0.12
19 0.06
2 -0.68
20 -0.15
21 -0.15
23 -0.15
24 -0.15
25 0.28
3 -0.57
37 0.4
38 0.15
39 0.15
4 -0.32
43 0.15
44 0.15
5 -0.7
6 -0.14
8 0.2
9 0.06

> <PUBCHEM_EFFECTIVE_ROTOR_COUNT>
3

> <PUBCHEM_PHARMACOPHORE_FEATURES>
10
1 1 acceptor
1 2 acceptor
1 2 donor
1 22 hydrophobe
1 3 acceptor
1 5 acceptor
5 5 7 9 11 15 rings
5 6 8 16 17 18 rings
6 16 18 20 21 23 24 rings
9 1 7 8 9 10 11 12 13 14 rings

> <PUBCHEM_HEAVY_ATOM_COUNT>
25

> <PUBCHEM_ATOM_DEF_STEREO_COUNT>
6

> <PUBCHEM_ATOM_UDEF_STEREO_COUNT>
0

> <PUBCHEM_BOND_DEF_STEREO_COUNT>
0

> <PUBCHEM_BOND_UDEF_STEREO_COUNT>
0

> <PUBCHEM_ISOTOPIC_ATOM_COUNT>
0

> <PUBCHEM_COMPONENT_COUNT>
1

> <PUBCHEM_CACTVS_TAUTO_COUNT>
1

> <PUBCHEM_CONFORMER_ID>
00D8F08300000001

> <PUBCHEM_MMFF94_ENERGY>
95.0567

> <PUBCHEM_FEATURE_SELFOVERLAP>
51.491

> <PUBCHEM_SHAPE_FINGERPRINT>
10366900 7 17603591833230581136
10863032 1 18341051826763345905
10906281 52 17896619429927410209
10948715 1 18195243309224120865
11315181 36 13406792225636043744
11578080 2 17969787380016239573
11759241 127 18259988209895843486
12011746 2 18262521506087229033
12236239 1 17703796958761417977
12403259 226 18335978680276239792
12623949 98 17988102035727357151
13004483 165 18409721842861706555
13140716 1 18194958784778062114
13224815 77 18335137579365795808
13544653 18 18261399991911779603
13583140 156 17917983966983094697
14223421 5 18340772541834639330
14787075 74 17915743282671001745
14863182 85 18193012610357920727
15209289 33 18129664226395600248
15309172 13 18410574019991445448
16945 1 18200573887233648044
17357779 13 17968368057008233551
17492 89 18270966730436627235
17980427 23 17022907873633808548
1813 80 17386301938765718069
192875 21 14923943448663267247
19930381 70 18337952419143203608
200 152 18411133675525518201
20600515 1 16805617991942804341
20691752 17 17313398780940546619
221490 88 18268153067702071142
23227448 37 18267022743873314729
23402539 116 17894906352114158825
23419403 2 17026577090170540481
23557571 272 17967250888458589301
23559900 14 18197211456164140202
23566358 27 18269854033443134878
23598288 3 16987442992761509049
238 59 18194371482201570236
2748010 2 18187932720312717076
350125 39 18267304408208258312
46194498 28 17534886787912230919
5104073 3 18412256208383859840
5283173 99 17895177880247656373
59755656 215 18334858328976825358
6287921 2 18336282158112049244
9709674 26 18267017245993013335

> <PUBCHEM_SHAPE_MULTIPOLES>
481.05
7.56
2.92
1.45
0.28
1.31
0.62
1.58
-1.06
1.18
0.54
-0.98
-0.21
0.78

> <PUBCHEM_SHAPE_SELFOVERLAP>
1071.533

> <PUBCHEM_SHAPE_VOLUME>
253.4

> <PUBCHEM_COORDINATE_TYPE>
2
5
10

$$$$
