44583832
  -OEChem-09222005113D

 56 60  0     1  0  0  0  0  0999 V2000
    0.5247    2.3397    1.3109 O   0  0  0  0  0  0  0  0  0  0  0  0
    0.8467   -1.8940   -0.2167 O   0  0  0  0  0  0  0  0  0  0  0  0
   -1.8442   -2.9074   -0.1895 O   0  0  0  0  0  0  0  0  0  0  0  0
   -5.8104    0.5766   -0.0981 O   0  0  0  0  0  0  0  0  0  0  0  0
    2.6501   -0.1121   -1.6555 N   0  0  2  0  0  0  0  0  0  0  0  0
   -1.4483   -1.5843   -0.0565 N   0  0  0  0  0  0  0  0  0  0  0  0
    2.5703    1.8513   -0.0318 C   0  0  2  0  0  0  0  0  0  0  0  0
   -0.1505    0.3888   -0.0252 C   0  0  2  0  0  0  0  0  0  0  0  0
    1.9995    1.1736   -1.3149 C   0  0  2  0  0  0  0  0  0  0  0  0
    2.9765    0.8375    1.0478 C   0  0  1  0  0  0  0  0  0  0  0  0
    0.4211    0.9101    1.3206 C   0  0  1  0  0  0  0  0  0  0  0  0
    0.4649    1.0100   -1.2942 C   0  0  0  0  0  0  0  0  0  0  0  0
    1.7484    0.3052    1.7978 C   0  0  0  0  0  0  0  0  0  0  0  0
    1.6233    2.8869    0.5833 C   0  0  0  0  0  0  0  0  0  0  0  0
    3.8541   -0.2516    0.4708 C   0  0  0  0  0  0  0  0  0  0  0  0
   -1.6690    0.6524   -0.0445 C   0  0  0  0  0  0  0  0  0  0  0  0
    3.9651   -0.2825   -1.0314 C   0  0  0  0  0  0  0  0  0  0  0  0
   -0.1377   -1.1791   -0.1101 C   0  0  0  0  0  0  0  0  0  0  0  0
   -2.3677   -0.5560   -0.0606 C   0  0  0  0  0  0  0  0  0  0  0  0
    2.7399   -0.3149   -3.1029 C   0  0  0  0  0  0  0  0  0  0  0  0
    4.5107   -1.1261    1.2493 C   0  0  0  0  0  0  0  0  0  0  0  0
   -2.3644    1.8522   -0.0421 C   0  0  0  0  0  0  0  0  0  0  0  0
   -3.7480   -0.6219   -0.0803 C   0  0  0  0  0  0  0  0  0  0  0  0
   -3.7623    1.8119   -0.0604 C   0  0  0  0  0  0  0  0  0  0  0  0
    5.4002   -2.1991    0.7249 C   0  0  0  0  0  0  0  0  0  0  0  0
   -4.4479    0.5850   -0.0797 C   0  0  0  0  0  0  0  0  0  0  0  0
   -2.0954   -3.4539    1.1063 C   0  0  0  0  0  0  0  0  0  0  0  0
   -6.4496   -0.6982   -0.1171 C   0  0  0  0  0  0  0  0  0  0  0  0
    3.4777    2.3906   -0.3437 H   0  0  0  0  0  0  0  0  0  0  0  0
    2.2152    1.8869   -2.1252 H   0  0  0  0  0  0  0  0  0  0  0  0
    3.5938    1.3835    1.7777 H   0  0  0  0  0  0  0  0  0  0  0  0
   -0.3079    0.6739    2.1084 H   0  0  0  0  0  0  0  0  0  0  0  0
    0.0393    2.0096   -1.4595 H   0  0  0  0  0  0  0  0  0  0  0  0
    0.1374    0.4407   -2.1752 H   0  0  0  0  0  0  0  0  0  0  0  0
    1.8752    0.6014    2.8496 H   0  0  0  0  0  0  0  0  0  0  0  0
    1.7030   -0.7876    1.8213 H   0  0  0  0  0  0  0  0  0  0  0  0
    2.1803    3.5129    1.2904 H   0  0  0  0  0  0  0  0  0  0  0  0
    1.2289    3.5674   -0.1792 H   0  0  0  0  0  0  0  0  0  0  0  0
    4.3758   -1.2374   -1.3744 H   0  0  0  0  0  0  0  0  0  0  0  0
    4.6598    0.5002   -1.3639 H   0  0  0  0  0  0  0  0  0  0  0  0
    1.7559   -0.2493   -3.5780 H   0  0  0  0  0  0  0  0  0  0  0  0
    3.1224   -1.3169   -3.3279 H   0  0  0  0  0  0  0  0  0  0  0  0
    3.4004    0.4191   -3.5786 H   0  0  0  0  0  0  0  0  0  0  0  0
    4.3962   -1.0702    2.3289 H   0  0  0  0  0  0  0  0  0  0  0  0
   -1.8486    2.8059   -0.0287 H   0  0  0  0  0  0  0  0  0  0  0  0
   -4.2169   -1.5971   -0.1001 H   0  0  0  0  0  0  0  0  0  0  0  0
   -4.3217    2.7443   -0.0600 H   0  0  0  0  0  0  0  0  0  0  0  0
    6.0320   -1.8608   -0.1016 H   0  0  0  0  0  0  0  0  0  0  0  0
    6.0810   -2.5231    1.5199 H   0  0  0  0  0  0  0  0  0  0  0  0
    4.8156   -3.0703    0.4149 H   0  0  0  0  0  0  0  0  0  0  0  0
   -1.1922   -3.4053    1.7232 H   0  0  0  0  0  0  0  0  0  0  0  0
   -2.9199   -2.9341    1.6030 H   0  0  0  0  0  0  0  0  0  0  0  0
   -2.3737   -4.5040    0.9821 H   0  0  0  0  0  0  0  0  0  0  0  0
   -6.2096   -1.2556   -1.0290 H   0  0  0  0  0  0  0  0  0  0  0  0
   -6.2315   -1.2721    0.7900 H   0  0  0  0  0  0  0  0  0  0  0  0
   -7.5296   -0.5180   -0.1285 H   0  0  0  0  0  0  0  0  0  0  0  0
  1 11  1  0  0  0  0
  1 14  1  0  0  0  0
  2 18  2  0  0  0  0
  3  6  1  0  0  0  0
  3 27  1  0  0  0  0
  4 26  1  0  0  0  0
  4 28  1  0  0  0  0
  5  9  1  0  0  0  0
  5 17  1  0  0  0  0
  5 20  1  0  0  0  0
  6 18  1  0  0  0  0
  6 19  1  0  0  0  0
  7  9  1  0  0  0  0
  7 10  1  0  0  0  0
  7 14  1  0  0  0  0
  7 29  1  0  0  0  0
  8 11  1  0  0  0  0
  8 12  1  0  0  0  0
  8 16  1  0  0  0  0
  8 18  1  0  0  0  0
  9 12  1  0  0  0  0
  9 30  1  0  0  0  0
 10 13  1  0  0  0  0
 10 15  1  0  0  0  0
 10 31  1  0  0  0  0
 11 13  1  0  0  0  0
 11 32  1  0  0  0  0
 12 33  1  0  0  0  0
 12 34  1  0  0  0  0
 13 35  1  0  0  0  0
 13 36  1  0  0  0  0
 14 37  1  0  0  0  0
 14 38  1  0  0  0  0
 15 17  1  0  0  0  0
 15 21  2  0  0  0  0
 16 19  2  0  0  0  0
 16 22  1  0  0  0  0
 17 39  1  0  0  0  0
 17 40  1  0  0  0  0
 19 23  1  0  0  0  0
 20 41  1  0  0  0  0
 20 42  1  0  0  0  0
 20 43  1  0  0  0  0
 21 25  1  0  0  0  0
 21 44  1  0  0  0  0
 22 24  2  0  0  0  0
 22 45  1  0  0  0  0
 23 26  2  0  0  0  0
 23 46  1  0  0  0  0
 24 26  1  0  0  0  0
 24 47  1  0  0  0  0
 25 48  1  0  0  0  0
 25 49  1  0  0  0  0
 25 50  1  0  0  0  0
 27 51  1  0  0  0  0
 27 52  1  0  0  0  0
 27 53  1  0  0  0  0
 28 54  1  0  0  0  0
 28 55  1  0  0  0  0
 28 56  1  0  0  0  0
M  END
> <PUBCHEM_COMPOUND_CID>
44583832

> <PUBCHEM_CONFORMER_RMSD>
0.8

> <PUBCHEM_CONFORMER_DIVERSEORDER>
1
2
3

> <PUBCHEM_MMFF94_PARTIAL_CHARGES>
29
1 -0.56
10 0.14
11 0.28
14 0.28
15 -0.28
16 -0.14
17 0.41
18 0.57
19 0.12
2 -0.57
20 0.27
21 -0.29
22 -0.15
23 -0.15
24 -0.15
25 0.14
26 0.08
27 0.28
28 0.28
3 -0.32
4 -0.36
44 0.15
45 0.15
46 0.15
47 0.15
5 -0.81
6 -0.14
8 0.2
9 0.27

> <PUBCHEM_EFFECTIVE_ROTOR_COUNT>
3.4

> <PUBCHEM_PHARMACOPHORE_FEATURES>
9
1 1 acceptor
1 2 acceptor
1 25 hydrophobe
1 4 acceptor
1 5 cation
5 6 8 16 18 19 rings
6 16 19 22 23 24 26 rings
6 5 7 9 10 15 17 rings
9 1 7 8 9 10 11 12 13 14 rings

> <PUBCHEM_HEAVY_ATOM_COUNT>
28

> <PUBCHEM_ATOM_DEF_STEREO_COUNT>
5

> <PUBCHEM_ATOM_UDEF_STEREO_COUNT>
0

> <PUBCHEM_BOND_DEF_STEREO_COUNT>
1

> <PUBCHEM_BOND_UDEF_STEREO_COUNT>
0

> <PUBCHEM_ISOTOPIC_ATOM_COUNT>
0

> <PUBCHEM_COMPONENT_COUNT>
1

> <PUBCHEM_CACTVS_TAUTO_COUNT>
1

> <PUBCHEM_CONFORMER_ID>
02A84B9800000001

> <PUBCHEM_MMFF94_ENERGY>
119.9008

> <PUBCHEM_FEATURE_SELFOVERLAP>
45.954

> <PUBCHEM_SHAPE_FINGERPRINT>
10863032 1 18337668724174432632
10906281 52 17846227648227605120
12035758 1 18060129946871080162
12166972 35 18260268516731380260
12236239 1 17748827401932624341
12403260 363 18342172272119913641
12633257 1 18343021098853018778
12788726 201 18059864922099570544
13140716 1 18266455589067555683
14115302 16 18334579048743869932
14223421 5 17979632660513167416
16945 1 18339656576145038844
17349148 13 17847062177046379369
1813 80 16951119570156254666
20028762 73 18130498717510060311
20600515 1 18411981334888141292
20691752 17 17096633486850637794
21033648 29 18117533246177677125
21267235 1 18411138004572990875
21781051 124 18114478828993425971
23559900 14 18201451302150550532
3004659 81 18261958453941010854
335352 9 18411413999524742727
3380486 77 18338245868688857656
350125 39 18336543825021356677
3680242 22 18340773645762547683
465052 167 18413668015203916496
495365 180 16844721074933828432
5104073 3 18271247226676876417
59755656 215 18411694353995141023
8509985 295 18410005524939612010
9709674 26 18199750417564874615
9981440 41 16958744983590164988

> <PUBCHEM_SHAPE_MULTIPOLES>
542.79
10.27
2.83
1.64
8.54
1.24
-0.94
2.95
0.2
0.26
0.86
-2.2
-0.1
-0.06

> <PUBCHEM_SHAPE_SELFOVERLAP>
1187.559

> <PUBCHEM_SHAPE_VOLUME>
289.3

> <PUBCHEM_COORDINATE_TYPE>
2
5
10

$$$$
