101606434
  -OEChem-09202014083D

 53 57  0     1  0  0  0  0  0999 V2000
   -0.0208   -2.3999    1.0748 O   0  0  0  0  0  0  0  0  0  0  0  0
   -3.3341   -1.4823    1.7421 O   0  0  0  0  0  0  0  0  0  0  0  0
   -0.2546    1.9292   -0.1547 O   0  0  0  0  0  0  0  0  0  0  0  0
    2.4441    2.9116   -0.0187 O   0  0  0  0  0  0  0  0  0  0  0  0
   -2.0259    0.2705   -1.8056 N   0  0  2  0  0  0  0  0  0  0  0  0
    2.0344    1.5865    0.0197 N   0  0  0  0  0  0  0  0  0  0  0  0
   -2.0394   -1.7371   -0.2375 C   0  0  1  0  0  0  0  0  0  0  0  0
   -2.4251   -0.7572    0.8907 C   0  0  2  0  0  0  0  0  0  0  0  0
   -1.4144   -1.0360   -1.4801 C   0  0  2  0  0  0  0  0  0  0  0  0
    0.7185   -0.3708   -0.0983 C   0  0  2  0  0  0  0  0  0  0  0  0
    0.1230   -0.9794    1.1998 C   0  0  1  0  0  0  0  0  0  0  0  0
    0.1209   -0.9040   -1.4147 C   0  0  0  0  0  0  0  0  0  0  0  0
   -1.1884   -0.3784    1.7277 C   0  0  0  0  0  0  0  0  0  0  0  0
   -1.1464   -2.8531    0.3251 C   0  0  0  0  0  0  0  0  0  0  0  0
   -3.1814    0.4387    0.3366 C   0  0  0  0  0  0  0  0  0  0  0  0
   -3.3251    0.4818   -1.1637 C   0  0  0  0  0  0  0  0  0  0  0  0
    2.2352   -0.6480   -0.1116 C   0  0  0  0  0  0  0  0  0  0  0  0
    0.7212    1.1987   -0.0805 C   0  0  0  0  0  0  0  0  0  0  0  0
    2.9446    0.5518   -0.0375 C   0  0  0  0  0  0  0  0  0  0  0  0
   -2.1210    0.4872   -3.2500 C   0  0  0  0  0  0  0  0  0  0  0  0
   -3.6900    1.4114    1.1116 C   0  0  0  0  0  0  0  0  0  0  0  0
    2.9193   -1.8526   -0.1758 C   0  0  0  0  0  0  0  0  0  0  0  0
    4.3256    0.6048   -0.0307 C   0  0  0  0  0  0  0  0  0  0  0  0
    4.3176   -1.8251   -0.1690 C   0  0  0  0  0  0  0  0  0  0  0  0
   -4.4302    2.5898    0.5836 C   0  0  0  0  0  0  0  0  0  0  0  0
    5.0144   -0.6066   -0.0976 C   0  0  0  0  0  0  0  0  0  0  0  0
    2.6779    3.3686    1.3144 C   0  0  0  0  0  0  0  0  0  0  0  0
   -2.9552   -2.2356   -0.5924 H   0  0  0  0  0  0  0  0  0  0  0  0
   -1.6198   -1.7220   -2.3164 H   0  0  0  0  0  0  0  0  0  0  0  0
    0.8548   -0.8300    2.0062 H   0  0  0  0  0  0  0  0  0  0  0  0
    0.5314   -1.9011   -1.6276 H   0  0  0  0  0  0  0  0  0  0  0  0
    0.4785   -0.2911   -2.2542 H   0  0  0  0  0  0  0  0  0  0  0  0
   -1.3332   -0.7691    2.7455 H   0  0  0  0  0  0  0  0  0  0  0  0
   -1.0828    0.7034    1.8540 H   0  0  0  0  0  0  0  0  0  0  0  0
   -1.7310   -3.4931    0.9961 H   0  0  0  0  0  0  0  0  0  0  0  0
   -0.7837   -3.5077   -0.4751 H   0  0  0  0  0  0  0  0  0  0  0  0
   -4.0514   -0.2769   -1.4848 H   0  0  0  0  0  0  0  0  0  0  0  0
   -3.7179    1.4450   -1.5030 H   0  0  0  0  0  0  0  0  0  0  0  0
   -4.1366   -1.6850    1.2311 H   0  0  0  0  0  0  0  0  0  0  0  0
   -1.1434    0.3858   -3.7327 H   0  0  0  0  0  0  0  0  0  0  0  0
   -2.4659    1.5049   -3.4646 H   0  0  0  0  0  0  0  0  0  0  0  0
   -2.8135   -0.2173   -3.7247 H   0  0  0  0  0  0  0  0  0  0  0  0
   -3.5614    1.3582    2.1897 H   0  0  0  0  0  0  0  0  0  0  0  0
    2.3945   -2.7999   -0.2318 H   0  0  0  0  0  0  0  0  0  0  0  0
    4.8667    1.5425    0.0210 H   0  0  0  0  0  0  0  0  0  0  0  0
    4.8739   -2.7574   -0.2199 H   0  0  0  0  0  0  0  0  0  0  0  0
   -3.7493    3.2982    0.1020 H   0  0  0  0  0  0  0  0  0  0  0  0
   -4.9147    3.1150    1.4142 H   0  0  0  0  0  0  0  0  0  0  0  0
   -5.2264    2.3020   -0.1098 H   0  0  0  0  0  0  0  0  0  0  0  0
    6.1011   -0.6103   -0.0951 H   0  0  0  0  0  0  0  0  0  0  0  0
    2.9629    4.4231    1.2652 H   0  0  0  0  0  0  0  0  0  0  0  0
    3.4928    2.8119    1.7864 H   0  0  0  0  0  0  0  0  0  0  0  0
    1.7655    3.2836    1.9135 H   0  0  0  0  0  0  0  0  0  0  0  0
  1 11  1  0  0  0  0
  1 14  1  0  0  0  0
  2  8  1  0  0  0  0
  2 39  1  0  0  0  0
  3 18  2  0  0  0  0
  4  6  1  0  0  0  0
  4 27  1  0  0  0  0
  5  9  1  0  0  0  0
  5 16  1  0  0  0  0
  5 20  1  0  0  0  0
  6 18  1  0  0  0  0
  6 19  1  0  0  0  0
  7  8  1  0  0  0  0
  7  9  1  0  0  0  0
  7 14  1  0  0  0  0
  7 28  1  0  0  0  0
  8 13  1  0  0  0  0
  8 15  1  0  0  0  0
  9 12  1  0  0  0  0
  9 29  1  0  0  0  0
 10 11  1  0  0  0  0
 10 12  1  0  0  0  0
 10 17  1  0  0  0  0
 10 18  1  0  0  0  0
 11 13  1  0  0  0  0
 11 30  1  0  0  0  0
 12 31  1  0  0  0  0
 12 32  1  0  0  0  0
 13 33  1  0  0  0  0
 13 34  1  0  0  0  0
 14 35  1  0  0  0  0
 14 36  1  0  0  0  0
 15 16  1  0  0  0  0
 15 21  2  0  0  0  0
 16 37  1  0  0  0  0
 16 38  1  0  0  0  0
 17 19  1  0  0  0  0
 17 22  2  0  0  0  0
 19 23  2  0  0  0  0
 20 40  1  0  0  0  0
 20 41  1  0  0  0  0
 20 42  1  0  0  0  0
 21 25  1  0  0  0  0
 21 43  1  0  0  0  0
 22 24  1  0  0  0  0
 22 44  1  0  0  0  0
 23 26  1  0  0  0  0
 23 45  1  0  0  0  0
 24 26  2  0  0  0  0
 24 46  1  0  0  0  0
 25 47  1  0  0  0  0
 25 48  1  0  0  0  0
 25 49  1  0  0  0  0
 26 50  1  0  0  0  0
 27 51  1  0  0  0  0
 27 52  1  0  0  0  0
 27 53  1  0  0  0  0
M  END
> <PUBCHEM_COMPOUND_CID>
101606434

> <PUBCHEM_CONFORMER_RMSD>
0.6

> <PUBCHEM_CONFORMER_DIVERSEORDER>
1
2
3

> <PUBCHEM_MMFF94_PARTIAL_CHARGES>
30
1 -0.56
10 0.2
11 0.28
14 0.28
15 -0.28
16 0.41
17 -0.14
18 0.57
19 0.12
2 -0.68
20 0.27
21 -0.29
22 -0.15
23 -0.15
24 -0.15
25 0.14
26 -0.15
27 0.28
3 -0.57
39 0.4
4 -0.32
43 0.15
44 0.15
45 0.15
46 0.15
5 -0.81
50 0.15
6 -0.14
8 0.42
9 0.27

> <PUBCHEM_EFFECTIVE_ROTOR_COUNT>
2.4

> <PUBCHEM_PHARMACOPHORE_FEATURES>
10
1 1 acceptor
1 2 acceptor
1 2 donor
1 25 hydrophobe
1 3 acceptor
1 5 cation
5 6 10 17 18 19 rings
6 17 19 22 23 24 26 rings
6 5 7 8 9 15 16 rings
9 1 7 8 9 10 11 12 13 14 rings

> <PUBCHEM_HEAVY_ATOM_COUNT>
27

> <PUBCHEM_ATOM_DEF_STEREO_COUNT>
5

> <PUBCHEM_ATOM_UDEF_STEREO_COUNT>
0

> <PUBCHEM_BOND_DEF_STEREO_COUNT>
1

> <PUBCHEM_BOND_UDEF_STEREO_COUNT>
0

> <PUBCHEM_ISOTOPIC_ATOM_COUNT>
0

> <PUBCHEM_COMPONENT_COUNT>
1

> <PUBCHEM_CACTVS_TAUTO_COUNT>
1

> <PUBCHEM_CONFORMER_ID>
060E642200000001

> <PUBCHEM_MMFF94_ENERGY>
114.534

> <PUBCHEM_FEATURE_SELFOVERLAP>
51.026

> <PUBCHEM_SHAPE_FINGERPRINT>
10006869 2 17477482006652719761
10165383 225 17749959834484542461
10863032 1 18411985792852853515
10906281 52 18412271614879617806
10948715 1 18269560438342988971
11640471 11 17275113850543742480
12173636 292 18269837682544797935
12553582 1 18341897377349306326
12633257 1 18187644669809739304
12716301 132 16661187205169505220
12788726 201 18050569543755900634
13134695 92 18342735196466834148
13140716 1 18407761447334823872
13224815 77 18057039327586909680
13583140 156 18340498832238194379
14178342 30 17977383064502930336
14223421 5 18050291658849726898
14790565 3 18193567670504099664
15238133 3 18193575384038250452
15295992 7 18409736161728764073
16945 1 18263344928759256382
17349148 13 17274825748601435654
17980427 23 17203036461676806632
18186145 218 18187076239789355894
18981168 100 18265599056313263025
19930381 70 17331959937661730121
21033648 29 17749655316961362125
21330990 113 17823149929609462935
23227448 37 18343308063119940275
23559900 14 18409166589885461330
238 59 17464212159978411839
2748010 2 18114167687891052862
3286 77 18335431204763003163
335352 9 18338241449299125662
3380486 145 17615978042081957995
34934 24 18412265004661419690
350125 39 18336276729357685587
404807 14 14326133230143942198
469060 322 17191215847783276323
5104073 3 18260829315401714730
5845 1 16808691259997332207
6287921 2 17754468068313365756
7399639 24 17761491795909747538
81228 2 17461161233917282115
9981440 41 17480554463158226304

> <PUBCHEM_SHAPE_MULTIPOLES>
522.21
7.9
3.02
1.79
3.83
1.59
-1.12
2.01
0.52
0.75
1.01
-2.01
-0.14
0.38

> <PUBCHEM_SHAPE_SELFOVERLAP>
1150.601

> <PUBCHEM_SHAPE_VOLUME>
278

> <PUBCHEM_COORDINATE_TYPE>
2
5
10

$$$$
