101606432
  -OEChem-09202014143D

 52 56  0     1  0  0  0  0  0999 V2000
   -0.1295   -2.0321    1.2503 O   0  0  0  0  0  0  0  0  0  0  0  0
   -3.5387    1.6038    0.9006 O   0  0  0  0  0  0  0  0  0  0  0  0
    0.1552    2.1980   -0.3974 O   0  0  0  0  0  0  0  0  0  0  0  0
    2.9829    2.7655   -0.2103 O   0  0  0  0  0  0  0  0  0  0  0  0
   -2.0422    0.5170   -1.6896 N   0  0  0  0  0  0  0  0  0  0  0  0
    2.3627    1.5256   -0.1550 N   0  0  0  0  0  0  0  0  0  0  0  0
   -2.5110   -0.6162    0.8098 C   0  0  1  0  0  0  0  0  0  0  0  0
   -2.0364   -1.5887   -0.2761 C   0  0  1  0  0  0  0  0  0  0  0  0
   -1.4362   -0.8116   -1.4821 C   0  0  2  0  0  0  0  0  0  0  0  0
    0.7621   -0.2174   -0.1771 C   0  0  2  0  0  0  0  0  0  0  0  0
    0.0489   -0.6145    1.1483 C   0  0  1  0  0  0  0  0  0  0  0  0
   -1.2928    0.0809    1.4478 C   0  0  0  0  0  0  0  0  0  0  0  0
   -3.6020    0.3374    0.2403 C   0  0  2  0  0  0  0  0  0  0  0  0
    0.1008   -0.7102   -1.4809 C   0  0  0  0  0  0  0  0  0  0  0  0
   -1.0763   -2.6040    0.3489 C   0  0  0  0  0  0  0  0  0  0  0  0
   -3.4459    0.5429   -1.2830 C   0  0  0  0  0  0  0  0  0  0  0  0
    2.2186   -0.7183   -0.1259 C   0  0  0  0  0  0  0  0  0  0  0  0
   -5.0044   -0.2268    0.5206 C   0  0  0  0  0  0  0  0  0  0  0  0
    1.0073    1.3344   -0.2543 C   0  0  0  0  0  0  0  0  0  0  0  0
    3.1020    0.3625   -0.1002 C   0  0  0  0  0  0  0  0  0  0  0  0
    2.7156   -2.0129   -0.0970 C   0  0  0  0  0  0  0  0  0  0  0  0
   -6.0787    0.7225    0.0372 C   0  0  0  0  0  0  0  0  0  0  0  0
    4.4746    0.2075   -0.0433 C   0  0  0  0  0  0  0  0  0  0  0  0
    4.1011   -2.1961   -0.0393 C   0  0  0  0  0  0  0  0  0  0  0  0
    4.9730   -1.0949   -0.0115 C   0  0  0  0  0  0  0  0  0  0  0  0
    3.1893    3.2456    1.1192 C   0  0  0  0  0  0  0  0  0  0  0  0
   -2.9689   -1.2124    1.6130 H   0  0  0  0  0  0  0  0  0  0  0  0
   -2.9048   -2.1486   -0.6512 H   0  0  0  0  0  0  0  0  0  0  0  0
   -1.6906   -1.4030   -2.3741 H   0  0  0  0  0  0  0  0  0  0  0  0
    0.7180   -0.3393    1.9756 H   0  0  0  0  0  0  0  0  0  0  0  0
   -1.2379    1.1432    1.2087 H   0  0  0  0  0  0  0  0  0  0  0  0
   -1.4501    0.0478    2.5354 H   0  0  0  0  0  0  0  0  0  0  0  0
    0.4851   -1.7051   -1.7435 H   0  0  0  0  0  0  0  0  0  0  0  0
    0.4194   -0.0779   -2.3230 H   0  0  0  0  0  0  0  0  0  0  0  0
   -1.6510   -3.3310    0.9347 H   0  0  0  0  0  0  0  0  0  0  0  0
   -0.5446   -3.1862   -0.4106 H   0  0  0  0  0  0  0  0  0  0  0  0
   -3.9909   -0.2176   -1.8566 H   0  0  0  0  0  0  0  0  0  0  0  0
   -3.8517    1.5202   -1.5699 H   0  0  0  0  0  0  0  0  0  0  0  0
   -1.9519    0.7827   -2.6696 H   0  0  0  0  0  0  0  0  0  0  0  0
   -5.1361   -1.2079    0.0497 H   0  0  0  0  0  0  0  0  0  0  0  0
   -5.1421   -0.3644    1.6007 H   0  0  0  0  0  0  0  0  0  0  0  0
   -3.6676    1.4529    1.8528 H   0  0  0  0  0  0  0  0  0  0  0  0
    2.0574   -2.8741   -0.1204 H   0  0  0  0  0  0  0  0  0  0  0  0
   -5.9949    1.7147    0.4911 H   0  0  0  0  0  0  0  0  0  0  0  0
   -7.0637    0.3277    0.3103 H   0  0  0  0  0  0  0  0  0  0  0  0
   -6.0761    0.8367   -1.0507 H   0  0  0  0  0  0  0  0  0  0  0  0
    5.1502    1.0550   -0.0295 H   0  0  0  0  0  0  0  0  0  0  0  0
    4.5097   -3.2030   -0.0161 H   0  0  0  0  0  0  0  0  0  0  0  0
    6.0459   -1.2615    0.0321 H   0  0  0  0  0  0  0  0  0  0  0  0
    3.6496    4.2353    1.0535 H   0  0  0  0  0  0  0  0  0  0  0  0
    3.8625    2.5876    1.6768 H   0  0  0  0  0  0  0  0  0  0  0  0
    2.2337    3.3422    1.6448 H   0  0  0  0  0  0  0  0  0  0  0  0
  1 11  1  0  0  0  0
  1 15  1  0  0  0  0
  2 13  1  0  0  0  0
  2 42  1  0  0  0  0
  3 19  2  0  0  0  0
  4  6  1  0  0  0  0
  4 26  1  0  0  0  0
  5  9  1  0  0  0  0
  5 16  1  0  0  0  0
  5 39  1  0  0  0  0
  6 19  1  0  0  0  0
  6 20  1  0  0  0  0
  7  8  1  0  0  0  0
  7 12  1  0  0  0  0
  7 13  1  0  0  0  0
  7 27  1  0  0  0  0
  8  9  1  0  0  0  0
  8 15  1  0  0  0  0
  8 28  1  0  0  0  0
  9 14  1  0  0  0  0
  9 29  1  0  0  0  0
 10 11  1  0  0  0  0
 10 14  1  0  0  0  0
 10 17  1  0  0  0  0
 10 19  1  0  0  0  0
 11 12  1  0  0  0  0
 11 30  1  0  0  0  0
 12 31  1  0  0  0  0
 12 32  1  0  0  0  0
 13 16  1  0  0  0  0
 13 18  1  0  0  0  0
 14 33  1  0  0  0  0
 14 34  1  0  0  0  0
 15 35  1  0  0  0  0
 15 36  1  0  0  0  0
 16 37  1  0  0  0  0
 16 38  1  0  0  0  0
 17 20  1  0  0  0  0
 17 21  2  0  0  0  0
 18 22  1  0  0  0  0
 18 40  1  0  0  0  0
 18 41  1  0  0  0  0
 20 23  2  0  0  0  0
 21 24  1  0  0  0  0
 21 43  1  0  0  0  0
 22 44  1  0  0  0  0
 22 45  1  0  0  0  0
 22 46  1  0  0  0  0
 23 25  1  0  0  0  0
 23 47  1  0  0  0  0
 24 25  2  0  0  0  0
 24 48  1  0  0  0  0
 25 49  1  0  0  0  0
 26 50  1  0  0  0  0
 26 51  1  0  0  0  0
 26 52  1  0  0  0  0
M  END
> <PUBCHEM_COMPOUND_CID>
101606432

> <PUBCHEM_CONFORMER_RMSD>
0.8

> <PUBCHEM_CONFORMER_DIVERSEORDER>
1
2

> <PUBCHEM_MMFF94_PARTIAL_CHARGES>
26
1 -0.56
10 0.2
11 0.28
13 0.28
15 0.28
16 0.27
17 -0.14
19 0.57
2 -0.68
20 0.12
21 -0.15
23 -0.15
24 -0.15
25 -0.15
26 0.28
3 -0.57
39 0.36
4 -0.32
42 0.4
43 0.15
47 0.15
48 0.15
49 0.15
5 -0.9
6 -0.14
9 0.27

> <PUBCHEM_EFFECTIVE_ROTOR_COUNT>
3.6

> <PUBCHEM_PHARMACOPHORE_FEATURES>
11
1 1 acceptor
1 2 acceptor
1 2 donor
1 22 hydrophobe
1 3 acceptor
1 5 cation
1 5 donor
5 6 10 17 19 20 rings
6 17 20 21 23 24 25 rings
6 5 7 8 9 13 16 rings
9 1 7 8 9 10 11 12 14 15 rings

> <PUBCHEM_HEAVY_ATOM_COUNT>
26

> <PUBCHEM_ATOM_DEF_STEREO_COUNT>
6

> <PUBCHEM_ATOM_UDEF_STEREO_COUNT>
0

> <PUBCHEM_BOND_DEF_STEREO_COUNT>
0

> <PUBCHEM_BOND_UDEF_STEREO_COUNT>
0

> <PUBCHEM_ISOTOPIC_ATOM_COUNT>
0

> <PUBCHEM_COMPONENT_COUNT>
1

> <PUBCHEM_CACTVS_TAUTO_COUNT>
1

> <PUBCHEM_CONFORMER_ID>
060E642000000001

> <PUBCHEM_MMFF94_ENERGY>
110.2702

> <PUBCHEM_FEATURE_SELFOVERLAP>
56.097

> <PUBCHEM_SHAPE_FINGERPRINT>
10863032 1 18340770463239377079
10906281 52 18337968826619231478
10948715 1 18341615940657925675
11578080 2 18117575126113090984
11640471 11 17560246941247864552
12011746 2 18338246981290992310
12035758 1 18260819411154466712
12166972 35 17775004557433612370
12236239 1 17917991655306532215
12403259 415 17967526866172774837
12403260 363 18273217465430180553
12553582 1 18339356371559924270
12592029 89 18059582351742519295
12633257 1 18260256478280830506
12788726 201 18120935002299498362
13134695 92 18342174441115152476
13140716 1 18265608956882734810
13583140 156 18338528533149963531
14178342 30 17975972386778833890
14223421 5 18121505923263977490
15209289 33 18040720242520775539
15238133 3 18338812112971820548
15295992 7 18335145318548658416
15848702 151 18270685251212012999
16945 1 18411413990992934198
17349148 13 17632300042602294790
17492 89 18268151031513500650
17980427 23 17131249330250922392
1813 80 17987249828627025942
18186145 218 18260257568817343142
18335252 114 18268138770067244405
192875 21 17989211425483806472
19930381 70 18120375354380076642
200 152 18060416881115194450
20832881 197 18261956228631039186
21033648 144 18340195396988275853
21033648 29 17822278085856384461
21033650 10 15553630455176536267
21267235 1 18339090306155764250
21279426 13 17900256412132770838
221357 26 18334853871011580605
22393880 68 18127422365558146844
22956985 138 14708587509595085705
23175994 123 18336552599291415454
23184049 59 18411141311692514463
23227448 37 18339643463836808887
23402539 116 18272647931492114071
23559900 14 18343300396956608786
2838139 119 18271239410232893437
3286 77 18334583425584498679
335352 9 18409732850841728878
34934 24 18410572912095650314
350125 39 18334861602036894845
351380 180 18410858741931653377
474 4 18413390946863697051
495365 180 18272082859745831400
5104073 3 18336546135059537603
59755656 215 17676767566291039431
84936 182 17915172653743816952
9981440 41 17693925702545117592

> <PUBCHEM_SHAPE_MULTIPOLES>
501.63
9.63
2.68
1.25
4.26
1.17
0.15
1.24
-0.52
-2.83
-0.52
0.72
-0.01
0.33

> <PUBCHEM_SHAPE_SELFOVERLAP>
1103.523

> <PUBCHEM_SHAPE_VOLUME>
264.9

> <PUBCHEM_COORDINATE_TYPE>
2
5
10

$$$$
