102185549
  -OEChem-09222004223D

 51 55  0     1  0  0  0  0  0999 V2000
   -0.0470   -1.9449    1.7158 O   0  0  0  0  0  0  0  0  0  0  0  0
    1.4837    1.2926    0.8520 O   0  0  0  0  0  0  0  0  0  0  0  0
   -2.3551   -2.7443    0.3056 O   0  0  0  0  0  0  0  0  0  0  0  0
   -4.6294   -1.0263   -0.0109 O   0  0  0  0  0  0  0  0  0  0  0  0
    5.1593   -0.0771   -1.7727 O   0  0  0  0  0  0  0  0  0  0  0  0
    0.8073    2.0162    2.9391 O   0  0  0  0  0  0  0  0  0  0  0  0
    2.4675   -0.8895   -1.8437 N   0  0  0  0  0  0  0  0  0  0  0  0
   -3.2996   -0.6831   -0.2053 N   0  0  0  0  0  0  0  0  0  0  0  0
    1.7839   -2.1468    0.0518 C   0  0  2  0  0  0  0  0  0  0  0  0
   -0.9450   -0.7739   -0.2915 C   0  0  2  0  0  0  0  0  0  0  0  0
    2.5103   -0.9553    0.6292 C   0  0  2  0  0  0  0  0  0  0  0  0
   -0.1241   -0.6439    1.1191 C   0  0  2  0  0  0  0  0  0  0  0  0
    1.2527   -1.3257   -1.1297 C   0  0  2  0  0  0  0  0  0  0  0  0
    1.3740   -0.0564    1.2680 C   0  0  2  0  0  0  0  0  0  0  0  0
   -0.1772   -1.4982   -1.4952 C   0  0  0  0  0  0  0  0  0  0  0  0
    0.8093   -2.8254    1.0030 C   0  0  0  0  0  0  0  0  0  0  0  0
    3.1305   -0.5601   -0.7420 C   0  0  0  0  0  0  0  0  0  0  0  0
   -1.5125    0.5855   -0.7200 C   0  0  0  0  0  0  0  0  0  0  0  0
   -2.2709   -1.5667   -0.0082 C   0  0  0  0  0  0  0  0  0  0  0  0
   -2.9064    0.5747   -0.6126 C   0  0  0  0  0  0  0  0  0  0  0  0
    4.4451    0.1115   -0.7942 C   0  0  0  0  0  0  0  0  0  0  0  0
   -0.8771    1.7238   -1.1892 C   0  0  0  0  0  0  0  0  0  0  0  0
   -3.6952    1.6687   -0.9182 C   0  0  0  0  0  0  0  0  0  0  0  0
    1.1688    2.2387    1.7915 C   0  0  0  0  0  0  0  0  0  0  0  0
   -1.6525    2.8451   -1.5062 C   0  0  0  0  0  0  0  0  0  0  0  0
    4.8116    0.9816    0.3729 C   0  0  0  0  0  0  0  0  0  0  0  0
   -3.0494    2.8198   -1.3661 C   0  0  0  0  0  0  0  0  0  0  0  0
    1.3293    3.6121    1.2135 C   0  0  0  0  0  0  0  0  0  0  0  0
   -4.9919   -0.7525    1.3439 C   0  0  0  0  0  0  0  0  0  0  0  0
    2.4783   -2.9159   -0.3177 H   0  0  0  0  0  0  0  0  0  0  0  0
    3.2719   -1.2503    1.3556 H   0  0  0  0  0  0  0  0  0  0  0  0
   -0.7579   -0.0423    1.7843 H   0  0  0  0  0  0  0  0  0  0  0  0
    1.0397   -0.2775   -0.8927 H   0  0  0  0  0  0  0  0  0  0  0  0
    1.5970   -0.1214    2.3442 H   0  0  0  0  0  0  0  0  0  0  0  0
   -0.4118   -1.0342   -2.4605 H   0  0  0  0  0  0  0  0  0  0  0  0
   -0.4424   -2.5573   -1.5749 H   0  0  0  0  0  0  0  0  0  0  0  0
    0.1943   -3.5571    0.4695 H   0  0  0  0  0  0  0  0  0  0  0  0
    1.3713   -3.3895    1.7559 H   0  0  0  0  0  0  0  0  0  0  0  0
    0.1965    1.7650   -1.3272 H   0  0  0  0  0  0  0  0  0  0  0  0
   -4.7753    1.6410   -0.8303 H   0  0  0  0  0  0  0  0  0  0  0  0
   -1.1676    3.7471   -1.8706 H   0  0  0  0  0  0  0  0  0  0  0  0
    4.9145    0.3854    1.2816 H   0  0  0  0  0  0  0  0  0  0  0  0
    4.0664    1.7675    0.5055 H   0  0  0  0  0  0  0  0  0  0  0  0
    5.7740    1.4608    0.1688 H   0  0  0  0  0  0  0  0  0  0  0  0
   -3.6307    3.7016   -1.6210 H   0  0  0  0  0  0  0  0  0  0  0  0
    2.1919    3.6436    0.5423 H   0  0  0  0  0  0  0  0  0  0  0  0
    1.5126    4.3235    2.0237 H   0  0  0  0  0  0  0  0  0  0  0  0
    0.4224    3.8959    0.6767 H   0  0  0  0  0  0  0  0  0  0  0  0
   -6.0371   -1.0435    1.4794 H   0  0  0  0  0  0  0  0  0  0  0  0
   -4.8982    0.3148    1.5666 H   0  0  0  0  0  0  0  0  0  0  0  0
   -4.3768   -1.3390    2.0338 H   0  0  0  0  0  0  0  0  0  0  0  0
  1 12  1  0  0  0  0
  1 16  1  0  0  0  0
  2 14  1  0  0  0  0
  2 24  1  0  0  0  0
  3 19  2  0  0  0  0
  4  8  1  0  0  0  0
  4 29  1  0  0  0  0
  5 21  2  0  0  0  0
  6 24  2  0  0  0  0
  7 13  1  0  0  0  0
  7 17  2  0  0  0  0
  8 19  1  0  0  0  0
  8 20  1  0  0  0  0
  9 11  1  0  0  0  0
  9 13  1  0  0  0  0
  9 16  1  0  0  0  0
  9 30  1  0  0  0  0
 10 12  1  0  0  0  0
 10 15  1  0  0  0  0
 10 18  1  0  0  0  0
 10 19  1  0  0  0  0
 11 14  1  0  0  0  0
 11 17  1  0  0  0  0
 11 31  1  0  0  0  0
 12 14  1  0  0  0  0
 12 32  1  0  0  0  0
 13 15  1  0  0  0  0
 13 33  1  0  0  0  0
 14 34  1  0  0  0  0
 15 35  1  0  0  0  0
 15 36  1  0  0  0  0
 16 37  1  0  0  0  0
 16 38  1  0  0  0  0
 17 21  1  0  0  0  0
 18 20  1  0  0  0  0
 18 22  2  0  0  0  0
 20 23  2  0  0  0  0
 21 26  1  0  0  0  0
 22 25  1  0  0  0  0
 22 39  1  0  0  0  0
 23 27  1  0  0  0  0
 23 40  1  0  0  0  0
 24 28  1  0  0  0  0
 25 27  2  0  0  0  0
 25 41  1  0  0  0  0
 26 42  1  0  0  0  0
 26 43  1  0  0  0  0
 26 44  1  0  0  0  0
 27 45  1  0  0  0  0
 28 46  1  0  0  0  0
 28 47  1  0  0  0  0
 28 48  1  0  0  0  0
 29 49  1  0  0  0  0
 29 50  1  0  0  0  0
 29 51  1  0  0  0  0
M  END
> <PUBCHEM_COMPOUND_CID>
102185549

> <PUBCHEM_CONFORMER_RMSD>
0.8

> <PUBCHEM_CONFORMER_DIVERSEORDER>
1
2

> <PUBCHEM_MMFF94_PARTIAL_CHARGES>
31
1 -0.56
10 0.2
11 0.06
12 0.28
13 0.25
14 0.28
16 0.28
17 0.39
18 -0.14
19 0.57
2 -0.43
20 0.12
21 0.51
22 -0.15
23 -0.15
24 0.66
25 -0.15
26 0.06
27 -0.15
28 0.06
29 0.28
3 -0.57
39 0.15
4 -0.32
40 0.15
41 0.15
45 0.15
5 -0.57
6 -0.57
7 -0.7
8 -0.14

> <PUBCHEM_EFFECTIVE_ROTOR_COUNT>
5

> <PUBCHEM_PHARMACOPHORE_FEATURES>
9
1 1 acceptor
1 3 acceptor
1 5 acceptor
1 6 acceptor
1 7 acceptor
5 7 9 11 13 17 rings
5 8 10 18 19 20 rings
6 18 20 22 23 25 27 rings
9 1 9 10 11 12 13 14 15 16 rings

> <PUBCHEM_HEAVY_ATOM_COUNT>
29

> <PUBCHEM_ATOM_DEF_STEREO_COUNT>
5

> <PUBCHEM_ATOM_UDEF_STEREO_COUNT>
1

> <PUBCHEM_BOND_DEF_STEREO_COUNT>
0

> <PUBCHEM_BOND_UDEF_STEREO_COUNT>
0

> <PUBCHEM_ISOTOPIC_ATOM_COUNT>
0

> <PUBCHEM_COMPONENT_COUNT>
1

> <PUBCHEM_CACTVS_TAUTO_COUNT>
10

> <PUBCHEM_CONFORMER_ID>
06173A4D00000001

> <PUBCHEM_MMFF94_ENERGY>
185.1268

> <PUBCHEM_FEATURE_SELFOVERLAP>
46.188

> <PUBCHEM_SHAPE_FINGERPRINT>
10165383 225 18263647273087969277
10366900 7 18334853944226601595
10498660 4 18114456752312541085
10675989 125 16968272835644118948
10863032 1 17969500416313845718
10948715 1 18114181874469010710
11112241 14 16484693715176237112
11640471 11 17313675827995697558
12035758 1 18268424810287807384
12156800 1 13699262536861190377
12236239 1 16443063923766855014
13140716 1 17898866896308952219
13911987 19 17845948432704041476
14251757 17 18273209794740110384
14787075 74 18335146418092084023
15238133 3 17909532974625266081
16945 1 18338217332773207595
20691752 17 18117261769504458247
22182313 1 18130774690506602728
23419403 2 17835551544618722810
23536364 44 18198636440840647740
23557571 272 18335996297752046974
23559900 14 17978218371128536414
238 59 17768203004379956669
3052486 1 17967520277387097660
3380486 77 16748167083367615451
3524813 1 18341326777252139260
392239 28 17749964374080221763
394222 165 17607245346823358978
4340502 62 14707788186496848829
469060 322 17897191107138410665
5104073 3 18041841688425076995
57527573 199 17476592596335356840
6287921 2 17765153160929511033
70251023 43 17986934431545340223
7808743 9 18042966476146880229
9862522 239 17266058427940041312

> <PUBCHEM_SHAPE_MULTIPOLES>
551.63
7.72
3.47
1.96
0.42
1.63
0.62
0.45
-1.76
-1.07
0.76
0.69
0.84
1.83

> <PUBCHEM_SHAPE_SELFOVERLAP>
1216.965

> <PUBCHEM_SHAPE_VOLUME>
293.8

> <PUBCHEM_COORDINATE_TYPE>
2
5
10

$$$$
