101467877
  -OEChem-09222005313D

 52 57  0     1  0  0  0  0  0999 V2000
    4.3601   -0.9915    1.3147 O   0  0  0  0  0  0  0  0  0  0  0  0
    0.5453    2.4582    0.7546 O   0  0  0  0  0  0  0  0  0  0  0  0
    0.6366   -2.0207    0.2581 O   0  0  0  0  0  0  0  0  0  0  0  0
   -2.0988   -2.8641    0.5550 O   0  0  0  0  0  0  0  0  0  0  0  0
   -5.8935    0.7735    0.0611 O   0  0  0  0  0  0  0  0  0  0  0  0
    2.4395   -0.6241   -1.7231 N   0  0  0  0  0  0  0  0  0  0  0  0
   -1.6420   -1.5876    0.2614 N   0  0  0  0  0  0  0  0  0  0  0  0
    2.9583    0.9365    0.6658 C   0  0  1  0  0  0  0  0  0  0  0  0
    3.7956   -0.2317    0.2306 C   0  0  1  0  0  0  0  0  0  0  0  0
    2.4877    1.6646   -0.5907 C   0  0  1  0  0  0  0  0  0  0  0  0
    1.7817    0.5417    1.5607 C   0  0  0  0  0  0  0  0  0  0  0  0
    1.8368    0.7126   -1.6179 C   0  0  2  0  0  0  0  0  0  0  0  0
    0.4262    1.0622    1.0626 C   0  0  2  0  0  0  0  0  0  0  0  0
   -0.2516    0.2883   -0.0999 C   0  0  2  0  0  0  0  0  0  0  0  0
    5.2823   -0.2044    0.5593 C   0  0  2  0  0  0  0  0  0  0  0  0
    0.3127    0.5581   -1.5070 C   0  0  0  0  0  0  0  0  0  0  0  0
    1.5667    2.8158   -0.1772 C   0  0  0  0  0  0  0  0  0  0  0  0
    3.3118   -1.0531   -0.8895 C   0  0  0  0  0  0  0  0  0  0  0  0
   -1.7563    0.6255   -0.1068 C   0  0  0  0  0  0  0  0  0  0  0  0
   -0.3130   -1.2584    0.1689 C   0  0  0  0  0  0  0  0  0  0  0  0
    6.2996   -0.9873   -0.1915 C   0  0  0  0  0  0  0  0  0  0  0  0
   -2.5104   -0.5249    0.1298 C   0  0  0  0  0  0  0  0  0  0  0  0
   -2.3953    1.8422   -0.2937 C   0  0  0  0  0  0  0  0  0  0  0  0
   -3.8910   -0.5156    0.1940 C   0  0  0  0  0  0  0  0  0  0  0  0
   -3.7923    1.8777   -0.2348 C   0  0  0  0  0  0  0  0  0  0  0  0
   -4.5335    0.7088    0.0086 C   0  0  0  0  0  0  0  0  0  0  0  0
   -2.3726   -3.5568   -0.6644 C   0  0  0  0  0  0  0  0  0  0  0  0
   -6.5906   -0.4454    0.3113 C   0  0  0  0  0  0  0  0  0  0  0  0
    3.5858    1.6317    1.2415 H   0  0  0  0  0  0  0  0  0  0  0  0
    3.3720    2.0942   -1.0837 H   0  0  0  0  0  0  0  0  0  0  0  0
    1.7552   -0.5290    1.7778 H   0  0  0  0  0  0  0  0  0  0  0  0
    1.9653    1.0149    2.5367 H   0  0  0  0  0  0  0  0  0  0  0  0
    2.0055    1.1770   -2.6003 H   0  0  0  0  0  0  0  0  0  0  0  0
   -0.2454    1.0091    1.9310 H   0  0  0  0  0  0  0  0  0  0  0  0
    5.7002    0.6814    1.0195 H   0  0  0  0  0  0  0  0  0  0  0  0
   -0.1299    1.4806   -1.9075 H   0  0  0  0  0  0  0  0  0  0  0  0
   -0.0197   -0.2300   -2.1984 H   0  0  0  0  0  0  0  0  0  0  0  0
    2.1607    3.6015    0.3042 H   0  0  0  0  0  0  0  0  0  0  0  0
    1.0944    3.2830   -1.0481 H   0  0  0  0  0  0  0  0  0  0  0  0
    3.7117   -2.0729   -1.0056 H   0  0  0  0  0  0  0  0  0  0  0  0
    5.9701   -2.0069   -0.4131 H   0  0  0  0  0  0  0  0  0  0  0  0
    7.2216   -1.0591    0.3943 H   0  0  0  0  0  0  0  0  0  0  0  0
    6.5369   -0.4878   -1.1357 H   0  0  0  0  0  0  0  0  0  0  0  0
   -1.8374    2.7524   -0.4833 H   0  0  0  0  0  0  0  0  0  0  0  0
   -4.4034   -1.4497    0.3847 H   0  0  0  0  0  0  0  0  0  0  0  0
   -4.3071    2.8245   -0.3792 H   0  0  0  0  0  0  0  0  0  0  0  0
   -2.7058   -4.5671   -0.4115 H   0  0  0  0  0  0  0  0  0  0  0  0
   -1.4666   -3.6333   -1.2742 H   0  0  0  0  0  0  0  0  0  0  0  0
   -3.1680   -3.0619   -1.2297 H   0  0  0  0  0  0  0  0  0  0  0  0
   -7.6600   -0.2101    0.3204 H   0  0  0  0  0  0  0  0  0  0  0  0
   -6.3455   -0.8546    1.2973 H   0  0  0  0  0  0  0  0  0  0  0  0
   -6.4308   -1.1730   -0.4917 H   0  0  0  0  0  0  0  0  0  0  0  0
  1  9  1  0  0  0  0
  1 15  1  0  0  0  0
  2 13  1  0  0  0  0
  2 17  1  0  0  0  0
  3 20  2  0  0  0  0
  4  7  1  0  0  0  0
  4 27  1  0  0  0  0
  5 26  1  0  0  0  0
  5 28  1  0  0  0  0
  6 12  1  0  0  0  0
  6 18  2  0  0  0  0
  7 20  1  0  0  0  0
  7 22  1  0  0  0  0
  8  9  1  0  0  0  0
  8 10  1  0  0  0  0
  8 11  1  0  0  0  0
  8 29  1  0  0  0  0
  9 15  1  0  0  0  0
  9 18  1  0  0  0  0
 10 12  1  0  0  0  0
 10 17  1  0  0  0  0
 10 30  1  0  0  0  0
 11 13  1  0  0  0  0
 11 31  1  0  0  0  0
 11 32  1  0  0  0  0
 12 16  1  0  0  0  0
 12 33  1  0  0  0  0
 13 14  1  0  0  0  0
 13 34  1  0  0  0  0
 14 16  1  0  0  0  0
 14 19  1  0  0  0  0
 14 20  1  0  0  0  0
 15 21  1  0  0  0  0
 15 35  1  0  0  0  0
 16 36  1  0  0  0  0
 16 37  1  0  0  0  0
 17 38  1  0  0  0  0
 17 39  1  0  0  0  0
 18 40  1  0  0  0  0
 19 22  2  0  0  0  0
 19 23  1  0  0  0  0
 21 41  1  0  0  0  0
 21 42  1  0  0  0  0
 21 43  1  0  0  0  0
 22 24  1  0  0  0  0
 23 25  2  0  0  0  0
 23 44  1  0  0  0  0
 24 26  2  0  0  0  0
 24 45  1  0  0  0  0
 25 26  1  0  0  0  0
 25 46  1  0  0  0  0
 27 47  1  0  0  0  0
 27 48  1  0  0  0  0
 27 49  1  0  0  0  0
 28 50  1  0  0  0  0
 28 51  1  0  0  0  0
 28 52  1  0  0  0  0
M  END
> <PUBCHEM_COMPOUND_CID>
101467877

> <PUBCHEM_CONFORMER_RMSD>
0.8

> <PUBCHEM_CONFORMER_DIVERSEORDER>
1
2

> <PUBCHEM_MMFF94_PARTIAL_CHARGES>
30
1 -0.3
12 0.25
13 0.28
14 0.2
15 -0.05
17 0.28
18 0.39
19 -0.14
2 -0.56
20 0.57
21 0.09
22 0.12
23 -0.15
24 -0.15
25 -0.15
26 0.08
27 0.28
28 0.28
3 -0.57
35 0.1
4 -0.32
40 0.06
44 0.15
45 0.15
46 0.15
5 -0.36
6 -0.7
7 -0.14
8 0.09
9 0.05

> <PUBCHEM_EFFECTIVE_ROTOR_COUNT>
3.4

> <PUBCHEM_PHARMACOPHORE_FEATURES>
9
1 1 acceptor
1 2 acceptor
1 3 acceptor
1 5 acceptor
1 6 acceptor
5 7 14 19 20 22 rings
6 19 22 23 24 25 26 rings
6 6 8 9 10 12 18 rings
9 2 8 10 11 12 13 14 16 17 rings

> <PUBCHEM_HEAVY_ATOM_COUNT>
28

> <PUBCHEM_ATOM_DEF_STEREO_COUNT>
7

> <PUBCHEM_ATOM_UDEF_STEREO_COUNT>
0

> <PUBCHEM_BOND_DEF_STEREO_COUNT>
0

> <PUBCHEM_BOND_UDEF_STEREO_COUNT>
0

> <PUBCHEM_ISOTOPIC_ATOM_COUNT>
0

> <PUBCHEM_COMPONENT_COUNT>
1

> <PUBCHEM_CACTVS_TAUTO_COUNT>
1

> <PUBCHEM_CONFORMER_ID>
060C46E500000001

> <PUBCHEM_MMFF94_ENERGY>
120.3904

> <PUBCHEM_FEATURE_SELFOVERLAP>
46.012

> <PUBCHEM_SHAPE_FINGERPRINT>
10863032 1 18337107986065917164
10906281 52 17987818353089482688
1100329 8 18409728495169780275
11578080 2 17272277217997410953
11646440 116 18202570561821675753
12011746 2 18336257964529401061
12035758 1 18343863320581057259
12166972 35 17967534592951121021
12236239 1 17458064837216322340
12293681 4 17989211451575422177
12403260 363 18410573994343233781
12633257 1 18413111683784561689
12788726 201 18271822197980872208
13140716 1 18264772236849800627
13402501 40 18343584014499611542
13583140 156 17559382763884256538
15042514 8 18263927799530937747
15238133 3 18340215106609209532
15849732 13 17822010895544806470
1601671 61 18115585941874304928
16945 1 18338812146856551660
17349148 13 18059856159975545153
17492 89 18120373421618289690
17804303 29 18407759256901509040
1813 80 16805598145263140876
18681886 176 18261106374704301089
19141452 34 18410007762480702430
19591789 44 18266176128504450611
20028762 73 18272085033152848815
20691752 17 17024012934411811338
21033648 29 17987217980853961833
21267235 1 18408890615674822777
21279426 13 18053947251348938396
21781051 124 18042707112226168811
21859007 373 17896857920887825469
23402539 116 18272642429069588085
23558518 356 17974285727072614755
23559900 14 18342457080080819336
3004659 81 18260269634066234300
3178227 256 18336278877205200865
335352 9 18410011039941370879
350125 39 18334856078967720309
495365 180 17346311665154232456
5104073 3 18338805627676562673
5265222 85 18337401543059841062
59755656 215 18410292463152049255
7226269 152 18202000980286060792
8509985 295 18408038502758577137
9709674 26 18270401714666473759
9981440 41 16885845163608437372

> <PUBCHEM_SHAPE_MULTIPOLES>
536.92
11.33
2.71
1.19
3.75
1.1
-0.18
1.88
1.17
1.33
-0.15
-0.97
-0.06
0.08

> <PUBCHEM_SHAPE_SELFOVERLAP>
1195.084

> <PUBCHEM_SHAPE_VOLUME>
281.4

> <PUBCHEM_COORDINATE_TYPE>
2
5
10

$$$$
