101727430
  -OEChem-09222004233D

 48 52  0     1  0  0  0  0  0999 V2000
   -0.5058    2.1975   -1.0344 O   0  0  0  0  0  0  0  0  0  0  0  0
   -2.1192    0.6585   -2.7972 O   0  0  0  0  0  0  0  0  0  0  0  0
   -0.6966   -2.1027    0.3717 O   0  0  0  0  0  0  0  0  0  0  0  0
    1.9955   -3.0016   -0.0077 O   0  0  0  0  0  0  0  0  0  0  0  0
    5.8431    0.6505    0.1673 O   0  0  0  0  0  0  0  0  0  0  0  0
   -2.6746   -0.2734    1.6388 N   0  0  0  0  0  0  0  0  0  0  0  0
    1.5737   -1.6869    0.1362 N   0  0  0  0  0  0  0  0  0  0  0  0
   -2.5219    1.7575    0.3648 C   0  0  1  0  0  0  0  0  0  0  0  0
    0.1942    0.2295    0.2418 C   0  0  2  0  0  0  0  0  0  0  0  0
   -2.9291    0.6247   -0.5589 C   0  0  1  0  0  0  0  0  0  0  0  0
   -0.4305    0.7658   -1.0760 C   0  0  1  0  0  0  0  0  0  0  0  0
   -1.9364    1.0086    1.5666 C   0  0  2  0  0  0  0  0  0  0  0  0
   -1.7966    0.1871   -1.4817 C   0  0  2  0  0  0  0  0  0  0  0  0
   -0.4254    0.7618    1.5534 C   0  0  0  0  0  0  0  0  0  0  0  0
   -1.5915    2.7571   -0.3034 C   0  0  0  0  0  0  0  0  0  0  0  0
   -3.2236   -0.4258    0.4732 C   0  0  0  0  0  0  0  0  0  0  0  0
    1.7014    0.5549    0.2358 C   0  0  0  0  0  0  0  0  0  0  0  0
    0.2512   -1.3408    0.2606 C   0  0  0  0  0  0  0  0  0  0  0  0
    2.4493   -0.6216    0.1659 C   0  0  0  0  0  0  0  0  0  0  0  0
   -4.0783   -1.6076    0.1445 C   0  0  0  0  0  0  0  0  0  0  0  0
    2.3483    1.7810    0.2810 C   0  0  0  0  0  0  0  0  0  0  0  0
    3.8313   -0.6303    0.1425 C   0  0  0  0  0  0  0  0  0  0  0  0
   -5.5284   -1.3164    0.4670 C   0  0  0  0  0  0  0  0  0  0  0  0
    3.7467    1.7987    0.2572 C   0  0  0  0  0  0  0  0  0  0  0  0
    4.4815    0.6030    0.1885 C   0  0  0  0  0  0  0  0  0  0  0  0
    2.0419   -3.3291   -1.3974 C   0  0  0  0  0  0  0  0  0  0  0  0
   -3.4242    2.2845    0.7063 H   0  0  0  0  0  0  0  0  0  0  0  0
   -3.8446    0.8723   -1.1068 H   0  0  0  0  0  0  0  0  0  0  0  0
    0.2579    0.5438   -1.9035 H   0  0  0  0  0  0  0  0  0  0  0  0
   -2.1714    1.5746    2.4772 H   0  0  0  0  0  0  0  0  0  0  0  0
   -1.7370   -0.9016   -1.5688 H   0  0  0  0  0  0  0  0  0  0  0  0
    0.0422    1.7210    1.8140 H   0  0  0  0  0  0  0  0  0  0  0  0
   -0.1708    0.0860    2.3821 H   0  0  0  0  0  0  0  0  0  0  0  0
   -2.1647    3.3615   -1.0159 H   0  0  0  0  0  0  0  0  0  0  0  0
   -1.1791    3.4553    0.4330 H   0  0  0  0  0  0  0  0  0  0  0  0
   -3.9678   -1.8527   -0.9164 H   0  0  0  0  0  0  0  0  0  0  0  0
   -3.7324   -2.4693    0.7253 H   0  0  0  0  0  0  0  0  0  0  0  0
   -2.9391    0.2143   -3.0740 H   0  0  0  0  0  0  0  0  0  0  0  0
    1.7950    2.7120    0.3361 H   0  0  0  0  0  0  0  0  0  0  0  0
    4.3938   -1.5561    0.0916 H   0  0  0  0  0  0  0  0  0  0  0  0
   -5.6559   -1.0768    1.5280 H   0  0  0  0  0  0  0  0  0  0  0  0
   -6.1536   -2.1838    0.2344 H   0  0  0  0  0  0  0  0  0  0  0  0
   -5.8978   -0.4632   -0.1116 H   0  0  0  0  0  0  0  0  0  0  0  0
    4.2607    2.7564    0.2932 H   0  0  0  0  0  0  0  0  0  0  0  0
    2.3567   -4.3722   -1.4888 H   0  0  0  0  0  0  0  0  0  0  0  0
    2.7680   -2.7011   -1.9228 H   0  0  0  0  0  0  0  0  0  0  0  0
    1.0514   -3.2248   -1.8519 H   0  0  0  0  0  0  0  0  0  0  0  0
    6.1266    1.5801    0.2056 H   0  0  0  0  0  0  0  0  0  0  0  0
  1 11  1  0  0  0  0
  1 15  1  0  0  0  0
  2 13  1  0  0  0  0
  2 38  1  0  0  0  0
  3 18  2  0  0  0  0
  4  7  1  0  0  0  0
  4 26  1  0  0  0  0
  5 25  1  0  0  0  0
  5 48  1  0  0  0  0
  6 12  1  0  0  0  0
  6 16  2  0  0  0  0
  7 18  1  0  0  0  0
  7 19  1  0  0  0  0
  8 10  1  0  0  0  0
  8 12  1  0  0  0  0
  8 15  1  0  0  0  0
  8 27  1  0  0  0  0
  9 11  1  0  0  0  0
  9 14  1  0  0  0  0
  9 17  1  0  0  0  0
  9 18  1  0  0  0  0
 10 13  1  0  0  0  0
 10 16  1  0  0  0  0
 10 28  1  0  0  0  0
 11 13  1  0  0  0  0
 11 29  1  0  0  0  0
 12 14  1  0  0  0  0
 12 30  1  0  0  0  0
 13 31  1  0  0  0  0
 14 32  1  0  0  0  0
 14 33  1  0  0  0  0
 15 34  1  0  0  0  0
 15 35  1  0  0  0  0
 16 20  1  0  0  0  0
 17 19  2  0  0  0  0
 17 21  1  0  0  0  0
 19 22  1  0  0  0  0
 20 23  1  0  0  0  0
 20 36  1  0  0  0  0
 20 37  1  0  0  0  0
 21 24  2  0  0  0  0
 21 39  1  0  0  0  0
 22 25  2  0  0  0  0
 22 40  1  0  0  0  0
 23 41  1  0  0  0  0
 23 42  1  0  0  0  0
 23 43  1  0  0  0  0
 24 25  1  0  0  0  0
 24 44  1  0  0  0  0
 26 45  1  0  0  0  0
 26 46  1  0  0  0  0
 26 47  1  0  0  0  0
M  END
> <PUBCHEM_COMPOUND_CID>
101727430

> <PUBCHEM_CONFORMER_RMSD>
0.6

> <PUBCHEM_CONFORMER_DIVERSEORDER>
1
2

> <PUBCHEM_MMFF94_PARTIAL_CHARGES>
28
1 -0.56
10 0.06
11 0.28
12 0.25
13 0.28
15 0.28
16 0.33
17 -0.14
18 0.57
19 0.12
2 -0.68
20 0.06
21 -0.15
22 -0.15
24 -0.15
25 0.08
26 0.28
3 -0.57
38 0.4
39 0.15
4 -0.32
40 0.15
44 0.15
48 0.45
5 -0.53
6 -0.7
7 -0.14
9 0.2

> <PUBCHEM_EFFECTIVE_ROTOR_COUNT>
3

> <PUBCHEM_PHARMACOPHORE_FEATURES>
11
1 1 acceptor
1 2 acceptor
1 2 donor
1 23 hydrophobe
1 3 acceptor
1 5 donor
1 6 acceptor
5 6 8 10 12 16 rings
5 7 9 17 18 19 rings
6 17 19 21 22 24 25 rings
9 1 8 9 10 11 12 13 14 15 rings

> <PUBCHEM_HEAVY_ATOM_COUNT>
26

> <PUBCHEM_ATOM_DEF_STEREO_COUNT>
6

> <PUBCHEM_ATOM_UDEF_STEREO_COUNT>
0

> <PUBCHEM_BOND_DEF_STEREO_COUNT>
0

> <PUBCHEM_BOND_UDEF_STEREO_COUNT>
0

> <PUBCHEM_ISOTOPIC_ATOM_COUNT>
0

> <PUBCHEM_COMPONENT_COUNT>
1

> <PUBCHEM_CACTVS_TAUTO_COUNT>
9

> <PUBCHEM_CONFORMER_ID>
06103CC600000001

> <PUBCHEM_MMFF94_ENERGY>
96.9625

> <PUBCHEM_FEATURE_SELFOVERLAP>
56.566

> <PUBCHEM_SHAPE_FINGERPRINT>
10 15 18189044473779721824
10366900 7 17458349649946982040
10863032 1 18341051813978670785
10906281 52 17968960680843398993
10948715 1 18123186797554881273
11315181 36 13406794424580093636
11578080 2 17097482107964020150
12011746 2 18334013938374367553
12156800 1 17622471722899928375
12236239 1 17632300102753001120
12403259 226 18335979775424347952
12623949 98 17988102027258728855
13140716 1 18193839481782652570
13224815 77 18334856091446141488
13544653 18 18261119603625065883
13583140 156 18060413603992097633
14223421 5 18340491049588375699
14787075 74 17987801954814234337
15209289 33 18201721803269502720
15309172 13 18410575106581215568
16945 1 18199447970036108028
17349148 13 17748828539829776472
17357779 13 17967806202334704791
17492 89 18270685242685771491
17980427 23 17022629675606225532
1813 80 17386304129246518333
192875 21 14996285816302440511
19930381 70 18337952410416112464
200 152 18410007762712726649
20028762 73 18058730363232846918
20600515 1 16733281104829561447
21267235 1 18337680805347574818
22182313 1 18187368684186335127
23402539 116 17967529090749439225
23419403 2 17026579276388015433
23557571 272 17894911819517875173
23559900 14 18197211438873559690
23566358 27 18059584542191723230
23598288 3 17130991941139558705
238 59 18194089998518873950
2748010 2 18115873996703678148
350125 39 18339081626670353016
5104073 3 18340199692382586760
5283173 99 17822558431515178621
5845 1 17749971967909916205
59755656 215 18334858324523602502
6287921 2 18264788596274742820
9709674 26 18194679272374396255

> <PUBCHEM_SHAPE_MULTIPOLES>
495.76
8.4
2.85
1.42
2.59
1.47
0.6
0.95
-1.2
0.83
0.57
-1.12
-0.2
0.75

> <PUBCHEM_SHAPE_SELFOVERLAP>
1105.426

> <PUBCHEM_SHAPE_VOLUME>
261.5

> <PUBCHEM_COORDINATE_TYPE>
2
5
10

$$$$
