102004554
  -OEChem-09222004233D

 47 51  0     1  0  0  0  0  0999 V2000
    0.9454   -2.4277    1.0890 O   0  0  0  0  0  0  0  0  0  0  0  0
   -1.1485   -2.9084   -0.7276 O   0  0  0  0  0  0  0  0  0  0  0  0
   -3.7320   -1.6965   -0.4050 O   0  0  0  0  0  0  0  0  0  0  0  0
   -3.9281    3.5634    0.1548 O   0  0  0  0  0  0  0  0  0  0  0  0
    2.9641    0.6295   -1.5132 N   0  0  0  0  0  0  0  0  0  0  0  0
   -2.5016   -1.0571   -0.3478 N   0  0  0  0  0  0  0  0  0  0  0  0
    2.8113   -1.2449   -0.0783 C   0  0  2  0  0  0  0  0  0  0  0  0
   -0.1684   -0.6672   -0.1954 C   0  0  2  0  0  0  0  0  0  0  0  0
    2.5605    0.0301    0.7214 C   0  0  2  0  0  0  0  0  0  0  0  0
    2.2997   -0.7333   -1.4128 C   0  0  1  0  0  0  0  0  0  0  0  0
    0.4460   -1.0923    1.2097 C   0  0  2  0  0  0  0  0  0  0  0  0
    0.7456   -0.6517   -1.5022 C   0  0  0  0  0  0  0  0  0  0  0  0
    1.5836   -0.2157    1.8365 C   0  0  0  0  0  0  0  0  0  0  0  0
    2.1973   -2.5393    0.4329 C   0  0  0  0  0  0  0  0  0  0  0  0
    3.1876    0.9686   -0.2662 C   0  0  0  0  0  0  0  0  0  0  0  0
   -1.0123    0.6128   -0.0735 C   0  0  0  0  0  0  0  0  0  0  0  0
   -1.3121   -1.7243   -0.4712 C   0  0  0  0  0  0  0  0  0  0  0  0
   -2.3740    0.3034   -0.1618 C   0  0  0  0  0  0  0  0  0  0  0  0
    3.8495    2.2415    0.1358 C   0  0  0  0  0  0  0  0  0  0  0  0
   -0.6315    1.9379    0.0742 C   0  0  0  0  0  0  0  0  0  0  0  0
   -3.3738    1.2569   -0.0880 C   0  0  0  0  0  0  0  0  0  0  0  0
    5.3137    2.0056    0.4480 C   0  0  0  0  0  0  0  0  0  0  0  0
   -1.6244    2.9223    0.1530 C   0  0  0  0  0  0  0  0  0  0  0  0
   -2.9842    2.5844    0.0758 C   0  0  0  0  0  0  0  0  0  0  0  0
   -4.1132   -2.0982    0.9119 C   0  0  0  0  0  0  0  0  0  0  0  0
    3.8931   -1.4263   -0.1875 H   0  0  0  0  0  0  0  0  0  0  0  0
    3.4366    0.0523    1.4019 H   0  0  0  0  0  0  0  0  0  0  0  0
    2.6838   -1.3440   -2.2383 H   0  0  0  0  0  0  0  0  0  0  0  0
   -0.3648   -1.1454    1.9481 H   0  0  0  0  0  0  0  0  0  0  0  0
    0.4840    0.2169   -2.1219 H   0  0  0  0  0  0  0  0  0  0  0  0
    0.4569   -1.5153   -2.1177 H   0  0  0  0  0  0  0  0  0  0  0  0
    2.0337   -0.7504    2.6827 H   0  0  0  0  0  0  0  0  0  0  0  0
    1.1767    0.7333    2.1978 H   0  0  0  0  0  0  0  0  0  0  0  0
    2.0947   -3.2679   -0.3787 H   0  0  0  0  0  0  0  0  0  0  0  0
    2.8811   -2.9876    1.1632 H   0  0  0  0  0  0  0  0  0  0  0  0
    3.7556    2.9646   -0.6814 H   0  0  0  0  0  0  0  0  0  0  0  0
    3.3326    2.6526    1.0089 H   0  0  0  0  0  0  0  0  0  0  0  0
    0.4147    2.2173    0.1302 H   0  0  0  0  0  0  0  0  0  0  0  0
   -4.4222    0.9888   -0.1607 H   0  0  0  0  0  0  0  0  0  0  0  0
    5.4367    1.3173    1.2904 H   0  0  0  0  0  0  0  0  0  0  0  0
    5.8047    2.9489    0.7064 H   0  0  0  0  0  0  0  0  0  0  0  0
    5.8344    1.5724   -0.4126 H   0  0  0  0  0  0  0  0  0  0  0  0
   -1.3241    3.9606    0.2742 H   0  0  0  0  0  0  0  0  0  0  0  0
   -5.0746   -2.6145    0.8430 H   0  0  0  0  0  0  0  0  0  0  0  0
   -4.2331   -1.2292    1.5662 H   0  0  0  0  0  0  0  0  0  0  0  0
   -3.3771   -2.7907    1.3324 H   0  0  0  0  0  0  0  0  0  0  0  0
   -3.4837    4.4215    0.2657 H   0  0  0  0  0  0  0  0  0  0  0  0
  1 11  1  0  0  0  0
  1 14  1  0  0  0  0
  2 17  2  0  0  0  0
  3  6  1  0  0  0  0
  3 25  1  0  0  0  0
  4 24  1  0  0  0  0
  4 47  1  0  0  0  0
  5 10  1  0  0  0  0
  5 15  2  0  0  0  0
  6 17  1  0  0  0  0
  6 18  1  0  0  0  0
  7  9  1  0  0  0  0
  7 10  1  0  0  0  0
  7 14  1  0  0  0  0
  7 26  1  0  0  0  0
  8 11  1  0  0  0  0
  8 12  1  0  0  0  0
  8 16  1  0  0  0  0
  8 17  1  0  0  0  0
  9 13  1  0  0  0  0
  9 15  1  0  0  0  0
  9 27  1  0  0  0  0
 10 12  1  0  0  0  0
 10 28  1  0  0  0  0
 11 13  1  0  0  0  0
 11 29  1  0  0  0  0
 12 30  1  0  0  0  0
 12 31  1  0  0  0  0
 13 32  1  0  0  0  0
 13 33  1  0  0  0  0
 14 34  1  0  0  0  0
 14 35  1  0  0  0  0
 15 19  1  0  0  0  0
 16 18  2  0  0  0  0
 16 20  1  0  0  0  0
 18 21  1  0  0  0  0
 19 22  1  0  0  0  0
 19 36  1  0  0  0  0
 19 37  1  0  0  0  0
 20 23  2  0  0  0  0
 20 38  1  0  0  0  0
 21 24  2  0  0  0  0
 21 39  1  0  0  0  0
 22 40  1  0  0  0  0
 22 41  1  0  0  0  0
 22 42  1  0  0  0  0
 23 24  1  0  0  0  0
 23 43  1  0  0  0  0
 25 44  1  0  0  0  0
 25 45  1  0  0  0  0
 25 46  1  0  0  0  0
M  END
> <PUBCHEM_COMPOUND_CID>
102004554

> <PUBCHEM_CONFORMER_RMSD>
0.6

> <PUBCHEM_CONFORMER_DIVERSEORDER>
1
3
2

> <PUBCHEM_MMFF94_PARTIAL_CHARGES>
25
1 -0.56
10 0.25
11 0.28
14 0.28
15 0.33
16 -0.14
17 0.57
18 0.12
19 0.06
2 -0.57
20 -0.15
21 -0.15
23 -0.15
24 0.08
25 0.28
3 -0.32
38 0.15
39 0.15
4 -0.53
43 0.15
47 0.45
5 -0.7
6 -0.14
8 0.2
9 0.06

> <PUBCHEM_EFFECTIVE_ROTOR_COUNT>
3

> <PUBCHEM_PHARMACOPHORE_FEATURES>
9
1 1 acceptor
1 2 acceptor
1 22 hydrophobe
1 4 donor
1 5 acceptor
5 5 7 9 10 15 rings
5 6 8 16 17 18 rings
6 16 18 20 21 23 24 rings
9 1 7 8 9 10 11 12 13 14 rings

> <PUBCHEM_HEAVY_ATOM_COUNT>
25

> <PUBCHEM_ATOM_DEF_STEREO_COUNT>
3

> <PUBCHEM_ATOM_UDEF_STEREO_COUNT>
2

> <PUBCHEM_BOND_DEF_STEREO_COUNT>
0

> <PUBCHEM_BOND_UDEF_STEREO_COUNT>
0

> <PUBCHEM_ISOTOPIC_ATOM_COUNT>
0

> <PUBCHEM_COMPONENT_COUNT>
1

> <PUBCHEM_CACTVS_TAUTO_COUNT>
9

> <PUBCHEM_CONFORMER_ID>
0614774A00000001

> <PUBCHEM_MMFF94_ENERGY>
137.3222

> <PUBCHEM_FEATURE_SELFOVERLAP>
46.193

> <PUBCHEM_SHAPE_FINGERPRINT>
10165383 225 17059224807023388766
10369192 42 15620851529946020360
10411042 1 17546724215326533262
10498660 4 18410572881624749429
10863032 1 18410293575611538046
10948715 1 18411698794759086292
1100329 8 18120652422883235450
11640471 11 18040998440537666220
12173636 292 18411980235128262677
12293681 4 18046351000464653962
12403260 363 18053366718142402357
12403814 3 18059576965605311367
12553582 1 18195798798819303519
12788726 201 18119828051103083156
13140716 1 18264489486046185459
13224815 77 18407761430360559409
13538477 17 18262518066076965823
13583140 156 16807017524622718073
13965767 371 17897160221944332020
14178342 30 18333450949872138620
14223421 5 18408319964850255879
14787075 74 17753331168852833395
14790565 3 18266750262837891673
14955137 171 17904209478873969635
16752209 62 18341884170034876871
16945 1 18198328735939828619
17492 89 18409166584704744986
17980427 23 17910642429492585858
18981168 100 18190441784578382452
19930381 70 14375062202376810336
20510252 161 18342744035150657873
20600515 1 15615749783192769846
20691752 17 17312825944489231572
20905425 154 18343021120407346820
23402539 116 18123743425400403782
23557571 272 18271813474964928092
23558518 356 18334019392856174406
23559900 14 17985269573472222070
34934 24 18268987751535541407
350125 39 18338239258459849898
352729 6 18126001564443237095
392239 28 18044662137592563050
4340502 62 17022899095084723355
469060 322 18190196748299591777
474 4 17822020795750703628
5104073 3 18408321064725822842
7097593 13 17755009800959767043
7808743 9 18412260618935957712
7832392 63 18264488373733967318
9981440 41 18335416932966188656

> <PUBCHEM_SHAPE_MULTIPOLES>
481.05
7.59
3.65
1.21
1.55
1.27
0.02
3.9
0.5
-2.33
0.36
0.67
-0.43
0.04

> <PUBCHEM_SHAPE_SELFOVERLAP>
1065.047

> <PUBCHEM_SHAPE_VOLUME>
256.2

> <PUBCHEM_COORDINATE_TYPE>
2
5
10

$$$$
