5316594
  -OEChem-09222005083D

 45 49  0     1  0  0  0  0  0999 V2000
    0.2425   -1.9470   -0.7991 O   0  0  0  0  0  0  0  0  0  0  0  0
   -0.2845    2.3663    0.1567 O   0  0  0  0  0  0  0  0  0  0  0  0
   -2.0741    0.4507    1.7444 N   0  0  0  0  0  0  0  0  0  0  0  0
    2.0276    2.1752   -0.1051 N   0  0  0  0  0  0  0  0  0  0  0  0
   -1.8244   -1.7629    0.4998 C   0  0  2  0  0  0  0  0  0  0  0  0
    0.8183    0.1263    0.1722 C   0  0  1  0  0  0  0  0  0  0  0  0
   -2.4754   -1.0432   -0.7472 C   0  0  2  0  0  0  0  0  0  0  0  0
   -1.2763   -0.7819    1.6312 C   0  0  1  0  0  0  0  0  0  0  0  0
    0.0070   -0.5336   -0.9817 C   0  0  2  0  0  0  0  0  0  0  0  0
    0.2668   -0.3959    1.5675 C   0  0  0  0  0  0  0  0  0  0  0  0
   -1.3442   -0.5100   -1.7362 C   0  0  0  0  0  0  0  0  0  0  0  0
   -0.7178   -2.6648   -0.0253 C   0  0  0  0  0  0  0  0  0  0  0  0
   -3.4279    0.0363   -0.2671 C   0  0  0  0  0  0  0  0  0  0  0  0
    2.3167   -0.0820    0.0395 C   0  0  0  0  0  0  0  0  0  0  0  0
   -3.4283    0.3253    1.2155 C   0  0  0  0  0  0  0  0  0  0  0  0
    0.7329    1.6925    0.0830 C   0  0  0  0  0  0  0  0  0  0  0  0
    2.9549    1.1452   -0.1286 C   0  0  0  0  0  0  0  0  0  0  0  0
   -4.2418    0.6874   -1.1128 C   0  0  0  0  0  0  0  0  0  0  0  0
    3.0722   -1.2436    0.0791 C   0  0  0  0  0  0  0  0  0  0  0  0
    4.3235    1.2696   -0.2775 C   0  0  0  0  0  0  0  0  0  0  0  0
    4.4604   -1.1476   -0.0692 C   0  0  0  0  0  0  0  0  0  0  0  0
   -5.2092    1.7380   -0.6905 C   0  0  0  0  0  0  0  0  0  0  0  0
    5.0809    0.0996   -0.2487 C   0  0  0  0  0  0  0  0  0  0  0  0
   -2.5999   -2.3876    0.9657 H   0  0  0  0  0  0  0  0  0  0  0  0
   -3.0632   -1.7909   -1.2984 H   0  0  0  0  0  0  0  0  0  0  0  0
   -1.3987   -1.3187    2.5819 H   0  0  0  0  0  0  0  0  0  0  0  0
    0.6571   -0.2873   -1.8385 H   0  0  0  0  0  0  0  0  0  0  0  0
    0.4837    0.3469    2.3480 H   0  0  0  0  0  0  0  0  0  0  0  0
    0.8272   -1.2925    1.8639 H   0  0  0  0  0  0  0  0  0  0  0  0
   -1.3091   -1.1815   -2.6038 H   0  0  0  0  0  0  0  0  0  0  0  0
   -1.5638    0.5010   -2.0938 H   0  0  0  0  0  0  0  0  0  0  0  0
   -0.1948   -3.1772    0.7889 H   0  0  0  0  0  0  0  0  0  0  0  0
   -1.1359   -3.4454   -0.6710 H   0  0  0  0  0  0  0  0  0  0  0  0
   -1.6037    1.2230    1.2757 H   0  0  0  0  0  0  0  0  0  0  0  0
   -3.9417    1.2593    1.4600 H   0  0  0  0  0  0  0  0  0  0  0  0
   -3.9690   -0.4662    1.7491 H   0  0  0  0  0  0  0  0  0  0  0  0
    2.2730    3.1536   -0.2012 H   0  0  0  0  0  0  0  0  0  0  0  0
   -4.2072    0.4531   -2.1737 H   0  0  0  0  0  0  0  0  0  0  0  0
    2.6139   -2.2152    0.2271 H   0  0  0  0  0  0  0  0  0  0  0  0
    4.7980    2.2356   -0.4071 H   0  0  0  0  0  0  0  0  0  0  0  0
    5.0674   -2.0487   -0.0426 H   0  0  0  0  0  0  0  0  0  0  0  0
   -4.7075    2.7035   -0.5755 H   0  0  0  0  0  0  0  0  0  0  0  0
   -5.7385    1.4805    0.2314 H   0  0  0  0  0  0  0  0  0  0  0  0
   -5.9762    1.8537   -1.4642 H   0  0  0  0  0  0  0  0  0  0  0  0
    6.1604    0.1512   -0.3605 H   0  0  0  0  0  0  0  0  0  0  0  0
  1  9  1  0  0  0  0
  1 12  1  0  0  0  0
  2 16  2  0  0  0  0
  3  8  1  0  0  0  0
  3 15  1  0  0  0  0
  3 34  1  0  0  0  0
  4 16  1  0  0  0  0
  4 17  1  0  0  0  0
  4 37  1  0  0  0  0
  5  7  1  0  0  0  0
  5  8  1  0  0  0  0
  5 12  1  0  0  0  0
  5 24  1  0  0  0  0
  6  9  1  0  0  0  0
  6 10  1  0  0  0  0
  6 14  1  0  0  0  0
  6 16  1  0  0  0  0
  7 11  1  0  0  0  0
  7 13  1  0  0  0  0
  7 25  1  0  0  0  0
  8 10  1  0  0  0  0
  8 26  1  0  0  0  0
  9 11  1  0  0  0  0
  9 27  1  0  0  0  0
 10 28  1  0  0  0  0
 10 29  1  0  0  0  0
 11 30  1  0  0  0  0
 11 31  1  0  0  0  0
 12 32  1  0  0  0  0
 12 33  1  0  0  0  0
 13 15  1  0  0  0  0
 13 18  2  0  0  0  0
 14 17  1  0  0  0  0
 14 19  2  0  0  0  0
 15 35  1  0  0  0  0
 15 36  1  0  0  0  0
 17 20  2  0  0  0  0
 18 22  1  0  0  0  0
 18 38  1  0  0  0  0
 19 21  1  0  0  0  0
 19 39  1  0  0  0  0
 20 23  1  0  0  0  0
 20 40  1  0  0  0  0
 21 23  2  0  0  0  0
 21 41  1  0  0  0  0
 22 42  1  0  0  0  0
 22 43  1  0  0  0  0
 22 44  1  0  0  0  0
 23 45  1  0  0  0  0
M  END
> <PUBCHEM_COMPOUND_CID>
5316594

> <PUBCHEM_CONFORMER_RMSD>
0.6

> <PUBCHEM_CONFORMER_DIVERSEORDER>
1
3
6
4
7
2
5

> <PUBCHEM_MMFF94_PARTIAL_CHARGES>
27
1 -0.56
12 0.28
13 -0.28
14 -0.14
15 0.41
16 0.57
17 0.12
18 -0.29
19 -0.15
2 -0.57
20 -0.15
21 -0.15
22 0.14
23 -0.15
3 -0.9
34 0.36
37 0.37
38 0.15
39 0.15
4 -0.55
40 0.15
41 0.15
45 0.15
6 0.2
7 0.14
8 0.27
9 0.28

> <PUBCHEM_EFFECTIVE_ROTOR_COUNT>
1.4

> <PUBCHEM_PHARMACOPHORE_FEATURES>
10
1 1 acceptor
1 2 acceptor
1 22 hydrophobe
1 3 cation
1 3 donor
1 4 donor
5 4 6 14 16 17 rings
6 14 17 19 20 21 23 rings
6 3 5 7 8 13 15 rings
9 1 5 6 7 8 9 10 11 12 rings

> <PUBCHEM_HEAVY_ATOM_COUNT>
23

> <PUBCHEM_ATOM_DEF_STEREO_COUNT>
0

> <PUBCHEM_ATOM_UDEF_STEREO_COUNT>
5

> <PUBCHEM_BOND_DEF_STEREO_COUNT>
1

> <PUBCHEM_BOND_UDEF_STEREO_COUNT>
0

> <PUBCHEM_ISOTOPIC_ATOM_COUNT>
0

> <PUBCHEM_COMPONENT_COUNT>
1

> <PUBCHEM_CACTVS_TAUTO_COUNT>
2

> <PUBCHEM_CONFORMER_ID>
00511FF200000001

> <PUBCHEM_MMFF94_ENERGY>
112.7676

> <PUBCHEM_FEATURE_SELFOVERLAP>
51.053

> <PUBCHEM_SHAPE_FINGERPRINT>
10863032 1 18339920515065691975
10948715 1 18261106349255704887
11315181 36 17561367318554543936
11578080 2 14058445322213972028
12011746 2 18339929220932648780
12236239 1 17775566425139690231
12553582 1 18411992364548273392
12592029 89 18335977567436923355
12788726 201 18271807857221779176
128620 24 8646774391428011554
12969540 114 18261377936890691967
13464514 151 18044652006334715589
13583140 156 18113909285700534091
14294032 229 16700914674375978521
14341114 328 12035731977089770389
14790565 3 18337955584360118380
15099037 51 18410008823379595358
15209289 33 11241978083136446973
15420108 30 16331621501357673208
16752209 62 18339641127517031288
16945 1 18199488604690189978
17349148 13 17418383492787476086
17980427 23 16917077684647937368
192875 21 17775566433598029169
200 152 16988844986051046390
20511986 3 17988342841963812866
20775438 99 16260900342624727071
21033648 29 18113897186851734865
23184049 59 18340498815094929866
23402539 116 17632582625981274561
23419403 2 12037744147645547148
23559900 14 17274536637668569856
25 1 18335693923691196967
2838139 119 18336536115550149989
296302 2 18409732897880465070
335352 9 18410290286035926350
347723 3 17275384292387695155
34934 24 18335978748995612672
350125 39 18339084920857664243
427121 178 16733548187808920889
474 4 18342740672212669367
5104073 3 18337669832223020906
633830 44 17749103417794638940
74978 22 18269557319985748410

> <PUBCHEM_SHAPE_MULTIPOLES>
451.63
8.7
2.21
1.34
1.92
0.02
-0.26
-3
1.6
-0.11
0.13
-1.13
0.18
0.23

> <PUBCHEM_SHAPE_SELFOVERLAP>
995.761

> <PUBCHEM_SHAPE_VOLUME>
237.7

> <PUBCHEM_COORDINATE_TYPE>
2
5
10

$$$$
