101951240
  -OEChem-09222004553D

 49 52  0     1  0  0  0  0  0999 V2000
   -0.1376    2.3142   -1.1018 O   0  0  0  0  0  0  0  0  0  0  0  0
   -0.0277   -1.9930    0.0222 O   0  0  0  0  0  0  0  0  0  0  0  0
    2.7206   -2.8552   -0.1594 O   0  0  0  0  0  0  0  0  0  0  0  0
   -4.4663    0.0208   -0.2777 O   0  0  0  0  0  0  0  0  0  0  0  0
   -3.4218    0.4661    3.3960 O   0  0  0  0  0  0  0  0  0  0  0  0
    2.2527   -1.5518   -0.0797 N   0  0  0  0  0  0  0  0  0  0  0  0
   -1.7521   -0.3488    1.9768 N   0  0  0  0  0  0  0  0  0  0  0  0
    0.8495    0.3441   -0.0328 C   0  0  1  0  0  0  0  0  0  0  0  0
    0.3049    0.8502    1.3263 C   0  0  0  0  0  0  0  0  0  0  0  0
    0.1075    0.9025   -1.2806 C   0  0  1  0  0  0  0  0  0  0  0  0
   -1.2277    0.9125    1.5020 C   0  0  1  0  0  0  0  0  0  0  0  0
   -2.0294    1.4671    0.2961 C   0  0  1  0  0  0  0  0  0  0  0  0
    2.3421    0.6943   -0.1309 C   0  0  0  0  0  0  0  0  0  0  0  0
   -1.3101    2.6651   -0.3487 C   0  0  0  0  0  0  0  0  0  0  0  0
   -2.2220    0.4538   -0.7945 C   0  0  0  0  0  0  0  0  0  0  0  0
    0.9207   -1.2247   -0.0291 C   0  0  0  0  0  0  0  0  0  0  0  0
   -1.1822    0.1903   -1.5906 C   0  0  0  0  0  0  0  0  0  0  0  0
    3.1081   -0.4726   -0.1671 C   0  0  0  0  0  0  0  0  0  0  0  0
    2.9631    1.9320   -0.1946 C   0  0  0  0  0  0  0  0  0  0  0  0
   -3.4984   -0.2181   -1.0096 C   0  0  0  0  0  0  0  0  0  0  0  0
    4.4863   -0.4590   -0.2678 C   0  0  0  0  0  0  0  0  0  0  0  0
    4.3575    1.9719   -0.2956 C   0  0  0  0  0  0  0  0  0  0  0  0
   -3.5714   -1.2096   -2.1635 C   0  0  0  0  0  0  0  0  0  0  0  0
    5.1120    0.7864   -0.3328 C   0  0  0  0  0  0  0  0  0  0  0  0
   -2.7919   -0.4439    2.8722 C   0  0  0  0  0  0  0  0  0  0  0  0
   -4.9305   -1.8761   -2.2877 C   0  0  0  0  0  0  0  0  0  0  0  0
    3.0442   -3.3187    1.1529 C   0  0  0  0  0  0  0  0  0  0  0  0
    0.6785    1.8706    1.4938 H   0  0  0  0  0  0  0  0  0  0  0  0
    0.7369    0.2562    2.1448 H   0  0  0  0  0  0  0  0  0  0  0  0
    0.7478    0.8176   -2.1680 H   0  0  0  0  0  0  0  0  0  0  0  0
   -1.3912    1.6256    2.3235 H   0  0  0  0  0  0  0  0  0  0  0  0
   -3.0025    1.8171    0.6628 H   0  0  0  0  0  0  0  0  0  0  0  0
   -1.9867    3.1793   -1.0426 H   0  0  0  0  0  0  0  0  0  0  0  0
   -1.0176    3.4037    0.4058 H   0  0  0  0  0  0  0  0  0  0  0  0
   -1.1760   -0.5182   -2.4082 H   0  0  0  0  0  0  0  0  0  0  0  0
   -1.3684   -1.2075    1.5936 H   0  0  0  0  0  0  0  0  0  0  0  0
    2.3928    2.8539   -0.1675 H   0  0  0  0  0  0  0  0  0  0  0  0
    5.0712   -1.3710   -0.2978 H   0  0  0  0  0  0  0  0  0  0  0  0
    4.8655    2.9313   -0.3470 H   0  0  0  0  0  0  0  0  0  0  0  0
   -3.3632   -0.6830   -3.1013 H   0  0  0  0  0  0  0  0  0  0  0  0
   -2.8266   -1.9976   -2.0059 H   0  0  0  0  0  0  0  0  0  0  0  0
    6.1943    0.8428   -0.4126 H   0  0  0  0  0  0  0  0  0  0  0  0
   -3.0262   -1.5009    3.0806 H   0  0  0  0  0  0  0  0  0  0  0  0
   -5.1829   -2.4259   -1.3749 H   0  0  0  0  0  0  0  0  0  0  0  0
   -5.7173   -1.1341   -2.4596 H   0  0  0  0  0  0  0  0  0  0  0  0
   -4.9358   -2.5810   -3.1249 H   0  0  0  0  0  0  0  0  0  0  0  0
    3.3799   -4.3561    1.0717 H   0  0  0  0  0  0  0  0  0  0  0  0
    2.1607   -3.2898    1.7987 H   0  0  0  0  0  0  0  0  0  0  0  0
    3.8529   -2.7269    1.5920 H   0  0  0  0  0  0  0  0  0  0  0  0
  1 10  1  0  0  0  0
  1 14  1  0  0  0  0
  2 16  2  0  0  0  0
  3  6  1  0  0  0  0
  3 27  1  0  0  0  0
  4 20  2  0  0  0  0
  5 25  2  0  0  0  0
  6 16  1  0  0  0  0
  6 18  1  0  0  0  0
  7 11  1  0  0  0  0
  7 25  1  0  0  0  0
  7 36  1  0  0  0  0
  8  9  1  0  0  0  0
  8 10  1  0  0  0  0
  8 13  1  0  0  0  0
  8 16  1  0  0  0  0
  9 11  1  0  0  0  0
  9 28  1  0  0  0  0
  9 29  1  0  0  0  0
 10 17  1  0  0  0  0
 10 30  1  0  0  0  0
 11 12  1  0  0  0  0
 11 31  1  0  0  0  0
 12 14  1  0  0  0  0
 12 15  1  0  0  0  0
 12 32  1  0  0  0  0
 13 18  1  0  0  0  0
 13 19  2  0  0  0  0
 14 33  1  0  0  0  0
 14 34  1  0  0  0  0
 15 17  2  0  0  0  0
 15 20  1  0  0  0  0
 17 35  1  0  0  0  0
 18 21  2  0  0  0  0
 19 22  1  0  0  0  0
 19 37  1  0  0  0  0
 20 23  1  0  0  0  0
 21 24  1  0  0  0  0
 21 38  1  0  0  0  0
 22 24  2  0  0  0  0
 22 39  1  0  0  0  0
 23 26  1  0  0  0  0
 23 40  1  0  0  0  0
 23 41  1  0  0  0  0
 24 42  1  0  0  0  0
 25 43  1  0  0  0  0
 26 44  1  0  0  0  0
 26 45  1  0  0  0  0
 26 46  1  0  0  0  0
 27 47  1  0  0  0  0
 27 48  1  0  0  0  0
 27 49  1  0  0  0  0
M  END
> <PUBCHEM_COMPOUND_CID>
101951240

> <PUBCHEM_CONFORMER_RMSD>
0.8

> <PUBCHEM_CONFORMER_DIVERSEORDER>
1
5
10
4
12
14
3
11
7
8
2
6
13
9

> <PUBCHEM_MMFF94_PARTIAL_CHARGES>
32
1 -0.56
10 0.42
11 0.3
12 0.14
13 -0.14
14 0.28
15 -0.12
16 0.57
17 -0.29
18 0.12
19 -0.15
2 -0.57
20 0.49
21 -0.15
22 -0.15
23 0.06
24 -0.15
25 0.57
27 0.28
3 -0.32
35 0.15
36 0.37
37 0.15
38 0.15
39 0.15
4 -0.57
42 0.15
43 0.06
5 -0.57
6 -0.14
7 -0.73
8 0.2

> <PUBCHEM_EFFECTIVE_ROTOR_COUNT>
6

> <PUBCHEM_PHARMACOPHORE_FEATURES>
9
1 1 acceptor
1 2 acceptor
1 26 hydrophobe
1 4 acceptor
1 5 acceptor
1 7 donor
5 6 8 13 16 18 rings
6 13 18 19 21 22 24 rings
9 1 8 9 10 11 12 14 15 17 rings

> <PUBCHEM_HEAVY_ATOM_COUNT>
27

> <PUBCHEM_ATOM_DEF_STEREO_COUNT>
4

> <PUBCHEM_ATOM_UDEF_STEREO_COUNT>
0

> <PUBCHEM_BOND_DEF_STEREO_COUNT>
0

> <PUBCHEM_BOND_UDEF_STEREO_COUNT>
0

> <PUBCHEM_ISOTOPIC_ATOM_COUNT>
0

> <PUBCHEM_COMPONENT_COUNT>
1

> <PUBCHEM_CACTVS_TAUTO_COUNT>
4

> <PUBCHEM_CONFORMER_ID>
0613A70800000001

> <PUBCHEM_MMFF94_ENERGY>
91.7867

> <PUBCHEM_FEATURE_SELFOVERLAP>
45.757

> <PUBCHEM_SHAPE_FINGERPRINT>
10366900 7 18113338587968793804
10721379 63 15941709540200851655
10863032 1 18270951345958277005
12156800 1 17321230821393144875
12236239 1 17989489636290620645
12293681 25 17530686493762678227
12403260 363 18335971001038355276
12553582 1 17059473249475230967
12592029 89 18335128800695235882
12596599 1 17774448157258091606
13009979 54 17772463491995086658
13140716 1 18192139607131606160
13224815 77 18335424534763032620
13583140 156 18199208281234499729
13911987 19 18042974366186270188
14223421 5 18115604646978917400
14289901 80 18341047419968657688
14787075 74 18058162998126365124
16752209 62 16200428031682407285
16945 1 18336274491727053884
17349148 13 17894624855625889740
17492 54 18191007079599817431
18222031 100 15769194177079666549
200 152 18411979182592366436
20681651 13 17988354871571058259
22182313 1 17458638799597740451
229495 10 18269851821461475552
23419403 2 17387986523439302397
23557571 272 16950580877492468801
23558518 356 17824825533706762076
23559900 14 18123449610681893414
3380486 145 17896334677863947971
46194498 28 17605815136010059303
5845 1 16736688469852831849
70251023 43 18118389666698064363
9709674 26 18041844991576583032

> <PUBCHEM_SHAPE_MULTIPOLES>
516.34
8.77
2.72
2.26
1.45
1.29
-1.84
1.9
2.44
1.83
0.11
-3.99
0.33
-1.85

> <PUBCHEM_SHAPE_SELFOVERLAP>
1125.646

> <PUBCHEM_SHAPE_VOLUME>
275.2

> <PUBCHEM_COORDINATE_TYPE>
2
5
10

$$$$
