5462428
  -OEChem-09222004163D

 52 56  0     1  0  0  0  0  0999 V2000
   -0.8933   -2.0698    1.2945 O   0  0  0  0  0  0  0  0  0  0  0  0
   -0.9662    2.0890   -0.4812 O   0  0  0  0  0  0  0  0  0  0  0  0
    1.7619    2.9265   -0.2968 O   0  0  0  0  0  0  0  0  0  0  0  0
    5.4817   -0.8365    0.0850 O   0  0  0  0  0  0  0  0  0  0  0  0
   -3.0171    0.1718   -1.5844 N   0  0  0  0  0  0  0  0  0  0  0  0
    1.2945    1.6208   -0.2573 N   0  0  0  0  0  0  0  0  0  0  0  0
   -3.3606   -0.7009    0.5946 C   0  0  2  0  0  0  0  0  0  0  0  0
   -2.8226   -1.8399   -0.2612 C   0  0  1  0  0  0  0  0  0  0  0  0
   -2.2631   -1.0964   -1.4878 C   0  0  2  0  0  0  0  0  0  0  0  0
   -0.1474   -0.2525   -0.1893 C   0  0  2  0  0  0  0  0  0  0  0  0
   -0.8362   -0.6479    1.1451 C   0  0  1  0  0  0  0  0  0  0  0  0
   -3.9927    0.1781   -0.4876 C   0  0  1  0  0  0  0  0  0  0  0  0
   -2.2342   -0.0716    1.4274 C   0  0  0  0  0  0  0  0  0  0  0  0
   -0.7445   -0.8705   -1.4726 C   0  0  0  0  0  0  0  0  0  0  0  0
   -1.8523   -2.7427    0.4867 C   0  0  0  0  0  0  0  0  0  0  0  0
    1.3475   -0.6212   -0.1100 C   0  0  0  0  0  0  0  0  0  0  0  0
   -4.4081    1.5799   -0.0656 C   0  0  0  0  0  0  0  0  0  0  0  0
   -0.0398    1.3085   -0.3273 C   0  0  0  0  0  0  0  0  0  0  0  0
    2.1332    0.5322   -0.1447 C   0  0  0  0  0  0  0  0  0  0  0  0
    1.9549   -1.8643   -0.0114 C   0  0  0  0  0  0  0  0  0  0  0  0
   -5.4133    1.5460    1.0719 C   0  0  0  0  0  0  0  0  0  0  0  0
    3.5138    0.5008   -0.0819 C   0  0  0  0  0  0  0  0  0  0  0  0
    3.3510   -1.9225    0.0544 C   0  0  0  0  0  0  0  0  0  0  0  0
    4.1236   -0.7496    0.0200 C   0  0  0  0  0  0  0  0  0  0  0  0
    1.8327    3.4401    1.0347 C   0  0  0  0  0  0  0  0  0  0  0  0
    6.1967    0.3925    0.0449 C   0  0  0  0  0  0  0  0  0  0  0  0
   -4.1390   -1.0739    1.2721 H   0  0  0  0  0  0  0  0  0  0  0  0
   -3.6650   -2.4577   -0.6056 H   0  0  0  0  0  0  0  0  0  0  0  0
   -2.4939   -1.6834   -2.3857 H   0  0  0  0  0  0  0  0  0  0  0  0
   -0.1976   -0.2927    1.9660 H   0  0  0  0  0  0  0  0  0  0  0  0
   -4.8922   -0.3319   -0.8624 H   0  0  0  0  0  0  0  0  0  0  0  0
   -2.2270    1.0185    1.3951 H   0  0  0  0  0  0  0  0  0  0  0  0
   -2.4641   -0.3158    2.4750 H   0  0  0  0  0  0  0  0  0  0  0  0
   -0.2822   -1.8479   -1.6669 H   0  0  0  0  0  0  0  0  0  0  0  0
   -0.4670   -0.2594   -2.3437 H   0  0  0  0  0  0  0  0  0  0  0  0
   -2.3846    0.9640   -1.4913 H   0  0  0  0  0  0  0  0  0  0  0  0
   -2.4172   -3.3943    1.1633 H   0  0  0  0  0  0  0  0  0  0  0  0
   -1.3204   -3.4064   -0.2033 H   0  0  0  0  0  0  0  0  0  0  0  0
   -4.8708    2.0872   -0.9221 H   0  0  0  0  0  0  0  0  0  0  0  0
   -3.5534    2.1996    0.2214 H   0  0  0  0  0  0  0  0  0  0  0  0
    1.3737   -2.7793    0.0125 H   0  0  0  0  0  0  0  0  0  0  0  0
   -4.9717    1.1466    1.9898 H   0  0  0  0  0  0  0  0  0  0  0  0
   -5.7660    2.5592    1.2901 H   0  0  0  0  0  0  0  0  0  0  0  0
   -6.2848    0.9362    0.8128 H   0  0  0  0  0  0  0  0  0  0  0  0
    4.0471    1.4420   -0.1191 H   0  0  0  0  0  0  0  0  0  0  0  0
    3.8400   -2.8907    0.1319 H   0  0  0  0  0  0  0  0  0  0  0  0
    2.5391    2.8636    1.6399 H   0  0  0  0  0  0  0  0  0  0  0  0
    0.8430    3.4376    1.5023 H   0  0  0  0  0  0  0  0  0  0  0  0
    2.1871    4.4730    0.9802 H   0  0  0  0  0  0  0  0  0  0  0  0
    5.9663    1.0250    0.9093 H   0  0  0  0  0  0  0  0  0  0  0  0
    6.0501    0.9168   -0.9058 H   0  0  0  0  0  0  0  0  0  0  0  0
    7.2623    0.1482    0.1087 H   0  0  0  0  0  0  0  0  0  0  0  0
  1 11  1  0  0  0  0
  1 15  1  0  0  0  0
  2 18  2  0  0  0  0
  3  6  1  0  0  0  0
  3 25  1  0  0  0  0
  4 24  1  0  0  0  0
  4 26  1  0  0  0  0
  5  9  1  0  0  0  0
  5 12  1  0  0  0  0
  5 36  1  0  0  0  0
  6 18  1  0  0  0  0
  6 19  1  0  0  0  0
  7  8  1  0  0  0  0
  7 12  1  0  0  0  0
  7 13  1  0  0  0  0
  7 27  1  0  0  0  0
  8  9  1  0  0  0  0
  8 15  1  0  0  0  0
  8 28  1  0  0  0  0
  9 14  1  0  0  0  0
  9 29  1  0  0  0  0
 10 11  1  0  0  0  0
 10 14  1  0  0  0  0
 10 16  1  0  0  0  0
 10 18  1  0  0  0  0
 11 13  1  0  0  0  0
 11 30  1  0  0  0  0
 12 17  1  0  0  0  0
 12 31  1  0  0  0  0
 13 32  1  0  0  0  0
 13 33  1  0  0  0  0
 14 34  1  0  0  0  0
 14 35  1  0  0  0  0
 15 37  1  0  0  0  0
 15 38  1  0  0  0  0
 16 19  2  0  0  0  0
 16 20  1  0  0  0  0
 17 21  1  0  0  0  0
 17 39  1  0  0  0  0
 17 40  1  0  0  0  0
 19 22  1  0  0  0  0
 20 23  2  0  0  0  0
 20 41  1  0  0  0  0
 21 42  1  0  0  0  0
 21 43  1  0  0  0  0
 21 44  1  0  0  0  0
 22 24  2  0  0  0  0
 22 45  1  0  0  0  0
 23 24  1  0  0  0  0
 23 46  1  0  0  0  0
 25 47  1  0  0  0  0
 25 48  1  0  0  0  0
 25 49  1  0  0  0  0
 26 50  1  0  0  0  0
 26 51  1  0  0  0  0
 26 52  1  0  0  0  0
M  END
> <PUBCHEM_COMPOUND_CID>
5462428

> <PUBCHEM_CONFORMER_RMSD>
0.8

> <PUBCHEM_CONFORMER_DIVERSEORDER>
1

> <PUBCHEM_MMFF94_PARTIAL_CHARGES>
24
1 -0.56
10 0.2
11 0.28
12 0.27
15 0.28
16 -0.14
18 0.57
19 0.12
2 -0.57
20 -0.15
22 -0.15
23 -0.15
24 0.08
25 0.28
26 0.28
3 -0.32
36 0.36
4 -0.36
41 0.15
45 0.15
46 0.15
5 -0.9
6 -0.14
9 0.27

> <PUBCHEM_EFFECTIVE_ROTOR_COUNT>
4.4

> <PUBCHEM_PHARMACOPHORE_FEATURES>
10
1 1 acceptor
1 2 acceptor
1 21 hydrophobe
1 4 acceptor
1 5 cation
1 5 donor
5 5 7 8 9 12 rings
5 6 10 16 18 19 rings
6 16 19 20 22 23 24 rings
9 1 7 8 9 10 11 13 14 15 rings

> <PUBCHEM_HEAVY_ATOM_COUNT>
26

> <PUBCHEM_ATOM_DEF_STEREO_COUNT>
6

> <PUBCHEM_ATOM_UDEF_STEREO_COUNT>
0

> <PUBCHEM_BOND_DEF_STEREO_COUNT>
0

> <PUBCHEM_BOND_UDEF_STEREO_COUNT>
0

> <PUBCHEM_ISOTOPIC_ATOM_COUNT>
0

> <PUBCHEM_COMPONENT_COUNT>
1

> <PUBCHEM_CACTVS_TAUTO_COUNT>
1

> <PUBCHEM_CONFORMER_ID>
0053599C00000001

> <PUBCHEM_MMFF94_ENERGY>
105.8165

> <PUBCHEM_FEATURE_SELFOVERLAP>
51.398

> <PUBCHEM_SHAPE_FINGERPRINT>
10863032 1 18339361980655077679
10906281 52 18339095812725480276
10948715 1 18268431235843678975
1100329 8 18411984658707583785
11315181 36 17418375805444979778
11578080 2 13697881383337944412
12011746 2 18411421674531060804
12035758 1 18259990361701118617
12236239 1 17917710188793396070
12553582 1 18409441471496308058
12633257 1 18334290967933261441
12788726 201 18192706753036227368
13140716 1 18337956821389216736
14178342 30 17975412734980689177
14223421 5 17977107086657116443
14294032 229 16844448229680935529
14466204 15 18266742376950836849
14790565 3 18120659032669618405
15209289 33 18113056043302665707
15238133 3 18336841809287935636
15295992 7 18335711571828042937
1601671 61 18342457024103482004
16945 1 18410578396125127191
17492 89 18122342642838586251
17980427 23 17346610659234153800
19591789 44 17976539403802637605
200 152 18060133249890886374
20600515 1 18260843582987750540
20642791 178 18116443711890448132
21029758 11 18411697669351314136
21033648 29 17749655330247112685
21267235 1 18337679701572998391
21279426 13 17972316209747319415
21421861 104 17823691967757809690
23402539 116 18410569574684541198
23559900 14 18340199786930129312
2748010 2 17974572704028739734
296302 2 18272651220915174119
335352 9 18409450267262185564
34934 24 18410573955445785570
350125 39 18264214771675358139
3680242 22 18114738236201076234
404807 14 15116231299358797911
5104073 3 18335135440514203216
59755656 215 18338804399696204494
7226269 152 18409445852131068832
84936 182 17842270651459890392
9709674 26 18118963839131660563
9981440 41 17549806129007127961

> <PUBCHEM_SHAPE_MULTIPOLES>
501.63
9.8
2.89
1.18
6.03
1.47
-0.06
1.43
0.81
0.23
0.54
-1.04
-0.13
-0.13

> <PUBCHEM_SHAPE_SELFOVERLAP>
1103.512

> <PUBCHEM_SHAPE_VOLUME>
268.7

> <PUBCHEM_COORDINATE_TYPE>
2
5
10

$$$$
