101413879
  -OEChem-09222006243D

 26 28  0     1  0  0  0  0  0999 V2000
    1.8102    1.4952    0.1466 O   0  0  0  0  0  0  0  0  0  0  0  0
   -2.2576    0.2378    1.3890 O   0  0  0  0  0  0  0  0  0  0  0  0
   -0.3694   -2.3937   -0.4655 O   0  0  0  0  0  0  0  0  0  0  0  0
    3.3649   -0.1061   -0.4556 O   0  0  0  0  0  0  0  0  0  0  0  0
   -1.2785   -0.2254    0.4646 C   0  0  2  0  0  0  0  0  0  0  0  0
    0.1120    0.0889    0.9968 C   0  0  2  0  0  0  0  0  0  0  0  0
   -1.3448    0.5998   -0.8437 C   0  0  2  0  0  0  0  0  0  0  0  0
    0.4383    1.5095    0.5927 C   0  0  2  0  0  0  0  0  0  0  0  0
   -0.5580    1.8878   -0.5132 C   0  0  0  0  0  0  0  0  0  0  0  0
    1.1233   -0.6599    0.2266 C   0  0  0  0  0  0  0  0  0  0  0  0
   -1.4147   -1.7511    0.2886 C   0  0  0  0  0  0  0  0  0  0  0  0
   -2.7539    0.8957   -1.3423 C   0  0  0  0  0  0  0  0  0  0  0  0
    2.2601    0.2186   -0.0641 C   0  0  0  0  0  0  0  0  0  0  0  0
    0.8680   -1.7973   -0.4203 C   0  0  0  0  0  0  0  0  0  0  0  0
    0.2265   -0.0667    2.0748 H   0  0  0  0  0  0  0  0  0  0  0  0
   -0.8123    0.0795   -1.6501 H   0  0  0  0  0  0  0  0  0  0  0  0
    0.3617    2.2070    1.4338 H   0  0  0  0  0  0  0  0  0  0  0  0
   -0.0647    2.2924   -1.4030 H   0  0  0  0  0  0  0  0  0  0  0  0
   -1.2420    2.6541   -0.1284 H   0  0  0  0  0  0  0  0  0  0  0  0
   -1.4548   -2.2397    1.2710 H   0  0  0  0  0  0  0  0  0  0  0  0
   -2.3668   -1.9887   -0.1994 H   0  0  0  0  0  0  0  0  0  0  0  0
   -3.3326    1.4757   -0.6162 H   0  0  0  0  0  0  0  0  0  0  0  0
   -3.2963   -0.0328   -1.5459 H   0  0  0  0  0  0  0  0  0  0  0  0
   -2.7154    1.4738   -2.2717 H   0  0  0  0  0  0  0  0  0  0  0  0
   -2.1289   -0.2371    2.2276 H   0  0  0  0  0  0  0  0  0  0  0  0
    1.5585   -2.2973   -1.0843 H   0  0  0  0  0  0  0  0  0  0  0  0
  1  8  1  0  0  0  0
  1 13  1  0  0  0  0
  2  5  1  0  0  0  0
  2 25  1  0  0  0  0
  3 11  1  0  0  0  0
  3 14  1  0  0  0  0
  4 13  2  0  0  0  0
  5  6  1  0  0  0  0
  5  7  1  0  0  0  0
  5 11  1  0  0  0  0
  6  8  1  0  0  0  0
  6 10  1  0  0  0  0
  6 15  1  0  0  0  0
  7  9  1  0  0  0  0
  7 12  1  0  0  0  0
  7 16  1  0  0  0  0
  8  9  1  0  0  0  0
  8 17  1  0  0  0  0
  9 18  1  0  0  0  0
  9 19  1  0  0  0  0
 10 13  1  0  0  0  0
 10 14  2  0  0  0  0
 11 20  1  0  0  0  0
 11 21  1  0  0  0  0
 12 22  1  0  0  0  0
 12 23  1  0  0  0  0
 12 24  1  0  0  0  0
 14 26  1  0  0  0  0
M  END
> <PUBCHEM_COMPOUND_CID>
101413879

> <PUBCHEM_CONFORMER_RMSD>
0.4

> <PUBCHEM_CONFORMER_DIVERSEORDER>
1
2

> <PUBCHEM_MMFF94_PARTIAL_CHARGES>
13
1 -0.43
10 -0.12
11 0.28
13 0.71
14 -0.07
2 -0.68
25 0.4
26 0.15
3 -0.36
4 -0.57
5 0.28
6 0.14
8 0.28

> <PUBCHEM_EFFECTIVE_ROTOR_COUNT>
1

> <PUBCHEM_PHARMACOPHORE_FEATURES>
7
1 2 acceptor
1 2 donor
1 3 acceptor
1 4 acceptor
5 1 6 8 10 13 rings
5 5 6 7 8 9 rings
6 3 5 6 10 11 14 rings

> <PUBCHEM_HEAVY_ATOM_COUNT>
14

> <PUBCHEM_ATOM_DEF_STEREO_COUNT>
4

> <PUBCHEM_ATOM_UDEF_STEREO_COUNT>
0

> <PUBCHEM_BOND_DEF_STEREO_COUNT>
0

> <PUBCHEM_BOND_UDEF_STEREO_COUNT>
0

> <PUBCHEM_ISOTOPIC_ATOM_COUNT>
0

> <PUBCHEM_COMPONENT_COUNT>
1

> <PUBCHEM_CACTVS_TAUTO_COUNT>
1

> <PUBCHEM_CONFORMER_ID>
060B73F700000001

> <PUBCHEM_MMFF94_ENERGY>
49.4158

> <PUBCHEM_FEATURE_SELFOVERLAP>
36.426

> <PUBCHEM_SHAPE_FINGERPRINT>
11206711 2 18265892638824114126
12138202 97 17967525740595794591
12423570 1 18115606957201778561
13024252 1 16226052227334440728
13299463 15 18271227353414856397
144361 1 18189322619143206461
14614273 12 17618493728579972884
15001771 113 17548707729759608307
16945 1 18410572860044216464
17844478 74 17895492400185413729
18534176 82 17676775283682372293
2334 1 18123187076473989232
23559900 14 18343304778403505628
241688 4 15888265350074163690
25 1 18192704553849460797
2748010 2 18267582596959785924
369184 2 15936413338138266320
5084963 1 18191870234708071586
528886 8 18341331110852866665

> <PUBCHEM_SHAPE_MULTIPOLES>
264.64
3.3
2.11
1.08
0.88
0.66
-0.09
-0.63
0.78
-0.14
0.26
-0.58
-0.11
0.42

> <PUBCHEM_SHAPE_SELFOVERLAP>
585.409

> <PUBCHEM_SHAPE_VOLUME>
144.1

> <PUBCHEM_COORDINATE_TYPE>
2
5
10

$$$$
