101397829
  -OEChem-09222004563D

 73 78  0     1  0  0  0  0  0999 V2000
   -3.7343   -1.1851   -1.8391 O   0  0  0  0  0  0  0  0  0  0  0  0
   -6.1598    0.2207    1.5613 O   0  0  0  0  0  0  0  0  0  0  0  0
    3.1818    2.3922    1.2664 O   0  0  0  0  0  0  0  0  0  0  0  0
   -3.8478    0.0604    3.0379 O   0  0  0  0  0  0  0  0  0  0  0  0
   -1.5052   -1.5783   -1.4581 O   0  0  0  0  0  0  0  0  0  0  0  0
    1.5312   -0.4957   -1.6977 O   0  0  0  0  0  0  0  0  0  0  0  0
    3.5871   -2.4567   -2.2047 O   0  0  0  0  0  0  0  0  0  0  0  0
   -1.0522    3.8496   -0.6268 O   0  0  0  0  0  0  0  0  0  0  0  0
   -0.4941    0.1592    0.5463 N   0  0  0  0  0  0  0  0  0  0  0  0
    3.5032   -1.5867   -1.1277 N   0  0  0  0  0  0  0  0  0  0  0  0
   -4.2743    0.1259    0.0936 C   0  0  2  0  0  0  0  0  0  0  0  0
   -5.1085   -0.6622    1.1418 C   0  0  2  0  0  0  0  0  0  0  0  0
   -5.7014   -1.8505    0.3549 C   0  0  2  0  0  0  0  0  0  0  0  0
   -4.7704   -0.3617   -1.2725 C   0  0  2  0  0  0  0  0  0  0  0  0
   -5.9985   -1.2261   -1.0115 C   0  0  0  0  0  0  0  0  0  0  0  0
    2.8485    0.1585    0.3199 C   0  0  1  0  0  0  0  0  0  0  0  0
    0.5077    0.7362    1.4226 C   0  0  1  0  0  0  0  0  0  0  0  0
    1.7902   -0.1231    1.4168 C   0  0  0  0  0  0  0  0  0  0  0  0
    0.6901    2.2456    1.1315 C   0  0  1  0  0  0  0  0  0  0  0  0
   -2.8200   -0.1575   -0.0229 C   0  0  0  0  0  0  0  0  0  0  0  0
    3.0995    1.6641    0.0227 C   0  0  1  0  0  0  0  0  0  0  0  0
   -4.3496   -1.0958    2.3937 C   0  0  0  0  0  0  0  0  0  0  0  0
   -6.9379   -2.5022    0.9602 C   0  0  0  0  0  0  0  0  0  0  0  0
    1.9335    2.8026    1.8465 C   0  0  0  0  0  0  0  0  0  0  0  0
    4.1735   -0.5056    0.7263 C   0  0  0  0  0  0  0  0  0  0  0  0
    0.8709    2.5443   -0.3286 C   0  0  0  0  0  0  0  0  0  0  0  0
   -2.5619   -1.0498   -1.1636 C   0  0  0  0  0  0  0  0  0  0  0  0
    2.0625    2.2864   -0.8741 C   0  0  0  0  0  0  0  0  0  0  0  0
   -1.8240    0.3521    0.7062 C   0  0  0  0  0  0  0  0  0  0  0  0
    2.5049   -0.6568   -0.9780 C   0  0  0  0  0  0  0  0  0  0  0  0
    4.5030   -1.5160   -0.1792 C   0  0  0  0  0  0  0  0  0  0  0  0
    5.0157   -0.2311    1.7927 C   0  0  0  0  0  0  0  0  0  0  0  0
   -0.1978    3.1167   -1.1391 C   0  0  0  0  0  0  0  0  0  0  0  0
    5.6529   -2.2742   -0.0675 C   0  0  0  0  0  0  0  0  0  0  0  0
    6.1852   -0.9858    1.9281 C   0  0  0  0  0  0  0  0  0  0  0  0
   -0.2019    2.7694   -2.6221 C   0  0  0  0  0  0  0  0  0  0  0  0
    6.5011   -1.9980    1.0053 C   0  0  0  0  0  0  0  0  0  0  0  0
   -1.5989    2.7219   -3.2163 C   0  0  0  0  0  0  0  0  0  0  0  0
    2.9961   -3.7068   -1.8452 C   0  0  0  0  0  0  0  0  0  0  0  0
   -4.4537    1.2047    0.1838 H   0  0  0  0  0  0  0  0  0  0  0  0
   -4.9312   -2.6240    0.2294 H   0  0  0  0  0  0  0  0  0  0  0  0
   -4.9837    0.4512   -1.9747 H   0  0  0  0  0  0  0  0  0  0  0  0
   -6.1418   -1.9950   -1.7775 H   0  0  0  0  0  0  0  0  0  0  0  0
   -6.8980   -0.6008   -0.9655 H   0  0  0  0  0  0  0  0  0  0  0  0
    0.1248    0.6565    2.4513 H   0  0  0  0  0  0  0  0  0  0  0  0
    1.5116   -1.1869    1.3991 H   0  0  0  0  0  0  0  0  0  0  0  0
    2.2617    0.0250    2.3992 H   0  0  0  0  0  0  0  0  0  0  0  0
   -0.1865    2.7803    1.5186 H   0  0  0  0  0  0  0  0  0  0  0  0
    4.0728    1.7931   -0.4678 H   0  0  0  0  0  0  0  0  0  0  0  0
   -3.5226   -1.7751    2.1648 H   0  0  0  0  0  0  0  0  0  0  0  0
   -5.0231   -1.5929    3.0995 H   0  0  0  0  0  0  0  0  0  0  0  0
   -7.7606   -1.7891    1.0754 H   0  0  0  0  0  0  0  0  0  0  0  0
   -6.7143   -2.9244    1.9446 H   0  0  0  0  0  0  0  0  0  0  0  0
   -7.2924   -3.3166    0.3194 H   0  0  0  0  0  0  0  0  0  0  0  0
    1.9206    3.8994    1.8208 H   0  0  0  0  0  0  0  0  0  0  0  0
    1.9430    2.5159    2.9039 H   0  0  0  0  0  0  0  0  0  0  0  0
   -0.1883   -0.4119   -0.2340 H   0  0  0  0  0  0  0  0  0  0  0  0
    2.3145    2.4732   -1.9109 H   0  0  0  0  0  0  0  0  0  0  0  0
   -2.0553    1.0393    1.5131 H   0  0  0  0  0  0  0  0  0  0  0  0
   -5.7536    0.9499    2.0607 H   0  0  0  0  0  0  0  0  0  0  0  0
    4.7842    0.5471    2.5115 H   0  0  0  0  0  0  0  0  0  0  0  0
   -3.3680   -0.2372    3.8295 H   0  0  0  0  0  0  0  0  0  0  0  0
    5.9002   -3.0546   -0.7778 H   0  0  0  0  0  0  0  0  0  0  0  0
    6.8600   -0.7876    2.7567 H   0  0  0  0  0  0  0  0  0  0  0  0
    0.4009    3.5156   -3.1508 H   0  0  0  0  0  0  0  0  0  0  0  0
    0.2468    1.7826   -2.7772 H   0  0  0  0  0  0  0  0  0  0  0  0
    7.4163   -2.5705    1.1308 H   0  0  0  0  0  0  0  0  0  0  0  0
   -2.2244    1.9966   -2.6856 H   0  0  0  0  0  0  0  0  0  0  0  0
   -2.0888    3.6986   -3.1466 H   0  0  0  0  0  0  0  0  0  0  0  0
   -1.5570    2.4352   -4.2715 H   0  0  0  0  0  0  0  0  0  0  0  0
    3.0441   -4.3663   -2.7161 H   0  0  0  0  0  0  0  0  0  0  0  0
    3.5418   -4.1794   -1.0231 H   0  0  0  0  0  0  0  0  0  0  0  0
    1.9449   -3.5696   -1.5718 H   0  0  0  0  0  0  0  0  0  0  0  0
  1 14  1  0  0  0  0
  1 27  1  0  0  0  0
  2 12  1  0  0  0  0
  2 60  1  0  0  0  0
  3 21  1  0  0  0  0
  3 24  1  0  0  0  0
  4 22  1  0  0  0  0
  4 62  1  0  0  0  0
  5 27  2  0  0  0  0
  6 30  2  0  0  0  0
  7 10  1  0  0  0  0
  7 39  1  0  0  0  0
  8 33  2  0  0  0  0
  9 17  1  0  0  0  0
  9 29  1  0  0  0  0
  9 57  1  0  0  0  0
 10 30  1  0  0  0  0
 10 31  1  0  0  0  0
 11 12  1  0  0  0  0
 11 14  1  0  0  0  0
 11 20  1  0  0  0  0
 11 40  1  0  0  0  0
 12 13  1  0  0  0  0
 12 22  1  0  0  0  0
 13 15  1  0  0  0  0
 13 23  1  0  0  0  0
 13 41  1  0  0  0  0
 14 15  1  0  0  0  0
 14 42  1  0  0  0  0
 15 43  1  0  0  0  0
 15 44  1  0  0  0  0
 16 18  1  0  0  0  0
 16 21  1  0  0  0  0
 16 25  1  0  0  0  0
 16 30  1  0  0  0  0
 17 18  1  0  0  0  0
 17 19  1  0  0  0  0
 17 45  1  0  0  0  0
 18 46  1  0  0  0  0
 18 47  1  0  0  0  0
 19 24  1  0  0  0  0
 19 26  1  0  0  0  0
 19 48  1  0  0  0  0
 20 27  1  0  0  0  0
 20 29  2  0  0  0  0
 21 28  1  0  0  0  0
 21 49  1  0  0  0  0
 22 50  1  0  0  0  0
 22 51  1  0  0  0  0
 23 52  1  0  0  0  0
 23 53  1  0  0  0  0
 23 54  1  0  0  0  0
 24 55  1  0  0  0  0
 24 56  1  0  0  0  0
 25 31  1  0  0  0  0
 25 32  2  0  0  0  0
 26 28  2  0  0  0  0
 26 33  1  0  0  0  0
 28 58  1  0  0  0  0
 29 59  1  0  0  0  0
 31 34  2  0  0  0  0
 32 35  1  0  0  0  0
 32 61  1  0  0  0  0
 33 36  1  0  0  0  0
 34 37  1  0  0  0  0
 34 63  1  0  0  0  0
 35 37  2  0  0  0  0
 35 64  1  0  0  0  0
 36 38  1  0  0  0  0
 36 65  1  0  0  0  0
 36 66  1  0  0  0  0
 37 67  1  0  0  0  0
 38 68  1  0  0  0  0
 38 69  1  0  0  0  0
 38 70  1  0  0  0  0
 39 71  1  0  0  0  0
 39 72  1  0  0  0  0
 39 73  1  0  0  0  0
M  END
> <PUBCHEM_COMPOUND_CID>
101397829

> <PUBCHEM_CONFORMER_RMSD>
1

> <PUBCHEM_CONFORMER_DIVERSEORDER>
1
18
24
21
8
11
25
20
26
23
5
19
22
12
16
7
6
9
28
13
2
17
4
10
27
15
14
3

> <PUBCHEM_MMFF94_PARTIAL_CHARGES>
43
1 -0.43
10 -0.14
11 0.14
12 0.28
14 0.28
16 0.2
17 0.37
19 0.14
2 -0.68
20 -0.12
21 0.42
22 0.28
24 0.28
25 -0.14
26 -0.12
27 0.71
28 -0.29
29 -0.05
3 -0.56
30 0.57
31 0.12
32 -0.15
33 0.49
34 -0.15
35 -0.15
36 0.06
37 -0.15
39 0.28
4 -0.68
5 -0.57
57 0.4
58 0.15
59 0.15
6 -0.57
60 0.4
61 0.15
62 0.4
63 0.15
64 0.15
67 0.15
7 -0.32
8 -0.57
9 -0.87

> <PUBCHEM_EFFECTIVE_ROTOR_COUNT>
7.8

> <PUBCHEM_PHARMACOPHORE_FEATURES>
16
1 2 acceptor
1 2 donor
1 3 acceptor
1 38 hydrophobe
1 4 acceptor
1 4 donor
1 5 acceptor
1 6 acceptor
1 8 acceptor
1 9 cation
1 9 donor
5 1 11 14 20 27 rings
5 10 16 25 30 31 rings
5 11 12 13 14 15 rings
6 25 31 32 34 35 37 rings
9 3 16 17 18 19 21 24 26 28 rings

> <PUBCHEM_HEAVY_ATOM_COUNT>
39

> <PUBCHEM_ATOM_DEF_STEREO_COUNT>
8

> <PUBCHEM_ATOM_UDEF_STEREO_COUNT>
0

> <PUBCHEM_BOND_DEF_STEREO_COUNT>
1

> <PUBCHEM_BOND_UDEF_STEREO_COUNT>
0

> <PUBCHEM_ISOTOPIC_ATOM_COUNT>
0

> <PUBCHEM_COMPONENT_COUNT>
1

> <PUBCHEM_CACTVS_TAUTO_COUNT>
6

> <PUBCHEM_CONFORMER_ID>
060B354500000001

> <PUBCHEM_MMFF94_ENERGY>
135.7649

> <PUBCHEM_FEATURE_SELFOVERLAP>
81.835

> <PUBCHEM_SHAPE_FINGERPRINT>
10258939 38 18187068565110482024
11828532 37 17386293228562168363
12166972 35 16950282909915058086
12422481 6 18131632253192949700
12633257 1 17704075118070972069
13692114 37 17197159365789702985
13782708 43 17604154839145723851
14068700 675 17313377907874118436
14931854 50 12035728674677177290
15250474 111 17417519350079648983
1813 80 18410865342863890124
19315092 285 15979988190849126165
20511986 3 16558737993111888979
20642791 268 17274824653616922928
23559900 14 15647043872520080627
42767 28 12757151294596115615
46194498 28 18260822726774546660
469060 322 17969795076834971164
5081480 168 17823155534858542453
6823239 73 17022899111963853385

> <PUBCHEM_SHAPE_MULTIPOLES>
745.69
14.99
3.85
2.63
8.43
2.38
0.39
-15.12
-5.17
-1.78
1.95
0.63
0.26
2.07

> <PUBCHEM_SHAPE_SELFOVERLAP>
1639.692

> <PUBCHEM_SHAPE_VOLUME>
397.8

> <PUBCHEM_COORDINATE_TYPE>
2
5
10

$$$$
