136704418
  -OEChem-09222004523D

 66 71  0     1  0  0  0  0  0999 V2000
   -3.7245   -2.2675   -1.0479 O   0  0  0  0  0  0  0  0  0  0  0  0
   -0.6968    0.9065   -0.0391 O   0  0  0  0  0  0  0  0  0  0  0  0
   -2.1610    3.3891   -0.0998 O   0  0  0  0  0  0  0  0  0  0  0  0
    6.4873    0.5284    2.0759 O   0  0  0  0  0  0  0  0  0  0  0  0
    5.3893    1.1425   -2.5449 O   0  0  0  0  0  0  0  0  0  0  0  0
    7.2257    1.3046   -0.4784 O   0  0  0  0  0  0  0  0  0  0  0  0
   -0.4002   -1.6513    1.5031 N   0  0  0  0  0  0  0  0  0  0  0  0
   -2.6809    2.1045   -0.0303 N   0  0  0  0  0  0  0  0  0  0  0  0
   -1.8743   -3.1713    0.3639 C   0  0  1  0  0  0  0  0  0  0  0  0
   -2.9142   -0.2456    0.0714 C   0  0  2  0  0  0  0  0  0  0  0  0
   -0.8487   -2.6420   -0.6196 C   0  0  1  0  0  0  0  0  0  0  0  0
   -1.7971   -2.1433    1.4990 C   0  0  2  0  0  0  0  0  0  0  0  0
   -2.8384   -1.1499   -1.1879 C   0  0  1  0  0  0  0  0  0  0  0  0
   -2.7749   -0.9675    1.4305 C   0  0  0  0  0  0  0  0  0  0  0  0
   -1.4556   -1.6634   -1.6171 C   0  0  0  0  0  0  0  0  0  0  0  0
   -3.2495   -3.3567   -0.2618 C   0  0  0  0  0  0  0  0  0  0  0  0
    0.0868   -1.9623    0.3427 C   0  0  0  0  0  0  0  0  0  0  0  0
   -4.2598    0.5097    0.0634 C   0  0  0  0  0  0  0  0  0  0  0  0
   -1.9160    0.9655   -0.0157 C   0  0  0  0  0  0  0  0  0  0  0  0
   -4.0417    1.8861   -0.0126 C   0  0  0  0  0  0  0  0  0  0  0  0
    1.4675   -1.6692   -0.0628 C   0  0  0  0  0  0  0  0  0  0  0  0
   -5.5567    0.0202    0.1107 C   0  0  0  0  0  0  0  0  0  0  0  0
   -5.0714    2.8076   -0.0499 C   0  0  0  0  0  0  0  0  0  0  0  0
    2.0917   -2.6246   -1.0301 C   0  0  0  0  0  0  0  0  0  0  0  0
   -6.6165    0.9325    0.0755 C   0  0  0  0  0  0  0  0  0  0  0  0
    2.0244   -0.5865    0.5068 C   0  0  0  0  0  0  0  0  0  0  0  0
   -6.3755    2.3143   -0.0057 C   0  0  0  0  0  0  0  0  0  0  0  0
    3.3832   -0.0935    0.2492 C   0  0  0  0  0  0  0  0  0  0  0  0
   -1.9791    3.8939    1.2244 C   0  0  0  0  0  0  0  0  0  0  0  0
    3.7515    0.2963   -1.0384 C   0  0  0  0  0  0  0  0  0  0  0  0
    4.3054   -0.0137    1.2925 C   0  0  0  0  0  0  0  0  0  0  0  0
    5.5962    0.4555    1.0483 C   0  0  0  0  0  0  0  0  0  0  0  0
    5.0421    0.7656   -1.2829 C   0  0  0  0  0  0  0  0  0  0  0  0
    5.9644    0.8454   -0.2394 C   0  0  0  0  0  0  0  0  0  0  0  0
    6.0302    0.1104    3.3608 C   0  0  0  0  0  0  0  0  0  0  0  0
    4.3870    1.0296   -3.5536 C   0  0  0  0  0  0  0  0  0  0  0  0
   -1.5289   -4.1361    0.7612 H   0  0  0  0  0  0  0  0  0  0  0  0
   -0.3609   -3.4686   -1.1435 H   0  0  0  0  0  0  0  0  0  0  0  0
   -1.9670   -2.6622    2.4511 H   0  0  0  0  0  0  0  0  0  0  0  0
   -3.2223   -0.5745   -2.0417 H   0  0  0  0  0  0  0  0  0  0  0  0
   -3.7532   -1.3640    1.7348 H   0  0  0  0  0  0  0  0  0  0  0  0
   -2.5060   -0.2394    2.2088 H   0  0  0  0  0  0  0  0  0  0  0  0
   -0.7764   -0.8380   -1.8518 H   0  0  0  0  0  0  0  0  0  0  0  0
   -1.5944   -2.2135   -2.5584 H   0  0  0  0  0  0  0  0  0  0  0  0
   -3.2281   -4.2296   -0.9244 H   0  0  0  0  0  0  0  0  0  0  0  0
   -3.9994   -3.5696    0.5077 H   0  0  0  0  0  0  0  0  0  0  0  0
   -5.7599   -1.0429    0.1761 H   0  0  0  0  0  0  0  0  0  0  0  0
   -4.8879    3.8741   -0.1110 H   0  0  0  0  0  0  0  0  0  0  0  0
    1.6790   -2.4852   -2.0344 H   0  0  0  0  0  0  0  0  0  0  0  0
    1.9220   -3.6604   -0.7169 H   0  0  0  0  0  0  0  0  0  0  0  0
    3.1766   -2.5008   -1.0972 H   0  0  0  0  0  0  0  0  0  0  0  0
   -7.6401    0.5689    0.1113 H   0  0  0  0  0  0  0  0  0  0  0  0
    1.4834    0.0150    1.2340 H   0  0  0  0  0  0  0  0  0  0  0  0
   -7.2147    3.0041   -0.0324 H   0  0  0  0  0  0  0  0  0  0  0  0
   -1.5465    4.8952    1.1478 H   0  0  0  0  0  0  0  0  0  0  0  0
   -1.2860    3.2593    1.7860 H   0  0  0  0  0  0  0  0  0  0  0  0
   -2.9348    3.9696    1.7517 H   0  0  0  0  0  0  0  0  0  0  0  0
    2.9935    0.2238   -1.8118 H   0  0  0  0  0  0  0  0  0  0  0  0
    3.9635   -0.3309    2.2727 H   0  0  0  0  0  0  0  0  0  0  0  0
    7.7214    1.2895    0.3588 H   0  0  0  0  0  0  0  0  0  0  0  0
    5.2166    0.7460    3.7267 H   0  0  0  0  0  0  0  0  0  0  0  0
    5.7671   -0.9528    3.3699 H   0  0  0  0  0  0  0  0  0  0  0  0
    6.8670    0.2355    4.0560 H   0  0  0  0  0  0  0  0  0  0  0  0
    4.0824   -0.0115   -3.7062 H   0  0  0  0  0  0  0  0  0  0  0  0
    3.5361    1.6897   -3.3533 H   0  0  0  0  0  0  0  0  0  0  0  0
    4.8365    1.3688   -4.4928 H   0  0  0  0  0  0  0  0  0  0  0  0
  1 13  1  0  0  0  0
  1 16  1  0  0  0  0
  2 19  2  0  0  0  0
  3  8  1  0  0  0  0
  3 29  1  0  0  0  0
  4 32  1  0  0  0  0
  4 35  1  0  0  0  0
  5 33  1  0  0  0  0
  5 36  1  0  0  0  0
  6 34  1  0  0  0  0
  6 60  1  0  0  0  0
  7 12  1  0  0  0  0
  7 17  2  0  0  0  0
  8 19  1  0  0  0  0
  8 20  1  0  0  0  0
  9 11  1  0  0  0  0
  9 12  1  0  0  0  0
  9 16  1  0  0  0  0
  9 37  1  0  0  0  0
 10 13  1  0  0  0  0
 10 14  1  0  0  0  0
 10 18  1  0  0  0  0
 10 19  1  0  0  0  0
 11 15  1  0  0  0  0
 11 17  1  0  0  0  0
 11 38  1  0  0  0  0
 12 14  1  0  0  0  0
 12 39  1  0  0  0  0
 13 15  1  0  0  0  0
 13 40  1  0  0  0  0
 14 41  1  0  0  0  0
 14 42  1  0  0  0  0
 15 43  1  0  0  0  0
 15 44  1  0  0  0  0
 16 45  1  0  0  0  0
 16 46  1  0  0  0  0
 17 21  1  0  0  0  0
 18 20  1  0  0  0  0
 18 22  2  0  0  0  0
 20 23  2  0  0  0  0
 21 24  1  0  0  0  0
 21 26  2  0  0  0  0
 22 25  1  0  0  0  0
 22 47  1  0  0  0  0
 23 27  1  0  0  0  0
 23 48  1  0  0  0  0
 24 49  1  0  0  0  0
 24 50  1  0  0  0  0
 24 51  1  0  0  0  0
 25 27  2  0  0  0  0
 25 52  1  0  0  0  0
 26 28  1  0  0  0  0
 26 53  1  0  0  0  0
 27 54  1  0  0  0  0
 28 30  2  0  0  0  0
 28 31  1  0  0  0  0
 29 55  1  0  0  0  0
 29 56  1  0  0  0  0
 29 57  1  0  0  0  0
 30 33  1  0  0  0  0
 30 58  1  0  0  0  0
 31 32  2  0  0  0  0
 31 59  1  0  0  0  0
 32 34  1  0  0  0  0
 33 34  2  0  0  0  0
 35 61  1  0  0  0  0
 35 62  1  0  0  0  0
 35 63  1  0  0  0  0
 36 64  1  0  0  0  0
 36 65  1  0  0  0  0
 36 66  1  0  0  0  0
M  END
> <PUBCHEM_COMPOUND_CID>
136704418

> <PUBCHEM_CONFORMER_RMSD>
1

> <PUBCHEM_CONFORMER_DIVERSEORDER>
1
3
4
5
6
2

> <PUBCHEM_MMFF94_PARTIAL_CHARGES>
41
1 -0.56
10 0.2
11 0.06
12 0.25
13 0.28
16 0.28
17 0.37
18 -0.14
19 0.57
2 -0.57
20 0.12
21 -0.12
22 -0.15
23 -0.15
24 0.14
25 -0.15
26 -0.18
27 -0.15
28 0.03
29 0.28
3 -0.32
30 -0.15
31 -0.15
32 0.08
33 0.08
34 0.08
35 0.28
36 0.28
4 -0.36
47 0.15
48 0.15
5 -0.36
52 0.15
53 0.15
54 0.15
58 0.15
59 0.15
6 -0.53
60 0.45
7 -0.7
8 -0.14

> <PUBCHEM_EFFECTIVE_ROTOR_COUNT>
6

> <PUBCHEM_PHARMACOPHORE_FEATURES>
12
1 1 acceptor
1 2 acceptor
1 24 hydrophobe
1 4 acceptor
1 5 acceptor
1 6 donor
1 7 acceptor
5 7 9 11 12 17 rings
5 8 10 18 19 20 rings
6 18 20 22 23 25 27 rings
6 28 30 31 32 33 34 rings
9 1 9 10 11 12 13 14 15 16 rings

> <PUBCHEM_HEAVY_ATOM_COUNT>
36

> <PUBCHEM_ATOM_DEF_STEREO_COUNT>
5

> <PUBCHEM_ATOM_UDEF_STEREO_COUNT>
0

> <PUBCHEM_BOND_DEF_STEREO_COUNT>
1

> <PUBCHEM_BOND_UDEF_STEREO_COUNT>
0

> <PUBCHEM_ISOTOPIC_ATOM_COUNT>
0

> <PUBCHEM_COMPONENT_COUNT>
1

> <PUBCHEM_CACTVS_TAUTO_COUNT>
-1

> <PUBCHEM_CONFORMER_ID>
0825F1A200000001

> <PUBCHEM_MMFF94_ENERGY>
153.3486

> <PUBCHEM_FEATURE_SELFOVERLAP>
61.642

> <PUBCHEM_SHAPE_FINGERPRINT>
10411042 1 17906452487481125359
10906281 52 18264225625474446585
12107183 9 18117546341828232642
12788726 201 18189343535592344363
13617811 41 18409446956281139981
14294032 229 18341341084316132203
14400156 188 16453792095523445635
14790565 3 18268713806037537497
14840074 17 17386301946717687845
14950920 106 16298390153861768728
15001296 14 18188495808112138268
15131766 46 16372152098323059852
1577012 14 18113894988213068154
15968369 153 18199468942852284809
17980427 23 18113617932320096262
19053607 189 18337955571844520484
19319366 153 17968371252005141963
20511986 3 17822001017547910324
21033648 29 17845073221527193298
21033650 10 18266481913507545318
22122407 14 17677910083020265884
23569914 152 16482210716855770204
249057 25 17968365870759512854
2838139 119 18342166756954267363
3383291 50 18342457071596107195
3552219 110 17533224292003332571
3610482 184 18114194072212762638
3918712 181 18411979148528819672
4015057 19 15123514757035242058
4098825 35 15195296278626727921
44249763 50 17631716279669815242
44802255 64 17916314994959464630
469060 322 18196949965691902939
508706 21 18200021971235768362
5104073 3 17313661676600729258
5171179 24 17842551027225426361
57527585 21 17698702741803892853
6700243 42 17767719361045493190
7288768 16 18040439871583035179
7808743 9 18410851049571503291
9981440 41 18408319982110111035

> <PUBCHEM_SHAPE_MULTIPOLES>
695.69
16.49
3.81
2.13
15.4
0.08
-0.32
11.35
1.19
-5.51
0.03
5.26
0.32
-0.94

> <PUBCHEM_SHAPE_SELFOVERLAP>
1547.652

> <PUBCHEM_SHAPE_VOLUME>
369.5

> <PUBCHEM_COORDINATE_TYPE>
2
5
10

$$$$
