53260761
  -OEChem-09222006273D

 36 38  0     1  0  0  0  0  0999 V2000
   -1.5329   -1.9081   -0.2179 O   0  0  0  0  0  0  0  0  0  0  0  0
    1.1835    0.4483    1.3072 O   0  0  0  0  0  0  0  0  0  0  0  0
   -0.8069    2.3316   -1.0930 O   0  0  0  0  0  0  0  0  0  0  0  0
   -3.8017   -0.4882    0.0978 O   0  0  0  0  0  0  0  0  0  0  0  0
    2.7710    0.0318   -0.4116 O   0  0  0  0  0  0  0  0  0  0  0  0
    0.1481   -2.9467    0.9189 O   0  0  0  0  0  0  0  0  0  0  0  0
   -0.3494   -0.0280   -1.0702 C   0  0  2  0  0  0  0  0  0  0  0  0
   -0.5660    1.2351   -0.2007 C   0  0  2  0  0  0  0  0  0  0  0  0
   -1.6898   -0.7680   -1.0750 C   0  0  2  0  0  0  0  0  0  0  0  0
   -1.8577    0.9334    0.5952 C   0  0  2  0  0  0  0  0  0  0  0  0
    0.6334   -1.0579   -0.5346 C   0  0  1  0  0  0  0  0  0  0  0  0
   -2.6972    0.1985   -0.4580 C   0  0  2  0  0  0  0  0  0  0  0  0
    0.6389    1.5896    0.6606 C   0  0  0  0  0  0  0  0  0  0  0  0
    1.7153   -0.5030    0.3857 C   0  0  2  0  0  0  0  0  0  0  0  0
   -0.2370   -2.0702    0.1598 C   0  0  0  0  0  0  0  0  0  0  0  0
   -2.5823    2.1495    1.1652 C   0  0  0  0  0  0  0  0  0  0  0  0
    3.9749    0.1407    0.3318 C   0  0  0  0  0  0  0  0  0  0  0  0
    5.0559    0.7115   -0.5612 C   0  0  0  0  0  0  0  0  0  0  0  0
   -0.0732    0.2667   -2.0904 H   0  0  0  0  0  0  0  0  0  0  0  0
   -1.9973   -1.1233   -2.0633 H   0  0  0  0  0  0  0  0  0  0  0  0
   -1.6440    0.2553    1.4327 H   0  0  0  0  0  0  0  0  0  0  0  0
    1.0912   -1.5863   -1.3816 H   0  0  0  0  0  0  0  0  0  0  0  0
   -3.0678    0.9004   -1.2153 H   0  0  0  0  0  0  0  0  0  0  0  0
    0.3563    2.3103    1.4355 H   0  0  0  0  0  0  0  0  0  0  0  0
    1.4196    2.0905    0.0743 H   0  0  0  0  0  0  0  0  0  0  0  0
    2.1185   -1.3276    0.9866 H   0  0  0  0  0  0  0  0  0  0  0  0
   -2.8840    2.8501    0.3800 H   0  0  0  0  0  0  0  0  0  0  0  0
   -1.9460    2.6874    1.8743 H   0  0  0  0  0  0  0  0  0  0  0  0
   -3.4879    1.8406    1.6980 H   0  0  0  0  0  0  0  0  0  0  0  0
   -0.0061    2.4684   -1.6274 H   0  0  0  0  0  0  0  0  0  0  0  0
   -4.2139   -1.0038   -0.6161 H   0  0  0  0  0  0  0  0  0  0  0  0
    4.2859   -0.8478    0.6883 H   0  0  0  0  0  0  0  0  0  0  0  0
    3.8258    0.7996    1.1944 H   0  0  0  0  0  0  0  0  0  0  0  0
    6.0008    0.8079   -0.0191 H   0  0  0  0  0  0  0  0  0  0  0  0
    4.7630    1.6967   -0.9389 H   0  0  0  0  0  0  0  0  0  0  0  0
    5.2134    0.0700   -1.4346 H   0  0  0  0  0  0  0  0  0  0  0  0
  1  9  1  0  0  0  0
  1 15  1  0  0  0  0
  2 13  1  0  0  0  0
  2 14  1  0  0  0  0
  3  8  1  0  0  0  0
  3 30  1  0  0  0  0
  4 12  1  0  0  0  0
  4 31  1  0  0  0  0
  5 14  1  0  0  0  0
  5 17  1  0  0  0  0
  6 15  2  0  0  0  0
  7  8  1  0  0  0  0
  7  9  1  0  0  0  0
  7 11  1  0  0  0  0
  7 19  1  0  0  0  0
  8 10  1  0  0  0  0
  8 13  1  0  0  0  0
  9 12  1  0  0  0  0
  9 20  1  0  0  0  0
 10 12  1  0  0  0  0
 10 16  1  0  0  0  0
 10 21  1  0  0  0  0
 11 14  1  0  0  0  0
 11 15  1  0  0  0  0
 11 22  1  0  0  0  0
 12 23  1  0  0  0  0
 13 24  1  0  0  0  0
 13 25  1  0  0  0  0
 14 26  1  0  0  0  0
 16 27  1  0  0  0  0
 16 28  1  0  0  0  0
 16 29  1  0  0  0  0
 17 18  1  0  0  0  0
 17 32  1  0  0  0  0
 17 33  1  0  0  0  0
 18 34  1  0  0  0  0
 18 35  1  0  0  0  0
 18 36  1  0  0  0  0
M  END
> <PUBCHEM_COMPOUND_CID>
53260761

> <PUBCHEM_CONFORMER_RMSD>
0.6

> <PUBCHEM_CONFORMER_DIVERSEORDER>
1
4
2
3
5

> <PUBCHEM_MMFF94_PARTIAL_CHARGES>
16
1 -0.43
11 0.06
12 0.28
13 0.28
14 0.56
15 0.66
17 0.28
2 -0.56
3 -0.68
30 0.4
31 0.4
4 -0.68
5 -0.56
6 -0.57
8 0.28
9 0.28

> <PUBCHEM_EFFECTIVE_ROTOR_COUNT>
3.2

> <PUBCHEM_PHARMACOPHORE_FEATURES>
10
1 2 acceptor
1 3 acceptor
1 3 donor
1 4 acceptor
1 4 donor
1 5 acceptor
1 6 acceptor
5 1 7 9 11 15 rings
5 7 8 9 10 12 rings
6 2 7 8 11 13 14 rings

> <PUBCHEM_HEAVY_ATOM_COUNT>
18

> <PUBCHEM_ATOM_DEF_STEREO_COUNT>
7

> <PUBCHEM_ATOM_UDEF_STEREO_COUNT>
0

> <PUBCHEM_BOND_DEF_STEREO_COUNT>
0

> <PUBCHEM_BOND_UDEF_STEREO_COUNT>
0

> <PUBCHEM_ISOTOPIC_ATOM_COUNT>
0

> <PUBCHEM_COMPONENT_COUNT>
1

> <PUBCHEM_CACTVS_TAUTO_COUNT>
2

> <PUBCHEM_CONFORMER_ID>
032CB1D900000001

> <PUBCHEM_MMFF94_ENERGY>
54.3222

> <PUBCHEM_FEATURE_SELFOVERLAP>
51.739

> <PUBCHEM_SHAPE_FINGERPRINT>
10382601 240 17978813223950696681
10863032 1 17916027854282137771
10948715 1 18055643819344755801
11132069 177 18343294886112569484
11680986 33 17906448079915232033
12011746 2 18342454846481313901
12403814 3 18113898251929667204
12423570 1 8641494592637022565
12491281 212 16844740719955724779
13024252 1 14129052621184695831
13027679 85 18123753320414151437
13140716 1 18124307461431989923
14614273 12 18262508174508866101
14787075 74 18339641264945467631
14993402 34 18334007324077330645
15209289 33 18343021111759136626
15309172 13 18333733489947568736
15775835 57 18270400473262701993
16945 1 17989194963074432175
18186145 218 18268432335212732822
20510252 161 18271808995013481624
20511035 2 17839181062497892015
21501502 16 18126842707601850847
22344851 341 18125728885074570250
23236772 104 18201156564240768465
2334 1 17836069440396668631
23402539 116 18340760537390790270
23419403 2 16037944638459887517
23493267 7 17604132749732813057
23557571 272 18051140482343146278
23559900 14 18342453782094269960
2748010 2 17979898733726487951
296302 2 16153425025943504540
43471831 8 18335698282766985034
57426455 19 18409451409618016874
81228 2 18265887145887879538

> <PUBCHEM_SHAPE_MULTIPOLES>
335.22
5.79
2.39
1.1
6.98
0.64
0
-1.75
0.33
-1.13
-0.51
-0.16
-0.15
-0.46

> <PUBCHEM_SHAPE_SELFOVERLAP>
718.204

> <PUBCHEM_SHAPE_VOLUME>
186.4

> <PUBCHEM_COORDINATE_TYPE>
2
5
10

$$$$
