6441961
  -OEChem-09222005143D

 53 57  0     1  0  0  0  0  0999 V2000
    1.3842    2.3801   -1.4863 O   0  0  0  0  0  0  0  0  0  0  0  0
   -1.0156    3.2925   -0.0499 O   0  0  0  0  0  0  0  0  0  0  0  0
   -3.6749    2.1059   -0.0094 O   0  0  0  0  0  0  0  0  0  0  0  0
   -4.0113   -3.1566   -0.0915 O   0  0  0  0  0  0  0  0  0  0  0  0
    3.2878    0.2439    2.1292 N   0  0  0  0  0  0  0  0  0  0  0  0
   -2.4503    1.4544   -0.0088 N   0  0  0  0  0  0  0  0  0  0  0  0
    2.6566    0.9782    0.0569 C   0  0  2  0  0  0  0  0  0  0  0  0
   -0.1559    0.9653   -0.0426 C   0  0  2  0  0  0  0  0  0  0  0  0
    3.2008    0.0731   -1.0016 C   0  0  2  0  0  0  0  0  0  0  0  0
    2.0864    0.4329    1.3510 C   0  0  2  0  0  0  0  0  0  0  0  0
    0.6708    1.1157   -1.5293 C   0  0  2  0  0  0  0  0  0  0  0  0
    0.6670    1.1106    1.4400 C   0  0  0  0  0  0  0  0  0  0  0  0
    1.8615   -0.0319   -1.9710 C   0  0  0  0  0  0  0  0  0  0  0  0
    2.3942    2.3945   -0.4567 C   0  0  0  0  0  0  0  0  0  0  0  0
    3.7562   -1.0640   -0.1433 C   0  0  0  0  0  0  0  0  0  0  0  0
   -1.0239   -0.2871   -0.0535 C   0  0  0  0  0  0  0  0  0  0  0  0
   -1.2359    2.0912   -0.0386 C   0  0  0  0  0  0  0  0  0  0  0  0
    4.1949   -0.6853    1.3263 C   0  0  0  0  0  0  0  0  0  0  0  0
   -2.3739    0.0755   -0.0459 C   0  0  0  0  0  0  0  0  0  0  0  0
    3.7999   -2.3287   -0.5853 C   0  0  0  0  0  0  0  0  0  0  0  0
   -0.6701   -1.6244   -0.0615 C   0  0  0  0  0  0  0  0  0  0  0  0
   -3.3985   -0.8517   -0.0611 C   0  0  0  0  0  0  0  0  0  0  0  0
   -1.6890   -2.5830   -0.0756 C   0  0  0  0  0  0  0  0  0  0  0  0
    4.2549   -3.4832    0.2399 C   0  0  0  0  0  0  0  0  0  0  0  0
   -3.0413   -2.1998   -0.0776 C   0  0  0  0  0  0  0  0  0  0  0  0
   -4.1098    2.2890    1.3394 C   0  0  0  0  0  0  0  0  0  0  0  0
   -5.3647   -2.7070   -0.0930 C   0  0  0  0  0  0  0  0  0  0  0  0
    3.6328    1.3692    0.4241 H   0  0  0  0  0  0  0  0  0  0  0  0
    4.0112    0.5362   -1.5783 H   0  0  0  0  0  0  0  0  0  0  0  0
    1.7425   -0.5993    1.1960 H   0  0  0  0  0  0  0  0  0  0  0  0
   -0.0631    1.1603   -2.3425 H   0  0  0  0  0  0  0  0  0  0  0  0
    0.0733    0.6314    2.2281 H   0  0  0  0  0  0  0  0  0  0  0  0
    0.7574    2.1674    1.7117 H   0  0  0  0  0  0  0  0  0  0  0  0
    2.1802    0.2053   -2.9923 H   0  0  0  0  0  0  0  0  0  0  0  0
    1.4315   -1.0350   -1.9498 H   0  0  0  0  0  0  0  0  0  0  0  0
    2.0875    3.0954    0.3253 H   0  0  0  0  0  0  0  0  0  0  0  0
    3.2846    2.8337   -0.9265 H   0  0  0  0  0  0  0  0  0  0  0  0
    3.0643   -0.2009    3.0189 H   0  0  0  0  0  0  0  0  0  0  0  0
    4.3146   -1.5826    1.9406 H   0  0  0  0  0  0  0  0  0  0  0  0
    5.1802   -0.2062    1.2724 H   0  0  0  0  0  0  0  0  0  0  0  0
    3.4550   -2.5544   -1.5909 H   0  0  0  0  0  0  0  0  0  0  0  0
    0.3658   -1.9410   -0.0575 H   0  0  0  0  0  0  0  0  0  0  0  0
   -4.4192   -0.4914   -0.0587 H   0  0  0  0  0  0  0  0  0  0  0  0
   -1.4261   -3.6381   -0.0846 H   0  0  0  0  0  0  0  0  0  0  0  0
    3.4585   -3.8180    0.9113 H   0  0  0  0  0  0  0  0  0  0  0  0
    5.1585   -3.2594    0.8142 H   0  0  0  0  0  0  0  0  0  0  0  0
    4.5068   -4.3212   -0.4195 H   0  0  0  0  0  0  0  0  0  0  0  0
   -4.2663    1.3273    1.8372 H   0  0  0  0  0  0  0  0  0  0  0  0
   -5.0623    2.8256    1.3173 H   0  0  0  0  0  0  0  0  0  0  0  0
   -3.3858    2.8909    1.8980 H   0  0  0  0  0  0  0  0  0  0  0  0
   -6.0013   -3.5979   -0.1070 H   0  0  0  0  0  0  0  0  0  0  0  0
   -5.5979   -2.1338   -0.9968 H   0  0  0  0  0  0  0  0  0  0  0  0
   -5.6069   -2.1560    0.8221 H   0  0  0  0  0  0  0  0  0  0  0  0
  1 11  1  0  0  0  0
  1 14  1  0  0  0  0
  2 17  2  0  0  0  0
  3  6  1  0  0  0  0
  3 26  1  0  0  0  0
  4 25  1  0  0  0  0
  4 27  1  0  0  0  0
  5 10  1  0  0  0  0
  5 18  1  0  0  0  0
  5 38  1  0  0  0  0
  6 17  1  0  0  0  0
  6 19  1  0  0  0  0
  7  9  1  0  0  0  0
  7 10  1  0  0  0  0
  7 14  1  0  0  0  0
  7 28  1  0  0  0  0
  8 11  1  0  0  0  0
  8 12  1  0  0  0  0
  8 16  1  0  0  0  0
  8 17  1  0  0  0  0
  9 13  1  0  0  0  0
  9 15  1  0  0  0  0
  9 29  1  0  0  0  0
 10 12  1  0  0  0  0
 10 30  1  0  0  0  0
 11 13  1  0  0  0  0
 11 31  1  0  0  0  0
 12 32  1  0  0  0  0
 12 33  1  0  0  0  0
 13 34  1  0  0  0  0
 13 35  1  0  0  0  0
 14 36  1  0  0  0  0
 14 37  1  0  0  0  0
 15 18  1  0  0  0  0
 15 20  2  0  0  0  0
 16 19  2  0  0  0  0
 16 21  1  0  0  0  0
 18 39  1  0  0  0  0
 18 40  1  0  0  0  0
 19 22  1  0  0  0  0
 20 24  1  0  0  0  0
 20 41  1  0  0  0  0
 21 23  2  0  0  0  0
 21 42  1  0  0  0  0
 22 25  2  0  0  0  0
 22 43  1  0  0  0  0
 23 25  1  0  0  0  0
 23 44  1  0  0  0  0
 24 45  1  0  0  0  0
 24 46  1  0  0  0  0
 24 47  1  0  0  0  0
 26 48  1  0  0  0  0
 26 49  1  0  0  0  0
 26 50  1  0  0  0  0
 27 51  1  0  0  0  0
 27 52  1  0  0  0  0
 27 53  1  0  0  0  0
M  END
> <PUBCHEM_COMPOUND_CID>
6441961

> <PUBCHEM_CONFORMER_RMSD>
0.8

> <PUBCHEM_CONFORMER_DIVERSEORDER>
1

> <PUBCHEM_MMFF94_PARTIAL_CHARGES>
29
1 -0.56
10 0.27
11 0.28
14 0.28
15 -0.28
16 -0.14
17 0.57
18 0.41
19 0.12
2 -0.57
20 -0.29
21 -0.15
22 -0.15
23 -0.15
24 0.14
25 0.08
26 0.28
27 0.28
3 -0.32
38 0.36
4 -0.36
41 0.15
42 0.15
43 0.15
44 0.15
5 -0.9
6 -0.14
8 0.2
9 0.14

> <PUBCHEM_EFFECTIVE_ROTOR_COUNT>
3.4

> <PUBCHEM_PHARMACOPHORE_FEATURES>
10
1 1 acceptor
1 2 acceptor
1 24 hydrophobe
1 4 acceptor
1 5 cation
1 5 donor
5 6 8 16 17 19 rings
6 16 19 21 22 23 25 rings
6 5 7 9 10 15 18 rings
9 1 7 8 9 10 11 12 13 14 rings

> <PUBCHEM_HEAVY_ATOM_COUNT>
27

> <PUBCHEM_ATOM_DEF_STEREO_COUNT>
5

> <PUBCHEM_ATOM_UDEF_STEREO_COUNT>
0

> <PUBCHEM_BOND_DEF_STEREO_COUNT>
1

> <PUBCHEM_BOND_UDEF_STEREO_COUNT>
0

> <PUBCHEM_ISOTOPIC_ATOM_COUNT>
0

> <PUBCHEM_COMPONENT_COUNT>
1

> <PUBCHEM_CACTVS_TAUTO_COUNT>
1

> <PUBCHEM_CONFORMER_ID>
00624BE900000001

> <PUBCHEM_MMFF94_ENERGY>
202.4329

> <PUBCHEM_FEATURE_SELFOVERLAP>
50.938

> <PUBCHEM_SHAPE_FINGERPRINT>
10863032 1 18413111671258843260
1100329 8 18266183829338497355
11578080 2 17989205983802687760
11796584 16 18199761241204616942
12403259 327 17916582017033229872
12422481 6 18269577000064255379
12553582 1 18052815046504263503
12633257 1 17915179018684460682
12788726 201 18195818581485732641
12892183 10 18130775789843929840
13140716 1 18341901766315402345
13583140 156 17560221622463108312
13692114 37 18059859412368036015
14178342 30 18411130316581524395
14790565 3 17764598611832543673
14863182 85 17975411631622467212
14866123 147 18194965136987648635
15042514 8 18410578345170971659
15664445 248 18050579739270224868
16752209 62 18336827589057231131
16945 1 18337103458706293468
17349148 13 18413101758727272125
17492 89 18409168843693869414
1813 80 17749104478788834534
19141452 34 18266179435354754048
19591789 44 17689437083409856939
20600515 1 18199474264280010252
20691752 17 17531248318682568018
20775530 9 18338796702719612542
20905425 154 18342181020609833718
21330990 113 17687186392125073628
21421861 104 18264213688826446475
21478907 32 18411420648530060959
21781051 124 18044965401750911697
23184049 29 18410291458034464124
23557571 272 18130796688822566825
23559900 14 18272373019288748324
25222932 49 17473833204375685519
3004659 81 18042679679647491767
312423 11 18115317785854643945
338550 245 18335147475176349487
34934 24 17691972982704878397
350125 39 18411427189722846867
460360 51 18335149712959604451
463206 1 18117281350566868498
5104073 3 18201152170415729602
56633871 153 18193844738707078427
7164475 11 18337107972964393357

> <PUBCHEM_SHAPE_MULTIPOLES>
522.21
8.87
3.95
1.4
3.17
1.3
0.11
6.34
1.49
2.12
-0.15
-1.29
-0.53
-0.82

> <PUBCHEM_SHAPE_SELFOVERLAP>
1127.187

> <PUBCHEM_SHAPE_VOLUME>
283.7

> <PUBCHEM_COORDINATE_TYPE>
2
5
10

$$$$
