5319437
  -OEChem-09222005403D

 51 55  0     1  0  0  0  0  0999 V2000
    0.3077    1.5939    1.7673 O   0  0  0  0  0  0  0  0  0  0  0  0
    0.6390   -2.2643   -0.7923 O   0  0  0  0  0  0  0  0  0  0  0  0
   -2.5021    2.3053   -1.1953 O   0  0  0  0  0  0  0  0  0  0  0  0
   -5.5603   -2.0245    0.2826 O   0  0  0  0  0  0  0  0  0  0  0  0
    1.7387   -0.2368   -1.2889 N   0  0  0  0  0  0  0  0  0  0  0  0
    1.4890    1.1766   -1.0452 C   0  0  2  0  0  0  0  0  0  0  0  0
   -0.2263   -0.0838   -0.0007 C   0  0  2  0  0  0  0  0  0  0  0  0
    2.2598    1.6403    0.2270 C   0  0  2  0  0  0  0  0  0  0  0  0
    2.8991    0.4400    0.9721 C   0  0  1  0  0  0  0  0  0  0  0  0
   -0.0247    1.1569   -0.9074 C   0  0  0  0  0  0  0  0  0  0  0  0
    0.3651    0.1899    1.4517 C   0  0  1  0  0  0  0  0  0  0  0  0
    1.7971   -0.3314    1.7425 C   0  0  0  0  0  0  0  0  0  0  0  0
    0.7054   -1.0447   -0.7639 C   0  0  0  0  0  0  0  0  0  0  0  0
    1.3777    2.3860    1.2365 C   0  0  0  0  0  0  0  0  0  0  0  0
    3.6987   -0.4486    0.0205 C   0  0  0  0  0  0  0  0  0  0  0  0
    3.1046   -0.7085   -1.3458 C   0  0  0  0  0  0  0  0  0  0  0  0
   -1.6650   -0.5873    0.0751 C   0  0  0  0  0  0  0  0  0  0  0  0
    4.8840   -0.9733    0.3664 C   0  0  0  0  0  0  0  0  0  0  0  0
   -2.7414    0.3031    0.1360 C   0  0  0  0  0  0  0  0  0  0  0  0
   -1.9077   -1.9638    0.0845 C   0  0  0  0  0  0  0  0  0  0  0  0
    5.7052   -1.8335   -0.5305 C   0  0  0  0  0  0  0  0  0  0  0  0
   -4.0486   -0.1790    0.2055 C   0  0  0  0  0  0  0  0  0  0  0  0
   -2.5118    1.7788    0.1276 C   0  0  0  0  0  0  0  0  0  0  0  0
   -3.2147   -2.4460    0.1539 C   0  0  0  0  0  0  0  0  0  0  0  0
   -4.2852   -1.5538    0.2146 C   0  0  0  0  0  0  0  0  0  0  0  0
   -2.2833    3.7085   -1.1939 C   0  0  0  0  0  0  0  0  0  0  0  0
    1.8030    1.7573   -1.9195 H   0  0  0  0  0  0  0  0  0  0  0  0
    3.0651    2.3126   -0.0984 H   0  0  0  0  0  0  0  0  0  0  0  0
    3.5951    0.8466    1.7206 H   0  0  0  0  0  0  0  0  0  0  0  0
   -0.2978    2.1368   -0.5556 H   0  0  0  0  0  0  0  0  0  0  0  0
   -0.4792    0.9954   -1.8955 H   0  0  0  0  0  0  0  0  0  0  0  0
   -0.2919   -0.2991    2.1824 H   0  0  0  0  0  0  0  0  0  0  0  0
    1.8616   -1.4151    1.5912 H   0  0  0  0  0  0  0  0  0  0  0  0
    1.9881   -0.1722    2.8134 H   0  0  0  0  0  0  0  0  0  0  0  0
    1.9833    2.7162    2.0889 H   0  0  0  0  0  0  0  0  0  0  0  0
    0.9510    3.2954    0.7998 H   0  0  0  0  0  0  0  0  0  0  0  0
    3.6275   -0.1464   -2.1257 H   0  0  0  0  0  0  0  0  0  0  0  0
    3.0920   -1.7767   -1.5837 H   0  0  0  0  0  0  0  0  0  0  0  0
    5.2889   -0.7789    1.3561 H   0  0  0  0  0  0  0  0  0  0  0  0
   -1.1461   -2.7251    0.1546 H   0  0  0  0  0  0  0  0  0  0  0  0
    6.7312   -1.4512   -0.5561 H   0  0  0  0  0  0  0  0  0  0  0  0
    5.3573   -1.8791   -1.5649 H   0  0  0  0  0  0  0  0  0  0  0  0
    5.7384   -2.8538   -0.1356 H   0  0  0  0  0  0  0  0  0  0  0  0
   -4.8858    0.5136    0.2492 H   0  0  0  0  0  0  0  0  0  0  0  0
   -3.3802    2.2353    0.6274 H   0  0  0  0  0  0  0  0  0  0  0  0
   -1.6970    2.1153    0.7648 H   0  0  0  0  0  0  0  0  0  0  0  0
   -3.3933   -3.5176    0.1849 H   0  0  0  0  0  0  0  0  0  0  0  0
   -6.1738   -1.2706    0.3182 H   0  0  0  0  0  0  0  0  0  0  0  0
   -2.1939    4.0418   -2.2314 H   0  0  0  0  0  0  0  0  0  0  0  0
   -1.3695    3.9844   -0.6601 H   0  0  0  0  0  0  0  0  0  0  0  0
   -3.1389    4.2193   -0.7411 H   0  0  0  0  0  0  0  0  0  0  0  0
  1 11  1  0  0  0  0
  1 14  1  0  0  0  0
  2 13  2  0  0  0  0
  3 23  1  0  0  0  0
  3 26  1  0  0  0  0
  4 25  1  0  0  0  0
  4 48  1  0  0  0  0
  5  6  1  0  0  0  0
  5 13  1  0  0  0  0
  5 16  1  0  0  0  0
  6  8  1  0  0  0  0
  6 10  1  0  0  0  0
  6 27  1  0  0  0  0
  7 10  1  0  0  0  0
  7 11  1  0  0  0  0
  7 13  1  0  0  0  0
  7 17  1  0  0  0  0
  8  9  1  0  0  0  0
  8 14  1  0  0  0  0
  8 28  1  0  0  0  0
  9 12  1  0  0  0  0
  9 15  1  0  0  0  0
  9 29  1  0  0  0  0
 10 30  1  0  0  0  0
 10 31  1  0  0  0  0
 11 12  1  0  0  0  0
 11 32  1  0  0  0  0
 12 33  1  0  0  0  0
 12 34  1  0  0  0  0
 14 35  1  0  0  0  0
 14 36  1  0  0  0  0
 15 16  1  0  0  0  0
 15 18  2  0  0  0  0
 16 37  1  0  0  0  0
 16 38  1  0  0  0  0
 17 19  2  0  0  0  0
 17 20  1  0  0  0  0
 18 21  1  0  0  0  0
 18 39  1  0  0  0  0
 19 22  1  0  0  0  0
 19 23  1  0  0  0  0
 20 24  2  0  0  0  0
 20 40  1  0  0  0  0
 21 41  1  0  0  0  0
 21 42  1  0  0  0  0
 21 43  1  0  0  0  0
 22 25  2  0  0  0  0
 22 44  1  0  0  0  0
 23 45  1  0  0  0  0
 23 46  1  0  0  0  0
 24 25  1  0  0  0  0
 24 47  1  0  0  0  0
 26 49  1  0  0  0  0
 26 50  1  0  0  0  0
 26 51  1  0  0  0  0
M  END
> <PUBCHEM_COMPOUND_CID>
5319437

> <PUBCHEM_CONFORMER_RMSD>
0.8

> <PUBCHEM_CONFORMER_DIVERSEORDER>
1
7
2
5
8
4
3
6

> <PUBCHEM_MMFF94_PARTIAL_CHARGES>
28
1 -0.56
11 0.28
13 0.57
14 0.28
15 -0.28
16 0.44
17 -0.14
18 -0.29
19 -0.14
2 -0.57
20 -0.15
21 0.14
22 -0.15
23 0.42
24 -0.15
25 0.08
26 0.28
3 -0.56
39 0.15
4 -0.53
40 0.15
44 0.15
47 0.15
48 0.45
5 -0.66
6 0.3
7 0.2
9 0.14

> <PUBCHEM_EFFECTIVE_ROTOR_COUNT>
4

> <PUBCHEM_PHARMACOPHORE_FEATURES>
9
1 1 acceptor
1 2 acceptor
1 21 hydrophobe
1 3 acceptor
1 4 donor
5 5 6 7 10 13 rings
6 17 19 20 22 24 25 rings
6 5 6 8 9 15 16 rings
9 1 6 7 8 9 10 11 12 14 rings

> <PUBCHEM_HEAVY_ATOM_COUNT>
26

> <PUBCHEM_ATOM_DEF_STEREO_COUNT>
0

> <PUBCHEM_ATOM_UDEF_STEREO_COUNT>
5

> <PUBCHEM_BOND_DEF_STEREO_COUNT>
1

> <PUBCHEM_BOND_UDEF_STEREO_COUNT>
0

> <PUBCHEM_ISOTOPIC_ATOM_COUNT>
0

> <PUBCHEM_COMPONENT_COUNT>
1

> <PUBCHEM_CACTVS_TAUTO_COUNT>
3

> <PUBCHEM_CONFORMER_ID>
00512B0D00000001

> <PUBCHEM_MMFF94_ENERGY>
131.0415

> <PUBCHEM_FEATURE_SELFOVERLAP>
47.095

> <PUBCHEM_SHAPE_FINGERPRINT>
10165383 225 18048604716256317781
10369192 42 17840852290920731192
10863032 1 18412826910879876112
1100329 8 16544412177109318418
12236239 1 17385443215219810910
12293681 4 18058449794425605289
12403259 226 18341609364836207177
12633257 1 18202295705595069083
13009979 54 18041013846437514757
13134695 92 16774071869602634872
13140716 1 18340211915849025915
13224815 77 18268993253609965899
14223421 5 18339068419123808249
14251751 93 18188206498697503389
15238133 3 16629704910522743251
16752209 62 17749655355963525279
16945 1 18335417933081839596
17349148 13 17346883372519719618
17357779 13 18341316882290924981
17804303 29 18411702097008805123
1813 80 17603859027367101340
19862831 5 16660640799725494019
20028762 73 17632012069493930663
20691752 17 18125424556772166991
20905425 154 18339081471656131831
21033648 29 17203032003068445050
21033650 10 17898882079112945438
21267235 1 18334303097512288219
22182313 1 18129360697062713128
23175994 123 17775004553312847968
23402539 116 18408601470498607231
23419403 2 17845919797724763576
23493267 7 18265606577064872264
23557571 272 18263072357571789593
23559900 14 18338231665068271509
296302 2 8574715701909659611
3286 77 18342177812094507836
335352 9 18412829062631812543
350125 39 18412268345692327557
474 4 12895071868304685410
5104073 3 18128549334891254275
59755656 215 18338232644674249647

> <PUBCHEM_SHAPE_MULTIPOLES>
506.61
8.76
3.01
1.37
1.16
1.56
0.22
-5.94
-0.33
-2.57
-0.61
0.71
0.51
1.29

> <PUBCHEM_SHAPE_SELFOVERLAP>
1126.719

> <PUBCHEM_SHAPE_VOLUME>
263.8

> <PUBCHEM_COORDINATE_TYPE>
2
5
10

$$$$
