101449929
  -OEChem-09222004333D

 54 58  0     1  0  0  0  0  0999 V2000
    1.9317    2.5469   -0.7383 O   0  0  0  0  0  0  0  0  0  0  0  0
   -0.7191    0.4747   -2.2065 O   0  0  0  0  0  0  0  0  0  0  0  0
   -0.4586   -1.2323    0.0173 O   0  0  0  0  0  0  0  0  0  0  0  0
    1.4553   -3.3380   -0.1364 O   0  0  0  0  0  0  0  0  0  0  0  0
   -5.0113   -1.8432    1.1405 O   0  0  0  0  0  0  0  0  0  0  0  0
   -5.2820   -1.0409   -1.0061 O   0  0  0  0  0  0  0  0  0  0  0  0
   -1.3460    1.1469    1.5245 N   0  0  0  0  0  0  0  0  0  0  0  0
    1.7301   -1.9860    0.0076 N   0  0  0  0  0  0  0  0  0  0  0  0
   -0.1872    2.9933    0.5101 C   0  0  1  0  0  0  0  0  0  0  0  0
    1.4658    0.3552    0.2169 C   0  0  2  0  0  0  0  0  0  0  0  0
   -1.0147    2.2829   -0.5504 C   0  0  1  0  0  0  0  0  0  0  0  0
    1.2956    1.2880   -1.0164 C   0  0  1  0  0  0  0  0  0  0  0  0
   -0.0954    1.9318    1.6151 C   0  0  2  0  0  0  0  0  0  0  0  0
   -0.1128    1.5797   -1.5630 C   0  0  1  0  0  0  0  0  0  0  0  0
    1.1143    0.9935    1.5801 C   0  0  0  0  0  0  0  0  0  0  0  0
    1.1498    3.4991   -0.0186 C   0  0  0  0  0  0  0  0  0  0  0  0
   -1.8240    1.3779    0.3419 C   0  0  0  0  0  0  0  0  0  0  0  0
    2.9389   -0.1122    0.2703 C   0  0  0  0  0  0  0  0  0  0  0  0
    0.7450   -1.0324    0.0520 C   0  0  0  0  0  0  0  0  0  0  0  0
    3.0135   -1.4971    0.1173 C   0  0  0  0  0  0  0  0  0  0  0  0
   -3.0941    0.8158   -0.1371 C   0  0  0  0  0  0  0  0  0  0  0  0
    4.1040    0.6248    0.4277 C   0  0  0  0  0  0  0  0  0  0  0  0
    4.2109   -2.1881    0.1067 C   0  0  0  0  0  0  0  0  0  0  0  0
   -3.8451    1.6211   -1.1490 C   0  0  0  0  0  0  0  0  0  0  0  0
    5.3289   -0.0510    0.4216 C   0  0  0  0  0  0  0  0  0  0  0  0
   -3.4181   -0.3825    0.3751 C   0  0  0  0  0  0  0  0  0  0  0  0
    5.3815   -1.4456    0.2605 C   0  0  0  0  0  0  0  0  0  0  0  0
    1.4275   -3.6658   -1.5268 C   0  0  0  0  0  0  0  0  0  0  0  0
   -4.6705   -1.1067    0.0473 C   0  0  0  0  0  0  0  0  0  0  0  0
   -6.2139   -2.6098    1.0162 C   0  0  0  0  0  0  0  0  0  0  0  0
   -0.7621    3.8434    0.9035 H   0  0  0  0  0  0  0  0  0  0  0  0
   -1.6585    3.0018   -1.0661 H   0  0  0  0  0  0  0  0  0  0  0  0
    1.8608    0.8414   -1.8465 H   0  0  0  0  0  0  0  0  0  0  0  0
   -0.0932    2.4415    2.5871 H   0  0  0  0  0  0  0  0  0  0  0  0
    0.0341    2.3166   -2.3667 H   0  0  0  0  0  0  0  0  0  0  0  0
    1.9695    1.5799    1.9426 H   0  0  0  0  0  0  0  0  0  0  0  0
    0.9698    0.2031    2.3303 H   0  0  0  0  0  0  0  0  0  0  0  0
    0.9741    4.3389   -0.7008 H   0  0  0  0  0  0  0  0  0  0  0  0
    1.7661    3.8859    0.8002 H   0  0  0  0  0  0  0  0  0  0  0  0
   -0.0793    0.1124   -2.8425 H   0  0  0  0  0  0  0  0  0  0  0  0
    4.0822    1.7013    0.5552 H   0  0  0  0  0  0  0  0  0  0  0  0
    4.2521   -3.2650   -0.0091 H   0  0  0  0  0  0  0  0  0  0  0  0
   -3.3696    1.5557   -2.1323 H   0  0  0  0  0  0  0  0  0  0  0  0
   -3.8897    2.6736   -0.8477 H   0  0  0  0  0  0  0  0  0  0  0  0
   -4.8851    1.3051   -1.2578 H   0  0  0  0  0  0  0  0  0  0  0  0
    6.2524    0.5091    0.5430 H   0  0  0  0  0  0  0  0  0  0  0  0
   -2.7976   -0.8713    1.1218 H   0  0  0  0  0  0  0  0  0  0  0  0
    6.3444   -1.9493    0.2597 H   0  0  0  0  0  0  0  0  0  0  0  0
    1.1925   -4.7298   -1.6184 H   0  0  0  0  0  0  0  0  0  0  0  0
    2.4013   -3.4854   -1.9920 H   0  0  0  0  0  0  0  0  0  0  0  0
    0.6496   -3.0938   -2.0427 H   0  0  0  0  0  0  0  0  0  0  0  0
   -6.3720   -3.1487    1.9542 H   0  0  0  0  0  0  0  0  0  0  0  0
   -6.1167   -3.3375    0.2048 H   0  0  0  0  0  0  0  0  0  0  0  0
   -7.0682   -1.9485    0.8426 H   0  0  0  0  0  0  0  0  0  0  0  0
  1 12  1  0  0  0  0
  1 16  1  0  0  0  0
  2 14  1  0  0  0  0
  2 40  1  0  0  0  0
  3 19  2  0  0  0  0
  4  8  1  0  0  0  0
  4 28  1  0  0  0  0
  5 29  1  0  0  0  0
  5 30  1  0  0  0  0
  6 29  2  0  0  0  0
  7 13  1  0  0  0  0
  7 17  2  0  0  0  0
  8 19  1  0  0  0  0
  8 20  1  0  0  0  0
  9 11  1  0  0  0  0
  9 13  1  0  0  0  0
  9 16  1  0  0  0  0
  9 31  1  0  0  0  0
 10 12  1  0  0  0  0
 10 15  1  0  0  0  0
 10 18  1  0  0  0  0
 10 19  1  0  0  0  0
 11 14  1  0  0  0  0
 11 17  1  0  0  0  0
 11 32  1  0  0  0  0
 12 14  1  0  0  0  0
 12 33  1  0  0  0  0
 13 15  1  0  0  0  0
 13 34  1  0  0  0  0
 14 35  1  0  0  0  0
 15 36  1  0  0  0  0
 15 37  1  0  0  0  0
 16 38  1  0  0  0  0
 16 39  1  0  0  0  0
 17 21  1  0  0  0  0
 18 20  1  0  0  0  0
 18 22  2  0  0  0  0
 20 23  2  0  0  0  0
 21 24  1  0  0  0  0
 21 26  2  0  0  0  0
 22 25  1  0  0  0  0
 22 41  1  0  0  0  0
 23 27  1  0  0  0  0
 23 42  1  0  0  0  0
 24 43  1  0  0  0  0
 24 44  1  0  0  0  0
 24 45  1  0  0  0  0
 25 27  2  0  0  0  0
 25 46  1  0  0  0  0
 26 29  1  0  0  0  0
 26 47  1  0  0  0  0
 27 48  1  0  0  0  0
 28 49  1  0  0  0  0
 28 50  1  0  0  0  0
 28 51  1  0  0  0  0
 30 52  1  0  0  0  0
 30 53  1  0  0  0  0
 30 54  1  0  0  0  0
M  END
> <PUBCHEM_COMPOUND_CID>
101449929

> <PUBCHEM_CONFORMER_RMSD>
0.8

> <PUBCHEM_CONFORMER_DIVERSEORDER>
1
7
3
2
6
4
5

> <PUBCHEM_MMFF94_PARTIAL_CHARGES>
34
1 -0.56
10 0.2
11 0.06
12 0.28
13 0.25
14 0.28
16 0.28
17 0.37
18 -0.14
19 0.57
2 -0.68
20 0.12
21 -0.12
22 -0.15
23 -0.15
24 0.14
25 -0.15
26 -0.14
27 -0.15
28 0.28
29 0.71
3 -0.57
30 0.28
4 -0.32
40 0.4
41 0.15
42 0.15
46 0.15
47 0.15
48 0.15
5 -0.43
6 -0.57
7 -0.7
8 -0.14

> <PUBCHEM_EFFECTIVE_ROTOR_COUNT>
5

> <PUBCHEM_PHARMACOPHORE_FEATURES>
11
1 1 acceptor
1 2 acceptor
1 2 donor
1 24 hydrophobe
1 3 acceptor
1 6 acceptor
1 7 acceptor
5 7 9 11 13 17 rings
5 8 10 18 19 20 rings
6 18 20 22 23 25 27 rings
9 1 9 10 11 12 13 14 15 16 rings

> <PUBCHEM_HEAVY_ATOM_COUNT>
30

> <PUBCHEM_ATOM_DEF_STEREO_COUNT>
6

> <PUBCHEM_ATOM_UDEF_STEREO_COUNT>
0

> <PUBCHEM_BOND_DEF_STEREO_COUNT>
1

> <PUBCHEM_BOND_UDEF_STEREO_COUNT>
0

> <PUBCHEM_ISOTOPIC_ATOM_COUNT>
0

> <PUBCHEM_COMPONENT_COUNT>
1

> <PUBCHEM_CACTVS_TAUTO_COUNT>
6

> <PUBCHEM_CONFORMER_ID>
060C00C900000001

> <PUBCHEM_MMFF94_ENERGY>
120.8299

> <PUBCHEM_FEATURE_SELFOVERLAP>
56.562

> <PUBCHEM_SHAPE_FINGERPRINT>
10675989 125 16325670476446226879
10863032 1 18053376596351366440
1100329 8 18196932386458909246
11115154 58 17628321946080183661
11135609 12 18260839193958441937
11828532 37 17025731540465893099
12035758 1 18269818969720410752
12166972 35 17967257498613835086
13103583 49 17346603006245730779
13140716 1 18124314067007528875
13224815 77 18051689950336176944
13402501 40 18408605885714899307
13544653 18 18411420592209884161
14223421 5 17982732965961082358
14787075 74 18059850692867221496
14863182 85 18341343270011101558
14955137 171 18343587355936545542
15927050 60 17693379249671634948
16945 1 18265070066962163264
17492 54 17895773909891251460
19315092 285 17630044004600472171
19591789 44 18341044138882532294
20028762 73 18059008505135587942
20691752 17 15864063282882634469
20775530 9 18267027154889454947
21421861 104 18128002821909179417
22393880 68 17603852421797220117
23559900 14 18336252505927077005
2838139 119 9295287218620590331
329604 57 18334579048596306874
3380486 145 18118417158778652953
3737641 26 18058458611914264551
392239 28 17559936849093958962
46194498 28 17749666406724766685
463206 1 18269835479512009303
5104073 3 18342171112214643306
6669772 16 17909268323436971488
9709674 26 17837208182282210558

> <PUBCHEM_SHAPE_MULTIPOLES>
572.21
10.15
3.96
1.38
6.96
0.81
-0.22
8.89
1.9
0.06
-0.44
0.64
-0.23
1.15

> <PUBCHEM_SHAPE_SELFOVERLAP>
1266.225

> <PUBCHEM_SHAPE_VOLUME>
302.1

> <PUBCHEM_COORDINATE_TYPE>
2
5
10

$$$$
