102004539
  -OEChem-09222006173D

 51 55  0     1  0  0  0  0  0999 V2000
   -0.4721    1.7790   -1.8993 O   0  0  0  0  0  0  0  0  0  0  0  0
    2.4361    2.5835    0.4494 O   0  0  0  0  0  0  0  0  0  0  0  0
   -2.4786   -2.0038    0.0461 N   0  0  2  0  0  0  0  0  0  0  0  0
    2.1504    1.2529    0.1532 N   0  0  0  0  0  0  0  0  0  0  0  0
   -1.9986   -0.1162   -1.3418 C   0  0  2  0  0  0  0  0  0  0  0  0
   -2.6533    0.9220   -0.4330 C   0  0  2  0  0  0  0  0  0  0  0  0
   -1.3488   -1.1400   -0.3536 C   0  0  2  0  0  0  0  0  0  0  0  0
   -1.5122    1.6697    0.3214 C   0  0  0  0  0  0  0  0  0  0  0  0
   -0.1989    1.7722   -0.5014 C   0  0  1  0  0  0  0  0  0  0  0  0
   -1.1272    0.6100   -2.3796 C   0  0  0  0  0  0  0  0  0  0  0  0
    0.0171   -1.6454   -0.8072 C   0  0  0  0  0  0  0  0  0  0  0  0
   -3.6799    0.2124    0.4448 C   0  0  0  0  0  0  0  0  0  0  0  0
   -3.3557   -1.1965    0.9484 C   0  0  0  0  0  0  0  0  0  0  0  0
    0.9262    0.7744   -0.2618 C   0  0  0  0  0  0  0  0  0  0  0  0
    1.0740   -0.6110   -0.4336 C   0  0  0  0  0  0  0  0  0  0  0  0
    2.4430   -0.9315   -0.1361 C   0  0  0  0  0  0  0  0  0  0  0  0
   -2.0702   -3.2349    0.7154 C   0  0  0  0  0  0  0  0  0  0  0  0
   -4.8685    0.7775    0.7097 C   0  0  0  0  0  0  0  0  0  0  0  0
    3.0829    0.2500    0.2263 C   0  0  0  0  0  0  0  0  0  0  0  0
    3.1938   -2.1274   -0.1353 C   0  0  0  0  0  0  0  0  0  0  0  0
   -5.9475    0.1126    1.4914 C   0  0  0  0  0  0  0  0  0  0  0  0
    4.4349    0.3040    0.5852 C   0  0  0  0  0  0  0  0  0  0  0  0
    4.5468   -2.0921    0.2208 C   0  0  0  0  0  0  0  0  0  0  0  0
    5.1567   -0.8920    0.5755 C   0  0  0  0  0  0  0  0  0  0  0  0
    2.2493    2.9708    1.7951 C   0  0  0  0  0  0  0  0  0  0  0  0
   -2.7575   -0.6486   -1.9364 H   0  0  0  0  0  0  0  0  0  0  0  0
   -3.1731    1.6547   -1.0672 H   0  0  0  0  0  0  0  0  0  0  0  0
   -1.0833   -0.6754    0.6034 H   0  0  0  0  0  0  0  0  0  0  0  0
   -1.3194    1.2688    1.3237 H   0  0  0  0  0  0  0  0  0  0  0  0
   -1.8827    2.6900    0.4960 H   0  0  0  0  0  0  0  0  0  0  0  0
    0.1863    2.7767   -0.2944 H   0  0  0  0  0  0  0  0  0  0  0  0
   -1.7780    0.9576   -3.1917 H   0  0  0  0  0  0  0  0  0  0  0  0
   -0.3964   -0.0416   -2.8653 H   0  0  0  0  0  0  0  0  0  0  0  0
    0.0499   -1.8886   -1.8731 H   0  0  0  0  0  0  0  0  0  0  0  0
    0.2720   -2.5673   -0.2728 H   0  0  0  0  0  0  0  0  0  0  0  0
   -2.8814   -1.0924    1.9344 H   0  0  0  0  0  0  0  0  0  0  0  0
   -4.2720   -1.7811    1.0826 H   0  0  0  0  0  0  0  0  0  0  0  0
   -1.5309   -3.8897    0.0231 H   0  0  0  0  0  0  0  0  0  0  0  0
   -2.9475   -3.8017    1.0471 H   0  0  0  0  0  0  0  0  0  0  0  0
   -1.4360   -3.0443    1.5884 H   0  0  0  0  0  0  0  0  0  0  0  0
   -5.0950    1.7626    0.3101 H   0  0  0  0  0  0  0  0  0  0  0  0
    2.7346   -3.0730   -0.4097 H   0  0  0  0  0  0  0  0  0  0  0  0
   -6.5970   -0.4704    0.8317 H   0  0  0  0  0  0  0  0  0  0  0  0
   -6.5650    0.8790    1.9730 H   0  0  0  0  0  0  0  0  0  0  0  0
   -5.5711   -0.5252    2.2960 H   0  0  0  0  0  0  0  0  0  0  0  0
    4.9131    1.2377    0.8624 H   0  0  0  0  0  0  0  0  0  0  0  0
    5.1256   -3.0119    0.2201 H   0  0  0  0  0  0  0  0  0  0  0  0
    6.2085   -0.8840    0.8491 H   0  0  0  0  0  0  0  0  0  0  0  0
    1.2130    2.8061    2.1057 H   0  0  0  0  0  0  0  0  0  0  0  0
    2.4747    4.0367    1.8854 H   0  0  0  0  0  0  0  0  0  0  0  0
    2.9244    2.4151    2.4528 H   0  0  0  0  0  0  0  0  0  0  0  0
  1  9  1  0  0  0  0
  1 10  1  0  0  0  0
  2  4  1  0  0  0  0
  2 25  1  0  0  0  0
  3  7  1  0  0  0  0
  3 13  1  0  0  0  0
  3 17  1  0  0  0  0
  4 14  1  0  0  0  0
  4 19  1  0  0  0  0
  5  6  1  0  0  0  0
  5  7  1  0  0  0  0
  5 10  1  0  0  0  0
  5 26  1  0  0  0  0
  6  8  1  0  0  0  0
  6 12  1  0  0  0  0
  6 27  1  0  0  0  0
  7 11  1  0  0  0  0
  7 28  1  0  0  0  0
  8  9  1  0  0  0  0
  8 29  1  0  0  0  0
  8 30  1  0  0  0  0
  9 14  1  0  0  0  0
  9 31  1  0  0  0  0
 10 32  1  0  0  0  0
 10 33  1  0  0  0  0
 11 15  1  0  0  0  0
 11 34  1  0  0  0  0
 11 35  1  0  0  0  0
 12 13  1  0  0  0  0
 12 18  2  0  0  0  0
 13 36  1  0  0  0  0
 13 37  1  0  0  0  0
 14 15  2  0  0  0  0
 15 16  1  0  0  0  0
 16 19  1  0  0  0  0
 16 20  2  0  0  0  0
 17 38  1  0  0  0  0
 17 39  1  0  0  0  0
 17 40  1  0  0  0  0
 18 21  1  0  0  0  0
 18 41  1  0  0  0  0
 19 22  2  0  0  0  0
 20 23  1  0  0  0  0
 20 42  1  0  0  0  0
 21 43  1  0  0  0  0
 21 44  1  0  0  0  0
 21 45  1  0  0  0  0
 22 24  1  0  0  0  0
 22 46  1  0  0  0  0
 23 24  2  0  0  0  0
 23 47  1  0  0  0  0
 24 48  1  0  0  0  0
 25 49  1  0  0  0  0
 25 50  1  0  0  0  0
 25 51  1  0  0  0  0
M  END
> <PUBCHEM_COMPOUND_CID>
102004539

> <PUBCHEM_CONFORMER_RMSD>
0.6

> <PUBCHEM_CONFORMER_DIVERSEORDER>
1
2

> <PUBCHEM_MMFF94_PARTIAL_CHARGES>
27
1 -0.56
10 0.28
11 0.18
12 -0.28
13 0.41
14 -0.33
15 -0.18
17 0.27
18 -0.29
19 -0.15
2 -0.42
20 -0.15
21 0.14
22 -0.15
23 -0.15
24 -0.15
25 0.28
3 -0.81
4 0.44
41 0.15
42 0.15
46 0.15
47 0.15
48 0.15
6 0.14
7 0.27
9 0.46

> <PUBCHEM_EFFECTIVE_ROTOR_COUNT>
2.2

> <PUBCHEM_PHARMACOPHORE_FEATURES>
7
1 1 acceptor
1 21 hydrophobe
1 3 cation
5 4 14 15 16 19 rings
6 1 5 6 8 9 10 rings
6 16 19 20 22 23 24 rings
6 3 5 6 7 12 13 rings

> <PUBCHEM_HEAVY_ATOM_COUNT>
25

> <PUBCHEM_ATOM_DEF_STEREO_COUNT>
3

> <PUBCHEM_ATOM_UDEF_STEREO_COUNT>
1

> <PUBCHEM_BOND_DEF_STEREO_COUNT>
1

> <PUBCHEM_BOND_UDEF_STEREO_COUNT>
0

> <PUBCHEM_ISOTOPIC_ATOM_COUNT>
0

> <PUBCHEM_COMPONENT_COUNT>
1

> <PUBCHEM_CACTVS_TAUTO_COUNT>
1

> <PUBCHEM_CONFORMER_ID>
0614773B00000001

> <PUBCHEM_MMFF94_ENERGY>
96.3827

> <PUBCHEM_FEATURE_SELFOVERLAP>
35.667

> <PUBCHEM_SHAPE_FINGERPRINT>
10863032 1 18199188563002238969
11045977 3 18409732850614648043
11370993 144 18411981372930469074
11552529 35 18128252487662289339
12011746 2 18335419002924199039
12035758 1 18410572859996925938
12236239 1 16988837267889385479
12251169 10 18412265025466180607
12403259 327 18272941539324193869
12553582 1 18270668776260420564
12633257 1 18341899588550595243
12714826 92 17095516275736514495
12788726 201 17631745880321208720
12892183 10 18053104205388196883
13140716 1 18340205301114093258
13383661 66 13697882374758537416
13402501 40 18335423417771323178
13533116 47 18270676614486311783
13583140 156 17772754011898298065
14178342 30 18048874401019409771
14223421 5 18265043811852956318
14341114 176 18411706465227876760
14466204 15 18055357933711296449
14866123 147 16901874419843791594
14955137 171 17989213625203270372
15163728 17 15050629097449296243
15209289 33 18339078194342519955
15238133 3 18200607899027301008
15295992 7 17703219715061728011
15475509 84 18129670698711596481
15527383 91 18410577283702386153
16945 1 18060141998823528373
17804303 29 18410299098659912470
1813 80 17022627484988196999
19141452 34 18408606972156787675
20028762 73 18343863325504739887
20691752 17 17531799289628971578
21033648 29 18188755189950975877
21267235 1 18339648820257307838
21304304 249 18187375333255061123
21330990 113 18042413417634613799
21421861 104 17393917336720632443
21637258 2 15430042084450935747
21756936 100 17412743183180204232
23184049 59 18410862040445535151
23559900 14 18337667628562334688
23566358 27 18115598182821340308
2748010 2 18192128598871899124
335352 9 18411420574898237391
350125 39 18409168844331783124
463206 1 11530779131719626145
465052 167 17386872611270901803
5104073 3 18340763853189874242
59755656 520 14045732682436559629
6287921 2 18044661042703274580
7097593 13 18265619973173415365

> <PUBCHEM_SHAPE_MULTIPOLES>
492.79
9.66
2.92
1.44
1.13
0.11
-0.5
2.04
4.88
-1.17
0.84
0.87
-0.6
0.84

> <PUBCHEM_SHAPE_SELFOVERLAP>
1078.777

> <PUBCHEM_SHAPE_VOLUME>
266

> <PUBCHEM_COORDINATE_TYPE>
2
5
10

$$$$
