44259412
  -OEChem-09222010543D

 56 59  0     1  0  0  0  0  0999 V2000
    1.7767    0.8656   -0.3419 O   0  0  0  0  0  0  0  0  0  0  0  0
    0.0914    1.0093    1.2852 O   0  0  0  0  0  0  0  0  0  0  0  0
    3.0428    4.7255    0.4567 O   0  0  0  0  0  0  0  0  0  0  0  0
    3.7965    3.4371   -2.0170 O   0  0  0  0  0  0  0  0  0  0  0  0
    2.3843    2.4454    1.9221 O   0  0  0  0  0  0  0  0  0  0  0  0
    4.3557    0.0884   -1.0452 O   0  0  0  0  0  0  0  0  0  0  0  0
   -2.1080   -1.5204   -0.2486 O   0  0  0  0  0  0  0  0  0  0  0  0
   -2.3755    2.2888    1.1737 O   0  0  0  0  0  0  0  0  0  0  0  0
   -4.9153    2.3471    0.5563 O   0  0  0  0  0  0  0  0  0  0  0  0
   -6.7026   -1.5731   -1.4397 O   0  0  0  0  0  0  0  0  0  0  0  0
    3.6497   -4.0242    0.2185 O   0  0  0  0  0  0  0  0  0  0  0  0
    2.6479   -3.0742    2.6315 O   0  0  0  0  0  0  0  0  0  0  0  0
    2.2845    3.6845   -0.1528 C   0  0  1  0  0  0  0  0  0  0  0  0
    3.2317    2.7464   -0.9055 C   0  0  1  0  0  0  0  0  0  0  0  0
    1.4928    2.9212    0.9087 C   0  0  1  0  0  0  0  0  0  0  0  0
    2.4730    1.5119   -1.4125 C   0  0  1  0  0  0  0  0  0  0  0  0
    0.8043    1.7138    0.2732 C   0  0  1  0  0  0  0  0  0  0  0  0
    3.4192    0.4869   -2.0295 C   0  0  0  0  0  0  0  0  0  0  0  0
   -1.0267    0.3829    0.7785 C   0  0  0  0  0  0  0  0  0  0  0  0
   -1.0105   -0.8736    0.2975 C   0  0  0  0  0  0  0  0  0  0  0  0
   -2.2992    1.1435    0.7490 C   0  0  0  0  0  0  0  0  0  0  0  0
   -3.4633    0.4472    0.1803 C   0  0  0  0  0  0  0  0  0  0  0  0
   -3.3053   -0.8541   -0.2911 C   0  0  0  0  0  0  0  0  0  0  0  0
    0.2103   -1.6990    0.2799 C   0  0  0  0  0  0  0  0  0  0  0  0
   -4.7084    1.0770    0.1100 C   0  0  0  0  0  0  0  0  0  0  0  0
   -4.3939   -1.5355   -0.8364 C   0  0  0  0  0  0  0  0  0  0  0  0
    0.8634   -2.0028    1.4743 C   0  0  0  0  0  0  0  0  0  0  0  0
    0.7129   -2.1759   -0.9307 C   0  0  0  0  0  0  0  0  0  0  0  0
   -5.7955    0.3933   -0.4357 C   0  0  0  0  0  0  0  0  0  0  0  0
   -5.6389   -0.9104   -0.9079 C   0  0  0  0  0  0  0  0  0  0  0  0
    2.0191   -2.7839    1.4583 C   0  0  0  0  0  0  0  0  0  0  0  0
    1.8688   -2.9567   -0.9468 C   0  0  0  0  0  0  0  0  0  0  0  0
    2.5218   -3.2607    0.2477 C   0  0  0  0  0  0  0  0  0  0  0  0
    4.0964   -4.4712   -1.0601 C   0  0  0  0  0  0  0  0  0  0  0  0
    1.5978    4.1629   -0.8622 H   0  0  0  0  0  0  0  0  0  0  0  0
    4.0628    2.4692   -0.2474 H   0  0  0  0  0  0  0  0  0  0  0  0
    0.7732    3.5751    1.4120 H   0  0  0  0  0  0  0  0  0  0  0  0
    1.7472    1.7983   -2.1852 H   0  0  0  0  0  0  0  0  0  0  0  0
    0.1104    2.0766   -0.5001 H   0  0  0  0  0  0  0  0  0  0  0  0
    3.9576    0.9017   -2.8871 H   0  0  0  0  0  0  0  0  0  0  0  0
    2.8674   -0.4006   -2.3522 H   0  0  0  0  0  0  0  0  0  0  0  0
    2.4201    5.2985    0.9358 H   0  0  0  0  0  0  0  0  0  0  0  0
    3.0709    3.6983   -2.6094 H   0  0  0  0  0  0  0  0  0  0  0  0
    2.9070    1.7145    1.5516 H   0  0  0  0  0  0  0  0  0  0  0  0
    4.9332   -0.5795   -1.4525 H   0  0  0  0  0  0  0  0  0  0  0  0
   -4.2741   -2.5511   -1.2053 H   0  0  0  0  0  0  0  0  0  0  0  0
    0.4725   -1.6401    2.4227 H   0  0  0  0  0  0  0  0  0  0  0  0
    0.2180   -1.9435   -1.8707 H   0  0  0  0  0  0  0  0  0  0  0  0
   -6.7654    0.8823   -0.4909 H   0  0  0  0  0  0  0  0  0  0  0  0
    2.2023   -3.2900   -1.9234 H   0  0  0  0  0  0  0  0  0  0  0  0
   -4.0955    2.7199    0.9148 H   0  0  0  0  0  0  0  0  0  0  0  0
   -7.4826   -0.9928   -1.4104 H   0  0  0  0  0  0  0  0  0  0  0  0
    2.1602   -2.6603    3.3641 H   0  0  0  0  0  0  0  0  0  0  0  0
    5.0026   -5.0636   -0.8958 H   0  0  0  0  0  0  0  0  0  0  0  0
    4.3782   -3.6317   -1.7049 H   0  0  0  0  0  0  0  0  0  0  0  0
    3.3648   -5.1343   -1.5344 H   0  0  0  0  0  0  0  0  0  0  0  0
  1 16  1  0  0  0  0
  1 17  1  0  0  0  0
  2 17  1  0  0  0  0
  2 19  1  0  0  0  0
  3 13  1  0  0  0  0
  3 42  1  0  0  0  0
  4 14  1  0  0  0  0
  4 43  1  0  0  0  0
  5 15  1  0  0  0  0
  5 44  1  0  0  0  0
  6 18  1  0  0  0  0
  6 45  1  0  0  0  0
  7 20  1  0  0  0  0
  7 23  1  0  0  0  0
  8 21  2  0  0  0  0
  9 25  1  0  0  0  0
  9 51  1  0  0  0  0
 10 30  1  0  0  0  0
 10 52  1  0  0  0  0
 11 33  1  0  0  0  0
 11 34  1  0  0  0  0
 12 31  1  0  0  0  0
 12 53  1  0  0  0  0
 13 14  1  0  0  0  0
 13 15  1  0  0  0  0
 13 35  1  0  0  0  0
 14 16  1  0  0  0  0
 14 36  1  0  0  0  0
 15 17  1  0  0  0  0
 15 37  1  0  0  0  0
 16 18  1  0  0  0  0
 16 38  1  0  0  0  0
 17 39  1  0  0  0  0
 18 40  1  0  0  0  0
 18 41  1  0  0  0  0
 19 20  2  0  0  0  0
 19 21  1  0  0  0  0
 20 24  1  0  0  0  0
 21 22  1  0  0  0  0
 22 23  1  0  0  0  0
 22 25  2  0  0  0  0
 23 26  2  0  0  0  0
 24 27  2  0  0  0  0
 24 28  1  0  0  0  0
 25 29  1  0  0  0  0
 26 30  1  0  0  0  0
 26 46  1  0  0  0  0
 27 31  1  0  0  0  0
 27 47  1  0  0  0  0
 28 32  2  0  0  0  0
 28 48  1  0  0  0  0
 29 30  2  0  0  0  0
 29 49  1  0  0  0  0
 31 33  2  0  0  0  0
 32 33  1  0  0  0  0
 32 50  1  0  0  0  0
 34 54  1  0  0  0  0
 34 55  1  0  0  0  0
 34 56  1  0  0  0  0
M  END
> <PUBCHEM_COMPOUND_CID>
44259412

> <PUBCHEM_CONFORMER_RMSD>
0.8

> <PUBCHEM_CONFORMER_DIVERSEORDER>
2
96
161
102
119
120
164
76
59
87
139
82
124
48
47
160
18
140
115
93
157
101
118
134
168
158
167
110
162
163
123
16
92
79
46
132
49
159
141
145
32
142
148
26
113
130
127
37
66
155
13
146
131
144
105
72
17
31
122
53
75
28
154
136
116
45
126
85
149
147
5
125
117
36
97
165
121
9
15
7
88
70
23
71
27
109
58
57
73
11
90
33
104
62
166
10
103
106
94
52
34
153
137
143
67
114
129
99
135
80
35
128
19
56
89
14
1
44
21
3
68
100
133
60
84
6
64
55
107
12
43
4
150
61
108
78
22
98
20
169
91
77
54
38
40
95
39
151
51
42
8
111
65
86
63
83
138
50
30
81
74
41
29
112
156
69
24
152
25

> <PUBCHEM_MMFF94_PARTIAL_CHARGES>
46
1 -0.56
10 -0.53
11 -0.36
12 -0.53
13 0.28
14 0.28
15 0.28
16 0.28
17 0.56
18 0.28
19 0.09
2 -0.36
20 0.05
21 0.47
22 0.09
23 0.08
24 0.03
25 0.08
26 -0.15
27 -0.15
28 -0.15
29 -0.15
3 -0.68
30 0.08
31 0.08
32 -0.15
33 0.08
34 0.28
4 -0.68
42 0.4
43 0.4
44 0.4
45 0.4
46 0.15
47 0.15
48 0.15
49 0.15
5 -0.68
50 0.15
51 0.45
52 0.45
53 0.45
6 -0.68
7 -0.16
8 -0.57
9 -0.53

> <PUBCHEM_EFFECTIVE_ROTOR_COUNT>
6.2

> <PUBCHEM_PHARMACOPHORE_FEATURES>
20
1 1 acceptor
1 10 donor
1 11 acceptor
1 12 donor
1 2 acceptor
1 3 acceptor
1 3 donor
1 4 acceptor
1 4 donor
1 5 acceptor
1 5 donor
1 6 acceptor
1 6 donor
1 7 acceptor
1 8 acceptor
1 9 donor
6 1 13 14 15 16 17 rings
6 22 23 25 26 29 30 rings
6 24 27 28 31 32 33 rings
6 7 19 20 21 22 23 rings

> <PUBCHEM_HEAVY_ATOM_COUNT>
34

> <PUBCHEM_ATOM_DEF_STEREO_COUNT>
3

> <PUBCHEM_ATOM_UDEF_STEREO_COUNT>
2

> <PUBCHEM_BOND_DEF_STEREO_COUNT>
0

> <PUBCHEM_BOND_UDEF_STEREO_COUNT>
0

> <PUBCHEM_ISOTOPIC_ATOM_COUNT>
0

> <PUBCHEM_COMPONENT_COUNT>
1

> <PUBCHEM_CACTVS_TAUTO_COUNT>
36

> <PUBCHEM_CONFORMER_ID>
02A3585400000002

> <PUBCHEM_MMFF94_ENERGY>
117.0195

> <PUBCHEM_FEATURE_SELFOVERLAP>
101.609

> <PUBCHEM_SHAPE_FINGERPRINT>
10190108 129 17618510217835934119
10305334 12 16761645408007596360
10554248 39 18267841975374160517
10653451 467 17183360945510861411
10675989 125 18340773757316542512
10721379 63 18410012126304430507
10930396 42 18270662252933436680
10940486 97 17984422936834151845
11578080 2 17677038033028876309
12156800 1 14976540915793278668
12788726 201 17541383436135987298
13004483 165 17469598516660224642
133893 2 18333737887988889873
13540713 5 18202285789127681033
140371 6 17913491238671986219
14068700 675 18049163259641702758
14114211 68 18191042272841558245
14117953 113 17693939597228621253
14955137 171 18050587144162881211
15775530 1 18115609147714981595
1813 80 18193263101324559067
18681886 176 18341610357022060838
19026451 147 18339645534159245614
20567600 347 18264200499097847203
21344244 246 18411703188463644790
22393880 68 18343303682554160933
23366157 5 18334286561729501579
23559900 14 18271232825767960027
23576562 1 18190740830968278837
238 59 18268727149925386994
249057 3 18051410670288630349
25147074 1 18271531897394097945
340366 18 18051129186500660025
3504750 166 17036399684519395058
4017518 198 18199185282428011556
4046055 25 17908144278729089582
4058900 60 18042700557715405500
463206 1 18264784181085298370
513532 50 18060699485953153726
5895379 119 17772478897804822281
6669772 16 18127406976453012956
6700243 42 17268369223535651454
67856867 119 18410001148779543331
7471813 234 18046914779515730542
9981440 41 18121214543876132153

> <PUBCHEM_SHAPE_MULTIPOLES>
629.27
10.83
5.84
1.68
17.46
0.47
-0.22
-1.64
4.63
-10.16
-0.28
-1.51
-0.2
-2.03

> <PUBCHEM_SHAPE_SELFOVERLAP>
1381.281

> <PUBCHEM_SHAPE_VOLUME>
336

> <PUBCHEM_COORDINATE_TYPE>
2
5
10

$$$$
