5318224
  -OEChem-09202014083D

 53 57  0     1  0  0  0  0  0999 V2000
    0.1594   -0.8096   -2.1788 O   0  0  0  0  0  0  0  0  0  0  0  0
   -0.1914    2.6670    0.6021 O   0  0  0  0  0  0  0  0  0  0  0  0
   -3.0877    2.7171    0.7125 O   0  0  0  0  0  0  0  0  0  0  0  0
   -5.6642   -1.8254    0.1567 O   0  0  0  0  0  0  0  0  0  0  0  0
    2.8675   -1.1954    1.5061 N   0  0  1  0  0  0  0  0  0  0  0  0
   -2.2676    1.6451    0.3897 N   0  0  0  0  0  0  0  0  0  0  0  0
    2.1101   -1.4263   -0.7691 C   0  0  2  0  0  0  0  0  0  0  0  0
   -0.3981    0.2492   -0.0151 C   0  0  2  0  0  0  0  0  0  0  0  0
    1.6241   -1.3256    0.6995 C   0  0  2  0  0  0  0  0  0  0  0  0
    2.7509   -0.1181   -1.2276 C   0  0  1  0  0  0  0  0  0  0  0  0
    0.2311    0.3996   -1.4285 C   0  0  1  0  0  0  0  0  0  0  0  0
    0.5797   -0.2345    1.0646 C   0  0  0  0  0  0  0  0  0  0  0  0
    1.6746    0.9622   -1.4301 C   0  0  0  0  0  0  0  0  0  0  0  0
    1.0429   -1.8422   -1.7745 C   0  0  0  0  0  0  0  0  0  0  0  0
    3.8612    0.2683   -0.2705 C   0  0  0  0  0  0  0  0  0  0  0  0
   -1.7277   -0.5088    0.0037 C   0  0  0  0  0  0  0  0  0  0  0  0
    3.6238    0.0368    1.2082 C   0  0  0  0  0  0  0  0  0  0  0  0
   -0.8977    1.6954    0.3762 C   0  0  0  0  0  0  0  0  0  0  0  0
   -2.7885    0.3807    0.2062 C   0  0  0  0  0  0  0  0  0  0  0  0
    2.6431   -1.3500    2.9407 C   0  0  0  0  0  0  0  0  0  0  0  0
    5.0354    0.7395   -0.7200 C   0  0  0  0  0  0  0  0  0  0  0  0
   -1.9970   -1.8644   -0.0837 C   0  0  0  0  0  0  0  0  0  0  0  0
   -4.1122   -0.0186    0.2613 C   0  0  0  0  0  0  0  0  0  0  0  0
   -3.3279   -2.2963   -0.0314 C   0  0  0  0  0  0  0  0  0  0  0  0
    6.1883    1.0721    0.1617 C   0  0  0  0  0  0  0  0  0  0  0  0
   -4.3779   -1.3796    0.1297 C   0  0  0  0  0  0  0  0  0  0  0  0
   -3.5541    3.3619   -0.4894 C   0  0  0  0  0  0  0  0  0  0  0  0
    2.8705   -2.2232   -0.8002 H   0  0  0  0  0  0  0  0  0  0  0  0
    1.1730   -2.2987    0.9383 H   0  0  0  0  0  0  0  0  0  0  0  0
    3.2003   -0.3095   -2.2138 H   0  0  0  0  0  0  0  0  0  0  0  0
   -0.3826    1.1141   -1.9941 H   0  0  0  0  0  0  0  0  0  0  0  0
    0.0178   -0.5851    1.9432 H   0  0  0  0  0  0  0  0  0  0  0  0
    1.0989    0.6523    1.4417 H   0  0  0  0  0  0  0  0  0  0  0  0
    1.7822    1.7852   -0.7162 H   0  0  0  0  0  0  0  0  0  0  0  0
    1.8549    1.4107   -2.4172 H   0  0  0  0  0  0  0  0  0  0  0  0
    1.5356   -2.1899   -2.6909 H   0  0  0  0  0  0  0  0  0  0  0  0
    0.4705   -2.7003   -1.4160 H   0  0  0  0  0  0  0  0  0  0  0  0
    4.5765   -0.0590    1.7399 H   0  0  0  0  0  0  0  0  0  0  0  0
    3.1310    0.9239    1.6227 H   0  0  0  0  0  0  0  0  0  0  0  0
    2.0688   -0.5231    3.3717 H   0  0  0  0  0  0  0  0  0  0  0  0
    3.6001   -1.4084    3.4712 H   0  0  0  0  0  0  0  0  0  0  0  0
    2.1136   -2.2856    3.1507 H   0  0  0  0  0  0  0  0  0  0  0  0
    5.1906    0.8626   -1.7889 H   0  0  0  0  0  0  0  0  0  0  0  0
   -1.2091   -2.5996   -0.1715 H   0  0  0  0  0  0  0  0  0  0  0  0
   -4.9127    0.6962    0.4175 H   0  0  0  0  0  0  0  0  0  0  0  0
   -3.5448   -3.3589   -0.1124 H   0  0  0  0  0  0  0  0  0  0  0  0
    6.7818    0.1786    0.3768 H   0  0  0  0  0  0  0  0  0  0  0  0
    5.8873    1.5530    1.0969 H   0  0  0  0  0  0  0  0  0  0  0  0
    6.8401    1.7864   -0.3535 H   0  0  0  0  0  0  0  0  0  0  0  0
   -4.1636    2.6768   -1.0855 H   0  0  0  0  0  0  0  0  0  0  0  0
   -2.7039    3.7245   -1.0753 H   0  0  0  0  0  0  0  0  0  0  0  0
   -4.1696    4.2156   -0.1944 H   0  0  0  0  0  0  0  0  0  0  0  0
   -6.2590   -1.0645    0.2721 H   0  0  0  0  0  0  0  0  0  0  0  0
  1 11  1  0  0  0  0
  1 14  1  0  0  0  0
  2 18  2  0  0  0  0
  3  6  1  0  0  0  0
  3 27  1  0  0  0  0
  4 26  1  0  0  0  0
  4 53  1  0  0  0  0
  5  9  1  0  0  0  0
  5 17  1  0  0  0  0
  5 20  1  0  0  0  0
  6 18  1  0  0  0  0
  6 19  1  0  0  0  0
  7  9  1  0  0  0  0
  7 10  1  0  0  0  0
  7 14  1  0  0  0  0
  7 28  1  0  0  0  0
  8 11  1  0  0  0  0
  8 12  1  0  0  0  0
  8 16  1  0  0  0  0
  8 18  1  0  0  0  0
  9 12  1  0  0  0  0
  9 29  1  0  0  0  0
 10 13  1  0  0  0  0
 10 15  1  0  0  0  0
 10 30  1  0  0  0  0
 11 13  1  0  0  0  0
 11 31  1  0  0  0  0
 12 32  1  0  0  0  0
 12 33  1  0  0  0  0
 13 34  1  0  0  0  0
 13 35  1  0  0  0  0
 14 36  1  0  0  0  0
 14 37  1  0  0  0  0
 15 17  1  0  0  0  0
 15 21  2  0  0  0  0
 16 19  2  0  0  0  0
 16 22  1  0  0  0  0
 17 38  1  0  0  0  0
 17 39  1  0  0  0  0
 19 23  1  0  0  0  0
 20 40  1  0  0  0  0
 20 41  1  0  0  0  0
 20 42  1  0  0  0  0
 21 25  1  0  0  0  0
 21 43  1  0  0  0  0
 22 24  2  0  0  0  0
 22 44  1  0  0  0  0
 23 26  2  0  0  0  0
 23 45  1  0  0  0  0
 24 26  1  0  0  0  0
 24 46  1  0  0  0  0
 25 47  1  0  0  0  0
 25 48  1  0  0  0  0
 25 49  1  0  0  0  0
 27 50  1  0  0  0  0
 27 51  1  0  0  0  0
 27 52  1  0  0  0  0
M  END
> <PUBCHEM_COMPOUND_CID>
5318224

> <PUBCHEM_CONFORMER_RMSD>
0.6

> <PUBCHEM_CONFORMER_DIVERSEORDER>
3
7
6
15
5
17
14
9
10
1
8
4
12
13
2
11
16

> <PUBCHEM_MMFF94_PARTIAL_CHARGES>
29
1 -0.56
10 0.14
11 0.28
14 0.28
15 -0.28
16 -0.14
17 0.41
18 0.57
19 0.12
2 -0.57
20 0.27
21 -0.29
22 -0.15
23 -0.15
24 -0.15
25 0.14
26 0.08
27 0.28
3 -0.32
4 -0.53
43 0.15
44 0.15
45 0.15
46 0.15
5 -0.81
53 0.45
6 -0.14
8 0.2
9 0.27

> <PUBCHEM_EFFECTIVE_ROTOR_COUNT>
2.4

> <PUBCHEM_PHARMACOPHORE_FEATURES>
9
1 1 acceptor
1 2 acceptor
1 25 hydrophobe
1 4 donor
1 5 cation
5 6 8 16 18 19 rings
6 16 19 22 23 24 26 rings
6 5 7 9 10 15 17 rings
9 1 7 8 9 10 11 12 13 14 rings

> <PUBCHEM_HEAVY_ATOM_COUNT>
27

> <PUBCHEM_ATOM_DEF_STEREO_COUNT>
0

> <PUBCHEM_ATOM_UDEF_STEREO_COUNT>
5

> <PUBCHEM_BOND_DEF_STEREO_COUNT>
1

> <PUBCHEM_BOND_UDEF_STEREO_COUNT>
0

> <PUBCHEM_ISOTOPIC_ATOM_COUNT>
0

> <PUBCHEM_COMPONENT_COUNT>
1

> <PUBCHEM_CACTVS_TAUTO_COUNT>
3

> <PUBCHEM_CONFORMER_ID>
0051265000000003

> <PUBCHEM_MMFF94_ENERGY>
111.1932

> <PUBCHEM_FEATURE_SELFOVERLAP>
45.954

> <PUBCHEM_SHAPE_FINGERPRINT>
10165383 225 16988289775971817814
10366900 7 17703784825647709147
10498660 4 18272093738766467288
10863032 1 18270971128878023886
10906281 52 18197804239345352255
10948715 1 18341618096900248606
11578080 2 17344936047538343241
11595378 159 18260832570728539617
11640471 11 17896054177586408804
12011746 2 17917711335507375295
12107183 9 17757262691910812818
12236239 1 18040715878728455762
12403259 415 17203604895818142424
12553582 1 18341889753555866391
12788726 201 18408322194513425907
12969540 114 16559024987369215596
13140716 1 17912931870441792855
13224815 77 18411421691441885003
13583140 156 17702079427141362346
13726171 33 18272661129700580672
13782708 43 17418382376423449886
13965767 371 17680999491339826356
14341114 328 18333731312773819760
14787075 74 18189618431026719236
16752209 62 18410576137663503823
16945 1 18272642454823418047
16988056 13 15451130300718356197
17349148 13 16660365913054444760
17980427 23 18188220874154088476
20511986 3 17894897517181866313
20715895 44 17756416063837427565
21033648 29 17060049337580454256
22149856 69 17691146851123084033
22182313 1 17846511295935184092
23402539 116 18410575132008219191
23419403 2 17900784375593965213
23493267 7 18271247123297006202
23557571 272 18201728335698384457
23559900 14 17912086053768456894
3633792 109 17531511110599065679
3797600 57 18411132541981076424
392239 28 18043540618884769264
439807 62 16952259961584448811
474 4 17458635557308829844
5104073 3 18270973327648215074
58260988 393 18333735736152362465
6442390 28 17560797783921009822
7097593 13 17756410583194991810
9849439 229 17836368142915550193
9999458 23 15410619224109453266

> <PUBCHEM_SHAPE_MULTIPOLES>
522.21
9.77
2.71
1.7
2.12
1.65
0.33
0.42
1.09
-3.31
0.21
1.74
-0.7
-0.75

> <PUBCHEM_SHAPE_SELFOVERLAP>
1147.007

> <PUBCHEM_SHAPE_VOLUME>
274.6

> <PUBCHEM_COORDINATE_TYPE>
2
5
10

$$$$
