44593672
  -OEChem-09202014073D

 52 56  0     1  0  0  0  0  0999 V2000
    0.0175    2.3340    1.3081 O   0  0  0  0  0  0  0  0  0  0  0  0
    0.3988   -1.8919   -0.2261 O   0  0  0  0  0  0  0  0  0  0  0  0
   -2.2809   -2.9348   -0.2247 O   0  0  0  0  0  0  0  0  0  0  0  0
    2.1955   -0.0876   -1.6456 N   0  0  2  0  0  0  0  0  0  0  0  0
   -1.9008   -1.6076   -0.0855 N   0  0  0  0  0  0  0  0  0  0  0  0
    2.0814    1.8679   -0.0144 C   0  0  2  0  0  0  0  0  0  0  0  0
   -0.6251    0.3793   -0.0384 C   0  0  2  0  0  0  0  0  0  0  0  0
    1.5290    1.1900   -1.3053 C   0  0  2  0  0  0  0  0  0  0  0  0
    2.4862    0.8539    1.0655 C   0  0  1  0  0  0  0  0  0  0  0  0
   -0.0723    0.9033    1.3141 C   0  0  1  0  0  0  0  0  0  0  0  0
   -0.0039    1.0107   -1.2996 C   0  0  0  0  0  0  0  0  0  0  0  0
    1.2559    0.3102    1.8035 C   0  0  0  0  0  0  0  0  0  0  0  0
    1.1194    2.8931    0.5946 C   0  0  0  0  0  0  0  0  0  0  0  0
    3.3774   -0.2266    0.4931 C   0  0  0  0  0  0  0  0  0  0  0  0
    3.5049   -0.2496   -1.0078 C   0  0  0  0  0  0  0  0  0  0  0  0
   -2.1461    0.6265   -0.0717 C   0  0  0  0  0  0  0  0  0  0  0  0
   -0.5943   -1.1879   -0.1268 C   0  0  0  0  0  0  0  0  0  0  0  0
   -2.8313   -0.5894   -0.0962 C   0  0  0  0  0  0  0  0  0  0  0  0
    2.3030   -0.2816   -3.0931 C   0  0  0  0  0  0  0  0  0  0  0  0
    4.0310   -1.1007    1.2746 C   0  0  0  0  0  0  0  0  0  0  0  0
   -2.8547    1.8187   -0.0739 C   0  0  0  0  0  0  0  0  0  0  0  0
   -4.2106   -0.6703   -0.1288 C   0  0  0  0  0  0  0  0  0  0  0  0
   -4.2518    1.7630   -0.1052 C   0  0  0  0  0  0  0  0  0  0  0  0
    4.9336   -2.1649    0.7548 C   0  0  0  0  0  0  0  0  0  0  0  0
   -4.9236    0.5288   -0.1328 C   0  0  0  0  0  0  0  0  0  0  0  0
   -2.5381   -3.4865    1.0677 C   0  0  0  0  0  0  0  0  0  0  0  0
    2.9870    2.4163   -0.3157 H   0  0  0  0  0  0  0  0  0  0  0  0
    1.7447    1.9089   -2.1106 H   0  0  0  0  0  0  0  0  0  0  0  0
    3.0930    1.4024    1.8023 H   0  0  0  0  0  0  0  0  0  0  0  0
   -0.8069    0.6587    2.0941 H   0  0  0  0  0  0  0  0  0  0  0  0
   -0.3172    0.4409   -2.1854 H   0  0  0  0  0  0  0  0  0  0  0  0
   -0.4381    2.0065   -1.4658 H   0  0  0  0  0  0  0  0  0  0  0  0
    1.3698    0.6070    2.8566 H   0  0  0  0  0  0  0  0  0  0  0  0
    1.2199   -0.7830    1.8261 H   0  0  0  0  0  0  0  0  0  0  0  0
    1.6636    3.5208    1.3101 H   0  0  0  0  0  0  0  0  0  0  0  0
    0.7276    3.5733   -0.1694 H   0  0  0  0  0  0  0  0  0  0  0  0
    3.9278   -1.1992   -1.3508 H   0  0  0  0  0  0  0  0  0  0  0  0
    4.1964    0.5406   -1.3291 H   0  0  0  0  0  0  0  0  0  0  0  0
    2.9620    0.4609   -3.5574 H   0  0  0  0  0  0  0  0  0  0  0  0
    2.6970   -1.2789   -3.3192 H   0  0  0  0  0  0  0  0  0  0  0  0
    1.3237   -0.2222   -3.5785 H   0  0  0  0  0  0  0  0  0  0  0  0
    3.9044   -1.0508    2.3531 H   0  0  0  0  0  0  0  0  0  0  0  0
   -2.3494    2.7780   -0.0540 H   0  0  0  0  0  0  0  0  0  0  0  0
   -4.7324   -1.6200   -0.1539 H   0  0  0  0  0  0  0  0  0  0  0  0
   -4.8267    2.6854   -0.1088 H   0  0  0  0  0  0  0  0  0  0  0  0
    5.5737   -1.8173   -0.0613 H   0  0  0  0  0  0  0  0  0  0  0  0
    5.6061   -2.4901    1.5562 H   0  0  0  0  0  0  0  0  0  0  0  0
    4.3582   -3.0375    0.4317 H   0  0  0  0  0  0  0  0  0  0  0  0
   -6.0099    0.5106   -0.1582 H   0  0  0  0  0  0  0  0  0  0  0  0
   -1.6429   -3.4249    1.6950 H   0  0  0  0  0  0  0  0  0  0  0  0
   -3.3762   -2.9796    1.5549 H   0  0  0  0  0  0  0  0  0  0  0  0
   -2.7991   -4.5406    0.9394 H   0  0  0  0  0  0  0  0  0  0  0  0
  1 10  1  0  0  0  0
  1 13  1  0  0  0  0
  2 17  2  0  0  0  0
  3  5  1  0  0  0  0
  3 26  1  0  0  0  0
  4  8  1  0  0  0  0
  4 15  1  0  0  0  0
  4 19  1  0  0  0  0
  5 17  1  0  0  0  0
  5 18  1  0  0  0  0
  6  8  1  0  0  0  0
  6  9  1  0  0  0  0
  6 13  1  0  0  0  0
  6 27  1  0  0  0  0
  7 10  1  0  0  0  0
  7 11  1  0  0  0  0
  7 16  1  0  0  0  0
  7 17  1  0  0  0  0
  8 11  1  0  0  0  0
  8 28  1  0  0  0  0
  9 12  1  0  0  0  0
  9 14  1  0  0  0  0
  9 29  1  0  0  0  0
 10 12  1  0  0  0  0
 10 30  1  0  0  0  0
 11 31  1  0  0  0  0
 11 32  1  0  0  0  0
 12 33  1  0  0  0  0
 12 34  1  0  0  0  0
 13 35  1  0  0  0  0
 13 36  1  0  0  0  0
 14 15  1  0  0  0  0
 14 20  2  0  0  0  0
 15 37  1  0  0  0  0
 15 38  1  0  0  0  0
 16 18  1  0  0  0  0
 16 21  2  0  0  0  0
 18 22  2  0  0  0  0
 19 39  1  0  0  0  0
 19 40  1  0  0  0  0
 19 41  1  0  0  0  0
 20 24  1  0  0  0  0
 20 42  1  0  0  0  0
 21 23  1  0  0  0  0
 21 43  1  0  0  0  0
 22 25  1  0  0  0  0
 22 44  1  0  0  0  0
 23 25  2  0  0  0  0
 23 45  1  0  0  0  0
 24 46  1  0  0  0  0
 24 47  1  0  0  0  0
 24 48  1  0  0  0  0
 25 49  1  0  0  0  0
 26 50  1  0  0  0  0
 26 51  1  0  0  0  0
 26 52  1  0  0  0  0
M  END
> <PUBCHEM_COMPOUND_CID>
44593672

> <PUBCHEM_CONFORMER_RMSD>
0.6

> <PUBCHEM_CONFORMER_DIVERSEORDER>
1
2
3
4

> <PUBCHEM_MMFF94_PARTIAL_CHARGES>
28
1 -0.56
10 0.28
13 0.28
14 -0.28
15 0.41
16 -0.14
17 0.57
18 0.12
19 0.27
2 -0.57
20 -0.29
21 -0.15
22 -0.15
23 -0.15
24 0.14
25 -0.15
26 0.28
3 -0.32
4 -0.81
42 0.15
43 0.15
44 0.15
45 0.15
49 0.15
5 -0.14
7 0.2
8 0.27
9 0.14

> <PUBCHEM_EFFECTIVE_ROTOR_COUNT>
2.4

> <PUBCHEM_PHARMACOPHORE_FEATURES>
8
1 1 acceptor
1 2 acceptor
1 24 hydrophobe
1 4 cation
5 5 7 16 17 18 rings
6 16 18 21 22 23 25 rings
6 4 6 8 9 14 15 rings
9 1 6 7 8 9 10 11 12 13 rings

> <PUBCHEM_HEAVY_ATOM_COUNT>
26

> <PUBCHEM_ATOM_DEF_STEREO_COUNT>
5

> <PUBCHEM_ATOM_UDEF_STEREO_COUNT>
0

> <PUBCHEM_BOND_DEF_STEREO_COUNT>
1

> <PUBCHEM_BOND_UDEF_STEREO_COUNT>
0

> <PUBCHEM_ISOTOPIC_ATOM_COUNT>
0

> <PUBCHEM_COMPONENT_COUNT>
1

> <PUBCHEM_CACTVS_TAUTO_COUNT>
1

> <PUBCHEM_CONFORMER_ID>
02A8720800000001

> <PUBCHEM_MMFF94_ENERGY>
105.6191

> <PUBCHEM_FEATURE_SELFOVERLAP>
40.878

> <PUBCHEM_SHAPE_FINGERPRINT>
10759866 29 18263087776414718028
10863032 1 18337667624441265272
10906281 52 17846508010612646288
10948715 1 18050848016282004384
12236239 1 17894633612895336008
12403259 226 18340476872597995169
12403260 363 18271235097763338157
12633257 1 18343871021699998819
12788726 201 18059863809623906568
12930653 34 17907562976443202784
13134695 92 16630812096909209336
13140716 1 18267586986775110907
13583140 156 17700961395609260152
14115302 16 18334861588972579850
14223421 5 17979631561286376225
15163728 17 17318754717313917692
16945 1 18270135533989208629
17349148 13 17775283863430927569
17492 89 18190176986875896771
17804303 29 18410289224788594177
1813 80 17023174969360366858
20600515 1 18412261710126422796
20691752 17 17983876500692789585
20905425 154 17841153251213516590
21285901 2 17703514272646621781
21781051 124 18114477721039478651
23184049 29 18267301126188313343
23559900 14 18202014205038575756
335352 9 18339635660118492181
3380486 77 18337962168745118248
350125 39 18408884002322147937
463206 1 18114738244633262162
5104073 3 18271527589294032681
7226269 152 18059571321997380665
81228 2 17558010371388510032
9709674 26 18199467838939817919
9981440 41 16958743883904444380

> <PUBCHEM_SHAPE_MULTIPOLES>
507.5
8.04
2.96
1.71
1.81
1.52
-0.98
2.37
0.43
1.18
0.89
-1.87
-0.15
-0.09

> <PUBCHEM_SHAPE_SELFOVERLAP>
1115.095

> <PUBCHEM_SHAPE_VOLUME>
268.1

> <PUBCHEM_COORDINATE_TYPE>
2
5
10

$$$$
