11962104
  -OEChem-09202016113D

 52 56  0     1  0  0  0  0  0999 V2000
   -0.1219    2.2870   -0.2699 O   0  0  0  0  0  0  0  0  0  0  0  0
   -2.0031    0.9120   -1.9222 O   0  0  0  0  0  0  0  0  0  0  0  0
    0.1341   -2.1833    0.4204 O   0  0  0  0  0  0  0  0  0  0  0  0
    2.7123   -2.8276   -0.6471 O   0  0  0  0  0  0  0  0  0  0  0  0
   -3.8746   -0.4283   -1.6997 O   0  0  0  0  0  0  0  0  0  0  0  0
   -1.5964   -0.7102    2.3367 N   0  0  0  0  0  0  0  0  0  0  0  0
    2.2864   -1.5831   -0.2050 N   0  0  0  0  0  0  0  0  0  0  0  0
   -1.7839    1.4997    1.4134 C   0  0  1  0  0  0  0  0  0  0  0  0
   -2.3372    0.4992    0.4158 C   0  0  1  0  0  0  0  0  0  0  0  0
    0.8962    0.1962    0.4934 C   0  0  2  0  0  0  0  0  0  0  0  0
   -0.0089    0.8875   -0.5635 C   0  0  1  0  0  0  0  0  0  0  0  0
   -0.9339    0.6145    2.3311 C   0  0  2  0  0  0  0  0  0  0  0  0
   -1.4093    0.2881   -0.7760 C   0  0  2  0  0  0  0  0  0  0  0  0
    0.5482    0.4755    1.9727 C   0  0  0  0  0  0  0  0  0  0  0  0
   -1.0494    2.6516    0.7463 C   0  0  0  0  0  0  0  0  0  0  0  0
   -2.3725   -0.7164    1.2971 C   0  0  0  0  0  0  0  0  0  0  0  0
    2.3567    0.6192    0.2376 C   0  0  0  0  0  0  0  0  0  0  0  0
    1.0086   -1.3505    0.2394 C   0  0  0  0  0  0  0  0  0  0  0  0
    3.1123   -0.4790   -0.1763 C   0  0  0  0  0  0  0  0  0  0  0  0
   -3.2365   -1.8877    0.9557 C   0  0  0  0  0  0  0  0  0  0  0  0
    2.9571    1.8641    0.3542 C   0  0  0  0  0  0  0  0  0  0  0  0
    4.4580   -0.3909   -0.4794 C   0  0  0  0  0  0  0  0  0  0  0  0
   -4.5957   -1.7490    1.6076 C   0  0  0  0  0  0  0  0  0  0  0  0
   -3.2357    0.4491   -2.2627 C   0  0  0  0  0  0  0  0  0  0  0  0
    4.3178    1.9796    0.0517 C   0  0  0  0  0  0  0  0  0  0  0  0
    5.0616    0.8613   -0.3616 C   0  0  0  0  0  0  0  0  0  0  0  0
   -3.7673    1.1535   -3.4573 C   0  0  0  0  0  0  0  0  0  0  0  0
    2.4770   -2.9319   -2.0524 C   0  0  0  0  0  0  0  0  0  0  0  0
   -2.6098    1.9063    2.0146 H   0  0  0  0  0  0  0  0  0  0  0  0
   -3.3575    0.8047    0.1733 H   0  0  0  0  0  0  0  0  0  0  0  0
    0.4983    0.8438   -1.5376 H   0  0  0  0  0  0  0  0  0  0  0  0
   -0.9915    1.0148    3.3516 H   0  0  0  0  0  0  0  0  0  0  0  0
   -1.3099   -0.7729   -1.0296 H   0  0  0  0  0  0  0  0  0  0  0  0
    1.0271    1.4122    2.2889 H   0  0  0  0  0  0  0  0  0  0  0  0
    0.9940   -0.3018    2.6092 H   0  0  0  0  0  0  0  0  0  0  0  0
   -1.7799    3.3178    0.2730 H   0  0  0  0  0  0  0  0  0  0  0  0
   -0.5167    3.2543    1.4898 H   0  0  0  0  0  0  0  0  0  0  0  0
   -3.3179   -2.0201   -0.1218 H   0  0  0  0  0  0  0  0  0  0  0  0
   -2.7494   -2.7909    1.3423 H   0  0  0  0  0  0  0  0  0  0  0  0
    2.3968    2.7359    0.6739 H   0  0  0  0  0  0  0  0  0  0  0  0
    5.0330   -1.2535   -0.7959 H   0  0  0  0  0  0  0  0  0  0  0  0
   -5.1214   -0.8637    1.2346 H   0  0  0  0  0  0  0  0  0  0  0  0
   -4.5057   -1.6480    2.6944 H   0  0  0  0  0  0  0  0  0  0  0  0
   -5.2128   -2.6275    1.3956 H   0  0  0  0  0  0  0  0  0  0  0  0
    4.8075    2.9461    0.1376 H   0  0  0  0  0  0  0  0  0  0  0  0
    6.1179    0.9751   -0.5904 H   0  0  0  0  0  0  0  0  0  0  0  0
   -3.1043    0.9889   -4.3104 H   0  0  0  0  0  0  0  0  0  0  0  0
   -3.8605    2.2219   -3.2463 H   0  0  0  0  0  0  0  0  0  0  0  0
   -4.7577    0.7623   -3.7077 H   0  0  0  0  0  0  0  0  0  0  0  0
    1.4103   -2.8249   -2.2740 H   0  0  0  0  0  0  0  0  0  0  0  0
    2.8002   -3.9249   -2.3767 H   0  0  0  0  0  0  0  0  0  0  0  0
    3.0554   -2.1829   -2.6020 H   0  0  0  0  0  0  0  0  0  0  0  0
  1 11  1  0  0  0  0
  1 15  1  0  0  0  0
  2 13  1  0  0  0  0
  2 24  1  0  0  0  0
  3 18  2  0  0  0  0
  4  7  1  0  0  0  0
  4 28  1  0  0  0  0
  5 24  2  0  0  0  0
  6 12  1  0  0  0  0
  6 16  2  0  0  0  0
  7 18  1  0  0  0  0
  7 19  1  0  0  0  0
  8  9  1  0  0  0  0
  8 12  1  0  0  0  0
  8 15  1  0  0  0  0
  8 29  1  0  0  0  0
  9 13  1  0  0  0  0
  9 16  1  0  0  0  0
  9 30  1  0  0  0  0
 10 11  1  0  0  0  0
 10 14  1  0  0  0  0
 10 17  1  0  0  0  0
 10 18  1  0  0  0  0
 11 13  1  0  0  0  0
 11 31  1  0  0  0  0
 12 14  1  0  0  0  0
 12 32  1  0  0  0  0
 13 33  1  0  0  0  0
 14 34  1  0  0  0  0
 14 35  1  0  0  0  0
 15 36  1  0  0  0  0
 15 37  1  0  0  0  0
 16 20  1  0  0  0  0
 17 19  1  0  0  0  0
 17 21  2  0  0  0  0
 19 22  2  0  0  0  0
 20 23  1  0  0  0  0
 20 38  1  0  0  0  0
 20 39  1  0  0  0  0
 21 25  1  0  0  0  0
 21 40  1  0  0  0  0
 22 26  1  0  0  0  0
 22 41  1  0  0  0  0
 23 42  1  0  0  0  0
 23 43  1  0  0  0  0
 23 44  1  0  0  0  0
 24 27  1  0  0  0  0
 25 26  2  0  0  0  0
 25 45  1  0  0  0  0
 26 46  1  0  0  0  0
 27 47  1  0  0  0  0
 27 48  1  0  0  0  0
 27 49  1  0  0  0  0
 28 50  1  0  0  0  0
 28 51  1  0  0  0  0
 28 52  1  0  0  0  0
M  END
> <PUBCHEM_COMPOUND_CID>
11962104

> <PUBCHEM_CONFORMER_RMSD>
0.8

> <PUBCHEM_CONFORMER_DIVERSEORDER>
2
3
1

> <PUBCHEM_MMFF94_PARTIAL_CHARGES>
29
1 -0.56
10 0.2
11 0.28
12 0.25
13 0.28
15 0.28
16 0.33
17 -0.14
18 0.57
19 0.12
2 -0.43
20 0.06
21 -0.15
22 -0.15
24 0.66
25 -0.15
26 -0.15
27 0.06
28 0.28
3 -0.57
4 -0.32
40 0.15
41 0.15
45 0.15
46 0.15
5 -0.57
6 -0.7
7 -0.14
9 0.06

> <PUBCHEM_EFFECTIVE_ROTOR_COUNT>
5

> <PUBCHEM_PHARMACOPHORE_FEATURES>
9
1 1 acceptor
1 23 hydrophobe
1 3 acceptor
1 5 acceptor
1 6 acceptor
5 6 8 9 12 16 rings
5 7 10 17 18 19 rings
6 17 19 21 22 25 26 rings
9 1 8 9 10 11 12 13 14 15 rings

> <PUBCHEM_HEAVY_ATOM_COUNT>
28

> <PUBCHEM_ATOM_DEF_STEREO_COUNT>
6

> <PUBCHEM_ATOM_UDEF_STEREO_COUNT>
0

> <PUBCHEM_BOND_DEF_STEREO_COUNT>
0

> <PUBCHEM_BOND_UDEF_STEREO_COUNT>
0

> <PUBCHEM_ISOTOPIC_ATOM_COUNT>
0

> <PUBCHEM_COMPONENT_COUNT>
1

> <PUBCHEM_CACTVS_TAUTO_COUNT>
1

> <PUBCHEM_CONFORMER_ID>
00B686F800000002

> <PUBCHEM_MMFF94_ENERGY>
103.7333

> <PUBCHEM_FEATURE_SELFOVERLAP>
46.414

> <PUBCHEM_SHAPE_FINGERPRINT>
10863032 1 18271542900420042929
10930396 42 16089195809373746330
11578080 2 17531813441868011158
11582403 64 17538238034333245504
11725454 13 17459446962430312940
11961588 58 17241864623510143581
12166972 35 13479410655664648563
12553582 1 17632571669229649195
13140716 1 17981056210929418298
13224815 77 18336557057614836880
13583140 156 17917440830093494849
13911987 19 18195529414107089732
13965767 371 12292095697212612014
14223421 5 18198924547020146442
14251757 17 18113889430198333327
14294032 229 15792280507054021893
14787075 74 17559126573253404160
16752209 62 16343122654898392533
16945 1 17988633142560298896
17349148 13 18130500843682089946
17357779 13 17969501687856397203
17980427 23 14634867565829699390
200 152 18131630093024937848
20600515 1 17243612907191302795
21033650 10 16588313726317058574
21285901 2 17896046588833267075
22112679 90 16343424024395609577
22121540 332 16810399540938866333
22182313 1 18187087251690032846
229495 10 17917159294596897200
23419403 2 18119242011674413041
23557571 272 17675928711316019733
23559900 14 18127140679954140794
23598288 3 16987731090535585465
238 59 18340192025823693262
350125 39 18198637712488843744
70251023 43 17985535663828820015
9709674 26 18268719303088773810

> <PUBCHEM_SHAPE_MULTIPOLES>
536.92
8.09
2.7
2.49
3.39
1.1
1.45
0.85
2.33
1.46
0.25
-4.1
-0.13
1.65

> <PUBCHEM_SHAPE_SELFOVERLAP>
1188.647

> <PUBCHEM_SHAPE_VOLUME>
284

> <PUBCHEM_COORDINATE_TYPE>
2
5
10

$$$$
