5317127
  -OEChem-09202015353D

 51 55  0     1  0  0  0  0  0999 V2000
    0.3721   -3.1151   -0.5640 O   0  0  0  0  0  0  0  0  0  0  0  0
   -1.4744    1.6378    2.4203 O   0  0  0  0  0  0  0  0  0  0  0  0
   -2.2831    2.7349   -0.5432 O   0  0  0  0  0  0  0  0  0  0  0  0
   -3.8247    1.1868    0.2076 O   0  0  0  0  0  0  0  0  0  0  0  0
   -0.6509   -1.0787   -1.4101 N   0  0  1  0  0  0  0  0  0  0  0  0
    2.5643   -1.5599    0.4263 N   0  0  0  0  0  0  0  0  0  0  0  0
   -1.4569    0.6734    0.2347 C   0  0  1  0  0  0  0  0  0  0  0  0
   -0.7305    0.4051   -1.1453 C   0  0  1  0  0  0  0  0  0  0  0  0
   -1.9201   -0.6950    0.8285 C   0  0  2  0  0  0  0  0  0  0  0  0
    0.1067   -1.7393   -0.2930 C   0  0  1  0  0  0  0  0  0  0  0  0
   -0.7026   -1.6284    1.0327 C   0  0  0  0  0  0  0  0  0  0  0  0
    0.6881    1.0262   -1.3202 C   0  0  0  0  0  0  0  0  0  0  0  0
   -2.0261   -1.6323   -1.4942 C   0  0  0  0  0  0  0  0  0  0  0  0
   -2.7753   -1.4002   -0.2084 C   0  0  0  0  0  0  0  0  0  0  0  0
    1.4425   -1.0610   -0.1742 C   0  0  0  0  0  0  0  0  0  0  0  0
    1.7252    0.2110   -0.6266 C   0  0  0  0  0  0  0  0  0  0  0  0
   -0.6580    1.4709    1.2807 C   0  0  0  0  0  0  0  0  0  0  0  0
   -2.6753    1.5369   -0.0237 C   0  0  0  0  0  0  0  0  0  0  0  0
    3.0783    0.4956   -0.3030 C   0  0  0  0  0  0  0  0  0  0  0  0
   -4.0435   -1.7811   -0.0110 C   0  0  0  0  0  0  0  0  0  0  0  0
    3.5814   -0.6312    0.3570 C   0  0  0  0  0  0  0  0  0  0  0  0
    3.9292    1.6011   -0.5013 C   0  0  0  0  0  0  0  0  0  0  0  0
   -4.7935   -1.5559    1.2579 C   0  0  0  0  0  0  0  0  0  0  0  0
    4.8975   -0.7025    0.8277 C   0  0  0  0  0  0  0  0  0  0  0  0
    5.2476    1.5412   -0.0360 C   0  0  0  0  0  0  0  0  0  0  0  0
   -3.3404    3.6534   -0.8370 C   0  0  0  0  0  0  0  0  0  0  0  0
    5.7222    0.4064    0.6180 C   0  0  0  0  0  0  0  0  0  0  0  0
   -1.3307    0.8366   -1.9591 H   0  0  0  0  0  0  0  0  0  0  0  0
   -2.4184   -0.5700    1.7910 H   0  0  0  0  0  0  0  0  0  0  0  0
   -0.0822   -1.2555    1.8563 H   0  0  0  0  0  0  0  0  0  0  0  0
   -1.0604   -2.6183    1.3492 H   0  0  0  0  0  0  0  0  0  0  0  0
    0.7108    2.0682   -0.9876 H   0  0  0  0  0  0  0  0  0  0  0  0
    0.9355    1.0353   -2.3905 H   0  0  0  0  0  0  0  0  0  0  0  0
   -1.9749   -2.7049   -1.7164 H   0  0  0  0  0  0  0  0  0  0  0  0
   -2.5542   -1.1602   -2.3316 H   0  0  0  0  0  0  0  0  0  0  0  0
   -0.3460    2.4630    0.9383 H   0  0  0  0  0  0  0  0  0  0  0  0
    0.2431    0.9477    1.6056 H   0  0  0  0  0  0  0  0  0  0  0  0
    0.7008   -3.5331    0.2502 H   0  0  0  0  0  0  0  0  0  0  0  0
    2.6412   -2.4703    0.8586 H   0  0  0  0  0  0  0  0  0  0  0  0
   -4.5729   -2.2965   -0.8082 H   0  0  0  0  0  0  0  0  0  0  0  0
   -2.0984    2.3623    2.2454 H   0  0  0  0  0  0  0  0  0  0  0  0
    3.5730    2.4932   -1.0086 H   0  0  0  0  0  0  0  0  0  0  0  0
   -5.8162   -1.2480    1.0128 H   0  0  0  0  0  0  0  0  0  0  0  0
   -4.3935   -0.7831    1.9141 H   0  0  0  0  0  0  0  0  0  0  0  0
   -4.8578   -2.4921    1.8212 H   0  0  0  0  0  0  0  0  0  0  0  0
    5.2687   -1.5851    1.3380 H   0  0  0  0  0  0  0  0  0  0  0  0
    5.9077    2.3913   -0.1869 H   0  0  0  0  0  0  0  0  0  0  0  0
   -4.0155    3.2264   -1.5848 H   0  0  0  0  0  0  0  0  0  0  0  0
   -2.8954    4.5647   -1.2451 H   0  0  0  0  0  0  0  0  0  0  0  0
   -3.8856    3.9072    0.0770 H   0  0  0  0  0  0  0  0  0  0  0  0
    6.7497    0.3817    0.9718 H   0  0  0  0  0  0  0  0  0  0  0  0
  1 10  1  0  0  0  0
  1 38  1  0  0  0  0
  2 17  1  0  0  0  0
  2 41  1  0  0  0  0
  3 18  1  0  0  0  0
  3 26  1  0  0  0  0
  4 18  2  0  0  0  0
  5  8  1  0  0  0  0
  5 10  1  0  0  0  0
  5 13  1  0  0  0  0
  6 15  1  0  0  0  0
  6 21  1  0  0  0  0
  6 39  1  0  0  0  0
  7  8  1  0  0  0  0
  7  9  1  0  0  0  0
  7 17  1  0  0  0  0
  7 18  1  0  0  0  0
  8 12  1  0  0  0  0
  8 28  1  0  0  0  0
  9 11  1  0  0  0  0
  9 14  1  0  0  0  0
  9 29  1  0  0  0  0
 10 11  1  0  0  0  0
 10 15  1  0  0  0  0
 11 30  1  0  0  0  0
 11 31  1  0  0  0  0
 12 16  1  0  0  0  0
 12 32  1  0  0  0  0
 12 33  1  0  0  0  0
 13 14  1  0  0  0  0
 13 34  1  0  0  0  0
 13 35  1  0  0  0  0
 14 20  2  3  0  0  0
 15 16  2  0  0  0  0
 16 19  1  0  0  0  0
 17 36  1  0  0  0  0
 17 37  1  0  0  0  0
 19 21  1  0  0  0  0
 19 22  2  0  0  0  0
 20 23  1  0  0  0  0
 20 40  1  0  0  0  0
 21 24  2  0  0  0  0
 22 25  1  0  0  0  0
 22 42  1  0  0  0  0
 23 43  1  0  0  0  0
 23 44  1  0  0  0  0
 23 45  1  0  0  0  0
 24 27  1  0  0  0  0
 24 46  1  0  0  0  0
 25 27  2  0  0  0  0
 25 47  1  0  0  0  0
 26 48  1  0  0  0  0
 26 49  1  0  0  0  0
 26 50  1  0  0  0  0
 27 51  1  0  0  0  0
M  END
> <PUBCHEM_COMPOUND_CID>
5317127

> <PUBCHEM_CONFORMER_RMSD>
0.8

> <PUBCHEM_CONFORMER_DIVERSEORDER>
1
12
18
9
3
16
5
2
8
13
10
11
4
6
7

> <PUBCHEM_MMFF94_PARTIAL_CHARGES>
33
1 -0.68
10 0.73
12 0.18
13 0.41
14 -0.28
15 -0.33
16 -0.18
17 0.28
18 0.66
2 -0.68
20 -0.29
21 -0.15
22 -0.15
23 0.14
24 -0.15
25 -0.15
26 0.28
27 -0.15
3 -0.43
38 0.4
39 0.27
4 -0.57
40 0.15
41 0.4
42 0.15
46 0.15
47 0.15
5 -0.81
51 0.15
6 0.03
7 0.06
8 0.27
9 0.14

> <PUBCHEM_EFFECTIVE_ROTOR_COUNT>
3.8

> <PUBCHEM_PHARMACOPHORE_FEATURES>
13
1 1 acceptor
1 1 donor
1 2 acceptor
1 2 donor
1 23 hydrophobe
1 4 acceptor
1 5 cation
1 6 cation
1 6 donor
5 6 15 16 19 21 rings
6 19 21 22 24 25 27 rings
6 5 8 10 12 15 16 rings
8 5 7 8 9 10 11 13 14 rings

> <PUBCHEM_HEAVY_ATOM_COUNT>
27

> <PUBCHEM_ATOM_DEF_STEREO_COUNT>
0

> <PUBCHEM_ATOM_UDEF_STEREO_COUNT>
4

> <PUBCHEM_BOND_DEF_STEREO_COUNT>
0

> <PUBCHEM_BOND_UDEF_STEREO_COUNT>
1

> <PUBCHEM_ISOTOPIC_ATOM_COUNT>
0

> <PUBCHEM_COMPONENT_COUNT>
1

> <PUBCHEM_CACTVS_TAUTO_COUNT>
1

> <PUBCHEM_CONFORMER_ID>
0051220700000001

> <PUBCHEM_MMFF94_ENERGY>
86.5282

> <PUBCHEM_FEATURE_SELFOVERLAP>
66.479

> <PUBCHEM_SHAPE_FINGERPRINT>
10670039 82 18261126200990628540
10863032 1 18262798454342541479
10948715 1 18264486187447998509
1100329 8 17975419336250685262
11315181 36 17821723975430571104
11370993 70 18265046946952514892
11961588 58 18192128448748938997
12107183 9 17828471480378807234
12236239 1 18338797922183674398
12390115 104 18270976686560644348
12403259 118 18334568041217729904
12403814 3 18411420639707731987
12422481 6 18266765527193321049
12788726 201 18262817266325970893
12892183 10 18187085052956888682
12930653 34 18337111172546613527
13140716 1 18190173482466899878
13224815 77 18408040732511125102
13583140 156 16558734712521733334
14142880 1 18261663805402805021
14178342 30 18187369779033678679
14223421 5 18339649927630785663
14787075 74 18270964673078220715
15196674 1 18408602561388404722
15420108 30 13955395320997503873
16945 1 18189915251832245671
17349148 13 17895474833869542566
17492 89 18337390448511215890
17980427 23 18261398866519650125
19862831 5 11240006654983325350
200 152 18335694000753000310
20510252 161 18272375286456538914
20600515 1 17700996563144149821
20691752 17 17982713453803623299
20715895 44 17977093566095514797
21033648 29 18129928040772927208
21267235 1 18334299799161839150
22182313 1 18128831762881024191
23227448 37 18337106770173421741
23402539 116 18271239546769422799
23419403 2 15695427967636606055
23559900 14 18055913200179019770
350125 39 18411419552696306408
392239 28 18042415784035188811
4340502 62 18195255408558508809
469060 322 18338535126172384249
5104073 3 18188756294115760888
9981440 41 18410007693761369195

> <PUBCHEM_SHAPE_MULTIPOLES>
522.21
9.48
3.01
1.36
9.64
1.53
0.28
1.2
2.11
-3.04
-0.43
-0.69
0.13
0

> <PUBCHEM_SHAPE_SELFOVERLAP>
1170.001

> <PUBCHEM_SHAPE_VOLUME>
272.6

> <PUBCHEM_COORDINATE_TYPE>
2
5
10

$$$$
