50976184
  -OEChem-09222005272D

  0  0  0     0  0  0  0  0  0999 V2000
M  END
> <PUBCHEM_COMPOUND_ID_TYPE>
0

> <PUBCHEM_SUBS_AUTO_STRUCTURE>
Deposited Substance chemical structure was generated via Synonym "CID5316593" to be CID 5316593

> <PUBCHEM_SUBSTANCE_ID>
50976184

> <PUBCHEM_SUBSTANCE_VERSION>
2

> <PUBCHEM_EXT_DATASOURCE_NAME>
NextBio

> <PUBCHEM_EXT_DATASOURCE_REGID>
5316593

> <PUBCHEM_SUBSTANCE_SYNONYM>
CID5316593
N-desmethoxyhumantenine

> <PUBCHEM_XREF_EXT_ID>
5316593

> <PUBCHEM_EXT_DATASOURCE_URL>
http://www.nextbio.com/

> <PUBCHEM_EXT_SUBSTANCE_URL>
http://www.nextbio.com/b/search/ov/N-desmethoxyhumantenine?id=4873833&type=compound&synonym=N-desmethoxyhumantenine

> <PUBCHEM_CID_ASSOCIATIONS>
5316593  1

$$$$
