91895267
  -OEChem-09222003522D

 45 50  0     1  0  0  0  0  0999 V2000
    6.0110   -0.4760    0.0000 O   0  0  0  0  0  0  0  0  0  0  0  0
    4.5103   -1.9861    0.0000 N   0  0  3  0  0  0  0  0  0  0  0  0
    5.0981    2.1863    0.0000 N   0  0  0  0  0  0  0  0  0  0  0  0
    3.7320    0.1475    0.0000 C   0  0  2  0  0  0  0  0  0  0  0  0
    4.5981    0.6475    0.0000 C   0  0  1  0  0  0  0  0  0  0  0  0
    3.7320   -0.8525    0.0000 C   0  0  1  0  0  0  0  0  0  0  0  0
    4.5981   -1.3525    0.0000 C   0  0  1  0  0  0  0  0  0  0  0  0
    5.4641   -0.8525    0.0000 C   0  0  2  0  0  0  0  0  0  0  0  0
    5.4641    0.1475    0.0000 C   0  0  0  0  0  0  0  0  0  0  0  0
    3.2272   -1.2454    0.0000 C   0  0  0  0  0  0  0  0  0  0  0  0
    4.6807   -0.5384    0.0000 C   0  0  0  0  0  0  0  0  0  0  0  0
    5.4071    1.2353    0.0000 C   0  0  0  0  0  0  0  0  0  0  0  0
    5.3061    0.2411    0.0000 C   0  0  2  0  0  0  0  0  0  0  0  0
    5.6027   -1.3950    0.0000 C   0  0  0  0  0  0  0  0  0  0  0  0
    3.7891    1.2353    0.0000 C   0  0  0  0  0  0  0  0  0  0  0  0
    2.8660   -0.3525    0.0000 C   0  0  0  0  0  0  0  0  0  0  0  0
    4.0981    2.1863    0.0000 C   0  0  0  0  0  0  0  0  0  0  0  0
    4.6832   -2.9711    0.0000 C   0  0  0  0  0  0  0  0  0  0  0  0
    2.7736    1.0030    0.0000 C   0  0  0  0  0  0  0  0  0  0  0  0
    2.0000    0.1475    0.0000 C   0  0  0  0  0  0  0  0  0  0  0  0
    3.4131    2.9711    0.0000 C   0  0  0  0  0  0  0  0  0  0  0  0
    2.0707    1.7717    0.0000 C   0  0  0  0  0  0  0  0  0  0  0  0
    2.3926    2.7624    0.0000 C   0  0  0  0  0  0  0  0  0  0  0  0
    3.7320   -1.7025    0.0000 H   0  0  0  0  0  0  0  0  0  0  0  0
    5.1864   -1.9660    0.0000 H   0  0  0  0  0  0  0  0  0  0  0  0
    6.2626   -1.1438    0.0000 H   0  0  0  0  0  0  0  0  0  0  0  0
    6.0747    0.0398    0.0000 H   0  0  0  0  0  0  0  0  0  0  0  0
    5.6762    0.7301    0.0000 H   0  0  0  0  0  0  0  0  0  0  0  0
    2.6577   -1.0003    0.0000 H   0  0  0  0  0  0  0  0  0  0  0  0
    2.9492   -1.7996    0.0000 H   0  0  0  0  0  0  0  0  0  0  0  0
    4.6732   -1.1584    0.0000 H   0  0  0  0  0  0  0  0  0  0  0  0
    4.3270   -0.0292    0.0000 H   0  0  0  0  0  0  0  0  0  0  0  0
    6.0470    0.6577    0.0000 H   0  0  0  0  0  0  0  0  0  0  0  0
    5.4993   -2.0063    0.0000 H   0  0  0  0  0  0  0  0  0  0  0  0
    6.1963   -1.5739    0.0000 H   0  0  0  0  0  0  0  0  0  0  0  0
    2.8660   -0.9725    0.0000 H   0  0  0  0  0  0  0  0  0  0  0  0
    4.0726   -3.0783    0.0000 H   0  0  0  0  0  0  0  0  0  0  0  0
    4.7905   -3.5817    0.0000 H   0  0  0  0  0  0  0  0  0  0  0  0
    5.2939   -2.8638    0.0000 H   0  0  0  0  0  0  0  0  0  0  0  0
    2.5889    0.4112    0.0000 H   0  0  0  0  0  0  0  0  0  0  0  0
    2.0000    0.7675    0.0000 H   0  0  0  0  0  0  0  0  0  0  0  0
    1.4631   -0.1625    0.0000 H   0  0  0  0  0  0  0  0  0  0  0  0
    3.6115    3.5585    0.0000 H   0  0  0  0  0  0  0  0  0  0  0  0
    1.4648    1.6405    0.0000 H   0  0  0  0  0  0  0  0  0  0  0  0
    1.9795    3.2247    0.0000 H   0  0  0  0  0  0  0  0  0  0  0  0
  1 13  1  0  0  0  0
  1 14  1  0  0  0  0
  2  8  1  0  0  0  0
  2 10  1  0  0  0  0
  2 18  1  0  0  0  0
  3 12  2  0  0  0  0
  3 17  1  0  0  0  0
  4  5  1  0  0  0  0
  4  6  1  0  0  0  0
  4 10  1  0  0  0  0
  4 16  1  1  0  0  0
  5  9  1  0  0  0  0
  5 12  1  0  0  0  0
  5 15  1  1  0  0  0
  6  7  1  0  0  0  0
  6 11  1  0  0  0  0
  6 24  1  1  0  0  0
  7  8  1  0  0  0  0
  7 14  1  0  0  0  0
  7 25  1  6  0  0  0
  8  9  1  0  0  0  0
  8 26  1  1  0  0  0
  9 27  1  0  0  0  0
  9 28  1  0  0  0  0
 10 29  1  0  0  0  0
 10 30  1  0  0  0  0
 11 13  1  0  0  0  0
 11 31  1  0  0  0  0
 11 32  1  0  0  0  0
 12 13  1  0  0  0  0
 13 33  1  1  0  0  0
 14 34  1  0  0  0  0
 14 35  1  0  0  0  0
 15 17  1  0  0  0  0
 15 19  2  0  0  0  0
 16 20  2  0  0  0  0
 16 36  1  0  0  0  0
 17 21  2  0  0  0  0
 18 37  1  0  0  0  0
 18 38  1  0  0  0  0
 18 39  1  0  0  0  0
 19 22  1  0  0  0  0
 19 40  1  0  0  0  0
 20 41  1  0  0  0  0
 20 42  1  0  0  0  0
 21 23  1  0  0  0  0
 21 43  1  0  0  0  0
 22 23  2  0  0  0  0
 22 44  1  0  0  0  0
 23 45  1  0  0  0  0
M  END
> <PUBCHEM_COMPOUND_CID>
91895267

> <PUBCHEM_COMPOUND_CANONICALIZED>
1

> <PUBCHEM_CACTVS_COMPLEXITY>
615

> <PUBCHEM_CACTVS_HBOND_ACCEPTOR>
3

> <PUBCHEM_CACTVS_HBOND_DONOR>
0

> <PUBCHEM_CACTVS_ROTATABLE_BOND>
1

> <PUBCHEM_CACTVS_SUBSKEYS>
AAADceB7IAAAAAAAAAAAAAAAAAAAAQAAAAA8eNECAAASAEABAAAAHgAAAAAADzzhmAYywIMABACgAyRiRASCAAAgAgAIiAA4ZIgIICKAkZGGIABmgACIyAeQ0PMPgAAAAAACAADQAAaAACQAAAAAAAAAAA==

> <PUBCHEM_IUPAC_OPENEYE_NAME>
(1R,10R,12S,15S,16R,17S)-13-methyl-15-vinyl-19-oxa-3,13-diazahexacyclo[14.3.1.02,10.04,9.010,15.012,17]icosa-2,4,6,8-tetraene

> <PUBCHEM_IUPAC_CAS_NAME>
(1R,10R,12S,15S,16R,17S)-15-ethenyl-13-methyl-19-oxa-3,13-diazahexacyclo[14.3.1.02,10.04,9.010,15.012,17]eicosa-2,4,6,8-tetraene

> <PUBCHEM_IUPAC_NAME_MARKUP>
(1<I>R</I>,10<I>R</I>,12<I>S</I>,15<I>S</I>,16<I>R</I>,17<I>S</I>)-15-ethenyl-13-methyl-19-oxa-3,13-diazahexacyclo[14.3.1.0<SUP>2,10</SUP>.0<SUP>4,9</SUP>.0<SUP>10,15</SUP>.0<SUP>12,17</SUP>]icosa-2,4,6,8-tetraene

> <PUBCHEM_IUPAC_NAME>
(1R,10R,12S,15S,16R,17S)-15-ethenyl-13-methyl-19-oxa-3,13-diazahexacyclo[14.3.1.02,10.04,9.010,15.012,17]icosa-2,4,6,8-tetraene

> <PUBCHEM_IUPAC_SYSTEMATIC_NAME>
(1R,10R,12S,15S,16R,17S)-15-ethenyl-13-methyl-19-oxa-3,13-diazahexacyclo[14.3.1.02,10.04,9.010,15.012,17]icosa-2,4,6,8-tetraene

> <PUBCHEM_IUPAC_TRADITIONAL_NAME>
(1R,10R,12S,15S,16R,17S)-13-methyl-15-vinyl-19-oxa-3,13-diazahexacyclo[14.3.1.02,10.04,9.010,15.012,17]eicosa-2,4,6,8-tetraene

> <PUBCHEM_IUPAC_INCHI>
InChI=1S/C20H22N2O/c1-3-19-11-22(2)16-9-20(19)13-6-4-5-7-15(13)21-18(20)17-8-14(19)12(16)10-23-17/h3-7,12,14,16-17H,1,8-11H2,2H3/t12-,14+,16-,17+,19-,20+/m0/s1

> <PUBCHEM_IUPAC_INCHIKEY>
VTLYEMHGPMGUOT-FXWNUWCSSA-N

> <PUBCHEM_XLOGP3_AA>
2.5

> <PUBCHEM_EXACT_MASS>
306.173213

> <PUBCHEM_MOLECULAR_FORMULA>
C20H22N2O

> <PUBCHEM_MOLECULAR_WEIGHT>
306.4

> <PUBCHEM_OPENEYE_CAN_SMILES>
CN1CC2(C3CC4C5=NC6=CC=CC=C6C52CC1C3CO4)C=C

> <PUBCHEM_OPENEYE_ISO_SMILES>
CN1C[C@]2([C@@H]3C[C@@H]4C5=NC6=CC=CC=C6[C@]52C[C@H]1[C@H]3CO4)C=C

> <PUBCHEM_CACTVS_TPSA>
24.8

> <PUBCHEM_MONOISOTOPIC_WEIGHT>
306.173213

> <PUBCHEM_TOTAL_CHARGE>
0

> <PUBCHEM_HEAVY_ATOM_COUNT>
23

> <PUBCHEM_ATOM_DEF_STEREO_COUNT>
6

> <PUBCHEM_ATOM_UDEF_STEREO_COUNT>
0

> <PUBCHEM_BOND_DEF_STEREO_COUNT>
0

> <PUBCHEM_BOND_UDEF_STEREO_COUNT>
0

> <PUBCHEM_ISOTOPIC_ATOM_COUNT>
0

> <PUBCHEM_COMPONENT_COUNT>
1

> <PUBCHEM_CACTVS_TAUTO_COUNT>
-1

> <PUBCHEM_COORDINATE_TYPE>
1
5
255

> <PUBCHEM_BONDANNOTATIONS>
13  33  5
15  17  8
15  19  8
17  21  8
19  22  8
21  23  8
22  23  8
4  16  5
5  15  5
6  24  5
7  25  6
8  26  5

$$$$
