5318193
  -OEChem-09222005442D

 48 53  0     1  0  0  0  0  0999 V2000
    6.5479   -0.4760    0.0000 O   0  0  0  0  0  0  0  0  0  0  0  0
    2.5369    0.1475    0.0000 O   0  0  0  0  0  0  0  0  0  0  0  0
    5.0472   -1.9861    0.0000 N   0  0  3  0  0  0  0  0  0  0  0  0
    5.6350    2.1863    0.0000 N   0  0  0  0  0  0  0  0  0  0  0  0
    4.2690    0.1475    0.0000 C   0  0  3  0  0  0  0  0  0  0  0  0
    5.1350    0.6475    0.0000 C   0  0  3  0  0  0  0  0  0  0  0  0
    4.2690   -0.8525    0.0000 C   0  0  3  0  0  0  0  0  0  0  0  0
    5.1350   -1.3525    0.0000 C   0  0  3  0  0  0  0  0  0  0  0  0
    6.0010   -0.8525    0.0000 C   0  0  3  0  0  0  0  0  0  0  0  0
    6.0010    0.1475    0.0000 C   0  0  0  0  0  0  0  0  0  0  0  0
    3.7642   -1.2454    0.0000 C   0  0  0  0  0  0  0  0  0  0  0  0
    5.2177   -0.5384    0.0000 C   0  0  0  0  0  0  0  0  0  0  0  0
    5.9440    1.2353    0.0000 C   0  0  0  0  0  0  0  0  0  0  0  0
    5.8430    0.2411    0.0000 C   0  0  3  0  0  0  0  0  0  0  0  0
    3.4030   -0.3525    0.0000 C   0  0  3  0  0  0  0  0  0  0  0  0
    6.1396   -1.3950    0.0000 C   0  0  0  0  0  0  0  0  0  0  0  0
    4.3260    1.2353    0.0000 C   0  0  0  0  0  0  0  0  0  0  0  0
    4.6350    2.1863    0.0000 C   0  0  0  0  0  0  0  0  0  0  0  0
    5.2202   -2.9711    0.0000 C   0  0  0  0  0  0  0  0  0  0  0  0
    2.9030   -1.2186    0.0000 C   0  0  0  0  0  0  0  0  0  0  0  0
    3.3106    1.0030    0.0000 C   0  0  0  0  0  0  0  0  0  0  0  0
    3.9500    2.9711    0.0000 C   0  0  0  0  0  0  0  0  0  0  0  0
    2.6076    1.7717    0.0000 C   0  0  0  0  0  0  0  0  0  0  0  0
    2.9295    2.7624    0.0000 C   0  0  0  0  0  0  0  0  0  0  0  0
    3.7320   -1.1625    0.0000 H   0  0  0  0  0  0  0  0  0  0  0  0
    4.9619   -1.9479    0.0000 H   0  0  0  0  0  0  0  0  0  0  0  0
    6.5835   -1.0650    0.0000 H   0  0  0  0  0  0  0  0  0  0  0  0
    6.6116    0.0398    0.0000 H   0  0  0  0  0  0  0  0  0  0  0  0
    6.2131    0.7301    0.0000 H   0  0  0  0  0  0  0  0  0  0  0  0
    3.1947   -1.0003    0.0000 H   0  0  0  0  0  0  0  0  0  0  0  0
    3.4862   -1.7996    0.0000 H   0  0  0  0  0  0  0  0  0  0  0  0
    5.2101   -1.1584    0.0000 H   0  0  0  0  0  0  0  0  0  0  0  0
    4.8639   -0.0292    0.0000 H   0  0  0  0  0  0  0  0  0  0  0  0
    6.4280    0.4465    0.0000 H   0  0  0  0  0  0  0  0  0  0  0  0
    3.4030    0.2675    0.0000 H   0  0  0  0  0  0  0  0  0  0  0  0
    6.0363   -2.0063    0.0000 H   0  0  0  0  0  0  0  0  0  0  0  0
    6.7332   -1.5739    0.0000 H   0  0  0  0  0  0  0  0  0  0  0  0
    4.6095   -3.0783    0.0000 H   0  0  0  0  0  0  0  0  0  0  0  0
    5.3274   -3.5817    0.0000 H   0  0  0  0  0  0  0  0  0  0  0  0
    5.8308   -2.8638    0.0000 H   0  0  0  0  0  0  0  0  0  0  0  0
    2.3661   -0.9086    0.0000 H   0  0  0  0  0  0  0  0  0  0  0  0
    2.5931   -1.7556    0.0000 H   0  0  0  0  0  0  0  0  0  0  0  0
    3.4400   -1.5285    0.0000 H   0  0  0  0  0  0  0  0  0  0  0  0
    3.1258    0.4112    0.0000 H   0  0  0  0  0  0  0  0  0  0  0  0
    2.0000   -0.1625    0.0000 H   0  0  0  0  0  0  0  0  0  0  0  0
    4.1484    3.5585    0.0000 H   0  0  0  0  0  0  0  0  0  0  0  0
    2.0017    1.6405    0.0000 H   0  0  0  0  0  0  0  0  0  0  0  0
    2.5164    3.2247    0.0000 H   0  0  0  0  0  0  0  0  0  0  0  0
  1 14  1  0  0  0  0
  1 16  1  0  0  0  0
  2 15  1  0  0  0  0
  2 45  1  0  0  0  0
  3  9  1  0  0  0  0
  3 11  1  0  0  0  0
  3 19  1  0  0  0  0
  4 13  2  0  0  0  0
  4 18  1  0  0  0  0
  5  6  1  0  0  0  0
  5  7  1  0  0  0  0
  5 11  1  0  0  0  0
  5 15  1  0  0  0  0
  6 10  1  0  0  0  0
  6 13  1  0  0  0  0
  6 17  1  0  0  0  0
  7  8  1  0  0  0  0
  7 12  1  0  0  0  0
  7 25  1  0  0  0  0
  8  9  1  0  0  0  0
  8 16  1  0  0  0  0
  8 26  1  0  0  0  0
  9 10  1  0  0  0  0
  9 27  1  0  0  0  0
 10 28  1  0  0  0  0
 10 29  1  0  0  0  0
 11 30  1  0  0  0  0
 11 31  1  0  0  0  0
 12 14  1  0  0  0  0
 12 32  1  0  0  0  0
 12 33  1  0  0  0  0
 13 14  1  0  0  0  0
 14 34  1  0  0  0  0
 15 20  1  0  0  0  0
 15 35  1  0  0  0  0
 16 36  1  0  0  0  0
 16 37  1  0  0  0  0
 17 18  1  0  0  0  0
 17 21  2  0  0  0  0
 18 22  2  0  0  0  0
 19 38  1  0  0  0  0
 19 39  1  0  0  0  0
 19 40  1  0  0  0  0
 20 41  1  0  0  0  0
 20 42  1  0  0  0  0
 20 43  1  0  0  0  0
 21 23  1  0  0  0  0
 21 44  1  0  0  0  0
 22 24  1  0  0  0  0
 22 46  1  0  0  0  0
 23 24  2  0  0  0  0
 23 47  1  0  0  0  0
 24 48  1  0  0  0  0
M  END
> <PUBCHEM_COMPOUND_CID>
5318193

> <PUBCHEM_COMPOUND_CANONICALIZED>
1

> <PUBCHEM_CACTVS_COMPLEXITY>
621

> <PUBCHEM_CACTVS_HBOND_ACCEPTOR>
4

> <PUBCHEM_CACTVS_HBOND_DONOR>
1

> <PUBCHEM_CACTVS_ROTATABLE_BOND>
1

> <PUBCHEM_CACTVS_SUBSKEYS>
AAADceB7MAAAAAAAAAAAAAAAAAAAAQAAAAA8eNECAAASAEABAAAAHgAACAAADzzhmAYywIMABgCgAyRiRASCAAAgAgAIiAA4ZIgIMCKAkZGGYABmgACIyAeQ8P8PgAAAAAACAADQAAaAACQAAAAAAAAAAA==

> <PUBCHEM_IUPAC_OPENEYE_NAME>
1-(13-methyl-19-oxa-3,13-diazahexacyclo[14.3.1.02,10.04,9.010,15.012,17]icosa-2,4,6,8-tetraen-15-yl)ethanol

> <PUBCHEM_IUPAC_CAS_NAME>
1-(13-methyl-19-oxa-3,13-diazahexacyclo[14.3.1.02,10.04,9.010,15.012,17]eicosa-2,4,6,8-tetraen-15-yl)ethanol

> <PUBCHEM_IUPAC_NAME_MARKUP>
1-(13-methyl-19-oxa-3,13-diazahexacyclo[14.3.1.0<SUP>2,10</SUP>.0<SUP>4,9</SUP>.0<SUP>10,15</SUP>.0<SUP>12,17</SUP>]icosa-2,4,6,8-tetraen-15-yl)ethanol

> <PUBCHEM_IUPAC_NAME>
1-(13-methyl-19-oxa-3,13-diazahexacyclo[14.3.1.02,10.04,9.010,15.012,17]icosa-2,4,6,8-tetraen-15-yl)ethanol

> <PUBCHEM_IUPAC_SYSTEMATIC_NAME>
1-(13-methyl-19-oxa-3,13-diazahexacyclo[14.3.1.02,10.04,9.010,15.012,17]icosa-2,4,6,8-tetraen-15-yl)ethanol

> <PUBCHEM_IUPAC_TRADITIONAL_NAME>
1-(13-methyl-19-oxa-3,13-diazahexacyclo[14.3.1.02,10.04,9.010,15.012,17]eicosa-2,4,6,8-tetraen-15-yl)ethanol

> <PUBCHEM_IUPAC_INCHI>
InChI=1S/C20H24N2O2/c1-11(23)20-10-22(2)16-8-19(20)13-5-3-4-6-15(13)21-18(19)17-7-14(20)12(16)9-24-17/h3-6,11-12,14,16-17,23H,7-10H2,1-2H3

> <PUBCHEM_IUPAC_INCHIKEY>
WWJBPXXKMPCCIZ-UHFFFAOYSA-N

> <PUBCHEM_XLOGP3_AA>
1.4

> <PUBCHEM_EXACT_MASS>
324.183778

> <PUBCHEM_MOLECULAR_FORMULA>
C20H24N2O2

> <PUBCHEM_MOLECULAR_WEIGHT>
324.4

> <PUBCHEM_OPENEYE_CAN_SMILES>
CC(C12CN(C3CC14C5=CC=CC=C5N=C4C6CC2C3CO6)C)O

> <PUBCHEM_OPENEYE_ISO_SMILES>
CC(C12CN(C3CC14C5=CC=CC=C5N=C4C6CC2C3CO6)C)O

> <PUBCHEM_CACTVS_TPSA>
45.1

> <PUBCHEM_MONOISOTOPIC_WEIGHT>
324.183778

> <PUBCHEM_TOTAL_CHARGE>
0

> <PUBCHEM_HEAVY_ATOM_COUNT>
24

> <PUBCHEM_ATOM_DEF_STEREO_COUNT>
0

> <PUBCHEM_ATOM_UDEF_STEREO_COUNT>
7

> <PUBCHEM_BOND_DEF_STEREO_COUNT>
0

> <PUBCHEM_BOND_UDEF_STEREO_COUNT>
0

> <PUBCHEM_ISOTOPIC_ATOM_COUNT>
0

> <PUBCHEM_COMPONENT_COUNT>
1

> <PUBCHEM_CACTVS_TAUTO_COUNT>
-1

> <PUBCHEM_COORDINATE_TYPE>
1
5
255

> <PUBCHEM_BONDANNOTATIONS>
14  12  3
17  18  8
17  21  8
18  22  8
15  2  3
21  23  8
22  24  8
23  24  8
5  11  3
6  10  3
7  12  3
8  16  3
9  10  3

$$$$
