5490912
  -OEChem-09202014182D

 47 51  0     1  0  0  0  0  0999 V2000
    6.8440    1.2224    0.0000 O   0  0  0  0  0  0  0  0  0  0  0  0
    4.1017    0.3745    0.0000 O   0  0  0  0  0  0  0  0  0  0  0  0
    3.9604   -0.4652    0.0000 O   0  0  0  0  0  0  0  0  0  0  0  0
    4.6327   -2.5342    0.0000 O   0  0  0  0  0  0  0  0  0  0  0  0
    3.6672    1.5741    0.0000 N   0  0  0  0  0  0  0  0  0  0  0  0
    5.2205   -1.7252    0.0000 N   0  0  0  0  0  0  0  0  0  0  0  0
    5.2205    2.0043    0.0000 C   0  0  1  0  0  0  0  0  0  0  0  0
    5.7205   -0.1864    0.0000 C   0  0  2  0  0  0  0  0  0  0  0  0
    4.6707    2.8325    0.0000 C   0  0  2  0  0  0  0  0  0  0  0  0
    6.6215    0.2475    0.0000 C   0  0  2  0  0  0  0  0  0  0  0  0
    4.5970    1.2224    0.0000 C   0  0  2  0  0  0  0  0  0  0  0  0
    4.8999    0.9768    0.0000 C   0  0  3  0  0  0  0  0  0  0  0  0
    4.8195    0.2475    0.0000 C   0  0  0  0  0  0  0  0  0  0  0  0
    6.2205    2.0043    0.0000 C   0  0  0  0  0  0  0  0  0  0  0  0
    3.7127    2.5672    0.0000 C   0  0  0  0  0  0  0  0  0  0  0  0
    6.5295   -0.7742    0.0000 C   0  0  0  0  0  0  0  0  0  0  0  0
    4.9115   -0.7742    0.0000 C   0  0  0  0  0  0  0  0  0  0  0  0
    6.2205   -1.7252    0.0000 C   0  0  0  0  0  0  0  0  0  0  0  0
    2.9309    3.1907    0.0000 C   0  0  0  0  0  0  0  0  0  0  0  0
    7.5449   -0.5419    0.0000 C   0  0  0  0  0  0  0  0  0  0  0  0
    6.9055   -2.5100    0.0000 C   0  0  0  0  0  0  0  0  0  0  0  0
    2.0000    2.8253    0.0000 C   0  0  0  0  0  0  0  0  0  0  0  0
    8.2479   -1.3106    0.0000 C   0  0  0  0  0  0  0  0  0  0  0  0
    7.9260   -2.3013    0.0000 C   0  0  0  0  0  0  0  0  0  0  0  0
    5.0395   -3.4478    0.0000 C   0  0  0  0  0  0  0  0  0  0  0  0
    5.7505    2.6688    0.0000 H   0  0  0  0  0  0  0  0  0  0  0  0
    4.5666    3.6761    0.0000 H   0  0  0  0  0  0  0  0  0  0  0  0
    7.3873    0.6163    0.0000 H   0  0  0  0  0  0  0  0  0  0  0  0
    3.8058    0.9119    0.0000 H   0  0  0  0  0  0  0  0  0  0  0  0
    4.9759    0.3615    0.0000 H   0  0  0  0  0  0  0  0  0  0  0  0
    4.1996    0.2475    0.0000 H   0  0  0  0  0  0  0  0  0  0  0  0
    4.6816   -0.3570    0.0000 H   0  0  0  0  0  0  0  0  0  0  0  0
    6.7791    2.2733    0.0000 H   0  0  0  0  0  0  0  0  0  0  0  0
    6.0826    2.6087    0.0000 H   0  0  0  0  0  0  0  0  0  0  0  0
    3.3957    3.6009    0.0000 H   0  0  0  0  0  0  0  0  0  0  0  0
    2.6076    3.7197    0.0000 H   0  0  0  0  0  0  0  0  0  0  0  0
    3.5308    0.6163    0.0000 H   0  0  0  0  0  0  0  0  0  0  0  0
    7.7297    0.0499    0.0000 H   0  0  0  0  0  0  0  0  0  0  0  0
    6.7071   -3.0974    0.0000 H   0  0  0  0  0  0  0  0  0  0  0  0
    1.7735    3.4025    0.0000 H   0  0  0  0  0  0  0  0  0  0  0  0
    1.4229    2.5988    0.0000 H   0  0  0  0  0  0  0  0  0  0  0  0
    2.2265    2.2482    0.0000 H   0  0  0  0  0  0  0  0  0  0  0  0
    8.8538   -1.1794    0.0000 H   0  0  0  0  0  0  0  0  0  0  0  0
    8.3391   -2.7636    0.0000 H   0  0  0  0  0  0  0  0  0  0  0  0
    4.4731   -3.7000    0.0000 H   0  0  0  0  0  0  0  0  0  0  0  0
    5.2916   -4.0142    0.0000 H   0  0  0  0  0  0  0  0  0  0  0  0
    5.6059   -3.1956    0.0000 H   0  0  0  0  0  0  0  0  0  0  0  0
  1 10  1  0  0  0  0
  1 14  1  0  0  0  0
  2 12  1  0  0  0  0
  2 37  1  0  0  0  0
  3 17  2  0  0  0  0
  4  6  1  0  0  0  0
  4 25  1  0  0  0  0
  5 11  1  0  0  0  0
  5 15  2  0  0  0  0
  6 17  1  0  0  0  0
  6 18  1  0  0  0  0
  7  9  1  0  0  0  0
  7 11  1  0  0  0  0
  7 14  1  0  0  0  0
  7 26  1  1  0  0  0
  8 10  1  0  0  0  0
  8 13  1  0  0  0  0
  8 16  1  0  0  0  0
  8 17  1  6  0  0  0
  9 12  1  0  0  0  0
  9 15  1  0  0  0  0
  9 27  1  1  0  0  0
 10 12  1  0  0  0  0
 10 28  1  1  0  0  0
 11 13  1  0  0  0  0
 11 29  1  1  0  0  0
 12 30  1  0  0  0  0
 13 31  1  0  0  0  0
 13 32  1  0  0  0  0
 14 33  1  0  0  0  0
 14 34  1  0  0  0  0
 15 19  1  0  0  0  0
 16 18  1  0  0  0  0
 16 20  2  0  0  0  0
 18 21  2  0  0  0  0
 19 22  1  0  0  0  0
 19 35  1  0  0  0  0
 19 36  1  0  0  0  0
 20 23  1  0  0  0  0
 20 38  1  0  0  0  0
 21 24  1  0  0  0  0
 21 39  1  0  0  0  0
 22 40  1  0  0  0  0
 22 41  1  0  0  0  0
 22 42  1  0  0  0  0
 23 24  2  0  0  0  0
 23 43  1  0  0  0  0
 24 44  1  0  0  0  0
 25 45  1  0  0  0  0
 25 46  1  0  0  0  0
 25 47  1  0  0  0  0
M  END
> <PUBCHEM_COMPOUND_CID>
5490912

> <PUBCHEM_COMPOUND_CANONICALIZED>
1

> <PUBCHEM_CACTVS_COMPLEXITY>
623

> <PUBCHEM_CACTVS_HBOND_ACCEPTOR>
5

> <PUBCHEM_CACTVS_HBOND_DONOR>
1

> <PUBCHEM_CACTVS_ROTATABLE_BOND>
2

> <PUBCHEM_CACTVS_SUBSKEYS>
AAADceB7OAAAAAAAAAAAAAAAAAAAAWIAAAA0QAAABogQAFgBAAAAHgAECAAADzzhmAYywIIQBgCoAyVyVACCAAAhAgAoiAEwZIgJMDbAlZGGYAhm5AHLyAf+2POPgAAAAAACAAAAAAAAAAQAAAAAAAAAAA==

> <PUBCHEM_IUPAC_OPENEYE_NAME>
(1R,2S,4S,7S,8S)-6-ethyl-11-hydroxy-1'-methoxy-spiro[10-oxa-5-azatricyclo[5.3.1.04,8]undec-5-ene-2,3'-indoline]-2'-one

> <PUBCHEM_IUPAC_CAS_NAME>
(1R,2S,4S,7S,8S)-6-ethyl-11-hydroxy-1'-methoxy-2'-spiro[10-oxa-5-azatricyclo[5.3.1.04,8]undec-5-ene-2,3'-indole]one

> <PUBCHEM_IUPAC_NAME_MARKUP>
(1<I>R</I>,2<I>S</I>,4<I>S</I>,7<I>S</I>,8<I>S</I>)-6-ethyl-11-hydroxy-1&apos;-methoxyspiro[10-oxa-5-azatricyclo[5.3.1.0<SUP>4,8</SUP>]undec-5-ene-2,3&apos;-indole]-2&apos;-one

> <PUBCHEM_IUPAC_NAME>
(1R,2S,4S,7S,8S)-6-ethyl-11-hydroxy-1'-methoxyspiro[10-oxa-5-azatricyclo[5.3.1.04,8]undec-5-ene-2,3'-indole]-2'-one

> <PUBCHEM_IUPAC_SYSTEMATIC_NAME>
(1R,2S,4S,7S,8S)-6-ethyl-1'-methoxy-11-oxidanyl-spiro[10-oxa-5-azatricyclo[5.3.1.04,8]undec-5-ene-2,3'-indole]-2'-one

> <PUBCHEM_IUPAC_TRADITIONAL_NAME>
(1R,2S,4S,7S,8S)-6-ethyl-11-hydroxy-1'-methoxy-spiro[10-oxa-5-azatricyclo[5.3.1.04,8]undec-5-ene-2,3'-indoline]-2'-one

> <PUBCHEM_IUPAC_INCHI>
InChI=1S/C19H22N2O4/c1-3-12-15-10-9-25-17(16(15)22)19(8-13(10)20-12)11-6-4-5-7-14(11)21(24-2)18(19)23/h4-7,10,13,15-17,22H,3,8-9H2,1-2H3/t10-,13+,15+,16?,17+,19+/m1/s1

> <PUBCHEM_IUPAC_INCHIKEY>
FLDAHLDTMBMPJD-CGXZNADYSA-N

> <PUBCHEM_XLOGP3_AA>
0.3

> <PUBCHEM_EXACT_MASS>
342.157957

> <PUBCHEM_MOLECULAR_FORMULA>
C19H22N2O4

> <PUBCHEM_MOLECULAR_WEIGHT>
342.4

> <PUBCHEM_OPENEYE_CAN_SMILES>
CCC1=NC2CC3(C4C(C1C2CO4)O)C5=CC=CC=C5N(C3=O)OC

> <PUBCHEM_OPENEYE_ISO_SMILES>
CCC1=N[C@H]2C[C@@]3([C@@H]4C([C@H]1[C@@H]2CO4)O)C5=CC=CC=C5N(C3=O)OC

> <PUBCHEM_CACTVS_TPSA>
71.4

> <PUBCHEM_MONOISOTOPIC_WEIGHT>
342.157957

> <PUBCHEM_TOTAL_CHARGE>
0

> <PUBCHEM_HEAVY_ATOM_COUNT>
25

> <PUBCHEM_ATOM_DEF_STEREO_COUNT>
5

> <PUBCHEM_ATOM_UDEF_STEREO_COUNT>
1

> <PUBCHEM_BOND_DEF_STEREO_COUNT>
0

> <PUBCHEM_BOND_UDEF_STEREO_COUNT>
0

> <PUBCHEM_ISOTOPIC_ATOM_COUNT>
0

> <PUBCHEM_COMPONENT_COUNT>
1

> <PUBCHEM_CACTVS_TAUTO_COUNT>
-1

> <PUBCHEM_COORDINATE_TYPE>
1
5
255

> <PUBCHEM_BONDANNOTATIONS>
10  28  5
11  29  5
16  18  8
16  20  8
18  21  8
12  2  3
20  23  8
21  24  8
23  24  8
7  26  5
8  17  6
9  27  5

$$$$
