5318847
  -OEChem-09222006022D

 46 51  0     1  0  0  0  0  0999 V2000
    6.0110   -0.4988    0.0000 O   0  0  0  0  0  0  0  0  0  0  0  0
    4.1676   -2.9483    0.0000 O   0  5  0  0  0  0  0  0  0  0  0  0
    4.5103   -2.0089    0.0000 N   0  3  3  0  0  0  0  0  0  0  0  0
    5.0981    2.1636    0.0000 N   0  0  0  0  0  0  0  0  0  0  0  0
    3.7320    0.1247    0.0000 C   0  0  3  0  0  0  0  0  0  0  0  0
    4.5981    0.6247    0.0000 C   0  0  3  0  0  0  0  0  0  0  0  0
    3.7320   -0.8753    0.0000 C   0  0  3  0  0  0  0  0  0  0  0  0
    5.4641   -0.8753    0.0000 C   0  0  3  0  0  0  0  0  0  0  0  0
    4.5981   -1.3752    0.0000 C   0  0  3  0  0  0  0  0  0  0  0  0
    5.4641    0.1247    0.0000 C   0  0  0  0  0  0  0  0  0  0  0  0
    3.2272   -1.2681    0.0000 C   0  0  0  0  0  0  0  0  0  0  0  0
    4.6807   -0.5611    0.0000 C   0  0  0  0  0  0  0  0  0  0  0  0
    5.4071    1.2125    0.0000 C   0  0  0  0  0  0  0  0  0  0  0  0
    5.3061    0.2183    0.0000 C   0  0  3  0  0  0  0  0  0  0  0  0
    5.6027   -1.4177    0.0000 C   0  0  0  0  0  0  0  0  0  0  0  0
    3.7891    1.2125    0.0000 C   0  0  0  0  0  0  0  0  0  0  0  0
    2.8660   -0.3753    0.0000 C   0  0  0  0  0  0  0  0  0  0  0  0
    5.1525   -2.7754    0.0000 C   0  0  0  0  0  0  0  0  0  0  0  0
    4.0981    2.1636    0.0000 C   0  0  0  0  0  0  0  0  0  0  0  0
    2.7736    0.9803    0.0000 C   0  0  0  0  0  0  0  0  0  0  0  0
    2.0000    0.1247    0.0000 C   0  0  0  0  0  0  0  0  0  0  0  0
    3.4131    2.9483    0.0000 C   0  0  0  0  0  0  0  0  0  0  0  0
    2.0707    1.7490    0.0000 C   0  0  0  0  0  0  0  0  0  0  0  0
    2.3926    2.7396    0.0000 C   0  0  0  0  0  0  0  0  0  0  0  0
    3.1951   -1.1852    0.0000 H   0  0  0  0  0  0  0  0  0  0  0  0
    6.0466   -1.0877    0.0000 H   0  0  0  0  0  0  0  0  0  0  0  0
    4.4250   -1.9706    0.0000 H   0  0  0  0  0  0  0  0  0  0  0  0
    6.0747    0.0171    0.0000 H   0  0  0  0  0  0  0  0  0  0  0  0
    5.6762    0.7074    0.0000 H   0  0  0  0  0  0  0  0  0  0  0  0
    2.6577   -1.0230    0.0000 H   0  0  0  0  0  0  0  0  0  0  0  0
    2.9492   -1.8223    0.0000 H   0  0  0  0  0  0  0  0  0  0  0  0
    4.6732   -1.1811    0.0000 H   0  0  0  0  0  0  0  0  0  0  0  0
    4.3270   -0.0520    0.0000 H   0  0  0  0  0  0  0  0  0  0  0  0
    5.8911    0.4238    0.0000 H   0  0  0  0  0  0  0  0  0  0  0  0
    5.4993   -2.0290    0.0000 H   0  0  0  0  0  0  0  0  0  0  0  0
    6.1963   -1.5966    0.0000 H   0  0  0  0  0  0  0  0  0  0  0  0
    2.8660   -0.9953    0.0000 H   0  0  0  0  0  0  0  0  0  0  0  0
    4.6773   -3.1736    0.0000 H   0  0  0  0  0  0  0  0  0  0  0  0
    5.5507   -3.2506    0.0000 H   0  0  0  0  0  0  0  0  0  0  0  0
    5.6278   -2.3771    0.0000 H   0  0  0  0  0  0  0  0  0  0  0  0
    2.5889    0.3885    0.0000 H   0  0  0  0  0  0  0  0  0  0  0  0
    2.0000    0.7447    0.0000 H   0  0  0  0  0  0  0  0  0  0  0  0
    1.4631   -0.1853    0.0000 H   0  0  0  0  0  0  0  0  0  0  0  0
    3.6115    3.5357    0.0000 H   0  0  0  0  0  0  0  0  0  0  0  0
    1.4648    1.6177    0.0000 H   0  0  0  0  0  0  0  0  0  0  0  0
    1.9795    3.2020    0.0000 H   0  0  0  0  0  0  0  0  0  0  0  0
  1 14  1  0  0  0  0
  1 15  1  0  0  0  0
  2  3  1  0  0  0  0
  3  8  1  0  0  0  0
  3 11  1  0  0  0  0
  3 18  1  0  0  0  0
  4 13  2  0  0  0  0
  4 19  1  0  0  0  0
  5  6  1  0  0  0  0
  5  7  1  0  0  0  0
  5 11  1  0  0  0  0
  5 17  1  0  0  0  0
  6 10  1  0  0  0  0
  6 13  1  0  0  0  0
  6 16  1  0  0  0  0
  7  9  1  0  0  0  0
  7 12  1  0  0  0  0
  7 25  1  0  0  0  0
  8  9  1  0  0  0  0
  8 10  1  0  0  0  0
  8 26  1  0  0  0  0
  9 15  1  0  0  0  0
  9 27  1  0  0  0  0
 10 28  1  0  0  0  0
 10 29  1  0  0  0  0
 11 30  1  0  0  0  0
 11 31  1  0  0  0  0
 12 14  1  0  0  0  0
 12 32  1  0  0  0  0
 12 33  1  0  0  0  0
 13 14  1  0  0  0  0
 14 34  1  0  0  0  0
 15 35  1  0  0  0  0
 15 36  1  0  0  0  0
 16 19  1  0  0  0  0
 16 20  2  0  0  0  0
 17 21  2  0  0  0  0
 17 37  1  0  0  0  0
 18 38  1  0  0  0  0
 18 39  1  0  0  0  0
 18 40  1  0  0  0  0
 19 22  2  0  0  0  0
 20 23  1  0  0  0  0
 20 41  1  0  0  0  0
 21 42  1  0  0  0  0
 21 43  1  0  0  0  0
 22 24  1  0  0  0  0
 22 44  1  0  0  0  0
 23 24  2  0  0  0  0
 23 45  1  0  0  0  0
 24 46  1  0  0  0  0
M  CHG  2   2  -1   3   1
M  END
> <PUBCHEM_COMPOUND_CID>
5318847

> <PUBCHEM_COMPOUND_CANONICALIZED>
1

> <PUBCHEM_CACTVS_COMPLEXITY>
662

> <PUBCHEM_CACTVS_HBOND_ACCEPTOR>
3

> <PUBCHEM_CACTVS_HBOND_DONOR>
0

> <PUBCHEM_CACTVS_ROTATABLE_BOND>
1

> <PUBCHEM_CACTVS_SUBSKEYS>
AAADceB7MAAAAAAAAAAAAAAAAAAAAQAAAAA8eNECAAASAEABAAAAHgAEAAAADzzhmAYywIMQBACgAyRiRASCAAAgAgAoiAA4ZIgIICKAkZGGIABmgACIyAeQ0PMPgAAAAAACAADQAAaAACQAAAAAAAAAAA==

> <PUBCHEM_IUPAC_OPENEYE_NAME>
13-methyl-13-oxido-15-vinyl-19-oxa-3-aza-13-azoniahexacyclo[14.3.1.02,10.04,9.010,15.012,17]icosa-2,4,6,8-tetraene

> <PUBCHEM_IUPAC_CAS_NAME>
15-ethenyl-13-methyl-13-oxido-19-oxa-3-aza-13-azoniahexacyclo[14.3.1.02,10.04,9.010,15.012,17]eicosa-2,4,6,8-tetraene

> <PUBCHEM_IUPAC_NAME_MARKUP>
15-ethenyl-13-methyl-13-oxido-19-oxa-3-aza-13-azoniahexacyclo[14.3.1.0<SUP>2,10</SUP>.0<SUP>4,9</SUP>.0<SUP>10,15</SUP>.0<SUP>12,17</SUP>]icosa-2,4,6,8-tetraene

> <PUBCHEM_IUPAC_NAME>
15-ethenyl-13-methyl-13-oxido-19-oxa-3-aza-13-azoniahexacyclo[14.3.1.02,10.04,9.010,15.012,17]icosa-2,4,6,8-tetraene

> <PUBCHEM_IUPAC_SYSTEMATIC_NAME>
15-ethenyl-13-methyl-13-oxidanidyl-19-oxa-3-aza-13-azoniahexacyclo[14.3.1.02,10.04,9.010,15.012,17]icosa-2,4,6,8-tetraene

> <PUBCHEM_IUPAC_TRADITIONAL_NAME>
13-methyl-13-oxido-15-vinyl-19-oxa-3-aza-13-azoniahexacyclo[14.3.1.02,10.04,9.010,15.012,17]eicosa-2,4,6,8-tetraene

> <PUBCHEM_IUPAC_INCHI>
InChI=1S/C20H22N2O2/c1-3-19-11-22(2,23)16-9-20(19)13-6-4-5-7-15(13)21-18(20)17-8-14(19)12(16)10-24-17/h3-7,12,14,16-17H,1,8-11H2,2H3

> <PUBCHEM_IUPAC_INCHIKEY>
OISZCFMVBRTVHR-UHFFFAOYSA-N

> <PUBCHEM_XLOGP3_AA>
1.9

> <PUBCHEM_EXACT_MASS>
322.168128

> <PUBCHEM_MOLECULAR_FORMULA>
C20H22N2O2

> <PUBCHEM_MOLECULAR_WEIGHT>
322.4

> <PUBCHEM_OPENEYE_CAN_SMILES>
C[N+]1(CC2(C3CC4C5=NC6=CC=CC=C6C52CC1C3CO4)C=C)[O-]

> <PUBCHEM_OPENEYE_ISO_SMILES>
C[N+]1(CC2(C3CC4C5=NC6=CC=CC=C6C52CC1C3CO4)C=C)[O-]

> <PUBCHEM_CACTVS_TPSA>
39.7

> <PUBCHEM_MONOISOTOPIC_WEIGHT>
322.168128

> <PUBCHEM_TOTAL_CHARGE>
0

> <PUBCHEM_HEAVY_ATOM_COUNT>
24

> <PUBCHEM_ATOM_DEF_STEREO_COUNT>
0

> <PUBCHEM_ATOM_UDEF_STEREO_COUNT>
7

> <PUBCHEM_BOND_DEF_STEREO_COUNT>
0

> <PUBCHEM_BOND_UDEF_STEREO_COUNT>
0

> <PUBCHEM_ISOTOPIC_ATOM_COUNT>
0

> <PUBCHEM_COMPONENT_COUNT>
1

> <PUBCHEM_CACTVS_TAUTO_COUNT>
-1

> <PUBCHEM_COORDINATE_TYPE>
1
5
255

> <PUBCHEM_BONDANNOTATIONS>
14  12  3
16  19  8
16  20  8
19  22  8
3  2  3
20  23  8
22  24  8
23  24  8
5  17  3
6  10  3
7  12  3
8  10  3
9  15  3

$$$$
