101855909
  -OEChem-09222004302D

 42 46  0     1  0  0  0  0  0999 V2000
    5.9131    1.2224    0.0000 O   0  0  0  0  0  0  0  0  0  0  0  0
    3.1708    0.3745    0.0000 O   0  0  0  0  0  0  0  0  0  0  0  0
    2.0000    3.1907    0.0000 O   0  0  0  0  0  0  0  0  0  0  0  0
    3.0296   -0.4652    0.0000 O   0  0  0  0  0  0  0  0  0  0  0  0
    3.7019   -2.5342    0.0000 O   0  0  0  0  0  0  0  0  0  0  0  0
    2.7364    1.5741    0.0000 N   0  0  0  0  0  0  0  0  0  0  0  0
    4.2896   -1.7252    0.0000 N   0  0  0  0  0  0  0  0  0  0  0  0
    4.2896    2.0043    0.0000 C   0  0  2  0  0  0  0  0  0  0  0  0
    4.7896   -0.1864    0.0000 C   0  0  2  0  0  0  0  0  0  0  0  0
    3.6662    1.2224    0.0000 C   0  0  2  0  0  0  0  0  0  0  0  0
    3.7399    2.8325    0.0000 C   0  0  2  0  0  0  0  0  0  0  0  0
    5.6906    0.2475    0.0000 C   0  0  2  0  0  0  0  0  0  0  0  0
    3.8887    0.2475    0.0000 C   0  0  0  0  0  0  0  0  0  0  0  0
    3.9690    0.9768    0.0000 C   0  0  3  0  0  0  0  0  0  0  0  0
    5.2896    2.0043    0.0000 C   0  0  0  0  0  0  0  0  0  0  0  0
    2.7818    2.5672    0.0000 C   0  0  0  0  0  0  0  0  0  0  0  0
    5.5987   -0.7742    0.0000 C   0  0  0  0  0  0  0  0  0  0  0  0
    3.9806   -0.7742    0.0000 C   0  0  0  0  0  0  0  0  0  0  0  0
    5.2896   -1.7252    0.0000 C   0  0  0  0  0  0  0  0  0  0  0  0
    6.6141   -0.5419    0.0000 C   0  0  0  0  0  0  0  0  0  0  0  0
    5.9746   -2.5100    0.0000 C   0  0  0  0  0  0  0  0  0  0  0  0
    7.3170   -1.3106    0.0000 C   0  0  0  0  0  0  0  0  0  0  0  0
    6.9951   -2.3013    0.0000 C   0  0  0  0  0  0  0  0  0  0  0  0
    4.1086   -3.4478    0.0000 C   0  0  0  0  0  0  0  0  0  0  0  0
    4.8196    2.6688    0.0000 H   0  0  0  0  0  0  0  0  0  0  0  0
    2.8749    0.9119    0.0000 H   0  0  0  0  0  0  0  0  0  0  0  0
    3.6357    3.6761    0.0000 H   0  0  0  0  0  0  0  0  0  0  0  0
    6.4564    0.6163    0.0000 H   0  0  0  0  0  0  0  0  0  0  0  0
    3.2687    0.2475    0.0000 H   0  0  0  0  0  0  0  0  0  0  0  0
    3.7507   -0.3570    0.0000 H   0  0  0  0  0  0  0  0  0  0  0  0
    3.3981    1.2187    0.0000 H   0  0  0  0  0  0  0  0  0  0  0  0
    5.8482    2.2733    0.0000 H   0  0  0  0  0  0  0  0  0  0  0  0
    5.1517    2.6087    0.0000 H   0  0  0  0  0  0  0  0  0  0  0  0
    2.2184    1.2335    0.0000 H   0  0  0  0  0  0  0  0  0  0  0  0
    2.5999    0.6163    0.0000 H   0  0  0  0  0  0  0  0  0  0  0  0
    6.7988    0.0499    0.0000 H   0  0  0  0  0  0  0  0  0  0  0  0
    5.7762   -3.0974    0.0000 H   0  0  0  0  0  0  0  0  0  0  0  0
    7.9230   -1.1794    0.0000 H   0  0  0  0  0  0  0  0  0  0  0  0
    7.4082   -2.7636    0.0000 H   0  0  0  0  0  0  0  0  0  0  0  0
    3.5422   -3.7000    0.0000 H   0  0  0  0  0  0  0  0  0  0  0  0
    4.3608   -4.0142    0.0000 H   0  0  0  0  0  0  0  0  0  0  0  0
    4.6750   -3.1956    0.0000 H   0  0  0  0  0  0  0  0  0  0  0  0
  1 12  1  0  0  0  0
  1 15  1  0  0  0  0
  2 14  1  0  0  0  0
  2 35  1  0  0  0  0
  3 16  2  0  0  0  0
  4 18  2  0  0  0  0
  5  7  1  0  0  0  0
  5 24  1  0  0  0  0
  6 10  1  0  0  0  0
  6 16  1  0  0  0  0
  6 34  1  0  0  0  0
  7 18  1  0  0  0  0
  7 19  1  0  0  0  0
  8 10  1  0  0  0  0
  8 11  1  0  0  0  0
  8 15  1  0  0  0  0
  8 25  1  1  0  0  0
  9 12  1  0  0  0  0
  9 13  1  0  0  0  0
  9 17  1  0  0  0  0
  9 18  1  6  0  0  0
 10 13  1  0  0  0  0
 10 26  1  1  0  0  0
 11 14  1  0  0  0  0
 11 16  1  0  0  0  0
 11 27  1  1  0  0  0
 12 14  1  0  0  0  0
 12 28  1  1  0  0  0
 13 29  1  0  0  0  0
 13 30  1  0  0  0  0
 14 31  1  0  0  0  0
 15 32  1  0  0  0  0
 15 33  1  0  0  0  0
 17 19  1  0  0  0  0
 17 20  2  0  0  0  0
 19 21  2  0  0  0  0
 20 22  1  0  0  0  0
 20 36  1  0  0  0  0
 21 23  1  0  0  0  0
 21 37  1  0  0  0  0
 22 23  2  0  0  0  0
 22 38  1  0  0  0  0
 23 39  1  0  0  0  0
 24 40  1  0  0  0  0
 24 41  1  0  0  0  0
 24 42  1  0  0  0  0
M  END
> <PUBCHEM_COMPOUND_CID>
101855909

> <PUBCHEM_COMPOUND_CANONICALIZED>
1

> <PUBCHEM_CACTVS_COMPLEXITY>
598

> <PUBCHEM_CACTVS_HBOND_ACCEPTOR>
5

> <PUBCHEM_CACTVS_HBOND_DONOR>
2

> <PUBCHEM_CACTVS_ROTATABLE_BOND>
1

> <PUBCHEM_CACTVS_SUBSKEYS>
AAADceB7OAAAAAAAAAAAAAAAAAAAAWLAAAA0QAAABogWAFgBAAAAHgAUCAAADzzhmAYywILQBgCIAiVSUACCAAAhAgAoiIEIZIgJMDbAlZGGYAhm9gHLyAf+2POPgAAAAAACAAAAAAAAAAQAAAAAAAAAAA==

> <PUBCHEM_IUPAC_OPENEYE_NAME>
(1R,2S,4S,7R,8S)-11-hydroxy-1'-methoxy-spiro[10-oxa-5-azatricyclo[5.3.1.04,8]undecane-2,3'-indoline]-2',6-dione

> <PUBCHEM_IUPAC_CAS_NAME>
(1R,2S,4S,7R,8S)-11-hydroxy-1'-methoxyspiro[10-oxa-5-azatricyclo[5.3.1.04,8]undecane-2,3'-indole]-2',6-dione

> <PUBCHEM_IUPAC_NAME_MARKUP>
(1<I>R</I>,2<I>S</I>,4<I>S</I>,7<I>R</I>,8<I>S</I>)-11-hydroxy-1&apos;-methoxyspiro[10-oxa-5-azatricyclo[5.3.1.0<SUP>4,8</SUP>]undecane-2,3&apos;-indole]-2&apos;,6-dione

> <PUBCHEM_IUPAC_NAME>
(1R,2S,4S,7R,8S)-11-hydroxy-1'-methoxyspiro[10-oxa-5-azatricyclo[5.3.1.04,8]undecane-2,3'-indole]-2',6-dione

> <PUBCHEM_IUPAC_SYSTEMATIC_NAME>
(1R,2S,4S,7R,8S)-1'-methoxy-11-oxidanyl-spiro[10-oxa-5-azatricyclo[5.3.1.04,8]undecane-2,3'-indole]-2',6-dione

> <PUBCHEM_IUPAC_TRADITIONAL_NAME>
(1R,2S,4S,7R,8S)-11-hydroxy-1'-methoxy-spiro[10-oxa-5-azatricyclo[5.3.1.04,8]undecane-2,3'-indoline]-2',6-quinone

> <PUBCHEM_IUPAC_INCHI>
InChI=1S/C17H18N2O5/c1-23-19-11-5-3-2-4-9(11)17(16(19)22)6-10-8-7-24-14(17)13(20)12(8)15(21)18-10/h2-5,8,10,12-14,20H,6-7H2,1H3,(H,18,21)/t8-,10+,12-,13?,14+,17+/m1/s1

> <PUBCHEM_IUPAC_INCHIKEY>
DEZUQQRCGLXGOX-HNYQZPONSA-N

> <PUBCHEM_XLOGP3_AA>
-0.6

> <PUBCHEM_EXACT_MASS>
330.121572

> <PUBCHEM_MOLECULAR_FORMULA>
C17H18N2O5

> <PUBCHEM_MOLECULAR_WEIGHT>
330.33

> <PUBCHEM_OPENEYE_CAN_SMILES>
CON1C2=CC=CC=C2C3(C1=O)CC4C5COC3C(C5C(=O)N4)O

> <PUBCHEM_OPENEYE_ISO_SMILES>
CON1C2=CC=CC=C2[C@@]3(C1=O)C[C@H]4[C@H]5CO[C@H]3C([C@@H]5C(=O)N4)O

> <PUBCHEM_CACTVS_TPSA>
88.1

> <PUBCHEM_MONOISOTOPIC_WEIGHT>
330.121572

> <PUBCHEM_TOTAL_CHARGE>
0

> <PUBCHEM_HEAVY_ATOM_COUNT>
24

> <PUBCHEM_ATOM_DEF_STEREO_COUNT>
5

> <PUBCHEM_ATOM_UDEF_STEREO_COUNT>
1

> <PUBCHEM_BOND_DEF_STEREO_COUNT>
0

> <PUBCHEM_BOND_UDEF_STEREO_COUNT>
0

> <PUBCHEM_ISOTOPIC_ATOM_COUNT>
0

> <PUBCHEM_COMPONENT_COUNT>
1

> <PUBCHEM_CACTVS_TAUTO_COUNT>
-1

> <PUBCHEM_COORDINATE_TYPE>
1
5
255

> <PUBCHEM_BONDANNOTATIONS>
10  26  5
11  27  5
12  28  5
17  19  8
17  20  8
19  21  8
14  2  3
20  22  8
21  23  8
22  23  8
8  25  5
9  18  6

$$$$
