101596938
  -OEChem-08252015083D

 79 83  0     1  0  0  0  0  0999 V2000
   -5.5601   -2.7703   -0.6146 O   0  0  0  0  0  0  0  0  0  0  0  0
    1.2985    0.8878   -0.2348 C   0  0  2  0  0  0  0  0  0  0  0  0
    0.6729   -0.4018    0.4791 C   0  0  1  0  0  0  0  0  0  0  0  0
    2.8230    0.8657    0.0549 C   0  0  1  0  0  0  0  0  0  0  0  0
   -0.8761   -0.3965    0.1737 C   0  0  2  0  0  0  0  0  0  0  0  0
   -1.6598    0.8919    0.6687 C   0  0  1  0  0  0  0  0  0  0  0  0
    3.6065   -0.3827   -0.4513 C   0  0  2  0  0  0  0  0  0  0  0  0
    0.6283    2.1607    0.3486 C   0  0  0  0  0  0  0  0  0  0  0  0
    1.4059   -1.6830   -0.0641 C   0  0  0  0  0  0  0  0  0  0  0  0
   -0.9075    2.1814    0.1996 C   0  0  0  0  0  0  0  0  0  0  0  0
   -3.0851    0.8238   -0.0228 C   0  0  1  0  0  0  0  0  0  0  0  0
    2.9518   -1.6650    0.0919 C   0  0  0  0  0  0  0  0  0  0  0  0
    4.9873   -0.0284    0.1758 C   0  0  2  0  0  0  0  0  0  0  0  0
    3.7247    2.0399   -0.3275 C   0  0  0  0  0  0  0  0  0  0  0  0
   -1.6357   -1.6874    0.5342 C   0  0  0  0  0  0  0  0  0  0  0  0
   -3.9198   -0.4934    0.2429 C   0  0  2  0  0  0  0  0  0  0  0  0
    5.1501    1.4796   -0.1387 C   0  0  0  0  0  0  0  0  0  0  0  0
    1.0387    0.9295   -1.7714 C   0  0  0  0  0  0  0  0  0  0  0  0
    0.9032   -0.4411    2.0225 C   0  0  0  0  0  0  0  0  0  0  0  0
   -3.0290   -1.7114   -0.1100 C   0  0  0  0  0  0  0  0  0  0  0  0
   -1.8090    1.0125    2.2055 C   0  0  0  0  0  0  0  0  0  0  0  0
    3.7621   -0.5327   -1.9855 C   0  0  0  0  0  0  0  0  0  0  0  0
   -3.9750    2.0736    0.1547 C   0  0  0  0  0  0  0  0  0  0  0  0
    6.1929   -0.8535   -0.2513 C   0  0  0  0  0  0  0  0  0  0  0  0
   -5.1791   -0.4396   -0.6291 C   0  0  0  0  0  0  0  0  0  0  0  0
   -4.4381   -0.6577    1.6906 C   0  0  0  0  0  0  0  0  0  0  0  0
   -5.1375    2.0588   -0.8439 C   0  0  0  0  0  0  0  0  0  0  0  0
   -5.7108    0.6986   -1.1054 C   0  0  0  0  0  0  0  0  0  0  0  0
    7.4923   -0.0947    0.0193 C   0  0  0  0  0  0  0  0  0  0  0  0
    6.2058   -2.2044    0.4641 C   0  0  0  0  0  0  0  0  0  0  0  0
   -5.9214   -1.6602   -0.9756 C   0  0  0  0  0  0  0  0  0  0  0  0
    2.8915    0.8643    1.1538 H   0  0  0  0  0  0  0  0  0  0  0  0
   -0.9371   -0.3763   -0.9238 H   0  0  0  0  0  0  0  0  0  0  0  0
    1.0263    3.0509   -0.1565 H   0  0  0  0  0  0  0  0  0  0  0  0
    0.8939    2.2909    1.4029 H   0  0  0  0  0  0  0  0  0  0  0  0
    1.1497   -1.8519   -1.1152 H   0  0  0  0  0  0  0  0  0  0  0  0
    1.0464   -2.5713    0.4704 H   0  0  0  0  0  0  0  0  0  0  0  0
   -2.8520    0.8074   -1.1025 H   0  0  0  0  0  0  0  0  0  0  0  0
   -1.2793    3.0535    0.7547 H   0  0  0  0  0  0  0  0  0  0  0  0
   -1.1627    2.3970   -0.8437 H   0  0  0  0  0  0  0  0  0  0  0  0
    3.2165   -1.8108    1.1445 H   0  0  0  0  0  0  0  0  0  0  0  0
    3.3400   -2.5478   -0.4294 H   0  0  0  0  0  0  0  0  0  0  0  0
    4.9012   -0.1063    1.2712 H   0  0  0  0  0  0  0  0  0  0  0  0
    3.5564    2.9088    0.3172 H   0  0  0  0  0  0  0  0  0  0  0  0
    3.5803    2.3646   -1.3619 H   0  0  0  0  0  0  0  0  0  0  0  0
   -1.7139   -1.8246    1.6158 H   0  0  0  0  0  0  0  0  0  0  0  0
   -1.0995   -2.5634    0.1550 H   0  0  0  0  0  0  0  0  0  0  0  0
    5.7070    1.6591   -1.0649 H   0  0  0  0  0  0  0  0  0  0  0  0
    5.6669    2.0001    0.6751 H   0  0  0  0  0  0  0  0  0  0  0  0
    1.0515   -0.0551   -2.2348 H   0  0  0  0  0  0  0  0  0  0  0  0
    1.7592    1.5684   -2.2896 H   0  0  0  0  0  0  0  0  0  0  0  0
    0.0572    1.3266   -2.0379 H   0  0  0  0  0  0  0  0  0  0  0  0
    0.3027   -1.2272    2.4915 H   0  0  0  0  0  0  0  0  0  0  0  0
    1.9366   -0.6580    2.3021 H   0  0  0  0  0  0  0  0  0  0  0  0
    0.6786    0.4979    2.5213 H   0  0  0  0  0  0  0  0  0  0  0  0
   -2.9084   -1.7815   -1.1997 H   0  0  0  0  0  0  0  0  0  0  0  0
   -3.4843   -2.6507    0.2197 H   0  0  0  0  0  0  0  0  0  0  0  0
   -1.7787    0.0500    2.7174 H   0  0  0  0  0  0  0  0  0  0  0  0
   -2.7402    1.5089    2.4915 H   0  0  0  0  0  0  0  0  0  0  0  0
   -1.0234    1.6296    2.6523 H   0  0  0  0  0  0  0  0  0  0  0  0
    4.1569    0.3662   -2.4667 H   0  0  0  0  0  0  0  0  0  0  0  0
    2.8320   -0.7953   -2.4851 H   0  0  0  0  0  0  0  0  0  0  0  0
    4.4265   -1.3645   -2.2405 H   0  0  0  0  0  0  0  0  0  0  0  0
   -3.4105    2.9975   -0.0051 H   0  0  0  0  0  0  0  0  0  0  0  0
   -4.3747    2.1345    1.1717 H   0  0  0  0  0  0  0  0  0  0  0  0
    6.1974   -1.0446   -1.3273 H   0  0  0  0  0  0  0  0  0  0  0  0
   -3.6430   -0.8498    2.4104 H   0  0  0  0  0  0  0  0  0  0  0  0
   -4.9984    0.2172    2.0348 H   0  0  0  0  0  0  0  0  0  0  0  0
   -5.1175   -1.5155    1.7752 H   0  0  0  0  0  0  0  0  0  0  0  0
   -4.7920    2.4669   -1.8019 H   0  0  0  0  0  0  0  0  0  0  0  0
   -5.9287    2.7260   -0.4833 H   0  0  0  0  0  0  0  0  0  0  0  0
   -6.6079    0.6827   -1.7200 H   0  0  0  0  0  0  0  0  0  0  0  0
    6.1403   -2.0864    1.5510 H   0  0  0  0  0  0  0  0  0  0  0  0
    7.5483    0.2458    1.0591 H   0  0  0  0  0  0  0  0  0  0  0  0
    7.6223    0.7684   -0.6396 H   0  0  0  0  0  0  0  0  0  0  0  0
    7.1343   -2.7451    0.2478 H   0  0  0  0  0  0  0  0  0  0  0  0
    8.3579   -0.7439   -0.1573 H   0  0  0  0  0  0  0  0  0  0  0  0
    5.3900   -2.8495    0.1356 H   0  0  0  0  0  0  0  0  0  0  0  0
   -6.8303   -1.5308   -1.5871 H   0  0  0  0  0  0  0  0  0  0  0  0
  1 31  2  0  0  0  0
  2  3  1  0  0  0  0
  2  4  1  0  0  0  0
  2  8  1  0  0  0  0
  2 18  1  0  0  0  0
  3  5  1  0  0  0  0
  3  9  1  0  0  0  0
  3 19  1  0  0  0  0
  4  7  1  0  0  0  0
  4 14  1  0  0  0  0
  4 32  1  0  0  0  0
  5  6  1  0  0  0  0
  5 15  1  0  0  0  0
  5 33  1  0  0  0  0
  6 10  1  0  0  0  0
  6 11  1  0  0  0  0
  6 21  1  0  0  0  0
  7 12  1  0  0  0  0
  7 13  1  0  0  0  0
  7 22  1  0  0  0  0
  8 10  1  0  0  0  0
  8 34  1  0  0  0  0
  8 35  1  0  0  0  0
  9 12  1  0  0  0  0
  9 36  1  0  0  0  0
  9 37  1  0  0  0  0
 10 39  1  0  0  0  0
 10 40  1  0  0  0  0
 11 16  1  0  0  0  0
 11 23  1  0  0  0  0
 11 38  1  0  0  0  0
 12 41  1  0  0  0  0
 12 42  1  0  0  0  0
 13 17  1  0  0  0  0
 13 24  1  0  0  0  0
 13 43  1  0  0  0  0
 14 17  1  0  0  0  0
 14 44  1  0  0  0  0
 14 45  1  0  0  0  0
 15 20  1  0  0  0  0
 15 46  1  0  0  0  0
 15 47  1  0  0  0  0
 16 20  1  0  0  0  0
 16 25  1  0  0  0  0
 16 26  1  0  0  0  0
 17 48  1  0  0  0  0
 17 49  1  0  0  0  0
 18 50  1  0  0  0  0
 18 51  1  0  0  0  0
 18 52  1  0  0  0  0
 19 53  1  0  0  0  0
 19 54  1  0  0  0  0
 19 55  1  0  0  0  0
 20 56  1  0  0  0  0
 20 57  1  0  0  0  0
 21 58  1  0  0  0  0
 21 59  1  0  0  0  0
 21 60  1  0  0  0  0
 22 61  1  0  0  0  0
 22 62  1  0  0  0  0
 22 63  1  0  0  0  0
 23 27  1  0  0  0  0
 23 64  1  0  0  0  0
 23 65  1  0  0  0  0
 24 29  1  0  0  0  0
 24 30  1  0  0  0  0
 24 66  1  0  0  0  0
 25 28  2  0  0  0  0
 25 31  1  0  0  0  0
 26 67  1  0  0  0  0
 26 68  1  0  0  0  0
 26 69  1  0  0  0  0
 27 28  1  0  0  0  0
 27 70  1  0  0  0  0
 27 71  1  0  0  0  0
 28 72  1  0  0  0  0
 29 74  1  0  0  0  0
 29 75  1  0  0  0  0
 29 77  1  0  0  0  0
 30 73  1  0  0  0  0
 30 76  1  0  0  0  0
 30 78  1  0  0  0  0
 31 79  1  0  0  0  0
M  END
> <PUBCHEM_COMPOUND_CID>
101596938

> <PUBCHEM_CONFORMER_RMSD>
0.8

> <PUBCHEM_CONFORMER_DIVERSEORDER>
1

> <PUBCHEM_MMFF94_PARTIAL_CHARGES>
8
1 -0.57
16 0.14
25 -0.12
27 0.14
28 -0.29
31 0.5
72 0.15
79 0.06

> <PUBCHEM_EFFECTIVE_ROTOR_COUNT>
4.2

> <PUBCHEM_PHARMACOPHORE_FEATURES>
7
1 1 acceptor
3 24 29 30 hydrophobe
5 4 7 13 14 17 rings
6 11 16 23 25 27 28 rings
6 2 3 4 7 9 12 rings
6 2 3 5 6 8 10 rings
6 5 6 11 15 16 20 rings

> <PUBCHEM_HEAVY_ATOM_COUNT>
31

> <PUBCHEM_ATOM_DEF_STEREO_COUNT>
9

> <PUBCHEM_ATOM_UDEF_STEREO_COUNT>
0

> <PUBCHEM_BOND_DEF_STEREO_COUNT>
0

> <PUBCHEM_BOND_UDEF_STEREO_COUNT>
0

> <PUBCHEM_ISOTOPIC_ATOM_COUNT>
0

> <PUBCHEM_COMPONENT_COUNT>
1

> <PUBCHEM_CACTVS_TAUTO_COUNT>
1

> <PUBCHEM_CONFORMER_ID>
060E3F0A00000001

> <PUBCHEM_MMFF94_ENERGY>
157.671

> <PUBCHEM_FEATURE_SELFOVERLAP>
35.62

> <PUBCHEM_SHAPE_FINGERPRINT>
11089746 13 18187082849707049092
11315181 36 18202566176449141057
11578080 2 16445018705312241246
11719270 70 18272928289841229134
11796584 16 18202563947798710975
11963148 33 18271799129812148838
12166972 35 18261675960171003428
12236239 1 18260546714705897150
12403260 363 18410579461889297120
12516196 113 18130785676832401192
13224815 77 17917996066380253131
13690498 29 18338506543819559639
13782708 43 17489594403328316606
13811026 1 18260265257557850458
13862211 1 18412263943456331242
13914758 101 17895188862241226208
14068700 675 18131348644039752697
14856354 85 12967119545236986557
15064986 266 18260557753436323867
15082195 135 17970353822058193052
15183329 4 18334008376317846667
15196674 1 18410012139062868048
15788980 27 18408889537637966345
17349148 13 18340778095248569032
17857418 61 18411419492904036602
17980427 23 17274835648396039073
1813 80 14117802422710072432
18608769 82 18260834839162602371
18681886 176 18341324570108181440
19377110 9 15626225706348169288
19958102 18 18187357740504598911
200 152 18059856173182064001
20028762 73 18343018866246349006
20511986 3 18334562534726524594
20775438 99 16977267348319536727
21130935 74 18202000981093240434
21267235 1 18410580603785998011
21279426 13 18335981982710367196
21709351 56 18040715874634033397
21756936 100 10737287965431954985
22393880 68 18336254696360131589
23402539 116 18341611503524289853
23522609 53 18055385592974024793
23559900 14 18341323470085467912
23569943 247 17314779695016302786
2838139 119 17458062651420977589
3004659 81 18260543429235302800
32027 91 17485384274131353654
335352 9 18408322163942395380
350125 39 18335421245303569084
3633792 109 18267580222085717877
4015057 19 18187932836430549169
404807 14 17191237323000447662
4073 2 17895198856957327930
4340502 62 14477244864706219412
439807 62 18340204202520720751
474113 269 17532632582874746234
5104073 3 18411425003173193312
5283173 99 18336261258696029373
57724786 102 15430618232865121614
59755656 215 18334858277959294990
59755656 520 16081093662595996313
6086070 43 18335404760354313361
6669772 16 17271148036905093200
7495541 125 17346314946456323568

> <PUBCHEM_SHAPE_MULTIPOLES>
632.1
15.96
2.46
1.41
7.28
0.04
-0.24
4.24
3.43
-1.23
0.14
-0.63
-0.03
-0.42

> <PUBCHEM_SHAPE_SELFOVERLAP>
1340.916

> <PUBCHEM_SHAPE_VOLUME>
348.8

> <PUBCHEM_COORDINATE_TYPE>
2
5
10

$$$$
