101170704
  -OEChem-08252014533D

 80 84  0     1  0  0  0  0  0999 V2000
    1.0114   -2.7799   -0.1441 O   0  0  0  0  0  0  0  0  0  0  0  0
    5.0599   -0.4781    1.7263 O   0  0  0  0  0  0  0  0  0  0  0  0
   -0.9684   -0.5381    0.2587 C   0  0  2  0  0  0  0  0  0  0  0  0
   -1.8041    0.7648   -0.0870 C   0  0  1  0  0  0  0  0  0  0  0  0
   -3.3473    0.7679    0.3057 C   0  0  2  0  0  0  0  0  0  0  0  0
    0.4901   -0.4136   -0.4683 C   0  0  1  0  0  0  0  0  0  0  0  0
    1.1805    0.9112    0.0495 C   0  0  1  0  0  0  0  0  0  0  0  0
   -4.0070   -0.5460   -0.2314 C   0  0  1  0  0  0  0  0  0  0  0  0
   -1.7860   -1.7759   -0.2215 C   0  0  0  0  0  0  0  0  0  0  0  0
    2.6831    1.0851   -0.3240 C   0  0  2  0  0  0  0  0  0  0  0  0
   -1.0646    2.0547    0.3395 C   0  0  0  0  0  0  0  0  0  0  0  0
    0.3370    2.1567   -0.2546 C   0  0  0  0  0  0  0  0  0  0  0  0
   -3.2491   -1.8000    0.2289 C   0  0  0  0  0  0  0  0  0  0  0  0
   -5.5687   -0.6472   -0.0363 C   0  0  0  0  0  0  0  0  0  0  0  0
   -4.0358    1.9863   -0.4073 C   0  0  0  0  0  0  0  0  0  0  0  0
   -0.7477   -0.7115    1.7926 C   0  0  0  0  0  0  0  0  0  0  0  0
    3.4348   -0.1902   -0.0163 C   0  0  0  0  0  0  0  0  0  0  0  0
    1.4141   -1.6162   -0.1523 C   0  0  0  0  0  0  0  0  0  0  0  0
   -3.5481    0.9524    1.8284 C   0  0  0  0  0  0  0  0  0  0  0  0
    0.3718   -0.4547   -2.0147 C   0  0  0  0  0  0  0  0  0  0  0  0
    3.4045    2.0465    0.6546 C   0  0  0  0  0  0  0  0  0  0  0  0
   -6.2353    0.7518   -0.0825 C   0  0  0  0  0  0  0  0  0  0  0  0
   -5.4517    1.7366   -0.9331 C   0  0  0  0  0  0  0  0  0  0  0  0
    4.8510    0.1097    0.4410 C   0  0  1  0  0  0  0  0  0  0  0  0
    4.8793    1.6381    0.5921 C   0  0  0  0  0  0  0  0  0  0  0  0
    2.8660   -1.3987    0.0796 C   0  0  0  0  0  0  0  0  0  0  0  0
    2.9399    1.5829   -1.7622 C   0  0  0  0  0  0  0  0  0  0  0  0
   -6.1521   -1.4932   -1.1996 C   0  0  0  0  0  0  0  0  0  0  0  0
   -5.9937   -1.3480    1.2709 C   0  0  0  0  0  0  0  0  0  0  0  0
    5.9212   -0.4028   -0.5172 C   0  0  0  0  0  0  0  0  0  0  0  0
    5.7990   -1.9144   -0.7025 C   0  0  0  0  0  0  0  0  0  0  0  0
    7.3159   -0.0363   -0.0130 C   0  0  0  0  0  0  0  0  0  0  0  0
   -1.8238    0.7978   -1.1864 H   0  0  0  0  0  0  0  0  0  0  0  0
    1.1923    0.8279    1.1452 H   0  0  0  0  0  0  0  0  0  0  0  0
   -3.8516   -0.5073   -1.3225 H   0  0  0  0  0  0  0  0  0  0  0  0
   -1.3243   -2.7040    0.1297 H   0  0  0  0  0  0  0  0  0  0  0  0
   -1.8054   -1.8329   -1.3121 H   0  0  0  0  0  0  0  0  0  0  0  0
   -0.9841    2.1217    1.4285 H   0  0  0  0  0  0  0  0  0  0  0  0
   -1.6218    2.9436    0.0251 H   0  0  0  0  0  0  0  0  0  0  0  0
    0.2566    2.3266   -1.3332 H   0  0  0  0  0  0  0  0  0  0  0  0
    0.8193    3.0495    0.1607 H   0  0  0  0  0  0  0  0  0  0  0  0
   -3.7100   -2.6943   -0.2071 H   0  0  0  0  0  0  0  0  0  0  0  0
   -3.3148   -1.9304    1.3123 H   0  0  0  0  0  0  0  0  0  0  0  0
   -3.4423    2.3180   -1.2689 H   0  0  0  0  0  0  0  0  0  0  0  0
   -4.0603    2.8469    0.2745 H   0  0  0  0  0  0  0  0  0  0  0  0
   -0.4699    0.2157    2.2976 H   0  0  0  0  0  0  0  0  0  0  0  0
    0.0399   -1.4416    2.0048 H   0  0  0  0  0  0  0  0  0  0  0  0
   -1.6275   -1.0942    2.3097 H   0  0  0  0  0  0  0  0  0  0  0  0
   -3.3167    0.0563    2.4020 H   0  0  0  0  0  0  0  0  0  0  0  0
   -4.5779    1.2165    2.0797 H   0  0  0  0  0  0  0  0  0  0  0  0
   -2.9397    1.7686    2.2273 H   0  0  0  0  0  0  0  0  0  0  0  0
   -0.0451    0.4596   -2.4414 H   0  0  0  0  0  0  0  0  0  0  0  0
    1.3391   -0.6413   -2.4886 H   0  0  0  0  0  0  0  0  0  0  0  0
   -0.2385   -1.2891   -2.3665 H   0  0  0  0  0  0  0  0  0  0  0  0
    3.0412    1.9219    1.6834 H   0  0  0  0  0  0  0  0  0  0  0  0
    3.2730    3.1011    0.3891 H   0  0  0  0  0  0  0  0  0  0  0  0
   -6.3482    1.1675    0.9250 H   0  0  0  0  0  0  0  0  0  0  0  0
   -7.2581    0.6749   -0.4732 H   0  0  0  0  0  0  0  0  0  0  0  0
   -5.9884    2.6912   -0.9876 H   0  0  0  0  0  0  0  0  0  0  0  0
   -5.3942    1.3632   -1.9631 H   0  0  0  0  0  0  0  0  0  0  0  0
    5.3510    2.1295   -0.2667 H   0  0  0  0  0  0  0  0  0  0  0  0
    5.4065    1.9676    1.4943 H   0  0  0  0  0  0  0  0  0  0  0  0
    3.4143   -2.2708    0.4167 H   0  0  0  0  0  0  0  0  0  0  0  0
    2.4840    2.5645   -1.9287 H   0  0  0  0  0  0  0  0  0  0  0  0
    2.5646    0.9088   -2.5288 H   0  0  0  0  0  0  0  0  0  0  0  0
    4.0070    1.6984   -1.9790 H   0  0  0  0  0  0  0  0  0  0  0  0
   -5.7372   -2.5063   -1.2114 H   0  0  0  0  0  0  0  0  0  0  0  0
   -5.5788   -0.8594    2.1557 H   0  0  0  0  0  0  0  0  0  0  0  0
   -7.2407   -1.5903   -1.1118 H   0  0  0  0  0  0  0  0  0  0  0  0
   -5.9417   -1.0356   -2.1725 H   0  0  0  0  0  0  0  0  0  0  0  0
   -5.6816   -2.3976    1.2914 H   0  0  0  0  0  0  0  0  0  0  0  0
   -7.0851   -1.3394    1.3789 H   0  0  0  0  0  0  0  0  0  0  0  0
    5.7941    0.0616   -1.5039 H   0  0  0  0  0  0  0  0  0  0  0  0
    4.3825   -0.1359    2.3347 H   0  0  0  0  0  0  0  0  0  0  0  0
    5.7598   -2.4567    0.2475 H   0  0  0  0  0  0  0  0  0  0  0  0
    6.6744   -2.2941   -1.2438 H   0  0  0  0  0  0  0  0  0  0  0  0
    7.5326   -0.4941    0.9581 H   0  0  0  0  0  0  0  0  0  0  0  0
    7.4469    1.0456    0.0835 H   0  0  0  0  0  0  0  0  0  0  0  0
    8.0793   -0.3878   -0.7164 H   0  0  0  0  0  0  0  0  0  0  0  0
    4.9386   -2.1866   -1.3198 H   0  0  0  0  0  0  0  0  0  0  0  0
  1 18  2  0  0  0  0
  2 24  1  0  0  0  0
  2 74  1  0  0  0  0
  3  4  1  0  0  0  0
  3  6  1  0  0  0  0
  3  9  1  0  0  0  0
  3 16  1  0  0  0  0
  4  5  1  0  0  0  0
  4 11  1  0  0  0  0
  4 33  1  0  0  0  0
  5  8  1  0  0  0  0
  5 15  1  0  0  0  0
  5 19  1  0  0  0  0
  6  7  1  0  0  0  0
  6 18  1  0  0  0  0
  6 20  1  0  0  0  0
  7 10  1  0  0  0  0
  7 12  1  0  0  0  0
  7 34  1  0  0  0  0
  8 13  1  0  0  0  0
  8 14  1  0  0  0  0
  8 35  1  0  0  0  0
  9 13  1  0  0  0  0
  9 36  1  0  0  0  0
  9 37  1  0  0  0  0
 10 17  1  0  0  0  0
 10 21  1  0  0  0  0
 10 27  1  0  0  0  0
 11 12  1  0  0  0  0
 11 38  1  0  0  0  0
 11 39  1  0  0  0  0
 12 40  1  0  0  0  0
 12 41  1  0  0  0  0
 13 42  1  0  0  0  0
 13 43  1  0  0  0  0
 14 22  1  0  0  0  0
 14 28  1  0  0  0  0
 14 29  1  0  0  0  0
 15 23  1  0  0  0  0
 15 44  1  0  0  0  0
 15 45  1  0  0  0  0
 16 46  1  0  0  0  0
 16 47  1  0  0  0  0
 16 48  1  0  0  0  0
 17 24  1  0  0  0  0
 17 26  2  0  0  0  0
 18 26  1  0  0  0  0
 19 49  1  0  0  0  0
 19 50  1  0  0  0  0
 19 51  1  0  0  0  0
 20 52  1  0  0  0  0
 20 53  1  0  0  0  0
 20 54  1  0  0  0  0
 21 25  1  0  0  0  0
 21 55  1  0  0  0  0
 21 56  1  0  0  0  0
 22 23  1  0  0  0  0
 22 57  1  0  0  0  0
 22 58  1  0  0  0  0
 23 59  1  0  0  0  0
 23 60  1  0  0  0  0
 24 25  1  0  0  0  0
 24 30  1  0  0  0  0
 25 61  1  0  0  0  0
 25 62  1  0  0  0  0
 26 63  1  0  0  0  0
 27 64  1  0  0  0  0
 27 65  1  0  0  0  0
 27 66  1  0  0  0  0
 28 67  1  0  0  0  0
 28 69  1  0  0  0  0
 28 70  1  0  0  0  0
 29 68  1  0  0  0  0
 29 71  1  0  0  0  0
 29 72  1  0  0  0  0
 30 31  1  0  0  0  0
 30 32  1  0  0  0  0
 30 73  1  0  0  0  0
 31 75  1  0  0  0  0
 31 76  1  0  0  0  0
 31 80  1  0  0  0  0
 32 77  1  0  0  0  0
 32 78  1  0  0  0  0
 32 79  1  0  0  0  0
M  END
> <PUBCHEM_COMPOUND_CID>
101170704

> <PUBCHEM_CONFORMER_RMSD>
0.8

> <PUBCHEM_CONFORMER_DIVERSEORDER>
1

> <PUBCHEM_MMFF94_PARTIAL_CHARGES>
10
1 -0.57
10 0.14
17 -0.28
18 0.49
2 -0.68
24 0.42
26 -0.14
6 0.06
63 0.15
74 0.4

> <PUBCHEM_EFFECTIVE_ROTOR_COUNT>
3.2

> <PUBCHEM_PHARMACOPHORE_FEATURES>
10
1 1 acceptor
1 2 acceptor
1 2 donor
3 14 28 29 hydrophobe
3 30 31 32 hydrophobe
5 10 17 21 24 25 rings
6 3 4 5 8 9 13 rings
6 3 4 6 7 11 12 rings
6 5 8 14 15 22 23 rings
6 6 7 10 17 18 26 rings

> <PUBCHEM_HEAVY_ATOM_COUNT>
32

> <PUBCHEM_ATOM_DEF_STEREO_COUNT>
8

> <PUBCHEM_ATOM_UDEF_STEREO_COUNT>
0

> <PUBCHEM_BOND_DEF_STEREO_COUNT>
0

> <PUBCHEM_BOND_UDEF_STEREO_COUNT>
0

> <PUBCHEM_ISOTOPIC_ATOM_COUNT>
0

> <PUBCHEM_COMPONENT_COUNT>
1

> <PUBCHEM_CACTVS_TAUTO_COUNT>
1

> <PUBCHEM_CONFORMER_ID>
0607BE1000000001

> <PUBCHEM_MMFF94_ENERGY>
154.0304

> <PUBCHEM_FEATURE_SELFOVERLAP>
50.855

> <PUBCHEM_SHAPE_FINGERPRINT>
10 15 18336538413447109736
10906281 52 18261973876266269898
11315181 36 18060421317874498721
11488393 25 17201372762834448694
11578080 2 16880174630177198253
11646440 116 18131639997050666009
11719270 70 18412822464987604471
11963148 33 18408879654940571082
12011746 2 18335706009961133518
12166972 35 18409731785131157136
12236239 1 17917711313958555679
12516196 113 18343581845683753304
13224815 77 18059863865252291237
13402501 40 18410292505885067424
13533116 47 18273216413416101650
13782708 43 17203331074568280934
13811026 1 18411410730690958280
14251764 18 18334573564650810256
14341114 176 18410578413273282898
14856354 85 15430042062912951595
15131766 46 16083357716658155460
15183329 4 18113330916661194459
15196674 1 18411136943726689429
15788980 27 18040156218962732169
15849732 13 18413108364608311724
17349148 13 18186807984505814785
1813 80 17167581587999485068
18608769 82 18412541029445801382
18681886 176 18412538838632789488
20028762 73 18201999941130958494
20511986 3 18337093632037008251
21033648 29 18270667779912501936
21130935 74 18060701705887230351
21267235 1 18410581694718182139
21279426 13 18410854322083329900
21709351 56 18260825999354938373
22149856 69 18270980011287214915
23402539 116 18342734126898495981
23522609 53 18124909873762146576
23559900 14 18411695500097632048
23569917 315 18412832403558511822
23569943 247 18046911468455324298
3004659 81 18259703406636301044
335352 9 18410573998046987452
3383291 50 18260831552938173659
350125 39 18409449180989017268
3545911 37 18411700975980012942
3633792 109 18270957926481092661
404807 14 17193213166553906310
4073 2 18041563658566194546
4093350 32 16916512441387246927
4325135 7 18272086106978386471
439807 62 18192428796376918303
5104073 3 18336831888414362819
5283173 99 18260823753351104581
59755656 215 18410294683903361990
59755656 520 17167580501214945427
6138700 20 18408604730114767690
6328613 192 17894641383008185244
6669772 16 17271705467514101568

> <PUBCHEM_SHAPE_MULTIPOLES>
646.81
16.17
2.4
1.33
2.02
0.03
0.06
-1.76
-0.06
-0.31
-0.18
-0.26
0.03
0.39

> <PUBCHEM_SHAPE_SELFOVERLAP>
1379.261

> <PUBCHEM_SHAPE_VOLUME>
354.8

> <PUBCHEM_COORDINATE_TYPE>
2
5
10

$$$$
