193011
  -OEChem-08252014553D

 86 90  0     1  0  0  0  0  0999 V2000
    3.8709    2.4683    0.3820 O   0  0  0  0  0  0  0  0  0  0  0  0
   -3.4338    3.0063    0.2288 O   0  0  0  0  0  0  0  0  0  0  0  0
   -7.3696   -0.6933    0.4366 O   0  0  0  0  0  0  0  0  0  0  0  0
    6.0667    1.8733    0.0301 O   0  0  0  0  0  0  0  0  0  0  0  0
    0.7128    0.2877    0.5501 C   0  0  1  0  0  0  0  0  0  0  0  0
   -0.6995    0.4393   -0.2720 C   0  0  1  0  0  0  0  0  0  0  0  0
    1.4244   -1.0332    0.0427 C   0  0  1  0  0  0  0  0  0  0  0  0
   -1.5850   -0.8388    0.0133 C   0  0  1  0  0  0  0  0  0  0  0  0
    2.9063   -1.2136    0.4969 C   0  0  2  0  0  0  0  0  0  0  0  0
   -3.1085   -0.7722   -0.4657 C   0  0  2  0  0  0  0  0  0  0  0  0
    3.6789    0.0642    0.0868 C   0  0  1  0  0  0  0  0  0  0  0  0
   -3.7476    0.5518    0.1356 C   0  0  1  0  0  0  0  0  0  0  0  0
    1.6587    1.5195    0.3366 C   0  0  0  0  0  0  0  0  0  0  0  0
    0.5449   -2.2744    0.2576 C   0  0  0  0  0  0  0  0  0  0  0  0
   -1.4790    1.7059    0.1667 C   0  0  0  0  0  0  0  0  0  0  0  0
   -0.8388   -2.1381   -0.3857 C   0  0  0  0  0  0  0  0  0  0  0  0
    3.1287    1.3138    0.7680 C   0  0  2  0  0  0  0  0  0  0  0  0
   -2.9318    1.7927   -0.3248 C   0  0  2  0  0  0  0  0  0  0  0  0
    5.1494   -0.3333    0.2607 C   0  0  1  0  0  0  0  0  0  0  0  0
    3.6950   -2.2512   -0.3372 C   0  0  0  0  0  0  0  0  0  0  0  0
   -5.3288    0.6505    0.0346 C   0  0  0  0  0  0  0  0  0  0  0  0
    0.4458    0.2300    2.0875 C   0  0  0  0  0  0  0  0  0  0  0  0
   -3.8604   -1.9992    0.1370 C   0  0  0  0  0  0  0  0  0  0  0  0
   -0.4255    0.6061   -1.7999 C   0  0  0  0  0  0  0  0  0  0  0  0
    5.1662   -1.7907   -0.2611 C   0  0  0  0  0  0  0  0  0  0  0  0
    3.0798   -1.6142    1.9846 C   0  0  0  0  0  0  0  0  0  0  0  0
   -3.2345   -0.8699   -2.0069 C   0  0  0  0  0  0  0  0  0  0  0  0
   -5.9503   -0.6662    0.5978 C   0  0  2  0  0  0  0  0  0  0  0  0
   -5.3759   -1.9407    0.0014 C   0  0  0  0  0  0  0  0  0  0  0  0
    6.1467    0.5421   -0.4855 C   0  0  0  0  0  0  0  0  0  0  0  0
   -5.8262    0.9515   -1.3930 C   0  0  0  0  0  0  0  0  0  0  0  0
   -5.8859    1.7906    0.9359 C   0  0  0  0  0  0  0  0  0  0  0  0
    5.8297    0.5850   -1.9817 C   0  0  0  0  0  0  0  0  0  0  0  0
    7.5767    0.0504   -0.2579 C   0  0  0  0  0  0  0  0  0  0  0  0
    1.5062   -0.9313   -1.0466 H   0  0  0  0  0  0  0  0  0  0  0  0
   -1.6790   -0.8950    1.1058 H   0  0  0  0  0  0  0  0  0  0  0  0
    3.5029    0.2129   -0.9879 H   0  0  0  0  0  0  0  0  0  0  0  0
   -3.5744    0.4895    1.2234 H   0  0  0  0  0  0  0  0  0  0  0  0
    1.2605    2.4014    0.8556 H   0  0  0  0  0  0  0  0  0  0  0  0
    1.6882    1.8119   -0.7164 H   0  0  0  0  0  0  0  0  0  0  0  0
    0.4124   -2.4891    1.3222 H   0  0  0  0  0  0  0  0  0  0  0  0
    1.0348   -3.1574   -0.1700 H   0  0  0  0  0  0  0  0  0  0  0  0
   -0.9396    2.6071   -0.1546 H   0  0  0  0  0  0  0  0  0  0  0  0
   -1.5225    1.7858    1.2562 H   0  0  0  0  0  0  0  0  0  0  0  0
   -0.7213   -2.2080   -1.4710 H   0  0  0  0  0  0  0  0  0  0  0  0
   -1.4145   -3.0193   -0.0866 H   0  0  0  0  0  0  0  0  0  0  0  0
    3.1949    1.2464    1.8571 H   0  0  0  0  0  0  0  0  0  0  0  0
   -2.9761    1.9117   -1.4091 H   0  0  0  0  0  0  0  0  0  0  0  0
    5.3936   -0.3150    1.3316 H   0  0  0  0  0  0  0  0  0  0  0  0
    3.3732   -2.2347   -1.3861 H   0  0  0  0  0  0  0  0  0  0  0  0
    3.5728   -3.2781    0.0237 H   0  0  0  0  0  0  0  0  0  0  0  0
    1.3612    0.2763    2.6735 H   0  0  0  0  0  0  0  0  0  0  0  0
   -0.1279    1.0887    2.4423 H   0  0  0  0  0  0  0  0  0  0  0  0
   -0.0828   -0.6694    2.4071 H   0  0  0  0  0  0  0  0  0  0  0  0
   -3.6171   -2.0911    1.2039 H   0  0  0  0  0  0  0  0  0  0  0  0
   -3.5242   -2.9271   -0.3399 H   0  0  0  0  0  0  0  0  0  0  0  0
    0.2475    1.4395   -2.0121 H   0  0  0  0  0  0  0  0  0  0  0  0
   -0.0011   -0.2838   -2.2676 H   0  0  0  0  0  0  0  0  0  0  0  0
   -1.3250    0.8455   -2.3644 H   0  0  0  0  0  0  0  0  0  0  0  0
    5.7104   -2.4154    0.4585 H   0  0  0  0  0  0  0  0  0  0  0  0
    5.6546   -1.9580   -1.2226 H   0  0  0  0  0  0  0  0  0  0  0  0
    4.0502   -2.0870    2.1754 H   0  0  0  0  0  0  0  0  0  0  0  0
    3.0402   -0.7682    2.6690 H   0  0  0  0  0  0  0  0  0  0  0  0
    2.3328   -2.3470    2.3000 H   0  0  0  0  0  0  0  0  0  0  0  0
   -3.2425    0.1026   -2.5000 H   0  0  0  0  0  0  0  0  0  0  0  0
   -2.4299   -1.4584   -2.4533 H   0  0  0  0  0  0  0  0  0  0  0  0
   -4.1522   -1.3700   -2.3252 H   0  0  0  0  0  0  0  0  0  0  0  0
   -5.7660   -0.6935    1.6808 H   0  0  0  0  0  0  0  0  0  0  0  0
   -5.6952   -2.0517   -1.0401 H   0  0  0  0  0  0  0  0  0  0  0  0
   -5.8120   -2.8082    0.5143 H   0  0  0  0  0  0  0  0  0  0  0  0
   -5.3156    1.8192   -1.8223 H   0  0  0  0  0  0  0  0  0  0  0  0
   -5.6961    0.1099   -2.0735 H   0  0  0  0  0  0  0  0  0  0  0  0
   -6.8985    1.1819   -1.3948 H   0  0  0  0  0  0  0  0  0  0  0  0
   -5.4245    1.7745    1.9293 H   0  0  0  0  0  0  0  0  0  0  0  0
   -5.7305    2.7799    0.4964 H   0  0  0  0  0  0  0  0  0  0  0  0
   -6.9692    1.7003    1.0784 H   0  0  0  0  0  0  0  0  0  0  0  0
    4.6281    2.5383    0.9874 H   0  0  0  0  0  0  0  0  0  0  0  0
   -2.9255    3.7413   -0.1548 H   0  0  0  0  0  0  0  0  0  0  0  0
    6.6069    1.1620   -2.5008 H   0  0  0  0  0  0  0  0  0  0  0  0
    5.7896   -0.3871   -2.4750 H   0  0  0  0  0  0  0  0  0  0  0  0
    4.9061    1.1329   -2.1943 H   0  0  0  0  0  0  0  0  0  0  0  0
    7.8131    0.0244    0.8122 H   0  0  0  0  0  0  0  0  0  0  0  0
    8.3015    0.7360   -0.7127 H   0  0  0  0  0  0  0  0  0  0  0  0
    7.7506   -0.9460   -0.6751 H   0  0  0  0  0  0  0  0  0  0  0  0
   -7.7005   -1.5009    0.8651 H   0  0  0  0  0  0  0  0  0  0  0  0
    6.6890    2.4288   -0.4696 H   0  0  0  0  0  0  0  0  0  0  0  0
  1 17  1  0  0  0  0
  1 77  1  0  0  0  0
  2 18  1  0  0  0  0
  2 78  1  0  0  0  0
  3 28  1  0  0  0  0
  3 85  1  0  0  0  0
  4 30  1  0  0  0  0
  4 86  1  0  0  0  0
  5  6  1  0  0  0  0
  5  7  1  0  0  0  0
  5 13  1  0  0  0  0
  5 22  1  0  0  0  0
  6  8  1  0  0  0  0
  6 15  1  0  0  0  0
  6 24  1  0  0  0  0
  7  9  1  0  0  0  0
  7 14  1  0  0  0  0
  7 35  1  0  0  0  0
  8 10  1  0  0  0  0
  8 16  1  0  0  0  0
  8 36  1  0  0  0  0
  9 11  1  0  0  0  0
  9 20  1  0  0  0  0
  9 26  1  0  0  0  0
 10 12  1  0  0  0  0
 10 23  1  0  0  0  0
 10 27  1  0  0  0  0
 11 17  1  0  0  0  0
 11 19  1  0  0  0  0
 11 37  1  0  0  0  0
 12 18  1  0  0  0  0
 12 21  1  0  0  0  0
 12 38  1  0  0  0  0
 13 17  1  0  0  0  0
 13 39  1  0  0  0  0
 13 40  1  0  0  0  0
 14 16  1  0  0  0  0
 14 41  1  0  0  0  0
 14 42  1  0  0  0  0
 15 18  1  0  0  0  0
 15 43  1  0  0  0  0
 15 44  1  0  0  0  0
 16 45  1  0  0  0  0
 16 46  1  0  0  0  0
 17 47  1  0  0  0  0
 18 48  1  0  0  0  0
 19 25  1  0  0  0  0
 19 30  1  0  0  0  0
 19 49  1  0  0  0  0
 20 25  1  0  0  0  0
 20 50  1  0  0  0  0
 20 51  1  0  0  0  0
 21 28  1  0  0  0  0
 21 31  1  0  0  0  0
 21 32  1  0  0  0  0
 22 52  1  0  0  0  0
 22 53  1  0  0  0  0
 22 54  1  0  0  0  0
 23 29  1  0  0  0  0
 23 55  1  0  0  0  0
 23 56  1  0  0  0  0
 24 57  1  0  0  0  0
 24 58  1  0  0  0  0
 24 59  1  0  0  0  0
 25 60  1  0  0  0  0
 25 61  1  0  0  0  0
 26 62  1  0  0  0  0
 26 63  1  0  0  0  0
 26 64  1  0  0  0  0
 27 65  1  0  0  0  0
 27 66  1  0  0  0  0
 27 67  1  0  0  0  0
 28 29  1  0  0  0  0
 28 68  1  0  0  0  0
 29 69  1  0  0  0  0
 29 70  1  0  0  0  0
 30 33  1  0  0  0  0
 30 34  1  0  0  0  0
 31 71  1  0  0  0  0
 31 72  1  0  0  0  0
 31 73  1  0  0  0  0
 32 74  1  0  0  0  0
 32 75  1  0  0  0  0
 32 76  1  0  0  0  0
 33 79  1  0  0  0  0
 33 80  1  0  0  0  0
 33 81  1  0  0  0  0
 34 82  1  0  0  0  0
 34 83  1  0  0  0  0
 34 84  1  0  0  0  0
M  END
> <PUBCHEM_COMPOUND_CID>
193011

> <PUBCHEM_CONFORMER_RMSD>
0.8

> <PUBCHEM_CONFORMER_DIVERSEORDER>
1

> <PUBCHEM_MMFF94_PARTIAL_CHARGES>
12
1 -0.68
17 0.28
18 0.28
2 -0.68
28 0.28
3 -0.68
30 0.28
4 -0.68
77 0.4
78 0.4
85 0.4
86 0.4

> <PUBCHEM_EFFECTIVE_ROTOR_COUNT>
3.6

> <PUBCHEM_PHARMACOPHORE_FEATURES>
15
1 1 acceptor
1 1 donor
1 2 acceptor
1 2 donor
1 3 acceptor
1 3 donor
1 4 acceptor
1 4 donor
3 21 31 32 hydrophobe
3 30 33 34 hydrophobe
5 9 11 19 20 25 rings
6 10 12 21 23 28 29 rings
6 5 6 7 8 14 16 rings
6 5 7 9 11 13 17 rings
6 6 8 10 12 15 18 rings

> <PUBCHEM_HEAVY_ATOM_COUNT>
34

> <PUBCHEM_ATOM_DEF_STEREO_COUNT>
12

> <PUBCHEM_ATOM_UDEF_STEREO_COUNT>
0

> <PUBCHEM_BOND_DEF_STEREO_COUNT>
0

> <PUBCHEM_BOND_UDEF_STEREO_COUNT>
0

> <PUBCHEM_ISOTOPIC_ATOM_COUNT>
0

> <PUBCHEM_COMPONENT_COUNT>
1

> <PUBCHEM_CACTVS_TAUTO_COUNT>
1

> <PUBCHEM_CONFORMER_ID>
0002F1F300000001

> <PUBCHEM_MMFF94_ENERGY>
191.0473

> <PUBCHEM_FEATURE_SELFOVERLAP>
76.316

> <PUBCHEM_SHAPE_FINGERPRINT>
10 15 18113901550759592323
10595046 47 18334013861128305362
11007060 377 18412268345634124153
11488393 25 17201371662964287135
11524674 6 16343703244572402447
11578080 2 13697020503971311518
11796584 16 15913325823470382518
12107183 9 17688304590881092585
12236239 1 17968096399909932487
12596602 18 17821444634461925779
12788726 201 17775008929794839552
13224815 77 17968086517169182859
13782708 43 17131826625326761999
13811026 1 18410291385083875750
13914758 101 12031796837985540163
14341114 176 18410013225974281153
14394314 77 18339931424431278521
14790565 3 18411421682894148488
14840074 17 18113339704195924605
14856354 85 18335991951688579711
14933364 13 18411984658575195003
14955137 171 18335144249777437341
15183329 4 18343297059207882740
15196674 1 18411697699299917235
15238133 3 16774083938740233745
15361156 5 18335988652963480319
15461852 350 12757157891417644752
15685185 35 17461740668725579516
15788980 27 17632854231012212903
1813 80 17095520699742792013
18608769 82 18339079392685972362
18681886 176 18341608252545315872
19319366 153 17967809436582891698
19377110 9 17894904114451918218
19611394 137 17969517085477463691
20105231 36 18271538553718557951
21236236 1 18412826876377440051
21267235 1 18412548712329910715
21792961 116 17917997136112290798
221357 26 18343300379233335928
23522609 53 18191895390290157620
23559900 14 18341324573976237993
3004659 81 18336548214789331926
335352 9 18413387652586825438
34797466 226 17846787321352821756
350125 39 18411982455283534385
4073 2 18115030817536095778
4093350 32 16845293874001587616
4098825 35 18340209596835828238
4258327 124 16444210758040611582
4325135 7 18333453144942973870
4461854 278 18198639911581911547
504579 68 18271516572697546189
5104073 3 18340477889808542666
5265222 85 18058452169947987326
53794403 172 18117001194424757508
550186 72 18334858273353877813
5776283 40 18122634005679650152
58260988 393 15430310296151801486
59755656 215 18412826884629784206
6086070 43 16844995880475200737
6328613 192 18411139108838593081
70251023 43 18119250554950083234

> <PUBCHEM_SHAPE_MULTIPOLES>
676.23
17.42
2.54
1.38
2.37
0.13
-0.17
1.92
-1.81
-0.48
0.23
0.24
0
-0.43

> <PUBCHEM_SHAPE_SELFOVERLAP>
1429.112

> <PUBCHEM_SHAPE_VOLUME>
378.4

> <PUBCHEM_COORDINATE_TYPE>
2
5
10

$$$$
