397488
  -OEChem-08252014543D

 83 87  0     1  0  0  0  0  0999 V2000
   -5.7463   -2.0881    0.1824 O   0  0  0  0  0  0  0  0  0  0  0  0
   -0.4920   -0.3887    0.6029 C   0  0  1  0  0  0  0  0  0  0  0  0
    0.9242   -0.5796   -0.2003 C   0  0  1  0  0  0  0  0  0  0  0  0
   -1.2059    0.9005    0.0163 C   0  0  1  0  0  0  0  0  0  0  0  0
    1.8008    0.7225    0.0194 C   0  0  1  0  0  0  0  0  0  0  0  0
   -2.6920    1.0945    0.4487 C   0  0  2  0  0  0  0  0  0  0  0  0
    3.3246    0.6370   -0.4476 C   0  0  2  0  0  0  0  0  0  0  0  0
   -3.4403   -0.2132    0.1053 C   0  0  1  0  0  0  0  0  0  0  0  0
    3.9439   -0.6455    0.2264 C   0  0  1  0  0  0  0  0  0  0  0  0
   -1.4288   -1.6414    0.4602 C   0  0  0  0  0  0  0  0  0  0  0  0
   -0.3364    2.1584    0.1682 C   0  0  0  0  0  0  0  0  0  0  0  0
    1.0540    1.9949   -0.4544 C   0  0  0  0  0  0  0  0  0  0  0  0
    1.7037   -1.8277    0.3066 C   0  0  0  0  0  0  0  0  0  0  0  0
   -2.9006   -1.4150    0.8625 C   0  0  0  0  0  0  0  0  0  0  0  0
   -4.9139    0.1627    0.2508 C   0  0  1  0  0  0  0  0  0  0  0  0
   -3.4929    2.0686   -0.4498 C   0  0  0  0  0  0  0  0  0  0  0  0
    3.1612   -1.9151   -0.1598 C   0  0  0  0  0  0  0  0  0  0  0  0
    5.5055   -0.7888    0.1402 C   0  0  0  0  0  0  0  0  0  0  0  0
   -0.2330   -0.2382    2.1362 C   0  0  0  0  0  0  0  0  0  0  0  0
    0.6618   -0.8271   -1.7197 C   0  0  0  0  0  0  0  0  0  0  0  0
    4.0926    1.8793    0.1055 C   0  0  0  0  0  0  0  0  0  0  0  0
   -4.9574    1.5799   -0.3662 C   0  0  0  0  0  0  0  0  0  0  0  0
   -2.8803    1.5786    1.9085 C   0  0  0  0  0  0  0  0  0  0  0  0
    3.4596    0.6578   -1.9896 C   0  0  0  0  0  0  0  0  0  0  0  0
    6.1581    0.5188    0.6521 C   0  0  0  0  0  0  0  0  0  0  0  0
    5.6150    1.7819    0.0004 C   0  0  0  0  0  0  0  0  0  0  0  0
   -5.8661   -0.8045   -0.4366 C   0  0  0  0  0  0  0  0  0  0  0  0
    6.0320   -1.1370   -1.2638 C   0  0  0  0  0  0  0  0  0  0  0  0
    5.9909   -1.9213    1.0834 C   0  0  0  0  0  0  0  0  0  0  0  0
   -5.5248   -0.9528   -1.9211 C   0  0  0  0  0  0  0  0  0  0  0  0
   -7.3171   -0.3513   -0.2673 C   0  0  0  0  0  0  0  0  0  0  0  0
   -1.2772    0.7383   -1.0664 H   0  0  0  0  0  0  0  0  0  0  0  0
    1.8861    0.8393    1.1079 H   0  0  0  0  0  0  0  0  0  0  0  0
   -3.2388   -0.4157   -0.9558 H   0  0  0  0  0  0  0  0  0  0  0  0
    3.7542   -0.5164    1.3057 H   0  0  0  0  0  0  0  0  0  0  0  0
   -1.0300   -2.4786    1.0464 H   0  0  0  0  0  0  0  0  0  0  0  0
   -1.4511   -1.9884   -0.5754 H   0  0  0  0  0  0  0  0  0  0  0  0
   -0.2156    2.4351    1.2197 H   0  0  0  0  0  0  0  0  0  0  0  0
   -0.8288    3.0117   -0.3135 H   0  0  0  0  0  0  0  0  0  0  0  0
    0.9444    2.0065   -1.5425 H   0  0  0  0  0  0  0  0  0  0  0  0
    1.6274    2.8917   -0.1988 H   0  0  0  0  0  0  0  0  0  0  0  0
    1.1839   -2.7455    0.0045 H   0  0  0  0  0  0  0  0  0  0  0  0
    1.7396   -1.8514    1.3977 H   0  0  0  0  0  0  0  0  0  0  0  0
   -3.4457   -2.3260    0.6012 H   0  0  0  0  0  0  0  0  0  0  0  0
   -3.0019   -1.2975    1.9447 H   0  0  0  0  0  0  0  0  0  0  0  0
   -5.1659    0.2104    1.3188 H   0  0  0  0  0  0  0  0  0  0  0  0
   -3.1575    2.0033   -1.4926 H   0  0  0  0  0  0  0  0  0  0  0  0
   -3.3973    3.1158   -0.1434 H   0  0  0  0  0  0  0  0  0  0  0  0
    3.5935   -2.7954    0.3267 H   0  0  0  0  0  0  0  0  0  0  0  0
    3.2159   -2.1165   -1.2324 H   0  0  0  0  0  0  0  0  0  0  0  0
    0.3656   -1.0568    2.5403 H   0  0  0  0  0  0  0  0  0  0  0  0
    0.2666    0.6932    2.4074 H   0  0  0  0  0  0  0  0  0  0  0  0
   -1.1504   -0.2815    2.7199 H   0  0  0  0  0  0  0  0  0  0  0  0
    0.2497    0.0398   -2.2390 H   0  0  0  0  0  0  0  0  0  0  0  0
    1.5649   -1.1045   -2.2612 H   0  0  0  0  0  0  0  0  0  0  0  0
   -0.0175   -1.6642   -1.8930 H   0  0  0  0  0  0  0  0  0  0  0  0
    3.8356    2.0277    1.1627 H   0  0  0  0  0  0  0  0  0  0  0  0
    3.7789    2.7886   -0.4205 H   0  0  0  0  0  0  0  0  0  0  0  0
   -5.5288    2.2388    0.2995 H   0  0  0  0  0  0  0  0  0  0  0  0
   -5.4317    1.6643   -1.3456 H   0  0  0  0  0  0  0  0  0  0  0  0
   -2.8168    0.7775    2.6430 H   0  0  0  0  0  0  0  0  0  0  0  0
   -2.1556    2.3511    2.1782 H   0  0  0  0  0  0  0  0  0  0  0  0
   -3.8648    2.0337    2.0693 H   0  0  0  0  0  0  0  0  0  0  0  0
    2.6564    1.2193   -2.4714 H   0  0  0  0  0  0  0  0  0  0  0  0
    4.3778    1.1460   -2.3256 H   0  0  0  0  0  0  0  0  0  0  0  0
    3.4737   -0.3394   -2.4315 H   0  0  0  0  0  0  0  0  0  0  0  0
    7.2458    0.4823    0.5093 H   0  0  0  0  0  0  0  0  0  0  0  0
    5.9978    0.6032    1.7359 H   0  0  0  0  0  0  0  0  0  0  0  0
    5.9400    1.8359   -1.0432 H   0  0  0  0  0  0  0  0  0  0  0  0
    6.0588    2.6552    0.4941 H   0  0  0  0  0  0  0  0  0  0  0  0
    7.1077   -1.3496   -1.2314 H   0  0  0  0  0  0  0  0  0  0  0  0
    5.5420   -2.0284   -1.6683 H   0  0  0  0  0  0  0  0  0  0  0  0
    5.9067   -0.3269   -1.9819 H   0  0  0  0  0  0  0  0  0  0  0  0
    7.0836   -1.9140    1.1761 H   0  0  0  0  0  0  0  0  0  0  0  0
    5.5761   -1.8069    2.0911 H   0  0  0  0  0  0  0  0  0  0  0  0
    5.7122   -2.9127    0.7123 H   0  0  0  0  0  0  0  0  0  0  0  0
   -6.2852   -1.5776   -2.4085 H   0  0  0  0  0  0  0  0  0  0  0  0
   -5.4905   -0.0173   -2.4815 H   0  0  0  0  0  0  0  0  0  0  0  0
   -4.5903   -1.5010   -2.0789 H   0  0  0  0  0  0  0  0  0  0  0  0
   -7.5720   -0.2527    0.7943 H   0  0  0  0  0  0  0  0  0  0  0  0
   -8.0091   -1.0956   -0.6787 H   0  0  0  0  0  0  0  0  0  0  0  0
   -7.5179    0.6040   -0.7616 H   0  0  0  0  0  0  0  0  0  0  0  0
   -6.3383   -2.7040   -0.2822 H   0  0  0  0  0  0  0  0  0  0  0  0
  1 27  1  0  0  0  0
  1 83  1  0  0  0  0
  2  3  1  0  0  0  0
  2  4  1  0  0  0  0
  2 10  1  0  0  0  0
  2 19  1  0  0  0  0
  3  5  1  0  0  0  0
  3 13  1  0  0  0  0
  3 20  1  0  0  0  0
  4  6  1  0  0  0  0
  4 11  1  0  0  0  0
  4 32  1  0  0  0  0
  5  7  1  0  0  0  0
  5 12  1  0  0  0  0
  5 33  1  0  0  0  0
  6  8  1  0  0  0  0
  6 16  1  0  0  0  0
  6 23  1  0  0  0  0
  7  9  1  0  0  0  0
  7 21  1  0  0  0  0
  7 24  1  0  0  0  0
  8 14  1  0  0  0  0
  8 15  1  0  0  0  0
  8 34  1  0  0  0  0
  9 17  1  0  0  0  0
  9 18  1  0  0  0  0
  9 35  1  0  0  0  0
 10 14  1  0  0  0  0
 10 36  1  0  0  0  0
 10 37  1  0  0  0  0
 11 12  1  0  0  0  0
 11 38  1  0  0  0  0
 11 39  1  0  0  0  0
 12 40  1  0  0  0  0
 12 41  1  0  0  0  0
 13 17  1  0  0  0  0
 13 42  1  0  0  0  0
 13 43  1  0  0  0  0
 14 44  1  0  0  0  0
 14 45  1  0  0  0  0
 15 22  1  0  0  0  0
 15 27  1  0  0  0  0
 15 46  1  0  0  0  0
 16 22  1  0  0  0  0
 16 47  1  0  0  0  0
 16 48  1  0  0  0  0
 17 49  1  0  0  0  0
 17 50  1  0  0  0  0
 18 25  1  0  0  0  0
 18 28  1  0  0  0  0
 18 29  1  0  0  0  0
 19 51  1  0  0  0  0
 19 52  1  0  0  0  0
 19 53  1  0  0  0  0
 20 54  1  0  0  0  0
 20 55  1  0  0  0  0
 20 56  1  0  0  0  0
 21 26  1  0  0  0  0
 21 57  1  0  0  0  0
 21 58  1  0  0  0  0
 22 59  1  0  0  0  0
 22 60  1  0  0  0  0
 23 61  1  0  0  0  0
 23 62  1  0  0  0  0
 23 63  1  0  0  0  0
 24 64  1  0  0  0  0
 24 65  1  0  0  0  0
 24 66  1  0  0  0  0
 25 26  1  0  0  0  0
 25 67  1  0  0  0  0
 25 68  1  0  0  0  0
 26 69  1  0  0  0  0
 26 70  1  0  0  0  0
 27 30  1  0  0  0  0
 27 31  1  0  0  0  0
 28 71  1  0  0  0  0
 28 72  1  0  0  0  0
 28 73  1  0  0  0  0
 29 74  1  0  0  0  0
 29 75  1  0  0  0  0
 29 76  1  0  0  0  0
 30 77  1  0  0  0  0
 30 78  1  0  0  0  0
 30 79  1  0  0  0  0
 31 80  1  0  0  0  0
 31 81  1  0  0  0  0
 31 82  1  0  0  0  0
M  END
> <PUBCHEM_COMPOUND_CID>
397488

> <PUBCHEM_CONFORMER_RMSD>
0.8

> <PUBCHEM_CONFORMER_DIVERSEORDER>
1
2

> <PUBCHEM_MMFF94_PARTIAL_CHARGES>
3
1 -0.68
27 0.28
83 0.4

> <PUBCHEM_EFFECTIVE_ROTOR_COUNT>
3.6

> <PUBCHEM_PHARMACOPHORE_FEATURES>
9
1 1 acceptor
1 1 donor
3 18 28 29 hydrophobe
3 27 30 31 hydrophobe
5 6 8 15 16 22 rings
6 2 3 4 5 11 12 rings
6 2 4 6 8 10 14 rings
6 3 5 7 9 13 17 rings
6 7 9 18 21 25 26 rings

> <PUBCHEM_HEAVY_ATOM_COUNT>
31

> <PUBCHEM_ATOM_DEF_STEREO_COUNT>
8

> <PUBCHEM_ATOM_UDEF_STEREO_COUNT>
1

> <PUBCHEM_BOND_DEF_STEREO_COUNT>
0

> <PUBCHEM_BOND_UDEF_STEREO_COUNT>
0

> <PUBCHEM_ISOTOPIC_ATOM_COUNT>
0

> <PUBCHEM_COMPONENT_COUNT>
1

> <PUBCHEM_CACTVS_TAUTO_COUNT>
1

> <PUBCHEM_CONFORMER_ID>
000610B000000001

> <PUBCHEM_MMFF94_ENERGY>
164.6768

> <PUBCHEM_FEATURE_SELFOVERLAP>
45.767

> <PUBCHEM_SHAPE_FINGERPRINT>
10 15 18341039810125405712
10595046 47 18341894069433243193
11578080 2 16590257594234657037
11719270 70 18273493455480758542
11963148 33 18411694409298109271
12107698 1 18201434800976057837
12166972 35 18334859424225309924
12236239 1 18131069320524801612
12403260 363 18409170991325047980
12516196 113 18272649052172948064
12596602 18 17918276437234104872
13224815 77 18060145322943559672
13533116 47 17968093072049198690
13782708 43 17632578227924317798
13811026 1 18335973216592763340
13862211 1 18408321060409827298
13914758 101 17385716968335842949
14068700 675 18060415850703131129
14251764 18 18334573543365786992
14856354 85 16415480489241955269
15082195 135 18115882956628606460
15131766 46 16300932384597994212
15142383 8 11095892544332590987
15183329 4 18259988162566917343
15196674 1 18409168800806980264
15537594 2 12823297887947219029
15788980 27 18041006119875868328
17349148 13 18411141320266683064
17857418 61 18410292501584812393
17980427 23 17917724482444875857
1813 80 14405190577297328329
18608769 82 18114186389202488059
18681886 176 18413103962082177762
19377110 9 17918001559411420603
19958102 18 18113330903713443903
200 152 18273215313788539705
20028762 73 18272087176183260878
20511986 3 18334563633937491515
21033648 29 17095235908682355964
21236236 1 18411699868596109225
21267235 1 18410863148130372531
21279426 13 18335699391015935276
21521721 280 17346596430197003240
22149856 69 17489321775810285635
22393880 68 18115014222235962397
23402539 116 18411416185689593437
23522609 53 18124627321091490457
23559900 14 18265890431865181513
23569917 315 18411986840857684982
23569943 247 17696204599830446094
3004659 81 18186239524415106424
3009799 131 17967810544451584847
335352 9 18408045105257571350
3383291 50 18334859450248607779
34797466 226 16559036021451708128
350125 39 18412825819615207145
3633792 109 18261667091722471757
4015057 19 17968101962183328841
404807 14 17332250797221883218
4073 2 17822859800695781018
4098825 35 18335978684824661637
4325135 7 18343581846031503719
439807 62 18262801908430710075
474113 269 17097189677127403610
5104073 3 18409174303013404760
5283173 99 18187922829140743269
58260988 393 15410624657063586003
59755656 215 18334861589384497878
59755656 520 16877939469267946787
6669772 16 17557969925845254872
7495541 125 17632289107668248593
77296 10 18408885122512215654

> <PUBCHEM_SHAPE_MULTIPOLES>
632.1
16.52
2.31
1.42
3.39
0.31
0.1
-3.43
2.13
-0.42
-0.13
0.09
-0.11
-0.61

> <PUBCHEM_SHAPE_SELFOVERLAP>
1330.626

> <PUBCHEM_SHAPE_VOLUME>
357.6

> <PUBCHEM_COORDINATE_TYPE>
2
5
10

$$$$
