12127456
  -OEChem-08252015063D

 79 84  0     1  0  0  0  0  0999 V2000
   -4.8944    1.6631    0.1636 O   0  0  0  0  0  0  0  0  0  0  0  0
   -5.3025    0.4975    2.1818 O   0  0  0  0  0  0  0  0  0  0  0  0
   -0.5279   -0.7917    0.1266 C   0  0  1  0  0  0  0  0  0  0  0  0
    1.0207   -0.8377   -0.3915 C   0  0  1  0  0  0  0  0  0  0  0  0
   -1.3159    0.3216   -0.6617 C   0  0  1  0  0  0  0  0  0  0  0  0
   -2.8776    0.3115   -0.4376 C   0  0  2  0  0  0  0  0  0  0  0  0
    1.6547    0.6040   -0.2335 C   0  0  1  0  0  0  0  0  0  0  0  0
   -3.3958   -0.8183    0.4765 C   0  0  1  0  0  0  0  0  0  0  0  0
    3.2288    0.7367   -0.4138 C   0  0  2  0  0  0  0  0  0  0  0  0
   -1.2731   -2.1301   -0.1628 C   0  0  0  0  0  0  0  0  0  0  0  0
   -0.6317    1.6930   -0.5343 C   0  0  0  0  0  0  0  0  0  0  0  0
   -4.9038   -0.7815    0.1574 C   0  0  2  0  0  0  0  0  0  0  0  0
    3.9217   -0.3578    0.4703 C   0  0  1  0  0  0  0  0  0  0  0  0
    0.8298    1.6610   -0.9940 C   0  0  0  0  0  0  0  0  0  0  0  0
   -2.7415   -2.1847    0.2687 C   0  0  0  0  0  0  0  0  0  0  0  0
    1.8577   -1.8463    0.4468 C   0  0  0  0  0  0  0  0  0  0  0  0
   -3.6200   -0.0181   -1.7712 C   0  0  0  0  0  0  0  0  0  0  0  0
   -3.4611    1.6381    0.1320 C   0  0  0  0  0  0  0  0  0  0  0  0
   -4.9116   -0.7465   -1.3782 C   0  0  0  0  0  0  0  0  0  0  0  0
    3.3667   -1.7686    0.1991 C   0  0  0  0  0  0  0  0  0  0  0  0
   -0.5708   -0.5280    1.6656 C   0  0  0  0  0  0  0  0  0  0  0  0
    1.0733   -1.3320   -1.8672 C   0  0  0  0  0  0  0  0  0  0  0  0
    5.4967   -0.2921    0.5073 C   0  0  0  0  0  0  0  0  0  0  0  0
    3.6664    2.1471    0.1243 C   0  0  0  0  0  0  0  0  0  0  0  0
   -5.5045    0.5148    0.7641 C   0  0  2  0  0  0  0  0  0  0  0  0
    3.6570    0.6653   -1.8980 C   0  0  0  0  0  0  0  0  0  0  0  0
    6.0040    1.1648    0.3509 C   0  0  0  0  0  0  0  0  0  0  0  0
    5.0045    2.1861    0.8680 C   0  0  0  0  0  0  0  0  0  0  0  0
    5.9755   -0.8206    1.8856 C   0  0  0  0  0  0  0  0  0  0  0  0
    6.1872   -1.1645   -0.5612 C   0  0  0  0  0  0  0  0  0  0  0  0
   -7.0127    0.6136    0.5165 C   0  0  0  0  0  0  0  0  0  0  0  0
   -1.1948    0.0762   -1.7232 H   0  0  0  0  0  0  0  0  0  0  0  0
    1.5225    0.8705    0.8213 H   0  0  0  0  0  0  0  0  0  0  0  0
   -3.2551   -0.5680    1.5322 H   0  0  0  0  0  0  0  0  0  0  0  0
   -0.7450   -2.9769    0.2902 H   0  0  0  0  0  0  0  0  0  0  0  0
   -1.2755   -2.3197   -1.2422 H   0  0  0  0  0  0  0  0  0  0  0  0
   -0.6813    2.0552    0.4990 H   0  0  0  0  0  0  0  0  0  0  0  0
   -1.1467    2.4288   -1.1618 H   0  0  0  0  0  0  0  0  0  0  0  0
   -5.4170   -1.6630    0.5579 H   0  0  0  0  0  0  0  0  0  0  0  0
    3.5978   -0.1261    1.4988 H   0  0  0  0  0  0  0  0  0  0  0  0
    0.8576    1.4797   -2.0732 H   0  0  0  0  0  0  0  0  0  0  0  0
    1.2478    2.6622   -0.8438 H   0  0  0  0  0  0  0  0  0  0  0  0
   -3.2948   -2.7955   -0.4543 H   0  0  0  0  0  0  0  0  0  0  0  0
   -2.8129   -2.7405    1.2132 H   0  0  0  0  0  0  0  0  0  0  0  0
    1.5286   -2.8728    0.2453 H   0  0  0  0  0  0  0  0  0  0  0  0
    1.6995   -1.6868    1.5186 H   0  0  0  0  0  0  0  0  0  0  0  0
   -3.0354   -0.6846   -2.4165 H   0  0  0  0  0  0  0  0  0  0  0  0
   -3.8293    0.8867   -2.3529 H   0  0  0  0  0  0  0  0  0  0  0  0
   -3.0882    1.8312    1.1446 H   0  0  0  0  0  0  0  0  0  0  0  0
   -3.1765    2.4901   -0.4909 H   0  0  0  0  0  0  0  0  0  0  0  0
   -5.7904   -0.2615   -1.8096 H   0  0  0  0  0  0  0  0  0  0  0  0
   -4.8924   -1.7666   -1.7799 H   0  0  0  0  0  0  0  0  0  0  0  0
    3.8457   -2.4927    0.8681 H   0  0  0  0  0  0  0  0  0  0  0  0
    3.6005   -2.0989   -0.8170 H   0  0  0  0  0  0  0  0  0  0  0  0
    0.3116   -0.0190    2.0549 H   0  0  0  0  0  0  0  0  0  0  0  0
   -1.4025    0.1108    1.9664 H   0  0  0  0  0  0  0  0  0  0  0  0
   -0.6483   -1.4671    2.2254 H   0  0  0  0  0  0  0  0  0  0  0  0
    0.5359   -0.6835   -2.5612 H   0  0  0  0  0  0  0  0  0  0  0  0
    2.0859   -1.4216   -2.2511 H   0  0  0  0  0  0  0  0  0  0  0  0
    0.6615   -2.3408   -1.9684 H   0  0  0  0  0  0  0  0  0  0  0  0
    2.9170    2.5509    0.8172 H   0  0  0  0  0  0  0  0  0  0  0  0
    3.7022    2.8643   -0.7065 H   0  0  0  0  0  0  0  0  0  0  0  0
    2.9639    1.2002   -2.5526 H   0  0  0  0  0  0  0  0  0  0  0  0
    4.6323    1.1292   -2.0684 H   0  0  0  0  0  0  0  0  0  0  0  0
    3.7481   -0.3548   -2.2687 H   0  0  0  0  0  0  0  0  0  0  0  0
    6.2300    1.3912   -0.6971 H   0  0  0  0  0  0  0  0  0  0  0  0
    6.9567    1.2962    0.8802 H   0  0  0  0  0  0  0  0  0  0  0  0
    5.4289    3.1941    0.7915 H   0  0  0  0  0  0  0  0  0  0  0  0
    4.8284    2.0130    1.9369 H   0  0  0  0  0  0  0  0  0  0  0  0
    5.6710   -1.8593    2.0493 H   0  0  0  0  0  0  0  0  0  0  0  0
    7.0685   -0.7877    1.9647 H   0  0  0  0  0  0  0  0  0  0  0  0
    5.5699   -0.2205    2.7076 H   0  0  0  0  0  0  0  0  0  0  0  0
    5.8864   -0.8908   -1.5751 H   0  0  0  0  0  0  0  0  0  0  0  0
    7.2770   -1.0522   -0.5083 H   0  0  0  0  0  0  0  0  0  0  0  0
    5.9711   -2.2290   -0.4220 H   0  0  0  0  0  0  0  0  0  0  0  0
   -7.2575    0.7065   -0.5451 H   0  0  0  0  0  0  0  0  0  0  0  0
   -7.5395   -0.2506    0.9344 H   0  0  0  0  0  0  0  0  0  0  0  0
   -7.4217    1.5066    1.0047 H   0  0  0  0  0  0  0  0  0  0  0  0
   -5.9566    1.0859    2.5940 H   0  0  0  0  0  0  0  0  0  0  0  0
  1 18  1  0  0  0  0
  1 25  1  0  0  0  0
  2 25  1  0  0  0  0
  2 79  1  0  0  0  0
  3  4  1  0  0  0  0
  3  5  1  0  0  0  0
  3 10  1  0  0  0  0
  3 21  1  0  0  0  0
  4  7  1  0  0  0  0
  4 16  1  0  0  0  0
  4 22  1  0  0  0  0
  5  6  1  0  0  0  0
  5 11  1  0  0  0  0
  5 32  1  0  0  0  0
  6  8  1  0  0  0  0
  6 17  1  0  0  0  0
  6 18  1  0  0  0  0
  7  9  1  0  0  0  0
  7 14  1  0  0  0  0
  7 33  1  0  0  0  0
  8 12  1  0  0  0  0
  8 15  1  0  0  0  0
  8 34  1  0  0  0  0
  9 13  1  0  0  0  0
  9 24  1  0  0  0  0
  9 26  1  0  0  0  0
 10 15  1  0  0  0  0
 10 35  1  0  0  0  0
 10 36  1  0  0  0  0
 11 14  1  0  0  0  0
 11 37  1  0  0  0  0
 11 38  1  0  0  0  0
 12 19  1  0  0  0  0
 12 25  1  0  0  0  0
 12 39  1  0  0  0  0
 13 20  1  0  0  0  0
 13 23  1  0  0  0  0
 13 40  1  0  0  0  0
 14 41  1  0  0  0  0
 14 42  1  0  0  0  0
 15 43  1  0  0  0  0
 15 44  1  0  0  0  0
 16 20  1  0  0  0  0
 16 45  1  0  0  0  0
 16 46  1  0  0  0  0
 17 19  1  0  0  0  0
 17 47  1  0  0  0  0
 17 48  1  0  0  0  0
 18 49  1  0  0  0  0
 18 50  1  0  0  0  0
 19 51  1  0  0  0  0
 19 52  1  0  0  0  0
 20 53  1  0  0  0  0
 20 54  1  0  0  0  0
 21 55  1  0  0  0  0
 21 56  1  0  0  0  0
 21 57  1  0  0  0  0
 22 58  1  0  0  0  0
 22 59  1  0  0  0  0
 22 60  1  0  0  0  0
 23 27  1  0  0  0  0
 23 29  1  0  0  0  0
 23 30  1  0  0  0  0
 24 28  1  0  0  0  0
 24 61  1  0  0  0  0
 24 62  1  0  0  0  0
 25 31  1  0  0  0  0
 26 63  1  0  0  0  0
 26 64  1  0  0  0  0
 26 65  1  0  0  0  0
 27 28  1  0  0  0  0
 27 66  1  0  0  0  0
 27 67  1  0  0  0  0
 28 68  1  0  0  0  0
 28 69  1  0  0  0  0
 29 70  1  0  0  0  0
 29 71  1  0  0  0  0
 29 72  1  0  0  0  0
 30 73  1  0  0  0  0
 30 74  1  0  0  0  0
 30 75  1  0  0  0  0
 31 76  1  0  0  0  0
 31 77  1  0  0  0  0
 31 78  1  0  0  0  0
M  END
> <PUBCHEM_COMPOUND_CID>
12127456

> <PUBCHEM_CONFORMER_RMSD>
0.8

> <PUBCHEM_CONFORMER_DIVERSEORDER>
1
12
17
8
19
9
10
16
6
14
22
15
18
4
7
5
20
26
23
25
21
3
2
11
24
13

> <PUBCHEM_MMFF94_PARTIAL_CHARGES>
5
1 -0.56
18 0.28
2 -0.68
25 0.56
79 0.4

> <PUBCHEM_EFFECTIVE_ROTOR_COUNT>
3

> <PUBCHEM_PHARMACOPHORE_FEATURES>
9
1 1 acceptor
1 2 acceptor
1 2 donor
3 23 29 30 hydrophobe
6 3 4 5 7 11 14 rings
6 3 5 6 8 10 15 rings
6 4 7 9 13 16 20 rings
6 9 13 23 24 27 28 rings
8 1 6 8 12 17 18 19 25 rings

> <PUBCHEM_HEAVY_ATOM_COUNT>
31

> <PUBCHEM_ATOM_DEF_STEREO_COUNT>
5

> <PUBCHEM_ATOM_UDEF_STEREO_COUNT>
5

> <PUBCHEM_BOND_DEF_STEREO_COUNT>
0

> <PUBCHEM_BOND_UDEF_STEREO_COUNT>
0

> <PUBCHEM_ISOTOPIC_ATOM_COUNT>
0

> <PUBCHEM_COMPONENT_COUNT>
1

> <PUBCHEM_CACTVS_TAUTO_COUNT>
1

> <PUBCHEM_CONFORMER_ID>
00B90CE000000001

> <PUBCHEM_MMFF94_ENERGY>
169.4062

> <PUBCHEM_FEATURE_SELFOVERLAP>
45.774

> <PUBCHEM_SHAPE_FINGERPRINT>
10 15 18261114084091106049
10906281 52 18262534653298821710
11089746 13 18131347535700404008
11578080 2 17487039310051069432
12166972 35 16370451059160973452
12236239 1 17918272064857092518
12403259 415 18114174224900128724
12422481 6 18335695023223858756
12596602 18 17989205979375422306
12616971 3 18201716275483095076
12633257 1 18408042930911914503
12788726 201 17418100866738620449
13140716 1 18191028017375734189
13224815 77 18411136960980184502
13533116 47 17894904089146747522
13782708 43 14996281426861487096
14341114 176 18187081750501259446
14394314 77 18341899572046804073
14849402 71 18340205318811706880
14955137 171 17748835137000192397
15131766 46 15480670253183440352
15183329 4 18411135840173120186
15196674 1 18336263539396892846
15788980 27 16515399677045317341
15840311 113 18342741823269367829
17349148 13 17676490544731041884
17980427 23 18271806860683858733
1813 80 16298383561508664126
20511986 3 18201706367077834931
21033648 144 18337661026965239372
21033648 29 17458611311886167477
21130935 74 18412262852456134226
21150785 3 12607396694317481193
21267235 1 18260554402760764518
21792934 111 18187925037423755261
21859007 373 17532640244705758997
22122407 14 17346044470869889688
23402539 116 18342171168054401253
23522609 53 17751388151455285924
23559900 14 18261953050655874684
23569917 315 18410858784850983735
23569943 247 18192990418267755506
24771293 8 18268700779639287304
2838139 119 18413100667198982140
3004659 81 18041001735236277980
335352 9 18408605863954635174
34797466 226 17418100956816797372
350125 39 18335139783063995844
3633792 109 18335684050120468855
3680242 22 18334298677658371448
392239 28 18409448085286943353
404807 14 17193777220424666534
4073 2 18114184206952731434
4093350 32 17418098663425905622
4340502 62 18410014329543661846
465052 167 17022903441628114618
5104073 3 18262797488085774378
542803 24 17989487428587558126
59755656 215 18410297969885802278
7226269 152 18202284684609176465

> <PUBCHEM_SHAPE_MULTIPOLES>
626.23
15.72
2.14
1.51
1.24
0.09
0.06
2.47
-4.36
-1
-0.06
0.1
-0.08
-0.39

> <PUBCHEM_SHAPE_SELFOVERLAP>
1342.878

> <PUBCHEM_SHAPE_VOLUME>
343.3

> <PUBCHEM_COORDINATE_TYPE>
2
5
10

$$$$
