441679
  -OEChem-08252015093D

 80 84  0     1  0  0  0  0  0999 V2000
   -1.1646   -0.8560   -0.1641 C   0  0  2  0  0  0  0  0  0  0  0  0
   -0.5974    0.4722    0.5227 C   0  0  1  0  0  0  0  0  0  0  0  0
   -2.6946   -0.9167    0.0841 C   0  0  1  0  0  0  0  0  0  0  0  0
   -3.5234    0.3071   -0.3925 C   0  0  1  0  0  0  0  0  0  0  0  0
    0.9351    0.5834    0.1536 C   0  0  2  0  0  0  0  0  0  0  0  0
   -1.4163    1.7112    0.0306 C   0  0  0  0  0  0  0  0  0  0  0  0
   -4.9057   -0.1343    0.1701 C   0  0  2  0  0  0  0  0  0  0  0  0
   -2.9441    1.5829    0.2419 C   0  0  0  0  0  0  0  0  0  0  0  0
   -3.5266   -2.1192   -0.3632 C   0  0  0  0  0  0  0  0  0  0  0  0
   -0.4555   -2.0691    0.4939 C   0  0  0  0  0  0  0  0  0  0  0  0
    1.7034   -0.7255    0.4259 C   0  0  0  0  0  0  0  0  0  0  0  0
    3.2581   -0.6374    0.4861 C   0  0  2  0  0  0  0  0  0  0  0  0
   -4.9825   -1.6383   -0.1921 C   0  0  0  0  0  0  0  0  0  0  0  0
    3.7126    0.6610   -0.2755 C   0  0  1  0  0  0  0  0  0  0  0  0
    1.6554    1.7606    0.8315 C   0  0  0  0  0  0  0  0  0  0  0  0
   -0.8362   -0.9327   -1.6859 C   0  0  0  0  0  0  0  0  0  0  0  0
   -0.7307    0.4528    2.0845 C   0  0  0  0  0  0  0  0  0  0  0  0
    1.0386   -1.8910    0.6000 C   0  0  0  0  0  0  0  0  0  0  0  0
   -3.6255    0.5132   -1.9228 C   0  0  0  0  0  0  0  0  0  0  0  0
    3.0945    1.9389    0.3354 C   0  0  0  0  0  0  0  0  0  0  0  0
    5.2447    0.8000   -0.6047 C   0  0  0  0  0  0  0  0  0  0  0  0
   -6.1312    0.6451   -0.2858 C   0  0  0  0  0  0  0  0  0  0  0  0
    3.8987   -1.8723   -0.2130 C   0  0  0  0  0  0  0  0  0  0  0  0
    3.6499   -0.6525    1.9826 C   0  0  0  0  0  0  0  0  0  0  0  0
    5.7477   -0.5118   -1.2515 C   0  0  0  0  0  0  0  0  0  0  0  0
    5.4023   -1.7545   -0.4459 C   0  0  0  0  0  0  0  0  0  0  0  0
    6.1338    1.1594    0.6021 C   0  0  0  0  0  0  0  0  0  0  0  0
    5.4535    1.9282   -1.6481 C   0  0  0  0  0  0  0  0  0  0  0  0
   -7.4025    0.0684    0.3371 C   0  0  0  0  0  0  0  0  0  0  0  0
   -5.9915    2.1269    0.0631 C   0  0  0  0  0  0  0  0  0  0  0  0
   -2.7939   -0.9555    1.1790 H   0  0  0  0  0  0  0  0  0  0  0  0
    0.9972    0.7713   -0.9270 H   0  0  0  0  0  0  0  0  0  0  0  0
   -1.2061    1.9050   -1.0266 H   0  0  0  0  0  0  0  0  0  0  0  0
   -1.0889    2.6140    0.5604 H   0  0  0  0  0  0  0  0  0  0  0  0
   -4.8631   -0.0712    1.2691 H   0  0  0  0  0  0  0  0  0  0  0  0
   -3.1632    1.6095    1.3156 H   0  0  0  0  0  0  0  0  0  0  0  0
   -3.3878    2.4863   -0.1828 H   0  0  0  0  0  0  0  0  0  0  0  0
   -3.3286   -3.0028    0.2525 H   0  0  0  0  0  0  0  0  0  0  0  0
   -3.3464   -2.3978   -1.4050 H   0  0  0  0  0  0  0  0  0  0  0  0
   -0.6572   -2.9762   -0.0905 H   0  0  0  0  0  0  0  0  0  0  0  0
   -0.8496   -2.2626    1.4988 H   0  0  0  0  0  0  0  0  0  0  0  0
   -5.5351   -1.8113   -1.1227 H   0  0  0  0  0  0  0  0  0  0  0  0
   -5.4846   -2.2026    0.6015 H   0  0  0  0  0  0  0  0  0  0  0  0
    3.2451    0.5705   -1.2714 H   0  0  0  0  0  0  0  0  0  0  0  0
    1.6815    1.6184    1.9180 H   0  0  0  0  0  0  0  0  0  0  0  0
    1.1195    2.7007    0.6634 H   0  0  0  0  0  0  0  0  0  0  0  0
   -1.4976   -1.6251   -2.2132 H   0  0  0  0  0  0  0  0  0  0  0  0
   -0.8898    0.0354   -2.1828 H   0  0  0  0  0  0  0  0  0  0  0  0
    0.1795   -1.2963   -1.8784 H   0  0  0  0  0  0  0  0  0  0  0  0
   -0.4780    1.4306    2.5107 H   0  0  0  0  0  0  0  0  0  0  0  0
   -1.7431    0.2346    2.4302 H   0  0  0  0  0  0  0  0  0  0  0  0
   -0.0687   -0.2774    2.5587 H   0  0  0  0  0  0  0  0  0  0  0  0
    1.5837   -2.8006    0.8333 H   0  0  0  0  0  0  0  0  0  0  0  0
   -4.3524    1.2892   -2.1805 H   0  0  0  0  0  0  0  0  0  0  0  0
   -2.6947    0.8615   -2.3678 H   0  0  0  0  0  0  0  0  0  0  0  0
   -3.9231   -0.3960   -2.4530 H   0  0  0  0  0  0  0  0  0  0  0  0
    3.0928    2.7289   -0.4254 H   0  0  0  0  0  0  0  0  0  0  0  0
    3.6942    2.3201    1.1677 H   0  0  0  0  0  0  0  0  0  0  0  0
   -6.2614    0.5603   -1.3713 H   0  0  0  0  0  0  0  0  0  0  0  0
    3.4140   -2.0331   -1.1862 H   0  0  0  0  0  0  0  0  0  0  0  0
    3.7269   -2.7838    0.3729 H   0  0  0  0  0  0  0  0  0  0  0  0
    3.4118    0.2843    2.4930 H   0  0  0  0  0  0  0  0  0  0  0  0
    3.1248   -1.4506    2.5222 H   0  0  0  0  0  0  0  0  0  0  0  0
    4.7113   -0.8472    2.1394 H   0  0  0  0  0  0  0  0  0  0  0  0
    6.8341   -0.4718   -1.4014 H   0  0  0  0  0  0  0  0  0  0  0  0
    5.3073   -0.6186   -2.2524 H   0  0  0  0  0  0  0  0  0  0  0  0
    5.9437   -1.7588    0.5054 H   0  0  0  0  0  0  0  0  0  0  0  0
    5.7463   -2.6405   -0.9933 H   0  0  0  0  0  0  0  0  0  0  0  0
    7.1789    1.2741    0.2879 H   0  0  0  0  0  0  0  0  0  0  0  0
    5.8413    2.1090    1.0599 H   0  0  0  0  0  0  0  0  0  0  0  0
    6.1327    0.3980    1.3801 H   0  0  0  0  0  0  0  0  0  0  0  0
    6.4942    1.9588   -1.9922 H   0  0  0  0  0  0  0  0  0  0  0  0
    4.8211    1.7782   -2.5303 H   0  0  0  0  0  0  0  0  0  0  0  0
    5.2227    2.9143   -1.2318 H   0  0  0  0  0  0  0  0  0  0  0  0
   -7.3534    0.0884    1.4313 H   0  0  0  0  0  0  0  0  0  0  0  0
   -8.2810    0.6476    0.0319 H   0  0  0  0  0  0  0  0  0  0  0  0
   -7.5774   -0.9650    0.0223 H   0  0  0  0  0  0  0  0  0  0  0  0
   -5.6093    2.2788    1.0774 H   0  0  0  0  0  0  0  0  0  0  0  0
   -6.9679    2.6236    0.0119 H   0  0  0  0  0  0  0  0  0  0  0  0
   -5.3629    2.6574   -0.6538 H   0  0  0  0  0  0  0  0  0  0  0  0
  1  2  1  0  0  0  0
  1  3  1  0  0  0  0
  1 10  1  0  0  0  0
  1 16  1  0  0  0  0
  2  5  1  0  0  0  0
  2  6  1  0  0  0  0
  2 17  1  0  0  0  0
  3  4  1  0  0  0  0
  3  9  1  0  0  0  0
  3 31  1  0  0  0  0
  4  7  1  0  0  0  0
  4  8  1  0  0  0  0
  4 19  1  0  0  0  0
  5 11  1  0  0  0  0
  5 15  1  0  0  0  0
  5 32  1  0  0  0  0
  6  8  1  0  0  0  0
  6 33  1  0  0  0  0
  6 34  1  0  0  0  0
  7 13  1  0  0  0  0
  7 22  1  0  0  0  0
  7 35  1  0  0  0  0
  8 36  1  0  0  0  0
  8 37  1  0  0  0  0
  9 13  1  0  0  0  0
  9 38  1  0  0  0  0
  9 39  1  0  0  0  0
 10 18  1  0  0  0  0
 10 40  1  0  0  0  0
 10 41  1  0  0  0  0
 11 12  1  0  0  0  0
 11 18  2  0  0  0  0
 12 14  1  0  0  0  0
 12 23  1  0  0  0  0
 12 24  1  0  0  0  0
 13 42  1  0  0  0  0
 13 43  1  0  0  0  0
 14 20  1  0  0  0  0
 14 21  1  0  0  0  0
 14 44  1  0  0  0  0
 15 20  1  0  0  0  0
 15 45  1  0  0  0  0
 15 46  1  0  0  0  0
 16 47  1  0  0  0  0
 16 48  1  0  0  0  0
 16 49  1  0  0  0  0
 17 50  1  0  0  0  0
 17 51  1  0  0  0  0
 17 52  1  0  0  0  0
 18 53  1  0  0  0  0
 19 54  1  0  0  0  0
 19 55  1  0  0  0  0
 19 56  1  0  0  0  0
 20 57  1  0  0  0  0
 20 58  1  0  0  0  0
 21 25  1  0  0  0  0
 21 27  1  0  0  0  0
 21 28  1  0  0  0  0
 22 29  1  0  0  0  0
 22 30  1  0  0  0  0
 22 59  1  0  0  0  0
 23 26  1  0  0  0  0
 23 60  1  0  0  0  0
 23 61  1  0  0  0  0
 24 62  1  0  0  0  0
 24 63  1  0  0  0  0
 24 64  1  0  0  0  0
 25 26  1  0  0  0  0
 25 65  1  0  0  0  0
 25 66  1  0  0  0  0
 26 67  1  0  0  0  0
 26 68  1  0  0  0  0
 27 69  1  0  0  0  0
 27 70  1  0  0  0  0
 27 71  1  0  0  0  0
 28 72  1  0  0  0  0
 28 73  1  0  0  0  0
 28 74  1  0  0  0  0
 29 75  1  0  0  0  0
 29 76  1  0  0  0  0
 29 77  1  0  0  0  0
 30 78  1  0  0  0  0
 30 79  1  0  0  0  0
 30 80  1  0  0  0  0
M  END
> <PUBCHEM_COMPOUND_CID>
441679

> <PUBCHEM_CONFORMER_RMSD>
0.8

> <PUBCHEM_CONFORMER_DIVERSEORDER>
1

> <PUBCHEM_MMFF94_PARTIAL_CHARGES>
6
10 0.14
11 -0.28
12 0.14
18 -0.29
5 0.14
53 0.15

> <PUBCHEM_EFFECTIVE_ROTOR_COUNT>
3.4

> <PUBCHEM_PHARMACOPHORE_FEATURES>
7
3 21 27 28 hydrophobe
3 22 29 30 hydrophobe
5 3 4 7 9 13 rings
6 1 2 3 4 6 8 rings
6 1 2 5 10 11 18 rings
6 12 14 21 23 25 26 rings
6 5 11 12 14 15 20 rings

> <PUBCHEM_HEAVY_ATOM_COUNT>
30

> <PUBCHEM_ATOM_DEF_STEREO_COUNT>
8

> <PUBCHEM_ATOM_UDEF_STEREO_COUNT>
0

> <PUBCHEM_BOND_DEF_STEREO_COUNT>
0

> <PUBCHEM_BOND_UDEF_STEREO_COUNT>
0

> <PUBCHEM_ISOTOPIC_ATOM_COUNT>
0

> <PUBCHEM_COMPONENT_COUNT>
1

> <PUBCHEM_CACTVS_TAUTO_COUNT>
1

> <PUBCHEM_CONFORMER_ID>
0006BD4F00000001

> <PUBCHEM_MMFF94_ENERGY>
140.5359

> <PUBCHEM_FEATURE_SELFOVERLAP>
35.625

> <PUBCHEM_SHAPE_FINGERPRINT>
10554248 39 18116695341144693911
10906281 52 18201451220941543945
11135609 187 18339928216264002192
11488393 25 17416422964676771015
11578080 2 14130496353145953252
11796584 16 15410886379680920230
12236239 1 18410856555350097070
12403259 415 17967806124745738317
12516196 113 17917710214584247072
12788726 201 17489312932203396889
13224815 77 18411130351310423954
13533116 47 16630528393382366870
13782708 43 16127802123757272407
14341114 176 18410014325470091199
14790565 3 18409452470643990881
14840074 17 18040722454650408053
14856354 85 18411706508852770087
14933364 13 18408608058751423375
15183329 4 18342462525587485324
15196674 1 18411417314896720635
15788980 27 16271923835202134575
15840311 113 18114749239991515677
17349148 13 16773800311557496286
18608769 82 18262522601900333163
19319366 153 18040427794077262642
19377110 9 12396295929056148997
200 152 17704074010111503362
21033648 29 18335697307898651200
21267235 1 18341336608516662803
21279426 13 18341051834941583607
221357 26 18342175553068602960
22393880 68 18335133168455436414
23522609 53 18198933381642118401
23559900 14 18272082846375814736
23569943 247 13613146316588165908
24771293 8 18268980063797659368
3004659 81 18409731730045109838
335352 9 18413387622680524271
34797466 226 18113343011167839542
350125 39 18410573972572900697
4058900 60 18187934932485086803
4073 2 18113906008466569722
4093350 32 16773514473321878728
4098825 35 18261112963584533780
4280585 95 17478901485319057710
4340502 62 15791728607523938616
5104073 3 18335413595592041939
59755656 215 18343305829568037703
59755656 520 16732982046167376059
6328613 192 18409451371496366501
70251023 43 17971189219441653530

> <PUBCHEM_SHAPE_MULTIPOLES>
617.39
16.06
2.29
1.38
5.32
0.1
-0.01
-3.1
-2.93
-0.4
-0.06
-0.82
-0.11
-0.42

> <PUBCHEM_SHAPE_SELFOVERLAP>
1306.869

> <PUBCHEM_SHAPE_VOLUME>
343.7

> <PUBCHEM_COORDINATE_TYPE>
2
5
10

$$$$
