101249251
  -OEChem-08312004103D

 51 53  0     1  0  0  0  0  0999 V2000
    5.0387    0.5345    1.3038 O   0  0  0  0  0  0  0  0  0  0  0  0
   -2.0814   -0.8982   -0.4992 O   0  0  0  0  0  0  0  0  0  0  0  0
   -0.9245    1.0589   -1.0240 O   0  0  0  0  0  0  0  0  0  0  0  0
   -5.4055    1.2214    0.6516 O   0  0  0  0  0  0  0  0  0  0  0  0
   -5.1141   -1.5412    1.4509 O   0  0  0  0  0  0  0  0  0  0  0  0
   -2.7744    2.5409    0.5219 O   0  0  0  0  0  0  0  0  0  0  0  0
    5.0586   -2.5411    2.1650 O   0  0  0  0  0  0  0  0  0  0  0  0
   -1.7653   -3.5900   -0.1026 O   0  0  0  0  0  0  0  0  0  0  0  0
    0.4653   -1.0859   -2.0969 O   0  0  0  0  0  0  0  0  0  0  0  0
    0.4244    2.9244    0.5209 O   0  0  0  0  0  0  0  0  0  0  0  0
    4.6132    0.4932   -0.0682 C   0  0  1  0  0  0  0  0  0  0  0  0
    5.1648   -0.7223    0.6376 C   0  0  2  0  0  0  0  0  0  0  0  0
   -4.1438    0.5805    0.8459 C   0  0  1  0  0  0  0  0  0  0  0  0
   -4.3007   -0.8945    0.4756 C   0  0  1  0  0  0  0  0  0  0  0  0
   -3.0879    1.2605   -0.0257 C   0  0  2  0  0  0  0  0  0  0  0  0
   -2.9372   -1.5870    0.4141 C   0  0  1  0  0  0  0  0  0  0  0  0
   -1.8014    0.4371   -0.0852 C   0  0  1  0  0  0  0  0  0  0  0  0
    3.1522    0.6422   -0.3208 C   0  0  0  0  0  0  0  0  0  0  0  0
    4.3158   -1.8061    1.2015 C   0  0  0  0  0  0  0  0  0  0  0  0
   -3.0578   -3.0295   -0.0672 C   0  0  0  0  0  0  0  0  0  0  0  0
    0.4168    0.9219   -0.7925 C   0  0  0  0  0  0  0  0  0  0  0  0
    2.4786   -0.2993   -1.0991 C   0  0  0  0  0  0  0  0  0  0  0  0
    2.4580    1.7236    0.2216 C   0  0  0  0  0  0  0  0  0  0  0  0
    1.1110   -0.1595   -1.3350 C   0  0  0  0  0  0  0  0  0  0  0  0
    1.0903    1.8636   -0.0143 C   0  0  0  0  0  0  0  0  0  0  0  0
    1.2489   -2.1601   -2.6132 C   0  0  0  0  0  0  0  0  0  0  0  0
    0.3574    4.1119   -0.2668 C   0  0  0  0  0  0  0  0  0  0  0  0
    5.2748    0.9691   -0.7864 H   0  0  0  0  0  0  0  0  0  0  0  0
    6.1533   -1.0592    0.3521 H   0  0  0  0  0  0  0  0  0  0  0  0
   -3.9049    0.6932    1.9099 H   0  0  0  0  0  0  0  0  0  0  0  0
   -4.8164   -0.9794   -0.4888 H   0  0  0  0  0  0  0  0  0  0  0  0
   -3.4780    1.4356   -1.0354 H   0  0  0  0  0  0  0  0  0  0  0  0
   -2.4561   -1.5982    1.4018 H   0  0  0  0  0  0  0  0  0  0  0  0
   -1.3227    0.4175    0.9048 H   0  0  0  0  0  0  0  0  0  0  0  0
    4.0177   -2.4985    0.4083 H   0  0  0  0  0  0  0  0  0  0  0  0
    3.4160   -1.4188    1.6903 H   0  0  0  0  0  0  0  0  0  0  0  0
   -3.4703   -3.0692   -1.0809 H   0  0  0  0  0  0  0  0  0  0  0  0
   -3.6850   -3.6255    0.6025 H   0  0  0  0  0  0  0  0  0  0  0  0
    3.0722   -1.1116   -1.5048 H   0  0  0  0  0  0  0  0  0  0  0  0
    2.9785    2.4612    0.8277 H   0  0  0  0  0  0  0  0  0  0  0  0
   -5.6374    1.1536   -0.2903 H   0  0  0  0  0  0  0  0  0  0  0  0
   -4.6587   -1.4833    2.3081 H   0  0  0  0  0  0  0  0  0  0  0  0
   -2.4141    2.4070    1.4151 H   0  0  0  0  0  0  0  0  0  0  0  0
    4.4780   -3.2483    2.4944 H   0  0  0  0  0  0  0  0  0  0  0  0
   -1.8556   -4.5057   -0.4168 H   0  0  0  0  0  0  0  0  0  0  0  0
    1.6650   -2.7786   -1.8105 H   0  0  0  0  0  0  0  0  0  0  0  0
    2.0172   -1.8025   -3.3072 H   0  0  0  0  0  0  0  0  0  0  0  0
    0.5743   -2.8017   -3.1896 H   0  0  0  0  0  0  0  0  0  0  0  0
    1.3618    4.5032   -0.4567 H   0  0  0  0  0  0  0  0  0  0  0  0
   -0.1563    3.9175   -1.2136 H   0  0  0  0  0  0  0  0  0  0  0  0
   -0.2107    4.8611    0.2914 H   0  0  0  0  0  0  0  0  0  0  0  0
  1 11  1  0  0  0  0
  1 12  1  0  0  0  0
  2 16  1  0  0  0  0
  2 17  1  0  0  0  0
  3 17  1  0  0  0  0
  3 21  1  0  0  0  0
  4 13  1  0  0  0  0
  4 41  1  0  0  0  0
  5 14  1  0  0  0  0
  5 42  1  0  0  0  0
  6 15  1  0  0  0  0
  6 43  1  0  0  0  0
  7 19  1  0  0  0  0
  7 44  1  0  0  0  0
  8 20  1  0  0  0  0
  8 45  1  0  0  0  0
  9 24  1  0  0  0  0
  9 26  1  0  0  0  0
 10 25  1  0  0  0  0
 10 27  1  0  0  0  0
 11 12  1  0  0  0  0
 11 18  1  0  0  0  0
 11 28  1  0  0  0  0
 12 19  1  0  0  0  0
 12 29  1  0  0  0  0
 13 14  1  0  0  0  0
 13 15  1  0  0  0  0
 13 30  1  0  0  0  0
 14 16  1  0  0  0  0
 14 31  1  0  0  0  0
 15 17  1  0  0  0  0
 15 32  1  0  0  0  0
 16 20  1  0  0  0  0
 16 33  1  0  0  0  0
 17 34  1  0  0  0  0
 18 22  2  0  0  0  0
 18 23  1  0  0  0  0
 19 35  1  0  0  0  0
 19 36  1  0  0  0  0
 20 37  1  0  0  0  0
 20 38  1  0  0  0  0
 21 24  2  0  0  0  0
 21 25  1  0  0  0  0
 22 24  1  0  0  0  0
 22 39  1  0  0  0  0
 23 25  2  0  0  0  0
 23 40  1  0  0  0  0
 26 46  1  0  0  0  0
 26 47  1  0  0  0  0
 26 48  1  0  0  0  0
 27 49  1  0  0  0  0
 27 50  1  0  0  0  0
 27 51  1  0  0  0  0
M  END
> <PUBCHEM_COMPOUND_CID>
101249251

> <PUBCHEM_CONFORMER_RMSD>
1

> <PUBCHEM_CONFORMER_DIVERSEORDER>
1
39
58
16
33
61
43
42
23
37
60
31
57
9
49
50
10
34
44
20
28
15
29
46
22
40
59
26
30
24
62
18
56
55
32
21
54
13
48
4
52
51
19
38
53
8
7
45
2
27
14
25
35
5
17
3
47
11
6
36
41
12

> <PUBCHEM_MMFF94_PARTIAL_CHARGES>
36
1 -0.3
10 -0.36
11 0.08
12 -0.05
13 0.28
14 0.28
15 0.28
16 0.28
17 0.56
18 -0.03
19 0.38
2 -0.56
20 0.28
21 0.08
22 -0.15
23 -0.15
24 0.08
25 0.08
26 0.28
27 0.28
28 0.1
29 0.1
3 -0.36
39 0.15
4 -0.68
40 0.15
41 0.4
42 0.4
43 0.4
44 0.4
45 0.4
5 -0.68
6 -0.68
7 -0.68
8 -0.68
9 -0.36

> <PUBCHEM_EFFECTIVE_ROTOR_COUNT>
8.8

> <PUBCHEM_PHARMACOPHORE_FEATURES>
17
1 1 acceptor
1 10 acceptor
1 2 acceptor
1 3 acceptor
1 4 acceptor
1 4 donor
1 5 acceptor
1 5 donor
1 6 acceptor
1 6 donor
1 7 acceptor
1 7 donor
1 8 acceptor
1 8 donor
1 9 acceptor
6 18 21 22 23 24 25 rings
6 2 13 14 15 16 17 rings

> <PUBCHEM_HEAVY_ATOM_COUNT>
27

> <PUBCHEM_ATOM_DEF_STEREO_COUNT>
5

> <PUBCHEM_ATOM_UDEF_STEREO_COUNT>
2

> <PUBCHEM_BOND_DEF_STEREO_COUNT>
0

> <PUBCHEM_BOND_UDEF_STEREO_COUNT>
0

> <PUBCHEM_ISOTOPIC_ATOM_COUNT>
0

> <PUBCHEM_COMPONENT_COUNT>
1

> <PUBCHEM_CACTVS_TAUTO_COUNT>
1

> <PUBCHEM_CONFORMER_ID>
0608F0E300000001

> <PUBCHEM_MMFF94_ENERGY>
98.1804

> <PUBCHEM_FEATURE_SELFOVERLAP>
86.355

> <PUBCHEM_SHAPE_FINGERPRINT>
11796584 16 17386275524115649472
12107183 9 18409736132102116041
12422481 6 17916862396862079294
12633257 1 18342187703773527179
12839892 36 17988925621306973911
12892183 10 18410004464483830880
13140716 1 18056766652924601677
13149001 5 12396887509388367124
13583140 156 18263340604202066756
14178342 30 18058187075702600449
14341114 176 18339930401980343136
15163728 17 10519151532992217792
15537594 2 18040438772224284226
15685185 35 17247818660240215876
15775530 1 17553490180582154204
16728300 4 17897715475463948307
17349148 13 18130507526339576317
1813 80 16443346460038337982
1979834 28 17846511313130799239
21033648 29 16845574184219007736
21857420 4 12763966251921372553
21859007 373 17752199488453001253
23366157 5 17901392508487776581
23559900 14 18128277638974314686
2838139 119 12679457595496259594
3680242 22 18336555936290938331
4409770 3 17970896778865056797
463206 1 18114180873747211410
465052 167 18410862049235760900
474 4 14117508874796602642
5104073 3 18342185517772675089
6823239 73 17986418687803913350
7097593 13 18264766739106902438
9709674 26 18128554802458240935

> <PUBCHEM_SHAPE_MULTIPOLES>
496.95
10.81
3.8
1.59
1
0.68
-0.51
-4.27
6.7
-1
0.23
1.36
-1.24
-0.79

> <PUBCHEM_SHAPE_SELFOVERLAP>
1040.289

> <PUBCHEM_SHAPE_VOLUME>
281.8

> <PUBCHEM_COORDINATE_TYPE>
2
5
10

$$$$
