10552637
  -OEChem-08312004153D

 63 65  0     1  0  0  0  0  0999 V2000
   -0.5694    1.1912    0.4464 O   0  0  0  0  0  0  0  0  0  0  0  0
    4.1776   -0.6255    1.3178 O   0  0  0  0  0  0  0  0  0  0  0  0
    2.7313    0.0857   -0.4162 O   0  0  0  0  0  0  0  0  0  0  0  0
    5.6676   -2.9606    0.2940 O   0  0  0  0  0  0  0  0  0  0  0  0
    4.4865   -1.9312   -2.0110 O   0  0  0  0  0  0  0  0  0  0  0  0
    2.5438    2.9388   -0.3708 O   0  0  0  0  0  0  0  0  0  0  0  0
    0.7476    5.0804    0.3660 O   0  0  0  0  0  0  0  0  0  0  0  0
   -2.8012    1.8702    0.4814 O   0  0  0  0  0  0  0  0  0  0  0  0
   -2.0137    4.4309   -0.4302 O   0  0  0  0  0  0  0  0  0  0  0  0
    8.2165   -1.8147    0.4106 O   0  0  0  0  0  0  0  0  0  0  0  0
   -4.4819   -2.2290    2.2585 O   0  0  0  0  0  0  0  0  0  0  0  0
   -4.3453   -1.5409   -2.4795 O   0  0  0  0  0  0  0  0  0  0  0  0
   -4.9567   -3.1510   -0.3098 O   0  0  0  0  0  0  0  0  0  0  0  0
    5.8780   -1.5839   -0.0218 C   0  0  1  0  0  0  0  0  0  0  0  0
    0.7369    1.3638   -0.1060 C   0  0  1  0  0  0  0  0  0  0  0  0
    4.7731   -1.0705   -0.9261 C   0  0  2  0  0  0  0  0  0  0  0  0
    1.2779    2.7490    0.2558 C   0  0  2  0  0  0  0  0  0  0  0  0
    3.6027   -0.9397    0.0378 C   0  0  1  0  0  0  0  0  0  0  0  0
    0.3163    3.8444   -0.2056 C   0  0  1  0  0  0  0  0  0  0  0  0
   -1.1152    3.5487    0.2421 C   0  0  2  0  0  0  0  0  0  0  0  0
    5.6101   -0.7709    1.2345 C   0  0  0  0  0  0  0  0  0  0  0  0
    1.6209    0.2503    0.4469 C   0  0  0  0  0  0  0  0  0  0  0  0
   -1.5163    2.1117   -0.0908 C   0  0  1  0  0  0  0  0  0  0  0  0
    7.2815   -1.4134   -0.5773 C   0  0  0  0  0  0  0  0  0  0  0  0
   -3.3349    0.6260    0.2854 C   0  0  0  0  0  0  0  0  0  0  0  0
   -3.5727    0.1651   -1.0096 C   0  0  0  0  0  0  0  0  0  0  0  0
   -3.6422   -0.1816    1.3803 C   0  0  0  0  0  0  0  0  0  0  0  0
   -4.1871   -1.4500    1.1804 C   0  0  0  0  0  0  0  0  0  0  0  0
   -4.1175   -1.1032   -1.2096 C   0  0  0  0  0  0  0  0  0  0  0  0
   -4.4247   -1.9108   -0.1146 C   0  0  0  0  0  0  0  0  0  0  0  0
   -4.2082   -1.6824    3.5471 C   0  0  0  0  0  0  0  0  0  0  0  0
   -4.0030   -0.6532   -3.5419 C   0  0  0  0  0  0  0  0  0  0  0  0
   -6.3784   -3.2437   -0.3642 C   0  0  0  0  0  0  0  0  0  0  0  0
    0.6825    1.2531   -1.1980 H   0  0  0  0  0  0  0  0  0  0  0  0
    5.0366   -0.0878   -1.3386 H   0  0  0  0  0  0  0  0  0  0  0  0
    1.4331    2.8307    1.3385 H   0  0  0  0  0  0  0  0  0  0  0  0
    3.0484   -1.8834    0.1184 H   0  0  0  0  0  0  0  0  0  0  0  0
    0.3675    3.9768   -1.2927 H   0  0  0  0  0  0  0  0  0  0  0  0
   -1.2290    3.7395    1.3158 H   0  0  0  0  0  0  0  0  0  0  0  0
    5.9572   -1.2548    2.1523 H   0  0  0  0  0  0  0  0  0  0  0  0
    6.0349    0.2372    1.1757 H   0  0  0  0  0  0  0  0  0  0  0  0
    1.0523   -0.6875    0.4856 H   0  0  0  0  0  0  0  0  0  0  0  0
    1.9395    0.4838    1.4697 H   0  0  0  0  0  0  0  0  0  0  0  0
   -1.5738    1.9921   -1.1805 H   0  0  0  0  0  0  0  0  0  0  0  0
    7.4843   -0.3726   -0.8496 H   0  0  0  0  0  0  0  0  0  0  0  0
    7.4299   -2.0486   -1.4569 H   0  0  0  0  0  0  0  0  0  0  0  0
    6.3675   -3.2345    0.9115 H   0  0  0  0  0  0  0  0  0  0  0  0
    3.7034   -1.5763   -2.4653 H   0  0  0  0  0  0  0  0  0  0  0  0
    2.4196    2.8542   -1.3316 H   0  0  0  0  0  0  0  0  0  0  0  0
    0.6960    5.0005    1.3338 H   0  0  0  0  0  0  0  0  0  0  0  0
   -1.9284    4.2770   -1.3866 H   0  0  0  0  0  0  0  0  0  0  0  0
    9.1033   -1.7001    0.0288 H   0  0  0  0  0  0  0  0  0  0  0  0
   -3.3403    0.8413   -1.8242 H   0  0  0  0  0  0  0  0  0  0  0  0
   -3.4322    0.2365    2.3591 H   0  0  0  0  0  0  0  0  0  0  0  0
   -4.5034   -2.4353    4.2854 H   0  0  0  0  0  0  0  0  0  0  0  0
   -4.8129   -0.7905    3.7442 H   0  0  0  0  0  0  0  0  0  0  0  0
   -3.1374   -1.5009    3.6897 H   0  0  0  0  0  0  0  0  0  0  0  0
   -4.2437   -1.1657   -4.4793 H   0  0  0  0  0  0  0  0  0  0  0  0
   -2.9282   -0.4428   -3.5632 H   0  0  0  0  0  0  0  0  0  0  0  0
   -4.6078    0.2597   -3.5161 H   0  0  0  0  0  0  0  0  0  0  0  0
   -6.6474   -4.2914   -0.5241 H   0  0  0  0  0  0  0  0  0  0  0  0
   -6.7717   -2.6510   -1.1962 H   0  0  0  0  0  0  0  0  0  0  0  0
   -6.8230   -2.9087    0.5783 H   0  0  0  0  0  0  0  0  0  0  0  0
  1 15  1  0  0  0  0
  1 23  1  0  0  0  0
  2 18  1  0  0  0  0
  2 21  1  0  0  0  0
  3 18  1  0  0  0  0
  3 22  1  0  0  0  0
  4 14  1  0  0  0  0
  4 47  1  0  0  0  0
  5 16  1  0  0  0  0
  5 48  1  0  0  0  0
  6 17  1  0  0  0  0
  6 49  1  0  0  0  0
  7 19  1  0  0  0  0
  7 50  1  0  0  0  0
  8 23  1  0  0  0  0
  8 25  1  0  0  0  0
  9 20  1  0  0  0  0
  9 51  1  0  0  0  0
 10 24  1  0  0  0  0
 10 52  1  0  0  0  0
 11 28  1  0  0  0  0
 11 31  1  0  0  0  0
 12 29  1  0  0  0  0
 12 32  1  0  0  0  0
 13 30  1  0  0  0  0
 13 33  1  0  0  0  0
 14 16  1  0  0  0  0
 14 21  1  0  0  0  0
 14 24  1  0  0  0  0
 15 17  1  0  0  0  0
 15 22  1  0  0  0  0
 15 34  1  0  0  0  0
 16 18  1  0  0  0  0
 16 35  1  0  0  0  0
 17 19  1  0  0  0  0
 17 36  1  0  0  0  0
 18 37  1  0  0  0  0
 19 20  1  0  0  0  0
 19 38  1  0  0  0  0
 20 23  1  0  0  0  0
 20 39  1  0  0  0  0
 21 40  1  0  0  0  0
 21 41  1  0  0  0  0
 22 42  1  0  0  0  0
 22 43  1  0  0  0  0
 23 44  1  0  0  0  0
 24 45  1  0  0  0  0
 24 46  1  0  0  0  0
 25 26  2  0  0  0  0
 25 27  1  0  0  0  0
 26 29  1  0  0  0  0
 26 53  1  0  0  0  0
 27 28  2  0  0  0  0
 27 54  1  0  0  0  0
 28 30  1  0  0  0  0
 29 30  2  0  0  0  0
 31 55  1  0  0  0  0
 31 56  1  0  0  0  0
 31 57  1  0  0  0  0
 32 58  1  0  0  0  0
 32 59  1  0  0  0  0
 32 60  1  0  0  0  0
 33 61  1  0  0  0  0
 33 62  1  0  0  0  0
 33 63  1  0  0  0  0
M  END
> <PUBCHEM_COMPOUND_CID>
10552637

> <PUBCHEM_CONFORMER_RMSD>
1

> <PUBCHEM_CONFORMER_DIVERSEORDER>
3
51
52
10
64
54
55
39
49
57
25
21
46
48
41
5
14
42
38
15
13
29
70
23
12
6
30
7
22
9
44
33
47
56
34
62
27
69
35
36
50
16
19
63
45
61
58
37
11
4
24
28
1
32
26
2
17
66
59
18
43
65
67
53
8
40
68
60
31
20

> <PUBCHEM_MMFF94_PARTIAL_CHARGES>
41
1 -0.56
10 -0.68
11 -0.36
12 -0.36
13 -0.36
14 0.28
15 0.28
16 0.28
17 0.28
18 0.56
19 0.28
2 -0.56
20 0.28
21 0.28
22 0.28
23 0.56
24 0.28
25 0.08
26 -0.15
27 -0.15
28 0.08
29 0.08
3 -0.56
30 0.08
31 0.28
32 0.28
33 0.28
4 -0.68
47 0.4
48 0.4
49 0.4
5 -0.68
50 0.4
51 0.4
52 0.4
53 0.15
54 0.15
6 -0.68
7 -0.68
8 -0.36
9 -0.68

> <PUBCHEM_EFFECTIVE_ROTOR_COUNT>
11.2

> <PUBCHEM_PHARMACOPHORE_FEATURES>
22
1 1 acceptor
1 10 acceptor
1 10 donor
1 11 acceptor
1 12 acceptor
1 13 acceptor
1 2 acceptor
1 3 acceptor
1 4 acceptor
1 4 donor
1 5 acceptor
1 5 donor
1 6 acceptor
1 6 donor
1 7 acceptor
1 7 donor
1 8 acceptor
1 9 acceptor
1 9 donor
5 2 14 16 18 21 rings
6 1 15 17 19 20 23 rings
6 25 26 27 28 29 30 rings

> <PUBCHEM_HEAVY_ATOM_COUNT>
33

> <PUBCHEM_ATOM_DEF_STEREO_COUNT>
8

> <PUBCHEM_ATOM_UDEF_STEREO_COUNT>
0

> <PUBCHEM_BOND_DEF_STEREO_COUNT>
0

> <PUBCHEM_BOND_UDEF_STEREO_COUNT>
0

> <PUBCHEM_ISOTOPIC_ATOM_COUNT>
0

> <PUBCHEM_COMPONENT_COUNT>
1

> <PUBCHEM_CACTVS_TAUTO_COUNT>
1

> <PUBCHEM_CONFORMER_ID>
00A1053D00000003

> <PUBCHEM_MMFF94_ENERGY>
138.1209

> <PUBCHEM_FEATURE_SELFOVERLAP>
111.794

> <PUBCHEM_SHAPE_FINGERPRINT>
10411042 1 18411136965233102969
10622 236 17556286599692871631
11200772 48 18119231888705684709
12107183 9 18270698506409341449
12422481 6 17417820512864112988
1361 87 17604716706551173803
13782708 43 17750792337018653235
14114206 34 17822285752378236745
14168556 18 18412258468327921720
14429380 30 18410011044231303534
14674994 50 17916856916668958565
14844126 61 18339925896659863585
15183329 4 15791727503749667106
15250474 111 17899125019627888946
15361156 5 18411420587846910268
15510800 12 18042124422006891491
17492 89 18268427022401562381
17686467 74 18412816998680809304
18927931 339 18340489971562251046
19246450 95 18197803028729000513
19315092 285 16484980696300396887
19841028 212 18196935694138297411
20691028 202 9007061274733332991
21033650 10 16009295561987538549
21133410 32 16009613376101850896
21458453 9 17988627598485435336
21796203 349 18124626251237321944
23536364 44 18113329800233604067
2838139 119 13551197680201783414
484985 159 18410571778483071895
49967989 163 17968678033768443434
5486654 36 18335434456248633561
58260988 647 18118403089425861259
613672 6 18335966649508393672
6431902 208 18408604734510500906
6673363 416 18340780274232435692
7970288 3 18411417349431220811

> <PUBCHEM_SHAPE_MULTIPOLES>
602.82
17.35
5.21
2.2
24.3
6.83
-0.19
-23.34
-0.43
-1.5
0.18
-4.26
-1.83
0.61

> <PUBCHEM_SHAPE_SELFOVERLAP>
1264.103

> <PUBCHEM_SHAPE_VOLUME>
339.9

> <PUBCHEM_COORDINATE_TYPE>
2
5
10

$$$$
