25244544
  -OEChem-08312010333D

 48 49  0     1  0  0  0  0  0999 V2000
   -1.7030   -0.8213   -0.0586 O   0  0  0  0  0  0  0  0  0  0  0  0
   -0.9416    1.2654   -0.7727 O   0  0  0  0  0  0  0  0  0  0  0  0
   -5.6252    0.3409   -0.4224 O   0  0  0  0  0  0  0  0  0  0  0  0
   -4.9579   -1.9991    1.1381 O   0  0  0  0  0  0  0  0  0  0  0  0
   -3.4907    2.3613   -0.2166 O   0  0  0  0  0  0  0  0  0  0  0  0
   -0.8922   -3.1720    1.1132 O   0  0  0  0  0  0  0  0  0  0  0  0
    0.4405   -0.8141   -1.9765 O   0  0  0  0  0  0  0  0  0  0  0  0
    0.3648    2.9038    1.0417 O   0  0  0  0  0  0  0  0  0  0  0  0
    7.2053   -1.8919    0.4755 O   0  0  0  0  0  0  0  0  0  0  0  0
   -4.3805    0.1688    0.2570 C   0  0  1  0  0  0  0  0  0  0  0  0
   -4.0513   -1.3241    0.2700 C   0  0  1  0  0  0  0  0  0  0  0  0
   -3.2938    0.9689   -0.4612 C   0  0  2  0  0  0  0  0  0  0  0  0
   -2.6182   -1.5601    0.7525 C   0  0  1  0  0  0  0  0  0  0  0  0
   -1.9004    0.5873    0.0384 C   0  0  1  0  0  0  0  0  0  0  0  0
   -2.2273   -3.0319    0.6631 C   0  0  0  0  0  0  0  0  0  0  0  0
    0.3756    1.0493   -0.4736 C   0  0  0  0  0  0  0  0  0  0  0  0
    1.0662    0.0015   -1.0824 C   0  0  0  0  0  0  0  0  0  0  0  0
    1.0280    1.8770    0.4400 C   0  0  0  0  0  0  0  0  0  0  0  0
    2.4095   -0.2187   -0.7775 C   0  0  0  0  0  0  0  0  0  0  0  0
    2.3713    1.6568    0.7449 C   0  0  0  0  0  0  0  0  0  0  0  0
    3.0621    0.6089    0.1361 C   0  0  0  0  0  0  0  0  0  0  0  0
    4.4627    0.3796    0.4538 C   0  0  0  0  0  0  0  0  0  0  0  0
    1.2183   -1.8612   -2.5532 C   0  0  0  0  0  0  0  0  0  0  0  0
    0.3913    4.1675    0.3811 C   0  0  0  0  0  0  0  0  0  0  0  0
    5.1313   -0.7764    0.2534 C   0  0  0  0  0  0  0  0  0  0  0  0
    6.5550   -0.8661    0.6358 C   0  0  0  0  0  0  0  0  0  0  0  0
   -4.5344    0.5439    1.2756 H   0  0  0  0  0  0  0  0  0  0  0  0
   -4.1896   -1.7407   -0.7353 H   0  0  0  0  0  0  0  0  0  0  0  0
   -3.3646    0.8254   -1.5460 H   0  0  0  0  0  0  0  0  0  0  0  0
   -2.4954   -1.2395    1.7961 H   0  0  0  0  0  0  0  0  0  0  0  0
   -1.7622    0.9109    1.0794 H   0  0  0  0  0  0  0  0  0  0  0  0
   -2.2677   -3.3835   -0.3733 H   0  0  0  0  0  0  0  0  0  0  0  0
   -2.8751   -3.6584    1.2836 H   0  0  0  0  0  0  0  0  0  0  0  0
   -5.5153    0.0321   -1.3379 H   0  0  0  0  0  0  0  0  0  0  0  0
   -4.8333   -1.6462    2.0357 H   0  0  0  0  0  0  0  0  0  0  0  0
   -3.4256    2.5112    0.7420 H   0  0  0  0  0  0  0  0  0  0  0  0
   -0.6619   -4.1139    1.0402 H   0  0  0  0  0  0  0  0  0  0  0  0
    2.9765   -1.0079   -1.2546 H   0  0  0  0  0  0  0  0  0  0  0  0
    2.8692    2.3075    1.4606 H   0  0  0  0  0  0  0  0  0  0  0  0
    4.9869    1.2233    0.8986 H   0  0  0  0  0  0  0  0  0  0  0  0
    0.5597   -2.4123   -3.2327 H   0  0  0  0  0  0  0  0  0  0  0  0
    1.5591   -2.5763   -1.7964 H   0  0  0  0  0  0  0  0  0  0  0  0
    2.0402   -1.4675   -3.1608 H   0  0  0  0  0  0  0  0  0  0  0  0
   -0.1831    4.8792    0.9803 H   0  0  0  0  0  0  0  0  0  0  0  0
   -0.0681    4.0938   -0.6097 H   0  0  0  0  0  0  0  0  0  0  0  0
    1.4193    4.5330    0.2930 H   0  0  0  0  0  0  0  0  0  0  0  0
    4.6873   -1.6742   -0.1582 H   0  0  0  0  0  0  0  0  0  0  0  0
    7.0014    0.0429    1.0724 H   0  0  0  0  0  0  0  0  0  0  0  0
  1 13  1  0  0  0  0
  1 14  1  0  0  0  0
  2 14  1  0  0  0  0
  2 16  1  0  0  0  0
  3 10  1  0  0  0  0
  3 34  1  0  0  0  0
  4 11  1  0  0  0  0
  4 35  1  0  0  0  0
  5 12  1  0  0  0  0
  5 36  1  0  0  0  0
  6 15  1  0  0  0  0
  6 37  1  0  0  0  0
  7 17  1  0  0  0  0
  7 23  1  0  0  0  0
  8 18  1  0  0  0  0
  8 24  1  0  0  0  0
  9 26  2  0  0  0  0
 10 11  1  0  0  0  0
 10 12  1  0  0  0  0
 10 27  1  0  0  0  0
 11 13  1  0  0  0  0
 11 28  1  0  0  0  0
 12 14  1  0  0  0  0
 12 29  1  0  0  0  0
 13 15  1  0  0  0  0
 13 30  1  0  0  0  0
 14 31  1  0  0  0  0
 15 32  1  0  0  0  0
 15 33  1  0  0  0  0
 16 17  2  0  0  0  0
 16 18  1  0  0  0  0
 17 19  1  0  0  0  0
 18 20  2  0  0  0  0
 19 21  2  0  0  0  0
 19 38  1  0  0  0  0
 20 21  1  0  0  0  0
 20 39  1  0  0  0  0
 21 22  1  0  0  0  0
 22 25  2  0  0  0  0
 22 40  1  0  0  0  0
 23 41  1  0  0  0  0
 23 42  1  0  0  0  0
 23 43  1  0  0  0  0
 24 44  1  0  0  0  0
 24 45  1  0  0  0  0
 24 46  1  0  0  0  0
 25 26  1  0  0  0  0
 25 47  1  0  0  0  0
 26 48  1  0  0  0  0
M  END
> <PUBCHEM_COMPOUND_CID>
25244544

> <PUBCHEM_CONFORMER_RMSD>
0.8

> <PUBCHEM_CONFORMER_DIVERSEORDER>
2
50
41
54
43
51
46
22
12
48
10
45
57
26
53
44
31
25
39
24
40
14
58
28
52
9
8
59
20
7
15
23
4
29
47
19
11
42
49
32
21
34
3
37
5
18
17
33
16
6
1
35
38
36
55
56
27
30
13

> <PUBCHEM_MMFF94_PARTIAL_CHARGES>
35
1 -0.56
10 0.28
11 0.28
12 0.28
13 0.28
14 0.56
15 0.28
16 0.08
17 0.08
18 0.08
19 -0.15
2 -0.36
20 -0.15
21 0.03
22 -0.18
23 0.28
24 0.28
25 -0.14
26 0.5
3 -0.68
34 0.4
35 0.4
36 0.4
37 0.4
38 0.15
39 0.15
4 -0.68
40 0.15
47 0.15
48 0.06
5 -0.68
6 -0.68
7 -0.36
8 -0.36
9 -0.57

> <PUBCHEM_EFFECTIVE_ROTOR_COUNT>
8.2

> <PUBCHEM_PHARMACOPHORE_FEATURES>
15
1 1 acceptor
1 2 acceptor
1 3 acceptor
1 3 donor
1 4 acceptor
1 4 donor
1 5 acceptor
1 5 donor
1 6 acceptor
1 6 donor
1 7 acceptor
1 8 acceptor
1 9 acceptor
6 1 10 11 12 13 14 rings
6 16 17 18 19 20 21 rings

> <PUBCHEM_HEAVY_ATOM_COUNT>
26

> <PUBCHEM_ATOM_DEF_STEREO_COUNT>
4

> <PUBCHEM_ATOM_UDEF_STEREO_COUNT>
1

> <PUBCHEM_BOND_DEF_STEREO_COUNT>
1

> <PUBCHEM_BOND_UDEF_STEREO_COUNT>
0

> <PUBCHEM_ISOTOPIC_ATOM_COUNT>
0

> <PUBCHEM_COMPONENT_COUNT>
1

> <PUBCHEM_CACTVS_TAUTO_COUNT>
1

> <PUBCHEM_CONFORMER_ID>
0181338000000002

> <PUBCHEM_MMFF94_ENERGY>
99.7593

> <PUBCHEM_FEATURE_SELFOVERLAP>
76.202

> <PUBCHEM_SHAPE_FINGERPRINT>
10906281 52 18200613435224438041
11045977 3 18412820309441100904
11578080 2 15194174707899298475
11796584 16 18040432174737656162
12236239 1 16950287320719889911
12403260 363 18128817624365240583
12633257 1 18269571574992727819
12760667 363 18412257307932169602
13140716 1 18050578631727558739
13402501 40 18411419492867594082
13540713 4 17271732672780952772
13965767 371 14042698051786884691
14341114 176 18336548317092963800
14420673 8 18334014986283669370
17492 89 17976258259586511955
17804303 29 18335705000459455881
1813 80 16226043397246151526
20600515 1 18335150743103448868
20642791 13 18058173817334067729
21033648 29 17418078923729579976
21304304 249 18335139829897705575
21637258 2 17603575336329827066
22182313 1 17416407550940673300
23559900 14 18337383967267967945
3004659 81 18040714767107094002
335352 9 18408319991205661349
4409770 3 18044083571371090789
465052 167 18412830205114199060
5104073 3 18270970149351460233
559249 180 18113333089798907147
59755656 215 18337954485560523558
7226269 152 18338514136498740736
81228 2 17912672131772802049
9709674 26 18122625221969272131

> <PUBCHEM_SHAPE_MULTIPOLES>
482.24
11.9
3.55
1.33
11.3
1.59
-0.8
-6.7
3.56
-1.01
1
0.26
-0.79
1.12

> <PUBCHEM_SHAPE_SELFOVERLAP>
1005.047

> <PUBCHEM_SHAPE_VOLUME>
271.6

> <PUBCHEM_COORDINATE_TYPE>
2
5
10

$$$$
