15101911
  -OEChem-08312004113D

 65 67  0     1  0  0  0  0  0999 V2000
    1.8465   -0.6351    0.2714 O   0  0  0  0  0  0  0  0  0  0  0  0
   -2.5301   -3.1178    0.7413 O   0  0  0  0  0  0  0  0  0  0  0  0
   -0.7345   -1.5881    0.4817 O   0  0  0  0  0  0  0  0  0  0  0  0
    2.5452   -4.2132   -0.0790 O   0  0  0  0  0  0  0  0  0  0  0  0
    5.1779   -3.0269    0.0520 O   0  0  0  0  0  0  0  0  0  0  0  0
    3.0950    1.2747   -0.2159 O   0  0  0  0  0  0  0  0  0  0  0  0
    5.1743   -0.3658   -1.2127 O   0  0  0  0  0  0  0  0  0  0  0  0
   -3.8903   -1.0473    2.1983 O   0  0  0  0  0  0  0  0  0  0  0  0
   -4.5222    0.4269   -0.0759 O   0  0  0  0  0  0  0  0  0  0  0  0
   -4.5010   -1.6669   -2.0154 O   0  0  0  0  0  0  0  0  0  0  0  0
    2.0501    2.6943    1.9371 O   0  0  0  0  0  0  0  0  0  0  0  0
    1.5738   -2.0067   -0.0209 C   0  0  1  0  0  0  0  0  0  0  0  0
    2.8026   -2.8624    0.2955 C   0  0  2  0  0  0  0  0  0  0  0  0
    4.0285   -2.3525   -0.4624 C   0  0  1  0  0  0  0  0  0  0  0  0
    4.2012   -0.8441   -0.2844 C   0  0  2  0  0  0  0  0  0  0  0  0
   -2.8723   -0.7596    1.2384 C   0  0  1  0  0  0  0  0  0  0  0  0
   -1.8939   -1.9328    1.2321 C   0  0  1  0  0  0  0  0  0  0  0  0
   -3.4987   -0.5635   -0.1433 C   0  0  1  0  0  0  0  0  0  0  0  0
   -4.0967   -1.8710   -0.6638 C   0  0  2  0  0  0  0  0  0  0  0  0
   -3.0552   -2.9958   -0.5844 C   0  0  2  0  0  0  0  0  0  0  0  0
    2.8902   -0.1003   -0.5392 C   0  0  1  0  0  0  0  0  0  0  0  0
    0.3658   -2.4232    0.8123 C   0  0  0  0  0  0  0  0  0  0  0  0
   -3.6487   -4.3520   -0.9555 C   0  0  0  0  0  0  0  0  0  0  0  0
    2.0243    2.1094   -0.3845 C   0  0  0  0  0  0  0  0  0  0  0  0
    1.5021    2.8199    0.6963 C   0  0  0  0  0  0  0  0  0  0  0  0
    1.4544    2.2466   -1.6502 C   0  0  0  0  0  0  0  0  0  0  0  0
    0.4100    3.6678    0.5112 C   0  0  0  0  0  0  0  0  0  0  0  0
    0.3620    3.0941   -1.8352 C   0  0  0  0  0  0  0  0  0  0  0  0
   -0.1601    3.8048   -0.7544 C   0  0  0  0  0  0  0  0  0  0  0  0
   -1.3280    4.7108   -0.9523 C   0  0  0  0  0  0  0  0  0  0  0  0
    1.4569    3.4551    2.9876 C   0  0  0  0  0  0  0  0  0  0  0  0
   -2.6518    4.0182   -0.7562 C   0  0  0  0  0  0  0  0  0  0  0  0
   -3.5774    4.4024    0.1300 C   0  0  0  0  0  0  0  0  0  0  0  0
    1.2974   -2.0889   -1.0810 H   0  0  0  0  0  0  0  0  0  0  0  0
    3.0066   -2.8551    1.3732 H   0  0  0  0  0  0  0  0  0  0  0  0
    3.9692   -2.6174   -1.5245 H   0  0  0  0  0  0  0  0  0  0  0  0
    4.5822   -0.6167    0.7183 H   0  0  0  0  0  0  0  0  0  0  0  0
   -2.3792    0.1689    1.5487 H   0  0  0  0  0  0  0  0  0  0  0  0
   -1.6083   -2.1442    2.2704 H   0  0  0  0  0  0  0  0  0  0  0  0
   -2.7453   -0.1936   -0.8501 H   0  0  0  0  0  0  0  0  0  0  0  0
   -4.9943   -2.1255   -0.0879 H   0  0  0  0  0  0  0  0  0  0  0  0
   -2.2285   -2.7994   -1.2795 H   0  0  0  0  0  0  0  0  0  0  0  0
    2.6200   -0.1882   -1.5996 H   0  0  0  0  0  0  0  0  0  0  0  0
    0.1072   -3.4702    0.6188 H   0  0  0  0  0  0  0  0  0  0  0  0
    0.5941   -2.2999    1.8782 H   0  0  0  0  0  0  0  0  0  0  0  0
   -4.4590   -4.6242   -0.2702 H   0  0  0  0  0  0  0  0  0  0  0  0
   -4.0375   -4.3546   -1.9780 H   0  0  0  0  0  0  0  0  0  0  0  0
   -2.8886   -5.1364   -0.8706 H   0  0  0  0  0  0  0  0  0  0  0  0
    2.3485   -4.2287   -1.0312 H   0  0  0  0  0  0  0  0  0  0  0  0
    5.2680   -2.7968    0.9924 H   0  0  0  0  0  0  0  0  0  0  0  0
    4.8547   -0.5581   -2.1107 H   0  0  0  0  0  0  0  0  0  0  0  0
   -3.4639   -1.1065    3.0703 H   0  0  0  0  0  0  0  0  0  0  0  0
   -4.1178    1.2415    0.2679 H   0  0  0  0  0  0  0  0  0  0  0  0
   -3.7070   -1.4692   -2.5409 H   0  0  0  0  0  0  0  0  0  0  0  0
    1.8573    1.7172   -2.5088 H   0  0  0  0  0  0  0  0  0  0  0  0
   -0.0395    4.2433    1.3136 H   0  0  0  0  0  0  0  0  0  0  0  0
   -0.0711    3.1936   -2.8270 H   0  0  0  0  0  0  0  0  0  0  0  0
   -1.2393    5.5796   -0.2867 H   0  0  0  0  0  0  0  0  0  0  0  0
   -1.3040    5.1263   -1.9682 H   0  0  0  0  0  0  0  0  0  0  0  0
    2.0180    3.2337    3.9016 H   0  0  0  0  0  0  0  0  0  0  0  0
    0.4205    3.1513    3.1705 H   0  0  0  0  0  0  0  0  0  0  0  0
    1.5519    4.5318    2.8102 H   0  0  0  0  0  0  0  0  0  0  0  0
   -2.8690    3.1633   -1.3923 H   0  0  0  0  0  0  0  0  0  0  0  0
   -3.4179    5.2528    0.7835 H   0  0  0  0  0  0  0  0  0  0  0  0
   -4.5149    3.8636    0.2138 H   0  0  0  0  0  0  0  0  0  0  0  0
  1 12  1  0  0  0  0
  1 21  1  0  0  0  0
  2 17  1  0  0  0  0
  2 20  1  0  0  0  0
  3 17  1  0  0  0  0
  3 22  1  0  0  0  0
  4 13  1  0  0  0  0
  4 49  1  0  0  0  0
  5 14  1  0  0  0  0
  5 50  1  0  0  0  0
  6 21  1  0  0  0  0
  6 24  1  0  0  0  0
  7 15  1  0  0  0  0
  7 51  1  0  0  0  0
  8 16  1  0  0  0  0
  8 52  1  0  0  0  0
  9 18  1  0  0  0  0
  9 53  1  0  0  0  0
 10 19  1  0  0  0  0
 10 54  1  0  0  0  0
 11 25  1  0  0  0  0
 11 31  1  0  0  0  0
 12 13  1  0  0  0  0
 12 22  1  0  0  0  0
 12 34  1  0  0  0  0
 13 14  1  0  0  0  0
 13 35  1  0  0  0  0
 14 15  1  0  0  0  0
 14 36  1  0  0  0  0
 15 21  1  0  0  0  0
 15 37  1  0  0  0  0
 16 17  1  0  0  0  0
 16 18  1  0  0  0  0
 16 38  1  0  0  0  0
 17 39  1  0  0  0  0
 18 19  1  0  0  0  0
 18 40  1  0  0  0  0
 19 20  1  0  0  0  0
 19 41  1  0  0  0  0
 20 23  1  0  0  0  0
 20 42  1  0  0  0  0
 21 43  1  0  0  0  0
 22 44  1  0  0  0  0
 22 45  1  0  0  0  0
 23 46  1  0  0  0  0
 23 47  1  0  0  0  0
 23 48  1  0  0  0  0
 24 25  2  0  0  0  0
 24 26  1  0  0  0  0
 25 27  1  0  0  0  0
 26 28  2  0  0  0  0
 26 55  1  0  0  0  0
 27 29  2  0  0  0  0
 27 56  1  0  0  0  0
 28 29  1  0  0  0  0
 28 57  1  0  0  0  0
 29 30  1  0  0  0  0
 30 32  1  0  0  0  0
 30 58  1  0  0  0  0
 30 59  1  0  0  0  0
 31 60  1  0  0  0  0
 31 61  1  0  0  0  0
 31 62  1  0  0  0  0
 32 33  2  0  0  0  0
 32 63  1  0  0  0  0
 33 64  1  0  0  0  0
 33 65  1  0  0  0  0
M  END
> <PUBCHEM_COMPOUND_CID>
15101911

> <PUBCHEM_CONFORMER_RMSD>
1

> <PUBCHEM_CONFORMER_DIVERSEORDER>
2
34
16
125
66
27
74
110
97
96
91
56
86
117
109
100
102
28
29
94
76
57
126
5
59
105
1
106
54
111
50
44
75
70
7
131
139
47
92
130
42
68
99
113
40
112
22
81
78
132
108
124
71
49
85
82
104
62
107
133
129
20
116
55
138
67
11
87
12
65
114
33
140
38
60
23
24
88
39
64
83
36
58
119
122
121
135
15
101
98
73
127
63
48
30
26
120
72
52
103
41
17
69
95
61
43
9
25
79
21
89
128
136
46
14
77
90
118
13
45
37
3
51
84
6
123
53
32
4
93
137
31
18
115
80
8
10
134
19
35

> <PUBCHEM_MMFF94_PARTIAL_CHARGES>
44
1 -0.56
10 -0.68
11 -0.36
12 0.28
13 0.28
14 0.28
15 0.28
16 0.28
17 0.56
18 0.28
19 0.28
2 -0.56
20 0.28
21 0.56
22 0.28
24 0.08
25 0.08
26 -0.15
27 -0.15
28 -0.15
29 -0.14
3 -0.56
30 0.28
31 0.28
32 -0.29
33 -0.3
4 -0.68
49 0.4
5 -0.68
50 0.4
51 0.4
52 0.4
53 0.4
54 0.4
55 0.15
56 0.15
57 0.15
6 -0.36
63 0.15
64 0.15
65 0.15
7 -0.68
8 -0.68
9 -0.68

> <PUBCHEM_EFFECTIVE_ROTOR_COUNT>
10.4

> <PUBCHEM_PHARMACOPHORE_FEATURES>
21
1 1 acceptor
1 10 acceptor
1 10 donor
1 11 acceptor
1 2 acceptor
1 3 acceptor
1 33 hydrophobe
1 4 acceptor
1 4 donor
1 5 acceptor
1 5 donor
1 6 acceptor
1 7 acceptor
1 7 donor
1 8 acceptor
1 8 donor
1 9 acceptor
1 9 donor
6 1 12 13 14 15 21 rings
6 2 16 17 18 19 20 rings
6 24 25 26 27 28 29 rings

> <PUBCHEM_HEAVY_ATOM_COUNT>
33

> <PUBCHEM_ATOM_DEF_STEREO_COUNT>
10

> <PUBCHEM_ATOM_UDEF_STEREO_COUNT>
0

> <PUBCHEM_BOND_DEF_STEREO_COUNT>
0

> <PUBCHEM_BOND_UDEF_STEREO_COUNT>
0

> <PUBCHEM_ISOTOPIC_ATOM_COUNT>
0

> <PUBCHEM_COMPONENT_COUNT>
1

> <PUBCHEM_CACTVS_TAUTO_COUNT>
1

> <PUBCHEM_CONFORMER_ID>
00E66FD700000002

> <PUBCHEM_MMFF94_ENERGY>
105.5087

> <PUBCHEM_FEATURE_SELFOVERLAP>
106.705

> <PUBCHEM_SHAPE_FINGERPRINT>
11578080 2 17771877499457343602
12156800 1 17828172451786446584
12788726 201 18117839898215656714
13122387 1 17902789657433739525
13383661 66 17551526444335326157
1361 2 16969139827012119815
14674994 50 18124601877224459904
17138139 8 17547536346160119037
19315092 285 17201341109035622549
19930381 70 17760364788170387215
20028762 73 16898198743639543790
20567600 299 18341613775620154442
20764821 26 18118406378500001605
20775438 99 17764538375459062919
21133410 90 17631442389827656545
21344244 181 17335063352244306110
21860390 5 18268439108165747214
22749437 52 17616250725064713433
23559900 14 18192989550699613751
238918 7 17981009163414903744
5171179 24 18272073990564771960

> <PUBCHEM_SHAPE_MULTIPOLES>
614.56
8.91
8.03
1.75
0.33
4.69
-0.86
-8.03
1.68
2.85
0.67
0.29
1.35
0.54

> <PUBCHEM_SHAPE_SELFOVERLAP>
1279.316

> <PUBCHEM_SHAPE_VOLUME>
345.4

> <PUBCHEM_COORDINATE_TYPE>
2
5
10

$$$$
