68626362
  -OEChem-08312004213D

 20 20  0     1  0  0  0  0  0999 V2000
   -3.8291    1.1030    0.6728 Br  0  0  0  0  0  0  0  0  0  0  0  0
    0.6546    1.0293   -0.0885 O   0  0  0  0  0  0  0  0  0  0  0  0
    0.7437   -1.6913    1.1327 O   0  0  0  0  0  0  0  0  0  0  0  0
   -1.9803   -1.4781   -0.4056 O   0  0  0  0  0  0  0  0  0  0  0  0
    2.8280    1.6429    0.3122 O   0  0  0  0  0  0  0  0  0  0  0  0
    0.0027   -0.1503   -0.5859 C   0  0  1  0  0  0  0  0  0  0  0  0
    0.9419   -1.2822   -0.2167 C   0  0  1  0  0  0  0  0  0  0  0  0
   -1.3927   -0.2431    0.0052 C   0  0  1  0  0  0  0  0  0  0  0  0
    2.3010   -0.6298   -0.3479 C   0  0  0  0  0  0  0  0  0  0  0  0
    1.9997    0.7987    0.0079 C   0  0  0  0  0  0  0  0  0  0  0  0
   -2.2697    0.9007   -0.4861 C   0  0  0  0  0  0  0  0  0  0  0  0
   -0.0515   -0.0612   -1.6794 H   0  0  0  0  0  0  0  0  0  0  0  0
    0.8196   -2.1595   -0.8587 H   0  0  0  0  0  0  0  0  0  0  0  0
   -1.3373   -0.2319    1.1005 H   0  0  0  0  0  0  0  0  0  0  0  0
    2.6665   -0.6574   -1.3785 H   0  0  0  0  0  0  0  0  0  0  0  0
    3.0372   -1.0431    0.3459 H   0  0  0  0  0  0  0  0  0  0  0  0
   -2.6640    0.7258   -1.4912 H   0  0  0  0  0  0  0  0  0  0  0  0
   -1.7663    1.8701   -0.4447 H   0  0  0  0  0  0  0  0  0  0  0  0
    1.3971   -2.3850    1.3260 H   0  0  0  0  0  0  0  0  0  0  0  0
   -2.8749   -1.5140   -0.0260 H   0  0  0  0  0  0  0  0  0  0  0  0
  1 11  1  0  0  0  0
  2  6  1  0  0  0  0
  2 10  1  0  0  0  0
  3  7  1  0  0  0  0
  3 19  1  0  0  0  0
  4  8  1  0  0  0  0
  4 20  1  0  0  0  0
  5 10  2  0  0  0  0
  6  7  1  0  0  0  0
  6  8  1  0  0  0  0
  6 12  1  0  0  0  0
  7  9  1  0  0  0  0
  7 13  1  0  0  0  0
  8 11  1  0  0  0  0
  8 14  1  0  0  0  0
  9 10  1  0  0  0  0
  9 15  1  0  0  0  0
  9 16  1  0  0  0  0
 11 17  1  0  0  0  0
 11 18  1  0  0  0  0
M  END
> <PUBCHEM_COMPOUND_CID>
68626362

> <PUBCHEM_CONFORMER_RMSD>
0.6

> <PUBCHEM_CONFORMER_DIVERSEORDER>
1
14
2
15
16
3
10
13
9
11
5
12
8
4
7
6

> <PUBCHEM_MMFF94_PARTIAL_CHARGES>
13
1 -0.23
10 0.66
11 0.23
19 0.4
2 -0.43
20 0.4
3 -0.68
4 -0.68
5 -0.57
6 0.28
7 0.28
8 0.28
9 0.06

> <PUBCHEM_EFFECTIVE_ROTOR_COUNT>
2.8

> <PUBCHEM_PHARMACOPHORE_FEATURES>
7
1 1 hydrophobe
1 3 acceptor
1 3 donor
1 4 acceptor
1 4 donor
1 5 acceptor
5 2 6 7 9 10 rings

> <PUBCHEM_HEAVY_ATOM_COUNT>
11

> <PUBCHEM_ATOM_DEF_STEREO_COUNT>
3

> <PUBCHEM_ATOM_UDEF_STEREO_COUNT>
0

> <PUBCHEM_BOND_DEF_STEREO_COUNT>
0

> <PUBCHEM_BOND_UDEF_STEREO_COUNT>
0

> <PUBCHEM_ISOTOPIC_ATOM_COUNT>
0

> <PUBCHEM_COMPONENT_COUNT>
1

> <PUBCHEM_CACTVS_TAUTO_COUNT>
2

> <PUBCHEM_CONFORMER_ID>
041727BA00000001

> <PUBCHEM_MMFF94_ENERGY>
15.1632

> <PUBCHEM_FEATURE_SELFOVERLAP>
35.522

> <PUBCHEM_SHAPE_FINGERPRINT>
10857977 72 16950857929196228653
12932764 1 18187644648661898375
13380535 21 18411429414014726927
14325111 11 18340485663736439804
14390081 3 18342736338405908493
14897335 6 18342170077222495629
15775835 57 18412831299861718321
16945 1 18267015068444620214
170605 34 18413111653920380609
20653085 51 18200606911347995756
20715346 28 17749952150930552757
20871998 22 17765153860899027638
21040471 1 18262800808248279526
21501502 16 18412539942096590495
23402655 69 18200867384393870677
2748010 2 18410294743679190438
5084963 1 18338796852646783148

> <PUBCHEM_SHAPE_MULTIPOLES>
208.84
5.07
1.69
0.83
4.06
0.08
0.11
-2.16
0.73
-0.59
0.21
0.14
0.12
-0.15

> <PUBCHEM_SHAPE_SELFOVERLAP>
405.297

> <PUBCHEM_SHAPE_VOLUME>
130

> <PUBCHEM_COORDINATE_TYPE>
2
5
10

$$$$
