21630902
  -OEChem-08312004193D

 78 80  0     1  0  0  0  0  0999 V2000
   -4.5725    1.6061    0.3252 O   0  0  0  0  0  0  0  0  0  0  0  0
   -7.1980   -1.9614    1.1304 O   0  0  0  0  0  0  0  0  0  0  0  0
   -0.0500    3.1638   -0.1657 O   0  0  0  0  0  0  0  0  0  0  0  0
    1.7647    1.7549    0.2414 O   0  0  0  0  0  0  0  0  0  0  0  0
    2.6472   -0.8315   -0.0557 O   0  0  0  0  0  0  0  0  0  0  0  0
    4.2167   -2.5857    0.1959 O   0  0  0  0  0  0  0  0  0  0  0  0
    5.3669    2.3613    0.5066 O   0  0  0  0  0  0  0  0  0  0  0  0
    1.7321    5.3458   -0.4326 O   0  0  0  0  0  0  0  0  0  0  0  0
    4.2077    4.9392    1.1122 O   0  0  0  0  0  0  0  0  0  0  0  0
    2.7028   -4.9865    1.0110 O   0  0  0  0  0  0  0  0  0  0  0  0
    0.6871   -3.2352    0.2130 O   0  0  0  0  0  0  0  0  0  0  0  0
    3.2879   -6.5381   -1.2415 O   0  0  0  0  0  0  0  0  0  0  0  0
   -3.6878   -0.4887    1.1856 C   0  0  0  0  0  0  0  0  0  0  0  0
   -3.8662    0.4229   -0.0891 C   0  0  1  0  0  0  0  0  0  0  0  0
   -4.7235   -0.2828   -1.1884 C   0  0  1  0  0  0  0  0  0  0  0  0
   -5.0781   -0.9594    1.6872 C   0  0  0  0  0  0  0  0  0  0  0  0
   -6.0747   -0.7556   -0.6247 C   0  0  0  0  0  0  0  0  0  0  0  0
   -5.9117   -1.6421    0.6047 C   0  0  2  0  0  0  0  0  0  0  0  0
   -2.8017   -1.7260    0.9032 C   0  0  0  0  0  0  0  0  0  0  0  0
   -3.0236    0.2906    2.3486 C   0  0  0  0  0  0  0  0  0  0  0  0
   -2.5369    0.8654   -0.6471 C   0  0  0  0  0  0  0  0  0  0  0  0
   -4.9945    0.5968   -2.4205 C   0  0  0  0  0  0  0  0  0  0  0  0
   -2.1242    2.1412   -0.6705 C   0  0  0  0  0  0  0  0  0  0  0  0
   -0.8005    2.5773   -1.2258 C   0  0  1  0  0  0  0  0  0  0  0  0
    3.1589    1.4991    0.0624 C   0  0  1  0  0  0  0  0  0  0  0  0
    1.3524    2.9811   -0.3577 C   0  0  2  0  0  0  0  0  0  0  0  0
    3.9825    2.5820    0.7635 C   0  0  2  0  0  0  0  0  0  0  0  0
    2.0740    4.1631    0.2897 C   0  0  1  0  0  0  0  0  0  0  0  0
    3.5906    3.9719    0.2615 C   0  0  1  0  0  0  0  0  0  0  0  0
    2.7825   -4.4051   -0.2908 C   0  0  1  0  0  0  0  0  0  0  0  0
    1.9795   -3.1192   -0.3494 C   0  0  2  0  0  0  0  0  0  0  0  0
    2.8648   -2.1510    0.4218 C   0  0  2  0  0  0  0  0  0  0  0  0
    3.4487    0.1132    0.6299 C   0  0  0  0  0  0  0  0  0  0  0  0
    4.1908   -3.8626   -0.4741 C   0  0  0  0  0  0  0  0  0  0  0  0
   -0.9794    3.6026   -2.3379 C   0  0  0  0  0  0  0  0  0  0  0  0
    2.3855   -5.4472   -1.3223 C   0  0  0  0  0  0  0  0  0  0  0  0
   -4.1817   -1.1665   -1.5499 H   0  0  0  0  0  0  0  0  0  0  0  0
   -4.9619   -1.6551    2.5299 H   0  0  0  0  0  0  0  0  0  0  0  0
   -5.6458   -0.1194    2.1092 H   0  0  0  0  0  0  0  0  0  0  0  0
   -6.6193   -1.3218   -1.3923 H   0  0  0  0  0  0  0  0  0  0  0  0
   -6.7279    0.0954   -0.3932 H   0  0  0  0  0  0  0  0  0  0  0  0
   -5.4479   -2.5909    0.3152 H   0  0  0  0  0  0  0  0  0  0  0  0
   -1.7644   -1.4422    0.6958 H   0  0  0  0  0  0  0  0  0  0  0  0
   -2.7773   -2.3928    1.7734 H   0  0  0  0  0  0  0  0  0  0  0  0
   -3.1587   -2.3164    0.0553 H   0  0  0  0  0  0  0  0  0  0  0  0
   -2.9330   -0.3414    3.2401 H   0  0  0  0  0  0  0  0  0  0  0  0
   -2.0146    0.6269    2.0875 H   0  0  0  0  0  0  0  0  0  0  0  0
   -3.6079    1.1716    2.6349 H   0  0  0  0  0  0  0  0  0  0  0  0
   -1.8937    0.0982   -1.0713 H   0  0  0  0  0  0  0  0  0  0  0  0
   -4.0640    0.8797   -2.9222 H   0  0  0  0  0  0  0  0  0  0  0  0
   -5.6046    0.0564   -3.1528 H   0  0  0  0  0  0  0  0  0  0  0  0
   -5.5298    1.5134   -2.1512 H   0  0  0  0  0  0  0  0  0  0  0  0
   -5.4502    1.3672    0.6595 H   0  0  0  0  0  0  0  0  0  0  0  0
   -2.7400    2.9359   -0.2585 H   0  0  0  0  0  0  0  0  0  0  0  0
   -7.6301   -1.1303    1.3917 H   0  0  0  0  0  0  0  0  0  0  0  0
   -0.2736    1.7004   -1.6263 H   0  0  0  0  0  0  0  0  0  0  0  0
    3.3739    1.4753   -1.0147 H   0  0  0  0  0  0  0  0  0  0  0  0
    1.5888    2.9586   -1.4305 H   0  0  0  0  0  0  0  0  0  0  0  0
    3.8389    2.5336    1.8499 H   0  0  0  0  0  0  0  0  0  0  0  0
    1.7287    4.3096    1.3200 H   0  0  0  0  0  0  0  0  0  0  0  0
    3.9906    4.1450   -0.7451 H   0  0  0  0  0  0  0  0  0  0  0  0
    1.8642   -2.7732   -1.3849 H   0  0  0  0  0  0  0  0  0  0  0  0
    2.6524   -2.1918    1.4978 H   0  0  0  0  0  0  0  0  0  0  0  0
    4.5099   -0.1293    0.5075 H   0  0  0  0  0  0  0  0  0  0  0  0
    3.1940    0.0848    1.6964 H   0  0  0  0  0  0  0  0  0  0  0  0
    4.4341   -3.6820   -1.5268 H   0  0  0  0  0  0  0  0  0  0  0  0
    4.9625   -4.4974   -0.0282 H   0  0  0  0  0  0  0  0  0  0  0  0
   -1.5972    3.2060   -3.1504 H   0  0  0  0  0  0  0  0  0  0  0  0
   -0.0148    3.9028   -2.7599 H   0  0  0  0  0  0  0  0  0  0  0  0
   -1.4495    4.5176   -1.9588 H   0  0  0  0  0  0  0  0  0  0  0  0
    2.4180   -5.0407   -2.3384 H   0  0  0  0  0  0  0  0  0  0  0  0
    1.3794   -5.8313   -1.1245 H   0  0  0  0  0  0  0  0  0  0  0  0
    5.5024    2.3908   -0.4559 H   0  0  0  0  0  0  0  0  0  0  0  0
    2.0316    5.2356   -1.3512 H   0  0  0  0  0  0  0  0  0  0  0  0
    3.9299    5.8178    0.8012 H   0  0  0  0  0  0  0  0  0  0  0  0
    1.7711   -5.2109    1.1763 H   0  0  0  0  0  0  0  0  0  0  0  0
    0.2012   -3.9022   -0.3007 H   0  0  0  0  0  0  0  0  0  0  0  0
    3.0111   -7.1888   -1.9089 H   0  0  0  0  0  0  0  0  0  0  0  0
  1 14  1  0  0  0  0
  1 53  1  0  0  0  0
  2 18  1  0  0  0  0
  2 55  1  0  0  0  0
  3 24  1  0  0  0  0
  3 26  1  0  0  0  0
  4 25  1  0  0  0  0
  4 26  1  0  0  0  0
  5 32  1  0  0  0  0
  5 33  1  0  0  0  0
  6 32  1  0  0  0  0
  6 34  1  0  0  0  0
  7 27  1  0  0  0  0
  7 73  1  0  0  0  0
  8 28  1  0  0  0  0
  8 74  1  0  0  0  0
  9 29  1  0  0  0  0
  9 75  1  0  0  0  0
 10 30  1  0  0  0  0
 10 76  1  0  0  0  0
 11 31  1  0  0  0  0
 11 77  1  0  0  0  0
 12 36  1  0  0  0  0
 12 78  1  0  0  0  0
 13 14  1  0  0  0  0
 13 16  1  0  0  0  0
 13 19  1  0  0  0  0
 13 20  1  0  0  0  0
 14 15  1  0  0  0  0
 14 21  1  0  0  0  0
 15 17  1  0  0  0  0
 15 22  1  0  0  0  0
 15 37  1  0  0  0  0
 16 18  1  0  0  0  0
 16 38  1  0  0  0  0
 16 39  1  0  0  0  0
 17 18  1  0  0  0  0
 17 40  1  0  0  0  0
 17 41  1  0  0  0  0
 18 42  1  0  0  0  0
 19 43  1  0  0  0  0
 19 44  1  0  0  0  0
 19 45  1  0  0  0  0
 20 46  1  0  0  0  0
 20 47  1  0  0  0  0
 20 48  1  0  0  0  0
 21 23  2  0  0  0  0
 21 49  1  0  0  0  0
 22 50  1  0  0  0  0
 22 51  1  0  0  0  0
 22 52  1  0  0  0  0
 23 24  1  0  0  0  0
 23 54  1  0  0  0  0
 24 35  1  0  0  0  0
 24 56  1  0  0  0  0
 25 27  1  0  0  0  0
 25 33  1  0  0  0  0
 25 57  1  0  0  0  0
 26 28  1  0  0  0  0
 26 58  1  0  0  0  0
 27 29  1  0  0  0  0
 27 59  1  0  0  0  0
 28 29  1  0  0  0  0
 28 60  1  0  0  0  0
 29 61  1  0  0  0  0
 30 31  1  0  0  0  0
 30 34  1  0  0  0  0
 30 36  1  0  0  0  0
 31 32  1  0  0  0  0
 31 62  1  0  0  0  0
 32 63  1  0  0  0  0
 33 64  1  0  0  0  0
 33 65  1  0  0  0  0
 34 66  1  0  0  0  0
 34 67  1  0  0  0  0
 35 68  1  0  0  0  0
 35 69  1  0  0  0  0
 35 70  1  0  0  0  0
 36 71  1  0  0  0  0
 36 72  1  0  0  0  0
M  END
> <PUBCHEM_COMPOUND_CID>
21630902

> <PUBCHEM_CONFORMER_RMSD>
1.4

> <PUBCHEM_CONFORMER_DIVERSEORDER>
1
25
87
141
135
53
142
166
127
83
201
44
157
160
21
117
182
174
203
24
134
150
98
20
153
143
118
128
176
86
199
187
103
60
40
105
151
101
96
189
167
136
7
137
139
10
77
164
179
13
145
8
27
129
126
192
169
196
198
89
159
42
121
94
146
75
90
35
162
39
156
147
57
202
18
115
91
58
68
65
130
66
112
32
84
181
67
120
69
163
204
99
63
34
97
148
125
6
114
195
107
197
155
102
178
161
31
37
140
4
50
185
38
152
22
138
85
55
173
14
80
108
106
122
193
124
2
29
132
92
171
165
33
111
46
190
76
64
59
11
12
5
100
3
70
186
104
183
78
17
82
113
49
149
79
16
47
116
43
45
71
200
131
109
154
88
93
184
144
74
180
133
191
119
26
168
194
170
81
19
56
48
61
188
110
54
175
95
30
23
52
158
36
123
9
172
41
51
62
15
28
73
72
177

> <PUBCHEM_MMFF94_PARTIAL_CHARGES>
38
1 -0.68
10 -0.68
11 -0.68
12 -0.68
14 0.42
18 0.28
2 -0.68
21 -0.29
23 -0.29
24 0.42
25 0.28
26 0.56
27 0.28
28 0.28
29 0.28
3 -0.56
30 0.28
31 0.28
32 0.56
33 0.28
34 0.28
36 0.28
4 -0.56
49 0.15
5 -0.56
53 0.4
54 0.15
55 0.4
6 -0.56
7 -0.68
73 0.4
74 0.4
75 0.4
76 0.4
77 0.4
78 0.4
8 -0.68
9 -0.68

> <PUBCHEM_EFFECTIVE_ROTOR_COUNT>
11.4

> <PUBCHEM_PHARMACOPHORE_FEATURES>
24
1 1 acceptor
1 1 donor
1 10 acceptor
1 10 donor
1 11 acceptor
1 11 donor
1 12 acceptor
1 12 donor
1 2 acceptor
1 2 donor
1 3 acceptor
1 4 acceptor
1 5 acceptor
1 6 acceptor
1 7 acceptor
1 7 donor
1 8 acceptor
1 8 donor
1 9 acceptor
1 9 donor
3 13 19 20 hydrophobe
5 6 30 31 32 34 rings
6 13 14 15 16 17 18 rings
6 4 25 26 27 28 29 rings

> <PUBCHEM_HEAVY_ATOM_COUNT>
36

> <PUBCHEM_ATOM_DEF_STEREO_COUNT>
12

> <PUBCHEM_ATOM_UDEF_STEREO_COUNT>
0

> <PUBCHEM_BOND_DEF_STEREO_COUNT>
1

> <PUBCHEM_BOND_UDEF_STEREO_COUNT>
0

> <PUBCHEM_ISOTOPIC_ATOM_COUNT>
0

> <PUBCHEM_COMPONENT_COUNT>
1

> <PUBCHEM_CACTVS_TAUTO_COUNT>
1

> <PUBCHEM_CONFORMER_ID>
014A0FB600000001

> <PUBCHEM_MMFF94_ENERGY>
109.4873

> <PUBCHEM_FEATURE_SELFOVERLAP>
121.937

> <PUBCHEM_SHAPE_FINGERPRINT>
11227688 84 18197490724092053196
12107183 9 17983866575519741145
12202916 173 17896586465763153329
12786520 15 17767717986602423787
12788726 201 17110720064563703514
13347071 3 16970550499802854518
13402501 40 18041273387116861169
1361 2 18265614471182958033
14028597 1 17701840962673873841
14068700 686 18260820531730572260
14659021 117 17329134777263026810
15351339 4 16316949579400168221
15400415 2 18050848020614349721
15419008 42 17970881476291908493
15483637 11 17185591863362000488
15968369 26 18190723281594756908
16067690 210 15984834786516983345
16991981 162 17255686296235834723
17909252 39 18338240341355955210
19315092 285 17917135174571979597
19319366 153 18058165205507232352
19611394 137 17618485603457249018
1979834 28 18262521536342398065
20775530 9 18045787784296937548
21133410 32 16520801483743230066
21133410 38 18056198218461902927
21344244 181 18268728254613541852
22440779 20 16884182336902103721
23559900 14 18264478508489506913
23572383 38 18040989674773029105
3044373 233 18263092041285562107
395649 100 17042047859167490574
4017518 198 18122349244519454924
404807 14 18051136896077492427
437795 96 18261107538714116035
4403749 210 17688297306548980208
4435113 14 18040715857717784533
4461854 278 18047484601215917514
463206 1 17689152314488687940
49967989 163 17043743310149668054
5309563 4 18338801096011466822
54324442 115 17402327075447506031
613672 6 17977642239830130666
86090 222 18265629834460453580
9777508 108 17332517381683856096

> <PUBCHEM_SHAPE_MULTIPOLES>
670.43
13.57
9.15
1.63
16.5
5.97
-0.27
5.24
2.28
-18.58
-2.32
2.14
-0.19
3.63

> <PUBCHEM_SHAPE_SELFOVERLAP>
1378.499

> <PUBCHEM_SHAPE_VOLUME>
384.7

> <PUBCHEM_COORDINATE_TYPE>
2
5
10

$$$$
