57124935
  -OEChem-09302012423D

 37 39  0     1  0  0  0  0  0999 V2000
   -0.3668   -0.5387   -2.2174 O   0  0  0  0  0  0  0  0  0  0  0  0
    0.6080    0.9425   -0.4980 C   0  0  2  0  0  0  0  0  0  0  0  0
    0.0338   -0.4880   -0.8396 C   0  0  1  0  0  0  0  0  0  0  0  0
   -1.2210   -0.7804    0.1222 C   0  0  0  0  0  0  0  0  0  0  0  0
   -1.3850    0.4253    1.1203 C   0  0  1  0  0  0  0  0  0  0  0  0
    1.1071    0.8596    0.9817 C   0  0  1  0  0  0  0  0  0  0  0  0
   -0.0933    0.6604    1.9318 C   0  0  0  0  0  0  0  0  0  0  0  0
   -0.5150    2.0094   -0.6082 C   0  0  0  0  0  0  0  0  0  0  0  0
   -1.6575    1.7309    0.3623 C   0  0  0  0  0  0  0  0  0  0  0  0
    1.1833   -1.5366   -0.7585 C   0  0  0  0  0  0  0  0  0  0  0  0
    1.7376    1.3845   -1.4555 C   0  0  0  0  0  0  0  0  0  0  0  0
   -1.1024   -2.0843    0.9537 C   0  0  0  0  0  0  0  0  0  0  0  0
   -2.5348   -0.9625   -0.6870 C   0  0  0  0  0  0  0  0  0  0  0  0
    2.0869   -0.2704    1.1913 C   0  0  0  0  0  0  0  0  0  0  0  0
    2.1191   -1.3519    0.4010 C   0  0  0  0  0  0  0  0  0  0  0  0
   -2.2153    0.2384    1.8125 H   0  0  0  0  0  0  0  0  0  0  0  0
    1.6181    1.7960    1.2416 H   0  0  0  0  0  0  0  0  0  0  0  0
   -0.2117    1.5614    2.5488 H   0  0  0  0  0  0  0  0  0  0  0  0
    0.0677   -0.1552    2.6465 H   0  0  0  0  0  0  0  0  0  0  0  0
   -0.9083    2.0446   -1.6319 H   0  0  0  0  0  0  0  0  0  0  0  0
   -0.1103    3.0090   -0.4029 H   0  0  0  0  0  0  0  0  0  0  0  0
   -1.7486    2.5645    1.0705 H   0  0  0  0  0  0  0  0  0  0  0  0
   -2.6138    1.6991   -0.1697 H   0  0  0  0  0  0  0  0  0  0  0  0
    1.7884   -1.4918   -1.6750 H   0  0  0  0  0  0  0  0  0  0  0  0
    0.7830   -2.5557   -0.7585 H   0  0  0  0  0  0  0  0  0  0  0  0
    2.6012    0.7144   -1.4420 H   0  0  0  0  0  0  0  0  0  0  0  0
    2.1056    2.3809   -1.1839 H   0  0  0  0  0  0  0  0  0  0  0  0
    1.3799    1.4386   -2.4897 H   0  0  0  0  0  0  0  0  0  0  0  0
   -0.2138   -2.1162    1.5868 H   0  0  0  0  0  0  0  0  0  0  0  0
   -3.4018   -1.0274   -0.0191 H   0  0  0  0  0  0  0  0  0  0  0  0
   -2.7173   -0.1359   -1.3804 H   0  0  0  0  0  0  0  0  0  0  0  0
   -1.9652   -2.1949    1.6223 H   0  0  0  0  0  0  0  0  0  0  0  0
   -2.5105   -1.8838   -1.2805 H   0  0  0  0  0  0  0  0  0  0  0  0
   -1.0892   -2.9705    0.3098 H   0  0  0  0  0  0  0  0  0  0  0  0
    2.7755   -0.1991    2.0282 H   0  0  0  0  0  0  0  0  0  0  0  0
    2.8476   -2.1334    0.5940 H   0  0  0  0  0  0  0  0  0  0  0  0
   -0.6008   -1.4582   -2.4303 H   0  0  0  0  0  0  0  0  0  0  0  0
  1  3  1  0  0  0  0
  1 37  1  0  0  0  0
  2  3  1  0  0  0  0
  2  6  1  0  0  0  0
  2  8  1  0  0  0  0
  2 11  1  0  0  0  0
  3  4  1  0  0  0  0
  3 10  1  0  0  0  0
  4  5  1  0  0  0  0
  4 12  1  0  0  0  0
  4 13  1  0  0  0  0
  5  7  1  0  0  0  0
  5  9  1  0  0  0  0
  5 16  1  0  0  0  0
  6  7  1  0  0  0  0
  6 14  1  0  0  0  0
  6 17  1  0  0  0  0
  7 18  1  0  0  0  0
  7 19  1  0  0  0  0
  8  9  1  0  0  0  0
  8 20  1  0  0  0  0
  8 21  1  0  0  0  0
  9 22  1  0  0  0  0
  9 23  1  0  0  0  0
 10 15  1  0  0  0  0
 10 24  1  0  0  0  0
 10 25  1  0  0  0  0
 11 26  1  0  0  0  0
 11 27  1  0  0  0  0
 11 28  1  0  0  0  0
 12 29  1  0  0  0  0
 12 32  1  0  0  0  0
 12 34  1  0  0  0  0
 13 30  1  0  0  0  0
 13 31  1  0  0  0  0
 13 33  1  0  0  0  0
 14 15  2  0  0  0  0
 14 35  1  0  0  0  0
 15 36  1  0  0  0  0
M  END
> <PUBCHEM_COMPOUND_CID>
57124935

> <PUBCHEM_CONFORMER_RMSD>
0.4

> <PUBCHEM_CONFORMER_DIVERSEORDER>
1
2

> <PUBCHEM_MMFF94_PARTIAL_CHARGES>
9
1 -0.68
10 0.14
14 -0.29
15 -0.29
3 0.28
35 0.15
36 0.15
37 0.4
6 0.14

> <PUBCHEM_EFFECTIVE_ROTOR_COUNT>
1

> <PUBCHEM_PHARMACOPHORE_FEATURES>
5
1 1 acceptor
1 1 donor
3 4 12 13 hydrophobe
6 2 3 6 10 14 15 rings
8 2 3 4 5 6 7 8 9 rings

> <PUBCHEM_HEAVY_ATOM_COUNT>
15

> <PUBCHEM_ATOM_DEF_STEREO_COUNT>
1

> <PUBCHEM_ATOM_UDEF_STEREO_COUNT>
3

> <PUBCHEM_BOND_DEF_STEREO_COUNT>
0

> <PUBCHEM_BOND_UDEF_STEREO_COUNT>
0

> <PUBCHEM_ISOTOPIC_ATOM_COUNT>
0

> <PUBCHEM_COMPONENT_COUNT>
1

> <PUBCHEM_CACTVS_TAUTO_COUNT>
1

> <PUBCHEM_CONFORMER_ID>
0367A84700000001

> <PUBCHEM_MMFF94_ENERGY>
69.2677

> <PUBCHEM_FEATURE_SELFOVERLAP>
25.675

> <PUBCHEM_SHAPE_FINGERPRINT>
10863032 1 18338783533795007625
10948715 1 17200209461935218664
12423570 1 11918554454263403755
13024252 1 15215284197518425850
137420 1 17679617529840826256
141345 1 15949329614546092304
144361 1 17843153430489497725
14817 1 9222074102043669064
15557651 10 17415297288096800496
16945 1 17768518405012732936
21922407 69 18042423480410471032
22344851 12 8881538188421998600
23419403 2 17333022907464976560
241688 4 18265890263780805395
2748010 2 16965772542080570717
5084963 1 18054802684232711993
528886 8 17907329836822433045
54276843 12 18046030943648756970

> <PUBCHEM_SHAPE_MULTIPOLES>
302.82
2.58
2.09
1.73
0.01
0.05
0.1
-0.53
-0.04
0.23
0.13
-0.16
0.1
-0.32

> <PUBCHEM_SHAPE_SELFOVERLAP>
651.26

> <PUBCHEM_SHAPE_VOLUME>
164

> <PUBCHEM_COORDINATE_TYPE>
2
5
10

$$$$
