6432176
  -OEChem-09302009473D

 39 41  0     1  0  0  0  0  0999 V2000
    1.0339    0.5566   -0.7626 C   0  0  1  0  0  0  0  0  0  0  0  0
    1.8847    0.6586    0.4774 C   0  0  0  0  0  0  0  0  0  0  0  0
    2.1270   -0.4597   -0.5031 C   0  0  1  0  0  0  0  0  0  0  0  0
   -0.4405    0.1403   -0.7119 C   0  0  1  0  0  0  0  0  0  0  0  0
    1.8034   -1.8616   -0.0800 C   0  0  0  0  0  0  0  0  0  0  0  0
   -0.6233   -1.2608   -0.1059 C   0  0  0  0  0  0  0  0  0  0  0  0
   -1.2477    1.2060    0.1206 C   0  0  2  0  0  0  0  0  0  0  0  0
    0.4043   -2.2926   -0.5085 C   0  0  0  0  0  0  0  0  0  0  0  0
    1.3602    0.3359    1.8369 C   0  0  0  0  0  0  0  0  0  0  0  0
    2.8934    1.7599    0.5050 C   0  0  0  0  0  0  0  0  0  0  0  0
   -0.9549    0.0667   -2.1744 C   0  0  0  0  0  0  0  0  0  0  0  0
   -2.6681    0.7126    0.4424 C   0  0  0  0  0  0  0  0  0  0  0  0
   -1.6048   -1.5621    0.7618 C   0  0  0  0  0  0  0  0  0  0  0  0
   -2.6437   -0.5937    1.2306 C   0  0  0  0  0  0  0  0  0  0  0  0
   -1.3240    2.5939   -0.5284 C   0  0  0  0  0  0  0  0  0  0  0  0
    1.2220    1.2886   -1.5429 H   0  0  0  0  0  0  0  0  0  0  0  0
    3.0087   -0.4162   -1.1317 H   0  0  0  0  0  0  0  0  0  0  0  0
    1.9410   -2.0091    0.9966 H   0  0  0  0  0  0  0  0  0  0  0  0
    2.5257   -2.5399   -0.5521 H   0  0  0  0  0  0  0  0  0  0  0  0
   -0.7636    1.3693    1.0857 H   0  0  0  0  0  0  0  0  0  0  0  0
    0.1830   -3.2735   -0.0708 H   0  0  0  0  0  0  0  0  0  0  0  0
    0.3735   -2.4323   -1.5952 H   0  0  0  0  0  0  0  0  0  0  0  0
    2.1803   -0.0440    2.4592 H   0  0  0  0  0  0  0  0  0  0  0  0
    0.9995    1.2437    2.3342 H   0  0  0  0  0  0  0  0  0  0  0  0
    0.5675   -0.4038    1.9010 H   0  0  0  0  0  0  0  0  0  0  0  0
    3.3090    1.9717   -0.4867 H   0  0  0  0  0  0  0  0  0  0  0  0
    2.4410    2.6861    0.8756 H   0  0  0  0  0  0  0  0  0  0  0  0
    3.7307    1.5018    1.1625 H   0  0  0  0  0  0  0  0  0  0  0  0
   -2.0027   -0.2471   -2.2282 H   0  0  0  0  0  0  0  0  0  0  0  0
   -0.8643    1.0302   -2.6872 H   0  0  0  0  0  0  0  0  0  0  0  0
   -0.3693   -0.6427   -2.7711 H   0  0  0  0  0  0  0  0  0  0  0  0
   -3.2397    0.5726   -0.4832 H   0  0  0  0  0  0  0  0  0  0  0  0
   -3.2120    1.4671    1.0245 H   0  0  0  0  0  0  0  0  0  0  0  0
   -1.6633   -2.5643    1.1787 H   0  0  0  0  0  0  0  0  0  0  0  0
   -3.6322   -1.0637    1.1750 H   0  0  0  0  0  0  0  0  0  0  0  0
   -2.4537   -0.3776    2.2890 H   0  0  0  0  0  0  0  0  0  0  0  0
   -1.7871    3.3093    0.1607 H   0  0  0  0  0  0  0  0  0  0  0  0
   -0.3298    2.9783   -0.7738 H   0  0  0  0  0  0  0  0  0  0  0  0
   -1.9298    2.5868   -1.4397 H   0  0  0  0  0  0  0  0  0  0  0  0
  1  2  1  0  0  0  0
  1  3  1  0  0  0  0
  1  4  1  0  0  0  0
  1 16  1  0  0  0  0
  2  3  1  0  0  0  0
  2  9  1  0  0  0  0
  2 10  1  0  0  0  0
  3  5  1  0  0  0  0
  3 17  1  0  0  0  0
  4  6  1  0  0  0  0
  4  7  1  0  0  0  0
  4 11  1  0  0  0  0
  5  8  1  0  0  0  0
  5 18  1  0  0  0  0
  5 19  1  0  0  0  0
  6  8  1  0  0  0  0
  6 13  2  0  0  0  0
  7 12  1  0  0  0  0
  7 15  1  0  0  0  0
  7 20  1  0  0  0  0
  8 21  1  0  0  0  0
  8 22  1  0  0  0  0
  9 23  1  0  0  0  0
  9 24  1  0  0  0  0
  9 25  1  0  0  0  0
 10 26  1  0  0  0  0
 10 27  1  0  0  0  0
 10 28  1  0  0  0  0
 11 29  1  0  0  0  0
 11 30  1  0  0  0  0
 11 31  1  0  0  0  0
 12 14  1  0  0  0  0
 12 32  1  0  0  0  0
 12 33  1  0  0  0  0
 13 14  1  0  0  0  0
 13 34  1  0  0  0  0
 14 35  1  0  0  0  0
 14 36  1  0  0  0  0
 15 37  1  0  0  0  0
 15 38  1  0  0  0  0
 15 39  1  0  0  0  0
M  END
> <PUBCHEM_COMPOUND_CID>
6432176

> <PUBCHEM_CONFORMER_RMSD>
0.6

> <PUBCHEM_CONFORMER_DIVERSEORDER>
1
2
3
5
6
4

> <PUBCHEM_MMFF94_PARTIAL_CHARGES>
14
1 -0.19
10 0.09
13 -0.29
14 0.14
16 0.1
17 0.1
2 -0.19
3 -0.19
34 0.15
4 0.23
5 0.09
6 -0.28
8 0.14
9 0.09

> <PUBCHEM_EFFECTIVE_ROTOR_COUNT>
1.2

> <PUBCHEM_PHARMACOPHORE_FEATURES>
3
3 2 9 10 hydrophobe
6 4 6 7 12 13 14 rings
7 1 2 3 4 5 6 8 rings

> <PUBCHEM_HEAVY_ATOM_COUNT>
15

> <PUBCHEM_ATOM_DEF_STEREO_COUNT>
2

> <PUBCHEM_ATOM_UDEF_STEREO_COUNT>
2

> <PUBCHEM_BOND_DEF_STEREO_COUNT>
0

> <PUBCHEM_BOND_UDEF_STEREO_COUNT>
0

> <PUBCHEM_ISOTOPIC_ATOM_COUNT>
0

> <PUBCHEM_COMPONENT_COUNT>
1

> <PUBCHEM_CACTVS_TAUTO_COUNT>
1

> <PUBCHEM_CONFORMER_ID>
006225B000000001

> <PUBCHEM_MMFF94_ENERGY>
41.2185

> <PUBCHEM_FEATURE_SELFOVERLAP>
15.24

> <PUBCHEM_SHAPE_FINGERPRINT>
10863032 1 18270976720419002171
11680611 10 17313671434217844729
12382932 28 18262804102166461825
12423570 1 10789530345228321854
12808571 1 16415213281434451707
13024252 1 14925598243769714084
14648413 74 18193557770477492120
14817 1 11472884179338849939
15076042 46 18260818272408001280
15557651 10 17703798053898859608
15775835 57 17703790335932331953
15852999 172 17679831908796137207
15881359 60 18042943515314596823
16945 1 18269283356601006839
19010151 120 16445025551284213299
20082192 1 17530962441131887372
20511035 2 18196650683621877532
21501502 16 18264780848000740051
22344851 12 17487925434190793660
23388829 49 17837495515747475543
23419403 2 12703318822773664022
23526113 38 17545310887322246326
2748010 2 18338250348149791383
430814 3 17203338843889604258
5084963 1 18130503020528609393
53812653 166 17541948585423523113
568465 68 18198904699839556954
81228 2 17550369079408532130

> <PUBCHEM_SHAPE_MULTIPOLES>
308.69
3.57
2.35
1.47
0.2
0.06
-0.18
0.85
1.11
0.08
-0.16
-0.24
0.05
0.64

> <PUBCHEM_SHAPE_SELFOVERLAP>
649.659

> <PUBCHEM_SHAPE_VOLUME>
175.3

> <PUBCHEM_COORDINATE_TYPE>
2
5
10

$$$$
