519743
  -OEChem-09302001033D

 39 41  0     1  0  0  0  0  0999 V2000
    0.0290    0.2435    1.0760 C   0  0  2  0  0  0  0  0  0  0  0  0
    0.5302   -1.0036    0.2549 C   0  0  2  0  0  0  0  0  0  0  0  0
   -0.9151    1.0467    0.1009 C   0  0  1  0  0  0  0  0  0  0  0  0
    1.3528    1.0849   -1.0278 C   0  0  2  0  0  0  0  0  0  0  0  0
   -0.0297    1.7529   -0.9687 C   0  0  0  0  0  0  0  0  0  0  0  0
    1.2345    1.1671    1.4583 C   0  0  0  0  0  0  0  0  0  0  0  0
   -1.9791    0.1822   -0.6464 C   0  0  1  0  0  0  0  0  0  0  0  0
    1.1921   -0.4316   -1.0266 C   0  0  0  0  0  0  0  0  0  0  0  0
   -0.6636   -1.9493   -0.0745 C   0  0  0  0  0  0  0  0  0  0  0  0
    2.1100    1.4764    0.2425 C   0  0  0  0  0  0  0  0  0  0  0  0
   -2.0321   -1.2831   -0.2280 C   0  0  0  0  0  0  0  0  0  0  0  0
   -0.6749   -0.0968    2.4052 C   0  0  0  0  0  0  0  0  0  0  0  0
    1.5856   -1.8374    1.0183 C   0  0  0  0  0  0  0  0  0  0  0  0
   -3.3672    0.8196   -0.5249 C   0  0  0  0  0  0  0  0  0  0  0  0
    1.6275   -1.1714   -2.0592 C   0  0  0  0  0  0  0  0  0  0  0  0
   -1.4240    1.8345    0.6727 H   0  0  0  0  0  0  0  0  0  0  0  0
    1.9058    1.4379   -1.9056 H   0  0  0  0  0  0  0  0  0  0  0  0
    0.0854    2.8111   -0.6970 H   0  0  0  0  0  0  0  0  0  0  0  0
   -0.4938    1.7608   -1.9615 H   0  0  0  0  0  0  0  0  0  0  0  0
    1.8523    0.7183    2.2456 H   0  0  0  0  0  0  0  0  0  0  0  0
    0.8539    2.1086    1.8769 H   0  0  0  0  0  0  0  0  0  0  0  0
   -1.7512    0.1655   -1.7203 H   0  0  0  0  0  0  0  0  0  0  0  0
   -0.7666   -2.7051    0.7165 H   0  0  0  0  0  0  0  0  0  0  0  0
   -0.4579   -2.5296   -0.9819 H   0  0  0  0  0  0  0  0  0  0  0  0
    2.3627    2.5435    0.2316 H   0  0  0  0  0  0  0  0  0  0  0  0
    3.0613    0.9341    0.3088 H   0  0  0  0  0  0  0  0  0  0  0  0
   -2.6164   -1.8514   -0.9644 H   0  0  0  0  0  0  0  0  0  0  0  0
   -2.6017   -1.3884    0.7018 H   0  0  0  0  0  0  0  0  0  0  0  0
    0.0258   -0.5391    3.1219 H   0  0  0  0  0  0  0  0  0  0  0  0
   -1.0764    0.8112    2.8703 H   0  0  0  0  0  0  0  0  0  0  0  0
   -1.5032   -0.7961    2.3076 H   0  0  0  0  0  0  0  0  0  0  0  0
    2.5076   -1.2785    1.2067 H   0  0  0  0  0  0  0  0  0  0  0  0
    1.2027   -2.1813    1.9848 H   0  0  0  0  0  0  0  0  0  0  0  0
    1.8672   -2.7326    0.4506 H   0  0  0  0  0  0  0  0  0  0  0  0
   -3.6964    0.8561    0.5191 H   0  0  0  0  0  0  0  0  0  0  0  0
   -3.3600    1.8423   -0.9168 H   0  0  0  0  0  0  0  0  0  0  0  0
   -4.1091    0.2493   -1.0940 H   0  0  0  0  0  0  0  0  0  0  0  0
    1.5422   -2.2521   -2.0631 H   0  0  0  0  0  0  0  0  0  0  0  0
    2.0913   -0.7101   -2.9248 H   0  0  0  0  0  0  0  0  0  0  0  0
  1  2  1  0  0  0  0
  1  3  1  0  0  0  0
  1  6  1  0  0  0  0
  1 12  1  0  0  0  0
  2  8  1  0  0  0  0
  2  9  1  0  0  0  0
  2 13  1  0  0  0  0
  3  5  1  0  0  0  0
  3  7  1  0  0  0  0
  3 16  1  0  0  0  0
  4  5  1  0  0  0  0
  4  8  1  0  0  0  0
  4 10  1  0  0  0  0
  4 17  1  0  0  0  0
  5 18  1  0  0  0  0
  5 19  1  0  0  0  0
  6 10  1  0  0  0  0
  6 20  1  0  0  0  0
  6 21  1  0  0  0  0
  7 11  1  0  0  0  0
  7 14  1  0  0  0  0
  7 22  1  0  0  0  0
  8 15  2  0  0  0  0
  9 11  1  0  0  0  0
  9 23  1  0  0  0  0
  9 24  1  0  0  0  0
 10 25  1  0  0  0  0
 10 26  1  0  0  0  0
 11 27  1  0  0  0  0
 11 28  1  0  0  0  0
 12 29  1  0  0  0  0
 12 30  1  0  0  0  0
 12 31  1  0  0  0  0
 13 32  1  0  0  0  0
 13 33  1  0  0  0  0
 13 34  1  0  0  0  0
 14 35  1  0  0  0  0
 14 36  1  0  0  0  0
 14 37  1  0  0  0  0
 15 38  1  0  0  0  0
 15 39  1  0  0  0  0
M  END
> <PUBCHEM_COMPOUND_CID>
519743

> <PUBCHEM_CONFORMER_RMSD>
0.6

> <PUBCHEM_CONFORMER_DIVERSEORDER>
1
4
2
3

> <PUBCHEM_MMFF94_PARTIAL_CHARGES>
6
15 -0.3
2 0.14
38 0.15
39 0.15
4 0.14
8 -0.28

> <PUBCHEM_EFFECTIVE_ROTOR_COUNT>
1.2

> <PUBCHEM_PHARMACOPHORE_FEATURES>
2
6 1 2 3 7 9 11 rings
8 1 2 3 4 5 6 8 10 rings

> <PUBCHEM_HEAVY_ATOM_COUNT>
15

> <PUBCHEM_ATOM_DEF_STEREO_COUNT>
0

> <PUBCHEM_ATOM_UDEF_STEREO_COUNT>
5

> <PUBCHEM_BOND_DEF_STEREO_COUNT>
0

> <PUBCHEM_BOND_UDEF_STEREO_COUNT>
0

> <PUBCHEM_ISOTOPIC_ATOM_COUNT>
0

> <PUBCHEM_COMPONENT_COUNT>
1

> <PUBCHEM_CACTVS_TAUTO_COUNT>
1

> <PUBCHEM_CONFORMER_ID>
0007EE3F00000001

> <PUBCHEM_MMFF94_ENERGY>
67.6373

> <PUBCHEM_FEATURE_SELFOVERLAP>
10.424

> <PUBCHEM_SHAPE_FINGERPRINT>
10863032 1 18337376253595848706
10948715 1 18339632468472760700
11129358 1 12812530632605985762
12423570 1 14143942929165679384
12491281 212 17824254015335405976
12725867 57 18049136913794766317
13024252 1 14356475950061645820
13299463 15 17911827938770306797
141345 1 14679937285695982132
14142880 1 15743077764921766113
144361 1 18341346572793160950
14817 1 13863150813705857234
15557651 10 16957658502617935498
15881359 60 17757865546136316609
16945 1 18118936218386825568
20511035 2 17984389023340093307
22344851 262 18188756353369524696
22344851 341 18339646736359334346
23419403 2 17914917541049158066
2748010 2 18409167731639659671
5084963 1 17908435992859412090
528886 8 18335137604956297141
54276843 12 17187632195938468334

> <PUBCHEM_SHAPE_MULTIPOLES>
308.69
3
2.02
1.84
2.12
0.35
0.47
-0.43
-0.74
-0.46
-0.12
-0.55
0.14
0.25

> <PUBCHEM_SHAPE_SELFOVERLAP>
656.799

> <PUBCHEM_SHAPE_VOLUME>
169.1

> <PUBCHEM_COORDINATE_TYPE>
2
5
10

$$$$
