92113
  -OEChem-11202015463D

 75 78  0     1  0  0  0  0  0999 V2000
    7.9423    0.7767    1.2437 O   0  0  0  0  0  0  0  0  0  0  0  0
   -0.4770   -0.1019   -0.9423 C   0  0  1  0  0  0  0  0  0  0  0  0
    0.2780   -1.0913   -0.0323 C   0  0  2  0  0  0  0  0  0  0  0  0
    1.7959   -1.0659   -0.2377 C   0  0  1  0  0  0  0  0  0  0  0  0
    2.3312    0.3727    0.0205 C   0  0  1  0  0  0  0  0  0  0  0  0
   -1.9288   -0.4363   -0.5215 C   0  0  2  0  0  0  0  0  0  0  0  0
   -0.0100    1.3129   -0.5725 C   0  0  0  0  0  0  0  0  0  0  0  0
    3.8922    0.4605   -0.2170 C   0  0  2  0  0  0  0  0  0  0  0  0
   -0.4686   -2.4072   -0.2293 C   0  0  0  0  0  0  0  0  0  0  0  0
    1.5135    1.4615   -0.7278 C   0  0  0  0  0  0  0  0  0  0  0  0
   -1.9354   -1.9803   -0.4248 C   0  0  0  0  0  0  0  0  0  0  0  0
    2.4887   -2.0643    0.7016 C   0  0  0  0  0  0  0  0  0  0  0  0
   -3.0378    0.1059   -1.4116 C   0  0  1  0  0  0  0  0  0  0  0  0
   -0.2632   -0.3489   -2.4564 C   0  0  0  0  0  0  0  0  0  0  0  0
    4.6093   -0.7394    0.4176 C   0  0  0  0  0  0  0  0  0  0  0  0
    4.4130    1.7726    0.4424 C   0  0  0  0  0  0  0  0  0  0  0  0
    3.9617   -1.8430    0.8301 C   0  0  0  0  0  0  0  0  0  0  0  0
    4.2318    0.4762   -1.7269 C   0  0  0  0  0  0  0  0  0  0  0  0
    6.1088   -0.6410    0.5785 C   0  0  0  0  0  0  0  0  0  0  0  0
    5.9351    1.8697    0.5351 C   0  0  0  0  0  0  0  0  0  0  0  0
   -4.4457   -0.2797   -0.9098 C   0  0  0  0  0  0  0  0  0  0  0  0
    6.5229    0.6621    1.2565 C   0  0  2  0  0  0  0  0  0  0  0  0
   -2.9295    1.6321   -1.5123 C   0  0  0  0  0  0  0  0  0  0  0  0
   -4.7599    0.2682    0.4886 C   0  0  0  0  0  0  0  0  0  0  0  0
   -6.1595   -0.0977    0.9466 C   0  0  0  0  0  0  0  0  0  0  0  0
   -7.2568    0.9237    0.6677 C   0  0  0  0  0  0  0  0  0  0  0  0
   -6.3678   -1.2678    1.5747 C   0  0  0  0  0  0  0  0  0  0  0  0
   -7.3394    1.9486    1.8031 C   0  0  0  0  0  0  0  0  0  0  0  0
   -8.6451    0.3213    0.4153 C   0  0  0  0  0  0  0  0  0  0  0  0
    0.1008   -0.7968    1.0161 H   0  0  0  0  0  0  0  0  0  0  0  0
    2.0277   -1.3642   -1.2663 H   0  0  0  0  0  0  0  0  0  0  0  0
    2.1600    0.5675    1.0919 H   0  0  0  0  0  0  0  0  0  0  0  0
   -2.0623   -0.0457    0.4966 H   0  0  0  0  0  0  0  0  0  0  0  0
   -0.2817    1.5455    0.4651 H   0  0  0  0  0  0  0  0  0  0  0  0
   -0.4585    2.0867   -1.1957 H   0  0  0  0  0  0  0  0  0  0  0  0
   -0.3597   -3.0731    0.6327 H   0  0  0  0  0  0  0  0  0  0  0  0
   -0.1067   -2.9458   -1.1122 H   0  0  0  0  0  0  0  0  0  0  0  0
    1.7515    1.4543   -1.7954 H   0  0  0  0  0  0  0  0  0  0  0  0
    1.7960    2.4536   -0.3578 H   0  0  0  0  0  0  0  0  0  0  0  0
   -2.3361   -2.4516   -1.3293 H   0  0  0  0  0  0  0  0  0  0  0  0
   -2.5520   -2.3102    0.4187 H   0  0  0  0  0  0  0  0  0  0  0  0
    2.3171   -3.0822    0.3310 H   0  0  0  0  0  0  0  0  0  0  0  0
    2.0527   -2.0160    1.7072 H   0  0  0  0  0  0  0  0  0  0  0  0
   -2.9502   -0.3078   -2.4239 H   0  0  0  0  0  0  0  0  0  0  0  0
    0.7931   -0.3368   -2.7385 H   0  0  0  0  0  0  0  0  0  0  0  0
   -0.6606   -1.3159   -2.7810 H   0  0  0  0  0  0  0  0  0  0  0  0
   -0.7506    0.4202   -3.0632 H   0  0  0  0  0  0  0  0  0  0  0  0
    4.0086    1.8573    1.4604 H   0  0  0  0  0  0  0  0  0  0  0  0
    4.0475    2.6476   -0.1081 H   0  0  0  0  0  0  0  0  0  0  0  0
    4.5222   -2.6523    1.2921 H   0  0  0  0  0  0  0  0  0  0  0  0
    3.7892   -0.3764   -2.2521 H   0  0  0  0  0  0  0  0  0  0  0  0
    3.8768    1.3913   -2.2120 H   0  0  0  0  0  0  0  0  0  0  0  0
    5.3104    0.4347   -1.9118 H   0  0  0  0  0  0  0  0  0  0  0  0
    6.5106   -1.4821    1.1584 H   0  0  0  0  0  0  0  0  0  0  0  0
    6.5916   -0.7212   -0.4036 H   0  0  0  0  0  0  0  0  0  0  0  0
    6.3780    1.9676   -0.4638 H   0  0  0  0  0  0  0  0  0  0  0  0
    6.2133    2.7882    1.0667 H   0  0  0  0  0  0  0  0  0  0  0  0
   -4.5536   -1.3713   -0.9138 H   0  0  0  0  0  0  0  0  0  0  0  0
   -5.1919    0.0956   -1.6228 H   0  0  0  0  0  0  0  0  0  0  0  0
    6.1972    0.6537    2.3039 H   0  0  0  0  0  0  0  0  0  0  0  0
   -2.1911    1.9338   -2.2579 H   0  0  0  0  0  0  0  0  0  0  0  0
   -2.7015    2.1058   -0.5525 H   0  0  0  0  0  0  0  0  0  0  0  0
   -3.8757    2.0605   -1.8655 H   0  0  0  0  0  0  0  0  0  0  0  0
   -4.6470    1.3572    0.5230 H   0  0  0  0  0  0  0  0  0  0  0  0
   -4.0485   -0.1286    1.2218 H   0  0  0  0  0  0  0  0  0  0  0  0
    8.1745    1.6046    1.6980 H   0  0  0  0  0  0  0  0  0  0  0  0
   -6.9860    1.4574   -0.2533 H   0  0  0  0  0  0  0  0  0  0  0  0
   -7.3465   -1.5638    1.9337 H   0  0  0  0  0  0  0  0  0  0  0  0
   -5.5517   -1.9613    1.7519 H   0  0  0  0  0  0  0  0  0  0  0  0
   -7.6281    1.4758    2.7486 H   0  0  0  0  0  0  0  0  0  0  0  0
   -8.0805    2.7220    1.5736 H   0  0  0  0  0  0  0  0  0  0  0  0
   -6.3773    2.4489    1.9577 H   0  0  0  0  0  0  0  0  0  0  0  0
   -8.6042   -0.4458   -0.3655 H   0  0  0  0  0  0  0  0  0  0  0  0
   -9.3418    1.0979    0.0802 H   0  0  0  0  0  0  0  0  0  0  0  0
   -9.0684   -0.1291    1.3195 H   0  0  0  0  0  0  0  0  0  0  0  0
  1 22  1  0  0  0  0
  1 66  1  0  0  0  0
  2  3  1  0  0  0  0
  2  6  1  0  0  0  0
  2  7  1  0  0  0  0
  2 14  1  0  0  0  0
  3  4  1  0  0  0  0
  3  9  1  0  0  0  0
  3 30  1  0  0  0  0
  4  5  1  0  0  0  0
  4 12  1  0  0  0  0
  4 31  1  0  0  0  0
  5  8  1  0  0  0  0
  5 10  1  0  0  0  0
  5 32  1  0  0  0  0
  6 11  1  0  0  0  0
  6 13  1  0  0  0  0
  6 33  1  0  0  0  0
  7 10  1  0  0  0  0
  7 34  1  0  0  0  0
  7 35  1  0  0  0  0
  8 15  1  0  0  0  0
  8 16  1  0  0  0  0
  8 18  1  0  0  0  0
  9 11  1  0  0  0  0
  9 36  1  0  0  0  0
  9 37  1  0  0  0  0
 10 38  1  0  0  0  0
 10 39  1  0  0  0  0
 11 40  1  0  0  0  0
 11 41  1  0  0  0  0
 12 17  1  0  0  0  0
 12 42  1  0  0  0  0
 12 43  1  0  0  0  0
 13 21  1  0  0  0  0
 13 23  1  0  0  0  0
 13 44  1  0  0  0  0
 14 45  1  0  0  0  0
 14 46  1  0  0  0  0
 14 47  1  0  0  0  0
 15 17  2  0  0  0  0
 15 19  1  0  0  0  0
 16 20  1  0  0  0  0
 16 48  1  0  0  0  0
 16 49  1  0  0  0  0
 17 50  1  0  0  0  0
 18 51  1  0  0  0  0
 18 52  1  0  0  0  0
 18 53  1  0  0  0  0
 19 22  1  0  0  0  0
 19 54  1  0  0  0  0
 19 55  1  0  0  0  0
 20 22  1  0  0  0  0
 20 56  1  0  0  0  0
 20 57  1  0  0  0  0
 21 24  1  0  0  0  0
 21 58  1  0  0  0  0
 21 59  1  0  0  0  0
 22 60  1  0  0  0  0
 23 61  1  0  0  0  0
 23 62  1  0  0  0  0
 23 63  1  0  0  0  0
 24 25  1  0  0  0  0
 24 64  1  0  0  0  0
 24 65  1  0  0  0  0
 25 26  1  0  0  0  0
 25 27  2  0  0  0  0
 26 28  1  0  0  0  0
 26 29  1  0  0  0  0
 26 67  1  0  0  0  0
 27 68  1  0  0  0  0
 27 69  1  0  0  0  0
 28 70  1  0  0  0  0
 28 71  1  0  0  0  0
 28 72  1  0  0  0  0
 29 73  1  0  0  0  0
 29 74  1  0  0  0  0
 29 75  1  0  0  0  0
M  END
> <PUBCHEM_COMPOUND_CID>
92113

> <PUBCHEM_CONFORMER_RMSD>
0.8

> <PUBCHEM_CONFORMER_DIVERSEORDER>
2
20
7
12
17
10
5
16
19
1
15
6
11
8
18
4
14
9
13
3

> <PUBCHEM_MMFF94_PARTIAL_CHARGES>
15
1 -0.68
12 0.14
15 -0.28
17 -0.29
19 0.14
22 0.28
24 0.14
25 -0.28
26 0.14
27 -0.3
50 0.15
66 0.4
68 0.15
69 0.15
8 0.14

> <PUBCHEM_EFFECTIVE_ROTOR_COUNT>
7

> <PUBCHEM_PHARMACOPHORE_FEATURES>
10
1 1 acceptor
1 1 donor
1 23 hydrophobe
1 27 hydrophobe
3 26 28 29 hydrophobe
5 13 21 24 25 26 hydrophobe
5 2 3 6 9 11 rings
6 2 3 4 5 7 10 rings
6 4 5 8 12 15 17 rings
6 8 15 16 19 20 22 rings

> <PUBCHEM_HEAVY_ATOM_COUNT>
29

> <PUBCHEM_ATOM_DEF_STEREO_COUNT>
8

> <PUBCHEM_ATOM_UDEF_STEREO_COUNT>
0

> <PUBCHEM_BOND_DEF_STEREO_COUNT>
0

> <PUBCHEM_BOND_UDEF_STEREO_COUNT>
0

> <PUBCHEM_ISOTOPIC_ATOM_COUNT>
0

> <PUBCHEM_COMPONENT_COUNT>
1

> <PUBCHEM_CACTVS_TAUTO_COUNT>
1

> <PUBCHEM_CONFORMER_ID>
000167D100000002

> <PUBCHEM_MMFF94_ENERGY>
86.4733

> <PUBCHEM_FEATURE_SELFOVERLAP>
50.868

> <PUBCHEM_SHAPE_FINGERPRINT>
10 15 18040714796586666160
10100884 174 17974006447695806915
106641 1 18409449207096405235
10670039 82 14117526411612530243
11456790 92 18343295960213175184
11578080 2 17843393235973084648
11646440 116 18409447003430288960
12035758 1 17749106703286403771
12236239 1 17917706915811915374
12596602 18 18413393142109164891
13540713 4 17753038411413690159
13540713 5 17899421079637907343
13668630 136 11169911684473390017
13673619 4 15285355137174605469
13782708 43 14851597769725283864
14251757 52 17489588960940029681
14251764 18 18272647978472912837
14341114 176 18186803560921316383
14849402 71 18342737468399565257
15183329 4 11959734854686078199
15188451 53 14418131811897267231
15461852 350 16773790421102323773
15475509 35 16443895069386018042
15510800 12 13551478003657988473
1577012 14 17704066300397430271
15840311 113 18272654540909095637
18222031 100 8790889575309218262
18608769 82 17967817180150099378
20105231 36 18186802449195518394
21130935 74 18413388747931047651
21150785 3 8574710204304093537
21267235 1 18187083906696512270
21424621 283 17346602954458183851
21623969 137 18113618984339104922
21637258 2 14490187228397468463
21756936 100 17989484143765933927
21781051 124 17676784119084812842
21781055 127 18269573692976347436
21792934 111 17822286860764434637
22122407 14 18131080359007861521
22224240 67 18408603661127243187
22956985 138 13697522796281122840
23522609 53 17970936511923594709
23559900 14 18338503228294242900
23576562 1 12535043365784729641
24771293 8 18270392918985421356
25269216 80 15840972486642913101
3009799 131 11527948954223964615
312425 54 18040442075359707083
3178227 256 18259983786586197016
3383291 50 15791741806465153809
4093350 32 17632578237036556806
4098825 35 10159706781348182915
4340502 62 18040715866096878562
465052 167 16008748017991565286
5104073 3 17969493819048958785
5283156 175 12179842793326560585
5385378 56 18411699846609992106
5758199 1 18342458136547744243
59682541 35 18040718103637605513
9953998 17 18186519917413571267

> <PUBCHEM_SHAPE_MULTIPOLES>
590.94
21.32
2.08
1.62
19.42
0.38
-0.42
-7.74
13.36
-0.62
0.34
0.81
-0.28
-0.34

> <PUBCHEM_SHAPE_SELFOVERLAP>
1227.676

> <PUBCHEM_SHAPE_VOLUME>
336.8

> <PUBCHEM_COORDINATE_TYPE>
2
5
10

$$$$
