44257884
  -OEChem-11202015583D

 54 57  0     1  0  0  0  0  0999 V2000
   -3.6474   -1.2958   -0.9863 O   0  0  0  0  0  0  0  0  0  0  0  0
   -2.9211    0.9144   -1.1651 O   0  0  0  0  0  0  0  0  0  0  0  0
   -6.8601   -0.1898    1.3209 O   0  0  0  0  0  0  0  0  0  0  0  0
   -6.0194   -2.9547    1.2577 O   0  0  0  0  0  0  0  0  0  0  0  0
   -4.5359    1.6014    1.0548 O   0  0  0  0  0  0  0  0  0  0  0  0
   -2.8851   -3.9002   -1.4234 O   0  0  0  0  0  0  0  0  0  0  0  0
    1.7023    0.2730   -0.2641 O   0  0  0  0  0  0  0  0  0  0  0  0
   -0.2674    4.6964   -0.0415 O   0  0  0  0  0  0  0  0  0  0  0  0
    2.2738    4.2463    0.4324 O   0  0  0  0  0  0  0  0  0  0  0  0
    7.0000   -3.1128    0.3654 O   0  0  0  0  0  0  0  0  0  0  0  0
   -5.5137   -0.6045    1.0845 C   0  0  1  0  0  0  0  0  0  0  0  0
   -5.5537   -1.9502    0.3603 C   0  0  1  0  0  0  0  0  0  0  0  0
   -4.7947    0.4534    0.2472 C   0  0  2  0  0  0  0  0  0  0  0  0
   -4.1629   -2.3336   -0.1507 C   0  0  1  0  0  0  0  0  0  0  0  0
   -3.4599   -0.0698   -0.2830 C   0  0  1  0  0  0  0  0  0  0  0  0
   -4.1985   -3.6149   -0.9777 C   0  0  0  0  0  0  0  0  0  0  0  0
   -1.7042    1.4397   -0.8264 C   0  0  0  0  0  0  0  0  0  0  0  0
   -0.5929    0.6044   -0.7096 C   0  0  0  0  0  0  0  0  0  0  0  0
   -1.5770    2.8108   -0.5983 C   0  0  0  0  0  0  0  0  0  0  0  0
    0.6466    1.1435   -0.3638 C   0  0  0  0  0  0  0  0  0  0  0  0
    0.7717    2.5131   -0.1369 C   0  0  0  0  0  0  0  0  0  0  0  0
   -0.3384    3.3527   -0.2528 C   0  0  0  0  0  0  0  0  0  0  0  0
    2.0906    3.0549    0.2241 C   0  0  0  0  0  0  0  0  0  0  0  0
    2.9447    0.7790    0.0864 C   0  0  0  0  0  0  0  0  0  0  0  0
    3.1930    2.0770    0.3224 C   0  0  0  0  0  0  0  0  0  0  0  0
    4.0090   -0.2420    0.1610 C   0  0  0  0  0  0  0  0  0  0  0  0
    5.3270    0.1011   -0.1406 C   0  0  0  0  0  0  0  0  0  0  0  0
    3.6962   -1.5499    0.5319 C   0  0  0  0  0  0  0  0  0  0  0  0
    6.3320   -0.8635   -0.0716 C   0  0  0  0  0  0  0  0  0  0  0  0
    4.7012   -2.5146    0.6008 C   0  0  0  0  0  0  0  0  0  0  0  0
    6.0191   -2.1715    0.2990 C   0  0  0  0  0  0  0  0  0  0  0  0
    8.3251   -2.6933    0.0429 C   0  0  0  0  0  0  0  0  0  0  0  0
   -5.0479   -0.7057    2.0718 H   0  0  0  0  0  0  0  0  0  0  0  0
   -6.2663   -1.8996   -0.4721 H   0  0  0  0  0  0  0  0  0  0  0  0
   -5.4322    0.7863   -0.5805 H   0  0  0  0  0  0  0  0  0  0  0  0
   -3.4652   -2.4890    0.6836 H   0  0  0  0  0  0  0  0  0  0  0  0
   -2.7779   -0.2480    0.5612 H   0  0  0  0  0  0  0  0  0  0  0  0
   -4.8312   -3.4905   -1.8629 H   0  0  0  0  0  0  0  0  0  0  0  0
   -4.5618   -4.4628   -0.3894 H   0  0  0  0  0  0  0  0  0  0  0  0
   -7.2964   -0.0738    0.4597 H   0  0  0  0  0  0  0  0  0  0  0  0
   -5.3866   -3.0171    1.9934 H   0  0  0  0  0  0  0  0  0  0  0  0
   -3.9639    1.3287    1.7924 H   0  0  0  0  0  0  0  0  0  0  0  0
   -2.9317   -4.7162   -1.9502 H   0  0  0  0  0  0  0  0  0  0  0  0
   -0.6850   -0.4630   -0.8949 H   0  0  0  0  0  0  0  0  0  0  0  0
   -2.4470    3.4565   -0.6905 H   0  0  0  0  0  0  0  0  0  0  0  0
    4.1621    2.4686    0.6084 H   0  0  0  0  0  0  0  0  0  0  0  0
    0.6361    4.9564    0.1945 H   0  0  0  0  0  0  0  0  0  0  0  0
    5.6066    1.1030   -0.4551 H   0  0  0  0  0  0  0  0  0  0  0  0
    2.6791   -1.8426    0.7803 H   0  0  0  0  0  0  0  0  0  0  0  0
    7.3331   -0.5305   -0.3238 H   0  0  0  0  0  0  0  0  0  0  0  0
    4.4520   -3.5314    0.8918 H   0  0  0  0  0  0  0  0  0  0  0  0
    8.9756   -3.5677    0.1489 H   0  0  0  0  0  0  0  0  0  0  0  0
    8.6900   -1.9365    0.7456 H   0  0  0  0  0  0  0  0  0  0  0  0
    8.4004   -2.3635   -0.9988 H   0  0  0  0  0  0  0  0  0  0  0  0
  1 14  1  0  0  0  0
  1 15  1  0  0  0  0
  2 15  1  0  0  0  0
  2 17  1  0  0  0  0
  3 11  1  0  0  0  0
  3 40  1  0  0  0  0
  4 12  1  0  0  0  0
  4 41  1  0  0  0  0
  5 13  1  0  0  0  0
  5 42  1  0  0  0  0
  6 16  1  0  0  0  0
  6 43  1  0  0  0  0
  7 20  1  0  0  0  0
  7 24  1  0  0  0  0
  8 22  1  0  0  0  0
  8 47  1  0  0  0  0
  9 23  2  0  0  0  0
 10 31  1  0  0  0  0
 10 32  1  0  0  0  0
 11 12  1  0  0  0  0
 11 13  1  0  0  0  0
 11 33  1  0  0  0  0
 12 14  1  0  0  0  0
 12 34  1  0  0  0  0
 13 15  1  0  0  0  0
 13 35  1  0  0  0  0
 14 16  1  0  0  0  0
 14 36  1  0  0  0  0
 15 37  1  0  0  0  0
 16 38  1  0  0  0  0
 16 39  1  0  0  0  0
 17 18  1  0  0  0  0
 17 19  2  0  0  0  0
 18 20  2  0  0  0  0
 18 44  1  0  0  0  0
 19 22  1  0  0  0  0
 19 45  1  0  0  0  0
 20 21  1  0  0  0  0
 21 22  2  0  0  0  0
 21 23  1  0  0  0  0
 23 25  1  0  0  0  0
 24 25  2  0  0  0  0
 24 26  1  0  0  0  0
 25 46  1  0  0  0  0
 26 27  2  0  0  0  0
 26 28  1  0  0  0  0
 27 29  1  0  0  0  0
 27 48  1  0  0  0  0
 28 30  2  0  0  0  0
 28 49  1  0  0  0  0
 29 31  2  0  0  0  0
 29 50  1  0  0  0  0
 30 31  1  0  0  0  0
 30 51  1  0  0  0  0
 32 52  1  0  0  0  0
 32 53  1  0  0  0  0
 32 54  1  0  0  0  0
M  END
> <PUBCHEM_COMPOUND_CID>
44257884

> <PUBCHEM_CONFORMER_RMSD>
0.8

> <PUBCHEM_CONFORMER_DIVERSEORDER>
1
183
201
214
18
186
230
187
88
232
61
243
157
152
204
144
207
39
202
35
28
197
22
223
237
27
246
57
48
156
168
172
189
110
90
100
173
240
225
129
4
15
146
10
109
151
159
190
70
219
222
164
234
135
188
76
123
153
199
118
73
95
122
249
220
163
62
227
5
132
125
23
113
79
127
8
245
115
25
9
93
213
56
29
108
41
174
26
31
43
235
171
6
112
253
231
80
92
195
55
175
53
74
169
241
64
209
17
82
218
7
149
242
32
20
38
198
224
16
252
181
145
221
124
81
19
244
180
3
229
148
247
248
45
36
136
14
226
161
179
60
120
33
46
210
170
138
40
11
228
116
233
121
147
86
176
2
75
211
203
12
78
141
140
44
89
185
54
150
87
215
193
194
251
21
137
68
158
30
178
128
134
107
101
154
119
103
91
200
205
177
166
72
155
111
167
85
208
13
77
143
65
216
139
69
104
52
182
67
63
133
51
236
99
192
126
142
238
191
184
106
83
50
217
97
84
250
206
162
96
94
130
239
71
165
160
24
212
102
98
131
49
42
66
34
105
58
117
47
59
37
114
196

> <PUBCHEM_MMFF94_PARTIAL_CHARGES>
44
1 -0.56
10 -0.36
11 0.28
12 0.28
13 0.28
14 0.28
15 0.56
16 0.28
17 0.08
18 -0.15
19 -0.15
2 -0.36
20 0.08
21 0.09
22 0.08
23 0.47
24 0.05
25 -0.14
26 0.03
27 -0.15
28 -0.15
29 -0.15
3 -0.68
30 -0.15
31 0.08
32 0.28
4 -0.68
40 0.4
41 0.4
42 0.4
43 0.4
44 0.15
45 0.15
46 0.15
47 0.45
48 0.15
49 0.15
5 -0.68
50 0.15
51 0.15
6 -0.68
7 -0.16
8 -0.53
9 -0.57

> <PUBCHEM_EFFECTIVE_ROTOR_COUNT>
6.2

> <PUBCHEM_PHARMACOPHORE_FEATURES>
18
1 1 acceptor
1 10 acceptor
1 2 acceptor
1 3 acceptor
1 3 donor
1 4 acceptor
1 4 donor
1 5 acceptor
1 5 donor
1 6 acceptor
1 6 donor
1 7 acceptor
1 8 donor
1 9 acceptor
6 1 11 12 13 14 15 rings
6 17 18 19 20 21 22 rings
6 26 27 28 29 30 31 rings
6 7 20 21 23 24 25 rings

> <PUBCHEM_HEAVY_ATOM_COUNT>
32

> <PUBCHEM_ATOM_DEF_STEREO_COUNT>
3

> <PUBCHEM_ATOM_UDEF_STEREO_COUNT>
2

> <PUBCHEM_BOND_DEF_STEREO_COUNT>
0

> <PUBCHEM_BOND_UDEF_STEREO_COUNT>
0

> <PUBCHEM_ISOTOPIC_ATOM_COUNT>
0

> <PUBCHEM_COMPONENT_COUNT>
1

> <PUBCHEM_CACTVS_TAUTO_COUNT>
5

> <PUBCHEM_CONFORMER_ID>
02A3525C00000001

> <PUBCHEM_MMFF94_ENERGY>
115.8366

> <PUBCHEM_FEATURE_SELFOVERLAP>
91.446

> <PUBCHEM_SHAPE_FINGERPRINT>
10050765 1 18409729530885691748
10411042 1 18410011018414319268
10462674 296 18055617650315750622
10622 236 17698987802735391983
10928967 22 18187351151871838011
11387372 6 17968385641032293867
11456790 92 17916884486701517665
11621639 307 10737548566779086175
117089 54 18334864938799943827
11756154 67 18410295778935074734
11963148 33 18337379565749214162
12107183 9 18341903991651839489
12166972 35 17822017476289292036
12422481 6 17489869332431782342
13103583 49 18273224079558542545
13248334 5 18049162464450832460
13540713 4 18264186106710989484
13690498 29 18040993999377919740
13782708 43 17749381560293439816
13911852 28 18410007775655735301
14178184 131 18271800203437603166
14251764 30 18408604751394581496
14420673 8 18407763621274084115
14950920 106 17988927803461304353
15250474 111 18055629779392298399
15361156 5 18041008331678530828
15475509 84 17988934366077218905
15728490 83 18264205799330726722
16110190 28 18342176678292109951
16728300 4 18198628925165597919
16992752 21 18339371769370770924
17492 89 18194681690831536275
17686467 74 18338786820900898920
17780758 139 18201999889648879249
18608769 82 18412258403671335994
19246450 95 18127145074180835121
19841028 212 18118959429166384987
20775530 9 18114451306156644910
21130935 74 18194406817615315907
21267235 1 18338801101239792478
22950370 63 18409169921793613508
229767 44 18272653467563345983
23522609 53 18120408456030884060
23559900 14 18338220639708387933
24893989 43 17554900145162591854
25269216 80 15213307413562249875
2747138 104 18341605968387488586
2748736 6 9727634986309000118
2838139 119 9943802279338340200
3117164 225 18342741840770893057
32027 91 18340473543412726589
3421961 26 18338796831135601536
439807 62 18187086122372038310
4409770 3 18117270355746093893
463206 1 18334577992124464706
474113 269 18270111453295153279
504843 32 17686616840596877092
5104073 3 18131354154303517121
54039377 194 18335988567507577422
54583773 228 18334019372974813742
56633871 153 18341612633517498047
6058803 2 17911810377677882789
636775 8 18338525119753821694
6703917 75 17330276585481937456
7970288 3 18410288086849373806
8863177 126 18408322206965706712
9555976 147 17560254617077213699
9896288 288 17983017751851527113
999808 66 18113628876081512531

> <PUBCHEM_SHAPE_MULTIPOLES>
599.85
18.53
5.53
0.99
12.07
1.75
0
-23.11
4.59
0.26
-0.4
-1.33
-0.38
-0.5

> <PUBCHEM_SHAPE_SELFOVERLAP>
1309.314

> <PUBCHEM_SHAPE_VOLUME>
322.7

> <PUBCHEM_COORDINATE_TYPE>
2
5
10

$$$$
