582682
  -OEChem-11202015573D

 29 29  0     1  0  0  0  0  0999 V2000
    1.3082   -0.7697   -0.1100 O   0  0  0  0  0  0  0  0  0  0  0  0
    1.6807    0.5224    0.4372 O   0  0  0  0  0  0  0  0  0  0  0  0
    3.4413    0.2364   -1.0360 O   0  0  0  0  0  0  0  0  0  0  0  0
   -0.7440   -3.4575   -0.3388 N   0  0  0  0  0  0  0  0  0  0  0  0
    0.0811   -1.1101    0.5737 C   0  0  2  0  0  0  0  0  0  0  0  0
   -0.9322   -0.0483    0.2978 C   0  0  0  0  0  0  0  0  0  0  0  0
   -1.3200    0.2513   -1.0083 C   0  0  0  0  0  0  0  0  0  0  0  0
    0.4879   -1.2857    2.0594 C   0  0  0  0  0  0  0  0  0  0  0  0
   -1.4926    0.6478    1.3688 C   0  0  0  0  0  0  0  0  0  0  0  0
   -2.2683    1.2470   -1.2430 C   0  0  0  0  0  0  0  0  0  0  0  0
   -0.7334   -0.4796   -2.1712 C   0  0  0  0  0  0  0  0  0  0  0  0
   -2.4409    1.6434    1.1339 C   0  0  0  0  0  0  0  0  0  0  0  0
   -2.8287    1.9430   -0.1719 C   0  0  0  0  0  0  0  0  0  0  0  0
   -0.3729   -2.4349    0.0655 C   0  0  0  0  0  0  0  0  0  0  0  0
    2.8413    0.8807   -0.1863 C   0  0  0  0  0  0  0  0  0  0  0  0
    3.2924    2.2136    0.3292 C   0  0  0  0  0  0  0  0  0  0  0  0
    0.8624   -0.3650    2.5210 H   0  0  0  0  0  0  0  0  0  0  0  0
    1.3029   -2.0165    2.1465 H   0  0  0  0  0  0  0  0  0  0  0  0
   -0.3456   -1.6590    2.6670 H   0  0  0  0  0  0  0  0  0  0  0  0
   -1.2345    0.4533    2.4038 H   0  0  0  0  0  0  0  0  0  0  0  0
   -2.5835    1.4928   -2.2537 H   0  0  0  0  0  0  0  0  0  0  0  0
   -1.0216    0.0138   -3.1087 H   0  0  0  0  0  0  0  0  0  0  0  0
    0.3575   -0.4762   -2.1852 H   0  0  0  0  0  0  0  0  0  0  0  0
   -1.1226   -1.4973   -2.2476 H   0  0  0  0  0  0  0  0  0  0  0  0
   -2.8789    2.1848    1.9675 H   0  0  0  0  0  0  0  0  0  0  0  0
   -3.5676    2.7178   -0.3545 H   0  0  0  0  0  0  0  0  0  0  0  0
    2.5333    2.9700    0.1148 H   0  0  0  0  0  0  0  0  0  0  0  0
    3.4810    2.1508    1.4038 H   0  0  0  0  0  0  0  0  0  0  0  0
    4.2215    2.5008   -0.1715 H   0  0  0  0  0  0  0  0  0  0  0  0
  1  2  1  0  0  0  0
  1  5  1  0  0  0  0
  2 15  1  0  0  0  0
  3 15  2  0  0  0  0
  4 14  3  0  0  0  0
  5  6  1  0  0  0  0
  5  8  1  0  0  0  0
  5 14  1  0  0  0  0
  6  7  1  0  0  0  0
  6  9  2  0  0  0  0
  7 10  2  0  0  0  0
  7 11  1  0  0  0  0
  8 17  1  0  0  0  0
  8 18  1  0  0  0  0
  8 19  1  0  0  0  0
  9 12  1  0  0  0  0
  9 20  1  0  0  0  0
 10 13  1  0  0  0  0
 10 21  1  0  0  0  0
 11 22  1  0  0  0  0
 11 23  1  0  0  0  0
 11 24  1  0  0  0  0
 12 13  2  0  0  0  0
 12 25  1  0  0  0  0
 13 26  1  0  0  0  0
 15 16  1  0  0  0  0
 16 27  1  0  0  0  0
 16 28  1  0  0  0  0
 16 29  1  0  0  0  0
M  END
> <PUBCHEM_COMPOUND_CID>
582682

> <PUBCHEM_CONFORMER_RMSD>
0.6

> <PUBCHEM_CONFORMER_DIVERSEORDER>
1
3
20
31
32
26
13
7
15
19
14
9
27
10
8
17
22
5
6
29
16
30
25
23
28
2
21
11
4
18
24
12

> <PUBCHEM_MMFF94_PARTIAL_CHARGES>
19
1 -0.28
10 -0.15
11 0.14
12 -0.15
13 -0.15
14 0.36
15 0.66
16 0.06
2 -0.15
20 0.15
21 0.15
25 0.15
26 0.15
3 -0.57
4 -0.56
5 0.62
6 -0.14
7 -0.14
9 -0.15

> <PUBCHEM_EFFECTIVE_ROTOR_COUNT>
4

> <PUBCHEM_PHARMACOPHORE_FEATURES>
3
1 3 acceptor
1 4 acceptor
6 6 7 9 10 12 13 rings

> <PUBCHEM_HEAVY_ATOM_COUNT>
16

> <PUBCHEM_ATOM_DEF_STEREO_COUNT>
0

> <PUBCHEM_ATOM_UDEF_STEREO_COUNT>
1

> <PUBCHEM_BOND_DEF_STEREO_COUNT>
0

> <PUBCHEM_BOND_UDEF_STEREO_COUNT>
0

> <PUBCHEM_ISOTOPIC_ATOM_COUNT>
0

> <PUBCHEM_COMPONENT_COUNT>
1

> <PUBCHEM_CACTVS_TAUTO_COUNT>
1

> <PUBCHEM_CONFORMER_ID>
0008E41A00000001

> <PUBCHEM_MMFF94_ENERGY>
41.5493

> <PUBCHEM_FEATURE_SELFOVERLAP>
15.223

> <PUBCHEM_SHAPE_FINGERPRINT>
11578080 2 13385499202751633587
12326174 3 17682956596304257115
12423570 1 17399753191920648247
12808571 1 18058732377730114057
13024252 1 12252718474874724961
14142880 1 17968928828980979013
14817 1 9926294068309781887
16945 1 18193548085246942923
19837323 101 18270676575346101550
20645476 183 17843667873509767205
20653085 51 18131639980055555452
21296965 12 18186240610625165909
21339142 36 17619896696916563030
21524375 3 18259985946516637216
22802520 49 15051145966334698773
23419403 2 16695046653289512591
23557571 272 17906735061620206516
23559900 14 18272099293081977124
25 1 18265626381211860404
430814 3 18341329985655850457
576247 118 17407378695674809327
5845 1 9799694813529124194
7364860 26 17977105652232874491
74978 22 18411699915840541616
81228 2 17900266599990356130

> <PUBCHEM_SHAPE_MULTIPOLES>
306.68
4.34
2.8
1.68
3.17
1.97
0.09
-4.25
0.47
-0.14
-0.16
-0.51
0.2
-0.25

> <PUBCHEM_SHAPE_SELFOVERLAP>
634.514

> <PUBCHEM_SHAPE_VOLUME>
174.3

> <PUBCHEM_COORDINATE_TYPE>
2
5
10

$$$$
