5484218
  -OEChem-11202015263D

 49 51  0     1  0  0  0  0  0999 V2000
    0.2986   -1.0057    1.2206 O   0  0  0  0  0  0  0  0  0  0  0  0
    2.0432   -3.0761    1.7814 O   0  0  0  0  0  0  0  0  0  0  0  0
   -2.1498    1.3924   -0.1367 O   0  0  0  0  0  0  0  0  0  0  0  0
    4.4609   -3.2891    0.4323 O   0  0  0  0  0  0  0  0  0  0  0  0
    4.7037   -2.4182   -2.1878 O   0  0  0  0  0  0  0  0  0  0  0  0
   -2.0043   -2.5379    0.9290 O   0  0  0  0  0  0  0  0  0  0  0  0
   -4.5159   -2.8187    0.2583 O   0  0  0  0  0  0  0  0  0  0  0  0
    5.7490   -0.2943   -0.9324 O   0  0  0  0  0  0  0  0  0  0  0  0
   -6.7164    1.0538   -1.3869 O   0  0  0  0  0  0  0  0  0  0  0  0
    2.9063    2.9695   -1.6359 O   0  0  0  0  0  0  0  0  0  0  0  0
    3.2879    4.4618    0.6769 O   0  0  0  0  0  0  0  0  0  0  0  0
    2.4041   -2.0921    0.8128 C   0  0  1  0  0  0  0  0  0  0  0  0
    3.3384   -2.7126   -0.2371 C   0  0  1  0  0  0  0  0  0  0  0  0
    1.1248   -1.5332    0.1876 C   0  0  0  0  0  0  0  0  0  0  0  0
    3.8265   -1.7282   -1.3091 C   0  0  1  0  0  0  0  0  0  0  0  0
   -0.8677   -0.4711    0.7173 C   0  0  0  0  0  0  0  0  0  0  0  0
   -0.9839    0.8157    0.3418 C   0  0  0  0  0  0  0  0  0  0  0  0
   -3.2805   -0.7441    0.0832 C   0  0  0  0  0  0  0  0  0  0  0  0
   -2.0501   -1.3589    0.6045 C   0  0  0  0  0  0  0  0  0  0  0  0
   -3.2655    0.6057   -0.2613 C   0  0  0  0  0  0  0  0  0  0  0  0
    0.1364    1.7694    0.4266 C   0  0  0  0  0  0  0  0  0  0  0  0
   -4.4482   -1.4970   -0.0640 C   0  0  0  0  0  0  0  0  0  0  0  0
    4.5678   -0.5465   -0.7163 C   0  0  0  0  0  0  0  0  0  0  0  0
   -4.4204    1.2126   -0.7556 C   0  0  0  0  0  0  0  0  0  0  0  0
    1.0044    1.9245   -0.6545 C   0  0  0  0  0  0  0  0  0  0  0  0
   -5.6017   -0.8879   -0.5593 C   0  0  0  0  0  0  0  0  0  0  0  0
    0.3293    2.5179    1.5880 C   0  0  0  0  0  0  0  0  0  0  0  0
   -5.5882    0.4642   -0.9044 C   0  0  0  0  0  0  0  0  0  0  0  0
    2.0645    2.8277   -0.5744 C   0  0  0  0  0  0  0  0  0  0  0  0
    1.3896    3.4207    1.6682 C   0  0  0  0  0  0  0  0  0  0  0  0
    2.2571    3.5757    0.5870 C   0  0  0  0  0  0  0  0  0  0  0  0
    2.9206   -1.3104    1.3807 H   0  0  0  0  0  0  0  0  0  0  0  0
    2.8362   -3.5567   -0.7249 H   0  0  0  0  0  0  0  0  0  0  0  0
    1.3634   -0.7614   -0.5455 H   0  0  0  0  0  0  0  0  0  0  0  0
    0.5848   -2.3447   -0.3175 H   0  0  0  0  0  0  0  0  0  0  0  0
    3.0004   -1.3413   -1.9113 H   0  0  0  0  0  0  0  0  0  0  0  0
    1.4390   -2.6542    2.4161 H   0  0  0  0  0  0  0  0  0  0  0  0
    4.9018   -2.5874    0.9407 H   0  0  0  0  0  0  0  0  0  0  0  0
    3.9665    0.1253   -0.0813 H   0  0  0  0  0  0  0  0  0  0  0  0
   -4.4122    2.2657   -1.0250 H   0  0  0  0  0  0  0  0  0  0  0  0
    0.8574    1.3535   -1.5686 H   0  0  0  0  0  0  0  0  0  0  0  0
   -0.3390    2.4084    2.4388 H   0  0  0  0  0  0  0  0  0  0  0  0
   -6.5114   -1.4727   -0.6745 H   0  0  0  0  0  0  0  0  0  0  0  0
    5.4048   -2.8261   -1.6512 H   0  0  0  0  0  0  0  0  0  0  0  0
    1.5280    3.9974    2.5790 H   0  0  0  0  0  0  0  0  0  0  0  0
   -3.6594   -3.1338    0.5849 H   0  0  0  0  0  0  0  0  0  0  0  0
   -7.4274    0.3912   -1.4240 H   0  0  0  0  0  0  0  0  0  0  0  0
    3.5807    3.6318   -1.4052 H   0  0  0  0  0  0  0  0  0  0  0  0
    3.2643    4.8875    1.5511 H   0  0  0  0  0  0  0  0  0  0  0  0
  1 14  1  0  0  0  0
  1 16  1  0  0  0  0
  2 12  1  0  0  0  0
  2 37  1  0  0  0  0
  3 17  1  0  0  0  0
  3 20  1  0  0  0  0
  4 13  1  0  0  0  0
  4 38  1  0  0  0  0
  5 15  1  0  0  0  0
  5 44  1  0  0  0  0
  6 19  2  0  0  0  0
  7 22  1  0  0  0  0
  7 46  1  0  0  0  0
  8 23  2  0  0  0  0
  9 28  1  0  0  0  0
  9 47  1  0  0  0  0
 10 29  1  0  0  0  0
 10 48  1  0  0  0  0
 11 31  1  0  0  0  0
 11 49  1  0  0  0  0
 12 13  1  0  0  0  0
 12 14  1  0  0  0  0
 12 32  1  0  0  0  0
 13 15  1  0  0  0  0
 13 33  1  0  0  0  0
 14 34  1  0  0  0  0
 14 35  1  0  0  0  0
 15 23  1  0  0  0  0
 15 36  1  0  0  0  0
 16 17  2  0  0  0  0
 16 19  1  0  0  0  0
 17 21  1  0  0  0  0
 18 19  1  0  0  0  0
 18 20  1  0  0  0  0
 18 22  2  0  0  0  0
 20 24  2  0  0  0  0
 21 25  2  0  0  0  0
 21 27  1  0  0  0  0
 22 26  1  0  0  0  0
 23 39  1  0  0  0  0
 24 28  1  0  0  0  0
 24 40  1  0  0  0  0
 25 29  1  0  0  0  0
 25 41  1  0  0  0  0
 26 28  2  0  0  0  0
 26 43  1  0  0  0  0
 27 30  2  0  0  0  0
 27 42  1  0  0  0  0
 29 31  2  0  0  0  0
 30 31  1  0  0  0  0
 30 45  1  0  0  0  0
M  END
> <PUBCHEM_COMPOUND_CID>
5484218

> <PUBCHEM_CONFORMER_RMSD>
1

> <PUBCHEM_CONFORMER_DIVERSEORDER>
1
130
125
8
37
68
69
7
88
30
119
63
31
120
73
107
75
16
91
59
100
41
78
27
123
24
114
79
5
112
46
129
87
82
20
4
77
54
60
34
12
25
42
117
81
74
124
99
70
45
39
84
115
13
61
118
10
55
105
64
53
127
28
97
95
23
51
86
38
113
90
47
103
92
26
6
83
66
71
67
76
96
80
65
9
122
36
110
111
3
94
22
131
44
109
11
15
57
52
106
35
32
40
108
62
14
56
21
2
102
104
29
48
116
101
126
18
85
17
50
72
19
58
128
121
49
98
33
89
43
93

> <PUBCHEM_MMFF94_PARTIAL_CHARGES>
44
1 -0.36
10 -0.53
11 -0.53
12 0.28
13 0.28
14 0.28
15 0.34
16 0.09
17 0.05
18 0.09
19 0.47
2 -0.68
20 0.08
21 0.03
22 0.08
23 0.45
24 -0.15
25 -0.15
26 -0.15
27 -0.15
28 0.08
29 0.08
3 -0.16
30 -0.15
31 0.08
37 0.4
38 0.4
39 0.06
4 -0.68
40 0.15
41 0.15
42 0.15
43 0.15
44 0.4
45 0.15
46 0.45
47 0.45
48 0.45
49 0.45
5 -0.68
6 -0.57
7 -0.53
8 -0.57
9 -0.53

> <PUBCHEM_EFFECTIVE_ROTOR_COUNT>
7

> <PUBCHEM_PHARMACOPHORE_FEATURES>
17
1 1 acceptor
1 10 donor
1 11 donor
1 2 acceptor
1 2 donor
1 3 acceptor
1 4 acceptor
1 4 donor
1 5 acceptor
1 5 donor
1 6 acceptor
1 7 donor
1 8 acceptor
1 9 donor
6 18 20 22 24 26 28 rings
6 21 25 27 29 30 31 rings
6 3 16 17 18 19 20 rings

> <PUBCHEM_HEAVY_ATOM_COUNT>
31

> <PUBCHEM_ATOM_DEF_STEREO_COUNT>
0

> <PUBCHEM_ATOM_UDEF_STEREO_COUNT>
3

> <PUBCHEM_BOND_DEF_STEREO_COUNT>
0

> <PUBCHEM_BOND_UDEF_STEREO_COUNT>
0

> <PUBCHEM_ISOTOPIC_ATOM_COUNT>
0

> <PUBCHEM_COMPONENT_COUNT>
1

> <PUBCHEM_CACTVS_TAUTO_COUNT>
998

> <PUBCHEM_CONFORMER_ID>
0053AEBA00000001

> <PUBCHEM_MMFF94_ENERGY>
88.0826

> <PUBCHEM_FEATURE_SELFOVERLAP>
86.347

> <PUBCHEM_SHAPE_FINGERPRINT>
10050765 1 18338227267987228383
10675989 125 18269840968137829440
1100329 8 18125159334426815705
12156800 1 14926995594964502668
12166972 35 17749675082870135502
12788726 201 17975977557497998050
13540713 4 18260543477097232235
13757389 114 17338178311598824064
140371 6 18200033928694089955
14790565 3 17474676044267764633
14931854 50 18264511580122880444
15475509 8 17914342273435331009
15775530 1 17896896549696630651
15927050 60 17910672400043182174
1813 80 17916863513147225343
20028762 73 16971678599192414611
20600515 1 17979325626212589072
20642791 239 18114476560443000154
20775438 99 18124292047159141183
22393880 68 18334291011410708463
23366157 5 17968643991429490987
23559900 14 18411692188994000619
238918 7 17617947267217017602
24771750 20 18118416260882087900
3298306 158 18124597737018333256
350125 39 18263079925842456189
4280585 95 18264198137013787258
463206 1 18199752625289185438
5081480 168 18263347153884736413
5265222 85 17688595279075375324
532947 4 18268712886576562336
59755656 215 18336539525126376540
6669772 16 17841993579262384172
6823239 73 18340476816151400370
9981440 41 17899968624144881745

> <PUBCHEM_SHAPE_MULTIPOLES>
573.4
12.02
5.03
1.45
9.99
2.69
0.08
-5.19
6.25
-6.91
-1.26
-1.05
0.04
1.34

> <PUBCHEM_SHAPE_SELFOVERLAP>
1248.264

> <PUBCHEM_SHAPE_VOLUME>
310.1

> <PUBCHEM_COORDINATE_TYPE>
2
5
10

$$$$
