91720431
  -OEChem-11202016023D

 57 57  0     1  0  0  0  0  0999 V2000
    1.1185   -1.3201    1.2668 O   0  0  0  0  0  0  0  0  0  0  0  0
    0.1862    0.8510   -1.3069 O   0  0  0  0  0  0  0  0  0  0  0  0
    0.8082    0.8804    1.8675 O   0  0  0  0  0  0  0  0  0  0  0  0
    1.0014    2.9963   -1.1278 O   0  0  0  0  0  0  0  0  0  0  0  0
   -0.6436   -2.9500    1.4802 C   0  0  0  0  0  0  0  0  0  0  0  0
   -1.1596   -2.6879    0.0610 C   0  0  0  0  0  0  0  0  0  0  0  0
   -4.1369    2.3507    0.6327 C   0  0  0  0  0  0  0  0  0  0  0  0
    0.0233   -1.7131    2.0891 C   0  0  1  0  0  0  0  0  0  0  0  0
   -3.3009    2.1135   -0.6385 C   0  0  0  0  0  0  0  0  0  0  0  0
   -1.7959   -3.9435   -0.5387 C   0  0  0  0  0  0  0  0  0  0  0  0
   -1.9065    1.5533   -0.3550 C   0  0  0  0  0  0  0  0  0  0  0  0
   -2.2748   -3.6952   -1.9688 C   0  0  0  0  0  0  0  0  0  0  0  0
   -3.4762    3.3447    1.5892 C   0  0  0  0  0  0  0  0  0  0  0  0
   -5.5317    2.8524    0.2505 C   0  0  0  0  0  0  0  0  0  0  0  0
    0.5405   -2.0003    3.4924 C   0  0  0  0  0  0  0  0  0  0  0  0
   -1.1097    1.3611   -1.6387 C   0  0  0  0  0  0  0  0  0  0  0  0
   -2.8775   -4.9500   -2.5803 C   0  0  0  0  0  0  0  0  0  0  0  0
    1.4018    0.0103    1.2495 C   0  0  0  0  0  0  0  0  0  0  0  0
    2.5574    0.2877    0.3595 C   0  0  0  0  0  0  0  0  0  0  0  0
    2.4351    1.1299   -0.7454 C   0  0  0  0  0  0  0  0  0  0  0  0
    1.1685    1.7723   -1.0712 C   0  0  0  0  0  0  0  0  0  0  0  0
    3.7830   -0.3133    0.6462 C   0  0  0  0  0  0  0  0  0  0  0  0
    3.5385    1.3713   -1.5639 C   0  0  0  0  0  0  0  0  0  0  0  0
    4.8866   -0.0719   -0.1722 C   0  0  0  0  0  0  0  0  0  0  0  0
    4.7643    0.7704   -1.2772 C   0  0  0  0  0  0  0  0  0  0  0  0
   -1.4715   -3.2787    2.1198 H   0  0  0  0  0  0  0  0  0  0  0  0
    0.0846   -3.7702    1.4377 H   0  0  0  0  0  0  0  0  0  0  0  0
   -1.8979   -1.8779    0.0831 H   0  0  0  0  0  0  0  0  0  0  0  0
   -0.3361   -2.3583   -0.5836 H   0  0  0  0  0  0  0  0  0  0  0  0
   -4.2542    1.3948    1.1589 H   0  0  0  0  0  0  0  0  0  0  0  0
   -0.7324   -0.9183    2.1393 H   0  0  0  0  0  0  0  0  0  0  0  0
   -3.8362    1.4159   -1.2953 H   0  0  0  0  0  0  0  0  0  0  0  0
   -3.2054    3.0562   -1.1928 H   0  0  0  0  0  0  0  0  0  0  0  0
   -2.6410   -4.2615    0.0837 H   0  0  0  0  0  0  0  0  0  0  0  0
   -1.0656   -4.7619   -0.5349 H   0  0  0  0  0  0  0  0  0  0  0  0
   -1.3471    2.2269    0.3026 H   0  0  0  0  0  0  0  0  0  0  0  0
   -1.9807    0.6004    0.1817 H   0  0  0  0  0  0  0  0  0  0  0  0
   -3.0229   -2.8940   -1.9767 H   0  0  0  0  0  0  0  0  0  0  0  0
   -1.4357   -3.3614   -2.5905 H   0  0  0  0  0  0  0  0  0  0  0  0
   -3.2385    4.2862    1.0827 H   0  0  0  0  0  0  0  0  0  0  0  0
   -2.5528    2.9397    2.0136 H   0  0  0  0  0  0  0  0  0  0  0  0
   -4.1399    3.5730    2.4305 H   0  0  0  0  0  0  0  0  0  0  0  0
   -5.4796    3.8143   -0.2709 H   0  0  0  0  0  0  0  0  0  0  0  0
   -6.1564    2.9827    1.1407 H   0  0  0  0  0  0  0  0  0  0  0  0
   -6.0358    2.1365   -0.4072 H   0  0  0  0  0  0  0  0  0  0  0  0
    1.0006   -1.1073    3.9283 H   0  0  0  0  0  0  0  0  0  0  0  0
   -0.2669   -2.3295    4.1536 H   0  0  0  0  0  0  0  0  0  0  0  0
    1.3155   -2.7746    3.4727 H   0  0  0  0  0  0  0  0  0  0  0  0
   -1.5957    0.6152   -2.2768 H   0  0  0  0  0  0  0  0  0  0  0  0
   -1.0379    2.2869   -2.2212 H   0  0  0  0  0  0  0  0  0  0  0  0
   -2.1424   -5.7603   -2.6180 H   0  0  0  0  0  0  0  0  0  0  0  0
   -3.2145   -4.7494   -3.6021 H   0  0  0  0  0  0  0  0  0  0  0  0
   -3.7393   -5.2942   -1.9996 H   0  0  0  0  0  0  0  0  0  0  0  0
    3.8941   -0.9693    1.5059 H   0  0  0  0  0  0  0  0  0  0  0  0
    3.4568    2.0245   -2.4290 H   0  0  0  0  0  0  0  0  0  0  0  0
    5.8412   -0.5392    0.0513 H   0  0  0  0  0  0  0  0  0  0  0  0
    5.6235    0.9582   -1.9145 H   0  0  0  0  0  0  0  0  0  0  0  0
  1  8  1  0  0  0  0
  1 18  1  0  0  0  0
  2 16  1  0  0  0  0
  2 21  1  0  0  0  0
  3 18  2  0  0  0  0
  4 21  2  0  0  0  0
  5  6  1  0  0  0  0
  5  8  1  0  0  0  0
  5 26  1  0  0  0  0
  5 27  1  0  0  0  0
  6 10  1  0  0  0  0
  6 28  1  0  0  0  0
  6 29  1  0  0  0  0
  7  9  1  0  0  0  0
  7 13  1  0  0  0  0
  7 14  1  0  0  0  0
  7 30  1  0  0  0  0
  8 15  1  0  0  0  0
  8 31  1  0  0  0  0
  9 11  1  0  0  0  0
  9 32  1  0  0  0  0
  9 33  1  0  0  0  0
 10 12  1  0  0  0  0
 10 34  1  0  0  0  0
 10 35  1  0  0  0  0
 11 16  1  0  0  0  0
 11 36  1  0  0  0  0
 11 37  1  0  0  0  0
 12 17  1  0  0  0  0
 12 38  1  0  0  0  0
 12 39  1  0  0  0  0
 13 40  1  0  0  0  0
 13 41  1  0  0  0  0
 13 42  1  0  0  0  0
 14 43  1  0  0  0  0
 14 44  1  0  0  0  0
 14 45  1  0  0  0  0
 15 46  1  0  0  0  0
 15 47  1  0  0  0  0
 15 48  1  0  0  0  0
 16 49  1  0  0  0  0
 16 50  1  0  0  0  0
 17 51  1  0  0  0  0
 17 52  1  0  0  0  0
 17 53  1  0  0  0  0
 18 19  1  0  0  0  0
 19 20  1  0  0  0  0
 19 22  2  0  0  0  0
 20 21  1  0  0  0  0
 20 23  2  0  0  0  0
 22 24  1  0  0  0  0
 22 54  1  0  0  0  0
 23 25  1  0  0  0  0
 23 55  1  0  0  0  0
 24 25  2  0  0  0  0
 24 56  1  0  0  0  0
 25 57  1  0  0  0  0
M  END
> <PUBCHEM_COMPOUND_CID>
91720431

> <PUBCHEM_CONFORMER_RMSD>
1.4

> <PUBCHEM_CONFORMER_DIVERSEORDER>
1
24
93
58
29
82
28
97
10
60
50
68
56
39
36
92
20
5
86
8
25
66
75
15
22
70
4
38
37
17
18
63
52
61
83
49
11
51
72
90
47
57
67
91
13
12
44
2
84
27
77
32
85
30
98
45
46
41
35
54
76
53
65
6
79
78
40
55
89
31
96
87
19
3
95
88
71
43
74
16
73
81
14
23
69
94
59
64
9
33
42
48
80
26
7
62
34
21

> <PUBCHEM_MMFF94_PARTIAL_CHARGES>
18
1 -0.43
16 0.28
18 0.63
19 0.09
2 -0.43
20 0.09
21 0.63
22 -0.15
23 -0.15
24 -0.15
25 -0.15
3 -0.57
4 -0.57
54 0.15
55 0.15
56 0.15
57 0.15
8 0.28

> <PUBCHEM_EFFECTIVE_ROTOR_COUNT>
13

> <PUBCHEM_PHARMACOPHORE_FEATURES>
6
1 17 hydrophobe
1 3 acceptor
1 4 acceptor
3 7 13 14 hydrophobe
4 5 6 10 12 hydrophobe
6 19 20 22 23 24 25 rings

> <PUBCHEM_HEAVY_ATOM_COUNT>
25

> <PUBCHEM_ATOM_DEF_STEREO_COUNT>
0

> <PUBCHEM_ATOM_UDEF_STEREO_COUNT>
1

> <PUBCHEM_BOND_DEF_STEREO_COUNT>
0

> <PUBCHEM_BOND_UDEF_STEREO_COUNT>
0

> <PUBCHEM_ISOTOPIC_ATOM_COUNT>
0

> <PUBCHEM_COMPONENT_COUNT>
1

> <PUBCHEM_CACTVS_TAUTO_COUNT>
1

> <PUBCHEM_CONFORMER_ID>
05778AEF00000001

> <PUBCHEM_MMFF94_ENERGY>
46.479

> <PUBCHEM_FEATURE_SELFOVERLAP>
30.447

> <PUBCHEM_SHAPE_FINGERPRINT>
11115154 58 17835798978217908431
11421498 54 18054796074489963297
11488393 25 17468485815288219938
11578080 2 18269837670240723680
12715332 25 18114460051279927624
12788726 201 18194973056948936583
17138139 8 18193815232919532511
20775438 99 16034615471971402470
21197605 99 17750541571015404881
21344244 181 17985845743055548574
22620623 9 18268163100782305942
229495 10 16626852944716219264
23558518 356 17899990613829460404
266924 87 17323257264647725164
38695281 34 18265054617790356061
59025328 239 17337877474750917535
6438718 38 18263100931677700730
81228 2 17679861789163436848

> <PUBCHEM_SHAPE_MULTIPOLES>
491.01
8.38
5.88
2.67
0.23
7.15
-1.33
-7.29
1.95
-9.92
2.64
-0.24
2.4
-3.93

> <PUBCHEM_SHAPE_SELFOVERLAP>
976.67

> <PUBCHEM_SHAPE_VOLUME>
291.2

> <PUBCHEM_COORDINATE_TYPE>
2
5
10

$$$$
