12895787
  -OEChem-11202015503D

 98102  0     1  0  0  0  0  0999 V2000
    5.2774    0.0250   -1.2514 O   0  0  0  0  0  0  0  0  0  0  0  0
    6.6873    1.0753    0.2826 O   0  0  0  0  0  0  0  0  0  0  0  0
    6.7194   -2.3835   -0.8943 O   0  0  0  0  0  0  0  0  0  0  0  0
    9.5088   -1.8860   -0.0865 O   0  0  0  0  0  0  0  0  0  0  0  0
    9.6025   -0.0844    2.1720 O   0  0  0  0  0  0  0  0  0  0  0  0
    6.7799    3.0683    2.1736 O   0  0  0  0  0  0  0  0  0  0  0  0
   -3.4304    0.2886   -0.5190 C   0  0  1  0  0  0  0  0  0  0  0  0
   -2.5074   -0.4086    0.5000 C   0  0  2  0  0  0  0  0  0  0  0  0
   -1.1503   -0.8093   -0.0869 C   0  0  1  0  0  0  0  0  0  0  0  0
   -0.4312    0.4541   -0.6435 C   0  0  1  0  0  0  0  0  0  0  0  0
   -4.6815    0.4829    0.3721 C   0  0  2  0  0  0  0  0  0  0  0  0
   -2.7404    1.5900   -0.9513 C   0  0  0  0  0  0  0  0  0  0  0  0
    0.9611    0.0867   -1.2969 C   0  0  2  0  0  0  0  0  0  0  0  0
   -3.3929   -1.4907    1.1104 C   0  0  0  0  0  0  0  0  0  0  0  0
   -1.3502    1.3172   -1.5514 C   0  0  0  0  0  0  0  0  0  0  0  0
   -4.7952   -0.8550    1.1402 C   0  0  0  0  0  0  0  0  0  0  0  0
   -0.2764   -1.4891    0.9778 C   0  0  0  0  0  0  0  0  0  0  0  0
   -5.9705    0.8691   -0.3389 C   0  0  1  0  0  0  0  0  0  0  0  0
   -3.7596   -0.5725   -1.7638 C   0  0  0  0  0  0  0  0  0  0  0  0
    1.7374   -0.8975   -0.4106 C   0  0  0  0  0  0  0  0  0  0  0  0
    1.7893    1.3975   -1.4497 C   0  0  0  0  0  0  0  0  0  0  0  0
    1.1682   -1.5742    0.6020 C   0  0  0  0  0  0  0  0  0  0  0  0
    0.7753   -0.5668   -2.6874 C   0  0  0  0  0  0  0  0  0  0  0  0
    3.2066   -1.0857   -0.7111 C   0  0  0  0  0  0  0  0  0  0  0  0
    3.2567    1.1765   -1.8141 C   0  0  0  0  0  0  0  0  0  0  0  0
   -7.1898    0.5021    0.5345 C   0  0  0  0  0  0  0  0  0  0  0  0
    3.9402    0.2486   -0.8159 C   0  0  2  0  0  0  0  0  0  0  0  0
   -5.9483    2.3592   -0.6959 C   0  0  0  0  0  0  0  0  0  0  0  0
   -8.5322    0.9195   -0.0785 C   0  0  0  0  0  0  0  0  0  0  0  0
   -9.7587    0.5406    0.7860 C   0  0  2  0  0  0  0  0  0  0  0  0
    6.1586   -0.1771   -0.1471 C   0  0  2  0  0  0  0  0  0  0  0  0
   -9.7959   -0.9564    1.2088 C   0  0  0  0  0  0  0  0  0  0  0  0
  -11.0317    0.9961    0.0580 C   0  0  0  0  0  0  0  0  0  0  0  0
    7.2837   -1.1045   -0.6063 C   0  0  1  0  0  0  0  0  0  0  0  0
    8.3562   -1.2544    0.4729 C   0  0  2  0  0  0  0  0  0  0  0  0
   -9.7646   -1.9355    0.0321 C   0  0  0  0  0  0  0  0  0  0  0  0
  -11.0009   -1.2693    2.1041 C   0  0  0  0  0  0  0  0  0  0  0  0
    7.5609    0.9451    1.4055 C   0  0  1  0  0  0  0  0  0  0  0  0
    8.7827    0.1071    1.0219 C   0  0  1  0  0  0  0  0  0  0  0  0
    7.9561    2.3511    1.8462 C   0  0  0  0  0  0  0  0  0  0  0  0
   -2.2962    0.3051    1.3145 H   0  0  0  0  0  0  0  0  0  0  0  0
   -1.3034   -1.5309   -0.8971 H   0  0  0  0  0  0  0  0  0  0  0  0
   -0.2153    1.0859    0.2337 H   0  0  0  0  0  0  0  0  0  0  0  0
   -4.4592    1.2536    1.1265 H   0  0  0  0  0  0  0  0  0  0  0  0
   -2.6370    2.2751   -0.1008 H   0  0  0  0  0  0  0  0  0  0  0  0
   -3.3078    2.1126   -1.7229 H   0  0  0  0  0  0  0  0  0  0  0  0
   -3.3948   -2.3992    0.4975 H   0  0  0  0  0  0  0  0  0  0  0  0
   -3.0622   -1.7704    2.1159 H   0  0  0  0  0  0  0  0  0  0  0  0
   -0.8717    2.2829   -1.7505 H   0  0  0  0  0  0  0  0  0  0  0  0
   -1.4863    0.8367   -2.5248 H   0  0  0  0  0  0  0  0  0  0  0  0
   -5.1322   -0.6949    2.1701 H   0  0  0  0  0  0  0  0  0  0  0  0
   -5.4731   -1.5703    0.6633 H   0  0  0  0  0  0  0  0  0  0  0  0
   -0.3442   -0.9539    1.9331 H   0  0  0  0  0  0  0  0  0  0  0  0
   -0.6536   -2.5034    1.1559 H   0  0  0  0  0  0  0  0  0  0  0  0
   -6.0908    0.3071   -1.2705 H   0  0  0  0  0  0  0  0  0  0  0  0
   -2.8628   -0.9356   -2.2729 H   0  0  0  0  0  0  0  0  0  0  0  0
   -4.3166    0.0093   -2.5069 H   0  0  0  0  0  0  0  0  0  0  0  0
   -4.3593   -1.4546   -1.5183 H   0  0  0  0  0  0  0  0  0  0  0  0
    1.7582    1.9633   -0.5084 H   0  0  0  0  0  0  0  0  0  0  0  0
    1.3416    2.0450   -2.2130 H   0  0  0  0  0  0  0  0  0  0  0  0
    1.7749   -2.2421    1.2089 H   0  0  0  0  0  0  0  0  0  0  0  0
    0.1074   -1.4332   -2.6435 H   0  0  0  0  0  0  0  0  0  0  0  0
    1.7213   -0.9195   -3.1118 H   0  0  0  0  0  0  0  0  0  0  0  0
    0.3624    0.1397   -3.4147 H   0  0  0  0  0  0  0  0  0  0  0  0
    3.6898   -1.7112    0.0496 H   0  0  0  0  0  0  0  0  0  0  0  0
    3.3218   -1.6473   -1.6468 H   0  0  0  0  0  0  0  0  0  0  0  0
    3.7817    2.1395   -1.8378 H   0  0  0  0  0  0  0  0  0  0  0  0
    3.3463    0.7725   -2.8301 H   0  0  0  0  0  0  0  0  0  0  0  0
   -7.2218   -0.5774    0.6782 H   0  0  0  0  0  0  0  0  0  0  0  0
   -7.0921    0.9655    1.5244 H   0  0  0  0  0  0  0  0  0  0  0  0
    3.9374    0.7554    0.1601 H   0  0  0  0  0  0  0  0  0  0  0  0
   -5.1482    2.6180   -1.3831 H   0  0  0  0  0  0  0  0  0  0  0  0
   -6.8607    2.6611   -1.2179 H   0  0  0  0  0  0  0  0  0  0  0  0
   -5.8523    2.9829    0.1991 H   0  0  0  0  0  0  0  0  0  0  0  0
   -8.5593    2.0074   -0.2036 H   0  0  0  0  0  0  0  0  0  0  0  0
   -8.6279    0.4848   -1.0810 H   0  0  0  0  0  0  0  0  0  0  0  0
   -9.6928    1.1318    1.7104 H   0  0  0  0  0  0  0  0  0  0  0  0
    5.6197   -0.6493    0.6860 H   0  0  0  0  0  0  0  0  0  0  0  0
   -8.9131   -1.1553    1.8285 H   0  0  0  0  0  0  0  0  0  0  0  0
  -11.1865    0.4414   -0.8726 H   0  0  0  0  0  0  0  0  0  0  0  0
  -10.9685    2.0598   -0.1976 H   0  0  0  0  0  0  0  0  0  0  0  0
  -11.9200    0.8736    0.6845 H   0  0  0  0  0  0  0  0  0  0  0  0
    7.7267   -0.7369   -1.5395 H   0  0  0  0  0  0  0  0  0  0  0  0
    8.0104   -1.9105    1.2803 H   0  0  0  0  0  0  0  0  0  0  0  0
   -9.7529   -2.9690    0.3958 H   0  0  0  0  0  0  0  0  0  0  0  0
   -8.8723   -1.8023   -0.5858 H   0  0  0  0  0  0  0  0  0  0  0  0
  -10.6437   -1.8232   -0.6101 H   0  0  0  0  0  0  0  0  0  0  0  0
  -10.9070   -2.2732    2.5330 H   0  0  0  0  0  0  0  0  0  0  0  0
  -11.0661   -0.5593    2.9351 H   0  0  0  0  0  0  0  0  0  0  0  0
  -11.9431   -1.2395    1.5479 H   0  0  0  0  0  0  0  0  0  0  0  0
    7.0038    0.4767    2.2284 H   0  0  0  0  0  0  0  0  0  0  0  0
    9.3875    0.6334    0.2732 H   0  0  0  0  0  0  0  0  0  0  0  0
    6.3140   -2.7250   -0.0790 H   0  0  0  0  0  0  0  0  0  0  0  0
    8.6094    2.3284    2.7236 H   0  0  0  0  0  0  0  0  0  0  0  0
    8.4583    2.8875    1.0342 H   0  0  0  0  0  0  0  0  0  0  0  0
    9.8299   -1.3345   -0.8202 H   0  0  0  0  0  0  0  0  0  0  0  0
    9.0708   -0.5386    2.8476 H   0  0  0  0  0  0  0  0  0  0  0  0
    7.0542    3.9602    2.4470 H   0  0  0  0  0  0  0  0  0  0  0  0
  1 27  1  0  0  0  0
  1 31  1  0  0  0  0
  2 31  1  0  0  0  0
  2 38  1  0  0  0  0
  3 34  1  0  0  0  0
  3 93  1  0  0  0  0
  4 35  1  0  0  0  0
  4 96  1  0  0  0  0
  5 39  1  0  0  0  0
  5 97  1  0  0  0  0
  6 40  1  0  0  0  0
  6 98  1  0  0  0  0
  7  8  1  0  0  0  0
  7 11  1  0  0  0  0
  7 12  1  0  0  0  0
  7 19  1  0  0  0  0
  8  9  1  0  0  0  0
  8 14  1  0  0  0  0
  8 41  1  0  0  0  0
  9 10  1  0  0  0  0
  9 17  1  0  0  0  0
  9 42  1  0  0  0  0
 10 13  1  0  0  0  0
 10 15  1  0  0  0  0
 10 43  1  0  0  0  0
 11 16  1  0  0  0  0
 11 18  1  0  0  0  0
 11 44  1  0  0  0  0
 12 15  1  0  0  0  0
 12 45  1  0  0  0  0
 12 46  1  0  0  0  0
 13 20  1  0  0  0  0
 13 21  1  0  0  0  0
 13 23  1  0  0  0  0
 14 16  1  0  0  0  0
 14 47  1  0  0  0  0
 14 48  1  0  0  0  0
 15 49  1  0  0  0  0
 15 50  1  0  0  0  0
 16 51  1  0  0  0  0
 16 52  1  0  0  0  0
 17 22  1  0  0  0  0
 17 53  1  0  0  0  0
 17 54  1  0  0  0  0
 18 26  1  0  0  0  0
 18 28  1  0  0  0  0
 18 55  1  0  0  0  0
 19 56  1  0  0  0  0
 19 57  1  0  0  0  0
 19 58  1  0  0  0  0
 20 22  2  0  0  0  0
 20 24  1  0  0  0  0
 21 25  1  0  0  0  0
 21 59  1  0  0  0  0
 21 60  1  0  0  0  0
 22 61  1  0  0  0  0
 23 62  1  0  0  0  0
 23 63  1  0  0  0  0
 23 64  1  0  0  0  0
 24 27  1  0  0  0  0
 24 65  1  0  0  0  0
 24 66  1  0  0  0  0
 25 27  1  0  0  0  0
 25 67  1  0  0  0  0
 25 68  1  0  0  0  0
 26 29  1  0  0  0  0
 26 69  1  0  0  0  0
 26 70  1  0  0  0  0
 27 71  1  0  0  0  0
 28 72  1  0  0  0  0
 28 73  1  0  0  0  0
 28 74  1  0  0  0  0
 29 30  1  0  0  0  0
 29 75  1  0  0  0  0
 29 76  1  0  0  0  0
 30 32  1  0  0  0  0
 30 33  1  0  0  0  0
 30 77  1  0  0  0  0
 31 34  1  0  0  0  0
 31 78  1  0  0  0  0
 32 36  1  0  0  0  0
 32 37  1  0  0  0  0
 32 79  1  0  0  0  0
 33 80  1  0  0  0  0
 33 81  1  0  0  0  0
 33 82  1  0  0  0  0
 34 35  1  0  0  0  0
 34 83  1  0  0  0  0
 35 39  1  0  0  0  0
 35 84  1  0  0  0  0
 36 85  1  0  0  0  0
 36 86  1  0  0  0  0
 36 87  1  0  0  0  0
 37 88  1  0  0  0  0
 37 89  1  0  0  0  0
 37 90  1  0  0  0  0
 38 39  1  0  0  0  0
 38 40  1  0  0  0  0
 38 91  1  0  0  0  0
 39 92  1  0  0  0  0
 40 94  1  0  0  0  0
 40 95  1  0  0  0  0
M  END
> <PUBCHEM_COMPOUND_CID>
12895787

> <PUBCHEM_CONFORMER_RMSD>
1.2

> <PUBCHEM_CONFORMER_DIVERSEORDER>
1
7
26
14
20
8
19
9
22
13
23
15
21
27
25
10
4
17
11
12
16
3
5
24
6
18
2

> <PUBCHEM_MMFF94_PARTIAL_CHARGES>
23
1 -0.56
13 0.14
17 0.14
2 -0.56
20 -0.28
22 -0.29
24 0.14
27 0.28
3 -0.68
31 0.56
34 0.28
35 0.28
38 0.28
39 0.28
4 -0.68
40 0.28
5 -0.68
6 -0.68
61 0.15
93 0.4
96 0.4
97 0.4
98 0.4

> <PUBCHEM_EFFECTIVE_ROTOR_COUNT>
11.2

> <PUBCHEM_PHARMACOPHORE_FEATURES>
19
1 1 acceptor
1 2 acceptor
1 28 hydrophobe
1 3 acceptor
1 3 donor
1 33 hydrophobe
1 4 acceptor
1 4 donor
1 5 acceptor
1 5 donor
1 6 acceptor
1 6 donor
3 32 36 37 hydrophobe
5 18 26 29 30 32 hydrophobe
5 7 8 11 14 16 rings
6 13 20 21 24 25 27 rings
6 2 31 34 35 38 39 rings
6 7 8 9 10 12 15 rings
6 9 10 13 17 20 22 rings

> <PUBCHEM_HEAVY_ATOM_COUNT>
40

> <PUBCHEM_ATOM_DEF_STEREO_COUNT>
14

> <PUBCHEM_ATOM_UDEF_STEREO_COUNT>
0

> <PUBCHEM_BOND_DEF_STEREO_COUNT>
0

> <PUBCHEM_BOND_UDEF_STEREO_COUNT>
0

> <PUBCHEM_ISOTOPIC_ATOM_COUNT>
0

> <PUBCHEM_COMPONENT_COUNT>
1

> <PUBCHEM_CACTVS_TAUTO_COUNT>
1

> <PUBCHEM_CONFORMER_ID>
00C4C62B00000001

> <PUBCHEM_MMFF94_ENERGY>
127.043

> <PUBCHEM_FEATURE_SELFOVERLAP>
96.593

> <PUBCHEM_SHAPE_FINGERPRINT>
10533779 47 18271812285301503374
10580692 12 18113902628933650446
11135926 11 17821720620550040455
11456790 92 17821738226032527641
11534866 41 17530682083485490906
12089408 11 17385733504292300773
12498461 61 17967531281383571259
12758862 56 17312828208043004801
12838862 33 17968087626146204847
13383668 1 14562521904235356179
13617811 41 13686297981337393938
13740195 50 18343864429547711083
13811026 1 18187372025755612155
15131766 46 17486754545715634736
15247644 1 15502377820333518297
15320294 125 16225765233557688754
15840311 113 17917714600167875628
16728433 110 18202846552900635033
1754911 235 9655574102483891785
17686467 74 18342740702968751641
19315958 150 17489593337759787191
20105231 36 16950563234795828882
21792934 111 18407759235606514564
21895431 317 17385436601107644355
232437 2 17385729088875918407
24893992 56 17458634440854541115
335352 9 17676780819842749191
3383291 50 17821729451208321978
3525247 94 18187083966810711315
397830 11 18270398421276091450
42767 2 12901540252783269603
4353968 344 17312817175015151519
437795 160 18334576893430020955
5381727 24 18187085062016529771
6081469 158 14923661982592943895
9663363 56 11602824618861756134

> <PUBCHEM_SHAPE_MULTIPOLES>
787.97
39.04
2.13
1.89
22.7
0.17
-0.4
-8.34
-20.82
0.45
-0.28
-3.65
0.55
3.01

> <PUBCHEM_SHAPE_SELFOVERLAP>
1634.928

> <PUBCHEM_SHAPE_VOLUME>
447.5

> <PUBCHEM_COORDINATE_TYPE>
2
5
10

$$$$
