90657506
  -OEChem-09092005393D

 39 40  0     1  0  0  0  0  0999 V2000
    0.9840   -1.0371    0.0289 C   0  0  1  0  0  0  0  0  0  0  0  0
    0.7128    0.4711    0.0234 C   0  0  0  0  0  0  0  0  0  0  0  0
   -0.0570   -1.7409   -0.8695 C   0  0  0  0  0  0  0  0  0  0  0  0
    2.3901   -1.3333   -0.5583 C   0  0  0  0  0  0  0  0  0  0  0  0
   -1.7695   -0.1841    0.2727 C   0  0  2  0  0  0  0  0  0  0  0  0
   -0.7426    0.8985   -0.0853 C   0  0  0  0  0  0  0  0  0  0  0  0
   -1.5167   -1.5064   -0.4668 C   0  0  0  0  0  0  0  0  0  0  0  0
    3.4725   -0.5116    0.1277 C   0  0  0  0  0  0  0  0  0  0  0  0
    1.7226    1.3762    0.0158 C   0  0  0  0  0  0  0  0  0  0  0  0
    0.9260   -1.6026    1.4679 C   0  0  0  0  0  0  0  0  0  0  0  0
    3.1855    0.9815    0.0162 C   0  0  0  0  0  0  0  0  0  0  0  0
   -3.1714    0.2990    0.0330 C   0  0  0  0  0  0  0  0  0  0  0  0
    1.5274    2.8712   -0.0555 C   0  0  0  0  0  0  0  0  0  0  0  0
   -4.0583    0.3812    1.2400 C   0  0  0  0  0  0  0  0  0  0  0  0
   -3.6055    0.6373   -1.1902 C   0  0  0  0  0  0  0  0  0  0  0  0
    0.1330   -2.8215   -0.9046 H   0  0  0  0  0  0  0  0  0  0  0  0
    0.0636   -1.3838   -1.9025 H   0  0  0  0  0  0  0  0  0  0  0  0
    2.4067   -1.1080   -1.6337 H   0  0  0  0  0  0  0  0  0  0  0  0
    2.6279   -2.4004   -0.4644 H   0  0  0  0  0  0  0  0  0  0  0  0
   -1.6685   -0.3754    1.3484 H   0  0  0  0  0  0  0  0  0  0  0  0
   -0.9255    1.7560    0.5750 H   0  0  0  0  0  0  0  0  0  0  0  0
   -0.8989    1.2407   -1.1168 H   0  0  0  0  0  0  0  0  0  0  0  0
   -2.1312   -1.6120   -1.3693 H   0  0  0  0  0  0  0  0  0  0  0  0
   -1.8371   -2.3278    0.1891 H   0  0  0  0  0  0  0  0  0  0  0  0
    4.4486   -0.7317   -0.3208 H   0  0  0  0  0  0  0  0  0  0  0  0
    3.5563   -0.7951    1.1829 H   0  0  0  0  0  0  0  0  0  0  0  0
    1.2759   -2.6415    1.4900 H   0  0  0  0  0  0  0  0  0  0  0  0
   -0.0787   -1.6072    1.8943 H   0  0  0  0  0  0  0  0  0  0  0  0
    1.5523   -1.0267    2.1579 H   0  0  0  0  0  0  0  0  0  0  0  0
    3.6277    1.3422   -0.9221 H   0  0  0  0  0  0  0  0  0  0  0  0
    3.7080    1.5010    0.8288 H   0  0  0  0  0  0  0  0  0  0  0  0
    1.8786    3.3378    0.8707 H   0  0  0  0  0  0  0  0  0  0  0  0
    0.4908    3.1775   -0.2110 H   0  0  0  0  0  0  0  0  0  0  0  0
    2.1040    3.2862   -0.8895 H   0  0  0  0  0  0  0  0  0  0  0  0
   -5.0628    0.7384    0.9896 H   0  0  0  0  0  0  0  0  0  0  0  0
   -3.6345    1.0710    1.9772 H   0  0  0  0  0  0  0  0  0  0  0  0
   -4.1623   -0.6053    1.7035 H   0  0  0  0  0  0  0  0  0  0  0  0
   -4.6213    0.9848   -1.3481 H   0  0  0  0  0  0  0  0  0  0  0  0
   -2.9670    0.5769   -2.0650 H   0  0  0  0  0  0  0  0  0  0  0  0
  1  2  1  0  0  0  0
  1  3  1  0  0  0  0
  1  4  1  0  0  0  0
  1 10  1  0  0  0  0
  2  6  1  0  0  0  0
  2  9  2  0  0  0  0
  3  7  1  0  0  0  0
  3 16  1  0  0  0  0
  3 17  1  0  0  0  0
  4  8  1  0  0  0  0
  4 18  1  0  0  0  0
  4 19  1  0  0  0  0
  5  6  1  0  0  0  0
  5  7  1  0  0  0  0
  5 12  1  0  0  0  0
  5 20  1  0  0  0  0
  6 21  1  0  0  0  0
  6 22  1  0  0  0  0
  7 23  1  0  0  0  0
  7 24  1  0  0  0  0
  8 11  1  0  0  0  0
  8 25  1  0  0  0  0
  8 26  1  0  0  0  0
  9 11  1  0  0  0  0
  9 13  1  0  0  0  0
 10 27  1  0  0  0  0
 10 28  1  0  0  0  0
 10 29  1  0  0  0  0
 11 30  1  0  0  0  0
 11 31  1  0  0  0  0
 12 14  1  0  0  0  0
 12 15  2  0  0  0  0
 13 32  1  0  0  0  0
 13 33  1  0  0  0  0
 13 34  1  0  0  0  0
 14 35  1  0  0  0  0
 14 36  1  0  0  0  0
 14 37  1  0  0  0  0
 15 38  1  0  0  0  0
 15 39  1  0  0  0  0
M  END
> <PUBCHEM_COMPOUND_CID>
90657506

> <PUBCHEM_CONFORMER_RMSD>
0.6

> <PUBCHEM_CONFORMER_DIVERSEORDER>
1
4
5
2
6
3

> <PUBCHEM_MMFF94_PARTIAL_CHARGES>
12
1 0.14
11 0.14
12 -0.28
13 0.14
14 0.14
15 -0.3
2 -0.28
38 0.15
39 0.15
5 0.14
6 0.14
9 -0.28

> <PUBCHEM_EFFECTIVE_ROTOR_COUNT>
2.4

> <PUBCHEM_PHARMACOPHORE_FEATURES>
2
6 1 2 3 5 6 7 rings
6 1 2 4 8 9 11 rings

> <PUBCHEM_HEAVY_ATOM_COUNT>
15

> <PUBCHEM_ATOM_DEF_STEREO_COUNT>
1

> <PUBCHEM_ATOM_UDEF_STEREO_COUNT>
1

> <PUBCHEM_BOND_DEF_STEREO_COUNT>
0

> <PUBCHEM_BOND_UDEF_STEREO_COUNT>
0

> <PUBCHEM_ISOTOPIC_ATOM_COUNT>
0

> <PUBCHEM_COMPONENT_COUNT>
1

> <PUBCHEM_CACTVS_TAUTO_COUNT>
1

> <PUBCHEM_CONFORMER_ID>
056752E200000001

> <PUBCHEM_MMFF94_ENERGY>
34.6665

> <PUBCHEM_FEATURE_SELFOVERLAP>
10.165

> <PUBCHEM_SHAPE_FINGERPRINT>
10219947 1 18342456993574630143
10366900 7 17676216775178796651
10608611 8 18335135418981668613
10967382 1 18412263917580857100
10980938 120 18409727352755926038
11132069 177 18411408532094665304
11471102 20 18410852148755966469
12491281 212 18271815682250960250
12654215 9 18189043222814752676
12932764 1 18040714745300227199
13140716 1 18267302212836320504
13221675 6 18410292497337493271
13380535 21 18338807834820214719
13380535 76 18341891913349351479
13583140 156 17821720633576788963
13897977 150 18339922731031485437
14144814 61 18342739602596760793
14251717 144 18341888580638969429
14289901 80 16732994115193957411
14993402 34 18343298137207815902
15219456 202 18187364316178279685
15309172 13 18342459214510662991
15490181 8 17757831504484211844
15653759 3 17530971267648408841
15775835 57 18337677515413175508
16945 1 18412549799120277374
17844478 74 17894917308591607029
18186145 218 18343306980487417021
18219364 16 18334293167420857525
18511873 20 18342176695677375928
19049666 15 17605268485257194873
20233049 118 18188206486018421028
20511035 2 18047760579030108340
20606313 2 18411417297938423580
20645477 70 18338227172901745391
21501502 16 18195808689738245422
21524375 3 18193835083409125973
21639500 275 18341601659702132965
22094290 62 18411980307995032620
22854114 111 18408608084363081937
22892500 29 18114446886740857701
231179 274 18187354416041168837
23184049 59 18412831265491268097
2334 1 17978789335131638220
23402539 116 18130214944413979358
23402655 69 18271235046086580925
23419403 2 15736091175632259734
23558518 356 17829887990204195810
23559900 14 17987523787875717792
25 1 18335707169280615004
2748010 2 18194967567595590638
3060560 45 18271517611589333063
34934 24 18410843361664211886
528886 8 18272646857423430646
53812653 166 18259985976528725698
63268167 104 18410858784633406552
7364860 26 18272087236085533496
74978 22 18341609368957068847
77492 1 17561080289652395533
7832392 63 18271525385537978686
81228 2 17041186949318036217
9981440 41 17332791151483768496
9999458 23 18041001768899735965

> <PUBCHEM_SHAPE_MULTIPOLES>
308.69
6.02
2.2
1.05
3.76
0.8
-0.16
1.26
-0.32
-1.4
0.11
0.6
-0.27
-0.07

> <PUBCHEM_SHAPE_SELFOVERLAP>
630.556

> <PUBCHEM_SHAPE_VOLUME>
172.1

> <PUBCHEM_COORDINATE_TYPE>
2
5
10

$$$$
