91699505
  -OEChem-09092006143D

 40 41  0     1  0  0  0  0  0999 V2000
   -4.9546   -0.5948    0.4574 O   0  0  0  0  0  0  0  0  0  0  0  0
    1.6180   -0.3736    0.9844 C   0  0  2  0  0  0  0  0  0  0  0  0
    2.1184   -1.6723    0.3233 C   0  0  1  0  0  0  0  0  0  0  0  0
    0.8368    0.4529   -0.0013 C   0  0  0  0  0  0  0  0  0  0  0  0
   -0.3414   -0.1904   -0.6728 C   0  0  1  0  0  0  0  0  0  0  0  0
    2.6829    0.5957    1.5060 C   0  0  0  0  0  0  0  0  0  0  0  0
    0.9064   -2.4229   -0.2743 C   0  0  0  0  0  0  0  0  0  0  0  0
    0.0780   -1.5620   -1.2446 C   0  0  0  0  0  0  0  0  0  0  0  0
    2.6625    1.8129    0.5814 C   0  0  0  0  0  0  0  0  0  0  0  0
    1.4007    1.6511   -0.2112 C   0  0  0  0  0  0  0  0  0  0  0  0
    3.2076   -1.4674   -0.7380 C   0  0  0  0  0  0  0  0  0  0  0  0
   -1.5066   -0.3016    0.2645 C   0  0  0  0  0  0  0  0  0  0  0  0
    0.9708    2.7370   -1.1333 C   0  0  0  0  0  0  0  0  0  0  0  0
   -2.7371    0.2297    0.1319 C   0  0  0  0  0  0  0  0  0  0  0  0
   -3.8672    0.0491    1.1091 C   0  0  0  0  0  0  0  0  0  0  0  0
   -3.0752    1.0567   -1.0825 C   0  0  0  0  0  0  0  0  0  0  0  0
    0.9715   -0.6479    1.8287 H   0  0  0  0  0  0  0  0  0  0  0  0
    2.5527   -2.3074    1.1068 H   0  0  0  0  0  0  0  0  0  0  0  0
   -0.6242    0.4049   -1.5454 H   0  0  0  0  0  0  0  0  0  0  0  0
    3.6805    0.1528    1.5850 H   0  0  0  0  0  0  0  0  0  0  0  0
    2.4119    0.9171    2.5208 H   0  0  0  0  0  0  0  0  0  0  0  0
    0.2584   -2.7597    0.5450 H   0  0  0  0  0  0  0  0  0  0  0  0
    1.2426   -3.3297   -0.7913 H   0  0  0  0  0  0  0  0  0  0  0  0
    0.6697   -1.3985   -2.1551 H   0  0  0  0  0  0  0  0  0  0  0  0
   -0.8075   -2.1283   -1.5606 H   0  0  0  0  0  0  0  0  0  0  0  0
    3.5322    1.8123   -0.0845 H   0  0  0  0  0  0  0  0  0  0  0  0
    2.6638    2.7417    1.1606 H   0  0  0  0  0  0  0  0  0  0  0  0
    4.1174   -1.0496   -0.2966 H   0  0  0  0  0  0  0  0  0  0  0  0
    3.4825   -2.4256   -1.1927 H   0  0  0  0  0  0  0  0  0  0  0  0
    2.8880   -0.7982   -1.5422 H   0  0  0  0  0  0  0  0  0  0  0  0
   -1.3356   -0.9040    1.1567 H   0  0  0  0  0  0  0  0  0  0  0  0
    0.7957    3.6602   -0.5717 H   0  0  0  0  0  0  0  0  0  0  0  0
    0.0495    2.4981   -1.6692 H   0  0  0  0  0  0  0  0  0  0  0  0
    1.7488    2.9299   -1.8788 H   0  0  0  0  0  0  0  0  0  0  0  0
   -3.5647   -0.5673    1.9619 H   0  0  0  0  0  0  0  0  0  0  0  0
   -4.2029    1.0202    1.4875 H   0  0  0  0  0  0  0  0  0  0  0  0
   -3.3010    0.4096   -1.9360 H   0  0  0  0  0  0  0  0  0  0  0  0
   -3.9564    1.6807   -0.8946 H   0  0  0  0  0  0  0  0  0  0  0  0
   -2.2739    1.7506   -1.3507 H   0  0  0  0  0  0  0  0  0  0  0  0
   -5.6677   -0.6831    1.1126 H   0  0  0  0  0  0  0  0  0  0  0  0
  1 15  1  0  0  0  0
  1 40  1  0  0  0  0
  2  3  1  0  0  0  0
  2  4  1  0  0  0  0
  2  6  1  0  0  0  0
  2 17  1  0  0  0  0
  3  7  1  0  0  0  0
  3 11  1  0  0  0  0
  3 18  1  0  0  0  0
  4  5  1  0  0  0  0
  4 10  2  0  0  0  0
  5  8  1  0  0  0  0
  5 12  1  0  0  0  0
  5 19  1  0  0  0  0
  6  9  1  0  0  0  0
  6 20  1  0  0  0  0
  6 21  1  0  0  0  0
  7  8  1  0  0  0  0
  7 22  1  0  0  0  0
  7 23  1  0  0  0  0
  8 24  1  0  0  0  0
  8 25  1  0  0  0  0
  9 10  1  0  0  0  0
  9 26  1  0  0  0  0
  9 27  1  0  0  0  0
 10 13  1  0  0  0  0
 11 28  1  0  0  0  0
 11 29  1  0  0  0  0
 11 30  1  0  0  0  0
 12 14  2  0  0  0  0
 12 31  1  0  0  0  0
 13 32  1  0  0  0  0
 13 33  1  0  0  0  0
 13 34  1  0  0  0  0
 14 15  1  0  0  0  0
 14 16  1  0  0  0  0
 15 35  1  0  0  0  0
 15 36  1  0  0  0  0
 16 37  1  0  0  0  0
 16 38  1  0  0  0  0
 16 39  1  0  0  0  0
M  END
> <PUBCHEM_COMPOUND_CID>
91699505

> <PUBCHEM_CONFORMER_RMSD>
0.6

> <PUBCHEM_CONFORMER_DIVERSEORDER>
1
51
47
25
36
38
33
13
50
37
45
11
42
31
30
27
44
41
53
40
22
35
19
54
48
9
5
39
49
21
43
34
8
4
29
20
52
46
26
3
23
14
15
16
7
28
2
18
24
32
12
10
6
17

> <PUBCHEM_MMFF94_PARTIAL_CHARGES>
13
1 -0.68
10 -0.28
12 -0.29
13 0.14
14 -0.28
15 0.42
16 0.14
2 0.14
31 0.15
4 -0.28
40 0.4
5 0.28
9 0.14

> <PUBCHEM_EFFECTIVE_ROTOR_COUNT>
3.2

> <PUBCHEM_PHARMACOPHORE_FEATURES>
5
1 1 acceptor
1 1 donor
1 16 hydrophobe
5 2 4 6 9 10 rings
6 2 3 4 5 7 8 rings

> <PUBCHEM_HEAVY_ATOM_COUNT>
16

> <PUBCHEM_ATOM_DEF_STEREO_COUNT>
0

> <PUBCHEM_ATOM_UDEF_STEREO_COUNT>
3

> <PUBCHEM_BOND_DEF_STEREO_COUNT>
1

> <PUBCHEM_BOND_UDEF_STEREO_COUNT>
0

> <PUBCHEM_ISOTOPIC_ATOM_COUNT>
0

> <PUBCHEM_COMPONENT_COUNT>
1

> <PUBCHEM_CACTVS_TAUTO_COUNT>
1

> <PUBCHEM_CONFORMER_ID>
0577393100000001

> <PUBCHEM_MMFF94_ENERGY>
25.9756

> <PUBCHEM_FEATURE_SELFOVERLAP>
25.467

> <PUBCHEM_SHAPE_FINGERPRINT>
10382601 240 18337660988922157962
10465860 228 18272095997649882625
10980938 120 18410005567878878244
11471102 22 18408319969261267953
11578080 2 13407338746574869415
12251169 10 18042117807788559273
12346645 6 18411139168593517337
12423570 1 18195777787912618616
12633257 1 17967813877314753641
13380536 305 18342183271367420638
15219456 202 18335978692986957877
15490181 8 17977660137085518774
15501101 241 18201152144550628738
15775835 57 17703788167073989961
161256 15 18268138774124373324
16945 1 17987789696977889454
17357779 13 18053089636563860044
1813 80 17344088272665829822
18186145 218 17917709106329430909
19049666 15 17899123932731604253
20339313 130 18341338790307126228
20511035 2 18201158870612326414
20559304 39 18409735083776589433
20645477 70 18270667685206859007
20708731 107 18337403685562491878
21041028 32 18058737883651490488
21130352 189 18337102346240756900
21524375 3 18124877012649840180
21730867 7 18409453600272793075
22182313 1 18053357935382473464
22854114 111 18273778250656482219
23184049 59 18343295942426604482
23526113 38 17824000947114356906
23558518 356 17397826169134128760
251288 83 17968946417346563035
2748010 2 18193535801872754156
276578 36 18059576935561385914
3060560 45 18411705408655294710
430814 3 18121786289949150132
6049 1 18188208706764549637
7364860 26 18341336660014007312
81228 2 17330558648514486008

> <PUBCHEM_SHAPE_MULTIPOLES>
323.4
6.2
2.46
1.26
8.24
0.43
-0.05
-0.27
-1.72
-2.05
0.81
-0.1
0.17
0.57

> <PUBCHEM_SHAPE_SELFOVERLAP>
660.679

> <PUBCHEM_SHAPE_VOLUME>
189

> <PUBCHEM_COORDINATE_TYPE>
2
5
10

$$$$
