135438120
  -OEChem-09092002513D

 25 27  0     0  0  0  0  0  0999 V2000
   -2.6028    1.9629   -0.1168 O   0  0  0  0  0  0  0  0  0  0  0  0
   -0.9739   -2.3650    0.3861 O   0  0  0  0  0  0  0  0  0  0  0  0
    4.4437    0.9739   -0.1124 O   0  0  0  0  0  0  0  0  0  0  0  0
   -0.2299    1.7453   -0.1300 N   0  0  0  0  0  0  0  0  0  0  0  0
    0.5838   -0.5298    0.1349 C   0  0  0  0  0  0  0  0  0  0  0  0
   -1.7857   -0.1227    0.1249 C   0  0  0  0  0  0  0  0  0  0  0  0
   -0.7247   -1.0305    0.2184 C   0  0  0  0  0  0  0  0  0  0  0  0
    0.7750    0.8614   -0.0386 C   0  0  0  0  0  0  0  0  0  0  0  0
   -1.4623    1.2173   -0.0447 C   0  0  0  0  0  0  0  0  0  0  0  0
    1.6889   -1.3923    0.2218 C   0  0  0  0  0  0  0  0  0  0  0  0
   -3.2008   -0.1884    0.1569 C   0  0  0  0  0  0  0  0  0  0  0  0
    2.0823    1.3304   -0.1178 C   0  0  0  0  0  0  0  0  0  0  0  0
    2.9847   -0.8918    0.1389 C   0  0  0  0  0  0  0  0  0  0  0  0
    3.1812    0.4718   -0.0308 C   0  0  0  0  0  0  0  0  0  0  0  0
   -3.6475    1.1035    0.0057 C   0  0  0  0  0  0  0  0  0  0  0  0
   -1.1123   -3.1460   -0.7964 C   0  0  0  0  0  0  0  0  0  0  0  0
    1.5637   -2.4634    0.3615 H   0  0  0  0  0  0  0  0  0  0  0  0
   -3.8198   -1.0664    0.2749 H   0  0  0  0  0  0  0  0  0  0  0  0
    2.2534    2.3982   -0.2511 H   0  0  0  0  0  0  0  0  0  0  0  0
    3.8317   -1.5682    0.2090 H   0  0  0  0  0  0  0  0  0  0  0  0
   -4.6285    1.5538   -0.0332 H   0  0  0  0  0  0  0  0  0  0  0  0
   -1.2300   -4.1929   -0.5036 H   0  0  0  0  0  0  0  0  0  0  0  0
   -0.2263   -3.0601   -1.4333 H   0  0  0  0  0  0  0  0  0  0  0  0
   -2.0025   -2.8385   -1.3541 H   0  0  0  0  0  0  0  0  0  0  0  0
    4.3938    1.9382   -0.2294 H   0  0  0  0  0  0  0  0  0  0  0  0
  1  9  1  0  0  0  0
  1 15  1  0  0  0  0
  2  7  1  0  0  0  0
  2 16  1  0  0  0  0
  3 14  1  0  0  0  0
  3 25  1  0  0  0  0
  4  8  1  0  0  0  0
  4  9  2  0  0  0  0
  5  7  1  0  0  0  0
  5  8  2  0  0  0  0
  5 10  1  0  0  0  0
  6  7  2  0  0  0  0
  6  9  1  0  0  0  0
  6 11  1  0  0  0  0
  8 12  1  0  0  0  0
 10 13  2  0  0  0  0
 10 17  1  0  0  0  0
 11 15  2  0  0  0  0
 11 18  1  0  0  0  0
 12 14  2  0  0  0  0
 12 19  1  0  0  0  0
 13 14  1  0  0  0  0
 13 20  1  0  0  0  0
 15 21  1  0  0  0  0
 16 22  1  0  0  0  0
 16 23  1  0  0  0  0
 16 24  1  0  0  0  0
M  END
> <PUBCHEM_COMPOUND_CID>
135438120

> <PUBCHEM_CONFORMER_RMSD>
0.6

> <PUBCHEM_CONFORMER_DIVERSEORDER>
1

> <PUBCHEM_MMFF94_PARTIAL_CHARGES>
20
1 -0.28
10 -0.15
11 -0.15
12 -0.15
13 -0.15
14 0.08
15 -0.01
16 0.28
17 0.15
18 0.15
19 0.15
2 -0.36
20 0.15
21 0.15
25 0.45
3 -0.53
4 -0.57
7 0.08
8 0.31
9 0.4

> <PUBCHEM_EFFECTIVE_ROTOR_COUNT>
1

> <PUBCHEM_PHARMACOPHORE_FEATURES>
5
1 2 acceptor
1 3 donor
5 1 6 9 11 15 rings
6 4 5 6 7 8 9 rings
6 5 8 10 12 13 14 rings

> <PUBCHEM_HEAVY_ATOM_COUNT>
16

> <PUBCHEM_ATOM_DEF_STEREO_COUNT>
0

> <PUBCHEM_ATOM_UDEF_STEREO_COUNT>
0

> <PUBCHEM_BOND_DEF_STEREO_COUNT>
0

> <PUBCHEM_BOND_UDEF_STEREO_COUNT>
0

> <PUBCHEM_ISOTOPIC_ATOM_COUNT>
0

> <PUBCHEM_COMPONENT_COUNT>
1

> <PUBCHEM_CACTVS_TAUTO_COUNT>
-1

> <PUBCHEM_CONFORMER_ID>
08129F2800000001

> <PUBCHEM_MMFF94_ENERGY>
48.3195

> <PUBCHEM_FEATURE_SELFOVERLAP>
25.523

> <PUBCHEM_SHAPE_FINGERPRINT>
10411042 1 16896524789380100394
10608611 8 18410009940213952200
10967382 1 18410010992258906410
11132069 177 18410288151310663768
11471102 20 18336823096004585373
11578080 2 16914247670577448195
12500047 106 18413101779917239184
13140716 1 18049729816813251817
13221675 6 18408042926754084104
13380535 76 18411418405982067494
14144814 61 18408604738467539944
14178342 30 18193819643539800026
14325111 11 18336828597847193929
14897335 6 18409445895170003210
15196674 1 18408886204743383689
15309172 13 18339932523741335441
15536298 74 18340769239368688112
15669948 3 18337949095033266370
15775835 57 18408889511863043776
16945 1 18338793523899500624
18186145 218 18269843012298694356
193761 8 17978229692440184833
20510252 161 18272374135432054513
20645476 183 17532113694310085150
20645477 70 18192706740335681725
20871998 184 18341340001657092087
21267235 1 18336555970640217674
21501502 16 18192992849270978660
21524375 3 18335981974094130147
2334 1 18337671914728394121
23402539 116 18342448275133755029
23402655 69 18340476765128945557
23419403 2 16394019297177007973
23463225 33 18189896418062639792
23557571 272 18128829723193265462
23559900 14 18272090518274075340
2748010 2 18336550391466981805
335352 9 17832705673323131029
34934 24 18335133220031980240
5104073 3 18408323254916752264
528886 8 18410006611397643385
53812653 166 18412823590516793560
54173680 148 18193277618229428355
6333449 129 18411417349229948779
69090 78 18411415120273907859
7364860 26 17836646327598210167
81228 2 18049429646118247139
9709674 26 18341899614552708950

> <PUBCHEM_SHAPE_MULTIPOLES>
306.68
5.79
2.55
0.66
2.21
1.79
0.02
-2.31
0.01
-1.04
0.41
-0.05
0.15
-0.19

> <PUBCHEM_SHAPE_SELFOVERLAP>
694.193

> <PUBCHEM_SHAPE_VOLUME>
162.5

> <PUBCHEM_COORDINATE_TYPE>
2
5
10

$$$$
