12110169
  -OEChem-09092002433D

 42 44  0     0  0  0  0  0  0999 V2000
   -3.6530   -2.3945    0.0574 O   0  0  0  0  0  0  0  0  0  0  0  0
    2.6668    0.6667   -1.1448 O   0  0  0  0  0  0  0  0  0  0  0  0
   -3.3579    2.2437    0.2499 O   0  0  0  0  0  0  0  0  0  0  0  0
    1.1491   -1.6118   -0.9405 O   0  0  0  0  0  0  0  0  0  0  0  0
   -1.4927   -1.4796   -0.3599 N   0  0  0  0  0  0  0  0  0  0  0  0
   -1.3774    0.9458   -0.2509 C   0  0  0  0  0  0  0  0  0  0  0  0
   -0.8029   -0.3325   -0.4462 C   0  0  0  0  0  0  0  0  0  0  0  0
   -2.7451    1.0371    0.0507 C   0  0  0  0  0  0  0  0  0  0  0  0
   -3.4808   -0.1498    0.1442 C   0  0  0  0  0  0  0  0  0  0  0  0
    0.5544   -0.3939   -0.7443 C   0  0  0  0  0  0  0  0  0  0  0  0
   -2.7969   -1.3397   -0.0695 C   0  0  0  0  0  0  0  0  0  0  0  0
    1.3394    0.7571   -0.8514 C   0  0  0  0  0  0  0  0  0  0  0  0
   -0.5876    2.1024   -0.3586 C   0  0  0  0  0  0  0  0  0  0  0  0
    0.7680    2.0074   -0.6581 C   0  0  0  0  0  0  0  0  0  0  0  0
   -4.8248   -0.5078    0.4151 C   0  0  0  0  0  0  0  0  0  0  0  0
   -4.8757   -1.8807    0.3504 C   0  0  0  0  0  0  0  0  0  0  0  0
    3.5799    1.1972   -0.1863 C   0  0  0  0  0  0  0  0  0  0  0  0
    4.8745    0.4508   -0.2643 C   0  0  0  0  0  0  0  0  0  0  0  0
    5.5040   -0.2271    0.7141 C   0  0  0  0  0  0  0  0  0  0  0  0
   -3.9647    2.4541    1.5206 C   0  0  0  0  0  0  0  0  0  0  0  0
    1.6966   -2.2500    0.2075 C   0  0  0  0  0  0  0  0  0  0  0  0
    6.8150   -0.9159    0.4394 C   0  0  0  0  0  0  0  0  0  0  0  0
    5.0121   -0.3789    2.1256 C   0  0  0  0  0  0  0  0  0  0  0  0
   -1.0137    3.0925   -0.2131 H   0  0  0  0  0  0  0  0  0  0  0  0
    1.3594    2.9143   -0.7449 H   0  0  0  0  0  0  0  0  0  0  0  0
   -5.6621    0.1419    0.6236 H   0  0  0  0  0  0  0  0  0  0  0  0
   -5.6669   -2.6047    0.4793 H   0  0  0  0  0  0  0  0  0  0  0  0
    3.7707    2.2470   -0.4379 H   0  0  0  0  0  0  0  0  0  0  0  0
    3.1428    1.1724    0.8158 H   0  0  0  0  0  0  0  0  0  0  0  0
    5.3463    0.4834   -1.2459 H   0  0  0  0  0  0  0  0  0  0  0  0
   -3.8518    3.5117    1.7769 H   0  0  0  0  0  0  0  0  0  0  0  0
   -3.4920    1.8604    2.3109 H   0  0  0  0  0  0  0  0  0  0  0  0
   -5.0337    2.2331    1.4661 H   0  0  0  0  0  0  0  0  0  0  0  0
    2.4142   -1.5992    0.7156 H   0  0  0  0  0  0  0  0  0  0  0  0
    2.2181   -3.1540   -0.1187 H   0  0  0  0  0  0  0  0  0  0  0  0
    0.9012   -2.5387    0.9016 H   0  0  0  0  0  0  0  0  0  0  0  0
    7.1467   -0.7861   -0.5961 H   0  0  0  0  0  0  0  0  0  0  0  0
    6.7244   -1.9910    0.6261 H   0  0  0  0  0  0  0  0  0  0  0  0
    7.5979   -0.5141    1.0912 H   0  0  0  0  0  0  0  0  0  0  0  0
    4.8888   -1.4404    2.3664 H   0  0  0  0  0  0  0  0  0  0  0  0
    4.0541    0.1072    2.3165 H   0  0  0  0  0  0  0  0  0  0  0  0
    5.7396    0.0486    2.8238 H   0  0  0  0  0  0  0  0  0  0  0  0
  1 11  1  0  0  0  0
  1 16  1  0  0  0  0
  2 12  1  0  0  0  0
  2 17  1  0  0  0  0
  3  8  1  0  0  0  0
  3 20  1  0  0  0  0
  4 10  1  0  0  0  0
  4 21  1  0  0  0  0
  5  7  1  0  0  0  0
  5 11  2  0  0  0  0
  6  7  2  0  0  0  0
  6  8  1  0  0  0  0
  6 13  1  0  0  0  0
  7 10  1  0  0  0  0
  8  9  2  0  0  0  0
  9 11  1  0  0  0  0
  9 15  1  0  0  0  0
 10 12  2  0  0  0  0
 12 14  1  0  0  0  0
 13 14  2  0  0  0  0
 13 24  1  0  0  0  0
 14 25  1  0  0  0  0
 15 16  2  0  0  0  0
 15 26  1  0  0  0  0
 16 27  1  0  0  0  0
 17 18  1  0  0  0  0
 17 28  1  0  0  0  0
 17 29  1  0  0  0  0
 18 19  2  0  0  0  0
 18 30  1  0  0  0  0
 19 22  1  0  0  0  0
 19 23  1  0  0  0  0
 20 31  1  0  0  0  0
 20 32  1  0  0  0  0
 20 33  1  0  0  0  0
 21 34  1  0  0  0  0
 21 35  1  0  0  0  0
 21 36  1  0  0  0  0
 22 37  1  0  0  0  0
 22 38  1  0  0  0  0
 22 39  1  0  0  0  0
 23 40  1  0  0  0  0
 23 41  1  0  0  0  0
 23 42  1  0  0  0  0
M  END
> <PUBCHEM_COMPOUND_CID>
12110169

> <PUBCHEM_CONFORMER_RMSD>
0.8

> <PUBCHEM_CONFORMER_DIVERSEORDER>
1
18
20
13
29
4
6
16
24
11
14
17
19
2
28
25
23
10
9
15
5
22
21
7
27
3
8
12
26

> <PUBCHEM_MMFF94_PARTIAL_CHARGES>
26
1 -0.28
10 0.08
11 0.4
12 0.08
13 -0.15
14 -0.15
15 -0.15
16 -0.01
17 0.42
18 -0.29
19 -0.28
2 -0.36
20 0.28
21 0.28
22 0.14
23 0.14
24 0.15
25 0.15
26 0.15
27 0.15
3 -0.36
30 0.15
4 -0.36
5 -0.57
7 0.31
8 0.08

> <PUBCHEM_EFFECTIVE_ROTOR_COUNT>
5

> <PUBCHEM_PHARMACOPHORE_FEATURES>
7
1 2 acceptor
1 3 acceptor
1 4 acceptor
3 19 22 23 hydrophobe
5 1 9 11 15 16 rings
6 5 6 7 8 9 11 rings
6 6 7 10 12 13 14 rings

> <PUBCHEM_HEAVY_ATOM_COUNT>
23

> <PUBCHEM_ATOM_DEF_STEREO_COUNT>
0

> <PUBCHEM_ATOM_UDEF_STEREO_COUNT>
0

> <PUBCHEM_BOND_DEF_STEREO_COUNT>
0

> <PUBCHEM_BOND_UDEF_STEREO_COUNT>
0

> <PUBCHEM_ISOTOPIC_ATOM_COUNT>
0

> <PUBCHEM_COMPONENT_COUNT>
1

> <PUBCHEM_CACTVS_TAUTO_COUNT>
1

> <PUBCHEM_CONFORMER_ID>
00B8C95900000001

> <PUBCHEM_MMFF94_ENERGY>
80.1041

> <PUBCHEM_FEATURE_SELFOVERLAP>
35.677

> <PUBCHEM_SHAPE_FINGERPRINT>
10062212 137 18334294292327677796
10319926 262 18273210868650330384
12107183 9 17975410218509655672
12236239 1 18040436616002729132
12403260 363 18339927133478562949
12422481 6 18265331712269553442
12596602 18 18411696595973565664
12839892 36 18410568479373091078
13140716 1 17908431595145444215
13533116 47 18041278893581205132
13862211 1 18337670922575371639
14178342 30 18340214007239804949
14341114 328 18187078421833209234
14420673 8 18194964029397795478
14466204 15 18342740698030115088
15196674 1 18409168831283182188
16945 1 18267604561934247381
17349148 13 18040719194527506926
17857418 61 18040147431617594954
17862501 102 18334858358956765292
17870717 6 12035726483568006009
17959699 21 11383834892041405090
1813 80 17240487975149784126
20028762 73 18199466743613427518
21033648 29 17274813645546996336
21065198 48 18334861653729912068
21267235 1 18334864938989340862
22182313 1 17987534653087189191
23175994 123 14562532894471169013
23402539 116 18339920515213430959
23522609 53 17970376774975346044
23557571 272 18059029327299828396
23559900 14 18056213388206738782
25147074 1 18188506764241134596
2838139 119 13686295782050244970
335352 9 18409169948222397957
351380 3 17894344472066484618
392239 28 17917436457526585265
4072396 5 18411135861394905174
4409770 3 17824248316041081221
465052 167 18041282153551079530
5104073 3 18270689644836937066
543368 44 11383827182111028210
559249 180 18187078434385762237
573450 72 18408040719141173240

> <PUBCHEM_SHAPE_MULTIPOLES>
444.87
12.73
2.55
1.14
14.25
0.17
0.46
-3.26
5.25
-2.65
0.2
0.86
0.21
-1.11

> <PUBCHEM_SHAPE_SELFOVERLAP>
966.57

> <PUBCHEM_SHAPE_VOLUME>
244.8

> <PUBCHEM_COORDINATE_TYPE>
2
5
10

$$$$
