519074
  -OEChem-09092005403D

 28 28  0     1  0  0  0  0  0999 V2000
    0.3880    1.0244    0.2830 C   0  0  1  0  0  0  0  0  0  0  0  0
   -0.3084   -0.2053   -0.3475 C   0  0  1  0  0  0  0  0  0  0  0  0
    0.4277   -1.5056    0.0128 C   0  0  0  0  0  0  0  0  0  0  0  0
    1.8797    1.0577   -0.0923 C   0  0  0  0  0  0  0  0  0  0  0  0
    1.9047   -1.4463   -0.3638 C   0  0  0  0  0  0  0  0  0  0  0  0
    2.5909   -0.2424    0.2686 C   0  0  0  0  0  0  0  0  0  0  0  0
   -0.2704    2.3440   -0.1360 C   0  0  0  0  0  0  0  0  0  0  0  0
   -1.7467   -0.3146    0.0655 C   0  0  0  0  0  0  0  0  0  0  0  0
   -2.7590   -0.2489   -1.0394 C   0  0  0  0  0  0  0  0  0  0  0  0
   -2.1065   -0.4631    1.3491 C   0  0  0  0  0  0  0  0  0  0  0  0
    0.3324    0.9600    1.3783 H   0  0  0  0  0  0  0  0  0  0  0  0
   -0.2588   -0.0940   -1.4403 H   0  0  0  0  0  0  0  0  0  0  0  0
   -0.0370   -2.3560   -0.5023 H   0  0  0  0  0  0  0  0  0  0  0  0
    0.3585   -1.7144    1.0880 H   0  0  0  0  0  0  0  0  0  0  0  0
    2.3752    1.8910    0.4205 H   0  0  0  0  0  0  0  0  0  0  0  0
    1.9878    1.2404   -1.1693 H   0  0  0  0  0  0  0  0  0  0  0  0
    2.0028   -1.3941   -1.4551 H   0  0  0  0  0  0  0  0  0  0  0  0
    2.4047   -2.3670   -0.0422 H   0  0  0  0  0  0  0  0  0  0  0  0
    2.6079   -0.3599    1.3590 H   0  0  0  0  0  0  0  0  0  0  0  0
    3.6340   -0.1960   -0.0640 H   0  0  0  0  0  0  0  0  0  0  0  0
    0.2720    3.1975    0.2852 H   0  0  0  0  0  0  0  0  0  0  0  0
   -0.2773    2.4544   -1.2257 H   0  0  0  0  0  0  0  0  0  0  0  0
   -1.3033    2.4097    0.2195 H   0  0  0  0  0  0  0  0  0  0  0  0
   -2.6788    0.7027   -1.5748 H   0  0  0  0  0  0  0  0  0  0  0  0
   -2.5974   -1.0646   -1.7516 H   0  0  0  0  0  0  0  0  0  0  0  0
   -3.7844   -0.3333   -0.6642 H   0  0  0  0  0  0  0  0  0  0  0  0
   -3.1516   -0.5408    1.6315 H   0  0  0  0  0  0  0  0  0  0  0  0
   -1.3796   -0.5090    2.1523 H   0  0  0  0  0  0  0  0  0  0  0  0
  1  2  1  0  0  0  0
  1  4  1  0  0  0  0
  1  7  1  0  0  0  0
  1 11  1  0  0  0  0
  2  3  1  0  0  0  0
  2  8  1  0  0  0  0
  2 12  1  0  0  0  0
  3  5  1  0  0  0  0
  3 13  1  0  0  0  0
  3 14  1  0  0  0  0
  4  6  1  0  0  0  0
  4 15  1  0  0  0  0
  4 16  1  0  0  0  0
  5  6  1  0  0  0  0
  5 17  1  0  0  0  0
  5 18  1  0  0  0  0
  6 19  1  0  0  0  0
  6 20  1  0  0  0  0
  7 21  1  0  0  0  0
  7 22  1  0  0  0  0
  7 23  1  0  0  0  0
  8  9  1  0  0  0  0
  8 10  2  0  0  0  0
  9 24  1  0  0  0  0
  9 25  1  0  0  0  0
  9 26  1  0  0  0  0
 10 27  1  0  0  0  0
 10 28  1  0  0  0  0
M  END
> <PUBCHEM_COMPOUND_CID>
519074

> <PUBCHEM_CONFORMER_RMSD>
0.4

> <PUBCHEM_CONFORMER_DIVERSEORDER>
2
13
12
8
11
16
15
7
10
23
18
6
22
3
21
20
19
17
1
4
5
9
14

> <PUBCHEM_MMFF94_PARTIAL_CHARGES>
6
10 -0.3
2 0.14
27 0.15
28 0.15
8 -0.28
9 0.14

> <PUBCHEM_EFFECTIVE_ROTOR_COUNT>
2.2

> <PUBCHEM_PHARMACOPHORE_FEATURES>
1
6 1 2 3 4 5 6 rings

> <PUBCHEM_HEAVY_ATOM_COUNT>
10

> <PUBCHEM_ATOM_DEF_STEREO_COUNT>
0

> <PUBCHEM_ATOM_UDEF_STEREO_COUNT>
2

> <PUBCHEM_BOND_DEF_STEREO_COUNT>
0

> <PUBCHEM_BOND_UDEF_STEREO_COUNT>
0

> <PUBCHEM_ISOTOPIC_ATOM_COUNT>
0

> <PUBCHEM_COMPONENT_COUNT>
1

> <PUBCHEM_CACTVS_TAUTO_COUNT>
1

> <PUBCHEM_CONFORMER_ID>
0007EBA200000002

> <PUBCHEM_MMFF94_ENERGY>
12.3675

> <PUBCHEM_FEATURE_SELFOVERLAP>
5.074

> <PUBCHEM_SHAPE_FINGERPRINT>
11206711 2 18265621983217934932
12423570 1 9483445423521306639
14128692 85 17630869689970788415
16945 1 18411985771246024754
18185500 45 18272649094821667686
20201158 50 18261104154021209311
20711985 344 17972314006387021644
21040471 1 18051692445269161676
23552423 10 18262806138139234950
241688 4 18194686964671476936
2748010 2 18124595276170631078
29004967 10 18335427880215411322
5084963 1 18060412542876270707
63268167 104 18271522099687504609

> <PUBCHEM_SHAPE_MULTIPOLES>
205.8
3.56
1.87
0.95
0.46
0.85
-0.13
-0.8
0.16
-0.53
0.11
0.64
-0.12
0.15

> <PUBCHEM_SHAPE_SELFOVERLAP>
398.755

> <PUBCHEM_SHAPE_VOLUME>
125.3

> <PUBCHEM_COORDINATE_TYPE>
2
5
10

$$$$
