10987384
  -OEChem-09092005443D

 39 40  0     1  0  0  0  0  0999 V2000
    2.5118    0.2690    0.1108 C   0  0  0  0  0  0  0  0  0  0  0  0
    1.4995   -0.7610    0.5309 C   0  0  1  0  0  0  0  0  0  0  0  0
    1.1448    0.7164    0.5674 C   0  0  2  0  0  0  0  0  0  0  0  0
    1.0169   -1.7567   -0.4922 C   0  0  0  0  0  0  0  0  0  0  0  0
    3.7269    0.4935    0.9502 C   0  0  0  0  0  0  0  0  0  0  0  0
    2.8016    0.3736   -1.3508 C   0  0  0  0  0  0  0  0  0  0  0  0
    0.2429    1.3462   -0.4116 C   0  0  0  0  0  0  0  0  0  0  0  0
   -0.2375   -2.5244   -0.0367 C   0  0  0  0  0  0  0  0  0  0  0  0
   -1.0423    1.7259   -0.2377 C   0  0  0  0  0  0  0  0  0  0  0  0
   -1.4581   -1.6328   -0.0658 C   0  0  0  0  0  0  0  0  0  0  0  0
   -1.8160    1.5565    1.0604 C   0  0  0  0  0  0  0  0  0  0  0  0
   -2.6688    0.2748    1.1047 C   0  0  0  0  0  0  0  0  0  0  0  0
   -1.8142    2.3587   -1.3648 C   0  0  0  0  0  0  0  0  0  0  0  0
   -1.7681   -0.9231    1.0358 C   0  0  0  0  0  0  0  0  0  0  0  0
   -2.1395   -1.5166   -1.4007 C   0  0  0  0  0  0  0  0  0  0  0  0
    1.6597   -1.2437    1.4911 H   0  0  0  0  0  0  0  0  0  0  0  0
    1.1061    1.1765    1.5513 H   0  0  0  0  0  0  0  0  0  0  0  0
    1.8210   -2.4867   -0.6488 H   0  0  0  0  0  0  0  0  0  0  0  0
    0.8039   -1.3138   -1.4675 H   0  0  0  0  0  0  0  0  0  0  0  0
    3.4976    0.4245    2.0192 H   0  0  0  0  0  0  0  0  0  0  0  0
    4.4969   -0.2527    0.7271 H   0  0  0  0  0  0  0  0  0  0  0  0
    4.1466    1.4881    0.7658 H   0  0  0  0  0  0  0  0  0  0  0  0
    3.1733    1.3792   -1.5834 H   0  0  0  0  0  0  0  0  0  0  0  0
    3.6022   -0.3281   -1.6163 H   0  0  0  0  0  0  0  0  0  0  0  0
    1.9879    0.1736   -2.0495 H   0  0  0  0  0  0  0  0  0  0  0  0
    0.6560    1.5932   -1.3847 H   0  0  0  0  0  0  0  0  0  0  0  0
   -0.0804   -2.9365    0.9683 H   0  0  0  0  0  0  0  0  0  0  0  0
   -0.4005   -3.3867   -0.6948 H   0  0  0  0  0  0  0  0  0  0  0  0
   -1.1324    1.5709    1.9184 H   0  0  0  0  0  0  0  0  0  0  0  0
   -2.4703    2.4260    1.2025 H   0  0  0  0  0  0  0  0  0  0  0  0
   -3.4205    0.2867    0.3110 H   0  0  0  0  0  0  0  0  0  0  0  0
   -3.2240    0.2403    2.0495 H   0  0  0  0  0  0  0  0  0  0  0  0
   -1.2237    2.4399   -2.2834 H   0  0  0  0  0  0  0  0  0  0  0  0
   -2.1317    3.3685   -1.0851 H   0  0  0  0  0  0  0  0  0  0  0  0
   -2.7049    1.7671   -1.5983 H   0  0  0  0  0  0  0  0  0  0  0  0
   -1.1895   -1.0986    1.9425 H   0  0  0  0  0  0  0  0  0  0  0  0
   -1.4710   -1.0641   -2.1395 H   0  0  0  0  0  0  0  0  0  0  0  0
   -3.0540   -0.9209   -1.3697 H   0  0  0  0  0  0  0  0  0  0  0  0
   -2.4253   -2.5109   -1.7604 H   0  0  0  0  0  0  0  0  0  0  0  0
  1  2  1  0  0  0  0
  1  3  1  0  0  0  0
  1  5  1  0  0  0  0
  1  6  1  0  0  0  0
  2  3  1  0  0  0  0
  2  4  1  0  0  0  0
  2 16  1  0  0  0  0
  3  7  1  0  0  0  0
  3 17  1  0  0  0  0
  4  8  1  0  0  0  0
  4 18  1  0  0  0  0
  4 19  1  0  0  0  0
  5 20  1  0  0  0  0
  5 21  1  0  0  0  0
  5 22  1  0  0  0  0
  6 23  1  0  0  0  0
  6 24  1  0  0  0  0
  6 25  1  0  0  0  0
  7  9  2  0  0  0  0
  7 26  1  0  0  0  0
  8 10  1  0  0  0  0
  8 27  1  0  0  0  0
  8 28  1  0  0  0  0
  9 11  1  0  0  0  0
  9 13  1  0  0  0  0
 10 14  2  0  0  0  0
 10 15  1  0  0  0  0
 11 12  1  0  0  0  0
 11 29  1  0  0  0  0
 11 30  1  0  0  0  0
 12 14  1  0  0  0  0
 12 31  1  0  0  0  0
 12 32  1  0  0  0  0
 13 33  1  0  0  0  0
 13 34  1  0  0  0  0
 13 35  1  0  0  0  0
 14 36  1  0  0  0  0
 15 37  1  0  0  0  0
 15 38  1  0  0  0  0
 15 39  1  0  0  0  0
M  END
> <PUBCHEM_COMPOUND_CID>
10987384

> <PUBCHEM_CONFORMER_RMSD>
0.4

> <PUBCHEM_CONFORMER_DIVERSEORDER>
1
2

> <PUBCHEM_MMFF94_PARTIAL_CHARGES>
19
1 -0.19
10 -0.28
11 0.14
12 0.14
13 0.14
14 -0.29
15 0.14
16 0.1
17 0.1
2 -0.19
26 0.15
3 -0.06
36 0.15
4 0.09
5 0.09
6 0.09
7 -0.19
8 0.14
9 -0.28

> <PUBCHEM_EFFECTIVE_ROTOR_COUNT>
1

> <PUBCHEM_PHARMACOPHORE_FEATURES>
1
3 1 5 6 hydrophobe

> <PUBCHEM_HEAVY_ATOM_COUNT>
15

> <PUBCHEM_ATOM_DEF_STEREO_COUNT>
2

> <PUBCHEM_ATOM_UDEF_STEREO_COUNT>
0

> <PUBCHEM_BOND_DEF_STEREO_COUNT>
2

> <PUBCHEM_BOND_UDEF_STEREO_COUNT>
0

> <PUBCHEM_ISOTOPIC_ATOM_COUNT>
0

> <PUBCHEM_COMPONENT_COUNT>
1

> <PUBCHEM_CACTVS_TAUTO_COUNT>
1

> <PUBCHEM_CONFORMER_ID>
00A7A77800000001

> <PUBCHEM_MMFF94_ENERGY>
37.6631

> <PUBCHEM_FEATURE_SELFOVERLAP>
5.074

> <PUBCHEM_SHAPE_FINGERPRINT>
10353120 184 18190193462443699358
11132069 177 18342177799431243160
11680986 33 17903634082010339826
14614273 12 18411693283788596295
14817 1 13142295146733840265
15490181 7 18196370325410464614
15775835 57 18272657826564066139
15852999 172 17900520307803291208
15881359 60 18334569101894985569
16945 1 18198918069929999514
18981168 100 17896897459944672166
19930374 2 18335133163865199944
20511035 2 17830173506602655095
20525323 117 18411696608198707154
20871998 184 18334862688463524449
21160774 45 18410289233325800837
220403 375 18045208350179763507
22802520 49 18129405776807473094
2334 1 17618506918382133098
23402539 116 17914036844872727046
23419403 2 15022915923613571715
23559900 14 18057897857970714726
238 59 17615954526940528429
2748010 2 18121227480159325981
2897 32 17040922534009421305
57483677 51 17975428918290996154
81228 2 18340205318409929122

> <PUBCHEM_SHAPE_MULTIPOLES>
308.69
4.44
2.59
1.35
3
0.37
0.21
-0.82
-0.53
-1.54
0.67
-0.35
-0.24
0.03

> <PUBCHEM_SHAPE_SELFOVERLAP>
622.419

> <PUBCHEM_SHAPE_VOLUME>
181.6

> <PUBCHEM_COORDINATE_TYPE>
2
5
10

$$$$
