519323
  -OEChem-09092003373D

 27 27  0     1  0  0  0  0  0999 V2000
    2.6347   -1.1290    0.5460 O   0  0  0  0  0  0  0  0  0  0  0  0
    0.5434    0.0469    0.5627 C   0  0  1  0  0  0  0  0  0  0  0  0
    1.9485   -0.0222   -0.0376 C   0  0  0  0  0  0  0  0  0  0  0  0
   -0.1738    1.3363    0.0975 C   0  0  0  0  0  0  0  0  0  0  0  0
   -0.2360   -1.2107    0.2663 C   0  0  0  0  0  0  0  0  0  0  0  0
    2.7306    1.2534    0.2664 C   0  0  0  0  0  0  0  0  0  0  0  0
    1.8745   -0.2647   -1.5424 C   0  0  0  0  0  0  0  0  0  0  0  0
   -1.6707    1.2232    0.0162 C   0  0  0  0  0  0  0  0  0  0  0  0
   -2.3068    0.0401   -0.0312 C   0  0  0  0  0  0  0  0  0  0  0  0
   -1.5482   -1.1944   -0.0082 C   0  0  0  0  0  0  0  0  0  0  0  0
   -3.7962   -0.0789   -0.1358 C   0  0  0  0  0  0  0  0  0  0  0  0
    0.6349    0.0819    1.6587 H   0  0  0  0  0  0  0  0  0  0  0  0
    0.1627    1.6959   -0.8790 H   0  0  0  0  0  0  0  0  0  0  0  0
    0.0631    2.1357    0.8120 H   0  0  0  0  0  0  0  0  0  0  0  0
    0.2673   -2.1720    0.3244 H   0  0  0  0  0  0  0  0  0  0  0  0
    3.7826    1.1304   -0.0182 H   0  0  0  0  0  0  0  0  0  0  0  0
    2.3477    2.1316   -0.2617 H   0  0  0  0  0  0  0  0  0  0  0  0
    2.7322    1.4660    1.3417 H   0  0  0  0  0  0  0  0  0  0  0  0
    1.3995   -1.2204   -1.7894 H   0  0  0  0  0  0  0  0  0  0  0  0
    2.8900   -0.3423   -1.9521 H   0  0  0  0  0  0  0  0  0  0  0  0
    1.3694    0.5290   -2.0978 H   0  0  0  0  0  0  0  0  0  0  0  0
   -2.2360    2.1500   -0.0280 H   0  0  0  0  0  0  0  0  0  0  0  0
   -2.0738   -2.1260   -0.1925 H   0  0  0  0  0  0  0  0  0  0  0  0
    2.7107   -0.9665    1.5017 H   0  0  0  0  0  0  0  0  0  0  0  0
   -4.2843    0.9015   -0.1528 H   0  0  0  0  0  0  0  0  0  0  0  0
   -4.1986   -0.6335    0.7188 H   0  0  0  0  0  0  0  0  0  0  0  0
   -4.0779   -0.6045   -1.0546 H   0  0  0  0  0  0  0  0  0  0  0  0
  1  3  1  0  0  0  0
  1 24  1  0  0  0  0
  2  3  1  0  0  0  0
  2  4  1  0  0  0  0
  2  5  1  0  0  0  0
  2 12  1  0  0  0  0
  3  6  1  0  0  0  0
  3  7  1  0  0  0  0
  4  8  1  0  0  0  0
  4 13  1  0  0  0  0
  4 14  1  0  0  0  0
  5 10  2  0  0  0  0
  5 15  1  0  0  0  0
  6 16  1  0  0  0  0
  6 17  1  0  0  0  0
  6 18  1  0  0  0  0
  7 19  1  0  0  0  0
  7 20  1  0  0  0  0
  7 21  1  0  0  0  0
  8  9  2  0  0  0  0
  8 22  1  0  0  0  0
  9 10  1  0  0  0  0
  9 11  1  0  0  0  0
 10 23  1  0  0  0  0
 11 25  1  0  0  0  0
 11 26  1  0  0  0  0
 11 27  1  0  0  0  0
M  END
> <PUBCHEM_COMPOUND_CID>
519323

> <PUBCHEM_CONFORMER_RMSD>
0.4

> <PUBCHEM_CONFORMER_DIVERSEORDER>
3
6
1
5
2
4

> <PUBCHEM_MMFF94_PARTIAL_CHARGES>
13
1 -0.68
10 -0.15
11 0.14
15 0.15
2 0.14
22 0.15
23 0.15
24 0.4
3 0.28
4 0.14
5 -0.29
8 -0.29
9 -0.14

> <PUBCHEM_EFFECTIVE_ROTOR_COUNT>
1.4

> <PUBCHEM_PHARMACOPHORE_FEATURES>
4
1 1 acceptor
1 1 donor
3 3 6 7 hydrophobe
6 2 4 5 8 9 10 rings

> <PUBCHEM_HEAVY_ATOM_COUNT>
11

> <PUBCHEM_ATOM_DEF_STEREO_COUNT>
0

> <PUBCHEM_ATOM_UDEF_STEREO_COUNT>
1

> <PUBCHEM_BOND_DEF_STEREO_COUNT>
0

> <PUBCHEM_BOND_UDEF_STEREO_COUNT>
0

> <PUBCHEM_ISOTOPIC_ATOM_COUNT>
0

> <PUBCHEM_COMPONENT_COUNT>
1

> <PUBCHEM_CACTVS_TAUTO_COUNT>
1

> <PUBCHEM_CONFORMER_ID>
0007EC9B00000003

> <PUBCHEM_MMFF94_ENERGY>
26.235

> <PUBCHEM_FEATURE_SELFOVERLAP>
20.297

> <PUBCHEM_SHAPE_FINGERPRINT>
12524768 44 18272098222279262028
12897270 3 18411986866183123476
12932764 1 18335708229842092461
14325111 11 18409727352945895129
15310529 11 15195286395901509817
15775835 57 18260831500859728453
16945 1 18341057336889648075
18186145 218 18412549782125206397
20201158 50 18059860562348470806
20645476 183 17749967655319710863
21028194 46 18113900425093071143
21040471 1 18335986371908337738
21293036 1 18409726296573695045
23235685 24 18411975888568565633
23402539 116 18272074002990387037
23552423 10 18259987080435631874
2748010 2 18122062276168419195
29004967 10 16415478233687844338
3248919 1 17489871522648597177
369184 2 18409445890590179881
5084963 1 17531529776093871684
528886 8 18339919415364023915
7364860 26 18413106139625523274
8030462 33 18187656781675470990

> <PUBCHEM_SHAPE_MULTIPOLES>
220.51
4.81
1.42
0.89
1.76
0.11
0.29
0.15
0.24
-0.16
-0.12
-0.48
-0.11
0.07

> <PUBCHEM_SHAPE_SELFOVERLAP>
442.754

> <PUBCHEM_SHAPE_VOLUME>
130.3

> <PUBCHEM_COORDINATE_TYPE>
2
5
10

$$$$
