12315350
  -OEChem-09112005323D

 49 51  0     1  0  0  0  0  0999 V2000
    0.5695   -0.4938   -1.0494 O   0  0  0  0  0  0  0  0  0  0  0  0
   -1.0728   -1.8313   -0.0803 O   0  0  0  0  0  0  0  0  0  0  0  0
    2.1415    0.6574    0.2342 O   0  0  0  0  0  0  0  0  0  0  0  0
   -2.7252    1.2129    1.8683 O   0  0  0  0  0  0  0  0  0  0  0  0
    2.3476   -2.6887   -1.2188 O   0  0  0  0  0  0  0  0  0  0  0  0
    5.1610   -1.8456   -0.9844 O   0  0  0  0  0  0  0  0  0  0  0  0
    5.5276   -0.1811    1.3501 O   0  0  0  0  0  0  0  0  0  0  0  0
   -0.6569    2.3294   -3.1755 O   0  0  0  0  0  0  0  0  0  0  0  0
    2.4010    2.5319    2.2279 O   0  0  0  0  0  0  0  0  0  0  0  0
   -5.5905   -0.7158    0.0386 O   0  0  0  0  0  0  0  0  0  0  0  0
   -4.8848   -2.1941    1.6344 O   0  0  0  0  0  0  0  0  0  0  0  0
   -1.7049    0.3742   -1.0507 C   0  0  2  0  0  0  0  0  0  0  0  0
   -3.0970    0.2797   -0.3821 C   0  0  2  0  0  0  0  0  0  0  0  0
   -0.6549   -0.4783   -0.3133 C   0  0  2  0  0  0  0  0  0  0  0  0
   -3.1858    1.4992    0.5571 C   0  0  2  0  0  0  0  0  0  0  0  0
   -1.4351    1.8567   -0.9716 C   0  0  0  0  0  0  0  0  0  0  0  0
    1.6933   -0.6310   -0.1802 C   0  0  2  0  0  0  0  0  0  0  0  0
   -2.2467    2.4624   -0.0944 C   0  0  0  0  0  0  0  0  0  0  0  0
   -3.3244   -1.0513    0.2524 C   0  0  0  0  0  0  0  0  0  0  0  0
    2.7956   -1.3608   -0.9476 C   0  0  1  0  0  0  0  0  0  0  0  0
    4.0919   -1.4178   -0.1393 C   0  0  2  0  0  0  0  0  0  0  0  0
    4.4545   -0.0429    0.4225 C   0  0  1  0  0  0  0  0  0  0  0  0
    3.2530    0.5891    1.1293 C   0  0  1  0  0  0  0  0  0  0  0  0
   -0.3844    2.5128   -1.7942 C   0  0  0  0  0  0  0  0  0  0  0  0
   -2.3681   -1.9815    0.3344 C   0  0  0  0  0  0  0  0  0  0  0  0
    3.5555    2.0095    1.5961 C   0  0  0  0  0  0  0  0  0  0  0  0
   -4.6603   -1.4014    0.7364 C   0  0  0  0  0  0  0  0  0  0  0  0
   -1.7805    0.0489   -2.0963 H   0  0  0  0  0  0  0  0  0  0  0  0
   -3.8266    0.4261   -1.1940 H   0  0  0  0  0  0  0  0  0  0  0  0
   -0.4752   -0.0226    0.6725 H   0  0  0  0  0  0  0  0  0  0  0  0
   -4.2087    1.8857    0.6057 H   0  0  0  0  0  0  0  0  0  0  0  0
    1.4125   -1.2263    0.7007 H   0  0  0  0  0  0  0  0  0  0  0  0
   -2.2204    3.5175    0.1392 H   0  0  0  0  0  0  0  0  0  0  0  0
    2.9735   -0.8817   -1.9177 H   0  0  0  0  0  0  0  0  0  0  0  0
    4.0142   -2.1623    0.6627 H   0  0  0  0  0  0  0  0  0  0  0  0
    4.8060    0.6023   -0.3919 H   0  0  0  0  0  0  0  0  0  0  0  0
    2.9571   -0.0003    2.0079 H   0  0  0  0  0  0  0  0  0  0  0  0
    0.6019    2.0977   -1.5727 H   0  0  0  0  0  0  0  0  0  0  0  0
   -0.3461    3.5896   -1.5973 H   0  0  0  0  0  0  0  0  0  0  0  0
   -2.5170   -2.9841    0.7130 H   0  0  0  0  0  0  0  0  0  0  0  0
    3.8004    2.6647    0.7535 H   0  0  0  0  0  0  0  0  0  0  0  0
    4.3812    2.0331    2.3130 H   0  0  0  0  0  0  0  0  0  0  0  0
   -2.7873    2.0328    2.3877 H   0  0  0  0  0  0  0  0  0  0  0  0
    2.1847   -3.1319   -0.3688 H   0  0  0  0  0  0  0  0  0  0  0  0
    5.9707   -1.8582   -0.4458 H   0  0  0  0  0  0  0  0  0  0  0  0
    5.2225   -0.7462    2.0803 H   0  0  0  0  0  0  0  0  0  0  0  0
    0.0563    2.7695   -3.6687 H   0  0  0  0  0  0  0  0  0  0  0  0
    1.6734    2.5016    1.5831 H   0  0  0  0  0  0  0  0  0  0  0  0
   -6.5019   -0.9239    0.3357 H   0  0  0  0  0  0  0  0  0  0  0  0
  1 14  1  0  0  0  0
  1 17  1  0  0  0  0
  2 14  1  0  0  0  0
  2 25  1  0  0  0  0
  3 17  1  0  0  0  0
  3 23  1  0  0  0  0
  4 15  1  0  0  0  0
  4 43  1  0  0  0  0
  5 20  1  0  0  0  0
  5 44  1  0  0  0  0
  6 21  1  0  0  0  0
  6 45  1  0  0  0  0
  7 22  1  0  0  0  0
  7 46  1  0  0  0  0
  8 24  1  0  0  0  0
  8 47  1  0  0  0  0
  9 26  1  0  0  0  0
  9 48  1  0  0  0  0
 10 27  1  0  0  0  0
 10 49  1  0  0  0  0
 11 27  2  0  0  0  0
 12 13  1  0  0  0  0
 12 14  1  0  0  0  0
 12 16  1  0  0  0  0
 12 28  1  0  0  0  0
 13 15  1  0  0  0  0
 13 19  1  0  0  0  0
 13 29  1  0  0  0  0
 14 30  1  0  0  0  0
 15 18  1  0  0  0  0
 15 31  1  0  0  0  0
 16 18  2  0  0  0  0
 16 24  1  0  0  0  0
 17 20  1  0  0  0  0
 17 32  1  0  0  0  0
 18 33  1  0  0  0  0
 19 25  2  0  0  0  0
 19 27  1  0  0  0  0
 20 21  1  0  0  0  0
 20 34  1  0  0  0  0
 21 22  1  0  0  0  0
 21 35  1  0  0  0  0
 22 23  1  0  0  0  0
 22 36  1  0  0  0  0
 23 26  1  0  0  0  0
 23 37  1  0  0  0  0
 24 38  1  0  0  0  0
 24 39  1  0  0  0  0
 25 40  1  0  0  0  0
 26 41  1  0  0  0  0
 26 42  1  0  0  0  0
M  END
> <PUBCHEM_COMPOUND_CID>
12315350

> <PUBCHEM_CONFORMER_RMSD>
0.8

> <PUBCHEM_CONFORMER_DIVERSEORDER>
1
35
88
42
58
71
52
70
62
77
56
96
87
82
5
26
80
68
27
47
57
40
91
7
81
55
36
93
23
50
79
69
74
66
19
51
94
48
14
17
37
76
39
84
15
95
75
85
83
18
2
73
97
13
101
22
30
53
38
59
64
102
32
78
54
28
34
8
60
6
9
44
67
45
20
86
16
63
49
72
46
43
31
24
61
21
41
3
33
100
25
29
10
89
12
90
99
65
98
92
11
4

> <PUBCHEM_MMFF94_PARTIAL_CHARGES>
36
1 -0.56
10 -0.65
11 -0.57
12 0.14
13 0.14
14 0.56
15 0.42
16 -0.28
17 0.56
18 -0.29
19 -0.12
2 -0.36
20 0.28
21 0.28
22 0.28
23 0.28
24 0.42
25 -0.07
26 0.28
27 0.71
3 -0.56
33 0.15
4 -0.68
40 0.15
43 0.4
44 0.4
45 0.4
46 0.4
47 0.4
48 0.4
49 0.5
5 -0.68
6 -0.68
7 -0.68
8 -0.68
9 -0.68

> <PUBCHEM_EFFECTIVE_ROTOR_COUNT>
6.8

> <PUBCHEM_PHARMACOPHORE_FEATURES>
21
1 1 acceptor
1 10 acceptor
1 11 acceptor
1 2 acceptor
1 3 acceptor
1 4 acceptor
1 4 donor
1 5 acceptor
1 5 donor
1 6 acceptor
1 6 donor
1 7 acceptor
1 7 donor
1 8 acceptor
1 8 donor
1 9 acceptor
1 9 donor
3 10 11 27 anion
5 12 13 15 16 18 rings
6 2 12 13 14 19 25 rings
6 3 17 20 21 22 23 rings

> <PUBCHEM_HEAVY_ATOM_COUNT>
27

> <PUBCHEM_ATOM_DEF_STEREO_COUNT>
9

> <PUBCHEM_ATOM_UDEF_STEREO_COUNT>
0

> <PUBCHEM_BOND_DEF_STEREO_COUNT>
0

> <PUBCHEM_BOND_UDEF_STEREO_COUNT>
0

> <PUBCHEM_ISOTOPIC_ATOM_COUNT>
0

> <PUBCHEM_COMPONENT_COUNT>
1

> <PUBCHEM_CACTVS_TAUTO_COUNT>
1

> <PUBCHEM_CONFORMER_ID>
00BBEAD600000001

> <PUBCHEM_MMFF94_ENERGY>
68.8659

> <PUBCHEM_FEATURE_SELFOVERLAP>
106.869

> <PUBCHEM_SHAPE_FINGERPRINT>
10165383 225 17831308202618987732
10319926 262 18263914442093145578
10366900 7 18408610249106032330
11045977 3 18343021056320323961
11370993 144 18058455300483247552
11595378 159 17894899707768077450
12236239 1 16153426142661628510
12422481 6 18265922227871876281
12596602 18 16733264650941881706
12633257 1 18270683039319342288
12788726 201 15936956445601529397
13224815 77 18113056030238155932
133893 2 17097803371813504341
13402501 40 18413105048424268226
13583140 156 18201153243872573775
14341114 176 18273219715824134642
14866123 147 15461574561517528286
17349148 13 16370724824682151330
1813 80 17749389316656372869
18222031 100 18113621226581084855
18785283 64 18271802492971247752
19930381 70 17700114775945701553
20600515 1 17606108722335737491
21792961 116 18271812268854799150
22122407 14 16773527645965172083
23557571 272 18260260837366680733
23559900 14 18408325484015080885
3009799 131 18261099791310363655
350125 39 18342460378499326800
392239 28 18130792304030320867
394222 165 16885553797337432965
469060 322 17894639136370783681
508706 21 18263915549503500948
5104073 3 18270396080102216874
6287921 2 18268146646710165452

> <PUBCHEM_SHAPE_MULTIPOLES>
491.08
10.53
3
1.85
3.43
0.75
-0.33
-4.95
4.14
-0.58
-0.42
0.47
1.34
2.61

> <PUBCHEM_SHAPE_SELFOVERLAP>
1041.641

> <PUBCHEM_SHAPE_VOLUME>
268.6

> <PUBCHEM_COORDINATE_TYPE>
2
5
10

$$$$
