193549
  -OEChem-09112006173D

 20 20  0     0  0  0  0  0  0999 V2000
   -2.2351   -1.4370   -0.0003 O   0  0  0  0  0  0  0  0  0  0  0  0
    3.8603    0.2764    0.0022 O   0  0  0  0  0  0  0  0  0  0  0  0
   -4.0166    0.5647    0.0027 N   0  0  0  0  0  0  0  0  0  0  0  0
   -0.2682   -0.1525   -0.0010 C   0  0  0  0  0  0  0  0  0  0  0  0
   -1.7150   -0.3021   -0.0007 C   0  0  0  0  0  0  0  0  0  0  0  0
    0.3006    1.1211   -0.0012 C   0  0  0  0  0  0  0  0  0  0  0  0
    0.5505   -1.2820   -0.0003 C   0  0  0  0  0  0  0  0  0  0  0  0
   -2.6090    0.9478   -0.0008 C   0  0  0  0  0  0  0  0  0  0  0  0
    1.6880    1.2653   -0.0008 C   0  0  0  0  0  0  0  0  0  0  0  0
    1.9379   -1.1376    0.0002 C   0  0  0  0  0  0  0  0  0  0  0  0
    2.5066    0.1359   -0.0001 C   0  0  0  0  0  0  0  0  0  0  0  0
   -0.2962    2.0276   -0.0017 H   0  0  0  0  0  0  0  0  0  0  0  0
    0.1322   -2.2850    0.0001 H   0  0  0  0  0  0  0  0  0  0  0  0
   -2.4091    1.5395   -0.8988 H   0  0  0  0  0  0  0  0  0  0  0  0
   -2.4059    1.5421    0.8949 H   0  0  0  0  0  0  0  0  0  0  0  0
    2.1193    2.2628   -0.0007 H   0  0  0  0  0  0  0  0  0  0  0  0
    2.5706   -2.0210    0.0012 H   0  0  0  0  0  0  0  0  0  0  0  0
   -4.2136   -0.0116    0.8199 H   0  0  0  0  0  0  0  0  0  0  0  0
   -4.2170   -0.0138   -0.8121 H   0  0  0  0  0  0  0  0  0  0  0  0
    4.0787    1.2242    0.0022 H   0  0  0  0  0  0  0  0  0  0  0  0
  1  5  2  0  0  0  0
  2 11  1  0  0  0  0
  2 20  1  0  0  0  0
  3  8  1  0  0  0  0
  3 18  1  0  0  0  0
  3 19  1  0  0  0  0
  4  5  1  0  0  0  0
  4  6  2  0  0  0  0
  4  7  1  0  0  0  0
  5  8  1  0  0  0  0
  6  9  1  0  0  0  0
  6 12  1  0  0  0  0
  7 10  2  0  0  0  0
  7 13  1  0  0  0  0
  8 14  1  0  0  0  0
  8 15  1  0  0  0  0
  9 11  2  0  0  0  0
  9 16  1  0  0  0  0
 10 11  1  0  0  0  0
 10 17  1  0  0  0  0
M  END
> <PUBCHEM_COMPOUND_CID>
193549

> <PUBCHEM_CONFORMER_RMSD>
0.4

> <PUBCHEM_CONFORMER_DIVERSEORDER>
1
9
5
8
2
4
6
11
10
7
3

> <PUBCHEM_MMFF94_PARTIAL_CHARGES>
18
1 -0.57
10 -0.15
11 0.08
12 0.15
13 0.15
16 0.15
17 0.15
18 0.36
19 0.36
2 -0.53
20 0.45
3 -0.99
4 0.09
5 0.42
6 -0.15
7 -0.15
8 0.33
9 -0.15

> <PUBCHEM_EFFECTIVE_ROTOR_COUNT>
2

> <PUBCHEM_PHARMACOPHORE_FEATURES>
5
1 1 acceptor
1 2 donor
1 3 cation
1 3 donor
6 4 6 7 9 10 11 rings

> <PUBCHEM_HEAVY_ATOM_COUNT>
11

> <PUBCHEM_ATOM_DEF_STEREO_COUNT>
0

> <PUBCHEM_ATOM_UDEF_STEREO_COUNT>
0

> <PUBCHEM_BOND_DEF_STEREO_COUNT>
0

> <PUBCHEM_BOND_UDEF_STEREO_COUNT>
0

> <PUBCHEM_ISOTOPIC_ATOM_COUNT>
0

> <PUBCHEM_COMPONENT_COUNT>
1

> <PUBCHEM_CACTVS_TAUTO_COUNT>
10

> <PUBCHEM_CONFORMER_ID>
0002F40D00000001

> <PUBCHEM_MMFF94_ENERGY>
26.1982

> <PUBCHEM_FEATURE_SELFOVERLAP>
25.371

> <PUBCHEM_SHAPE_FINGERPRINT>
10219947 1 18410858728640524044
11062470 55 17632857512209042937
11471102 20 18338230475378122421
12932764 1 17095510812221563422
13380535 76 18410855456165926143
14144814 61 18411702041459047593
14325111 11 18338797917819868900
14897335 6 18412258428734037023
15775835 57 18408888438147444141
16945 1 18410573955171199524
17844478 74 17822581516742666157
20201158 50 18410573968024433435
20645477 70 18267297634855097415
21040471 1 18266459995745984742
23235685 24 18410005533471647648
23402539 116 18131343095210953637
23402655 69 18270108025383295021
23552423 10 18261674877823030535
2748010 2 18267303329464513588
5084963 1 18200035186602198658
528886 8 18411414012114232434
53812653 166 18341889705973252424
63268167 104 18411985723732404936

> <PUBCHEM_SHAPE_MULTIPOLES>
209.66
5.45
1.43
0.59
1.78
0.16
0
-0.89
0.01
-0.01
0
-0.02
-0.01
0

> <PUBCHEM_SHAPE_SELFOVERLAP>
435.38

> <PUBCHEM_SHAPE_VOLUME>
120.1

> <PUBCHEM_COORDINATE_TYPE>
2
5
10

$$$$
