13783720
  -OEChem-09032003193D

 48 52  0     1  0  0  0  0  0999 V2000
   -3.5146   -1.3372    0.5480 O   0  0  0  0  0  0  0  0  0  0  0  0
   -1.7657   -2.8444    0.3774 O   0  0  0  0  0  0  0  0  0  0  0  0
   -0.3519    2.8187    0.3952 N   0  0  2  0  0  0  0  0  0  0  0  0
    0.6855   -1.5841    0.9576 N   0  0  0  0  0  0  0  0  0  0  0  0
    0.2206    1.7863   -0.5186 C   0  0  1  0  0  0  0  0  0  0  0  0
    0.8163    0.7260    0.4300 C   0  0  1  0  0  0  0  0  0  0  0  0
   -0.8417    1.2564   -1.4927 C   0  0  2  0  0  0  0  0  0  0  0  0
   -1.9631    0.6008   -0.6559 C   0  0  2  0  0  0  0  0  0  0  0  0
    1.0775    1.5060    1.7499 C   0  0  0  0  0  0  0  0  0  0  0  0
   -0.1176   -0.5008    0.6365 C   0  0  0  0  0  0  0  0  0  0  0  0
    0.6766    2.9454    1.4389 C   0  0  0  0  0  0  0  0  0  0  0  0
   -2.6356    1.7205    0.1428 C   0  0  0  0  0  0  0  0  0  0  0  0
   -1.6420    2.4664    1.0323 C   0  0  0  0  0  0  0  0  0  0  0  0
   -1.4010   -0.5076    0.2221 C   0  0  0  0  0  0  0  0  0  0  0  0
    2.1056    0.0141    0.0718 C   0  0  0  0  0  0  0  0  0  0  0  0
   -0.2624    0.3232   -2.5612 C   0  0  0  0  0  0  0  0  0  0  0  0
    1.9796   -1.3350    0.4763 C   0  0  0  0  0  0  0  0  0  0  0  0
    3.2854    0.4954   -0.4634 C   0  0  0  0  0  0  0  0  0  0  0  0
   -2.2216   -1.7136    0.3883 C   0  0  0  0  0  0  0  0  0  0  0  0
   -1.3237   -0.0935   -3.5583 C   0  0  0  0  0  0  0  0  0  0  0  0
    3.0434   -2.2096    0.3897 C   0  0  0  0  0  0  0  0  0  0  0  0
    4.3566   -0.3936   -0.5794 C   0  0  0  0  0  0  0  0  0  0  0  0
    4.2392   -1.7293   -0.1513 C   0  0  0  0  0  0  0  0  0  0  0  0
   -4.4453   -2.4103    0.7240 C   0  0  0  0  0  0  0  0  0  0  0  0
    1.0166    2.2705   -1.1002 H   0  0  0  0  0  0  0  0  0  0  0  0
   -1.2641    2.1195   -2.0294 H   0  0  0  0  0  0  0  0  0  0  0  0
   -2.7217    0.1882   -1.3299 H   0  0  0  0  0  0  0  0  0  0  0  0
    2.1217    1.4821    2.0844 H   0  0  0  0  0  0  0  0  0  0  0  0
    0.4732    1.1080    2.5747 H   0  0  0  0  0  0  0  0  0  0  0  0
    0.3333    3.4888    2.3262 H   0  0  0  0  0  0  0  0  0  0  0  0
    1.5346    3.4979    1.0360 H   0  0  0  0  0  0  0  0  0  0  0  0
   -3.4521    1.3271    0.7596 H   0  0  0  0  0  0  0  0  0  0  0  0
   -3.0937    2.4341   -0.5548 H   0  0  0  0  0  0  0  0  0  0  0  0
   -2.1124    3.3954    1.3780 H   0  0  0  0  0  0  0  0  0  0  0  0
   -1.5042    1.8602    1.9362 H   0  0  0  0  0  0  0  0  0  0  0  0
    0.1961   -0.5745   -2.1367 H   0  0  0  0  0  0  0  0  0  0  0  0
    0.5334    0.8531   -3.0993 H   0  0  0  0  0  0  0  0  0  0  0  0
    0.3149   -2.5210    1.0130 H   0  0  0  0  0  0  0  0  0  0  0  0
    3.3921    1.5315   -0.7631 H   0  0  0  0  0  0  0  0  0  0  0  0
   -2.0345   -0.8047   -3.1281 H   0  0  0  0  0  0  0  0  0  0  0  0
   -1.8773    0.7682   -3.9443 H   0  0  0  0  0  0  0  0  0  0  0  0
   -0.8528   -0.5939   -4.4115 H   0  0  0  0  0  0  0  0  0  0  0  0
    2.9577   -3.2412    0.7126 H   0  0  0  0  0  0  0  0  0  0  0  0
    5.3003   -0.0468   -0.9923 H   0  0  0  0  0  0  0  0  0  0  0  0
    5.0926   -2.3960   -0.2441 H   0  0  0  0  0  0  0  0  0  0  0  0
   -5.4428   -1.9789    0.8424 H   0  0  0  0  0  0  0  0  0  0  0  0
   -4.1998   -2.9807    1.6250 H   0  0  0  0  0  0  0  0  0  0  0  0
   -4.4454   -3.0594   -0.1568 H   0  0  0  0  0  0  0  0  0  0  0  0
  1 19  1  0  0  0  0
  1 24  1  0  0  0  0
  2 19  2  0  0  0  0
  3  5  1  0  0  0  0
  3 11  1  0  0  0  0
  3 13  1  0  0  0  0
  4 10  1  0  0  0  0
  4 17  1  0  0  0  0
  4 38  1  0  0  0  0
  5  6  1  0  0  0  0
  5  7  1  0  0  0  0
  5 25  1  0  0  0  0
  6  9  1  0  0  0  0
  6 10  1  0  0  0  0
  6 15  1  0  0  0  0
  7  8  1  0  0  0  0
  7 16  1  0  0  0  0
  7 26  1  0  0  0  0
  8 12  1  0  0  0  0
  8 14  1  0  0  0  0
  8 27  1  0  0  0  0
  9 11  1  0  0  0  0
  9 28  1  0  0  0  0
  9 29  1  0  0  0  0
 10 14  2  0  0  0  0
 11 30  1  0  0  0  0
 11 31  1  0  0  0  0
 12 13  1  0  0  0  0
 12 32  1  0  0  0  0
 12 33  1  0  0  0  0
 13 34  1  0  0  0  0
 13 35  1  0  0  0  0
 14 19  1  0  0  0  0
 15 17  1  0  0  0  0
 15 18  2  0  0  0  0
 16 20  1  0  0  0  0
 16 36  1  0  0  0  0
 16 37  1  0  0  0  0
 17 21  2  0  0  0  0
 18 22  1  0  0  0  0
 18 39  1  0  0  0  0
 20 40  1  0  0  0  0
 20 41  1  0  0  0  0
 20 42  1  0  0  0  0
 21 23  1  0  0  0  0
 21 43  1  0  0  0  0
 22 23  2  0  0  0  0
 22 44  1  0  0  0  0
 23 45  1  0  0  0  0
 24 46  1  0  0  0  0
 24 47  1  0  0  0  0
 24 48  1  0  0  0  0
M  END
> <PUBCHEM_COMPOUND_CID>
13783720

> <PUBCHEM_CONFORMER_RMSD>
0.8

> <PUBCHEM_CONFORMER_DIVERSEORDER>
1
3
2

> <PUBCHEM_MMFF94_PARTIAL_CHARGES>
24
1 -0.43
10 -0.04
11 0.27
13 0.27
14 -0.12
15 -0.14
17 0.1
18 -0.15
19 0.71
2 -0.57
21 -0.15
22 -0.15
23 -0.15
24 0.28
3 -0.81
38 0.4
39 0.15
4 -0.6
43 0.15
44 0.15
45 0.15
5 0.27
6 0.28
8 0.14

> <PUBCHEM_EFFECTIVE_ROTOR_COUNT>
4.2

> <PUBCHEM_PHARMACOPHORE_FEATURES>
10
1 2 acceptor
1 20 hydrophobe
1 3 cation
1 4 cation
1 4 donor
5 3 5 6 9 11 rings
5 4 6 10 15 17 rings
6 15 17 18 21 22 23 rings
6 3 5 7 8 12 13 rings
6 5 6 7 8 10 14 rings

> <PUBCHEM_HEAVY_ATOM_COUNT>
24

> <PUBCHEM_ATOM_DEF_STEREO_COUNT>
4

> <PUBCHEM_ATOM_UDEF_STEREO_COUNT>
0

> <PUBCHEM_BOND_DEF_STEREO_COUNT>
0

> <PUBCHEM_BOND_UDEF_STEREO_COUNT>
0

> <PUBCHEM_ISOTOPIC_ATOM_COUNT>
0

> <PUBCHEM_COMPONENT_COUNT>
1

> <PUBCHEM_CACTVS_TAUTO_COUNT>
3

> <PUBCHEM_CONFORMER_ID>
00D252A800000001

> <PUBCHEM_MMFF94_ENERGY>
93.5871

> <PUBCHEM_FEATURE_SELFOVERLAP>
52.944

> <PUBCHEM_SHAPE_FINGERPRINT>
107951 10 17263580811303292694
10863032 1 18410297969189255336
10948715 1 17550109160477385616
11578080 2 17968641809170100941
12173636 292 18121496848013762340
12403814 3 17168712903453957532
12506688 2 18338241573505186474
12553582 1 18341326798727475922
12633257 1 17916327007861139297
12969540 37 17976817906541296794
13027679 85 18411141359042682185
13140716 1 18337945671838895498
14790565 3 17908150879962039097
14817 1 15726923460712692405
14863182 85 16965206860454531299
15906896 17 17770214960155446356
16945 1 18189623910946085656
17349148 13 17976232675067495610
17357779 13 18041826441713597975
17980427 26 17552919937542090317
1813 80 17313666074309811599
20600515 1 18198363770357710549
20691752 17 16950279628512603569
21731516 1 17701793597331349860
22149856 69 17468496145846065347
22182313 1 18191284160983141753
229495 10 17629749322103285265
23352939 185 17749683985767192974
23419403 2 18191284169298802652
23557571 272 18340781368610039974
23559900 14 18269550547555682410
25222932 49 15684765157264093431
2748010 2 18266155387711707057
298252 57 16841049552232110669
7364860 26 17980766252854097835
9709674 26 17984424032114590230

> <PUBCHEM_SHAPE_MULTIPOLES>
472.21
5.91
3.21
1.98
2.77
0.36
-2.31
-4.71
0.45
-1.61
1.58
-0.92
0.41
0.53

> <PUBCHEM_SHAPE_SELFOVERLAP>
1053.226

> <PUBCHEM_SHAPE_VOLUME>
250.9

> <PUBCHEM_COORDINATE_TYPE>
2
5
10

$$$$
