102004590
  -OEChem-09032003373D

 50 54  0     1  0  0  0  0  0999 V2000
    0.6663    3.2330    0.2279 O   0  0  0  0  0  0  0  0  0  0  0  0
   -0.9063   -1.9781   -1.3943 O   0  0  0  0  0  0  0  0  0  0  0  0
   -0.9552   -3.2605    0.5265 O   0  0  0  0  0  0  0  0  0  0  0  0
    2.1243    1.5053   -0.5823 N   0  0  1  0  0  0  0  0  0  0  0  0
   -1.2903    1.1177   -1.4285 N   0  0  0  0  0  0  0  0  0  0  0  0
   -0.2131    0.1523    0.4907 C   0  0  2  0  0  0  0  0  0  0  0  0
    0.4127   -1.2720    0.4140 C   0  0  2  0  0  0  0  0  0  0  0  0
    1.1967    0.8425   -1.5380 C   0  0  2  0  0  0  0  0  0  0  0  0
    1.7151   -1.3596   -0.4509 C   0  0  1  0  0  0  0  0  0  0  0  0
   -0.1547    0.7527   -0.9073 C   0  0  0  0  0  0  0  0  0  0  0  0
    1.5456   -0.6327   -1.8079 C   0  0  0  0  0  0  0  0  0  0  0  0
    0.5876    1.1204    1.3978 C   0  0  0  0  0  0  0  0  0  0  0  0
    1.4711    2.1047    0.5955 C   0  0  2  0  0  0  0  0  0  0  0  0
    2.9023   -0.7278    0.2534 C   0  0  0  0  0  0  0  0  0  0  0  0
   -1.6938    0.2414    0.7024 C   0  0  0  0  0  0  0  0  0  0  0  0
    3.2739    0.6634   -0.2084 C   0  0  0  0  0  0  0  0  0  0  0  0
   -2.2572    0.8149   -0.4485 C   0  0  0  0  0  0  0  0  0  0  0  0
   -0.5577   -2.2977   -0.1155 C   0  0  0  0  0  0  0  0  0  0  0  0
   -2.4717   -0.1344    1.7816 C   0  0  0  0  0  0  0  0  0  0  0  0
    3.5905   -1.3690    1.2096 C   0  0  0  0  0  0  0  0  0  0  0  0
   -3.6224    1.0229   -0.5391 C   0  0  0  0  0  0  0  0  0  0  0  0
   -3.8494    0.0738    1.6953 C   0  0  0  0  0  0  0  0  0  0  0  0
   -4.4198    0.6471    0.5454 C   0  0  0  0  0  0  0  0  0  0  0  0
    3.2602   -2.7382    1.6948 C   0  0  0  0  0  0  0  0  0  0  0  0
    1.4743    4.3519   -0.0919 C   0  0  0  0  0  0  0  0  0  0  0  0
   -1.8289   -2.8739   -2.0223 C   0  0  0  0  0  0  0  0  0  0  0  0
    0.6278   -1.5985    1.4409 H   0  0  0  0  0  0  0  0  0  0  0  0
    1.1415    1.4134   -2.4696 H   0  0  0  0  0  0  0  0  0  0  0  0
    1.9408   -2.4061   -0.6934 H   0  0  0  0  0  0  0  0  0  0  0  0
    2.4835   -0.6902   -2.3786 H   0  0  0  0  0  0  0  0  0  0  0  0
    0.8092   -1.1008   -2.4642 H   0  0  0  0  0  0  0  0  0  0  0  0
    1.2122    0.5444    2.0912 H   0  0  0  0  0  0  0  0  0  0  0  0
   -0.0944    1.7026    2.0323 H   0  0  0  0  0  0  0  0  0  0  0  0
    2.2317    2.4778    1.2951 H   0  0  0  0  0  0  0  0  0  0  0  0
    3.8907    1.1764    0.5408 H   0  0  0  0  0  0  0  0  0  0  0  0
    3.9249    0.5721   -1.0883 H   0  0  0  0  0  0  0  0  0  0  0  0
   -2.0313   -0.5769    2.6679 H   0  0  0  0  0  0  0  0  0  0  0  0
    4.4405   -0.8798    1.6781 H   0  0  0  0  0  0  0  0  0  0  0  0
   -4.0675    1.4636   -1.4245 H   0  0  0  0  0  0  0  0  0  0  0  0
   -4.4902   -0.2104    2.5257 H   0  0  0  0  0  0  0  0  0  0  0  0
   -5.4951    0.7990    0.5006 H   0  0  0  0  0  0  0  0  0  0  0  0
    3.0636   -2.7018    2.7715 H   0  0  0  0  0  0  0  0  0  0  0  0
    4.1215   -3.3957    1.5368 H   0  0  0  0  0  0  0  0  0  0  0  0
    2.3981   -3.2123    1.2242 H   0  0  0  0  0  0  0  0  0  0  0  0
    2.1174    4.1480   -0.9533 H   0  0  0  0  0  0  0  0  0  0  0  0
    2.0787    4.6569    0.7681 H   0  0  0  0  0  0  0  0  0  0  0  0
    0.8137    5.1835   -0.3534 H   0  0  0  0  0  0  0  0  0  0  0  0
   -2.0225   -2.5069   -3.0337 H   0  0  0  0  0  0  0  0  0  0  0  0
   -2.7726   -2.8933   -1.4690 H   0  0  0  0  0  0  0  0  0  0  0  0
   -1.3972   -3.8770   -2.0885 H   0  0  0  0  0  0  0  0  0  0  0  0
  1 13  1  0  0  0  0
  1 25  1  0  0  0  0
  2 18  1  0  0  0  0
  2 26  1  0  0  0  0
  3 18  2  0  0  0  0
  4  8  1  0  0  0  0
  4 13  1  0  0  0  0
  4 16  1  0  0  0  0
  5 10  2  0  0  0  0
  5 17  1  0  0  0  0
  6  7  1  0  0  0  0
  6 10  1  0  0  0  0
  6 12  1  0  0  0  0
  6 15  1  0  0  0  0
  7  9  1  0  0  0  0
  7 18  1  0  0  0  0
  7 27  1  0  0  0  0
  8 10  1  0  0  0  0
  8 11  1  0  0  0  0
  8 28  1  0  0  0  0
  9 11  1  0  0  0  0
  9 14  1  0  0  0  0
  9 29  1  0  0  0  0
 11 30  1  0  0  0  0
 11 31  1  0  0  0  0
 12 13  1  0  0  0  0
 12 32  1  0  0  0  0
 12 33  1  0  0  0  0
 13 34  1  0  0  0  0
 14 16  1  0  0  0  0
 14 20  2  0  0  0  0
 15 17  1  0  0  0  0
 15 19  2  0  0  0  0
 16 35  1  0  0  0  0
 16 36  1  0  0  0  0
 17 21  2  0  0  0  0
 19 22  1  0  0  0  0
 19 37  1  0  0  0  0
 20 24  1  0  0  0  0
 20 38  1  0  0  0  0
 21 23  1  0  0  0  0
 21 39  1  0  0  0  0
 22 23  2  0  0  0  0
 22 40  1  0  0  0  0
 23 41  1  0  0  0  0
 24 42  1  0  0  0  0
 24 43  1  0  0  0  0
 24 44  1  0  0  0  0
 25 45  1  0  0  0  0
 25 46  1  0  0  0  0
 25 47  1  0  0  0  0
 26 48  1  0  0  0  0
 26 49  1  0  0  0  0
 26 50  1  0  0  0  0
M  END
> <PUBCHEM_COMPOUND_CID>
102004590

> <PUBCHEM_CONFORMER_RMSD>
0.8

> <PUBCHEM_CONFORMER_DIVERSEORDER>
1
5
3
4
2

> <PUBCHEM_MMFF94_PARTIAL_CHARGES>
29
1 -0.56
10 0.33
13 0.55
14 -0.28
15 -0.14
16 0.41
17 0.18
18 0.66
19 -0.15
2 -0.43
20 -0.29
21 -0.15
22 -0.15
23 -0.15
24 0.14
25 0.28
26 0.28
3 -0.57
37 0.15
38 0.15
39 0.15
4 -0.81
40 0.15
41 0.15
5 -0.63
6 0.2
7 0.06
8 0.33
9 0.14

> <PUBCHEM_EFFECTIVE_ROTOR_COUNT>
4

> <PUBCHEM_PHARMACOPHORE_FEATURES>
10
1 1 acceptor
1 24 hydrophobe
1 3 acceptor
1 4 cation
1 5 acceptor
5 5 6 10 15 17 rings
6 15 17 19 21 22 23 rings
6 4 6 8 10 12 13 rings
6 4 8 9 11 14 16 rings
6 6 7 8 9 10 11 rings

> <PUBCHEM_HEAVY_ATOM_COUNT>
26

> <PUBCHEM_ATOM_DEF_STEREO_COUNT>
3

> <PUBCHEM_ATOM_UDEF_STEREO_COUNT>
2

> <PUBCHEM_BOND_DEF_STEREO_COUNT>
1

> <PUBCHEM_BOND_UDEF_STEREO_COUNT>
0

> <PUBCHEM_ISOTOPIC_ATOM_COUNT>
0

> <PUBCHEM_COMPONENT_COUNT>
1

> <PUBCHEM_CACTVS_TAUTO_COUNT>
2

> <PUBCHEM_CONFORMER_ID>
0614776E00000001

> <PUBCHEM_MMFF94_ENERGY>
98.6709

> <PUBCHEM_FEATURE_SELFOVERLAP>
54.241

> <PUBCHEM_SHAPE_FINGERPRINT>
10863032 1 16878527660099931878
10948715 1 18053678150089000916
1100329 8 18337396049617321128
12422481 6 17475797554780432025
12507560 14 18338795615632989328
12788726 201 17485925543332249383
13134695 92 18334292024622206433
13140716 1 18122907804826739840
13583140 156 18188215411166229451
13965767 371 16839120970372073785
14022347 108 18197238991500031870
14142880 1 17476635850908997349
14178342 30 18053365872055094008
14223421 5 17977673335082163019
14955137 171 18338809926685916666
16945 1 18339662082240228348
17349148 13 17846773014373581983
17980427 23 17916566765535848312
20600515 1 17988097616374073384
20739085 24 18054256269888063185
20905425 154 17685776817986279511
21501502 16 18055070118929755124
229495 10 18113609084771758500
23184049 59 18338231549046268802
2334 1 17693944402616439120
23419403 2 17751899373069883308
23558518 356 17617669090743521764
23559900 14 17703793613762629182
238 59 18339625786163018701
2748010 2 17621598311541034574
3380486 145 18119217672173354364
34934 24 18411420635571000736
350125 39 17836657683333686696
4340502 62 17774720871208185311
484985 159 15003575308107640370
568465 68 18264211322457592035
81228 2 16613362078545798080

> <PUBCHEM_SHAPE_MULTIPOLES>
507.5
5.71
3.69
1.76
2.72
1.49
0.16
-0.72
-2.23
-1.76
0.31
0.27
-0.8
-1.04

> <PUBCHEM_SHAPE_SELFOVERLAP>
1132.9

> <PUBCHEM_SHAPE_VOLUME>
267.6

> <PUBCHEM_COORDINATE_TYPE>
2
5
10

$$$$
