13891912
  -OEChem-09032003223D

 49 52  0     1  0  0  0  0  0999 V2000
   -1.9964   -1.4377   -2.0384 O   0  0  0  0  0  0  0  0  0  0  0  0
    0.4833   -2.7569    0.5033 O   0  0  0  0  0  0  0  0  0  0  0  0
   -1.2435   -1.8490    1.7405 O   0  0  0  0  0  0  0  0  0  0  0  0
   -3.6891    2.3331    0.0467 N   0  0  1  0  0  0  0  0  0  0  0  0
    1.9431   -0.1851   -1.0892 N   0  0  0  0  0  0  0  0  0  0  0  0
   -1.4588    0.4022    0.1617 C   0  0  1  0  0  0  0  0  0  0  0  0
   -0.3965   -0.6910   -0.2197 C   0  0  1  0  0  0  0  0  0  0  0  0
   -1.3970    1.6747   -0.7077 C   0  0  0  0  0  0  0  0  0  0  0  0
   -2.9332    0.0111    0.2365 C   0  0  0  0  0  0  0  0  0  0  0  0
   -2.2966    2.7799   -0.1204 C   0  0  0  0  0  0  0  0  0  0  0  0
   -0.6413   -1.3000   -1.6279 C   0  0  0  0  0  0  0  0  0  0  0  0
   -3.7784    1.1045    0.8587 C   0  0  0  0  0  0  0  0  0  0  0  0
    1.0691   -0.1629   -0.0468 C   0  0  0  0  0  0  0  0  0  0  0  0
   -0.4584   -1.8174    0.8026 C   0  0  0  0  0  0  0  0  0  0  0  0
   -3.5058   -1.1091   -0.2374 C   0  0  0  0  0  0  0  0  0  0  0  0
   -2.8493   -2.1108   -1.1272 C   0  0  0  0  0  0  0  0  0  0  0  0
    1.6937    0.3621    1.0474 C   0  0  0  0  0  0  0  0  0  0  0  0
   -4.5044    3.3972    0.6306 C   0  0  0  0  0  0  0  0  0  0  0  0
    3.1553    0.3280   -0.6859 C   0  0  0  0  0  0  0  0  0  0  0  0
    3.0248    0.6818    0.6588 C   0  0  0  0  0  0  0  0  0  0  0  0
    4.3450    0.5043   -1.4012 C   0  0  0  0  0  0  0  0  0  0  0  0
    4.1345    1.2397    1.3241 C   0  0  0  0  0  0  0  0  0  0  0  0
    0.5359   -3.8789    1.3901 C   0  0  0  0  0  0  0  0  0  0  0  0
    5.4326    1.0588   -0.7204 C   0  0  0  0  0  0  0  0  0  0  0  0
    5.3313    1.4215    0.6213 C   0  0  0  0  0  0  0  0  0  0  0  0
   -1.1949    0.7158    1.1852 H   0  0  0  0  0  0  0  0  0  0  0  0
   -1.7099    1.4538   -1.7363 H   0  0  0  0  0  0  0  0  0  0  0  0
   -0.3733    2.0607   -0.7620 H   0  0  0  0  0  0  0  0  0  0  0  0
   -0.2186   -0.6389   -2.3915 H   0  0  0  0  0  0  0  0  0  0  0  0
   -0.1483   -2.2696   -1.7648 H   0  0  0  0  0  0  0  0  0  0  0  0
   -1.8791    3.1092    0.8406 H   0  0  0  0  0  0  0  0  0  0  0  0
   -2.2661    3.6403   -0.7998 H   0  0  0  0  0  0  0  0  0  0  0  0
   -4.8276    0.7884    0.9172 H   0  0  0  0  0  0  0  0  0  0  0  0
   -3.4424    1.2834    1.8888 H   0  0  0  0  0  0  0  0  0  0  0  0
   -4.5719   -1.2603   -0.0808 H   0  0  0  0  0  0  0  0  0  0  0  0
   -2.3548   -2.9242   -0.5889 H   0  0  0  0  0  0  0  0  0  0  0  0
   -3.6321   -2.5757   -1.7373 H   0  0  0  0  0  0  0  0  0  0  0  0
    1.7692   -0.5349   -2.0204 H   0  0  0  0  0  0  0  0  0  0  0  0
    1.2552    0.5068    2.0254 H   0  0  0  0  0  0  0  0  0  0  0  0
   -5.5531    3.0869    0.6960 H   0  0  0  0  0  0  0  0  0  0  0  0
   -4.4810    4.2914   -0.0022 H   0  0  0  0  0  0  0  0  0  0  0  0
   -4.1637    3.6755    1.6344 H   0  0  0  0  0  0  0  0  0  0  0  0
    4.4248    0.2224   -2.4457 H   0  0  0  0  0  0  0  0  0  0  0  0
    4.0693    1.5268    2.3696 H   0  0  0  0  0  0  0  0  0  0  0  0
    0.7796   -3.5483    2.4042 H   0  0  0  0  0  0  0  0  0  0  0  0
    1.3240   -4.5513    1.0409 H   0  0  0  0  0  0  0  0  0  0  0  0
   -0.4168   -4.4167    1.3764 H   0  0  0  0  0  0  0  0  0  0  0  0
    6.3717    1.2089   -1.2470 H   0  0  0  0  0  0  0  0  0  0  0  0
    6.1907    1.8510    1.1294 H   0  0  0  0  0  0  0  0  0  0  0  0
  1 11  1  0  0  0  0
  1 16  1  0  0  0  0
  2 14  1  0  0  0  0
  2 23  1  0  0  0  0
  3 14  2  0  0  0  0
  4 10  1  0  0  0  0
  4 12  1  0  0  0  0
  4 18  1  0  0  0  0
  5 13  1  0  0  0  0
  5 19  1  0  0  0  0
  5 38  1  0  0  0  0
  6  7  1  0  0  0  0
  6  8  1  0  0  0  0
  6  9  1  0  0  0  0
  6 26  1  0  0  0  0
  7 11  1  0  0  0  0
  7 13  1  0  0  0  0
  7 14  1  0  0  0  0
  8 10  1  0  0  0  0
  8 27  1  0  0  0  0
  8 28  1  0  0  0  0
  9 12  1  0  0  0  0
  9 15  2  0  0  0  0
 10 31  1  0  0  0  0
 10 32  1  0  0  0  0
 11 29  1  0  0  0  0
 11 30  1  0  0  0  0
 12 33  1  0  0  0  0
 12 34  1  0  0  0  0
 13 17  2  0  0  0  0
 15 16  1  0  0  0  0
 15 35  1  0  0  0  0
 16 36  1  0  0  0  0
 16 37  1  0  0  0  0
 17 20  1  0  0  0  0
 17 39  1  0  0  0  0
 18 40  1  0  0  0  0
 18 41  1  0  0  0  0
 18 42  1  0  0  0  0
 19 20  1  0  0  0  0
 19 21  2  0  0  0  0
 20 22  2  0  0  0  0
 21 24  1  0  0  0  0
 21 43  1  0  0  0  0
 22 25  1  0  0  0  0
 22 44  1  0  0  0  0
 23 45  1  0  0  0  0
 23 46  1  0  0  0  0
 23 47  1  0  0  0  0
 24 25  2  0  0  0  0
 24 48  1  0  0  0  0
 25 49  1  0  0  0  0
M  END
> <PUBCHEM_COMPOUND_CID>
13891912

> <PUBCHEM_CONFORMER_RMSD>
0.8

> <PUBCHEM_CONFORMER_DIVERSEORDER>
4
25
1
23
14
9
26
5
2
22
11
3
8
15
18
7
12
24
6
19
20
10
13
16
17
21

> <PUBCHEM_MMFF94_PARTIAL_CHARGES>
30
1 -0.56
10 0.27
11 0.28
12 0.41
13 -0.33
14 0.66
15 -0.29
16 0.42
17 -0.15
18 0.27
19 -0.15
2 -0.43
21 -0.15
22 -0.15
23 0.28
24 -0.15
25 -0.15
3 -0.57
35 0.15
38 0.27
39 0.15
4 -0.81
43 0.15
44 0.15
48 0.15
49 0.15
5 0.03
6 0.14
7 0.24
9 -0.28

> <PUBCHEM_EFFECTIVE_ROTOR_COUNT>
4.6

> <PUBCHEM_PHARMACOPHORE_FEATURES>
9
1 1 acceptor
1 3 acceptor
1 4 cation
1 5 cation
1 5 donor
5 5 13 17 19 20 rings
6 19 20 21 22 24 25 rings
6 4 6 8 9 10 12 rings
7 1 6 7 9 11 15 16 rings

> <PUBCHEM_HEAVY_ATOM_COUNT>
25

> <PUBCHEM_ATOM_DEF_STEREO_COUNT>
2

> <PUBCHEM_ATOM_UDEF_STEREO_COUNT>
0

> <PUBCHEM_BOND_DEF_STEREO_COUNT>
0

> <PUBCHEM_BOND_UDEF_STEREO_COUNT>
0

> <PUBCHEM_ISOTOPIC_ATOM_COUNT>
0

> <PUBCHEM_COMPONENT_COUNT>
1

> <PUBCHEM_CACTVS_TAUTO_COUNT>
1

> <PUBCHEM_CONFORMER_ID>
00D3F94800000004

> <PUBCHEM_MMFF94_ENERGY>
69.7007

> <PUBCHEM_FEATURE_SELFOVERLAP>
45.786

> <PUBCHEM_SHAPE_FINGERPRINT>
10006869 2 18196089933404335945
10498660 4 18340764853875516585
10948715 1 18269559351631867007
1100329 8 17974851975998918739
11315181 36 17896595275606168360
12173636 292 18333734649778811550
12236239 1 17313379080352626160
12390115 104 18341625788601775921
12403259 415 17560517413030234928
12633257 1 16153723010811794537
12788726 201 18120665874662576271
12930653 34 18188504501357540739
13140716 1 17902517313356787123
13149001 5 17396955321322852391
133893 2 17534873360968958314
13540713 5 18196353846296481911
14142880 1 18408878538728271349
14251751 93 18343017804644991548
14251757 17 17561371660202205000
15534591 1 18409166597388303226
16945 1 18412537730726470687
17349148 13 18042673070024872814
18785283 64 17897167914515407418
20600515 1 17325445253730847192
20645477 70 16916521315380491836
20739085 24 17750239101948179276
21033648 29 17917705821043934008
21033650 10 18198367167908645412
21756936 100 18335142016235960648
23366157 5 17824822235134877506
23402539 116 18338226193258824718
23419403 2 17263060892664658955
23557571 272 18131073779012474700
23559900 14 17772472283460897406
283562 15 18337663235026990707
2838139 119 18201151040686660981
34934 24 18410288074233354437
350125 39 18046069246272675728
394222 165 18124035620219717097
469060 322 18189918537772196305
5252454 2 18268706121792555257
531348 171 18201726163215319966
59755656 520 18259987080609854682
633830 44 18339078194585178358
7808743 9 18412825754964487545
9981440 41 18260832591902897723

> <PUBCHEM_SHAPE_MULTIPOLES>
486.92
9.4
3.5
1.49
8.82
0.98
0.19
-7.91
0.08
-3.76
-1.14
0.33
0.71
-0.74

> <PUBCHEM_SHAPE_SELFOVERLAP>
1058.621

> <PUBCHEM_SHAPE_VOLUME>
261.9

> <PUBCHEM_COORDINATE_TYPE>
2
5
10

$$$$
