12305773
  -OEChem-09032005463D

 52 55  0     1  0  0  0  0  0999 V2000
    4.6925    0.2714    0.0658 O   0  0  0  0  0  0  0  0  0  0  0  0
    1.6971   -3.5140    0.6540 O   0  0  0  0  0  0  0  0  0  0  0  0
    1.9281    3.0051    0.6835 O   0  0  0  0  0  0  0  0  0  0  0  0
    0.4296    1.5276    1.6483 O   0  0  0  0  0  0  0  0  0  0  0  0
   -1.8219   -1.2069   -0.1962 N   0  0  0  0  0  0  0  0  0  0  0  0
    0.2255    1.5953   -1.4456 N   0  0  0  0  0  0  0  0  0  0  0  0
    3.0862   -1.6060    0.2845 C   0  0  2  0  0  0  0  0  0  0  0  0
    1.8847   -0.6216    0.2443 C   0  0  2  0  0  0  0  0  0  0  0  0
    4.2892   -1.0006   -0.4799 C   0  0  2  0  0  0  0  0  0  0  0  0
    1.1201   -0.6205   -1.0852 C   0  0  0  0  0  0  0  0  0  0  0  0
    2.3852    0.7612    0.5502 C   0  0  0  0  0  0  0  0  0  0  0  0
    2.7093   -3.0086   -0.1952 C   0  0  0  0  0  0  0  0  0  0  0  0
   -0.0384    0.3350   -1.0474 C   0  0  0  0  0  0  0  0  0  0  0  0
    5.5297   -1.8901   -0.4390 C   0  0  0  0  0  0  0  0  0  0  0  0
   -1.3131   -0.0102   -0.6388 C   0  0  0  0  0  0  0  0  0  0  0  0
    3.6767    1.0983    0.4632 C   0  0  0  0  0  0  0  0  0  0  0  0
   -2.3549    0.9164   -0.6238 C   0  0  0  0  0  0  0  0  0  0  0  0
   -3.5227    0.2359   -0.1538 C   0  0  0  0  0  0  0  0  0  0  0  0
    1.4538    1.7826    1.0337 C   0  0  0  0  0  0  0  0  0  0  0  0
   -3.1586   -1.0864    0.1040 C   0  0  0  0  0  0  0  0  0  0  0  0
   -2.0861    2.2306   -1.0372 C   0  0  0  0  0  0  0  0  0  0  0  0
   -1.0706   -2.4390   -0.0563 C   0  0  0  0  0  0  0  0  0  0  0  0
   -0.7820    2.4970   -1.4323 C   0  0  0  0  0  0  0  0  0  0  0  0
   -4.8592    0.6247    0.0762 C   0  0  0  0  0  0  0  0  0  0  0  0
   -4.0639   -2.0415    0.5805 C   0  0  0  0  0  0  0  0  0  0  0  0
   -5.7758   -0.3193    0.5528 C   0  0  0  0  0  0  0  0  0  0  0  0
   -5.3820   -1.6322    0.8003 C   0  0  0  0  0  0  0  0  0  0  0  0
    1.1215    4.1157    1.0895 C   0  0  0  0  0  0  0  0  0  0  0  0
    3.3752   -1.6869    1.3446 H   0  0  0  0  0  0  0  0  0  0  0  0
    1.2120   -0.9081    1.0608 H   0  0  0  0  0  0  0  0  0  0  0  0
    4.0278   -0.8367   -1.5329 H   0  0  0  0  0  0  0  0  0  0  0  0
    0.8124   -1.6053   -1.4200 H   0  0  0  0  0  0  0  0  0  0  0  0
    1.7921   -0.2794   -1.8862 H   0  0  0  0  0  0  0  0  0  0  0  0
    3.5596   -3.6905   -0.1052 H   0  0  0  0  0  0  0  0  0  0  0  0
    2.3758   -3.0328   -1.2358 H   0  0  0  0  0  0  0  0  0  0  0  0
    6.3894   -1.3656   -0.8715 H   0  0  0  0  0  0  0  0  0  0  0  0
    5.8002   -2.1361    0.5936 H   0  0  0  0  0  0  0  0  0  0  0  0
    5.3886   -2.8182   -0.9994 H   0  0  0  0  0  0  0  0  0  0  0  0
    4.1020    2.0559    0.7343 H   0  0  0  0  0  0  0  0  0  0  0  0
   -2.8479    3.0015   -1.0502 H   0  0  0  0  0  0  0  0  0  0  0  0
    1.4716   -4.4044    0.3348 H   0  0  0  0  0  0  0  0  0  0  0  0
   -0.7255   -2.7673   -1.0363 H   0  0  0  0  0  0  0  0  0  0  0  0
   -0.2922   -2.2723    0.6779 H   0  0  0  0  0  0  0  0  0  0  0  0
   -1.7086   -3.2324    0.3365 H   0  0  0  0  0  0  0  0  0  0  0  0
   -0.5046    3.4930   -1.7641 H   0  0  0  0  0  0  0  0  0  0  0  0
   -5.1816    1.6448   -0.1123 H   0  0  0  0  0  0  0  0  0  0  0  0
   -3.7811   -3.0687    0.7801 H   0  0  0  0  0  0  0  0  0  0  0  0
   -6.8062   -0.0231    0.7311 H   0  0  0  0  0  0  0  0  0  0  0  0
   -6.1098   -2.3499    1.1701 H   0  0  0  0  0  0  0  0  0  0  0  0
    0.0514    3.8949    1.0382 H   0  0  0  0  0  0  0  0  0  0  0  0
    1.3342    4.9514    0.4173 H   0  0  0  0  0  0  0  0  0  0  0  0
    1.3972    4.4046    2.1076 H   0  0  0  0  0  0  0  0  0  0  0  0
  1  9  1  0  0  0  0
  1 16  1  0  0  0  0
  2 12  1  0  0  0  0
  2 41  1  0  0  0  0
  3 19  1  0  0  0  0
  3 28  1  0  0  0  0
  4 19  2  0  0  0  0
  5 15  1  0  0  0  0
  5 20  1  0  0  0  0
  5 22  1  0  0  0  0
  6 13  2  0  0  0  0
  6 23  1  0  0  0  0
  7  8  1  0  0  0  0
  7  9  1  0  0  0  0
  7 12  1  0  0  0  0
  7 29  1  0  0  0  0
  8 10  1  0  0  0  0
  8 11  1  0  0  0  0
  8 30  1  0  0  0  0
  9 14  1  0  0  0  0
  9 31  1  0  0  0  0
 10 13  1  0  0  0  0
 10 32  1  0  0  0  0
 10 33  1  0  0  0  0
 11 16  2  0  0  0  0
 11 19  1  0  0  0  0
 12 34  1  0  0  0  0
 12 35  1  0  0  0  0
 13 15  1  0  0  0  0
 14 36  1  0  0  0  0
 14 37  1  0  0  0  0
 14 38  1  0  0  0  0
 15 17  2  0  0  0  0
 16 39  1  0  0  0  0
 17 18  1  0  0  0  0
 17 21  1  0  0  0  0
 18 20  1  0  0  0  0
 18 24  2  0  0  0  0
 20 25  2  0  0  0  0
 21 23  2  0  0  0  0
 21 40  1  0  0  0  0
 22 42  1  0  0  0  0
 22 43  1  0  0  0  0
 22 44  1  0  0  0  0
 23 45  1  0  0  0  0
 24 26  1  0  0  0  0
 24 46  1  0  0  0  0
 25 27  1  0  0  0  0
 25 47  1  0  0  0  0
 26 27  2  0  0  0  0
 26 48  1  0  0  0  0
 27 49  1  0  0  0  0
 28 50  1  0  0  0  0
 28 51  1  0  0  0  0
 28 52  1  0  0  0  0
M  END
> <PUBCHEM_COMPOUND_CID>
12305773

> <PUBCHEM_CONFORMER_RMSD>
0.8

> <PUBCHEM_CONFORMER_DIVERSEORDER>
11
7
8
18
9
2
3
12
13
1
16
6
10
5
15
17
4
14

> <PUBCHEM_MMFF94_PARTIAL_CHARGES>
32
1 -0.36
10 0.14
11 -0.12
12 0.28
13 0.17
15 -0.15
16 -0.07
19 0.71
2 -0.68
20 -0.15
21 -0.15
22 0.26
23 0.16
24 -0.15
25 -0.15
26 -0.15
27 -0.15
28 0.28
3 -0.43
39 0.15
4 -0.57
40 0.15
41 0.4
45 0.15
46 0.15
47 0.15
48 0.15
49 0.15
5 0.05
6 -0.62
8 0.14
9 0.28

> <PUBCHEM_EFFECTIVE_ROTOR_COUNT>
5.8

> <PUBCHEM_PHARMACOPHORE_FEATURES>
10
1 1 acceptor
1 2 acceptor
1 2 donor
1 4 acceptor
1 5 cation
1 6 acceptor
5 5 15 17 18 20 rings
6 1 7 8 9 11 16 rings
6 18 20 24 25 26 27 rings
6 6 13 15 17 21 23 rings

> <PUBCHEM_HEAVY_ATOM_COUNT>
28

> <PUBCHEM_ATOM_DEF_STEREO_COUNT>
3

> <PUBCHEM_ATOM_UDEF_STEREO_COUNT>
0

> <PUBCHEM_BOND_DEF_STEREO_COUNT>
0

> <PUBCHEM_BOND_UDEF_STEREO_COUNT>
0

> <PUBCHEM_ISOTOPIC_ATOM_COUNT>
0

> <PUBCHEM_COMPONENT_COUNT>
1

> <PUBCHEM_CACTVS_TAUTO_COUNT>
2

> <PUBCHEM_CONFORMER_ID>
00BBC56D0000000B

> <PUBCHEM_MMFF94_ENERGY>
83.4425

> <PUBCHEM_FEATURE_SELFOVERLAP>
50.934

> <PUBCHEM_SHAPE_FINGERPRINT>
10165383 225 18051695739631176640
10366900 7 18259984881375706603
11045977 3 18409729573760329311
11578080 2 16083027780684917573
12011746 2 18408598137318850223
12035758 1 18268695269016204224
12236239 1 16443067175078021846
12403259 226 18336541621407449111
12506688 2 18339358561549899614
12553582 1 18341034234456027638
12633257 1 18268696359104349825
13140716 1 18122058968653282583
13402501 40 18408324384488167778
13533116 47 18269836592124173715
13583140 156 18411972581807621695
14223421 5 18336255799739283429
14341114 176 18343306985019735265
14790565 3 17471017350533055949
14866123 147 16756346337387306811
14955137 171 18060426806816108390
15927050 60 17766280152238192452
17804303 29 18409731755318892271
17980427 23 12390928151806895874
1813 80 17167858694672754261
18785283 64 18194676193052345320
19591789 44 18410290298715372350
20739085 24 18116431646873821325
21033648 29 18341879810753984297
22182313 1 18115285865916527333
23559900 14 18260264187773546093
335352 9 18259989250354017839
350125 39 18408889503272946966
3737641 26 18338805489831881242
5104073 3 18338226051962572304
6287921 2 18048313645731453724

> <PUBCHEM_SHAPE_MULTIPOLES>
542.79
10.24
3.84
1.17
4.51
1.3
0.07
-5.89
-1.53
-2.13
-0.8
0.02
0.68
1.5

> <PUBCHEM_SHAPE_SELFOVERLAP>
1194.491

> <PUBCHEM_SHAPE_VOLUME>
292.5

> <PUBCHEM_COORDINATE_TYPE>
2
5
10

$$$$
