101656124
  -OEChem-09032005533D

 55 58  0     1  0  0  0  0  0999 V2000
   -0.5325    1.1258    1.5746 O   0  0  0  0  0  0  0  0  0  0  0  0
   -2.2532    2.9143    0.1700 O   0  0  0  0  0  0  0  0  0  0  0  0
   -3.8497    1.9261    1.5159 O   0  0  0  0  0  0  0  0  0  0  0  0
    3.8334   -0.7732    2.1144 O   0  0  0  0  0  0  0  0  0  0  0  0
    5.5617   -0.2024    0.0152 O   0  0  0  0  0  0  0  0  0  0  0  0
   -0.9644   -2.2522    0.0104 N   0  0  0  0  0  0  0  0  0  0  0  0
    1.8936    1.1374   -2.6983 N   0  0  0  0  0  0  0  0  0  0  0  0
   -0.9177    0.3037    0.4525 C   0  0  1  0  0  0  0  0  0  0  0  0
   -0.9428   -1.1620    1.0043 C   0  0  1  0  0  0  0  0  0  0  0  0
   -3.2175   -0.6251    0.6878 C   0  0  2  0  0  0  0  0  0  0  0  0
   -2.4278    0.5794    0.1096 C   0  0  1  0  0  0  0  0  0  0  0  0
   -2.2821   -1.1868    1.7571 C   0  0  0  0  0  0  0  0  0  0  0  0
   -3.3592   -1.7049   -0.3695 C   0  0  0  0  0  0  0  0  0  0  0  0
   -2.0531   -2.1667   -0.9712 C   0  0  0  0  0  0  0  0  0  0  0  0
    0.1053    0.5877   -0.6388 C   0  0  0  0  0  0  0  0  0  0  0  0
   -2.9447    1.8630    0.6947 C   0  0  0  0  0  0  0  0  0  0  0  0
   -4.5440   -2.2240   -0.7203 C   0  0  0  0  0  0  0  0  0  0  0  0
    1.4781    0.3796   -0.4487 C   0  0  0  0  0  0  0  0  0  0  0  0
   -0.3665    1.0674   -1.8521 C   0  0  0  0  0  0  0  0  0  0  0  0
    2.3484    0.6718   -1.5197 C   0  0  0  0  0  0  0  0  0  0  0  0
   -4.7118   -3.3053   -1.7319 C   0  0  0  0  0  0  0  0  0  0  0  0
    1.9874   -0.1056    0.7676 C   0  0  0  0  0  0  0  0  0  0  0  0
    0.5614    1.3240   -2.8410 C   0  0  0  0  0  0  0  0  0  0  0  0
    3.7122    0.4650   -1.3303 C   0  0  0  0  0  0  0  0  0  0  0  0
   -2.6454    4.2064    0.6442 C   0  0  0  0  0  0  0  0  0  0  0  0
    3.3557   -0.3033    0.9294 C   0  0  0  0  0  0  0  0  0  0  0  0
    4.2189   -0.0174   -0.1211 C   0  0  0  0  0  0  0  0  0  0  0  0
    2.8773   -1.0406    3.1392 C   0  0  0  0  0  0  0  0  0  0  0  0
    6.0790   -1.4821   -0.3441 C   0  0  0  0  0  0  0  0  0  0  0  0
   -0.1735   -1.3907    1.7419 H   0  0  0  0  0  0  0  0  0  0  0  0
   -4.1935   -0.3709    1.1125 H   0  0  0  0  0  0  0  0  0  0  0  0
   -2.6914    0.6121   -0.9484 H   0  0  0  0  0  0  0  0  0  0  0  0
   -2.2555   -0.5345    2.6385 H   0  0  0  0  0  0  0  0  0  0  0  0
   -2.5646   -2.1900    2.0991 H   0  0  0  0  0  0  0  0  0  0  0  0
   -1.0382   -3.1423    0.5043 H   0  0  0  0  0  0  0  0  0  0  0  0
   -2.1321   -3.1560   -1.4315 H   0  0  0  0  0  0  0  0  0  0  0  0
   -1.7627   -1.4852   -1.7772 H   0  0  0  0  0  0  0  0  0  0  0  0
   -0.3437    2.0227    1.2488 H   0  0  0  0  0  0  0  0  0  0  0  0
   -5.4487   -1.8696   -0.2332 H   0  0  0  0  0  0  0  0  0  0  0  0
   -1.3920    1.2900   -2.0972 H   0  0  0  0  0  0  0  0  0  0  0  0
   -5.6911   -3.1985   -2.2114 H   0  0  0  0  0  0  0  0  0  0  0  0
   -4.6819   -4.2875   -1.2511 H   0  0  0  0  0  0  0  0  0  0  0  0
   -3.9721   -3.2678   -2.5360 H   0  0  0  0  0  0  0  0  0  0  0  0
    1.3377   -0.2459    1.6082 H   0  0  0  0  0  0  0  0  0  0  0  0
    0.2533    1.7069   -3.8086 H   0  0  0  0  0  0  0  0  0  0  0  0
    4.4037    0.6845   -2.1427 H   0  0  0  0  0  0  0  0  0  0  0  0
   -2.0207    4.9541    0.1485 H   0  0  0  0  0  0  0  0  0  0  0  0
   -2.4870    4.2766    1.7245 H   0  0  0  0  0  0  0  0  0  0  0  0
   -3.6925    4.4004    0.3928 H   0  0  0  0  0  0  0  0  0  0  0  0
    3.4326   -1.4245    4.0016 H   0  0  0  0  0  0  0  0  0  0  0  0
    2.1741   -1.8269    2.8440 H   0  0  0  0  0  0  0  0  0  0  0  0
    2.3741   -0.1263    3.4723 H   0  0  0  0  0  0  0  0  0  0  0  0
    7.1590   -1.4753   -0.1735 H   0  0  0  0  0  0  0  0  0  0  0  0
    5.8931   -1.6871   -1.4032 H   0  0  0  0  0  0  0  0  0  0  0  0
    5.6318   -2.2664    0.2747 H   0  0  0  0  0  0  0  0  0  0  0  0
  1  8  1  0  0  0  0
  1 38  1  0  0  0  0
  2 16  1  0  0  0  0
  2 25  1  0  0  0  0
  3 16  2  0  0  0  0
  4 26  1  0  0  0  0
  4 28  1  0  0  0  0
  5 27  1  0  0  0  0
  5 29  1  0  0  0  0
  6  9  1  0  0  0  0
  6 14  1  0  0  0  0
  6 35  1  0  0  0  0
  7 20  2  0  0  0  0
  7 23  1  0  0  0  0
  8  9  1  0  0  0  0
  8 11  1  0  0  0  0
  8 15  1  0  0  0  0
  9 12  1  0  0  0  0
  9 30  1  0  0  0  0
 10 11  1  0  0  0  0
 10 12  1  0  0  0  0
 10 13  1  0  0  0  0
 10 31  1  0  0  0  0
 11 16  1  0  0  0  0
 11 32  1  0  0  0  0
 12 33  1  0  0  0  0
 12 34  1  0  0  0  0
 13 14  1  0  0  0  0
 13 17  2  0  0  0  0
 14 36  1  0  0  0  0
 14 37  1  0  0  0  0
 15 18  2  0  0  0  0
 15 19  1  0  0  0  0
 17 21  1  0  0  0  0
 17 39  1  0  0  0  0
 18 20  1  0  0  0  0
 18 22  1  0  0  0  0
 19 23  2  0  0  0  0
 19 40  1  0  0  0  0
 20 24  1  0  0  0  0
 21 41  1  0  0  0  0
 21 42  1  0  0  0  0
 21 43  1  0  0  0  0
 22 26  2  0  0  0  0
 22 44  1  0  0  0  0
 23 45  1  0  0  0  0
 24 27  2  0  0  0  0
 24 46  1  0  0  0  0
 25 47  1  0  0  0  0
 25 48  1  0  0  0  0
 25 49  1  0  0  0  0
 26 27  1  0  0  0  0
 28 50  1  0  0  0  0
 28 51  1  0  0  0  0
 28 52  1  0  0  0  0
 29 53  1  0  0  0  0
 29 54  1  0  0  0  0
 29 55  1  0  0  0  0
M  END
> <PUBCHEM_COMPOUND_CID>
101656124

> <PUBCHEM_CONFORMER_RMSD>
0.8

> <PUBCHEM_CONFORMER_DIVERSEORDER>
1
22
30
25
16
5
39
15
13
18
36
20
40
3
32
10
14
38
6
29
11
35
26
17
27
8
19
24
2
37
23
9
4
34
7
12
31
33
21
28

> <PUBCHEM_MMFF94_PARTIAL_CHARGES>
34
1 -0.68
10 0.14
11 0.06
13 -0.28
14 0.41
15 -0.14
16 0.66
17 -0.29
19 -0.15
2 -0.43
20 0.31
21 0.14
22 -0.15
23 0.16
24 -0.15
25 0.28
26 0.08
27 0.08
28 0.28
29 0.28
3 -0.57
35 0.36
38 0.4
39 0.15
4 -0.36
40 0.15
44 0.15
45 0.15
46 0.15
5 -0.36
6 -0.9
7 -0.62
8 0.42
9 0.27

> <PUBCHEM_EFFECTIVE_ROTOR_COUNT>
6

> <PUBCHEM_PHARMACOPHORE_FEATURES>
12
1 1 acceptor
1 1 donor
1 21 hydrophobe
1 3 acceptor
1 4 acceptor
1 5 acceptor
1 6 cation
1 6 donor
1 7 acceptor
6 18 20 22 24 26 27 rings
6 7 15 18 19 20 23 rings
8 6 8 9 10 11 12 13 14 rings

> <PUBCHEM_HEAVY_ATOM_COUNT>
29

> <PUBCHEM_ATOM_DEF_STEREO_COUNT>
0

> <PUBCHEM_ATOM_UDEF_STEREO_COUNT>
4

> <PUBCHEM_BOND_DEF_STEREO_COUNT>
1

> <PUBCHEM_BOND_UDEF_STEREO_COUNT>
0

> <PUBCHEM_ISOTOPIC_ATOM_COUNT>
0

> <PUBCHEM_COMPONENT_COUNT>
1

> <PUBCHEM_CACTVS_TAUTO_COUNT>
2

> <PUBCHEM_CONFORMER_ID>
060F263C00000001

> <PUBCHEM_MMFF94_ENERGY>
124.7404

> <PUBCHEM_FEATURE_SELFOVERLAP>
60.933

> <PUBCHEM_SHAPE_FINGERPRINT>
11135926 11 16515688810988343442
11578080 2 17488206827647735941
11582403 64 16696350540498368409
11725454 13 17201625658687106201
12156800 1 16523220490928579221
12166972 35 18043242642876121079
12236239 1 18187092770954850329
12422481 6 17536311427767507856
12788726 201 18337125552387075957
13004483 165 18057596771223634695
13009979 54 18261402199219079343
13583140 156 17203320079499488566
13782708 43 17418383514695382166
14068700 675 18338225080698751710
14294032 229 18268153063971833953
15219462 58 17624646337866489883
15420108 30 17903071127999477365
15484559 13 14139984773537315958
16752209 62 18411419535516391955
17349148 13 18260546761966706055
17980427 23 18336838570851115036
1813 80 17700986702295208455
20511986 3 18260822756533284452
20775438 99 16825003748163381623
21033648 29 16630231537958698320
21304303 282 17982146965261679533
2132832 1 18261671579452204109
23419403 2 17760884749374513581
23557571 272 17632584850937747057
23559900 14 18201433714032652264
23598288 3 18261972807452643321
23598291 2 17895489071786199812
3380486 77 17842005673980019519
3633792 109 17968084382681207119
392239 28 14117521012195346567
57527293 21 17631743784213078413
7471813 234 18265335186523861829
9862522 239 17897447181847552157

> <PUBCHEM_SHAPE_MULTIPOLES>
557.5
9.75
3.19
2.44
8.18
1.86
-0.06
-5.57
-0.14
-5.5
-0.14
1.19
0.04
-2.92

> <PUBCHEM_SHAPE_SELFOVERLAP>
1219.297

> <PUBCHEM_SHAPE_VOLUME>
303.4

> <PUBCHEM_COORDINATE_TYPE>
2
5
10

$$$$
