16215339
  -OEChem-09032004303D

 47 51  0     1  0  0  0  0  0999 V2000
    0.3193    2.1309    1.1612 O   0  0  0  0  0  0  0  0  0  0  0  0
    1.7516    3.4189   -0.1140 O   0  0  0  0  0  0  0  0  0  0  0  0
   -2.9450   -4.2661    0.5962 O   0  0  0  0  0  0  0  0  0  0  0  0
   -1.9633   -0.8854   -0.2792 N   0  0  0  0  0  0  0  0  0  0  0  0
    1.0337   -2.1229   -0.5353 N   0  0  0  0  0  0  0  0  0  0  0  0
   -0.8497    1.5242   -1.4395 C   0  0  2  0  0  0  0  0  0  0  0  0
   -1.0563   -0.9818   -1.4255 C   0  0  1  0  0  0  0  0  0  0  0  0
   -1.2121    0.2832   -2.3041 C   0  0  0  0  0  0  0  0  0  0  0  0
    0.6728    1.4856   -1.0585 C   0  0  2  0  0  0  0  0  0  0  0  0
    0.3422   -1.0074   -0.9052 C   0  0  0  0  0  0  0  0  0  0  0  0
    1.1412    0.1018   -0.7077 C   0  0  0  0  0  0  0  0  0  0  0  0
   -1.8151    1.5182   -0.2386 C   0  0  0  0  0  0  0  0  0  0  0  0
   -2.3219    0.3028    0.3321 C   0  0  0  0  0  0  0  0  0  0  0  0
    2.3947   -0.3712   -0.2166 C   0  0  0  0  0  0  0  0  0  0  0  0
    2.2945   -1.7638   -0.1099 C   0  0  0  0  0  0  0  0  0  0  0  0
   -2.5530   -1.9452    0.3555 C   0  0  0  0  0  0  0  0  0  0  0  0
    0.9944    2.4680    0.0256 C   0  0  0  0  0  0  0  0  0  0  0  0
   -3.1450   -0.0331    1.3927 C   0  0  0  0  0  0  0  0  0  0  0  0
   -2.2680    2.6894    0.2452 C   0  0  0  0  0  0  0  0  0  0  0  0
   -3.2904   -1.4439    1.4042 C   0  0  0  0  0  0  0  0  0  0  0  0
    3.6116    0.2445    0.1433 C   0  0  0  0  0  0  0  0  0  0  0  0
    3.3470   -2.5634    0.3506 C   0  0  0  0  0  0  0  0  0  0  0  0
   -2.4050   -3.3208   -0.0116 C   0  0  0  0  0  0  0  0  0  0  0  0
   -1.8253    4.0177   -0.2564 C   0  0  0  0  0  0  0  0  0  0  0  0
    4.6716   -0.5445    0.6041 C   0  0  0  0  0  0  0  0  0  0  0  0
    4.5385   -1.9269    0.7073 C   0  0  0  0  0  0  0  0  0  0  0  0
    0.5368    2.9911    2.2841 C   0  0  0  0  0  0  0  0  0  0  0  0
   -1.0278    2.3937   -2.0824 H   0  0  0  0  0  0  0  0  0  0  0  0
   -1.3039   -1.8624   -2.0225 H   0  0  0  0  0  0  0  0  0  0  0  0
   -0.5543    0.2305   -3.1813 H   0  0  0  0  0  0  0  0  0  0  0  0
   -2.2424    0.3651   -2.6755 H   0  0  0  0  0  0  0  0  0  0  0  0
    1.2385    1.7911   -1.9504 H   0  0  0  0  0  0  0  0  0  0  0  0
    0.6831   -3.0702   -0.5719 H   0  0  0  0  0  0  0  0  0  0  0  0
   -3.6040    0.6582    2.0863 H   0  0  0  0  0  0  0  0  0  0  0  0
   -2.9875    2.7218    1.0595 H   0  0  0  0  0  0  0  0  0  0  0  0
   -3.8744   -2.0229    2.1067 H   0  0  0  0  0  0  0  0  0  0  0  0
    3.7375    1.3206    0.0678 H   0  0  0  0  0  0  0  0  0  0  0  0
    3.2467   -3.6411    0.4261 H   0  0  0  0  0  0  0  0  0  0  0  0
   -1.7717   -3.5631   -0.8782 H   0  0  0  0  0  0  0  0  0  0  0  0
   -1.6109    4.6671    0.5995 H   0  0  0  0  0  0  0  0  0  0  0  0
   -2.6424    4.4837   -0.8172 H   0  0  0  0  0  0  0  0  0  0  0  0
   -0.9367    4.0381   -0.8857 H   0  0  0  0  0  0  0  0  0  0  0  0
    5.6091   -0.0714    0.8838 H   0  0  0  0  0  0  0  0  0  0  0  0
    5.3743   -2.5212    1.0674 H   0  0  0  0  0  0  0  0  0  0  0  0
   -0.1831    2.7223    3.0618 H   0  0  0  0  0  0  0  0  0  0  0  0
    0.3829    4.0398    2.0127 H   0  0  0  0  0  0  0  0  0  0  0  0
    1.5481    2.8402    2.6727 H   0  0  0  0  0  0  0  0  0  0  0  0
  1 17  1  0  0  0  0
  1 27  1  0  0  0  0
  2 17  2  0  0  0  0
  3 23  2  0  0  0  0
  4  7  1  0  0  0  0
  4 13  1  0  0  0  0
  4 16  1  0  0  0  0
  5 10  1  0  0  0  0
  5 15  1  0  0  0  0
  5 33  1  0  0  0  0
  6  8  1  0  0  0  0
  6  9  1  0  0  0  0
  6 12  1  0  0  0  0
  6 28  1  0  0  0  0
  7  8  1  0  0  0  0
  7 10  1  0  0  0  0
  7 29  1  0  0  0  0
  8 30  1  0  0  0  0
  8 31  1  0  0  0  0
  9 11  1  0  0  0  0
  9 17  1  0  0  0  0
  9 32  1  0  0  0  0
 10 11  2  0  0  0  0
 11 14  1  0  0  0  0
 12 13  1  0  0  0  0
 12 19  2  0  0  0  0
 13 18  2  0  0  0  0
 14 15  1  0  0  0  0
 14 21  2  0  0  0  0
 15 22  2  0  0  0  0
 16 20  2  0  0  0  0
 16 23  1  0  0  0  0
 18 20  1  0  0  0  0
 18 34  1  0  0  0  0
 19 24  1  0  0  0  0
 19 35  1  0  0  0  0
 20 36  1  0  0  0  0
 21 25  1  0  0  0  0
 21 37  1  0  0  0  0
 22 26  1  0  0  0  0
 22 38  1  0  0  0  0
 23 39  1  0  0  0  0
 24 40  1  0  0  0  0
 24 41  1  0  0  0  0
 24 42  1  0  0  0  0
 25 26  2  0  0  0  0
 25 43  1  0  0  0  0
 26 44  1  0  0  0  0
 27 45  1  0  0  0  0
 27 46  1  0  0  0  0
 27 47  1  0  0  0  0
M  END
> <PUBCHEM_COMPOUND_CID>
16215339

> <PUBCHEM_CONFORMER_RMSD>
0.8

> <PUBCHEM_CONFORMER_DIVERSEORDER>
1

> <PUBCHEM_MMFF94_PARTIAL_CHARGES>
34
1 -0.43
10 -0.33
11 -0.18
12 -0.09
13 -0.2
15 -0.15
16 -0.24
17 0.66
18 -0.15
19 -0.29
2 -0.57
20 -0.15
21 -0.15
22 -0.15
23 0.59
24 0.14
25 -0.15
26 -0.15
27 0.28
3 -0.57
33 0.27
34 0.15
35 0.15
36 0.15
37 0.15
38 0.15
39 0.06
4 0.05
43 0.15
44 0.15
5 0.03
6 0.14
7 0.44
9 0.24

> <PUBCHEM_EFFECTIVE_ROTOR_COUNT>
3.4

> <PUBCHEM_PHARMACOPHORE_FEATURES>
11
1 2 acceptor
1 24 hydrophobe
1 3 acceptor
1 4 cation
1 5 cation
1 5 donor
5 4 13 16 18 20 rings
5 5 10 11 14 15 rings
6 14 15 21 22 25 26 rings
6 4 6 7 8 12 13 rings
6 6 7 8 9 10 11 rings

> <PUBCHEM_HEAVY_ATOM_COUNT>
27

> <PUBCHEM_ATOM_DEF_STEREO_COUNT>
3

> <PUBCHEM_ATOM_UDEF_STEREO_COUNT>
0

> <PUBCHEM_BOND_DEF_STEREO_COUNT>
1

> <PUBCHEM_BOND_UDEF_STEREO_COUNT>
0

> <PUBCHEM_ISOTOPIC_ATOM_COUNT>
0

> <PUBCHEM_COMPONENT_COUNT>
1

> <PUBCHEM_CACTVS_TAUTO_COUNT>
1

> <PUBCHEM_CONFORMER_ID>
00F76D2B00000001

> <PUBCHEM_MMFF94_ENERGY>
62.3059

> <PUBCHEM_FEATURE_SELFOVERLAP>
57.36

> <PUBCHEM_SHAPE_FINGERPRINT>
10863032 1 18191311463794940736
10948715 1 17764864693651512757
1100329 8 18410011031472826767
11370993 70 17760366595687259889
11552529 35 18335978697161138682
11578080 2 17968368074093209933
12035758 1 18265343820036075721
12293681 25 17830981953146013855
12553582 1 18337126642992602463
12633257 1 18271545155499458339
13004483 165 18335697273892827499
13140716 1 18267590285019778591
14081887 123 18410849941475358778
14223421 5 18411421726081289310
14787075 74 17911505507418614557
14863182 85 17324652570277089047
14955137 171 17844826947791320630
16728300 4 17462844273035071907
16945 1 18337969925561296837
17980427 23 17561090224349731075
19930381 70 17905324383416146928
20600515 1 18117570521744438148
20775530 9 18044658834763608595
20905425 154 18125458645832299181
23419403 2 18191003768301150029
23559900 14 18047464814665919079
3380486 145 18117281569999875669
35225 105 17829031127075162002
392239 28 17694510247746973329
394222 165 16886732211798770101
4058900 60 16895129496117510317
4340502 62 17688598156566131557
5104073 3 18190728757978499690
70251023 43 17984956401378729063
7097593 13 18410022051810814811

> <PUBCHEM_SHAPE_MULTIPOLES>
528.08
6.34
4.73
1.53
7.27
0.13
0.02
3.17
-2.23
-3.38
-1.22
-0.69
-0.51
0.53

> <PUBCHEM_SHAPE_SELFOVERLAP>
1194.721

> <PUBCHEM_SHAPE_VOLUME>
274.8

> <PUBCHEM_COORDINATE_TYPE>
2
5
10

$$$$
