102423744
  -OEChem-09032003053D

 51 55  0     1  0  0  0  0  0999 V2000
   -0.5430   -2.3765    1.9799 O   0  5  0  0  0  0  0  0  0  0  0  0
   -3.3327    2.4403   -0.0843 O   0  0  0  0  0  0  0  0  0  0  0  0
   -0.1407    2.6241    0.5451 O   0  0  0  0  0  0  0  0  0  0  0  0
   -0.4845    1.8466   -1.6029 O   0  0  0  0  0  0  0  0  0  0  0  0
   -1.0802   -1.5672    1.0138 N   0  3  1  0  0  0  0  0  0  0  0  0
    2.0565   -1.6288   -1.0835 N   0  0  0  0  0  0  0  0  0  0  0  0
   -0.9178   -0.0611    1.3770 C   0  0  2  0  0  0  0  0  0  0  0  0
   -1.6184    0.8149    0.2715 C   0  0  1  0  0  0  0  0  0  0  0  0
   -2.2420   -0.1149   -0.8193 C   0  0  1  0  0  0  0  0  0  0  0  0
   -0.3779   -1.7826   -0.3475 C   0  0  1  0  0  0  0  0  0  0  0  0
   -1.1715   -1.0403   -1.4457 C   0  0  0  0  0  0  0  0  0  0  0  0
   -2.5581   -1.9029    0.8843 C   0  0  0  0  0  0  0  0  0  0  0  0
    0.5782    0.2635    1.6650 C   0  0  0  0  0  0  0  0  0  0  0  0
   -3.2224   -1.0541   -0.1542 C   0  0  0  0  0  0  0  0  0  0  0  0
    1.0227   -1.2649   -0.2720 C   0  0  0  0  0  0  0  0  0  0  0  0
    1.4729   -0.3161    0.6207 C   0  0  0  0  0  0  0  0  0  0  0  0
   -2.7040    1.6940    0.9329 C   0  0  0  0  0  0  0  0  0  0  0  0
   -0.6907    1.8068   -0.3975 C   0  0  0  0  0  0  0  0  0  0  0  0
    2.8460   -0.0835    0.3359 C   0  0  0  0  0  0  0  0  0  0  0  0
   -4.5244   -1.1329   -0.4548 C   0  0  0  0  0  0  0  0  0  0  0  0
    3.1858   -0.9165   -0.7371 C   0  0  0  0  0  0  0  0  0  0  0  0
   -5.1941   -0.2912   -1.4877 C   0  0  0  0  0  0  0  0  0  0  0  0
    3.8388    0.7525    0.8848 C   0  0  0  0  0  0  0  0  0  0  0  0
    4.4722   -0.9477   -1.2875 C   0  0  0  0  0  0  0  0  0  0  0  0
    5.1288    0.7299    0.3427 C   0  0  0  0  0  0  0  0  0  0  0  0
    0.7623    3.6163    0.0473 C   0  0  0  0  0  0  0  0  0  0  0  0
    5.4382   -0.1075   -0.7268 C   0  0  0  0  0  0  0  0  0  0  0  0
   -1.4614    0.0301    2.3275 H   0  0  0  0  0  0  0  0  0  0  0  0
   -2.6751    0.4763   -1.6280 H   0  0  0  0  0  0  0  0  0  0  0  0
   -0.3826   -2.8665   -0.5156 H   0  0  0  0  0  0  0  0  0  0  0  0
   -0.5103   -0.4936   -2.1265 H   0  0  0  0  0  0  0  0  0  0  0  0
   -1.6674   -1.7871   -2.0826 H   0  0  0  0  0  0  0  0  0  0  0  0
   -2.9900   -1.7431    1.8785 H   0  0  0  0  0  0  0  0  0  0  0  0
   -2.5991   -2.9670    0.6254 H   0  0  0  0  0  0  0  0  0  0  0  0
    0.8386   -0.2664    2.5945 H   0  0  0  0  0  0  0  0  0  0  0  0
    0.8015    1.2985    1.9138 H   0  0  0  0  0  0  0  0  0  0  0  0
   -2.2852    2.3960    1.6622 H   0  0  0  0  0  0  0  0  0  0  0  0
   -3.4609    1.1078    1.4650 H   0  0  0  0  0  0  0  0  0  0  0  0
    2.0049   -2.3057   -1.8326 H   0  0  0  0  0  0  0  0  0  0  0  0
   -5.1524   -1.8348    0.0878 H   0  0  0  0  0  0  0  0  0  0  0  0
   -4.0067    1.8798   -0.5002 H   0  0  0  0  0  0  0  0  0  0  0  0
    3.6122    1.4116    1.7180 H   0  0  0  0  0  0  0  0  0  0  0  0
   -5.7612    0.5121   -1.0079 H   0  0  0  0  0  0  0  0  0  0  0  0
   -5.9109   -0.9140   -2.0352 H   0  0  0  0  0  0  0  0  0  0  0  0
   -4.5340    0.1378   -2.2416 H   0  0  0  0  0  0  0  0  0  0  0  0
    4.7157   -1.6000   -2.1195 H   0  0  0  0  0  0  0  0  0  0  0  0
    5.8971    1.3741    0.7621 H   0  0  0  0  0  0  0  0  0  0  0  0
    1.1575    4.1743    0.9002 H   0  0  0  0  0  0  0  0  0  0  0  0
    0.2329    4.3096   -0.6130 H   0  0  0  0  0  0  0  0  0  0  0  0
    1.5966    3.1422   -0.4784 H   0  0  0  0  0  0  0  0  0  0  0  0
    6.4468   -0.1089   -1.1323 H   0  0  0  0  0  0  0  0  0  0  0  0
  1  5  1  0  0  0  0
  2 17  1  0  0  0  0
  2 41  1  0  0  0  0
  3 18  1  0  0  0  0
  3 26  1  0  0  0  0
  4 18  2  0  0  0  0
  5  7  1  0  0  0  0
  5 10  1  0  0  0  0
  5 12  1  0  0  0  0
  6 15  1  0  0  0  0
  6 21  1  0  0  0  0
  6 39  1  0  0  0  0
  7  8  1  0  0  0  0
  7 13  1  0  0  0  0
  7 28  1  0  0  0  0
  8  9  1  0  0  0  0
  8 17  1  0  0  0  0
  8 18  1  0  0  0  0
  9 11  1  0  0  0  0
  9 14  1  0  0  0  0
  9 29  1  0  0  0  0
 10 11  1  0  0  0  0
 10 15  1  0  0  0  0
 10 30  1  0  0  0  0
 11 31  1  0  0  0  0
 11 32  1  0  0  0  0
 12 14  1  0  0  0  0
 12 33  1  0  0  0  0
 12 34  1  0  0  0  0
 13 16  1  0  0  0  0
 13 35  1  0  0  0  0
 13 36  1  0  0  0  0
 14 20  2  0  0  0  0
 15 16  2  0  0  0  0
 16 19  1  0  0  0  0
 17 37  1  0  0  0  0
 17 38  1  0  0  0  0
 19 21  1  0  0  0  0
 19 23  2  0  0  0  0
 20 22  1  0  0  0  0
 20 40  1  0  0  0  0
 21 24  2  0  0  0  0
 22 43  1  0  0  0  0
 22 44  1  0  0  0  0
 22 45  1  0  0  0  0
 23 25  1  0  0  0  0
 23 42  1  0  0  0  0
 24 27  1  0  0  0  0
 24 46  1  0  0  0  0
 25 27  2  0  0  0  0
 25 47  1  0  0  0  0
 26 48  1  0  0  0  0
 26 49  1  0  0  0  0
 26 50  1  0  0  0  0
 27 51  1  0  0  0  0
M  CHG  2   1  -1   5   1
M  END
> <PUBCHEM_COMPOUND_CID>
102423744

> <PUBCHEM_CONFORMER_RMSD>
0.8

> <PUBCHEM_CONFORMER_DIVERSEORDER>
1
2

> <PUBCHEM_MMFF94_PARTIAL_CHARGES>
32
1 -0.75
10 0.44
12 0.39
13 0.18
14 -0.28
15 -0.33
16 -0.18
17 0.28
18 0.66
2 -0.68
20 -0.29
21 -0.15
22 0.14
23 -0.15
24 -0.15
25 -0.15
26 0.28
27 -0.15
3 -0.43
39 0.27
4 -0.57
40 0.15
41 0.4
42 0.15
46 0.15
47 0.15
5 -0.02
51 0.15
6 0.03
7 0.26
8 0.06
9 0.14

> <PUBCHEM_EFFECTIVE_ROTOR_COUNT>
3.8

> <PUBCHEM_PHARMACOPHORE_FEATURES>
11
1 1 anion
1 2 acceptor
1 2 donor
1 22 hydrophobe
1 4 acceptor
1 6 cation
1 6 donor
5 6 15 16 19 21 rings
6 19 21 23 24 25 27 rings
6 5 7 10 13 15 16 rings
8 5 7 8 9 10 11 12 14 rings

> <PUBCHEM_HEAVY_ATOM_COUNT>
27

> <PUBCHEM_ATOM_DEF_STEREO_COUNT>
4

> <PUBCHEM_ATOM_UDEF_STEREO_COUNT>
1

> <PUBCHEM_BOND_DEF_STEREO_COUNT>
1

> <PUBCHEM_BOND_UDEF_STEREO_COUNT>
0

> <PUBCHEM_ISOTOPIC_ATOM_COUNT>
0

> <PUBCHEM_COMPONENT_COUNT>
1

> <PUBCHEM_CACTVS_TAUTO_COUNT>
11

> <PUBCHEM_CONFORMER_ID>
061ADCC000000001

> <PUBCHEM_MMFF94_ENERGY>
89.5467

> <PUBCHEM_FEATURE_SELFOVERLAP>
56.315

> <PUBCHEM_SHAPE_FINGERPRINT>
10006869 2 17905332827939536265
10366900 7 18410583877210590438
10498660 4 18338513028402453236
10863032 1 17773879705472409259
10906281 52 18337688493281070637
10948715 1 18125445207064330545
11115154 58 17703211985355425981
11315181 36 17822018635988587694
11578080 2 12821649716096385465
11680986 33 17974570500599961617
12011746 2 18341607135816713639
12035758 1 18263365957109204811
12236239 1 16298379184631378138
12403259 226 18200595783673151366
12403814 3 18060419131440804215
12597179 24 11958361526066868283
12788726 201 18334288734708809072
12969540 114 18118113676531780173
13140716 1 18046919456888058139
13149001 5 17970064650383289291
13224815 77 18131071524391754714
14142880 1 18129672902050352816
14787075 74 18408324380245727125
14790565 3 17622451537018217217
15840311 113 17489318507650903433
1601671 61 18337379462437747797
16945 1 18341614858358069075
17357779 13 18343012324546075871
17492 54 18040992938547345125
18769570 83 17095512985749504389
200 152 16988564606312484994
20600515 1 18042426710162587567
20691752 17 18187650150182746961
20871999 31 18409448059649138021
21033648 29 17703500056177726059
22182313 1 18128231511020696081
23352939 185 18130792290712914936
23402539 116 18336547131866261964
23419403 2 17753353129331490635
23557571 272 18413395323957591524
23559900 14 18268704094425371952
465052 167 13326281667544194735
469060 322 17603878779869240285
5104073 3 18272090449027124210
6287921 2 17915451912517474088

> <PUBCHEM_SHAPE_MULTIPOLES>
522.21
8.78
2.74
1.48
5.23
2.23
0.17
-1.33
-2.8
-0.93
0.1
-0.31
-0.37
0.59

> <PUBCHEM_SHAPE_SELFOVERLAP>
1166.771

> <PUBCHEM_SHAPE_VOLUME>
273.3

> <PUBCHEM_COORDINATE_TYPE>
2
5
10

$$$$
