91885202
  -OEChem-09032004583D

 53 57  0     1  0  0  0  0  0999 V2000
    0.6475    2.2403   -2.6919 O   0  0  0  0  0  0  0  0  0  0  0  0
   -0.1239   -2.3275    1.9493 O   0  0  0  0  0  0  0  0  0  0  0  0
    0.8614   -2.9026   -1.0180 O   0  0  0  0  0  0  0  0  0  0  0  0
   -1.1248   -1.7346   -1.1845 O   0  0  0  0  0  0  0  0  0  0  0  0
    0.8376    2.4398    0.2544 N   0  0  1  0  0  0  0  0  0  0  0  0
   -1.4958    2.0046   -0.6903 N   0  0  0  0  0  0  0  0  0  0  0  0
   -0.2649    0.3114    0.5749 C   0  0  1  0  0  0  0  0  0  0  0  0
   -0.1070    1.5345   -0.4603 C   0  0  2  0  0  0  0  0  0  0  0  0
    0.6788   -0.8971    0.2124 C   0  0  1  0  0  0  0  0  0  0  0  0
    1.9676   -0.3741   -0.5093 C   0  0  1  0  0  0  0  0  0  0  0  0
    0.0513    0.9765    1.9507 C   0  0  0  0  0  0  0  0  0  0  0  0
    0.3904    1.0944   -1.8749 C   0  0  2  0  0  0  0  0  0  0  0  0
    1.6354    0.2014   -1.8972 C   0  0  0  0  0  0  0  0  0  0  0  0
    0.3839    2.4273    1.6470 C   0  0  0  0  0  0  0  0  0  0  0  0
   -1.7600    0.0531    0.5236 C   0  0  0  0  0  0  0  0  0  0  0  0
    2.2699    2.1358    0.1318 C   0  0  0  0  0  0  0  0  0  0  0  0
    2.7182    0.6930    0.2834 C   0  0  0  0  0  0  0  0  0  0  0  0
   -2.3881    1.0577   -0.2154 C   0  0  0  0  0  0  0  0  0  0  0  0
    1.0637   -1.7816    1.4237 C   0  0  0  0  0  0  0  0  0  0  0  0
    0.0082   -1.8750   -0.7442 C   0  0  0  0  0  0  0  0  0  0  0  0
   -2.5025   -0.9528    1.1274 C   0  0  0  0  0  0  0  0  0  0  0  0
    3.7870    0.3805    1.0347 C   0  0  0  0  0  0  0  0  0  0  0  0
   -3.7665    1.0831   -0.3547 C   0  0  0  0  0  0  0  0  0  0  0  0
   -3.8899   -0.9461    0.9721 C   0  0  0  0  0  0  0  0  0  0  0  0
   -4.5186    0.0665    0.2360 C   0  0  0  0  0  0  0  0  0  0  0  0
    4.2854   -1.0085    1.2300 C   0  0  0  0  0  0  0  0  0  0  0  0
    0.3558   -3.9003   -1.9107 C   0  0  0  0  0  0  0  0  0  0  0  0
    2.6330   -1.2112   -0.7383 H   0  0  0  0  0  0  0  0  0  0  0  0
    0.9188    0.5513    2.4537 H   0  0  0  0  0  0  0  0  0  0  0  0
   -0.7771    0.9151    2.6664 H   0  0  0  0  0  0  0  0  0  0  0  0
   -0.4163    0.5511   -2.3846 H   0  0  0  0  0  0  0  0  0  0  0  0
    2.5028    0.7248   -2.3221 H   0  0  0  0  0  0  0  0  0  0  0  0
    1.4522   -0.6206   -2.6027 H   0  0  0  0  0  0  0  0  0  0  0  0
   -0.5182    3.0451    1.7387 H   0  0  0  0  0  0  0  0  0  0  0  0
    1.1136    2.8447    2.3499 H   0  0  0  0  0  0  0  0  0  0  0  0
   -1.7377    2.7111   -1.3698 H   0  0  0  0  0  0  0  0  0  0  0  0
    2.8217    2.7779    0.8323 H   0  0  0  0  0  0  0  0  0  0  0  0
    2.6055    2.4938   -0.8497 H   0  0  0  0  0  0  0  0  0  0  0  0
    1.5897   -1.2530    2.2185 H   0  0  0  0  0  0  0  0  0  0  0  0
    1.7116   -2.6192    1.1438 H   0  0  0  0  0  0  0  0  0  0  0  0
   -2.1031   -1.7223    1.7596 H   0  0  0  0  0  0  0  0  0  0  0  0
    0.8858    1.9209   -3.5790 H   0  0  0  0  0  0  0  0  0  0  0  0
    4.3223    1.1642    1.5642 H   0  0  0  0  0  0  0  0  0  0  0  0
   -4.2592    1.8739   -0.9113 H   0  0  0  0  0  0  0  0  0  0  0  0
    0.1233   -2.8871    2.7049 H   0  0  0  0  0  0  0  0  0  0  0  0
   -4.4908   -1.7200    1.4423 H   0  0  0  0  0  0  0  0  0  0  0  0
   -5.6003    0.0657    0.1341 H   0  0  0  0  0  0  0  0  0  0  0  0
    4.2225   -1.2645    2.2933 H   0  0  0  0  0  0  0  0  0  0  0  0
    5.3449   -1.0430    0.9522 H   0  0  0  0  0  0  0  0  0  0  0  0
    3.7962   -1.8067    0.6781 H   0  0  0  0  0  0  0  0  0  0  0  0
    1.1298   -4.6606   -2.0442 H   0  0  0  0  0  0  0  0  0  0  0  0
    0.1278   -3.4557   -2.8841 H   0  0  0  0  0  0  0  0  0  0  0  0
   -0.5331   -4.3743   -1.4837 H   0  0  0  0  0  0  0  0  0  0  0  0
  1 12  1  0  0  0  0
  1 42  1  0  0  0  0
  2 19  1  0  0  0  0
  2 45  1  0  0  0  0
  3 20  1  0  0  0  0
  3 27  1  0  0  0  0
  4 20  2  0  0  0  0
  5  8  1  0  0  0  0
  5 14  1  0  0  0  0
  5 16  1  0  0  0  0
  6  8  1  0  0  0  0
  6 18  1  0  0  0  0
  6 36  1  0  0  0  0
  7  8  1  0  0  0  0
  7  9  1  0  0  0  0
  7 11  1  0  0  0  0
  7 15  1  0  0  0  0
  8 12  1  0  0  0  0
  9 10  1  0  0  0  0
  9 19  1  0  0  0  0
  9 20  1  0  0  0  0
 10 13  1  0  0  0  0
 10 17  1  0  0  0  0
 10 28  1  0  0  0  0
 11 14  1  0  0  0  0
 11 29  1  0  0  0  0
 11 30  1  0  0  0  0
 12 13  1  0  0  0  0
 12 31  1  0  0  0  0
 13 32  1  0  0  0  0
 13 33  1  0  0  0  0
 14 34  1  0  0  0  0
 14 35  1  0  0  0  0
 15 18  1  0  0  0  0
 15 21  2  0  0  0  0
 16 17  1  0  0  0  0
 16 37  1  0  0  0  0
 16 38  1  0  0  0  0
 17 22  2  0  0  0  0
 18 23  2  0  0  0  0
 19 39  1  0  0  0  0
 19 40  1  0  0  0  0
 21 24  1  0  0  0  0
 21 41  1  0  0  0  0
 22 26  1  0  0  0  0
 22 43  1  0  0  0  0
 23 25  1  0  0  0  0
 23 44  1  0  0  0  0
 24 25  2  0  0  0  0
 24 46  1  0  0  0  0
 25 47  1  0  0  0  0
 26 48  1  0  0  0  0
 26 49  1  0  0  0  0
 26 50  1  0  0  0  0
 27 51  1  0  0  0  0
 27 52  1  0  0  0  0
 27 53  1  0  0  0  0
M  END
> <PUBCHEM_COMPOUND_CID>
91885202

> <PUBCHEM_CONFORMER_RMSD>
0.8

> <PUBCHEM_CONFORMER_DIVERSEORDER>
1
4
3
2

> <PUBCHEM_MMFF94_PARTIAL_CHARGES>
33
1 -0.68
10 0.14
12 0.28
14 0.27
15 -0.14
16 0.41
17 -0.28
18 0.1
19 0.28
2 -0.68
20 0.66
21 -0.15
22 -0.29
23 -0.15
24 -0.15
25 -0.15
26 0.14
27 0.28
3 -0.43
36 0.4
4 -0.57
41 0.15
42 0.4
43 0.15
44 0.15
45 0.4
46 0.15
47 0.15
5 -0.81
6 -0.87
7 0.14
8 0.64
9 0.06

> <PUBCHEM_EFFECTIVE_ROTOR_COUNT>
4.4

> <PUBCHEM_PHARMACOPHORE_FEATURES>
13
1 1 acceptor
1 1 donor
1 2 acceptor
1 2 donor
1 26 hydrophobe
1 4 acceptor
1 5 cation
1 6 cation
1 6 donor
5 5 7 8 11 14 rings
5 6 7 8 15 18 rings
6 15 18 21 23 24 25 rings
9 5 7 8 9 10 12 13 16 17 rings

> <PUBCHEM_HEAVY_ATOM_COUNT>
27

> <PUBCHEM_ATOM_DEF_STEREO_COUNT>
4

> <PUBCHEM_ATOM_UDEF_STEREO_COUNT>
1

> <PUBCHEM_BOND_DEF_STEREO_COUNT>
1

> <PUBCHEM_BOND_UDEF_STEREO_COUNT>
0

> <PUBCHEM_ISOTOPIC_ATOM_COUNT>
0

> <PUBCHEM_COMPONENT_COUNT>
1

> <PUBCHEM_CACTVS_TAUTO_COUNT>
3

> <PUBCHEM_CONFORMER_ID>
057A0E9200000001

> <PUBCHEM_MMFF94_ENERGY>
132.0425

> <PUBCHEM_FEATURE_SELFOVERLAP>
67.274

> <PUBCHEM_SHAPE_FINGERPRINT>
10863032 1 17023763345019208944
10948715 1 18193280920974960888
11578080 2 17770232552273257144
12422481 6 18263636264896320697
13140716 1 18267868465962334443
14223421 5 17840868473676051882
144361 1 17972352618085016628
14787075 74 18339074994866236736
14863182 85 18270977781577020495
16945 1 18342465819716612149
20511035 2 18046076122436117506
20600515 1 17895482444356165362
20691752 17 17970616618247623019
20905425 154 18043806481328323635
21330990 113 18270683048257527118
229495 10 17897978310419529298
23419403 2 16967110754979227809
23559900 14 18124596379919236238
238 59 18196905899770057229
2748010 2 18125445202500188590
394222 165 17753923762718192940
4340502 62 17418381320135560395
57527585 103 16745721988709795790
5845 1 17616271190362365328
70251023 43 16842774720477891231

> <PUBCHEM_SHAPE_MULTIPOLES>
522.21
5.43
3.24
2.02
2.53
2.13
-0.55
-0.24
1.92
-0.8
-1.06
-0.64
0.1
0.22

> <PUBCHEM_SHAPE_SELFOVERLAP>
1166.875

> <PUBCHEM_SHAPE_VOLUME>
271.2

> <PUBCHEM_COORDINATE_TYPE>
2
5
10

$$$$
