18604
  -OEChem-09032010583D

 43 43  0     1  0  0  0  0  0999 V2000
    7.5999    0.2277   -0.3837 O   0  0  0  0  0  0  0  0  0  0  0  0
    6.4697   -0.1176    0.4150 C   0  0  1  0  0  0  0  0  0  0  0  0
    5.2174    0.6191    0.0497 C   0  0  0  0  0  0  0  0  0  0  0  0
    3.9419   -0.1801    0.3244 C   0  0  0  0  0  0  0  0  0  0  0  0
    7.0780   -1.0992   -0.5304 C   0  0  0  0  0  0  0  0  0  0  0  0
    2.6637    0.6041    0.0147 C   0  0  0  0  0  0  0  0  0  0  0  0
    1.4168   -0.2442    0.2750 C   0  0  0  0  0  0  0  0  0  0  0  0
    0.1374    0.5475   -0.0017 C   0  0  0  0  0  0  0  0  0  0  0  0
   -1.1088   -0.3111    0.2261 C   0  0  0  0  0  0  0  0  0  0  0  0
   -2.3858    0.4737   -0.0825 C   0  0  0  0  0  0  0  0  0  0  0  0
   -3.6648   -0.3488    0.0992 C   0  0  0  0  0  0  0  0  0  0  0  0
   -4.9412    0.4288   -0.2338 C   0  0  0  0  0  0  0  0  0  0  0  0
   -6.1883   -0.4180    0.0345 C   0  0  0  0  0  0  0  0  0  0  0  0
   -7.4969    0.3233   -0.2481 C   0  0  0  0  0  0  0  0  0  0  0  0
   -8.7391   -0.5051    0.0417 C   0  0  0  0  0  0  0  0  0  0  0  0
    6.6105   -0.2516    1.4781 H   0  0  0  0  0  0  0  0  0  0  0  0
    5.1910    1.5532    0.6236 H   0  0  0  0  0  0  0  0  0  0  0  0
    5.2385    0.9052   -1.0097 H   0  0  0  0  0  0  0  0  0  0  0  0
    3.9604   -1.1017   -0.2708 H   0  0  0  0  0  0  0  0  0  0  0  0
    3.9317   -0.4917    1.3766 H   0  0  0  0  0  0  0  0  0  0  0  0
    6.5581   -1.3340   -1.4500 H   0  0  0  0  0  0  0  0  0  0  0  0
    7.6605   -1.9127   -0.1178 H   0  0  0  0  0  0  0  0  0  0  0  0
    2.6767    0.9277   -1.0331 H   0  0  0  0  0  0  0  0  0  0  0  0
    2.6319    1.5090    0.6333 H   0  0  0  0  0  0  0  0  0  0  0  0
    1.4426   -1.1374   -0.3611 H   0  0  0  0  0  0  0  0  0  0  0  0
    1.4157   -0.5885    1.3164 H   0  0  0  0  0  0  0  0  0  0  0  0
    0.1485    0.9100   -1.0370 H   0  0  0  0  0  0  0  0  0  0  0  0
    0.1014    1.4293    0.6494 H   0  0  0  0  0  0  0  0  0  0  0  0
   -1.0648   -1.2013   -0.4129 H   0  0  0  0  0  0  0  0  0  0  0  0
   -1.1339   -0.6593    1.2656 H   0  0  0  0  0  0  0  0  0  0  0  0
   -2.3435    0.8404   -1.1157 H   0  0  0  0  0  0  0  0  0  0  0  0
   -2.4330    1.3578    0.5652 H   0  0  0  0  0  0  0  0  0  0  0  0
   -3.6117   -1.2421   -0.5354 H   0  0  0  0  0  0  0  0  0  0  0  0
   -3.7143   -0.7006    1.1373 H   0  0  0  0  0  0  0  0  0  0  0  0
   -4.9220    0.7376   -1.2856 H   0  0  0  0  0  0  0  0  0  0  0  0
   -4.9822    1.3419    0.3720 H   0  0  0  0  0  0  0  0  0  0  0  0
   -6.1495   -1.3255   -0.5808 H   0  0  0  0  0  0  0  0  0  0  0  0
   -6.1843   -0.7455    1.0817 H   0  0  0  0  0  0  0  0  0  0  0  0
   -7.5165    0.6365   -1.2988 H   0  0  0  0  0  0  0  0  0  0  0  0
   -7.5340    1.2374    0.3565 H   0  0  0  0  0  0  0  0  0  0  0  0
   -9.6419    0.0729   -0.1784 H   0  0  0  0  0  0  0  0  0  0  0  0
   -8.7555   -1.4110   -0.5723 H   0  0  0  0  0  0  0  0  0  0  0  0
   -8.7725   -0.8030    1.0945 H   0  0  0  0  0  0  0  0  0  0  0  0
  1  2  1  0  0  0  0
  1  5  1  0  0  0  0
  2  3  1  0  0  0  0
  2  5  1  0  0  0  0
  2 16  1  0  0  0  0
  3  4  1  0  0  0  0
  3 17  1  0  0  0  0
  3 18  1  0  0  0  0
  4  6  1  0  0  0  0
  4 19  1  0  0  0  0
  4 20  1  0  0  0  0
  5 21  1  0  0  0  0
  5 22  1  0  0  0  0
  6  7  1  0  0  0  0
  6 23  1  0  0  0  0
  6 24  1  0  0  0  0
  7  8  1  0  0  0  0
  7 25  1  0  0  0  0
  7 26  1  0  0  0  0
  8  9  1  0  0  0  0
  8 27  1  0  0  0  0
  8 28  1  0  0  0  0
  9 10  1  0  0  0  0
  9 29  1  0  0  0  0
  9 30  1  0  0  0  0
 10 11  1  0  0  0  0
 10 31  1  0  0  0  0
 10 32  1  0  0  0  0
 11 12  1  0  0  0  0
 11 33  1  0  0  0  0
 11 34  1  0  0  0  0
 12 13  1  0  0  0  0
 12 35  1  0  0  0  0
 12 36  1  0  0  0  0
 13 14  1  0  0  0  0
 13 37  1  0  0  0  0
 13 38  1  0  0  0  0
 14 15  1  0  0  0  0
 14 39  1  0  0  0  0
 14 40  1  0  0  0  0
 15 41  1  0  0  0  0
 15 42  1  0  0  0  0
 15 43  1  0  0  0  0
M  END
> <PUBCHEM_COMPOUND_CID>
18604

> <PUBCHEM_CONFORMER_RMSD>
1.2

> <PUBCHEM_CONFORMER_DIVERSEORDER>
1
30
223
7
213
77
408
365
19
218
2
83
86
162
127
203
228
133
57
38
269
49
56
397
210
482
141
5
465
122
320
8
64
310
42
515
451
171
348
22
299
212
192
342
386
502
11
325
65
94
58
389
338
486
134
61
120
506
367
479
18
174
314
176
444
55
433
279
393
15

> <PUBCHEM_MMFF94_PARTIAL_CHARGES>
7
1 -0.3
16 0.1
2 -0.05
21 0.1
22 0.1
3 0.09
5 -0.05

> <PUBCHEM_EFFECTIVE_ROTOR_COUNT>
11.6

> <PUBCHEM_PHARMACOPHORE_FEATURES>
2
1 1 acceptor
1 15 hydrophobe

> <PUBCHEM_HEAVY_ATOM_COUNT>
15

> <PUBCHEM_ATOM_DEF_STEREO_COUNT>
0

> <PUBCHEM_ATOM_UDEF_STEREO_COUNT>
1

> <PUBCHEM_BOND_DEF_STEREO_COUNT>
0

> <PUBCHEM_BOND_UDEF_STEREO_COUNT>
0

> <PUBCHEM_ISOTOPIC_ATOM_COUNT>
0

> <PUBCHEM_COMPONENT_COUNT>
1

> <PUBCHEM_CACTVS_TAUTO_COUNT>
1

> <PUBCHEM_CONFORMER_ID>
000048AC00000001

> <PUBCHEM_MMFF94_ENERGY>
0.9643

> <PUBCHEM_FEATURE_SELFOVERLAP>
10.148

> <PUBCHEM_SHAPE_FINGERPRINT>
10066227 49 18201159841243631438
11315181 36 18412549829802253233
11638347 137 13614248066442372492
12091667 2 17967250897881941089
13533116 47 16081355333600123288
13885169 127 18272371945578774073
14123256 10 17603303747687265203
14251764 18 17167578272247899745
14251764 46 18410855464428403850
14729087 3 10375878463765800491
155225 1 12757442666100883422
15716309 27 17275383213791851709
17834076 25 18410573989446431440
18006028 8 17988923370828376569
20621476 8 18335136479822448167
21095086 128 18202280317054619647
21130983 4 12035450532336014670
21150785 3 15357696392327499587
21267235 1 18408887343453373817
21315763 28 18202001036521425561
22224240 67 10087638199855691621
23035841 295 16917065568639575231
23521765 1 18342175570485556681
246663 6 18411139143240341043
28498 318 18272369754422474326
33532 11 18202282477096407870
33684 2 17894629249508957938
42788 4 18409446990371008368
4325135 7 17894630353173310223
59682541 35 9223223057893963565
67123 10 18410574010921267917
8209 1 18410573989451699681

> <PUBCHEM_SHAPE_MULTIPOLES>
302.82
27.82
0.85
0.67
11.65
0.05
0
4.08
-2.29
-0.4
-0.04
-0.21
0.02
0.34

> <PUBCHEM_SHAPE_SELFOVERLAP>
551.821

> <PUBCHEM_SHAPE_VOLUME>
194

> <PUBCHEM_COORDINATE_TYPE>
2
5
10

$$$$
