41209
  -OEChem-09032011043D

 65 64  0     1  0  0  0  0  0999 V2000
    1.3051    1.2251    0.1540 C   0  0  1  0  0  0  0  0  0  0  0  0
   -3.7810    1.8480   -0.2925 C   0  0  1  0  0  0  0  0  0  0  0  0
   -0.0829    0.5754   -0.0414 C   0  0  0  0  0  0  0  0  0  0  0  0
   -2.5839    0.8767   -0.2639 C   0  0  0  0  0  0  0  0  0  0  0  0
   -1.2456    1.5733    0.0127 C   0  0  0  0  0  0  0  0  0  0  0  0
    2.3839    0.1197    0.0968 C   0  0  0  0  0  0  0  0  0  0  0  0
   -5.0718    1.1457   -0.7688 C   0  0  0  0  0  0  0  0  0  0  0  0
    3.8003    0.6272    0.3899 C   0  0  0  0  0  0  0  0  0  0  0  0
    4.8574   -0.4830    0.3561 C   0  0  0  0  0  0  0  0  0  0  0  0
   -5.5825    0.0241    0.1440 C   0  0  0  0  0  0  0  0  0  0  0  0
    6.2697    0.0181    0.6752 C   0  0  0  0  0  0  0  0  0  0  0  0
    1.5677    2.3231   -0.8814 C   0  0  0  0  0  0  0  0  0  0  0  0
    7.3341   -1.0978    0.6594 C   0  0  1  0  0  0  0  0  0  0  0  0
   -3.9883    2.5496    1.0524 C   0  0  0  0  0  0  0  0  0  0  0  0
   -6.8313   -0.6400   -0.4485 C   0  0  0  0  0  0  0  0  0  0  0  0
   -7.3522   -1.8237    0.3878 C   0  0  0  0  0  0  0  0  0  0  0  0
    7.3863   -1.9044   -0.6534 C   0  0  0  0  0  0  0  0  0  0  0  0
    8.7055   -0.5082    1.0067 C   0  0  0  0  0  0  0  0  0  0  0  0
   -6.2703   -2.9018    0.4908 C   0  0  0  0  0  0  0  0  0  0  0  0
   -8.6311   -2.4309   -0.1908 C   0  0  0  0  0  0  0  0  0  0  0  0
    7.8110   -1.1162   -1.8850 C   0  0  0  0  0  0  0  0  0  0  0  0
    1.3324    1.6839    1.1508 H   0  0  0  0  0  0  0  0  0  0  0  0
   -3.5615    2.6276   -1.0348 H   0  0  0  0  0  0  0  0  0  0  0  0
   -0.2354   -0.1891    0.7312 H   0  0  0  0  0  0  0  0  0  0  0  0
   -0.1031    0.0543   -1.0075 H   0  0  0  0  0  0  0  0  0  0  0  0
   -2.7387    0.1084    0.5026 H   0  0  0  0  0  0  0  0  0  0  0  0
   -2.5229    0.3575   -1.2288 H   0  0  0  0  0  0  0  0  0  0  0  0
   -1.2543    2.0519    0.9975 H   0  0  0  0  0  0  0  0  0  0  0  0
   -1.1183    2.3590   -0.7379 H   0  0  0  0  0  0  0  0  0  0  0  0
    2.1351   -0.6622    0.8257 H   0  0  0  0  0  0  0  0  0  0  0  0
    2.3702   -0.3560   -0.8922 H   0  0  0  0  0  0  0  0  0  0  0  0
   -4.8955    0.7384   -1.7729 H   0  0  0  0  0  0  0  0  0  0  0  0
   -5.8619    1.8998   -0.8804 H   0  0  0  0  0  0  0  0  0  0  0  0
    3.8140    1.1107    1.3742 H   0  0  0  0  0  0  0  0  0  0  0  0
    4.0928    1.3842   -0.3449 H   0  0  0  0  0  0  0  0  0  0  0  0
    4.8326   -0.9319   -0.6424 H   0  0  0  0  0  0  0  0  0  0  0  0
    4.5822   -1.2681    1.0707 H   0  0  0  0  0  0  0  0  0  0  0  0
   -5.8198    0.4176    1.1383 H   0  0  0  0  0  0  0  0  0  0  0  0
   -4.7880   -0.7160    0.2617 H   0  0  0  0  0  0  0  0  0  0  0  0
    6.5427    0.8054   -0.0382 H   0  0  0  0  0  0  0  0  0  0  0  0
    6.2624    0.4889    1.6666 H   0  0  0  0  0  0  0  0  0  0  0  0
    1.5193    1.9257   -1.9006 H   0  0  0  0  0  0  0  0  0  0  0  0
    2.5483    2.7861   -0.7427 H   0  0  0  0  0  0  0  0  0  0  0  0
    0.8456    3.1400   -0.7968 H   0  0  0  0  0  0  0  0  0  0  0  0
    7.0759   -1.8088    1.4562 H   0  0  0  0  0  0  0  0  0  0  0  0
   -4.9114    3.1391    1.0458 H   0  0  0  0  0  0  0  0  0  0  0  0
   -3.1680    3.2414    1.2673 H   0  0  0  0  0  0  0  0  0  0  0  0
   -4.0475    1.8323    1.8772 H   0  0  0  0  0  0  0  0  0  0  0  0
   -7.6264    0.1114   -0.5352 H   0  0  0  0  0  0  0  0  0  0  0  0
   -6.6138   -0.9833   -1.4683 H   0  0  0  0  0  0  0  0  0  0  0  0
   -7.5800   -1.4663    1.4000 H   0  0  0  0  0  0  0  0  0  0  0  0
    8.0996   -2.7287   -0.5218 H   0  0  0  0  0  0  0  0  0  0  0  0
    6.4220   -2.3865   -0.8455 H   0  0  0  0  0  0  0  0  0  0  0  0
    8.6919   -0.0770    2.0137 H   0  0  0  0  0  0  0  0  0  0  0  0
    9.4801   -1.2820    0.9884 H   0  0  0  0  0  0  0  0  0  0  0  0
    8.9960    0.2865    0.3123 H   0  0  0  0  0  0  0  0  0  0  0  0
   -6.6707   -3.8048    0.9656 H   0  0  0  0  0  0  0  0  0  0  0  0
   -5.4281   -2.5760    1.1080 H   0  0  0  0  0  0  0  0  0  0  0  0
   -5.8901   -3.1856   -0.4964 H   0  0  0  0  0  0  0  0  0  0  0  0
   -8.9983   -3.2466    0.4409 H   0  0  0  0  0  0  0  0  0  0  0  0
   -9.4212   -1.6754   -0.2552 H   0  0  0  0  0  0  0  0  0  0  0  0
   -8.4606   -2.8289   -1.1969 H   0  0  0  0  0  0  0  0  0  0  0  0
    7.1293   -0.2841   -2.0824 H   0  0  0  0  0  0  0  0  0  0  0  0
    7.8017   -1.7686   -2.7645 H   0  0  0  0  0  0  0  0  0  0  0  0
    8.8252   -0.7200   -1.7823 H   0  0  0  0  0  0  0  0  0  0  0  0
  1  3  1  0  0  0  0
  1  6  1  0  0  0  0
  1 12  1  0  0  0  0
  1 22  1  0  0  0  0
  2  4  1  0  0  0  0
  2  7  1  0  0  0  0
  2 14  1  0  0  0  0
  2 23  1  0  0  0  0
  3  5  1  0  0  0  0
  3 24  1  0  0  0  0
  3 25  1  0  0  0  0
  4  5  1  0  0  0  0
  4 26  1  0  0  0  0
  4 27  1  0  0  0  0
  5 28  1  0  0  0  0
  5 29  1  0  0  0  0
  6  8  1  0  0  0  0
  6 30  1  0  0  0  0
  6 31  1  0  0  0  0
  7 10  1  0  0  0  0
  7 32  1  0  0  0  0
  7 33  1  0  0  0  0
  8  9  1  0  0  0  0
  8 34  1  0  0  0  0
  8 35  1  0  0  0  0
  9 11  1  0  0  0  0
  9 36  1  0  0  0  0
  9 37  1  0  0  0  0
 10 15  1  0  0  0  0
 10 38  1  0  0  0  0
 10 39  1  0  0  0  0
 11 13  1  0  0  0  0
 11 40  1  0  0  0  0
 11 41  1  0  0  0  0
 12 42  1  0  0  0  0
 12 43  1  0  0  0  0
 12 44  1  0  0  0  0
 13 17  1  0  0  0  0
 13 18  1  0  0  0  0
 13 45  1  0  0  0  0
 14 46  1  0  0  0  0
 14 47  1  0  0  0  0
 14 48  1  0  0  0  0
 15 16  1  0  0  0  0
 15 49  1  0  0  0  0
 15 50  1  0  0  0  0
 16 19  1  0  0  0  0
 16 20  1  0  0  0  0
 16 51  1  0  0  0  0
 17 21  1  0  0  0  0
 17 52  1  0  0  0  0
 17 53  1  0  0  0  0
 18 54  1  0  0  0  0
 18 55  1  0  0  0  0
 18 56  1  0  0  0  0
 19 57  1  0  0  0  0
 19 58  1  0  0  0  0
 19 59  1  0  0  0  0
 20 60  1  0  0  0  0
 20 61  1  0  0  0  0
 20 62  1  0  0  0  0
 21 63  1  0  0  0  0
 21 64  1  0  0  0  0
 21 65  1  0  0  0  0
M  END
> <PUBCHEM_COMPOUND_CID>
41209

> <PUBCHEM_CONFORMER_RMSD>
1.6

> <PUBCHEM_CONFORMER_DIVERSEORDER>
1
14
4
3
41
36
23
46
8
40
11
10
20
35
38
33
22
27
39
18
13
12
7
42
28
24
45
32
30
17
25
19
2
15
21
6
31
43
9
44
29
34
37
26
5
16

> <PUBCHEM_MMFF94_PARTIAL_CHARGES>
0

> <PUBCHEM_EFFECTIVE_ROTOR_COUNT>
14

> <PUBCHEM_PHARMACOPHORE_FEATURES>
5
1 12 hydrophobe
1 14 hydrophobe
1 18 hydrophobe
1 21 hydrophobe
3 16 19 20 hydrophobe

> <PUBCHEM_HEAVY_ATOM_COUNT>
21

> <PUBCHEM_ATOM_DEF_STEREO_COUNT>
0

> <PUBCHEM_ATOM_UDEF_STEREO_COUNT>
3

> <PUBCHEM_BOND_DEF_STEREO_COUNT>
0

> <PUBCHEM_BOND_UDEF_STEREO_COUNT>
0

> <PUBCHEM_ISOTOPIC_ATOM_COUNT>
0

> <PUBCHEM_COMPONENT_COUNT>
1

> <PUBCHEM_CACTVS_TAUTO_COUNT>
1

> <PUBCHEM_CONFORMER_ID>
0000A0F900000001

> <PUBCHEM_MMFF94_ENERGY>
20.3181

> <PUBCHEM_FEATURE_SELFOVERLAP>
25.376

> <PUBCHEM_SHAPE_FINGERPRINT>
10162869 55 17167861977072142686
11135609 99 18337389447798861223
11315181 36 18411135810325302633
11761917 87 16199885947265692974
13668630 136 18410009914559868252
14142895 15 18335139856511391892
14178184 131 18201433744425283311
14202775 3 18342176606560197102
14344974 204 18200593739011373759
14344974 52 11458430155080163187
14429380 56 15574721305281450646
14598715 104 8214139620966505686
14729087 3 8935000373785936047
1818759 1 18333737927092183163
18335252 114 14345797145925870318
18335252 98 18131631176353397226
18643901 69 18113898269910902551
21095123 293 12175617417259701234
21130935 74 18270961216484024914
21150785 3 16732983115629757438
21267235 1 18411700993323691789
21781051 124 18130517392101281246
22288116 15 13262684777201857177
23389318 12 17748832934208899342
23569943 247 17833834872651964154
328311 84 17917429800912539486
3383291 50 18412543232242636003
54039377 194 18409730690515376887
59682541 35 18131624604594531306
636775 8 18410862061646234222
9995097 26 18410298025508815278
999808 66 18201998833150156439

> <PUBCHEM_SHAPE_MULTIPOLES>
432.17
31.2
2.84
1.07
15.36
0.53
0.25
27.66
-0.05
-5.76
-0.04
1.71
0.06
0.84

> <PUBCHEM_SHAPE_SELFOVERLAP>
787.495

> <PUBCHEM_SHAPE_VOLUME>
277.7

> <PUBCHEM_COORDINATE_TYPE>
2
5
10

$$$$
