549791
  -OEChem-09032011083D

 33 32  0     0  0  0  0  0  0999 V2000
   -3.0926    1.1060    1.2111 O   0  0  0  0  0  0  0  0  0  0  0  0
    1.0915   -2.0094    0.8117 C   0  0  0  0  0  0  0  0  0  0  0  0
   -1.0263   -0.6345    0.3412 C   0  0  0  0  0  0  0  0  0  0  0  0
    0.0182   -1.6045   -0.1829 C   0  0  0  0  0  0  0  0  0  0  0  0
    1.9890   -0.8575    1.2847 C   0  0  0  0  0  0  0  0  0  0  0  0
   -2.2238   -0.3016   -0.5561 C   0  0  0  0  0  0  0  0  0  0  0  0
    2.7029   -0.1773    0.1491 C   0  0  0  0  0  0  0  0  0  0  0  0
    2.7066    1.1309   -0.1701 C   0  0  0  0  0  0  0  0  0  0  0  0
   -3.2264    0.6506    0.0768 C   0  0  0  0  0  0  0  0  0  0  0  0
    0.0199   -2.1378   -1.4161 C   0  0  0  0  0  0  0  0  0  0  0  0
    3.5058    1.6222   -1.3483 C   0  0  0  0  0  0  0  0  0  0  0  0
    1.9617    2.2105    0.5621 C   0  0  0  0  0  0  0  0  0  0  0  0
   -4.4266    1.0024   -0.7632 C   0  0  0  0  0  0  0  0  0  0  0  0
    0.6050   -2.4606    1.6861 H   0  0  0  0  0  0  0  0  0  0  0  0
    1.7273   -2.7992    0.3887 H   0  0  0  0  0  0  0  0  0  0  0  0
   -0.5278    0.3084    0.5955 H   0  0  0  0  0  0  0  0  0  0  0  0
   -1.4145   -1.0389    1.2857 H   0  0  0  0  0  0  0  0  0  0  0  0
    1.4011   -0.1619    1.8885 H   0  0  0  0  0  0  0  0  0  0  0  0
    2.7494   -1.2697    1.9601 H   0  0  0  0  0  0  0  0  0  0  0  0
   -2.7631   -1.2214   -0.8102 H   0  0  0  0  0  0  0  0  0  0  0  0
   -1.8730    0.1654   -1.4837 H   0  0  0  0  0  0  0  0  0  0  0  0
    3.3017   -0.8506   -0.4641 H   0  0  0  0  0  0  0  0  0  0  0  0
   -0.7358   -1.8898   -2.1522 H   0  0  0  0  0  0  0  0  0  0  0  0
    0.7872   -2.8399   -1.7261 H   0  0  0  0  0  0  0  0  0  0  0  0
    2.8468    2.1047   -2.0777 H   0  0  0  0  0  0  0  0  0  0  0  0
    4.2552    2.3505   -1.0210 H   0  0  0  0  0  0  0  0  0  0  0  0
    4.0331    0.8124   -1.8634 H   0  0  0  0  0  0  0  0  0  0  0  0
    1.4222    1.8563    1.4420 H   0  0  0  0  0  0  0  0  0  0  0  0
    2.6597    2.9830    0.9024 H   0  0  0  0  0  0  0  0  0  0  0  0
    1.2299    2.6786   -0.1048 H   0  0  0  0  0  0  0  0  0  0  0  0
   -4.9995    0.0977   -0.9805 H   0  0  0  0  0  0  0  0  0  0  0  0
   -4.0978    1.4737   -1.6927 H   0  0  0  0  0  0  0  0  0  0  0  0
   -5.0650    1.7041   -0.2193 H   0  0  0  0  0  0  0  0  0  0  0  0
  1  9  2  0  0  0  0
  2  4  1  0  0  0  0
  2  5  1  0  0  0  0
  2 14  1  0  0  0  0
  2 15  1  0  0  0  0
  3  4  1  0  0  0  0
  3  6  1  0  0  0  0
  3 16  1  0  0  0  0
  3 17  1  0  0  0  0
  4 10  2  0  0  0  0
  5  7  1  0  0  0  0
  5 18  1  0  0  0  0
  5 19  1  0  0  0  0
  6  9  1  0  0  0  0
  6 20  1  0  0  0  0
  6 21  1  0  0  0  0
  7  8  2  0  0  0  0
  7 22  1  0  0  0  0
  8 11  1  0  0  0  0
  8 12  1  0  0  0  0
  9 13  1  0  0  0  0
 10 23  1  0  0  0  0
 10 24  1  0  0  0  0
 11 25  1  0  0  0  0
 11 26  1  0  0  0  0
 11 27  1  0  0  0  0
 12 28  1  0  0  0  0
 12 29  1  0  0  0  0
 12 30  1  0  0  0  0
 13 31  1  0  0  0  0
 13 32  1  0  0  0  0
 13 33  1  0  0  0  0
M  END
> <PUBCHEM_COMPOUND_CID>
549791

> <PUBCHEM_CONFORMER_RMSD>
0.8

> <PUBCHEM_CONFORMER_DIVERSEORDER>
1
191
337
17
301
236
314
62
306
69
26
333
175
34
272
97
102
209
134
184
221
283
66
309
162
288
116
13
71
136
170
216
277
321
76
335
211
131
290
70
304
320
240
86
332
80
146
117
163
2
171
340
217
231
118
208
215
275
40
203
88
255
100
128
316
268
294
230
315
284
228
149
92
44
339
198
23
285
195
238
168
124
293
36
254
154
223
225
246
64
143
251
68
226
56
307
121
135
289
112
336
42
41
331
85
210
6
122
219
278
295
3
127
16
200
28
65
267
206
300
91
165
232
63
152
10
274
164
33
328
242
303
93
241
57
186
263
312
183
323
148
334
169
114
265
55
125
45
156
299
153
326
182
270
287
140
262
243
24
22
190
95
137
51
338
311
4
329
205
302
273
253
207
249
178
106
298
30
111
167
245
173
9
129
11
160
177
7
58
327
133
286
214
297
324
78
196
252
107
8
27
144
29
21
87
282
79
261
280
296
317
82
151
330
59
43
319
194
197
227
94
132
145
61
237
264
176
119
104
31
269
67
192
239
113
35
39
224
202
259
74
305
234
12
188
15
138
248
244
150
266
49
90
257
101
75
247
322
222
271
130
342
220
204
126
103
98
218
281
48
166
187
229
180
155
291
47
185
84
276
308
235
37
96
109
193
110
172
292
341
120
159
38
212
53
179
20
25
325
213
233
18
77
73
250
199
99
19
142
89
81
46
139
60
141
181
174
108
123
72
157
279
5
318
158
189
32
258
50
260
83
201
52
54
147
14
115
256
310
105
161
313

> <PUBCHEM_MMFF94_PARTIAL_CHARGES>
16
1 -0.57
10 -0.3
11 0.14
12 0.14
13 0.06
2 0.14
22 0.15
23 0.15
24 0.15
3 0.14
4 -0.28
5 0.14
6 0.06
7 -0.29
8 -0.28
9 0.45

> <PUBCHEM_EFFECTIVE_ROTOR_COUNT>
6

> <PUBCHEM_PHARMACOPHORE_FEATURES>
5
1 1 acceptor
1 10 hydrophobe
3 2 5 7 hydrophobe
3 3 4 6 hydrophobe
3 8 11 12 hydrophobe

> <PUBCHEM_HEAVY_ATOM_COUNT>
13

> <PUBCHEM_ATOM_DEF_STEREO_COUNT>
0

> <PUBCHEM_ATOM_UDEF_STEREO_COUNT>
0

> <PUBCHEM_BOND_DEF_STEREO_COUNT>
0

> <PUBCHEM_BOND_UDEF_STEREO_COUNT>
0

> <PUBCHEM_ISOTOPIC_ATOM_COUNT>
0

> <PUBCHEM_COMPONENT_COUNT>
1

> <PUBCHEM_CACTVS_TAUTO_COUNT>
3

> <PUBCHEM_CONFORMER_ID>
0008639F00000001

> <PUBCHEM_MMFF94_ENERGY>
10.41

> <PUBCHEM_FEATURE_SELFOVERLAP>
25.486

> <PUBCHEM_SHAPE_FINGERPRINT>
10149128 111 18343018870018232155
10980938 120 18335134284761947888
13618510 140 18410858775864344681
13705890 14 12823285806156534346
14004458 79 16768131371154631486
14123255 52 18188773980179532388
14251764 38 17825373091067328117
15775835 57 18335984254679579332
17134986 127 18341891930702865238
17357990 137 18342726408552413402
18186145 218 17917717941051012465
19107657 9 18272940396957910337
20231682 184 18410569553051514231
20304884 271 18266176330299127370
20539784 86 17750232508720147771
20539926 19 18413389847452419464
20606313 2 18339071580240427713
20671657 1 18342172246044044362
21524375 3 18410571811966915486
21639500 275 18338779153308303949
22094290 62 18410568475141193602
231179 274 18187081724198705876
23419403 2 17325834270805405106
23557571 272 16843301643939989754
251288 83 14273749502493470096
2637199 183 18340785804788737812
3060560 45 18059569153017459294
44154327 71 18259988175584006773
449060 62 18334012774575562365
474 4 18337389340677671843
81539 233 18260550008877144135
9882013 296 17023191594888632587

> <PUBCHEM_SHAPE_MULTIPOLES>
261.66
6.8
2.46
1.28
5.26
0.27
-0.14
-5.12
-0.97
-1.27
-0.21
-0.32
0.13
-0.79

> <PUBCHEM_SHAPE_SELFOVERLAP>
487.732

> <PUBCHEM_SHAPE_VOLUME>
164.3

> <PUBCHEM_COORDINATE_TYPE>
2
5
10

$$$$
