102034145
  -OEChem-09032002573D

 27 28  0     1  0  0  0  0  0999 V2000
   -2.3331   -1.0114    0.3112 O   0  0  0  0  0  0  0  0  0  0  0  0
    2.8733    1.1331    0.2652 O   0  0  0  0  0  0  0  0  0  0  0  0
   -0.1414   -0.6168   -0.6731 C   0  0  1  0  0  0  0  0  0  0  0  0
   -0.4283    0.8902   -0.7061 C   0  0  2  0  0  0  0  0  0  0  0  0
    1.3806   -0.6388   -0.4806 C   0  0  1  0  0  0  0  0  0  0  0  0
    0.4769    1.4710    0.3913 C   0  0  0  0  0  0  0  0  0  0  0  0
    1.6417    0.4821    0.5378 C   0  0  2  0  0  0  0  0  0  0  0  0
   -1.9099    1.2173   -0.5452 C   0  0  0  0  0  0  0  0  0  0  0  0
   -0.9450   -1.3245    0.4225 C   0  0  0  0  0  0  0  0  0  0  0  0
    1.9662   -1.9780   -0.0551 C   0  0  0  0  0  0  0  0  0  0  0  0
   -2.5808    0.3759    0.5321 C   0  0  0  0  0  0  0  0  0  0  0  0
   -0.4168   -1.0568   -1.6400 H   0  0  0  0  0  0  0  0  0  0  0  0
   -0.0860    1.2985   -1.6675 H   0  0  0  0  0  0  0  0  0  0  0  0
    1.8555   -0.3669   -1.4344 H   0  0  0  0  0  0  0  0  0  0  0  0
    0.8063    2.4827    0.1303 H   0  0  0  0  0  0  0  0  0  0  0  0
   -0.0571    1.5408    1.3457 H   0  0  0  0  0  0  0  0  0  0  0  0
    1.6821    0.0953    1.5627 H   0  0  0  0  0  0  0  0  0  0  0  0
   -2.4035    0.9976   -1.5008 H   0  0  0  0  0  0  0  0  0  0  0  0
   -2.0556    2.2841   -0.3438 H   0  0  0  0  0  0  0  0  0  0  0  0
   -0.8471   -2.4098    0.3144 H   0  0  0  0  0  0  0  0  0  0  0  0
   -0.6005   -1.0686    1.4313 H   0  0  0  0  0  0  0  0  0  0  0  0
    3.0584   -1.9173   -0.0022 H   0  0  0  0  0  0  0  0  0  0  0  0
    1.7063   -2.7593   -0.7766 H   0  0  0  0  0  0  0  0  0  0  0  0
    1.6064   -2.2898    0.9305 H   0  0  0  0  0  0  0  0  0  0  0  0
   -2.2437    0.6549    1.5367 H   0  0  0  0  0  0  0  0  0  0  0  0
   -3.6643    0.5297    0.4990 H   0  0  0  0  0  0  0  0  0  0  0  0
    2.9736    1.8513    0.9131 H   0  0  0  0  0  0  0  0  0  0  0  0
  1  9  1  0  0  0  0
  1 11  1  0  0  0  0
  2  7  1  0  0  0  0
  2 27  1  0  0  0  0
  3  4  1  0  0  0  0
  3  5  1  0  0  0  0
  3  9  1  0  0  0  0
  3 12  1  0  0  0  0
  4  6  1  0  0  0  0
  4  8  1  0  0  0  0
  4 13  1  0  0  0  0
  5  7  1  0  0  0  0
  5 10  1  0  0  0  0
  5 14  1  0  0  0  0
  6  7  1  0  0  0  0
  6 15  1  0  0  0  0
  6 16  1  0  0  0  0
  7 17  1  0  0  0  0
  8 11  1  0  0  0  0
  8 18  1  0  0  0  0
  8 19  1  0  0  0  0
  9 20  1  0  0  0  0
  9 21  1  0  0  0  0
 10 22  1  0  0  0  0
 10 23  1  0  0  0  0
 10 24  1  0  0  0  0
 11 25  1  0  0  0  0
 11 26  1  0  0  0  0
M  END
> <PUBCHEM_COMPOUND_CID>
102034145

> <PUBCHEM_CONFORMER_RMSD>
0.4

> <PUBCHEM_CONFORMER_DIVERSEORDER>
1
6
5
7
2
3
4

> <PUBCHEM_MMFF94_PARTIAL_CHARGES>
6
1 -0.56
11 0.28
2 -0.68
27 0.4
7 0.28
9 0.28

> <PUBCHEM_EFFECTIVE_ROTOR_COUNT>
1.4

> <PUBCHEM_PHARMACOPHORE_FEATURES>
5
1 1 acceptor
1 2 acceptor
1 2 donor
5 3 4 5 6 7 rings
6 1 3 4 8 9 11 rings

> <PUBCHEM_HEAVY_ATOM_COUNT>
11

> <PUBCHEM_ATOM_DEF_STEREO_COUNT>
4

> <PUBCHEM_ATOM_UDEF_STEREO_COUNT>
0

> <PUBCHEM_BOND_DEF_STEREO_COUNT>
0

> <PUBCHEM_BOND_UDEF_STEREO_COUNT>
0

> <PUBCHEM_ISOTOPIC_ATOM_COUNT>
0

> <PUBCHEM_COMPONENT_COUNT>
1

> <PUBCHEM_CACTVS_TAUTO_COUNT>
1

> <PUBCHEM_CONFORMER_ID>
0614EAE100000001

> <PUBCHEM_MMFF94_ENERGY>
31.2324

> <PUBCHEM_FEATURE_SELFOVERLAP>
25.546

> <PUBCHEM_SHAPE_FINGERPRINT>
10857977 72 18262233434167430353
12138202 97 17969479607207651485
12423570 1 18041001777495166117
12524768 44 18410572842727184295
15219456 202 18410291376519684652
161256 15 18409737226864712110
16945 1 18336831999529643333
20201158 50 18267863887137118222
21040471 1 18335703806110297221
21501502 16 18411696573680862511
23552423 10 18114469976258395142
241688 4 18261961726009608905
2748010 2 18337108969032841655
29004967 10 18411702088466323928
369184 2 18411415081724573807
5084963 1 17751373780404236479

> <PUBCHEM_SHAPE_MULTIPOLES>
214.64
3.48
1.82
0.84
0.15
0.26
-0.05
-0.03
0.44
-0.57
0.11
0.09
-0.05
0.42

> <PUBCHEM_SHAPE_SELFOVERLAP>
439.311

> <PUBCHEM_SHAPE_VOLUME>
125.4

> <PUBCHEM_COORDINATE_TYPE>
2
5
10

$$$$
