10991442
  -OEChem-09032004513D

 49 53  0     1  0  0  0  0  0999 V2000
   -4.3376   -0.4141    0.7120 O   0  0  0  0  0  0  0  0  0  0  0  0
   -0.9057   -2.8173   -0.8404 O   0  0  0  0  0  0  0  0  0  0  0  0
   -2.1713   -2.6137    1.0874 O   0  0  0  0  0  0  0  0  0  0  0  0
   -0.5534    2.6563   -0.1096 N   0  0  1  0  0  0  0  0  0  0  0  0
    1.3505   -1.4724   -0.5771 N   0  0  0  0  0  0  0  0  0  0  0  0
    1.0185    0.8447   -0.1810 C   0  0  2  0  0  0  0  0  0  0  0  0
    0.2888    1.8062    0.7752 C   0  0  2  0  0  0  0  0  0  0  0  0
   -1.5839    0.2063    1.1442 C   0  0  1  0  0  0  0  0  0  0  0  0
   -0.5319    1.0844    1.8402 C   0  0  0  0  0  0  0  0  0  0  0  0
    0.9972    1.5841   -1.5466 C   0  0  0  0  0  0  0  0  0  0  0  0
   -2.5464    1.1572    0.4091 C   0  0  1  0  0  0  0  0  0  0  0  0
    0.3583   -0.5634   -0.2444 C   0  0  0  0  0  0  0  0  0  0  0  0
    0.3379    2.9294   -1.2489 C   0  0  0  0  0  0  0  0  0  0  0  0
   -1.7937    2.0202   -0.6133 C   0  0  0  0  0  0  0  0  0  0  0  0
   -0.8616   -0.8132    0.2748 C   0  0  0  0  0  0  0  0  0  0  0  0
    2.4540    0.4456    0.0982 C   0  0  0  0  0  0  0  0  0  0  0  0
   -3.7086    0.4165   -0.2549 C   0  0  2  0  0  0  0  0  0  0  0  0
    2.5921   -0.9239   -0.2237 C   0  0  0  0  0  0  0  0  0  0  0  0
    3.5401    1.2005    0.4991 C   0  0  0  0  0  0  0  0  0  0  0  0
   -1.4034   -2.1781    0.2469 C   0  0  0  0  0  0  0  0  0  0  0  0
   -4.7267    1.3813   -0.8350 C   0  0  0  0  0  0  0  0  0  0  0  0
    3.8233   -1.5465   -0.1879 C   0  0  0  0  0  0  0  0  0  0  0  0
    4.7840    0.5678    0.5646 C   0  0  0  0  0  0  0  0  0  0  0  0
    4.9250   -0.7890    0.2187 C   0  0  0  0  0  0  0  0  0  0  0  0
   -1.3456   -4.1690   -1.0076 C   0  0  0  0  0  0  0  0  0  0  0  0
    1.0072    2.4620    1.2839 H   0  0  0  0  0  0  0  0  0  0  0  0
   -2.1262   -0.3085    1.9469 H   0  0  0  0  0  0  0  0  0  0  0  0
   -1.0168    1.8114    2.5043 H   0  0  0  0  0  0  0  0  0  0  0  0
    0.1241    0.4732    2.4740 H   0  0  0  0  0  0  0  0  0  0  0  0
    0.4159    1.0275   -2.2921 H   0  0  0  0  0  0  0  0  0  0  0  0
    1.9904    1.7506   -1.9806 H   0  0  0  0  0  0  0  0  0  0  0  0
   -2.9695    1.8281    1.1725 H   0  0  0  0  0  0  0  0  0  0  0  0
    1.0962    3.6624   -0.9462 H   0  0  0  0  0  0  0  0  0  0  0  0
   -0.1816    3.3459   -2.1190 H   0  0  0  0  0  0  0  0  0  0  0  0
   -1.6096    1.4092   -1.5057 H   0  0  0  0  0  0  0  0  0  0  0  0
   -2.4415    2.8402   -0.9450 H   0  0  0  0  0  0  0  0  0  0  0  0
   -3.3499   -0.2398   -1.0554 H   0  0  0  0  0  0  0  0  0  0  0  0
    1.1888   -2.4679   -0.5511 H   0  0  0  0  0  0  0  0  0  0  0  0
    3.4438    2.2545    0.7330 H   0  0  0  0  0  0  0  0  0  0  0  0
   -4.3367    1.9305   -1.6963 H   0  0  0  0  0  0  0  0  0  0  0  0
   -5.6174    0.8345   -1.1647 H   0  0  0  0  0  0  0  0  0  0  0  0
   -5.0682    2.1003   -0.0821 H   0  0  0  0  0  0  0  0  0  0  0  0
    3.9378   -2.5927   -0.4490 H   0  0  0  0  0  0  0  0  0  0  0  0
    5.6594    1.1339    0.8724 H   0  0  0  0  0  0  0  0  0  0  0  0
   -4.6921    0.1580    1.4140 H   0  0  0  0  0  0  0  0  0  0  0  0
    5.9068   -1.2529    0.2686 H   0  0  0  0  0  0  0  0  0  0  0  0
   -0.8789   -4.5686   -1.9118 H   0  0  0  0  0  0  0  0  0  0  0  0
   -2.4326   -4.2013   -1.1292 H   0  0  0  0  0  0  0  0  0  0  0  0
   -1.0335   -4.7769   -0.1531 H   0  0  0  0  0  0  0  0  0  0  0  0
  1 17  1  0  0  0  0
  1 45  1  0  0  0  0
  2 20  1  0  0  0  0
  2 25  1  0  0  0  0
  3 20  2  0  0  0  0
  4  7  1  0  0  0  0
  4 13  1  0  0  0  0
  4 14  1  0  0  0  0
  5 12  1  0  0  0  0
  5 18  1  0  0  0  0
  5 38  1  0  0  0  0
  6  7  1  0  0  0  0
  6 10  1  0  0  0  0
  6 12  1  0  0  0  0
  6 16  1  0  0  0  0
  7  9  1  0  0  0  0
  7 26  1  0  0  0  0
  8  9  1  0  0  0  0
  8 11  1  0  0  0  0
  8 15  1  0  0  0  0
  8 27  1  0  0  0  0
  9 28  1  0  0  0  0
  9 29  1  0  0  0  0
 10 13  1  0  0  0  0
 10 30  1  0  0  0  0
 10 31  1  0  0  0  0
 11 14  1  0  0  0  0
 11 17  1  0  0  0  0
 11 32  1  0  0  0  0
 12 15  2  0  0  0  0
 13 33  1  0  0  0  0
 13 34  1  0  0  0  0
 14 35  1  0  0  0  0
 14 36  1  0  0  0  0
 15 20  1  0  0  0  0
 16 18  1  0  0  0  0
 16 19  2  0  0  0  0
 17 21  1  0  0  0  0
 17 37  1  0  0  0  0
 18 22  2  0  0  0  0
 19 23  1  0  0  0  0
 19 39  1  0  0  0  0
 21 40  1  0  0  0  0
 21 41  1  0  0  0  0
 21 42  1  0  0  0  0
 22 24  1  0  0  0  0
 22 43  1  0  0  0  0
 23 24  2  0  0  0  0
 23 44  1  0  0  0  0
 24 46  1  0  0  0  0
 25 47  1  0  0  0  0
 25 48  1  0  0  0  0
 25 49  1  0  0  0  0
M  END
> <PUBCHEM_COMPOUND_CID>
10991442

> <PUBCHEM_CONFORMER_RMSD>
0.8

> <PUBCHEM_CONFORMER_DIVERSEORDER>
1
2

> <PUBCHEM_MMFF94_PARTIAL_CHARGES>
27
1 -0.68
12 -0.04
13 0.27
14 0.27
15 -0.12
16 -0.14
17 0.28
18 0.1
19 -0.15
2 -0.43
20 0.71
22 -0.15
23 -0.15
24 -0.15
25 0.28
3 -0.57
38 0.4
39 0.15
4 -0.81
43 0.15
44 0.15
45 0.4
46 0.15
5 -0.6
6 0.28
7 0.27
8 0.14

> <PUBCHEM_EFFECTIVE_ROTOR_COUNT>
4.2

> <PUBCHEM_PHARMACOPHORE_FEATURES>
11
1 1 acceptor
1 1 donor
1 3 acceptor
1 4 cation
1 5 cation
1 5 donor
5 4 6 7 10 13 rings
5 5 6 12 16 18 rings
6 16 18 19 22 23 24 rings
6 4 7 8 9 11 14 rings
6 6 7 8 9 12 15 rings

> <PUBCHEM_HEAVY_ATOM_COUNT>
25

> <PUBCHEM_ATOM_DEF_STEREO_COUNT>
5

> <PUBCHEM_ATOM_UDEF_STEREO_COUNT>
0

> <PUBCHEM_BOND_DEF_STEREO_COUNT>
0

> <PUBCHEM_BOND_UDEF_STEREO_COUNT>
0

> <PUBCHEM_ISOTOPIC_ATOM_COUNT>
0

> <PUBCHEM_COMPONENT_COUNT>
1

> <PUBCHEM_CACTVS_TAUTO_COUNT>
3

> <PUBCHEM_CONFORMER_ID>
00A7B75200000001

> <PUBCHEM_MMFF94_ENERGY>
98.9113

> <PUBCHEM_FEATURE_SELFOVERLAP>
57.974

> <PUBCHEM_SHAPE_FINGERPRINT>
10366900 7 17418093209376050256
10863032 1 18196090164725856296
10906281 52 18044960990287144749
10967382 1 18411139108653827274
11370993 70 18341045207733179592
11578080 2 17557417988118895489
12011746 2 18339644439005362420
12035758 1 18409732880690144593
12403259 226 18122344567284030598
12553582 1 17906181994244673534
12633257 1 18201727198170225194
12715332 25 18342178907891618443
12969540 114 18189877760914746997
13004483 165 18334564733892198722
13132413 78 18197219371962855476
13140716 1 18266184026574761881
133893 2 16735799141234591420
14223421 5 18342175609546457400
14787075 74 17917981763643642633
14790565 3 18340772529140401673
16728300 4 17174311513947908250
16945 1 18336844046828882761
17349148 13 18272091590870888448
1813 80 17313103068796011876
19591789 44 18051131398239908478
200 152 17846208904457412648
20510252 161 18199467662762224192
20905425 154 17830172398722937619
21033648 29 18271513234991648593
21521721 280 18272086085414126129
22182313 1 18269576999378693007
2334 1 18267312113047219214
23402539 116 18410565163515543701
23419403 2 16627978810179116347
23559900 14 18342172293816303072
2748010 2 18268453289778414767
3178227 256 18336838558926010099
3380486 145 18267312112641200456
34934 24 18259981574472071002
350125 39 18267027331293778907
38695281 34 18199463269548276295
484989 97 18193268822980925559
59554788 191 18336267954581361159
69090 78 18411134706180369816
7164475 11 17977661245108102919
7471813 234 17624118795618461302
9709674 26 18271249322531544198

> <PUBCHEM_SHAPE_MULTIPOLES>
486.92
7.42
3.57
1.21
3.09
2.89
-0.08
-0.1
-0.46
-1.84
1.23
-0.36
-0.28
0.32

> <PUBCHEM_SHAPE_SELFOVERLAP>
1086.57

> <PUBCHEM_SHAPE_VOLUME>
258.7

> <PUBCHEM_COORDINATE_TYPE>
2
5
10

$$$$
