21159178
  -OEChem-09022016433D

 46 50  0     1  0  0  0  0  0999 V2000
    0.5952    1.7286   -1.4244 O   0  0  0  0  0  0  0  0  0  0  0  0
    0.4852    3.0427    0.4724 O   0  0  0  0  0  0  0  0  0  0  0  0
   -1.9639   -2.0973   -0.5422 N   0  0  1  0  0  0  0  0  0  0  0  0
    1.3729   -1.3041   -1.3955 N   0  0  0  0  0  0  0  0  0  0  0  0
    0.1817   -0.4357    0.5036 C   0  0  2  0  0  0  0  0  0  0  0  0
   -0.6192    0.8950    0.4026 C   0  0  2  0  0  0  0  0  0  0  0  0
   -1.1300   -1.3369   -1.5104 C   0  0  2  0  0  0  0  0  0  0  0  0
   -1.9238    0.7993   -0.4575 C   0  0  1  0  0  0  0  0  0  0  0  0
    0.2001   -1.0686   -0.8826 C   0  0  0  0  0  0  0  0  0  0  0  0
   -1.6653    0.0766   -1.8024 C   0  0  0  0  0  0  0  0  0  0  0  0
   -0.4889   -1.4811    1.4252 C   0  0  0  0  0  0  0  0  0  0  0  0
   -1.2238   -2.5828    0.6347 C   0  0  0  0  0  0  0  0  0  0  0  0
   -3.0176    0.0330    0.2642 C   0  0  0  0  0  0  0  0  0  0  0  0
    1.6616   -0.3355    0.7145 C   0  0  0  0  0  0  0  0  0  0  0  0
   -3.2076   -1.4037   -0.1676 C   0  0  0  0  0  0  0  0  0  0  0  0
    2.2933   -0.8614   -0.4238 C   0  0  0  0  0  0  0  0  0  0  0  0
    0.2119    2.0253   -0.1500 C   0  0  0  0  0  0  0  0  0  0  0  0
    2.3855    0.1587    1.7836 C   0  0  0  0  0  0  0  0  0  0  0  0
   -3.7812    0.5992    1.2107 C   0  0  0  0  0  0  0  0  0  0  0  0
    3.6739   -0.9006   -0.5115 C   0  0  0  0  0  0  0  0  0  0  0  0
    3.7784    0.1214    1.7000 C   0  0  0  0  0  0  0  0  0  0  0  0
    4.4170   -0.4035    0.5628 C   0  0  0  0  0  0  0  0  0  0  0  0
   -3.6297    2.0091    1.6669 C   0  0  0  0  0  0  0  0  0  0  0  0
    1.3945    2.7225   -2.0734 C   0  0  0  0  0  0  0  0  0  0  0  0
   -0.8722    1.2107    1.4243 H   0  0  0  0  0  0  0  0  0  0  0  0
   -1.0027   -1.9106   -2.4332 H   0  0  0  0  0  0  0  0  0  0  0  0
   -2.2826    1.8036   -0.7171 H   0  0  0  0  0  0  0  0  0  0  0  0
   -2.6047    0.0033   -2.3691 H   0  0  0  0  0  0  0  0  0  0  0  0
   -0.9971    0.6236   -2.4703 H   0  0  0  0  0  0  0  0  0  0  0  0
   -1.1852   -0.9911    2.1161 H   0  0  0  0  0  0  0  0  0  0  0  0
    0.2512   -1.9717    2.0715 H   0  0  0  0  0  0  0  0  0  0  0  0
   -0.4909   -3.3276    0.2952 H   0  0  0  0  0  0  0  0  0  0  0  0
   -1.8891   -3.1366    1.3089 H   0  0  0  0  0  0  0  0  0  0  0  0
   -3.7412   -1.9784    0.6005 H   0  0  0  0  0  0  0  0  0  0  0  0
   -3.8750   -1.4150   -1.0398 H   0  0  0  0  0  0  0  0  0  0  0  0
    1.8924    0.5637    2.6601 H   0  0  0  0  0  0  0  0  0  0  0  0
   -4.5600    0.0140    1.6926 H   0  0  0  0  0  0  0  0  0  0  0  0
    4.1716   -1.3031   -1.3871 H   0  0  0  0  0  0  0  0  0  0  0  0
    4.3779    0.5023    2.5225 H   0  0  0  0  0  0  0  0  0  0  0  0
    5.5029   -0.4217    0.5199 H   0  0  0  0  0  0  0  0  0  0  0  0
   -3.4321    2.0204    2.7440 H   0  0  0  0  0  0  0  0  0  0  0  0
   -4.5678    2.5476    1.4960 H   0  0  0  0  0  0  0  0  0  0  0  0
   -2.8342    2.5800    1.1863 H   0  0  0  0  0  0  0  0  0  0  0  0
    1.6304    2.3643   -3.0788 H   0  0  0  0  0  0  0  0  0  0  0  0
    2.3296    2.8721   -1.5254 H   0  0  0  0  0  0  0  0  0  0  0  0
    0.8385    3.6611   -2.1555 H   0  0  0  0  0  0  0  0  0  0  0  0
  1 17  1  0  0  0  0
  1 24  1  0  0  0  0
  2 17  2  0  0  0  0
  3  7  1  0  0  0  0
  3 12  1  0  0  0  0
  3 15  1  0  0  0  0
  4  9  2  0  0  0  0
  4 16  1  0  0  0  0
  5  6  1  0  0  0  0
  5  9  1  0  0  0  0
  5 11  1  0  0  0  0
  5 14  1  0  0  0  0
  6  8  1  0  0  0  0
  6 17  1  0  0  0  0
  6 25  1  0  0  0  0
  7  9  1  0  0  0  0
  7 10  1  0  0  0  0
  7 26  1  0  0  0  0
  8 10  1  0  0  0  0
  8 13  1  0  0  0  0
  8 27  1  0  0  0  0
 10 28  1  0  0  0  0
 10 29  1  0  0  0  0
 11 12  1  0  0  0  0
 11 30  1  0  0  0  0
 11 31  1  0  0  0  0
 12 32  1  0  0  0  0
 12 33  1  0  0  0  0
 13 15  1  0  0  0  0
 13 19  2  0  0  0  0
 14 16  1  0  0  0  0
 14 18  2  0  0  0  0
 15 34  1  0  0  0  0
 15 35  1  0  0  0  0
 16 20  2  0  0  0  0
 18 21  1  0  0  0  0
 18 36  1  0  0  0  0
 19 23  1  0  0  0  0
 19 37  1  0  0  0  0
 20 22  1  0  0  0  0
 20 38  1  0  0  0  0
 21 22  2  0  0  0  0
 21 39  1  0  0  0  0
 22 40  1  0  0  0  0
 23 41  1  0  0  0  0
 23 42  1  0  0  0  0
 23 43  1  0  0  0  0
 24 44  1  0  0  0  0
 24 45  1  0  0  0  0
 24 46  1  0  0  0  0
M  END
> <PUBCHEM_COMPOUND_CID>
21159178

> <PUBCHEM_CONFORMER_RMSD>
0.6

> <PUBCHEM_CONFORMER_DIVERSEORDER>
1
4
2
3

> <PUBCHEM_MMFF94_PARTIAL_CHARGES>
27
1 -0.43
12 0.27
13 -0.28
14 -0.14
15 0.41
16 0.18
17 0.66
18 -0.15
19 -0.29
2 -0.57
20 -0.15
21 -0.15
22 -0.15
23 0.14
24 0.28
3 -0.81
36 0.15
37 0.15
38 0.15
39 0.15
4 -0.63
40 0.15
5 0.2
6 0.06
7 0.33
8 0.14
9 0.33

> <PUBCHEM_EFFECTIVE_ROTOR_COUNT>
3

> <PUBCHEM_PHARMACOPHORE_FEATURES>
9
1 2 acceptor
1 23 hydrophobe
1 3 cation
1 4 acceptor
5 4 5 9 14 16 rings
6 14 16 18 20 21 22 rings
6 3 5 7 9 11 12 rings
6 3 7 8 10 13 15 rings
6 5 6 7 8 9 10 rings

> <PUBCHEM_HEAVY_ATOM_COUNT>
24

> <PUBCHEM_ATOM_DEF_STEREO_COUNT>
3

> <PUBCHEM_ATOM_UDEF_STEREO_COUNT>
1

> <PUBCHEM_BOND_DEF_STEREO_COUNT>
1

> <PUBCHEM_BOND_UDEF_STEREO_COUNT>
0

> <PUBCHEM_ISOTOPIC_ATOM_COUNT>
0

> <PUBCHEM_COMPONENT_COUNT>
1

> <PUBCHEM_CACTVS_TAUTO_COUNT>
1

> <PUBCHEM_CONFORMER_ID>
0142DD0A00000001

> <PUBCHEM_MMFF94_ENERGY>
88.4407

> <PUBCHEM_FEATURE_SELFOVERLAP>
49.181

> <PUBCHEM_SHAPE_FINGERPRINT>
10165383 225 16971135964491936164
10863032 1 17899712428944780543
10948715 1 17417811678269482259
11132069 177 18411689972495392288
11578080 2 15983729768551501937
12403814 3 18199737073127904938
12491281 212 17489295378566348059
12633257 1 17825987834167801121
13132413 78 18114172030097798676
13140716 1 18263368143437111321
13172582 1 18409446964437531321
133893 2 17679015156451361988
14142880 1 17987492910326627080
14178342 30 18341894099651436739
14181834 199 17833522958697836956
14955137 171 18264228961872621609
1601671 61 18044382625854295093
16945 1 18270382919836799686
1813 80 18186801370488131788
18981168 100 14906525058728667291
19930381 70 16406710959848811417
200 152 15068618288205198627
20600515 1 18334866021616193332
20691752 17 18264208015243356607
20723712 36 18266195954026243737
20905425 154 17614292486065509670
21033648 29 18057595482802433817
21330990 113 18058176029030520630
21501502 16 18118694450398506303
22344851 262 17989201564228292943
23402539 116 18334848382191043118
23419403 2 17405091612593913597
23559900 14 18270965644595547254
2748010 2 17903919955096488493
296302 2 16917065568534275026
568465 68 17240489070039325283
81228 2 18335424504793057802
90316 7 18188192213968897992

> <PUBCHEM_SHAPE_MULTIPOLES>
472.21
6.03
2.63
1.85
1.95
1.19
-0.16
-0.15
2.6
-0.78
-0.49
0.15
0.52
-0.83

> <PUBCHEM_SHAPE_SELFOVERLAP>
1062.088

> <PUBCHEM_SHAPE_VOLUME>
245

> <PUBCHEM_COORDINATE_TYPE>
2
5
10

$$$$
