13891905
  -OEChem-09032010323D

 47 51  0     1  0  0  0  0  0999 V2000
   -2.9611    0.7270    1.6594 O   0  0  0  0  0  0  0  0  0  0  0  0
   -2.4041    2.5130   -0.2726 O   0  0  0  0  0  0  0  0  0  0  0  0
   -0.5746    2.2172   -1.6519 O   0  0  0  0  0  0  0  0  0  0  0  0
   -0.2368   -2.6896   -0.9411 N   0  0  2  0  0  0  0  0  0  0  0  0
    1.2911    1.3705    0.2762 N   0  0  0  0  0  0  0  0  0  0  0  0
   -1.9663   -0.4798   -0.5999 C   0  0  1  0  0  0  0  0  0  0  0  0
   -1.0774    0.5978    0.0846 C   0  0  2  0  0  0  0  0  0  0  0  0
   -1.5427   -0.8649   -2.0423 C   0  0  0  0  0  0  0  0  0  0  0  0
   -2.1487   -1.7207    0.2550 C   0  0  0  0  0  0  0  0  0  0  0  0
    0.4162    0.3103    0.1196 C   0  0  0  0  0  0  0  0  0  0  0  0
   -0.3694   -1.8495   -2.1285 C   0  0  0  0  0  0  0  0  0  0  0  0
   -1.5270   -2.9701   -0.3057 C   0  0  0  0  0  0  0  0  0  0  0  0
   -1.5500    0.9241    1.5312 C   0  0  0  0  0  0  0  0  0  0  0  0
    1.1957   -0.8488    0.0909 C   0  0  0  0  0  0  0  0  0  0  0  0
    0.8095   -2.3050    0.0125 C   0  0  0  0  0  0  0  0  0  0  0  0
   -1.2971    1.8618   -0.7306 C   0  0  0  0  0  0  0  0  0  0  0  0
   -2.7647   -1.7289    1.4506 C   0  0  0  0  0  0  0  0  0  0  0  0
    2.5766   -0.4269    0.1973 C   0  0  0  0  0  0  0  0  0  0  0  0
    2.5940    0.9577    0.3045 C   0  0  0  0  0  0  0  0  0  0  0  0
   -3.3083   -0.5466    2.2005 C   0  0  0  0  0  0  0  0  0  0  0  0
    3.8157   -1.1078    0.2246 C   0  0  0  0  0  0  0  0  0  0  0  0
    3.7715    1.7041    0.4289 C   0  0  0  0  0  0  0  0  0  0  0  0
    5.0055   -0.3803    0.3463 C   0  0  0  0  0  0  0  0  0  0  0  0
    4.9812    1.0072    0.4458 C   0  0  0  0  0  0  0  0  0  0  0  0
   -2.7289    3.7282   -0.9551 C   0  0  0  0  0  0  0  0  0  0  0  0
   -2.9737   -0.0526   -0.7306 H   0  0  0  0  0  0  0  0  0  0  0  0
   -1.3325    0.0150   -2.6579 H   0  0  0  0  0  0  0  0  0  0  0  0
   -2.4111   -1.3437   -2.5193 H   0  0  0  0  0  0  0  0  0  0  0  0
   -0.5484   -2.5074   -2.9890 H   0  0  0  0  0  0  0  0  0  0  0  0
    0.5622   -1.3288   -2.3796 H   0  0  0  0  0  0  0  0  0  0  0  0
   -1.3959   -3.7380    0.4673 H   0  0  0  0  0  0  0  0  0  0  0  0
   -2.2080   -3.4149   -1.0434 H   0  0  0  0  0  0  0  0  0  0  0  0
   -1.0175    0.3146    2.2752 H   0  0  0  0  0  0  0  0  0  0  0  0
   -1.3303    1.9631    1.8100 H   0  0  0  0  0  0  0  0  0  0  0  0
    1.6929   -2.8802   -0.2896 H   0  0  0  0  0  0  0  0  0  0  0  0
    0.5820   -2.6596    1.0267 H   0  0  0  0  0  0  0  0  0  0  0  0
   -2.8527   -2.6761    1.9801 H   0  0  0  0  0  0  0  0  0  0  0  0
    1.0051    2.3360    0.3576 H   0  0  0  0  0  0  0  0  0  0  0  0
   -4.4011   -0.6092    2.2207 H   0  0  0  0  0  0  0  0  0  0  0  0
   -2.9641   -0.5839    3.2408 H   0  0  0  0  0  0  0  0  0  0  0  0
    3.8604   -2.1908    0.1521 H   0  0  0  0  0  0  0  0  0  0  0  0
    3.7494    2.7856    0.5122 H   0  0  0  0  0  0  0  0  0  0  0  0
    5.9561   -0.9064    0.3647 H   0  0  0  0  0  0  0  0  0  0  0  0
    5.9142    1.5563    0.5411 H   0  0  0  0  0  0  0  0  0  0  0  0
   -2.9363    3.5255   -2.0102 H   0  0  0  0  0  0  0  0  0  0  0  0
   -1.9127    4.4496   -0.8525 H   0  0  0  0  0  0  0  0  0  0  0  0
   -3.6276    4.1467   -0.4945 H   0  0  0  0  0  0  0  0  0  0  0  0
  1 13  1  0  0  0  0
  1 20  1  0  0  0  0
  2 16  1  0  0  0  0
  2 25  1  0  0  0  0
  3 16  2  0  0  0  0
  4 11  1  0  0  0  0
  4 12  1  0  0  0  0
  4 15  1  0  0  0  0
  5 10  1  0  0  0  0
  5 19  1  0  0  0  0
  5 38  1  0  0  0  0
  6  7  1  0  0  0  0
  6  8  1  0  0  0  0
  6  9  1  0  0  0  0
  6 26  1  0  0  0  0
  7 10  1  0  0  0  0
  7 13  1  0  0  0  0
  7 16  1  0  0  0  0
  8 11  1  0  0  0  0
  8 27  1  0  0  0  0
  8 28  1  0  0  0  0
  9 12  1  0  0  0  0
  9 17  2  0  0  0  0
 10 14  2  0  0  0  0
 11 29  1  0  0  0  0
 11 30  1  0  0  0  0
 12 31  1  0  0  0  0
 12 32  1  0  0  0  0
 13 33  1  0  0  0  0
 13 34  1  0  0  0  0
 14 15  1  0  0  0  0
 14 18  1  0  0  0  0
 15 35  1  0  0  0  0
 15 36  1  0  0  0  0
 17 20  1  0  0  0  0
 17 37  1  0  0  0  0
 18 19  1  0  0  0  0
 18 21  2  0  0  0  0
 19 22  2  0  0  0  0
 20 39  1  0  0  0  0
 20 40  1  0  0  0  0
 21 23  1  0  0  0  0
 21 41  1  0  0  0  0
 22 24  1  0  0  0  0
 22 42  1  0  0  0  0
 23 24  2  0  0  0  0
 23 43  1  0  0  0  0
 24 44  1  0  0  0  0
 25 45  1  0  0  0  0
 25 46  1  0  0  0  0
 25 47  1  0  0  0  0
M  END
> <PUBCHEM_COMPOUND_CID>
13891905

> <PUBCHEM_CONFORMER_RMSD>
0.6

> <PUBCHEM_CONFORMER_DIVERSEORDER>
2
8
1
7
5
6
3
4

> <PUBCHEM_MMFF94_PARTIAL_CHARGES>
29
1 -0.56
10 -0.33
11 0.27
12 0.41
13 0.28
14 -0.18
15 0.45
16 0.66
17 -0.29
19 -0.15
2 -0.43
20 0.42
21 -0.15
22 -0.15
23 -0.15
24 -0.15
25 0.28
3 -0.57
37 0.15
38 0.27
4 -0.81
41 0.15
42 0.15
43 0.15
44 0.15
5 0.03
6 0.14
7 0.24
9 -0.28

> <PUBCHEM_EFFECTIVE_ROTOR_COUNT>
3.4

> <PUBCHEM_PHARMACOPHORE_FEATURES>
9
1 1 acceptor
1 3 acceptor
1 4 cation
1 5 cation
1 5 donor
5 5 10 14 18 19 rings
6 18 19 21 22 23 24 rings
6 4 6 8 9 11 12 rings
7 1 6 7 9 13 17 20 rings

> <PUBCHEM_HEAVY_ATOM_COUNT>
25

> <PUBCHEM_ATOM_DEF_STEREO_COUNT>
0

> <PUBCHEM_ATOM_UDEF_STEREO_COUNT>
2

> <PUBCHEM_BOND_DEF_STEREO_COUNT>
0

> <PUBCHEM_BOND_UDEF_STEREO_COUNT>
0

> <PUBCHEM_ISOTOPIC_ATOM_COUNT>
0

> <PUBCHEM_COMPONENT_COUNT>
1

> <PUBCHEM_CACTVS_TAUTO_COUNT>
1

> <PUBCHEM_CONFORMER_ID>
00D3F94100000002

> <PUBCHEM_MMFF94_ENERGY>
86.6069

> <PUBCHEM_FEATURE_SELFOVERLAP>
45.772

> <PUBCHEM_SHAPE_FINGERPRINT>
10863032 1 18044370522477803083
10948715 1 18193829341264594325
12403814 3 18409729603223817912
12422481 6 18268171819397131707
12553582 1 18120935276834546300
12592029 89 18053652595344397421
12633257 1 17702679876464418088
12788726 201 18264182812754967769
13140716 1 18053385680196459962
13224815 77 18337383946383357946
133893 2 16627715713272383399
13583140 156 18187925019995557402
14142880 1 18272931652372860153
14223421 5 18337679619989621434
14251751 93 18408599241373430050
15309172 13 18272938197860658810
16752209 62 18199162093024030086
16945 1 18411427210680816063
17980427 23 17987536951754431251
17980427 26 17105074115869346789
18219364 16 18270966713329883704
20261772 1 18340497763054899898
20602899 9 17274238592323117437
22182313 1 18197792011309905134
23419403 2 15003304828325697291
23559900 14 18058721413612388082
238 59 17837757938170062325
2748010 2 18125170333204602974
350125 39 18411984702089578464
4340502 62 17844832329496015553
469060 322 18118960536465301658
5104073 3 18272081739260488690
6992083 37 18125166184350597387
81228 2 17982997144893671082
90525 40 18201716245639921878
9862522 239 18343864398654842874

> <PUBCHEM_SHAPE_MULTIPOLES>
486.92
6.97
3.38
1.67
10
1.2
-0.1
1.5
2.65
-2.74
-1.28
-1.87
-0.23
0.69

> <PUBCHEM_SHAPE_SELFOVERLAP>
1086.21

> <PUBCHEM_SHAPE_VOLUME>
249.6

> <PUBCHEM_COORDINATE_TYPE>
2
5
10

$$$$
