6443592
  -OEChem-09032004533D

 46 51  0     1  0  0  0  0  0999 V2000
    0.3021    3.0892   -0.4546 O   0  0  0  0  0  0  0  0  0  0  0  0
    0.3838    2.5919   -2.7619 O   0  0  0  0  0  0  0  0  0  0  0  0
   -1.9297   -2.9023    0.4343 O   0  0  0  0  0  0  0  0  0  0  0  0
   -0.5643   -2.2756   -1.3207 O   0  0  0  0  0  0  0  0  0  0  0  0
   -0.9210    2.6157    0.2361 N   0  0  1  0  0  0  0  0  0  0  0  0
    2.0341    1.0341    1.6046 N   0  0  0  0  0  0  0  0  0  0  0  0
    0.4737   -0.0360    0.0234 C   0  0  2  0  0  0  0  0  0  0  0  0
   -0.1378    0.8431   -1.1781 C   0  0  1  0  0  0  0  0  0  0  0  0
   -1.4755    1.5458   -0.7502 C   0  0  1  0  0  0  0  0  0  0  0  0
   -0.6266   -0.9779    0.7076 C   0  0  1  0  0  0  0  0  0  0  0  0
   -1.9417   -0.1712    1.1699 C   0  0  1  0  0  0  0  0  0  0  0  0
   -0.3902    1.8849    1.5287 C   0  0  2  0  0  0  0  0  0  0  0  0
    0.8155    1.0340    1.1654 C   0  0  0  0  0  0  0  0  0  0  0  0
   -1.4973    1.0033    2.2599 C   0  0  0  0  0  0  0  0  0  0  0  0
   -2.4797    0.5697   -0.0852 C   0  0  0  0  0  0  0  0  0  0  0  0
    0.6843    2.1119   -1.4539 C   0  0  2  0  0  0  0  0  0  0  0  0
    1.8495   -0.5949   -0.1053 C   0  0  0  0  0  0  0  0  0  0  0  0
   -1.0150   -2.1109   -0.1952 C   0  0  0  0  0  0  0  0  0  0  0  0
    2.6876    0.0404    0.8362 C   0  0  0  0  0  0  0  0  0  0  0  0
   -3.7161    0.3714   -0.5604 C   0  0  0  0  0  0  0  0  0  0  0  0
    2.3311   -1.5658   -0.9630 C   0  0  0  0  0  0  0  0  0  0  0  0
    4.0260   -0.3039    0.9300 C   0  0  0  0  0  0  0  0  0  0  0  0
   -4.7021   -0.5663    0.0487 C   0  0  0  0  0  0  0  0  0  0  0  0
    3.6800   -1.9128   -0.8679 C   0  0  0  0  0  0  0  0  0  0  0  0
    4.5194   -1.2894    0.0708 C   0  0  0  0  0  0  0  0  0  0  0  0
   -2.3902   -4.0286   -0.3191 C   0  0  0  0  0  0  0  0  0  0  0  0
   -0.2703    0.2267   -2.0734 H   0  0  0  0  0  0  0  0  0  0  0  0
   -1.9515    2.0773   -1.5822 H   0  0  0  0  0  0  0  0  0  0  0  0
   -0.1776   -1.4267    1.6057 H   0  0  0  0  0  0  0  0  0  0  0  0
   -2.6665   -0.8226    1.6625 H   0  0  0  0  0  0  0  0  0  0  0  0
   -0.0640    2.6717    2.2180 H   0  0  0  0  0  0  0  0  0  0  0  0
   -2.3679    1.6097    2.5292 H   0  0  0  0  0  0  0  0  0  0  0  0
   -1.0796    0.5182    3.1479 H   0  0  0  0  0  0  0  0  0  0  0  0
    1.7644    1.9531   -1.4024 H   0  0  0  0  0  0  0  0  0  0  0  0
   -4.0462    0.9253   -1.4352 H   0  0  0  0  0  0  0  0  0  0  0  0
    1.7183   -2.0381   -1.7179 H   0  0  0  0  0  0  0  0  0  0  0  0
   -0.4718    2.2417   -3.0565 H   0  0  0  0  0  0  0  0  0  0  0  0
    4.6819    0.1796    1.6461 H   0  0  0  0  0  0  0  0  0  0  0  0
   -5.2265   -0.0861    0.8801 H   0  0  0  0  0  0  0  0  0  0  0  0
   -4.2561   -1.5039    0.3866 H   0  0  0  0  0  0  0  0  0  0  0  0
   -5.4514   -0.8371   -0.7034 H   0  0  0  0  0  0  0  0  0  0  0  0
    4.0899   -2.6686   -1.5327 H   0  0  0  0  0  0  0  0  0  0  0  0
    5.5669   -1.5741    0.1241 H   0  0  0  0  0  0  0  0  0  0  0  0
   -3.1113   -4.5755    0.2941 H   0  0  0  0  0  0  0  0  0  0  0  0
   -1.5541   -4.6932   -0.5562 H   0  0  0  0  0  0  0  0  0  0  0  0
   -2.8896   -3.6930   -1.2330 H   0  0  0  0  0  0  0  0  0  0  0  0
  1  5  1  0  0  0  0
  1 16  1  0  0  0  0
  2 16  1  0  0  0  0
  2 37  1  0  0  0  0
  3 18  1  0  0  0  0
  3 26  1  0  0  0  0
  4 18  2  0  0  0  0
  5  9  1  0  0  0  0
  5 12  1  0  0  0  0
  6 13  2  0  0  0  0
  6 19  1  0  0  0  0
  7  8  1  0  0  0  0
  7 10  1  0  0  0  0
  7 13  1  0  0  0  0
  7 17  1  0  0  0  0
  8  9  1  0  0  0  0
  8 16  1  0  0  0  0
  8 27  1  0  0  0  0
  9 15  1  0  0  0  0
  9 28  1  0  0  0  0
 10 11  1  0  0  0  0
 10 18  1  0  0  0  0
 10 29  1  0  0  0  0
 11 14  1  0  0  0  0
 11 15  1  0  0  0  0
 11 30  1  0  0  0  0
 12 13  1  0  0  0  0
 12 14  1  0  0  0  0
 12 31  1  0  0  0  0
 14 32  1  0  0  0  0
 14 33  1  0  0  0  0
 15 20  2  0  0  0  0
 16 34  1  0  0  0  0
 17 19  1  0  0  0  0
 17 21  2  0  0  0  0
 19 22  2  0  0  0  0
 20 23  1  0  0  0  0
 20 35  1  0  0  0  0
 21 24  1  0  0  0  0
 21 36  1  0  0  0  0
 22 25  1  0  0  0  0
 22 38  1  0  0  0  0
 23 39  1  0  0  0  0
 23 40  1  0  0  0  0
 23 41  1  0  0  0  0
 24 25  2  0  0  0  0
 24 42  1  0  0  0  0
 25 43  1  0  0  0  0
 26 44  1  0  0  0  0
 26 45  1  0  0  0  0
 26 46  1  0  0  0  0
M  END
> <PUBCHEM_COMPOUND_CID>
6443592

> <PUBCHEM_CONFORMER_RMSD>
0.6

> <PUBCHEM_CONFORMER_DIVERSEORDER>
1
2
3

> <PUBCHEM_MMFF94_PARTIAL_CHARGES>
30
1 -0.18
10 0.06
11 0.14
12 0.33
13 0.33
15 -0.28
16 0.56
17 -0.14
18 0.66
19 0.18
2 -0.68
20 -0.29
21 -0.15
22 -0.15
23 0.14
24 -0.15
25 -0.15
26 0.28
3 -0.43
35 0.15
36 0.15
37 0.4
38 0.15
4 -0.57
42 0.15
43 0.15
5 -0.64
6 -0.63
7 0.2
9 0.41

> <PUBCHEM_EFFECTIVE_ROTOR_COUNT>
2.8

> <PUBCHEM_PHARMACOPHORE_FEATURES>
11
1 2 acceptor
1 2 donor
1 23 hydrophobe
1 4 acceptor
1 6 acceptor
5 6 7 13 17 19 rings
6 17 19 21 22 24 25 rings
6 5 9 11 12 14 15 rings
6 7 10 11 12 13 14 rings
6 7 8 9 10 11 15 rings
8 1 5 7 8 9 12 13 16 rings

> <PUBCHEM_HEAVY_ATOM_COUNT>
26

> <PUBCHEM_ATOM_DEF_STEREO_COUNT>
4

> <PUBCHEM_ATOM_UDEF_STEREO_COUNT>
3

> <PUBCHEM_BOND_DEF_STEREO_COUNT>
1

> <PUBCHEM_BOND_UDEF_STEREO_COUNT>
0

> <PUBCHEM_ISOTOPIC_ATOM_COUNT>
0

> <PUBCHEM_COMPONENT_COUNT>
1

> <PUBCHEM_CACTVS_TAUTO_COUNT>
1

> <PUBCHEM_CONFORMER_ID>
0062524800000001

> <PUBCHEM_MMFF94_ENERGY>
100.5914

> <PUBCHEM_FEATURE_SELFOVERLAP>
63.802

> <PUBCHEM_SHAPE_FINGERPRINT>
10165383 225 17257392742957093796
10863032 1 18125715931537621329
10948715 1 17125926379101071369
11578080 2 17840866597007803569
11680986 33 18199463440703701587
12011746 2 18202000997618462158
12035758 1 18341893004561253939
12035759 4 18120682333162144100
12403814 3 18261396594608446432
12654903 92 18261104210108757949
13140716 1 18199738293057197858
133893 2 17098897462859885748
14181834 199 18189899892723259621
14787075 74 17917415541083182913
14863182 85 17258492778343968010
15209289 33 18058453114471721971
16945 1 18341061730773106352
17357779 13 18338505353195486781
1813 80 18187366519132551236
20600515 1 18411136943847879100
20905425 154 17691416621062711479
21033648 29 18341880875768672001
21285901 2 18263641766723300151
21330990 113 18120933910808313677
21421861 104 17833283290901754163
23402539 116 18339350864694296271
23419403 2 16256649526995767275
23559900 14 18272926168047731104
238 59 17401179202535547684
2748010 2 18057871640603882394
3286 77 17917705752076108272
3380486 145 18198064879108838499
404807 78 14944193562725483250
81228 2 18409454669757047274
9709674 26 17988647337854986558

> <PUBCHEM_SHAPE_MULTIPOLES>
501.63
6.02
3.51
1.72
2.23
1.79
0.2
3.38
-0.37
-1.65
1.05
0.1
-1.2
0.23

> <PUBCHEM_SHAPE_SELFOVERLAP>
1120.245

> <PUBCHEM_SHAPE_VOLUME>
261.6

> <PUBCHEM_COORDINATE_TYPE>
2
5
10

$$$$
