101352948
  -OEChem-09032002343D

 54 58  0     1  0  0  0  0  0999 V2000
   -0.6205    0.5575   -2.6962 O   0  0  0  0  0  0  0  0  0  0  0  0
   -0.1078   -2.7811    1.5367 O   0  0  0  0  0  0  0  0  0  0  0  0
    0.8007   -3.0153   -1.4899 O   0  0  0  0  0  0  0  0  0  0  0  0
   -1.1451   -1.8278   -1.4823 O   0  0  0  0  0  0  0  0  0  0  0  0
    0.8978    2.2252    0.3907 N   0  3  1  0  0  0  0  0  0  0  0  0
   -1.4298    1.8995   -0.4709 N   0  0  0  0  0  0  0  0  0  0  0  0
   -0.0801    1.3131   -0.4208 C   0  0  2  0  0  0  0  0  0  0  0  0
   -0.2067    0.0172    0.5036 C   0  0  1  0  0  0  0  0  0  0  0  0
    0.6907   -1.1582   -0.0239 C   0  0  1  0  0  0  0  0  0  0  0  0
    0.1921    0.5116    1.9306 C   0  0  0  0  0  0  0  0  0  0  0  0
    1.9752   -0.5665   -0.7039 C   0  0  1  0  0  0  0  0  0  0  0  0
    0.4216    1.1018   -1.8747 C   0  0  1  0  0  0  0  0  0  0  0  0
    0.4579    1.9999    1.8377 C   0  0  0  0  0  0  0  0  0  0  0  0
    2.3949    1.8478    0.2099 C   0  0  0  0  0  0  0  0  0  0  0  0
    1.6224    0.1577   -2.0177 C   0  0  0  0  0  0  0  0  0  0  0  0
   -1.7112   -0.1852    0.5056 C   0  0  0  0  0  0  0  0  0  0  0  0
    2.7694    0.3819    0.1909 C   0  0  0  0  0  0  0  0  0  0  0  0
    0.7573    3.7125    0.0551 C   0  0  0  0  0  0  0  0  0  0  0  0
   -2.3372    0.9287   -0.0632 C   0  0  0  0  0  0  0  0  0  0  0  0
    1.0804   -2.1923    1.0612 C   0  0  0  0  0  0  0  0  0  0  0  0
   -0.0090   -2.0123   -1.0712 C   0  0  0  0  0  0  0  0  0  0  0  0
   -2.4622   -1.2313    1.0234 C   0  0  0  0  0  0  0  0  0  0  0  0
    3.8307   -0.0535    0.8905 C   0  0  0  0  0  0  0  0  0  0  0  0
   -3.7186    1.0257   -0.1067 C   0  0  0  0  0  0  0  0  0  0  0  0
   -3.8547   -1.1522    0.9581 C   0  0  0  0  0  0  0  0  0  0  0  0
   -4.4793   -0.0297    0.3982 C   0  0  0  0  0  0  0  0  0  0  0  0
    4.2710   -1.4748    0.9295 C   0  0  0  0  0  0  0  0  0  0  0  0
    1.1097    0.0618    2.3082 H   0  0  0  0  0  0  0  0  0  0  0  0
   -0.5672    0.3048    2.6942 H   0  0  0  0  0  0  0  0  0  0  0  0
    2.6186   -1.3830   -1.0434 H   0  0  0  0  0  0  0  0  0  0  0  0
    0.6630    2.0685   -2.3305 H   0  0  0  0  0  0  0  0  0  0  0  0
   -0.4596    2.5740    2.0105 H   0  0  0  0  0  0  0  0  0  0  0  0
    1.2395    2.3534    2.5178 H   0  0  0  0  0  0  0  0  0  0  0  0
    2.9346    2.3847    1.0007 H   0  0  0  0  0  0  0  0  0  0  0  0
    2.7113    2.3044   -0.7361 H   0  0  0  0  0  0  0  0  0  0  0  0
    2.4922    0.7250   -2.3755 H   0  0  0  0  0  0  0  0  0  0  0  0
    1.4392   -0.5841   -2.8066 H   0  0  0  0  0  0  0  0  0  0  0  0
   -1.6850    2.6573   -1.0883 H   0  0  0  0  0  0  0  0  0  0  0  0
   -0.2633    4.0402    0.2685 H   0  0  0  0  0  0  0  0  0  0  0  0
    1.4598    4.2686    0.6836 H   0  0  0  0  0  0  0  0  0  0  0  0
    0.9946    3.8583   -1.0013 H   0  0  0  0  0  0  0  0  0  0  0  0
    1.6105   -1.7718    1.9145 H   0  0  0  0  0  0  0  0  0  0  0  0
    1.7253   -2.9945    0.6856 H   0  0  0  0  0  0  0  0  0  0  0  0
   -2.0652   -2.0875    1.5328 H   0  0  0  0  0  0  0  0  0  0  0  0
   -0.3041    0.5630   -3.6159 H   0  0  0  0  0  0  0  0  0  0  0  0
    4.4001    0.6447    1.4985 H   0  0  0  0  0  0  0  0  0  0  0  0
   -4.2066    1.9000   -0.5254 H   0  0  0  0  0  0  0  0  0  0  0  0
   -0.3433   -3.5101    0.9377 H   0  0  0  0  0  0  0  0  0  0  0  0
   -4.4617   -1.9563    1.3654 H   0  0  0  0  0  0  0  0  0  0  0  0
   -5.5641    0.0233    0.3679 H   0  0  0  0  0  0  0  0  0  0  0  0
    0.3667   -3.5780   -2.1660 H   0  0  0  0  0  0  0  0  0  0  0  0
    4.1271   -1.8708    1.9404 H   0  0  0  0  0  0  0  0  0  0  0  0
    5.3470   -1.5092    0.7230 H   0  0  0  0  0  0  0  0  0  0  0  0
    3.8109   -2.1707    0.2330 H   0  0  0  0  0  0  0  0  0  0  0  0
  1 12  1  0  0  0  0
  1 45  1  0  0  0  0
  2 20  1  0  0  0  0
  2 48  1  0  0  0  0
  3 21  1  0  0  0  0
  3 51  1  0  0  0  0
  4 21  2  0  0  0  0
  5  7  1  0  0  0  0
  5 13  1  0  0  0  0
  5 14  1  0  0  0  0
  5 18  1  0  0  0  0
  6  7  1  0  0  0  0
  6 19  1  0  0  0  0
  6 38  1  0  0  0  0
  7  8  1  0  0  0  0
  7 12  1  0  0  0  0
  8  9  1  0  0  0  0
  8 10  1  0  0  0  0
  8 16  1  0  0  0  0
  9 11  1  0  0  0  0
  9 20  1  0  0  0  0
  9 21  1  0  0  0  0
 10 13  1  0  0  0  0
 10 28  1  0  0  0  0
 10 29  1  0  0  0  0
 11 15  1  0  0  0  0
 11 17  1  0  0  0  0
 11 30  1  0  0  0  0
 12 15  1  0  0  0  0
 12 31  1  0  0  0  0
 13 32  1  0  0  0  0
 13 33  1  0  0  0  0
 14 17  1  0  0  0  0
 14 34  1  0  0  0  0
 14 35  1  0  0  0  0
 15 36  1  0  0  0  0
 15 37  1  0  0  0  0
 16 19  1  0  0  0  0
 16 22  2  0  0  0  0
 17 23  2  0  0  0  0
 18 39  1  0  0  0  0
 18 40  1  0  0  0  0
 18 41  1  0  0  0  0
 19 24  2  0  0  0  0
 20 42  1  0  0  0  0
 20 43  1  0  0  0  0
 22 25  1  0  0  0  0
 22 44  1  0  0  0  0
 23 27  1  0  0  0  0
 23 46  1  0  0  0  0
 24 26  1  0  0  0  0
 24 47  1  0  0  0  0
 25 26  2  0  0  0  0
 25 49  1  0  0  0  0
 26 50  1  0  0  0  0
 27 52  1  0  0  0  0
 27 53  1  0  0  0  0
 27 54  1  0  0  0  0
M  CHG  1   5   1
M  END
> <PUBCHEM_COMPOUND_CID>
101352948

> <PUBCHEM_CONFORMER_RMSD>
0.8

> <PUBCHEM_CONFORMER_DIVERSEORDER>
1

> <PUBCHEM_MMFF94_PARTIAL_CHARGES>
34
1 -0.68
11 0.14
12 0.28
13 0.5
14 0.64
16 -0.14
17 -0.28
18 0.5
19 0.1
2 -0.68
20 0.28
21 0.66
22 -0.15
23 -0.29
24 -0.15
25 -0.15
26 -0.15
27 0.14
3 -0.65
38 0.4
4 -0.57
44 0.15
45 0.4
46 0.15
47 0.15
48 0.4
49 0.15
5 -1.01
50 0.15
51 0.5
6 -0.87
7 0.87
8 0.14
9 0.06

> <PUBCHEM_EFFECTIVE_ROTOR_COUNT>
3.4

> <PUBCHEM_PHARMACOPHORE_FEATURES>
15
1 1 acceptor
1 1 donor
1 2 acceptor
1 2 donor
1 27 hydrophobe
1 3 acceptor
1 4 acceptor
1 5 cation
1 6 cation
1 6 donor
3 3 4 21 anion
5 5 7 8 10 13 rings
5 6 7 8 16 19 rings
6 16 19 22 24 25 26 rings
9 5 7 8 9 11 12 14 15 17 rings

> <PUBCHEM_HEAVY_ATOM_COUNT>
27

> <PUBCHEM_ATOM_DEF_STEREO_COUNT>
4

> <PUBCHEM_ATOM_UDEF_STEREO_COUNT>
2

> <PUBCHEM_BOND_DEF_STEREO_COUNT>
1

> <PUBCHEM_BOND_UDEF_STEREO_COUNT>
0

> <PUBCHEM_ISOTOPIC_ATOM_COUNT>
0

> <PUBCHEM_COMPONENT_COUNT>
1

> <PUBCHEM_CACTVS_TAUTO_COUNT>
3

> <PUBCHEM_CONFORMER_ID>
060A85F400000001

> <PUBCHEM_MMFF94_ENERGY>
143.8355

> <PUBCHEM_FEATURE_SELFOVERLAP>
77.519

> <PUBCHEM_SHAPE_FINGERPRINT>
10863032 1 17096668662558952132
10948715 1 17980770650790118161
11578080 2 17386546059769167828
12011746 2 18411411778731245045
13132413 78 18412822521022178120
13134695 92 18334574667887959461
13140716 1 18265903634467594289
14178342 30 18200049330251420617
14223421 5 17982449287518507778
144361 1 17899452785228754844
14787075 74 18412823620618182416
14955137 171 18130518499453841307
16945 1 18042417841129220621
20511035 2 17974584789745184627
20600515 1 18040727926090732438
20691752 17 17972592462165221023
20905425 154 18191868916174372939
21330990 113 17676765362477029050
229495 10 18042387162694725428
23419403 2 17755548608801244668
23559900 14 18267030449165826846
238 59 18269813433486674661
2748010 2 18128263276550902772
3286 77 18334011730719063817
568465 68 18202282502427900441
5845 1 17901696789587315084
9999458 23 18336262457038955329

> <PUBCHEM_SHAPE_MULTIPOLES>
522.21
5.43
3.08
1.87
2.29
0.45
0.69
-1.04
-1.75
-0.9
-0.17
-0.35
-0.18
0.19

> <PUBCHEM_SHAPE_SELFOVERLAP>
1165.921

> <PUBCHEM_SHAPE_VOLUME>
272.5

> <PUBCHEM_COORDINATE_TYPE>
2
5
10

$$$$
