101352946
  -OEChem-09032002323D

 50 55  0     1  0  0  0  0  0999 V2000
    0.5898    0.4865    2.0803 O   0  0  0  0  0  0  0  0  0  0  0  0
   -2.5868    1.2648    2.2302 O   0  0  0  0  0  0  0  0  0  0  0  0
   -1.1248   -3.2284    0.9679 O   0  0  0  0  0  0  0  0  0  0  0  0
    0.1591   -2.8788   -0.8829 O   0  0  0  0  0  0  0  0  0  0  0  0
   -1.3356    2.0456   -0.8250 N   0  3  1  0  0  0  0  0  0  0  0  0
    1.7105    1.8734    0.5080 N   0  0  0  0  0  0  0  0  0  0  0  0
    0.5405   -0.1140   -0.2421 C   0  0  1  0  0  0  0  0  0  0  0  0
    0.5059    1.0877    0.7400 C   0  0  1  0  0  0  0  0  0  0  0  0
   -0.4060   -1.0288    0.5660 C   0  0  2  0  0  0  0  0  0  0  0  0
   -0.8372    1.8358    0.6469 C   0  0  2  0  0  0  0  0  0  0  0  0
   -1.8865   -0.4754    0.6799 C   0  0  1  0  0  0  0  0  0  0  0  0
    0.1423    0.2179   -1.6931 C   0  0  0  0  0  0  0  0  0  0  0  0
   -0.2956    1.6611   -1.8713 C   0  0  0  0  0  0  0  0  0  0  0  0
    0.2155   -0.9046    1.9657 C   0  0  0  0  0  0  0  0  0  0  0  0
   -1.8450    0.9106    1.3206 C   0  0  0  0  0  0  0  0  0  0  0  0
    2.0475   -0.3124   -0.2480 C   0  0  0  0  0  0  0  0  0  0  0  0
   -2.6538    1.2316   -1.1044 C   0  0  0  0  0  0  0  0  0  0  0  0
   -2.6507   -0.1998   -0.5960 C   0  0  0  0  0  0  0  0  0  0  0  0
    2.6600    0.8935    0.1511 C   0  0  0  0  0  0  0  0  0  0  0  0
   -1.6593    3.5314   -1.0164 C   0  0  0  0  0  0  0  0  0  0  0  0
   -0.4062   -2.4578    0.1154 C   0  0  0  0  0  0  0  0  0  0  0  0
    2.8002   -1.4035   -0.6447 C   0  0  0  0  0  0  0  0  0  0  0  0
   -3.3348   -1.1642   -1.2304 C   0  0  0  0  0  0  0  0  0  0  0  0
    4.0336    1.0411    0.1081 C   0  0  0  0  0  0  0  0  0  0  0  0
    4.1903   -1.2703   -0.6531 C   0  0  0  0  0  0  0  0  0  0  0  0
    4.8006   -0.0579   -0.2872 C   0  0  0  0  0  0  0  0  0  0  0  0
   -3.3734   -2.5851   -0.7853 C   0  0  0  0  0  0  0  0  0  0  0  0
   -0.8142    2.7997    1.1668 H   0  0  0  0  0  0  0  0  0  0  0  0
   -2.4740   -1.0982    1.3653 H   0  0  0  0  0  0  0  0  0  0  0  0
   -0.6204   -0.4725   -2.0637 H   0  0  0  0  0  0  0  0  0  0  0  0
    0.9754    0.0512   -2.3907 H   0  0  0  0  0  0  0  0  0  0  0  0
    0.5466    2.3552   -1.7770 H   0  0  0  0  0  0  0  0  0  0  0  0
   -0.7378    1.8132   -2.8631 H   0  0  0  0  0  0  0  0  0  0  0  0
    1.1157   -1.5170    2.0927 H   0  0  0  0  0  0  0  0  0  0  0  0
   -0.4713   -1.1570    2.7808 H   0  0  0  0  0  0  0  0  0  0  0  0
   -2.8376    1.2880   -2.1840 H   0  0  0  0  0  0  0  0  0  0  0  0
   -3.4595    1.7809   -0.5999 H   0  0  0  0  0  0  0  0  0  0  0  0
    1.9790    2.6451    1.1038 H   0  0  0  0  0  0  0  0  0  0  0  0
   -0.7413    4.1057   -0.8606 H   0  0  0  0  0  0  0  0  0  0  0  0
   -2.0367    3.6750   -2.0332 H   0  0  0  0  0  0  0  0  0  0  0  0
   -2.4184    3.8167   -0.2820 H   0  0  0  0  0  0  0  0  0  0  0  0
    2.3684   -2.3346   -0.9778 H   0  0  0  0  0  0  0  0  0  0  0  0
   -3.8747   -0.9239   -2.1427 H   0  0  0  0  0  0  0  0  0  0  0  0
    4.5110    1.9743    0.3864 H   0  0  0  0  0  0  0  0  0  0  0  0
    4.8096   -2.1072   -0.9652 H   0  0  0  0  0  0  0  0  0  0  0  0
   -1.1343   -4.1696    0.6915 H   0  0  0  0  0  0  0  0  0  0  0  0
    5.8839    0.0253   -0.3168 H   0  0  0  0  0  0  0  0  0  0  0  0
   -2.5934   -3.1746   -1.2715 H   0  0  0  0  0  0  0  0  0  0  0  0
   -4.3289   -3.0146   -1.1119 H   0  0  0  0  0  0  0  0  0  0  0  0
   -3.3683   -2.7131    0.2969 H   0  0  0  0  0  0  0  0  0  0  0  0
  1  8  1  0  0  0  0
  1 14  1  0  0  0  0
  2 15  2  0  0  0  0
  3 21  1  0  0  0  0
  3 46  1  0  0  0  0
  4 21  2  0  0  0  0
  5 10  1  0  0  0  0
  5 13  1  0  0  0  0
  5 17  1  0  0  0  0
  5 20  1  0  0  0  0
  6  8  1  0  0  0  0
  6 19  1  0  0  0  0
  6 38  1  0  0  0  0
  7  8  1  0  0  0  0
  7  9  1  0  0  0  0
  7 12  1  0  0  0  0
  7 16  1  0  0  0  0
  8 10  1  0  0  0  0
  9 11  1  0  0  0  0
  9 14  1  0  0  0  0
  9 21  1  0  0  0  0
 10 15  1  0  0  0  0
 10 28  1  0  0  0  0
 11 15  1  0  0  0  0
 11 18  1  0  0  0  0
 11 29  1  0  0  0  0
 12 13  1  0  0  0  0
 12 30  1  0  0  0  0
 12 31  1  0  0  0  0
 13 32  1  0  0  0  0
 13 33  1  0  0  0  0
 14 34  1  0  0  0  0
 14 35  1  0  0  0  0
 16 19  1  0  0  0  0
 16 22  2  0  0  0  0
 17 18  1  0  0  0  0
 17 36  1  0  0  0  0
 17 37  1  0  0  0  0
 18 23  2  0  0  0  0
 19 24  2  0  0  0  0
 20 39  1  0  0  0  0
 20 40  1  0  0  0  0
 20 41  1  0  0  0  0
 22 25  1  0  0  0  0
 22 42  1  0  0  0  0
 23 27  1  0  0  0  0
 23 43  1  0  0  0  0
 24 26  1  0  0  0  0
 24 44  1  0  0  0  0
 25 26  2  0  0  0  0
 25 45  1  0  0  0  0
 26 47  1  0  0  0  0
 27 48  1  0  0  0  0
 27 49  1  0  0  0  0
 27 50  1  0  0  0  0
M  CHG  1   5   1
M  END
> <PUBCHEM_COMPOUND_CID>
101352946

> <PUBCHEM_CONFORMER_RMSD>
0.6

> <PUBCHEM_CONFORMER_DIVERSEORDER>
1

> <PUBCHEM_MMFF94_PARTIAL_CHARGES>
33
1 -0.56
10 0.56
11 0.2
13 0.5
14 0.28
15 0.45
16 -0.14
17 0.64
18 -0.28
19 0.1
2 -0.57
20 0.5
21 0.66
22 -0.15
23 -0.29
24 -0.15
25 -0.15
26 -0.15
27 0.14
3 -0.65
38 0.4
4 -0.57
42 0.15
43 0.15
44 0.15
45 0.15
46 0.5
47 0.15
5 -1.01
6 -0.87
7 0.14
8 0.65
9 0.06

> <PUBCHEM_EFFECTIVE_ROTOR_COUNT>
2.2

> <PUBCHEM_PHARMACOPHORE_FEATURES>
14
1 1 acceptor
1 2 acceptor
1 27 hydrophobe
1 3 acceptor
1 4 acceptor
1 5 cation
1 6 cation
1 6 donor
3 3 4 21 anion
5 6 7 8 16 19 rings
6 16 19 22 24 25 26 rings
6 5 10 11 15 17 18 rings
6 5 7 8 10 12 13 rings
8 1 7 8 9 10 11 14 15 rings

> <PUBCHEM_HEAVY_ATOM_COUNT>
27

> <PUBCHEM_ATOM_DEF_STEREO_COUNT>
4

> <PUBCHEM_ATOM_UDEF_STEREO_COUNT>
2

> <PUBCHEM_BOND_DEF_STEREO_COUNT>
1

> <PUBCHEM_BOND_UDEF_STEREO_COUNT>
0

> <PUBCHEM_ISOTOPIC_ATOM_COUNT>
0

> <PUBCHEM_COMPONENT_COUNT>
1

> <PUBCHEM_CACTVS_TAUTO_COUNT>
9

> <PUBCHEM_CONFORMER_ID>
060A85F200000001

> <PUBCHEM_MMFF94_ENERGY>
141.6556

> <PUBCHEM_FEATURE_SELFOVERLAP>
72.794

> <PUBCHEM_SHAPE_FINGERPRINT>
10863032 1 17988925556697431809
10948715 1 17827920624531506213
1100329 8 17545032706638699094
11578080 2 16987410144746628113
121448 382 18409440367309930986
12403814 3 18261125053347915624
13583140 156 16877662370767555408
144361 1 18115298956718037833
14955137 171 18261405494002333889
15209289 33 18343871025858140771
16945 1 18040443187112703464
17357779 13 18196643206231865575
17492 54 17898284167730160917
18186145 218 18199754644160820868
200 152 17847057787995705430
20691752 17 18336817680425345499
22907989 373 17970373544594644478
23402539 116 18340763840283866239
23419403 2 17416381324999808713
23559900 14 18269829982011587576
238 59 17758650296806838053
2748010 2 17836361927769668672
4340502 62 17700719293151555545
46194498 28 17326583291748610183
5845 1 17824258430535393316
81228 2 18265053711594311962
9709674 26 18342464750982145982

> <PUBCHEM_SHAPE_MULTIPOLES>
522.21
5.86
3.14
1.7
5.71
0.38
-0.49
1
1.43
-2.08
0.6
-0.84
-0.33
0.16

> <PUBCHEM_SHAPE_SELFOVERLAP>
1196.046

> <PUBCHEM_SHAPE_VOLUME>
267.8

> <PUBCHEM_COORDINATE_TYPE>
2
5
10

$$$$
