101840191
  -OEChem-09032003323D

 41 46  0     1  0  0  0  0  0999 V2000
   -1.2527    2.2595    0.6854 O   0  0  0  0  0  0  0  0  0  0  0  0
   -0.2248    3.1854   -1.1334 O   0  0  0  0  0  0  0  0  0  0  0  0
   -1.6674   -2.3082    0.6756 N   0  0  0  0  0  0  0  0  0  0  0  0
    1.6124   -2.0780   -0.2219 N   0  0  0  0  0  0  0  0  0  0  0  0
   -1.7106    0.1015   -1.0269 C   0  0  1  0  0  0  0  0  0  0  0  0
    0.5145    0.0383    0.1415 C   0  0  1  0  0  0  0  0  0  0  0  0
   -2.3398    0.0906    0.4013 C   0  0  1  0  0  0  0  0  0  0  0  0
   -0.3087    0.7677   -0.9332 C   0  0  2  0  0  0  0  0  0  0  0  0
   -1.4633    0.9762    1.3267 C   0  0  1  0  0  0  0  0  0  0  0  0
   -0.0649    0.3590    1.5332 C   0  0  0  0  0  0  0  0  0  0  0  0
   -1.5706   -1.3220   -1.5665 C   0  0  0  0  0  0  0  0  0  0  0  0
   -0.8435   -2.1553   -0.5202 C   0  0  1  0  0  0  0  0  0  0  0  0
    0.4564   -1.4772   -0.1751 C   0  0  0  0  0  0  0  0  0  0  0  0
    2.0035    0.2025    0.1054 C   0  0  0  0  0  0  0  0  0  0  0  0
   -3.7785    0.6194    0.3392 C   0  0  0  0  0  0  0  0  0  0  0  0
   -0.5683    2.1979   -0.4982 C   0  0  0  0  0  0  0  0  0  0  0  0
   -2.3768   -1.2945    1.0398 C   0  0  0  0  0  0  0  0  0  0  0  0
    2.5753   -1.0664   -0.0562 C   0  0  0  0  0  0  0  0  0  0  0  0
   -4.6606   -0.2930   -0.4865 C   0  0  0  0  0  0  0  0  0  0  0  0
    2.7891    1.3347    0.2309 C   0  0  0  0  0  0  0  0  0  0  0  0
    3.9505   -1.2271   -0.0932 C   0  0  0  0  0  0  0  0  0  0  0  0
    4.1763    1.1799    0.1954 C   0  0  0  0  0  0  0  0  0  0  0  0
    4.7526   -0.0909    0.0369 C   0  0  0  0  0  0  0  0  0  0  0  0
   -2.3137    0.6935   -1.7275 H   0  0  0  0  0  0  0  0  0  0  0  0
    0.1870    0.7689   -1.9112 H   0  0  0  0  0  0  0  0  0  0  0  0
   -1.9388    1.1566    2.2971 H   0  0  0  0  0  0  0  0  0  0  0  0
    0.5594    1.0965    2.0548 H   0  0  0  0  0  0  0  0  0  0  0  0
   -0.1059   -0.5277    2.1757 H   0  0  0  0  0  0  0  0  0  0  0  0
   -1.0055   -1.3104   -2.5067 H   0  0  0  0  0  0  0  0  0  0  0  0
   -2.5509   -1.7585   -1.7866 H   0  0  0  0  0  0  0  0  0  0  0  0
   -0.6332   -3.1500   -0.9277 H   0  0  0  0  0  0  0  0  0  0  0  0
   -4.1995    0.6881    1.3505 H   0  0  0  0  0  0  0  0  0  0  0  0
   -3.8061    1.6322   -0.0803 H   0  0  0  0  0  0  0  0  0  0  0  0
   -3.0115   -1.4107    1.9355 H   0  0  0  0  0  0  0  0  0  0  0  0
   -4.3762   -0.3058   -1.5420 H   0  0  0  0  0  0  0  0  0  0  0  0
   -5.6929    0.0733   -0.4484 H   0  0  0  0  0  0  0  0  0  0  0  0
   -4.6775   -1.3216   -0.1152 H   0  0  0  0  0  0  0  0  0  0  0  0
    2.3491    2.3167    0.3634 H   0  0  0  0  0  0  0  0  0  0  0  0
    4.3991   -2.2054   -0.2282 H   0  0  0  0  0  0  0  0  0  0  0  0
    4.8184    2.0511    0.2942 H   0  0  0  0  0  0  0  0  0  0  0  0
    5.8346   -0.1894    0.0107 H   0  0  0  0  0  0  0  0  0  0  0  0
  1  9  1  0  0  0  0
  1 16  1  0  0  0  0
  2 16  2  0  0  0  0
  3 12  1  0  0  0  0
  3 17  2  0  0  0  0
  4 13  2  0  0  0  0
  4 18  1  0  0  0  0
  5  7  1  0  0  0  0
  5  8  1  0  0  0  0
  5 11  1  0  0  0  0
  5 24  1  0  0  0  0
  6  8  1  0  0  0  0
  6 10  1  0  0  0  0
  6 13  1  0  0  0  0
  6 14  1  0  0  0  0
  7  9  1  0  0  0  0
  7 15  1  0  0  0  0
  7 17  1  0  0  0  0
  8 16  1  0  0  0  0
  8 25  1  0  0  0  0
  9 10  1  0  0  0  0
  9 26  1  0  0  0  0
 10 27  1  0  0  0  0
 10 28  1  0  0  0  0
 11 12  1  0  0  0  0
 11 29  1  0  0  0  0
 11 30  1  0  0  0  0
 12 13  1  0  0  0  0
 12 31  1  0  0  0  0
 14 18  1  0  0  0  0
 14 20  2  0  0  0  0
 15 19  1  0  0  0  0
 15 32  1  0  0  0  0
 15 33  1  0  0  0  0
 17 34  1  0  0  0  0
 18 21  2  0  0  0  0
 19 35  1  0  0  0  0
 19 36  1  0  0  0  0
 19 37  1  0  0  0  0
 20 22  1  0  0  0  0
 20 38  1  0  0  0  0
 21 23  1  0  0  0  0
 21 39  1  0  0  0  0
 22 23  2  0  0  0  0
 22 40  1  0  0  0  0
 23 41  1  0  0  0  0
M  END
> <PUBCHEM_COMPOUND_CID>
101840191

> <PUBCHEM_CONFORMER_RMSD>
0.6

> <PUBCHEM_CONFORMER_DIVERSEORDER>
1

> <PUBCHEM_MMFF94_PARTIAL_CHARGES>
23
1 -0.43
12 0.31
13 0.33
14 -0.14
16 0.66
17 0.33
18 0.18
2 -0.57
20 -0.15
21 -0.15
22 -0.15
23 -0.15
3 -0.7
34 0.06
38 0.15
39 0.15
4 -0.63
40 0.15
41 0.15
6 0.2
7 0.06
8 0.06
9 0.28

> <PUBCHEM_EFFECTIVE_ROTOR_COUNT>
1.6

> <PUBCHEM_PHARMACOPHORE_FEATURES>
9
1 19 hydrophobe
1 2 acceptor
1 3 acceptor
1 4 acceptor
5 4 6 13 14 18 rings
6 14 18 20 21 22 23 rings
6 3 5 7 11 12 17 rings
6 5 6 8 11 12 13 rings
8 1 5 6 7 8 9 10 16 rings

> <PUBCHEM_HEAVY_ATOM_COUNT>
23

> <PUBCHEM_ATOM_DEF_STEREO_COUNT>
5

> <PUBCHEM_ATOM_UDEF_STEREO_COUNT>
1

> <PUBCHEM_BOND_DEF_STEREO_COUNT>
0

> <PUBCHEM_BOND_UDEF_STEREO_COUNT>
0

> <PUBCHEM_ISOTOPIC_ATOM_COUNT>
0

> <PUBCHEM_COMPONENT_COUNT>
1

> <PUBCHEM_CACTVS_TAUTO_COUNT>
2

> <PUBCHEM_CONFORMER_ID>
0611F53F00000001

> <PUBCHEM_MMFF94_ENERGY>
86.6017

> <PUBCHEM_FEATURE_SELFOVERLAP>
47.943

> <PUBCHEM_SHAPE_FINGERPRINT>
10863032 1 18412265068685093347
10948715 1 18341333275890871625
10967382 1 18411419505620055434
11132069 177 18272928354075210714
12011746 2 18412265021239817717
12236239 1 17846778503035629663
12403259 226 18266175020555544222
12403814 3 18410851040665024936
12969540 114 18115568393128161327
13024252 1 14562532868722463547
13027679 85 18128253583041843729
13132413 78 18197783404016011229
13140716 1 18338509863285570466
13214271 11 18336266837620682658
13224815 77 18341046415252025154
14142880 1 18271247101511505336
14223421 5 18339368444243507802
14787075 74 18272367594592234899
14790565 3 18340773654416493393
15196674 1 18413108376654709410
16945 1 18270137724522827963
19868273 325 18335418027681740412
200 152 18059851761923525362
21267235 1 18341621429157053878
2334 1 18195243553910279398
23402539 116 18410848841894834183
23419403 2 15256282997669881267
23493267 7 17895181173949202937
23559900 14 18059571447395281952
238 59 16311869874329359252
2748010 2 18339923847891878350
296302 2 18187367640129454403
335352 9 18340207397480094678
34934 24 18334008419230551096
350125 39 18268712719178144208
4340502 62 18040721346781136163
5104073 3 18413107286228993250
69090 78 18341892978516844178
9709674 26 18270971145757647878

> <PUBCHEM_SHAPE_MULTIPOLES>
451.63
6.78
2.48
1.17
3.88
0.57
0.02
-0.32
0.17
-0.19
-0.4
-0.66
0.11
0.02

> <PUBCHEM_SHAPE_SELFOVERLAP>
1051.228

> <PUBCHEM_SHAPE_VOLUME>
225.5

> <PUBCHEM_COORDINATE_TYPE>
2
5
10

$$$$
