71523873
  -OEChem-09032003003D

 31 32  0     1  0  0  0  0  0999 V2000
    1.7531   -0.2902    1.1179 O   0  0  0  0  0  0  0  0  0  0  0  0
   -3.1591    0.7444   -0.7418 O   0  0  0  0  0  0  0  0  0  0  0  0
    2.1550    0.7021   -0.9922 O   0  0  0  0  0  0  0  0  0  0  0  0
   -0.1288    0.3624   -0.3166 C   0  0  1  0  0  0  0  0  0  0  0  0
   -0.3422   -1.1151   -0.6866 C   0  0  2  0  0  0  0  0  0  0  0  0
   -1.2252    0.5934    0.7391 C   0  0  2  0  0  0  0  0  0  0  0  0
   -1.8688   -1.2921   -0.6940 C   0  0  0  0  0  0  0  0  0  0  0  0
   -2.4393   -0.1255    0.1262 C   0  0  2  0  0  0  0  0  0  0  0  0
    0.3233   -2.0693    0.3145 C   0  0  0  0  0  0  0  0  0  0  0  0
    1.2996    0.6566    0.1504 C   0  0  1  0  0  0  0  0  0  0  0  0
   -1.4658    2.0641    1.0569 C   0  0  0  0  0  0  0  0  0  0  0  0
    1.7416   -1.6315    0.6342 C   0  0  0  0  0  0  0  0  0  0  0  0
    3.3567    1.4006   -0.7082 C   0  0  0  0  0  0  0  0  0  0  0  0
   -0.3460    0.9773   -1.2021 H   0  0  0  0  0  0  0  0  0  0  0  0
    0.0707   -1.3170   -1.6827 H   0  0  0  0  0  0  0  0  0  0  0  0
   -0.9527    0.0834    1.6722 H   0  0  0  0  0  0  0  0  0  0  0  0
   -2.2432   -1.2712   -1.7243 H   0  0  0  0  0  0  0  0  0  0  0  0
   -2.1611   -2.2549   -0.2606 H   0  0  0  0  0  0  0  0  0  0  0  0
   -3.1285   -0.4702    0.9040 H   0  0  0  0  0  0  0  0  0  0  0  0
    0.3230   -3.0908   -0.0827 H   0  0  0  0  0  0  0  0  0  0  0  0
   -0.2523   -2.0928    1.2483 H   0  0  0  0  0  0  0  0  0  0  0  0
    1.3110    1.6409    0.6321 H   0  0  0  0  0  0  0  0  0  0  0  0
    2.1571   -2.2702    1.4204 H   0  0  0  0  0  0  0  0  0  0  0  0
    2.3972   -1.7237   -0.2390 H   0  0  0  0  0  0  0  0  0  0  0  0
   -1.6239    2.6571    0.1502 H   0  0  0  0  0  0  0  0  0  0  0  0
   -0.6114    2.4935    1.5892 H   0  0  0  0  0  0  0  0  0  0  0  0
   -2.3459    2.1796    1.6982 H   0  0  0  0  0  0  0  0  0  0  0  0
   -3.9075    0.2403   -1.1044 H   0  0  0  0  0  0  0  0  0  0  0  0
    3.9030    0.9226    0.1106 H   0  0  0  0  0  0  0  0  0  0  0  0
    3.1469    2.4464   -0.4630 H   0  0  0  0  0  0  0  0  0  0  0  0
    3.9856    1.3772   -1.6024 H   0  0  0  0  0  0  0  0  0  0  0  0
  1 10  1  0  0  0  0
  1 12  1  0  0  0  0
  2  8  1  0  0  0  0
  2 28  1  0  0  0  0
  3 10  1  0  0  0  0
  3 13  1  0  0  0  0
  4  5  1  0  0  0  0
  4  6  1  0  0  0  0
  4 10  1  0  0  0  0
  4 14  1  0  0  0  0
  5  7  1  0  0  0  0
  5  9  1  0  0  0  0
  5 15  1  0  0  0  0
  6  8  1  0  0  0  0
  6 11  1  0  0  0  0
  6 16  1  0  0  0  0
  7  8  1  0  0  0  0
  7 17  1  0  0  0  0
  7 18  1  0  0  0  0
  8 19  1  0  0  0  0
  9 12  1  0  0  0  0
  9 20  1  0  0  0  0
  9 21  1  0  0  0  0
 10 22  1  0  0  0  0
 11 25  1  0  0  0  0
 11 26  1  0  0  0  0
 11 27  1  0  0  0  0
 12 23  1  0  0  0  0
 12 24  1  0  0  0  0
 13 29  1  0  0  0  0
 13 30  1  0  0  0  0
 13 31  1  0  0  0  0
M  END
> <PUBCHEM_COMPOUND_CID>
71523873

> <PUBCHEM_CONFORMER_RMSD>
0.6

> <PUBCHEM_CONFORMER_DIVERSEORDER>
1
5
6
3
4
2
7

> <PUBCHEM_MMFF94_PARTIAL_CHARGES>
8
1 -0.56
10 0.56
12 0.28
13 0.28
2 -0.68
28 0.4
3 -0.56
8 0.28

> <PUBCHEM_EFFECTIVE_ROTOR_COUNT>
2.4

> <PUBCHEM_PHARMACOPHORE_FEATURES>
6
1 1 acceptor
1 2 acceptor
1 2 donor
1 3 acceptor
5 4 5 6 7 8 rings
6 1 4 5 9 10 12 rings

> <PUBCHEM_HEAVY_ATOM_COUNT>
13

> <PUBCHEM_ATOM_DEF_STEREO_COUNT>
5

> <PUBCHEM_ATOM_UDEF_STEREO_COUNT>
0

> <PUBCHEM_BOND_DEF_STEREO_COUNT>
0

> <PUBCHEM_BOND_UDEF_STEREO_COUNT>
0

> <PUBCHEM_ISOTOPIC_ATOM_COUNT>
0

> <PUBCHEM_COMPONENT_COUNT>
1

> <PUBCHEM_CACTVS_TAUTO_COUNT>
1

> <PUBCHEM_CONFORMER_ID>
04435E2100000001

> <PUBCHEM_MMFF94_ENERGY>
38.9252

> <PUBCHEM_FEATURE_SELFOVERLAP>
30.641

> <PUBCHEM_SHAPE_FINGERPRINT>
12202030 40 14907890647690872767
12326174 3 17385715851533498442
12423570 1 17899099820474000583
13024252 1 12253005494622631270
14761567 1 17904178666472717230
15219459 52 18266737982856187055
15775835 57 18334296495640814412
16945 1 18060416919542890899
19837323 101 18196114319848308030
20511035 2 17697593295235453819
21040471 1 18058732373250335667
22802520 49 17844833514527297486
228727 97 18271251611316472769
23402539 116 18200027477600386044
23419403 2 15315090290781299147
23552423 10 18336823083256963355
23559900 14 18200318853104721044
241688 4 17328295844994855027
2748010 2 17841135968544802585
353137 74 18341621442073519784
369184 2 14635134785229653501
430814 3 18334021617928782644
4369600 1 18127121107439824426
5084963 1 18267576910280739347
528862 383 18113333094352252794
53812653 8 18343309149620007241
63268167 104 18334574624853656568
8030462 33 18272647913848073041

> <PUBCHEM_SHAPE_MULTIPOLES>
249.93
4.05
2.06
1.07
0.92
0.22
-0.05
-1.61
0.97
0.1
-0.35
0.11
-0.1
-0.87

> <PUBCHEM_SHAPE_SELFOVERLAP>
509.78

> <PUBCHEM_SHAPE_VOLUME>
146

> <PUBCHEM_COORDINATE_TYPE>
2
5
10

$$$$
