71523872
  -OEChem-09032002593D

 28 29  0     1  0  0  0  0  0999 V2000
    2.0877    0.4765    0.8356 O   0  0  0  0  0  0  0  0  0  0  0  0
   -3.0529    0.0391   -0.5934 O   0  0  0  0  0  0  0  0  0  0  0  0
    2.0832    1.1421   -1.4350 O   0  0  0  0  0  0  0  0  0  0  0  0
    0.0036    0.4261   -0.4602 C   0  0  1  0  0  0  0  0  0  0  0  0
    0.1236   -1.1033   -0.5692 C   0  0  2  0  0  0  0  0  0  0  0  0
   -1.0351    0.5901    0.6640 C   0  0  2  0  0  0  0  0  0  0  0  0
   -1.3124   -1.6156   -0.3759 C   0  0  0  0  0  0  0  0  0  0  0  0
   -2.0836   -0.4793    0.3121 C   0  0  2  0  0  0  0  0  0  0  0  0
    1.0703   -1.6910    0.4863 C   0  0  0  0  0  0  0  0  0  0  0  0
    1.3504    1.1105   -0.2097 C   0  0  1  0  0  0  0  0  0  0  0  0
   -1.5969    2.0023    0.7743 C   0  0  0  0  0  0  0  0  0  0  0  0
    2.3621   -0.8975    0.5711 C   0  0  0  0  0  0  0  0  0  0  0  0
   -0.4193    0.8090   -1.4004 H   0  0  0  0  0  0  0  0  0  0  0  0
    0.4980   -1.3818   -1.5620 H   0  0  0  0  0  0  0  0  0  0  0  0
   -0.5801    0.3283    1.6281 H   0  0  0  0  0  0  0  0  0  0  0  0
   -1.7560   -1.8625   -1.3476 H   0  0  0  0  0  0  0  0  0  0  0  0
   -1.3327   -2.5266    0.2325 H   0  0  0  0  0  0  0  0  0  0  0  0
   -2.6108   -0.8253    1.2072 H   0  0  0  0  0  0  0  0  0  0  0  0
    1.2854   -2.7406    0.2555 H   0  0  0  0  0  0  0  0  0  0  0  0
    0.5877   -1.6762    1.4715 H   0  0  0  0  0  0  0  0  0  0  0  0
    1.1860    2.1504    0.0893 H   0  0  0  0  0  0  0  0  0  0  0  0
   -1.9629    2.3724   -0.1890 H   0  0  0  0  0  0  0  0  0  0  0  0
   -2.4261    2.0313    1.4888 H   0  0  0  0  0  0  0  0  0  0  0  0
   -0.8312    2.6997    1.1281 H   0  0  0  0  0  0  0  0  0  0  0  0
    2.9756   -1.2770    1.3946 H   0  0  0  0  0  0  0  0  0  0  0  0
    2.9542   -0.9938   -0.3461 H   0  0  0  0  0  0  0  0  0  0  0  0
   -3.6834   -0.6758   -0.7859 H   0  0  0  0  0  0  0  0  0  0  0  0
    2.6795    1.9087   -1.3918 H   0  0  0  0  0  0  0  0  0  0  0  0
  1 10  1  0  0  0  0
  1 12  1  0  0  0  0
  2  8  1  0  0  0  0
  2 27  1  0  0  0  0
  3 10  1  0  0  0  0
  3 28  1  0  0  0  0
  4  5  1  0  0  0  0
  4  6  1  0  0  0  0
  4 10  1  0  0  0  0
  4 13  1  0  0  0  0
  5  7  1  0  0  0  0
  5  9  1  0  0  0  0
  5 14  1  0  0  0  0
  6  8  1  0  0  0  0
  6 11  1  0  0  0  0
  6 15  1  0  0  0  0
  7  8  1  0  0  0  0
  7 16  1  0  0  0  0
  7 17  1  0  0  0  0
  8 18  1  0  0  0  0
  9 12  1  0  0  0  0
  9 19  1  0  0  0  0
  9 20  1  0  0  0  0
 10 21  1  0  0  0  0
 11 22  1  0  0  0  0
 11 23  1  0  0  0  0
 11 24  1  0  0  0  0
 12 25  1  0  0  0  0
 12 26  1  0  0  0  0
M  END
> <PUBCHEM_COMPOUND_CID>
71523872

> <PUBCHEM_CONFORMER_RMSD>
0.4

> <PUBCHEM_CONFORMER_DIVERSEORDER>
1
3
7
4
8
2
5
6

> <PUBCHEM_MMFF94_PARTIAL_CHARGES>
8
1 -0.56
10 0.56
12 0.28
2 -0.68
27 0.4
28 0.4
3 -0.68
8 0.28

> <PUBCHEM_EFFECTIVE_ROTOR_COUNT>
1.4

> <PUBCHEM_PHARMACOPHORE_FEATURES>
7
1 1 acceptor
1 2 acceptor
1 2 donor
1 3 acceptor
1 3 donor
5 4 5 6 7 8 rings
6 1 4 5 9 10 12 rings

> <PUBCHEM_HEAVY_ATOM_COUNT>
12

> <PUBCHEM_ATOM_DEF_STEREO_COUNT>
5

> <PUBCHEM_ATOM_UDEF_STEREO_COUNT>
0

> <PUBCHEM_BOND_DEF_STEREO_COUNT>
0

> <PUBCHEM_BOND_UDEF_STEREO_COUNT>
0

> <PUBCHEM_ISOTOPIC_ATOM_COUNT>
0

> <PUBCHEM_COMPONENT_COUNT>
1

> <PUBCHEM_CACTVS_TAUTO_COUNT>
1

> <PUBCHEM_CONFORMER_ID>
04435E2000000001

> <PUBCHEM_MMFF94_ENERGY>
31.5871

> <PUBCHEM_FEATURE_SELFOVERLAP>
35.715

> <PUBCHEM_SHAPE_FINGERPRINT>
12423570 1 17824515630214236191
12524768 44 17630332071449570389
15775835 57 18273220785038889408
16945 1 18343024410299255579
18185500 45 18267296710867143466
20653091 64 18187373086227172218
21040471 1 18271535190732076505
23419403 2 16035396958222775042
23552423 10 18333730238494113547
241688 4 17830730954787535450
2748010 2 17763745390782625823
369184 2 17988632017241917883
4369600 1 17836932574193714548
5084963 1 18334572408576620402
53812653 8 18339939189277643789
63268167 104 18260265252582296968

> <PUBCHEM_SHAPE_MULTIPOLES>
229.35
3.39
1.9
1.01
0.45
0.08
0.12
0.21
-0.07
0.15
-0.09
-0.28
0.19
-0.66

> <PUBCHEM_SHAPE_SELFOVERLAP>
471.706

> <PUBCHEM_SHAPE_VOLUME>
132.6

> <PUBCHEM_COORDINATE_TYPE>
2
5
10

$$$$
