71523918
  -OEChem-09032002573D

 27 28  0     1  0  0  0  0  0999 V2000
   -2.2324   -0.9416    0.3239 O   0  0  0  0  0  0  0  0  0  0  0  0
    2.9551    0.3211   -0.3043 O   0  0  0  0  0  0  0  0  0  0  0  0
   -0.0751   -0.4197   -0.7119 C   0  0  1  0  0  0  0  0  0  0  0  0
   -0.3680    1.0790   -0.5459 C   0  0  2  0  0  0  0  0  0  0  0  0
    0.8618   -0.7062    0.4760 C   0  0  2  0  0  0  0  0  0  0  0  0
    0.9707    1.6832   -0.0978 C   0  0  0  0  0  0  0  0  0  0  0  0
    1.7895    0.5225    0.4878 C   0  0  2  0  0  0  0  0  0  0  0  0
   -1.4791    1.3483    0.4797 C   0  0  0  0  0  0  0  0  0  0  0  0
   -1.3476   -1.2619   -0.7473 C   0  0  0  0  0  0  0  0  0  0  0  0
    1.5871   -2.0420    0.3732 C   0  0  0  0  0  0  0  0  0  0  0  0
   -2.6620    0.4174    0.2667 C   0  0  0  0  0  0  0  0  0  0  0  0
    0.4778   -0.5817   -1.6476 H   0  0  0  0  0  0  0  0  0  0  0  0
   -0.6776    1.5080   -1.5070 H   0  0  0  0  0  0  0  0  0  0  0  0
    0.2801   -0.7071    1.4073 H   0  0  0  0  0  0  0  0  0  0  0  0
    1.4840    2.1316   -0.9568 H   0  0  0  0  0  0  0  0  0  0  0  0
    0.8253    2.4763    0.6439 H   0  0  0  0  0  0  0  0  0  0  0  0
    2.1201    0.7420    1.5087 H   0  0  0  0  0  0  0  0  0  0  0  0
   -1.8031    2.3933    0.4168 H   0  0  0  0  0  0  0  0  0  0  0  0
   -1.0939    1.1955    1.4957 H   0  0  0  0  0  0  0  0  0  0  0  0
   -1.8764   -1.1132   -1.6968 H   0  0  0  0  0  0  0  0  0  0  0  0
   -1.1119   -2.3281   -0.6791 H   0  0  0  0  0  0  0  0  0  0  0  0
    0.8836   -2.8756    0.4634 H   0  0  0  0  0  0  0  0  0  0  0  0
    2.3244   -2.1418    1.1766 H   0  0  0  0  0  0  0  0  0  0  0  0
    2.1084   -2.1492   -0.5837 H   0  0  0  0  0  0  0  0  0  0  0  0
   -3.4009    0.5676    1.0601 H   0  0  0  0  0  0  0  0  0  0  0  0
   -3.1600    0.6107   -0.6907 H   0  0  0  0  0  0  0  0  0  0  0  0
    3.4856    1.1346   -0.2545 H   0  0  0  0  0  0  0  0  0  0  0  0
  1  9  1  0  0  0  0
  1 11  1  0  0  0  0
  2  7  1  0  0  0  0
  2 27  1  0  0  0  0
  3  4  1  0  0  0  0
  3  5  1  0  0  0  0
  3  9  1  0  0  0  0
  3 12  1  0  0  0  0
  4  6  1  0  0  0  0
  4  8  1  0  0  0  0
  4 13  1  0  0  0  0
  5  7  1  0  0  0  0
  5 10  1  0  0  0  0
  5 14  1  0  0  0  0
  6  7  1  0  0  0  0
  6 15  1  0  0  0  0
  6 16  1  0  0  0  0
  7 17  1  0  0  0  0
  8 11  1  0  0  0  0
  8 18  1  0  0  0  0
  8 19  1  0  0  0  0
  9 20  1  0  0  0  0
  9 21  1  0  0  0  0
 10 22  1  0  0  0  0
 10 23  1  0  0  0  0
 10 24  1  0  0  0  0
 11 25  1  0  0  0  0
 11 26  1  0  0  0  0
M  END
> <PUBCHEM_COMPOUND_CID>
71523918

> <PUBCHEM_CONFORMER_RMSD>
0.4

> <PUBCHEM_CONFORMER_DIVERSEORDER>
1
5
3
4
2

> <PUBCHEM_MMFF94_PARTIAL_CHARGES>
6
1 -0.56
11 0.28
2 -0.68
27 0.4
7 0.28
9 0.28

> <PUBCHEM_EFFECTIVE_ROTOR_COUNT>
1.4

> <PUBCHEM_PHARMACOPHORE_FEATURES>
5
1 1 acceptor
1 2 acceptor
1 2 donor
5 3 4 5 6 7 rings
6 1 3 4 8 9 11 rings

> <PUBCHEM_HEAVY_ATOM_COUNT>
11

> <PUBCHEM_ATOM_DEF_STEREO_COUNT>
4

> <PUBCHEM_ATOM_UDEF_STEREO_COUNT>
0

> <PUBCHEM_BOND_DEF_STEREO_COUNT>
0

> <PUBCHEM_BOND_UDEF_STEREO_COUNT>
0

> <PUBCHEM_ISOTOPIC_ATOM_COUNT>
0

> <PUBCHEM_COMPONENT_COUNT>
1

> <PUBCHEM_CACTVS_TAUTO_COUNT>
1

> <PUBCHEM_CONFORMER_ID>
04435E4E00000001

> <PUBCHEM_MMFF94_ENERGY>
31.1761

> <PUBCHEM_FEATURE_SELFOVERLAP>
25.532

> <PUBCHEM_SHAPE_FINGERPRINT>
12423570 1 18113896026920232468
12524768 44 18269273461038503071
15076042 46 18057040198990556137
15557651 10 14692576502601410769
16945 1 18410849979855556073
18185500 45 18268421511457394199
21040471 1 18271241612569349589
23552423 10 18337107976853198213
241688 4 18191300472873182920
2748010 2 18122339073525032412
29004967 10 17603584136095415201
369184 2 16009019579698615769
5084963 1 18129950116355981032
528862 383 18262235517221326642
528886 8 18336542806602125408
63268167 104 18409164381290745145
68250623 7 18193285100188720722

> <PUBCHEM_SHAPE_MULTIPOLES>
214.64
3.33
1.88
0.83
0.1
0.26
-0.05
0.1
0.38
-0.34
0.04
0.06
0.05
-0.3

> <PUBCHEM_SHAPE_SELFOVERLAP>
439.223

> <PUBCHEM_SHAPE_VOLUME>
125.7

> <PUBCHEM_COORDINATE_TYPE>
2
5
10

$$$$
