91895417
  -OEChem-09032003293D

 79 83  0     1  0  0  0  0  0999 V2000
    1.9769    2.4794    1.7028 O   0  0  0  0  0  0  0  0  0  0  0  0
    4.4590   -3.6623    0.0440 O   0  0  0  0  0  0  0  0  0  0  0  0
    4.9831   -2.0940   -1.5201 O   0  0  0  0  0  0  0  0  0  0  0  0
   -1.1663   -0.4323    0.6765 C   0  0  2  0  0  0  0  0  0  0  0  0
   -0.6378    0.6269   -0.3838 C   0  0  1  0  0  0  0  0  0  0  0  0
    1.7737    0.2491    0.6784 C   0  0  1  0  0  0  0  0  0  0  0  0
   -2.6943   -0.2017    0.8522 C   0  0  1  0  0  0  0  0  0  0  0  0
   -3.5719   -0.3065   -0.4258 C   0  0  1  0  0  0  0  0  0  0  0  0
    3.1167   -0.5232    0.3514 C   0  0  2  0  0  0  0  0  0  0  0  0
    0.8813    0.4183   -0.5816 C   0  0  0  0  0  0  0  0  0  0  0  0
   -0.4419   -0.1916    2.0276 C   0  0  0  0  0  0  0  0  0  0  0  0
    3.7458    0.4800   -0.6807 C   0  0  2  0  0  0  0  0  0  0  0  0
    1.0863   -0.3085    1.9462 C   0  0  0  0  0  0  0  0  0  0  0  0
   -1.5027    0.5250   -1.6975 C   0  0  0  0  0  0  0  0  0  0  0  0
   -4.9303    0.1118    0.2086 C   0  0  2  0  0  0  0  0  0  0  0  0
   -3.0310    0.6621   -1.4879 C   0  0  0  0  0  0  0  0  0  0  0  0
    3.6052    1.8948   -0.0072 C   0  0  0  0  0  0  0  0  0  0  0  0
   -3.4949   -0.9717    1.9050 C   0  0  0  0  0  0  0  0  0  0  0  0
    2.3939    1.6495    0.9030 C   0  0  0  0  0  0  0  0  0  0  0  0
   -4.9638   -0.6736    1.5417 C   0  0  0  0  0  0  0  0  0  0  0  0
   -0.8640   -1.8950    0.2480 C   0  0  0  0  0  0  0  0  0  0  0  0
    2.9584    0.3685   -2.0089 C   0  0  0  0  0  0  0  0  0  0  0  0
   -0.7905    2.1117    0.0794 C   0  0  0  0  0  0  0  0  0  0  0  0
    1.4655    0.4309   -1.8023 C   0  0  0  0  0  0  0  0  0  0  0  0
   -3.7050   -1.7128   -1.0587 C   0  0  0  0  0  0  0  0  0  0  0  0
    2.9178   -1.9450   -0.2323 C   0  0  0  0  0  0  0  0  0  0  0  0
    4.0108   -0.7339    1.6023 C   0  0  0  0  0  0  0  0  0  0  0  0
   -6.1886   -0.0869   -0.6246 C   0  0  0  0  0  0  0  0  0  0  0  0
    4.7956    2.3663    0.8448 C   0  0  0  0  0  0  0  0  0  0  0  0
    3.3441    3.0094   -1.0314 C   0  0  0  0  0  0  0  0  0  0  0  0
   -6.3267    1.0202   -1.6696 C   0  0  0  0  0  0  0  0  0  0  0  0
   -7.4282   -0.1343    0.2688 C   0  0  0  0  0  0  0  0  0  0  0  0
    4.2237   -2.5305   -0.6683 C   0  0  0  0  0  0  0  0  0  0  0  0
   -2.7725    0.8393    1.2041 H   0  0  0  0  0  0  0  0  0  0  0  0
   -0.7951   -0.9170    2.7728 H   0  0  0  0  0  0  0  0  0  0  0  0
   -0.7059    0.7871    2.4434 H   0  0  0  0  0  0  0  0  0  0  0  0
    4.8056    0.2791   -0.8699 H   0  0  0  0  0  0  0  0  0  0  0  0
    1.5030    0.1647    2.8452 H   0  0  0  0  0  0  0  0  0  0  0  0
    1.3296   -1.3706    2.0628 H   0  0  0  0  0  0  0  0  0  0  0  0
   -1.2053    1.3144   -2.4011 H   0  0  0  0  0  0  0  0  0  0  0  0
   -1.2999   -0.4200   -2.2141 H   0  0  0  0  0  0  0  0  0  0  0  0
   -4.8737    1.1774    0.4815 H   0  0  0  0  0  0  0  0  0  0  0  0
   -3.2748    1.6969   -1.2237 H   0  0  0  0  0  0  0  0  0  0  0  0
   -3.5081    0.4817   -2.4574 H   0  0  0  0  0  0  0  0  0  0  0  0
   -3.2669   -0.6301    2.9200 H   0  0  0  0  0  0  0  0  0  0  0  0
   -3.3102   -2.0491    1.8708 H   0  0  0  0  0  0  0  0  0  0  0  0
   -5.4884   -1.6313    1.4544 H   0  0  0  0  0  0  0  0  0  0  0  0
   -5.4493   -0.0912    2.3325 H   0  0  0  0  0  0  0  0  0  0  0  0
   -0.9100   -2.0409   -0.8311 H   0  0  0  0  0  0  0  0  0  0  0  0
   -1.5398   -2.6103    0.7241 H   0  0  0  0  0  0  0  0  0  0  0  0
    0.1410   -2.2209    0.5184 H   0  0  0  0  0  0  0  0  0  0  0  0
    3.1924   -0.5683   -2.5252 H   0  0  0  0  0  0  0  0  0  0  0  0
    3.2649    1.1472   -2.7147 H   0  0  0  0  0  0  0  0  0  0  0  0
   -0.3241    2.7926   -0.6445 H   0  0  0  0  0  0  0  0  0  0  0  0
   -0.3300    2.3141    1.0459 H   0  0  0  0  0  0  0  0  0  0  0  0
   -1.8308    2.4313    0.1746 H   0  0  0  0  0  0  0  0  0  0  0  0
    0.8818    0.5444   -2.7088 H   0  0  0  0  0  0  0  0  0  0  0  0
   -2.7753   -2.0749   -1.4926 H   0  0  0  0  0  0  0  0  0  0  0  0
   -4.4001   -1.7041   -1.9048 H   0  0  0  0  0  0  0  0  0  0  0  0
   -4.0544   -2.4688   -0.3499 H   0  0  0  0  0  0  0  0  0  0  0  0
    2.4657   -2.5991    0.5238 H   0  0  0  0  0  0  0  0  0  0  0  0
    2.2334   -2.0008   -1.0827 H   0  0  0  0  0  0  0  0  0  0  0  0
    3.7254   -1.6349    2.1586 H   0  0  0  0  0  0  0  0  0  0  0  0
    3.9328    0.0819    2.3251 H   0  0  0  0  0  0  0  0  0  0  0  0
    5.0660   -0.8396    1.3271 H   0  0  0  0  0  0  0  0  0  0  0  0
   -6.1818   -1.0450   -1.1509 H   0  0  0  0  0  0  0  0  0  0  0  0
    5.6823    2.5090    0.2166 H   0  0  0  0  0  0  0  0  0  0  0  0
    5.0731    1.6664    1.6326 H   0  0  0  0  0  0  0  0  0  0  0  0
    4.1309    3.0476   -1.7925 H   0  0  0  0  0  0  0  0  0  0  0  0
    3.3269    3.9889   -0.5367 H   0  0  0  0  0  0  0  0  0  0  0  0
    2.3704    2.9305   -1.5224 H   0  0  0  0  0  0  0  0  0  0  0  0
    4.5787    3.3201    1.3403 H   0  0  0  0  0  0  0  0  0  0  0  0
   -5.5672    0.9463   -2.4484 H   0  0  0  0  0  0  0  0  0  0  0  0
   -8.3392   -0.1351   -0.3411 H   0  0  0  0  0  0  0  0  0  0  0  0
   -7.4799    0.7386    0.9290 H   0  0  0  0  0  0  0  0  0  0  0  0
   -7.2958    0.9511   -2.1770 H   0  0  0  0  0  0  0  0  0  0  0  0
   -6.2647    2.0149   -1.2154 H   0  0  0  0  0  0  0  0  0  0  0  0
   -7.4737   -1.0396    0.8807 H   0  0  0  0  0  0  0  0  0  0  0  0
    5.3091   -4.0823   -0.2074 H   0  0  0  0  0  0  0  0  0  0  0  0
  1 19  2  0  0  0  0
  2 33  1  0  0  0  0
  2 79  1  0  0  0  0
  3 33  2  0  0  0  0
  4  5  1  0  0  0  0
  4  7  1  0  0  0  0
  4 11  1  0  0  0  0
  4 21  1  0  0  0  0
  5 10  1  0  0  0  0
  5 14  1  0  0  0  0
  5 23  1  0  0  0  0
  6  9  1  0  0  0  0
  6 10  1  0  0  0  0
  6 13  1  0  0  0  0
  6 19  1  0  0  0  0
  7  8  1  0  0  0  0
  7 18  1  0  0  0  0
  7 34  1  0  0  0  0
  8 15  1  0  0  0  0
  8 16  1  0  0  0  0
  8 25  1  0  0  0  0
  9 12  1  0  0  0  0
  9 26  1  0  0  0  0
  9 27  1  0  0  0  0
 10 24  2  0  0  0  0
 11 13  1  0  0  0  0
 11 35  1  0  0  0  0
 11 36  1  0  0  0  0
 12 17  1  0  0  0  0
 12 22  1  0  0  0  0
 12 37  1  0  0  0  0
 13 38  1  0  0  0  0
 13 39  1  0  0  0  0
 14 16  1  0  0  0  0
 14 40  1  0  0  0  0
 14 41  1  0  0  0  0
 15 20  1  0  0  0  0
 15 28  1  0  0  0  0
 15 42  1  0  0  0  0
 16 43  1  0  0  0  0
 16 44  1  0  0  0  0
 17 19  1  0  0  0  0
 17 29  1  0  0  0  0
 17 30  1  0  0  0  0
 18 20  1  0  0  0  0
 18 45  1  0  0  0  0
 18 46  1  0  0  0  0
 20 47  1  0  0  0  0
 20 48  1  0  0  0  0
 21 49  1  0  0  0  0
 21 50  1  0  0  0  0
 21 51  1  0  0  0  0
 22 24  1  0  0  0  0
 22 52  1  0  0  0  0
 22 53  1  0  0  0  0
 23 54  1  0  0  0  0
 23 55  1  0  0  0  0
 23 56  1  0  0  0  0
 24 57  1  0  0  0  0
 25 58  1  0  0  0  0
 25 59  1  0  0  0  0
 25 60  1  0  0  0  0
 26 33  1  0  0  0  0
 26 61  1  0  0  0  0
 26 62  1  0  0  0  0
 27 63  1  0  0  0  0
 27 64  1  0  0  0  0
 27 65  1  0  0  0  0
 28 31  1  0  0  0  0
 28 32  1  0  0  0  0
 28 66  1  0  0  0  0
 29 67  1  0  0  0  0
 29 68  1  0  0  0  0
 29 72  1  0  0  0  0
 30 69  1  0  0  0  0
 30 70  1  0  0  0  0
 30 71  1  0  0  0  0
 31 73  1  0  0  0  0
 31 76  1  0  0  0  0
 31 77  1  0  0  0  0
 32 74  1  0  0  0  0
 32 75  1  0  0  0  0
 32 78  1  0  0  0  0
M  END
> <PUBCHEM_COMPOUND_CID>
91895417

> <PUBCHEM_CONFORMER_RMSD>
0.8

> <PUBCHEM_CONFORMER_DIVERSEORDER>
1
2

> <PUBCHEM_MMFF94_PARTIAL_CHARGES>
14
1 -0.57
10 -0.28
17 0.06
19 0.45
2 -0.65
22 0.14
24 -0.29
26 0.06
3 -0.57
33 0.66
5 0.14
57 0.15
6 0.2
79 0.5

> <PUBCHEM_EFFECTIVE_ROTOR_COUNT>
5

> <PUBCHEM_PHARMACOPHORE_FEATURES>
10
1 1 acceptor
1 2 acceptor
1 3 acceptor
3 17 29 30 hydrophobe
3 2 3 33 anion
3 28 31 32 hydrophobe
5 7 8 15 18 20 rings
6 4 5 6 10 11 13 rings
6 4 5 7 8 14 16 rings
8 6 9 10 12 17 19 22 24 rings

> <PUBCHEM_HEAVY_ATOM_COUNT>
33

> <PUBCHEM_ATOM_DEF_STEREO_COUNT>
8

> <PUBCHEM_ATOM_UDEF_STEREO_COUNT>
0

> <PUBCHEM_BOND_DEF_STEREO_COUNT>
0

> <PUBCHEM_BOND_UDEF_STEREO_COUNT>
0

> <PUBCHEM_ISOTOPIC_ATOM_COUNT>
0

> <PUBCHEM_COMPONENT_COUNT>
1

> <PUBCHEM_CACTVS_TAUTO_COUNT>
2

> <PUBCHEM_CONFORMER_ID>
057A367900000001

> <PUBCHEM_MMFF94_ENERGY>
159.8152

> <PUBCHEM_FEATURE_SELFOVERLAP>
50.885

> <PUBCHEM_SHAPE_FINGERPRINT>
10369192 42 17825675723068639548
10554248 39 17917990534737157373
11578080 2 18121220045719143321
12236239 1 17275387616523655137
12788726 201 16917080944559308979
13224815 77 17386279999640409273
13533116 47 18413109446138450399
13583140 156 18058451087574023859
13782708 43 18408044005445724227
14068700 675 18129383692544579418
15183329 4 16773799212805783641
15238133 3 16343713092668699923
15664445 248 17023194872054590804
15788980 27 18411417323998319103
15840311 113 18261395517120892421
17349148 13 12468624049851444581
1813 80 17702394957493894902
20511986 3 17916854833023517111
21033648 29 18189042252537616681
21279426 13 18188201001983844789
21781051 124 15430332308212621529
22149856 69 17968112915219891593
22182313 1 17967523571568582548
23559900 14 17603594023025786847
23569914 152 17326864320243608647
23569943 247 18191023396809154043
239999 70 17894630374690325024
3004659 81 18040719142835042062
32027 91 18335985263844666922
34797466 226 18187367666563961377
3633792 109 18342739581153469033
4093350 32 18409166602158134819
44802255 64 16452128432020331230
460360 51 18340213990023136305
46194498 28 18260550009082879422
5104073 3 16877655786583041953
513532 50 17894630361963724266
633830 44 17385439951529982079
6823239 73 17458346333941961868
70251023 43 18337955567385412466

> <PUBCHEM_SHAPE_MULTIPOLES>
661.52
13.45
2.63
1.94
17.62
0.49
0.15
1.04
-1.84
-4.72
-0.3
-0.15
-0.04
1.68

> <PUBCHEM_SHAPE_SELFOVERLAP>
1427.443

> <PUBCHEM_SHAPE_VOLUME>
361.3

> <PUBCHEM_COORDINATE_TYPE>
2
5
10

$$$$
