102004419
  -OEChem-09032005283D

 54 59  0     1  0  0  0  0  0999 V2000
    0.5713   -2.0084    1.0871 O   0  0  0  0  0  0  0  0  0  0  0  0
    0.0349    1.3978   -1.8792 O   0  0  0  0  0  0  0  0  0  0  0  0
    3.2429   -2.2052   -0.4015 O   0  0  0  0  0  0  0  0  0  0  0  0
   -0.8518    3.2447   -0.8118 O   0  0  0  0  0  0  0  0  0  0  0  0
   -1.5700   -2.3599    0.3636 N   0  0  1  0  0  0  0  0  0  0  0  0
    1.5250   -0.6173   -0.6483 N   0  0  1  0  0  0  0  0  0  0  0  0
   -0.2774    0.1795    0.7900 C   0  0  1  0  0  0  0  0  0  0  0  0
    0.3110   -1.0501    0.0201 C   0  0  2  0  0  0  0  0  0  0  0  0
   -0.7703   -1.7904   -0.7643 C   0  0  2  0  0  0  0  0  0  0  0  0
   -1.3231    1.0161   -0.0018 C   0  0  2  0  0  0  0  0  0  0  0  0
   -0.7857   -2.0184    1.5619 C   0  0  2  0  0  0  0  0  0  0  0  0
   -0.8786   -0.5494    2.0108 C   0  0  0  0  0  0  0  0  0  0  0  0
   -2.3129    0.1699   -0.8416 C   0  0  1  0  0  0  0  0  0  0  0  0
   -1.5629   -0.8707   -1.6855 C   0  0  0  0  0  0  0  0  0  0  0  0
    1.0147    0.9186    1.0343 C   0  0  0  0  0  0  0  0  0  0  0  0
   -2.9850   -1.9981    0.3794 C   0  0  0  0  0  0  0  0  0  0  0  0
   -3.3061   -0.5596    0.0436 C   0  0  0  0  0  0  0  0  0  0  0  0
    2.0021    0.4348    0.1497 C   0  0  0  0  0  0  0  0  0  0  0  0
   -0.7014    2.0357   -0.9254 C   0  0  0  0  0  0  0  0  0  0  0  0
    2.4175   -1.5182   -1.3373 C   0  0  0  0  0  0  0  0  0  0  0  0
    1.2673    1.9514    1.9226 C   0  0  0  0  0  0  0  0  0  0  0  0
    3.2647    1.0086    0.1516 C   0  0  0  0  0  0  0  0  0  0  0  0
   -4.4239    0.0330    0.4913 C   0  0  0  0  0  0  0  0  0  0  0  0
    2.5419    2.5158    1.9261 C   0  0  0  0  0  0  0  0  0  0  0  0
    3.5312    2.0502    1.0466 C   0  0  0  0  0  0  0  0  0  0  0  0
   -4.7916    1.4450    0.1929 C   0  0  0  0  0  0  0  0  0  0  0  0
    0.6844    2.2507   -2.8272 C   0  0  0  0  0  0  0  0  0  0  0  0
    4.1322   -3.1061   -1.0478 C   0  0  0  0  0  0  0  0  0  0  0  0
   -0.3508   -2.6283   -1.3317 H   0  0  0  0  0  0  0  0  0  0  0  0
   -1.8830    1.6159    0.7303 H   0  0  0  0  0  0  0  0  0  0  0  0
   -0.9118   -2.7329    2.3798 H   0  0  0  0  0  0  0  0  0  0  0  0
   -1.8908   -0.2381    2.2785 H   0  0  0  0  0  0  0  0  0  0  0  0
   -0.2514   -0.4000    2.8991 H   0  0  0  0  0  0  0  0  0  0  0  0
   -2.8492    0.8067   -1.5569 H   0  0  0  0  0  0  0  0  0  0  0  0
   -2.2973   -1.4732   -2.2404 H   0  0  0  0  0  0  0  0  0  0  0  0
   -0.9278   -0.4546   -2.4675 H   0  0  0  0  0  0  0  0  0  0  0  0
   -3.4249   -2.2839    1.3434 H   0  0  0  0  0  0  0  0  0  0  0  0
   -3.4862   -2.6268   -0.3686 H   0  0  0  0  0  0  0  0  0  0  0  0
    1.8432   -2.2456   -1.9214 H   0  0  0  0  0  0  0  0  0  0  0  0
    3.0443   -0.9577   -2.0416 H   0  0  0  0  0  0  0  0  0  0  0  0
    0.4967    2.3207    2.5902 H   0  0  0  0  0  0  0  0  0  0  0  0
    4.0459    0.6678   -0.5198 H   0  0  0  0  0  0  0  0  0  0  0  0
   -5.1186   -0.5304    1.1089 H   0  0  0  0  0  0  0  0  0  0  0  0
    2.7710    3.3284    2.6101 H   0  0  0  0  0  0  0  0  0  0  0  0
    4.5175    2.5067    1.0606 H   0  0  0  0  0  0  0  0  0  0  0  0
   -5.0398    1.9548    1.1302 H   0  0  0  0  0  0  0  0  0  0  0  0
   -5.6836    1.4653   -0.4414 H   0  0  0  0  0  0  0  0  0  0  0  0
   -4.0193    2.0424   -0.2933 H   0  0  0  0  0  0  0  0  0  0  0  0
    1.2573    1.6207   -3.5127 H   0  0  0  0  0  0  0  0  0  0  0  0
    1.3732    2.9306   -2.3169 H   0  0  0  0  0  0  0  0  0  0  0  0
   -0.0592    2.8111   -3.4015 H   0  0  0  0  0  0  0  0  0  0  0  0
    4.7373   -3.6002   -0.2831 H   0  0  0  0  0  0  0  0  0  0  0  0
    4.7992   -2.5653   -1.7260 H   0  0  0  0  0  0  0  0  0  0  0  0
    3.5722   -3.8689   -1.5973 H   0  0  0  0  0  0  0  0  0  0  0  0
  1  8  1  0  0  0  0
  1 11  1  0  0  0  0
  2 19  1  0  0  0  0
  2 27  1  0  0  0  0
  3 20  1  0  0  0  0
  3 28  1  0  0  0  0
  4 19  2  0  0  0  0
  5  9  1  0  0  0  0
  5 11  1  0  0  0  0
  5 16  1  0  0  0  0
  6  8  1  0  0  0  0
  6 18  1  0  0  0  0
  6 20  1  0  0  0  0
  7  8  1  0  0  0  0
  7 10  1  0  0  0  0
  7 12  1  0  0  0  0
  7 15  1  0  0  0  0
  8  9  1  0  0  0  0
  9 14  1  0  0  0  0
  9 29  1  0  0  0  0
 10 13  1  0  0  0  0
 10 19  1  0  0  0  0
 10 30  1  0  0  0  0
 11 12  1  0  0  0  0
 11 31  1  0  0  0  0
 12 32  1  0  0  0  0
 12 33  1  0  0  0  0
 13 14  1  0  0  0  0
 13 17  1  0  0  0  0
 13 34  1  0  0  0  0
 14 35  1  0  0  0  0
 14 36  1  0  0  0  0
 15 18  1  0  0  0  0
 15 21  2  0  0  0  0
 16 17  1  0  0  0  0
 16 37  1  0  0  0  0
 16 38  1  0  0  0  0
 17 23  2  0  0  0  0
 18 22  2  0  0  0  0
 20 39  1  0  0  0  0
 20 40  1  0  0  0  0
 21 24  1  0  0  0  0
 21 41  1  0  0  0  0
 22 25  1  0  0  0  0
 22 42  1  0  0  0  0
 23 26  1  0  0  0  0
 23 43  1  0  0  0  0
 24 25  2  0  0  0  0
 24 44  1  0  0  0  0
 25 45  1  0  0  0  0
 26 46  1  0  0  0  0
 26 47  1  0  0  0  0
 26 48  1  0  0  0  0
 27 49  1  0  0  0  0
 27 50  1  0  0  0  0
 27 51  1  0  0  0  0
 28 52  1  0  0  0  0
 28 53  1  0  0  0  0
 28 54  1  0  0  0  0
M  END
> <PUBCHEM_COMPOUND_CID>
102004419

> <PUBCHEM_CONFORMER_RMSD>
0.8

> <PUBCHEM_CONFORMER_DIVERSEORDER>
1
8
4
9
5
2
3
6
7

> <PUBCHEM_MMFF94_PARTIAL_CHARGES>
31
1 -0.56
10 0.06
11 0.55
13 0.14
15 -0.14
16 0.41
17 -0.28
18 0.1
19 0.66
2 -0.43
20 0.65
21 -0.15
22 -0.15
23 -0.29
24 -0.15
25 -0.15
26 0.14
27 0.28
28 0.28
3 -0.56
4 -0.57
41 0.15
42 0.15
43 0.15
44 0.15
45 0.15
5 -0.81
6 -0.84
7 0.14
8 0.65
9 0.27

> <PUBCHEM_EFFECTIVE_ROTOR_COUNT>
5.2

> <PUBCHEM_PHARMACOPHORE_FEATURES>
11
1 1 acceptor
1 26 hydrophobe
1 3 acceptor
1 4 acceptor
1 5 cation
1 6 cation
5 6 7 8 15 18 rings
6 15 18 21 22 24 25 rings
6 5 9 13 14 16 17 rings
6 7 8 9 10 13 14 rings
7 1 5 7 8 9 11 12 rings

> <PUBCHEM_HEAVY_ATOM_COUNT>
28

> <PUBCHEM_ATOM_DEF_STEREO_COUNT>
4

> <PUBCHEM_ATOM_UDEF_STEREO_COUNT>
2

> <PUBCHEM_BOND_DEF_STEREO_COUNT>
1

> <PUBCHEM_BOND_UDEF_STEREO_COUNT>
0

> <PUBCHEM_ISOTOPIC_ATOM_COUNT>
0

> <PUBCHEM_COMPONENT_COUNT>
1

> <PUBCHEM_CACTVS_TAUTO_COUNT>
2

> <PUBCHEM_CONFORMER_ID>
061476C300000001

> <PUBCHEM_MMFF94_ENERGY>
123.5948

> <PUBCHEM_FEATURE_SELFOVERLAP>
58.786

> <PUBCHEM_SHAPE_FINGERPRINT>
10165383 225 17396988959338124268
10863032 1 18060416962735260859
10948715 1 18129939095897115513
1100329 8 16823898132937781699
11578080 2 18198645386646108560
12422481 6 18266718277983817360
13140716 1 18261943094542206259
13149001 5 17980176618617013020
13583140 156 17702387453890499459
14022347 108 17603590720222231825
14178342 30 18122901203245370531
14955137 171 17968384545340593377
1601671 61 17604149204164280045
16945 1 17845077644483800907
17980427 23 17756412017466278244
20600515 1 17604429712192996044
20691752 17 17894901919634147019
20832881 197 18198069075080870211
21330990 113 18268985561075826800
22149856 69 18266479736603075555
22182313 1 18115572773815747317
23419403 2 18268699541860076788
23559900 14 18410858798072280700
238 59 17472945456284272029
2748010 2 18261944215517802183
3286 77 18271811159565917092
350125 39 18118398445326062537
394222 165 16343131558407599976
5265222 85 17981327009092697560
57527306 92 16552538753365758848
70251023 43 18055606479168318207

> <PUBCHEM_SHAPE_MULTIPOLES>
542.79
6.14
3.41
2.01
2
0.35
-0.54
0.41
0.5
-2.39
-0.34
-0.63
-0.91
1.68

> <PUBCHEM_SHAPE_SELFOVERLAP>
1225.607

> <PUBCHEM_SHAPE_VOLUME>
284

> <PUBCHEM_COORDINATE_TYPE>
2
5
10

$$$$
