15558574
  -OEChem-09032003073D

 50 54  0     1  0  0  0  0  0999 V2000
   -3.3704   -2.3244    0.2946 O   0  0  0  0  0  0  0  0  0  0  0  0
   -0.1705   -2.5858   -0.2702 O   0  0  0  0  0  0  0  0  0  0  0  0
   -0.5387   -1.5437    1.7583 O   0  0  0  0  0  0  0  0  0  0  0  0
   -1.0526    1.4842   -1.2577 N   0  0  2  0  0  0  0  0  0  0  0  0
    2.0311    1.8007    0.8066 N   0  0  0  0  0  0  0  0  0  0  0  0
   -1.6491   -0.7578   -0.2443 C   0  0  1  0  0  0  0  0  0  0  0  0
   -0.9391   -0.0093   -1.4412 C   0  0  2  0  0  0  0  0  0  0  0  0
   -2.2878    0.3053    0.7074 C   0  0  1  0  0  0  0  0  0  0  0  0
   -0.4027    1.8658    0.0402 C   0  0  1  0  0  0  0  0  0  0  0  0
   -1.2034    1.2792    1.2302 C   0  0  0  0  0  0  0  0  0  0  0  0
    0.5532   -0.3792   -1.7073 C   0  0  0  0  0  0  0  0  0  0  0  0
   -2.4852    1.8749   -1.2336 C   0  0  0  0  0  0  0  0  0  0  0  0
   -3.2158    1.1794   -0.1126 C   0  0  0  0  0  0  0  0  0  0  0  0
    1.0010    1.3474    0.0356 C   0  0  0  0  0  0  0  0  0  0  0  0
    1.4577    0.3046   -0.7400 C   0  0  0  0  0  0  0  0  0  0  0  0
   -2.7285   -1.7127   -0.8014 C   0  0  0  0  0  0  0  0  0  0  0  0
   -0.7309   -1.6566    0.5552 C   0  0  0  0  0  0  0  0  0  0  0  0
    2.8277    0.1042   -0.4256 C   0  0  0  0  0  0  0  0  0  0  0  0
   -4.5242    1.3292    0.1272 C   0  0  0  0  0  0  0  0  0  0  0  0
    3.1624    1.0538    0.5478 C   0  0  0  0  0  0  0  0  0  0  0  0
    3.8222   -0.7889   -0.8712 C   0  0  0  0  0  0  0  0  0  0  0  0
   -5.2527    0.6446    1.2337 C   0  0  0  0  0  0  0  0  0  0  0  0
    4.4461    1.1474    1.0972 C   0  0  0  0  0  0  0  0  0  0  0  0
    5.1094   -0.7047   -0.3287 C   0  0  0  0  0  0  0  0  0  0  0  0
    0.7263   -3.5064    0.3594 C   0  0  0  0  0  0  0  0  0  0  0  0
    5.4143    0.2489    0.6403 C   0  0  0  0  0  0  0  0  0  0  0  0
   -1.4672   -0.2561   -2.3732 H   0  0  0  0  0  0  0  0  0  0  0  0
   -2.7672   -0.1584    1.5732 H   0  0  0  0  0  0  0  0  0  0  0  0
   -0.3694    2.9602    0.1162 H   0  0  0  0  0  0  0  0  0  0  0  0
   -0.5510    0.8068    1.9711 H   0  0  0  0  0  0  0  0  0  0  0  0
   -1.6976    2.1050    1.7625 H   0  0  0  0  0  0  0  0  0  0  0  0
    0.8061    0.0412   -2.6937 H   0  0  0  0  0  0  0  0  0  0  0  0
    0.7595   -1.4406   -1.8293 H   0  0  0  0  0  0  0  0  0  0  0  0
   -2.9433    1.6256   -2.1983 H   0  0  0  0  0  0  0  0  0  0  0  0
   -2.5576    2.9629   -1.1151 H   0  0  0  0  0  0  0  0  0  0  0  0
   -2.3056   -2.4941   -1.4425 H   0  0  0  0  0  0  0  0  0  0  0  0
   -3.4807   -1.1816   -1.3938 H   0  0  0  0  0  0  0  0  0  0  0  0
    1.9761    2.5577    1.4743 H   0  0  0  0  0  0  0  0  0  0  0  0
   -5.1056    1.9961   -0.5042 H   0  0  0  0  0  0  0  0  0  0  0  0
   -4.0557   -2.9138   -0.0636 H   0  0  0  0  0  0  0  0  0  0  0  0
    3.5992   -1.5384   -1.6252 H   0  0  0  0  0  0  0  0  0  0  0  0
   -5.2957    1.2905    2.1157 H   0  0  0  0  0  0  0  0  0  0  0  0
   -4.8338   -0.3231    1.5144 H   0  0  0  0  0  0  0  0  0  0  0  0
   -6.2825    0.4494    0.9142 H   0  0  0  0  0  0  0  0  0  0  0  0
    4.6859    1.8899    1.8510 H   0  0  0  0  0  0  0  0  0  0  0  0
    5.8794   -1.3923   -0.6682 H   0  0  0  0  0  0  0  0  0  0  0  0
    0.1894   -4.1099    1.0972 H   0  0  0  0  0  0  0  0  0  0  0  0
    1.5558   -2.9688    0.8287 H   0  0  0  0  0  0  0  0  0  0  0  0
    1.1294   -4.1685   -0.4113 H   0  0  0  0  0  0  0  0  0  0  0  0
    6.4210    0.2962    1.0478 H   0  0  0  0  0  0  0  0  0  0  0  0
  1 16  1  0  0  0  0
  1 40  1  0  0  0  0
  2 17  1  0  0  0  0
  2 25  1  0  0  0  0
  3 17  2  0  0  0  0
  4  7  1  0  0  0  0
  4  9  1  0  0  0  0
  4 12  1  0  0  0  0
  5 14  1  0  0  0  0
  5 20  1  0  0  0  0
  5 38  1  0  0  0  0
  6  7  1  0  0  0  0
  6  8  1  0  0  0  0
  6 16  1  0  0  0  0
  6 17  1  0  0  0  0
  7 11  1  0  0  0  0
  7 27  1  0  0  0  0
  8 10  1  0  0  0  0
  8 13  1  0  0  0  0
  8 28  1  0  0  0  0
  9 10  1  0  0  0  0
  9 14  1  0  0  0  0
  9 29  1  0  0  0  0
 10 30  1  0  0  0  0
 10 31  1  0  0  0  0
 11 15  1  0  0  0  0
 11 32  1  0  0  0  0
 11 33  1  0  0  0  0
 12 13  1  0  0  0  0
 12 34  1  0  0  0  0
 12 35  1  0  0  0  0
 13 19  2  0  0  0  0
 14 15  2  0  0  0  0
 15 18  1  0  0  0  0
 16 36  1  0  0  0  0
 16 37  1  0  0  0  0
 18 20  1  0  0  0  0
 18 21  2  0  0  0  0
 19 22  1  0  0  0  0
 19 39  1  0  0  0  0
 20 23  2  0  0  0  0
 21 24  1  0  0  0  0
 21 41  1  0  0  0  0
 22 42  1  0  0  0  0
 22 43  1  0  0  0  0
 22 44  1  0  0  0  0
 23 26  1  0  0  0  0
 23 45  1  0  0  0  0
 24 26  2  0  0  0  0
 24 46  1  0  0  0  0
 25 47  1  0  0  0  0
 25 48  1  0  0  0  0
 25 49  1  0  0  0  0
 26 50  1  0  0  0  0
M  END
> <PUBCHEM_COMPOUND_CID>
15558574

> <PUBCHEM_CONFORMER_RMSD>
0.8

> <PUBCHEM_CONFORMER_DIVERSEORDER>
1
2

> <PUBCHEM_MMFF94_PARTIAL_CHARGES>
31
1 -0.68
11 0.18
12 0.41
13 -0.28
14 -0.33
15 -0.18
16 0.28
17 0.66
19 -0.29
2 -0.43
20 -0.15
21 -0.15
22 0.14
23 -0.15
24 -0.15
25 0.28
26 -0.15
3 -0.57
38 0.27
39 0.15
4 -0.81
40 0.4
41 0.15
45 0.15
46 0.15
5 0.03
50 0.15
6 0.06
7 0.27
8 0.14
9 0.45

> <PUBCHEM_EFFECTIVE_ROTOR_COUNT>
3.8

> <PUBCHEM_PHARMACOPHORE_FEATURES>
11
1 1 acceptor
1 1 donor
1 22 hydrophobe
1 3 acceptor
1 4 cation
1 5 cation
1 5 donor
5 5 14 15 18 20 rings
6 18 20 21 23 24 26 rings
6 4 7 9 11 14 15 rings
8 4 6 7 8 9 10 12 13 rings

> <PUBCHEM_HEAVY_ATOM_COUNT>
26

> <PUBCHEM_ATOM_DEF_STEREO_COUNT>
4

> <PUBCHEM_ATOM_UDEF_STEREO_COUNT>
0

> <PUBCHEM_BOND_DEF_STEREO_COUNT>
1

> <PUBCHEM_BOND_UDEF_STEREO_COUNT>
0

> <PUBCHEM_ISOTOPIC_ATOM_COUNT>
0

> <PUBCHEM_COMPONENT_COUNT>
1

> <PUBCHEM_CACTVS_TAUTO_COUNT>
1

> <PUBCHEM_CONFORMER_ID>
00ED67AE00000001

> <PUBCHEM_MMFF94_ENERGY>
83.9545

> <PUBCHEM_FEATURE_SELFOVERLAP>
56.33

> <PUBCHEM_SHAPE_FINGERPRINT>
10863032 1 17989205970985902053
10948715 1 18131071485457513101
11115154 58 12180128735586633179
11370993 70 18411696578371481826
11720765 8 16332975563208690967
12011746 2 18341339894483006148
12035758 1 18411142441353543569
12236239 1 16153432722799491468
12422481 6 18042672910573045618
12592029 89 18261957332083946579
12633257 1 18412830213272032984
13004483 165 17694206078026342462
13140716 1 18339929324159985473
13224815 77 18131072675569746524
13583140 156 15984817181377373262
15196674 1 18342738550614518816
15209289 33 18408603690426882802
16752209 62 18261381287086716026
16945 1 18338791226577495501
1813 80 17312823788178337596
18769570 83 14189297019634302267
19141452 34 18341896307279976877
19930381 70 17767693762802953550
200 152 16988553615375058820
20028762 73 18270685397779380679
20905425 154 17976825280904549183
21033648 29 18338781334978402976
21330990 113 18261112954683278285
22182313 1 17751644243723188525
22956985 138 17098050520963485227
23402539 116 18272645774785476773
23419403 2 17345178111974085305
23559900 14 18343584028238951820
296302 2 16774080678364390949
3383291 50 18196088842604572578
392239 28 18130523993518548393
404807 14 14183430957570273204
4340502 62 18271536308267670345
465052 167 16950865673054022681
5104073 3 18271798069122888448
5265222 85 18261689133784902590
58807428 26 18408885122459435835
59755656 215 18336547101580107567
9709674 26 18268989955022114190

> <PUBCHEM_SHAPE_MULTIPOLES>
507.5
9
2.66
1.36
4.91
2.14
0.1
-2.13
-2.06
-0.87
-0.34
-0.27
-0.08
0.58

> <PUBCHEM_SHAPE_SELFOVERLAP>
1136.003

> <PUBCHEM_SHAPE_VOLUME>
266.3

> <PUBCHEM_COORDINATE_TYPE>
2
5
10

$$$$
