101589338
  -OEChem-09032002503D

 62 66  0     1  0  0  0  0  0999 V2000
    1.3411    1.3776    3.1232 O   0  0  0  0  0  0  0  0  0  0  0  0
   -2.4091   -1.2517    0.9647 O   0  0  0  0  0  0  0  0  0  0  0  0
   -2.8406   -0.3097   -1.3476 O   0  0  0  0  0  0  0  0  0  0  0  0
   -0.9947   -0.0379   -2.7097 O   0  0  0  0  0  0  0  0  0  0  0  0
   -2.4092   -3.4350    1.7202 O   0  0  0  0  0  0  0  0  0  0  0  0
    1.6939    2.2402    0.2479 N   0  3  1  0  0  0  0  0  0  0  0  0
    2.7978    0.0766    0.8879 N   0  0  0  0  0  0  0  0  0  0  0  0
    1.5094    0.7671    0.7286 C   0  0  2  0  0  0  0  0  0  0  0  0
    0.8016    0.0660   -0.5293 C   0  0  1  0  0  0  0  0  0  0  0  0
   -0.7438   -0.0970   -0.3005 C   0  0  2  0  0  0  0  0  0  0  0  0
    1.1499    0.9842   -1.7415 C   0  0  0  0  0  0  0  0  0  0  0  0
   -1.2694    1.1028    0.5647 C   0  0  1  0  0  0  0  0  0  0  0  0
    0.7341    0.6373    2.0676 C   0  0  2  0  0  0  0  0  0  0  0  0
    2.0623    2.0774   -1.2304 C   0  0  0  0  0  0  0  0  0  0  0  0
    0.4104    3.1021    0.3913 C   0  0  0  0  0  0  0  0  0  0  0  0
   -0.7508    1.0060    2.0074 C   0  0  0  0  0  0  0  0  0  0  0  0
    1.6279   -1.1986   -0.6542 C   0  0  0  0  0  0  0  0  0  0  0  0
   -0.9119    2.4781    0.0013 C   0  0  0  0  0  0  0  0  0  0  0  0
    2.8355    2.9908    0.9389 C   0  0  0  0  0  0  0  0  0  0  0  0
    2.7429   -1.1197    0.1847 C   0  0  0  0  0  0  0  0  0  0  0  0
   -1.1457   -1.4363    0.3718 C   0  0  0  0  0  0  0  0  0  0  0  0
   -1.5126   -0.1407   -1.6060 C   0  0  0  0  0  0  0  0  0  0  0  0
    1.4511   -2.2866   -1.4980 C   0  0  0  0  0  0  0  0  0  0  0  0
   -1.7773    3.1547   -0.7724 C   0  0  0  0  0  0  0  0  0  0  0  0
    3.7001   -2.1216    0.1925 C   0  0  0  0  0  0  0  0  0  0  0  0
    2.3979   -3.3121   -1.4761 C   0  0  0  0  0  0  0  0  0  0  0  0
    3.5160   -3.2302   -0.6357 C   0  0  0  0  0  0  0  0  0  0  0  0
   -3.0973    2.6189   -1.2035 C   0  0  0  0  0  0  0  0  0  0  0  0
   -2.9405   -2.3377    1.6167 C   0  0  0  0  0  0  0  0  0  0  0  0
   -3.6884   -0.3691   -2.4991 C   0  0  0  0  0  0  0  0  0  0  0  0
   -4.2804   -1.9961    2.1946 C   0  0  0  0  0  0  0  0  0  0  0  0
    0.3020    1.5404   -2.1441 H   0  0  0  0  0  0  0  0  0  0  0  0
    1.6111    0.4578   -2.5853 H   0  0  0  0  0  0  0  0  0  0  0  0
   -2.3539    1.0524    0.6815 H   0  0  0  0  0  0  0  0  0  0  0  0
    0.7996   -0.4092    2.3917 H   0  0  0  0  0  0  0  0  0  0  0  0
    3.1122    1.7668   -1.2866 H   0  0  0  0  0  0  0  0  0  0  0  0
    1.9418    3.0360   -1.7459 H   0  0  0  0  0  0  0  0  0  0  0  0
    0.6007    4.0177   -0.1837 H   0  0  0  0  0  0  0  0  0  0  0  0
    0.3641    3.4108    1.4425 H   0  0  0  0  0  0  0  0  0  0  0  0
   -0.9533    1.9366    2.5552 H   0  0  0  0  0  0  0  0  0  0  0  0
   -1.3120    0.2523    2.5735 H   0  0  0  0  0  0  0  0  0  0  0  0
    3.4067    0.2134    1.6823 H   0  0  0  0  0  0  0  0  0  0  0  0
    3.7665    2.4316    0.8169 H   0  0  0  0  0  0  0  0  0  0  0  0
    2.9310    3.9714    0.4618 H   0  0  0  0  0  0  0  0  0  0  0  0
    2.5957    3.1149    1.9959 H   0  0  0  0  0  0  0  0  0  0  0  0
   -0.4323   -1.7288    1.1482 H   0  0  0  0  0  0  0  0  0  0  0  0
   -1.2003   -2.2566   -0.3557 H   0  0  0  0  0  0  0  0  0  0  0  0
    0.6028   -2.3452   -2.1711 H   0  0  0  0  0  0  0  0  0  0  0  0
    0.8443    1.1925    3.9384 H   0  0  0  0  0  0  0  0  0  0  0  0
   -1.5077    4.1377   -1.1502 H   0  0  0  0  0  0  0  0  0  0  0  0
    4.5787   -2.0529    0.8258 H   0  0  0  0  0  0  0  0  0  0  0  0
    2.2745   -4.1748   -2.1250 H   0  0  0  0  0  0  0  0  0  0  0  0
    4.2511   -4.0303   -0.6385 H   0  0  0  0  0  0  0  0  0  0  0  0
   -3.0328    2.2551   -2.2302 H   0  0  0  0  0  0  0  0  0  0  0  0
   -3.8012    3.4610   -1.2284 H   0  0  0  0  0  0  0  0  0  0  0  0
   -3.5744    1.8920   -0.5511 H   0  0  0  0  0  0  0  0  0  0  0  0
   -4.6821   -0.0191   -2.2067 H   0  0  0  0  0  0  0  0  0  0  0  0
   -3.7676   -1.4096   -2.8263 H   0  0  0  0  0  0  0  0  0  0  0  0
   -3.3294    0.2539   -3.3237 H   0  0  0  0  0  0  0  0  0  0  0  0
   -4.1739   -1.1838    2.9178 H   0  0  0  0  0  0  0  0  0  0  0  0
   -4.6885   -2.8709    2.7086 H   0  0  0  0  0  0  0  0  0  0  0  0
   -4.9659   -1.7104    1.3929 H   0  0  0  0  0  0  0  0  0  0  0  0
  1 13  1  0  0  0  0
  1 49  1  0  0  0  0
  2 21  1  0  0  0  0
  2 29  1  0  0  0  0
  3 22  1  0  0  0  0
  3 30  1  0  0  0  0
  4 22  2  0  0  0  0
  5 29  2  0  0  0  0
  6  8  1  0  0  0  0
  6 14  1  0  0  0  0
  6 15  1  0  0  0  0
  6 19  1  0  0  0  0
  7  8  1  0  0  0  0
  7 20  1  0  0  0  0
  7 42  1  0  0  0  0
  8  9  1  0  0  0  0
  8 13  1  0  0  0  0
  9 10  1  0  0  0  0
  9 11  1  0  0  0  0
  9 17  1  0  0  0  0
 10 12  1  0  0  0  0
 10 21  1  0  0  0  0
 10 22  1  0  0  0  0
 11 14  1  0  0  0  0
 11 32  1  0  0  0  0
 11 33  1  0  0  0  0
 12 16  1  0  0  0  0
 12 18  1  0  0  0  0
 12 34  1  0  0  0  0
 13 16  1  0  0  0  0
 13 35  1  0  0  0  0
 14 36  1  0  0  0  0
 14 37  1  0  0  0  0
 15 18  1  0  0  0  0
 15 38  1  0  0  0  0
 15 39  1  0  0  0  0
 16 40  1  0  0  0  0
 16 41  1  0  0  0  0
 17 20  1  0  0  0  0
 17 23  2  0  0  0  0
 18 24  2  0  0  0  0
 19 43  1  0  0  0  0
 19 44  1  0  0  0  0
 19 45  1  0  0  0  0
 20 25  2  0  0  0  0
 21 46  1  0  0  0  0
 21 47  1  0  0  0  0
 23 26  1  0  0  0  0
 23 48  1  0  0  0  0
 24 28  1  0  0  0  0
 24 50  1  0  0  0  0
 25 27  1  0  0  0  0
 25 51  1  0  0  0  0
 26 27  2  0  0  0  0
 26 52  1  0  0  0  0
 27 53  1  0  0  0  0
 28 54  1  0  0  0  0
 28 55  1  0  0  0  0
 28 56  1  0  0  0  0
 29 31  1  0  0  0  0
 30 57  1  0  0  0  0
 30 58  1  0  0  0  0
 30 59  1  0  0  0  0
 31 60  1  0  0  0  0
 31 61  1  0  0  0  0
 31 62  1  0  0  0  0
M  CHG  1   6   1
M  END
> <PUBCHEM_COMPOUND_CID>
101589338

> <PUBCHEM_CONFORMER_RMSD>
0.8

> <PUBCHEM_CONFORMER_DIVERSEORDER>
1
7
6
4
9
2
8
3
10
5

> <PUBCHEM_MMFF94_PARTIAL_CHARGES>
36
1 -0.68
10 0.06
12 0.14
13 0.28
14 0.5
15 0.64
17 -0.14
18 -0.28
19 0.5
2 -0.43
20 0.1
21 0.28
22 0.66
23 -0.15
24 -0.29
25 -0.15
26 -0.15
27 -0.15
28 0.14
29 0.66
3 -0.43
30 0.28
31 0.06
4 -0.57
42 0.4
48 0.15
49 0.4
5 -0.57
50 0.15
51 0.15
52 0.15
53 0.15
6 -1.01
7 -0.87
8 0.87
9 0.14

> <PUBCHEM_EFFECTIVE_ROTOR_COUNT>
6.4

> <PUBCHEM_PHARMACOPHORE_FEATURES>
12
1 1 acceptor
1 1 donor
1 28 hydrophobe
1 4 acceptor
1 5 acceptor
1 6 cation
1 7 cation
1 7 donor
5 6 8 9 11 14 rings
5 7 8 9 17 20 rings
6 17 20 23 25 26 27 rings
9 6 8 9 10 12 13 15 16 18 rings

> <PUBCHEM_HEAVY_ATOM_COUNT>
31

> <PUBCHEM_ATOM_DEF_STEREO_COUNT>
4

> <PUBCHEM_ATOM_UDEF_STEREO_COUNT>
2

> <PUBCHEM_BOND_DEF_STEREO_COUNT>
1

> <PUBCHEM_BOND_UDEF_STEREO_COUNT>
0

> <PUBCHEM_ISOTOPIC_ATOM_COUNT>
0

> <PUBCHEM_COMPONENT_COUNT>
1

> <PUBCHEM_CACTVS_TAUTO_COUNT>
6

> <PUBCHEM_CONFORMER_ID>
060E215A00000001

> <PUBCHEM_MMFF94_ENERGY>
148.6458

> <PUBCHEM_FEATURE_SELFOVERLAP>
62.223

> <PUBCHEM_SHAPE_FINGERPRINT>
10064457 181 17120030162055136890
10863032 1 18336563667058302640
11578080 2 17895494590703280493
12173636 292 13552629200806172270
12788726 201 17548130031489814418
13140716 1 18339094691454329049
13583140 156 17487629747948646483
14223421 5 18409737287041726968
14790565 3 17472723775699980137
15664445 248 16518800613093012871
16945 1 18341602763735178388
17876694 64 13828691290415378233
17980427 23 14260482713662485755
19315092 285 16555899174870406215
20600515 1 17824242840247025316
20691752 17 16979788459028709941
229495 10 18202009845277699681
23419403 2 18334291015347037950
238 59 17763994237035266159
25222932 49 17052214415992129531
3380486 145 17774149090063720114
57527585 103 17980225001118335743
70251023 43 18201423754209682615
81228 2 17622733020605051654
9981440 41 17838578439773951768

> <PUBCHEM_SHAPE_MULTIPOLES>
598.66
5.64
4.36
2.51
0.2
0.06
0.29
4.14
-0.49
-0.07
0.89
1.59
0.46
2.6

> <PUBCHEM_SHAPE_SELFOVERLAP>
1316.739

> <PUBCHEM_SHAPE_VOLUME>
316.8

> <PUBCHEM_COORDINATE_TYPE>
2
5
10

$$$$
