101589339
  -OEChem-09032003183D

 43 46  0     1  0  0  0  0  0999 V2000
   -2.4417    2.2312    0.8343 O   0  0  0  0  0  0  0  0  0  0  0  0
   -0.1957    2.7618   -1.0992 O   0  0  0  0  0  0  0  0  0  0  0  0
   -1.5620    1.2979   -2.1883 O   0  0  0  0  0  0  0  0  0  0  0  0
   -3.1581   -3.0275    0.1411 N   0  0  0  0  0  0  0  0  0  0  0  0
    1.5027   -0.2019   -0.8536 N   0  0  0  0  0  0  0  0  0  0  0  0
   -1.4850   -0.6062   -0.1951 C   0  0  1  0  0  0  0  0  0  0  0  0
   -0.6928    0.7311    0.0231 C   0  0  1  0  0  0  0  0  0  0  0  0
   -1.0836   -1.7691    0.7500 C   0  0  0  0  0  0  0  0  0  0  0  0
   -3.0114   -0.6016   -0.1705 C   0  0  0  0  0  0  0  0  0  0  0  0
   -1.2355    1.5695    1.1995 C   0  0  0  0  0  0  0  0  0  0  0  0
    0.8210    0.4463    0.1411 C   0  0  0  0  0  0  0  0  0  0  0  0
   -1.7034   -3.0997    0.2844 C   0  0  0  0  0  0  0  0  0  0  0  0
   -3.5686   -1.9069   -0.7128 C   0  0  0  0  0  0  0  0  0  0  0  0
   -0.8845    1.6003   -1.2174 C   0  0  0  0  0  0  0  0  0  0  0  0
   -3.8658    0.2825    0.3741 C   0  0  0  0  0  0  0  0  0  0  0  0
   -3.6220    1.5305    1.1567 C   0  0  0  0  0  0  0  0  0  0  0  0
    1.7151    0.7414    1.1443 C   0  0  0  0  0  0  0  0  0  0  0  0
    2.8298   -0.3334   -0.5122 C   0  0  0  0  0  0  0  0  0  0  0  0
    2.9910    0.2540    0.7446 C   0  0  0  0  0  0  0  0  0  0  0  0
    3.8892   -0.9210   -1.2125 C   0  0  0  0  0  0  0  0  0  0  0  0
    4.2711    0.2562    1.3331 C   0  0  0  0  0  0  0  0  0  0  0  0
    5.1500   -0.9073   -0.6089 C   0  0  0  0  0  0  0  0  0  0  0  0
    5.3401   -0.3283    0.6443 C   0  0  0  0  0  0  0  0  0  0  0  0
   -1.2082   -0.9453   -1.2071 H   0  0  0  0  0  0  0  0  0  0  0  0
    0.0003   -1.9131    0.7815 H   0  0  0  0  0  0  0  0  0  0  0  0
   -1.4031   -1.5496    1.7773 H   0  0  0  0  0  0  0  0  0  0  0  0
   -1.3611    0.9710    2.1107 H   0  0  0  0  0  0  0  0  0  0  0  0
   -0.5339    2.3716    1.4578 H   0  0  0  0  0  0  0  0  0  0  0  0
   -1.2592   -3.4015   -0.6720 H   0  0  0  0  0  0  0  0  0  0  0  0
   -1.4561   -3.8873    1.0047 H   0  0  0  0  0  0  0  0  0  0  0  0
   -4.6637   -1.8953   -0.7602 H   0  0  0  0  0  0  0  0  0  0  0  0
   -3.2263   -2.0659   -1.7429 H   0  0  0  0  0  0  0  0  0  0  0  0
   -3.5809   -2.9131    1.0627 H   0  0  0  0  0  0  0  0  0  0  0  0
   -4.9264    0.0306    0.3314 H   0  0  0  0  0  0  0  0  0  0  0  0
   -4.4475    2.2201    0.9464 H   0  0  0  0  0  0  0  0  0  0  0  0
   -3.6615    1.3205    2.2319 H   0  0  0  0  0  0  0  0  0  0  0  0
    1.0968   -0.5366   -1.7167 H   0  0  0  0  0  0  0  0  0  0  0  0
    1.4892    1.2482    2.0725 H   0  0  0  0  0  0  0  0  0  0  0  0
   -0.3051    3.3343   -1.8881 H   0  0  0  0  0  0  0  0  0  0  0  0
    3.7420   -1.3719   -2.1881 H   0  0  0  0  0  0  0  0  0  0  0  0
    4.4336    0.7040    2.3093 H   0  0  0  0  0  0  0  0  0  0  0  0
    5.9943   -1.3557   -1.1262 H   0  0  0  0  0  0  0  0  0  0  0  0
    6.3298   -0.3298    1.0935 H   0  0  0  0  0  0  0  0  0  0  0  0
  1 10  1  0  0  0  0
  1 16  1  0  0  0  0
  2 14  1  0  0  0  0
  2 39  1  0  0  0  0
  3 14  2  0  0  0  0
  4 12  1  0  0  0  0
  4 13  1  0  0  0  0
  4 33  1  0  0  0  0
  5 11  1  0  0  0  0
  5 18  1  0  0  0  0
  5 37  1  0  0  0  0
  6  7  1  0  0  0  0
  6  8  1  0  0  0  0
  6  9  1  0  0  0  0
  6 24  1  0  0  0  0
  7 10  1  0  0  0  0
  7 11  1  0  0  0  0
  7 14  1  0  0  0  0
  8 12  1  0  0  0  0
  8 25  1  0  0  0  0
  8 26  1  0  0  0  0
  9 13  1  0  0  0  0
  9 15  2  0  0  0  0
 10 27  1  0  0  0  0
 10 28  1  0  0  0  0
 11 17  2  0  0  0  0
 12 29  1  0  0  0  0
 12 30  1  0  0  0  0
 13 31  1  0  0  0  0
 13 32  1  0  0  0  0
 15 16  1  0  0  0  0
 15 34  1  0  0  0  0
 16 35  1  0  0  0  0
 16 36  1  0  0  0  0
 17 19  1  0  0  0  0
 17 38  1  0  0  0  0
 18 19  1  0  0  0  0
 18 20  2  0  0  0  0
 19 21  2  0  0  0  0
 20 22  1  0  0  0  0
 20 40  1  0  0  0  0
 21 23  1  0  0  0  0
 21 41  1  0  0  0  0
 22 23  2  0  0  0  0
 22 42  1  0  0  0  0
 23 43  1  0  0  0  0
M  END
> <PUBCHEM_COMPOUND_CID>
101589339

> <PUBCHEM_CONFORMER_RMSD>
0.6

> <PUBCHEM_CONFORMER_DIVERSEORDER>
3
7
21
9
2
8
13
18
14
1
17
12
20
19
16
4
15
11
5
10
6

> <PUBCHEM_MMFF94_PARTIAL_CHARGES>
30
1 -0.56
10 0.28
11 -0.33
12 0.27
13 0.41
14 0.66
15 -0.29
16 0.42
17 -0.15
18 -0.15
2 -0.65
20 -0.15
21 -0.15
22 -0.15
23 -0.15
3 -0.57
33 0.36
34 0.15
37 0.27
38 0.15
39 0.5
4 -0.9
40 0.15
41 0.15
42 0.15
43 0.15
5 0.03
6 0.14
7 0.24
9 -0.28

> <PUBCHEM_EFFECTIVE_ROTOR_COUNT>
3.6

> <PUBCHEM_PHARMACOPHORE_FEATURES>
12
1 1 acceptor
1 2 acceptor
1 3 acceptor
1 4 cation
1 4 donor
1 5 cation
1 5 donor
3 2 3 14 anion
5 5 11 17 18 19 rings
6 18 19 20 21 22 23 rings
6 4 6 8 9 12 13 rings
7 1 6 7 9 10 15 16 rings

> <PUBCHEM_HEAVY_ATOM_COUNT>
23

> <PUBCHEM_ATOM_DEF_STEREO_COUNT>
2

> <PUBCHEM_ATOM_UDEF_STEREO_COUNT>
0

> <PUBCHEM_BOND_DEF_STEREO_COUNT>
0

> <PUBCHEM_BOND_UDEF_STEREO_COUNT>
0

> <PUBCHEM_ISOTOPIC_ATOM_COUNT>
0

> <PUBCHEM_COMPONENT_COUNT>
1

> <PUBCHEM_CACTVS_TAUTO_COUNT>
7

> <PUBCHEM_CONFORMER_ID>
060E215B00000003

> <PUBCHEM_MMFF94_ENERGY>
61.8311

> <PUBCHEM_FEATURE_SELFOVERLAP>
61.055

> <PUBCHEM_SHAPE_FINGERPRINT>
11370993 144 17345770598048628114
11578080 2 14331680511250835795
12173636 292 18196091027866615685
12236239 1 17168147814886313068
12403814 3 17894916183062365965
12553582 1 18040150738373303650
12633257 1 18202293506165852657
12714826 92 17967526861466344221
13009979 54 18264220264811688729
13140716 1 18194407908004051163
13544653 18 18199748227063235063
13583140 156 18050812656221815352
13675066 3 17203323404015009776
14910302 57 18267310837721644230
15209289 33 18412548695271516915
16752209 62 17677592237980580143
16945 1 18411426120154612401
17357779 13 18269259326296052239
17804303 29 18342744039260937457
1813 80 18114465659911065477
19141452 34 18412266133799916443
200 152 16056594335409456585
20600515 1 18411149038333704316
21033648 29 18198616631919794401
21330990 113 18338242561389687039
23402539 116 18410566292875762087
23419403 2 17837174398206876629
23557571 272 18411976958406046292
23559900 14 18272646891767429656
4340502 62 18057052315573521633
4921388 177 18411420596452162378
5104073 3 18060415803468820146
59755656 520 18196089945613777013
602551 16 18410292506502479922
6992083 37 18261683644426443977
81228 2 18335139838202212603
9709674 26 18130791174374826042

> <PUBCHEM_SHAPE_MULTIPOLES>
445.76
9.05
2.68
1.38
10
1.06
0.34
2.63
-0.99
-3.45
-0.01
0.18
-0.56
0.24

> <PUBCHEM_SHAPE_SELFOVERLAP>
978.282

> <PUBCHEM_SHAPE_VOLUME>
237.5

> <PUBCHEM_COORDINATE_TYPE>
2
5
10

$$$$
