5472477
  -OEChem-09032005583D

 94103  0     1  0  0  0  0  0999 V2000
    4.0993   -1.8443   -0.5824 O   0  0  0  0  0  0  0  0  0  0  0  0
   -3.4918    4.6209    0.6486 O   0  0  0  0  0  0  0  0  0  0  0  0
    2.2656   -3.0321   -1.3328 O   0  0  0  0  0  0  0  0  0  0  0  0
    2.0917   -0.0474    0.3116 N   0  0  2  0  0  0  0  0  0  0  0  0
    4.0488    2.3477   -0.3068 N   0  0  1  0  0  0  0  0  0  0  0  0
   -4.7422    1.0859   -1.6059 N   0  0  1  0  0  0  0  0  0  0  0  0
   -2.3969   -1.8094   -1.4377 N   0  0  0  0  0  0  0  0  0  0  0  0
    1.8447    1.4028    0.5057 C   0  0  2  0  0  0  0  0  0  0  0  0
    2.5961    2.2495   -0.5444 C   0  0  2  0  0  0  0  0  0  0  0  0
    2.2706    1.6883    1.9823 C   0  0  2  0  0  0  0  0  0  0  0  0
    2.8784    0.2682   -2.0357 C   0  0  2  0  0  0  0  0  0  0  0  0
    2.3364    1.6975   -1.9602 C   0  0  0  0  0  0  0  0  0  0  0  0
    2.1373   -0.6493   -1.0186 C   0  0  1  0  0  0  0  0  0  0  0  0
    3.7505    2.0567    2.1648 C   0  0  0  0  0  0  0  0  0  0  0  0
    4.3068    2.9079    1.0242 C   0  0  0  0  0  0  0  0  0  0  0  0
    1.9973    0.3314    2.5861 C   0  0  0  0  0  0  0  0  0  0  0  0
    1.9208   -0.6310    1.5600 C   0  0  0  0  0  0  0  0  0  0  0  0
    4.8002    1.1040   -0.5496 C   0  0  0  0  0  0  0  0  0  0  0  0
    4.3798    0.3851   -1.8106 C   0  0  0  0  0  0  0  0  0  0  0  0
    0.3497    1.6574    0.3620 C   0  0  0  0  0  0  0  0  0  0  0  0
   -2.5168    1.9001    0.1046 C   0  0  1  0  0  0  0  0  0  0  0  0
    2.8114   -1.9867   -1.0067 C   0  0  0  0  0  0  0  0  0  0  0  0
   -3.9955    2.2040    0.4597 C   0  0  2  0  0  0  0  0  0  0  0  0
   -0.2215    2.8411    0.6020 C   0  0  0  0  0  0  0  0  0  0  0  0
   -4.9972    1.1782   -0.1457 C   0  0  2  0  0  0  0  0  0  0  0  0
    1.8654    0.0044    3.9262 C   0  0  0  0  0  0  0  0  0  0  0  0
    1.6896   -1.9549    1.8971 C   0  0  0  0  0  0  0  0  0  0  0  0
   -3.4047    0.4975   -1.8665 C   0  0  1  0  0  0  0  0  0  0  0  0
   -2.3524    1.5176   -1.3877 C   0  0  0  0  0  0  0  0  0  0  0  0
   -1.6380    3.0766    0.4679 C   0  0  0  0  0  0  0  0  0  0  0  0
    5.2734   -0.0849   -2.6946 C   0  0  0  0  0  0  0  0  0  0  0  0
   -4.9591   -0.2020    0.5947 C   0  0  0  0  0  0  0  0  0  0  0  0
   -3.2473   -0.7910   -1.1251 C   0  0  0  0  0  0  0  0  0  0  0  0
   -4.3281    3.6428    0.0196 C   0  0  0  0  0  0  0  0  0  0  0  0
   -3.9328   -1.1211    0.0225 C   0  0  0  0  0  0  0  0  0  0  0  0
    1.6381   -1.3297    4.2535 C   0  0  0  0  0  0  0  0  0  0  0  0
    1.5490   -2.3011    3.2467 C   0  0  0  0  0  0  0  0  0  0  0  0
   -2.1669    4.2836    0.7201 C   0  0  0  0  0  0  0  0  0  0  0  0
    4.9042   -0.7986   -3.9487 C   0  0  0  0  0  0  0  0  0  0  0  0
   -5.8145    0.4073   -2.3295 C   0  0  0  0  0  0  0  0  0  0  0  0
   -3.4808   -2.4029    0.4344 C   0  0  0  0  0  0  0  0  0  0  0  0
   -2.5175   -2.8115   -0.4966 C   0  0  0  0  0  0  0  0  0  0  0  0
    4.8641   -3.0524   -0.5224 C   0  0  0  0  0  0  0  0  0  0  0  0
   -1.4987   -1.8380   -2.5724 C   0  0  0  0  0  0  0  0  0  0  0  0
   -3.7955   -3.2627    1.5055 C   0  0  0  0  0  0  0  0  0  0  0  0
   -1.8526   -4.0393   -0.4012 C   0  0  0  0  0  0  0  0  0  0  0  0
   -3.1371   -4.4930    1.6108 C   0  0  0  0  0  0  0  0  0  0  0  0
   -2.1810   -4.8731    0.6714 C   0  0  0  0  0  0  0  0  0  0  0  0
    2.2193    3.2810   -0.5386 H   0  0  0  0  0  0  0  0  0  0  0  0
    1.6495    2.4526    2.4624 H   0  0  0  0  0  0  0  0  0  0  0  0
    2.6549   -0.1078   -3.0400 H   0  0  0  0  0  0  0  0  0  0  0  0
    2.8214    2.3373   -2.7104 H   0  0  0  0  0  0  0  0  0  0  0  0
    1.2660    1.7097   -2.1982 H   0  0  0  0  0  0  0  0  0  0  0  0
    1.1070   -0.7971   -1.3631 H   0  0  0  0  0  0  0  0  0  0  0  0
    4.3715    1.1593    2.2823 H   0  0  0  0  0  0  0  0  0  0  0  0
    3.8673    2.6023    3.1104 H   0  0  0  0  0  0  0  0  0  0  0  0
    3.8697    3.9134    1.0791 H   0  0  0  0  0  0  0  0  0  0  0  0
    5.3851    3.0511    1.1654 H   0  0  0  0  0  0  0  0  0  0  0  0
    4.7111    0.4079    0.2885 H   0  0  0  0  0  0  0  0  0  0  0  0
    5.8650    1.3634   -0.6095 H   0  0  0  0  0  0  0  0  0  0  0  0
   -0.2323    0.7819    0.0994 H   0  0  0  0  0  0  0  0  0  0  0  0
   -2.2422    1.0431    0.7333 H   0  0  0  0  0  0  0  0  0  0  0  0
   -4.0878    2.1784    1.5556 H   0  0  0  0  0  0  0  0  0  0  0  0
    0.3920    3.6909    0.8906 H   0  0  0  0  0  0  0  0  0  0  0  0
   -6.0013    1.5943    0.0163 H   0  0  0  0  0  0  0  0  0  0  0  0
    1.9378    0.7608    4.6999 H   0  0  0  0  0  0  0  0  0  0  0  0
    1.5881   -2.7341    1.1523 H   0  0  0  0  0  0  0  0  0  0  0  0
   -3.2779    0.3490   -2.9456 H   0  0  0  0  0  0  0  0  0  0  0  0
   -1.3541    1.1305   -1.6072 H   0  0  0  0  0  0  0  0  0  0  0  0
   -2.4480    2.4227   -2.0051 H   0  0  0  0  0  0  0  0  0  0  0  0
    6.3353    0.0476   -2.5048 H   0  0  0  0  0  0  0  0  0  0  0  0
   -5.9391   -0.6847    0.4876 H   0  0  0  0  0  0  0  0  0  0  0  0
   -4.7845   -0.0583    1.6669 H   0  0  0  0  0  0  0  0  0  0  0  0
   -4.2479    3.7721   -1.0664 H   0  0  0  0  0  0  0  0  0  0  0  0
   -5.3602    3.8876    0.2942 H   0  0  0  0  0  0  0  0  0  0  0  0
    1.5270   -1.6211    5.2941 H   0  0  0  0  0  0  0  0  0  0  0  0
    1.3629   -3.3372    3.5176 H   0  0  0  0  0  0  0  0  0  0  0  0
   -1.5909    5.1415    1.0430 H   0  0  0  0  0  0  0  0  0  0  0  0
    4.5958   -0.0900   -4.7232 H   0  0  0  0  0  0  0  0  0  0  0  0
    4.1214   -1.5467   -3.7940 H   0  0  0  0  0  0  0  0  0  0  0  0
    5.7785   -1.3405   -4.3259 H   0  0  0  0  0  0  0  0  0  0  0  0
   -5.6275    0.4468   -3.4083 H   0  0  0  0  0  0  0  0  0  0  0  0
   -6.7687    0.9188   -2.1617 H   0  0  0  0  0  0  0  0  0  0  0  0
   -5.9380   -0.6428   -2.0460 H   0  0  0  0  0  0  0  0  0  0  0  0
    4.4123   -3.7507    0.1883 H   0  0  0  0  0  0  0  0  0  0  0  0
    5.8700   -2.8002   -0.1763 H   0  0  0  0  0  0  0  0  0  0  0  0
    4.9373   -3.5040   -1.5163 H   0  0  0  0  0  0  0  0  0  0  0  0
   -2.0134   -2.3397   -3.3955 H   0  0  0  0  0  0  0  0  0  0  0  0
   -1.2226   -0.8231   -2.8619 H   0  0  0  0  0  0  0  0  0  0  0  0
   -0.5896   -2.3810   -2.3046 H   0  0  0  0  0  0  0  0  0  0  0  0
   -4.5386   -2.9800    2.2457 H   0  0  0  0  0  0  0  0  0  0  0  0
   -1.1092   -4.3485   -1.1281 H   0  0  0  0  0  0  0  0  0  0  0  0
   -3.3757   -5.1590    2.4359 H   0  0  0  0  0  0  0  0  0  0  0  0
   -1.6823   -5.8337    0.7727 H   0  0  0  0  0  0  0  0  0  0  0  0
  1 22  1  0  0  0  0
  1 43  1  0  0  0  0
  2 34  1  0  0  0  0
  2 38  1  0  0  0  0
  3 22  2  0  0  0  0
  4  8  1  0  0  0  0
  4 13  1  0  0  0  0
  4 17  1  0  0  0  0
  5  9  1  0  0  0  0
  5 15  1  0  0  0  0
  5 18  1  0  0  0  0
  6 25  1  0  0  0  0
  6 28  1  0  0  0  0
  6 40  1  0  0  0  0
  7 33  1  0  0  0  0
  7 42  1  0  0  0  0
  7 44  1  0  0  0  0
  8  9  1  0  0  0  0
  8 10  1  0  0  0  0
  8 20  1  0  0  0  0
  9 12  1  0  0  0  0
  9 49  1  0  0  0  0
 10 14  1  0  0  0  0
 10 16  1  0  0  0  0
 10 50  1  0  0  0  0
 11 12  1  0  0  0  0
 11 13  1  0  0  0  0
 11 19  1  0  0  0  0
 11 51  1  0  0  0  0
 12 52  1  0  0  0  0
 12 53  1  0  0  0  0
 13 22  1  0  0  0  0
 13 54  1  0  0  0  0
 14 15  1  0  0  0  0
 14 55  1  0  0  0  0
 14 56  1  0  0  0  0
 15 57  1  0  0  0  0
 15 58  1  0  0  0  0
 16 17  1  0  0  0  0
 16 26  2  0  0  0  0
 17 27  2  0  0  0  0
 18 19  1  0  0  0  0
 18 59  1  0  0  0  0
 18 60  1  0  0  0  0
 19 31  2  0  0  0  0
 20 24  2  0  0  0  0
 20 61  1  0  0  0  0
 21 23  1  0  0  0  0
 21 29  1  0  0  0  0
 21 30  1  0  0  0  0
 21 62  1  0  0  0  0
 23 25  1  0  0  0  0
 23 34  1  0  0  0  0
 23 63  1  0  0  0  0
 24 30  1  0  0  0  0
 24 64  1  0  0  0  0
 25 32  1  0  0  0  0
 25 65  1  0  0  0  0
 26 36  1  0  0  0  0
 26 66  1  0  0  0  0
 27 37  1  0  0  0  0
 27 67  1  0  0  0  0
 28 29  1  0  0  0  0
 28 33  1  0  0  0  0
 28 68  1  0  0  0  0
 29 69  1  0  0  0  0
 29 70  1  0  0  0  0
 30 38  2  0  0  0  0
 31 39  1  0  0  0  0
 31 71  1  0  0  0  0
 32 35  1  0  0  0  0
 32 72  1  0  0  0  0
 32 73  1  0  0  0  0
 33 35  2  0  0  0  0
 34 74  1  0  0  0  0
 34 75  1  0  0  0  0
 35 41  1  0  0  0  0
 36 37  2  0  0  0  0
 36 76  1  0  0  0  0
 37 77  1  0  0  0  0
 38 78  1  0  0  0  0
 39 79  1  0  0  0  0
 39 80  1  0  0  0  0
 39 81  1  0  0  0  0
 40 82  1  0  0  0  0
 40 83  1  0  0  0  0
 40 84  1  0  0  0  0
 41 42  1  0  0  0  0
 41 45  2  0  0  0  0
 42 46  2  0  0  0  0
 43 85  1  0  0  0  0
 43 86  1  0  0  0  0
 43 87  1  0  0  0  0
 44 88  1  0  0  0  0
 44 89  1  0  0  0  0
 44 90  1  0  0  0  0
 45 47  1  0  0  0  0
 45 91  1  0  0  0  0
 46 48  1  0  0  0  0
 46 92  1  0  0  0  0
 47 48  2  0  0  0  0
 47 93  1  0  0  0  0
 48 94  1  0  0  0  0
M  END
> <PUBCHEM_COMPOUND_CID>
5472477

> <PUBCHEM_CONFORMER_RMSD>
1

> <PUBCHEM_CONFORMER_DIVERSEORDER>
1
2
3
11
9
10
6
8
12
4
7
5
13

> <PUBCHEM_MMFF94_PARTIAL_CHARGES>
55
1 -0.43
10 0.14
11 0.14
13 0.43
15 0.27
16 -0.14
17 0.1
18 0.41
19 -0.28
2 -0.36
20 -0.29
21 0.14
22 0.66
24 -0.15
25 0.27
26 -0.15
27 -0.15
28 0.45
3 -0.57
30 -0.14
31 -0.29
32 0.18
33 -0.33
34 0.28
35 -0.18
36 -0.15
37 -0.15
38 -0.07
39 0.14
4 -0.84
40 0.27
42 -0.15
43 0.28
44 0.26
45 -0.15
46 -0.15
47 -0.15
48 -0.15
5 -0.81
6 -0.81
61 0.15
64 0.15
66 0.15
67 0.15
7 0.05
71 0.15
76 0.15
77 0.15
78 0.15
8 0.51
9 0.27
91 0.15
92 0.15
93 0.15
94 0.15

> <PUBCHEM_EFFECTIVE_ROTOR_COUNT>
6

> <PUBCHEM_PHARMACOPHORE_FEATURES>
17
1 2 acceptor
1 3 acceptor
1 39 hydrophobe
1 4 cation
1 5 cation
1 6 cation
1 7 cation
5 4 8 10 16 17 rings
5 7 33 35 41 42 rings
6 16 17 26 27 36 37 rings
6 2 21 23 30 34 38 rings
6 4 8 9 11 12 13 rings
6 41 42 45 46 47 48 rings
6 5 8 9 10 14 15 rings
6 5 9 11 12 18 19 rings
6 6 21 23 25 28 29 rings
6 6 25 28 32 33 35 rings

> <PUBCHEM_HEAVY_ATOM_COUNT>
48

> <PUBCHEM_ATOM_DEF_STEREO_COUNT>
9

> <PUBCHEM_ATOM_UDEF_STEREO_COUNT>
0

> <PUBCHEM_BOND_DEF_STEREO_COUNT>
2

> <PUBCHEM_BOND_UDEF_STEREO_COUNT>
0

> <PUBCHEM_ISOTOPIC_ATOM_COUNT>
0

> <PUBCHEM_COMPONENT_COUNT>
1

> <PUBCHEM_CACTVS_TAUTO_COUNT>
1

> <PUBCHEM_CONFORMER_ID>
005380DD00000001

> <PUBCHEM_MMFF94_ENERGY>
157.8067

> <PUBCHEM_FEATURE_SELFOVERLAP>
90.022

> <PUBCHEM_SHAPE_FINGERPRINT>
10032420 55 17463672540292428395
10439779 11 18194671571335387650
10675989 125 18050822470011927989
11093857 51 17979344275319452791
12633046 712 16199320943447862039
12786520 15 16443903839150015029
12788726 201 18270663330321608353
13636023 20 17986116442645297110
14725015 67 18269553837157538167
15001296 14 18410573993947679525
15361156 5 18060430126657855093
16112460 7 17987530208107774209
17809404 112 17842818169959475931
17909252 39 18340501053253348210
18603816 31 17901134957396744614
19311894 1 18337679736011669867
19319366 153 17749661987361739875
20764821 26 18342725339105758319
24941158 1 15696846234261758464
3493558 16 15149131427730285636
42626532 9 18340784726952179306
50150288 127 16378950396087585855
508180 173 17130991953971842783
5776283 40 18341907242498827822
6823239 73 18059565833166417224

> <PUBCHEM_SHAPE_MULTIPOLES>
950.29
11.45
5.77
3.54
1.46
1.65
1.34
-1.4
-5.79
5.49
1.98
-4.24
1.54
1.33

> <PUBCHEM_SHAPE_SELFOVERLAP>
2142.713

> <PUBCHEM_SHAPE_VOLUME>
491.6

> <PUBCHEM_COORDINATE_TYPE>
2
5
10

$$$$
