199742
  -OEChem-09032006173D

 56 60  0     1  0  0  0  0  0999 V2000
   -3.0901    0.1568    2.3802 O   0  0  0  0  0  0  0  0  0  0  0  0
   -4.0243    2.0354   -1.2546 O   0  0  0  0  0  0  0  0  0  0  0  0
   -4.1102    2.3532    1.0320 O   0  0  0  0  0  0  0  0  0  0  0  0
    5.2823   -1.0790    0.2104 O   0  0  0  0  0  0  0  0  0  0  0  0
   -0.2265   -1.9085   -0.7623 N   0  0  1  0  0  0  0  0  0  0  0  0
    1.4044    1.4423   -0.3922 N   0  0  0  0  0  0  0  0  0  0  0  0
   -2.7434   -0.4081   -0.6526 C   0  0  2  0  0  0  0  0  0  0  0  0
   -2.7037   -1.9515   -0.5723 C   0  0  1  0  0  0  0  0  0  0  0  0
   -1.3910    0.2004   -0.2242 C   0  0  0  0  0  0  0  0  0  0  0  0
   -0.2254   -0.4377   -0.9974 C   0  0  1  0  0  0  0  0  0  0  0  0
   -3.9750    0.1319    0.1073 C   0  0  1  0  0  0  0  0  0  0  0  0
   -1.4579   -2.5105   -1.2836 C   0  0  0  0  0  0  0  0  0  0  0  0
   -2.7987   -2.4494    0.8828 C   0  0  0  0  0  0  0  0  0  0  0  0
   -4.1130   -0.3803    1.5471 C   0  0  1  0  0  0  0  0  0  0  0  0
   -4.0451   -1.9080    1.5864 C   0  0  0  0  0  0  0  0  0  0  0  0
    1.1041    0.1252   -0.5948 C   0  0  0  0  0  0  0  0  0  0  0  0
    0.9743   -2.5588   -1.3289 C   0  0  0  0  0  0  0  0  0  0  0  0
    2.2590   -0.6110   -0.4336 C   0  0  0  0  0  0  0  0  0  0  0  0
    2.2599   -2.0895   -0.6078 C   0  0  0  0  0  0  0  0  0  0  0  0
   -4.0449    1.6302    0.0470 C   0  0  0  0  0  0  0  0  0  0  0  0
    3.3017    0.2899   -0.0876 C   0  0  0  0  0  0  0  0  0  0  0  0
    2.7389    1.5708   -0.0681 C   0  0  0  0  0  0  0  0  0  0  0  0
    4.6718    0.1473    0.2094 C   0  0  0  0  0  0  0  0  0  0  0  0
    3.4844    2.7162    0.2342 C   0  0  0  0  0  0  0  0  0  0  0  0
    5.4275    1.2849    0.5144 C   0  0  0  0  0  0  0  0  0  0  0  0
    4.8409    2.5486    0.5260 C   0  0  0  0  0  0  0  0  0  0  0  0
   -4.0864    3.4505   -1.4591 C   0  0  0  0  0  0  0  0  0  0  0  0
    5.2865   -1.7915    1.4418 C   0  0  0  0  0  0  0  0  0  0  0  0
   -2.8700   -0.1537   -1.7155 H   0  0  0  0  0  0  0  0  0  0  0  0
   -3.5828   -2.3396   -1.1064 H   0  0  0  0  0  0  0  0  0  0  0  0
   -1.2212    0.0748    0.8504 H   0  0  0  0  0  0  0  0  0  0  0  0
   -1.4047    1.2813   -0.4089 H   0  0  0  0  0  0  0  0  0  0  0  0
   -0.3533   -0.2369   -2.0712 H   0  0  0  0  0  0  0  0  0  0  0  0
   -4.8700   -0.2239   -0.4258 H   0  0  0  0  0  0  0  0  0  0  0  0
   -1.4344   -3.5980   -1.1395 H   0  0  0  0  0  0  0  0  0  0  0  0
   -1.5426   -2.3361   -2.3645 H   0  0  0  0  0  0  0  0  0  0  0  0
   -1.9067   -2.1643    1.4529 H   0  0  0  0  0  0  0  0  0  0  0  0
   -2.8360   -3.5455    0.8931 H   0  0  0  0  0  0  0  0  0  0  0  0
   -5.0705   -0.0491    1.9673 H   0  0  0  0  0  0  0  0  0  0  0  0
   -4.9387   -2.3251    1.1060 H   0  0  0  0  0  0  0  0  0  0  0  0
   -4.0399   -2.2579    2.6254 H   0  0  0  0  0  0  0  0  0  0  0  0
    1.0487   -2.3463   -2.4040 H   0  0  0  0  0  0  0  0  0  0  0  0
    0.9078   -3.6480   -1.2176 H   0  0  0  0  0  0  0  0  0  0  0  0
    3.1360   -2.4109   -1.1814 H   0  0  0  0  0  0  0  0  0  0  0  0
    2.3136   -2.5623    0.3804 H   0  0  0  0  0  0  0  0  0  0  0  0
    0.7529    2.2116   -0.4656 H   0  0  0  0  0  0  0  0  0  0  0  0
   -3.2321   -0.1850    3.2793 H   0  0  0  0  0  0  0  0  0  0  0  0
    3.0295    3.7011    0.2428 H   0  0  0  0  0  0  0  0  0  0  0  0
    6.4856    1.1876    0.7453 H   0  0  0  0  0  0  0  0  0  0  0  0
    5.4468    3.4189    0.7652 H   0  0  0  0  0  0  0  0  0  0  0  0
   -3.2202    3.9369   -1.0005 H   0  0  0  0  0  0  0  0  0  0  0  0
   -5.0181    3.8521   -1.0494 H   0  0  0  0  0  0  0  0  0  0  0  0
   -4.0658    3.6396   -2.5357 H   0  0  0  0  0  0  0  0  0  0  0  0
    5.6863   -2.7925    1.2585 H   0  0  0  0  0  0  0  0  0  0  0  0
    4.2741   -1.8886    1.8461 H   0  0  0  0  0  0  0  0  0  0  0  0
    5.9301   -1.2861    2.1686 H   0  0  0  0  0  0  0  0  0  0  0  0
  1 14  1  0  0  0  0
  1 47  1  0  0  0  0
  2 20  1  0  0  0  0
  2 27  1  0  0  0  0
  3 20  2  0  0  0  0
  4 23  1  0  0  0  0
  4 28  1  0  0  0  0
  5 10  1  0  0  0  0
  5 12  1  0  0  0  0
  5 17  1  0  0  0  0
  6 16  1  0  0  0  0
  6 22  1  0  0  0  0
  6 46  1  0  0  0  0
  7  8  1  0  0  0  0
  7  9  1  0  0  0  0
  7 11  1  0  0  0  0
  7 29  1  0  0  0  0
  8 12  1  0  0  0  0
  8 13  1  0  0  0  0
  8 30  1  0  0  0  0
  9 10  1  0  0  0  0
  9 31  1  0  0  0  0
  9 32  1  0  0  0  0
 10 16  1  0  0  0  0
 10 33  1  0  0  0  0
 11 14  1  0  0  0  0
 11 20  1  0  0  0  0
 11 34  1  0  0  0  0
 12 35  1  0  0  0  0
 12 36  1  0  0  0  0
 13 15  1  0  0  0  0
 13 37  1  0  0  0  0
 13 38  1  0  0  0  0
 14 15  1  0  0  0  0
 14 39  1  0  0  0  0
 15 40  1  0  0  0  0
 15 41  1  0  0  0  0
 16 18  2  0  0  0  0
 17 19  1  0  0  0  0
 17 42  1  0  0  0  0
 17 43  1  0  0  0  0
 18 19  1  0  0  0  0
 18 21  1  0  0  0  0
 19 44  1  0  0  0  0
 19 45  1  0  0  0  0
 21 22  2  0  0  0  0
 21 23  1  0  0  0  0
 22 24  1  0  0  0  0
 23 25  2  0  0  0  0
 24 26  2  0  0  0  0
 24 48  1  0  0  0  0
 25 26  1  0  0  0  0
 25 49  1  0  0  0  0
 26 50  1  0  0  0  0
 27 51  1  0  0  0  0
 27 52  1  0  0  0  0
 27 53  1  0  0  0  0
 28 54  1  0  0  0  0
 28 55  1  0  0  0  0
 28 56  1  0  0  0  0
M  END
> <PUBCHEM_COMPOUND_CID>
199742

> <PUBCHEM_CONFORMER_RMSD>
0.8

> <PUBCHEM_CONFORMER_DIVERSEORDER>
1
5
3
4
2

> <PUBCHEM_MMFF94_PARTIAL_CHARGES>
27
1 -0.68
10 0.45
11 0.06
12 0.27
14 0.28
16 -0.33
17 0.27
18 -0.18
19 0.18
2 -0.43
20 0.66
22 -0.15
23 0.08
24 -0.15
25 -0.15
26 -0.15
27 0.28
28 0.28
3 -0.57
4 -0.36
46 0.27
47 0.4
48 0.15
49 0.15
5 -0.81
50 0.15
6 0.03

> <PUBCHEM_EFFECTIVE_ROTOR_COUNT>
4.6

> <PUBCHEM_PHARMACOPHORE_FEATURES>
12
1 1 acceptor
1 1 donor
1 3 acceptor
1 4 acceptor
1 5 cation
1 6 cation
1 6 donor
5 6 16 18 21 22 rings
6 21 22 23 24 25 26 rings
6 5 10 16 17 18 19 rings
6 5 7 8 9 10 12 rings
6 7 8 11 13 14 15 rings

> <PUBCHEM_HEAVY_ATOM_COUNT>
28

> <PUBCHEM_ATOM_DEF_STEREO_COUNT>
5

> <PUBCHEM_ATOM_UDEF_STEREO_COUNT>
0

> <PUBCHEM_BOND_DEF_STEREO_COUNT>
0

> <PUBCHEM_BOND_UDEF_STEREO_COUNT>
0

> <PUBCHEM_ISOTOPIC_ATOM_COUNT>
0

> <PUBCHEM_COMPONENT_COUNT>
1

> <PUBCHEM_CACTVS_TAUTO_COUNT>
1

> <PUBCHEM_CONFORMER_ID>
00030C3E00000001

> <PUBCHEM_MMFF94_ENERGY>
69.5052

> <PUBCHEM_FEATURE_SELFOVERLAP>
61.149

> <PUBCHEM_SHAPE_FINGERPRINT>
10670039 82 18194136332885266956
10675989 125 17473253280838370589
1100329 8 16682040233548506164
11370993 144 18259979353815677822
11405975 8 18335415764439781856
12107183 9 18268140973158373674
12422481 6 18337943507639484410
12633257 1 18262510408208455306
12670546 177 10375881766120897530
12788726 201 17271710986842826902
12892183 10 18187646972102328050
131258 38 14065233835984853353
13140716 1 18410571782234187558
13583140 156 18040708182109943187
14178342 30 17894921736777105811
14466204 15 18340198597055019224
14790565 3 18048318044748948284
16112460 7 17622448242340353921
17844677 252 18334017228636165252
1813 80 16805318929365225950
20715895 44 18127127476961253345
20739085 24 18335709377336936540
21033648 29 18272640281602050472
21033650 10 13973702623444327074
21065199 12 18335143128147148122
21315759 148 17603875537116184880
21315764 268 18411134779205837433
21859007 373 17533489037665467477
23559900 14 17632307778735044854
2838139 119 18265038160024635749
3117164 225 18335976472510309442
335352 9 18341889650687200230
350125 39 18128536157625166575
376196 1 17975685105365399285
460360 51 18410018732180370862
469060 322 18050857916334401323
5081480 168 17129054623089207790
5104073 3 18408880754967864920
6086070 43 17560501998202640512
7226269 152 17489873773781328952
9862522 239 18343020025427920511
9981440 41 18272088250061903435

> <PUBCHEM_SHAPE_MULTIPOLES>
542.79
12.22
3.61
1.48
7.63
1.24
0.46
4.75
4.33
-1.39
-0.76
-1.52
-0.33
1.17

> <PUBCHEM_SHAPE_SELFOVERLAP>
1187.252

> <PUBCHEM_SHAPE_VOLUME>
291.1

> <PUBCHEM_COORDINATE_TYPE>
2
5
10

$$$$
