101587173
  -OEChem-09032003243D

 54 58  0     1  0  0  0  0  0999 V2000
   -4.2037   -1.1357   -0.0994 O   0  0  0  0  0  0  0  0  0  0  0  0
   -1.0354   -3.1340   -0.7310 O   0  0  0  0  0  0  0  0  0  0  0  0
   -1.4705   -3.1074    1.5428 O   0  0  0  0  0  0  0  0  0  0  0  0
    4.3804   -2.2432   -0.3078 O   0  0  0  0  0  0  0  0  0  0  0  0
   -0.9257    2.6104    0.0476 N   0  3  1  0  0  0  0  0  0  0  0  0
    1.5294   -1.4566   -0.2783 N   0  0  0  0  0  0  0  0  0  0  0  0
   -0.0480    1.6478    0.8952 C   0  0  2  0  0  0  0  0  0  0  0  0
    0.7148    0.7753   -0.1363 C   0  0  2  0  0  0  0  0  0  0  0  0
   -0.9649    0.8441    1.8159 C   0  0  0  0  0  0  0  0  0  0  0  0
   -1.8015   -0.1252    0.9604 C   0  0  1  0  0  0  0  0  0  0  0  0
   -0.2176    2.6922   -1.3032 C   0  0  0  0  0  0  0  0  0  0  0  0
    0.3529    1.3140   -1.5351 C   0  0  0  0  0  0  0  0  0  0  0  0
   -2.3985    2.1502   -0.0863 C   0  0  0  0  0  0  0  0  0  0  0  0
   -2.5703    0.6242   -0.1569 C   0  0  2  0  0  0  0  0  0  0  0  0
    0.3751   -0.7378   -0.0465 C   0  0  0  0  0  0  0  0  0  0  0  0
   -0.8327   -1.1402    0.3848 C   0  0  0  0  0  0  0  0  0  0  0  0
    2.2270    0.7261   -0.0028 C   0  0  0  0  0  0  0  0  0  0  0  0
   -0.9355    4.0062    0.6782 C   0  0  0  0  0  0  0  0  0  0  0  0
   -4.0635    0.2774   -0.0947 C   0  0  1  0  0  0  0  0  0  0  0  0
    2.6381   -0.6176   -0.1398 C   0  0  0  0  0  0  0  0  0  0  0  0
    3.1492    1.7455    0.1494 C   0  0  0  0  0  0  0  0  0  0  0  0
   -1.1537   -2.5651    0.4956 C   0  0  0  0  0  0  0  0  0  0  0  0
   -4.8189    0.8706   -1.2680 C   0  0  0  0  0  0  0  0  0  0  0  0
    3.9760   -0.9573   -0.1563 C   0  0  0  0  0  0  0  0  0  0  0  0
    4.5035    1.4044    0.1577 C   0  0  0  0  0  0  0  0  0  0  0  0
    4.9127    0.0676    0.0019 C   0  0  0  0  0  0  0  0  0  0  0  0
   -1.3188   -4.5360   -0.7870 C   0  0  0  0  0  0  0  0  0  0  0  0
    0.6360    2.2700    1.4838 H   0  0  0  0  0  0  0  0  0  0  0  0
   -1.6134    1.5026    2.4062 H   0  0  0  0  0  0  0  0  0  0  0  0
   -0.3610    0.2869    2.5450 H   0  0  0  0  0  0  0  0  0  0  0  0
   -2.4893   -0.6308    1.6497 H   0  0  0  0  0  0  0  0  0  0  0  0
    0.5910    3.4273   -1.2173 H   0  0  0  0  0  0  0  0  0  0  0  0
   -0.9226    3.0166   -2.0743 H   0  0  0  0  0  0  0  0  0  0  0  0
   -0.3867    0.6879   -2.0442 H   0  0  0  0  0  0  0  0  0  0  0  0
    1.2077    1.3714   -2.2203 H   0  0  0  0  0  0  0  0  0  0  0  0
   -2.7982    2.6572   -0.9704 H   0  0  0  0  0  0  0  0  0  0  0  0
   -2.9341    2.5427    0.7876 H   0  0  0  0  0  0  0  0  0  0  0  0
   -2.2194    0.2725   -1.1335 H   0  0  0  0  0  0  0  0  0  0  0  0
   -1.3778    3.9317    1.6758 H   0  0  0  0  0  0  0  0  0  0  0  0
    0.0943    4.3688    0.7511 H   0  0  0  0  0  0  0  0  0  0  0  0
   -1.5284    4.6646    0.0367 H   0  0  0  0  0  0  0  0  0  0  0  0
   -4.4984    0.6439    0.8429 H   0  0  0  0  0  0  0  0  0  0  0  0
    1.5744   -2.4577   -0.1706 H   0  0  0  0  0  0  0  0  0  0  0  0
    2.8399    2.7804    0.2428 H   0  0  0  0  0  0  0  0  0  0  0  0
   -4.3674    0.5752   -2.2216 H   0  0  0  0  0  0  0  0  0  0  0  0
   -4.8722    1.9615   -1.2246 H   0  0  0  0  0  0  0  0  0  0  0  0
   -5.8476    0.4928   -1.2863 H   0  0  0  0  0  0  0  0  0  0  0  0
   -5.1521   -1.3391   -0.0324 H   0  0  0  0  0  0  0  0  0  0  0  0
    5.2533    2.1827    0.2737 H   0  0  0  0  0  0  0  0  0  0  0  0
    5.9769   -0.1567    0.0040 H   0  0  0  0  0  0  0  0  0  0  0  0
    5.3524   -2.2719   -0.2896 H   0  0  0  0  0  0  0  0  0  0  0  0
   -1.1894   -4.8679   -1.8205 H   0  0  0  0  0  0  0  0  0  0  0  0
   -2.3529   -4.7253   -0.4835 H   0  0  0  0  0  0  0  0  0  0  0  0
   -0.6213   -5.0885   -0.1502 H   0  0  0  0  0  0  0  0  0  0  0  0
  1 19  1  0  0  0  0
  1 48  1  0  0  0  0
  2 22  1  0  0  0  0
  2 27  1  0  0  0  0
  3 22  2  0  0  0  0
  4 24  1  0  0  0  0
  4 51  1  0  0  0  0
  5  7  1  0  0  0  0
  5 11  1  0  0  0  0
  5 13  1  0  0  0  0
  5 18  1  0  0  0  0
  6 15  1  0  0  0  0
  6 20  1  0  0  0  0
  6 43  1  0  0  0  0
  7  8  1  0  0  0  0
  7  9  1  0  0  0  0
  7 28  1  0  0  0  0
  8 12  1  0  0  0  0
  8 15  1  0  0  0  0
  8 17  1  0  0  0  0
  9 10  1  0  0  0  0
  9 29  1  0  0  0  0
  9 30  1  0  0  0  0
 10 14  1  0  0  0  0
 10 16  1  0  0  0  0
 10 31  1  0  0  0  0
 11 12  1  0  0  0  0
 11 32  1  0  0  0  0
 11 33  1  0  0  0  0
 12 34  1  0  0  0  0
 12 35  1  0  0  0  0
 13 14  1  0  0  0  0
 13 36  1  0  0  0  0
 13 37  1  0  0  0  0
 14 19  1  0  0  0  0
 14 38  1  0  0  0  0
 15 16  2  0  0  0  0
 16 22  1  0  0  0  0
 17 20  2  0  0  0  0
 17 21  1  0  0  0  0
 18 39  1  0  0  0  0
 18 40  1  0  0  0  0
 18 41  1  0  0  0  0
 19 23  1  0  0  0  0
 19 42  1  0  0  0  0
 20 24  1  0  0  0  0
 21 25  2  0  0  0  0
 21 44  1  0  0  0  0
 23 45  1  0  0  0  0
 23 46  1  0  0  0  0
 23 47  1  0  0  0  0
 24 26  2  0  0  0  0
 25 26  1  0  0  0  0
 25 49  1  0  0  0  0
 26 50  1  0  0  0  0
 27 52  1  0  0  0  0
 27 53  1  0  0  0  0
 27 54  1  0  0  0  0
M  CHG  1   5   1
M  END
> <PUBCHEM_COMPOUND_CID>
101587173

> <PUBCHEM_CONFORMER_RMSD>
0.8

> <PUBCHEM_CONFORMER_DIVERSEORDER>
1
13
9
14
4
18
11
12
16
10
15
2
17
8
6
3
7
5

> <PUBCHEM_MMFF94_PARTIAL_CHARGES>
29
1 -0.68
10 0.14
11 0.5
13 0.5
15 -0.04
16 -0.12
17 -0.14
18 0.5
19 0.28
2 -0.43
20 0.1
21 -0.15
22 0.71
24 0.08
25 -0.15
26 -0.15
27 0.28
3 -0.57
4 -0.53
43 0.4
44 0.15
48 0.4
49 0.15
5 -1.01
50 0.15
51 0.45
6 -0.6
7 0.5
8 0.28

> <PUBCHEM_EFFECTIVE_ROTOR_COUNT>
4.2

> <PUBCHEM_PHARMACOPHORE_FEATURES>
12
1 1 acceptor
1 1 donor
1 3 acceptor
1 4 donor
1 5 cation
1 6 cation
1 6 donor
5 5 7 8 11 12 rings
5 6 8 15 17 20 rings
6 17 20 21 24 25 26 rings
6 5 7 9 10 13 14 rings
6 7 8 9 10 15 16 rings

> <PUBCHEM_HEAVY_ATOM_COUNT>
27

> <PUBCHEM_ATOM_DEF_STEREO_COUNT>
4

> <PUBCHEM_ATOM_UDEF_STEREO_COUNT>
2

> <PUBCHEM_BOND_DEF_STEREO_COUNT>
0

> <PUBCHEM_BOND_UDEF_STEREO_COUNT>
0

> <PUBCHEM_ISOTOPIC_ATOM_COUNT>
0

> <PUBCHEM_COMPONENT_COUNT>
1

> <PUBCHEM_CACTVS_TAUTO_COUNT>
47

> <PUBCHEM_CONFORMER_ID>
060E18E500000001

> <PUBCHEM_MMFF94_ENERGY>
116.1743

> <PUBCHEM_FEATURE_SELFOVERLAP>
62.815

> <PUBCHEM_SHAPE_FINGERPRINT>
10366900 7 18060703896932117576
10693767 8 18129357381538072943
10863032 1 18196373851542107136
10906281 52 18270700730247845309
10930396 42 17976500036581394208
10967382 1 18410577318315306104
1100329 8 18266178520653541393
11370993 70 18339075995361390980
11578080 2 17128450140744226163
12011746 2 18409730642964918012
12035758 1 18337957921391254225
12403259 226 18339075965813909320
12403260 363 18266735775706856792
12553582 1 17761226800823310794
12788726 201 18339636755150796424
12969540 114 18115569496723779269
13004483 165 18409161143086143482
13140716 1 18336827601979173546
14223421 5 18341617066229657160
14787075 74 18201712946873118169
14790565 3 18340774732743513265
16752209 62 18263924341506803336
16945 1 18338535087470523448
17349148 13 18273216374434302786
19591789 44 18193839237149065886
19930381 70 17907579129883891150
200 152 17988355983936348380
20028762 73 18128524990636903199
20510252 161 18341895134717378384
20775438 99 17048753170562024383
21521721 280 18412262840056113201
22907989 373 18047227178066705012
2334 1 18121790688285681666
23402539 116 18411410713700733501
23419403 2 17056674021598443785
23559900 14 18341047523449007344
238 59 16526071266343398804
266924 87 18122620561729711789
2748010 2 18263946365972483507
283562 15 18267300941758427617
3027735 51 18124596379739953127
3178227 256 18336558213573294499
3380486 145 18193287513797103657
34934 24 18261951946595935730
350125 39 18266463096876240568
484989 97 18119242020892419943
69090 78 18408884027337363496
7471813 234 17479727664467915214
9709674 26 18341620300160656942

> <PUBCHEM_SHAPE_MULTIPOLES>
522.21
7.49
4.37
1.17
4.23
2.71
-0.09
0.2
1.22
-2.11
0.24
-0.63
-0.16
0.31

> <PUBCHEM_SHAPE_SELFOVERLAP>
1154.699

> <PUBCHEM_SHAPE_VOLUME>
279.9

> <PUBCHEM_COORDINATE_TYPE>
2
5
10

$$$$
