1268096
  -OEChem-09032010163D

 50 54  0     1  0  0  0  0  0999 V2000
   -4.4708   -1.0600    0.7660 O   0  0  0  0  0  0  0  0  0  0  0  0
   -2.2213    2.7948   -0.5158 O   0  0  0  0  0  0  0  0  0  0  0  0
   -2.7887    2.6136    1.7213 O   0  0  0  0  0  0  0  0  0  0  0  0
   -0.2474   -1.8787    0.0183 N   0  0  2  0  0  0  0  0  0  0  0  0
    2.1110    1.0232   -0.1905 N   0  0  0  0  0  0  0  0  0  0  0  0
   -2.5686   -1.4656   -0.7842 C   0  0  1  0  0  0  0  0  0  0  0  0
   -2.2849    0.0544   -0.8842 C   0  0  2  0  0  0  0  0  0  0  0  0
    0.0192   -0.4186    0.1230 C   0  0  2  0  0  0  0  0  0  0  0  0
   -0.7647    0.2912   -0.9872 C   0  0  0  0  0  0  0  0  0  0  0  0
   -1.6643   -2.1596    0.2663 C   0  0  0  0  0  0  0  0  0  0  0  0
   -4.0529   -1.7230   -0.4401 C   0  0  2  0  0  0  0  0  0  0  0  0
    1.4951   -0.1765    0.0262 C   0  0  0  0  0  0  0  0  0  0  0  0
    0.6240   -2.6661    0.9172 C   0  0  0  0  0  0  0  0  0  0  0  0
    2.4690   -1.1335    0.2193 C   0  0  0  0  0  0  0  0  0  0  0  0
    2.1098   -2.5499    0.5029 C   0  0  0  0  0  0  0  0  0  0  0  0
   -2.9812    0.7688    0.2457 C   0  0  0  0  0  0  0  0  0  0  0  0
    3.7325   -0.4992    0.0793 C   0  0  0  0  0  0  0  0  0  0  0  0
   -5.0105   -1.3523   -1.5738 C   0  0  0  0  0  0  0  0  0  0  0  0
   -3.9552    0.1950    0.9652 C   0  0  0  0  0  0  0  0  0  0  0  0
    3.4796    0.8527   -0.1780 C   0  0  0  0  0  0  0  0  0  0  0  0
   -2.6624    2.1544    0.5967 C   0  0  0  0  0  0  0  0  0  0  0  0
    5.0702   -0.9370    0.1485 C   0  0  0  0  0  0  0  0  0  0  0  0
    4.5039    1.7871   -0.3692 C   0  0  0  0  0  0  0  0  0  0  0  0
    6.1031   -0.0125   -0.0428 C   0  0  0  0  0  0  0  0  0  0  0  0
    5.8220    1.3280   -0.2978 C   0  0  0  0  0  0  0  0  0  0  0  0
   -1.8665    4.1693   -0.3325 C   0  0  0  0  0  0  0  0  0  0  0  0
   -2.3482   -1.9219   -1.7599 H   0  0  0  0  0  0  0  0  0  0  0  0
   -2.7300    0.4284   -1.8168 H   0  0  0  0  0  0  0  0  0  0  0  0
   -0.3067   -0.0484    1.1053 H   0  0  0  0  0  0  0  0  0  0  0  0
   -0.5129    1.3540   -1.0074 H   0  0  0  0  0  0  0  0  0  0  0  0
   -0.4275   -0.0900   -1.9632 H   0  0  0  0  0  0  0  0  0  0  0  0
   -1.9387   -1.8662    1.2875 H   0  0  0  0  0  0  0  0  0  0  0  0
   -1.8373   -3.2411    0.1926 H   0  0  0  0  0  0  0  0  0  0  0  0
   -4.1845   -2.7964   -0.2539 H   0  0  0  0  0  0  0  0  0  0  0  0
    0.3496   -3.7275    0.8824 H   0  0  0  0  0  0  0  0  0  0  0  0
    0.4974   -2.3319    1.9559 H   0  0  0  0  0  0  0  0  0  0  0  0
    2.2856   -3.1463   -0.4009 H   0  0  0  0  0  0  0  0  0  0  0  0
    2.7441   -2.9556    1.2988 H   0  0  0  0  0  0  0  0  0  0  0  0
    1.6422    1.9061   -0.3396 H   0  0  0  0  0  0  0  0  0  0  0  0
   -6.0365   -1.6236   -1.3016 H   0  0  0  0  0  0  0  0  0  0  0  0
   -5.0197   -0.2756   -1.7700 H   0  0  0  0  0  0  0  0  0  0  0  0
   -4.7482   -1.8746   -2.4988 H   0  0  0  0  0  0  0  0  0  0  0  0
   -4.4669    0.6614    1.7972 H   0  0  0  0  0  0  0  0  0  0  0  0
    5.3049   -1.9789    0.3473 H   0  0  0  0  0  0  0  0  0  0  0  0
    4.2870    2.8316   -0.5665 H   0  0  0  0  0  0  0  0  0  0  0  0
    7.1362   -0.3456    0.0091 H   0  0  0  0  0  0  0  0  0  0  0  0
    6.6400    2.0293   -0.4425 H   0  0  0  0  0  0  0  0  0  0  0  0
   -2.7343    4.7430    0.0066 H   0  0  0  0  0  0  0  0  0  0  0  0
   -1.5370    4.5664   -1.2963 H   0  0  0  0  0  0  0  0  0  0  0  0
   -1.0427    4.2543    0.3826 H   0  0  0  0  0  0  0  0  0  0  0  0
  1 11  1  0  0  0  0
  1 19  1  0  0  0  0
  2 21  1  0  0  0  0
  2 26  1  0  0  0  0
  3 21  2  0  0  0  0
  4  8  1  0  0  0  0
  4 10  1  0  0  0  0
  4 13  1  0  0  0  0
  5 12  1  0  0  0  0
  5 20  1  0  0  0  0
  5 39  1  0  0  0  0
  6  7  1  0  0  0  0
  6 10  1  0  0  0  0
  6 11  1  0  0  0  0
  6 27  1  0  0  0  0
  7  9  1  0  0  0  0
  7 16  1  0  0  0  0
  7 28  1  0  0  0  0
  8  9  1  0  0  0  0
  8 12  1  0  0  0  0
  8 29  1  0  0  0  0
  9 30  1  0  0  0  0
  9 31  1  0  0  0  0
 10 32  1  0  0  0  0
 10 33  1  0  0  0  0
 11 18  1  0  0  0  0
 11 34  1  0  0  0  0
 12 14  2  0  0  0  0
 13 15  1  0  0  0  0
 13 35  1  0  0  0  0
 13 36  1  0  0  0  0
 14 15  1  0  0  0  0
 14 17  1  0  0  0  0
 15 37  1  0  0  0  0
 15 38  1  0  0  0  0
 16 19  2  0  0  0  0
 16 21  1  0  0  0  0
 17 20  1  0  0  0  0
 17 22  2  0  0  0  0
 18 40  1  0  0  0  0
 18 41  1  0  0  0  0
 18 42  1  0  0  0  0
 19 43  1  0  0  0  0
 20 23  2  0  0  0  0
 22 24  1  0  0  0  0
 22 44  1  0  0  0  0
 23 25  1  0  0  0  0
 23 45  1  0  0  0  0
 24 25  2  0  0  0  0
 24 46  1  0  0  0  0
 25 47  1  0  0  0  0
 26 48  1  0  0  0  0
 26 49  1  0  0  0  0
 26 50  1  0  0  0  0
M  END
> <PUBCHEM_COMPOUND_CID>
1268096

> <PUBCHEM_CONFORMER_RMSD>
0.6

> <PUBCHEM_CONFORMER_DIVERSEORDER>
3
13
11
2
7
9
4
12
1
5
8
6
10

> <PUBCHEM_MMFF94_PARTIAL_CHARGES>
28
1 -0.36
10 0.27
11 0.28
12 -0.33
13 0.27
14 -0.18
15 0.18
16 -0.12
19 -0.07
2 -0.43
20 -0.15
21 0.71
22 -0.15
23 -0.15
24 -0.15
25 -0.15
26 0.28
3 -0.57
39 0.27
4 -0.81
43 0.15
44 0.15
45 0.15
46 0.15
47 0.15
5 0.03
7 0.14
8 0.45

> <PUBCHEM_EFFECTIVE_ROTOR_COUNT>
3.2

> <PUBCHEM_PHARMACOPHORE_FEATURES>
10
1 1 acceptor
1 3 acceptor
1 4 cation
1 5 cation
1 5 donor
5 5 12 14 17 20 rings
6 1 6 7 11 16 19 rings
6 17 20 22 23 24 25 rings
6 4 6 7 8 9 10 rings
6 4 8 12 13 14 15 rings

> <PUBCHEM_HEAVY_ATOM_COUNT>
26

> <PUBCHEM_ATOM_DEF_STEREO_COUNT>
4

> <PUBCHEM_ATOM_UDEF_STEREO_COUNT>
0

> <PUBCHEM_BOND_DEF_STEREO_COUNT>
0

> <PUBCHEM_BOND_UDEF_STEREO_COUNT>
0

> <PUBCHEM_ISOTOPIC_ATOM_COUNT>
0

> <PUBCHEM_COMPONENT_COUNT>
1

> <PUBCHEM_CACTVS_TAUTO_COUNT>
1

> <PUBCHEM_CONFORMER_ID>
0013598000000003

> <PUBCHEM_MMFF94_ENERGY>
59.7385

> <PUBCHEM_FEATURE_SELFOVERLAP>
51.025

> <PUBCHEM_SHAPE_FINGERPRINT>
10366900 7 18341887545362219923
10670039 82 18335993017072396076
10871710 139 18411699872875174365
1100329 8 18048322433740599203
11045977 3 12468638361230861238
11578080 2 17387399143579546327
11595378 159 18187347840694555192
12107183 9 17833547899704962730
12166972 35 17896034528464509975
12236239 1 18272088318164149574
12390115 104 18270414788562922272
12596602 18 17095800027188329984
12788726 201 18336536179335693211
12916748 109 18409736179346372402
13140716 1 18045791340313632842
13224815 77 18187364302876717802
14251751 93 18272090452752034208
14466204 15 18410285879705559184
14787075 74 18341050816981554339
14790565 3 18335146363096253052
15183329 4 18334011688808854918
15196674 1 18408884019106319838
15788980 27 12031791370481564378
17349148 13 17894349999161873642
17844677 252 18341338816720456366
18603816 31 13407338742759995520
200 152 18410002274034822327
20775438 99 16472580567282654287
21033648 29 17387110130988004484
21033650 10 17985859028075112460
21236236 1 18412263926223656060
21267235 1 18408891754379577086
21279426 13 18267871571746253686
21857420 4 15258284280499225638
221357 26 18272930557319515420
22907989 373 18128518394009858085
23402539 116 18342736351538613567
23559900 14 18195517314730042153
283562 15 18409162212780705395
335352 9 18334574677585741686
350125 39 18410856555392522552
392239 28 18191043359489312219
4214541 1 18412545397063752444
469060 322 18336281114498345705
5048184 11 18266460901815811976
5104073 3 18336261254838302010
6371009 1 18335972156236949152

> <PUBCHEM_SHAPE_MULTIPOLES>
507.5
11.74
3.48
1.03
11.16
2.66
0.02
0.89
-1.15
-2.46
0.4
-1.15
0.05
-1.36

> <PUBCHEM_SHAPE_SELFOVERLAP>
1121.927

> <PUBCHEM_SHAPE_VOLUME>
268.4

> <PUBCHEM_COORDINATE_TYPE>
2
5
10

$$$$
