14194343
  -OEChem-09032002483D

 30 31  0     1  0  0  0  0  0999 V2000
    0.7254   -1.9132   -0.2025 O   0  0  0  0  0  0  0  0  0  0  0  0
   -2.8239    1.7505    0.1977 O   0  0  0  0  0  0  0  0  0  0  0  0
    3.6550    1.0293    0.3303 O   0  0  0  0  0  0  0  0  0  0  0  0
    2.4986   -0.9357   -1.2084 O   0  0  0  0  0  0  0  0  0  0  0  0
   -0.0829    0.6871    0.6109 C   0  0  2  0  0  0  0  0  0  0  0  0
   -1.0200   -0.5272    0.8041 C   0  0  1  0  0  0  0  0  0  0  0  0
   -2.0091   -0.4697   -0.3830 C   0  0  2  0  0  0  0  0  0  0  0  0
   -0.5900    1.4110   -0.6511 C   0  0  0  0  0  0  0  0  0  0  0  0
   -2.0568    1.0148   -0.7460 C   0  0  2  0  0  0  0  0  0  0  0  0
    1.3984    0.2854    0.5779 C   0  0  1  0  0  0  0  0  0  0  0  0
   -0.2415   -1.8363    0.8622 C   0  0  0  0  0  0  0  0  0  0  0  0
   -3.3687   -1.0705   -0.0498 C   0  0  0  0  0  0  0  0  0  0  0  0
    1.6045   -0.8859   -0.3704 C   0  0  0  0  0  0  0  0  0  0  0  0
    2.3111    1.4603    0.2279 C   0  0  0  0  0  0  0  0  0  0  0  0
   -0.2294    1.3642    1.4644 H   0  0  0  0  0  0  0  0  0  0  0  0
   -1.5721   -0.4080    1.7455 H   0  0  0  0  0  0  0  0  0  0  0  0
   -1.5908   -1.0181   -1.2382 H   0  0  0  0  0  0  0  0  0  0  0  0
   -0.4577    2.4940   -0.5594 H   0  0  0  0  0  0  0  0  0  0  0  0
   -0.0566    1.0672   -1.5449 H   0  0  0  0  0  0  0  0  0  0  0  0
   -2.4619    1.1951   -1.7467 H   0  0  0  0  0  0  0  0  0  0  0  0
    1.7003   -0.0815    1.5690 H   0  0  0  0  0  0  0  0  0  0  0  0
    0.2853   -1.9495    1.8169 H   0  0  0  0  0  0  0  0  0  0  0  0
   -0.9121   -2.6958    0.7625 H   0  0  0  0  0  0  0  0  0  0  0  0
   -3.8111   -0.6182    0.8437 H   0  0  0  0  0  0  0  0  0  0  0  0
   -4.0656   -0.9312   -0.8826 H   0  0  0  0  0  0  0  0  0  0  0  0
   -3.2788   -2.1458    0.1357 H   0  0  0  0  0  0  0  0  0  0  0  0
    2.1595    2.3029    0.9101 H   0  0  0  0  0  0  0  0  0  0  0  0
    2.1551    1.8114   -0.7967 H   0  0  0  0  0  0  0  0  0  0  0  0
   -3.7612    1.5520    0.0333 H   0  0  0  0  0  0  0  0  0  0  0  0
    3.8154    0.7745    1.2549 H   0  0  0  0  0  0  0  0  0  0  0  0
  1 11  1  0  0  0  0
  1 13  1  0  0  0  0
  2  9  1  0  0  0  0
  2 29  1  0  0  0  0
  3 14  1  0  0  0  0
  3 30  1  0  0  0  0
  4 13  2  0  0  0  0
  5  6  1  0  0  0  0
  5  8  1  0  0  0  0
  5 10  1  0  0  0  0
  5 15  1  0  0  0  0
  6  7  1  0  0  0  0
  6 11  1  0  0  0  0
  6 16  1  0  0  0  0
  7  9  1  0  0  0  0
  7 12  1  0  0  0  0
  7 17  1  0  0  0  0
  8  9  1  0  0  0  0
  8 18  1  0  0  0  0
  8 19  1  0  0  0  0
  9 20  1  0  0  0  0
 10 13  1  0  0  0  0
 10 14  1  0  0  0  0
 10 21  1  0  0  0  0
 11 22  1  0  0  0  0
 11 23  1  0  0  0  0
 12 24  1  0  0  0  0
 12 25  1  0  0  0  0
 12 26  1  0  0  0  0
 14 27  1  0  0  0  0
 14 28  1  0  0  0  0
M  END
> <PUBCHEM_COMPOUND_CID>
14194343

> <PUBCHEM_CONFORMER_RMSD>
0.6

> <PUBCHEM_CONFORMER_DIVERSEORDER>
1
5
3
2
4

> <PUBCHEM_MMFF94_PARTIAL_CHARGES>
11
1 -0.43
10 0.06
11 0.28
13 0.66
14 0.28
2 -0.68
29 0.4
3 -0.68
30 0.4
4 -0.57
9 0.28

> <PUBCHEM_EFFECTIVE_ROTOR_COUNT>
2.2

> <PUBCHEM_PHARMACOPHORE_FEATURES>
7
1 2 acceptor
1 2 donor
1 3 acceptor
1 3 donor
1 4 acceptor
5 5 6 7 8 9 rings
6 1 5 6 10 11 13 rings

> <PUBCHEM_HEAVY_ATOM_COUNT>
14

> <PUBCHEM_ATOM_DEF_STEREO_COUNT>
5

> <PUBCHEM_ATOM_UDEF_STEREO_COUNT>
0

> <PUBCHEM_BOND_DEF_STEREO_COUNT>
0

> <PUBCHEM_BOND_UDEF_STEREO_COUNT>
0

> <PUBCHEM_ISOTOPIC_ATOM_COUNT>
0

> <PUBCHEM_COMPONENT_COUNT>
1

> <PUBCHEM_CACTVS_TAUTO_COUNT>
1

> <PUBCHEM_CONFORMER_ID>
00D896A700000001

> <PUBCHEM_MMFF94_ENERGY>
36.7998

> <PUBCHEM_FEATURE_SELFOVERLAP>
35.739

> <PUBCHEM_SHAPE_FINGERPRINT>
12138202 97 18261664995372463774
12423570 1 8331653259063453327
12897270 3 18409164377096011175
13024252 1 13768468908131875777
13380535 21 18340209583592093737
13380535 239 18410001131335761453
13380535 76 18337667611371506770
13839132 238 18408318882655790332
13897977 150 18337948991737728021
14614273 12 17896021209733852077
15219456 202 18342458131878035612
15775835 57 18188776019956155764
16945 1 17986657358867246541
17844478 74 18335713779340876227
18186145 218 18337954484895378644
20201158 50 18341049717575499410
20588541 1 18267586999090326403
20871998 184 17978794832700222650
21501502 16 18337665330490606579
22344851 341 18337666417217708915
22802520 49 18338807697339186671
2334 1 18409164419956026177
23402539 116 18191570042221751863
23419403 2 14544493413595790666
23552423 10 18336541608406515443
23559900 14 18268153055413372494
25 1 18266464208913924708
2748010 2 18409167701258175901
305870 269 17822840979631988490
353137 74 18262506078955059447
5084963 1 18341898493175639986
5255222 1 17972878060120605917
528886 8 18410847759394419929
6333449 129 18335978739862449853
7364860 26 18193829341222734042

> <PUBCHEM_SHAPE_MULTIPOLES>
264.64
4.55
1.96
0.94
0.53
0.15
0.06
-0.88
0.32
-0.22
-0.01
0.14
0.11
0.47

> <PUBCHEM_SHAPE_SELFOVERLAP>
550.841

> <PUBCHEM_SHAPE_VOLUME>
150.3

> <PUBCHEM_COORDINATE_TYPE>
2
5
10

$$$$
