11969856
  -OEChem-09032005243D

 52 56  0     1  0  0  0  0  0999 V2000
    0.6604    2.2892   -0.1534 O   0  0  0  0  0  0  0  0  0  0  0  0
   -0.1349    2.6145   -2.3547 O   0  0  0  0  0  0  0  0  0  0  0  0
   -1.2519   -3.4291    0.0305 O   0  0  0  0  0  0  0  0  0  0  0  0
   -1.9111    3.1686    0.8161 O   0  5  0  0  0  0  0  0  0  0  0  0
   -0.3459   -2.2829   -1.7426 O   0  0  0  0  0  0  0  0  0  0  0  0
    1.8012    1.1062    1.5502 N   0  0  0  0  0  0  0  0  0  0  0  0
   -1.7892    1.9034    0.9325 N   0  3  0  0  0  0  0  0  0  0  0  0
    0.5506   -0.1388   -0.1215 C   0  0  1  0  0  0  0  0  0  0  0  0
    0.5682    1.1660    0.7526 C   0  0  2  0  0  0  0  0  0  0  0  0
   -0.2580   -1.3182    0.4798 C   0  0  1  0  0  0  0  0  0  0  0  0
   -0.6228    1.3761    1.7066 C   0  0  2  0  0  0  0  0  0  0  0  0
   -1.4987   -0.9295    1.3149 C   0  0  1  0  0  0  0  0  0  0  0  0
    0.1272    0.3891   -1.4851 C   0  0  0  0  0  0  0  0  0  0  0  0
   -1.0786    0.0872    2.3871 C   0  0  0  0  0  0  0  0  0  0  0  0
    2.0285   -0.5066   -0.0927 C   0  0  0  0  0  0  0  0  0  0  0  0
    0.6688    1.8118   -1.5043 C   0  0  2  0  0  0  0  0  0  0  0  0
    2.6731    0.2406    0.8968 C   0  0  0  0  0  0  0  0  0  0  0  0
   -2.6386   -0.3439    0.5219 C   0  0  0  0  0  0  0  0  0  0  0  0
   -0.6070   -2.3664   -0.5427 C   0  0  0  0  0  0  0  0  0  0  0  0
   -2.6903    1.1212    0.3905 C   0  0  0  0  0  0  0  0  0  0  0  0
    2.7168   -1.4454   -0.8469 C   0  0  0  0  0  0  0  0  0  0  0  0
    4.0101    0.0300    1.1853 C   0  0  0  0  0  0  0  0  0  0  0  0
   -3.6540   -1.0401   -0.0031 C   0  0  0  0  0  0  0  0  0  0  0  0
    4.0728   -1.6409   -0.5816 C   0  0  0  0  0  0  0  0  0  0  0  0
    4.7139   -0.9122    0.4314 C   0  0  0  0  0  0  0  0  0  0  0  0
    0.3333    3.9563   -2.4051 C   0  0  0  0  0  0  0  0  0  0  0  0
   -4.8162   -0.4205   -0.7027 C   0  0  0  0  0  0  0  0  0  0  0  0
   -1.6274   -4.4859   -0.8596 C   0  0  0  0  0  0  0  0  0  0  0  0
    0.4071   -1.8447    1.1844 H   0  0  0  0  0  0  0  0  0  0  0  0
   -0.3924    2.1392    2.4611 H   0  0  0  0  0  0  0  0  0  0  0  0
   -1.8675   -1.8181    1.8455 H   0  0  0  0  0  0  0  0  0  0  0  0
   -0.9605    0.4050   -1.6007 H   0  0  0  0  0  0  0  0  0  0  0  0
    0.5278   -0.1585   -2.3445 H   0  0  0  0  0  0  0  0  0  0  0  0
   -1.9200    0.2932    3.0625 H   0  0  0  0  0  0  0  0  0  0  0  0
   -0.2723   -0.3228    3.0073 H   0  0  0  0  0  0  0  0  0  0  0  0
    2.1374    1.8883    2.0948 H   0  0  0  0  0  0  0  0  0  0  0  0
    1.7056    1.8189   -1.8638 H   0  0  0  0  0  0  0  0  0  0  0  0
   -3.5032    1.6127   -0.1618 H   0  0  0  0  0  0  0  0  0  0  0  0
    2.2295   -2.0245   -1.6219 H   0  0  0  0  0  0  0  0  0  0  0  0
    4.5101    0.5863    1.9714 H   0  0  0  0  0  0  0  0  0  0  0  0
   -3.6746   -2.1205    0.1087 H   0  0  0  0  0  0  0  0  0  0  0  0
    4.6359   -2.3707   -1.1570 H   0  0  0  0  0  0  0  0  0  0  0  0
    5.7677   -1.0854    0.6326 H   0  0  0  0  0  0  0  0  0  0  0  0
   -0.2795    4.5036   -3.1266 H   0  0  0  0  0  0  0  0  0  0  0  0
    1.3752    3.9914   -2.7383 H   0  0  0  0  0  0  0  0  0  0  0  0
    0.2298    4.4422   -1.4304 H   0  0  0  0  0  0  0  0  0  0  0  0
   -4.5056    0.1123   -1.6068 H   0  0  0  0  0  0  0  0  0  0  0  0
   -5.3791    0.2457   -0.0416 H   0  0  0  0  0  0  0  0  0  0  0  0
   -5.5068   -1.2094   -1.0211 H   0  0  0  0  0  0  0  0  0  0  0  0
   -0.7385   -4.9220   -1.3250 H   0  0  0  0  0  0  0  0  0  0  0  0
   -2.3196   -4.1119   -1.6199 H   0  0  0  0  0  0  0  0  0  0  0  0
   -2.1330   -5.2587   -0.2746 H   0  0  0  0  0  0  0  0  0  0  0  0
  1  9  1  0  0  0  0
  1 16  1  0  0  0  0
  2 16  1  0  0  0  0
  2 26  1  0  0  0  0
  3 19  1  0  0  0  0
  3 28  1  0  0  0  0
  4  7  1  0  0  0  0
  5 19  2  0  0  0  0
  6  9  1  0  0  0  0
  6 17  1  0  0  0  0
  6 36  1  0  0  0  0
  7 11  1  0  0  0  0
  7 20  2  0  0  0  0
  8  9  1  0  0  0  0
  8 10  1  0  0  0  0
  8 13  1  0  0  0  0
  8 15  1  0  0  0  0
  9 11  1  0  0  0  0
 10 12  1  0  0  0  0
 10 19  1  0  0  0  0
 10 29  1  0  0  0  0
 11 14  1  0  0  0  0
 11 30  1  0  0  0  0
 12 14  1  0  0  0  0
 12 18  1  0  0  0  0
 12 31  1  0  0  0  0
 13 16  1  0  0  0  0
 13 32  1  0  0  0  0
 13 33  1  0  0  0  0
 14 34  1  0  0  0  0
 14 35  1  0  0  0  0
 15 17  1  0  0  0  0
 15 21  2  0  0  0  0
 16 37  1  0  0  0  0
 17 22  2  0  0  0  0
 18 20  1  0  0  0  0
 18 23  2  0  0  0  0
 20 38  1  0  0  0  0
 21 24  1  0  0  0  0
 21 39  1  0  0  0  0
 22 25  1  0  0  0  0
 22 40  1  0  0  0  0
 23 27  1  0  0  0  0
 23 41  1  0  0  0  0
 24 25  2  0  0  0  0
 24 42  1  0  0  0  0
 25 43  1  0  0  0  0
 26 44  1  0  0  0  0
 26 45  1  0  0  0  0
 26 46  1  0  0  0  0
 27 47  1  0  0  0  0
 27 48  1  0  0  0  0
 27 49  1  0  0  0  0
 28 50  1  0  0  0  0
 28 51  1  0  0  0  0
 28 52  1  0  0  0  0
M  CHG  2   4  -1   7   1
M  END
> <PUBCHEM_COMPOUND_CID>
11969856

> <PUBCHEM_CONFORMER_RMSD>
0.8

> <PUBCHEM_CONFORMER_DIVERSEORDER>
1
11
19
12
4
23
2
8
7
21
9
18
5
17
22
20
14
3
15
10
6
16
13

> <PUBCHEM_MMFF94_PARTIAL_CHARGES>
33
1 -0.56
10 0.06
11 0.1
12 0.14
15 -0.14
16 0.56
17 0.1
18 -0.12
19 0.66
2 -0.56
20 -0.07
21 -0.15
22 -0.15
23 -0.29
24 -0.15
25 -0.15
26 0.28
27 0.14
28 0.28
3 -0.43
36 0.4
38 0.06
39 0.15
4 -0.63
40 0.15
41 0.15
42 0.15
43 0.15
5 -0.57
6 -0.87
7 0.53
8 0.14
9 0.65

> <PUBCHEM_EFFECTIVE_ROTOR_COUNT>
4.2

> <PUBCHEM_PHARMACOPHORE_FEATURES>
12
1 1 acceptor
1 2 acceptor
1 27 hydrophobe
1 4 anion
1 5 acceptor
1 6 cation
1 6 donor
5 1 8 9 13 16 rings
5 6 8 9 15 17 rings
6 15 17 21 22 24 25 rings
6 7 11 12 14 18 20 rings
6 8 9 10 11 12 14 rings

> <PUBCHEM_HEAVY_ATOM_COUNT>
28

> <PUBCHEM_ATOM_DEF_STEREO_COUNT>
1

> <PUBCHEM_ATOM_UDEF_STEREO_COUNT>
5

> <PUBCHEM_BOND_DEF_STEREO_COUNT>
1

> <PUBCHEM_BOND_UDEF_STEREO_COUNT>
0

> <PUBCHEM_ISOTOPIC_ATOM_COUNT>
0

> <PUBCHEM_COMPONENT_COUNT>
1

> <PUBCHEM_CACTVS_TAUTO_COUNT>
1

> <PUBCHEM_CONFORMER_ID>
00B6A54000000001

> <PUBCHEM_MMFF94_ENERGY>
101.9429

> <PUBCHEM_FEATURE_SELFOVERLAP>
63.299

> <PUBCHEM_SHAPE_FINGERPRINT>
10863032 1 17772751563371222304
10930396 42 18048559808240912104
10948715 1 17769938973983449017
11370993 70 18129095615580272394
11578080 2 18051959613451931241
12011746 2 18131917052901654302
12035759 4 18049184424928892164
13140716 1 17914611902465342210
14787075 74 17632565067780318066
16945 1 18271250511931237952
17357779 13 18338784654929243197
17980427 23 18337122210549572377
1813 80 18114739429969615422
19591789 44 18126566713309878154
20600515 1 18341897424087401646
20691752 17 18043545909925976234
21033648 29 18271230682267777241
21285901 2 18337106757293801534
21330990 113 18193842531040601420
22182313 1 17323260125243578537
23419403 2 16752627213451459512
23559900 14 18058722645582024952
238 59 16240949149613189445
2748010 2 18053128145161709219
340366 18 18261389018275814527
404807 78 14654269943104310666
4340502 62 17769098934663637537
439807 62 16770672305090048255

> <PUBCHEM_SHAPE_MULTIPOLES>
536.92
6.01
4.07
1.97
2.17
0.47
0.28
2.7
-0.65
-1.78
2.69
-0.02
-1.35
-0.48

> <PUBCHEM_SHAPE_SELFOVERLAP>
1193.095

> <PUBCHEM_SHAPE_VOLUME>
284.4

> <PUBCHEM_COORDINATE_TYPE>
2
5
10

$$$$
