101741721
  -OEChem-09032004353D

 43 45  0     1  0  0  0  0  0999 V2000
   -1.7919   -3.7394   -1.5282 O   0  0  0  0  0  0  0  0  0  0  0  0
   -4.1881    0.5037    0.7965 N   0  0  1  0  0  0  0  0  0  0  0  0
    1.3173   -0.1351    0.2990 N   0  0  0  0  0  0  0  0  0  0  0  0
   -1.3834    0.9194   -0.0270 C   0  0  1  0  0  0  0  0  0  0  0  0
   -2.4821    1.9799   -0.2196 C   0  0  0  0  0  0  0  0  0  0  0  0
   -2.0389   -0.4525    0.0355 C   0  0  0  0  0  0  0  0  0  0  0  0
   -3.5933    1.8472    0.8298 C   0  0  0  0  0  0  0  0  0  0  0  0
   -3.1701   -0.5315    1.0418 C   0  0  0  0  0  0  0  0  0  0  0  0
   -0.3127    1.0801   -1.0665 C   0  0  0  0  0  0  0  0  0  0  0  0
    1.0910    0.8045   -0.6706 C   0  0  0  0  0  0  0  0  0  0  0  0
   -1.7092   -1.5238   -0.7049 C   0  0  0  0  0  0  0  0  0  0  0  0
   -5.2724    0.3997    1.7730 C   0  0  0  0  0  0  0  0  0  0  0  0
    2.3098    1.3011   -1.0717 C   0  0  0  0  0  0  0  0  0  0  0  0
   -0.6230    1.4772   -2.3122 C   0  0  0  0  0  0  0  0  0  0  0  0
    2.6680   -0.2577    0.5355 C   0  0  0  0  0  0  0  0  0  0  0  0
    3.3174    0.6379   -0.3169 C   0  0  0  0  0  0  0  0  0  0  0  0
   -2.3988   -2.8412   -0.6100 C   0  0  0  0  0  0  0  0  0  0  0  0
    3.3576   -1.0845    1.4294 C   0  0  0  0  0  0  0  0  0  0  0  0
    4.7238    0.7137   -0.2770 C   0  0  0  0  0  0  0  0  0  0  0  0
    4.7521   -0.9917    1.4517 C   0  0  0  0  0  0  0  0  0  0  0  0
    5.4268   -0.1070    0.6124 C   0  0  0  0  0  0  0  0  0  0  0  0
   -0.9449    1.1182    0.9623 H   0  0  0  0  0  0  0  0  0  0  0  0
   -2.0552    2.9893   -0.1580 H   0  0  0  0  0  0  0  0  0  0  0  0
   -2.9785    1.8949   -1.1937 H   0  0  0  0  0  0  0  0  0  0  0  0
   -3.1890    2.0742    1.8252 H   0  0  0  0  0  0  0  0  0  0  0  0
   -4.3620    2.5987    0.6117 H   0  0  0  0  0  0  0  0  0  0  0  0
   -3.6659   -1.5064    1.0355 H   0  0  0  0  0  0  0  0  0  0  0  0
   -2.7419   -0.4163    2.0476 H   0  0  0  0  0  0  0  0  0  0  0  0
   -0.9021   -1.4567   -1.4285 H   0  0  0  0  0  0  0  0  0  0  0  0
   -6.0510    1.1415    1.5634 H   0  0  0  0  0  0  0  0  0  0  0  0
   -4.9206    0.5495    2.8002 H   0  0  0  0  0  0  0  0  0  0  0  0
   -5.7528   -0.5832    1.7124 H   0  0  0  0  0  0  0  0  0  0  0  0
    0.6121   -0.6745    0.7813 H   0  0  0  0  0  0  0  0  0  0  0  0
    2.4674    2.0614   -1.8252 H   0  0  0  0  0  0  0  0  0  0  0  0
   -1.6274    1.6625   -2.6678 H   0  0  0  0  0  0  0  0  0  0  0  0
    0.1534    1.5986   -3.0632 H   0  0  0  0  0  0  0  0  0  0  0  0
   -3.4549   -2.7551   -0.8831 H   0  0  0  0  0  0  0  0  0  0  0  0
   -2.2950   -3.2708    0.3910 H   0  0  0  0  0  0  0  0  0  0  0  0
    2.8331   -1.7736    2.0829 H   0  0  0  0  0  0  0  0  0  0  0  0
    5.2623    1.3987   -0.9256 H   0  0  0  0  0  0  0  0  0  0  0  0
    5.3181   -1.6200    2.1347 H   0  0  0  0  0  0  0  0  0  0  0  0
    6.5116   -0.0528    0.6478 H   0  0  0  0  0  0  0  0  0  0  0  0
   -2.2578   -4.5891   -1.4475 H   0  0  0  0  0  0  0  0  0  0  0  0
  1 17  1  0  0  0  0
  1 43  1  0  0  0  0
  2  7  1  0  0  0  0
  2  8  1  0  0  0  0
  2 12  1  0  0  0  0
  3 10  1  0  0  0  0
  3 15  1  0  0  0  0
  3 33  1  0  0  0  0
  4  5  1  0  0  0  0
  4  6  1  0  0  0  0
  4  9  1  0  0  0  0
  4 22  1  0  0  0  0
  5  7  1  0  0  0  0
  5 23  1  0  0  0  0
  5 24  1  0  0  0  0
  6  8  1  0  0  0  0
  6 11  2  0  0  0  0
  7 25  1  0  0  0  0
  7 26  1  0  0  0  0
  8 27  1  0  0  0  0
  8 28  1  0  0  0  0
  9 10  1  0  0  0  0
  9 14  2  0  0  0  0
 10 13  2  0  0  0  0
 11 17  1  0  0  0  0
 11 29  1  0  0  0  0
 12 30  1  0  0  0  0
 12 31  1  0  0  0  0
 12 32  1  0  0  0  0
 13 16  1  0  0  0  0
 13 34  1  0  0  0  0
 14 35  1  0  0  0  0
 14 36  1  0  0  0  0
 15 16  1  0  0  0  0
 15 18  2  0  0  0  0
 16 19  2  0  0  0  0
 17 37  1  0  0  0  0
 17 38  1  0  0  0  0
 18 20  1  0  0  0  0
 18 39  1  0  0  0  0
 19 21  1  0  0  0  0
 19 40  1  0  0  0  0
 20 21  2  0  0  0  0
 20 41  1  0  0  0  0
 21 42  1  0  0  0  0
M  END
> <PUBCHEM_COMPOUND_CID>
101741721

> <PUBCHEM_CONFORMER_RMSD>
0.6

> <PUBCHEM_CONFORMER_DIVERSEORDER>
2
24
139
97
51
70
69
4
90
134
84
113
42
107
45
101
67
126
94
127
151
63
99
25
120
82
78
121
46
37
111
53
47
123
81
143
122
115
52
62
19
56
145
96
93
60
40
92
109
80
98
8
136
26
124
31
89
119
22
15
117
108
3
65
74
87
129
9
18
59
68
7
104
76
153
86
91
116
147
130
102
6
79
100
103
128
118
29
27
58
5
142
61
77
33
146
88
57
49
148
23
44
150
16
72
83
95
41
141
11
137
39
10
85
75
110
112
133
140
36
54
50
132
66
152
135
1
48
20
131
38
30
138
55
106
12
105
43
144
35
13
17
71
14
21
34
149
125
32
114
73
64
28

> <PUBCHEM_MMFF94_PARTIAL_CHARGES>
29
1 -0.68
10 -0.2
11 -0.29
12 0.27
13 -0.15
14 -0.3
15 -0.15
17 0.42
18 -0.15
19 -0.15
2 -0.81
20 -0.15
21 -0.15
29 0.15
3 0.03
33 0.27
34 0.15
35 0.15
36 0.15
39 0.15
4 0.28
40 0.15
41 0.15
42 0.15
43 0.4
6 -0.28
7 0.27
8 0.41
9 -0.09

> <PUBCHEM_EFFECTIVE_ROTOR_COUNT>
4

> <PUBCHEM_PHARMACOPHORE_FEATURES>
9
1 1 acceptor
1 1 donor
1 14 hydrophobe
1 2 cation
1 3 cation
1 3 donor
5 3 10 13 15 16 rings
6 15 16 18 19 20 21 rings
6 2 4 5 6 7 8 rings

> <PUBCHEM_HEAVY_ATOM_COUNT>
21

> <PUBCHEM_ATOM_DEF_STEREO_COUNT>
1

> <PUBCHEM_ATOM_UDEF_STEREO_COUNT>
0

> <PUBCHEM_BOND_DEF_STEREO_COUNT>
1

> <PUBCHEM_BOND_UDEF_STEREO_COUNT>
0

> <PUBCHEM_ISOTOPIC_ATOM_COUNT>
0

> <PUBCHEM_COMPONENT_COUNT>
1

> <PUBCHEM_CACTVS_TAUTO_COUNT>
56

> <PUBCHEM_CONFORMER_ID>
0610749900000002

> <PUBCHEM_MMFF94_ENERGY>
47.1822

> <PUBCHEM_FEATURE_SELFOVERLAP>
45.762

> <PUBCHEM_SHAPE_FINGERPRINT>
10366900 7 17561071514833788736
11552529 35 18129931403558291494
11725454 13 16486693559085630545
12236239 1 18187652413947224577
12251169 10 18408606958949924596
12403259 327 17775001288852834210
12403814 3 18040712541707723837
12553582 1 17749101214835066626
12633257 1 18202568397094900233
12788726 201 17910125929626685055
12839892 36 18341065072922788227
13004483 165 17628061614693993631
13533116 47 16988012565491541406
13551218 46 18188210896860416659
14100547 121 18342165670307157318
15064986 96 17980478962618795243
15209289 33 17531250543311876544
15238133 3 17918002646112545272
15375462 189 18186800283940747976
15534591 1 9006520332392056303
15537594 2 18113904870743120014
15842332 3 18191032411142719476
15961568 22 10810210914156282062
1813 80 16878519942238932166
19141452 34 18411982468342600606
19377110 9 18115016528802296528
19433438 48 18335409193103097050
200 152 15502096349351359656
20261772 1 18333732412069091538
20554085 129 17775003419947696371
20600515 1 17917165964987491553
20602899 9 18122873539740475189
21033648 29 18058436630266447393
21267235 1 17676776375363610618
212916 134 17917716760335627513
23402539 116 16443340949669195308
23503953 91 18342172280651468920
23559900 14 17631191748061713828
23598288 3 18187359922184052205
23728640 28 18412829118361444371
25147074 1 18191594248652203205
2838139 119 14548185260119559849
5104073 3 18341323509451680880
5924683 9 18129652122945917871
602551 16 18202282545815566038
7064713 232 18343300357632191306
7970288 3 16950280680985476282

> <PUBCHEM_SHAPE_MULTIPOLES>
416.34
10.45
2.5
1.64
5.76
2.04
0.26
0.43
-6.1
-2.26
1.46
-0.87
0.24
-1.92

> <PUBCHEM_SHAPE_SELFOVERLAP>
890.672

> <PUBCHEM_SHAPE_VOLUME>
232.6

> <PUBCHEM_COORDINATE_TYPE>
2
5
10

$$$$
