14706138
  -OEChem-09032003163D

 49 53  0     1  0  0  0  0  0999 V2000
   -1.2375    0.3046   -3.3150 O   0  0  0  0  0  0  0  0  0  0  0  0
   -3.5886   -1.3844    0.3794 O   0  0  0  0  0  0  0  0  0  0  0  0
   -1.8578   -2.8905    0.0698 O   0  0  0  0  0  0  0  0  0  0  0  0
   -0.3601    2.6942    0.8693 N   0  0  2  0  0  0  0  0  0  0  0  0
    0.5909   -1.7637    0.8868 N   0  0  0  0  0  0  0  0  0  0  0  0
    0.2274    1.7779   -0.1524 C   0  0  1  0  0  0  0  0  0  0  0  0
    0.7745    0.5923    0.6686 C   0  0  1  0  0  0  0  0  0  0  0  0
   -0.8089    1.3993   -1.2205 C   0  0  2  0  0  0  0  0  0  0  0  0
   -1.9679    0.6627   -0.5122 C   0  0  2  0  0  0  0  0  0  0  0  0
    1.0023    1.1896    2.0865 C   0  0  0  0  0  0  0  0  0  0  0  0
   -0.1844   -0.6326    0.6840 C   0  0  0  0  0  0  0  0  0  0  0  0
    0.6339    2.6646    1.9528 C   0  0  0  0  0  0  0  0  0  0  0  0
   -2.6502    1.6823    0.4036 C   0  0  0  0  0  0  0  0  0  0  0  0
   -1.6764    2.2873    1.4138 C   0  0  0  0  0  0  0  0  0  0  0  0
   -1.4529   -0.5607    0.2316 C   0  0  0  0  0  0  0  0  0  0  0  0
    2.0643   -0.0920    0.2620 C   0  0  0  0  0  0  0  0  0  0  0  0
   -0.2077    0.6013   -2.3824 C   0  0  2  0  0  0  0  0  0  0  0  0
    1.9043   -1.4794    0.4833 C   0  0  0  0  0  0  0  0  0  0  0  0
    3.2688    0.4316   -0.1682 C   0  0  0  0  0  0  0  0  0  0  0  0
   -2.2967   -1.7619    0.2133 C   0  0  0  0  0  0  0  0  0  0  0  0
    0.8991    1.3748   -3.0735 C   0  0  0  0  0  0  0  0  0  0  0  0
    2.9571   -2.3559    0.3176 C   0  0  0  0  0  0  0  0  0  0  0  0
    4.3298   -0.4555   -0.3648 C   0  0  0  0  0  0  0  0  0  0  0  0
    4.1777   -1.8328   -0.1181 C   0  0  0  0  0  0  0  0  0  0  0  0
   -4.5408   -2.4530    0.3846 C   0  0  0  0  0  0  0  0  0  0  0  0
    1.0487    2.3374   -0.6140 H   0  0  0  0  0  0  0  0  0  0  0  0
   -1.2217    2.3230   -1.6551 H   0  0  0  0  0  0  0  0  0  0  0  0
   -2.6973    0.3505   -1.2704 H   0  0  0  0  0  0  0  0  0  0  0  0
    2.0339    1.1023    2.4479 H   0  0  0  0  0  0  0  0  0  0  0  0
    0.3645    0.6999    2.8328 H   0  0  0  0  0  0  0  0  0  0  0  0
    0.2685    3.0949    2.8919 H   0  0  0  0  0  0  0  0  0  0  0  0
    1.5135    3.2483    1.6533 H   0  0  0  0  0  0  0  0  0  0  0  0
   -3.4930    1.2279    0.9376 H   0  0  0  0  0  0  0  0  0  0  0  0
   -3.0740    2.4889   -0.2091 H   0  0  0  0  0  0  0  0  0  0  0  0
   -2.1442    3.1727    1.8622 H   0  0  0  0  0  0  0  0  0  0  0  0
   -1.5786    1.5666    2.2350 H   0  0  0  0  0  0  0  0  0  0  0  0
    0.1952   -0.3595   -2.0500 H   0  0  0  0  0  0  0  0  0  0  0  0
    0.2045   -2.6925    0.8080 H   0  0  0  0  0  0  0  0  0  0  0  0
    3.4021    1.4957   -0.3253 H   0  0  0  0  0  0  0  0  0  0  0  0
    1.7883    1.4980   -2.4537 H   0  0  0  0  0  0  0  0  0  0  0  0
    1.2090    0.8555   -3.9878 H   0  0  0  0  0  0  0  0  0  0  0  0
    0.5502    2.3643   -3.3892 H   0  0  0  0  0  0  0  0  0  0  0  0
    2.8450   -3.4188    0.5006 H   0  0  0  0  0  0  0  0  0  0  0  0
   -0.8441   -0.2173   -4.0349 H   0  0  0  0  0  0  0  0  0  0  0  0
    5.2922   -0.0763   -0.6985 H   0  0  0  0  0  0  0  0  0  0  0  0
    5.0237   -2.4984   -0.2695 H   0  0  0  0  0  0  0  0  0  0  0  0
   -5.5352   -2.0213    0.5261 H   0  0  0  0  0  0  0  0  0  0  0  0
   -4.3349   -3.1398    1.2113 H   0  0  0  0  0  0  0  0  0  0  0  0
   -4.5206   -2.9827   -0.5726 H   0  0  0  0  0  0  0  0  0  0  0  0
  1 17  1  0  0  0  0
  1 44  1  0  0  0  0
  2 20  1  0  0  0  0
  2 25  1  0  0  0  0
  3 20  2  0  0  0  0
  4  6  1  0  0  0  0
  4 12  1  0  0  0  0
  4 14  1  0  0  0  0
  5 11  1  0  0  0  0
  5 18  1  0  0  0  0
  5 38  1  0  0  0  0
  6  7  1  0  0  0  0
  6  8  1  0  0  0  0
  6 26  1  0  0  0  0
  7 10  1  0  0  0  0
  7 11  1  0  0  0  0
  7 16  1  0  0  0  0
  8  9  1  0  0  0  0
  8 17  1  0  0  0  0
  8 27  1  0  0  0  0
  9 13  1  0  0  0  0
  9 15  1  0  0  0  0
  9 28  1  0  0  0  0
 10 12  1  0  0  0  0
 10 29  1  0  0  0  0
 10 30  1  0  0  0  0
 11 15  2  0  0  0  0
 12 31  1  0  0  0  0
 12 32  1  0  0  0  0
 13 14  1  0  0  0  0
 13 33  1  0  0  0  0
 13 34  1  0  0  0  0
 14 35  1  0  0  0  0
 14 36  1  0  0  0  0
 15 20  1  0  0  0  0
 16 18  1  0  0  0  0
 16 19  2  0  0  0  0
 17 21  1  0  0  0  0
 17 37  1  0  0  0  0
 18 22  2  0  0  0  0
 19 23  1  0  0  0  0
 19 39  1  0  0  0  0
 21 40  1  0  0  0  0
 21 41  1  0  0  0  0
 21 42  1  0  0  0  0
 22 24  1  0  0  0  0
 22 43  1  0  0  0  0
 23 24  2  0  0  0  0
 23 45  1  0  0  0  0
 24 46  1  0  0  0  0
 25 47  1  0  0  0  0
 25 48  1  0  0  0  0
 25 49  1  0  0  0  0
M  END
> <PUBCHEM_COMPOUND_CID>
14706138

> <PUBCHEM_CONFORMER_RMSD>
0.8

> <PUBCHEM_CONFORMER_DIVERSEORDER>
1
3
2
4

> <PUBCHEM_MMFF94_PARTIAL_CHARGES>
27
1 -0.68
11 -0.04
12 0.27
14 0.27
15 -0.12
16 -0.14
17 0.28
18 0.1
19 -0.15
2 -0.43
20 0.71
22 -0.15
23 -0.15
24 -0.15
25 0.28
3 -0.57
38 0.4
39 0.15
4 -0.81
43 0.15
44 0.4
45 0.15
46 0.15
5 -0.6
6 0.27
7 0.28
9 0.14

> <PUBCHEM_EFFECTIVE_ROTOR_COUNT>
4.2

> <PUBCHEM_PHARMACOPHORE_FEATURES>
11
1 1 acceptor
1 1 donor
1 3 acceptor
1 4 cation
1 5 cation
1 5 donor
5 4 6 7 10 12 rings
5 5 7 11 16 18 rings
6 16 18 19 22 23 24 rings
6 4 6 8 9 13 14 rings
6 6 7 8 9 11 15 rings

> <PUBCHEM_HEAVY_ATOM_COUNT>
25

> <PUBCHEM_ATOM_DEF_STEREO_COUNT>
5

> <PUBCHEM_ATOM_UDEF_STEREO_COUNT>
0

> <PUBCHEM_BOND_DEF_STEREO_COUNT>
0

> <PUBCHEM_BOND_UDEF_STEREO_COUNT>
0

> <PUBCHEM_ISOTOPIC_ATOM_COUNT>
0

> <PUBCHEM_COMPONENT_COUNT>
1

> <PUBCHEM_CACTVS_TAUTO_COUNT>
3

> <PUBCHEM_CONFORMER_ID>
00E065DA00000001

> <PUBCHEM_MMFF94_ENERGY>
99.7279

> <PUBCHEM_FEATURE_SELFOVERLAP>
58.019

> <PUBCHEM_SHAPE_FINGERPRINT>
107951 10 17122562947525027702
10863032 1 18341052934537873656
10948715 1 17410497580671465584
11578080 2 18187911911297207285
12035759 4 17608404485466391614
12173636 292 18051689937124396352
12403814 3 17459475437778388592
12553582 1 18271517701620667554
12969540 37 18050841418785047874
13027679 85 18413108381055003089
13140716 1 18268421348238490890
133893 2 16301239074235409565
14787075 74 18125162886221772588
14790565 3 17838346185270464993
14817 1 17842858632424385053
14863182 85 17182779303658962787
15906896 17 17628351567614087392
16945 1 18118396250745331008
17349148 13 17906426867974272826
17357779 13 18115851044836811767
17980427 26 17482826066891993741
1813 80 17604146029639985895
20691752 17 17171776366293093467
22149856 69 17686632642905438931
22182313 1 18194659644405638601
229495 10 17416105408022067585
23352939 185 17895485811842712462
23419403 2 18193250083283485396
23557571 272 18343032068859388838
23559900 14 18200025124480560378
25222932 49 15685319302476470815
2748010 2 18196628856603360601
394222 165 17034792417562255409
46194498 28 17025426971138606503
469060 322 17530687593522023938
497634 4 18265064540035332734
5845 1 10263943416538747125

> <PUBCHEM_SHAPE_MULTIPOLES>
486.92
5.75
3.19
2.21
1.74
0.51
2.21
4.96
-0.4
-1.65
-1.22
-0.15
-1.6
-0.01

> <PUBCHEM_SHAPE_SELFOVERLAP>
1086.374

> <PUBCHEM_SHAPE_VOLUME>
258.4

> <PUBCHEM_COORDINATE_TYPE>
2
5
10

$$$$
