119079925
  -OEChem-09032004552D

 53 58  0     1  0  0  0  0  0999 V2000
    6.3440    0.2054    0.0000 O   0  0  0  0  0  0  0  0  0  0  0  0
    8.6617   -2.1436    0.0000 O   0  0  0  0  0  0  0  0  0  0  0  0
    9.3690   -0.5625    0.0000 O   0  0  0  0  0  0  0  0  0  0  0  0
    5.4212   -1.1368    0.0000 N   0  0  3  0  0  0  0  0  0  0  0  0
    7.4557    1.7429    0.0000 N   0  0  3  0  0  0  0  0  0  0  0  0
    7.9557    0.2041    0.0000 C   0  0  1  0  0  0  0  0  0  0  0  0
    7.1467    0.7918    0.0000 C   0  0  1  0  0  0  0  0  0  0  0  0
    7.6461   -0.7406    0.0000 C   0  0  1  0  0  0  0  0  0  0  0  0
    5.6828    0.3654    0.0000 C   0  0  2  0  0  0  0  0  0  0  0  0
    3.8664    0.4272    0.0000 C   0  0  1  0  0  0  0  0  0  0  0  0
    4.7906    0.8662    0.0000 C   0  0  0  0  0  0  0  0  0  0  0  0
    8.0025   -1.3200    0.0000 C   0  0  0  0  0  0  0  0  0  0  0  0
    6.6520   -0.7397    0.0000 C   0  0  0  0  0  0  0  0  0  0  0  0
    8.7648    0.7918    0.0000 C   0  0  0  0  0  0  0  0  0  0  0  0
    6.6548   -2.0330    0.0000 C   0  0  0  0  0  0  0  0  0  0  0  0
    3.6908   -0.5808    0.0000 C   0  0  0  0  0  0  0  0  0  0  0  0
    4.4122   -1.3064    0.0000 C   0  0  0  0  0  0  0  0  0  0  0  0
    8.4557    1.7429    0.0000 C   0  0  0  0  0  0  0  0  0  0  0  0
    8.5589   -1.1489    0.0000 C   0  0  0  0  0  0  0  0  0  0  0  0
    6.8679    2.5519    0.0000 C   0  0  0  0  0  0  0  0  0  0  0  0
    9.7802    0.5596    0.0000 C   0  0  0  0  0  0  0  0  0  0  0  0
    9.1407    2.5276    0.0000 C   0  0  0  0  0  0  0  0  0  0  0  0
    2.7370   -0.8811    0.0000 C   0  0  0  0  0  0  0  0  0  0  0  0
   10.4831    1.3283    0.0000 C   0  0  0  0  0  0  0  0  0  0  0  0
   10.1612    2.3189    0.0000 C   0  0  0  0  0  0  0  0  0  0  0  0
    2.0000   -0.2052    0.0000 C   0  0  0  0  0  0  0  0  0  0  0  0
    9.5746   -2.5519    0.0000 C   0  0  0  0  0  0  0  0  0  0  0  0
    5.8286    1.2028    0.0000 H   0  0  0  0  0  0  0  0  0  0  0  0
    3.1897    0.9415    0.0000 H   0  0  0  0  0  0  0  0  0  0  0  0
    5.1979    1.3336    0.0000 H   0  0  0  0  0  0  0  0  0  0  0  0
    4.4160    1.3602    0.0000 H   0  0  0  0  0  0  0  0  0  0  0  0
    8.2061   -1.9056    0.0000 H   0  0  0  0  0  0  0  0  0  0  0  0
    8.6122   -1.2074    0.0000 H   0  0  0  0  0  0  0  0  0  0  0  0
    6.0456   -0.8688    0.0000 H   0  0  0  0  0  0  0  0  0  0  0  0
    6.7166   -1.3563    0.0000 H   0  0  0  0  0  0  0  0  0  0  0  0
    6.2186   -2.4736    0.0000 H   0  0  0  0  0  0  0  0  0  0  0  0
    7.0243   -2.5308    0.0000 H   0  0  0  0  0  0  0  0  0  0  0  0
    3.8926   -1.6447    0.0000 H   0  0  0  0  0  0  0  0  0  0  0  0
    4.6375   -1.8840    0.0000 H   0  0  0  0  0  0  0  0  0  0  0  0
    7.3695    2.9163    0.0000 H   0  0  0  0  0  0  0  0  0  0  0  0
    6.5035    3.0535    0.0000 H   0  0  0  0  0  0  0  0  0  0  0  0
    6.3664    2.1875    0.0000 H   0  0  0  0  0  0  0  0  0  0  0  0
    9.9649   -0.0322    0.0000 H   0  0  0  0  0  0  0  0  0  0  0  0
    8.9423    3.1150    0.0000 H   0  0  0  0  0  0  0  0  0  0  0  0
    2.6026   -1.4864    0.0000 H   0  0  0  0  0  0  0  0  0  0  0  0
   11.0890    1.1970    0.0000 H   0  0  0  0  0  0  0  0  0  0  0  0
   10.5743    2.7813    0.0000 H   0  0  0  0  0  0  0  0  0  0  0  0
    2.4190    0.2517    0.0000 H   0  0  0  0  0  0  0  0  0  0  0  0
    1.5431    0.2138    0.0000 H   0  0  0  0  0  0  0  0  0  0  0  0
    1.5810   -0.6622    0.0000 H   0  0  0  0  0  0  0  0  0  0  0  0
    9.3214   -3.1179    0.0000 H   0  0  0  0  0  0  0  0  0  0  0  0
   10.1405   -2.8051    0.0000 H   0  0  0  0  0  0  0  0  0  0  0  0
    9.8277   -1.9860    0.0000 H   0  0  0  0  0  0  0  0  0  0  0  0
  1  7  1  0  0  0  0
  1 13  1  0  0  0  0
  2 19  1  0  0  0  0
  2 27  1  0  0  0  0
  3 19  2  0  0  0  0
  4  9  1  0  0  0  0
  4 15  1  0  0  0  0
  4 17  1  0  0  0  0
  7  5  1  1  0  0  0
  5 18  1  0  0  0  0
  5 20  1  0  0  0  0
  6  7  1  0  0  0  0
  6  8  1  0  0  0  0
  6 12  1  0  0  0  0
  6 14  1  1  0  0  0
  7  9  1  0  0  0  0
  8 10  1  0  0  0  0
  8 13  1  0  0  0  0
  8 19  1  1  0  0  0
  9 11  1  0  0  0  0
  9 28  1  6  0  0  0
 10 11  1  0  0  0  0
 10 16  1  0  0  0  0
 10 29  1  1  0  0  0
 11 30  1  0  0  0  0
 11 31  1  0  0  0  0
 12 15  1  0  0  0  0
 12 32  1  0  0  0  0
 12 33  1  0  0  0  0
 13 34  1  0  0  0  0
 13 35  1  0  0  0  0
 14 18  1  0  0  0  0
 14 21  2  0  0  0  0
 15 36  1  0  0  0  0
 15 37  1  0  0  0  0
 16 17  1  0  0  0  0
 16 23  2  0  0  0  0
 17 38  1  0  0  0  0
 17 39  1  0  0  0  0
 18 22  2  0  0  0  0
 20 40  1  0  0  0  0
 20 41  1  0  0  0  0
 20 42  1  0  0  0  0
 21 24  1  0  0  0  0
 21 43  1  0  0  0  0
 22 25  1  0  0  0  0
 22 44  1  0  0  0  0
 23 26  1  0  0  0  0
 23 45  1  0  0  0  0
 24 25  2  0  0  0  0
 24 46  1  0  0  0  0
 25 47  1  0  0  0  0
 26 48  1  0  0  0  0
 26 49  1  0  0  0  0
 26 50  1  0  0  0  0
 27 51  1  0  0  0  0
 27 52  1  0  0  0  0
 27 53  1  0  0  0  0
M  END
> <PUBCHEM_COMPOUND_CID>
119079925

> <PUBCHEM_COMPOUND_CANONICALIZED>
1

> <PUBCHEM_CACTVS_COMPLEXITY>
737

> <PUBCHEM_CACTVS_HBOND_ACCEPTOR>
5

> <PUBCHEM_CACTVS_HBOND_DONOR>
0

> <PUBCHEM_CACTVS_ROTATABLE_BOND>
2

> <PUBCHEM_CACTVS_SUBSKEYS>
AAADceB7MAAAAAAAAAAAAAAAAAAAAWJAAAA8eIEABIAWLFgBAAAAHgAAAAAADyzhmAYyyIMABACIAiTSSACCAAAhAgAIiAEIZIgKYDbAkZGfIAhl4AHYyAf+2fOfgAAAAAACAABQAAaAADQgQAAAAAAAAA==

> <PUBCHEM_IUPAC_OPENEYE_NAME>
methyl (1S,9S,14E,15S,16S,19S)-14-ethylidene-2-methyl-18-oxa-2,12-diazahexacyclo[13.3.2.01,9.03,8.09,16.012,19]icosa-3,5,7-triene-16-carboxylate

> <PUBCHEM_IUPAC_CAS_NAME>
(1S,9S,14E,15S,16S,19S)-14-ethylidene-2-methyl-18-oxa-2,12-diazahexacyclo[13.3.2.01,9.03,8.09,16.012,19]eicosa-3,5,7-triene-16-carboxylic acid methyl ester

> <PUBCHEM_IUPAC_NAME_MARKUP>
methyl (1<I>S</I>,9<I>S</I>,14<I>E</I>,15<I>S</I>,16<I>S</I>,19<I>S</I>)-14-ethylidene-2-methyl-18-oxa-2,12-diazahexacyclo[13.3.2.0<SUP>1,9</SUP>.0<SUP>3,8</SUP>.0<SUP>9,16</SUP>.0<SUP>12,19</SUP>]icosa-3,5,7-triene-16-carboxylate

> <PUBCHEM_IUPAC_NAME>
methyl (1S,9S,14E,15S,16S,19S)-14-ethylidene-2-methyl-18-oxa-2,12-diazahexacyclo[13.3.2.01,9.03,8.09,16.012,19]icosa-3,5,7-triene-16-carboxylate

> <PUBCHEM_IUPAC_SYSTEMATIC_NAME>
methyl (1S,9S,14E,15S,16S,19S)-14-ethylidene-2-methyl-18-oxa-2,12-diazahexacyclo[13.3.2.01,9.03,8.09,16.012,19]icosa-3,5,7-triene-16-carboxylate

> <PUBCHEM_IUPAC_TRADITIONAL_NAME>
(1S,9S,14E,15S,16S,19S)-14-ethylidene-2-methyl-18-oxa-2,12-diazahexacyclo[13.3.2.01,9.03,8.09,16.012,19]eicosa-3,5,7-triene-16-carboxylic acid methyl ester

> <PUBCHEM_IUPAC_INCHI>
InChI=1S/C22H26N2O3/c1-4-14-12-24-10-9-21-15-7-5-6-8-17(15)23(2)22(21)18(24)11-16(14)20(21,13-27-22)19(25)26-3/h4-8,16,18H,9-13H2,1-3H3/b14-4-/t16-,18-,20+,21-,22+/m0/s1

> <PUBCHEM_IUPAC_INCHIKEY>
HAGBWVNSVWLTKY-SOPAEJKQSA-N

> <PUBCHEM_XLOGP3_AA>
1.9

> <PUBCHEM_EXACT_MASS>
366.194343

> <PUBCHEM_MOLECULAR_FORMULA>
C22H26N2O3

> <PUBCHEM_MOLECULAR_WEIGHT>
366.5

> <PUBCHEM_OPENEYE_CAN_SMILES>
CC=C1CN2CCC34C5=CC=CC=C5N(C36C2CC1C4(CO6)C(=O)OC)C

> <PUBCHEM_OPENEYE_ISO_SMILES>
C/C=C\1/CN2CC[C@@]34C5=CC=CC=C5N([C@@]36[C@@H]2C[C@@H]1[C@]4(CO6)C(=O)OC)C

> <PUBCHEM_CACTVS_TPSA>
42

> <PUBCHEM_MONOISOTOPIC_WEIGHT>
366.194343

> <PUBCHEM_TOTAL_CHARGE>
0

> <PUBCHEM_HEAVY_ATOM_COUNT>
27

> <PUBCHEM_ATOM_DEF_STEREO_COUNT>
5

> <PUBCHEM_ATOM_UDEF_STEREO_COUNT>
0

> <PUBCHEM_BOND_DEF_STEREO_COUNT>
1

> <PUBCHEM_BOND_UDEF_STEREO_COUNT>
0

> <PUBCHEM_ISOTOPIC_ATOM_COUNT>
0

> <PUBCHEM_COMPONENT_COUNT>
1

> <PUBCHEM_CACTVS_TAUTO_COUNT>
-1

> <PUBCHEM_COORDINATE_TYPE>
1
5
255

> <PUBCHEM_BONDANNOTATIONS>
10  29  5
14  18  8
14  21  8
18  22  8
21  24  8
22  25  8
24  25  8
7  5  5
6  14  5
8  19  5
9  28  6

$$$$
