101712320
  -OEChem-09032004432D

 49 54  0     1  0  0  0  0  0999 V2000
    7.0414   -0.3154    0.0000 O   0  0  0  0  0  0  0  0  0  0  0  0
    6.6450   -1.6611    0.0000 O   0  0  0  0  0  0  0  0  0  0  0  0
    4.5884   -1.5565    0.0000 O   0  0  0  0  0  0  0  0  0  0  0  0
    5.6948   -1.8600    0.0000 O   0  0  0  0  0  0  0  0  0  0  0  0
    7.2310    0.7291    0.0000 N   0  0  3  0  0  0  0  0  0  0  0  0
    4.8482    2.3397    0.0000 N   0  0  0  0  0  0  0  0  0  0  0  0
    4.8482    0.6221    0.0000 C   0  0  2  0  0  0  0  0  0  0  0  0
    5.1306   -0.4012    0.0000 C   0  0  2  0  0  0  0  0  0  0  0  0
    6.4813   -0.3119    0.0000 C   0  0  3  0  0  0  0  0  0  0  0  0
    5.5377    0.0655    0.0000 C   0  0  1  0  0  0  0  0  0  0  0  0
    5.8915    0.7732    0.0000 C   0  0  1  0  0  0  0  0  0  0  0  0
    6.5326    1.5285    0.0000 C   0  0  2  0  0  0  0  0  0  0  0  0
    5.4721    1.4809    0.0000 C   0  0  0  0  0  0  0  0  0  0  0  0
    6.5285    0.8675    0.0000 C   0  0  0  0  0  0  0  0  0  0  0  0
    6.5049    0.3250    0.0000 C   0  0  0  0  0  0  0  0  0  0  0  0
    6.1067   -0.8184    0.0000 C   0  0  2  0  0  0  0  0  0  0  0  0
    3.8386    0.9501    0.0000 C   0  0  0  0  0  0  0  0  0  0  0  0
    5.3584   -0.9183    0.0000 C   0  0  0  0  0  0  0  0  0  0  0  0
    3.8386    2.0116    0.0000 C   0  0  0  0  0  0  0  0  0  0  0  0
    7.3092    0.9191    0.0000 C   0  0  0  0  0  0  0  0  0  0  0  0
    2.9193    0.4193    0.0000 C   0  0  0  0  0  0  0  0  0  0  0  0
    2.9193    2.5424    0.0000 C   0  0  0  0  0  0  0  0  0  0  0  0
    7.7088    1.8358    0.0000 C   0  0  0  0  0  0  0  0  0  0  0  0
    2.0000    0.9501    0.0000 C   0  0  0  0  0  0  0  0  0  0  0  0
    2.0000    2.0116    0.0000 C   0  0  0  0  0  0  0  0  0  0  0  0
    7.6440   -1.6162    0.0000 C   0  0  0  0  0  0  0  0  0  0  0  0
    4.7564   -2.5424    0.0000 C   0  0  0  0  0  0  0  0  0  0  0  0
    4.3378   -0.7078    0.0000 H   0  0  0  0  0  0  0  0  0  0  0  0
    6.7820   -0.8541    0.0000 H   0  0  0  0  0  0  0  0  0  0  0  0
    6.1259   -0.1307    0.0000 H   0  0  0  0  0  0  0  0  0  0  0  0
    5.0670    0.9798    0.0000 H   0  0  0  0  0  0  0  0  0  0  0  0
    6.4311    2.3724    0.0000 H   0  0  0  0  0  0  0  0  0  0  0  0
    6.5879    0.2504    0.0000 H   0  0  0  0  0  0  0  0  0  0  0  0
    7.1478    0.8954    0.0000 H   0  0  0  0  0  0  0  0  0  0  0  0
    5.7058   -1.2914    0.0000 H   0  0  0  0  0  0  0  0  0  0  0  0
    7.8776    0.6714    0.0000 H   0  0  0  0  0  0  0  0  0  0  0  0
    2.9193   -0.2007    0.0000 H   0  0  0  0  0  0  0  0  0  0  0  0
    2.9193    3.1624    0.0000 H   0  0  0  0  0  0  0  0  0  0  0  0
    8.2772    1.5881    0.0000 H   0  0  0  0  0  0  0  0  0  0  0  0
    7.9565    2.4042    0.0000 H   0  0  0  0  0  0  0  0  0  0  0  0
    7.1404    2.0835    0.0000 H   0  0  0  0  0  0  0  0  0  0  0  0
    1.4631    0.6401    0.0000 H   0  0  0  0  0  0  0  0  0  0  0  0
    1.4631    2.3216    0.0000 H   0  0  0  0  0  0  0  0  0  0  0  0
    7.6718   -2.2356    0.0000 H   0  0  0  0  0  0  0  0  0  0  0  0
    8.2634   -1.5884    0.0000 H   0  0  0  0  0  0  0  0  0  0  0  0
    7.6162   -0.9969    0.0000 H   0  0  0  0  0  0  0  0  0  0  0  0
    4.1452   -2.6465    0.0000 H   0  0  0  0  0  0  0  0  0  0  0  0
    4.8605   -3.1536    0.0000 H   0  0  0  0  0  0  0  0  0  0  0  0
    5.3676   -2.4383    0.0000 H   0  0  0  0  0  0  0  0  0  0  0  0
  1  5  1  0  0  0  0
  1 16  1  0  0  0  0
 16  2  1  6  0  0  0
  2 26  1  0  0  0  0
  3 18  1  0  0  0  0
  3 27  1  0  0  0  0
  4 18  2  0  0  0  0
  5  9  1  0  0  0  0
  5 12  1  0  0  0  0
  6 13  2  0  0  0  0
  6 19  1  0  0  0  0
  7  8  1  0  0  0  0
  7 10  1  0  0  0  0
  7 13  1  0  0  0  0
  7 17  1  6  0  0  0
  8  9  1  0  0  0  0
  8 16  1  0  0  0  0
  8 28  1  1  0  0  0
  9 15  1  0  0  0  0
  9 29  1  0  0  0  0
 10 11  1  0  0  0  0
 10 18  1  1  0  0  0
 10 30  1  0  0  0  0
 11 14  1  0  0  0  0
 11 15  1  0  0  0  0
 11 31  1  6  0  0  0
 12 13  1  0  0  0  0
 12 14  1  0  0  0  0
 12 32  1  6  0  0  0
 14 33  1  0  0  0  0
 14 34  1  0  0  0  0
 15 20  2  0  0  0  0
 16 35  1  0  0  0  0
 17 19  1  0  0  0  0
 17 21  2  0  0  0  0
 19 22  2  0  0  0  0
 20 23  1  0  0  0  0
 20 36  1  0  0  0  0
 21 24  1  0  0  0  0
 21 37  1  0  0  0  0
 22 25  1  0  0  0  0
 22 38  1  0  0  0  0
 23 39  1  0  0  0  0
 23 40  1  0  0  0  0
 23 41  1  0  0  0  0
 24 25  2  0  0  0  0
 24 42  1  0  0  0  0
 25 43  1  0  0  0  0
 26 44  1  0  0  0  0
 26 45  1  0  0  0  0
 26 46  1  0  0  0  0
 27 47  1  0  0  0  0
 27 48  1  0  0  0  0
 27 49  1  0  0  0  0
M  END
> <PUBCHEM_COMPOUND_CID>
101712320

> <PUBCHEM_COMPOUND_CANONICALIZED>
1

> <PUBCHEM_CACTVS_COMPLEXITY>
763

> <PUBCHEM_CACTVS_HBOND_ACCEPTOR>
6

> <PUBCHEM_CACTVS_HBOND_DONOR>
0

> <PUBCHEM_CACTVS_ROTATABLE_BOND>
3

> <PUBCHEM_CACTVS_SUBSKEYS>
AAADceB7OAAAAAAAAAAAAAAAAAAAAWIAAAA8eMECBYAAAEABAAAAHgAEAAAADyjxmAcyyIIQBACoAyTyTACCAAAgAgAoiAE4ZIgYIDKAkZGEIABmgACIyAeY/fufgAAAAAACAACQAASAACQAAAAAAAAAAA==

> <PUBCHEM_IUPAC_OPENEYE_NAME>
methyl (1R,10S,12R,13E,17S,18R,19R)-13-ethylidene-17-methoxy-16-oxa-8,15-diazahexacyclo[10.6.1.01,9.02,7.010,15.014,18]nonadeca-2,4,6,8-tetraene-19-carboxylate

> <PUBCHEM_IUPAC_CAS_NAME>
(1R,10S,12R,13E,17S,18R,19R)-13-ethylidene-17-methoxy-16-oxa-8,15-diazahexacyclo[10.6.1.01,9.02,7.010,15.014,18]nonadeca-2,4,6,8-tetraene-19-carboxylic acid methyl ester

> <PUBCHEM_IUPAC_NAME_MARKUP>
methyl (1<I>R</I>,10<I>S</I>,12<I>R</I>,13<I>E</I>,17<I>S</I>,18<I>R</I>,19<I>R</I>)-13-ethylidene-17-methoxy-16-oxa-8,15-diazahexacyclo[10.6.1.0<SUP>1,9</SUP>.0<SUP>2,7</SUP>.0<SUP>10,15</SUP>.0<SUP>14,18</SUP>]nonadeca-2,4,6,8-tetraene-19-carboxylate

> <PUBCHEM_IUPAC_NAME>
methyl (1R,10S,12R,13E,17S,18R,19R)-13-ethylidene-17-methoxy-16-oxa-8,15-diazahexacyclo[10.6.1.01,9.02,7.010,15.014,18]nonadeca-2,4,6,8-tetraene-19-carboxylate

> <PUBCHEM_IUPAC_SYSTEMATIC_NAME>
methyl (1R,10S,12R,13E,17S,18R,19R)-13-ethylidene-17-methoxy-16-oxa-8,15-diazahexacyclo[10.6.1.01,9.02,7.010,15.014,18]nonadeca-2,4,6,8-tetraene-19-carboxylate

> <PUBCHEM_IUPAC_TRADITIONAL_NAME>
(1R,10S,12R,13E,17S,18R,19R)-13-ethylidene-17-methoxy-16-oxa-8,15-diazahexacyclo[10.6.1.01,9.02,7.010,15.014,18]nonadeca-2,4,6,8-tetraene-19-carboxylic acid methyl ester

> <PUBCHEM_IUPAC_INCHI>
InChI=1S/C21H22N2O4/c1-4-10-11-9-14-18-21(15(11)19(24)25-2,12-7-5-6-8-13(12)22-18)16-17(10)23(14)27-20(16)26-3/h4-8,11,14-17,20H,9H2,1-3H3/b10-4+/t11-,14-,15-,16+,17?,20-,21-/m0/s1

> <PUBCHEM_IUPAC_INCHIKEY>
XAPXZORJNSUNGB-CJOGCNLXSA-N

> <PUBCHEM_XLOGP3_AA>
1.5

> <PUBCHEM_EXACT_MASS>
366.157957

> <PUBCHEM_MOLECULAR_FORMULA>
C21H22N2O4

> <PUBCHEM_MOLECULAR_WEIGHT>
366.4

> <PUBCHEM_OPENEYE_CAN_SMILES>
CC=C1C2CC3C4=NC5=CC=CC=C5C4(C2C(=O)OC)C6C1N3OC6OC

> <PUBCHEM_OPENEYE_ISO_SMILES>
C/C=C/1\[C@@H]2C[C@H]3C4=NC5=CC=CC=C5[C@]4([C@@H]2C(=O)OC)[C@@H]6C1N3O[C@@H]6OC

> <PUBCHEM_CACTVS_TPSA>
60.4

> <PUBCHEM_MONOISOTOPIC_WEIGHT>
366.157957

> <PUBCHEM_TOTAL_CHARGE>
0

> <PUBCHEM_HEAVY_ATOM_COUNT>
27

> <PUBCHEM_ATOM_DEF_STEREO_COUNT>
6

> <PUBCHEM_ATOM_UDEF_STEREO_COUNT>
1

> <PUBCHEM_BOND_DEF_STEREO_COUNT>
1

> <PUBCHEM_BOND_UDEF_STEREO_COUNT>
0

> <PUBCHEM_ISOTOPIC_ATOM_COUNT>
0

> <PUBCHEM_COMPONENT_COUNT>
1

> <PUBCHEM_CACTVS_TAUTO_COUNT>
-1

> <PUBCHEM_COORDINATE_TYPE>
1
5
255

> <PUBCHEM_BONDANNOTATIONS>
10  18  5
11  31  6
12  32  6
17  19  8
17  21  8
19  22  8
16  2  6
21  24  8
22  25  8
24  25  8
7  17  6
8  28  5
9  15  3

$$$$
