146158636
  -OEChem-09032004382D

 49 52  0     1  0  0  0  0  0999 V2000
    4.9720    1.5660    0.0000 O   0  0  0  0  0  0  0  0  0  0  0  0
    4.5535    2.2580    0.0000 O   0  0  0  0  0  0  0  0  0  0  0  0
    3.2765    1.0878    0.0000 O   0  0  0  0  0  0  0  0  0  0  0  0
    6.6882   -0.2964    0.0000 N   0  0  3  0  0  0  0  0  0  0  0  0
    3.2922   -0.2364    0.0000 N   0  0  0  0  0  0  0  0  0  0  0  0
    6.9470    0.6695    0.0000 C   0  0  3  0  0  0  0  0  0  0  0  0
    4.9284    0.5670    0.0000 C   0  0  2  0  0  0  0  0  0  0  0  0
    8.3460    0.1607    0.0000 C   0  0  0  0  0  0  0  0  0  0  0  0
    6.5764    2.0182    0.0000 C   0  0  0  0  0  0  0  0  0  0  0  0
    8.0872   -0.8052    0.0000 C   0  0  0  0  0  0  0  0  0  0  0  0
    4.2856   -0.1991    0.0000 C   0  0  0  0  0  0  0  0  0  0  0  0
    5.7104    1.5182    0.0000 C   0  0  0  0  0  0  0  0  0  0  0  0
    5.6124   -1.3124    0.0000 C   0  0  0  0  0  0  0  0  0  0  0  0
    4.6276   -1.1388    0.0000 C   0  0  0  0  0  0  0  0  0  0  0  0
    3.8427   -1.7488    0.0000 C   0  0  0  0  0  0  0  0  0  0  0  0
    4.2528    1.3042    0.0000 C   0  0  0  0  0  0  0  0  0  0  0  0
    3.0190   -1.1922    0.0000 C   0  0  0  0  0  0  0  0  0  0  0  0
    6.8353    2.9841    0.0000 C   0  0  0  0  0  0  0  0  0  0  0  0
    3.7855   -2.7826    0.0000 C   0  0  0  0  0  0  0  0  0  0  0  0
    2.0811   -1.6309    0.0000 C   0  0  0  0  0  0  0  0  0  0  0  0
    5.5093    2.4094    0.0000 C   0  0  0  0  0  0  0  0  0  0  0  0
    7.8012    3.2429    0.0000 C   0  0  0  0  0  0  0  0  0  0  0  0
    2.8579   -3.2429    0.0000 C   0  0  0  0  0  0  0  0  0  0  0  0
    2.0000   -2.6632    0.0000 C   0  0  0  0  0  0  0  0  0  0  0  0
    3.8779    2.9952    0.0000 C   0  0  0  0  0  0  0  0  0  0  0  0
    7.4028    1.0899    0.0000 H   0  0  0  0  0  0  0  0  0  0  0  0
    8.9399   -0.0171    0.0000 H   0  0  0  0  0  0  0  0  0  0  0  0
    8.5409    0.7493    0.0000 H   0  0  0  0  0  0  0  0  0  0  0  0
    7.8922   -1.3938    0.0000 H   0  0  0  0  0  0  0  0  0  0  0  0
    8.6811   -0.9830    0.0000 H   0  0  0  0  0  0  0  0  0  0  0  0
    5.4057    2.0581    0.0000 H   0  0  0  0  0  0  0  0  0  0  0  0
    5.1675    1.2187    0.0000 H   0  0  0  0  0  0  0  0  0  0  0  0
    5.3780   -1.8864    0.0000 H   0  0  0  0  0  0  0  0  0  0  0  0
    6.1238   -1.6629    0.0000 H   0  0  0  0  0  0  0  0  0  0  0  0
    2.9096    0.2515    0.0000 H   0  0  0  0  0  0  0  0  0  0  0  0
    6.3968    3.4225    0.0000 H   0  0  0  0  0  0  0  0  0  0  0  0
    4.3032   -3.1238    0.0000 H   0  0  0  0  0  0  0  0  0  0  0  0
    1.5714   -1.2778    0.0000 H   0  0  0  0  0  0  0  0  0  0  0  0
    6.0322    2.0763    0.0000 H   0  0  0  0  0  0  0  0  0  0  0  0
    5.8424    2.9323    0.0000 H   0  0  0  0  0  0  0  0  0  0  0  0
    4.9864    2.7425    0.0000 H   0  0  0  0  0  0  0  0  0  0  0  0
    7.9616    2.6440    0.0000 H   0  0  0  0  0  0  0  0  0  0  0  0
    8.4001    3.4034    0.0000 H   0  0  0  0  0  0  0  0  0  0  0  0
    7.6407    3.8418    0.0000 H   0  0  0  0  0  0  0  0  0  0  0  0
    2.8165   -3.8615    0.0000 H   0  0  0  0  0  0  0  0  0  0  0  0
    1.4415   -2.9323    0.0000 H   0  0  0  0  0  0  0  0  0  0  0  0
    4.3350    3.4141    0.0000 H   0  0  0  0  0  0  0  0  0  0  0  0
    3.4590    3.4523    0.0000 H   0  0  0  0  0  0  0  0  0  0  0  0
    3.4208    2.5764    0.0000 H   0  0  0  0  0  0  0  0  0  0  0  0
  7  1  1  6  0  0  0
  1 21  1  0  0  0  0
  2 16  1  0  0  0  0
  2 25  1  0  0  0  0
  3 16  2  0  0  0  0
  4 10  1  0  0  0  0
  4 12  1  0  0  0  0
  4 13  1  0  0  0  0
  5 11  1  0  0  0  0
  5 17  1  0  0  0  0
  5 35  1  0  0  0  0
  6  7  1  0  0  0  0
  6  8  1  0  0  0  0
  6  9  1  0  0  0  0
  6 26  1  0  0  0  0
  7 11  1  0  0  0  0
  7 16  1  0  0  0  0
  8 10  1  0  0  0  0
  8 27  1  0  0  0  0
  8 28  1  0  0  0  0
  9 12  1  0  0  0  0
  9 18  2  3  0  0  0
 10 29  1  0  0  0  0
 10 30  1  0  0  0  0
 11 14  2  0  0  0  0
 12 31  1  0  0  0  0
 12 32  1  0  0  0  0
 13 14  1  0  0  0  0
 13 33  1  0  0  0  0
 13 34  1  0  0  0  0
 14 15  1  0  0  0  0
 15 17  1  0  0  0  0
 15 19  2  0  0  0  0
 17 20  2  0  0  0  0
 18 22  1  0  0  0  0
 18 36  1  0  0  0  0
 19 23  1  0  0  0  0
 19 37  1  0  0  0  0
 20 24  1  0  0  0  0
 20 38  1  0  0  0  0
 21 39  1  0  0  0  0
 21 40  1  0  0  0  0
 21 41  1  0  0  0  0
 22 42  1  0  0  0  0
 22 43  1  0  0  0  0
 22 44  1  0  0  0  0
 23 24  2  0  0  0  0
 23 45  1  0  0  0  0
 24 46  1  0  0  0  0
 25 47  1  0  0  0  0
 25 48  1  0  0  0  0
 25 49  1  0  0  0  0
M  END
> <PUBCHEM_COMPOUND_CID>
146158636

> <PUBCHEM_COMPOUND_CANONICALIZED>
1

> <PUBCHEM_CACTVS_COMPLEXITY>
563

> <PUBCHEM_CACTVS_HBOND_ACCEPTOR>
4

> <PUBCHEM_CACTVS_HBOND_DONOR>
1

> <PUBCHEM_CACTVS_ROTATABLE_BOND>
3

> <PUBCHEM_CACTVS_SUBSKEYS>
AAADceB7MAAAAAAAAAAAAAAAAAAAAWAAAAA8QAAAAAAWLFgB8AAAHgAQAAAADUzBngYyyPPJlACoAyTyTAaCgCAhAiAImSF4bJgLJvrA9Z2FMAhm0AHa6Ae42fOOgAAAAAACAAAAAAAAAAQAAAAAAAAAAA==

> <PUBCHEM_IUPAC_OPENEYE_NAME>
methyl (12R)-14-ethylidene-12-methoxy-1,10-diazatetracyclo[11.2.2.03,11.04,9]heptadeca-3(11),4,6,8-tetraene-12-carboxylate

> <PUBCHEM_IUPAC_CAS_NAME>
(12R)-14-ethylidene-12-methoxy-1,10-diazatetracyclo[11.2.2.03,11.04,9]heptadeca-3(11),4,6,8-tetraene-12-carboxylic acid methyl ester

> <PUBCHEM_IUPAC_NAME_MARKUP>
methyl (12<I>R</I>)-14-ethylidene-12-methoxy-1,10-diazatetracyclo[11.2.2.0<SUP>3,11</SUP>.0<SUP>4,9</SUP>]heptadeca-3(11),4,6,8-tetraene-12-carboxylate

> <PUBCHEM_IUPAC_NAME>
methyl (12R)-14-ethylidene-12-methoxy-1,10-diazatetracyclo[11.2.2.03,11.04,9]heptadeca-3(11),4,6,8-tetraene-12-carboxylate

> <PUBCHEM_IUPAC_SYSTEMATIC_NAME>
methyl (12R)-14-ethylidene-12-methoxy-1,10-diazatetracyclo[11.2.2.03,11.04,9]heptadeca-3(11),4,6,8-tetraene-12-carboxylate

> <PUBCHEM_IUPAC_TRADITIONAL_NAME>
(12R)-14-ethylidene-12-methoxy-1,10-diazatetracyclo[11.2.2.03,11.04,9]heptadeca-3(11),4,6,8-tetraene-12-carboxylic acid methyl ester

> <PUBCHEM_IUPAC_INCHI>
InChI=1S/C20H24N2O3/c1-4-13-11-22-10-9-16(13)20(25-3,19(23)24-2)18-15(12-22)14-7-5-6-8-17(14)21-18/h4-8,16,21H,9-12H2,1-3H3/t16?,20-/m1/s1

> <PUBCHEM_IUPAC_INCHIKEY>
LHUDIIQGWWIOAC-OTOKDRCRSA-N

> <PUBCHEM_XLOGP3_AA>
2

> <PUBCHEM_EXACT_MASS>
340.178693

> <PUBCHEM_MOLECULAR_FORMULA>
C20H24N2O3

> <PUBCHEM_MOLECULAR_WEIGHT>
340.4

> <PUBCHEM_OPENEYE_CAN_SMILES>
CC=C1CN2CCC1C(C3=C(C2)C4=CC=CC=C4N3)(C(=O)OC)OC

> <PUBCHEM_OPENEYE_ISO_SMILES>
CC=C1CN2CCC1[C@@](C3=C(C2)C4=CC=CC=C4N3)(C(=O)OC)OC

> <PUBCHEM_CACTVS_TPSA>
54.6

> <PUBCHEM_MONOISOTOPIC_WEIGHT>
340.178693

> <PUBCHEM_TOTAL_CHARGE>
0

> <PUBCHEM_HEAVY_ATOM_COUNT>
25

> <PUBCHEM_ATOM_DEF_STEREO_COUNT>
1

> <PUBCHEM_ATOM_UDEF_STEREO_COUNT>
1

> <PUBCHEM_BOND_DEF_STEREO_COUNT>
0

> <PUBCHEM_BOND_UDEF_STEREO_COUNT>
1

> <PUBCHEM_ISOTOPIC_ATOM_COUNT>
0

> <PUBCHEM_COMPONENT_COUNT>
1

> <PUBCHEM_CACTVS_TAUTO_COUNT>
-1

> <PUBCHEM_COORDINATE_TYPE>
1
5
255

> <PUBCHEM_BONDANNOTATIONS>
7  1  6
11  14  8
14  15  8
15  17  8
15  19  8
17  20  8
19  23  8
20  24  8
23  24  8
5  11  8
5  17  8
6  8  3
9  18  1

$$$$
