10975491
  -OEChem-09192013503D

 19 19  0     1  0  0  0  0  0999 V2000
   -1.5281   -0.8654    0.5557 O   0  0  0  0  0  0  0  0  0  0  0  0
   -2.6312    0.9866   -0.2216 O   0  0  0  0  0  0  0  0  0  0  0  0
    0.6571   -0.3256   -0.1383 C   0  0  1  0  0  0  0  0  0  0  0  0
   -0.2096    0.9298   -0.1879 C   0  0  0  0  0  0  0  0  0  0  0  0
   -0.1587   -1.2267    0.7788 C   0  0  0  0  0  0  0  0  0  0  0  0
    0.7844   -0.9454   -1.5399 C   0  0  0  0  0  0  0  0  0  0  0  0
    2.0208   -0.0557    0.4240 C   0  0  0  0  0  0  0  0  0  0  0  0
   -1.5940    0.3888    0.0195 C   0  0  0  0  0  0  0  0  0  0  0  0
    2.6594    1.1137    0.3096 C   0  0  0  0  0  0  0  0  0  0  0  0
   -0.1489    1.4495   -1.1488 H   0  0  0  0  0  0  0  0  0  0  0  0
   -0.0170    1.6288    0.6339 H   0  0  0  0  0  0  0  0  0  0  0  0
   -0.0308   -2.2908    0.5544 H   0  0  0  0  0  0  0  0  0  0  0  0
    0.0567   -1.0711    1.8427 H   0  0  0  0  0  0  0  0  0  0  0  0
    1.3550   -1.8812   -1.5077 H   0  0  0  0  0  0  0  0  0  0  0  0
   -0.1963   -1.1737   -1.9728 H   0  0  0  0  0  0  0  0  0  0  0  0
    1.2996   -0.2674   -2.2305 H   0  0  0  0  0  0  0  0  0  0  0  0
    2.5361   -0.8763    0.9180 H   0  0  0  0  0  0  0  0  0  0  0  0
    3.6550    1.2289    0.7258 H   0  0  0  0  0  0  0  0  0  0  0  0
    2.2346    1.9693   -0.2018 H   0  0  0  0  0  0  0  0  0  0  0  0
  1  5  1  0  0  0  0
  1  8  1  0  0  0  0
  2  8  2  0  0  0  0
  3  4  1  0  0  0  0
  3  5  1  0  0  0  0
  3  6  1  0  0  0  0
  3  7  1  0  0  0  0
  4  8  1  0  0  0  0
  4 10  1  0  0  0  0
  4 11  1  0  0  0  0
  5 12  1  0  0  0  0
  5 13  1  0  0  0  0
  6 14  1  0  0  0  0
  6 15  1  0  0  0  0
  6 16  1  0  0  0  0
  7  9  2  0  0  0  0
  7 17  1  0  0  0  0
  9 18  1  0  0  0  0
  9 19  1  0  0  0  0
M  END
> <PUBCHEM_COMPOUND_CID>
10975491

> <PUBCHEM_CONFORMER_RMSD>
0.4

> <PUBCHEM_CONFORMER_DIVERSEORDER>
2
3
1
5
4

> <PUBCHEM_MMFF94_PARTIAL_CHARGES>
11
1 -0.43
17 0.15
18 0.15
19 0.15
2 -0.57
3 0.14
4 0.06
5 0.28
7 -0.29
8 0.66
9 -0.3

> <PUBCHEM_EFFECTIVE_ROTOR_COUNT>
1.8

> <PUBCHEM_PHARMACOPHORE_FEATURES>
3
1 2 acceptor
1 9 hydrophobe
5 1 3 4 5 8 rings

> <PUBCHEM_HEAVY_ATOM_COUNT>
9

> <PUBCHEM_ATOM_DEF_STEREO_COUNT>
0

> <PUBCHEM_ATOM_UDEF_STEREO_COUNT>
1

> <PUBCHEM_BOND_DEF_STEREO_COUNT>
0

> <PUBCHEM_BOND_UDEF_STEREO_COUNT>
0

> <PUBCHEM_ISOTOPIC_ATOM_COUNT>
0

> <PUBCHEM_COMPONENT_COUNT>
1

> <PUBCHEM_CACTVS_TAUTO_COUNT>
2

> <PUBCHEM_CONFORMER_ID>
00A7790300000002

> <PUBCHEM_MMFF94_ENERGY>
15.7673

> <PUBCHEM_FEATURE_SELFOVERLAP>
15.223

> <PUBCHEM_SHAPE_FINGERPRINT>
12423570 1 11227997706990214550
12897270 3 17203602679493853877
13024252 1 17752183223041981258
137420 1 13075134064236833022
14390081 3 18413384336888247777
16945 1 18119531187242096410
21040471 1 17968669215519303235
23211744 41 18412260623108858385
29004967 10 17704079464466891491
369184 2 18040986384500967976
5084963 1 18343294847463210224

> <PUBCHEM_SHAPE_MULTIPOLES>
173.48
3.12
1.31
1.02
0.15
0.03
0.26
-1.37
-0.26
0.03
0.05
0.15
0.39
0.37

> <PUBCHEM_SHAPE_SELFOVERLAP>
350.337

> <PUBCHEM_SHAPE_VOLUME>
104.5

> <PUBCHEM_COORDINATE_TYPE>
2
5
10

$$$$
