14038847
  -OEChem-09192011233D

 40 41  0     1  0  0  0  0  0999 V2000
    2.1108   -1.5097    1.4129 O   0  0  0  0  0  0  0  0  0  0  0  0
   -0.0999   -0.2254   -0.0826 C   0  0  2  0  0  0  0  0  0  0  0  0
   -1.3870   -0.9489   -0.5088 C   0  0  1  0  0  0  0  0  0  0  0  0
   -0.1405    1.2464   -0.5334 C   0  0  1  0  0  0  0  0  0  0  0  0
    1.0105   -1.1122   -0.6655 C   0  0  2  0  0  0  0  0  0  0  0  0
   -1.0287   -2.4008   -0.2104 C   0  0  0  0  0  0  0  0  0  0  0  0
    0.3899   -2.5188   -0.7756 C   0  0  0  0  0  0  0  0  0  0  0  0
   -1.3763    1.9295    0.0970 C   0  0  0  0  0  0  0  0  0  0  0  0
   -2.5777   -0.2943    0.1364 C   0  0  0  0  0  0  0  0  0  0  0  0
    1.1296    2.0074   -0.1571 C   0  0  0  0  0  0  0  0  0  0  0  0
   -2.6868    1.1799   -0.1857 C   0  0  0  0  0  0  0  0  0  0  0  0
    2.2024   -1.1493    0.2404 C   0  0  0  0  0  0  0  0  0  0  0  0
    1.0755    3.4373   -0.6897 C   0  0  0  0  0  0  0  0  0  0  0  0
    1.3276    2.0048    1.3568 C   0  0  0  0  0  0  0  0  0  0  0  0
   -3.4677   -0.9193    0.9200 C   0  0  0  0  0  0  0  0  0  0  0  0
    3.5183   -0.7265   -0.3547 C   0  0  0  0  0  0  0  0  0  0  0  0
   -0.0652   -0.2618    1.0152 H   0  0  0  0  0  0  0  0  0  0  0  0
   -1.5185   -0.8567   -1.5982 H   0  0  0  0  0  0  0  0  0  0  0  0
   -0.2537    1.2726   -1.6263 H   0  0  0  0  0  0  0  0  0  0  0  0
    1.3039   -0.7710   -1.6646 H   0  0  0  0  0  0  0  0  0  0  0  0
   -1.7150   -3.1104   -0.6828 H   0  0  0  0  0  0  0  0  0  0  0  0
   -1.0170   -2.5998    0.8682 H   0  0  0  0  0  0  0  0  0  0  0  0
    0.9578   -3.3016   -0.2617 H   0  0  0  0  0  0  0  0  0  0  0  0
    0.3349   -2.8032   -1.8339 H   0  0  0  0  0  0  0  0  0  0  0  0
   -1.4966    2.9499   -0.2815 H   0  0  0  0  0  0  0  0  0  0  0  0
   -1.2809    1.9985    1.1857 H   0  0  0  0  0  0  0  0  0  0  0  0
    1.9903    1.5317   -0.6300 H   0  0  0  0  0  0  0  0  0  0  0  0
   -2.9390    1.2857   -1.2486 H   0  0  0  0  0  0  0  0  0  0  0  0
   -3.4999    1.6524    0.3784 H   0  0  0  0  0  0  0  0  0  0  0  0
    0.3654    4.0667   -0.1448 H   0  0  0  0  0  0  0  0  0  0  0  0
    2.0587    3.9107   -0.5854 H   0  0  0  0  0  0  0  0  0  0  0  0
    0.8152    3.4568   -1.7532 H   0  0  0  0  0  0  0  0  0  0  0  0
    0.5873    2.6111    1.8869 H   0  0  0  0  0  0  0  0  0  0  0  0
    2.3000    2.4590    1.5862 H   0  0  0  0  0  0  0  0  0  0  0  0
    1.3504    1.0133    1.8077 H   0  0  0  0  0  0  0  0  0  0  0  0
   -3.3890   -1.9766    1.1460 H   0  0  0  0  0  0  0  0  0  0  0  0
   -4.3055   -0.3839    1.3543 H   0  0  0  0  0  0  0  0  0  0  0  0
    4.0573   -1.6163   -0.6898 H   0  0  0  0  0  0  0  0  0  0  0  0
    3.3818   -0.0555   -1.2047 H   0  0  0  0  0  0  0  0  0  0  0  0
    4.1056   -0.2023    0.4041 H   0  0  0  0  0  0  0  0  0  0  0  0
  1 12  2  0  0  0  0
  2  3  1  0  0  0  0
  2  4  1  0  0  0  0
  2  5  1  0  0  0  0
  2 17  1  0  0  0  0
  3  6  1  0  0  0  0
  3  9  1  0  0  0  0
  3 18  1  0  0  0  0
  4  8  1  0  0  0  0
  4 10  1  0  0  0  0
  4 19  1  0  0  0  0
  5  7  1  0  0  0  0
  5 12  1  0  0  0  0
  5 20  1  0  0  0  0
  6  7  1  0  0  0  0
  6 21  1  0  0  0  0
  6 22  1  0  0  0  0
  7 23  1  0  0  0  0
  7 24  1  0  0  0  0
  8 11  1  0  0  0  0
  8 25  1  0  0  0  0
  8 26  1  0  0  0  0
  9 11  1  0  0  0  0
  9 15  2  0  0  0  0
 10 13  1  0  0  0  0
 10 14  1  0  0  0  0
 10 27  1  0  0  0  0
 11 28  1  0  0  0  0
 11 29  1  0  0  0  0
 12 16  1  0  0  0  0
 13 30  1  0  0  0  0
 13 31  1  0  0  0  0
 13 32  1  0  0  0  0
 14 33  1  0  0  0  0
 14 34  1  0  0  0  0
 14 35  1  0  0  0  0
 15 36  1  0  0  0  0
 15 37  1  0  0  0  0
 16 38  1  0  0  0  0
 16 39  1  0  0  0  0
 16 40  1  0  0  0  0
M  END
> <PUBCHEM_COMPOUND_CID>
14038847

> <PUBCHEM_CONFORMER_RMSD>
0.6

> <PUBCHEM_CONFORMER_DIVERSEORDER>
1
3
2

> <PUBCHEM_MMFF94_PARTIAL_CHARGES>
10
1 -0.57
11 0.14
12 0.45
15 -0.3
16 0.06
3 0.14
36 0.15
37 0.15
5 0.06
9 -0.28

> <PUBCHEM_EFFECTIVE_ROTOR_COUNT>
3.2

> <PUBCHEM_PHARMACOPHORE_FEATURES>
4
1 1 acceptor
3 10 13 14 hydrophobe
5 2 3 5 6 7 rings
6 2 3 4 8 9 11 rings

> <PUBCHEM_HEAVY_ATOM_COUNT>
16

> <PUBCHEM_ATOM_DEF_STEREO_COUNT>
4

> <PUBCHEM_ATOM_UDEF_STEREO_COUNT>
0

> <PUBCHEM_BOND_DEF_STEREO_COUNT>
0

> <PUBCHEM_BOND_UDEF_STEREO_COUNT>
0

> <PUBCHEM_ISOTOPIC_ATOM_COUNT>
0

> <PUBCHEM_COMPONENT_COUNT>
1

> <PUBCHEM_CACTVS_TAUTO_COUNT>
3

> <PUBCHEM_CONFORMER_ID>
00D6373F00000001

> <PUBCHEM_MMFF94_ENERGY>
40.0791

> <PUBCHEM_FEATURE_SELFOVERLAP>
20.359

> <PUBCHEM_SHAPE_FINGERPRINT>
108231 29 18342462491296299338
10967382 1 18195249038224813885
11132069 177 18270109094407891874
11680986 33 18267578181538155395
12011746 2 18340201903858109959
12382932 28 18123191195273760203
12423570 1 16044246042588320327
12696612 119 18410854386402168553
13132413 78 18411986840661493108
13140716 1 18268997664277907875
13172582 1 18342175548773635667
13544592 271 18194954154644814197
14022349 108 18266470973413608577
14251711 518 18337661027123611298
14614273 12 17690277114841750316
14817 1 9972730902674372688
15490181 8 17398388015032710352
16945 1 18336821012913583919
193761 8 18123470750184026175
19868273 325 18339075978308180902
20510252 161 18125722288484728130
20511035 2 18200024182837905591
20588541 1 18051972511375403429
20905425 154 17982738776687869814
21029758 27 18335993003691309726
21061003 4 18270407079175500315
21501502 16 18054231200380110487
22344851 341 17907310088567937866
2334 1 17908422798709712759
23388829 49 18342448262270055927
23402539 116 18271235011690159646
23419403 2 14893731124037220679
23557571 272 18201173057474614646
2748010 2 18339065017430510572
43471831 8 17616810380735949160
528862 383 18265052612209199891
589210 1 18052537969526558558
7364860 26 18269840976563388732
81228 2 17690847756976266065
90316 7 18046048385806300048

> <PUBCHEM_SHAPE_MULTIPOLES>
323.4
4.22
3.48
1.02
1.01
1.4
-0.27
-0.83
-0.81
-1.35
0.47
-0.26
0.02
-0.03

> <PUBCHEM_SHAPE_SELFOVERLAP>
663.002

> <PUBCHEM_SHAPE_VOLUME>
188.1

> <PUBCHEM_COORDINATE_TYPE>
2
5
10

$$$$
