14159029
  -OEChem-09192012523D

 29 29  0     1  0  0  0  0  0999 V2000
   -3.0664    0.8767    0.2347 O   0  0  0  0  0  0  0  0  0  0  0  0
   -3.1017   -1.3815   -0.2741 O   0  0  0  0  0  0  0  0  0  0  0  0
    1.7603    0.1586    0.3092 C   0  0  1  0  0  0  0  0  0  0  0  0
    1.0395    1.0054   -0.7476 C   0  0  0  0  0  0  0  0  0  0  0  0
    1.1621   -1.2589    0.3734 C   0  0  0  0  0  0  0  0  0  0  0  0
   -0.4597    1.1094   -0.4458 C   0  0  0  0  0  0  0  0  0  0  0  0
   -1.0599   -0.2011   -0.0378 C   0  0  0  0  0  0  0  0  0  0  0  0
    3.2325    0.1126    0.0390 C   0  0  0  0  0  0  0  0  0  0  0  0
   -0.3395   -1.2741    0.3185 C   0  0  0  0  0  0  0  0  0  0  0  0
    4.1182    0.6953    1.1000 C   0  0  0  0  0  0  0  0  0  0  0  0
   -2.5189   -0.3329   -0.0463 C   0  0  0  0  0  0  0  0  0  0  0  0
    3.7304   -0.4197   -1.0870 C   0  0  0  0  0  0  0  0  0  0  0  0
   -4.4971    0.9103    0.2638 C   0  0  0  0  0  0  0  0  0  0  0  0
    1.5903    0.6362    1.2852 H   0  0  0  0  0  0  0  0  0  0  0  0
    1.1616    0.5667   -1.7470 H   0  0  0  0  0  0  0  0  0  0  0  0
    1.4671    2.0150   -0.7940 H   0  0  0  0  0  0  0  0  0  0  0  0
    1.4842   -1.7377    1.3070 H   0  0  0  0  0  0  0  0  0  0  0  0
    1.5216   -1.8958   -0.4436 H   0  0  0  0  0  0  0  0  0  0  0  0
   -0.9658    1.5037   -1.3352 H   0  0  0  0  0  0  0  0  0  0  0  0
   -0.6074    1.8364    0.3628 H   0  0  0  0  0  0  0  0  0  0  0  0
   -0.8206   -2.2105    0.5884 H   0  0  0  0  0  0  0  0  0  0  0  0
    3.8817    1.7532    1.2540 H   0  0  0  0  0  0  0  0  0  0  0  0
    3.9771    0.1642    2.0471 H   0  0  0  0  0  0  0  0  0  0  0  0
    5.1786    0.6268    0.8352 H   0  0  0  0  0  0  0  0  0  0  0  0
    4.8002   -0.4458   -1.2677 H   0  0  0  0  0  0  0  0  0  0  0  0
    3.0951   -0.8402   -1.8586 H   0  0  0  0  0  0  0  0  0  0  0  0
   -4.9021    0.6364   -0.7150 H   0  0  0  0  0  0  0  0  0  0  0  0
   -4.8084    1.9315    0.4993 H   0  0  0  0  0  0  0  0  0  0  0  0
   -4.8759    0.2393    1.0406 H   0  0  0  0  0  0  0  0  0  0  0  0
  1 11  1  0  0  0  0
  1 13  1  0  0  0  0
  2 11  2  0  0  0  0
  3  4  1  0  0  0  0
  3  5  1  0  0  0  0
  3  8  1  0  0  0  0
  3 14  1  0  0  0  0
  4  6  1  0  0  0  0
  4 15  1  0  0  0  0
  4 16  1  0  0  0  0
  5  9  1  0  0  0  0
  5 17  1  0  0  0  0
  5 18  1  0  0  0  0
  6  7  1  0  0  0  0
  6 19  1  0  0  0  0
  6 20  1  0  0  0  0
  7  9  2  0  0  0  0
  7 11  1  0  0  0  0
  8 10  1  0  0  0  0
  8 12  2  0  0  0  0
  9 21  1  0  0  0  0
 10 22  1  0  0  0  0
 10 23  1  0  0  0  0
 10 24  1  0  0  0  0
 12 25  1  0  0  0  0
 12 26  1  0  0  0  0
 13 27  1  0  0  0  0
 13 28  1  0  0  0  0
 13 29  1  0  0  0  0
M  END
> <PUBCHEM_COMPOUND_CID>
14159029

> <PUBCHEM_CONFORMER_RMSD>
0.6

> <PUBCHEM_CONFORMER_DIVERSEORDER>
1
9
5
8
2
6
10
4
7
3

> <PUBCHEM_MMFF94_PARTIAL_CHARGES>
15
1 -0.43
10 0.14
11 0.71
12 -0.3
13 0.28
2 -0.57
21 0.15
25 0.15
26 0.15
3 0.14
5 0.14
6 0.14
7 -0.12
8 -0.28
9 -0.29

> <PUBCHEM_EFFECTIVE_ROTOR_COUNT>
3.8

> <PUBCHEM_PHARMACOPHORE_FEATURES>
2
1 2 acceptor
6 3 4 5 6 7 9 rings

> <PUBCHEM_HEAVY_ATOM_COUNT>
13

> <PUBCHEM_ATOM_DEF_STEREO_COUNT>
1

> <PUBCHEM_ATOM_UDEF_STEREO_COUNT>
0

> <PUBCHEM_BOND_DEF_STEREO_COUNT>
0

> <PUBCHEM_BOND_UDEF_STEREO_COUNT>
0

> <PUBCHEM_ISOTOPIC_ATOM_COUNT>
0

> <PUBCHEM_COMPONENT_COUNT>
1

> <PUBCHEM_CACTVS_TAUTO_COUNT>
1

> <PUBCHEM_CONFORMER_ID>
00D80CB500000001

> <PUBCHEM_MMFF94_ENERGY>
20.1138

> <PUBCHEM_FEATURE_SELFOVERLAP>
10.148

> <PUBCHEM_SHAPE_FINGERPRINT>
10130415 120 17603581954605482688
10219947 1 17167861967490489870
11062470 55 17632858628800293625
11132069 177 18408882936273362341
11401426 45 18335695057209109157
11543360 7 16414903240546041197
12032990 46 18335990851670334986
124424 183 15985387767698159887
12500047 106 17561074830432594351
12932764 1 16153702171582527247
13675066 3 18411987970263992721
13760787 5 17167860876621615702
14144814 61 18187642518004769530
14325111 11 18411138056107173958
14993402 34 17968098650615272622
15536298 74 18341331093847356358
15775835 57 18410856542692035611
16945 1 17967248710931243142
17846911 113 18334569144665336584
18175812 5 18059857268240306782
18186145 218 18412823577631664100
19026448 4 17561084726147883950
19026448 5 16200433563352091806
20281475 54 17676486163706274306
20645476 183 16806182076100407666
20645477 70 16702026331506050534
22485316 2 17847058887296512078
23402539 116 18343010108538077982
23463225 33 17968089794582638138
23559900 14 18272936025266511924
2748010 2 17827083114619669638
4990 188 18202290169145068398
528886 8 18334855013309162523
53655031 270 18260546688788400432
53812653 166 18411694387658579624
57812782 119 17346883342612807736
69090 78 17989201559901651431
7364860 26 18196931076610292378

> <PUBCHEM_SHAPE_MULTIPOLES>
255.8
7.7
1.33
0.9
1.82
0.19
-0.02
-1.48
0.78
0.48
0
-0.78
-0.08
0.09

> <PUBCHEM_SHAPE_SELFOVERLAP>
513.082

> <PUBCHEM_SHAPE_VOLUME>
150.5

> <PUBCHEM_COORDINATE_TYPE>
2
5
10

$$$$
