179620
  -OEChem-09192015173D

 33 34  0     0  0  0  0  0  0999 V2000
   -1.4436    1.0357   -0.1994 O   0  0  0  0  0  0  0  0  0  0  0  0
    2.5101   -1.6371    0.3299 O   0  0  0  0  0  0  0  0  0  0  0  0
    1.4151    0.5832   -2.5040 O   0  0  0  0  0  0  0  0  0  0  0  0
   -3.3461    2.2855   -0.4494 O   0  0  0  0  0  0  0  0  0  0  0  0
    0.5388   -0.2886    0.0632 C   0  0  0  0  0  0  0  0  0  0  0  0
   -0.8525   -0.2235    0.0305 C   0  0  0  0  0  0  0  0  0  0  0  0
   -1.6435   -1.3541    0.2166 C   0  0  0  0  0  0  0  0  0  0  0  0
    1.3485    0.9083   -0.1322 C   0  0  0  0  0  0  0  0  0  0  0  0
    1.1518   -1.5193    0.2885 C   0  0  0  0  0  0  0  0  0  0  0  0
    1.7154    1.7223    0.8992 C   0  0  0  0  0  0  0  0  0  0  0  0
   -1.0208   -2.5838    0.4416 C   0  0  0  0  0  0  0  0  0  0  0  0
    0.3743   -2.6643    0.4772 C   0  0  0  0  0  0  0  0  0  0  0  0
   -3.0888   -1.2137    0.1700 C   0  0  0  0  0  0  0  0  0  0  0  0
    2.5510    2.9743    0.7662 C   0  0  0  0  0  0  0  0  0  0  0  0
    1.3257    1.4557    2.3378 C   0  0  0  0  0  0  0  0  0  0  0  0
   -3.6410   -0.0177   -0.0486 C   0  0  0  0  0  0  0  0  0  0  0  0
    1.7574    1.2556   -1.5366 C   0  0  0  0  0  0  0  0  0  0  0  0
   -2.8247    1.1940   -0.2489 C   0  0  0  0  0  0  0  0  0  0  0  0
    3.1728   -1.9125   -0.9017 C   0  0  0  0  0  0  0  0  0  0  0  0
   -1.6076   -3.4867    0.5910 H   0  0  0  0  0  0  0  0  0  0  0  0
    0.8491   -3.6260    0.6537 H   0  0  0  0  0  0  0  0  0  0  0  0
   -3.7081   -2.0919    0.3148 H   0  0  0  0  0  0  0  0  0  0  0  0
    1.9219    3.8192    0.4698 H   0  0  0  0  0  0  0  0  0  0  0  0
    3.3659    2.8542    0.0470 H   0  0  0  0  0  0  0  0  0  0  0  0
    3.0307    3.2308    1.7176 H   0  0  0  0  0  0  0  0  0  0  0  0
    0.7825    2.3174    2.7412 H   0  0  0  0  0  0  0  0  0  0  0  0
    2.2232    1.2970    2.9454 H   0  0  0  0  0  0  0  0  0  0  0  0
    0.6851    0.5814    2.4747 H   0  0  0  0  0  0  0  0  0  0  0  0
   -4.7191    0.0949   -0.0850 H   0  0  0  0  0  0  0  0  0  0  0  0
    2.3637    2.1620   -1.6715 H   0  0  0  0  0  0  0  0  0  0  0  0
    3.6721   -1.0054   -1.2529 H   0  0  0  0  0  0  0  0  0  0  0  0
    2.4873   -2.2777   -1.6744 H   0  0  0  0  0  0  0  0  0  0  0  0
    3.9329   -2.6774   -0.7188 H   0  0  0  0  0  0  0  0  0  0  0  0
  1  6  1  0  0  0  0
  1 18  1  0  0  0  0
  2  9  1  0  0  0  0
  2 19  1  0  0  0  0
  3 17  2  0  0  0  0
  4 18  2  0  0  0  0
  5  6  1  0  0  0  0
  5  8  1  0  0  0  0
  5  9  2  0  0  0  0
  6  7  2  0  0  0  0
  7 11  1  0  0  0  0
  7 13  1  0  0  0  0
  8 10  2  0  0  0  0
  8 17  1  0  0  0  0
  9 12  1  0  0  0  0
 10 14  1  0  0  0  0
 10 15  1  0  0  0  0
 11 12  2  0  0  0  0
 11 20  1  0  0  0  0
 12 21  1  0  0  0  0
 13 16  2  0  0  0  0
 13 22  1  0  0  0  0
 14 23  1  0  0  0  0
 14 24  1  0  0  0  0
 14 25  1  0  0  0  0
 15 26  1  0  0  0  0
 15 27  1  0  0  0  0
 15 28  1  0  0  0  0
 16 18  1  0  0  0  0
 16 29  1  0  0  0  0
 17 30  1  0  0  0  0
 19 31  1  0  0  0  0
 19 32  1  0  0  0  0
 19 33  1  0  0  0  0
M  END
> <PUBCHEM_COMPOUND_CID>
179620

> <PUBCHEM_CONFORMER_RMSD>
0.6

> <PUBCHEM_CONFORMER_DIVERSEORDER>
2
1
3
4

> <PUBCHEM_MMFF94_PARTIAL_CHARGES>
24
1 -0.23
10 -0.28
11 -0.15
12 -0.15
13 -0.18
14 0.14
15 0.14
16 -0.14
17 0.5
18 0.71
19 0.28
2 -0.36
20 0.15
21 0.15
22 0.15
29 0.15
3 -0.57
30 0.06
4 -0.57
5 0.03
6 0.08
7 0.03
8 -0.01
9 0.08

> <PUBCHEM_EFFECTIVE_ROTOR_COUNT>
3

> <PUBCHEM_PHARMACOPHORE_FEATURES>
6
1 2 acceptor
1 3 acceptor
1 4 acceptor
3 10 14 15 hydrophobe
6 1 6 7 13 16 18 rings
6 5 6 7 9 11 12 rings

> <PUBCHEM_HEAVY_ATOM_COUNT>
19

> <PUBCHEM_ATOM_DEF_STEREO_COUNT>
0

> <PUBCHEM_ATOM_UDEF_STEREO_COUNT>
0

> <PUBCHEM_BOND_DEF_STEREO_COUNT>
0

> <PUBCHEM_BOND_UDEF_STEREO_COUNT>
0

> <PUBCHEM_ISOTOPIC_ATOM_COUNT>
0

> <PUBCHEM_COMPONENT_COUNT>
1

> <PUBCHEM_CACTVS_TAUTO_COUNT>
1

> <PUBCHEM_CONFORMER_ID>
0002BDA400000002

> <PUBCHEM_MMFF94_ENERGY>
73.3403

> <PUBCHEM_FEATURE_SELFOVERLAP>
30.475

> <PUBCHEM_SHAPE_FINGERPRINT>
104564 63 17333089724244670721
10967382 1 18120935263870412651
11725454 13 17057507417274449840
12423570 1 13031108905743726602
13132413 78 17839178515487749120
13140716 1 18408321060594398483
13464514 151 18272663363051528944
14713325 29 16811842434900341758
14817 1 11225117480525626400
14955137 171 17980507584206807843
15852999 172 17829850512346120159
16945 1 18048308951331867923
18981168 100 18114450223940957261
20233049 118 18192994824771350950
20510252 161 17764309843979700481
20511035 2 18408322202565621103
20600515 1 18189896418669879294
20905425 154 18268155442365350854
22149856 69 18334863810736924345
22802520 49 18196112137635955462
2334 1 18335983155399884587
23402539 116 17191497322739128086
23419403 2 16967963937442381392
23493267 7 17241618401498514691
23526113 38 17770532955708476428
23559900 14 18267864071873485516
2748010 2 18334856147396962255
2803657 2 17768261110786665513
3071541 158 18262523572014218174
350125 39 18335992995275402889
5845 1 12001149682201540704
7364860 26 18343020008121365890
81228 2 17618233140256206235

> <PUBCHEM_SHAPE_MULTIPOLES>
367.53
5.02
3.24
1.46
2.89
0.43
-0.23
-1.62
-0.41
-1.09
0.5
-1.28
-0.61
1.08

> <PUBCHEM_SHAPE_SELFOVERLAP>
787.424

> <PUBCHEM_SHAPE_VOLUME>
203.8

> <PUBCHEM_COORDINATE_TYPE>
2
5
10

$$$$
