5369728
  -OEChem-09192014153D

 29 29  0     0  0  0  0  0  0999 V2000
    2.7034   -0.1454   -0.1314 O   0  0  0  0  0  0  0  0  0  0  0  0
    4.9513   -0.7432    0.4348 C   0  0  0  0  0  0  0  0  0  0  0  0
    4.0413    0.3342   -0.1348 C   0  0  0  0  0  0  0  0  0  0  0  0
    1.8041    0.8125   -0.6722 C   0  0  0  0  0  0  0  0  0  0  0  0
    6.4009   -0.2942    0.4765 C   0  0  0  0  0  0  0  0  0  0  0  0
   -1.9777    0.3140    0.0624 C   0  0  0  0  0  0  0  0  0  0  0  0
    0.4211    0.2454   -0.6385 C   0  0  0  0  0  0  0  0  0  0  0  0
   -0.6149    0.8202    0.0141 C   0  0  0  0  0  0  0  0  0  0  0  0
   -2.2341   -1.0269   -0.2240 C   0  0  0  0  0  0  0  0  0  0  0  0
   -3.0281    1.1694    0.3950 C   0  0  0  0  0  0  0  0  0  0  0  0
   -3.5410   -1.5125   -0.1779 C   0  0  0  0  0  0  0  0  0  0  0  0
   -4.3350    0.6837    0.4412 C   0  0  0  0  0  0  0  0  0  0  0  0
   -4.5913   -0.6572    0.1547 C   0  0  0  0  0  0  0  0  0  0  0  0
    4.6163   -1.0122    1.4438 H   0  0  0  0  0  0  0  0  0  0  0  0
    4.8610   -1.6563   -0.1657 H   0  0  0  0  0  0  0  0  0  0  0  0
    4.1060    1.2425    0.4759 H   0  0  0  0  0  0  0  0  0  0  0  0
    4.3428    0.5761   -1.1608 H   0  0  0  0  0  0  0  0  0  0  0  0
    2.0755    1.0271   -1.7122 H   0  0  0  0  0  0  0  0  0  0  0  0
    1.8661    1.7431   -0.0959 H   0  0  0  0  0  0  0  0  0  0  0  0
    6.5185    0.5947    1.1044 H   0  0  0  0  0  0  0  0  0  0  0  0
    7.0319   -1.0874    0.8894 H   0  0  0  0  0  0  0  0  0  0  0  0
    6.7670   -0.0570   -0.5275 H   0  0  0  0  0  0  0  0  0  0  0  0
    0.2860   -0.6683   -1.2101 H   0  0  0  0  0  0  0  0  0  0  0  0
   -0.4366    1.7517    0.5475 H   0  0  0  0  0  0  0  0  0  0  0  0
   -1.4466   -1.7339   -0.4676 H   0  0  0  0  0  0  0  0  0  0  0  0
   -2.8481    2.2179    0.6201 H   0  0  0  0  0  0  0  0  0  0  0  0
   -3.7408   -2.5575   -0.3963 H   0  0  0  0  0  0  0  0  0  0  0  0
   -5.1531    1.3494    0.7001 H   0  0  0  0  0  0  0  0  0  0  0  0
   -5.6087   -1.0354    0.1918 H   0  0  0  0  0  0  0  0  0  0  0  0
  1  3  1  0  0  0  0
  1  4  1  0  0  0  0
  2  3  1  0  0  0  0
  2  5  1  0  0  0  0
  2 14  1  0  0  0  0
  2 15  1  0  0  0  0
  3 16  1  0  0  0  0
  3 17  1  0  0  0  0
  4  7  1  0  0  0  0
  4 18  1  0  0  0  0
  4 19  1  0  0  0  0
  5 20  1  0  0  0  0
  5 21  1  0  0  0  0
  5 22  1  0  0  0  0
  6  8  1  0  0  0  0
  6  9  2  0  0  0  0
  6 10  1  0  0  0  0
  7  8  2  0  0  0  0
  7 23  1  0  0  0  0
  8 24  1  0  0  0  0
  9 11  1  0  0  0  0
  9 25  1  0  0  0  0
 10 12  2  0  0  0  0
 10 26  1  0  0  0  0
 11 13  2  0  0  0  0
 11 27  1  0  0  0  0
 12 13  1  0  0  0  0
 12 28  1  0  0  0  0
 13 29  1  0  0  0  0
M  END
> <PUBCHEM_COMPOUND_CID>
5369728

> <PUBCHEM_CONFORMER_RMSD>
0.6

> <PUBCHEM_CONFORMER_DIVERSEORDER>
1
12
35
9
20
30
5
22
33
3
28
31
25
11
17
26
19
32
6
15
2
21
13
34
4
18
29
16
27
23
7
24
10
8
14

> <PUBCHEM_MMFF94_PARTIAL_CHARGES>
18
1 -0.56
10 -0.15
11 -0.15
12 -0.15
13 -0.15
23 0.15
24 0.15
25 0.15
26 0.15
27 0.15
28 0.15
29 0.15
3 0.28
4 0.42
6 0.03
7 -0.29
8 -0.18
9 -0.15

> <PUBCHEM_EFFECTIVE_ROTOR_COUNT>
5

> <PUBCHEM_PHARMACOPHORE_FEATURES>
3
1 1 acceptor
1 5 hydrophobe
6 6 9 10 11 12 13 rings

> <PUBCHEM_HEAVY_ATOM_COUNT>
13

> <PUBCHEM_ATOM_DEF_STEREO_COUNT>
0

> <PUBCHEM_ATOM_UDEF_STEREO_COUNT>
0

> <PUBCHEM_BOND_DEF_STEREO_COUNT>
1

> <PUBCHEM_BOND_UDEF_STEREO_COUNT>
0

> <PUBCHEM_ISOTOPIC_ATOM_COUNT>
0

> <PUBCHEM_COMPONENT_COUNT>
1

> <PUBCHEM_CACTVS_TAUTO_COUNT>
1

> <PUBCHEM_CONFORMER_ID>
0051EF8000000001

> <PUBCHEM_MMFF94_ENERGY>
24.7909

> <PUBCHEM_FEATURE_SELFOVERLAP>
15.223

> <PUBCHEM_SHAPE_FINGERPRINT>
100836 57 12031788089400720474
10465860 250 18060701693017789233
11315181 36 18411982476842799448
114248 4 12324246061806726308
13167823 11 18335138700362913546
13288520 33 18261110776881651501
15048467 5 11167949047865511643
17834072 33 18334580174547677556
17834076 25 11239997858779455264
19489759 90 17989486303617421537
200 152 17240198824728943756
20279233 1 17275112729741920805
204376 136 15052013476687705940
20645477 70 12901812888780829336
20767249 213 13183018527421965306
20828058 44 18342738516070131718
22485316 2 18408602548271387752
23402539 116 18343578538970307773
23559900 14 18340761645518856176
23590187 198 18261111867866804026
26918003 58 18202563977494268720
351380 3 17822287973055462586
42 15 18410294713783172228
4214541 1 18410856542460323149
42788 4 18413670210538885600
49783359 22 18272085002681414718
5104073 3 18270690890793937745
559249 180 18261107457251967083
573450 72 18410291406515936073
67856867 119 18264772232681992628

> <PUBCHEM_SHAPE_MULTIPOLES>
261.66
13.29
1.23
0.75
17.99
0.17
0.02
2.87
-2.86
-1.09
0
0.13
-0.04
-0.59

> <PUBCHEM_SHAPE_SELFOVERLAP>
519.731

> <PUBCHEM_SHAPE_VOLUME>
156.1

> <PUBCHEM_COORDINATE_TYPE>
2
5
10

$$$$
