5352451
  -OEChem-09192014033D

 30 29  0     1  0  0  0  0  0999 V2000
    1.8462    0.2490   -1.4272 O   0  0  0  0  0  0  0  0  0  0  0  0
   -3.6896    0.7829    0.5212 O   0  0  0  0  0  0  0  0  0  0  0  0
    2.2185    0.4044   -0.0546 C   0  0  2  0  0  0  0  0  0  0  0  0
    1.0387    1.0426    0.7154 C   0  0  0  0  0  0  0  0  0  0  0  0
   -2.6780   -0.0547   -0.0523 C   0  0  0  0  0  0  0  0  0  0  0  0
   -0.2343    0.2378    0.6440 C   0  0  0  0  0  0  0  0  0  0  0  0
   -1.3599    0.6794    0.0609 C   0  0  0  0  0  0  0  0  0  0  0  0
    3.4288    1.3469   -0.0203 C   0  0  0  0  0  0  0  0  0  0  0  0
   -3.0341   -0.2332   -1.5308 C   0  0  0  0  0  0  0  0  0  0  0  0
   -2.7464   -1.4100    0.6602 C   0  0  0  0  0  0  0  0  0  0  0  0
    2.6184   -0.9271    0.5472 C   0  0  0  0  0  0  0  0  0  0  0  0
    2.5916   -2.1180   -0.0637 C   0  0  0  0  0  0  0  0  0  0  0  0
    1.3025    1.1779    1.7722 H   0  0  0  0  0  0  0  0  0  0  0  0
    0.8514    2.0455    0.3088 H   0  0  0  0  0  0  0  0  0  0  0  0
   -0.2128   -0.7408    1.1136 H   0  0  0  0  0  0  0  0  0  0  0  0
   -1.3430    1.6713   -0.3897 H   0  0  0  0  0  0  0  0  0  0  0  0
    4.2683    0.9289   -0.5891 H   0  0  0  0  0  0  0  0  0  0  0  0
    3.1871    2.3066   -0.4920 H   0  0  0  0  0  0  0  0  0  0  0  0
    3.7678    1.5412    1.0031 H   0  0  0  0  0  0  0  0  0  0  0  0
   -2.2987   -0.8564   -2.0516 H   0  0  0  0  0  0  0  0  0  0  0  0
   -3.0921    0.7341   -2.0445 H   0  0  0  0  0  0  0  0  0  0  0  0
   -4.0205   -0.6982   -1.6453 H   0  0  0  0  0  0  0  0  0  0  0  0
   -3.7461   -1.8507    0.5670 H   0  0  0  0  0  0  0  0  0  0  0  0
   -2.0229   -2.1243    0.2527 H   0  0  0  0  0  0  0  0  0  0  0  0
   -2.5644   -1.2986    1.7356 H   0  0  0  0  0  0  0  0  0  0  0  0
    2.9526   -0.9052    1.5833 H   0  0  0  0  0  0  0  0  0  0  0  0
    1.0603   -0.3201   -1.4797 H   0  0  0  0  0  0  0  0  0  0  0  0
   -4.5494    0.3428    0.4067 H   0  0  0  0  0  0  0  0  0  0  0  0
    2.8988   -3.0102    0.4720 H   0  0  0  0  0  0  0  0  0  0  0  0
    2.2724   -2.2389   -1.0919 H   0  0  0  0  0  0  0  0  0  0  0  0
  1  3  1  0  0  0  0
  1 27  1  0  0  0  0
  2  5  1  0  0  0  0
  2 28  1  0  0  0  0
  3  4  1  0  0  0  0
  3  8  1  0  0  0  0
  3 11  1  0  0  0  0
  4  6  1  0  0  0  0
  4 13  1  0  0  0  0
  4 14  1  0  0  0  0
  5  7  1  0  0  0  0
  5  9  1  0  0  0  0
  5 10  1  0  0  0  0
  6  7  2  0  0  0  0
  6 15  1  0  0  0  0
  7 16  1  0  0  0  0
  8 17  1  0  0  0  0
  8 18  1  0  0  0  0
  8 19  1  0  0  0  0
  9 20  1  0  0  0  0
  9 21  1  0  0  0  0
  9 22  1  0  0  0  0
 10 23  1  0  0  0  0
 10 24  1  0  0  0  0
 10 25  1  0  0  0  0
 11 12  2  0  0  0  0
 11 26  1  0  0  0  0
 12 29  1  0  0  0  0
 12 30  1  0  0  0  0
M  END
> <PUBCHEM_COMPOUND_CID>
5352451

> <PUBCHEM_CONFORMER_RMSD>
0.6

> <PUBCHEM_CONFORMER_DIVERSEORDER>
2
37
73
63
53
49
69
45
8
60
44
68
32
16
71
24
26
50
11
30
67
3
74
13
79
54
20
61
27
59
46
52
10
36
29
70
42
34
76
21
82
18
72
77
62
43
66
6
7
65
38
41
39
15
78
75
55
40
81
35
47
48
9
19
80
51
57
23
31
1
28
17
12
5
56
33
14
58
22
64
25
4

> <PUBCHEM_MMFF94_PARTIAL_CHARGES>
16
1 -0.68
11 -0.29
12 -0.3
15 0.15
16 0.15
2 -0.68
26 0.15
27 0.4
28 0.4
29 0.15
3 0.42
30 0.15
4 0.14
5 0.42
6 -0.29
7 -0.29

> <PUBCHEM_EFFECTIVE_ROTOR_COUNT>
4

> <PUBCHEM_PHARMACOPHORE_FEATURES>
6
1 1 acceptor
1 1 donor
1 12 hydrophobe
1 2 acceptor
1 2 donor
3 5 9 10 hydrophobe

> <PUBCHEM_HEAVY_ATOM_COUNT>
12

> <PUBCHEM_ATOM_DEF_STEREO_COUNT>
0

> <PUBCHEM_ATOM_UDEF_STEREO_COUNT>
1

> <PUBCHEM_BOND_DEF_STEREO_COUNT>
1

> <PUBCHEM_BOND_UDEF_STEREO_COUNT>
0

> <PUBCHEM_ISOTOPIC_ATOM_COUNT>
0

> <PUBCHEM_COMPONENT_COUNT>
1

> <PUBCHEM_CACTVS_TAUTO_COUNT>
1

> <PUBCHEM_CONFORMER_ID>
0051AC0300000002

> <PUBCHEM_MMFF94_ENERGY>
21.0813

> <PUBCHEM_FEATURE_SELFOVERLAP>
30.446

> <PUBCHEM_SHAPE_FINGERPRINT>
10149128 111 12180127527587590535
10857977 72 14764339461946097513
10922523 26 17821726100663883935
12932764 1 17632293505788632081
13296908 3 17530964670272596121
13705890 14 17967816059078842698
14144814 61 18342458144789305025
14325111 11 18408604772853502681
14350558 41 18336268968119633898
15775835 57 18272089417612239975
18186145 218 17676488315426659483
18522851 268 17749106724925050079
18522853 266 18335424556090195543
18619055 16 18411694383263307347
20201158 50 18409445860641849746
20279233 1 18333725849216527955
20281407 28 16630809910849690945
20645477 56 17821721741689186781
20645477 70 18412539882014690119
20671657 53 18191028902729639366
20711985 344 17557170335888548200
21028194 46 12107785228683763705
21730867 7 18334574659550933600
22169311 21 18260540143252921043
22485316 2 18342735239126129369
23402539 116 17023452149232819924
23557571 272 17458621250514310629
3248919 1 18335411383330475425
581208 293 18341040883144211314
8030462 33 18343863324818099273

> <PUBCHEM_SHAPE_MULTIPOLES>
235.22
6.67
1.6
1.09
2.06
0.76
-0.38
0.27
-0.48
-1.18
0.17
0.45
0.01
-0.02

> <PUBCHEM_SHAPE_SELFOVERLAP>
444.803

> <PUBCHEM_SHAPE_VOLUME>
146.8

> <PUBCHEM_COORDINATE_TYPE>
2
5
10

$$$$
