10824840
  -OEChem-09192013073D

 37 38  0     0  0  0  0  0  0999 V2000
   -0.6583   -1.7903    0.1240 O   0  0  0  0  0  0  0  0  0  0  0  0
   -5.6134    2.1884    0.4590 O   0  0  0  0  0  0  0  0  0  0  0  0
    4.3671    0.7658   -0.0884 C   0  0  0  0  0  0  0  0  0  0  0  0
    2.9975    0.0691   -0.0312 C   0  0  0  0  0  0  0  0  0  0  0  0
    5.4703   -0.2793   -0.3614 C   0  0  0  0  0  0  0  0  0  0  0  0
    4.6516    1.4642    1.2590 C   0  0  0  0  0  0  0  0  0  0  0  0
    4.4751    1.8423   -1.1920 C   0  0  0  0  0  0  0  0  0  0  0  0
    2.8011   -0.9031    0.9172 C   0  0  0  0  0  0  0  0  0  0  0  0
    2.0339    0.4517   -0.9301 C   0  0  0  0  0  0  0  0  0  0  0  0
    1.5586   -1.5347    0.9700 C   0  0  0  0  0  0  0  0  0  0  0  0
    0.7913   -0.1800   -0.8773 C   0  0  0  0  0  0  0  0  0  0  0  0
    0.5537   -1.1732    0.0726 C   0  0  0  0  0  0  0  0  0  0  0  0
   -1.8196   -1.0737    0.0505 C   0  0  0  0  0  0  0  0  0  0  0  0
   -2.8531   -1.5136   -0.7718 C   0  0  0  0  0  0  0  0  0  0  0  0
   -1.9620    0.0916    0.7986 C   0  0  0  0  0  0  0  0  0  0  0  0
   -4.1859    0.3857   -0.0987 C   0  0  0  0  0  0  0  0  0  0  0  0
   -4.0385   -0.7824   -0.8465 C   0  0  0  0  0  0  0  0  0  0  0  0
   -3.1475    0.8228    0.7238 C   0  0  0  0  0  0  0  0  0  0  0  0
   -5.4217    1.1485   -0.1773 C   0  0  0  0  0  0  0  0  0  0  0  0
    6.4531    0.1987   -0.4500 H   0  0  0  0  0  0  0  0  0  0  0  0
    5.5499   -1.0225    0.4394 H   0  0  0  0  0  0  0  0  0  0  0  0
    5.2786   -0.8207   -1.2954 H   0  0  0  0  0  0  0  0  0  0  0  0
    4.7152    0.7559    2.0922 H   0  0  0  0  0  0  0  0  0  0  0  0
    5.6044    2.0057    1.2290 H   0  0  0  0  0  0  0  0  0  0  0  0
    3.8650    2.1886    1.5017 H   0  0  0  0  0  0  0  0  0  0  0  0
    5.4697    2.3058   -1.1869 H   0  0  0  0  0  0  0  0  0  0  0  0
    4.3334    1.4194   -2.1936 H   0  0  0  0  0  0  0  0  0  0  0  0
    3.7521    2.6537   -1.0464 H   0  0  0  0  0  0  0  0  0  0  0  0
    3.5670   -1.2005    1.6249 H   0  0  0  0  0  0  0  0  0  0  0  0
    2.1648    1.2122   -1.6891 H   0  0  0  0  0  0  0  0  0  0  0  0
    1.3788   -2.3075    1.7124 H   0  0  0  0  0  0  0  0  0  0  0  0
    0.0299    0.1063   -1.5981 H   0  0  0  0  0  0  0  0  0  0  0  0
   -2.7428   -2.4226   -1.3564 H   0  0  0  0  0  0  0  0  0  0  0  0
   -1.1741    0.4421    1.4596 H   0  0  0  0  0  0  0  0  0  0  0  0
   -4.8383   -1.1357   -1.4922 H   0  0  0  0  0  0  0  0  0  0  0  0
   -3.2416    1.7280    1.3181 H   0  0  0  0  0  0  0  0  0  0  0  0
   -6.2059    0.7531   -0.8451 H   0  0  0  0  0  0  0  0  0  0  0  0
  1 12  1  0  0  0  0
  1 13  1  0  0  0  0
  2 19  2  0  0  0  0
  3  4  1  0  0  0  0
  3  5  1  0  0  0  0
  3  6  1  0  0  0  0
  3  7  1  0  0  0  0
  4  8  2  0  0  0  0
  4  9  1  0  0  0  0
  5 20  1  0  0  0  0
  5 21  1  0  0  0  0
  5 22  1  0  0  0  0
  6 23  1  0  0  0  0
  6 24  1  0  0  0  0
  6 25  1  0  0  0  0
  7 26  1  0  0  0  0
  7 27  1  0  0  0  0
  7 28  1  0  0  0  0
  8 10  1  0  0  0  0
  8 29  1  0  0  0  0
  9 11  2  0  0  0  0
  9 30  1  0  0  0  0
 10 12  2  0  0  0  0
 10 31  1  0  0  0  0
 11 12  1  0  0  0  0
 11 32  1  0  0  0  0
 13 14  2  0  0  0  0
 13 15  1  0  0  0  0
 14 17  1  0  0  0  0
 14 33  1  0  0  0  0
 15 18  2  0  0  0  0
 15 34  1  0  0  0  0
 16 17  2  0  0  0  0
 16 18  1  0  0  0  0
 16 19  1  0  0  0  0
 17 35  1  0  0  0  0
 18 36  1  0  0  0  0
 19 37  1  0  0  0  0
M  END
> <PUBCHEM_COMPOUND_CID>
10824840

> <PUBCHEM_CONFORMER_RMSD>
0.6

> <PUBCHEM_CONFORMER_DIVERSEORDER>
1
3
9
8
4
2
7
5
6

> <PUBCHEM_MMFF94_PARTIAL_CHARGES>
25
1 -0.17
10 -0.15
11 -0.15
12 0.08
13 0.08
14 -0.15
15 -0.15
16 0.09
17 -0.15
18 -0.15
19 0.42
2 -0.57
29 0.15
3 0.14
30 0.15
31 0.15
32 0.15
33 0.15
34 0.15
35 0.15
36 0.15
37 0.06
4 -0.14
8 -0.15
9 -0.15

> <PUBCHEM_EFFECTIVE_ROTOR_COUNT>
4

> <PUBCHEM_PHARMACOPHORE_FEATURES>
5
1 1 acceptor
1 2 acceptor
4 3 5 6 7 hydrophobe
6 13 14 15 16 17 18 rings
6 4 8 9 10 11 12 rings

> <PUBCHEM_HEAVY_ATOM_COUNT>
19

> <PUBCHEM_ATOM_DEF_STEREO_COUNT>
0

> <PUBCHEM_ATOM_UDEF_STEREO_COUNT>
0

> <PUBCHEM_BOND_DEF_STEREO_COUNT>
0

> <PUBCHEM_BOND_UDEF_STEREO_COUNT>
0

> <PUBCHEM_ISOTOPIC_ATOM_COUNT>
0

> <PUBCHEM_COMPONENT_COUNT>
1

> <PUBCHEM_CACTVS_TAUTO_COUNT>
1

> <PUBCHEM_CONFORMER_ID>
00A52C8800000001

> <PUBCHEM_MMFF94_ENERGY>
71.4705

> <PUBCHEM_FEATURE_SELFOVERLAP>
25.371

> <PUBCHEM_SHAPE_FINGERPRINT>
10014705 185 18342176682924342825
10354089 29 17894353271689556891
10378564 45 18060145302101544534
10498660 4 17988926673457513857
11046707 91 9079122146078584559
11089746 13 18341324557181159164
12236239 1 18409446985733273070
12596602 18 13045943490671319261
12633257 1 15647066975043559665
12788726 201 17417250901849419697
12892183 10 14201385075960286934
13551218 46 11386359331773304921
13675066 3 13479121411223851250
1420 369 8790886289237334329
14251764 38 18053938730118765456
14341114 176 14273456976951022574
14739800 52 18129078152755022016
15183329 4 18201730505501076462
15188451 53 14201696286024600353
15209294 21 18335417984526358719
15342168 16 18186806889320679711
15342816 4 10519719890536376112
15475509 8 18114760239640046902
17959699 21 18342175587301760496
1813 80 10807942595443955114
18222031 100 11312059833436261262
193927 3 9655291579261088157
19784866 240 10375868585055793313
20388580 30 11312051058702200234
20871999 31 17489295422196639871
212847 35 18410293623288909376
21475661 188 17986375901551135960
21503847 285 18113340838658380900
21637258 2 9439400190588182137
22950370 63 9007066776696358006
23402539 116 18131346423098191743
23402655 69 18342736308314698719
23557571 272 17703792569737546559
23559900 14 17845373258614825678
23596394 208 15769784528460231820
270888 7 18410012117936541973
2838139 119 18131064909799597633
300161 21 18411973655201285541
3472631 163 18272089383854115837
34797466 226 16988003928328107108
351380 180 18131631209927437984
351380 3 9655580712138276256
3545911 37 18409452483497179283
4028521 119 18060420222504584409
4259306 186 12751243601060333053
441001 317 18272367598697031755
474 4 18113901571638381739
5104073 3 17459466822564740304
542803 24 18334576853888916279
57724786 102 17241339078437946732
5924683 9 15357986732438469963
59682541 52 16271370669300661597
633830 44 18187928434589795526
76465 3 10807945842533928942
8272917 22 18334575690306811018
960060 61 14405187274399002888

> <PUBCHEM_SHAPE_MULTIPOLES>
379.27
12.88
1.85
1.11
2.82
0.27
-0.02
7.4
0.35
0.63
-0.11
-0.61
0.13
-0.96

> <PUBCHEM_SHAPE_SELFOVERLAP>
811.274

> <PUBCHEM_SHAPE_VOLUME>
211.7

> <PUBCHEM_COORDINATE_TYPE>
2
5
10

$$$$
