91746535
  -OEChem-09192011323D

 40 41  0     1  0  0  0  0  0999 V2000
    2.0649   -0.7507    2.2180 O   0  0  0  0  0  0  0  0  0  0  0  0
   -0.2720   -0.3493    0.5070 C   0  0  2  0  0  0  0  0  0  0  0  0
   -1.6801    0.2545    0.2478 C   0  0  1  0  0  0  0  0  0  0  0  0
    0.7551    0.7706    0.8773 C   0  0  1  0  0  0  0  0  0  0  0  0
   -1.6384    1.3601   -0.8124 C   0  0  0  0  0  0  0  0  0  0  0  0
    2.1469    0.1314    1.0918 C   0  0  2  0  0  0  0  0  0  0  0  0
   -2.7449   -0.7892   -0.1002 C   0  0  0  0  0  0  0  0  0  0  0  0
    0.6956    1.9487   -0.0990 C   0  0  0  0  0  0  0  0  0  0  0  0
   -0.6906    2.4757   -0.3856 C   0  0  0  0  0  0  0  0  0  0  0  0
    0.2550   -1.2393   -0.5975 C   0  0  0  0  0  0  0  0  0  0  0  0
    2.6456   -0.6625   -0.1265 C   0  0  0  0  0  0  0  0  0  0  0  0
    1.5595   -1.3802   -0.8887 C   0  0  0  0  0  0  0  0  0  0  0  0
   -4.1186   -0.1342   -0.2063 C   0  0  0  0  0  0  0  0  0  0  0  0
   -2.7574   -1.9051    0.9403 C   0  0  0  0  0  0  0  0  0  0  0  0
    1.7531    2.5494   -0.6692 C   0  0  0  0  0  0  0  0  0  0  0  0
    2.0263   -2.2797   -1.9968 C   0  0  0  0  0  0  0  0  0  0  0  0
   -0.3591   -0.9916    1.3938 H   0  0  0  0  0  0  0  0  0  0  0  0
   -1.9878    0.7295    1.1927 H   0  0  0  0  0  0  0  0  0  0  0  0
    0.4345    1.1720    1.8510 H   0  0  0  0  0  0  0  0  0  0  0  0
   -2.6188    1.8229   -0.9570 H   0  0  0  0  0  0  0  0  0  0  0  0
   -1.3301    0.9522   -1.7832 H   0  0  0  0  0  0  0  0  0  0  0  0
    2.8841    0.8942    1.3664 H   0  0  0  0  0  0  0  0  0  0  0  0
   -2.5400   -1.2408   -1.0780 H   0  0  0  0  0  0  0  0  0  0  0  0
   -1.0754    2.9604    0.5209 H   0  0  0  0  0  0  0  0  0  0  0  0
   -0.6754    3.2448   -1.1675 H   0  0  0  0  0  0  0  0  0  0  0  0
   -0.4584   -1.8282   -1.1652 H   0  0  0  0  0  0  0  0  0  0  0  0
    3.3911   -1.3986    0.1996 H   0  0  0  0  0  0  0  0  0  0  0  0
    3.1500    0.0136   -0.8258 H   0  0  0  0  0  0  0  0  0  0  0  0
   -4.2165    0.4756   -1.1090 H   0  0  0  0  0  0  0  0  0  0  0  0
   -4.9044   -0.8959   -0.2706 H   0  0  0  0  0  0  0  0  0  0  0  0
   -4.3390    0.4911    0.6656 H   0  0  0  0  0  0  0  0  0  0  0  0
   -1.8624   -2.5316    0.8925 H   0  0  0  0  0  0  0  0  0  0  0  0
   -2.8498   -1.5061    1.9564 H   0  0  0  0  0  0  0  0  0  0  0  0
   -3.6078   -2.5762    0.7733 H   0  0  0  0  0  0  0  0  0  0  0  0
    2.7747    2.2464   -0.4800 H   0  0  0  0  0  0  0  0  0  0  0  0
    1.6237    3.3913   -1.3424 H   0  0  0  0  0  0  0  0  0  0  0  0
    2.9577   -1.0984    2.3839 H   0  0  0  0  0  0  0  0  0  0  0  0
    2.5900   -1.7049   -2.7387 H   0  0  0  0  0  0  0  0  0  0  0  0
    1.1933   -2.7655   -2.5157 H   0  0  0  0  0  0  0  0  0  0  0  0
    2.6755   -3.0665   -1.5993 H   0  0  0  0  0  0  0  0  0  0  0  0
  1  6  1  0  0  0  0
  1 37  1  0  0  0  0
  2  3  1  0  0  0  0
  2  4  1  0  0  0  0
  2 10  1  0  0  0  0
  2 17  1  0  0  0  0
  3  5  1  0  0  0  0
  3  7  1  0  0  0  0
  3 18  1  0  0  0  0
  4  6  1  0  0  0  0
  4  8  1  0  0  0  0
  4 19  1  0  0  0  0
  5  9  1  0  0  0  0
  5 20  1  0  0  0  0
  5 21  1  0  0  0  0
  6 11  1  0  0  0  0
  6 22  1  0  0  0  0
  7 13  1  0  0  0  0
  7 14  1  0  0  0  0
  7 23  1  0  0  0  0
  8  9  1  0  0  0  0
  8 15  2  0  0  0  0
  9 24  1  0  0  0  0
  9 25  1  0  0  0  0
 10 12  2  0  0  0  0
 10 26  1  0  0  0  0
 11 12  1  0  0  0  0
 11 27  1  0  0  0  0
 11 28  1  0  0  0  0
 12 16  1  0  0  0  0
 13 29  1  0  0  0  0
 13 30  1  0  0  0  0
 13 31  1  0  0  0  0
 14 32  1  0  0  0  0
 14 33  1  0  0  0  0
 14 34  1  0  0  0  0
 15 35  1  0  0  0  0
 15 36  1  0  0  0  0
 16 38  1  0  0  0  0
 16 39  1  0  0  0  0
 16 40  1  0  0  0  0
M  END
> <PUBCHEM_COMPOUND_CID>
91746535

> <PUBCHEM_CONFORMER_RMSD>
0.6

> <PUBCHEM_CONFORMER_DIVERSEORDER>
1
16
10
12
4
3
15
9
11
14
8
13
7
5
2
6

> <PUBCHEM_MMFF94_PARTIAL_CHARGES>
15
1 -0.68
10 -0.29
11 0.14
12 -0.28
15 -0.3
16 0.14
2 0.14
26 0.15
35 0.15
36 0.15
37 0.4
4 0.14
6 0.28
8 -0.28
9 0.14

> <PUBCHEM_EFFECTIVE_ROTOR_COUNT>
2

> <PUBCHEM_PHARMACOPHORE_FEATURES>
5
1 1 acceptor
1 1 donor
3 7 13 14 hydrophobe
6 2 3 4 5 8 9 rings
6 2 4 6 10 11 12 rings

> <PUBCHEM_HEAVY_ATOM_COUNT>
16

> <PUBCHEM_ATOM_DEF_STEREO_COUNT>
2

> <PUBCHEM_ATOM_UDEF_STEREO_COUNT>
2

> <PUBCHEM_BOND_DEF_STEREO_COUNT>
0

> <PUBCHEM_BOND_UDEF_STEREO_COUNT>
0

> <PUBCHEM_ISOTOPIC_ATOM_COUNT>
0

> <PUBCHEM_COMPONENT_COUNT>
1

> <PUBCHEM_CACTVS_TAUTO_COUNT>
1

> <PUBCHEM_CONFORMER_ID>
0577F0E700000001

> <PUBCHEM_MMFF94_ENERGY>
31.7561

> <PUBCHEM_FEATURE_SELFOVERLAP>
25.434

> <PUBCHEM_SHAPE_FINGERPRINT>
116883 192 18340487751549761045
12138202 78 18411990177803485845
12346645 6 18268712890744954901
12423570 1 18270948137443211202
12524768 44 18337112375321669807
13172582 1 18269539693118076002
13898156 1 17098911425898577202
14022347 108 18117010900812598851
14817 1 17540219109546675624
15207287 21 17548650203083644724
15501101 241 17775288227001733650
15881359 60 18055599963296286485
16945 1 18260538992280898049
17990270 104 18338239374624193131
19868273 325 18191878833195713949
20511035 2 18050264153678683825
20600515 1 18262502694188761521
20645476 183 16449545759941164052
20645477 70 18265329693861940151
20711985 344 18048605823861111457
20871999 31 18121232982239428957
20905425 154 18116716411700171277
21501502 16 18190174779736615499
21524375 3 17471015151572570825
22721475 48 18341618079303712791
22802520 49 17840025139556804542
2334 1 18118400881041699449
23419403 2 17343200941038784058
23557571 272 18267870476107229470
23559900 14 17191223025407799398
2748010 2 18127123074413565983
298252 57 17690291829426268408
3060560 45 17983021338328320717
568465 68 17916849283941614594
576247 118 18047790115240914003
5902787 121 18187641444569082739
68419 9 17188944248339011760
7364860 26 18269558402080500457
81228 2 18194689155141825065
81539 233 17753891924014539525
84936 31 17418093213159360070

> <PUBCHEM_SHAPE_MULTIPOLES>
323.4
4.66
2.7
1.44
3.99
0.94
-0.26
-1.74
-0.06
-0.91
1.06
-1.02
-0.67
0.84

> <PUBCHEM_SHAPE_SELFOVERLAP>
660.085

> <PUBCHEM_SHAPE_VOLUME>
185.9

> <PUBCHEM_COORDINATE_TYPE>
2
5
10

$$$$
