13006421
  -OEChem-09192015093D

 40 41  0     1  0  0  0  0  0999 V2000
   -3.7117    1.5598   -1.0971 O   0  0  0  0  0  0  0  0  0  0  0  0
    1.3372   -1.0220   -0.0934 C   0  0  1  0  0  0  0  0  0  0  0  0
    0.8466    0.4466   -0.3039 C   0  0  1  0  0  0  0  0  0  0  0  0
    0.3126   -1.9819   -0.7428 C   0  0  0  0  0  0  0  0  0  0  0  0
   -0.5544    0.6476    0.3103 C   0  0  0  0  0  0  0  0  0  0  0  0
   -1.5766   -0.3331   -0.2946 C   0  0  1  0  0  0  0  0  0  0  0  0
    2.7040   -1.1688   -0.8037 C   0  0  0  0  0  0  0  0  0  0  0  0
   -1.1094   -1.7920   -0.2081 C   0  0  0  0  0  0  0  0  0  0  0  0
    1.8988    1.4739    0.0975 C   0  0  0  0  0  0  0  0  0  0  0  0
    1.5030   -1.3956    1.4026 C   0  0  0  0  0  0  0  0  0  0  0  0
    3.7550   -0.1931   -0.2640 C   0  0  0  0  0  0  0  0  0  0  0  0
    3.2079    1.1572    0.0976 C   0  0  0  0  0  0  0  0  0  0  0  0
   -2.9205   -0.1675    0.3514 C   0  0  0  0  0  0  0  0  0  0  0  0
    1.4564    2.8729    0.4194 C   0  0  0  0  0  0  0  0  0  0  0  0
   -4.0438    0.2994   -0.5304 C   0  0  0  0  0  0  0  0  0  0  0  0
   -3.1050   -0.4034    1.6592 C   0  0  0  0  0  0  0  0  0  0  0  0
    0.7174    0.6007   -1.3878 H   0  0  0  0  0  0  0  0  0  0  0  0
    0.6183   -3.0246   -0.5904 H   0  0  0  0  0  0  0  0  0  0  0  0
    0.2975   -1.8229   -1.8294 H   0  0  0  0  0  0  0  0  0  0  0  0
   -0.4976    0.5581    1.4015 H   0  0  0  0  0  0  0  0  0  0  0  0
   -0.9061    1.6679    0.1090 H   0  0  0  0  0  0  0  0  0  0  0  0
   -1.6614   -0.0923   -1.3638 H   0  0  0  0  0  0  0  0  0  0  0  0
    2.5765   -0.9835   -1.8793 H   0  0  0  0  0  0  0  0  0  0  0  0
    3.0816   -2.1951   -0.7150 H   0  0  0  0  0  0  0  0  0  0  0  0
   -1.7896   -2.4289   -0.7889 H   0  0  0  0  0  0  0  0  0  0  0  0
   -1.1558   -2.1706    0.8192 H   0  0  0  0  0  0  0  0  0  0  0  0
    1.8943   -2.4150    1.5014 H   0  0  0  0  0  0  0  0  0  0  0  0
    2.1932   -0.7306    1.9299 H   0  0  0  0  0  0  0  0  0  0  0  0
    0.5594   -1.3603    1.9537 H   0  0  0  0  0  0  0  0  0  0  0  0
    4.5472   -0.0735   -1.0122 H   0  0  0  0  0  0  0  0  0  0  0  0
    4.2304   -0.6208    0.6269 H   0  0  0  0  0  0  0  0  0  0  0  0
    3.9437    1.9090    0.3723 H   0  0  0  0  0  0  0  0  0  0  0  0
    0.8478    2.8849    1.3290 H   0  0  0  0  0  0  0  0  0  0  0  0
    0.8688    3.2859   -0.4069 H   0  0  0  0  0  0  0  0  0  0  0  0
    2.3039    3.5469    0.5850 H   0  0  0  0  0  0  0  0  0  0  0  0
   -4.2057   -0.4132   -1.3456 H   0  0  0  0  0  0  0  0  0  0  0  0
   -4.9888    0.4051    0.0125 H   0  0  0  0  0  0  0  0  0  0  0  0
   -4.0791   -0.2719    2.1193 H   0  0  0  0  0  0  0  0  0  0  0  0
   -2.2994   -0.7303    2.3074 H   0  0  0  0  0  0  0  0  0  0  0  0
   -3.5938    2.1903   -0.3659 H   0  0  0  0  0  0  0  0  0  0  0  0
  1 15  1  0  0  0  0
  1 40  1  0  0  0  0
  2  3  1  0  0  0  0
  2  4  1  0  0  0  0
  2  7  1  0  0  0  0
  2 10  1  0  0  0  0
  3  5  1  0  0  0  0
  3  9  1  0  0  0  0
  3 17  1  0  0  0  0
  4  8  1  0  0  0  0
  4 18  1  0  0  0  0
  4 19  1  0  0  0  0
  5  6  1  0  0  0  0
  5 20  1  0  0  0  0
  5 21  1  0  0  0  0
  6  8  1  0  0  0  0
  6 13  1  0  0  0  0
  6 22  1  0  0  0  0
  7 11  1  0  0  0  0
  7 23  1  0  0  0  0
  7 24  1  0  0  0  0
  8 25  1  0  0  0  0
  8 26  1  0  0  0  0
  9 12  2  0  0  0  0
  9 14  1  0  0  0  0
 10 27  1  0  0  0  0
 10 28  1  0  0  0  0
 10 29  1  0  0  0  0
 11 12  1  0  0  0  0
 11 30  1  0  0  0  0
 11 31  1  0  0  0  0
 12 32  1  0  0  0  0
 13 15  1  0  0  0  0
 13 16  2  0  0  0  0
 14 33  1  0  0  0  0
 14 34  1  0  0  0  0
 14 35  1  0  0  0  0
 15 36  1  0  0  0  0
 15 37  1  0  0  0  0
 16 38  1  0  0  0  0
 16 39  1  0  0  0  0
M  END
> <PUBCHEM_COMPOUND_CID>
13006421

> <PUBCHEM_CONFORMER_RMSD>
0.6

> <PUBCHEM_CONFORMER_DIVERSEORDER>
1
10
6
8
5
7
9
3
2
4

> <PUBCHEM_MMFF94_PARTIAL_CHARGES>
14
1 -0.68
11 0.14
12 -0.29
13 -0.28
14 0.14
15 0.42
16 -0.3
3 0.14
32 0.15
38 0.15
39 0.15
40 0.4
6 0.14
9 -0.28

> <PUBCHEM_EFFECTIVE_ROTOR_COUNT>
3.2

> <PUBCHEM_PHARMACOPHORE_FEATURES>
5
1 1 acceptor
1 1 donor
1 16 hydrophobe
6 2 3 4 5 6 8 rings
6 2 3 7 9 11 12 rings

> <PUBCHEM_HEAVY_ATOM_COUNT>
16

> <PUBCHEM_ATOM_DEF_STEREO_COUNT>
3

> <PUBCHEM_ATOM_UDEF_STEREO_COUNT>
0

> <PUBCHEM_BOND_DEF_STEREO_COUNT>
0

> <PUBCHEM_BOND_UDEF_STEREO_COUNT>
0

> <PUBCHEM_ISOTOPIC_ATOM_COUNT>
0

> <PUBCHEM_COMPONENT_COUNT>
1

> <PUBCHEM_CACTVS_TAUTO_COUNT>
1

> <PUBCHEM_CONFORMER_ID>
00C6765500000001

> <PUBCHEM_MMFF94_ENERGY>
34.6582

> <PUBCHEM_FEATURE_SELFOVERLAP>
25.387

> <PUBCHEM_SHAPE_FINGERPRINT>
10219947 1 18343588412662219134
10366900 7 17822300123312143347
10608611 8 18337107972790495293
10967382 1 18341898489207635886
10980938 120 18411138047707240866
11132069 177 18341889727653667648
11471102 20 18413670210090466860
11543360 7 14620791643281765504
12491281 212 18128833017148409818
12500047 106 17458061552041081859
12654215 9 18336261258642781676
12932764 1 18259990374876105435
13140716 1 18197782317584256560
13221675 6 18411985766856280818
13464514 151 18118963586187616965
13922767 16 18411415107404830260
14144814 61 18273221893166643401
14251717 144 18343581837024896207
14289901 80 17095536118448576491
14648413 74 18269276944573348130
14993402 34 18272374152701288870
15219456 202 18334016090406183909
15279308 100 18410291415000297815
15309172 13 18343309162615912651
15653759 3 17749116599297138209
15775835 57 18335985367139211078
16945 1 18342466953941360646
18186145 218 18130237028777021700
18219364 16 18410864278017806595
19049666 15 18040999484388519721
200 152 17917989495354655439
20233049 118 18334576798323393020
20606313 2 18341894086839874740
20645477 70 18340767052929992279
21501502 16 18053666060177718150
21524375 3 18196091277011193866
21639500 275 18272644675627497653
22094290 62 18270403909600483632
22892500 29 18336254683005712229
231179 274 18334290967970184678
2334 1 17837492216996002536
23402539 116 17845938420718308686
23402655 69 18201434757778277029
23419403 2 15594231124602032054
23493267 7 17749109976225699729
23557571 272 17749399182829169699
23558518 356 17758951919728146242
23559900 14 17844540005896989044
25 1 18409445847767166087
2748010 2 18197786711214578230
3060560 45 18272365347807355414
34934 24 18412536631209340750
350125 39 18053107512159606250
3524813 1 18334005090863596685
528886 8 18273215322236211798
53812653 166 18259983777542341258
5939293 188 18411973663638733032
6049 1 18114757005055035473
63268167 104 18341338872016974088
7364860 26 18201720695262892208
74978 22 18342455984378680343
77492 1 17203615865206736107
7832392 63 18271524303354023614
81228 2 17402331473346272072

> <PUBCHEM_SHAPE_MULTIPOLES>
323.4
6.38
2.27
1.1
3.57
0.82
-0.33
1.49
0.53
-1.08
0.07
0.57
-0.19
0.58

> <PUBCHEM_SHAPE_SELFOVERLAP>
660.511

> <PUBCHEM_SHAPE_VOLUME>
185.5

> <PUBCHEM_COORDINATE_TYPE>
2
5
10

$$$$
