10726905
  -OEChem-11212001213D

 39 40  0     1  0  0  0  0  0999 V2000
    0.8120   -1.0669    0.0895 C   0  0  1  0  0  0  0  0  0  0  0  0
    0.4277    0.4448   -0.0118 C   0  0  1  0  0  0  0  0  0  0  0  0
   -0.4532   -1.9196   -0.1690 C   0  0  0  0  0  0  0  0  0  0  0  0
   -0.6816    0.7937    1.0052 C   0  0  0  0  0  0  0  0  0  0  0  0
   -1.9399   -0.0778    0.8304 C   0  0  2  0  0  0  0  0  0  0  0  0
    1.8643   -1.3588   -1.0071 C   0  0  0  0  0  0  0  0  0  0  0  0
   -1.6126   -1.5771    0.7736 C   0  0  0  0  0  0  0  0  0  0  0  0
    1.6499    1.3562    0.0059 C   0  0  0  0  0  0  0  0  0  0  0  0
    1.4051   -1.4499    1.4709 C   0  0  0  0  0  0  0  0  0  0  0  0
    3.1231   -0.4980   -0.8578 C   0  0  0  0  0  0  0  0  0  0  0  0
    2.8545    0.9034   -0.3911 C   0  0  0  0  0  0  0  0  0  0  0  0
   -2.7294    0.3557   -0.3725 C   0  0  0  0  0  0  0  0  0  0  0  0
    1.4717    2.7954    0.3980 C   0  0  0  0  0  0  0  0  0  0  0  0
   -3.1657    1.7906   -0.3953 C   0  0  0  0  0  0  0  0  0  0  0  0
   -3.0262   -0.4918   -1.3688 C   0  0  0  0  0  0  0  0  0  0  0  0
   -0.0110    0.6101   -1.0084 H   0  0  0  0  0  0  0  0  0  0  0  0
   -0.2107   -2.9834   -0.0446 H   0  0  0  0  0  0  0  0  0  0  0  0
   -0.7416   -1.8123   -1.2185 H   0  0  0  0  0  0  0  0  0  0  0  0
   -0.2984    0.6554    2.0243 H   0  0  0  0  0  0  0  0  0  0  0  0
   -0.9399    1.8561    0.9533 H   0  0  0  0  0  0  0  0  0  0  0  0
   -2.5833    0.0816    1.7069 H   0  0  0  0  0  0  0  0  0  0  0  0
    1.4247   -1.1634   -1.9949 H   0  0  0  0  0  0  0  0  0  0  0  0
    2.1467   -2.4191   -1.0046 H   0  0  0  0  0  0  0  0  0  0  0  0
   -2.4918   -2.1955    0.5555 H   0  0  0  0  0  0  0  0  0  0  0  0
   -1.3315   -1.8904    1.7876 H   0  0  0  0  0  0  0  0  0  0  0  0
    2.2880   -0.8580    1.7294 H   0  0  0  0  0  0  0  0  0  0  0  0
    0.6958   -1.3165    2.2915 H   0  0  0  0  0  0  0  0  0  0  0  0
    1.7083   -2.5035    1.4778 H   0  0  0  0  0  0  0  0  0  0  0  0
    3.6474   -0.4642   -1.8200 H   0  0  0  0  0  0  0  0  0  0  0  0
    3.8099   -0.9714   -0.1460 H   0  0  0  0  0  0  0  0  0  0  0  0
    3.7103    1.5739   -0.3864 H   0  0  0  0  0  0  0  0  0  0  0  0
    2.3882    3.3787    0.2570 H   0  0  0  0  0  0  0  0  0  0  0  0
    1.1937    2.8755    1.4535 H   0  0  0  0  0  0  0  0  0  0  0  0
    0.6919    3.2625   -0.2122 H   0  0  0  0  0  0  0  0  0  0  0  0
   -3.5885    2.0832    0.5714 H   0  0  0  0  0  0  0  0  0  0  0  0
   -2.3309    2.4558   -0.6353 H   0  0  0  0  0  0  0  0  0  0  0  0
   -3.9425    1.9624   -1.1489 H   0  0  0  0  0  0  0  0  0  0  0  0
   -3.5935   -0.1255   -2.2218 H   0  0  0  0  0  0  0  0  0  0  0  0
   -2.7949   -1.5441   -1.4219 H   0  0  0  0  0  0  0  0  0  0  0  0
  1  2  1  0  0  0  0
  1  3  1  0  0  0  0
  1  6  1  0  0  0  0
  1  9  1  0  0  0  0
  2  4  1  0  0  0  0
  2  8  1  0  0  0  0
  2 16  1  0  0  0  0
  3  7  1  0  0  0  0
  3 17  1  0  0  0  0
  3 18  1  0  0  0  0
  4  5  1  0  0  0  0
  4 19  1  0  0  0  0
  4 20  1  0  0  0  0
  5  7  1  0  0  0  0
  5 12  1  0  0  0  0
  5 21  1  0  0  0  0
  6 10  1  0  0  0  0
  6 22  1  0  0  0  0
  6 23  1  0  0  0  0
  7 24  1  0  0  0  0
  7 25  1  0  0  0  0
  8 11  2  0  0  0  0
  8 13  1  0  0  0  0
  9 26  1  0  0  0  0
  9 27  1  0  0  0  0
  9 28  1  0  0  0  0
 10 11  1  0  0  0  0
 10 29  1  0  0  0  0
 10 30  1  0  0  0  0
 11 31  1  0  0  0  0
 12 14  1  0  0  0  0
 12 15  2  0  0  0  0
 13 32  1  0  0  0  0
 13 33  1  0  0  0  0
 13 34  1  0  0  0  0
 14 35  1  0  0  0  0
 14 36  1  0  0  0  0
 14 37  1  0  0  0  0
 15 38  1  0  0  0  0
 15 39  1  0  0  0  0
M  END
> <PUBCHEM_COMPOUND_CID>
10726905

> <PUBCHEM_CONFORMER_RMSD>
0.6

> <PUBCHEM_CONFORMER_DIVERSEORDER>
2
3
4
1

> <PUBCHEM_MMFF94_PARTIAL_CHARGES>
12
10 0.14
11 -0.29
12 -0.28
13 0.14
14 0.14
15 -0.3
2 0.14
31 0.15
38 0.15
39 0.15
5 0.14
8 -0.28

> <PUBCHEM_EFFECTIVE_ROTOR_COUNT>
2.2

> <PUBCHEM_PHARMACOPHORE_FEATURES>
2
6 1 2 3 4 5 7 rings
6 1 2 6 8 10 11 rings

> <PUBCHEM_HEAVY_ATOM_COUNT>
15

> <PUBCHEM_ATOM_DEF_STEREO_COUNT>
3

> <PUBCHEM_ATOM_UDEF_STEREO_COUNT>
0

> <PUBCHEM_BOND_DEF_STEREO_COUNT>
0

> <PUBCHEM_BOND_UDEF_STEREO_COUNT>
0

> <PUBCHEM_ISOTOPIC_ATOM_COUNT>
0

> <PUBCHEM_COMPONENT_COUNT>
1

> <PUBCHEM_CACTVS_TAUTO_COUNT>
1

> <PUBCHEM_CONFORMER_ID>
00A3ADF900000002

> <PUBCHEM_MMFF94_ENERGY>
38.9662

> <PUBCHEM_FEATURE_SELFOVERLAP>
10.164

> <PUBCHEM_SHAPE_FINGERPRINT>
10608611 8 18337957907963324829
12423570 1 11598856377653239418
12491281 212 18040153998364127557
12654215 9 18335137536284371100
13294875 104 18188190044941543328
13299463 15 18130220588090592453
13464514 151 18335985255306901372
14250199 8 18342740766622744349
144361 1 18131348613573846895
14614273 12 17620758718169340624
15279308 100 18408608041197059796
15490181 7 18263643046660464194
15775835 57 18113903723506615863
16945 1 18270411597528600946
17775402 16 18265337213626917272
17844478 74 17971494011341723947
18186145 218 18410568449476871829
20233049 118 18189056386989709228
21501502 16 18261101951082638747
21947302 44 18335126622719678829
220403 375 17908693278670372448
22112679 90 17980480062013793778
22802520 49 18339084911871720517
2334 1 17835526294463719624
23388829 49 17685203981113303034
23402539 116 18200306607619872558
23559900 14 18410586085308700900
25 1 18191028906781753733
2748010 2 17908432698651300528
3060560 45 18341605967543411375
3286 77 17969487248186826215
353137 74 18339932523472563408
5084963 1 17970929961660240794
5262128 65 17917725586003076836
528886 8 18271254828305025818
549884 4 18340201891226603869
63268167 104 18410586088696371496
74978 22 18409729568853646755
7832392 63 18198905816647026573
81228 2 17765167072513368152

> <PUBCHEM_SHAPE_MULTIPOLES>
308.69
4.8
2.38
1.2
1.36
0.9
-0.06
1.05
1.66
-0.51
-0.28
0.11
-0.34
0.23

> <PUBCHEM_SHAPE_SELFOVERLAP>
632.012

> <PUBCHEM_SHAPE_VOLUME>
177.4

> <PUBCHEM_COORDINATE_TYPE>
2
5
10

$$$$
