136212479
  -OEChem-11212001412D

136135  0     1  0  0  0  0  0999 V2000
    4.0739    4.3100    0.0000 S   0  0  0  0  0  0  0  0  0  0  0  0
    5.8059    3.3100    0.0000 O   0  0  0  0  0  0  0  0  0  0  0  0
    7.5380    3.3100    0.0000 O   0  0  0  0  0  0  0  0  0  0  0  0
    4.0739    1.3100    0.0000 O   0  0  0  0  0  0  0  0  0  0  0  0
    5.8059    0.3100    0.0000 O   0  0  0  0  0  0  0  0  0  0  0  0
    7.5380    1.3100    0.0000 O   0  0  0  0  0  0  0  0  0  0  0  0
    8.4040    5.8100    0.0000 O   0  0  0  0  0  0  0  0  0  0  0  0
    4.0739    5.3100    0.0000 O   0  5  0  0  0  0  0  0  0  0  0  0
    3.0739    4.3100    0.0000 O   0  0  0  0  0  0  0  0  0  0  0  0
    5.0739    4.3100    0.0000 O   0  0  0  0  0  0  0  0  0  0  0  0
   10.1360    4.8100    0.0000 O   0  0  0  0  0  0  0  0  0  0  0  0
   10.1360    5.8100    0.0000 O   0  0  0  0  0  0  0  0  0  0  0  0
   11.0021    3.3100    0.0000 O   0  0  0  0  0  0  0  0  0  0  0  0
    0.5369    9.2150    0.0000 N   0  3  0  0  0  0  0  0  0  0  0  0
    4.9399    1.8100    0.0000 C   0  0  2  0  0  0  0  0  0  0  0  0
    4.9399    2.8100    0.0000 C   0  0  1  0  0  0  0  0  0  0  0  0
    5.8059    1.3100    0.0000 C   0  0  3  0  0  0  0  0  0  0  0  0
    6.6720    1.8100    0.0000 C   0  0  3  0  0  0  0  0  0  0  0  0
    6.6720    2.8100    0.0000 C   0  0  2  0  0  0  0  0  0  0  0  0
    4.0739    3.3100    0.0000 C   0  0  0  0  0  0  0  0  0  0  0  0
    7.5380    4.3100    0.0000 C   0  0  0  0  0  0  0  0  0  0  0  0
    8.4040    4.8100    0.0000 C   0  0  1  0  0  0  0  0  0  0  0  0
    9.2700    4.3100    0.0000 C   0  0  0  0  0  0  0  0  0  0  0  0
   11.8681   10.8100    0.0000 C   0  0  0  0  0  0  0  0  0  0  0  0
   11.8681   11.8100    0.0000 C   0  0  0  0  0  0  0  0  0  0  0  0
   11.0021   10.3100    0.0000 C   0  0  0  0  0  0  0  0  0  0  0  0
   12.7341   12.3100    0.0000 C   0  0  0  0  0  0  0  0  0  0  0  0
   11.0021    9.3100    0.0000 C   0  0  0  0  0  0  0  0  0  0  0  0
   12.7341   13.3100    0.0000 C   0  0  0  0  0  0  0  0  0  0  0  0
   10.1360    8.8100    0.0000 C   0  0  0  0  0  0  0  0  0  0  0  0
   13.6002   13.8100    0.0000 C   0  0  0  0  0  0  0  0  0  0  0  0
   10.1360    7.8100    0.0000 C   0  0  0  0  0  0  0  0  0  0  0  0
   13.6002   14.8100    0.0000 C   0  0  0  0  0  0  0  0  0  0  0  0
    9.2700    7.3100    0.0000 C   0  0  0  0  0  0  0  0  0  0  0  0
    9.2700    6.3100    0.0000 C   0  0  0  0  0  0  0  0  0  0  0  0
   14.4662   15.3100    0.0000 C   0  0  0  0  0  0  0  0  0  0  0  0
   14.4662   16.3100    0.0000 C   0  0  0  0  0  0  0  0  0  0  0  0
   15.3322   16.8100    0.0000 C   0  0  0  0  0  0  0  0  0  0  0  0
   11.0021    4.3100    0.0000 C   0  0  0  0  0  0  0  0  0  0  0  0
   11.8681    4.8100    0.0000 C   0  0  0  0  0  0  0  0  0  0  0  0
   12.7341    4.3100    0.0000 C   0  0  0  0  0  0  0  0  0  0  0  0
   13.6002    4.8100    0.0000 C   0  0  0  0  0  0  0  0  0  0  0  0
   14.4662    4.3100    0.0000 C   0  0  0  0  0  0  0  0  0  0  0  0
   15.3322    4.8100    0.0000 C   0  0  0  0  0  0  0  0  0  0  0  0
   15.3322   17.8100    0.0000 C   0  0  0  0  0  0  0  0  0  0  0  0
   16.1982    4.3100    0.0000 C   0  0  0  0  0  0  0  0  0  0  0  0
   17.0643    4.8100    0.0000 C   0  0  0  0  0  0  0  0  0  0  0  0
   17.9303    4.3100    0.0000 C   0  0  0  0  0  0  0  0  0  0  0  0
   18.7963    4.8100    0.0000 C   0  0  0  0  0  0  0  0  0  0  0  0
   18.7963    5.8100    0.0000 C   0  0  0  0  0  0  0  0  0  0  0  0
   19.6623    6.3100    0.0000 C   0  0  0  0  0  0  0  0  0  0  0  0
   19.6623    7.3100    0.0000 C   0  0  0  0  0  0  0  0  0  0  0  0
   18.7963    7.8100    0.0000 C   0  0  0  0  0  0  0  0  0  0  0  0
   18.7963    8.8100    0.0000 C   0  0  0  0  0  0  0  0  0  0  0  0
   17.9303    9.3100    0.0000 C   0  0  0  0  0  0  0  0  0  0  0  0
   17.0643    8.8100    0.0000 C   0  0  0  0  0  0  0  0  0  0  0  0
   16.1982    9.3100    0.0000 C   0  0  0  0  0  0  0  0  0  0  0  0
    4.9399    1.1900    0.0000 H   0  0  0  0  0  0  0  0  0  0  0  0
    4.9399    3.4300    0.0000 H   0  0  0  0  0  0  0  0  0  0  0  0
    5.2690    1.0000    0.0000 H   0  0  0  0  0  0  0  0  0  0  0  0
    6.6720    1.1900    0.0000 H   0  0  0  0  0  0  0  0  0  0  0  0
    6.6720    3.4300    0.0000 H   0  0  0  0  0  0  0  0  0  0  0  0
    3.4633    3.4177    0.0000 H   0  0  0  0  0  0  0  0  0  0  0  0
    3.8618    2.7274    0.0000 H   0  0  0  0  0  0  0  0  0  0  0  0
    3.5369    1.6200    0.0000 H   0  0  0  0  0  0  0  0  0  0  0  0
    6.3429    0.0000    0.0000 H   0  0  0  0  0  0  0  0  0  0  0  0
    8.0749    1.6200    0.0000 H   0  0  0  0  0  0  0  0  0  0  0  0
    7.3259    4.8926    0.0000 H   0  0  0  0  0  0  0  0  0  0  0  0
    6.9274    4.2023    0.0000 H   0  0  0  0  0  0  0  0  0  0  0  0
    7.8671    5.1200    0.0000 H   0  0  0  0  0  0  0  0  0  0  0  0
    8.8715    3.8350    0.0000 H   0  0  0  0  0  0  0  0  0  0  0  0
    9.6686    3.8350    0.0000 H   0  0  0  0  0  0  0  0  0  0  0  0
   11.6560   12.3926    0.0000 H   0  0  0  0  0  0  0  0  0  0  0  0
   11.2575   11.7023    0.0000 H   0  0  0  0  0  0  0  0  0  0  0  0
   12.0802   10.2274    0.0000 H   0  0  0  0  0  0  0  0  0  0  0  0
   12.4787   10.9177    0.0000 H   0  0  0  0  0  0  0  0  0  0  0  0
   10.7900   10.8926    0.0000 H   0  0  0  0  0  0  0  0  0  0  0  0
   10.3915   10.2023    0.0000 H   0  0  0  0  0  0  0  0  0  0  0  0
   12.9462   11.7274    0.0000 H   0  0  0  0  0  0  0  0  0  0  0  0
   13.3447   12.4177    0.0000 H   0  0  0  0  0  0  0  0  0  0  0  0
   11.2141    8.7274    0.0000 H   0  0  0  0  0  0  0  0  0  0  0  0
   11.6127    9.4177    0.0000 H   0  0  0  0  0  0  0  0  0  0  0  0
   12.5221   13.8926    0.0000 H   0  0  0  0  0  0  0  0  0  0  0  0
   12.1235   13.2023    0.0000 H   0  0  0  0  0  0  0  0  0  0  0  0
    9.9240    9.3926    0.0000 H   0  0  0  0  0  0  0  0  0  0  0  0
    9.5255    8.7023    0.0000 H   0  0  0  0  0  0  0  0  0  0  0  0
   13.8122   13.2274    0.0000 H   0  0  0  0  0  0  0  0  0  0  0  0
   14.2107   13.9177    0.0000 H   0  0  0  0  0  0  0  0  0  0  0  0
   10.3481    7.2274    0.0000 H   0  0  0  0  0  0  0  0  0  0  0  0
   10.7466    7.9177    0.0000 H   0  0  0  0  0  0  0  0  0  0  0  0
   13.3881   15.3926    0.0000 H   0  0  0  0  0  0  0  0  0  0  0  0
   12.9896   14.7023    0.0000 H   0  0  0  0  0  0  0  0  0  0  0  0
    9.0580    7.8926    0.0000 H   0  0  0  0  0  0  0  0  0  0  0  0
    8.6594    7.2023    0.0000 H   0  0  0  0  0  0  0  0  0  0  0  0
   14.6782   14.7274    0.0000 H   0  0  0  0  0  0  0  0  0  0  0  0
   15.0768   15.4177    0.0000 H   0  0  0  0  0  0  0  0  0  0  0  0
   14.2541   16.8926    0.0000 H   0  0  0  0  0  0  0  0  0  0  0  0
   13.8556   16.2023    0.0000 H   0  0  0  0  0  0  0  0  0  0  0  0
   15.5443   16.2274    0.0000 H   0  0  0  0  0  0  0  0  0  0  0  0
   15.9428   16.9177    0.0000 H   0  0  0  0  0  0  0  0  0  0  0  0
   12.2666    5.2850    0.0000 H   0  0  0  0  0  0  0  0  0  0  0  0
   11.4696    5.2850    0.0000 H   0  0  0  0  0  0  0  0  0  0  0  0
   12.3356    3.8350    0.0000 H   0  0  0  0  0  0  0  0  0  0  0  0
   13.1327    3.8350    0.0000 H   0  0  0  0  0  0  0  0  0  0  0  0
   13.9987    5.2850    0.0000 H   0  0  0  0  0  0  0  0  0  0  0  0
   13.2016    5.2850    0.0000 H   0  0  0  0  0  0  0  0  0  0  0  0
   14.0676    3.8350    0.0000 H   0  0  0  0  0  0  0  0  0  0  0  0
   14.8647    3.8350    0.0000 H   0  0  0  0  0  0  0  0  0  0  0  0
   15.7307    5.2850    0.0000 H   0  0  0  0  0  0  0  0  0  0  0  0
   14.9337    5.2850    0.0000 H   0  0  0  0  0  0  0  0  0  0  0  0
   15.9522   17.8100    0.0000 H   0  0  0  0  0  0  0  0  0  0  0  0
   15.3322   18.4300    0.0000 H   0  0  0  0  0  0  0  0  0  0  0  0
   14.7122   17.8100    0.0000 H   0  0  0  0  0  0  0  0  0  0  0  0
   15.7997    3.8350    0.0000 H   0  0  0  0  0  0  0  0  0  0  0  0
   16.5968    3.8350    0.0000 H   0  0  0  0  0  0  0  0  0  0  0  0
   17.4628    5.2850    0.0000 H   0  0  0  0  0  0  0  0  0  0  0  0
   16.6657    5.2850    0.0000 H   0  0  0  0  0  0  0  0  0  0  0  0
   17.9303    3.6900    0.0000 H   0  0  0  0  0  0  0  0  0  0  0  0
   19.3332    4.5000    0.0000 H   0  0  0  0  0  0  0  0  0  0  0  0
   18.5842    6.3926    0.0000 H   0  0  0  0  0  0  0  0  0  0  0  0
   18.1857    5.7023    0.0000 H   0  0  0  0  0  0  0  0  0  0  0  0
   20.1993    6.0000    0.0000 H   0  0  0  0  0  0  0  0  0  0  0  0
   20.1993    7.6200    0.0000 H   0  0  0  0  0  0  0  0  0  0  0  0
   18.1857    7.9177    0.0000 H   0  0  0  0  0  0  0  0  0  0  0  0
   18.5842    7.2274    0.0000 H   0  0  0  0  0  0  0  0  0  0  0  0
   19.3332    9.1200    0.0000 H   0  0  0  0  0  0  0  0  0  0  0  0
   17.9303    9.9300    0.0000 H   0  0  0  0  0  0  0  0  0  0  0  0
   16.6657    8.3351    0.0000 H   0  0  0  0  0  0  0  0  0  0  0  0
   17.4628    8.3351    0.0000 H   0  0  0  0  0  0  0  0  0  0  0  0
   16.5082    9.8469    0.0000 H   0  0  0  0  0  0  0  0  0  0  0  0
   15.6613    9.6200    0.0000 H   0  0  0  0  0  0  0  0  0  0  0  0
   15.8882    8.7731    0.0000 H   0  0  0  0  0  0  0  0  0  0  0  0
    1.0739    9.5250    0.0000 H   0  0  0  0  0  0  0  0  0  0  0  0
    0.0000    8.9050    0.0000 H   0  0  0  0  0  0  0  0  0  0  0  0
    0.2269    9.7519    0.0000 H   0  0  0  0  0  0  0  0  0  0  0  0
    0.8469    8.6781    0.0000 H   0  0  0  0  0  0  0  0  0  0  0  0
  1  8  1  0  0  0  0
  1  9  2  0  0  0  0
  1 10  2  0  0  0  0
  1 20  1  0  0  0  0
  2 16  1  0  0  0  0
  2 19  1  0  0  0  0
 19  3  1  6  0  0  0
  3 21  1  0  0  0  0
 15  4  1  6  0  0  0
  4 65  1  0  0  0  0
  5 17  1  0  0  0  0
  5 66  1  0  0  0  0
  6 18  1  0  0  0  0
  6 67  1  0  0  0  0
 22  7  1  6  0  0  0
  7 35  1  0  0  0  0
 11 23  1  0  0  0  0
 11 39  1  0  0  0  0
 12 35  2  0  0  0  0
 13 39  2  0  0  0  0
 14133  1  0  0  0  0
 14134  1  0  0  0  0
 14135  1  0  0  0  0
 14136  1  0  0  0  0
 15 16  1  0  0  0  0
 15 17  1  0  0  0  0
 15 58  1  0  0  0  0
 16 20  1  1  0  0  0
 16 59  1  0  0  0  0
 17 18  1  0  0  0  0
 17 60  1  0  0  0  0
 18 19  1  0  0  0  0
 18 61  1  0  0  0  0
 19 62  1  0  0  0  0
 20 63  1  0  0  0  0
 20 64  1  0  0  0  0
 21 22  1  0  0  0  0
 21 68  1  0  0  0  0
 21 69  1  0  0  0  0
 22 23  1  0  0  0  0
 22 70  1  0  0  0  0
 23 71  1  0  0  0  0
 23 72  1  0  0  0  0
 24 25  1  0  0  0  0
 24 26  1  0  0  0  0
 24 75  1  0  0  0  0
 24 76  1  0  0  0  0
 25 27  1  0  0  0  0
 25 73  1  0  0  0  0
 25 74  1  0  0  0  0
 26 28  1  0  0  0  0
 26 77  1  0  0  0  0
 26 78  1  0  0  0  0
 27 29  1  0  0  0  0
 27 79  1  0  0  0  0
 27 80  1  0  0  0  0
 28 30  1  0  0  0  0
 28 81  1  0  0  0  0
 28 82  1  0  0  0  0
 29 31  1  0  0  0  0
 29 83  1  0  0  0  0
 29 84  1  0  0  0  0
 30 32  1  0  0  0  0
 30 85  1  0  0  0  0
 30 86  1  0  0  0  0
 31 33  1  0  0  0  0
 31 87  1  0  0  0  0
 31 88  1  0  0  0  0
 32 34  1  0  0  0  0
 32 89  1  0  0  0  0
 32 90  1  0  0  0  0
 33 36  1  0  0  0  0
 33 91  1  0  0  0  0
 33 92  1  0  0  0  0
 34 35  1  0  0  0  0
 34 93  1  0  0  0  0
 34 94  1  0  0  0  0
 36 37  1  0  0  0  0
 36 95  1  0  0  0  0
 36 96  1  0  0  0  0
 37 38  1  0  0  0  0
 37 97  1  0  0  0  0
 37 98  1  0  0  0  0
 38 45  1  0  0  0  0
 38 99  1  0  0  0  0
 38100  1  0  0  0  0
 39 40  1  0  0  0  0
 40 41  1  0  0  0  0
 40101  1  0  0  0  0
 40102  1  0  0  0  0
 41 42  1  0  0  0  0
 41103  1  0  0  0  0
 41104  1  0  0  0  0
 42 43  1  0  0  0  0
 42105  1  0  0  0  0
 42106  1  0  0  0  0
 43 44  1  0  0  0  0
 43107  1  0  0  0  0
 43108  1  0  0  0  0
 44 46  1  0  0  0  0
 44109  1  0  0  0  0
 44110  1  0  0  0  0
 45111  1  0  0  0  0
 45112  1  0  0  0  0
 45113  1  0  0  0  0
 46 47  1  0  0  0  0
 46114  1  0  0  0  0
 46115  1  0  0  0  0
 47 48  1  0  0  0  0
 47116  1  0  0  0  0
 47117  1  0  0  0  0
 48 49  2  0  0  0  0
 48118  1  0  0  0  0
 49 50  1  0  0  0  0
 49119  1  0  0  0  0
 50 51  1  0  0  0  0
 50120  1  0  0  0  0
 50121  1  0  0  0  0
 51 52  2  0  0  0  0
 51122  1  0  0  0  0
 52 53  1  0  0  0  0
 52123  1  0  0  0  0
 53 54  1  0  0  0  0
 53124  1  0  0  0  0
 53125  1  0  0  0  0
 54 55  2  0  0  0  0
 54126  1  0  0  0  0
 55 56  1  0  0  0  0
 55127  1  0  0  0  0
 56 57  1  0  0  0  0
 56128  1  0  0  0  0
 56129  1  0  0  0  0
 57130  1  0  0  0  0
 57131  1  0  0  0  0
 57132  1  0  0  0  0
M  CHG  2   8  -1  14   1
M  END
> <PUBCHEM_COMPOUND_CID>
136212479

> <PUBCHEM_COMPOUND_CANONICALIZED>
1

> <PUBCHEM_CACTVS_COMPLEXITY>
1170

> <PUBCHEM_CACTVS_HBOND_ACCEPTOR>
12

> <PUBCHEM_CACTVS_HBOND_DONOR>
4

> <PUBCHEM_CACTVS_ROTATABLE_BOND>
36

> <PUBCHEM_CACTVS_SUBSKEYS>
AAADcfB+PABAAAAAAAAAAAAAAAAAAAAAAAAkAAAAAAAAAAAAAAAAGgQQCAAACBS0wAOCCAAABgKIACDSCHBAAAAgAAAICAEAAAgREBIAAQAiQAAFgAAPAAPI6KyAAAAAAAAAAAAAAAAAAAAAAAAAAAAAAA==

> <PUBCHEM_IUPAC_OPENEYE_NAME>
ammonium;[(2S,3S,6S)-6-[(2S)-2-hexadecanoyloxy-3-[(9Z,12Z,15Z)-octadeca-9,12,15-trienoyl]oxy-propoxy]-3,4,5-trihydroxy-tetrahydropyran-2-yl]methanesulfonate

> <PUBCHEM_IUPAC_CAS_NAME>
ammonium;[(2S,3S,6S)-3,4,5-trihydroxy-6-[(2S)-2-(1-oxohexadecoxy)-3-[(9Z,12Z,15Z)-1-oxooctadeca-9,12,15-trienoxy]propoxy]-2-oxanyl]methanesulfonate

> <PUBCHEM_IUPAC_NAME_MARKUP>
azanium;[(2<I>S</I>,3<I>S</I>,6<I>S</I>)-6-[(2<I>S</I>)-2-hexadecanoyloxy-3-[(9<I>Z</I>,12<I>Z</I>,15<I>Z</I>)-octadeca-9,12,15-trienoyl]oxypropoxy]-3,4,5-trihydroxyoxan-2-yl]methanesulfonate

> <PUBCHEM_IUPAC_NAME>
azanium;[(2S,3S,6S)-6-[(2S)-2-hexadecanoyloxy-3-[(9Z,12Z,15Z)-octadeca-9,12,15-trienoyl]oxypropoxy]-3,4,5-trihydroxyoxan-2-yl]methanesulfonate

> <PUBCHEM_IUPAC_SYSTEMATIC_NAME>
azanium;[(2S,3S,6S)-6-[(2S)-2-hexadecanoyloxy-3-[(9Z,12Z,15Z)-octadeca-9,12,15-trienoyl]oxy-propoxy]-3,4,5-tris(oxidanyl)oxan-2-yl]methanesulfonate

> <PUBCHEM_IUPAC_TRADITIONAL_NAME>
ammonium;[(2S,3S,6S)-6-[(2S)-2-hexadecanoyloxy-3-[(9Z,12Z,15Z)-octadeca-9,12,15-trienoyl]oxy-propoxy]-3,4,5-trihydroxy-tetrahydropyran-2-yl]methanesulfonate

> <PUBCHEM_IUPAC_INCHI>
InChI=1S/C43H76O12S.H3N/c1-3-5-7-9-11-13-15-17-18-20-21-23-25-27-29-31-38(44)52-33-36(34-53-43-42(48)41(47)40(46)37(55-43)35-56(49,50)51)54-39(45)32-30-28-26-24-22-19-16-14-12-10-8-6-4-2;/h5,7,11,13,17-18,36-37,40-43,46-48H,3-4,6,8-10,12,14-16,19-35H2,1-2H3,(H,49,50,51);1H3/b7-5-,13-11-,18-17-;/t36-,37-,40-,41?,42?,43+;/m1./s1

> <PUBCHEM_IUPAC_INCHIKEY>
LCOQSTSHEBORLB-KBWPNDPGSA-N

> <PUBCHEM_EXACT_MASS>
833.532298

> <PUBCHEM_MOLECULAR_FORMULA>
C43H79NO12S

> <PUBCHEM_MOLECULAR_WEIGHT>
834.2

> <PUBCHEM_OPENEYE_CAN_SMILES>
CCCCCCCCCCCCCCCC(=O)OC(COC1C(C(C(C(O1)CS(=O)(=O)[O-])O)O)O)COC(=O)CCCCCCCC=CCC=CCC=CCC.[NH4+]

> <PUBCHEM_OPENEYE_ISO_SMILES>
CCCCCCCCCCCCCCCC(=O)O[C@@H](CO[C@@H]1C(C([C@@H]([C@H](O1)CS(=O)(=O)[O-])O)O)O)COC(=O)CCCCCCC/C=C\C/C=C\C/C=C\CC.[NH4+]

> <PUBCHEM_CACTVS_TPSA>
198

> <PUBCHEM_MONOISOTOPIC_WEIGHT>
833.532298

> <PUBCHEM_TOTAL_CHARGE>
0

> <PUBCHEM_HEAVY_ATOM_COUNT>
57

> <PUBCHEM_ATOM_DEF_STEREO_COUNT>
4

> <PUBCHEM_ATOM_UDEF_STEREO_COUNT>
2

> <PUBCHEM_BOND_DEF_STEREO_COUNT>
3

> <PUBCHEM_BOND_UDEF_STEREO_COUNT>
0

> <PUBCHEM_ISOTOPIC_ATOM_COUNT>
0

> <PUBCHEM_COMPONENT_COUNT>
2

> <PUBCHEM_CACTVS_TAUTO_COUNT>
-1

> <PUBCHEM_COORDINATE_TYPE>
1
5
255

> <PUBCHEM_BONDANNOTATIONS>
16  20  5
19  3  6
15  4  6
17  5  3
18  6  3
22  7  6

$$$$
