443693
  -OEChem-09302007073D

 37 41  0     1  0  0  0  0  0999 V2000
   -3.5735    1.6022   -1.8667 O   0  0  0  0  0  0  0  0  0  0  0  0
    3.6505    1.7006    0.4338 O   0  0  0  0  0  0  0  0  0  0  0  0
    4.3673   -0.3217   -0.6611 O   0  0  0  0  0  0  0  0  0  0  0  0
   -1.5822   -1.9949   -0.2106 N   0  0  2  0  0  0  0  0  0  0  0  0
   -1.1305    0.1533    0.6352 C   0  0  1  0  0  0  0  0  0  0  0  0
   -1.9298   -0.5791   -0.4713 C   0  0  2  0  0  0  0  0  0  0  0  0
   -1.3620   -0.7586    1.8583 C   0  0  0  0  0  0  0  0  0  0  0  0
   -1.6235   -2.1442    1.2611 C   0  0  0  0  0  0  0  0  0  0  0  0
    0.3598    0.0587    0.2597 C   0  0  0  0  0  0  0  0  0  0  0  0
   -3.4421   -0.3092   -0.3994 C   0  0  0  0  0  0  0  0  0  0  0  0
   -0.2076   -2.2293   -0.7181 C   0  0  0  0  0  0  0  0  0  0  0  0
   -1.6606    1.5459    0.8843 C   0  0  0  0  0  0  0  0  0  0  0  0
    0.7986   -1.1449   -0.3738 C   0  0  0  0  0  0  0  0  0  0  0  0
   -3.7168    1.1960   -0.5081 C   0  0  1  0  0  0  0  0  0  0  0  0
   -2.7980    2.0153    0.3483 C   0  0  0  0  0  0  0  0  0  0  0  0
    1.3005    1.0550    0.5647 C   0  0  0  0  0  0  0  0  0  0  0  0
    2.1464   -1.3269   -0.7168 C   0  0  0  0  0  0  0  0  0  0  0  0
    2.6195    0.8380    0.2144 C   0  0  0  0  0  0  0  0  0  0  0  0
    3.0301   -0.3164   -0.4082 C   0  0  0  0  0  0  0  0  0  0  0  0
    4.7539    0.9601   -0.1258 C   0  0  0  0  0  0  0  0  0  0  0  0
   -1.6014   -0.2867   -1.4799 H   0  0  0  0  0  0  0  0  0  0  0  0
   -2.2393   -0.4458    2.4390 H   0  0  0  0  0  0  0  0  0  0  0  0
   -0.5060   -0.7746    2.5435 H   0  0  0  0  0  0  0  0  0  0  0  0
   -0.9158   -2.8926    1.6363 H   0  0  0  0  0  0  0  0  0  0  0  0
   -2.6209   -2.4907    1.5571 H   0  0  0  0  0  0  0  0  0  0  0  0
   -3.8662   -0.6799    0.5417 H   0  0  0  0  0  0  0  0  0  0  0  0
   -3.9449   -0.8458   -1.2135 H   0  0  0  0  0  0  0  0  0  0  0  0
   -0.2633   -2.2996   -1.8124 H   0  0  0  0  0  0  0  0  0  0  0  0
    0.1561   -3.2018   -0.3632 H   0  0  0  0  0  0  0  0  0  0  0  0
   -1.1099    2.2045    1.5502 H   0  0  0  0  0  0  0  0  0  0  0  0
   -4.7555    1.3878   -0.2189 H   0  0  0  0  0  0  0  0  0  0  0  0
   -3.0986    3.0366    0.5660 H   0  0  0  0  0  0  0  0  0  0  0  0
    1.0285    1.9753    1.0673 H   0  0  0  0  0  0  0  0  0  0  0  0
    2.4831   -2.2331   -1.2088 H   0  0  0  0  0  0  0  0  0  0  0  0
   -2.6312    1.5693   -2.1033 H   0  0  0  0  0  0  0  0  0  0  0  0
    5.5037    0.8016    0.6578 H   0  0  0  0  0  0  0  0  0  0  0  0
    5.2045    1.5547   -0.9289 H   0  0  0  0  0  0  0  0  0  0  0  0
  1 14  1  0  0  0  0
  1 35  1  0  0  0  0
  2 18  1  0  0  0  0
  2 20  1  0  0  0  0
  3 19  1  0  0  0  0
  3 20  1  0  0  0  0
  4  6  1  0  0  0  0
  4  8  1  0  0  0  0
  4 11  1  0  0  0  0
  5  6  1  0  0  0  0
  5  7  1  0  0  0  0
  5  9  1  0  0  0  0
  5 12  1  0  0  0  0
  6 10  1  0  0  0  0
  6 21  1  0  0  0  0
  7  8  1  0  0  0  0
  7 22  1  0  0  0  0
  7 23  1  0  0  0  0
  8 24  1  0  0  0  0
  8 25  1  0  0  0  0
  9 13  1  0  0  0  0
  9 16  2  0  0  0  0
 10 14  1  0  0  0  0
 10 26  1  0  0  0  0
 10 27  1  0  0  0  0
 11 13  1  0  0  0  0
 11 28  1  0  0  0  0
 11 29  1  0  0  0  0
 12 15  2  0  0  0  0
 12 30  1  0  0  0  0
 13 17  2  0  0  0  0
 14 15  1  0  0  0  0
 14 31  1  0  0  0  0
 15 32  1  0  0  0  0
 16 18  1  0  0  0  0
 16 33  1  0  0  0  0
 17 19  1  0  0  0  0
 17 34  1  0  0  0  0
 18 19  2  0  0  0  0
 20 36  1  0  0  0  0
 20 37  1  0  0  0  0
M  END
> <PUBCHEM_COMPOUND_CID>
443693

> <PUBCHEM_CONFORMER_RMSD>
0.6

> <PUBCHEM_CONFORMER_DIVERSEORDER>
1

> <PUBCHEM_MMFF94_PARTIAL_CHARGES>
23
1 -0.68
11 0.41
12 -0.29
13 -0.14
14 0.42
15 -0.29
16 -0.15
17 -0.15
18 0.08
19 0.08
2 -0.36
20 0.56
3 -0.36
30 0.15
32 0.15
33 0.15
34 0.15
35 0.4
4 -0.81
5 0.28
6 0.27
8 0.27
9 -0.14

> <PUBCHEM_EFFECTIVE_ROTOR_COUNT>
1.6

> <PUBCHEM_PHARMACOPHORE_FEATURES>
9
1 1 acceptor
1 1 donor
1 2 acceptor
1 3 acceptor
1 4 cation
5 2 3 18 19 20 rings
6 5 6 10 12 14 15 rings
6 9 13 16 17 18 19 rings
8 4 5 6 7 8 9 11 13 rings

> <PUBCHEM_HEAVY_ATOM_COUNT>
20

> <PUBCHEM_ATOM_DEF_STEREO_COUNT>
3

> <PUBCHEM_ATOM_UDEF_STEREO_COUNT>
0

> <PUBCHEM_BOND_DEF_STEREO_COUNT>
0

> <PUBCHEM_BOND_UDEF_STEREO_COUNT>
0

> <PUBCHEM_ISOTOPIC_ATOM_COUNT>
0

> <PUBCHEM_COMPONENT_COUNT>
1

> <PUBCHEM_CACTVS_TAUTO_COUNT>
1

> <PUBCHEM_CONFORMER_ID>
0006C52D00000001

> <PUBCHEM_MMFF94_ENERGY>
60.069

> <PUBCHEM_FEATURE_SELFOVERLAP>
45.864

> <PUBCHEM_SHAPE_FINGERPRINT>
10608611 8 18342740762475411504
10646746 165 18410012143705832660
10863032 1 18410008797757731295
10948715 1 18335136445404810791
10967382 1 18271530797297004856
11370993 70 18342734122376597308
11552529 35 13624114022274326705
11725454 13 17822562799090411589
12077114 3 18408887364701045218
12138202 97 18408038520181110835
12403259 415 18115878412252039309
12403814 3 18197791096350106291
12500047 106 18187083962145932706
12730499 353 18044658590883759229
13024252 1 17531809177018428387
13380535 76 18341051826335967418
13464514 151 18195533588371526681
13583140 156 17603590733228771784
15061688 2 17677042431091444845
15163728 17 17388253442819125541
15375358 24 18272087206215720332
15420108 30 15610479256850725680
16945 1 18129093416947484611
17093844 174 18336824282496863928
17349148 13 17774434976367463074
17357779 13 18053368075584469151
173720 79 17896297208542864225
18186145 218 18265335014835666517
192875 21 18057029212611925442
19862831 5 17346880026813802140
19868273 293 18040996236955536689
200 152 16630527336387596204
20510252 161 18269279121763331251
20645477 56 18334298690337440961
20645477 70 18060426789905479166
21524375 3 18263362495270461971
21637258 2 14476666551602247333
22182313 1 18269857391891542438
22907989 373 18264785426499259621
2306618 200 17988091091775458210
23227448 37 18041282187415108605
23402539 116 18260823856466989543
23402655 69 17987796298353361349
23419403 2 16054046947626071267
23493267 7 18260828223984324426
23559900 14 18273215279824420630
25 1 18267867190167084597
2748010 2 18270979997748197566
2838139 119 17314766548152999509
4028521 119 18408880715949551709
4175511 318 18187085065625382829
474 4 18268717095512832049
5104073 3 18413392051282287554
633830 44 18125443012499702525
69090 78 18413388730834580553
9709674 26 18272377468500567478
9981440 41 18411693292526659866

> <PUBCHEM_SHAPE_MULTIPOLES>
389
7.25
2.26
1.22
5.69
0.4
-0.13
-3.58
1.85
-0.99
-0.04
-0.93
0.08
0.9

> <PUBCHEM_SHAPE_SELFOVERLAP>
883.003

> <PUBCHEM_SHAPE_VOLUME>
203.8

> <PUBCHEM_COORDINATE_TYPE>
2
5
10

$$$$
