398555
  -OEChem-09302005453D

 53 56  0     1  0  0  0  0  0999 V2000
   -1.4027   -0.3722    0.2618 O   0  0  0  0  0  0  0  0  0  0  0  0
    0.2261   -4.3267   -1.3290 O   0  0  0  0  0  0  0  0  0  0  0  0
   -0.7447   -3.0246    2.6761 O   0  0  0  0  0  0  0  0  0  0  0  0
   -2.0554   -2.9466   -0.7339 O   0  0  0  0  0  0  0  0  0  0  0  0
    4.3469   -1.4227   -1.2574 O   0  0  0  0  0  0  0  0  0  0  0  0
    1.6958    3.6693    1.2212 O   0  0  0  0  0  0  0  0  0  0  0  0
    3.6699    3.5428   -0.1531 O   0  0  0  0  0  0  0  0  0  0  0  0
    4.6159    1.1351   -1.3104 O   0  0  0  0  0  0  0  0  0  0  0  0
   -2.9865    0.9206   -1.4788 O   0  0  0  0  0  0  0  0  0  0  0  0
   -4.6775    3.1639   -0.4169 O   0  0  0  0  0  0  0  0  0  0  0  0
    2.3058   -2.3494   -0.7673 N   0  0  0  0  0  0  0  0  0  0  0  0
    0.7992   -1.2397    0.8139 C   0  0  2  0  0  0  0  0  0  0  0  0
    0.9007   -2.1710   -0.4145 C   0  0  2  0  0  0  0  0  0  0  0  0
   -0.6721   -1.0775    1.2636 C   0  0  2  0  0  0  0  0  0  0  0  0
    0.2336   -3.5305   -0.1440 C   0  0  1  0  0  0  0  0  0  0  0  0
   -1.3440   -2.4367    1.5243 C   0  0  1  0  0  0  0  0  0  0  0  0
   -1.2183   -3.3930    0.3335 C   0  0  1  0  0  0  0  0  0  0  0  0
    1.5579    0.0512    0.5209 C   0  0  0  0  0  0  0  0  0  0  0  0
    2.7355   -0.0071   -0.2728 C   0  0  0  0  0  0  0  0  0  0  0  0
    3.2086   -1.3063   -0.8134 C   0  0  0  0  0  0  0  0  0  0  0  0
    1.1748    1.2894    1.0649 C   0  0  0  0  0  0  0  0  0  0  0  0
    3.4963    1.1411   -0.5412 C   0  0  0  0  0  0  0  0  0  0  0  0
    1.9393    2.4045    0.7795 C   0  0  0  0  0  0  0  0  0  0  0  0
   -2.7599   -0.2031    0.6383 C   0  0  0  0  0  0  0  0  0  0  0  0
    3.0653    2.3331   -0.0024 C   0  0  0  0  0  0  0  0  0  0  0  0
   -3.5217    0.5471   -0.4350 C   0  0  0  0  0  0  0  0  0  0  0  0
    2.7947    4.3860    0.6229 C   0  0  0  0  0  0  0  0  0  0  0  0
   -4.9960    0.7978   -0.1792 C   0  0  0  0  0  0  0  0  0  0  0  0
   -5.4612    2.0684   -0.8844 C   0  0  1  0  0  0  0  0  0  0  0  0
   -6.9263    2.3570   -0.5870 C   0  0  0  0  0  0  0  0  0  0  0  0
    1.3527   -1.7012    1.6449 H   0  0  0  0  0  0  0  0  0  0  0  0
    0.4394   -1.6984   -1.2926 H   0  0  0  0  0  0  0  0  0  0  0  0
   -0.6927   -0.4982    2.1960 H   0  0  0  0  0  0  0  0  0  0  0  0
    0.8172   -4.0844    0.6005 H   0  0  0  0  0  0  0  0  0  0  0  0
   -2.3934   -2.3495    1.8021 H   0  0  0  0  0  0  0  0  0  0  0  0
   -1.5836   -4.3862    0.6237 H   0  0  0  0  0  0  0  0  0  0  0  0
    2.5952   -3.2406   -1.1594 H   0  0  0  0  0  0  0  0  0  0  0  0
    0.3035    1.3951    1.7008 H   0  0  0  0  0  0  0  0  0  0  0  0
   -0.1190   -3.7819   -2.0565 H   0  0  0  0  0  0  0  0  0  0  0  0
    0.1785   -3.2497    2.4804 H   0  0  0  0  0  0  0  0  0  0  0  0
   -2.0626   -3.6436   -1.4114 H   0  0  0  0  0  0  0  0  0  0  0  0
   -2.8253    0.3643    1.5723 H   0  0  0  0  0  0  0  0  0  0  0  0
   -3.3068   -1.1435    0.7098 H   0  0  0  0  0  0  0  0  0  0  0  0
    2.3902    5.1677   -0.0301 H   0  0  0  0  0  0  0  0  0  0  0  0
    3.3795    4.8603    1.4195 H   0  0  0  0  0  0  0  0  0  0  0  0
    4.9685    2.0407   -1.3576 H   0  0  0  0  0  0  0  0  0  0  0  0
   -5.1289    0.9106    0.9033 H   0  0  0  0  0  0  0  0  0  0  0  0
   -5.5603   -0.0782   -0.5143 H   0  0  0  0  0  0  0  0  0  0  0  0
   -5.3121    1.9849   -1.9669 H   0  0  0  0  0  0  0  0  0  0  0  0
   -7.5686    1.5372   -0.9229 H   0  0  0  0  0  0  0  0  0  0  0  0
   -7.2452    3.2766   -1.0895 H   0  0  0  0  0  0  0  0  0  0  0  0
   -7.0866    2.5138    0.4854 H   0  0  0  0  0  0  0  0  0  0  0  0
   -4.9779    3.9608   -0.8862 H   0  0  0  0  0  0  0  0  0  0  0  0
  1 14  1  0  0  0  0
  1 24  1  0  0  0  0
  2 15  1  0  0  0  0
  2 39  1  0  0  0  0
  3 16  1  0  0  0  0
  3 40  1  0  0  0  0
  4 17  1  0  0  0  0
  4 41  1  0  0  0  0
  5 20  2  0  0  0  0
  6 23  1  0  0  0  0
  6 27  1  0  0  0  0
  7 25  1  0  0  0  0
  7 27  1  0  0  0  0
  8 22  1  0  0  0  0
  8 46  1  0  0  0  0
  9 26  2  0  0  0  0
 10 29  1  0  0  0  0
 10 53  1  0  0  0  0
 11 13  1  0  0  0  0
 11 20  1  0  0  0  0
 11 37  1  0  0  0  0
 12 13  1  0  0  0  0
 12 14  1  0  0  0  0
 12 18  1  0  0  0  0
 12 31  1  0  0  0  0
 13 15  1  0  0  0  0
 13 32  1  0  0  0  0
 14 16  1  0  0  0  0
 14 33  1  0  0  0  0
 15 17  1  0  0  0  0
 15 34  1  0  0  0  0
 16 17  1  0  0  0  0
 16 35  1  0  0  0  0
 17 36  1  0  0  0  0
 18 19  1  0  0  0  0
 18 21  2  0  0  0  0
 19 20  1  0  0  0  0
 19 22  2  0  0  0  0
 21 23  1  0  0  0  0
 21 38  1  0  0  0  0
 22 25  1  0  0  0  0
 23 25  2  0  0  0  0
 24 26  1  0  0  0  0
 24 42  1  0  0  0  0
 24 43  1  0  0  0  0
 26 28  1  0  0  0  0
 27 44  1  0  0  0  0
 27 45  1  0  0  0  0
 28 29  1  0  0  0  0
 28 47  1  0  0  0  0
 28 48  1  0  0  0  0
 29 30  1  0  0  0  0
 29 49  1  0  0  0  0
 30 50  1  0  0  0  0
 30 51  1  0  0  0  0
 30 52  1  0  0  0  0
M  END
> <PUBCHEM_COMPOUND_CID>
398555

> <PUBCHEM_CONFORMER_RMSD>
0.8

> <PUBCHEM_CONFORMER_DIVERSEORDER>
2
16
10
8
4
21
9
6
18
17
3
20
5
14
1
19
7
11
15
12
13

> <PUBCHEM_MMFF94_PARTIAL_CHARGES>
36
1 -0.56
10 -0.68
11 -0.73
12 0.14
13 0.3
14 0.28
15 0.28
16 0.28
17 0.28
18 -0.14
19 0.09
2 -0.68
20 0.54
21 -0.15
22 0.08
23 0.08
24 0.34
25 0.08
26 0.45
27 0.56
28 0.06
29 0.28
3 -0.68
37 0.37
38 0.15
39 0.4
4 -0.68
40 0.4
41 0.4
46 0.45
5 -0.57
53 0.4
6 -0.36
7 -0.36
8 -0.53
9 -0.57

> <PUBCHEM_EFFECTIVE_ROTOR_COUNT>
6.6

> <PUBCHEM_PHARMACOPHORE_FEATURES>
19
1 1 acceptor
1 10 acceptor
1 10 donor
1 11 donor
1 2 acceptor
1 2 donor
1 3 acceptor
1 3 donor
1 4 acceptor
1 4 donor
1 5 acceptor
1 6 acceptor
1 7 acceptor
1 8 donor
1 9 acceptor
5 6 7 23 25 27 rings
6 11 12 13 18 19 20 rings
6 12 13 14 15 16 17 rings
6 18 19 21 22 23 25 rings

> <PUBCHEM_HEAVY_ATOM_COUNT>
30

> <PUBCHEM_ATOM_DEF_STEREO_COUNT>
6

> <PUBCHEM_ATOM_UDEF_STEREO_COUNT>
1

> <PUBCHEM_BOND_DEF_STEREO_COUNT>
0

> <PUBCHEM_BOND_UDEF_STEREO_COUNT>
0

> <PUBCHEM_ISOTOPIC_ATOM_COUNT>
0

> <PUBCHEM_COMPONENT_COUNT>
1

> <PUBCHEM_CACTVS_TAUTO_COUNT>
66

> <PUBCHEM_CONFORMER_ID>
000614DB00000002

> <PUBCHEM_MMFF94_ENERGY>
87.1635

> <PUBCHEM_FEATURE_SELFOVERLAP>
96.655

> <PUBCHEM_SHAPE_FINGERPRINT>
10165383 225 17750243516736898367
10483366 6 18196381316711985726
10675989 125 18122069702130476884
11273773 38 17042323840564413993
11578080 2 18188784975685986396
12730499 353 18335426712701686123
12769317 202 18190735337192988013
12788726 201 17686599639568393195
13944108 23 17830169104826556541
14468879 13 18119810471748719171
14955137 171 17898833665567151211
15082195 135 18196348374834772829
15210252 30 18046073661689402092
15219462 58 17679018455255576570
15322687 12 18411699859510393369
15439362 3 18412541029003586264
15961568 22 16106129919822757632
17980427 23 17981004696780700130
18681886 176 17980185401968266259
20465049 17 18340207367526073823
20600515 1 15513591464599915619
21033648 29 18186524332170920657
21049683 118 17676476260075835739
21857420 4 16676930850422902317
21859007 373 17623560261641065112
221357 26 18268427936940115485
23536364 44 17761779464181722820
23558518 356 18044650051686674595
238 59 18342459227163423947
3380486 145 17400931189776257451
376196 1 18335416881236923403
508706 21 17979922936384217740
5252454 2 18040988557707200501
5776283 40 18410865364798215204
633830 44 18338222813599695141
6608658 132 16534268718382031604
7399639 24 17476922823411510240
7808743 9 17749961088414968292

> <PUBCHEM_SHAPE_MULTIPOLES>
553.71
10.02
5.87
1.41
15.92
0.06
-0.46
11.96
4.52
-1.67
-0.48
-0.09
-0.78
2.1

> <PUBCHEM_SHAPE_SELFOVERLAP>
1203.153

> <PUBCHEM_SHAPE_VOLUME>
297.5

> <PUBCHEM_COORDINATE_TYPE>
2
5
10

$$$$
