10403528
  -OEChem-09302005343D

 46 49  0     1  0  0  0  0  0999 V2000
   -1.3467   -1.3395   -1.9385 O   0  0  0  0  0  0  0  0  0  0  0  0
   -3.4187   -2.1438    0.9069 O   0  0  0  0  0  0  0  0  0  0  0  0
    3.6372   -2.0676    0.0192 O   0  0  0  0  0  0  0  0  0  0  0  0
    4.7059    0.4934    0.0173 O   0  0  0  0  0  0  0  0  0  0  0  0
   -1.1546    2.1800    0.4516 N   0  0  2  0  0  0  0  0  0  0  0  0
   -1.5935    1.0378   -0.3461 C   0  0  1  0  0  0  0  0  0  0  0  0
   -0.9396   -0.2362    0.1863 C   0  0  1  0  0  0  0  0  0  0  0  0
   -3.0686    1.0524   -0.1882 C   0  0  0  0  0  0  0  0  0  0  0  0
   -1.6035   -1.4333   -0.5365 C   0  0  1  0  0  0  0  0  0  0  0  0
   -2.1416    3.2213    0.1470 C   0  0  0  0  0  0  0  0  0  0  0  0
   -3.4865    2.4612    0.1095 C   0  0  0  0  0  0  0  0  0  0  0  0
    0.5706   -0.0617    0.0974 C   0  0  0  0  0  0  0  0  0  0  0  0
    0.2357    2.4930    0.1281 C   0  0  0  0  0  0  0  0  0  0  0  0
   -3.1438   -1.4388   -0.3053 C   0  0  2  0  0  0  0  0  0  0  0  0
   -3.7874   -0.0763   -0.1638 C   0  0  0  0  0  0  0  0  0  0  0  0
    1.1225    1.2493    0.1257 C   0  0  0  0  0  0  0  0  0  0  0  0
    1.4357   -1.1632    0.0762 C   0  0  0  0  0  0  0  0  0  0  0  0
    2.5140    1.4167    0.0882 C   0  0  0  0  0  0  0  0  0  0  0  0
    2.8191   -0.9777    0.0464 C   0  0  0  0  0  0  0  0  0  0  0  0
    3.3566    0.3074    0.0494 C   0  0  0  0  0  0  0  0  0  0  0  0
   -2.8973   -3.4670    0.9886 C   0  0  0  0  0  0  0  0  0  0  0  0
    3.0099   -3.3480    0.0178 C   0  0  0  0  0  0  0  0  0  0  0  0
    5.1746    1.8403    0.0229 C   0  0  0  0  0  0  0  0  0  0  0  0
   -1.3619    1.1993   -1.4114 H   0  0  0  0  0  0  0  0  0  0  0  0
   -1.1565   -0.3468    1.2608 H   0  0  0  0  0  0  0  0  0  0  0  0
   -1.1377   -2.3659   -0.2215 H   0  0  0  0  0  0  0  0  0  0  0  0
   -1.9546    3.6837   -0.8311 H   0  0  0  0  0  0  0  0  0  0  0  0
   -2.1494    4.0096    0.9063 H   0  0  0  0  0  0  0  0  0  0  0  0
   -4.1419    2.8670   -0.6665 H   0  0  0  0  0  0  0  0  0  0  0  0
   -3.9843    2.5122    1.0838 H   0  0  0  0  0  0  0  0  0  0  0  0
    0.6167    3.2039    0.8704 H   0  0  0  0  0  0  0  0  0  0  0  0
    0.3143    2.9570   -0.8639 H   0  0  0  0  0  0  0  0  0  0  0  0
   -3.6422   -1.9621   -1.1310 H   0  0  0  0  0  0  0  0  0  0  0  0
   -4.8576   -0.0326    0.0160 H   0  0  0  0  0  0  0  0  0  0  0  0
    0.9815   -2.1455    0.0994 H   0  0  0  0  0  0  0  0  0  0  0  0
    2.8747    2.4403    0.0895 H   0  0  0  0  0  0  0  0  0  0  0  0
   -0.3859   -1.3957   -2.0726 H   0  0  0  0  0  0  0  0  0  0  0  0
   -2.9353   -3.9773    0.0213 H   0  0  0  0  0  0  0  0  0  0  0  0
   -3.5185   -4.0254    1.6951 H   0  0  0  0  0  0  0  0  0  0  0  0
   -1.8812   -3.4546    1.3921 H   0  0  0  0  0  0  0  0  0  0  0  0
    2.3993   -3.4994   -0.8791 H   0  0  0  0  0  0  0  0  0  0  0  0
    2.4489   -3.5244    0.9420 H   0  0  0  0  0  0  0  0  0  0  0  0
    3.8085   -4.0967   -0.0142 H   0  0  0  0  0  0  0  0  0  0  0  0
    4.8539    2.3836   -0.8726 H   0  0  0  0  0  0  0  0  0  0  0  0
    6.2686    1.8003   -0.0060 H   0  0  0  0  0  0  0  0  0  0  0  0
    4.9011    2.3597    0.9477 H   0  0  0  0  0  0  0  0  0  0  0  0
  1  9  1  0  0  0  0
  1 37  1  0  0  0  0
  2 14  1  0  0  0  0
  2 21  1  0  0  0  0
  3 19  1  0  0  0  0
  3 22  1  0  0  0  0
  4 20  1  0  0  0  0
  4 23  1  0  0  0  0
  5  6  1  0  0  0  0
  5 10  1  0  0  0  0
  5 13  1  0  0  0  0
  6  7  1  0  0  0  0
  6  8  1  0  0  0  0
  6 24  1  0  0  0  0
  7  9  1  0  0  0  0
  7 12  1  0  0  0  0
  7 25  1  0  0  0  0
  8 11  1  0  0  0  0
  8 15  2  0  0  0  0
  9 14  1  0  0  0  0
  9 26  1  0  0  0  0
 10 11  1  0  0  0  0
 10 27  1  0  0  0  0
 10 28  1  0  0  0  0
 11 29  1  0  0  0  0
 11 30  1  0  0  0  0
 12 16  1  0  0  0  0
 12 17  2  0  0  0  0
 13 16  1  0  0  0  0
 13 31  1  0  0  0  0
 13 32  1  0  0  0  0
 14 15  1  0  0  0  0
 14 33  1  0  0  0  0
 15 34  1  0  0  0  0
 16 18  2  0  0  0  0
 17 19  1  0  0  0  0
 17 35  1  0  0  0  0
 18 20  1  0  0  0  0
 18 36  1  0  0  0  0
 19 20  2  0  0  0  0
 21 38  1  0  0  0  0
 21 39  1  0  0  0  0
 21 40  1  0  0  0  0
 22 41  1  0  0  0  0
 22 42  1  0  0  0  0
 22 43  1  0  0  0  0
 23 44  1  0  0  0  0
 23 45  1  0  0  0  0
 23 46  1  0  0  0  0
M  END
> <PUBCHEM_COMPOUND_CID>
10403528

> <PUBCHEM_CONFORMER_RMSD>
0.6

> <PUBCHEM_CONFORMER_DIVERSEORDER>
3
5
2
4
1

> <PUBCHEM_MMFF94_PARTIAL_CHARGES>
27
1 -0.68
10 0.27
11 0.14
12 -0.14
13 0.41
14 0.42
15 -0.29
16 -0.14
17 -0.15
18 -0.15
19 0.08
2 -0.56
20 0.08
21 0.28
22 0.28
23 0.28
3 -0.36
34 0.15
35 0.15
36 0.15
37 0.4
4 -0.36
5 -0.81
6 0.41
7 0.14
8 -0.28
9 0.28

> <PUBCHEM_EFFECTIVE_ROTOR_COUNT>
4

> <PUBCHEM_PHARMACOPHORE_FEATURES>
10
1 1 acceptor
1 1 donor
1 2 acceptor
1 3 acceptor
1 4 acceptor
1 5 cation
5 5 6 8 10 11 rings
6 12 16 17 18 19 20 rings
6 5 6 7 12 13 16 rings
6 6 7 8 9 14 15 rings

> <PUBCHEM_HEAVY_ATOM_COUNT>
23

> <PUBCHEM_ATOM_DEF_STEREO_COUNT>
4

> <PUBCHEM_ATOM_UDEF_STEREO_COUNT>
0

> <PUBCHEM_BOND_DEF_STEREO_COUNT>
0

> <PUBCHEM_BOND_UDEF_STEREO_COUNT>
0

> <PUBCHEM_ISOTOPIC_ATOM_COUNT>
0

> <PUBCHEM_COMPONENT_COUNT>
1

> <PUBCHEM_CACTVS_TAUTO_COUNT>
1

> <PUBCHEM_CONFORMER_ID>
009EBEC800000003

> <PUBCHEM_MMFF94_ENERGY>
89.6087

> <PUBCHEM_FEATURE_SELFOVERLAP>
50.968

> <PUBCHEM_SHAPE_FINGERPRINT>
10366900 7 18272077353191400491
10411042 1 17978229683977162635
10616163 171 18411983572185813582
10759866 29 18410580548457682636
10863032 1 18411418367285118396
10967382 1 18051973623771946037
1100329 8 17978227158409415562
12553582 1 18198610210868761219
12788726 201 18337659880767964979
13140716 1 18268435620303655457
133893 2 15576425646081092142
138480 1 16392679534085379233
14178342 30 18336816546733262704
14223421 5 18411136965185487306
14787075 74 17826234283100753290
14790565 3 17979922609893831121
15196674 1 18340204081391009789
15442244 35 18195524796900532386
15536298 74 18269834229612767912
16945 1 18267580381020619725
17492 89 18410292471721306978
19591789 44 17041481614050044666
20510252 161 18270963445139593257
21267235 1 18411707611715028350
21859007 373 17246937551313412844
221490 88 18411143511359594930
23366157 5 18114747015282825770
23557571 272 18271815622432842948
23558518 356 18187654591179145626
23559900 14 18197773307186162818
2748010 2 17980463874620041605
335352 9 17979634528860910052
34934 24 18411131424709648776
352729 6 17985267369900745604
474 4 17894636972098046308
5104073 3 18411979140085578480
5309563 4 17977668933121096923
58051976 100 18267587905787277454
8809292 202 18338518513064874243
90525 40 18131066017742398279
9709674 26 18340488863724621070
9981440 41 18335978783555779208

> <PUBCHEM_SHAPE_MULTIPOLES>
444.87
8.26
3.97
0.83
6.5
1.24
0.18
0.14
-0.37
-1.46
-0.7
-0.45
0.37
0.37

> <PUBCHEM_SHAPE_SELFOVERLAP>
967.27

> <PUBCHEM_SHAPE_VOLUME>
244.8

> <PUBCHEM_COORDINATE_TYPE>
2
5
10

$$$$
