443670
  -OEChem-09302007123D

 38 42  0     1  0  0  0  0  0999 V2000
   -2.3826    0.2638   -2.3793 O   0  0  0  0  0  0  0  0  0  0  0  0
   -4.8052   -1.4395    0.9332 O   0  0  0  0  0  0  0  0  0  0  0  0
    3.7828   -1.7917   -0.3908 O   0  0  0  0  0  0  0  0  0  0  0  0
    4.5973    0.2940    0.4980 O   0  0  0  0  0  0  0  0  0  0  0  0
   -1.3640    2.0080    0.4082 N   0  0  2  0  0  0  0  0  0  0  0  0
   -0.9865   -0.1828   -0.3737 C   0  0  1  0  0  0  0  0  0  0  0  0
   -1.6730    0.6078    0.7721 C   0  0  2  0  0  0  0  0  0  0  0  0
   -1.2563    0.7000   -1.6248 C   0  0  2  0  0  0  0  0  0  0  0  0
   -1.5778    2.0868   -1.0540 C   0  0  0  0  0  0  0  0  0  0  0  0
    0.5315   -0.0909   -0.1043 C   0  0  0  0  0  0  0  0  0  0  0  0
   -3.1739    0.3297    0.9009 C   0  0  0  0  0  0  0  0  0  0  0  0
    0.0570    2.2692    0.7508 C   0  0  0  0  0  0  0  0  0  0  0  0
   -1.5370   -1.5855   -0.4923 C   0  0  0  0  0  0  0  0  0  0  0  0
    1.0257    1.1490    0.4090 C   0  0  0  0  0  0  0  0  0  0  0  0
   -3.4178   -1.1675    1.1143 C   0  0  2  0  0  0  0  0  0  0  0  0
   -2.6089   -2.0260    0.1846 C   0  0  0  0  0  0  0  0  0  0  0  0
    1.4364   -1.1217   -0.4015 C   0  0  0  0  0  0  0  0  0  0  0  0
    2.3965    1.3347    0.6394 C   0  0  0  0  0  0  0  0  0  0  0  0
    2.7791   -0.8997   -0.1626 C   0  0  0  0  0  0  0  0  0  0  0  0
    3.2451    0.2907    0.3425 C   0  0  0  0  0  0  0  0  0  0  0  0
    4.9314   -1.0284    0.0305 C   0  0  0  0  0  0  0  0  0  0  0  0
   -1.2380    0.3615    1.7537 H   0  0  0  0  0  0  0  0  0  0  0  0
   -0.4008    0.7384   -2.3090 H   0  0  0  0  0  0  0  0  0  0  0  0
   -0.9585    2.8634   -1.5183 H   0  0  0  0  0  0  0  0  0  0  0  0
   -2.6181    2.3741   -1.2485 H   0  0  0  0  0  0  0  0  0  0  0  0
   -3.7501    0.6881    0.0416 H   0  0  0  0  0  0  0  0  0  0  0  0
   -3.5834    0.8861    1.7547 H   0  0  0  0  0  0  0  0  0  0  0  0
    0.1081    2.4314    1.8355 H   0  0  0  0  0  0  0  0  0  0  0  0
    0.3879    3.2044    0.2820 H   0  0  0  0  0  0  0  0  0  0  0  0
   -1.0605   -2.2744   -1.1847 H   0  0  0  0  0  0  0  0  0  0  0  0
   -3.1628   -1.4472    2.1434 H   0  0  0  0  0  0  0  0  0  0  0  0
   -2.9233   -3.0577    0.0502 H   0  0  0  0  0  0  0  0  0  0  0  0
    1.1190   -2.0711   -0.8157 H   0  0  0  0  0  0  0  0  0  0  0  0
   -3.1652    0.2374   -1.8081 H   0  0  0  0  0  0  0  0  0  0  0  0
    2.7774    2.2682    1.0395 H   0  0  0  0  0  0  0  0  0  0  0  0
   -5.2966   -0.8887    1.5665 H   0  0  0  0  0  0  0  0  0  0  0  0
    5.6221   -0.9376   -0.8156 H   0  0  0  0  0  0  0  0  0  0  0  0
    5.4352   -1.5699    0.8395 H   0  0  0  0  0  0  0  0  0  0  0  0
  1  8  1  0  0  0  0
  1 34  1  0  0  0  0
  2 15  1  0  0  0  0
  2 36  1  0  0  0  0
  3 19  1  0  0  0  0
  3 21  1  0  0  0  0
  4 20  1  0  0  0  0
  4 21  1  0  0  0  0
  5  7  1  0  0  0  0
  5  9  1  0  0  0  0
  5 12  1  0  0  0  0
  6  7  1  0  0  0  0
  6  8  1  0  0  0  0
  6 10  1  0  0  0  0
  6 13  1  0  0  0  0
  7 11  1  0  0  0  0
  7 22  1  0  0  0  0
  8  9  1  0  0  0  0
  8 23  1  0  0  0  0
  9 24  1  0  0  0  0
  9 25  1  0  0  0  0
 10 14  1  0  0  0  0
 10 17  2  0  0  0  0
 11 15  1  0  0  0  0
 11 26  1  0  0  0  0
 11 27  1  0  0  0  0
 12 14  1  0  0  0  0
 12 28  1  0  0  0  0
 12 29  1  0  0  0  0
 13 16  2  0  0  0  0
 13 30  1  0  0  0  0
 14 18  2  0  0  0  0
 15 16  1  0  0  0  0
 15 31  1  0  0  0  0
 16 32  1  0  0  0  0
 17 19  1  0  0  0  0
 17 33  1  0  0  0  0
 18 20  1  0  0  0  0
 18 35  1  0  0  0  0
 19 20  2  0  0  0  0
 21 37  1  0  0  0  0
 21 38  1  0  0  0  0
M  END
> <PUBCHEM_COMPOUND_CID>
443670

> <PUBCHEM_CONFORMER_RMSD>
0.6

> <PUBCHEM_CONFORMER_DIVERSEORDER>
1

> <PUBCHEM_MMFF94_PARTIAL_CHARGES>
26
1 -0.68
10 -0.14
12 0.41
13 -0.29
14 -0.14
15 0.42
16 -0.29
17 -0.15
18 -0.15
19 0.08
2 -0.68
20 0.08
21 0.56
3 -0.36
30 0.15
32 0.15
33 0.15
34 0.4
35 0.15
36 0.4
4 -0.36
5 -0.81
6 0.28
7 0.27
8 0.28
9 0.27

> <PUBCHEM_EFFECTIVE_ROTOR_COUNT>
1.6

> <PUBCHEM_PHARMACOPHORE_FEATURES>
11
1 1 acceptor
1 1 donor
1 2 acceptor
1 2 donor
1 3 acceptor
1 4 acceptor
1 5 cation
5 3 4 19 20 21 rings
6 10 14 17 18 19 20 rings
6 6 7 11 13 15 16 rings
8 5 6 7 8 9 10 12 14 rings

> <PUBCHEM_HEAVY_ATOM_COUNT>
21

> <PUBCHEM_ATOM_DEF_STEREO_COUNT>
4

> <PUBCHEM_ATOM_UDEF_STEREO_COUNT>
0

> <PUBCHEM_BOND_DEF_STEREO_COUNT>
0

> <PUBCHEM_BOND_UDEF_STEREO_COUNT>
0

> <PUBCHEM_ISOTOPIC_ATOM_COUNT>
0

> <PUBCHEM_COMPONENT_COUNT>
1

> <PUBCHEM_CACTVS_TAUTO_COUNT>
1

> <PUBCHEM_CONFORMER_ID>
0006C51600000001

> <PUBCHEM_MMFF94_ENERGY>
67.2561

> <PUBCHEM_FEATURE_SELFOVERLAP>
56.014

> <PUBCHEM_SHAPE_FINGERPRINT>
11578080 2 17895747512743169525
12011746 2 18412545384368553237
12251169 10 18130514127356351979
12403814 3 18040720276817061069
12553582 1 18273492386455316470
12633257 1 18059311932032545891
12714826 92 17968089828710196367
13024252 1 13623822583300004013
13140716 1 18125721429280558330
13214271 11 18201440242208771137
13224815 77 18408040715267945814
13296908 3 18409727323150058466
13544653 18 18262809574181825571
13583140 156 12535343506763141966
14223421 5 18268435646200332374
14787075 74 18189902088010288362
14790565 3 17474675430045308336
15209289 33 18333737926680915154
15309172 13 17418093204458811454
15375462 478 17703800249080659779
15653759 3 18335139774099268002
16752209 62 16226034613868803659
16945 1 18342165696166131404
17357779 13 18189318217176385399
17804303 29 18341905081692297914
17844478 74 18335139803821277444
1813 80 17676774274491625997
18927931 339 18201433615871039550
19141452 34 18343024436581210547
200 152 17774425153523738085
21267235 1 18341626935410622530
21330990 113 18188498978039770267
21521721 280 8142082057895123151
23419403 2 18190728912059394677
23493267 7 18042957684200820080
23557571 272 17676480687702327156
23559900 14 18197490720129699922
2748010 2 18270665537570489508
350125 39 18411143567109734744
3759504 43 18046059355169254373
5104073 3 18271239414437456658
6786 2 16740566224052046637
83771 10 18335988639709131442
8809292 202 18409733950063297130
9709674 26 18057320592226527454

> <PUBCHEM_SHAPE_MULTIPOLES>
403.71
7.62
2.21
1.27
5.35
0.37
-0.61
-4
1.75
-0.7
0.11
-1.18
0.25
0.91

> <PUBCHEM_SHAPE_SELFOVERLAP>
914.962

> <PUBCHEM_SHAPE_VOLUME>
211

> <PUBCHEM_COORDINATE_TYPE>
2
5
10

$$$$
