441593
  -OEChem-09302005393D

 41 45  0     1  0  0  0  0  0999 V2000
   -1.9991   -1.4752    2.4093 O   0  0  0  0  0  0  0  0  0  0  0  0
   -3.3654    2.0517   -1.0507 O   0  0  0  0  0  0  0  0  0  0  0  0
    3.9380    1.5380    0.9065 O   0  0  0  0  0  0  0  0  0  0  0  0
    4.6479    0.0989   -0.8900 O   0  0  0  0  0  0  0  0  0  0  0  0
   -1.2386   -1.8380   -0.9025 N   0  0  2  0  0  0  0  0  0  0  0  0
   -0.7971   -0.1523    0.6823 C   0  0  1  0  0  0  0  0  0  0  0  0
   -1.6227   -0.4416   -0.5983 C   0  0  2  0  0  0  0  0  0  0  0  0
   -0.9253   -1.4806    1.4747 C   0  0  2  0  0  0  0  0  0  0  0  0
   -1.2268   -2.5373    0.4029 C   0  0  0  0  0  0  0  0  0  0  0  0
   -3.1364   -0.2592   -0.4028 C   0  0  0  0  0  0  0  0  0  0  0  0
    0.6789   -0.0407    0.2422 C   0  0  0  0  0  0  0  0  0  0  0  0
    0.1189   -1.8197   -1.5007 C   0  0  0  0  0  0  0  0  0  0  0  0
   -1.3376    1.0472    1.4293 C   0  0  0  0  0  0  0  0  0  0  0  0
    1.1146   -0.9042   -0.8102 C   0  0  0  0  0  0  0  0  0  0  0  0
   -3.4418    1.1683    0.0654 C   0  0  1  0  0  0  0  0  0  0  0  0
   -2.5009    1.6475    1.1322 C   0  0  0  0  0  0  0  0  0  0  0  0
    1.6112    0.8032    0.8665 C   0  0  0  0  0  0  0  0  0  0  0  0
    2.4490   -0.8944   -1.2424 C   0  0  0  0  0  0  0  0  0  0  0  0
    2.9171    0.7823    0.4151 C   0  0  0  0  0  0  0  0  0  0  0  0
    3.3238   -0.0399   -0.6084 C   0  0  0  0  0  0  0  0  0  0  0  0
   -4.2383    1.6446   -2.0937 C   0  0  0  0  0  0  0  0  0  0  0  0
    5.0307    1.1012    0.0732 C   0  0  0  0  0  0  0  0  0  0  0  0
   -1.3366    0.2225   -1.4287 H   0  0  0  0  0  0  0  0  0  0  0  0
   -0.0135   -1.7305    2.0294 H   0  0  0  0  0  0  0  0  0  0  0  0
   -0.4937   -3.3522    0.4269 H   0  0  0  0  0  0  0  0  0  0  0  0
   -2.2067   -3.0020    0.5657 H   0  0  0  0  0  0  0  0  0  0  0  0
   -3.5401   -0.9656    0.3267 H   0  0  0  0  0  0  0  0  0  0  0  0
   -3.6438   -0.5449   -1.3284 H   0  0  0  0  0  0  0  0  0  0  0  0
    0.0195   -1.4813   -2.5405 H   0  0  0  0  0  0  0  0  0  0  0  0
    0.5185   -2.8407   -1.5445 H   0  0  0  0  0  0  0  0  0  0  0  0
   -0.7734    1.4362    2.2723 H   0  0  0  0  0  0  0  0  0  0  0  0
   -4.4616    1.2030    0.4695 H   0  0  0  0  0  0  0  0  0  0  0  0
   -2.8070    2.5137    1.7127 H   0  0  0  0  0  0  0  0  0  0  0  0
    1.3437    1.4570    1.6878 H   0  0  0  0  0  0  0  0  0  0  0  0
   -2.7902   -1.0771    2.0228 H   0  0  0  0  0  0  0  0  0  0  0  0
    2.7828   -1.5386   -2.0489 H   0  0  0  0  0  0  0  0  0  0  0  0
   -4.4748    2.5337   -2.6867 H   0  0  0  0  0  0  0  0  0  0  0  0
   -5.1837    1.2368   -1.7205 H   0  0  0  0  0  0  0  0  0  0  0  0
   -3.7376    0.9455   -2.7698 H   0  0  0  0  0  0  0  0  0  0  0  0
    5.8182    0.6891    0.7145 H   0  0  0  0  0  0  0  0  0  0  0  0
    5.4317    1.9688   -0.4633 H   0  0  0  0  0  0  0  0  0  0  0  0
  1  8  1  0  0  0  0
  1 35  1  0  0  0  0
  2 15  1  0  0  0  0
  2 21  1  0  0  0  0
  3 19  1  0  0  0  0
  3 22  1  0  0  0  0
  4 20  1  0  0  0  0
  4 22  1  0  0  0  0
  5  7  1  0  0  0  0
  5  9  1  0  0  0  0
  5 12  1  0  0  0  0
  6  7  1  0  0  0  0
  6  8  1  0  0  0  0
  6 11  1  0  0  0  0
  6 13  1  0  0  0  0
  7 10  1  0  0  0  0
  7 23  1  0  0  0  0
  8  9  1  0  0  0  0
  8 24  1  0  0  0  0
  9 25  1  0  0  0  0
  9 26  1  0  0  0  0
 10 15  1  0  0  0  0
 10 27  1  0  0  0  0
 10 28  1  0  0  0  0
 11 14  1  0  0  0  0
 11 17  2  0  0  0  0
 12 14  1  0  0  0  0
 12 29  1  0  0  0  0
 12 30  1  0  0  0  0
 13 16  2  0  0  0  0
 13 31  1  0  0  0  0
 14 18  2  0  0  0  0
 15 16  1  0  0  0  0
 15 32  1  0  0  0  0
 16 33  1  0  0  0  0
 17 19  1  0  0  0  0
 17 34  1  0  0  0  0
 18 20  1  0  0  0  0
 18 36  1  0  0  0  0
 19 20  2  0  0  0  0
 21 37  1  0  0  0  0
 21 38  1  0  0  0  0
 21 39  1  0  0  0  0
 22 40  1  0  0  0  0
 22 41  1  0  0  0  0
M  END
> <PUBCHEM_COMPOUND_CID>
441593

> <PUBCHEM_CONFORMER_RMSD>
0.6

> <PUBCHEM_CONFORMER_DIVERSEORDER>
1

> <PUBCHEM_MMFF94_PARTIAL_CHARGES>
26
1 -0.68
11 -0.14
12 0.41
13 -0.29
14 -0.14
15 0.42
16 -0.29
17 -0.15
18 -0.15
19 0.08
2 -0.56
20 0.08
21 0.28
22 0.56
3 -0.36
31 0.15
33 0.15
34 0.15
35 0.4
36 0.15
4 -0.36
5 -0.81
6 0.28
7 0.27
8 0.28
9 0.27

> <PUBCHEM_EFFECTIVE_ROTOR_COUNT>
2.6

> <PUBCHEM_PHARMACOPHORE_FEATURES>
10
1 1 acceptor
1 1 donor
1 2 acceptor
1 3 acceptor
1 4 acceptor
1 5 cation
5 3 4 19 20 22 rings
6 11 14 17 18 19 20 rings
6 6 7 10 13 15 16 rings
8 5 6 7 8 9 11 12 14 rings

> <PUBCHEM_HEAVY_ATOM_COUNT>
22

> <PUBCHEM_ATOM_DEF_STEREO_COUNT>
4

> <PUBCHEM_ATOM_UDEF_STEREO_COUNT>
0

> <PUBCHEM_BOND_DEF_STEREO_COUNT>
0

> <PUBCHEM_BOND_UDEF_STEREO_COUNT>
0

> <PUBCHEM_ISOTOPIC_ATOM_COUNT>
0

> <PUBCHEM_COMPONENT_COUNT>
1

> <PUBCHEM_CACTVS_TAUTO_COUNT>
1

> <PUBCHEM_CONFORMER_ID>
0006BCF900000001

> <PUBCHEM_MMFF94_ENERGY>
78.814

> <PUBCHEM_FEATURE_SELFOVERLAP>
50.939

> <PUBCHEM_SHAPE_FINGERPRINT>
10498660 4 18336537223314017637
10863032 1 18341611477844312735
10948715 1 18187641358579955243
11552529 35 14563397144839120128
11725454 13 18261663779775321885
11961588 58 18267847514642638668
12077114 3 18410015459293939106
12251169 10 13118291355973904949
12403259 415 18262248707208311037
12403814 3 17985841542566976834
12670546 177 17060611196559798645
12788726 201 16373291179669402907
12892183 10 14996571646550296069
13103583 49 10809917194016495637
13583140 156 18186523232653615776
14178342 30 17386011710398245410
15061688 2 17968370139988335301
15163728 17 17824262588322465341
15209294 21 15864070948897844700
16945 1 17916885576637032258
17093844 174 18410289255734372432
17349148 13 17131832011231484022
173720 79 18116126957645718321
17492 54 17988346114518234045
18186145 218 18340493248743545701
18219364 16 18059311919031404258
192875 21 17702374049186870126
19862831 5 16415481527991174232
200 152 15698000747224804796
20645477 70 17846789485984619230
21033648 29 17967817093850060732
212916 134 17749380451622373001
21637258 2 12607108635135106005
22182313 1 18129963246308544334
22907989 373 18199198471143975837
2306618 200 17488753396590745914
23227448 37 18115589390701629357
23402539 116 17561363959004284904
23493267 7 18410011065621731346
23559900 14 17918277541837096270
238 59 17774714281900321268
25 1 18129385912393311573
2748010 2 17916606313647483574
2838139 119 17969481746165396357
4028521 119 18341609304459050637
4175511 318 18408326604901532428
5895379 119 16830350093208893957
633830 44 18057051207297814113
7097593 13 12541570028146915317
9709674 26 17703519839277067638
9981440 41 18272365369556803690

> <PUBCHEM_SHAPE_MULTIPOLES>
424.29
7.73
2.2
1.73
6.11
0.57
-0.15
-5.05
2.6
-1.17
-0.02
-1.53
0.12
1.36

> <PUBCHEM_SHAPE_SELFOVERLAP>
954.81

> <PUBCHEM_SHAPE_VOLUME>
223.3

> <PUBCHEM_COORDINATE_TYPE>
2
5
10

$$$$
