44195367
  -OEChem-09302007053D

 40 43  0     1  0  0  0  0  0999 V2000
   -4.8282   -1.3184    1.3634 O   0  0  0  0  0  0  0  0  0  0  0  0
    3.3194   -2.0071   -0.6230 O   0  0  0  0  0  0  0  0  0  0  0  0
    4.3096    0.3809    0.3849 O   0  0  0  0  0  0  0  0  0  0  0  0
   -1.6120    2.0770    0.1045 N   0  0  2  0  0  0  0  0  0  0  0  0
   -1.3021   -0.1555   -0.5628 C   0  0  1  0  0  0  0  0  0  0  0  0
   -2.0006    0.7073    0.5134 C   0  0  2  0  0  0  0  0  0  0  0  0
   -1.5894    0.6445   -1.8490 C   0  0  0  0  0  0  0  0  0  0  0  0
   -1.7386    2.0932   -1.3715 C   0  0  0  0  0  0  0  0  0  0  0  0
    0.2138   -0.0830   -0.2968 C   0  0  0  0  0  0  0  0  0  0  0  0
   -0.2007    2.2922    0.5079 C   0  0  0  0  0  0  0  0  0  0  0  0
   -3.5190    0.5246    0.5583 C   0  0  0  0  0  0  0  0  0  0  0  0
   -1.8908   -1.5445   -0.6219 C   0  0  0  0  0  0  0  0  0  0  0  0
    0.7342    1.1392    0.1950 C   0  0  0  0  0  0  0  0  0  0  0  0
   -3.8529   -0.9400    0.7184 C   0  0  0  0  0  0  0  0  0  0  0  0
   -3.0205   -1.9261   -0.0120 C   0  0  0  0  0  0  0  0  0  0  0  0
    1.1070   -1.1265   -0.5769 C   0  0  0  0  0  0  0  0  0  0  0  0
    2.1081    1.2816    0.4266 C   0  0  0  0  0  0  0  0  0  0  0  0
    2.4764   -0.9722   -0.3460 C   0  0  0  0  0  0  0  0  0  0  0  0
    2.9756    0.2267    0.1567 C   0  0  0  0  0  0  0  0  0  0  0  0
    3.5734   -2.9342    0.4303 C   0  0  0  0  0  0  0  0  0  0  0  0
    4.7374    1.6402    0.9005 C   0  0  0  0  0  0  0  0  0  0  0  0
   -1.6266    0.4749    1.5230 H   0  0  0  0  0  0  0  0  0  0  0  0
   -2.5244    0.3239   -2.3260 H   0  0  0  0  0  0  0  0  0  0  0  0
   -0.7918    0.5502   -2.5956 H   0  0  0  0  0  0  0  0  0  0  0  0
   -1.0161    2.7604   -1.8557 H   0  0  0  0  0  0  0  0  0  0  0  0
   -2.7324    2.4696   -1.6415 H   0  0  0  0  0  0  0  0  0  0  0  0
   -0.1835    2.4550    1.5935 H   0  0  0  0  0  0  0  0  0  0  0  0
    0.1764    3.2150    0.0493 H   0  0  0  0  0  0  0  0  0  0  0  0
   -4.0258    0.8834   -0.3442 H   0  0  0  0  0  0  0  0  0  0  0  0
   -3.9283    1.0758    1.4130 H   0  0  0  0  0  0  0  0  0  0  0  0
   -1.3798   -2.2971   -1.2164 H   0  0  0  0  0  0  0  0  0  0  0  0
   -3.3819   -2.9457   -0.0784 H   0  0  0  0  0  0  0  0  0  0  0  0
    0.7591   -2.0701   -0.9857 H   0  0  0  0  0  0  0  0  0  0  0  0
    2.4337    2.2400    0.8172 H   0  0  0  0  0  0  0  0  0  0  0  0
    4.2659   -3.6942    0.0582 H   0  0  0  0  0  0  0  0  0  0  0  0
    2.6460   -3.4269    0.7392 H   0  0  0  0  0  0  0  0  0  0  0  0
    4.0340   -2.4299    1.2856 H   0  0  0  0  0  0  0  0  0  0  0  0
    5.8244    1.5853    1.0225 H   0  0  0  0  0  0  0  0  0  0  0  0
    4.3163    1.8345    1.8929 H   0  0  0  0  0  0  0  0  0  0  0  0
    4.5382    2.4542    0.1951 H   0  0  0  0  0  0  0  0  0  0  0  0
  1 14  2  0  0  0  0
  2 18  1  0  0  0  0
  2 20  1  0  0  0  0
  3 19  1  0  0  0  0
  3 21  1  0  0  0  0
  4  6  1  0  0  0  0
  4  8  1  0  0  0  0
  4 10  1  0  0  0  0
  5  6  1  0  0  0  0
  5  7  1  0  0  0  0
  5  9  1  0  0  0  0
  5 12  1  0  0  0  0
  6 11  1  0  0  0  0
  6 22  1  0  0  0  0
  7  8  1  0  0  0  0
  7 23  1  0  0  0  0
  7 24  1  0  0  0  0
  8 25  1  0  0  0  0
  8 26  1  0  0  0  0
  9 13  1  0  0  0  0
  9 16  2  0  0  0  0
 10 13  1  0  0  0  0
 10 27  1  0  0  0  0
 10 28  1  0  0  0  0
 11 14  1  0  0  0  0
 11 29  1  0  0  0  0
 11 30  1  0  0  0  0
 12 15  2  0  0  0  0
 12 31  1  0  0  0  0
 13 17  2  0  0  0  0
 14 15  1  0  0  0  0
 15 32  1  0  0  0  0
 16 18  1  0  0  0  0
 16 33  1  0  0  0  0
 17 19  1  0  0  0  0
 17 34  1  0  0  0  0
 18 19  2  0  0  0  0
 20 35  1  0  0  0  0
 20 36  1  0  0  0  0
 20 37  1  0  0  0  0
 21 38  1  0  0  0  0
 21 39  1  0  0  0  0
 21 40  1  0  0  0  0
M  END
> <PUBCHEM_COMPOUND_CID>
44195367

> <PUBCHEM_CONFORMER_RMSD>
0.6

> <PUBCHEM_CONFORMER_DIVERSEORDER>
1
2

> <PUBCHEM_MMFF94_PARTIAL_CHARGES>
24
1 -0.57
10 0.41
11 0.06
12 -0.29
13 -0.14
14 0.49
15 -0.14
16 -0.15
17 -0.15
18 0.08
19 0.08
2 -0.36
20 0.28
21 0.28
3 -0.36
31 0.15
32 0.15
33 0.15
34 0.15
4 -0.81
5 0.28
6 0.27
8 0.27
9 -0.14

> <PUBCHEM_EFFECTIVE_ROTOR_COUNT>
2.8

> <PUBCHEM_PHARMACOPHORE_FEATURES>
7
1 1 acceptor
1 2 acceptor
1 3 acceptor
1 4 cation
6 5 6 11 12 14 15 rings
6 9 13 16 17 18 19 rings
8 4 5 6 7 8 9 10 13 rings

> <PUBCHEM_HEAVY_ATOM_COUNT>
21

> <PUBCHEM_ATOM_DEF_STEREO_COUNT>
2

> <PUBCHEM_ATOM_UDEF_STEREO_COUNT>
0

> <PUBCHEM_BOND_DEF_STEREO_COUNT>
0

> <PUBCHEM_BOND_UDEF_STEREO_COUNT>
0

> <PUBCHEM_ISOTOPIC_ATOM_COUNT>
0

> <PUBCHEM_COMPONENT_COUNT>
1

> <PUBCHEM_CACTVS_TAUTO_COUNT>
2

> <PUBCHEM_CONFORMER_ID>
02A25E2700000001

> <PUBCHEM_MMFF94_ENERGY>
84.6962

> <PUBCHEM_FEATURE_SELFOVERLAP>
35.565

> <PUBCHEM_SHAPE_FINGERPRINT>
1100329 8 15962594539736005483
11132069 177 18340770433053143753
11315181 36 12757141382238948908
11578080 2 17678162812081370188
11796584 16 17168424978191080731
12251169 10 18201163260131673627
12403814 3 18187922923761658781
12553582 1 18339358681529370230
12633257 1 18056493763513546243
12714826 92 17968093110291953653
12892183 10 18201451297881716521
13140716 1 18196935474598105760
13214271 11 18272647978320282701
13224815 77 18272359863598081628
13296908 3 18336542703718121486
13544653 18 18335987549241313591
14223421 5 18410852136161097820
14289901 80 18040724632225129012
14787075 74 18190180268483390792
14790565 3 17908430495370793520
15196674 1 18341615893207622179
15219456 202 18412259506596807076
15375462 189 18060697308088093672
16945 1 18199472245782245189
17349148 13 13695858221486207208
17357779 13 18262780978626880599
17804303 29 18268441147942669023
17844478 74 18407760343702405821
1813 80 17603875532773523653
200 152 17917134105161962085
20600515 1 17023188283484645613
20681677 274 18337107848384279890
21267235 1 18341344373680435822
21421861 104 18334009463308953450
21637258 2 16443624739812432275
221490 88 18339925901376849666
22182313 1 18411975832813177452
2334 1 18342167861082681022
23402539 116 17022891380632284989
23557571 272 17749382659357116692
23559900 14 18266170639747080450
2748010 2 18342166722726463116
2838139 119 13181348228111477531
34934 24 18342733035596909951
350125 39 18410581643679786638
5104073 3 18341052912899208811
74978 22 18193829341491408558
9709674 26 18127967504002863670

> <PUBCHEM_SHAPE_MULTIPOLES>
409.58
8.01
2.7
1.14
3.04
0.6
0.27
2.51
-2.94
1.07
-0.09
-0.73
-0.18
1.04

> <PUBCHEM_SHAPE_SELFOVERLAP>
904.409

> <PUBCHEM_SHAPE_VOLUME>
222.2

> <PUBCHEM_COORDINATE_TYPE>
2
5
10

$$$$
