11185307
  -OEChem-09302005433D

 42 45  0     1  0  0  0  0  0999 V2000
   -3.8202   -1.6524    1.7910 O   0  0  0  0  0  0  0  0  0  0  0  0
    3.3491   -1.7847   -0.5962 O   0  0  0  0  0  0  0  0  0  0  0  0
    4.1791    0.4887    0.7608 O   0  0  0  0  0  0  0  0  0  0  0  0
   -1.7770    2.0275    0.2863 N   0  0  2  0  0  0  0  0  0  0  0  0
   -1.3283   -0.0867   -0.6428 C   0  0  1  0  0  0  0  0  0  0  0  0
   -2.1282    0.6030    0.4910 C   0  0  2  0  0  0  0  0  0  0  0  0
   -1.5608    0.8719   -1.8296 C   0  0  0  0  0  0  0  0  0  0  0  0
   -1.8195    2.2340   -1.1788 C   0  0  0  0  0  0  0  0  0  0  0  0
   -3.6410    0.3384    0.4073 C   0  0  0  0  0  0  0  0  0  0  0  0
    0.1604   -0.0050   -0.2632 C   0  0  0  0  0  0  0  0  0  0  0  0
   -0.3997    2.2364    0.7999 C   0  0  0  0  0  0  0  0  0  0  0  0
   -1.8578   -1.4689   -0.9443 C   0  0  0  0  0  0  0  0  0  0  0  0
    0.5987    1.1613    0.4111 C   0  0  0  0  0  0  0  0  0  0  0  0
   -3.9190   -1.1685    0.4548 C   0  0  1  0  0  0  0  0  0  0  0  0
   -2.9968   -1.9569   -0.4291 C   0  0  0  0  0  0  0  0  0  0  0  0
    1.1076   -0.9807   -0.6023 C   0  0  0  0  0  0  0  0  0  0  0  0
    1.9477    1.3137    0.7551 C   0  0  0  0  0  0  0  0  0  0  0  0
    2.4514   -0.8163   -0.2572 C   0  0  0  0  0  0  0  0  0  0  0  0
    2.8702    0.3256    0.4210 C   0  0  0  0  0  0  0  0  0  0  0  0
    3.5663   -2.8266    0.3524 C   0  0  0  0  0  0  0  0  0  0  0  0
    5.0179    1.1462   -0.1872 C   0  0  0  0  0  0  0  0  0  0  0  0
   -1.8051    0.2642    1.4875 H   0  0  0  0  0  0  0  0  0  0  0  0
   -2.4393    0.5827   -2.4206 H   0  0  0  0  0  0  0  0  0  0  0  0
   -0.7058    0.9133   -2.5150 H   0  0  0  0  0  0  0  0  0  0  0  0
   -1.1107    2.9951   -1.5251 H   0  0  0  0  0  0  0  0  0  0  0  0
   -2.8164    2.5934   -1.4603 H   0  0  0  0  0  0  0  0  0  0  0  0
   -4.0612    0.7459   -0.5203 H   0  0  0  0  0  0  0  0  0  0  0  0
   -4.1447    0.8478    1.2380 H   0  0  0  0  0  0  0  0  0  0  0  0
   -0.4532    2.2642    1.8962 H   0  0  0  0  0  0  0  0  0  0  0  0
   -0.0322    3.2202    0.4821 H   0  0  0  0  0  0  0  0  0  0  0  0
   -1.3062   -2.1028   -1.6330 H   0  0  0  0  0  0  0  0  0  0  0  0
   -4.9502   -1.3430    0.1259 H   0  0  0  0  0  0  0  0  0  0  0  0
   -3.2978   -2.9691   -0.6861 H   0  0  0  0  0  0  0  0  0  0  0  0
    0.8215   -1.8768   -1.1444 H   0  0  0  0  0  0  0  0  0  0  0  0
    2.2758    2.2046    1.2853 H   0  0  0  0  0  0  0  0  0  0  0  0
   -4.4583   -1.1560    2.3314 H   0  0  0  0  0  0  0  0  0  0  0  0
    2.6390   -3.3795    0.5339 H   0  0  0  0  0  0  0  0  0  0  0  0
    3.9506   -2.4185    1.2926 H   0  0  0  0  0  0  0  0  0  0  0  0
    4.3092   -3.5153   -0.0590 H   0  0  0  0  0  0  0  0  0  0  0  0
    4.6659    2.1669   -0.3673 H   0  0  0  0  0  0  0  0  0  0  0  0
    5.0484    0.5874   -1.1278 H   0  0  0  0  0  0  0  0  0  0  0  0
    6.0297    1.1926    0.2248 H   0  0  0  0  0  0  0  0  0  0  0  0
  1 14  1  0  0  0  0
  1 36  1  0  0  0  0
  2 18  1  0  0  0  0
  2 20  1  0  0  0  0
  3 19  1  0  0  0  0
  3 21  1  0  0  0  0
  4  6  1  0  0  0  0
  4  8  1  0  0  0  0
  4 11  1  0  0  0  0
  5  6  1  0  0  0  0
  5  7  1  0  0  0  0
  5 10  1  0  0  0  0
  5 12  1  0  0  0  0
  6  9  1  0  0  0  0
  6 22  1  0  0  0  0
  7  8  1  0  0  0  0
  7 23  1  0  0  0  0
  7 24  1  0  0  0  0
  8 25  1  0  0  0  0
  8 26  1  0  0  0  0
  9 14  1  0  0  0  0
  9 27  1  0  0  0  0
  9 28  1  0  0  0  0
 10 13  1  0  0  0  0
 10 16  2  0  0  0  0
 11 13  1  0  0  0  0
 11 29  1  0  0  0  0
 11 30  1  0  0  0  0
 12 15  2  0  0  0  0
 12 31  1  0  0  0  0
 13 17  2  0  0  0  0
 14 15  1  0  0  0  0
 14 32  1  0  0  0  0
 15 33  1  0  0  0  0
 16 18  1  0  0  0  0
 16 34  1  0  0  0  0
 17 19  1  0  0  0  0
 17 35  1  0  0  0  0
 18 19  2  0  0  0  0
 20 37  1  0  0  0  0
 20 38  1  0  0  0  0
 20 39  1  0  0  0  0
 21 40  1  0  0  0  0
 21 41  1  0  0  0  0
 21 42  1  0  0  0  0
M  END
> <PUBCHEM_COMPOUND_CID>
11185307

> <PUBCHEM_CONFORMER_RMSD>
0.6

> <PUBCHEM_CONFORMER_DIVERSEORDER>
1
2

> <PUBCHEM_MMFF94_PARTIAL_CHARGES>
24
1 -0.68
10 -0.14
11 0.41
12 -0.29
13 -0.14
14 0.42
15 -0.29
16 -0.15
17 -0.15
18 0.08
19 0.08
2 -0.36
20 0.28
21 0.28
3 -0.36
31 0.15
33 0.15
34 0.15
35 0.15
36 0.4
4 -0.81
5 0.28
6 0.27
8 0.27

> <PUBCHEM_EFFECTIVE_ROTOR_COUNT>
3

> <PUBCHEM_PHARMACOPHORE_FEATURES>
8
1 1 acceptor
1 1 donor
1 2 acceptor
1 3 acceptor
1 4 cation
6 10 13 16 17 18 19 rings
6 5 6 9 12 14 15 rings
8 4 5 6 7 8 10 11 13 rings

> <PUBCHEM_HEAVY_ATOM_COUNT>
21

> <PUBCHEM_ATOM_DEF_STEREO_COUNT>
3

> <PUBCHEM_ATOM_UDEF_STEREO_COUNT>
0

> <PUBCHEM_BOND_DEF_STEREO_COUNT>
0

> <PUBCHEM_BOND_UDEF_STEREO_COUNT>
0

> <PUBCHEM_ISOTOPIC_ATOM_COUNT>
0

> <PUBCHEM_COMPONENT_COUNT>
1

> <PUBCHEM_CACTVS_TAUTO_COUNT>
1

> <PUBCHEM_CONFORMER_ID>
00AAAC9B00000001

> <PUBCHEM_MMFF94_ENERGY>
84.2024

> <PUBCHEM_FEATURE_SELFOVERLAP>
40.638

> <PUBCHEM_SHAPE_FINGERPRINT>
10366900 7 18339918345991280058
1100329 8 15964568171729485483
11132069 177 18201435925766534731
11315181 36 13262390064951407596
11405975 8 18191020106435890952
11552529 35 17131268107479292967
11578080 2 17896026651594878524
11725454 13 12463028588407390483
12011746 2 18201998850525321317
12251169 10 18059580251640161131
12403814 3 18333446560473441453
12553582 1 18270389620049143454
12633257 1 17988093183851974387
12714826 92 18187079542587441085
13140716 1 18198902501026875562
13224815 77 18411976953889169230
13296908 3 18339074887565757662
13544653 18 18408889572409388719
14223421 5 18411131429167854024
14289901 80 18334858303502031032
14787075 74 18263363758170045834
14790565 3 17982174718839374344
15196674 1 18342739589674942035
15375462 189 18272369806215419362
16945 1 18200018663863296717
17349148 13 12396287180276468196
17357779 13 18193815224113138389
17492 89 18337669707511499114
17844478 74 18409728478095490365
1813 80 17749116620777321173
19591789 44 17909826875279818132
200 152 17703212001928172773
21267235 1 18200038476716186255
221490 88 18339365159005093458
2334 1 18271795818359551670
23402539 116 17385434453650063860
23557571 272 17894903031793553636
23559900 14 18196081150195890634
2748010 2 18272077263034198924
2838139 119 12821905795211641115
352729 6 17841431432135232480
5104073 3 18342739563979011690
74978 22 18194391191906802342
8809292 202 18339081467102415623
9709674 26 17984981497141469766

> <PUBCHEM_SHAPE_MULTIPOLES>
409.58
7.84
2.62
1.2
5.24
0.52
0.12
2.58
-1.48
0.24
-0.09
-0.85
-0.08
0.65

> <PUBCHEM_SHAPE_SELFOVERLAP>
898.537

> <PUBCHEM_SHAPE_VOLUME>
223.6

> <PUBCHEM_COORDINATE_TYPE>
2
5
10

$$$$
