5321780
  -OEChem-09302005393D

 45 49  0     1  0  0  0  0  0999 V2000
    0.4389   -2.7985    0.4504 O   0  0  0  0  0  0  0  0  0  0  0  0
    0.9832   -2.5389   -1.8349 O   0  0  0  0  0  0  0  0  0  0  0  0
    2.4577    3.3175   -0.4007 O   0  0  0  0  0  0  0  0  0  0  0  0
   -3.4441    2.1870   -0.0828 O   0  0  0  0  0  0  0  0  0  0  0  0
   -4.7992    0.2633    0.4321 O   0  0  0  0  0  0  0  0  0  0  0  0
    2.8263   -0.8910    0.7737 N   0  0  2  0  0  0  0  0  0  0  0  0
    0.7536   -0.5167   -0.4137 C   0  0  1  0  0  0  0  0  0  0  0  0
    1.5670   -0.1160    0.8562 C   0  0  2  0  0  0  0  0  0  0  0  0
    1.1476   -2.0172   -0.5215 C   0  0  1  0  0  0  0  0  0  0  0  0
    2.6203   -2.0460   -0.1087 C   0  0  0  0  0  0  0  0  0  0  0  0
    1.8800    1.3849    0.9147 C   0  0  0  0  0  0  0  0  0  0  0  0
   -0.7533   -0.3405   -0.1830 C   0  0  0  0  0  0  0  0  0  0  0  0
    1.2070    0.2597   -1.6484 C   0  0  0  0  0  0  0  0  0  0  0  0
    2.5824    1.8985   -0.3481 C   0  0  1  0  0  0  0  0  0  0  0  0
   -1.5608   -1.4625    0.1374 C   0  0  0  0  0  0  0  0  0  0  0  0
    2.0233    1.3233   -1.6132 C   0  0  0  0  0  0  0  0  0  0  0  0
   -0.9624   -2.8376    0.2115 C   0  0  0  0  0  0  0  0  0  0  0  0
    3.3333   -1.2763    2.0852 C   0  0  0  0  0  0  0  0  0  0  0  0
   -1.3589    0.9302   -0.2618 C   0  0  0  0  0  0  0  0  0  0  0  0
   -2.9438   -1.3183    0.3462 C   0  0  0  0  0  0  0  0  0  0  0  0
   -2.7172    1.0370   -0.0394 C   0  0  0  0  0  0  0  0  0  0  0  0
   -3.4891   -0.0573    0.2548 C   0  0  0  0  0  0  0  0  0  0  0  0
    2.9717    3.9261    0.7743 C   0  0  0  0  0  0  0  0  0  0  0  0
   -4.7633    1.6893    0.2198 C   0  0  0  0  0  0  0  0  0  0  0  0
    1.0061   -0.4013    1.7582 H   0  0  0  0  0  0  0  0  0  0  0  0
    2.8833   -3.0007    0.3639 H   0  0  0  0  0  0  0  0  0  0  0  0
    3.2746   -1.9295   -0.9810 H   0  0  0  0  0  0  0  0  0  0  0  0
    2.5001    1.5851    1.7979 H   0  0  0  0  0  0  0  0  0  0  0  0
    0.9508    1.9420    1.0873 H   0  0  0  0  0  0  0  0  0  0  0  0
    0.8399   -0.0708   -2.6175 H   0  0  0  0  0  0  0  0  0  0  0  0
    3.6506    1.6469   -0.3171 H   0  0  0  0  0  0  0  0  0  0  0  0
    2.3068    1.7947   -2.5506 H   0  0  0  0  0  0  0  0  0  0  0  0
   -1.4074   -3.3937    1.0437 H   0  0  0  0  0  0  0  0  0  0  0  0
   -1.1677   -3.3923   -0.7113 H   0  0  0  0  0  0  0  0  0  0  0  0
    2.6397   -1.9366    2.6181 H   0  0  0  0  0  0  0  0  0  0  0  0
    4.2934   -1.7946    1.9853 H   0  0  0  0  0  0  0  0  0  0  0  0
    3.5163   -0.3946    2.7082 H   0  0  0  0  0  0  0  0  0  0  0  0
    1.6218   -3.2619   -1.9535 H   0  0  0  0  0  0  0  0  0  0  0  0
   -0.7864    1.8212   -0.4963 H   0  0  0  0  0  0  0  0  0  0  0  0
   -3.5675   -2.1765    0.5752 H   0  0  0  0  0  0  0  0  0  0  0  0
    3.9441    3.5097    1.0572 H   0  0  0  0  0  0  0  0  0  0  0  0
    2.2606    3.8585    1.6024 H   0  0  0  0  0  0  0  0  0  0  0  0
    3.1134    4.9901    0.5608 H   0  0  0  0  0  0  0  0  0  0  0  0
   -5.1280    2.1884    1.1249 H   0  0  0  0  0  0  0  0  0  0  0  0
   -5.4316    1.9372   -0.6128 H   0  0  0  0  0  0  0  0  0  0  0  0
  1  9  1  0  0  0  0
  1 17  1  0  0  0  0
  2  9  1  0  0  0  0
  2 38  1  0  0  0  0
  3 14  1  0  0  0  0
  3 23  1  0  0  0  0
  4 21  1  0  0  0  0
  4 24  1  0  0  0  0
  5 22  1  0  0  0  0
  5 24  1  0  0  0  0
  6  8  1  0  0  0  0
  6 10  1  0  0  0  0
  6 18  1  0  0  0  0
  7  8  1  0  0  0  0
  7  9  1  0  0  0  0
  7 12  1  0  0  0  0
  7 13  1  0  0  0  0
  8 11  1  0  0  0  0
  8 25  1  0  0  0  0
  9 10  1  0  0  0  0
 10 26  1  0  0  0  0
 10 27  1  0  0  0  0
 11 14  1  0  0  0  0
 11 28  1  0  0  0  0
 11 29  1  0  0  0  0
 12 15  1  0  0  0  0
 12 19  2  0  0  0  0
 13 16  2  0  0  0  0
 13 30  1  0  0  0  0
 14 16  1  0  0  0  0
 14 31  1  0  0  0  0
 15 17  1  0  0  0  0
 15 20  2  0  0  0  0
 16 32  1  0  0  0  0
 17 33  1  0  0  0  0
 17 34  1  0  0  0  0
 18 35  1  0  0  0  0
 18 36  1  0  0  0  0
 18 37  1  0  0  0  0
 19 21  1  0  0  0  0
 19 39  1  0  0  0  0
 20 22  1  0  0  0  0
 20 40  1  0  0  0  0
 21 22  2  0  0  0  0
 23 41  1  0  0  0  0
 23 42  1  0  0  0  0
 23 43  1  0  0  0  0
 24 44  1  0  0  0  0
 24 45  1  0  0  0  0
M  END
> <PUBCHEM_COMPOUND_CID>
5321780

> <PUBCHEM_CONFORMER_RMSD>
0.6

> <PUBCHEM_CONFORMER_DIVERSEORDER>
1
3
2

> <PUBCHEM_MMFF94_PARTIAL_CHARGES>
28
1 -0.56
10 0.27
12 -0.14
13 -0.29
14 0.42
15 -0.14
16 -0.29
17 0.42
18 0.27
19 -0.15
2 -0.68
20 -0.15
21 0.08
22 0.08
23 0.28
24 0.56
3 -0.56
30 0.15
32 0.15
38 0.4
39 0.15
4 -0.36
40 0.15
5 -0.36
6 -0.81
7 0.28
8 0.27
9 0.56

> <PUBCHEM_EFFECTIVE_ROTOR_COUNT>
2.8

> <PUBCHEM_PHARMACOPHORE_FEATURES>
12
1 1 acceptor
1 2 acceptor
1 2 donor
1 3 acceptor
1 4 acceptor
1 5 acceptor
1 6 cation
5 4 5 21 22 24 rings
5 6 7 8 9 10 rings
6 1 7 9 12 15 17 rings
6 12 15 19 20 21 22 rings
6 7 8 11 13 14 16 rings

> <PUBCHEM_HEAVY_ATOM_COUNT>
24

> <PUBCHEM_ATOM_DEF_STEREO_COUNT>
4

> <PUBCHEM_ATOM_UDEF_STEREO_COUNT>
0

> <PUBCHEM_BOND_DEF_STEREO_COUNT>
0

> <PUBCHEM_BOND_UDEF_STEREO_COUNT>
0

> <PUBCHEM_ISOTOPIC_ATOM_COUNT>
0

> <PUBCHEM_COMPONENT_COUNT>
1

> <PUBCHEM_CACTVS_TAUTO_COUNT>
1

> <PUBCHEM_CONFORMER_ID>
0051343400000001

> <PUBCHEM_MMFF94_ENERGY>
73.7876

> <PUBCHEM_FEATURE_SELFOVERLAP>
61.566

> <PUBCHEM_SHAPE_FINGERPRINT>
10006869 2 17907287007509342987
10863032 1 18262237853599211122
10871710 139 17474952502763949149
10948715 1 18196376042243985732
11725454 13 16914243268568337288
12173636 292 17907858749212950340
12403259 226 18116714002597830789
12403260 363 18339626902717215643
12422481 6 18044906109806901896
12633257 1 18262507105109339235
12788726 201 17832438492773781702
13134695 92 18123744262317711574
13140716 1 18334294275480267555
13224815 77 18410579500570071191
13965767 371 18114453539477011037
14142880 1 17758945313773572308
14178342 30 17898853723095421320
14223421 5 18264498441174433851
14466204 15 18119238463624861585
14955137 171 18410012096777846578
1601671 61 18410856517381200086
16945 1 18337094701415806346
17093844 170 17037809249576896436
17349148 13 18262502746408837975
17980427 23 18198317655071768110
1813 80 15938384616770016314
20510252 161 17837503212012066721
20691752 17 17095244743556605991
20715895 44 18119517749034005197
21033648 29 17557680513451839835
21501502 16 18338792424583259499
21756936 100 17840015575161346256
22149856 69 18201169789447666091
2334 1 18335710485122033095
23419403 2 17679273352995459316
23558518 356 17829610909400970124
23559900 14 18343027653115595855
2748010 2 18262255377582866959
345986 75 16882706740804902890
350125 39 18335989747768463087
394222 165 18263643034134460280
469060 322 17397564467944087899
474 4 18412540986142772177
5104073 3 18261684718579712545
5895379 119 17701272329735414641
5939293 188 18338231562068054248
6443956 14 18050289171815567157
7097593 13 18114445787140085522
7364860 26 18411707555996511260
7808743 9 17906456880472845128
9709674 26 18411705344690246943
9981440 41 18121776389859382600

> <PUBCHEM_SHAPE_MULTIPOLES>
459.58
6.85
3.81
1.31
7.37
1.41
0.13
4.14
-1.87
-2.69
-0.17
-1.33
-0.26
-0.16

> <PUBCHEM_SHAPE_SELFOVERLAP>
1026.502

> <PUBCHEM_SHAPE_VOLUME>
241.4

> <PUBCHEM_COORDINATE_TYPE>
2
5
10

$$$$
