398556
  -OEChem-09302007032D

 74 78  0     1  0  0  0  0  0999 V2000
    7.7331    1.2126    0.0000 O   0  0  0  0  0  0  0  0  0  0  0  0
   11.3075    3.3318    0.0000 O   0  0  0  0  0  0  0  0  0  0  0  0
    9.5485    0.1738    0.0000 O   0  0  0  0  0  0  0  0  0  0  0  0
   11.3478    1.2405    0.0000 O   0  0  0  0  0  0  0  0  0  0  0  0
    8.5326    5.8661    0.0000 O   0  0  0  0  0  0  0  0  0  0  0  0
    5.0273    2.9586    0.0000 O   0  0  0  0  0  0  0  0  0  0  0  0
    4.9963    4.5678    0.0000 O   0  0  0  0  0  0  0  0  0  0  0  0
    6.7852    5.7978    0.0000 O   0  0  0  0  0  0  0  0  0  0  0  0
    4.2690   -2.7874    0.0000 O   0  0  0  0  0  0  0  0  0  0  0  0
    6.0010   -2.7874    0.0000 O   0  0  0  0  0  0  0  0  0  0  0  0
    4.2690   -5.7874    0.0000 O   0  0  0  0  0  0  0  0  0  0  0  0
    6.0010   -4.7874    0.0000 O   0  0  0  0  0  0  0  0  0  0  0  0
    2.5369   -4.7874    0.0000 O   0  0  0  0  0  0  0  0  0  0  0  0
    6.0010    0.2126    0.0000 O   0  0  0  0  0  0  0  0  0  0  0  0
    2.5369   -1.7874    0.0000 O   0  0  0  0  0  0  0  0  0  0  0  0
    9.4792    4.3703    0.0000 N   0  0  0  0  0  0  0  0  0  0  0  0
    8.6033    2.7976    0.0000 C   0  0  2  0  0  0  0  0  0  0  0  0
    9.4993    3.3288    0.0000 C   0  0  2  0  0  0  0  0  0  0  0  0
    8.5991    1.7126    0.0000 C   0  0  2  0  0  0  0  0  0  0  0  0
   10.4532    2.8119    0.0000 C   0  0  1  0  0  0  0  0  0  0  0  0
    9.5408    1.1738    0.0000 C   0  0  1  0  0  0  0  0  0  0  0  0
   10.4741    1.7271    0.0000 C   0  0  1  0  0  0  0  0  0  0  0  0
    7.6992    3.3149    0.0000 C   0  0  0  0  0  0  0  0  0  0  0  0
    7.6799    4.3148    0.0000 C   0  0  0  0  0  0  0  0  0  0  0  0
    8.5634    4.8665    0.0000 C   0  0  0  0  0  0  0  0  0  0  0  0
    6.8430    2.7983    0.0000 C   0  0  0  0  0  0  0  0  0  0  0  0
    6.8044    4.7980    0.0000 C   0  0  0  0  0  0  0  0  0  0  0  0
    7.7331    0.2126    0.0000 C   0  0  0  0  0  0  0  0  0  0  0  0
    5.9675    3.2816    0.0000 C   0  0  0  0  0  0  0  0  0  0  0  0
    5.9482    4.2814    0.0000 C   0  0  0  0  0  0  0  0  0  0  0  0
    6.8671   -0.2874    0.0000 C   0  0  0  0  0  0  0  0  0  0  0  0
    4.2690   -4.7874    0.0000 C   0  0  3  0  0  0  0  0  0  0  0  0
    5.1350   -4.2874    0.0000 C   0  0  3  0  0  0  0  0  0  0  0  0
    3.4030   -4.2874    0.0000 C   0  0  3  0  0  0  0  0  0  0  0  0
    5.1350   -3.2874    0.0000 C   0  0  3  0  0  0  0  0  0  0  0  0
    3.4030   -3.2874    0.0000 C   0  0  3  0  0  0  0  0  0  0  0  0
    6.8671   -1.2874    0.0000 C   0  0  0  0  0  0  0  0  0  0  0  0
    6.0010   -1.7874    0.0000 C   0  0  3  0  0  0  0  0  0  0  0  0
    4.4283    3.7520    0.0000 C   0  0  0  0  0  0  0  0  0  0  0  0
    2.5369   -2.7874    0.0000 C   0  0  0  0  0  0  0  0  0  0  0  0
    5.1350   -1.2874    0.0000 C   0  0  0  0  0  0  0  0  0  0  0  0
    7.8672    2.3726    0.0000 H   0  0  0  0  0  0  0  0  0  0  0  0
   10.2254    3.7707    0.0000 H   0  0  0  0  0  0  0  0  0  0  0  0
    8.6003    1.0926    0.0000 H   0  0  0  0  0  0  0  0  0  0  0  0
   10.4377    3.4317    0.0000 H   0  0  0  0  0  0  0  0  0  0  0  0
    9.0057    0.8606    0.0000 H   0  0  0  0  0  0  0  0  0  0  0  0
   10.4825    1.1071    0.0000 H   0  0  0  0  0  0  0  0  0  0  0  0
   10.0088    4.6926    0.0000 H   0  0  0  0  0  0  0  0  0  0  0  0
    6.8549    2.1785    0.0000 H   0  0  0  0  0  0  0  0  0  0  0  0
   11.8514    3.0343    0.0000 H   0  0  0  0  0  0  0  0  0  0  0  0
   10.0878   -0.1321    0.0000 H   0  0  0  0  0  0  0  0  0  0  0  0
   11.8799    1.5587    0.0000 H   0  0  0  0  0  0  0  0  0  0  0  0
    7.9451   -0.3700    0.0000 H   0  0  0  0  0  0  0  0  0  0  0  0
    8.3437    0.3203    0.0000 H   0  0  0  0  0  0  0  0  0  0  0  0
    3.7320   -5.0974    0.0000 H   0  0  0  0  0  0  0  0  0  0  0  0
    5.1350   -4.9074    0.0000 H   0  0  0  0  0  0  0  0  0  0  0  0
    3.4030   -4.9074    0.0000 H   0  0  0  0  0  0  0  0  0  0  0  0
    5.1350   -2.6674    0.0000 H   0  0  0  0  0  0  0  0  0  0  0  0
    3.4030   -2.6674    0.0000 H   0  0  0  0  0  0  0  0  0  0  0  0
    7.0791   -1.8700    0.0000 H   0  0  0  0  0  0  0  0  0  0  0  0
    7.4776   -1.1797    0.0000 H   0  0  0  0  0  0  0  0  0  0  0  0
    6.5380   -2.0974    0.0000 H   0  0  0  0  0  0  0  0  0  0  0  0
    3.9595    4.1578    0.0000 H   0  0  0  0  0  0  0  0  0  0  0  0
    3.9755    3.3284    0.0000 H   0  0  0  0  0  0  0  0  0  0  0  0
    6.2424    6.0974    0.0000 H   0  0  0  0  0  0  0  0  0  0  0  0
    1.9264   -2.6797    0.0000 H   0  0  0  0  0  0  0  0  0  0  0  0
    2.3249   -3.3700    0.0000 H   0  0  0  0  0  0  0  0  0  0  0  0
    5.4450   -0.7504    0.0000 H   0  0  0  0  0  0  0  0  0  0  0  0
    4.5981   -0.9774    0.0000 H   0  0  0  0  0  0  0  0  0  0  0  0
    4.8250   -1.8243    0.0000 H   0  0  0  0  0  0  0  0  0  0  0  0
    3.7320   -6.0974    0.0000 H   0  0  0  0  0  0  0  0  0  0  0  0
    6.5380   -4.4774    0.0000 H   0  0  0  0  0  0  0  0  0  0  0  0
    2.0000   -4.4774    0.0000 H   0  0  0  0  0  0  0  0  0  0  0  0
    2.0000   -1.4774    0.0000 H   0  0  0  0  0  0  0  0  0  0  0  0
 19  1  1  6  0  0  0
  1 28  1  0  0  0  0
 20  2  1  6  0  0  0
  2 50  1  0  0  0  0
 21  3  1  1  0  0  0
  3 51  1  0  0  0  0
 22  4  1  6  0  0  0
  4 52  1  0  0  0  0
  5 25  2  0  0  0  0
  6 29  1  0  0  0  0
  6 39  1  0  0  0  0
  7 30  1  0  0  0  0
  7 39  1  0  0  0  0
  8 27  1  0  0  0  0
  8 65  1  0  0  0  0
  9 35  1  0  0  0  0
  9 36  1  0  0  0  0
 10 35  1  0  0  0  0
 10 38  1  0  0  0  0
 11 32  1  0  0  0  0
 11 71  1  0  0  0  0
 12 33  1  0  0  0  0
 12 72  1  0  0  0  0
 13 34  1  0  0  0  0
 13 73  1  0  0  0  0
 14 31  2  0  0  0  0
 15 40  1  0  0  0  0
 15 74  1  0  0  0  0
 16 18  1  0  0  0  0
 16 25  1  0  0  0  0
 16 48  1  0  0  0  0
 17 18  1  0  0  0  0
 17 19  1  0  0  0  0
 17 23  1  0  0  0  0
 17 42  1  1  0  0  0
 18 20  1  0  0  0  0
 18 43  1  6  0  0  0
 19 21  1  0  0  0  0
 19 44  1  0  0  0  0
 20 22  1  0  0  0  0
 20 45  1  0  0  0  0
 21 22  1  0  0  0  0
 21 46  1  0  0  0  0
 22 47  1  0  0  0  0
 23 24  1  0  0  0  0
 23 26  2  0  0  0  0
 24 25  1  0  0  0  0
 24 27  2  0  0  0  0
 26 29  1  0  0  0  0
 26 49  1  0  0  0  0
 27 30  1  0  0  0  0
 28 31  1  0  0  0  0
 28 53  1  0  0  0  0
 28 54  1  0  0  0  0
 29 30  2  0  0  0  0
 31 37  1  0  0  0  0
 32 33  1  0  0  0  0
 32 34  1  0  0  0  0
 32 55  1  0  0  0  0
 33 35  1  0  0  0  0
 33 56  1  0  0  0  0
 34 36  1  0  0  0  0
 34 57  1  0  0  0  0
 35 58  1  0  0  0  0
 36 40  1  0  0  0  0
 36 59  1  0  0  0  0
 37 38  1  0  0  0  0
 37 60  1  0  0  0  0
 37 61  1  0  0  0  0
 38 41  1  0  0  0  0
 38 62  1  0  0  0  0
 39 63  1  0  0  0  0
 39 64  1  0  0  0  0
 40 66  1  0  0  0  0
 40 67  1  0  0  0  0
 41 68  1  0  0  0  0
 41 69  1  0  0  0  0
 41 70  1  0  0  0  0
M  END
> <PUBCHEM_COMPOUND_CID>
398556

> <PUBCHEM_COMPOUND_CANONICALIZED>
1

> <PUBCHEM_CACTVS_COMPLEXITY>
956

> <PUBCHEM_CACTVS_HBOND_ACCEPTOR>
15

> <PUBCHEM_CACTVS_HBOND_DONOR>
9

> <PUBCHEM_CACTVS_ROTATABLE_BOND>
8

> <PUBCHEM_CACTVS_SUBSKEYS>
AAADcfB6PAAAAAAAAAAAAAAAAAAAASAAAAA8aIEAAAAAAEixAAAAHgAQCAAADTzxmAcyDoLABgCIAqFSEAKCCAAkIAAAiIFOjMgfNzaGtR+mcWtn9hWfuQf6/f/eoAABCAAYQABCgAIUADSgAAAAAAAAAA==

> <PUBCHEM_IUPAC_OPENEYE_NAME>
(1R,2R,3S,4S,4aR,11bR)-2,3,4,7-tetrahydroxy-1-[2-oxo-4-[3,4,5-trihydroxy-6-(hydroxymethyl)tetrahydropyran-2-yl]oxy-pentoxy]-2,3,4,4a,5,11b-hexahydro-1H-[1,3]dioxolo[4,5-j]phenanthridin-6-one

> <PUBCHEM_IUPAC_CAS_NAME>
(1R,2R,3S,4S,4aR,11bR)-2,3,4,7-tetrahydroxy-1-[2-oxo-4-[[3,4,5-trihydroxy-6-(hydroxymethyl)-2-oxanyl]oxy]pentoxy]-2,3,4,4a,5,11b-hexahydro-1H-[1,3]dioxolo[4,5-j]phenanthridin-6-one

> <PUBCHEM_IUPAC_NAME_MARKUP>
(1<I>R</I>,2<I>R</I>,3<I>S</I>,4<I>S</I>,4<I>a</I><I>R</I>,11<I>b</I><I>R</I>)-2,3,4,7-tetrahydroxy-1-[2-oxo-4-[3,4,5-trihydroxy-6-(hydroxymethyl)oxan-2-yl]oxypentoxy]-2,3,4,4<I>a</I>,5,11<I>b</I>-hexahydro-1<I>H</I>-[1,3]dioxolo[4,5-j]phenanthridin-6-one

> <PUBCHEM_IUPAC_NAME>
(1R,2R,3S,4S,4aR,11bR)-2,3,4,7-tetrahydroxy-1-[2-oxo-4-[3,4,5-trihydroxy-6-(hydroxymethyl)oxan-2-yl]oxypentoxy]-2,3,4,4a,5,11b-hexahydro-1H-[1,3]dioxolo[4,5-j]phenanthridin-6-one

> <PUBCHEM_IUPAC_SYSTEMATIC_NAME>
(1R,2R,3S,4S,4aR,11bR)-1-[4-[6-(hydroxymethyl)-3,4,5-tris(oxidanyl)oxan-2-yl]oxy-2-oxidanylidene-pentoxy]-2,3,4,7-tetrakis(oxidanyl)-2,3,4,4a,5,11b-hexahydro-1H-[1,3]dioxolo[4,5-j]phenanthridin-6-one

> <PUBCHEM_IUPAC_TRADITIONAL_NAME>
(1R,2R,3S,4S,4aR,11bR)-2,3,4,7-tetrahydroxy-1-[2-keto-4-(3,4,5-trihydroxy-6-methylol-tetrahydropyran-2-yl)oxy-pentoxy]-2,3,4,4a,5,11b-hexahydro-1H-[1,3]dioxolo[4,5-j]phenanthridin-6-one

> <PUBCHEM_IUPAC_INCHI>
InChI=1S/C25H33NO15/c1-7(40-25-21(35)18(32)15(29)11(4-27)41-25)2-8(28)5-37-23-12-9-3-10-22(39-6-38-10)16(30)13(9)24(36)26-14(12)17(31)19(33)20(23)34/h3,7,11-12,14-15,17-21,23,25,27,29-35H,2,4-6H2,1H3,(H,26,36)/t7?,11?,12-,14-,15?,17+,18?,19+,20-,21?,23-,25?/m1/s1

> <PUBCHEM_IUPAC_INCHIKEY>
RNZYQZGSIRTMOP-OBHNLAGLSA-N

> <PUBCHEM_XLOGP3_AA>
-3.2

> <PUBCHEM_EXACT_MASS>
587.185019

> <PUBCHEM_MOLECULAR_FORMULA>
C25H33NO15

> <PUBCHEM_MOLECULAR_WEIGHT>
587.5

> <PUBCHEM_OPENEYE_CAN_SMILES>
CC(CC(=O)COC1C2C(C(C(C1O)O)O)NC(=O)C3=C(C4=C(C=C23)OCO4)O)OC5C(C(C(C(O5)CO)O)O)O

> <PUBCHEM_OPENEYE_ISO_SMILES>
CC(CC(=O)CO[C@@H]1[C@H]2[C@H]([C@@H]([C@@H]([C@H]1O)O)O)NC(=O)C3=C(C4=C(C=C23)OCO4)O)OC5C(C(C(C(O5)CO)O)O)O

> <PUBCHEM_CACTVS_TPSA>
254

> <PUBCHEM_MONOISOTOPIC_WEIGHT>
587.185019

> <PUBCHEM_TOTAL_CHARGE>
0

> <PUBCHEM_HEAVY_ATOM_COUNT>
41

> <PUBCHEM_ATOM_DEF_STEREO_COUNT>
6

> <PUBCHEM_ATOM_UDEF_STEREO_COUNT>
6

> <PUBCHEM_BOND_DEF_STEREO_COUNT>
0

> <PUBCHEM_BOND_UDEF_STEREO_COUNT>
0

> <PUBCHEM_ISOTOPIC_ATOM_COUNT>
0

> <PUBCHEM_COMPONENT_COUNT>
1

> <PUBCHEM_CACTVS_TAUTO_COUNT>
-1

> <PUBCHEM_COORDINATE_TYPE>
1
5
255

> <PUBCHEM_BONDANNOTATIONS>
19  1  6
35  10  3
32  11  3
33  12  3
34  13  3
17  42  5
18  43  6
20  2  6
23  24  8
23  26  8
24  27  8
26  29  8
27  30  8
29  30  8
21  3  5
36  40  3
38  41  3
22  4  6

$$$$
