101297611
  -OEChem-08292006093D

 84 87  0     1  0  0  0  0  0999 V2000
    0.4005   -0.8739   -1.0925 O   0  0  0  0  0  0  0  0  0  0  0  0
   -2.2195    2.6943    1.2900 O   0  0  0  0  0  0  0  0  0  0  0  0
    5.9416   -3.0976    1.6324 O   0  0  0  0  0  0  0  0  0  0  0  0
   -4.8485    1.9318    1.5380 O   0  0  0  0  0  0  0  0  0  0  0  0
    4.9484    1.9322   -2.5105 O   0  0  0  0  0  0  0  0  0  0  0  0
    7.2395   -1.6827   -0.3616 O   0  0  0  0  0  0  0  0  0  0  0  0
   -6.5392   -3.8946   -1.1373 O   0  0  0  0  0  0  0  0  0  0  0  0
   -0.0242    0.8835    0.5551 C   0  0  1  0  0  0  0  0  0  0  0  0
    0.6509    0.5182   -0.7932 C   0  0  1  0  0  0  0  0  0  0  0  0
   -1.5190    0.6885    0.1911 C   0  0  2  0  0  0  0  0  0  0  0  0
    2.8101   -0.1127    0.4418 C   0  0  2  0  0  0  0  0  0  0  0  0
    4.3432    0.2229    0.6250 C   0  0  2  0  0  0  0  0  0  0  0  0
    0.4852   -0.0836    1.6371 C   0  0  0  0  0  0  0  0  0  0  0  0
    2.1566    0.6546   -0.7183 C   0  0  0  0  0  0  0  0  0  0  0  0
   -0.1885    1.3146   -1.8034 C   0  0  0  0  0  0  0  0  0  0  0  0
   -1.6258    1.2576   -1.2425 C   0  0  0  0  0  0  0  0  0  0  0  0
    2.0132    0.0022    1.7784 C   0  0  0  0  0  0  0  0  0  0  0  0
    5.0434    0.2878   -0.7604 C   0  0  1  0  0  0  0  0  0  0  0  0
   -2.5373    1.2978    1.1459 C   0  0  2  0  0  0  0  0  0  0  0  0
    0.2506    2.3487    0.9918 C   0  0  0  0  0  0  0  0  0  0  0  0
    5.0637   -0.8495    1.4921 C   0  0  0  0  0  0  0  0  0  0  0  0
    2.8540    1.3136   -1.6557 C   0  0  0  0  0  0  0  0  0  0  0  0
    5.1734   -1.0831   -1.4489 C   0  0  0  0  0  0  0  0  0  0  0  0
    4.5483    1.5901    1.3327 C   0  0  0  0  0  0  0  0  0  0  0  0
    4.3324    1.2543   -1.6893 C   0  0  0  0  0  0  0  0  0  0  0  0
    5.1937   -2.2115    0.8026 C   0  0  1  0  0  0  0  0  0  0  0  0
   -3.9979    1.2437    0.6166 C   0  0  1  0  0  0  0  0  0  0  0  0
    5.8861   -2.0979   -0.5557 C   0  0  2  0  0  0  0  0  0  0  0  0
   -2.4151    0.6669    2.5399 C   0  0  0  0  0  0  0  0  0  0  0  0
   -4.5565   -0.1775    0.4122 C   0  0  0  0  0  0  0  0  0  0  0  0
   -6.0377   -0.2454   -0.0606 C   0  0  2  0  0  0  0  0  0  0  0  0
   -6.5798   -1.7121   -0.0503 C   0  0  1  0  0  0  0  0  0  0  0  0
   -6.2092    0.4631   -1.4275 C   0  0  0  0  0  0  0  0  0  0  0  0
   -5.9319   -2.6070   -1.1189 C   0  0  0  0  0  0  0  0  0  0  0  0
   -6.4618   -2.3516    1.3432 C   0  0  0  0  0  0  0  0  0  0  0  0
   -7.6428    0.5145   -1.9391 C   0  0  0  0  0  0  0  0  0  0  0  0
   -1.7198   -0.3904    0.1271 H   0  0  0  0  0  0  0  0  0  0  0  0
    2.7278   -1.1668    0.1464 H   0  0  0  0  0  0  0  0  0  0  0  0
    0.2050   -1.1179    1.4026 H   0  0  0  0  0  0  0  0  0  0  0  0
    0.0721    0.1273    2.6232 H   0  0  0  0  0  0  0  0  0  0  0  0
   -0.1582    0.8866   -2.8115 H   0  0  0  0  0  0  0  0  0  0  0  0
    0.1339    2.3598   -1.8713 H   0  0  0  0  0  0  0  0  0  0  0  0
   -2.0560    2.2641   -1.2786 H   0  0  0  0  0  0  0  0  0  0  0  0
   -2.2557    0.6100   -1.8630 H   0  0  0  0  0  0  0  0  0  0  0  0
    2.2416    0.9432    2.2870 H   0  0  0  0  0  0  0  0  0  0  0  0
    2.3337   -0.7936    2.4609 H   0  0  0  0  0  0  0  0  0  0  0  0
    6.0557    0.6926   -0.6162 H   0  0  0  0  0  0  0  0  0  0  0  0
   -0.0581    2.5428    2.0240 H   0  0  0  0  0  0  0  0  0  0  0  0
   -0.1805    3.0951    0.3175 H   0  0  0  0  0  0  0  0  0  0  0  0
    1.3252    2.5642    0.9809 H   0  0  0  0  0  0  0  0  0  0  0  0
    4.5623   -0.9769    2.4588 H   0  0  0  0  0  0  0  0  0  0  0  0
    6.0711   -0.4953    1.7543 H   0  0  0  0  0  0  0  0  0  0  0  0
    2.3774    1.8407   -2.4739 H   0  0  0  0  0  0  0  0  0  0  0  0
    5.7365   -0.9557   -2.3825 H   0  0  0  0  0  0  0  0  0  0  0  0
    4.1876   -1.4707   -1.7328 H   0  0  0  0  0  0  0  0  0  0  0  0
    3.9494    2.3858    0.8789 H   0  0  0  0  0  0  0  0  0  0  0  0
    5.5982    1.9034    1.2864 H   0  0  0  0  0  0  0  0  0  0  0  0
    4.2912    1.5395    2.3959 H   0  0  0  0  0  0  0  0  0  0  0  0
    4.2060   -2.6646    0.6683 H   0  0  0  0  0  0  0  0  0  0  0  0
    0.7733   -1.0613   -1.9714 H   0  0  0  0  0  0  0  0  0  0  0  0
   -4.0481    1.8149   -0.3145 H   0  0  0  0  0  0  0  0  0  0  0  0
    5.9224   -3.0806   -1.0390 H   0  0  0  0  0  0  0  0  0  0  0  0
   -2.2956   -0.4202    2.4961 H   0  0  0  0  0  0  0  0  0  0  0  0
   -1.6091    1.1157    3.1258 H   0  0  0  0  0  0  0  0  0  0  0  0
   -3.3114    0.8614    3.1407 H   0  0  0  0  0  0  0  0  0  0  0  0
   -2.8605    3.0814    1.9107 H   0  0  0  0  0  0  0  0  0  0  0  0
   -3.9282   -0.7143   -0.3057 H   0  0  0  0  0  0  0  0  0  0  0  0
   -4.4743   -0.6995    1.3699 H   0  0  0  0  0  0  0  0  0  0  0  0
   -6.6483    0.3052    0.6675 H   0  0  0  0  0  0  0  0  0  0  0  0
    5.4765   -3.1640    2.4838 H   0  0  0  0  0  0  0  0  0  0  0  0
   -5.6590    2.1837    1.0646 H   0  0  0  0  0  0  0  0  0  0  0  0
    7.6578   -1.6293   -1.2378 H   0  0  0  0  0  0  0  0  0  0  0  0
   -7.6569   -1.6741   -0.2605 H   0  0  0  0  0  0  0  0  0  0  0  0
   -5.5638    0.0052   -2.1853 H   0  0  0  0  0  0  0  0  0  0  0  0
   -5.8805    1.5039   -1.3390 H   0  0  0  0  0  0  0  0  0  0  0  0
   -4.8636   -2.7439   -0.9249 H   0  0  0  0  0  0  0  0  0  0  0  0
   -6.0517   -2.1825   -2.1189 H   0  0  0  0  0  0  0  0  0  0  0  0
   -5.4336   -2.6459    1.5754 H   0  0  0  0  0  0  0  0  0  0  0  0
   -7.0762   -3.2570    1.4007 H   0  0  0  0  0  0  0  0  0  0  0  0
   -6.8159   -1.6678    2.1216 H   0  0  0  0  0  0  0  0  0  0  0  0
   -8.3120    0.9452   -1.1878 H   0  0  0  0  0  0  0  0  0  0  0  0
   -7.6981    1.1366   -2.8384 H   0  0  0  0  0  0  0  0  0  0  0  0
   -8.0116   -0.4801   -2.2050 H   0  0  0  0  0  0  0  0  0  0  0  0
   -6.0883   -4.4130   -1.8255 H   0  0  0  0  0  0  0  0  0  0  0  0
  1  9  1  0  0  0  0
  1 60  1  0  0  0  0
  2 19  1  0  0  0  0
  2 66  1  0  0  0  0
  3 26  1  0  0  0  0
  3 70  1  0  0  0  0
  4 27  1  0  0  0  0
  4 71  1  0  0  0  0
  5 25  2  0  0  0  0
  6 28  1  0  0  0  0
  6 72  1  0  0  0  0
  7 34  1  0  0  0  0
  7 84  1  0  0  0  0
  8  9  1  0  0  0  0
  8 10  1  0  0  0  0
  8 13  1  0  0  0  0
  8 20  1  0  0  0  0
  9 14  1  0  0  0  0
  9 15  1  0  0  0  0
 10 16  1  0  0  0  0
 10 19  1  0  0  0  0
 10 37  1  0  0  0  0
 11 12  1  0  0  0  0
 11 14  1  0  0  0  0
 11 17  1  0  0  0  0
 11 38  1  0  0  0  0
 12 18  1  0  0  0  0
 12 21  1  0  0  0  0
 12 24  1  0  0  0  0
 13 17  1  0  0  0  0
 13 39  1  0  0  0  0
 13 40  1  0  0  0  0
 14 22  2  0  0  0  0
 15 16  1  0  0  0  0
 15 41  1  0  0  0  0
 15 42  1  0  0  0  0
 16 43  1  0  0  0  0
 16 44  1  0  0  0  0
 17 45  1  0  0  0  0
 17 46  1  0  0  0  0
 18 23  1  0  0  0  0
 18 25  1  0  0  0  0
 18 47  1  0  0  0  0
 19 27  1  0  0  0  0
 19 29  1  0  0  0  0
 20 48  1  0  0  0  0
 20 49  1  0  0  0  0
 20 50  1  0  0  0  0
 21 26  1  0  0  0  0
 21 51  1  0  0  0  0
 21 52  1  0  0  0  0
 22 25  1  0  0  0  0
 22 53  1  0  0  0  0
 23 28  1  0  0  0  0
 23 54  1  0  0  0  0
 23 55  1  0  0  0  0
 24 56  1  0  0  0  0
 24 57  1  0  0  0  0
 24 58  1  0  0  0  0
 26 28  1  0  0  0  0
 26 59  1  0  0  0  0
 27 30  1  0  0  0  0
 27 61  1  0  0  0  0
 28 62  1  0  0  0  0
 29 63  1  0  0  0  0
 29 64  1  0  0  0  0
 29 65  1  0  0  0  0
 30 31  1  0  0  0  0
 30 67  1  0  0  0  0
 30 68  1  0  0  0  0
 31 32  1  0  0  0  0
 31 33  1  0  0  0  0
 31 69  1  0  0  0  0
 32 34  1  0  0  0  0
 32 35  1  0  0  0  0
 32 73  1  0  0  0  0
 33 36  1  0  0  0  0
 33 74  1  0  0  0  0
 33 75  1  0  0  0  0
 34 76  1  0  0  0  0
 34 77  1  0  0  0  0
 35 78  1  0  0  0  0
 35 79  1  0  0  0  0
 35 80  1  0  0  0  0
 36 81  1  0  0  0  0
 36 82  1  0  0  0  0
 36 83  1  0  0  0  0
M  END
> <PUBCHEM_COMPOUND_CID>
101297611

> <PUBCHEM_CONFORMER_RMSD>
1

> <PUBCHEM_CONFORMER_DIVERSEORDER>
1
26
38
7
15
34
31
37
19
5
32
11
27
36
35
41
21
4
28
18
14
22
3
20
23
9
30
25
40
33
16
12
13
6
29
2
39
8
10
24
17

> <PUBCHEM_MMFF94_PARTIAL_CHARGES>
25
1 -0.68
11 0.14
14 -0.28
18 0.06
19 0.28
2 -0.68
22 -0.14
25 0.49
26 0.28
27 0.28
28 0.28
3 -0.68
34 0.28
4 -0.68
5 -0.57
53 0.15
6 -0.68
60 0.4
66 0.4
7 -0.68
70 0.4
71 0.4
72 0.4
84 0.4
9 0.42

> <PUBCHEM_EFFECTIVE_ROTOR_COUNT>
8.8

> <PUBCHEM_PHARMACOPHORE_FEATURES>
20
1 1 acceptor
1 1 donor
1 2 acceptor
1 2 donor
1 3 acceptor
1 3 donor
1 35 hydrophobe
1 36 hydrophobe
1 4 acceptor
1 4 donor
1 5 acceptor
1 6 acceptor
1 6 donor
1 7 acceptor
1 7 donor
4 30 31 32 33 hydrophobe
5 8 9 10 15 16 rings
6 11 12 14 18 22 25 rings
6 12 18 21 23 26 28 rings
6 8 9 11 13 14 17 rings

> <PUBCHEM_HEAVY_ATOM_COUNT>
36

> <PUBCHEM_ATOM_DEF_STEREO_COUNT>
11

> <PUBCHEM_ATOM_UDEF_STEREO_COUNT>
1

> <PUBCHEM_BOND_DEF_STEREO_COUNT>
0

> <PUBCHEM_BOND_UDEF_STEREO_COUNT>
0

> <PUBCHEM_ISOTOPIC_ATOM_COUNT>
0

> <PUBCHEM_COMPONENT_COUNT>
1

> <PUBCHEM_CACTVS_TAUTO_COUNT>
5

> <PUBCHEM_CONFORMER_ID>
0609ADCB00000001

> <PUBCHEM_MMFF94_ENERGY>
133.864

> <PUBCHEM_FEATURE_SELFOVERLAP>
101.676

> <PUBCHEM_SHAPE_FINGERPRINT>
10 15 15984811636759028920
10076449 9 15338578101841279588
10693767 8 17749384811668768162
10906281 52 15140963886029128025
11135926 11 18340486678388198599
11456790 92 11671778231440117054
11475781 23 14635140274203120182
11646440 116 14692568802094483418
11963148 33 18343016662152991006
12035758 1 15697996327671763292
12120059 9 18198316590321182183
12166972 35 18335706056689432693
12236239 1 18335147478954553449
13165053 68 18127127701000692054
13533116 47 18260554420267811200
13782708 43 17489869332357778935
14068700 675 18201159936090841465
14849402 71 11599424941430077819
15064981 113 18191565486390411229
15183329 4 16081081585269187569
15510800 12 17489306460579166807
16994733 274 8285900360478005030
17349148 13 18336841788103242664
17913733 40 14261355730432363965
18222031 100 17967534554079929120
19958102 18 17821727273491324811
20028762 73 18336264557457967426
20775438 99 17823415084101086194
21033648 29 15698000683043213857
21223535 225 15864894471123851111
21424621 283 9223230758480200693
21781051 124 16988573407248705230
22122407 14 9943510951474960079
23081809 10 18340216214758225089
23522609 53 18122377689861743329
23559900 14 16371023892425232700
23569914 152 16231074603209008207
23569943 247 17899411983493975362
2838139 119 15430023367141793045
3504750 166 18048595919941080464
3633792 109 17821730511833102396
392239 28 14979953705639221027
394071 54 13470681534626617538
4015057 19 17749683972977983337
4098825 35 17167860881786871633
4340502 62 13614234876376377076
439807 62 18263926700341322947
504579 68 17530967951553822277
5104073 3 14476411361155500666
6086070 43 18264201422780482228
6328613 192 8935001456239442679
6700243 42 17629796445984025100

> <PUBCHEM_SHAPE_MULTIPOLES>
699.78
20.07
2.9
2.22
15.14
2.17
0
14.33
-5.08
1.21
0.02
-0.05
-0.57
-2.11

> <PUBCHEM_SHAPE_SELFOVERLAP>
1468.142

> <PUBCHEM_SHAPE_VOLUME>
391.5

> <PUBCHEM_COORDINATE_TYPE>
2
5
10

$$$$
