101355230
  -OEChem-08292006063D

 82 86  0     1  0  0  0  0  0999 V2000
    0.9800    1.1828    2.3716 O   0  0  0  0  0  0  0  0  0  0  0  0
    3.6505   -0.4600   -2.2934 O   0  0  0  0  0  0  0  0  0  0  0  0
   -1.9790    3.1107   -0.9211 O   0  0  0  0  0  0  0  0  0  0  0  0
    7.4058    0.4298    0.4696 O   0  0  0  0  0  0  0  0  0  0  0  0
   -3.9223    1.6364   -1.8192 O   0  0  0  0  0  0  0  0  0  0  0  0
    3.4324   -3.0201   -0.6388 O   0  0  0  0  0  0  0  0  0  0  0  0
    7.6398   -2.2250   -0.2133 O   0  0  0  0  0  0  0  0  0  0  0  0
   -6.7425   -1.9262   -1.2412 O   0  0  0  0  0  0  0  0  0  0  0  0
   -7.2295   -3.4110    0.4345 O   0  0  0  0  0  0  0  0  0  0  0  0
   -0.1218    1.3248    0.1520 C   0  0  1  0  0  0  0  0  0  0  0  0
    0.5934    0.4240    1.2071 C   0  0  1  0  0  0  0  0  0  0  0  0
   -1.4113    1.7015    0.9237 C   0  0  2  0  0  0  0  0  0  0  0  0
    2.8697    1.0385    0.2582 C   0  0  2  0  0  0  0  0  0  0  0  0
    4.3089    0.5251   -0.1554 C   0  0  2  0  0  0  0  0  0  0  0  0
    1.8876   -0.0835    0.6067 C   0  0  0  0  0  0  0  0  0  0  0  0
    0.7903    2.5140   -0.2028 C   0  0  0  0  0  0  0  0  0  0  0  0
   -0.5422   -0.5119    1.6487 C   0  0  0  0  0  0  0  0  0  0  0  0
    2.1768    2.0440   -0.7046 C   0  0  0  0  0  0  0  0  0  0  0  0
   -1.8030    0.3857    1.6413 C   0  0  0  0  0  0  0  0  0  0  0  0
    4.2339   -0.7636   -1.0254 C   0  0  2  0  0  0  0  0  0  0  0  0
   -2.5536    2.2881    0.1043 C   0  0  2  0  0  0  0  0  0  0  0  0
   -0.4810    0.5672   -1.1608 C   0  0  0  0  0  0  0  0  0  0  0  0
    5.1006    0.2014    1.1653 C   0  0  0  0  0  0  0  0  0  0  0  0
    2.1046   -1.3752    0.3334 C   0  0  0  0  0  0  0  0  0  0  0  0
    5.6263   -1.3862   -1.2587 C   0  0  0  0  0  0  0  0  0  0  0  0
    5.0493    1.6561   -0.9188 C   0  0  0  0  0  0  0  0  0  0  0  0
    3.2886   -1.8137   -0.4355 C   0  0  0  0  0  0  0  0  0  0  0  0
    6.4515   -0.4999    0.9750 C   0  0  1  0  0  0  0  0  0  0  0  0
   -3.4033    1.1764   -0.5726 C   0  0  1  0  0  0  0  0  0  0  0  0
    6.3379   -1.7128    0.0545 C   0  0  2  0  0  0  0  0  0  0  0  0
   -3.3981    3.2119    0.9938 C   0  0  0  0  0  0  0  0  0  0  0  0
   -4.5810    0.6796    0.2824 C   0  0  0  0  0  0  0  0  0  0  0  0
   -5.0849   -0.6804   -0.1744 C   0  0  1  0  0  0  0  0  0  0  0  0
   -5.8649   -1.4445    0.8902 C   0  0  1  0  0  0  0  0  0  0  0  0
   -6.0595   -0.6639   -1.3463 C   0  0  2  0  0  0  0  0  0  0  0  0
   -6.6802   -2.3921    0.0449 C   0  0  0  0  0  0  0  0  0  0  0  0
   -4.9711   -2.1779    1.8757 C   0  0  0  0  0  0  0  0  0  0  0  0
   -7.0988    0.4501   -1.3506 C   0  0  0  0  0  0  0  0  0  0  0  0
   -1.1234    2.4330    1.6933 H   0  0  0  0  0  0  0  0  0  0  0  0
    3.0350    1.6146    1.1810 H   0  0  0  0  0  0  0  0  0  0  0  0
    0.9312    3.1623    0.6710 H   0  0  0  0  0  0  0  0  0  0  0  0
    0.3644    3.1436   -0.9885 H   0  0  0  0  0  0  0  0  0  0  0  0
   -0.3793   -0.9251    2.6503 H   0  0  0  0  0  0  0  0  0  0  0  0
   -0.6870   -1.3530    0.9626 H   0  0  0  0  0  0  0  0  0  0  0  0
    2.0891    1.6164   -1.7088 H   0  0  0  0  0  0  0  0  0  0  0  0
    2.7914    2.9460   -0.8066 H   0  0  0  0  0  0  0  0  0  0  0  0
   -2.5547   -0.2447    1.1836 H   0  0  0  0  0  0  0  0  0  0  0  0
   -2.1306    0.6006    2.6647 H   0  0  0  0  0  0  0  0  0  0  0  0
   -1.0113   -0.3717   -0.9886 H   0  0  0  0  0  0  0  0  0  0  0  0
    0.4247    0.2505   -1.6897 H   0  0  0  0  0  0  0  0  0  0  0  0
   -1.0206    1.1762   -1.8890 H   0  0  0  0  0  0  0  0  0  0  0  0
    4.4851   -0.4407    1.8082 H   0  0  0  0  0  0  0  0  0  0  0  0
    5.2571    1.1349    1.7220 H   0  0  0  0  0  0  0  0  0  0  0  0
    1.3913   -2.1491    0.5914 H   0  0  0  0  0  0  0  0  0  0  0  0
    5.5463   -2.3001   -1.8636 H   0  0  0  0  0  0  0  0  0  0  0  0
    6.2485   -0.7298   -1.8801 H   0  0  0  0  0  0  0  0  0  0  0  0
    5.1302    2.5562   -0.2989 H   0  0  0  0  0  0  0  0  0  0  0  0
    6.0610    1.3800   -1.2208 H   0  0  0  0  0  0  0  0  0  0  0  0
    4.5356    1.9294   -1.8463 H   0  0  0  0  0  0  0  0  0  0  0  0
    6.8383   -0.8264    1.9477 H   0  0  0  0  0  0  0  0  0  0  0  0
    1.3528    0.5611    3.0204 H   0  0  0  0  0  0  0  0  0  0  0  0
   -2.8065    0.3153   -0.8424 H   0  0  0  0  0  0  0  0  0  0  0  0
    5.7887   -2.5006    0.5831 H   0  0  0  0  0  0  0  0  0  0  0  0
   -4.2376    3.6316    0.4276 H   0  0  0  0  0  0  0  0  0  0  0  0
   -3.7889    2.7095    1.8834 H   0  0  0  0  0  0  0  0  0  0  0  0
   -2.8099    4.0720    1.3366 H   0  0  0  0  0  0  0  0  0  0  0  0
    3.7227   -1.2475   -2.8594 H   0  0  0  0  0  0  0  0  0  0  0  0
   -5.3907    1.4165    0.2550 H   0  0  0  0  0  0  0  0  0  0  0  0
   -4.3211    0.6134    1.3412 H   0  0  0  0  0  0  0  0  0  0  0  0
   -1.6073    3.9049   -0.5009 H   0  0  0  0  0  0  0  0  0  0  0  0
   -4.2313   -1.3118   -0.4627 H   0  0  0  0  0  0  0  0  0  0  0  0
    7.4668    1.1643    1.1039 H   0  0  0  0  0  0  0  0  0  0  0  0
   -4.0727    0.8632   -2.3870 H   0  0  0  0  0  0  0  0  0  0  0  0
    7.5363   -3.0063   -0.7829 H   0  0  0  0  0  0  0  0  0  0  0  0
   -6.5616   -0.7870    1.4234 H   0  0  0  0  0  0  0  0  0  0  0  0
   -5.5236   -0.6671   -2.3004 H   0  0  0  0  0  0  0  0  0  0  0  0
   -4.3001   -2.8785    1.3665 H   0  0  0  0  0  0  0  0  0  0  0  0
   -5.5734   -2.7619    2.5802 H   0  0  0  0  0  0  0  0  0  0  0  0
   -4.3620   -1.4798    2.4572 H   0  0  0  0  0  0  0  0  0  0  0  0
   -7.6399    0.5039   -0.4001 H   0  0  0  0  0  0  0  0  0  0  0  0
   -7.8529    0.2529   -2.1211 H   0  0  0  0  0  0  0  0  0  0  0  0
   -6.6548    1.4262   -1.5624 H   0  0  0  0  0  0  0  0  0  0  0  0
  1 11  1  0  0  0  0
  1 61  1  0  0  0  0
  2 20  1  0  0  0  0
  2 67  1  0  0  0  0
  3 21  1  0  0  0  0
  3 70  1  0  0  0  0
  4 28  1  0  0  0  0
  4 72  1  0  0  0  0
  5 29  1  0  0  0  0
  5 73  1  0  0  0  0
  6 27  2  0  0  0  0
  7 30  1  0  0  0  0
  7 74  1  0  0  0  0
  8 35  1  0  0  0  0
  8 36  1  0  0  0  0
  9 36  2  0  0  0  0
 10 11  1  0  0  0  0
 10 12  1  0  0  0  0
 10 16  1  0  0  0  0
 10 22  1  0  0  0  0
 11 15  1  0  0  0  0
 11 17  1  0  0  0  0
 12 19  1  0  0  0  0
 12 21  1  0  0  0  0
 12 39  1  0  0  0  0
 13 14  1  0  0  0  0
 13 15  1  0  0  0  0
 13 18  1  0  0  0  0
 13 40  1  0  0  0  0
 14 20  1  0  0  0  0
 14 23  1  0  0  0  0
 14 26  1  0  0  0  0
 15 24  2  0  0  0  0
 16 18  1  0  0  0  0
 16 41  1  0  0  0  0
 16 42  1  0  0  0  0
 17 19  1  0  0  0  0
 17 43  1  0  0  0  0
 17 44  1  0  0  0  0
 18 45  1  0  0  0  0
 18 46  1  0  0  0  0
 19 47  1  0  0  0  0
 19 48  1  0  0  0  0
 20 25  1  0  0  0  0
 20 27  1  0  0  0  0
 21 29  1  0  0  0  0
 21 31  1  0  0  0  0
 22 49  1  0  0  0  0
 22 50  1  0  0  0  0
 22 51  1  0  0  0  0
 23 28  1  0  0  0  0
 23 52  1  0  0  0  0
 23 53  1  0  0  0  0
 24 27  1  0  0  0  0
 24 54  1  0  0  0  0
 25 30  1  0  0  0  0
 25 55  1  0  0  0  0
 25 56  1  0  0  0  0
 26 57  1  0  0  0  0
 26 58  1  0  0  0  0
 26 59  1  0  0  0  0
 28 30  1  0  0  0  0
 28 60  1  0  0  0  0
 29 32  1  0  0  0  0
 29 62  1  0  0  0  0
 30 63  1  0  0  0  0
 31 64  1  0  0  0  0
 31 65  1  0  0  0  0
 31 66  1  0  0  0  0
 32 33  1  0  0  0  0
 32 68  1  0  0  0  0
 32 69  1  0  0  0  0
 33 34  1  0  0  0  0
 33 35  1  0  0  0  0
 33 71  1  0  0  0  0
 34 36  1  0  0  0  0
 34 37  1  0  0  0  0
 34 75  1  0  0  0  0
 35 38  1  0  0  0  0
 35 76  1  0  0  0  0
 37 77  1  0  0  0  0
 37 78  1  0  0  0  0
 37 79  1  0  0  0  0
 38 80  1  0  0  0  0
 38 81  1  0  0  0  0
 38 82  1  0  0  0  0
M  END
> <PUBCHEM_COMPOUND_CID>
101355230

> <PUBCHEM_CONFORMER_RMSD>
1

> <PUBCHEM_CONFORMER_DIVERSEORDER>
1
7
6
9
4
10
2
3
5
8

> <PUBCHEM_MMFF94_PARTIAL_CHARGES>
29
1 -0.68
11 0.42
13 0.14
15 -0.28
2 -0.68
20 0.34
21 0.28
24 -0.14
27 0.49
28 0.28
29 0.28
3 -0.68
30 0.28
34 0.06
35 0.28
36 0.66
4 -0.68
5 -0.68
54 0.15
6 -0.57
61 0.4
67 0.4
7 -0.68
70 0.4
72 0.4
73 0.4
74 0.4
8 -0.43
9 -0.57

> <PUBCHEM_EFFECTIVE_ROTOR_COUNT>
6.6

> <PUBCHEM_PHARMACOPHORE_FEATURES>
19
1 1 acceptor
1 1 donor
1 2 acceptor
1 2 donor
1 3 acceptor
1 3 donor
1 4 acceptor
1 4 donor
1 5 acceptor
1 5 donor
1 6 acceptor
1 7 acceptor
1 7 donor
1 9 acceptor
5 10 11 12 17 19 rings
5 8 33 34 35 36 rings
6 10 11 13 15 16 18 rings
6 13 14 15 20 24 27 rings
6 14 20 23 25 28 30 rings

> <PUBCHEM_HEAVY_ATOM_COUNT>
38

> <PUBCHEM_ATOM_DEF_STEREO_COUNT>
13

> <PUBCHEM_ATOM_UDEF_STEREO_COUNT>
0

> <PUBCHEM_BOND_DEF_STEREO_COUNT>
0

> <PUBCHEM_BOND_UDEF_STEREO_COUNT>
0

> <PUBCHEM_ISOTOPIC_ATOM_COUNT>
0

> <PUBCHEM_COMPONENT_COUNT>
1

> <PUBCHEM_CACTVS_TAUTO_COUNT>
6

> <PUBCHEM_CONFORMER_ID>
060A8EDE00000001

> <PUBCHEM_MMFF94_ENERGY>
158.8052

> <PUBCHEM_FEATURE_SELFOVERLAP>
96.623

> <PUBCHEM_SHAPE_FINGERPRINT>
10 15 11671787078908527167
10554248 39 15068623739199179546
10763959 59 10737296735913773246
11135926 11 18187362091807480195
11672396 43 18059019372499936334
11828532 37 17679595699356271195
11963148 33 18336256877887864474
11991303 11 14996573931630680211
12166972 35 17748831813027665532
12422481 6 16630256822742594605
1361 4 18339080389387949350
13673619 4 18060700606844614105
13690498 29 17968369144341880319
13782708 43 18343023268201977898
13811026 1 18259983803934631042
14020679 6 13254789161873210727
14068700 675 18334295396688589405
14347332 77 18409450276174048497
14931854 50 17677037045751380603
14950920 106 15912758514420554195
14951699 99 10735881677011662179
15082195 135 17823713047452205540
15183329 4 17749388161083375419
15352257 5 18342739628746645455
15461852 350 18260832575566903638
15510800 12 18261957453097976643
17349148 13 18041287548125215184
17909252 39 18413109485114812393
19377110 9 15698000725955670968
19958102 18 18040154019876394275
20028762 73 18411419493020620390
2026 5 18411417315472714503
20567600 247 18273212019411603615
20715895 44 7925643193476755279
20775438 99 17832974324007848659
21033650 10 17022892425385679941
21130935 74 18270399374748275530
21223535 225 12830308323111080055
21623969 137 17560802121510515254
22149856 69 18202013122231946657
22393880 68 17749658654614914389
23522609 53 17983893135223148129
23559900 14 18188489202642223649
23569917 315 18342182129640291502
23569943 247 17831013530194441418
25025965 108 18058148575859288271
25222932 49 18273210881198018798
2838139 119 13912320188180089895
4073 2 18340489954424716400
439807 62 18411136935711709543
4461854 278 17703512180976716718
44880568 143 18187082815437696916
46194498 28 18187642565355295125
474113 269 16951392262336666530
484989 97 18408888464086507794
4938544 92 16773528677089443881
50009960 94 18048305657794728182
504843 32 12685101392903197065
58083652 198 16056584470191630801
6004065 56 18410008871352839752
6009941 240 17845091766648111009
6086070 43 13407085820313787660
6431902 208 18413389839416535159
999808 66 18131632288159466687

> <PUBCHEM_SHAPE_MULTIPOLES>
729.2
20.08
3.22
1.67
3.95
0.12
0.1
15.07
-3.57
2.98
-0.04
0.65
-0.01
0.99

> <PUBCHEM_SHAPE_SELFOVERLAP>
1570.284

> <PUBCHEM_SHAPE_VOLUME>
397.6

> <PUBCHEM_COORDINATE_TYPE>
2
5
10

$$$$
