441830
  -OEChem-08292006133D

 81 84  0     1  0  0  0  0  0999 V2000
    0.2935    0.9075    1.1182 O   0  0  0  0  0  0  0  0  0  0  0  0
   -2.3553   -2.7450   -1.1110 O   0  0  0  0  0  0  0  0  0  0  0  0
    5.7536    3.1419   -1.7572 O   0  0  0  0  0  0  0  0  0  0  0  0
   -4.9849   -1.9712   -1.3667 O   0  0  0  0  0  0  0  0  0  0  0  0
    4.9012   -1.8185    2.4991 O   0  0  0  0  0  0  0  0  0  0  0  0
    7.1067    1.7808    0.2372 O   0  0  0  0  0  0  0  0  0  0  0  0
   -8.6902    3.0964    0.2445 O   0  0  0  0  0  0  0  0  0  0  0  0
   -0.1424   -0.8863   -0.4869 C   0  0  1  0  0  0  0  0  0  0  0  0
    0.5545   -0.4872    0.8403 C   0  0  1  0  0  0  0  0  0  0  0  0
   -1.6320   -0.7016   -0.0972 C   0  0  2  0  0  0  0  0  0  0  0  0
    2.6816    0.1444   -0.4488 C   0  0  2  0  0  0  0  0  0  0  0  0
    4.2146   -0.1769   -0.6559 C   0  0  2  0  0  0  0  0  0  0  0  0
    0.3340    0.0657   -1.5970 C   0  0  0  0  0  0  0  0  0  0  0  0
    2.0600   -0.6079    0.7384 C   0  0  0  0  0  0  0  0  0  0  0  0
   -0.2554   -1.2736    1.8822 C   0  0  0  0  0  0  0  0  0  0  0  0
   -1.7040   -1.2437    1.3489 C   0  0  0  0  0  0  0  0  0  0  0  0
    1.8600   -0.0053   -1.7669 C   0  0  0  0  0  0  0  0  0  0  0  0
    4.9425   -0.2071    0.7164 C   0  0  1  0  0  0  0  0  0  0  0  0
   -2.6614   -1.3415   -1.0196 C   0  0  2  0  0  0  0  0  0  0  0  0
    0.1412   -2.3564   -0.9010 C   0  0  0  0  0  0  0  0  0  0  0  0
    4.9052    0.8869   -1.5571 C   0  0  0  0  0  0  0  0  0  0  0  0
    2.7833   -1.2406    1.6741 C   0  0  0  0  0  0  0  0  0  0  0  0
    5.0695    1.1780    1.3761 C   0  0  0  0  0  0  0  0  0  0  0  0
    4.4221   -1.5550   -1.3414 C   0  0  0  0  0  0  0  0  0  0  0  0
    4.2613   -1.1637    1.6773 C   0  0  0  0  0  0  0  0  0  0  0  0
    5.0325    2.2632   -0.8963 C   0  0  1  0  0  0  0  0  0  0  0  0
   -4.1172   -1.2556   -0.4823 C   0  0  1  0  0  0  0  0  0  0  0  0
    5.7524    2.1838    0.4500 C   0  0  2  0  0  0  0  0  0  0  0  0
   -2.5454   -0.7677   -2.4387 C   0  0  0  0  0  0  0  0  0  0  0  0
   -4.6616    0.1773   -0.3308 C   0  0  0  0  0  0  0  0  0  0  0  0
   -6.1339    0.2608    0.1480 C   0  0  2  0  0  0  0  0  0  0  0  0
   -6.6891    1.7211    0.1795 C   0  0  1  0  0  0  0  0  0  0  0  0
   -6.3155   -0.4158    1.5147 C   0  0  0  0  0  0  0  0  0  0  0  0
   -8.2048    1.7745    0.4317 C   0  0  0  0  0  0  0  0  0  0  0  0
   -5.9764    2.6383    1.1782 C   0  0  0  0  0  0  0  0  0  0  0  0
   -1.8462    0.3754   -0.0584 H   0  0  0  0  0  0  0  0  0  0  0  0
    2.5925    1.2031   -0.1719 H   0  0  0  0  0  0  0  0  0  0  0  0
    0.0468    1.1010   -1.3756 H   0  0  0  0  0  0  0  0  0  0  0  0
   -0.0924   -0.1652   -2.5723 H   0  0  0  0  0  0  0  0  0  0  0  0
    0.0802   -2.3139    1.9618 H   0  0  0  0  0  0  0  0  0  0  0  0
   -0.2071   -0.8284    2.8824 H   0  0  0  0  0  0  0  0  0  0  0  0
   -2.3305   -0.5919    1.9685 H   0  0  0  0  0  0  0  0  0  0  0  0
   -2.1242   -2.2532    1.4129 H   0  0  0  0  0  0  0  0  0  0  0  0
    2.1575    0.7813   -2.4703 H   0  0  0  0  0  0  0  0  0  0  0  0
    2.0897   -0.9529   -2.2624 H   0  0  0  0  0  0  0  0  0  0  0  0
    5.9565   -0.6028    0.5599 H   0  0  0  0  0  0  0  0  0  0  0  0
   -0.2642   -3.0931   -0.2008 H   0  0  0  0  0  0  0  0  0  0  0  0
   -0.1954   -2.5781   -1.9184 H   0  0  0  0  0  0  0  0  0  0  0  0
    1.2182   -2.5586   -0.9146 H   0  0  0  0  0  0  0  0  0  0  0  0
    5.9115    0.5393   -1.8325 H   0  0  0  0  0  0  0  0  0  0  0  0
    4.3836    0.9900   -2.5160 H   0  0  0  0  0  0  0  0  0  0  0  0
    2.3291   -1.7574    2.5114 H   0  0  0  0  0  0  0  0  0  0  0  0
    4.0850    1.5595    1.6721 H   0  0  0  0  0  0  0  0  0  0  0  0
    5.6523    1.0750    2.3006 H   0  0  0  0  0  0  0  0  0  0  0  0
    3.8417   -2.3487   -0.8609 H   0  0  0  0  0  0  0  0  0  0  0  0
    4.1437   -1.5279   -2.4001 H   0  0  0  0  0  0  0  0  0  0  0  0
    5.4764   -1.8552   -1.3099 H   0  0  0  0  0  0  0  0  0  0  0  0
    4.0423    2.7074   -0.7513 H   0  0  0  0  0  0  0  0  0  0  0  0
   -0.5481    1.0080    1.5915 H   0  0  0  0  0  0  0  0  0  0  0  0
   -4.1746   -1.7881    0.4710 H   0  0  0  0  0  0  0  0  0  0  0  0
    5.7863    3.1759    0.9138 H   0  0  0  0  0  0  0  0  0  0  0  0
   -3.4259   -1.0051   -3.0448 H   0  0  0  0  0  0  0  0  0  0  0  0
   -1.7286   -1.2264   -3.0012 H   0  0  0  0  0  0  0  0  0  0  0  0
   -2.4460    0.3221   -2.4396 H   0  0  0  0  0  0  0  0  0  0  0  0
   -3.0033   -3.1511   -1.7121 H   0  0  0  0  0  0  0  0  0  0  0  0
   -4.6011    0.6952   -1.2957 H   0  0  0  0  0  0  0  0  0  0  0  0
   -4.0245    0.7255    0.3698 H   0  0  0  0  0  0  0  0  0  0  0  0
   -6.7516   -0.2910   -0.5730 H   0  0  0  0  0  0  0  0  0  0  0  0
    5.2713    3.1866   -2.6004 H   0  0  0  0  0  0  0  0  0  0  0  0
   -5.2320   -1.3880   -2.1035 H   0  0  0  0  0  0  0  0  0  0  0  0
    7.5425    1.7491    1.1059 H   0  0  0  0  0  0  0  0  0  0  0  0
   -6.5111    2.1541   -0.8150 H   0  0  0  0  0  0  0  0  0  0  0  0
   -6.1122   -1.4893    1.4499 H   0  0  0  0  0  0  0  0  0  0  0  0
   -7.3388   -0.3283    1.8881 H   0  0  0  0  0  0  0  0  0  0  0  0
   -5.6382    0.0044    2.2651 H   0  0  0  0  0  0  0  0  0  0  0  0
   -8.4596    1.4813    1.4538 H   0  0  0  0  0  0  0  0  0  0  0  0
   -8.7421    1.1143   -0.2570 H   0  0  0  0  0  0  0  0  0  0  0  0
   -6.1477    2.3225    2.2121 H   0  0  0  0  0  0  0  0  0  0  0  0
   -6.3315    3.6706    1.0868 H   0  0  0  0  0  0  0  0  0  0  0  0
   -4.8972    2.6621    1.0030 H   0  0  0  0  0  0  0  0  0  0  0  0
   -8.4958    3.3532   -0.6730 H   0  0  0  0  0  0  0  0  0  0  0  0
  1  9  1  0  0  0  0
  1 59  1  0  0  0  0
  2 19  1  0  0  0  0
  2 65  1  0  0  0  0
  3 26  1  0  0  0  0
  3 69  1  0  0  0  0
  4 27  1  0  0  0  0
  4 70  1  0  0  0  0
  5 25  2  0  0  0  0
  6 28  1  0  0  0  0
  6 71  1  0  0  0  0
  7 34  1  0  0  0  0
  7 81  1  0  0  0  0
  8  9  1  0  0  0  0
  8 10  1  0  0  0  0
  8 13  1  0  0  0  0
  8 20  1  0  0  0  0
  9 14  1  0  0  0  0
  9 15  1  0  0  0  0
 10 16  1  0  0  0  0
 10 19  1  0  0  0  0
 10 36  1  0  0  0  0
 11 12  1  0  0  0  0
 11 14  1  0  0  0  0
 11 17  1  0  0  0  0
 11 37  1  0  0  0  0
 12 18  1  0  0  0  0
 12 21  1  0  0  0  0
 12 24  1  0  0  0  0
 13 17  1  0  0  0  0
 13 38  1  0  0  0  0
 13 39  1  0  0  0  0
 14 22  2  0  0  0  0
 15 16  1  0  0  0  0
 15 40  1  0  0  0  0
 15 41  1  0  0  0  0
 16 42  1  0  0  0  0
 16 43  1  0  0  0  0
 17 44  1  0  0  0  0
 17 45  1  0  0  0  0
 18 23  1  0  0  0  0
 18 25  1  0  0  0  0
 18 46  1  0  0  0  0
 19 27  1  0  0  0  0
 19 29  1  0  0  0  0
 20 47  1  0  0  0  0
 20 48  1  0  0  0  0
 20 49  1  0  0  0  0
 21 26  1  0  0  0  0
 21 50  1  0  0  0  0
 21 51  1  0  0  0  0
 22 25  1  0  0  0  0
 22 52  1  0  0  0  0
 23 28  1  0  0  0  0
 23 53  1  0  0  0  0
 23 54  1  0  0  0  0
 24 55  1  0  0  0  0
 24 56  1  0  0  0  0
 24 57  1  0  0  0  0
 26 28  1  0  0  0  0
 26 58  1  0  0  0  0
 27 30  1  0  0  0  0
 27 60  1  0  0  0  0
 28 61  1  0  0  0  0
 29 62  1  0  0  0  0
 29 63  1  0  0  0  0
 29 64  1  0  0  0  0
 30 31  1  0  0  0  0
 30 66  1  0  0  0  0
 30 67  1  0  0  0  0
 31 32  1  0  0  0  0
 31 33  1  0  0  0  0
 31 68  1  0  0  0  0
 32 34  1  0  0  0  0
 32 35  1  0  0  0  0
 32 72  1  0  0  0  0
 33 73  1  0  0  0  0
 33 74  1  0  0  0  0
 33 75  1  0  0  0  0
 34 76  1  0  0  0  0
 34 77  1  0  0  0  0
 35 78  1  0  0  0  0
 35 79  1  0  0  0  0
 35 80  1  0  0  0  0
M  END
> <PUBCHEM_COMPOUND_CID>
441830

> <PUBCHEM_CONFORMER_RMSD>
1

> <PUBCHEM_CONFORMER_DIVERSEORDER>
1
3
2

> <PUBCHEM_MMFF94_PARTIAL_CHARGES>
25
1 -0.68
11 0.14
14 -0.28
18 0.06
19 0.28
2 -0.68
22 -0.14
25 0.49
26 0.28
27 0.28
28 0.28
3 -0.68
34 0.28
4 -0.68
5 -0.57
52 0.15
59 0.4
6 -0.68
65 0.4
69 0.4
7 -0.68
70 0.4
71 0.4
81 0.4
9 0.42

> <PUBCHEM_EFFECTIVE_ROTOR_COUNT>
7.8

> <PUBCHEM_PHARMACOPHORE_FEATURES>
19
1 1 acceptor
1 1 donor
1 2 acceptor
1 2 donor
1 3 acceptor
1 3 donor
1 33 hydrophobe
1 35 hydrophobe
1 4 acceptor
1 4 donor
1 5 acceptor
1 6 acceptor
1 6 donor
1 7 acceptor
1 7 donor
5 8 9 10 15 16 rings
6 11 12 14 18 22 25 rings
6 12 18 21 23 26 28 rings
6 8 9 11 13 14 17 rings

> <PUBCHEM_HEAVY_ATOM_COUNT>
35

> <PUBCHEM_ATOM_DEF_STEREO_COUNT>
11

> <PUBCHEM_ATOM_UDEF_STEREO_COUNT>
1

> <PUBCHEM_BOND_DEF_STEREO_COUNT>
0

> <PUBCHEM_BOND_UDEF_STEREO_COUNT>
0

> <PUBCHEM_ISOTOPIC_ATOM_COUNT>
0

> <PUBCHEM_COMPONENT_COUNT>
1

> <PUBCHEM_CACTVS_TAUTO_COUNT>
5

> <PUBCHEM_CONFORMER_ID>
0006BDE600000001

> <PUBCHEM_MMFF94_ENERGY>
134.2112

> <PUBCHEM_FEATURE_SELFOVERLAP>
96.58

> <PUBCHEM_SHAPE_FINGERPRINT>
10 15 18412548726206622155
10554248 39 18200862977461889895
10693767 8 12319471952244356628
10816530 90 18060418023207717905
10906281 52 18041287681126172838
11456790 92 18187077386984052672
11475781 23 16845282835017577091
11578080 2 17751088105282066760
11646440 116 16515681160965683100
12035758 1 15647050486342240147
12166972 35 10303803286084244667
12236239 1 18337102453984613586
12422481 6 18115583734593327279
12788726 201 18273496771353481152
13533116 47 17749100072574635530
13690498 29 16701167763692166663
13782708 43 12685090402007239837
14040221 8 17773611433436604996
14068700 675 10809348832646516791
14251757 52 18410295800637115145
14849402 71 18041285482193374013
15082195 135 17489877042046135096
15131766 46 18189902100516135652
15183329 4 15051734166806866159
15188451 53 8142087550577967921
15238133 3 18272925025074883035
15392192 104 15937277571779184905
1577012 14 18411134736814840095
15840311 113 18260549983450381213
16994733 274 18411981403169761841
17913733 40 16950277404051945035
18222031 100 12391519684926206166
1979834 28 16660361485386644394
19958102 18 16056885702149484957
21033648 29 16701731752452614030
21130935 74 17603307055334830363
21424621 283 18410296917249133731
21521239 73 12391508685493699885
22122407 14 18336556026385537889
22149856 69 16226334712108624317
2215653 11 14405191689725538294
22393880 68 15410610440975173782
23081809 10 18339913896479254687
23522609 53 18335426793847473229
23559900 14 15051454980926729874
23569914 152 13970347854675895129
23576562 1 15769197479820482321
24771293 8 17676491708551284492
3633792 109 17988933245432833438
3663271 9 18040998462365885483
3918712 181 18201999889982013849
394071 54 17313381262375601260
4093350 32 18410015420987847814
4340502 62 17095239241840572274
465052 167 12540697028588489662
5104073 3 17095802226032250666
5470011 282 12247383606715017817
58083652 198 17531790425064425109
59682541 52 15195288586329829221
59755656 215 15482678982779106994
6328613 192 18343021095149219945

> <PUBCHEM_SHAPE_MULTIPOLES>
679.2
20.2
2.8
2.06
25.77
1.48
-0.06
18.1
-2.81
1.01
0.32
-1.57
-0.62
-2.71

> <PUBCHEM_SHAPE_SELFOVERLAP>
1430.414

> <PUBCHEM_SHAPE_VOLUME>
379.2

> <PUBCHEM_COORDINATE_TYPE>
2
5
10

$$$$
