44147768
  -OEChem-08292006352D

140147  0     1  0  0  0  0  0999 V2000
   11.1384   -1.2343    0.0000 O   0  0  0  0  0  0  0  0  0  0  0  0
    3.9791    4.9243    0.0000 O   0  0  0  0  0  0  0  0  0  0  0  0
    5.7110    4.9443    0.0000 O   0  0  0  0  0  0  0  0  0  0  0  0
   12.0044    0.2657    0.0000 O   0  0  0  0  0  0  0  0  0  0  0  0
   12.8705   -2.2343    0.0000 O   0  0  0  0  0  0  0  0  0  0  0  0
   14.6025   -1.2343    0.0000 O   0  0  0  0  0  0  0  0  0  0  0  0
   14.6025    0.7657    0.0000 O   0  0  0  0  0  0  0  0  0  0  0  0
   11.1384   -2.2343    0.0000 O   0  0  0  0  0  0  0  0  0  0  0  0
   15.4685    0.2657    0.0000 O   0  0  0  0  0  0  0  0  0  0  0  0
   12.8705   -4.2343    0.0000 O   0  0  0  0  0  0  0  0  0  0  0  0
   11.1384   -5.2343    0.0000 O   0  0  0  0  0  0  0  0  0  0  0  0
   16.3346   -2.2343    0.0000 O   0  0  0  0  0  0  0  0  0  0  0  0
    9.4064   -4.2343    0.0000 O   0  0  0  0  0  0  0  0  0  0  0  0
   18.0666   -1.2343    0.0000 O   0  0  0  0  0  0  0  0  0  0  0  0
   18.0666    0.7657    0.0000 O   0  0  0  0  0  0  0  0  0  0  0  0
    8.5403   -2.7343    0.0000 O   0  0  0  0  0  0  0  0  0  0  0  0
   17.2006    2.2657    0.0000 O   0  0  0  0  0  0  0  0  0  0  0  0
    7.5184    1.8962    0.0000 C   0  0  2  0  0  0  0  0  0  0  0  0
    7.5223    0.8962    0.0000 C   0  0  1  0  0  0  0  0  0  0  0  0
    8.4183    0.3650    0.0000 C   0  0  2  0  0  0  0  0  0  0  0  0
    6.6505    2.3928    0.0000 C   0  0  1  0  0  0  0  0  0  0  0  0
    9.3224    0.8823    0.0000 C   0  0  3  0  0  0  0  0  0  0  0  0
    8.4103    2.4343    0.0000 C   0  0  0  0  0  0  0  0  0  0  0  0
   10.2682    0.3507    0.0000 C   0  0  0  0  0  0  0  0  0  0  0  0
    9.3184    1.9240    0.0000 C   0  0  0  0  0  0  0  0  0  0  0  0
    5.7864    1.8895    0.0000 C   0  0  0  0  0  0  0  0  0  0  0  0
    6.6582    0.3929    0.0000 C   0  0  0  0  0  0  0  0  0  0  0  0
    8.3974   -0.7198    0.0000 C   0  0  0  0  0  0  0  0  0  0  0  0
    4.8745    2.3928    0.0000 C   0  0  2  0  0  0  0  0  0  0  0  0
    6.6625    3.4344    0.0000 C   0  0  0  0  0  0  0  0  0  0  0  0
    4.8624    3.4344    0.0000 C   0  0  1  0  0  0  0  0  0  0  0  0
    7.8568    2.8372    0.0000 C   0  0  0  0  0  0  0  0  0  0  0  0
   10.2724   -0.7343    0.0000 C   0  0  2  0  0  0  0  0  0  0  0  0
    5.7625    3.9587    0.0000 C   0  0  0  0  0  0  0  0  0  0  0  0
    7.5503   -0.1317    0.0000 C   0  0  0  0  0  0  0  0  0  0  0  0
    9.3307   -1.2731    0.0000 C   0  0  0  0  0  0  0  0  0  0  0  0
    5.7902    0.8895    0.0000 C   0  0  0  0  0  0  0  0  0  0  0  0
    7.2903    3.1614    0.0000 C   0  0  0  0  0  0  0  0  0  0  0  0
    3.9498    1.8252    0.0000 C   0  0  0  0  0  0  0  0  0  0  0  0
    3.9249    3.9805    0.0000 C   0  0  0  0  0  0  0  0  0  0  0  0
    2.9999    2.3495    0.0000 C   0  0  0  0  0  0  0  0  0  0  0  0
   10.7615    1.2206    0.0000 C   0  0  0  0  0  0  0  0  0  0  0  0
   11.2682    0.3584    0.0000 C   0  0  0  0  0  0  0  0  0  0  0  0
    2.9873    3.4344    0.0000 C   0  0  0  0  0  0  0  0  0  0  0  0
    4.8508    4.4344    0.0000 C   0  0  0  0  0  0  0  0  0  0  0  0
    2.0000    2.3341    0.0000 C   0  0  0  0  0  0  0  0  0  0  0  0
    2.5133    1.4759    0.0000 C   0  0  0  0  0  0  0  0  0  0  0  0
   12.0044   -0.7343    0.0000 C   0  0  2  0  0  0  0  0  0  0  0  0
   12.8705   -1.2343    0.0000 C   0  0  1  0  0  0  0  0  0  0  0  0
   13.7365   -0.7343    0.0000 C   0  0  2  0  0  0  0  0  0  0  0  0
   12.8705    0.7657    0.0000 C   0  0  0  0  0  0  0  0  0  0  0  0
   13.7365    0.2657    0.0000 C   0  0  2  0  0  0  0  0  0  0  0  0
   12.0044   -2.7343    0.0000 C   0  0  1  0  0  0  0  0  0  0  0  0
   15.4685   -0.7343    0.0000 C   0  0  1  0  0  0  0  0  0  0  0  0
   12.0044   -3.7343    0.0000 C   0  0  1  0  0  0  0  0  0  0  0  0
   11.1384   -4.2343    0.0000 C   0  0  2  0  0  0  0  0  0  0  0  0
   16.3346   -1.2343    0.0000 C   0  0  1  0  0  0  0  0  0  0  0  0
   10.2724   -2.7343    0.0000 C   0  0  1  0  0  0  0  0  0  0  0  0
   10.2724   -3.7343    0.0000 C   0  0  1  0  0  0  0  0  0  0  0  0
   17.2006   -0.7343    0.0000 C   0  0  2  0  0  0  0  0  0  0  0  0
   16.3346    0.7657    0.0000 C   0  0  1  0  0  0  0  0  0  0  0  0
   17.2006    0.2657    0.0000 C   0  0  1  0  0  0  0  0  0  0  0  0
    9.4064   -2.2343    0.0000 C   0  0  0  0  0  0  0  0  0  0  0  0
   16.3346    1.7657    0.0000 C   0  0  0  0  0  0  0  0  0  0  0  0
    8.2600    1.3184    0.0000 H   0  0  0  0  0  0  0  0  0  0  0  0
    9.8569    1.1964    0.0000 H   0  0  0  0  0  0  0  0  0  0  0  0
    8.8021    2.9148    0.0000 H   0  0  0  0  0  0  0  0  0  0  0  0
    8.0039    2.9025    0.0000 H   0  0  0  0  0  0  0  0  0  0  0  0
    9.9296    1.8202    0.0000 H   0  0  0  0  0  0  0  0  0  0  0  0
    9.5252    2.5084    0.0000 H   0  0  0  0  0  0  0  0  0  0  0  0
    6.2615   -0.0836    0.0000 H   0  0  0  0  0  0  0  0  0  0  0  0
    7.0586   -0.0805    0.0000 H   0  0  0  0  0  0  0  0  0  0  0  0
    7.7887   -0.6020    0.0000 H   0  0  0  0  0  0  0  0  0  0  0  0
    8.1771   -1.2994    0.0000 H   0  0  0  0  0  0  0  0  0  0  0  0
    4.8941    1.5431    0.0000 H   0  0  0  0  0  0  0  0  0  0  0  0
    7.2721    3.3213    0.0000 H   0  0  0  0  0  0  0  0  0  0  0  0
    6.8783    4.0156    0.0000 H   0  0  0  0  0  0  0  0  0  0  0  0
    8.4402    2.6274    0.0000 H   0  0  0  0  0  0  0  0  0  0  0  0
    8.0666    3.4206    0.0000 H   0  0  0  0  0  0  0  0  0  0  0  0
    7.2734    3.0470    0.0000 H   0  0  0  0  0  0  0  0  0  0  0  0
   10.2712   -1.3543    0.0000 H   0  0  0  0  0  0  0  0  0  0  0  0
    6.1616    4.4331    0.0000 H   0  0  0  0  0  0  0  0  0  0  0  0
    5.3633    4.4331    0.0000 H   0  0  0  0  0  0  0  0  0  0  0  0
    7.2424    0.4065    0.0000 H   0  0  0  0  0  0  0  0  0  0  0  0
    7.0122   -0.4396    0.0000 H   0  0  0  0  0  0  0  0  0  0  0  0
    7.8583   -0.6698    0.0000 H   0  0  0  0  0  0  0  0  0  0  0  0
    8.9279   -1.7445    0.0000 H   0  0  0  0  0  0  0  0  0  0  0  0
    9.7261   -1.7506    0.0000 H   0  0  0  0  0  0  0  0  0  0  0  0
    5.2545    0.5775    0.0000 H   0  0  0  0  0  0  0  0  0  0  0  0
    7.7668    2.7647    0.0000 H   0  0  0  0  0  0  0  0  0  0  0  0
    7.6870    3.6378    0.0000 H   0  0  0  0  0  0  0  0  0  0  0  0
    6.8138    3.5581    0.0000 H   0  0  0  0  0  0  0  0  0  0  0  0
    3.5617    1.3417    0.0000 H   0  0  0  0  0  0  0  0  0  0  0  0
    4.3598    1.3601    0.0000 H   0  0  0  0  0  0  0  0  0  0  0  0
    4.3240    4.4550    0.0000 H   0  0  0  0  0  0  0  0  0  0  0  0
    3.5257    4.4550    0.0000 H   0  0  0  0  0  0  0  0  0  0  0  0
   11.3008    0.9147    0.0000 H   0  0  0  0  0  0  0  0  0  0  0  0
   11.0674    1.7599    0.0000 H   0  0  0  0  0  0  0  0  0  0  0  0
   10.2222    1.5264    0.0000 H   0  0  0  0  0  0  0  0  0  0  0  0
   11.2730   -0.2615    0.0000 H   0  0  0  0  0  0  0  0  0  0  0  0
   11.8882    0.3632    0.0000 H   0  0  0  0  0  0  0  0  0  0  0  0
   11.2634    0.9784    0.0000 H   0  0  0  0  0  0  0  0  0  0  0  0
    2.7715    4.0156    0.0000 H   0  0  0  0  0  0  0  0  0  0  0  0
    2.3777    3.3213    0.0000 H   0  0  0  0  0  0  0  0  0  0  0  0
    1.9904    2.9540    0.0000 H   0  0  0  0  0  0  0  0  0  0  0  0
    1.3801    2.3245    0.0000 H   0  0  0  0  0  0  0  0  0  0  0  0
    2.0096    1.7142    0.0000 H   0  0  0  0  0  0  0  0  0  0  0  0
    1.9716    1.7776    0.0000 H   0  0  0  0  0  0  0  0  0  0  0  0
    2.2116    0.9342    0.0000 H   0  0  0  0  0  0  0  0  0  0  0  0
    3.0549    1.1742    0.0000 H   0  0  0  0  0  0  0  0  0  0  0  0
   11.4675   -0.4243    0.0000 H   0  0  0  0  0  0  0  0  0  0  0  0
    3.9719    5.5443    0.0000 H   0  0  0  0  0  0  0  0  0  0  0  0
   13.4074   -1.5443    0.0000 H   0  0  0  0  0  0  0  0  0  0  0  0
   14.2734   -0.4243    0.0000 H   0  0  0  0  0  0  0  0  0  0  0  0
   13.2690    1.2407    0.0000 H   0  0  0  0  0  0  0  0  0  0  0  0
   12.4719    1.2407    0.0000 H   0  0  0  0  0  0  0  0  0  0  0  0
   13.7365    0.8857    0.0000 H   0  0  0  0  0  0  0  0  0  0  0  0
   12.0044   -2.1143    0.0000 H   0  0  0  0  0  0  0  0  0  0  0  0
   14.6025    1.3857    0.0000 H   0  0  0  0  0  0  0  0  0  0  0  0
   15.4685   -1.3543    0.0000 H   0  0  0  0  0  0  0  0  0  0  0  0
   12.0044   -4.3543    0.0000 H   0  0  0  0  0  0  0  0  0  0  0  0
   10.6015   -4.5443    0.0000 H   0  0  0  0  0  0  0  0  0  0  0  0
   16.8715   -1.5443    0.0000 H   0  0  0  0  0  0  0  0  0  0  0  0
   10.2724   -2.1143    0.0000 H   0  0  0  0  0  0  0  0  0  0  0  0
   10.2724   -4.3543    0.0000 H   0  0  0  0  0  0  0  0  0  0  0  0
   17.2006   -1.3543    0.0000 H   0  0  0  0  0  0  0  0  0  0  0  0
   15.7976    1.0757    0.0000 H   0  0  0  0  0  0  0  0  0  0  0  0
   13.4074   -3.9243    0.0000 H   0  0  0  0  0  0  0  0  0  0  0  0
   17.7375   -0.0443    0.0000 H   0  0  0  0  0  0  0  0  0  0  0  0
    9.8049   -1.7593    0.0000 H   0  0  0  0  0  0  0  0  0  0  0  0
    9.0078   -1.7593    0.0000 H   0  0  0  0  0  0  0  0  0  0  0  0
   11.6754   -5.5443    0.0000 H   0  0  0  0  0  0  0  0  0  0  0  0
   16.8715   -2.5443    0.0000 H   0  0  0  0  0  0  0  0  0  0  0  0
    9.4064   -4.8543    0.0000 H   0  0  0  0  0  0  0  0  0  0  0  0
   16.1225    2.3484    0.0000 H   0  0  0  0  0  0  0  0  0  0  0  0
   15.7240    1.6581    0.0000 H   0  0  0  0  0  0  0  0  0  0  0  0
   18.6036   -0.9243    0.0000 H   0  0  0  0  0  0  0  0  0  0  0  0
   18.6036    0.4557    0.0000 H   0  0  0  0  0  0  0  0  0  0  0  0
    8.0034   -2.4243    0.0000 H   0  0  0  0  0  0  0  0  0  0  0  0
   17.2006    2.8857    0.0000 H   0  0  0  0  0  0  0  0  0  0  0  0
 33  1  1  1  0  0  0
 48  1  1  6  0  0  0
  2 45  1  0  0  0  0
  2112  1  0  0  0  0
  3 45  2  0  0  0  0
  4 48  1  0  0  0  0
  4 51  1  0  0  0  0
 49  5  1  1  0  0  0
 53  5  1  6  0  0  0
 50  6  1  6  0  0  0
 54  6  1  1  0  0  0
 52  7  1  6  0  0  0
  7119  1  0  0  0  0
  8 53  1  0  0  0  0
  8 58  1  0  0  0  0
  9 54  1  0  0  0  0
  9 61  1  0  0  0  0
 55 10  1  6  0  0  0
 10128  1  0  0  0  0
 56 11  1  1  0  0  0
 11132  1  0  0  0  0
 57 12  1  1  0  0  0
 12133  1  0  0  0  0
 59 13  1  6  0  0  0
 13134  1  0  0  0  0
 60 14  1  6  0  0  0
 14137  1  0  0  0  0
 62 15  1  1  0  0  0
 15138  1  0  0  0  0
 16 63  1  0  0  0  0
 16139  1  0  0  0  0
 17 64  1  0  0  0  0
 17140  1  0  0  0  0
 18 19  1  0  0  0  0
 18 21  1  0  0  0  0
 18 23  1  0  0  0  0
 18 32  1  1  0  0  0
 19 20  1  0  0  0  0
 19 27  1  0  0  0  0
 19 65  1  6  0  0  0
 20 22  1  0  0  0  0
 20 28  1  0  0  0  0
 20 35  1  1  0  0  0
 21 26  1  0  0  0  0
 21 30  1  0  0  0  0
 21 38  1  6  0  0  0
 22 24  1  0  0  0  0
 22 25  1  0  0  0  0
 22 66  1  0  0  0  0
 23 25  1  0  0  0  0
 23 67  1  0  0  0  0
 23 68  1  0  0  0  0
 24 33  1  0  0  0  0
 24 42  1  0  0  0  0
 24 43  1  0  0  0  0
 25 69  1  0  0  0  0
 25 70  1  0  0  0  0
 26 29  1  0  0  0  0
 26 37  2  0  0  0  0
 27 37  1  0  0  0  0
 27 71  1  0  0  0  0
 27 72  1  0  0  0  0
 28 36  1  0  0  0  0
 28 73  1  0  0  0  0
 28 74  1  0  0  0  0
 29 31  1  0  0  0  0
 29 39  1  0  0  0  0
 29 75  1  6  0  0  0
 30 34  1  0  0  0  0
 30 76  1  0  0  0  0
 30 77  1  0  0  0  0
 31 34  1  0  0  0  0
 31 40  1  0  0  0  0
 31 45  1  1  0  0  0
 32 78  1  0  0  0  0
 32 79  1  0  0  0  0
 32 80  1  0  0  0  0
 33 36  1  0  0  0  0
 33 81  1  0  0  0  0
 34 82  1  0  0  0  0
 34 83  1  0  0  0  0
 35 84  1  0  0  0  0
 35 85  1  0  0  0  0
 35 86  1  0  0  0  0
 36 87  1  0  0  0  0
 36 88  1  0  0  0  0
 37 89  1  0  0  0  0
 38 90  1  0  0  0  0
 38 91  1  0  0  0  0
 38 92  1  0  0  0  0
 39 41  1  0  0  0  0
 39 93  1  0  0  0  0
 39 94  1  0  0  0  0
 40 44  1  0  0  0  0
 40 95  1  0  0  0  0
 40 96  1  0  0  0  0
 41 44  1  0  0  0  0
 41 46  1  0  0  0  0
 41 47  1  0  0  0  0
 42 97  1  0  0  0  0
 42 98  1  0  0  0  0
 42 99  1  0  0  0  0
 43100  1  0  0  0  0
 43101  1  0  0  0  0
 43102  1  0  0  0  0
 44103  1  0  0  0  0
 44104  1  0  0  0  0
 46105  1  0  0  0  0
 46106  1  0  0  0  0
 46107  1  0  0  0  0
 47108  1  0  0  0  0
 47109  1  0  0  0  0
 47110  1  0  0  0  0
 48 49  1  0  0  0  0
 48111  1  0  0  0  0
 49 50  1  0  0  0  0
 49113  1  0  0  0  0
 50 52  1  0  0  0  0
 50114  1  0  0  0  0
 51 52  1  0  0  0  0
 51115  1  0  0  0  0
 51116  1  0  0  0  0
 52117  1  0  0  0  0
 53 55  1  0  0  0  0
 53118  1  0  0  0  0
 54 57  1  0  0  0  0
 54120  1  0  0  0  0
 55 56  1  0  0  0  0
 55121  1  0  0  0  0
 56 59  1  0  0  0  0
 56122  1  0  0  0  0
 57 60  1  0  0  0  0
 57123  1  0  0  0  0
 58 59  1  0  0  0  0
 58 63  1  1  0  0  0
 58124  1  0  0  0  0
 59125  1  0  0  0  0
 60 62  1  0  0  0  0
 60126  1  0  0  0  0
 61 62  1  0  0  0  0
 61 64  1  6  0  0  0
 61127  1  0  0  0  0
 62129  1  0  0  0  0
 63130  1  0  0  0  0
 63131  1  0  0  0  0
 64135  1  0  0  0  0
 64136  1  0  0  0  0
M  END
> <PUBCHEM_COMPOUND_CID>
44147768

> <PUBCHEM_COMPOUND_CANONICALIZED>
1

> <PUBCHEM_CACTVS_COMPLEXITY>
1740

> <PUBCHEM_CACTVS_HBOND_ACCEPTOR>
17

> <PUBCHEM_CACTVS_HBOND_DONOR>
10

> <PUBCHEM_CACTVS_ROTATABLE_BOND>
9

> <PUBCHEM_CACTVS_SUBSKEYS>
AAADcfB8PgAAAAAAAAAAAAAAAAAAAAAAAAA0aNGCAAAAAADAAAAAGgAACAAADxSwgAMCCAAABgCIAiDSCAAAAAAgAAAACAEAAAgREBIAAQAiQAAFgAAPAAPI6PyPgAAAAAAAAADAAAYAADAAAAAAAAAAAA==

> <PUBCHEM_IUPAC_OPENEYE_NAME>
(4aS,6aR,6aS,6bR,10S,12aR,14bR)-10-[(2S,3R,4S,5S)-5-hydroxy-3,4-bis[[(2R,3R,4S,5S,6R)-3,4,5-trihydroxy-6-(hydroxymethyl)tetrahydropyran-2-yl]oxy]tetrahydropyran-2-yl]oxy-2,2,6a,6b,9,9,12a-heptamethyl-1,3,4,5,6,6a,7,8,8a,10,11,12,13,14b-tetradecahydropicene-4a-carboxylic acid

> <PUBCHEM_IUPAC_CAS_NAME>
(4aS,6aR,6aS,6bR,10S,12aR,14bR)-10-[[(2S,3R,4S,5S)-5-hydroxy-3,4-bis[[(2R,3R,4S,5S,6R)-3,4,5-trihydroxy-6-(hydroxymethyl)-2-oxanyl]oxy]-2-oxanyl]oxy]-2,2,6a,6b,9,9,12a-heptamethyl-1,3,4,5,6,6a,7,8,8a,10,11,12,13,14b-tetradecahydropicene-4a-carboxylic acid

> <PUBCHEM_IUPAC_NAME_MARKUP>
(4<I>a</I><I>S</I>,6<I>a</I><I>R</I>,6<I>a</I><I>S</I>,6<I>b</I><I>R</I>,10<I>S</I>,12<I>a</I><I>R</I>,14<I>b</I><I>R</I>)-10-[(2<I>S</I>,3<I>R</I>,4<I>S</I>,5<I>S</I>)-5-hydroxy-3,4-bis[[(2<I>R</I>,3<I>R</I>,4<I>S</I>,5<I>S</I>,6<I>R</I>)-3,4,5-trihydroxy-6-(hydroxymethyl)oxan-2-yl]oxy]oxan-2-yl]oxy-2,2,6<I>a</I>,6<I>b</I>,9,9,12<I>a</I>-heptamethyl-1,3,4,5,6,6<I>a</I>,7,8,8<I>a</I>,10,11,12,13,14<I>b</I>-tetradecahydropicene-4<I>a</I>-carboxylic acid

> <PUBCHEM_IUPAC_NAME>
(4aS,6aR,6aS,6bR,10S,12aR,14bR)-10-[(2S,3R,4S,5S)-5-hydroxy-3,4-bis[[(2R,3R,4S,5S,6R)-3,4,5-trihydroxy-6-(hydroxymethyl)oxan-2-yl]oxy]oxan-2-yl]oxy-2,2,6a,6b,9,9,12a-heptamethyl-1,3,4,5,6,6a,7,8,8a,10,11,12,13,14b-tetradecahydropicene-4a-carboxylic acid

> <PUBCHEM_IUPAC_SYSTEMATIC_NAME>
(4aS,6aR,6aS,6bR,10S,12aR,14bR)-10-[(2S,3R,4S,5S)-3,4-bis[[(2R,3R,4S,5S,6R)-6-(hydroxymethyl)-3,4,5-tris(oxidanyl)oxan-2-yl]oxy]-5-oxidanyl-oxan-2-yl]oxy-2,2,6a,6b,9,9,12a-heptamethyl-1,3,4,5,6,6a,7,8,8a,10,11,12,13,14b-tetradecahydropicene-4a-carboxylic acid

> <PUBCHEM_IUPAC_TRADITIONAL_NAME>
(4aS,6aR,6aS,6bR,10S,12aR,14bR)-10-[(2S,3R,4S,5S)-5-hydroxy-3,4-bis[[(2R,3R,4S,5S,6R)-3,4,5-trihydroxy-6-methylol-tetrahydropyran-2-yl]oxy]tetrahydropyran-2-yl]oxy-2,2,6a,6b,9,9,12a-heptamethyl-1,3,4,5,6,6a,7,8,8a,10,11,12,13,14b-tetradecahydropicene-4a-carboxylic acid

> <PUBCHEM_IUPAC_INCHI>
InChI=1S/C47H76O17/c1-42(2)14-16-47(41(57)58)17-15-45(6)22(23(47)18-42)8-9-28-44(5)12-11-29(43(3,4)27(44)10-13-46(28,45)7)62-40-37(64-39-35(56)33(54)31(52)26(20-49)61-39)36(24(50)21-59-40)63-38-34(55)32(53)30(51)25(19-48)60-38/h8,23-40,48-56H,9-21H2,1-7H3,(H,57,58)/t23-,24+,25-,26-,27?,28-,29+,30-,31-,32+,33+,34-,35-,36+,37-,38-,39-,40+,44+,45-,46-,47+/m1/s1

> <PUBCHEM_IUPAC_INCHIKEY>
CZSSCQGYTZXTSU-KZJMCOEVSA-N

> <PUBCHEM_XLOGP3_AA>
2.8

> <PUBCHEM_EXACT_MASS>
912.508251

> <PUBCHEM_MOLECULAR_FORMULA>
C47H76O17

> <PUBCHEM_MOLECULAR_WEIGHT>
913.1

> <PUBCHEM_OPENEYE_CAN_SMILES>
CC1(CCC2(CCC3(C(=CCC4C3(CCC5C4(CCC(C5(C)C)OC6C(C(C(CO6)O)OC7C(C(C(C(O7)CO)O)O)O)OC8C(C(C(C(O8)CO)O)O)O)C)C)C2C1)C)C(=O)O)C

> <PUBCHEM_OPENEYE_ISO_SMILES>
C[C@]12CC[C@@H](C(C1CC[C@@]3([C@@H]2CC=C4[C@]3(CC[C@@]5([C@@H]4CC(CC5)(C)C)C(=O)O)C)C)(C)C)O[C@H]6[C@@H]([C@H]([C@H](CO6)O)O[C@@H]7[C@@H]([C@H]([C@@H]([C@H](O7)CO)O)O)O)O[C@@H]8[C@@H]([C@H]([C@@H]([C@H](O8)CO)O)O)O

> <PUBCHEM_CACTVS_TPSA>
275

> <PUBCHEM_MONOISOTOPIC_WEIGHT>
912.508251

> <PUBCHEM_TOTAL_CHARGE>
0

> <PUBCHEM_HEAVY_ATOM_COUNT>
64

> <PUBCHEM_ATOM_DEF_STEREO_COUNT>
21

> <PUBCHEM_ATOM_UDEF_STEREO_COUNT>
1

> <PUBCHEM_BOND_DEF_STEREO_COUNT>
0

> <PUBCHEM_BOND_UDEF_STEREO_COUNT>
0

> <PUBCHEM_ISOTOPIC_ATOM_COUNT>
0

> <PUBCHEM_COMPONENT_COUNT>
1

> <PUBCHEM_CACTVS_TAUTO_COUNT>
-1

> <PUBCHEM_COORDINATE_TYPE>
1
5
255

> <PUBCHEM_BONDANNOTATIONS>
33  1  5
48  1  6
55  10  6
56  11  5
57  12  5
59  13  6
60  14  6
62  15  5
18  32  5
19  65  6
20  35  5
21  38  6
22  25  3
29  75  6
31  45  5
49  5  5
53  5  6
58  63  5
50  6  6
54  6  5
61  64  6
52  7  6

$$$$
