521569
  -OEChem-09062010393D

 39 40  0     1  0  0  0  0  0999 V2000
   -0.7669    0.6466    0.3303 C   0  0  1  0  0  0  0  0  0  0  0  0
   -1.6466    1.3107   -0.7755 C   0  0  1  0  0  0  0  0  0  0  0  0
   -1.1853   -0.7022   -0.3370 C   0  0  2  0  0  0  0  0  0  0  0  0
   -1.1804    0.1211   -1.6707 C   0  0  0  0  0  0  0  0  0  0  0  0
   -3.1435    1.2865   -0.4248 C   0  0  0  0  0  0  0  0  0  0  0  0
    0.7169    0.9614    0.2165 C   0  0  0  0  0  0  0  0  0  0  0  0
   -2.5641   -1.1092    0.0870 C   0  0  0  0  0  0  0  0  0  0  0  0
   -3.6656   -0.1582   -0.3038 C   0  0  0  0  0  0  0  0  0  0  0  0
   -1.1808    0.8617    1.7729 C   0  0  0  0  0  0  0  0  0  0  0  0
    1.5681   -0.0988    0.9148 C   0  0  0  0  0  0  0  0  0  0  0  0
   -2.7420   -2.2140    0.8206 C   0  0  0  0  0  0  0  0  0  0  0  0
    3.0312    0.2301    0.8217 C   0  0  0  0  0  0  0  0  0  0  0  0
    3.9132   -0.1926   -0.1037 C   0  0  0  0  0  0  0  0  0  0  0  0
    5.3696    0.1748   -0.1401 C   0  0  0  0  0  0  0  0  0  0  0  0
    3.4763   -1.1177   -1.2082 C   0  0  0  0  0  0  0  0  0  0  0  0
   -1.3153    2.3014   -1.1037 H   0  0  0  0  0  0  0  0  0  0  0  0
   -0.4755   -1.5327   -0.3360 H   0  0  0  0  0  0  0  0  0  0  0  0
   -0.2105    0.2249   -2.1675 H   0  0  0  0  0  0  0  0  0  0  0  0
   -1.8863   -0.2009   -2.4446 H   0  0  0  0  0  0  0  0  0  0  0  0
   -3.7086    1.7904   -1.2190 H   0  0  0  0  0  0  0  0  0  0  0  0
   -3.3443    1.8616    0.4855 H   0  0  0  0  0  0  0  0  0  0  0  0
    1.0559    1.0570   -0.8206 H   0  0  0  0  0  0  0  0  0  0  0  0
    0.9218    1.9465    0.6592 H   0  0  0  0  0  0  0  0  0  0  0  0
   -4.0575   -0.4746   -1.2790 H   0  0  0  0  0  0  0  0  0  0  0  0
   -4.5043   -0.1912    0.4007 H   0  0  0  0  0  0  0  0  0  0  0  0
   -0.9349    1.8771    2.1052 H   0  0  0  0  0  0  0  0  0  0  0  0
   -2.2492    0.7318    1.9622 H   0  0  0  0  0  0  0  0  0  0  0  0
   -0.6883    0.1600    2.4530 H   0  0  0  0  0  0  0  0  0  0  0  0
    1.3781   -1.1047    0.5342 H   0  0  0  0  0  0  0  0  0  0  0  0
    1.3312   -0.1535    1.9826 H   0  0  0  0  0  0  0  0  0  0  0  0
   -1.9097   -2.8506    1.1017 H   0  0  0  0  0  0  0  0  0  0  0  0
   -3.7311   -2.5052    1.1582 H   0  0  0  0  0  0  0  0  0  0  0  0
    3.3965    0.9048    1.5948 H   0  0  0  0  0  0  0  0  0  0  0  0
    5.6082    0.7011   -1.0697 H   0  0  0  0  0  0  0  0  0  0  0  0
    5.6408    0.8298    0.6945 H   0  0  0  0  0  0  0  0  0  0  0  0
    5.9914   -0.7239   -0.0758 H   0  0  0  0  0  0  0  0  0  0  0  0
    3.8875   -2.1189   -1.0425 H   0  0  0  0  0  0  0  0  0  0  0  0
    2.3938   -1.2084   -1.3214 H   0  0  0  0  0  0  0  0  0  0  0  0
    3.8525   -0.7511   -2.1701 H   0  0  0  0  0  0  0  0  0  0  0  0
  1  2  1  0  0  0  0
  1  3  1  0  0  0  0
  1  6  1  0  0  0  0
  1  9  1  0  0  0  0
  2  4  1  0  0  0  0
  2  5  1  0  0  0  0
  2 16  1  0  0  0  0
  3  4  1  0  0  0  0
  3  7  1  0  0  0  0
  3 17  1  0  0  0  0
  4 18  1  0  0  0  0
  4 19  1  0  0  0  0
  5  8  1  0  0  0  0
  5 20  1  0  0  0  0
  5 21  1  0  0  0  0
  6 10  1  0  0  0  0
  6 22  1  0  0  0  0
  6 23  1  0  0  0  0
  7  8  1  0  0  0  0
  7 11  2  0  0  0  0
  8 24  1  0  0  0  0
  8 25  1  0  0  0  0
  9 26  1  0  0  0  0
  9 27  1  0  0  0  0
  9 28  1  0  0  0  0
 10 12  1  0  0  0  0
 10 29  1  0  0  0  0
 10 30  1  0  0  0  0
 11 31  1  0  0  0  0
 11 32  1  0  0  0  0
 12 13  2  0  0  0  0
 12 33  1  0  0  0  0
 13 14  1  0  0  0  0
 13 15  1  0  0  0  0
 14 34  1  0  0  0  0
 14 35  1  0  0  0  0
 14 36  1  0  0  0  0
 15 37  1  0  0  0  0
 15 38  1  0  0  0  0
 15 39  1  0  0  0  0
M  END
> <PUBCHEM_COMPOUND_CID>
521569

> <PUBCHEM_CONFORMER_RMSD>
0.6

> <PUBCHEM_CONFORMER_DIVERSEORDER>
4
35
26
13
24
36
7
33
32
21
15
9
18
17
22
1
28
34
6
27
3
16
11
29
14
19
10
23
30
12
20
2
31
5
25
8

> <PUBCHEM_MMFF94_PARTIAL_CHARGES>
12
10 0.14
11 -0.3
12 -0.29
13 -0.28
14 0.14
15 0.14
3 0.12
31 0.15
32 0.15
33 0.15
7 -0.25
8 0.14

> <PUBCHEM_EFFECTIVE_ROTOR_COUNT>
3.8

> <PUBCHEM_PHARMACOPHORE_FEATURES>
2
3 13 14 15 hydrophobe
7 1 2 3 4 5 7 8 rings

> <PUBCHEM_HEAVY_ATOM_COUNT>
15

> <PUBCHEM_ATOM_DEF_STEREO_COUNT>
0

> <PUBCHEM_ATOM_UDEF_STEREO_COUNT>
3

> <PUBCHEM_BOND_DEF_STEREO_COUNT>
0

> <PUBCHEM_BOND_UDEF_STEREO_COUNT>
0

> <PUBCHEM_ISOTOPIC_ATOM_COUNT>
0

> <PUBCHEM_COMPONENT_COUNT>
1

> <PUBCHEM_CACTVS_TAUTO_COUNT>
1

> <PUBCHEM_CONFORMER_ID>
0007F56100000004

> <PUBCHEM_MMFF94_ENERGY>
43.114

> <PUBCHEM_FEATURE_SELFOVERLAP>
10.148

> <PUBCHEM_SHAPE_FINGERPRINT>
11315181 36 17775564218059328272
12077114 3 9007064552045860026
12173636 292 18042674005958510949
12186901 62 18334572404508643037
128620 24 18335421296668771852
13024252 1 14345793821294031181
13296908 3 18201993352655835600
14386348 63 18202566185413576390
15375358 24 18130779058377312734
15375462 189 16415480441892053466
15775835 57 17749104465946098186
16945 1 18114450211351551361
17802600 8 13840264788949441654
17804303 29 18336264639087803739
19107657 162 18272368698208945354
192875 21 15068339038596320342
200 152 17132108035419766876
20279233 1 18060414712304247134
20300324 65 17458344165057265288
20325693 3 18334297552170893295
20645477 70 17417528008812442686
20871999 31 18260826011912499780
21061003 4 17774723168240235569
22094290 60 18259702293886096700
22926399 37 14129057019262992007
23175994 123 17775004608999866497
23402539 116 15502367937645358942
23557571 272 18408040689498512580
23559900 14 18339070609604686480
351380 180 8430319021888441294
4921388 177 18041287616264320018

> <PUBCHEM_SHAPE_MULTIPOLES>
308.69
8.17
1.52
1.33
10.74
0.52
-0.03
1.21
0.94
-1.4
-0.14
-0.16
-0.07
0.78

> <PUBCHEM_SHAPE_SELFOVERLAP>
630.905

> <PUBCHEM_SHAPE_VOLUME>
181.9

> <PUBCHEM_COORDINATE_TYPE>
2
5
10

$$$$
