44259411
  -OEChem-09062004143D

 68 71  0     1  0  0  0  0  0999 V2000
    2.5394   -2.4643   -0.3285 O   0  0  0  0  0  0  0  0  0  0  0  0
    1.5404   -0.9508    1.1636 O   0  0  0  0  0  0  0  0  0  0  0  0
    5.8068    0.0378   -0.8727 O   0  0  0  0  0  0  0  0  0  0  0  0
    5.4544   -2.6875   -0.4914 O   0  0  0  0  0  0  0  0  0  0  0  0
    4.3204   -0.9119    1.3149 O   0  0  0  0  0  0  0  0  0  0  0  0
   -1.8598    0.2470    0.3941 O   0  0  0  0  0  0  0  0  0  0  0  0
    0.0345   -3.2885    1.1123 O   0  0  0  0  0  0  0  0  0  0  0  0
   -2.2275   -4.5665    0.8194 O   0  0  0  0  0  0  0  0  0  0  0  0
   -6.0499   -1.9397   -0.1552 O   0  0  0  0  0  0  0  0  0  0  0  0
    1.9458    5.2615    0.5961 O   0  0  0  0  0  0  0  0  0  0  0  0
    0.6768    4.3042   -1.6845 O   0  0  0  0  0  0  0  0  0  0  0  0
    4.5198   -0.5355   -1.0662 C   0  0  1  0  0  0  0  0  0  0  0  0
    4.6558   -2.0104   -1.4618 C   0  0  2  0  0  0  0  0  0  0  0  0
    3.6494   -0.3616    0.1798 C   0  0  1  0  0  0  0  0  0  0  0  0
    3.2639   -2.6542   -1.5532 C   0  0  1  0  0  0  0  0  0  0  0  0
    2.3162   -1.0850   -0.0233 C   0  0  1  0  0  0  0  0  0  0  0  0
    3.3165   -4.1536   -1.8210 C   0  0  0  0  0  0  0  0  0  0  0  0
    0.1898   -0.9359    0.8903 C   0  0  0  0  0  0  0  0  0  0  0  0
   -0.4969    0.1938    0.6397 C   0  0  0  0  0  0  0  0  0  0  0  0
   -0.5366   -2.2286    0.8927 C   0  0  0  0  0  0  0  0  0  0  0  0
   -1.9804   -2.1668    0.6185 C   0  0  0  0  0  0  0  0  0  0  0  0
   -2.5687   -0.9264    0.3828 C   0  0  0  0  0  0  0  0  0  0  0  0
   -3.9366   -0.8411    0.1217 C   0  0  0  0  0  0  0  0  0  0  0  0
    0.1420    1.5218    0.6255 C   0  0  0  0  0  0  0  0  0  0  0  0
   -2.7536   -3.3303    0.5955 C   0  0  0  0  0  0  0  0  0  0  0  0
   -4.5778    0.4862   -0.1320 C   0  0  0  0  0  0  0  0  0  0  0  0
   -4.7120   -2.0004    0.0975 C   0  0  0  0  0  0  0  0  0  0  0  0
   -4.1215   -3.2424    0.3341 C   0  0  0  0  0  0  0  0  0  0  0  0
    0.1102    2.2982   -0.5330 C   0  0  0  0  0  0  0  0  0  0  0  0
    0.7785    2.0025    1.7698 C   0  0  0  0  0  0  0  0  0  0  0  0
   -3.9906    1.2005   -1.3229 C   0  0  0  0  0  0  0  0  0  0  0  0
    0.7148    3.5551   -0.5472 C   0  0  0  0  0  0  0  0  0  0  0  0
    1.3834    3.2593    1.7555 C   0  0  0  0  0  0  0  0  0  0  0  0
    1.3514    4.0357    0.5971 C   0  0  0  0  0  0  0  0  0  0  0  0
   -3.8625    2.5274   -1.5143 C   0  0  0  0  0  0  0  0  0  0  0  0
   -3.2648    3.1747   -2.7311 C   0  0  0  0  0  0  0  0  0  0  0  0
   -4.3457    3.4978   -0.4693 C   0  0  0  0  0  0  0  0  0  0  0  0
    2.5746    5.6775    1.8070 C   0  0  0  0  0  0  0  0  0  0  0  0
    4.0455    0.0081   -1.8933 H   0  0  0  0  0  0  0  0  0  0  0  0
    5.1853   -2.0877   -2.4187 H   0  0  0  0  0  0  0  0  0  0  0  0
    3.4891    0.6992    0.4010 H   0  0  0  0  0  0  0  0  0  0  0  0
    2.6954   -2.1829   -2.3656 H   0  0  0  0  0  0  0  0  0  0  0  0
    1.7985   -0.6205   -0.8758 H   0  0  0  0  0  0  0  0  0  0  0  0
    3.7457   -4.6995   -0.9741 H   0  0  0  0  0  0  0  0  0  0  0  0
    3.8958   -4.3772   -2.7217 H   0  0  0  0  0  0  0  0  0  0  0  0
    2.3023   -4.5463   -1.9547 H   0  0  0  0  0  0  0  0  0  0  0  0
    6.3129   -0.0926   -1.6928 H   0  0  0  0  0  0  0  0  0  0  0  0
    5.6953   -3.5545   -0.8591 H   0  0  0  0  0  0  0  0  0  0  0  0
    5.1811   -0.4651    1.3874 H   0  0  0  0  0  0  0  0  0  0  0  0
   -5.6542    0.3880   -0.3112 H   0  0  0  0  0  0  0  0  0  0  0  0
   -4.4720    1.0744    0.7866 H   0  0  0  0  0  0  0  0  0  0  0  0
   -4.7234   -4.1480    0.3161 H   0  0  0  0  0  0  0  0  0  0  0  0
   -0.3823    1.9237   -1.4280 H   0  0  0  0  0  0  0  0  0  0  0  0
    0.8077    1.4154    2.6847 H   0  0  0  0  0  0  0  0  0  0  0  0
   -3.6530    0.5557   -2.1348 H   0  0  0  0  0  0  0  0  0  0  0  0
    1.8578    3.5679    2.6806 H   0  0  0  0  0  0  0  0  0  0  0  0
   -1.2738   -4.5063    0.9824 H   0  0  0  0  0  0  0  0  0  0  0  0
   -6.4194   -2.8390   -0.1313 H   0  0  0  0  0  0  0  0  0  0  0  0
   -4.0106    3.7916   -3.2424 H   0  0  0  0  0  0  0  0  0  0  0  0
   -2.4189    3.8094   -2.4484 H   0  0  0  0  0  0  0  0  0  0  0  0
   -2.8989    2.4294   -3.4450 H   0  0  0  0  0  0  0  0  0  0  0  0
   -3.4913    3.9418    0.0521 H   0  0  0  0  0  0  0  0  0  0  0  0
   -4.9119    4.3070   -0.9444 H   0  0  0  0  0  0  0  0  0  0  0  0
   -5.0132    3.0588    0.2756 H   0  0  0  0  0  0  0  0  0  0  0  0
    0.1963    3.8124   -2.3723 H   0  0  0  0  0  0  0  0  0  0  0  0
    2.9942    6.6727    1.6265 H   0  0  0  0  0  0  0  0  0  0  0  0
    3.4119    5.0231    2.0724 H   0  0  0  0  0  0  0  0  0  0  0  0
    1.8510    5.7810    2.6227 H   0  0  0  0  0  0  0  0  0  0  0  0
  1 15  1  0  0  0  0
  1 16  1  0  0  0  0
  2 16  1  0  0  0  0
  2 18  1  0  0  0  0
  3 12  1  0  0  0  0
  3 47  1  0  0  0  0
  4 13  1  0  0  0  0
  4 48  1  0  0  0  0
  5 14  1  0  0  0  0
  5 49  1  0  0  0  0
  6 19  1  0  0  0  0
  6 22  1  0  0  0  0
  7 20  2  0  0  0  0
  8 25  1  0  0  0  0
  8 57  1  0  0  0  0
  9 27  1  0  0  0  0
  9 58  1  0  0  0  0
 10 34  1  0  0  0  0
 10 38  1  0  0  0  0
 11 32  1  0  0  0  0
 11 65  1  0  0  0  0
 12 13  1  0  0  0  0
 12 14  1  0  0  0  0
 12 39  1  0  0  0  0
 13 15  1  0  0  0  0
 13 40  1  0  0  0  0
 14 16  1  0  0  0  0
 14 41  1  0  0  0  0
 15 17  1  0  0  0  0
 15 42  1  0  0  0  0
 16 43  1  0  0  0  0
 17 44  1  0  0  0  0
 17 45  1  0  0  0  0
 17 46  1  0  0  0  0
 18 19  2  0  0  0  0
 18 20  1  0  0  0  0
 19 24  1  0  0  0  0
 20 21  1  0  0  0  0
 21 22  1  0  0  0  0
 21 25  2  0  0  0  0
 22 23  2  0  0  0  0
 23 26  1  0  0  0  0
 23 27  1  0  0  0  0
 24 29  2  0  0  0  0
 24 30  1  0  0  0  0
 25 28  1  0  0  0  0
 26 31  1  0  0  0  0
 26 50  1  0  0  0  0
 26 51  1  0  0  0  0
 27 28  2  0  0  0  0
 28 52  1  0  0  0  0
 29 32  1  0  0  0  0
 29 53  1  0  0  0  0
 30 33  2  0  0  0  0
 30 54  1  0  0  0  0
 31 35  2  0  0  0  0
 31 55  1  0  0  0  0
 32 34  2  0  0  0  0
 33 34  1  0  0  0  0
 33 56  1  0  0  0  0
 35 36  1  0  0  0  0
 35 37  1  0  0  0  0
 36 59  1  0  0  0  0
 36 60  1  0  0  0  0
 36 61  1  0  0  0  0
 37 62  1  0  0  0  0
 37 63  1  0  0  0  0
 37 64  1  0  0  0  0
 38 66  1  0  0  0  0
 38 67  1  0  0  0  0
 38 68  1  0  0  0  0
M  END
> <PUBCHEM_COMPOUND_CID>
44259411

> <PUBCHEM_CONFORMER_RMSD>
1

> <PUBCHEM_CONFORMER_DIVERSEORDER>
2
109
138
141
143
112
139
99
15
76
47
82
134
87
81
59
116
86
63
118
122
126
104
133
38
50
90
74
108
113
117
62
30
114
78
105
95
147
94
142
136
69
33
119
58
137
115
24
49
123
48
5
75
98
35
97
66
51
29
39
88
93
79
68
106
11
124
100
22
140
120
144
96
146
54
9
42
77
56
53
92
125
102
34
72
37
131
7
40
130
129
73
101
83
132
28
107
52
23
36
55
64
32
103
145
111
43
70
110
4
16
84
21
3
6
127
10
128
60
1
135
89
91
65
12
17
85
46
45
14
61
67
71
44
80
18
31
8
57
121
20
13
27
19
41
26
25

> <PUBCHEM_MMFF94_PARTIAL_CHARGES>
48
1 -0.56
10 -0.36
11 -0.53
12 0.28
13 0.28
14 0.28
15 0.28
16 0.56
18 0.09
19 0.05
2 -0.36
20 0.47
21 0.09
22 0.08
23 -0.14
24 0.03
25 0.08
26 0.28
27 0.08
28 -0.15
29 -0.15
3 -0.68
30 -0.15
31 -0.29
32 0.08
33 -0.15
34 0.08
35 -0.28
36 0.14
37 0.14
38 0.28
4 -0.68
47 0.4
48 0.4
49 0.4
5 -0.68
52 0.15
53 0.15
54 0.15
55 0.15
56 0.15
57 0.45
58 0.45
6 -0.16
65 0.45
7 -0.57
8 -0.53
9 -0.53

> <PUBCHEM_EFFECTIVE_ROTOR_COUNT>
7.2

> <PUBCHEM_PHARMACOPHORE_FEATURES>
19
1 1 acceptor
1 10 acceptor
1 11 donor
1 2 acceptor
1 3 acceptor
1 3 donor
1 4 acceptor
1 4 donor
1 5 acceptor
1 5 donor
1 6 acceptor
1 7 acceptor
1 8 donor
1 9 donor
3 35 36 37 hydrophobe
6 1 12 13 14 15 16 rings
6 21 22 23 25 27 28 rings
6 24 29 30 32 33 34 rings
6 6 18 19 20 21 22 rings

> <PUBCHEM_HEAVY_ATOM_COUNT>
38

> <PUBCHEM_ATOM_DEF_STEREO_COUNT>
3

> <PUBCHEM_ATOM_UDEF_STEREO_COUNT>
2

> <PUBCHEM_BOND_DEF_STEREO_COUNT>
0

> <PUBCHEM_BOND_UDEF_STEREO_COUNT>
0

> <PUBCHEM_ISOTOPIC_ATOM_COUNT>
0

> <PUBCHEM_COMPONENT_COUNT>
1

> <PUBCHEM_CACTVS_TAUTO_COUNT>
36

> <PUBCHEM_CONFORMER_ID>
02A3585300000002

> <PUBCHEM_MMFF94_ENERGY>
124.5622

> <PUBCHEM_FEATURE_SELFOVERLAP>
96.537

> <PUBCHEM_SHAPE_FINGERPRINT>
10581848 31 18339375105558942681
10675989 125 17615684038584794039
11513181 2 17980759660322262159
12156800 1 15867400339437982132
12788726 201 17835232346843770656
13140716 1 18117555348332460699
13540713 4 17974008642128117659
13911987 19 17974290911362210157
140371 6 18271537463007179442
14114211 80 17979073787422934141
14790565 3 17689720757932588825
14955137 171 18122375443809034667
15324884 4 18130781309220335770
15439362 3 18053103105570633657
15775530 1 18266440178672292913
15927050 60 17264413627527517590
15968369 26 18267279046210812180
17909252 39 18266748058970867305
19311894 1 18126008157392402187
20771845 165 17832990825188453504
20775438 99 18125127533892246836
21033650 10 17822871766095235710
22311459 1 18408318913322760451
23559900 14 18268711799681006115
24771750 20 17831316247123686686
350125 39 18335420158792718881
46194498 28 18267862959703770119
5171179 24 18411133679825948493
5283173 99 18334861571751084582
57527358 35 14782364640992927605
6669772 16 17410507897705234388

> <PUBCHEM_SHAPE_MULTIPOLES>
717.46
10.59
7.77
1.77
0.3
7
-0.62
-6.51
-4.21
1.84
0.77
0.42
1.15
4.85

> <PUBCHEM_SHAPE_SELFOVERLAP>
1556.426

> <PUBCHEM_SHAPE_VOLUME>
388.8

> <PUBCHEM_COORDINATE_TYPE>
2
5
10

$$$$
