5748394
  -OEChem-09062004052D

108113  0     1  0  0  0  0  0999 V2000
    6.8779   -3.6913    0.0000 O   0  0  0  0  0  0  0  0  0  0  0  0
    5.1459   -1.6913    0.0000 O   0  0  0  0  0  0  0  0  0  0  0  0
    6.0119   -5.1913    0.0000 O   0  0  0  0  0  0  0  0  0  0  0  0
    6.8779   -1.6913    0.0000 O   0  0  0  0  0  0  0  0  0  0  0  0
    5.1459   -4.6913    0.0000 O   0  0  0  0  0  0  0  0  0  0  0  0
    3.4138   -3.6913    0.0000 O   0  0  0  0  0  0  0  0  0  0  0  0
    8.6100   -4.6913    0.0000 O   0  0  0  0  0  0  0  0  0  0  0  0
    8.6100   -6.6913    0.0000 O   0  0  0  0  0  0  0  0  0  0  0  0
    6.8779   -7.6913    0.0000 O   0  0  0  0  0  0  0  0  0  0  0  0
    5.1396    5.3813    0.0000 O   0  0  0  0  0  0  0  0  0  0  0  0
    5.9998    3.8780    0.0000 O   0  0  0  0  0  0  0  0  0  0  0  0
    2.5357    3.8913    0.0000 O   0  0  0  0  0  0  0  0  0  0  0  0
    2.5434    5.8913    0.0000 O   0  0  0  0  0  0  0  0  0  0  0  0
    4.2639    2.8847    0.0000 O   0  0  0  0  0  0  0  0  0  0  0  0
    7.7440    0.8087    0.0000 O   0  0  0  0  0  0  0  0  0  0  0  0
    5.1473    7.3813    0.0000 O   0  0  0  0  0  0  0  0  0  0  0  0
    5.1459   -0.6913    0.0000 O   0  0  0  0  0  0  0  0  0  0  0  0
    4.2417    0.8056    0.0000 O   0  0  0  0  0  0  0  0  0  0  0  0
   11.2081   -2.1913    0.0000 O   0  0  0  0  0  0  0  0  0  0  0  0
    6.0119   -3.1913    0.0000 C   0  0  2  0  0  0  0  0  0  0  0  0
    5.1459   -3.6913    0.0000 C   0  0  1  0  0  0  0  0  0  0  0  0
    4.2799   -3.1913    0.0000 C   0  0  2  0  0  0  0  0  0  0  0  0
    6.8779   -4.6913    0.0000 C   0  0  2  0  0  0  0  0  0  0  0  0
    6.0119   -2.1913    0.0000 C   0  0  1  0  0  0  0  0  0  0  0  0
    7.7440   -5.1913    0.0000 C   0  0  1  0  0  0  0  0  0  0  0  0
    4.2799   -2.1913    0.0000 C   0  0  2  0  0  0  0  0  0  0  0  0
    7.7440   -6.1913    0.0000 C   0  0  1  0  0  0  0  0  0  0  0  0
    6.8779   -6.6913    0.0000 C   0  0  2  0  0  0  0  0  0  0  0  0
    6.0119   -6.1913    0.0000 C   0  0  2  0  0  0  0  0  0  0  0  0
    3.4138   -1.6913    0.0000 C   0  0  0  0  0  0  0  0  0  0  0  0
    5.1459   -6.6913    0.0000 C   0  0  0  0  0  0  0  0  0  0  0  0
    3.4037    4.3880    0.0000 C   0  0  1  0  0  0  0  0  0  0  0  0
    3.4075    5.3880    0.0000 C   0  0  1  0  0  0  0  0  0  0  0  0
    4.2678    3.8846    0.0000 C   0  0  2  0  0  0  0  0  0  0  0  0
    4.2755    5.8846    0.0000 C   0  0  1  0  0  0  0  0  0  0  0  0
    5.1357    4.3813    0.0000 C   0  0  1  0  0  0  0  0  0  0  0  0
    6.8779   -0.6913    0.0000 C   0  0  0  0  0  0  0  0  0  0  0  0
    4.2793    6.8846    0.0000 C   0  0  0  0  0  0  0  0  0  0  0  0
    7.7440   -0.1913    0.0000 C   0  0  0  0  0  0  0  0  0  0  0  0
    6.0119   -0.1913    0.0000 C   0  0  0  0  0  0  0  0  0  0  0  0
    6.0119    0.8087    0.0000 C   0  0  0  0  0  0  0  0  0  0  0  0
    5.9960    2.8780    0.0000 C   0  0  0  0  0  0  0  0  0  0  0  0
    6.8779    1.3087    0.0000 C   0  0  0  0  0  0  0  0  0  0  0  0
    6.8940    2.3502    0.0000 C   0  0  0  0  0  0  0  0  0  0  0  0
    5.1019    1.3156    0.0000 C   0  0  0  0  0  0  0  0  0  0  0  0
    5.0939    2.3572    0.0000 C   0  0  0  0  0  0  0  0  0  0  0  0
    8.6100   -0.6913    0.0000 C   0  0  0  0  0  0  0  0  0  0  0  0
    7.7657    2.8402    0.0000 C   0  0  0  0  0  0  0  0  0  0  0  0
    7.7773    3.8401    0.0000 C   0  0  0  0  0  0  0  0  0  0  0  0
    8.6100   -1.6913    0.0000 C   0  0  0  0  0  0  0  0  0  0  0  0
    9.4760   -0.1913    0.0000 C   0  0  0  0  0  0  0  0  0  0  0  0
    9.4760   -2.1913    0.0000 C   0  0  0  0  0  0  0  0  0  0  0  0
   10.3420   -0.6913    0.0000 C   0  0  0  0  0  0  0  0  0  0  0  0
    8.6491    4.3301    0.0000 C   0  0  0  0  0  0  0  0  0  0  0  0
   10.3420   -1.6913    0.0000 C   0  0  0  0  0  0  0  0  0  0  0  0
    8.6606    5.3300    0.0000 C   0  0  0  0  0  0  0  0  0  0  0  0
    9.5092    3.8201    0.0000 C   0  0  0  0  0  0  0  0  0  0  0  0
   12.0741   -1.6913    0.0000 C   0  0  0  0  0  0  0  0  0  0  0  0
    6.0119   -3.8113    0.0000 H   0  0  0  0  0  0  0  0  0  0  0  0
    4.6090   -4.0013    0.0000 H   0  0  0  0  0  0  0  0  0  0  0  0
    3.7429   -2.8813    0.0000 H   0  0  0  0  0  0  0  0  0  0  0  0
    7.4149   -4.3813    0.0000 H   0  0  0  0  0  0  0  0  0  0  0  0
    6.0119   -1.5713    0.0000 H   0  0  0  0  0  0  0  0  0  0  0  0
    8.2809   -5.5013    0.0000 H   0  0  0  0  0  0  0  0  0  0  0  0
    4.2799   -1.5713    0.0000 H   0  0  0  0  0  0  0  0  0  0  0  0
    8.2809   -5.8813    0.0000 H   0  0  0  0  0  0  0  0  0  0  0  0
    7.4149   -7.0013    0.0000 H   0  0  0  0  0  0  0  0  0  0  0  0
    5.4750   -5.8813    0.0000 H   0  0  0  0  0  0  0  0  0  0  0  0
    3.7238   -1.1543    0.0000 H   0  0  0  0  0  0  0  0  0  0  0  0
    2.8769   -1.3813    0.0000 H   0  0  0  0  0  0  0  0  0  0  0  0
    3.1038   -2.2282    0.0000 H   0  0  0  0  0  0  0  0  0  0  0  0
    4.8359   -6.1543    0.0000 H   0  0  0  0  0  0  0  0  0  0  0  0
    4.6090   -7.0013    0.0000 H   0  0  0  0  0  0  0  0  0  0  0  0
    5.4559   -7.2282    0.0000 H   0  0  0  0  0  0  0  0  0  0  0  0
    3.9394    4.0759    0.0000 H   0  0  0  0  0  0  0  0  0  0  0  0
    2.8694    5.0800    0.0000 H   0  0  0  0  0  0  0  0  0  0  0  0
    4.6090   -5.0013    0.0000 H   0  0  0  0  0  0  0  0  0  0  0  0
    3.7296    3.5767    0.0000 H   0  0  0  0  0  0  0  0  0  0  0  0
    4.8136    6.1926    0.0000 H   0  0  0  0  0  0  0  0  0  0  0  0
    2.8769   -3.3813    0.0000 H   0  0  0  0  0  0  0  0  0  0  0  0
    5.1333    3.7613    0.0000 H   0  0  0  0  0  0  0  0  0  0  0  0
    9.1469   -5.0013    0.0000 H   0  0  0  0  0  0  0  0  0  0  0  0
    8.6100   -7.3113    0.0000 H   0  0  0  0  0  0  0  0  0  0  0  0
    6.3410   -8.0013    0.0000 H   0  0  0  0  0  0  0  0  0  0  0  0
    4.0695    7.4680    0.0000 H   0  0  0  0  0  0  0  0  0  0  0  0
    3.6684    6.7793    0.0000 H   0  0  0  0  0  0  0  0  0  0  0  0
    2.0000    4.2034    0.0000 H   0  0  0  0  0  0  0  0  0  0  0  0
    2.5458    6.5113    0.0000 H   0  0  0  0  0  0  0  0  0  0  0  0
    3.7258    2.5767    0.0000 H   0  0  0  0  0  0  0  0  0  0  0  0
    4.5558    2.6651    0.0000 H   0  0  0  0  0  0  0  0  0  0  0  0
    7.9710    2.2552    0.0000 H   0  0  0  0  0  0  0  0  0  0  0  0
    8.3775    2.9408    0.0000 H   0  0  0  0  0  0  0  0  0  0  0  0
    5.1497    8.0013    0.0000 H   0  0  0  0  0  0  0  0  0  0  0  0
    7.2440    4.1563    0.0000 H   0  0  0  0  0  0  0  0  0  0  0  0
    8.0730   -2.0013    0.0000 H   0  0  0  0  0  0  0  0  0  0  0  0
    9.4760    0.4287    0.0000 H   0  0  0  0  0  0  0  0  0  0  0  0
    3.7012    1.1094    0.0000 H   0  0  0  0  0  0  0  0  0  0  0  0
    9.4760   -2.8113    0.0000 H   0  0  0  0  0  0  0  0  0  0  0  0
   10.8790   -0.3813    0.0000 H   0  0  0  0  0  0  0  0  0  0  0  0
    9.2806    5.3228    0.0000 H   0  0  0  0  0  0  0  0  0  0  0  0
    8.6678    5.9500    0.0000 H   0  0  0  0  0  0  0  0  0  0  0  0
    8.0407    5.3372    0.0000 H   0  0  0  0  0  0  0  0  0  0  0  0
    9.1931    3.2868    0.0000 H   0  0  0  0  0  0  0  0  0  0  0  0
   10.0426    3.5039    0.0000 H   0  0  0  0  0  0  0  0  0  0  0  0
    9.8254    4.3534    0.0000 H   0  0  0  0  0  0  0  0  0  0  0  0
   12.3841   -2.2282    0.0000 H   0  0  0  0  0  0  0  0  0  0  0  0
   12.6110   -1.3813    0.0000 H   0  0  0  0  0  0  0  0  0  0  0  0
   11.7641   -1.1543    0.0000 H   0  0  0  0  0  0  0  0  0  0  0  0
 20  1  1  6  0  0  0
 23  1  1  1  0  0  0
  2 24  1  0  0  0  0
  2 26  1  0  0  0  0
  3 23  1  0  0  0  0
  3 29  1  0  0  0  0
 24  4  1  1  0  0  0
  4 37  1  0  0  0  0
 21  5  1  6  0  0  0
  5 77  1  0  0  0  0
 22  6  1  1  0  0  0
  6 80  1  0  0  0  0
 25  7  1  6  0  0  0
  7 82  1  0  0  0  0
 27  8  1  6  0  0  0
  8 83  1  0  0  0  0
 28  9  1  1  0  0  0
  9 84  1  0  0  0  0
 10 35  1  0  0  0  0
 10 36  1  0  0  0  0
 36 11  1  1  0  0  0
 11 42  1  0  0  0  0
 32 12  1  1  0  0  0
 12 87  1  0  0  0  0
 33 13  1  6  0  0  0
 13 88  1  0  0  0  0
 34 14  1  6  0  0  0
 14 89  1  0  0  0  0
 15 39  1  0  0  0  0
 15 43  1  0  0  0  0
 16 38  1  0  0  0  0
 16 93  1  0  0  0  0
 17 40  2  0  0  0  0
 18 45  1  0  0  0  0
 18 97  1  0  0  0  0
 19 55  1  0  0  0  0
 19 58  1  0  0  0  0
 20 21  1  0  0  0  0
 20 24  1  0  0  0  0
 20 59  1  0  0  0  0
 21 22  1  0  0  0  0
 21 60  1  0  0  0  0
 22 26  1  0  0  0  0
 22 61  1  0  0  0  0
 23 25  1  0  0  0  0
 23 62  1  0  0  0  0
 24 63  1  0  0  0  0
 25 27  1  0  0  0  0
 25 64  1  0  0  0  0
 26 30  1  6  0  0  0
 26 65  1  0  0  0  0
 27 28  1  0  0  0  0
 27 66  1  0  0  0  0
 28 29  1  0  0  0  0
 28 67  1  0  0  0  0
 29 31  1  6  0  0  0
 29 68  1  0  0  0  0
 30 69  1  0  0  0  0
 30 70  1  0  0  0  0
 30 71  1  0  0  0  0
 31 72  1  0  0  0  0
 31 73  1  0  0  0  0
 31 74  1  0  0  0  0
 32 33  1  0  0  0  0
 32 34  1  0  0  0  0
 32 75  1  0  0  0  0
 33 35  1  0  0  0  0
 33 76  1  0  0  0  0
 34 36  1  0  0  0  0
 34 78  1  0  0  0  0
 35 38  1  1  0  0  0
 35 79  1  0  0  0  0
 36 81  1  0  0  0  0
 37 39  2  0  0  0  0
 37 40  1  0  0  0  0
 38 85  1  0  0  0  0
 38 86  1  0  0  0  0
 39 47  1  0  0  0  0
 40 41  1  0  0  0  0
 41 43  2  0  0  0  0
 41 45  1  0  0  0  0
 42 44  2  0  0  0  0
 42 46  1  0  0  0  0
 43 44  1  0  0  0  0
 44 48  1  0  0  0  0
 45 46  2  0  0  0  0
 46 90  1  0  0  0  0
 47 50  2  0  0  0  0
 47 51  1  0  0  0  0
 48 49  1  0  0  0  0
 48 91  1  0  0  0  0
 48 92  1  0  0  0  0
 49 54  2  0  0  0  0
 49 94  1  0  0  0  0
 50 52  1  0  0  0  0
 50 95  1  0  0  0  0
 51 53  2  0  0  0  0
 51 96  1  0  0  0  0
 52 55  2  0  0  0  0
 52 98  1  0  0  0  0
 53 55  1  0  0  0  0
 53 99  1  0  0  0  0
 54 56  1  0  0  0  0
 54 57  1  0  0  0  0
 56100  1  0  0  0  0
 56101  1  0  0  0  0
 56102  1  0  0  0  0
 57103  1  0  0  0  0
 57104  1  0  0  0  0
 57105  1  0  0  0  0
 58106  1  0  0  0  0
 58107  1  0  0  0  0
 58108  1  0  0  0  0
M  END
> <PUBCHEM_COMPOUND_CID>
5748394

> <PUBCHEM_COMPOUND_CANONICALIZED>
1

> <PUBCHEM_CACTVS_COMPLEXITY>
1450

> <PUBCHEM_CACTVS_HBOND_ACCEPTOR>
19

> <PUBCHEM_CACTVS_HBOND_DONOR>
10

> <PUBCHEM_CACTVS_ROTATABLE_BOND>
11

> <PUBCHEM_CACTVS_SUBSKEYS>
AAADcfB8PgAAAAAAAAAAAAAAAAAAAAAAAAA0aJECAAAAAACBQAAAGgAACAAADBSwmAMyDoAABgCIAqBSAAICCAAkIAAIiAFGCMgdNzaGNR6ieWCl4BUPuQfI7PzOIAACCAAIAABAAAQQABAAAAAAAAAAAA==

> <PUBCHEM_IUPAC_OPENEYE_NAME>
3-[(2S,3R,4R,5R,6S)-4,5-dihydroxy-6-methyl-3-[(2S,3R,4R,5R,6S)-3,4,5-trihydroxy-6-methyl-tetrahydropyran-2-yl]oxy-tetrahydropyran-2-yl]oxy-5-hydroxy-2-(4-methoxyphenyl)-8-(3-methylbut-2-enyl)-7-[(2S,3R,4S,5S,6R)-3,4,5-trihydroxy-6-(hydroxymethyl)tetrahydropyran-2-yl]oxy-chromen-4-one

> <PUBCHEM_IUPAC_CAS_NAME>
3-[[(2S,3R,4R,5R,6S)-4,5-dihydroxy-6-methyl-3-[[(2S,3R,4R,5R,6S)-3,4,5-trihydroxy-6-methyl-2-oxanyl]oxy]-2-oxanyl]oxy]-5-hydroxy-2-(4-methoxyphenyl)-8-(3-methylbut-2-enyl)-7-[[(2S,3R,4S,5S,6R)-3,4,5-trihydroxy-6-(hydroxymethyl)-2-oxanyl]oxy]-1-benzopyran-4-one

> <PUBCHEM_IUPAC_NAME_MARKUP>
3-[(2<I>S</I>,3<I>R</I>,4<I>R</I>,5<I>R</I>,6<I>S</I>)-4,5-dihydroxy-6-methyl-3-[(2<I>S</I>,3<I>R</I>,4<I>R</I>,5<I>R</I>,6<I>S</I>)-3,4,5-trihydroxy-6-methyloxan-2-yl]oxyoxan-2-yl]oxy-5-hydroxy-2-(4-methoxyphenyl)-8-(3-methylbut-2-enyl)-7-[(2<I>S</I>,3<I>R</I>,4<I>S</I>,5<I>S</I>,6<I>R</I>)-3,4,5-trihydroxy-6-(hydroxymethyl)oxan-2-yl]oxychromen-4-one

> <PUBCHEM_IUPAC_NAME>
3-[(2S,3R,4R,5R,6S)-4,5-dihydroxy-6-methyl-3-[(2S,3R,4R,5R,6S)-3,4,5-trihydroxy-6-methyloxan-2-yl]oxyoxan-2-yl]oxy-5-hydroxy-2-(4-methoxyphenyl)-8-(3-methylbut-2-enyl)-7-[(2S,3R,4S,5S,6R)-3,4,5-trihydroxy-6-(hydroxymethyl)oxan-2-yl]oxychromen-4-one

> <PUBCHEM_IUPAC_SYSTEMATIC_NAME>
7-[(2S,3R,4S,5S,6R)-6-(hydroxymethyl)-3,4,5-tris(oxidanyl)oxan-2-yl]oxy-2-(4-methoxyphenyl)-8-(3-methylbut-2-enyl)-3-[(2S,3R,4R,5R,6S)-6-methyl-3-[(2S,3R,4R,5R,6S)-6-methyl-3,4,5-tris(oxidanyl)oxan-2-yl]oxy-4,5-bis(oxidanyl)oxan-2-yl]oxy-5-oxidanyl-chromen-4-one

> <PUBCHEM_IUPAC_TRADITIONAL_NAME>
3-[(2S,3R,4R,5R,6S)-4,5-dihydroxy-6-methyl-3-[(2S,3R,4R,5R,6S)-3,4,5-trihydroxy-6-methyl-tetrahydropyran-2-yl]oxy-tetrahydropyran-2-yl]oxy-5-hydroxy-2-(4-methoxyphenyl)-8-(3-methylbut-2-enyl)-7-[(2S,3R,4S,5S,6R)-3,4,5-trihydroxy-6-methylol-tetrahydropyran-2-yl]oxy-chromone

> <PUBCHEM_IUPAC_INCHI>
InChI=1S/C39H50O19/c1-14(2)6-11-19-21(54-38-32(50)29(47)26(44)22(13-40)55-38)12-20(41)23-27(45)35(33(56-34(19)23)17-7-9-18(51-5)10-8-17)57-39-36(30(48)25(43)16(4)53-39)58-37-31(49)28(46)24(42)15(3)52-37/h6-10,12,15-16,22,24-26,28-32,36-44,46-50H,11,13H2,1-5H3/t15-,16-,22+,24-,25-,26+,28+,29-,30+,31+,32+,36+,37-,38+,39-/m0/s1

> <PUBCHEM_IUPAC_INCHIKEY>
ULZLIYVOYYQJRO-JIYCBSMMSA-N

> <PUBCHEM_XLOGP3_AA>
0.6

> <PUBCHEM_EXACT_MASS>
822.294629

> <PUBCHEM_MOLECULAR_FORMULA>
C39H50O19

> <PUBCHEM_MOLECULAR_WEIGHT>
822.8

> <PUBCHEM_OPENEYE_CAN_SMILES>
CC1C(C(C(C(O1)OC2C(C(C(OC2OC3=C(OC4=C(C3=O)C(=CC(=C4CC=C(C)C)OC5C(C(C(C(O5)CO)O)O)O)O)C6=CC=C(C=C6)OC)C)O)O)O)O)O

> <PUBCHEM_OPENEYE_ISO_SMILES>
C[C@H]1[C@@H]([C@H]([C@H]([C@@H](O1)O[C@@H]2[C@@H]([C@H]([C@@H](O[C@H]2OC3=C(OC4=C(C3=O)C(=CC(=C4CC=C(C)C)O[C@H]5[C@@H]([C@H]([C@@H]([C@H](O5)CO)O)O)O)O)C6=CC=C(C=C6)OC)C)O)O)O)O)O

> <PUBCHEM_CACTVS_TPSA>
293

> <PUBCHEM_MONOISOTOPIC_WEIGHT>
822.294629

> <PUBCHEM_TOTAL_CHARGE>
0

> <PUBCHEM_HEAVY_ATOM_COUNT>
58

> <PUBCHEM_ATOM_DEF_STEREO_COUNT>
15

> <PUBCHEM_ATOM_UDEF_STEREO_COUNT>
0

> <PUBCHEM_BOND_DEF_STEREO_COUNT>
0

> <PUBCHEM_BOND_UDEF_STEREO_COUNT>
0

> <PUBCHEM_ISOTOPIC_ATOM_COUNT>
0

> <PUBCHEM_COMPONENT_COUNT>
1

> <PUBCHEM_CACTVS_TAUTO_COUNT>
-1

> <PUBCHEM_COORDINATE_TYPE>
1
5
255

> <PUBCHEM_BONDANNOTATIONS>
20  1  6
23  1  5
36  11  5
32  12  5
33  13  6
34  14  6
15  39  8
15  43  8
26  30  6
29  31  6
35  38  5
37  39  8
37  40  8
24  4  5
40  41  8
41  43  8
41  45  8
42  44  8
42  46  8
43  44  8
45  46  8
47  50  8
47  51  8
21  5  6
50  52  8
51  53  8
52  55  8
53  55  8
22  6  5
25  7  6
27  8  6
28  9  5

$$$$
