44258790
  -OEChem-09062004072D

102107  0     1  0  0  0  0  0999 V2000
    6.8779   -3.6913    0.0000 O   0  0  0  0  0  0  0  0  0  0  0  0
    5.1459   -1.6913    0.0000 O   0  0  0  0  0  0  0  0  0  0  0  0
    6.0119   -5.1913    0.0000 O   0  0  0  0  0  0  0  0  0  0  0  0
    6.8779   -1.6913    0.0000 O   0  0  0  0  0  0  0  0  0  0  0  0
    5.1459   -4.6913    0.0000 O   0  0  0  0  0  0  0  0  0  0  0  0
    3.4138   -3.6913    0.0000 O   0  0  0  0  0  0  0  0  0  0  0  0
    5.1396    5.3813    0.0000 O   0  0  0  0  0  0  0  0  0  0  0  0
    8.6100   -4.6913    0.0000 O   0  0  0  0  0  0  0  0  0  0  0  0
    8.6100   -6.6913    0.0000 O   0  0  0  0  0  0  0  0  0  0  0  0
    5.9998    3.8780    0.0000 O   0  0  0  0  0  0  0  0  0  0  0  0
    6.8779   -7.6913    0.0000 O   0  0  0  0  0  0  0  0  0  0  0  0
    2.5357    3.8913    0.0000 O   0  0  0  0  0  0  0  0  0  0  0  0
    2.5434    5.8913    0.0000 O   0  0  0  0  0  0  0  0  0  0  0  0
    4.2639    2.8847    0.0000 O   0  0  0  0  0  0  0  0  0  0  0  0
    7.7440    0.8087    0.0000 O   0  0  0  0  0  0  0  0  0  0  0  0
    5.1473    7.3813    0.0000 O   0  0  0  0  0  0  0  0  0  0  0  0
    5.1459   -0.6913    0.0000 O   0  0  0  0  0  0  0  0  0  0  0  0
    4.2417    0.8056    0.0000 O   0  0  0  0  0  0  0  0  0  0  0  0
   11.2081   -2.1913    0.0000 O   0  0  0  0  0  0  0  0  0  0  0  0
    6.0119   -3.1913    0.0000 C   0  0  3  0  0  0  0  0  0  0  0  0
    5.1459   -3.6913    0.0000 C   0  0  2  0  0  0  0  0  0  0  0  0
    4.2799   -3.1913    0.0000 C   0  0  2  0  0  0  0  0  0  0  0  0
    6.0119   -2.1913    0.0000 C   0  0  1  0  0  0  0  0  0  0  0  0
    4.2799   -2.1913    0.0000 C   0  0  3  0  0  0  0  0  0  0  0  0
    6.8779   -4.6913    0.0000 C   0  0  2  0  0  0  0  0  0  0  0  0
    7.7440   -5.1913    0.0000 C   0  0  3  0  0  0  0  0  0  0  0  0
    7.7440   -6.1913    0.0000 C   0  0  3  0  0  0  0  0  0  0  0  0
    6.8779   -6.6913    0.0000 C   0  0  1  0  0  0  0  0  0  0  0  0
    3.4138   -1.6913    0.0000 C   0  0  0  0  0  0  0  0  0  0  0  0
    6.0119   -6.1913    0.0000 C   0  0  0  0  0  0  0  0  0  0  0  0
    3.4037    4.3880    0.0000 C   0  0  1  0  0  0  0  0  0  0  0  0
    3.4075    5.3880    0.0000 C   0  0  1  0  0  0  0  0  0  0  0  0
    4.2678    3.8846    0.0000 C   0  0  3  0  0  0  0  0  0  0  0  0
    4.2755    5.8846    0.0000 C   0  0  3  0  0  0  0  0  0  0  0  0
    5.1357    4.3813    0.0000 C   0  0  1  0  0  0  0  0  0  0  0  0
    6.8779   -0.6913    0.0000 C   0  0  0  0  0  0  0  0  0  0  0  0
    4.2793    6.8846    0.0000 C   0  0  0  0  0  0  0  0  0  0  0  0
    5.9960    2.8780    0.0000 C   0  0  0  0  0  0  0  0  0  0  0  0
    6.0119   -0.1913    0.0000 C   0  0  0  0  0  0  0  0  0  0  0  0
    7.7440   -0.1913    0.0000 C   0  0  0  0  0  0  0  0  0  0  0  0
    6.0119    0.8087    0.0000 C   0  0  0  0  0  0  0  0  0  0  0  0
    6.8779    1.3087    0.0000 C   0  0  0  0  0  0  0  0  0  0  0  0
    6.8940    2.3502    0.0000 C   0  0  0  0  0  0  0  0  0  0  0  0
    5.1019    1.3156    0.0000 C   0  0  0  0  0  0  0  0  0  0  0  0
    5.0939    2.3572    0.0000 C   0  0  0  0  0  0  0  0  0  0  0  0
    7.7657    2.8402    0.0000 C   0  0  0  0  0  0  0  0  0  0  0  0
    8.6100   -0.6913    0.0000 C   0  0  0  0  0  0  0  0  0  0  0  0
    7.7773    3.8401    0.0000 C   0  0  0  0  0  0  0  0  0  0  0  0
    8.6100   -1.6913    0.0000 C   0  0  0  0  0  0  0  0  0  0  0  0
    9.4760   -0.1913    0.0000 C   0  0  0  0  0  0  0  0  0  0  0  0
    8.6491    4.3301    0.0000 C   0  0  0  0  0  0  0  0  0  0  0  0
    9.4760   -2.1913    0.0000 C   0  0  0  0  0  0  0  0  0  0  0  0
   10.3420   -0.6913    0.0000 C   0  0  0  0  0  0  0  0  0  0  0  0
   10.3420   -1.6913    0.0000 C   0  0  0  0  0  0  0  0  0  0  0  0
    8.6606    5.3300    0.0000 C   0  0  0  0  0  0  0  0  0  0  0  0
    9.5092    3.8201    0.0000 C   0  0  0  0  0  0  0  0  0  0  0  0
    6.0119   -3.8113    0.0000 H   0  0  0  0  0  0  0  0  0  0  0  0
    4.6090   -4.0013    0.0000 H   0  0  0  0  0  0  0  0  0  0  0  0
    3.7429   -2.8813    0.0000 H   0  0  0  0  0  0  0  0  0  0  0  0
    6.0119   -1.5713    0.0000 H   0  0  0  0  0  0  0  0  0  0  0  0
    4.2799   -1.5713    0.0000 H   0  0  0  0  0  0  0  0  0  0  0  0
    7.4149   -4.3813    0.0000 H   0  0  0  0  0  0  0  0  0  0  0  0
    8.2809   -5.5013    0.0000 H   0  0  0  0  0  0  0  0  0  0  0  0
    7.7440   -6.8113    0.0000 H   0  0  0  0  0  0  0  0  0  0  0  0
    6.3410   -7.0013    0.0000 H   0  0  0  0  0  0  0  0  0  0  0  0
    3.7238   -1.1543    0.0000 H   0  0  0  0  0  0  0  0  0  0  0  0
    2.8769   -1.3813    0.0000 H   0  0  0  0  0  0  0  0  0  0  0  0
    3.1038   -2.2282    0.0000 H   0  0  0  0  0  0  0  0  0  0  0  0
    5.4013   -6.0836    0.0000 H   0  0  0  0  0  0  0  0  0  0  0  0
    5.7999   -6.7739    0.0000 H   0  0  0  0  0  0  0  0  0  0  0  0
    3.9394    4.0759    0.0000 H   0  0  0  0  0  0  0  0  0  0  0  0
    2.8694    5.0800    0.0000 H   0  0  0  0  0  0  0  0  0  0  0  0
    3.7296    3.5767    0.0000 H   0  0  0  0  0  0  0  0  0  0  0  0
    4.8136    6.1926    0.0000 H   0  0  0  0  0  0  0  0  0  0  0  0
    5.1333    3.7613    0.0000 H   0  0  0  0  0  0  0  0  0  0  0  0
    4.6090   -5.0013    0.0000 H   0  0  0  0  0  0  0  0  0  0  0  0
    2.8769   -3.3813    0.0000 H   0  0  0  0  0  0  0  0  0  0  0  0
    4.0695    7.4680    0.0000 H   0  0  0  0  0  0  0  0  0  0  0  0
    3.6684    6.7793    0.0000 H   0  0  0  0  0  0  0  0  0  0  0  0
    9.1469   -5.0013    0.0000 H   0  0  0  0  0  0  0  0  0  0  0  0
    8.6100   -7.3113    0.0000 H   0  0  0  0  0  0  0  0  0  0  0  0
    6.3410   -8.0013    0.0000 H   0  0  0  0  0  0  0  0  0  0  0  0
    2.0000    4.2034    0.0000 H   0  0  0  0  0  0  0  0  0  0  0  0
    2.5458    6.5113    0.0000 H   0  0  0  0  0  0  0  0  0  0  0  0
    3.7258    2.5767    0.0000 H   0  0  0  0  0  0  0  0  0  0  0  0
    4.5558    2.6651    0.0000 H   0  0  0  0  0  0  0  0  0  0  0  0
    7.9710    2.2552    0.0000 H   0  0  0  0  0  0  0  0  0  0  0  0
    8.3775    2.9408    0.0000 H   0  0  0  0  0  0  0  0  0  0  0  0
    5.1497    8.0013    0.0000 H   0  0  0  0  0  0  0  0  0  0  0  0
    7.2440    4.1563    0.0000 H   0  0  0  0  0  0  0  0  0  0  0  0
    8.0730   -2.0013    0.0000 H   0  0  0  0  0  0  0  0  0  0  0  0
    9.4760    0.4287    0.0000 H   0  0  0  0  0  0  0  0  0  0  0  0
    3.7012    1.1094    0.0000 H   0  0  0  0  0  0  0  0  0  0  0  0
    9.4760   -2.8113    0.0000 H   0  0  0  0  0  0  0  0  0  0  0  0
   10.8790   -0.3813    0.0000 H   0  0  0  0  0  0  0  0  0  0  0  0
    9.2806    5.3228    0.0000 H   0  0  0  0  0  0  0  0  0  0  0  0
    8.6678    5.9500    0.0000 H   0  0  0  0  0  0  0  0  0  0  0  0
    8.0407    5.3372    0.0000 H   0  0  0  0  0  0  0  0  0  0  0  0
    9.1931    3.2868    0.0000 H   0  0  0  0  0  0  0  0  0  0  0  0
   10.0426    3.5039    0.0000 H   0  0  0  0  0  0  0  0  0  0  0  0
    9.8254    4.3534    0.0000 H   0  0  0  0  0  0  0  0  0  0  0  0
   11.7450   -1.8813    0.0000 H   0  0  0  0  0  0  0  0  0  0  0  0
  1 20  1  0  0  0  0
 25  1  1  1  0  0  0
  2 23  1  0  0  0  0
  2 24  1  0  0  0  0
  3 25  1  0  0  0  0
  3 30  1  0  0  0  0
 23  4  1  1  0  0  0
  4 36  1  0  0  0  0
 21  5  1  1  0  0  0
  5 76  1  0  0  0  0
 22  6  1  1  0  0  0
  6 77  1  0  0  0  0
  7 34  1  0  0  0  0
  7 35  1  0  0  0  0
  8 26  1  0  0  0  0
  8 80  1  0  0  0  0
  9 27  1  0  0  0  0
  9 81  1  0  0  0  0
 35 10  1  1  0  0  0
 10 38  1  0  0  0  0
 28 11  1  6  0  0  0
 11 82  1  0  0  0  0
 31 12  1  1  0  0  0
 12 83  1  0  0  0  0
 32 13  1  6  0  0  0
 13 84  1  0  0  0  0
 14 33  1  0  0  0  0
 14 85  1  0  0  0  0
 15 40  1  0  0  0  0
 15 42  1  0  0  0  0
 16 37  1  0  0  0  0
 16 89  1  0  0  0  0
 17 39  2  0  0  0  0
 18 44  1  0  0  0  0
 18 93  1  0  0  0  0
 19 54  1  0  0  0  0
 19102  1  0  0  0  0
 20 21  1  0  0  0  0
 20 23  1  0  0  0  0
 20 57  1  0  0  0  0
 21 22  1  0  0  0  0
 21 58  1  0  0  0  0
 22 24  1  0  0  0  0
 22 59  1  0  0  0  0
 23 60  1  0  0  0  0
 24 29  1  0  0  0  0
 24 61  1  0  0  0  0
 25 26  1  0  0  0  0
 25 62  1  0  0  0  0
 26 27  1  0  0  0  0
 26 63  1  0  0  0  0
 27 28  1  0  0  0  0
 27 64  1  0  0  0  0
 28 30  1  0  0  0  0
 28 65  1  0  0  0  0
 29 66  1  0  0  0  0
 29 67  1  0  0  0  0
 29 68  1  0  0  0  0
 30 69  1  0  0  0  0
 30 70  1  0  0  0  0
 31 32  1  0  0  0  0
 31 33  1  0  0  0  0
 31 71  1  0  0  0  0
 32 34  1  0  0  0  0
 32 72  1  0  0  0  0
 33 35  1  0  0  0  0
 33 73  1  0  0  0  0
 34 37  1  0  0  0  0
 34 74  1  0  0  0  0
 35 75  1  0  0  0  0
 36 39  1  0  0  0  0
 36 40  2  0  0  0  0
 37 78  1  0  0  0  0
 37 79  1  0  0  0  0
 38 43  2  0  0  0  0
 38 45  1  0  0  0  0
 39 41  1  0  0  0  0
 40 47  1  0  0  0  0
 41 42  2  0  0  0  0
 41 44  1  0  0  0  0
 42 43  1  0  0  0  0
 43 46  1  0  0  0  0
 44 45  2  0  0  0  0
 45 86  1  0  0  0  0
 46 48  1  0  0  0  0
 46 87  1  0  0  0  0
 46 88  1  0  0  0  0
 47 49  2  0  0  0  0
 47 50  1  0  0  0  0
 48 51  2  0  0  0  0
 48 90  1  0  0  0  0
 49 52  1  0  0  0  0
 49 91  1  0  0  0  0
 50 53  2  0  0  0  0
 50 92  1  0  0  0  0
 51 55  1  0  0  0  0
 51 56  1  0  0  0  0
 52 54  2  0  0  0  0
 52 94  1  0  0  0  0
 53 54  1  0  0  0  0
 53 95  1  0  0  0  0
 55 96  1  0  0  0  0
 55 97  1  0  0  0  0
 55 98  1  0  0  0  0
 56 99  1  0  0  0  0
 56100  1  0  0  0  0
 56101  1  0  0  0  0
M  END
> <PUBCHEM_COMPOUND_CID>
44258790

> <PUBCHEM_COMPOUND_CANONICALIZED>
1

> <PUBCHEM_CACTVS_COMPLEXITY>
1400

> <PUBCHEM_CACTVS_HBOND_ACCEPTOR>
19

> <PUBCHEM_CACTVS_HBOND_DONOR>
11

> <PUBCHEM_CACTVS_ROTATABLE_BOND>
10

> <PUBCHEM_CACTVS_SUBSKEYS>
AAADcfB8PgAAAAAAAAAAAAAAAAAAAAAAAAA0aJECAAAAAACBQAAAGgAACAAADBSwmAMyDoAABgCIAqBSAAICCAAkIAAIiAFGCMgdNzaGNR6ieWCl4BUPuQfI7PzOIAACCAAIAABAAAQQABAAAAAAAAAAAA==

> <PUBCHEM_IUPAC_OPENEYE_NAME>
3-[(2S,4S,5R)-4,5-dihydroxy-6-methyl-3-[(2S,5R)-3,4,5-trihydroxytetrahydropyran-2-yl]oxy-tetrahydropyran-2-yl]oxy-5-hydroxy-2-(4-hydroxyphenyl)-8-(3-methylbut-2-enyl)-7-[(2S,4S,5S)-3,4,5-trihydroxy-6-(hydroxymethyl)tetrahydropyran-2-yl]oxy-chromen-4-one

> <PUBCHEM_IUPAC_CAS_NAME>
3-[[(2S,4S,5R)-4,5-dihydroxy-6-methyl-3-[[(2S,5R)-3,4,5-trihydroxy-2-oxanyl]oxy]-2-oxanyl]oxy]-5-hydroxy-2-(4-hydroxyphenyl)-8-(3-methylbut-2-enyl)-7-[[(2S,4S,5S)-3,4,5-trihydroxy-6-(hydroxymethyl)-2-oxanyl]oxy]-1-benzopyran-4-one

> <PUBCHEM_IUPAC_NAME_MARKUP>
3-[(2<I>S</I>,4<I>S</I>,5<I>R</I>)-4,5-dihydroxy-6-methyl-3-[(2<I>S</I>,5<I>R</I>)-3,4,5-trihydroxyoxan-2-yl]oxyoxan-2-yl]oxy-5-hydroxy-2-(4-hydroxyphenyl)-8-(3-methylbut-2-enyl)-7-[(2<I>S</I>,4<I>S</I>,5<I>S</I>)-3,4,5-trihydroxy-6-(hydroxymethyl)oxan-2-yl]oxychromen-4-one

> <PUBCHEM_IUPAC_NAME>
3-[(2S,4S,5R)-4,5-dihydroxy-6-methyl-3-[(2S,5R)-3,4,5-trihydroxyoxan-2-yl]oxyoxan-2-yl]oxy-5-hydroxy-2-(4-hydroxyphenyl)-8-(3-methylbut-2-enyl)-7-[(2S,4S,5S)-3,4,5-trihydroxy-6-(hydroxymethyl)oxan-2-yl]oxychromen-4-one

> <PUBCHEM_IUPAC_SYSTEMATIC_NAME>
7-[(2S,4S,5S)-6-(hydroxymethyl)-3,4,5-tris(oxidanyl)oxan-2-yl]oxy-2-(4-hydroxyphenyl)-3-[(2S,4S,5R)-6-methyl-4,5-bis(oxidanyl)-3-[(2S,5R)-3,4,5-tris(oxidanyl)oxan-2-yl]oxy-oxan-2-yl]oxy-8-(3-methylbut-2-enyl)-5-oxidanyl-chromen-4-one

> <PUBCHEM_IUPAC_TRADITIONAL_NAME>
3-[(2S,4S,5R)-4,5-dihydroxy-6-methyl-3-[(2S,5R)-3,4,5-trihydroxytetrahydropyran-2-yl]oxy-tetrahydropyran-2-yl]oxy-5-hydroxy-2-(4-hydroxyphenyl)-8-(3-methylbut-2-enyl)-7-[(2S,4S,5S)-3,4,5-trihydroxy-6-methylol-tetrahydropyran-2-yl]oxy-chromone

> <PUBCHEM_IUPAC_INCHI>
InChI=1S/C37H46O19/c1-13(2)4-9-17-20(52-36-30(49)27(46)25(44)21(11-38)53-36)10-18(40)22-26(45)33(31(54-32(17)22)15-5-7-16(39)8-6-15)55-37-34(28(47)23(42)14(3)51-37)56-35-29(48)24(43)19(41)12-50-35/h4-8,10,14,19,21,23-25,27-30,34-44,46-49H,9,11-12H2,1-3H3/t14?,19-,21?,23+,24?,25-,27+,28+,29?,30?,34?,35+,36-,37+/m1/s1

> <PUBCHEM_IUPAC_INCHIKEY>
XDBZJWHRPCMWOO-CLLDRPRKSA-N

> <PUBCHEM_XLOGP3_AA>
-0.2

> <PUBCHEM_EXACT_MASS>
794.263329

> <PUBCHEM_MOLECULAR_FORMULA>
C37H46O19

> <PUBCHEM_MOLECULAR_WEIGHT>
794.7

> <PUBCHEM_OPENEYE_CAN_SMILES>
CC1C(C(C(C(O1)OC2=C(OC3=C(C2=O)C(=CC(=C3CC=C(C)C)OC4C(C(C(C(O4)CO)O)O)O)O)C5=CC=C(C=C5)O)OC6C(C(C(CO6)O)O)O)O)O

> <PUBCHEM_OPENEYE_ISO_SMILES>
CC1[C@@H]([C@@H](C([C@@H](O1)OC2=C(OC3=C(C2=O)C(=CC(=C3CC=C(C)C)O[C@H]4C([C@H]([C@@H](C(O4)CO)O)O)O)O)C5=CC=C(C=C5)O)O[C@H]6C(C([C@@H](CO6)O)O)O)O)O

> <PUBCHEM_CACTVS_TPSA>
304

> <PUBCHEM_MONOISOTOPIC_WEIGHT>
794.263329

> <PUBCHEM_TOTAL_CHARGE>
0

> <PUBCHEM_HEAVY_ATOM_COUNT>
56

> <PUBCHEM_ATOM_DEF_STEREO_COUNT>
8

> <PUBCHEM_ATOM_UDEF_STEREO_COUNT>
6

> <PUBCHEM_BOND_DEF_STEREO_COUNT>
0

> <PUBCHEM_BOND_UDEF_STEREO_COUNT>
0

> <PUBCHEM_ISOTOPIC_ATOM_COUNT>
0

> <PUBCHEM_COMPONENT_COUNT>
1

> <PUBCHEM_CACTVS_TAUTO_COUNT>
-1

> <PUBCHEM_COORDINATE_TYPE>
1
5
255

> <PUBCHEM_BONDANNOTATIONS>
20  1  3
25  1  5
35  10  5
28  11  6
31  12  5
32  13  6
33  14  3
15  40  8
15  42  8
24  29  3
34  37  3
36  39  8
36  40  8
38  43  8
38  45  8
39  41  8
23  4  5
41  42  8
41  44  8
42  43  8
44  45  8
47  49  8
47  50  8
49  52  8
21  5  5
50  53  8
52  54  8
53  54  8
22  6  5
26  8  3
27  9  3

$$$$
