92043273
  -OEChem-09062004012D

109114  0     1  0  0  0  0  0999 V2000
    6.8671   -4.6913    0.0000 O   0  0  0  0  0  0  0  0  0  0  0  0
    5.1350   -4.6913    0.0000 O   0  0  0  0  0  0  0  0  0  0  0  0
    6.8671   -1.6913    0.0000 O   0  0  0  0  0  0  0  0  0  0  0  0
    5.1350   -3.6913    0.0000 O   0  0  0  0  0  0  0  0  0  0  0  0
    8.5991   -3.6913    0.0000 O   0  0  0  0  0  0  0  0  0  0  0  0
    8.5991   -1.6913    0.0000 O   0  0  0  0  0  0  0  0  0  0  0  0
    6.8671   -6.6913    0.0000 O   0  0  0  0  0  0  0  0  0  0  0  0
    5.1350   -7.6913    0.0000 O   0  0  0  0  0  0  0  0  0  0  0  0
    3.4030   -6.6913    0.0000 O   0  0  0  0  0  0  0  0  0  0  0  0
    6.8608    5.3813    0.0000 O   0  0  0  0  0  0  0  0  0  0  0  0
    2.5369   -5.1913    0.0000 O   0  0  0  0  0  0  0  0  0  0  0  0
    7.7210    3.8780    0.0000 O   0  0  0  0  0  0  0  0  0  0  0  0
    4.2569    3.8913    0.0000 O   0  0  0  0  0  0  0  0  0  0  0  0
    4.2646    5.8913    0.0000 O   0  0  0  0  0  0  0  0  0  0  0  0
    5.9851    2.8847    0.0000 O   0  0  0  0  0  0  0  0  0  0  0  0
    9.4651    0.8087    0.0000 O   0  0  0  0  0  0  0  0  0  0  0  0
    6.8685    7.3813    0.0000 O   0  0  0  0  0  0  0  0  0  0  0  0
    6.8671   -0.6913    0.0000 O   0  0  0  0  0  0  0  0  0  0  0  0
    5.9629    0.8056    0.0000 O   0  0  0  0  0  0  0  0  0  0  0  0
   12.9292   -2.1913    0.0000 O   0  0  0  0  0  0  0  0  0  0  0  0
    6.8671   -3.6913    0.0000 C   0  0  2  0  0  0  0  0  0  0  0  0
    6.0010   -3.1913    0.0000 C   0  0  2  0  0  0  0  0  0  0  0  0
    7.7331   -3.1913    0.0000 C   0  0  2  0  0  0  0  0  0  0  0  0
    6.0010   -5.1913    0.0000 C   0  0  2  0  0  0  0  0  0  0  0  0
    6.0010   -6.1913    0.0000 C   0  0  1  0  0  0  0  0  0  0  0  0
    6.0010   -2.1913    0.0000 C   0  0  2  0  0  0  0  0  0  0  0  0
    5.1350   -6.6913    0.0000 C   0  0  2  0  0  0  0  0  0  0  0  0
    4.2690   -6.1913    0.0000 C   0  0  1  0  0  0  0  0  0  0  0  0
    7.7331   -2.1913    0.0000 C   0  0  1  0  0  0  0  0  0  0  0  0
    4.2690   -5.1913    0.0000 C   0  0  1  0  0  0  0  0  0  0  0  0
    5.1350   -1.6913    0.0000 C   0  0  0  0  0  0  0  0  0  0  0  0
    3.4030   -4.6913    0.0000 C   0  0  0  0  0  0  0  0  0  0  0  0
    5.1249    4.3880    0.0000 C   0  0  1  0  0  0  0  0  0  0  0  0
    5.1287    5.3880    0.0000 C   0  0  1  0  0  0  0  0  0  0  0  0
    5.9890    3.8846    0.0000 C   0  0  2  0  0  0  0  0  0  0  0  0
    5.9967    5.8846    0.0000 C   0  0  1  0  0  0  0  0  0  0  0  0
    6.8569    4.3813    0.0000 C   0  0  1  0  0  0  0  0  0  0  0  0
    8.5991   -0.6913    0.0000 C   0  0  0  0  0  0  0  0  0  0  0  0
    6.0005    6.8846    0.0000 C   0  0  0  0  0  0  0  0  0  0  0  0
    9.4651   -0.1913    0.0000 C   0  0  0  0  0  0  0  0  0  0  0  0
    7.7331   -0.1913    0.0000 C   0  0  0  0  0  0  0  0  0  0  0  0
    7.7331    0.8087    0.0000 C   0  0  0  0  0  0  0  0  0  0  0  0
    7.7171    2.8780    0.0000 C   0  0  0  0  0  0  0  0  0  0  0  0
    8.5991    1.3087    0.0000 C   0  0  0  0  0  0  0  0  0  0  0  0
    8.6152    2.3502    0.0000 C   0  0  0  0  0  0  0  0  0  0  0  0
    6.8231    1.3156    0.0000 C   0  0  0  0  0  0  0  0  0  0  0  0
    6.8151    2.3572    0.0000 C   0  0  0  0  0  0  0  0  0  0  0  0
    9.4869    2.8402    0.0000 C   0  0  0  0  0  0  0  0  0  0  0  0
   10.3312   -0.6913    0.0000 C   0  0  0  0  0  0  0  0  0  0  0  0
    9.4985    3.8401    0.0000 C   0  0  0  0  0  0  0  0  0  0  0  0
   10.3312   -1.6913    0.0000 C   0  0  0  0  0  0  0  0  0  0  0  0
   11.1972   -0.1913    0.0000 C   0  0  0  0  0  0  0  0  0  0  0  0
   10.3702    4.3301    0.0000 C   0  0  0  0  0  0  0  0  0  0  0  0
   11.1972   -2.1913    0.0000 C   0  0  0  0  0  0  0  0  0  0  0  0
   12.0632   -0.6913    0.0000 C   0  0  0  0  0  0  0  0  0  0  0  0
   12.0632   -1.6913    0.0000 C   0  0  0  0  0  0  0  0  0  0  0  0
   10.3818    5.3300    0.0000 C   0  0  0  0  0  0  0  0  0  0  0  0
   11.2304    3.8201    0.0000 C   0  0  0  0  0  0  0  0  0  0  0  0
   13.7953   -1.6913    0.0000 C   0  0  0  0  0  0  0  0  0  0  0  0
    6.3301   -4.0013    0.0000 H   0  0  0  0  0  0  0  0  0  0  0  0
    6.0010   -3.8113    0.0000 H   0  0  0  0  0  0  0  0  0  0  0  0
    7.7331   -3.8113    0.0000 H   0  0  0  0  0  0  0  0  0  0  0  0
    6.0010   -4.5713    0.0000 H   0  0  0  0  0  0  0  0  0  0  0  0
    6.0010   -6.8113    0.0000 H   0  0  0  0  0  0  0  0  0  0  0  0
    6.0010   -1.5713    0.0000 H   0  0  0  0  0  0  0  0  0  0  0  0
    4.5981   -7.0013    0.0000 H   0  0  0  0  0  0  0  0  0  0  0  0
    4.2690   -6.8113    0.0000 H   0  0  0  0  0  0  0  0  0  0  0  0
    8.2700   -2.5013    0.0000 H   0  0  0  0  0  0  0  0  0  0  0  0
    4.2690   -4.5713    0.0000 H   0  0  0  0  0  0  0  0  0  0  0  0
    5.4450   -1.1543    0.0000 H   0  0  0  0  0  0  0  0  0  0  0  0
    4.5981   -1.3813    0.0000 H   0  0  0  0  0  0  0  0  0  0  0  0
    4.8250   -2.2282    0.0000 H   0  0  0  0  0  0  0  0  0  0  0  0
    3.8015   -4.2163    0.0000 H   0  0  0  0  0  0  0  0  0  0  0  0
    3.0044   -4.2163    0.0000 H   0  0  0  0  0  0  0  0  0  0  0  0
    4.5981   -3.3813    0.0000 H   0  0  0  0  0  0  0  0  0  0  0  0
    9.1360   -3.3813    0.0000 H   0  0  0  0  0  0  0  0  0  0  0  0
    5.6606    4.0759    0.0000 H   0  0  0  0  0  0  0  0  0  0  0  0
    4.5906    5.0800    0.0000 H   0  0  0  0  0  0  0  0  0  0  0  0
    5.4508    3.5767    0.0000 H   0  0  0  0  0  0  0  0  0  0  0  0
    7.4040   -6.3813    0.0000 H   0  0  0  0  0  0  0  0  0  0  0  0
    6.5348    6.1926    0.0000 H   0  0  0  0  0  0  0  0  0  0  0  0
    5.6720   -8.0013    0.0000 H   0  0  0  0  0  0  0  0  0  0  0  0
    6.8545    3.7613    0.0000 H   0  0  0  0  0  0  0  0  0  0  0  0
    3.4030   -7.3113    0.0000 H   0  0  0  0  0  0  0  0  0  0  0  0
    5.7907    7.4680    0.0000 H   0  0  0  0  0  0  0  0  0  0  0  0
    5.3895    6.7793    0.0000 H   0  0  0  0  0  0  0  0  0  0  0  0
    2.0000   -4.8813    0.0000 H   0  0  0  0  0  0  0  0  0  0  0  0
    3.7212    4.2034    0.0000 H   0  0  0  0  0  0  0  0  0  0  0  0
    4.2670    6.5113    0.0000 H   0  0  0  0  0  0  0  0  0  0  0  0
    5.4470    2.5767    0.0000 H   0  0  0  0  0  0  0  0  0  0  0  0
    6.2769    2.6651    0.0000 H   0  0  0  0  0  0  0  0  0  0  0  0
    9.6922    2.2552    0.0000 H   0  0  0  0  0  0  0  0  0  0  0  0
   10.0987    2.9408    0.0000 H   0  0  0  0  0  0  0  0  0  0  0  0
    6.8708    8.0013    0.0000 H   0  0  0  0  0  0  0  0  0  0  0  0
    8.9652    4.1563    0.0000 H   0  0  0  0  0  0  0  0  0  0  0  0
    9.7942   -2.0013    0.0000 H   0  0  0  0  0  0  0  0  0  0  0  0
   11.1972    0.4287    0.0000 H   0  0  0  0  0  0  0  0  0  0  0  0
    5.4224    1.1094    0.0000 H   0  0  0  0  0  0  0  0  0  0  0  0
   11.1972   -2.8113    0.0000 H   0  0  0  0  0  0  0  0  0  0  0  0
   12.6002   -0.3813    0.0000 H   0  0  0  0  0  0  0  0  0  0  0  0
   11.0018    5.3228    0.0000 H   0  0  0  0  0  0  0  0  0  0  0  0
   10.3890    5.9500    0.0000 H   0  0  0  0  0  0  0  0  0  0  0  0
    9.7618    5.3372    0.0000 H   0  0  0  0  0  0  0  0  0  0  0  0
   10.9142    3.2868    0.0000 H   0  0  0  0  0  0  0  0  0  0  0  0
   11.7637    3.5039    0.0000 H   0  0  0  0  0  0  0  0  0  0  0  0
   11.5466    4.3534    0.0000 H   0  0  0  0  0  0  0  0  0  0  0  0
   14.1053   -2.2282    0.0000 H   0  0  0  0  0  0  0  0  0  0  0  0
   14.3322   -1.3813    0.0000 H   0  0  0  0  0  0  0  0  0  0  0  0
   13.4853   -1.1543    0.0000 H   0  0  0  0  0  0  0  0  0  0  0  0
 21  1  1  6  0  0  0
 24  1  1  1  0  0  0
  2 24  1  0  0  0  0
  2 30  1  0  0  0  0
  3 26  1  0  0  0  0
  3 29  1  0  0  0  0
 22  4  1  1  0  0  0
  4 75  1  0  0  0  0
 23  5  1  6  0  0  0
  5 76  1  0  0  0  0
 29  6  1  1  0  0  0
  6 38  1  0  0  0  0
 25  7  1  6  0  0  0
  7 80  1  0  0  0  0
 27  8  1  1  0  0  0
  8 82  1  0  0  0  0
 28  9  1  6  0  0  0
  9 84  1  0  0  0  0
 10 36  1  0  0  0  0
 10 37  1  0  0  0  0
 11 32  1  0  0  0  0
 11 87  1  0  0  0  0
 37 12  1  1  0  0  0
 12 43  1  0  0  0  0
 33 13  1  1  0  0  0
 13 88  1  0  0  0  0
 34 14  1  6  0  0  0
 14 89  1  0  0  0  0
 35 15  1  6  0  0  0
 15 90  1  0  0  0  0
 16 40  1  0  0  0  0
 16 44  1  0  0  0  0
 17 39  1  0  0  0  0
 17 94  1  0  0  0  0
 18 41  2  0  0  0  0
 19 46  1  0  0  0  0
 19 98  1  0  0  0  0
 20 56  1  0  0  0  0
 20 59  1  0  0  0  0
 21 22  1  0  0  0  0
 21 23  1  0  0  0  0
 21 60  1  0  0  0  0
 22 26  1  0  0  0  0
 22 61  1  0  0  0  0
 23 29  1  0  0  0  0
 23 62  1  0  0  0  0
 24 25  1  0  0  0  0
 24 63  1  0  0  0  0
 25 27  1  0  0  0  0
 25 64  1  0  0  0  0
 26 31  1  6  0  0  0
 26 65  1  0  0  0  0
 27 28  1  0  0  0  0
 27 66  1  0  0  0  0
 28 30  1  0  0  0  0
 28 67  1  0  0  0  0
 29 68  1  0  0  0  0
 30 32  1  1  0  0  0
 30 69  1  0  0  0  0
 31 70  1  0  0  0  0
 31 71  1  0  0  0  0
 31 72  1  0  0  0  0
 32 73  1  0  0  0  0
 32 74  1  0  0  0  0
 33 34  1  0  0  0  0
 33 35  1  0  0  0  0
 33 77  1  0  0  0  0
 34 36  1  0  0  0  0
 34 78  1  0  0  0  0
 35 37  1  0  0  0  0
 35 79  1  0  0  0  0
 36 39  1  1  0  0  0
 36 81  1  0  0  0  0
 37 83  1  0  0  0  0
 38 40  2  0  0  0  0
 38 41  1  0  0  0  0
 39 85  1  0  0  0  0
 39 86  1  0  0  0  0
 40 49  1  0  0  0  0
 41 42  1  0  0  0  0
 42 44  2  0  0  0  0
 42 46  1  0  0  0  0
 43 45  2  0  0  0  0
 43 47  1  0  0  0  0
 44 45  1  0  0  0  0
 45 48  1  0  0  0  0
 46 47  2  0  0  0  0
 47 91  1  0  0  0  0
 48 50  1  0  0  0  0
 48 92  1  0  0  0  0
 48 93  1  0  0  0  0
 49 51  2  0  0  0  0
 49 52  1  0  0  0  0
 50 53  2  0  0  0  0
 50 95  1  0  0  0  0
 51 54  1  0  0  0  0
 51 96  1  0  0  0  0
 52 55  2  0  0  0  0
 52 97  1  0  0  0  0
 53 57  1  0  0  0  0
 53 58  1  0  0  0  0
 54 56  2  0  0  0  0
 54 99  1  0  0  0  0
 55 56  1  0  0  0  0
 55100  1  0  0  0  0
 57101  1  0  0  0  0
 57102  1  0  0  0  0
 57103  1  0  0  0  0
 58104  1  0  0  0  0
 58105  1  0  0  0  0
 58106  1  0  0  0  0
 59107  1  0  0  0  0
 59108  1  0  0  0  0
 59109  1  0  0  0  0
M  END
> <PUBCHEM_COMPOUND_CID>
92043273

> <PUBCHEM_COMPOUND_CANONICALIZED>
1

> <PUBCHEM_CACTVS_COMPLEXITY>
1470

> <PUBCHEM_CACTVS_HBOND_ACCEPTOR>
20

> <PUBCHEM_CACTVS_HBOND_DONOR>
11

> <PUBCHEM_CACTVS_ROTATABLE_BOND>
12

> <PUBCHEM_CACTVS_SUBSKEYS>
AAADcfB8PgAAAAAAAAAAAAAAAAAAAAAAAAA0aJECAAAAAACBQAAAGgAACAAADBSwmAMyDoAABgCIAqBSAAICCAAkIAAIiAFGCMgdNzaGNR6ieWCl4BUPuQfI7PzOIAACCAAIAABAAAQQABAAAAAAAAAAAA==

> <PUBCHEM_IUPAC_OPENEYE_NAME>
3-[(2S,3R,4R,5S,6S)-3,5-dihydroxy-6-methyl-4-[(2S,3R,4S,5S,6R)-3,4,5-trihydroxy-6-(hydroxymethyl)tetrahydropyran-2-yl]oxy-tetrahydropyran-2-yl]oxy-5-hydroxy-2-(4-methoxyphenyl)-8-(3-methylbut-2-enyl)-7-[(2S,3R,4S,5S,6R)-3,4,5-trihydroxy-6-(hydroxymethyl)tetrahydropyran-2-yl]oxy-chromen-4-one

> <PUBCHEM_IUPAC_CAS_NAME>
3-[[(2S,3R,4R,5S,6S)-3,5-dihydroxy-6-methyl-4-[[(2S,3R,4S,5S,6R)-3,4,5-trihydroxy-6-(hydroxymethyl)-2-oxanyl]oxy]-2-oxanyl]oxy]-5-hydroxy-2-(4-methoxyphenyl)-8-(3-methylbut-2-enyl)-7-[[(2S,3R,4S,5S,6R)-3,4,5-trihydroxy-6-(hydroxymethyl)-2-oxanyl]oxy]-1-benzopyran-4-one

> <PUBCHEM_IUPAC_NAME_MARKUP>
3-[(2<I>S</I>,3<I>R</I>,4<I>R</I>,5<I>S</I>,6<I>S</I>)-3,5-dihydroxy-6-methyl-4-[(2<I>S</I>,3<I>R</I>,4<I>S</I>,5<I>S</I>,6<I>R</I>)-3,4,5-trihydroxy-6-(hydroxymethyl)oxan-2-yl]oxyoxan-2-yl]oxy-5-hydroxy-2-(4-methoxyphenyl)-8-(3-methylbut-2-enyl)-7-[(2<I>S</I>,3<I>R</I>,4<I>S</I>,5<I>S</I>,6<I>R</I>)-3,4,5-trihydroxy-6-(hydroxymethyl)oxan-2-yl]oxychromen-4-one

> <PUBCHEM_IUPAC_NAME>
3-[(2S,3R,4R,5S,6S)-3,5-dihydroxy-6-methyl-4-[(2S,3R,4S,5S,6R)-3,4,5-trihydroxy-6-(hydroxymethyl)oxan-2-yl]oxyoxan-2-yl]oxy-5-hydroxy-2-(4-methoxyphenyl)-8-(3-methylbut-2-enyl)-7-[(2S,3R,4S,5S,6R)-3,4,5-trihydroxy-6-(hydroxymethyl)oxan-2-yl]oxychromen-4-one

> <PUBCHEM_IUPAC_SYSTEMATIC_NAME>
7-[(2S,3R,4S,5S,6R)-6-(hydroxymethyl)-3,4,5-tris(oxidanyl)oxan-2-yl]oxy-3-[(2S,3R,4R,5S,6S)-4-[(2S,3R,4S,5S,6R)-6-(hydroxymethyl)-3,4,5-tris(oxidanyl)oxan-2-yl]oxy-6-methyl-3,5-bis(oxidanyl)oxan-2-yl]oxy-2-(4-methoxyphenyl)-8-(3-methylbut-2-enyl)-5-oxidanyl-chromen-4-one

> <PUBCHEM_IUPAC_TRADITIONAL_NAME>
3-[(2S,3R,4R,5S,6S)-3,5-dihydroxy-6-methyl-4-[(2S,3R,4S,5S,6R)-3,4,5-trihydroxy-6-methylol-tetrahydropyran-2-yl]oxy-tetrahydropyran-2-yl]oxy-5-hydroxy-2-(4-methoxyphenyl)-8-(3-methylbut-2-enyl)-7-[(2S,3R,4S,5S,6R)-3,4,5-trihydroxy-6-methylol-tetrahydropyran-2-yl]oxy-chromone

> <PUBCHEM_IUPAC_INCHI>
InChI=1S/C39H50O20/c1-14(2)5-10-18-20(54-37-30(49)28(47)25(44)21(12-40)55-37)11-19(42)23-27(46)36(33(57-34(18)23)16-6-8-17(52-4)9-7-16)59-39-32(51)35(24(43)15(3)53-39)58-38-31(50)29(48)26(45)22(13-41)56-38/h5-9,11,15,21-22,24-26,28-32,35,37-45,47-51H,10,12-13H2,1-4H3/t15-,21+,22+,24-,25+,26+,28-,29-,30+,31+,32+,35+,37+,38-,39-/m0/s1

> <PUBCHEM_IUPAC_INCHIKEY>
NLVBYGTTYRFJKH-YFNAFYFCSA-N

> <PUBCHEM_XLOGP3_AA>
0.1

> <PUBCHEM_EXACT_MASS>
838.289544

> <PUBCHEM_MOLECULAR_FORMULA>
C39H50O20

> <PUBCHEM_MOLECULAR_WEIGHT>
838.8

> <PUBCHEM_OPENEYE_CAN_SMILES>
CC1C(C(C(C(O1)OC2=C(OC3=C(C2=O)C(=CC(=C3CC=C(C)C)OC4C(C(C(C(O4)CO)O)O)O)O)C5=CC=C(C=C5)OC)O)OC6C(C(C(C(O6)CO)O)O)O)O

> <PUBCHEM_OPENEYE_ISO_SMILES>
C[C@H]1[C@@H]([C@H]([C@H]([C@@H](O1)OC2=C(OC3=C(C2=O)C(=CC(=C3CC=C(C)C)O[C@H]4[C@@H]([C@H]([C@@H]([C@H](O4)CO)O)O)O)O)C5=CC=C(C=C5)OC)O)O[C@H]6[C@@H]([C@H]([C@@H]([C@H](O6)CO)O)O)O)O

> <PUBCHEM_CACTVS_TPSA>
313

> <PUBCHEM_MONOISOTOPIC_WEIGHT>
838.289544

> <PUBCHEM_TOTAL_CHARGE>
0

> <PUBCHEM_HEAVY_ATOM_COUNT>
59

> <PUBCHEM_ATOM_DEF_STEREO_COUNT>
15

> <PUBCHEM_ATOM_UDEF_STEREO_COUNT>
0

> <PUBCHEM_BOND_DEF_STEREO_COUNT>
0

> <PUBCHEM_BOND_UDEF_STEREO_COUNT>
0

> <PUBCHEM_ISOTOPIC_ATOM_COUNT>
0

> <PUBCHEM_COMPONENT_COUNT>
1

> <PUBCHEM_CACTVS_TAUTO_COUNT>
-1

> <PUBCHEM_COORDINATE_TYPE>
1
5
255

> <PUBCHEM_BONDANNOTATIONS>
21  1  6
24  1  5
37  12  5
33  13  5
34  14  6
35  15  6
16  40  8
16  44  8
26  31  6
30  32  5
36  39  5
38  40  8
38  41  8
22  4  5
41  42  8
42  44  8
42  46  8
43  45  8
43  47  8
44  45  8
46  47  8
49  51  8
49  52  8
23  5  6
51  54  8
52  55  8
54  56  8
55  56  8
29  6  5
25  7  6
27  8  5
28  9  6

$$$$
