44258792
  -OEChem-09062004102D

105110  0     1  0  0  0  0  0999 V2000
    6.8779   -3.6913    0.0000 O   0  0  0  0  0  0  0  0  0  0  0  0
    5.1459   -1.6913    0.0000 O   0  0  0  0  0  0  0  0  0  0  0  0
    6.0119   -5.1913    0.0000 O   0  0  0  0  0  0  0  0  0  0  0  0
    6.8779   -1.6913    0.0000 O   0  0  0  0  0  0  0  0  0  0  0  0
    5.1459   -4.6913    0.0000 O   0  0  0  0  0  0  0  0  0  0  0  0
    3.4138   -3.6913    0.0000 O   0  0  0  0  0  0  0  0  0  0  0  0
    8.6100   -4.6913    0.0000 O   0  0  0  0  0  0  0  0  0  0  0  0
    8.6100   -6.6913    0.0000 O   0  0  0  0  0  0  0  0  0  0  0  0
    6.8779   -7.6913    0.0000 O   0  0  0  0  0  0  0  0  0  0  0  0
    5.1396    5.3813    0.0000 O   0  0  0  0  0  0  0  0  0  0  0  0
    5.9998    3.8780    0.0000 O   0  0  0  0  0  0  0  0  0  0  0  0
    2.5357    3.8913    0.0000 O   0  0  0  0  0  0  0  0  0  0  0  0
    2.5434    5.8913    0.0000 O   0  0  0  0  0  0  0  0  0  0  0  0
    4.2639    2.8847    0.0000 O   0  0  0  0  0  0  0  0  0  0  0  0
    7.7440    0.8087    0.0000 O   0  0  0  0  0  0  0  0  0  0  0  0
    5.1473    7.3813    0.0000 O   0  0  0  0  0  0  0  0  0  0  0  0
    5.1459   -0.6913    0.0000 O   0  0  0  0  0  0  0  0  0  0  0  0
    4.2417    0.8056    0.0000 O   0  0  0  0  0  0  0  0  0  0  0  0
   11.2081   -2.1913    0.0000 O   0  0  0  0  0  0  0  0  0  0  0  0
    6.0119   -3.1913    0.0000 C   0  0  1  0  0  0  0  0  0  0  0  0
    5.1459   -3.6913    0.0000 C   0  0  3  0  0  0  0  0  0  0  0  0
    4.2799   -3.1913    0.0000 C   0  0  2  0  0  0  0  0  0  0  0  0
    6.8779   -4.6913    0.0000 C   0  0  2  0  0  0  0  0  0  0  0  0
    6.0119   -2.1913    0.0000 C   0  0  1  0  0  0  0  0  0  0  0  0
    7.7440   -5.1913    0.0000 C   0  0  2  0  0  0  0  0  0  0  0  0
    4.2799   -2.1913    0.0000 C   0  0  3  0  0  0  0  0  0  0  0  0
    7.7440   -6.1913    0.0000 C   0  0  3  0  0  0  0  0  0  0  0  0
    6.8779   -6.6913    0.0000 C   0  0  2  0  0  0  0  0  0  0  0  0
    6.0119   -6.1913    0.0000 C   0  0  3  0  0  0  0  0  0  0  0  0
    3.4138   -1.6913    0.0000 C   0  0  0  0  0  0  0  0  0  0  0  0
    5.1459   -6.6913    0.0000 C   0  0  0  0  0  0  0  0  0  0  0  0
    3.4037    4.3880    0.0000 C   0  0  1  0  0  0  0  0  0  0  0  0
    3.4075    5.3880    0.0000 C   0  0  1  0  0  0  0  0  0  0  0  0
    4.2678    3.8846    0.0000 C   0  0  3  0  0  0  0  0  0  0  0  0
    4.2755    5.8846    0.0000 C   0  0  3  0  0  0  0  0  0  0  0  0
    5.1357    4.3813    0.0000 C   0  0  1  0  0  0  0  0  0  0  0  0
    6.8779   -0.6913    0.0000 C   0  0  0  0  0  0  0  0  0  0  0  0
    4.2793    6.8846    0.0000 C   0  0  0  0  0  0  0  0  0  0  0  0
    6.0119   -0.1913    0.0000 C   0  0  0  0  0  0  0  0  0  0  0  0
    7.7440   -0.1913    0.0000 C   0  0  0  0  0  0  0  0  0  0  0  0
    6.0119    0.8087    0.0000 C   0  0  0  0  0  0  0  0  0  0  0  0
    5.9960    2.8780    0.0000 C   0  0  0  0  0  0  0  0  0  0  0  0
    6.8779    1.3087    0.0000 C   0  0  0  0  0  0  0  0  0  0  0  0
    6.8940    2.3502    0.0000 C   0  0  0  0  0  0  0  0  0  0  0  0
    5.1019    1.3156    0.0000 C   0  0  0  0  0  0  0  0  0  0  0  0
    5.0939    2.3572    0.0000 C   0  0  0  0  0  0  0  0  0  0  0  0
    7.7657    2.8402    0.0000 C   0  0  0  0  0  0  0  0  0  0  0  0
    8.6100   -0.6913    0.0000 C   0  0  0  0  0  0  0  0  0  0  0  0
    7.7773    3.8401    0.0000 C   0  0  0  0  0  0  0  0  0  0  0  0
    8.6100   -1.6913    0.0000 C   0  0  0  0  0  0  0  0  0  0  0  0
    9.4760   -0.1913    0.0000 C   0  0  0  0  0  0  0  0  0  0  0  0
    8.6491    4.3301    0.0000 C   0  0  0  0  0  0  0  0  0  0  0  0
    9.4760   -2.1913    0.0000 C   0  0  0  0  0  0  0  0  0  0  0  0
   10.3420   -0.6913    0.0000 C   0  0  0  0  0  0  0  0  0  0  0  0
   10.3420   -1.6913    0.0000 C   0  0  0  0  0  0  0  0  0  0  0  0
    8.6606    5.3300    0.0000 C   0  0  0  0  0  0  0  0  0  0  0  0
    9.5092    3.8201    0.0000 C   0  0  0  0  0  0  0  0  0  0  0  0
    6.0119   -3.8113    0.0000 H   0  0  0  0  0  0  0  0  0  0  0  0
    4.6090   -4.0013    0.0000 H   0  0  0  0  0  0  0  0  0  0  0  0
    3.7429   -2.8813    0.0000 H   0  0  0  0  0  0  0  0  0  0  0  0
    7.4149   -4.3813    0.0000 H   0  0  0  0  0  0  0  0  0  0  0  0
    6.0119   -1.5713    0.0000 H   0  0  0  0  0  0  0  0  0  0  0  0
    8.2809   -5.5013    0.0000 H   0  0  0  0  0  0  0  0  0  0  0  0
    4.2799   -1.5713    0.0000 H   0  0  0  0  0  0  0  0  0  0  0  0
    8.2809   -5.8813    0.0000 H   0  0  0  0  0  0  0  0  0  0  0  0
    7.4149   -7.0013    0.0000 H   0  0  0  0  0  0  0  0  0  0  0  0
    5.4750   -5.8813    0.0000 H   0  0  0  0  0  0  0  0  0  0  0  0
    3.7238   -1.1543    0.0000 H   0  0  0  0  0  0  0  0  0  0  0  0
    2.8769   -1.3813    0.0000 H   0  0  0  0  0  0  0  0  0  0  0  0
    3.1038   -2.2282    0.0000 H   0  0  0  0  0  0  0  0  0  0  0  0
    4.8359   -6.1543    0.0000 H   0  0  0  0  0  0  0  0  0  0  0  0
    4.6090   -7.0013    0.0000 H   0  0  0  0  0  0  0  0  0  0  0  0
    5.4559   -7.2282    0.0000 H   0  0  0  0  0  0  0  0  0  0  0  0
    3.9394    4.0759    0.0000 H   0  0  0  0  0  0  0  0  0  0  0  0
    2.8694    5.0800    0.0000 H   0  0  0  0  0  0  0  0  0  0  0  0
    4.6090   -5.0013    0.0000 H   0  0  0  0  0  0  0  0  0  0  0  0
    3.7296    3.5767    0.0000 H   0  0  0  0  0  0  0  0  0  0  0  0
    4.8136    6.1926    0.0000 H   0  0  0  0  0  0  0  0  0  0  0  0
    2.8769   -3.3813    0.0000 H   0  0  0  0  0  0  0  0  0  0  0  0
    5.1333    3.7613    0.0000 H   0  0  0  0  0  0  0  0  0  0  0  0
    9.1469   -5.0013    0.0000 H   0  0  0  0  0  0  0  0  0  0  0  0
    8.6100   -7.3113    0.0000 H   0  0  0  0  0  0  0  0  0  0  0  0
    6.3410   -8.0013    0.0000 H   0  0  0  0  0  0  0  0  0  0  0  0
    4.0695    7.4680    0.0000 H   0  0  0  0  0  0  0  0  0  0  0  0
    3.6684    6.7793    0.0000 H   0  0  0  0  0  0  0  0  0  0  0  0
    2.0000    4.2034    0.0000 H   0  0  0  0  0  0  0  0  0  0  0  0
    2.5458    6.5113    0.0000 H   0  0  0  0  0  0  0  0  0  0  0  0
    3.7258    2.5767    0.0000 H   0  0  0  0  0  0  0  0  0  0  0  0
    4.5558    2.6651    0.0000 H   0  0  0  0  0  0  0  0  0  0  0  0
    7.9710    2.2552    0.0000 H   0  0  0  0  0  0  0  0  0  0  0  0
    8.3775    2.9408    0.0000 H   0  0  0  0  0  0  0  0  0  0  0  0
    5.1497    8.0013    0.0000 H   0  0  0  0  0  0  0  0  0  0  0  0
    7.2440    4.1563    0.0000 H   0  0  0  0  0  0  0  0  0  0  0  0
    8.0730   -2.0013    0.0000 H   0  0  0  0  0  0  0  0  0  0  0  0
    9.4760    0.4287    0.0000 H   0  0  0  0  0  0  0  0  0  0  0  0
    3.7012    1.1094    0.0000 H   0  0  0  0  0  0  0  0  0  0  0  0
    9.4760   -2.8113    0.0000 H   0  0  0  0  0  0  0  0  0  0  0  0
   10.8790   -0.3813    0.0000 H   0  0  0  0  0  0  0  0  0  0  0  0
    9.2806    5.3228    0.0000 H   0  0  0  0  0  0  0  0  0  0  0  0
    8.6678    5.9500    0.0000 H   0  0  0  0  0  0  0  0  0  0  0  0
    8.0407    5.3372    0.0000 H   0  0  0  0  0  0  0  0  0  0  0  0
    9.1931    3.2868    0.0000 H   0  0  0  0  0  0  0  0  0  0  0  0
   10.0426    3.5039    0.0000 H   0  0  0  0  0  0  0  0  0  0  0  0
    9.8254    4.3534    0.0000 H   0  0  0  0  0  0  0  0  0  0  0  0
   11.7450   -1.8813    0.0000 H   0  0  0  0  0  0  0  0  0  0  0  0
 20  1  1  1  0  0  0
 23  1  1  1  0  0  0
  2 24  1  0  0  0  0
  2 26  1  0  0  0  0
  3 23  1  0  0  0  0
  3 29  1  0  0  0  0
 24  4  1  1  0  0  0
  4 37  1  0  0  0  0
  5 21  1  0  0  0  0
  5 76  1  0  0  0  0
 22  6  1  1  0  0  0
  6 79  1  0  0  0  0
 25  7  1  1  0  0  0
  7 81  1  0  0  0  0
  8 27  1  0  0  0  0
  8 82  1  0  0  0  0
 28  9  1  1  0  0  0
  9 83  1  0  0  0  0
 10 35  1  0  0  0  0
 10 36  1  0  0  0  0
 36 11  1  1  0  0  0
 11 42  1  0  0  0  0
 32 12  1  1  0  0  0
 12 86  1  0  0  0  0
 33 13  1  6  0  0  0
 13 87  1  0  0  0  0
 14 34  1  0  0  0  0
 14 88  1  0  0  0  0
 15 40  1  0  0  0  0
 15 43  1  0  0  0  0
 16 38  1  0  0  0  0
 16 92  1  0  0  0  0
 17 39  2  0  0  0  0
 18 45  1  0  0  0  0
 18 96  1  0  0  0  0
 19 55  1  0  0  0  0
 19105  1  0  0  0  0
 20 21  1  0  0  0  0
 20 24  1  0  0  0  0
 20 58  1  0  0  0  0
 21 22  1  0  0  0  0
 21 59  1  0  0  0  0
 22 26  1  0  0  0  0
 22 60  1  0  0  0  0
 23 25  1  0  0  0  0
 23 61  1  0  0  0  0
 24 62  1  0  0  0  0
 25 27  1  0  0  0  0
 25 63  1  0  0  0  0
 26 30  1  0  0  0  0
 26 64  1  0  0  0  0
 27 28  1  0  0  0  0
 27 65  1  0  0  0  0
 28 29  1  0  0  0  0
 28 66  1  0  0  0  0
 29 31  1  0  0  0  0
 29 67  1  0  0  0  0
 30 68  1  0  0  0  0
 30 69  1  0  0  0  0
 30 70  1  0  0  0  0
 31 71  1  0  0  0  0
 31 72  1  0  0  0  0
 31 73  1  0  0  0  0
 32 33  1  0  0  0  0
 32 34  1  0  0  0  0
 32 74  1  0  0  0  0
 33 35  1  0  0  0  0
 33 75  1  0  0  0  0
 34 36  1  0  0  0  0
 34 77  1  0  0  0  0
 35 38  1  0  0  0  0
 35 78  1  0  0  0  0
 36 80  1  0  0  0  0
 37 39  1  0  0  0  0
 37 40  2  0  0  0  0
 38 84  1  0  0  0  0
 38 85  1  0  0  0  0
 39 41  1  0  0  0  0
 40 48  1  0  0  0  0
 41 43  2  0  0  0  0
 41 45  1  0  0  0  0
 42 44  2  0  0  0  0
 42 46  1  0  0  0  0
 43 44  1  0  0  0  0
 44 47  1  0  0  0  0
 45 46  2  0  0  0  0
 46 89  1  0  0  0  0
 47 49  1  0  0  0  0
 47 90  1  0  0  0  0
 47 91  1  0  0  0  0
 48 50  2  0  0  0  0
 48 51  1  0  0  0  0
 49 52  2  0  0  0  0
 49 93  1  0  0  0  0
 50 53  1  0  0  0  0
 50 94  1  0  0  0  0
 51 54  2  0  0  0  0
 51 95  1  0  0  0  0
 52 56  1  0  0  0  0
 52 57  1  0  0  0  0
 53 55  2  0  0  0  0
 53 97  1  0  0  0  0
 54 55  1  0  0  0  0
 54 98  1  0  0  0  0
 56 99  1  0  0  0  0
 56100  1  0  0  0  0
 56101  1  0  0  0  0
 57102  1  0  0  0  0
 57103  1  0  0  0  0
 57104  1  0  0  0  0
M  END
> <PUBCHEM_COMPOUND_CID>
44258792

> <PUBCHEM_COMPOUND_CANONICALIZED>
1

> <PUBCHEM_CACTVS_COMPLEXITY>
1430

> <PUBCHEM_CACTVS_HBOND_ACCEPTOR>
19

> <PUBCHEM_CACTVS_HBOND_DONOR>
11

> <PUBCHEM_CACTVS_ROTATABLE_BOND>
10

> <PUBCHEM_CACTVS_SUBSKEYS>
AAADcfB8PgAAAAAAAAAAAAAAAAAAAAAAAAA0aJECAAAAAACBQAAAGgAACAAADBSwmAMyDoAABgCIAqBSAAICCAAkIAAIiAFGCMgdNzaGNR6ieWCl4BUPuQfI7PzOIAACCAAIAABAAAQQABAAAAAAAAAAAA==

> <PUBCHEM_IUPAC_OPENEYE_NAME>
3-[(2S,3S,5R)-4,5-dihydroxy-6-methyl-3-[(2S,3S,5R)-3,4,5-trihydroxy-6-methyl-tetrahydropyran-2-yl]oxy-tetrahydropyran-2-yl]oxy-5-hydroxy-2-(4-hydroxyphenyl)-8-(3-methylbut-2-enyl)-7-[(2S,4S,5S)-3,4,5-trihydroxy-6-(hydroxymethyl)tetrahydropyran-2-yl]oxy-chromen-4-one

> <PUBCHEM_IUPAC_CAS_NAME>
3-[[(2S,3S,5R)-4,5-dihydroxy-6-methyl-3-[[(2S,3S,5R)-3,4,5-trihydroxy-6-methyl-2-oxanyl]oxy]-2-oxanyl]oxy]-5-hydroxy-2-(4-hydroxyphenyl)-8-(3-methylbut-2-enyl)-7-[[(2S,4S,5S)-3,4,5-trihydroxy-6-(hydroxymethyl)-2-oxanyl]oxy]-1-benzopyran-4-one

> <PUBCHEM_IUPAC_NAME_MARKUP>
3-[(2<I>S</I>,3<I>S</I>,5<I>R</I>)-4,5-dihydroxy-6-methyl-3-[(2<I>S</I>,3<I>S</I>,5<I>R</I>)-3,4,5-trihydroxy-6-methyloxan-2-yl]oxyoxan-2-yl]oxy-5-hydroxy-2-(4-hydroxyphenyl)-8-(3-methylbut-2-enyl)-7-[(2<I>S</I>,4<I>S</I>,5<I>S</I>)-3,4,5-trihydroxy-6-(hydroxymethyl)oxan-2-yl]oxychromen-4-one

> <PUBCHEM_IUPAC_NAME>
3-[(2S,3S,5R)-4,5-dihydroxy-6-methyl-3-[(2S,3S,5R)-3,4,5-trihydroxy-6-methyloxan-2-yl]oxyoxan-2-yl]oxy-5-hydroxy-2-(4-hydroxyphenyl)-8-(3-methylbut-2-enyl)-7-[(2S,4S,5S)-3,4,5-trihydroxy-6-(hydroxymethyl)oxan-2-yl]oxychromen-4-one

> <PUBCHEM_IUPAC_SYSTEMATIC_NAME>
7-[(2S,4S,5S)-6-(hydroxymethyl)-3,4,5-tris(oxidanyl)oxan-2-yl]oxy-2-(4-hydroxyphenyl)-8-(3-methylbut-2-enyl)-3-[(2S,3S,5R)-6-methyl-3-[(2S,3S,5R)-6-methyl-3,4,5-tris(oxidanyl)oxan-2-yl]oxy-4,5-bis(oxidanyl)oxan-2-yl]oxy-5-oxidanyl-chromen-4-one

> <PUBCHEM_IUPAC_TRADITIONAL_NAME>
3-[(2S,3S,5R)-4,5-dihydroxy-6-methyl-3-[(2S,3S,5R)-3,4,5-trihydroxy-6-methyl-tetrahydropyran-2-yl]oxy-tetrahydropyran-2-yl]oxy-5-hydroxy-2-(4-hydroxyphenyl)-8-(3-methylbut-2-enyl)-7-[(2S,4S,5S)-3,4,5-trihydroxy-6-methylol-tetrahydropyran-2-yl]oxy-chromone

> <PUBCHEM_IUPAC_INCHI>
InChI=1S/C38H48O19/c1-13(2)5-10-18-20(53-37-31(50)28(47)25(44)21(12-39)54-37)11-19(41)22-26(45)34(32(55-33(18)22)16-6-8-17(40)9-7-16)56-38-35(29(48)24(43)15(4)52-38)57-36-30(49)27(46)23(42)14(3)51-36/h5-9,11,14-15,21,23-25,27-31,35-44,46-50H,10,12H2,1-4H3/t14?,15?,21?,23-,24-,25+,27?,28-,29?,30-,31?,35-,36-,37+,38-/m0/s1

> <PUBCHEM_IUPAC_INCHIKEY>
ABEPLDYBWOKMCT-PUWSOPCHSA-N

> <PUBCHEM_XLOGP3_AA>
0.2

> <PUBCHEM_EXACT_MASS>
808.278979

> <PUBCHEM_MOLECULAR_FORMULA>
C38H48O19

> <PUBCHEM_MOLECULAR_WEIGHT>
808.8

> <PUBCHEM_OPENEYE_CAN_SMILES>
CC1C(C(C(C(O1)OC2C(C(C(OC2OC3=C(OC4=C(C3=O)C(=CC(=C4CC=C(C)C)OC5C(C(C(C(O5)CO)O)O)O)O)C6=CC=C(C=C6)O)C)O)O)O)O)O

> <PUBCHEM_OPENEYE_ISO_SMILES>
CC1[C@@H](C([C@@H]([C@@H](O1)O[C@@H]2[C@@H](OC([C@@H](C2O)O)C)OC3=C(OC4=C(C3=O)C(=CC(=C4CC=C(C)C)O[C@H]5C([C@H]([C@@H](C(O5)CO)O)O)O)O)C6=CC=C(C=C6)O)O)O)O

> <PUBCHEM_CACTVS_TPSA>
304

> <PUBCHEM_MONOISOTOPIC_WEIGHT>
808.278979

> <PUBCHEM_TOTAL_CHARGE>
0

> <PUBCHEM_HEAVY_ATOM_COUNT>
57

> <PUBCHEM_ATOM_DEF_STEREO_COUNT>
9

> <PUBCHEM_ATOM_UDEF_STEREO_COUNT>
6

> <PUBCHEM_BOND_DEF_STEREO_COUNT>
0

> <PUBCHEM_BOND_UDEF_STEREO_COUNT>
0

> <PUBCHEM_ISOTOPIC_ATOM_COUNT>
0

> <PUBCHEM_COMPONENT_COUNT>
1

> <PUBCHEM_CACTVS_TAUTO_COUNT>
-1

> <PUBCHEM_COORDINATE_TYPE>
1
5
255

> <PUBCHEM_BONDANNOTATIONS>
20  1  5
23  1  5
36  11  5
32  12  5
33  13  6
34  14  3
15  40  8
15  43  8
26  30  3
29  31  3
35  38  3
37  39  8
37  40  8
39  41  8
24  4  5
41  43  8
41  45  8
42  44  8
42  46  8
43  44  8
45  46  8
48  50  8
48  51  8
21  5  3
50  53  8
51  54  8
53  55  8
54  55  8
22  6  5
25  7  5
27  8  3
28  9  5

$$$$
