72724
  -OEChem-09012012373D

 37 39  0     1  0  0  0  0  0999 V2000
   -1.9540    1.3043   -0.4309 O   0  0  0  0  0  0  0  0  0  0  0  0
   -3.5696    0.1497   -1.5925 O   0  0  0  0  0  0  0  0  0  0  0  0
    1.1166    0.9304   -0.0018 C   0  0  1  0  0  0  0  0  0  0  0  0
    0.9795   -0.5667    0.2793 C   0  0  0  0  0  0  0  0  0  0  0  0
    0.0884    1.7439    0.8445 C   0  0  0  0  0  0  0  0  0  0  0  0
    2.5286    1.4394    0.3982 C   0  0  0  0  0  0  0  0  0  0  0  0
   -1.3252    1.1682    0.8540 C   0  0  2  0  0  0  0  0  0  0  0  0
    2.1507   -1.4872   -0.0379 C   0  0  2  0  0  0  0  0  0  0  0  0
   -1.3667   -0.3105    1.2083 C   0  0  2  0  0  0  0  0  0  0  0  0
    3.6731    0.5597   -0.1008 C   0  0  0  0  0  0  0  0  0  0  0  0
    3.4951   -0.8758    0.3788 C   0  0  0  0  0  0  0  0  0  0  0  0
   -0.1364   -1.0860    0.8285 C   0  0  0  0  0  0  0  0  0  0  0  0
    0.8778    1.2148   -1.5020 C   0  0  0  0  0  0  0  0  0  0  0  0
   -2.5586   -0.7253    0.4185 C   0  0  0  0  0  0  0  0  0  0  0  0
    2.1575   -1.9406   -1.5008 C   0  0  0  0  0  0  0  0  0  0  0  0
   -2.7944    0.2545   -0.6597 C   0  0  0  0  0  0  0  0  0  0  0  0
   -3.3624   -1.7727    0.6164 C   0  0  0  0  0  0  0  0  0  0  0  0
    0.0579    2.7809    0.4858 H   0  0  0  0  0  0  0  0  0  0  0  0
    0.4287    1.7847    1.8886 H   0  0  0  0  0  0  0  0  0  0  0  0
    2.6074    1.4928    1.4929 H   0  0  0  0  0  0  0  0  0  0  0  0
    2.6761    2.4637    0.0326 H   0  0  0  0  0  0  0  0  0  0  0  0
   -1.9338    1.7499    1.5597 H   0  0  0  0  0  0  0  0  0  0  0  0
    2.0416   -2.4062    0.5564 H   0  0  0  0  0  0  0  0  0  0  0  0
   -1.5287   -0.4298    2.2861 H   0  0  0  0  0  0  0  0  0  0  0  0
    4.6222    0.9529    0.2821 H   0  0  0  0  0  0  0  0  0  0  0  0
    3.7434    0.5940   -1.1927 H   0  0  0  0  0  0  0  0  0  0  0  0
    4.3237   -1.4922    0.0099 H   0  0  0  0  0  0  0  0  0  0  0  0
    3.5660   -0.8895    1.4748 H   0  0  0  0  0  0  0  0  0  0  0  0
   -0.1751   -2.1555    1.0290 H   0  0  0  0  0  0  0  0  0  0  0  0
    0.7207    2.2849   -1.6803 H   0  0  0  0  0  0  0  0  0  0  0  0
    1.7274    0.9228   -2.1240 H   0  0  0  0  0  0  0  0  0  0  0  0
    0.0052    0.6798   -1.8899 H   0  0  0  0  0  0  0  0  0  0  0  0
    2.4208   -1.1372   -2.1921 H   0  0  0  0  0  0  0  0  0  0  0  0
    2.8920   -2.7412   -1.6440 H   0  0  0  0  0  0  0  0  0  0  0  0
    1.1793   -2.3357   -1.7962 H   0  0  0  0  0  0  0  0  0  0  0  0
   -3.1761   -2.4668    1.4292 H   0  0  0  0  0  0  0  0  0  0  0  0
   -4.2197   -1.9647   -0.0197 H   0  0  0  0  0  0  0  0  0  0  0  0
  1  7  1  0  0  0  0
  1 16  1  0  0  0  0
  2 16  2  0  0  0  0
  3  4  1  0  0  0  0
  3  5  1  0  0  0  0
  3  6  1  0  0  0  0
  3 13  1  0  0  0  0
  4  8  1  0  0  0  0
  4 12  2  0  0  0  0
  5  7  1  0  0  0  0
  5 18  1  0  0  0  0
  5 19  1  0  0  0  0
  6 10  1  0  0  0  0
  6 20  1  0  0  0  0
  6 21  1  0  0  0  0
  7  9  1  0  0  0  0
  7 22  1  0  0  0  0
  8 11  1  0  0  0  0
  8 15  1  0  0  0  0
  8 23  1  0  0  0  0
  9 12  1  0  0  0  0
  9 14  1  0  0  0  0
  9 24  1  0  0  0  0
 10 11  1  0  0  0  0
 10 25  1  0  0  0  0
 10 26  1  0  0  0  0
 11 27  1  0  0  0  0
 11 28  1  0  0  0  0
 12 29  1  0  0  0  0
 13 30  1  0  0  0  0
 13 31  1  0  0  0  0
 13 32  1  0  0  0  0
 14 16  1  0  0  0  0
 14 17  2  0  0  0  0
 15 33  1  0  0  0  0
 15 34  1  0  0  0  0
 15 35  1  0  0  0  0
 17 36  1  0  0  0  0
 17 37  1  0  0  0  0
M  END
> <PUBCHEM_COMPOUND_CID>
72724

> <PUBCHEM_CONFORMER_RMSD>
0.6

> <PUBCHEM_CONFORMER_DIVERSEORDER>
1
2

> <PUBCHEM_MMFF94_PARTIAL_CHARGES>
14
1 -0.43
12 -0.29
14 -0.12
16 0.71
17 -0.3
2 -0.57
29 0.15
3 0.14
36 0.15
37 0.15
4 -0.28
7 0.28
8 0.14
9 0.28

> <PUBCHEM_EFFECTIVE_ROTOR_COUNT>
1.2

> <PUBCHEM_PHARMACOPHORE_FEATURES>
4
1 2 acceptor
5 1 7 9 14 16 rings
6 3 4 5 7 9 12 rings
6 3 4 6 8 10 11 rings

> <PUBCHEM_HEAVY_ATOM_COUNT>
17

> <PUBCHEM_ATOM_DEF_STEREO_COUNT>
4

> <PUBCHEM_ATOM_UDEF_STEREO_COUNT>
0

> <PUBCHEM_BOND_DEF_STEREO_COUNT>
0

> <PUBCHEM_BOND_UDEF_STEREO_COUNT>
0

> <PUBCHEM_ISOTOPIC_ATOM_COUNT>
0

> <PUBCHEM_COMPONENT_COUNT>
1

> <PUBCHEM_CACTVS_TAUTO_COUNT>
1

> <PUBCHEM_CONFORMER_ID>
00011C1400000001

> <PUBCHEM_MMFF94_ENERGY>
35.8739

> <PUBCHEM_FEATURE_SELFOVERLAP>
20.559

> <PUBCHEM_SHAPE_FINGERPRINT>
10863032 1 18260541229795192364
10922523 26 18187645838193804823
12808571 1 12612753493055286929
13296908 3 18408890620017457754
13380536 127 15625675915953068746
13571099 22 18335416863687639400
13705890 14 18334574672172097936
14181834 199 18041293165720470500
14289901 80 16845287211853145098
15219456 202 18335418010401716041
15906896 17 17629496198279626673
16945 1 18131633408765921304
17834072 14 18410283705713381888
18186145 218 18186804642889214403
18522851 268 18187364393387490431
18981168 100 12036309336405216854
19868273 293 16588021282146828559
200 152 18060412512769243136
20201158 50 18410009922880757962
20233049 118 15864339216981813900
20525323 117 18059862727001438673
20645477 70 18272082807953009727
21501502 16 18269843012747041976
22802520 49 18335416885447500837
23402539 116 17968084365432720042
23419403 2 17042258036799636520
23557571 272 18114181981948330603
23559900 14 18335412449078353538
2748010 2 18334303075456722411
296302 2 18272649047545456864
57812782 119 18410005550677858216
7832392 63 17983026552402943072
81228 2 18054233115872292784
9709674 26 18342176609503762518

> <PUBCHEM_SHAPE_MULTIPOLES>
338.11
5.8
1.97
1.3
0.67
0.22
-0.43
1.42
-0.68
-0.47
-0.06
0.38
0.02
0.59

> <PUBCHEM_SHAPE_SELFOVERLAP>
724.133

> <PUBCHEM_SHAPE_VOLUME>
186.9

> <PUBCHEM_COORDINATE_TYPE>
2
5
10

$$$$
