46939340
  -OEChem-08292010543D

 76 79  0     1  0  0  0  0  0999 V2000
    3.3918   -2.4981   -0.1908 O   0  0  0  0  0  0  0  0  0  0  0  0
    5.5895    1.7776    0.0543 O   0  0  0  0  0  0  0  0  0  0  0  0
   -7.4948    0.3820   -0.0720 N   0  0  0  0  0  0  0  0  0  0  0  0
    5.0263   -0.4167    0.5928 N   0  0  0  0  0  0  0  0  0  0  0  0
   -3.6568    0.3222   -0.2618 C   0  0  1  0  0  0  0  0  0  0  0  0
   -2.9905   -1.0098    0.1471 C   0  0  2  0  0  0  0  0  0  0  0  0
   -1.5235   -1.1018   -0.2869 C   0  0  1  0  0  0  0  0  0  0  0  0
   -0.7352    0.0709    0.3788 C   0  0  1  0  0  0  0  0  0  0  0  0
   -5.0879    0.0536    0.2646 C   0  0  2  0  0  0  0  0  0  0  0  0
    0.7961    0.0242    0.0280 C   0  0  2  0  0  0  0  0  0  0  0  0
   -2.9111    1.4596    0.4511 C   0  0  0  0  0  0  0  0  0  0  0  0
   -1.4067    1.4458    0.1236 C   0  0  0  0  0  0  0  0  0  0  0  0
   -3.9760   -2.0682   -0.3386 C   0  0  0  0  0  0  0  0  0  0  0  0
   -5.3564   -1.4155   -0.1381 C   0  0  0  0  0  0  0  0  0  0  0  0
   -0.9105   -2.4591    0.0849 C   0  0  0  0  0  0  0  0  0  0  0  0
    1.3411   -1.3734    0.4392 C   0  0  1  0  0  0  0  0  0  0  0  0
    0.5821   -2.5248   -0.2273 C   0  0  0  0  0  0  0  0  0  0  0  0
   -3.6650    0.5828   -1.7892 C   0  0  0  0  0  0  0  0  0  0  0  0
   -6.1776    1.0057   -0.2070 C   0  0  2  0  0  0  0  0  0  0  0  0
    1.5729    1.0884    0.8533 C   0  0  0  0  0  0  0  0  0  0  0  0
    1.0303    0.3011   -1.4820 C   0  0  0  0  0  0  0  0  0  0  0  0
    2.8495   -1.4718    0.2148 C   0  0  0  0  0  0  0  0  0  0  0  0
    3.0602    0.8713    0.8897 C   0  0  0  0  0  0  0  0  0  0  0  0
   -6.1534    2.3096    0.5871 C   0  0  0  0  0  0  0  0  0  0  0  0
    3.6699   -0.2804    0.5802 C   0  0  0  0  0  0  0  0  0  0  0  0
   -7.9328    0.4120    1.3225 C   0  0  0  0  0  0  0  0  0  0  0  0
   -8.4684    1.0562   -0.9293 C   0  0  0  0  0  0  0  0  0  0  0  0
    5.9047    0.6249    0.3280 C   0  0  0  0  0  0  0  0  0  0  0  0
    7.3243    0.1692    0.3848 C   0  0  0  0  0  0  0  0  0  0  0  0
    8.3376    0.6915   -0.3299 C   0  0  0  0  0  0  0  0  0  0  0  0
    8.2418    1.8378   -1.2973 C   0  0  0  0  0  0  0  0  0  0  0  0
    9.7288    0.1332   -0.1747 C   0  0  0  0  0  0  0  0  0  0  0  0
   -2.9950   -1.0761    1.2483 H   0  0  0  0  0  0  0  0  0  0  0  0
   -1.4684   -1.0135   -1.3763 H   0  0  0  0  0  0  0  0  0  0  0  0
   -0.8070   -0.0893    1.4667 H   0  0  0  0  0  0  0  0  0  0  0  0
   -5.0487    0.0694    1.3646 H   0  0  0  0  0  0  0  0  0  0  0  0
   -3.0367    1.3750    1.5380 H   0  0  0  0  0  0  0  0  0  0  0  0
   -3.3047    2.4377    0.1626 H   0  0  0  0  0  0  0  0  0  0  0  0
   -1.2686    1.7499   -0.9186 H   0  0  0  0  0  0  0  0  0  0  0  0
   -0.9235    2.2157    0.7357 H   0  0  0  0  0  0  0  0  0  0  0  0
   -3.8906   -2.9996    0.2303 H   0  0  0  0  0  0  0  0  0  0  0  0
   -3.8167   -2.3088   -1.3957 H   0  0  0  0  0  0  0  0  0  0  0  0
   -5.9191   -1.9382    0.6437 H   0  0  0  0  0  0  0  0  0  0  0  0
   -5.9250   -1.5021   -1.0713 H   0  0  0  0  0  0  0  0  0  0  0  0
   -1.4203   -3.2642   -0.4570 H   0  0  0  0  0  0  0  0  0  0  0  0
   -1.0614   -2.6545    1.1544 H   0  0  0  0  0  0  0  0  0  0  0  0
    1.2101   -1.4944    1.5260 H   0  0  0  0  0  0  0  0  0  0  0  0
    0.9731   -3.4863    0.1283 H   0  0  0  0  0  0  0  0  0  0  0  0
    0.7402   -2.5185   -1.3122 H   0  0  0  0  0  0  0  0  0  0  0  0
   -4.2858   -0.1344   -2.3354 H   0  0  0  0  0  0  0  0  0  0  0  0
   -2.6658    0.5323   -2.2298 H   0  0  0  0  0  0  0  0  0  0  0  0
   -4.0419    1.5867   -2.0150 H   0  0  0  0  0  0  0  0  0  0  0  0
   -6.0308    1.2375   -1.2658 H   0  0  0  0  0  0  0  0  0  0  0  0
    1.2147    1.1035    1.8906 H   0  0  0  0  0  0  0  0  0  0  0  0
    1.3858    2.0878    0.4414 H   0  0  0  0  0  0  0  0  0  0  0  0
    0.7337    1.3203   -1.7506 H   0  0  0  0  0  0  0  0  0  0  0  0
    2.0840    0.2031   -1.7625 H   0  0  0  0  0  0  0  0  0  0  0  0
    0.4704   -0.3811   -2.1265 H   0  0  0  0  0  0  0  0  0  0  0  0
    3.6154    1.7345    1.2432 H   0  0  0  0  0  0  0  0  0  0  0  0
   -5.3195    2.9325    0.2527 H   0  0  0  0  0  0  0  0  0  0  0  0
   -7.0351    2.9388    0.4311 H   0  0  0  0  0  0  0  0  0  0  0  0
   -6.0219    2.1613    1.6649 H   0  0  0  0  0  0  0  0  0  0  0  0
   -7.1976   -0.0225    2.0076 H   0  0  0  0  0  0  0  0  0  0  0  0
   -8.8251   -0.2190    1.4220 H   0  0  0  0  0  0  0  0  0  0  0  0
   -8.1565    1.0184   -1.9793 H   0  0  0  0  0  0  0  0  0  0  0  0
   -8.6543    2.1009   -0.6616 H   0  0  0  0  0  0  0  0  0  0  0  0
   -9.4294    0.5305   -0.8813 H   0  0  0  0  0  0  0  0  0  0  0  0
   -8.2208    1.4040    1.6882 H   0  0  0  0  0  0  0  0  0  0  0  0
    5.3882   -1.3676    0.5986 H   0  0  0  0  0  0  0  0  0  0  0  0
    7.5172   -0.6718    1.0476 H   0  0  0  0  0  0  0  0  0  0  0  0
   10.0870   -0.2644   -1.1300 H   0  0  0  0  0  0  0  0  0  0  0  0
   10.4167    0.9185    0.1557 H   0  0  0  0  0  0  0  0  0  0  0  0
    9.7747   -0.6778    0.5599 H   0  0  0  0  0  0  0  0  0  0  0  0
    8.6355    2.7514   -0.8409 H   0  0  0  0  0  0  0  0  0  0  0  0
    7.2250    2.0303   -1.6454 H   0  0  0  0  0  0  0  0  0  0  0  0
    8.8322    1.6232   -2.1952 H   0  0  0  0  0  0  0  0  0  0  0  0
  1 22  2  0  0  0  0
  2 28  2  0  0  0  0
  3 19  1  0  0  0  0
  3 26  1  0  0  0  0
  3 27  1  0  0  0  0
  4 25  1  0  0  0  0
  4 28  1  0  0  0  0
  4 69  1  0  0  0  0
  5  6  1  0  0  0  0
  5  9  1  0  0  0  0
  5 11  1  0  0  0  0
  5 18  1  0  0  0  0
  6  7  1  0  0  0  0
  6 13  1  0  0  0  0
  6 33  1  0  0  0  0
  7  8  1  0  0  0  0
  7 15  1  0  0  0  0
  7 34  1  0  0  0  0
  8 10  1  0  0  0  0
  8 12  1  0  0  0  0
  8 35  1  0  0  0  0
  9 14  1  0  0  0  0
  9 19  1  0  0  0  0
  9 36  1  0  0  0  0
 10 16  1  0  0  0  0
 10 20  1  0  0  0  0
 10 21  1  0  0  0  0
 11 12  1  0  0  0  0
 11 37  1  0  0  0  0
 11 38  1  0  0  0  0
 12 39  1  0  0  0  0
 12 40  1  0  0  0  0
 13 14  1  0  0  0  0
 13 41  1  0  0  0  0
 13 42  1  0  0  0  0
 14 43  1  0  0  0  0
 14 44  1  0  0  0  0
 15 17  1  0  0  0  0
 15 45  1  0  0  0  0
 15 46  1  0  0  0  0
 16 17  1  0  0  0  0
 16 22  1  0  0  0  0
 16 47  1  0  0  0  0
 17 48  1  0  0  0  0
 17 49  1  0  0  0  0
 18 50  1  0  0  0  0
 18 51  1  0  0  0  0
 18 52  1  0  0  0  0
 19 24  1  0  0  0  0
 19 53  1  0  0  0  0
 20 23  1  0  0  0  0
 20 54  1  0  0  0  0
 20 55  1  0  0  0  0
 21 56  1  0  0  0  0
 21 57  1  0  0  0  0
 21 58  1  0  0  0  0
 22 25  1  0  0  0  0
 23 25  2  0  0  0  0
 23 59  1  0  0  0  0
 24 60  1  0  0  0  0
 24 61  1  0  0  0  0
 24 62  1  0  0  0  0
 26 63  1  0  0  0  0
 26 64  1  0  0  0  0
 26 68  1  0  0  0  0
 27 65  1  0  0  0  0
 27 66  1  0  0  0  0
 27 67  1  0  0  0  0
 28 29  1  0  0  0  0
 29 30  2  0  0  0  0
 29 70  1  0  0  0  0
 30 31  1  0  0  0  0
 30 32  1  0  0  0  0
 31 74  1  0  0  0  0
 31 75  1  0  0  0  0
 31 76  1  0  0  0  0
 32 71  1  0  0  0  0
 32 72  1  0  0  0  0
 32 73  1  0  0  0  0
M  END
> <PUBCHEM_COMPOUND_CID>
46939340

> <PUBCHEM_CONFORMER_RMSD>
0.8

> <PUBCHEM_CONFORMER_DIVERSEORDER>
1
3
9
4
8
7
5
6
10
2

> <PUBCHEM_MMFF94_PARTIAL_CHARGES>
20
1 -0.57
16 0.06
19 0.27
2 -0.57
20 0.14
22 0.49
23 -0.29
25 0.12
26 0.27
27 0.27
28 0.62
29 -0.14
3 -0.81
30 -0.28
31 0.14
32 0.14
4 -0.54
59 0.15
69 0.37
70 0.15

> <PUBCHEM_EFFECTIVE_ROTOR_COUNT>
6.6

> <PUBCHEM_PHARMACOPHORE_FEATURES>
9
1 1 acceptor
1 2 acceptor
1 3 cation
1 4 donor
3 30 31 32 hydrophobe
5 5 6 9 13 14 rings
6 10 16 20 22 23 25 rings
6 5 6 7 8 11 12 rings
6 7 8 10 15 16 17 rings

> <PUBCHEM_HEAVY_ATOM_COUNT>
32

> <PUBCHEM_ATOM_DEF_STEREO_COUNT>
8

> <PUBCHEM_ATOM_UDEF_STEREO_COUNT>
0

> <PUBCHEM_BOND_DEF_STEREO_COUNT>
0

> <PUBCHEM_BOND_UDEF_STEREO_COUNT>
0

> <PUBCHEM_ISOTOPIC_ATOM_COUNT>
0

> <PUBCHEM_COMPONENT_COUNT>
1

> <PUBCHEM_CACTVS_TAUTO_COUNT>
30

> <PUBCHEM_CONFORMER_ID>
02CC3CCC00000001

> <PUBCHEM_MMFF94_ENERGY>
115.6113

> <PUBCHEM_FEATURE_SELFOVERLAP>
45.761

> <PUBCHEM_SHAPE_FINGERPRINT>
10 15 18040997332557189371
10165383 225 18410572881344856066
10299344 5 18333730226305167312
10369192 42 18413386532006497983
10411042 1 17834675277350625751
106641 1 16950286216987154233
11135926 11 18410565176210860023
11315181 36 18335139791917713569
11578080 2 17605817141206014950
12236239 1 18113896069822179426
12741549 16 13334733539795832662
12788726 201 17059777703022776041
12838862 33 18340469119517212465
13383668 362 10810498977728089654
14251764 18 18335133198177511139
14251764 46 18113336410278001777
14849402 71 18410576201582137505
15183329 4 18343018887039937080
15247644 1 14476962294007103060
15461852 350 17988637537039869207
1577012 14 18336256908099685522
15840311 113 17676492770373570724
15849732 13 17967814954992796436
16087824 20 18340486673893148129
16989713 51 17630600339919669167
16992610 120 18262249889252726302
18608769 82 18410293644605633411
18681886 176 18341604966605086704
19611394 137 17824556385180326099
21033648 29 18200297939827126610
21267235 1 18340487884187312482
21792961 116 17561087977722892456
22224240 67 14923944557192084808
23559900 14 18271516589255254137
23576562 1 17058913636943785641
24771293 8 18411140200071834613
249057 3 18411418440732397316
3092352 35 17822009831147648618
335352 9 18342171185397904549
350125 39 18411416219653822896
4017518 198 16774079587358374687
4073 2 18260270750294261755
4093350 32 17131556046202007238
4112364 45 17313395573380497764
4169191 19 18410291377015953149
4325135 7 18409729560712085540
44280117 145 18127406980774926142
5104073 3 18336263453782832603
5265222 85 18198907105590551854
5486654 2 18343863320475548851
5758199 1 18186519912686080746
59682541 35 17458068183048658729
59755656 215 18273215274564056814
9663363 56 16989124259070595984
9953998 17 15068624902908352945
9962374 69 7997676572183100368

> <PUBCHEM_SHAPE_MULTIPOLES>
636.84
25.84
2.24
1.05
24.75
0.94
0.24
-12.91
1.9
-0.58
0.07
-0.38
-0.29
-0.72

> <PUBCHEM_SHAPE_SELFOVERLAP>
1338.522

> <PUBCHEM_SHAPE_VOLUME>
358.4

> <PUBCHEM_COORDINATE_TYPE>
2
5
10

$$$$
