10433924
  -OEChem-08292010563D

 79 83  0     1  0  0  0  0  0999 V2000
    5.3496   -1.3566   -1.7029 O   0  0  0  0  0  0  0  0  0  0  0  0
   -7.9639   -0.4238   -0.4532 N   0  0  0  0  0  0  0  0  0  0  0  0
    4.5731    0.0931   -0.0678 N   0  0  0  0  0  0  0  0  0  0  0  0
   -3.4285    1.0072   -0.3701 C   0  0  2  0  0  0  0  0  0  0  0  0
   -4.2085   -0.0786    0.4028 C   0  0  1  0  0  0  0  0  0  0  0  0
   -1.9999    1.2008    0.1505 C   0  0  1  0  0  0  0  0  0  0  0  0
   -1.2312   -0.1535    0.0090 C   0  0  1  0  0  0  0  0  0  0  0  0
    0.2676   -0.0294    0.4745 C   0  0  2  0  0  0  0  0  0  0  0  0
   -5.5711    0.0325   -0.3239 C   0  0  2  0  0  0  0  0  0  0  0  0
    0.9212    1.1192   -0.3588 C   0  0  1  0  0  0  0  0  0  0  0  0
   -3.4786   -1.4143    0.2021 C   0  0  0  0  0  0  0  0  0  0  0  0
   -2.0081   -1.3328    0.6519 C   0  0  0  0  0  0  0  0  0  0  0  0
   -4.3829    2.1974   -0.3785 C   0  0  0  0  0  0  0  0  0  0  0  0
   -1.2780    2.3318   -0.5958 C   0  0  0  0  0  0  0  0  0  0  0  0
   -5.7801    1.5573   -0.4778 C   0  0  0  0  0  0  0  0  0  0  0  0
    0.1887    2.4550   -0.1890 C   0  0  0  0  0  0  0  0  0  0  0  0
    1.0476   -1.3376    0.1635 C   0  0  0  0  0  0  0  0  0  0  0  0
   -4.3601    0.2081    1.9180 C   0  0  0  0  0  0  0  0  0  0  0  0
    2.4262    1.2693   -0.0955 C   0  0  0  0  0  0  0  0  0  0  0  0
   -6.7537   -0.6639    0.3338 C   0  0  2  0  0  0  0  0  0  0  0  0
    0.3497    0.2384    1.9993 C   0  0  0  0  0  0  0  0  0  0  0  0
    2.5587   -1.2187    0.3832 C   0  0  0  0  0  0  0  0  0  0  0  0
    3.1687   -0.0404   -0.3767 C   0  0  2  0  0  0  0  0  0  0  0  0
   -6.5053   -2.1648    0.4693 C   0  0  0  0  0  0  0  0  0  0  0  0
   -9.1129   -1.0856    0.1631 C   0  0  0  0  0  0  0  0  0  0  0  0
   -7.7804   -0.8905   -1.8266 C   0  0  0  0  0  0  0  0  0  0  0  0
    5.5581   -0.5872   -0.7684 C   0  0  0  0  0  0  0  0  0  0  0  0
    6.9535   -0.3626   -0.3107 C   0  0  0  0  0  0  0  0  0  0  0  0
    7.8919   -1.3506   -0.5253 C   0  0  0  0  0  0  0  0  0  0  0  0
    7.2661    0.8269    0.3139 C   0  0  0  0  0  0  0  0  0  0  0  0
    9.2020   -1.1394   -0.0957 C   0  0  0  0  0  0  0  0  0  0  0  0
    8.5763    1.0381    0.7431 C   0  0  0  0  0  0  0  0  0  0  0  0
    9.5444    0.0550    0.5384 C   0  0  0  0  0  0  0  0  0  0  0  0
   -3.3357    0.6872   -1.4217 H   0  0  0  0  0  0  0  0  0  0  0  0
   -2.0452    1.4913    1.2047 H   0  0  0  0  0  0  0  0  0  0  0  0
   -1.2018   -0.3809   -1.0687 H   0  0  0  0  0  0  0  0  0  0  0  0
   -5.3938   -0.3832   -1.3251 H   0  0  0  0  0  0  0  0  0  0  0  0
    0.8253    0.8474   -1.4220 H   0  0  0  0  0  0  0  0  0  0  0  0
   -3.5042   -1.7061   -0.8556 H   0  0  0  0  0  0  0  0  0  0  0  0
   -3.9304   -2.2326    0.7635 H   0  0  0  0  0  0  0  0  0  0  0  0
   -1.9722   -1.2638    1.7434 H   0  0  0  0  0  0  0  0  0  0  0  0
   -1.5283   -2.2817    0.3872 H   0  0  0  0  0  0  0  0  0  0  0  0
   -4.1930    2.8684   -1.2224 H   0  0  0  0  0  0  0  0  0  0  0  0
   -4.2972    2.7878    0.5406 H   0  0  0  0  0  0  0  0  0  0  0  0
   -1.7784    3.2884   -0.4054 H   0  0  0  0  0  0  0  0  0  0  0  0
   -1.3351    2.1572   -1.6780 H   0  0  0  0  0  0  0  0  0  0  0  0
   -6.4268    1.9692    0.3056 H   0  0  0  0  0  0  0  0  0  0  0  0
   -6.2432    1.7941   -1.4417 H   0  0  0  0  0  0  0  0  0  0  0  0
    0.6625    3.2210   -0.8152 H   0  0  0  0  0  0  0  0  0  0  0  0
    0.2627    2.8118    0.8445 H   0  0  0  0  0  0  0  0  0  0  0  0
    0.8710   -1.6286   -0.8804 H   0  0  0  0  0  0  0  0  0  0  0  0
    0.6788   -2.1634    0.7831 H   0  0  0  0  0  0  0  0  0  0  0  0
   -4.8656   -0.6153    2.4324 H   0  0  0  0  0  0  0  0  0  0  0  0
   -3.3975    0.3352    2.4204 H   0  0  0  0  0  0  0  0  0  0  0  0
   -4.9384    1.1163    2.1155 H   0  0  0  0  0  0  0  0  0  0  0  0
    2.8364    2.0564   -0.7420 H   0  0  0  0  0  0  0  0  0  0  0  0
    2.6103    1.6049    0.9322 H   0  0  0  0  0  0  0  0  0  0  0  0
   -6.9203   -0.2424    1.3328 H   0  0  0  0  0  0  0  0  0  0  0  0
    1.3744    0.4166    2.3369 H   0  0  0  0  0  0  0  0  0  0  0  0
   -0.2333    1.1096    2.3075 H   0  0  0  0  0  0  0  0  0  0  0  0
   -0.0183   -0.6188    2.5727 H   0  0  0  0  0  0  0  0  0  0  0  0
    2.7752   -1.1283    1.4548 H   0  0  0  0  0  0  0  0  0  0  0  0
    3.0381   -2.1530    0.0640 H   0  0  0  0  0  0  0  0  0  0  0  0
    3.0840   -0.2530   -1.4508 H   0  0  0  0  0  0  0  0  0  0  0  0
   -7.3903   -2.7602    0.7039 H   0  0  0  0  0  0  0  0  0  0  0  0
   -6.0363   -2.6066   -0.4158 H   0  0  0  0  0  0  0  0  0  0  0  0
   -5.8577   -2.3562    1.3291 H   0  0  0  0  0  0  0  0  0  0  0  0
    4.8083    0.6184    0.7677 H   0  0  0  0  0  0  0  0  0  0  0  0
   -9.1751   -2.1616   -0.0307 H   0  0  0  0  0  0  0  0  0  0  0  0
  -10.0310   -0.6481   -0.2478 H   0  0  0  0  0  0  0  0  0  0  0  0
   -9.1554   -0.9090    1.2440 H   0  0  0  0  0  0  0  0  0  0  0  0
   -7.4757   -1.9375   -1.9180 H   0  0  0  0  0  0  0  0  0  0  0  0
   -7.1018   -0.2601   -2.4078 H   0  0  0  0  0  0  0  0  0  0  0  0
   -8.7356   -0.8042   -2.3620 H   0  0  0  0  0  0  0  0  0  0  0  0
    7.6407   -2.2878   -1.0127 H   0  0  0  0  0  0  0  0  0  0  0  0
    6.5512    1.6297    0.4611 H   0  0  0  0  0  0  0  0  0  0  0  0
    9.9558   -1.9052   -0.2543 H   0  0  0  0  0  0  0  0  0  0  0  0
    8.8451    1.9712    1.2299 H   0  0  0  0  0  0  0  0  0  0  0  0
   10.5650    0.2200    0.8712 H   0  0  0  0  0  0  0  0  0  0  0  0
  1 27  2  0  0  0  0
  2 20  1  0  0  0  0
  2 25  1  0  0  0  0
  2 26  1  0  0  0  0
  3 23  1  0  0  0  0
  3 27  1  0  0  0  0
  3 68  1  0  0  0  0
  4  5  1  0  0  0  0
  4  6  1  0  0  0  0
  4 13  1  0  0  0  0
  4 34  1  0  0  0  0
  5  9  1  0  0  0  0
  5 11  1  0  0  0  0
  5 18  1  0  0  0  0
  6  7  1  0  0  0  0
  6 14  1  0  0  0  0
  6 35  1  0  0  0  0
  7  8  1  0  0  0  0
  7 12  1  0  0  0  0
  7 36  1  0  0  0  0
  8 10  1  0  0  0  0
  8 17  1  0  0  0  0
  8 21  1  0  0  0  0
  9 15  1  0  0  0  0
  9 20  1  0  0  0  0
  9 37  1  0  0  0  0
 10 16  1  0  0  0  0
 10 19  1  0  0  0  0
 10 38  1  0  0  0  0
 11 12  1  0  0  0  0
 11 39  1  0  0  0  0
 11 40  1  0  0  0  0
 12 41  1  0  0  0  0
 12 42  1  0  0  0  0
 13 15  1  0  0  0  0
 13 43  1  0  0  0  0
 13 44  1  0  0  0  0
 14 16  1  0  0  0  0
 14 45  1  0  0  0  0
 14 46  1  0  0  0  0
 15 47  1  0  0  0  0
 15 48  1  0  0  0  0
 16 49  1  0  0  0  0
 16 50  1  0  0  0  0
 17 22  1  0  0  0  0
 17 51  1  0  0  0  0
 17 52  1  0  0  0  0
 18 53  1  0  0  0  0
 18 54  1  0  0  0  0
 18 55  1  0  0  0  0
 19 23  1  0  0  0  0
 19 56  1  0  0  0  0
 19 57  1  0  0  0  0
 20 24  1  0  0  0  0
 20 58  1  0  0  0  0
 21 59  1  0  0  0  0
 21 60  1  0  0  0  0
 21 61  1  0  0  0  0
 22 23  1  0  0  0  0
 22 62  1  0  0  0  0
 22 63  1  0  0  0  0
 23 64  1  0  0  0  0
 24 65  1  0  0  0  0
 24 66  1  0  0  0  0
 24 67  1  0  0  0  0
 25 69  1  0  0  0  0
 25 70  1  0  0  0  0
 25 71  1  0  0  0  0
 26 72  1  0  0  0  0
 26 73  1  0  0  0  0
 26 74  1  0  0  0  0
 27 28  1  0  0  0  0
 28 29  2  0  0  0  0
 28 30  1  0  0  0  0
 29 31  1  0  0  0  0
 29 75  1  0  0  0  0
 30 32  2  0  0  0  0
 30 76  1  0  0  0  0
 31 33  2  0  0  0  0
 31 77  1  0  0  0  0
 32 33  1  0  0  0  0
 32 78  1  0  0  0  0
 33 79  1  0  0  0  0
M  END
> <PUBCHEM_COMPOUND_CID>
10433924

> <PUBCHEM_CONFORMER_RMSD>
1

> <PUBCHEM_CONFORMER_DIVERSEORDER>
1
3
4
5
2

> <PUBCHEM_MMFF94_PARTIAL_CHARGES>
20
1 -0.57
2 -0.81
20 0.27
23 0.3
25 0.27
26 0.27
27 0.54
28 0.09
29 -0.15
3 -0.73
30 -0.15
31 -0.15
32 -0.15
33 -0.15
68 0.37
75 0.15
76 0.15
77 0.15
78 0.15
79 0.15

> <PUBCHEM_EFFECTIVE_ROTOR_COUNT>
7.2

> <PUBCHEM_PHARMACOPHORE_FEATURES>
8
1 1 acceptor
1 2 cation
1 3 donor
5 4 5 9 13 15 rings
6 28 29 30 31 32 33 rings
6 4 5 6 7 11 12 rings
6 6 7 8 10 14 16 rings
6 8 10 17 19 22 23 rings

> <PUBCHEM_HEAVY_ATOM_COUNT>
33

> <PUBCHEM_ATOM_DEF_STEREO_COUNT>
9

> <PUBCHEM_ATOM_UDEF_STEREO_COUNT>
0

> <PUBCHEM_BOND_DEF_STEREO_COUNT>
0

> <PUBCHEM_BOND_UDEF_STEREO_COUNT>
0

> <PUBCHEM_ISOTOPIC_ATOM_COUNT>
0

> <PUBCHEM_COMPONENT_COUNT>
1

> <PUBCHEM_CACTVS_TAUTO_COUNT>
2

> <PUBCHEM_CONFORMER_ID>
009F358400000001

> <PUBCHEM_MMFF94_ENERGY>
120.7265

> <PUBCHEM_FEATURE_SELFOVERLAP>
40.688

> <PUBCHEM_SHAPE_FINGERPRINT>
10 15 18412541030026115208
10050765 1 18048314445312308298
10076449 9 18131633391712607201
10299344 5 12967128307549817612
106641 1 15195566814173905766
10670039 82 18114177511077825493
10674148 151 18408324376757966265
11135926 11 17240203201332143971
11181472 205 13335003968622299388
11315181 36 17704354355860182865
12082328 90 18272087158633613205
12104220 1 17988648467468211825
12202916 173 18410858771838961582
12643181 29 18260550056560232043
12741549 16 17275105024824495321
12758862 11 18411981403148409978
12838862 33 18261660545628121906
13383668 251 17202181075578770088
13811026 1 18335420179703345140
13914758 101 15502373392712774036
14068700 675 18040439880073120340
14150022 121 16917076512253780433
14251764 46 18130788966592830907
14294032 229 17096926859241083940
14394314 77 18263647277367456512
14856354 85 15647060373636641075
150020 25 18341331111601939876
15183329 4 15647055958863765604
15419008 47 18272364262078123528
15444296 7 18272089435134904030
15510794 2 18272371940998820990
1577012 14 18040992883018731897
15849732 13 18343582953605675686
16087824 20 18334856066605363485
18335252 98 18130790045035713366
18603816 31 17274813710557542967
18608769 82 18411136943705363062
18681886 176 18408880754482944656
20721686 56 18260835851846820171
21130935 74 18199190590665029250
21150785 3 17918273155868573326
21267235 1 18408045121962543649
21792961 116 17385725777134282633
21895431 317 18043523925413650026
232437 2 18343584032428703470
23559900 14 18411414046875573168
23576562 1 14924804448463103159
249057 3 18040999574187421278
3004659 81 17967813868466589405
3092352 35 15267344033585508476
3178227 256 12607404395067229358
335352 9 18333733541439775126
335507 130 18059853978759952260
3383291 50 18334582360021776586
4325135 7 18040435490352103790
4339292 15 15769763694639606717
54039377 194 18341610452212299191
58902169 19 15285648737018754086
59682541 35 18202560692577373954
6081469 158 17458060465276946510
6126387 218 18202004309581897649
6201320 215 14924485461004666343
67123 10 18413670219144598950
9663363 56 18409444795405297765
9962374 69 17774429594451551797

> <PUBCHEM_SHAPE_MULTIPOLES>
663.29
29.76
2.01
1.16
33.03
0.66
0.15
-9.99
-3.04
-1.51
-0.22
-0.64
-0.14
1.03

> <PUBCHEM_SHAPE_SELFOVERLAP>
1410.15

> <PUBCHEM_SHAPE_VOLUME>
368.9

> <PUBCHEM_COORDINATE_TYPE>
2
5
10

$$$$
