197857
  -OEChem-08292010053D

 70 73  0     1  0  0  0  0  0999 V2000
   -5.7460    0.1012   -0.5893 N   0  0  0  0  0  0  0  0  0  0  0  0
    5.4605   -0.4260   -1.6844 N   0  0  0  0  0  0  0  0  0  0  0  0
   -1.1157    1.0302   -0.0212 C   0  0  2  0  0  0  0  0  0  0  0  0
   -2.0128   -0.1593    0.3858 C   0  0  1  0  0  0  0  0  0  0  0  0
    0.3012    0.9335    0.5548 C   0  0  1  0  0  0  0  0  0  0  0  0
    0.9616   -0.3838    0.0312 C   0  0  1  0  0  0  0  0  0  0  0  0
    2.4456   -0.5363    0.5341 C   0  0  2  0  0  0  0  0  0  0  0  0
   -3.3311    0.2817   -0.2963 C   0  0  2  0  0  0  0  0  0  0  0  0
    3.2228    0.7419    0.0814 C   0  0  1  0  0  0  0  0  0  0  0  0
   -1.3869   -1.4382   -0.1886 C   0  0  0  0  0  0  0  0  0  0  0  0
    0.0657   -1.6245    0.2870 C   0  0  0  0  0  0  0  0  0  0  0  0
   -1.9686    2.2519    0.3067 C   0  0  0  0  0  0  0  0  0  0  0  0
    1.1431    2.1644    0.1886 C   0  0  0  0  0  0  0  0  0  0  0  0
   -3.4081    1.7975    0.0023 C   0  0  0  0  0  0  0  0  0  0  0  0
    2.5986    2.0296    0.6317 C   0  0  0  0  0  0  0  0  0  0  0  0
    3.1277   -1.7661   -0.1307 C   0  0  0  0  0  0  0  0  0  0  0  0
    4.7276    0.6695    0.3939 C   0  0  0  0  0  0  0  0  0  0  0  0
   -2.2024   -0.3152    1.9157 C   0  0  0  0  0  0  0  0  0  0  0  0
   -4.5926   -0.4663    0.1099 C   0  0  2  0  0  0  0  0  0  0  0  0
    2.4859   -0.7286    2.0725 C   0  0  0  0  0  0  0  0  0  0  0  0
    4.6366   -1.8494    0.1370 C   0  0  0  0  0  0  0  0  0  0  0  0
    5.3927   -0.5674   -0.2269 C   0  0  1  0  0  0  0  0  0  0  0  0
   -4.4739   -1.9575   -0.1984 C   0  0  0  0  0  0  0  0  0  0  0  0
   -6.9695   -0.6048   -0.2121 C   0  0  0  0  0  0  0  0  0  0  0  0
   -5.5457    0.0409   -2.0364 C   0  0  0  0  0  0  0  0  0  0  0  0
    6.1840    0.7808   -2.0482 C   0  0  0  0  0  0  0  0  0  0  0  0
   -1.0064    1.0243   -1.1190 H   0  0  0  0  0  0  0  0  0  0  0  0
    0.2361    0.9047    1.6469 H   0  0  0  0  0  0  0  0  0  0  0  0
    1.0156   -0.2882   -1.0652 H   0  0  0  0  0  0  0  0  0  0  0  0
   -3.1479    0.1621   -1.3727 H   0  0  0  0  0  0  0  0  0  0  0  0
    3.1280    0.8143   -1.0119 H   0  0  0  0  0  0  0  0  0  0  0  0
   -1.3933   -1.4047   -1.2857 H   0  0  0  0  0  0  0  0  0  0  0  0
   -1.9267   -2.3406    0.0999 H   0  0  0  0  0  0  0  0  0  0  0  0
    0.0624   -1.8808    1.3509 H   0  0  0  0  0  0  0  0  0  0  0  0
    0.4770   -2.4939   -0.2381 H   0  0  0  0  0  0  0  0  0  0  0  0
   -1.6899    3.1202   -0.2991 H   0  0  0  0  0  0  0  0  0  0  0  0
   -1.8726    2.5380    1.3601 H   0  0  0  0  0  0  0  0  0  0  0  0
    0.7160    3.0632    0.6487 H   0  0  0  0  0  0  0  0  0  0  0  0
    1.1137    2.3233   -0.8971 H   0  0  0  0  0  0  0  0  0  0  0  0
   -4.0505    2.0195    0.8623 H   0  0  0  0  0  0  0  0  0  0  0  0
   -3.8104    2.3461   -0.8563 H   0  0  0  0  0  0  0  0  0  0  0  0
    3.1573    2.8997    0.2653 H   0  0  0  0  0  0  0  0  0  0  0  0
    2.6631    2.0594    1.7252 H   0  0  0  0  0  0  0  0  0  0  0  0
    2.9541   -1.7438   -1.2139 H   0  0  0  0  0  0  0  0  0  0  0  0
    2.6722   -2.6959    0.2307 H   0  0  0  0  0  0  0  0  0  0  0  0
    5.2239    1.6039    0.1120 H   0  0  0  0  0  0  0  0  0  0  0  0
    4.8691    0.6226    1.4813 H   0  0  0  0  0  0  0  0  0  0  0  0
   -2.7118    0.5441    2.3632 H   0  0  0  0  0  0  0  0  0  0  0  0
   -2.7944   -1.2036    2.1570 H   0  0  0  0  0  0  0  0  0  0  0  0
   -1.2541   -0.4282    2.4477 H   0  0  0  0  0  0  0  0  0  0  0  0
   -4.7645   -0.3413    1.1861 H   0  0  0  0  0  0  0  0  0  0  0  0
    1.9693    0.0686    2.6122 H   0  0  0  0  0  0  0  0  0  0  0  0
    2.0182   -1.6745    2.3654 H   0  0  0  0  0  0  0  0  0  0  0  0
    3.5055   -0.7577    2.4655 H   0  0  0  0  0  0  0  0  0  0  0  0
    4.8083   -2.0770    1.1959 H   0  0  0  0  0  0  0  0  0  0  0  0
    5.0517   -2.7014   -0.4171 H   0  0  0  0  0  0  0  0  0  0  0  0
    6.4146   -0.6603    0.1624 H   0  0  0  0  0  0  0  0  0  0  0  0
   -5.4136   -2.5129   -0.1620 H   0  0  0  0  0  0  0  0  0  0  0  0
   -4.0074   -2.1625   -1.1674 H   0  0  0  0  0  0  0  0  0  0  0  0
   -3.8793   -2.4491    0.5762 H   0  0  0  0  0  0  0  0  0  0  0  0
    4.5330   -0.4119   -2.1032 H   0  0  0  0  0  0  0  0  0  0  0  0
   -7.0413   -0.7481    0.8721 H   0  0  0  0  0  0  0  0  0  0  0  0
   -7.1119   -1.5673   -0.7147 H   0  0  0  0  0  0  0  0  0  0  0  0
   -7.8312    0.0146   -0.4897 H   0  0  0  0  0  0  0  0  0  0  0  0
   -6.4681    0.3656   -2.5367 H   0  0  0  0  0  0  0  0  0  0  0  0
   -5.3246   -0.9569   -2.4273 H   0  0  0  0  0  0  0  0  0  0  0  0
   -4.7946    0.7495   -2.3964 H   0  0  0  0  0  0  0  0  0  0  0  0
    6.4679    0.7081   -3.1038 H   0  0  0  0  0  0  0  0  0  0  0  0
    7.1131    0.9017   -1.4810 H   0  0  0  0  0  0  0  0  0  0  0  0
    5.5725    1.6837   -1.9592 H   0  0  0  0  0  0  0  0  0  0  0  0
  1 19  1  0  0  0  0
  1 24  1  0  0  0  0
  1 25  1  0  0  0  0
  2 22  1  0  0  0  0
  2 26  1  0  0  0  0
  2 61  1  0  0  0  0
  3  4  1  0  0  0  0
  3  5  1  0  0  0  0
  3 12  1  0  0  0  0
  3 27  1  0  0  0  0
  4  8  1  0  0  0  0
  4 10  1  0  0  0  0
  4 18  1  0  0  0  0
  5  6  1  0  0  0  0
  5 13  1  0  0  0  0
  5 28  1  0  0  0  0
  6  7  1  0  0  0  0
  6 11  1  0  0  0  0
  6 29  1  0  0  0  0
  7  9  1  0  0  0  0
  7 16  1  0  0  0  0
  7 20  1  0  0  0  0
  8 14  1  0  0  0  0
  8 19  1  0  0  0  0
  8 30  1  0  0  0  0
  9 15  1  0  0  0  0
  9 17  1  0  0  0  0
  9 31  1  0  0  0  0
 10 11  1  0  0  0  0
 10 32  1  0  0  0  0
 10 33  1  0  0  0  0
 11 34  1  0  0  0  0
 11 35  1  0  0  0  0
 12 14  1  0  0  0  0
 12 36  1  0  0  0  0
 12 37  1  0  0  0  0
 13 15  1  0  0  0  0
 13 38  1  0  0  0  0
 13 39  1  0  0  0  0
 14 40  1  0  0  0  0
 14 41  1  0  0  0  0
 15 42  1  0  0  0  0
 15 43  1  0  0  0  0
 16 21  1  0  0  0  0
 16 44  1  0  0  0  0
 16 45  1  0  0  0  0
 17 22  1  0  0  0  0
 17 46  1  0  0  0  0
 17 47  1  0  0  0  0
 18 48  1  0  0  0  0
 18 49  1  0  0  0  0
 18 50  1  0  0  0  0
 19 23  1  0  0  0  0
 19 51  1  0  0  0  0
 20 52  1  0  0  0  0
 20 53  1  0  0  0  0
 20 54  1  0  0  0  0
 21 22  1  0  0  0  0
 21 55  1  0  0  0  0
 21 56  1  0  0  0  0
 22 57  1  0  0  0  0
 23 58  1  0  0  0  0
 23 59  1  0  0  0  0
 23 60  1  0  0  0  0
 24 62  1  0  0  0  0
 24 63  1  0  0  0  0
 24 64  1  0  0  0  0
 25 65  1  0  0  0  0
 25 66  1  0  0  0  0
 25 67  1  0  0  0  0
 26 68  1  0  0  0  0
 26 69  1  0  0  0  0
 26 70  1  0  0  0  0
M  END
> <PUBCHEM_COMPOUND_CID>
197857

> <PUBCHEM_CONFORMER_RMSD>
0.8

> <PUBCHEM_CONFORMER_DIVERSEORDER>
1

> <PUBCHEM_MMFF94_PARTIAL_CHARGES>
8
1 -0.81
19 0.27
2 -0.9
22 0.27
24 0.27
25 0.27
26 0.27
61 0.36

> <PUBCHEM_EFFECTIVE_ROTOR_COUNT>
5.2

> <PUBCHEM_PHARMACOPHORE_FEATURES>
7
1 1 cation
1 2 cation
1 2 donor
5 3 4 8 12 14 rings
6 3 4 5 6 10 11 rings
6 5 6 7 9 13 15 rings
6 7 9 16 17 21 22 rings

> <PUBCHEM_HEAVY_ATOM_COUNT>
26

> <PUBCHEM_ATOM_DEF_STEREO_COUNT>
9

> <PUBCHEM_ATOM_UDEF_STEREO_COUNT>
0

> <PUBCHEM_BOND_DEF_STEREO_COUNT>
0

> <PUBCHEM_BOND_UDEF_STEREO_COUNT>
0

> <PUBCHEM_ISOTOPIC_ATOM_COUNT>
0

> <PUBCHEM_COMPONENT_COUNT>
1

> <PUBCHEM_CACTVS_TAUTO_COUNT>
1

> <PUBCHEM_CONFORMER_ID>
000304E100000001

> <PUBCHEM_MMFF94_ENERGY>
97.3095

> <PUBCHEM_FEATURE_SELFOVERLAP>
35.612

> <PUBCHEM_SHAPE_FINGERPRINT>
10366900 7 18259706696248778584
10906281 52 18262250919416960521
11089746 13 13695872536390548359
11961588 58 17386011688922960256
11963148 33 18342730836685808615
12011746 2 18408041814172957604
12166972 35 17775846830427237545
12236239 1 17821728312577491247
12403259 415 18341321236992552713
12516196 113 18131346414513759257
12596602 18 13406788905267556829
12616971 3 12031778163198666616
12788726 201 18334570196953754913
13533116 47 17418091052975692864
13668630 136 17131836477443460991
13862211 1 18341608192178448514
14251764 30 16486981648607220806
14347332 77 18129941178586988829
14528608 73 18333735728036960756
14790565 3 17620204130787309664
14931854 50 18335991887369071774
15183329 4 18411140229387012511
15196674 1 18339640049132099896
15475509 35 14764073295061233238
17349148 13 17561084713204868783
17492 54 18188224164778972948
18222031 100 17918272047930274890
18681886 176 18342730853642903536
19319366 153 18040713658816589258
200 152 18059851766772374345
20028762 73 17989197162119527999
2026 5 17273430370432661590
21150785 3 18113623408113014142
21236236 1 18270962345960313705
21267235 1 18413111671506282323
21285901 2 18187926123527872142
221357 26 18413669101873132640
2215653 11 18411975871425541975
22393880 68 18262226725449762333
23402539 116 18343577430932035613
23522609 53 18196402279894249008
23559900 14 18339918328790389921
23569914 152 17261004655876048839
23569914 2 15289255203491494894
2871803 45 18334851714584427216
29717793 49 17775005704005491140
3004659 81 18334850636953778625
335352 9 18412260641375398333
34797466 226 17561365106446218704
350125 39 18412263909302574657
3886686 26 11018546209888107884
4058900 60 17750231422589255043
4340502 62 15864069858070902666
46194498 28 17917716816386954564
465052 167 18202002148511585055
474 4 17168721820649992060
5104073 3 18272082756107382753
5283173 99 18114732738648387221
59755656 215 18411138030538181287
7495541 125 16128365025779808891
9709674 26 18335701705997799315

> <PUBCHEM_SHAPE_MULTIPOLES>
525.11
14.69
2.1
1.41
4.54
0.42
0.2
-2.62
7.04
-0.33
-0.18
-0.73
-0.03
-0.27

> <PUBCHEM_SHAPE_SELFOVERLAP>
1093.105

> <PUBCHEM_SHAPE_VOLUME>
294.9

> <PUBCHEM_COORDINATE_TYPE>
2
5
10

$$$$
