165839
  -OEChem-08292011073D

 56 59  0     1  0  0  0  0  0999 V2000
   -2.4184   -1.7148    0.2881 O   0  0  0  0  0  0  0  0  0  0  0  0
    4.4545    2.6936    0.5973 O   0  0  0  0  0  0  0  0  0  0  0  0
    5.3293    0.0559    0.6074 O   0  0  0  0  0  0  0  0  0  0  0  0
    2.1660   -3.4114   -0.3578 O   0  0  0  0  0  0  0  0  0  0  0  0
   -5.0834   -0.8793    0.7214 O   0  0  0  0  0  0  0  0  0  0  0  0
   -2.3801    0.5997   -0.4148 C   0  0  1  0  0  0  0  0  0  0  0  0
   -1.6461   -0.5082    0.3888 C   0  0  2  0  0  0  0  0  0  0  0  0
    0.6663    0.4785   -0.3147 C   0  0  2  0  0  0  0  0  0  0  0  0
    2.0756    0.1503   -0.9524 C   0  0  2  0  0  0  0  0  0  0  0  0
   -0.1939   -0.7576   -0.0295 C   0  0  0  0  0  0  0  0  0  0  0  0
   -3.5838    0.9686    0.5026 C   0  0  2  0  0  0  0  0  0  0  0  0
   -1.4786    1.8535   -0.5548 C   0  0  0  0  0  0  0  0  0  0  0  0
   -0.1093    1.5284   -1.1420 C   0  0  0  0  0  0  0  0  0  0  0  0
   -1.7543   -0.0066    1.8412 C   0  0  0  0  0  0  0  0  0  0  0  0
    2.7088   -1.0757   -0.2438 C   0  0  1  0  0  0  0  0  0  0  0  0
   -3.1267    0.6671    1.9393 C   0  0  0  0  0  0  0  0  0  0  0  0
    3.0596    1.3502   -0.8227 C   0  0  0  0  0  0  0  0  0  0  0  0
   -2.8174    0.1326   -1.8187 C   0  0  0  0  0  0  0  0  0  0  0  0
    3.1523   -0.7916    1.2027 C   0  0  0  0  0  0  0  0  0  0  0  0
    0.3138   -2.0028   -0.0600 C   0  0  0  0  0  0  0  0  0  0  0  0
    1.9530   -0.1713   -2.4668 C   0  0  0  0  0  0  0  0  0  0  0  0
    3.5031    1.6316    0.6156 C   0  0  1  0  0  0  0  0  0  0  0  0
    1.7590   -2.2548   -0.2572 C   0  0  0  0  0  0  0  0  0  0  0  0
    4.1129    0.3944    1.2761 C   0  0  2  0  0  0  0  0  0  0  0  0
   -4.8483    0.2124    0.2057 C   0  0  0  0  0  0  0  0  0  0  0  0
   -5.8138    0.8575   -0.7513 C   0  0  0  0  0  0  0  0  0  0  0  0
    0.8404    0.9313    0.6690 H   0  0  0  0  0  0  0  0  0  0  0  0
   -3.8300    2.0360    0.4295 H   0  0  0  0  0  0  0  0  0  0  0  0
   -1.3322    2.3437    0.4161 H   0  0  0  0  0  0  0  0  0  0  0  0
   -1.9739    2.5992   -1.1902 H   0  0  0  0  0  0  0  0  0  0  0  0
   -0.2463    1.1948   -2.1750 H   0  0  0  0  0  0  0  0  0  0  0  0
    0.4613    2.4619   -1.1926 H   0  0  0  0  0  0  0  0  0  0  0  0
    3.5853   -1.3981   -0.8227 H   0  0  0  0  0  0  0  0  0  0  0  0
   -0.9745    0.7213    2.0915 H   0  0  0  0  0  0  0  0  0  0  0  0
   -1.6818   -0.8258    2.5660 H   0  0  0  0  0  0  0  0  0  0  0  0
   -3.8226    0.0437    2.5104 H   0  0  0  0  0  0  0  0  0  0  0  0
   -3.0262    1.6013    2.5055 H   0  0  0  0  0  0  0  0  0  0  0  0
    2.6233    2.2635   -1.2444 H   0  0  0  0  0  0  0  0  0  0  0  0
    3.9469    1.1753   -1.4468 H   0  0  0  0  0  0  0  0  0  0  0  0
   -1.9616   -0.2173   -2.4057 H   0  0  0  0  0  0  0  0  0  0  0  0
   -3.5221   -0.7043   -1.7885 H   0  0  0  0  0  0  0  0  0  0  0  0
   -3.2827    0.9480   -2.3819 H   0  0  0  0  0  0  0  0  0  0  0  0
    2.2850   -0.6048    1.8472 H   0  0  0  0  0  0  0  0  0  0  0  0
    3.6489   -1.6866    1.5994 H   0  0  0  0  0  0  0  0  0  0  0  0
   -0.2889   -2.8806    0.1457 H   0  0  0  0  0  0  0  0  0  0  0  0
    2.8968   -0.5635   -2.8639 H   0  0  0  0  0  0  0  0  0  0  0  0
    1.1769   -0.9160   -2.6707 H   0  0  0  0  0  0  0  0  0  0  0  0
    1.7204    0.7250   -3.0519 H   0  0  0  0  0  0  0  0  0  0  0  0
    2.6505    1.9834    1.2054 H   0  0  0  0  0  0  0  0  0  0  0  0
    4.3774    0.6094    2.3166 H   0  0  0  0  0  0  0  0  0  0  0  0
   -3.1540   -1.6890    0.9209 H   0  0  0  0  0  0  0  0  0  0  0  0
   -6.5257    1.4622   -0.1839 H   0  0  0  0  0  0  0  0  0  0  0  0
   -5.2958    1.4963   -1.4687 H   0  0  0  0  0  0  0  0  0  0  0  0
   -6.3487    0.0814   -1.3054 H   0  0  0  0  0  0  0  0  0  0  0  0
    4.7279    2.8570    1.5161 H   0  0  0  0  0  0  0  0  0  0  0  0
    5.1522   -0.1204   -0.3293 H   0  0  0  0  0  0  0  0  0  0  0  0
  1  7  1  0  0  0  0
  1 51  1  0  0  0  0
  2 22  1  0  0  0  0
  2 55  1  0  0  0  0
  3 24  1  0  0  0  0
  3 56  1  0  0  0  0
  4 23  2  0  0  0  0
  5 25  2  0  0  0  0
  6  7  1  0  0  0  0
  6 11  1  0  0  0  0
  6 12  1  0  0  0  0
  6 18  1  0  0  0  0
  7 10  1  0  0  0  0
  7 14  1  0  0  0  0
  8  9  1  0  0  0  0
  8 10  1  0  0  0  0
  8 13  1  0  0  0  0
  8 27  1  0  0  0  0
  9 15  1  0  0  0  0
  9 17  1  0  0  0  0
  9 21  1  0  0  0  0
 10 20  2  0  0  0  0
 11 16  1  0  0  0  0
 11 25  1  0  0  0  0
 11 28  1  0  0  0  0
 12 13  1  0  0  0  0
 12 29  1  0  0  0  0
 12 30  1  0  0  0  0
 13 31  1  0  0  0  0
 13 32  1  0  0  0  0
 14 16  1  0  0  0  0
 14 34  1  0  0  0  0
 14 35  1  0  0  0  0
 15 19  1  0  0  0  0
 15 23  1  0  0  0  0
 15 33  1  0  0  0  0
 16 36  1  0  0  0  0
 16 37  1  0  0  0  0
 17 22  1  0  0  0  0
 17 38  1  0  0  0  0
 17 39  1  0  0  0  0
 18 40  1  0  0  0  0
 18 41  1  0  0  0  0
 18 42  1  0  0  0  0
 19 24  1  0  0  0  0
 19 43  1  0  0  0  0
 19 44  1  0  0  0  0
 20 23  1  0  0  0  0
 20 45  1  0  0  0  0
 21 46  1  0  0  0  0
 21 47  1  0  0  0  0
 21 48  1  0  0  0  0
 22 24  1  0  0  0  0
 22 49  1  0  0  0  0
 24 50  1  0  0  0  0
 25 26  1  0  0  0  0
 26 52  1  0  0  0  0
 26 53  1  0  0  0  0
 26 54  1  0  0  0  0
M  END
> <PUBCHEM_COMPOUND_CID>
165839

> <PUBCHEM_CONFORMER_RMSD>
0.6

> <PUBCHEM_CONFORMER_DIVERSEORDER>
1
10
6
9
4
3
12
8
11
5
7
2

> <PUBCHEM_MMFF94_PARTIAL_CHARGES>
20
1 -0.68
10 -0.28
11 0.06
15 0.06
2 -0.68
20 -0.14
22 0.28
23 0.49
24 0.28
25 0.45
26 0.06
3 -0.68
4 -0.57
45 0.15
5 -0.57
51 0.4
55 0.4
56 0.4
7 0.42
8 0.14

> <PUBCHEM_EFFECTIVE_ROTOR_COUNT>
2.8

> <PUBCHEM_PHARMACOPHORE_FEATURES>
12
1 1 acceptor
1 1 donor
1 2 acceptor
1 2 donor
1 3 acceptor
1 3 donor
1 4 acceptor
1 5 acceptor
5 6 7 11 14 16 rings
6 6 7 8 10 12 13 rings
6 8 9 10 15 20 23 rings
6 9 15 17 19 22 24 rings

> <PUBCHEM_HEAVY_ATOM_COUNT>
26

> <PUBCHEM_ATOM_DEF_STEREO_COUNT>
7

> <PUBCHEM_ATOM_UDEF_STEREO_COUNT>
1

> <PUBCHEM_BOND_DEF_STEREO_COUNT>
0

> <PUBCHEM_BOND_UDEF_STEREO_COUNT>
0

> <PUBCHEM_ISOTOPIC_ATOM_COUNT>
0

> <PUBCHEM_COMPONENT_COUNT>
1

> <PUBCHEM_CACTVS_TAUTO_COUNT>
15

> <PUBCHEM_CONFORMER_ID>
000287CF00000001

> <PUBCHEM_MMFF94_ENERGY>
91.7803

> <PUBCHEM_FEATURE_SELFOVERLAP>
61.142

> <PUBCHEM_SHAPE_FINGERPRINT>
10366900 7 18261967266659923504
1100329 8 13789935047424518233
11370993 70 18412544323005554051
11578080 2 17842535389286684817
11640471 11 17775287148969924794
11796584 16 14634875236240526025
12011746 2 18335141964864976238
12236239 1 17775280526557635383
12403259 415 18187638090030962540
12553582 1 18116175340563402373
12633257 1 18410561895504348192
12788726 201 16030420121924812642
128620 24 17131835365305270193
13140716 1 18263082278676945040
13224815 77 18187656798886962725
13533116 47 18272090435952239515
13583140 156 18202278104998619721
14115302 16 14418141716176377905
14178342 30 18337402628905916355
14223421 5 18263362503918490452
14341114 328 17775283884694722216
14787075 74 17774156945843448985
15238133 3 15430598334070616255
15375358 24 18114184133674360781
15788980 27 17095240324188115697
16945 1 18336273348769848782
17349148 13 17967533480190074485
17980427 23 17314506131252955508
1813 80 15430028843161486724
20157964 124 18411976932609635037
20715895 44 17823125732344291333
21033648 29 17968357005889056452
21452121 103 18337104566712442617
21756936 100 17984694787264574872
22149856 69 18265357091933075699
22182313 1 17896031053709165581
22854114 59 18413108350990244865
23402539 116 17603578634753823701
23557571 272 17386002819578396957
23559900 14 17386299683238500747
2748010 2 17970631779128769902
2838139 119 15337684242089999400
296302 2 18202281437529179445
312423 11 17417544496680338067
34797466 226 17775574135070463661
350125 39 18409167714860535028
3633792 109 18200025115621359789
4340502 62 18272373087813156367
474 4 18201436995471964960
5104073 3 18335430015526210683
59755656 215 18336548222809522118
6004065 56 18263914605359821181
633830 44 18060143167339644676
6913067 236 18334844031283566957
7364860 26 18341334371276707510
8509985 295 15936407831948007901
9709674 26 18115314375661316395

> <PUBCHEM_SHAPE_MULTIPOLES>
505.72
9.94
2.27
1.64
4.76
0.88
-0.19
-2.7
2.08
-2.15
-0.14
0.06
-0.22
0.63

> <PUBCHEM_SHAPE_SELFOVERLAP>
1091.297

> <PUBCHEM_SHAPE_VOLUME>
274.9

> <PUBCHEM_COORDINATE_TYPE>
2
5
10

$$$$
