101281312
  -OEChem-08292011093D

 74 77  0     1  0  0  0  0  0999 V2000
   -2.9809   -2.5649   -1.4125 O   0  0  0  0  0  0  0  0  0  0  0  0
   -5.5758   -1.5574   -1.2638 O   0  0  0  0  0  0  0  0  0  0  0  0
    5.3346    3.6265   -0.6432 O   0  0  0  0  0  0  0  0  0  0  0  0
    6.8090    1.2930   -1.2748 O   0  0  0  0  0  0  0  0  0  0  0  0
    4.5904   -1.3047    2.8148 O   0  0  0  0  0  0  0  0  0  0  0  0
    2.0172   -1.8844    2.5869 O   0  0  0  0  0  0  0  0  0  0  0  0
   -6.8419    2.6904   -0.3246 O   0  0  0  0  0  0  0  0  0  0  0  0
   -0.5974   -0.9468   -0.7581 C   0  0  2  0  0  0  0  0  0  0  0  0
   -2.0388   -0.7110   -0.2251 C   0  0  1  0  0  0  0  0  0  0  0  0
    0.1910   -1.0045    0.5362 C   0  0  0  0  0  0  0  0  0  0  0  0
   -0.1047    0.2495   -1.5787 C   0  0  0  0  0  0  0  0  0  0  0  0
   -3.1790   -1.1743   -1.1221 C   0  0  2  0  0  0  0  0  0  0  0  0
    3.7344    0.1475   -0.6143 C   0  0  1  0  0  0  0  0  0  0  0  0
    2.2228   -0.1647   -0.5390 C   0  0  0  0  0  0  0  0  0  0  0  0
   -2.0544   -1.3867    1.1509 C   0  0  0  0  0  0  0  0  0  0  0  0
    1.4106    0.2044   -1.7876 C   0  0  0  0  0  0  0  0  0  0  0  0
    1.6272   -0.7487    0.5267 C   0  0  0  0  0  0  0  0  0  0  0  0
   -0.6258   -1.2523    1.5732 C   0  0  0  0  0  0  0  0  0  0  0  0
   -0.4480   -2.2690   -1.5347 C   0  0  0  0  0  0  0  0  0  0  0  0
    3.9171    1.6793   -0.8776 C   0  0  0  0  0  0  0  0  0  0  0  0
    4.5041   -0.2442    0.6493 C   0  0  0  0  0  0  0  0  0  0  0  0
   -4.5554   -1.0191   -0.4172 C   0  0  1  0  0  0  0  0  0  0  0  0
    5.0152    2.3675   -0.0582 C   0  0  1  0  0  0  0  0  0  0  0  0
    5.9772    0.1686    0.6959 C   0  0  0  0  0  0  0  0  0  0  0  0
    2.4766   -1.2113    1.6659 C   0  0  0  0  0  0  0  0  0  0  0  0
   -3.1405   -0.4100   -2.4544 C   0  0  0  0  0  0  0  0  0  0  0  0
    4.3061   -0.6888   -1.7885 C   0  0  0  0  0  0  0  0  0  0  0  0
    6.2733    1.5177    0.0288 C   0  0  1  0  0  0  0  0  0  0  0  0
    3.9219   -0.8818    1.6823 C   0  0  0  0  0  0  0  0  0  0  0  0
   -4.9372    0.4296   -0.0577 C   0  0  0  0  0  0  0  0  0  0  0  0
   -6.3338    0.5157    0.5844 C   0  0  0  0  0  0  0  0  0  0  0  0
   -6.8067    1.9508    0.8977 C   0  0  0  0  0  0  0  0  0  0  0  0
   -5.8782    2.6745    1.8757 C   0  0  0  0  0  0  0  0  0  0  0  0
   -8.2303    1.9095    1.4637 C   0  0  0  0  0  0  0  0  0  0  0  0
   -2.1567    0.3690   -0.0462 H   0  0  0  0  0  0  0  0  0  0  0  0
   -0.3467    1.1903   -1.0647 H   0  0  0  0  0  0  0  0  0  0  0  0
   -0.5794    0.3078   -2.5610 H   0  0  0  0  0  0  0  0  0  0  0  0
   -2.3352   -2.4445    1.1238 H   0  0  0  0  0  0  0  0  0  0  0  0
   -2.7135   -0.8584    1.8469 H   0  0  0  0  0  0  0  0  0  0  0  0
    1.7128    1.1815   -2.1775 H   0  0  0  0  0  0  0  0  0  0  0  0
    1.6354   -0.5239   -2.5761 H   0  0  0  0  0  0  0  0  0  0  0  0
   -0.3361   -1.3259    2.6107 H   0  0  0  0  0  0  0  0  0  0  0  0
   -0.9209   -2.2550   -2.5192 H   0  0  0  0  0  0  0  0  0  0  0  0
   -0.7895   -3.1360   -0.9578 H   0  0  0  0  0  0  0  0  0  0  0  0
    0.6110   -2.4778   -1.7355 H   0  0  0  0  0  0  0  0  0  0  0  0
    4.0945    1.8598   -1.9471 H   0  0  0  0  0  0  0  0  0  0  0  0
    2.9909    2.2290   -0.6573 H   0  0  0  0  0  0  0  0  0  0  0  0
   -4.5851   -1.6411    0.4839 H   0  0  0  0  0  0  0  0  0  0  0  0
    4.6461    2.5699    0.9552 H   0  0  0  0  0  0  0  0  0  0  0  0
    6.2863    0.2492    1.7459 H   0  0  0  0  0  0  0  0  0  0  0  0
    6.5816   -0.6291    0.2475 H   0  0  0  0  0  0  0  0  0  0  0  0
   -4.0401   -0.6010   -3.0492 H   0  0  0  0  0  0  0  0  0  0  0  0
   -3.0633    0.6722   -2.3104 H   0  0  0  0  0  0  0  0  0  0  0  0
   -2.3288   -0.7422   -3.1048 H   0  0  0  0  0  0  0  0  0  0  0  0
    4.0495   -1.7504   -1.6790 H   0  0  0  0  0  0  0  0  0  0  0  0
    5.3951   -0.6364   -1.8629 H   0  0  0  0  0  0  0  0  0  0  0  0
    3.9168   -0.3541   -2.7567 H   0  0  0  0  0  0  0  0  0  0  0  0
    7.0505    2.0542    0.5856 H   0  0  0  0  0  0  0  0  0  0  0  0
   -4.1979    0.8458    0.6317 H   0  0  0  0  0  0  0  0  0  0  0  0
   -4.9371    1.0485   -0.9616 H   0  0  0  0  0  0  0  0  0  0  0  0
   -3.7168   -2.8555   -1.9781 H   0  0  0  0  0  0  0  0  0  0  0  0
   -6.3422   -0.0849    1.5029 H   0  0  0  0  0  0  0  0  0  0  0  0
   -7.0608    0.0625   -0.1015 H   0  0  0  0  0  0  0  0  0  0  0  0
   -5.7956   -0.8981   -1.9428 H   0  0  0  0  0  0  0  0  0  0  0  0
    4.5141    4.1469   -0.6838 H   0  0  0  0  0  0  0  0  0  0  0  0
    7.6342    0.7893   -1.1706 H   0  0  0  0  0  0  0  0  0  0  0  0
    3.9475   -1.7414    3.3995 H   0  0  0  0  0  0  0  0  0  0  0  0
   -5.7477    2.1058    2.8019 H   0  0  0  0  0  0  0  0  0  0  0  0
   -6.2791    3.6619    2.1332 H   0  0  0  0  0  0  0  0  0  0  0  0
   -8.6083    2.9214    1.6494 H   0  0  0  0  0  0  0  0  0  0  0  0
   -8.2748    1.3463    2.4016 H   0  0  0  0  0  0  0  0  0  0  0  0
   -8.9215    1.4500    0.7480 H   0  0  0  0  0  0  0  0  0  0  0  0
   -4.8944    2.8594    1.4321 H   0  0  0  0  0  0  0  0  0  0  0  0
   -7.1479    3.5911   -0.1225 H   0  0  0  0  0  0  0  0  0  0  0  0
  1 12  1  0  0  0  0
  1 61  1  0  0  0  0
  2 22  1  0  0  0  0
  2 64  1  0  0  0  0
  3 23  1  0  0  0  0
  3 65  1  0  0  0  0
  4 28  1  0  0  0  0
  4 66  1  0  0  0  0
  5 29  1  0  0  0  0
  5 67  1  0  0  0  0
  6 25  2  0  0  0  0
  7 32  1  0  0  0  0
  7 74  1  0  0  0  0
  8  9  1  0  0  0  0
  8 10  1  0  0  0  0
  8 11  1  0  0  0  0
  8 19  1  0  0  0  0
  9 12  1  0  0  0  0
  9 15  1  0  0  0  0
  9 35  1  0  0  0  0
 10 17  1  0  0  0  0
 10 18  2  0  0  0  0
 11 16  1  0  0  0  0
 11 36  1  0  0  0  0
 11 37  1  0  0  0  0
 12 22  1  0  0  0  0
 12 26  1  0  0  0  0
 13 14  1  0  0  0  0
 13 20  1  0  0  0  0
 13 21  1  0  0  0  0
 13 27  1  0  0  0  0
 14 16  1  0  0  0  0
 14 17  2  0  0  0  0
 15 18  1  0  0  0  0
 15 38  1  0  0  0  0
 15 39  1  0  0  0  0
 16 40  1  0  0  0  0
 16 41  1  0  0  0  0
 17 25  1  0  0  0  0
 18 42  1  0  0  0  0
 19 43  1  0  0  0  0
 19 44  1  0  0  0  0
 19 45  1  0  0  0  0
 20 23  1  0  0  0  0
 20 46  1  0  0  0  0
 20 47  1  0  0  0  0
 21 24  1  0  0  0  0
 21 29  2  0  0  0  0
 22 30  1  0  0  0  0
 22 48  1  0  0  0  0
 23 28  1  0  0  0  0
 23 49  1  0  0  0  0
 24 28  1  0  0  0  0
 24 50  1  0  0  0  0
 24 51  1  0  0  0  0
 25 29  1  0  0  0  0
 26 52  1  0  0  0  0
 26 53  1  0  0  0  0
 26 54  1  0  0  0  0
 27 55  1  0  0  0  0
 27 56  1  0  0  0  0
 27 57  1  0  0  0  0
 28 58  1  0  0  0  0
 30 31  1  0  0  0  0
 30 59  1  0  0  0  0
 30 60  1  0  0  0  0
 31 32  1  0  0  0  0
 31 62  1  0  0  0  0
 31 63  1  0  0  0  0
 32 33  1  0  0  0  0
 32 34  1  0  0  0  0
 33 68  1  0  0  0  0
 33 69  1  0  0  0  0
 33 73  1  0  0  0  0
 34 70  1  0  0  0  0
 34 71  1  0  0  0  0
 34 72  1  0  0  0  0
M  END
> <PUBCHEM_COMPOUND_CID>
101281312

> <PUBCHEM_CONFORMER_RMSD>
1

> <PUBCHEM_CONFORMER_DIVERSEORDER>
1
3
11
10
6
8
7
9
5
4
2

> <PUBCHEM_MMFF94_PARTIAL_CHARGES>
31
1 -0.68
10 -0.14
12 0.28
13 0.28
14 -0.28
15 0.14
16 0.14
17 0.01
18 -0.29
2 -0.68
21 -0.28
22 0.28
23 0.28
24 0.14
25 0.54
28 0.28
29 0.09
3 -0.68
32 0.28
4 -0.68
42 0.15
5 -0.53
6 -0.57
61 0.4
64 0.4
65 0.4
66 0.4
67 0.45
7 -0.68
74 0.4
8 0.14

> <PUBCHEM_EFFECTIVE_ROTOR_COUNT>
6.6

> <PUBCHEM_PHARMACOPHORE_FEATURES>
17
1 1 acceptor
1 1 donor
1 2 acceptor
1 2 donor
1 3 acceptor
1 3 donor
1 4 acceptor
1 4 donor
1 5 donor
1 6 acceptor
1 7 acceptor
1 7 donor
3 32 33 34 hydrophobe
5 8 9 10 15 18 rings
6 13 14 17 21 25 29 rings
6 13 20 21 23 24 28 rings
6 8 10 11 14 16 17 rings

> <PUBCHEM_HEAVY_ATOM_COUNT>
34

> <PUBCHEM_ATOM_DEF_STEREO_COUNT>
7

> <PUBCHEM_ATOM_UDEF_STEREO_COUNT>
0

> <PUBCHEM_BOND_DEF_STEREO_COUNT>
0

> <PUBCHEM_BOND_UDEF_STEREO_COUNT>
0

> <PUBCHEM_ISOTOPIC_ATOM_COUNT>
0

> <PUBCHEM_COMPONENT_COUNT>
1

> <PUBCHEM_CACTVS_TAUTO_COUNT>
79

> <PUBCHEM_CONFORMER_ID>
06096E2000000001

> <PUBCHEM_MMFF94_ENERGY>
118.4254

> <PUBCHEM_FEATURE_SELFOVERLAP>
86.415

> <PUBCHEM_SHAPE_FINGERPRINT>
10 15 15213300858714221110
10554248 39 16916513549256772565
10674148 151 18411425016938776892
10693767 8 12103575151780795188
10816530 90 18060135444482467065
10906281 52 18113910393986634582
11456790 92 17676757700809553880
11475781 23 16630233741023862803
11646440 116 16805321106491911428
11963148 33 11602811419610331904
12035758 1 15864070991947426011
12236239 1 18408597089167949222
12422481 6 18116709613299406077
12596602 18 18334858350530465267
13140716 1 16734678700167644566
13533116 47 17749657542107504522
13690498 29 16701166642832205519
13782708 43 12757149082635132709
14211702 104 7853579036666125745
14294032 229 17917714639376742047
14340393 91 12175628326750894291
14347329 18 17846782863044731025
14394314 77 18259988167580206197
14415361 349 9871476465295203104
14849402 71 17894634785616950805
14856354 85 18058166305990194647
15081414 286 17313379033287425422
15082195 135 17131840862885021944
15183329 4 18410004451387835229
15188451 53 10881403149318195705
15238133 3 18201428182125253346
15324884 4 15696571468093178651
15392192 104 16154578452902181721
15510800 12 14129064712424937457
1577012 14 18410853265410423047
15840311 113 18335425621653639285
16994733 274 18271803592446010872
17913733 40 17458063755396143899
17980427 23 18335985341796779853
19053607 189 17842839924433515881
20775438 99 12175323804552476364
21033648 29 17274528893225544571
21315764 119 17703798028746280230
21424621 283 18413112757980183355
21623969 137 15936412225805007875
21781055 127 18260833727077639888
22122407 14 18337401525289550673
22149856 69 16226335803035670301
22393880 68 15123498246642373239
2260408 40 17241051994286401887
23522609 53 18335709363734960604
23559900 14 14476673169788556530
23569914 152 14257727191832474933
23569914 2 17341483636693994801
23576562 1 15194986306690175489
2748736 6 18130223762420161897
3178227 256 16660368091093662796
3663271 9 18186521021014509635
3918712 181 18130789998092585329
392239 28 17022904588205015245
394071 54 17749388165647231246
397830 11 13840274722865892983
4093350 32 18409732838025684338
4340502 62 17385444323479603138
44249763 50 16558449943088536421
465052 167 13623529069582515326
5104073 3 17530961427356283570
5385378 56 17675924279179068890
563151 74 17749395858054913665
5911458 16 18412270527752576873

> <PUBCHEM_SHAPE_MULTIPOLES>
658.62
19.23
2.76
2.24
18.47
1.82
-0.75
17.28
-2.29
2.09
0.27
-1.31
-0.76
-3.63

> <PUBCHEM_SHAPE_SELFOVERLAP>
1408.507

> <PUBCHEM_SHAPE_VOLUME>
364

> <PUBCHEM_COORDINATE_TYPE>
2
5
10

$$$$
