102049211
  -OEChem-08292010023D

 76 79  0     1  0  0  0  0  0999 V2000
   -3.0380   -1.5464   -2.0082 O   0  0  0  0  0  0  0  0  0  0  0  0
   -3.6713    1.7534    1.4432 O   0  0  0  0  0  0  0  0  0  0  0  0
    5.9889    1.9608   -0.4263 N   0  0  0  0  0  0  0  0  0  0  0  0
   -4.1447    0.1844   -0.2010 N   0  0  0  0  0  0  0  0  0  0  0  0
    2.9253   -0.2327    0.3309 C   0  0  1  0  0  0  0  0  0  0  0  0
    2.0388   -0.5810   -0.8841 C   0  0  2  0  0  0  0  0  0  0  0  0
    1.0652   -1.7303   -0.6015 C   0  0  1  0  0  0  0  0  0  0  0  0
    0.1295   -1.3155    0.5795 C   0  0  1  0  0  0  0  0  0  0  0  0
    3.7892    0.8833   -0.3059 C   0  0  2  0  0  0  0  0  0  0  0  0
   -0.9387   -2.4311    0.9035 C   0  0  2  0  0  0  0  0  0  0  0  0
    2.0028    0.2344    1.4646 C   0  0  0  0  0  0  0  0  0  0  0  0
    0.9411   -0.8265    1.8099 C   0  0  0  0  0  0  0  0  0  0  0  0
    3.0376   -0.7180   -2.0295 C   0  0  0  0  0  0  0  0  0  0  0  0
    4.1186    0.3322   -1.7129 C   0  0  0  0  0  0  0  0  0  0  0  0
    0.2506   -2.0944   -1.8480 C   0  0  0  0  0  0  0  0  0  0  0  0
   -1.7228   -2.7909   -0.3951 C   0  0  2  0  0  0  0  0  0  0  0  0
   -0.7890   -3.1725   -1.5545 C   0  0  0  0  0  0  0  0  0  0  0  0
    3.8080   -1.4049    0.8286 C   0  0  0  0  0  0  0  0  0  0  0  0
    5.0282    1.3118    0.4671 C   0  0  2  0  0  0  0  0  0  0  0  0
   -1.9699   -1.9766    1.9724 C   0  0  0  0  0  0  0  0  0  0  0  0
   -0.2610   -3.7037    1.4721 C   0  0  0  0  0  0  0  0  0  0  0  0
   -2.6884   -1.6762   -0.8340 C   0  0  0  0  0  0  0  0  0  0  0  0
   -2.9321   -0.9402    1.4883 C   0  0  0  0  0  0  0  0  0  0  0  0
    4.6680    2.2686    1.6012 C   0  0  0  0  0  0  0  0  0  0  0  0
   -3.2661   -0.7769    0.2040 C   0  0  0  0  0  0  0  0  0  0  0  0
    7.3259    1.9457    0.1651 C   0  0  0  0  0  0  0  0  0  0  0  0
    5.5717    3.3321   -0.7142 C   0  0  0  0  0  0  0  0  0  0  0  0
   -4.2987    1.4025    0.4452 C   0  0  0  0  0  0  0  0  0  0  0  0
   -5.3356    2.2951   -0.1816 C   0  0  0  0  0  0  0  0  0  0  0  0
   -6.5325    1.6718   -0.8365 C   0  0  0  0  0  0  0  0  0  0  0  0
   -5.1221    3.6184   -0.0554 C   0  0  0  0  0  0  0  0  0  0  0  0
   -5.9787    4.7235   -0.5870 C   0  0  0  0  0  0  0  0  0  0  0  0
    1.4203    0.2997   -1.1271 H   0  0  0  0  0  0  0  0  0  0  0  0
    1.6386   -2.6200   -0.3235 H   0  0  0  0  0  0  0  0  0  0  0  0
   -0.4214   -0.4290    0.2328 H   0  0  0  0  0  0  0  0  0  0  0  0
    3.1422    1.7602   -0.4619 H   0  0  0  0  0  0  0  0  0  0  0  0
    1.4930    1.1643    1.1822 H   0  0  0  0  0  0  0  0  0  0  0  0
    2.5671    0.4481    2.3761 H   0  0  0  0  0  0  0  0  0  0  0  0
    1.4303   -1.6722    2.3033 H   0  0  0  0  0  0  0  0  0  0  0  0
    0.2680   -0.3824    2.5508 H   0  0  0  0  0  0  0  0  0  0  0  0
    2.5733   -0.5290   -3.0028 H   0  0  0  0  0  0  0  0  0  0  0  0
    3.4768   -1.7215   -2.0601 H   0  0  0  0  0  0  0  0  0  0  0  0
    5.1019   -0.1502   -1.7596 H   0  0  0  0  0  0  0  0  0  0  0  0
    4.1061    1.1341   -2.4597 H   0  0  0  0  0  0  0  0  0  0  0  0
    0.9174   -2.4586   -2.6385 H   0  0  0  0  0  0  0  0  0  0  0  0
   -0.2450   -1.2004   -2.2461 H   0  0  0  0  0  0  0  0  0  0  0  0
   -2.3699   -3.6569   -0.1932 H   0  0  0  0  0  0  0  0  0  0  0  0
   -1.3662   -3.3682   -2.4664 H   0  0  0  0  0  0  0  0  0  0  0  0
   -0.2763   -4.1132   -1.3210 H   0  0  0  0  0  0  0  0  0  0  0  0
    4.5659   -1.7015    0.0967 H   0  0  0  0  0  0  0  0  0  0  0  0
    3.2262   -2.3013    1.0589 H   0  0  0  0  0  0  0  0  0  0  0  0
    4.3284   -1.1395    1.7557 H   0  0  0  0  0  0  0  0  0  0  0  0
    5.5185    0.4319    0.8934 H   0  0  0  0  0  0  0  0  0  0  0  0
   -1.4600   -1.6023    2.8660 H   0  0  0  0  0  0  0  0  0  0  0  0
   -2.5645   -2.8353    2.3134 H   0  0  0  0  0  0  0  0  0  0  0  0
   -0.9922   -4.5115    1.5963 H   0  0  0  0  0  0  0  0  0  0  0  0
    0.1766   -3.5182    2.4586 H   0  0  0  0  0  0  0  0  0  0  0  0
    0.5323   -4.0895    0.8275 H   0  0  0  0  0  0  0  0  0  0  0  0
   -3.4010   -0.3684    2.2826 H   0  0  0  0  0  0  0  0  0  0  0  0
    3.9452    3.0386    1.3090 H   0  0  0  0  0  0  0  0  0  0  0  0
    5.5331    2.7625    2.0545 H   0  0  0  0  0  0  0  0  0  0  0  0
    4.2161    1.7124    2.4268 H   0  0  0  0  0  0  0  0  0  0  0  0
    6.2012    3.7264   -1.5218 H   0  0  0  0  0  0  0  0  0  0  0  0
    4.5470    3.3928   -1.0948 H   0  0  0  0  0  0  0  0  0  0  0  0
    5.6840    4.0280    0.1249 H   0  0  0  0  0  0  0  0  0  0  0  0
    7.4130    2.5212    1.0917 H   0  0  0  0  0  0  0  0  0  0  0  0
    7.6536    0.9187    0.3636 H   0  0  0  0  0  0  0  0  0  0  0  0
    8.0494    2.3606   -0.5467 H   0  0  0  0  0  0  0  0  0  0  0  0
   -4.5381    0.0742   -1.1320 H   0  0  0  0  0  0  0  0  0  0  0  0
   -6.3029    1.3943   -1.8700 H   0  0  0  0  0  0  0  0  0  0  0  0
   -7.3999    2.3378   -0.8433 H   0  0  0  0  0  0  0  0  0  0  0  0
   -6.8446    0.7716   -0.2958 H   0  0  0  0  0  0  0  0  0  0  0  0
   -4.2298    3.9703    0.4600 H   0  0  0  0  0  0  0  0  0  0  0  0
   -5.3594    5.4211   -1.1602 H   0  0  0  0  0  0  0  0  0  0  0  0
   -6.4323    5.2742    0.2426 H   0  0  0  0  0  0  0  0  0  0  0  0
   -6.7750    4.3773   -1.2496 H   0  0  0  0  0  0  0  0  0  0  0  0
  1 22  2  0  0  0  0
  2 28  2  0  0  0  0
  3 19  1  0  0  0  0
  3 26  1  0  0  0  0
  3 27  1  0  0  0  0
  4 25  1  0  0  0  0
  4 28  1  0  0  0  0
  4 69  1  0  0  0  0
  5  6  1  0  0  0  0
  5  9  1  0  0  0  0
  5 11  1  0  0  0  0
  5 18  1  0  0  0  0
  6  7  1  0  0  0  0
  6 13  1  0  0  0  0
  6 33  1  0  0  0  0
  7  8  1  0  0  0  0
  7 15  1  0  0  0  0
  7 34  1  0  0  0  0
  8 10  1  0  0  0  0
  8 12  1  0  0  0  0
  8 35  1  0  0  0  0
  9 14  1  0  0  0  0
  9 19  1  0  0  0  0
  9 36  1  0  0  0  0
 10 16  1  0  0  0  0
 10 20  1  0  0  0  0
 10 21  1  0  0  0  0
 11 12  1  0  0  0  0
 11 37  1  0  0  0  0
 11 38  1  0  0  0  0
 12 39  1  0  0  0  0
 12 40  1  0  0  0  0
 13 14  1  0  0  0  0
 13 41  1  0  0  0  0
 13 42  1  0  0  0  0
 14 43  1  0  0  0  0
 14 44  1  0  0  0  0
 15 17  1  0  0  0  0
 15 45  1  0  0  0  0
 15 46  1  0  0  0  0
 16 17  1  0  0  0  0
 16 22  1  0  0  0  0
 16 47  1  0  0  0  0
 17 48  1  0  0  0  0
 17 49  1  0  0  0  0
 18 50  1  0  0  0  0
 18 51  1  0  0  0  0
 18 52  1  0  0  0  0
 19 24  1  0  0  0  0
 19 53  1  0  0  0  0
 20 23  1  0  0  0  0
 20 54  1  0  0  0  0
 20 55  1  0  0  0  0
 21 56  1  0  0  0  0
 21 57  1  0  0  0  0
 21 58  1  0  0  0  0
 22 25  1  0  0  0  0
 23 25  2  0  0  0  0
 23 59  1  0  0  0  0
 24 60  1  0  0  0  0
 24 61  1  0  0  0  0
 24 62  1  0  0  0  0
 26 66  1  0  0  0  0
 26 67  1  0  0  0  0
 26 68  1  0  0  0  0
 27 63  1  0  0  0  0
 27 64  1  0  0  0  0
 27 65  1  0  0  0  0
 28 29  1  0  0  0  0
 29 30  1  0  0  0  0
 29 31  2  0  0  0  0
 30 70  1  0  0  0  0
 30 71  1  0  0  0  0
 30 72  1  0  0  0  0
 31 32  1  0  0  0  0
 31 73  1  0  0  0  0
 32 74  1  0  0  0  0
 32 75  1  0  0  0  0
 32 76  1  0  0  0  0
M  END
> <PUBCHEM_COMPOUND_CID>
102049211

> <PUBCHEM_CONFORMER_RMSD>
0.8

> <PUBCHEM_CONFORMER_DIVERSEORDER>
1
17
9
12
11
8
14
7
5
2
15
13
10
6
16
4
3

> <PUBCHEM_MMFF94_PARTIAL_CHARGES>
20
1 -0.57
16 0.06
19 0.27
2 -0.57
20 0.14
22 0.49
23 -0.29
25 0.12
26 0.27
27 0.27
28 0.62
29 -0.12
3 -0.81
30 0.14
31 -0.29
32 0.14
4 -0.54
59 0.15
69 0.37
73 0.15

> <PUBCHEM_EFFECTIVE_ROTOR_COUNT>
6.6

> <PUBCHEM_PHARMACOPHORE_FEATURES>
10
1 1 acceptor
1 2 acceptor
1 3 cation
1 30 hydrophobe
1 32 hydrophobe
1 4 donor
5 5 6 9 13 14 rings
6 10 16 20 22 23 25 rings
6 5 6 7 8 11 12 rings
6 7 8 10 15 16 17 rings

> <PUBCHEM_HEAVY_ATOM_COUNT>
32

> <PUBCHEM_ATOM_DEF_STEREO_COUNT>
7

> <PUBCHEM_ATOM_UDEF_STEREO_COUNT>
1

> <PUBCHEM_BOND_DEF_STEREO_COUNT>
1

> <PUBCHEM_BOND_UDEF_STEREO_COUNT>
0

> <PUBCHEM_ISOTOPIC_ATOM_COUNT>
0

> <PUBCHEM_COMPONENT_COUNT>
1

> <PUBCHEM_CACTVS_TAUTO_COUNT>
87

> <PUBCHEM_CONFORMER_ID>
061525BB00000001

> <PUBCHEM_MMFF94_ENERGY>
114.5558

> <PUBCHEM_FEATURE_SELFOVERLAP>
50.888

> <PUBCHEM_SHAPE_FINGERPRINT>
10042902 136 9978998200899958853
10675989 125 18195816163129157240
10864689 126 18271523109570387224
11387372 6 11604193428495434777
11720765 8 17622170065977440254
12104220 4 18041010517970541580
12107183 9 18189041028740872002
12422481 6 15068335709437359874
12633257 1 15285368327045557891
12788726 201 18119517976430194283
12895837 130 18338238283444492205
131258 38 9509162017137978873
13383661 66 10231749007139253117
13583140 156 18124884705728052274
13944108 23 17765433145669589201
13965767 371 17531810134695811015
14251764 30 9943802283522752017
14251764 75 18197223547093729697
14739800 52 18262512590341764947
14950920 106 14273746178368573189
15064981 113 17489028154676332244
15163728 17 18341051835374528983
15198563 99 17984406698038093127
15219462 58 18050269660328508914
15575132 122 18342175596550759597
15803439 3 17203321204648805485
16112460 7 18335977584464026164
16120349 189 18333729100734098965
17899979 129 17984708822795731217
17980427 26 18262785268651512127
18603816 31 10014770270143268260
19053607 189 18196922289155035321
19438510 23 18334576819856401145
20511986 3 17775280608705742206
20775438 99 12246518307515684172
21033648 29 18261126178618842927
21307412 95 10159699037511644713
21401589 2 18338811069437075707
21585480 29 11893059464065582804
21756936 100 18261954153776830218
22393880 68 17131269198659019802
23559900 14 17059518313100561190
23569914 2 17056638734696773584
2748736 6 18334287635477282205
2838139 119 18339919304164307631
3418910 222 17257934226780169864
376196 1 18338804407705811995
3918712 181 18336538306073596237
392239 28 16226045647455112612
4112364 45 18115864093052744217
4144715 1 18044105772715419762
44249763 50 17916011542302744784
44802255 64 17845380015141188654
46194498 28 17344909847963381218
463206 1 11959720565372310405
4756326 101 16341696588881267640
484985 159 9006796280141508743
508706 21 18127122198372320920
5104073 3 17458341953133563890
5219985 13 18410011014108412757
5283173 99 18200031871404469376
56633871 153 11242552033045069297
57724786 102 18334851680456933654
6036956 94 17686623850178689501
6086070 43 17346312748361450592
7288768 16 18040435486574108091
7808743 9 18410852174863367249
9849439 229 18261393296073771201

> <PUBCHEM_SHAPE_MULTIPOLES>
636.84
15.1
4.91
1.89
2.28
2.88
-0.1
23.5
-1.56
-5.11
-0.28
0.42
-1.07
0.65

> <PUBCHEM_SHAPE_SELFOVERLAP>
1339.24

> <PUBCHEM_SHAPE_VOLUME>
357.5

> <PUBCHEM_COORDINATE_TYPE>
2
5
10

$$$$
