132556617
  -OEChem-08292010503D

 71 74  0     1  0  0  0  0  0999 V2000
   -3.0604    2.5046   -0.1956 O   0  0  0  0  0  0  0  0  0  0  0  0
   -5.3168   -1.7424    0.0291 O   0  0  0  0  0  0  0  0  0  0  0  0
    7.7090   -0.7869   -0.1237 N   0  0  0  0  0  0  0  0  0  0  0  0
   -4.7307    0.4453    0.5705 N   0  0  0  0  0  0  0  0  0  0  0  0
    1.0240   -0.1200    0.4154 C   0  0  1  0  0  0  0  0  0  0  0  0
    1.8322    1.0403   -0.2540 C   0  0  2  0  0  0  0  0  0  0  0  0
    3.2911    0.9114    0.1875 C   0  0  1  0  0  0  0  0  0  0  0  0
   -0.5026   -0.0544    0.0513 C   0  0  2  0  0  0  0  0  0  0  0  0
    3.9274   -0.4228   -0.2691 C   0  0  2  0  0  0  0  0  0  0  0  0
    1.6797   -1.5115    0.1946 C   0  0  0  0  0  0  0  0  0  0  0  0
   -1.0313    1.3523    0.4543 C   0  0  1  0  0  0  0  0  0  0  0  0
    3.1953   -1.5414    0.4839 C   0  0  0  0  0  0  0  0  0  0  0  0
    1.2403    2.4058    0.1175 C   0  0  0  0  0  0  0  0  0  0  0  0
   -0.2494    2.4932   -0.2052 C   0  0  0  0  0  0  0  0  0  0  0  0
    4.3171    1.9774   -0.1878 C   0  0  0  0  0  0  0  0  0  0  0  0
    5.3654   -0.1193    0.0991 C   0  0  0  0  0  0  0  0  0  0  0  0
   -1.3011   -1.1051    0.8728 C   0  0  0  0  0  0  0  0  0  0  0  0
   -0.7271   -0.3318   -1.4599 C   0  0  0  0  0  0  0  0  0  0  0  0
    3.8838   -0.6802   -1.7942 C   0  0  0  0  0  0  0  0  0  0  0  0
    5.5804    1.2092    0.0928 C   0  0  0  0  0  0  0  0  0  0  0  0
   -2.5362    1.4710    0.2154 C   0  0  0  0  0  0  0  0  0  0  0  0
    6.3760   -1.1823    0.3384 C   0  0  2  0  0  0  0  0  0  0  0  0
   -2.7857   -0.8683    0.8919 C   0  0  0  0  0  0  0  0  0  0  0  0
   -3.3763    0.2910    0.5735 C   0  0  0  0  0  0  0  0  0  0  0  0
    6.4590   -1.5523    1.8209 C   0  0  0  0  0  0  0  0  0  0  0  0
    7.8220   -0.9527   -1.5634 C   0  0  0  0  0  0  0  0  0  0  0  0
   -5.6199   -0.5851    0.2974 C   0  0  0  0  0  0  0  0  0  0  0  0
   -7.0339   -0.1106    0.3373 C   0  0  0  0  0  0  0  0  0  0  0  0
   -8.0458   -0.6207   -0.3882 C   0  0  0  0  0  0  0  0  0  0  0  0
   -7.9541   -1.7699   -1.3526 C   0  0  0  0  0  0  0  0  0  0  0  0
   -9.4313   -0.0438   -0.2497 C   0  0  0  0  0  0  0  0  0  0  0  0
    1.0865    0.0531    1.5022 H   0  0  0  0  0  0  0  0  0  0  0  0
    1.7819    0.9511   -1.3438 H   0  0  0  0  0  0  0  0  0  0  0  0
    3.2671    0.9192    1.2938 H   0  0  0  0  0  0  0  0  0  0  0  0
    1.5094   -1.8549   -0.8300 H   0  0  0  0  0  0  0  0  0  0  0  0
    1.2010   -2.2519    0.8460 H   0  0  0  0  0  0  0  0  0  0  0  0
   -0.9095    1.4733    1.5422 H   0  0  0  0  0  0  0  0  0  0  0  0
    3.3402   -1.4332    1.5660 H   0  0  0  0  0  0  0  0  0  0  0  0
    3.5978   -2.5245    0.2119 H   0  0  0  0  0  0  0  0  0  0  0  0
    1.7670    3.2031   -0.4199 H   0  0  0  0  0  0  0  0  0  0  0  0
    1.3873    2.5968    1.1883 H   0  0  0  0  0  0  0  0  0  0  0  0
   -0.6291    3.4601    0.1482 H   0  0  0  0  0  0  0  0  0  0  0  0
   -0.3997    2.4898   -1.2913 H   0  0  0  0  0  0  0  0  0  0  0  0
    4.2336    2.8564    0.4579 H   0  0  0  0  0  0  0  0  0  0  0  0
    4.2627    2.2865   -1.2357 H   0  0  0  0  0  0  0  0  0  0  0  0
   -0.9544   -1.1201    1.9140 H   0  0  0  0  0  0  0  0  0  0  0  0
   -1.1216   -2.1084    0.4670 H   0  0  0  0  0  0  0  0  0  0  0  0
   -0.1575    0.3453   -2.1013 H   0  0  0  0  0  0  0  0  0  0  0  0
   -1.7778   -0.2260   -1.7488 H   0  0  0  0  0  0  0  0  0  0  0  0
   -0.4365   -1.3535   -1.7251 H   0  0  0  0  0  0  0  0  0  0  0  0
    4.3681    0.1205   -2.3651 H   0  0  0  0  0  0  0  0  0  0  0  0
    4.4049   -1.6129   -2.0422 H   0  0  0  0  0  0  0  0  0  0  0  0
    2.8665   -0.7714   -2.1835 H   0  0  0  0  0  0  0  0  0  0  0  0
    6.5294    1.6923    0.2760 H   0  0  0  0  0  0  0  0  0  0  0  0
    6.0761   -2.0961   -0.1911 H   0  0  0  0  0  0  0  0  0  0  0  0
   -3.3563   -1.7233    1.2406 H   0  0  0  0  0  0  0  0  0  0  0  0
    6.7674   -0.6974    2.4345 H   0  0  0  0  0  0  0  0  0  0  0  0
    5.4964   -1.9047    2.2034 H   0  0  0  0  0  0  0  0  0  0  0  0
    7.1826   -2.3595    1.9843 H   0  0  0  0  0  0  0  0  0  0  0  0
    8.4181   -1.3661    0.3254 H   0  0  0  0  0  0  0  0  0  0  0  0
   -5.0801    1.4009    0.5707 H   0  0  0  0  0  0  0  0  0  0  0  0
    8.8260   -0.6531   -1.8811 H   0  0  0  0  0  0  0  0  0  0  0  0
    7.6802   -1.9961   -1.8648 H   0  0  0  0  0  0  0  0  0  0  0  0
    7.1134   -0.3234   -2.1108 H   0  0  0  0  0  0  0  0  0  0  0  0
   -7.2232    0.7340    0.9965 H   0  0  0  0  0  0  0  0  0  0  0  0
   -8.3651   -2.6774   -0.8992 H   0  0  0  0  0  0  0  0  0  0  0  0
   -9.7733    0.3569   -1.2096 H   0  0  0  0  0  0  0  0  0  0  0  0
  -10.1331   -0.8194    0.0742 H   0  0  0  0  0  0  0  0  0  0  0  0
   -9.4748    0.7689    0.4831 H   0  0  0  0  0  0  0  0  0  0  0  0
   -6.9361   -1.9764   -1.6887 H   0  0  0  0  0  0  0  0  0  0  0  0
   -8.5315   -1.5490   -2.2575 H   0  0  0  0  0  0  0  0  0  0  0  0
  1 21  2  0  0  0  0
  2 27  2  0  0  0  0
  3 22  1  0  0  0  0
  3 26  1  0  0  0  0
  3 60  1  0  0  0  0
  4 24  1  0  0  0  0
  4 27  1  0  0  0  0
  4 61  1  0  0  0  0
  5  6  1  0  0  0  0
  5  8  1  0  0  0  0
  5 10  1  0  0  0  0
  5 32  1  0  0  0  0
  6  7  1  0  0  0  0
  6 13  1  0  0  0  0
  6 33  1  0  0  0  0
  7  9  1  0  0  0  0
  7 15  1  0  0  0  0
  7 34  1  0  0  0  0
  8 11  1  0  0  0  0
  8 17  1  0  0  0  0
  8 18  1  0  0  0  0
  9 12  1  0  0  0  0
  9 16  1  0  0  0  0
  9 19  1  0  0  0  0
 10 12  1  0  0  0  0
 10 35  1  0  0  0  0
 10 36  1  0  0  0  0
 11 14  1  0  0  0  0
 11 21  1  0  0  0  0
 11 37  1  0  0  0  0
 12 38  1  0  0  0  0
 12 39  1  0  0  0  0
 13 14  1  0  0  0  0
 13 40  1  0  0  0  0
 13 41  1  0  0  0  0
 14 42  1  0  0  0  0
 14 43  1  0  0  0  0
 15 20  1  0  0  0  0
 15 44  1  0  0  0  0
 15 45  1  0  0  0  0
 16 20  2  0  0  0  0
 16 22  1  0  0  0  0
 17 23  1  0  0  0  0
 17 46  1  0  0  0  0
 17 47  1  0  0  0  0
 18 48  1  0  0  0  0
 18 49  1  0  0  0  0
 18 50  1  0  0  0  0
 19 51  1  0  0  0  0
 19 52  1  0  0  0  0
 19 53  1  0  0  0  0
 20 54  1  0  0  0  0
 21 24  1  0  0  0  0
 22 25  1  0  0  0  0
 22 55  1  0  0  0  0
 23 24  2  0  0  0  0
 23 56  1  0  0  0  0
 25 57  1  0  0  0  0
 25 58  1  0  0  0  0
 25 59  1  0  0  0  0
 26 62  1  0  0  0  0
 26 63  1  0  0  0  0
 26 64  1  0  0  0  0
 27 28  1  0  0  0  0
 28 29  2  0  0  0  0
 28 65  1  0  0  0  0
 29 30  1  0  0  0  0
 29 31  1  0  0  0  0
 30 66  1  0  0  0  0
 30 70  1  0  0  0  0
 30 71  1  0  0  0  0
 31 67  1  0  0  0  0
 31 68  1  0  0  0  0
 31 69  1  0  0  0  0
M  END
> <PUBCHEM_COMPOUND_CID>
132556617

> <PUBCHEM_CONFORMER_RMSD>
0.8

> <PUBCHEM_CONFORMER_DIVERSEORDER>
1
9
8
6
10
14
7
4
3
2
11
15
5
12
13

> <PUBCHEM_MMFF94_PARTIAL_CHARGES>
25
1 -0.57
11 0.06
15 0.14
16 -0.28
17 0.14
2 -0.57
20 -0.29
21 0.49
22 0.41
23 -0.29
24 0.12
26 0.27
27 0.62
28 -0.14
29 -0.28
3 -0.9
30 0.14
31 0.14
4 -0.54
54 0.15
56 0.15
60 0.36
61 0.37
65 0.15
9 0.14

> <PUBCHEM_EFFECTIVE_ROTOR_COUNT>
6.2

> <PUBCHEM_PHARMACOPHORE_FEATURES>
10
1 1 acceptor
1 2 acceptor
1 3 cation
1 3 donor
1 4 donor
3 29 30 31 hydrophobe
5 7 9 15 16 20 rings
6 5 6 7 9 10 12 rings
6 5 6 8 11 13 14 rings
6 8 11 17 21 23 24 rings

> <PUBCHEM_HEAVY_ATOM_COUNT>
31

> <PUBCHEM_ATOM_DEF_STEREO_COUNT>
7

> <PUBCHEM_ATOM_UDEF_STEREO_COUNT>
0

> <PUBCHEM_BOND_DEF_STEREO_COUNT>
0

> <PUBCHEM_BOND_UDEF_STEREO_COUNT>
0

> <PUBCHEM_ISOTOPIC_ATOM_COUNT>
0

> <PUBCHEM_COMPONENT_COUNT>
1

> <PUBCHEM_CACTVS_TAUTO_COUNT>
306

> <PUBCHEM_CONFORMER_ID>
07E6A74900000001

> <PUBCHEM_MMFF94_ENERGY>
95.9507

> <PUBCHEM_FEATURE_SELFOVERLAP>
50.842

> <PUBCHEM_SHAPE_FINGERPRINT>
10 15 12175620681286515597
106641 1 16917063378005865738
11135609 99 18200874106244639751
11181472 205 15213569049436213197
11578080 2 16734658659459831869
11638347 137 15554452877458800030
11719270 70 18343300366391307518
11963148 33 18410852153553223942
12166972 35 17749393663638257660
12236239 1 18059860579412288977
12516196 113 18131070432889936521
13811026 1 18412262835560523217
13862211 1 18409168809354600081
13914758 101 16081363016958660653
14068700 675 18272653458973288209
14117953 113 18342742918143111519
14251764 18 18408608045476215984
14294032 229 17096921374852742085
15183329 4 18334011701382072435
15198563 99 17531235133676555933
15247644 1 16415481554167447223
15849732 13 17917992780329481839
16087824 20 18336264536774207293
16728433 281 16299492887374297181
20028762 73 18273216399909415894
20105231 36 17632022958263907390
21130935 74 18057886849494846042
21267235 1 18411143523969930384
21792934 111 18341039774673936449
22224240 67 15985101921030272287
232437 2 18408886248880265715
23522609 53 18122096218953315521
23559900 14 18190178069766454321
23569917 315 17775294858400383862
23576562 1 14780128505120058895
249057 3 18411138065388588391
3004659 81 18040154028587459672
335352 9 18335706056715358294
3633792 109 16443342036010870411
3711267 37 11746936452231200191
4073 2 17823142378840997755
4112364 45 14691992731174131712
4258327 124 11887379374153242986
4325135 7 18341894091367008999
439807 62 18260266339050858457
4516262 110 17459765898845230612
474113 269 17749936766384481978
5104073 3 18411136914522080640
5969126 39 18408598142205252293
59755656 215 18260550013135519451
6081469 158 17530961367279403862

> <PUBCHEM_SHAPE_MULTIPOLES>
616.26
23.93
2.16
1.16
27.73
1.08
0.24
-11.22
3.74
-0.56
-0.02
-1.02
-0.5
-0.82

> <PUBCHEM_SHAPE_SELFOVERLAP>
1303.107

> <PUBCHEM_SHAPE_VOLUME>
344.4

> <PUBCHEM_COORDINATE_TYPE>
2
5
10

$$$$
