25763835
  -OEChem-09082022553D

 47 48  0     1  0  0  0  0  0999 V2000
   -1.4838   -3.0112   -0.4676 O   0  0  0  0  0  0  0  0  0  0  0  0
    1.3011   -2.9220   -0.2320 O   0  0  0  0  0  0  0  0  0  0  0  0
   -8.0659    2.1845    0.2135 O   0  0  0  0  0  0  0  0  0  0  0  0
    7.8322    2.4429   -0.7142 O   0  0  0  0  0  0  0  0  0  0  0  0
   -0.2071   -1.0741    0.1899 C   0  0  0  0  0  0  0  0  0  0  0  0
   -1.3766   -2.0068    0.5384 C   0  0  1  0  0  0  0  0  0  0  0  0
    1.1659   -1.7005    0.4903 C   0  0  2  0  0  0  0  0  0  0  0  0
   -2.7153   -1.2660    0.6783 C   0  0  0  0  0  0  0  0  0  0  0  0
    2.3037   -0.7431    0.1014 C   0  0  0  0  0  0  0  0  0  0  0  0
   -3.1465   -0.4995   -0.5782 C   0  0  0  0  0  0  0  0  0  0  0  0
    3.6486   -1.0681    0.7670 C   0  0  0  0  0  0  0  0  0  0  0  0
   -4.4578    0.2158   -0.3665 C   0  0  0  0  0  0  0  0  0  0  0  0
    4.7629   -0.1323    0.3719 C   0  0  0  0  0  0  0  0  0  0  0  0
   -5.6593   -0.4290   -0.6601 C   0  0  0  0  0  0  0  0  0  0  0  0
    5.5607   -0.4252   -0.7342 C   0  0  0  0  0  0  0  0  0  0  0  0
   -4.4688    1.5221    0.1223 C   0  0  0  0  0  0  0  0  0  0  0  0
    4.9965    1.0262    1.1130 C   0  0  0  0  0  0  0  0  0  0  0  0
   -6.8718    0.2325   -0.4650 C   0  0  0  0  0  0  0  0  0  0  0  0
    6.5919    0.4403   -1.0992 C   0  0  0  0  0  0  0  0  0  0  0  0
   -5.6812    2.1839    0.3172 C   0  0  0  0  0  0  0  0  0  0  0  0
    6.0279    1.8917    0.7481 C   0  0  0  0  0  0  0  0  0  0  0  0
   -6.8827    1.5390    0.0236 C   0  0  0  0  0  0  0  0  0  0  0  0
    6.8256    1.5987   -0.3581 C   0  0  0  0  0  0  0  0  0  0  0  0
   -0.2968   -0.1411    0.7590 H   0  0  0  0  0  0  0  0  0  0  0  0
   -0.2496   -0.8306   -0.8795 H   0  0  0  0  0  0  0  0  0  0  0  0
   -1.1676   -2.5143    1.4878 H   0  0  0  0  0  0  0  0  0  0  0  0
    1.2199   -1.9338    1.5604 H   0  0  0  0  0  0  0  0  0  0  0  0
   -3.4955   -1.9975    0.9273 H   0  0  0  0  0  0  0  0  0  0  0  0
   -2.6510   -0.5743    1.5281 H   0  0  0  0  0  0  0  0  0  0  0  0
    2.0284    0.2821    0.3810 H   0  0  0  0  0  0  0  0  0  0  0  0
    2.4316   -0.7531   -0.9890 H   0  0  0  0  0  0  0  0  0  0  0  0
   -2.3855    0.2365   -0.8638 H   0  0  0  0  0  0  0  0  0  0  0  0
   -3.2372   -1.1847   -1.4302 H   0  0  0  0  0  0  0  0  0  0  0  0
    3.9466   -2.0961    0.5249 H   0  0  0  0  0  0  0  0  0  0  0  0
    3.5321   -1.0481    1.8585 H   0  0  0  0  0  0  0  0  0  0  0  0
   -2.2161   -3.6000   -0.2179 H   0  0  0  0  0  0  0  0  0  0  0  0
    2.1418   -3.3313    0.0329 H   0  0  0  0  0  0  0  0  0  0  0  0
   -5.6636   -1.4473   -1.0398 H   0  0  0  0  0  0  0  0  0  0  0  0
    5.3872   -1.3237   -1.3204 H   0  0  0  0  0  0  0  0  0  0  0  0
   -3.5393    2.0343    0.3564 H   0  0  0  0  0  0  0  0  0  0  0  0
    4.3804    1.2660    1.9755 H   0  0  0  0  0  0  0  0  0  0  0  0
   -7.8045   -0.2752   -0.6952 H   0  0  0  0  0  0  0  0  0  0  0  0
    7.2096    0.2070   -1.9621 H   0  0  0  0  0  0  0  0  0  0  0  0
   -5.6762    3.2014    0.6988 H   0  0  0  0  0  0  0  0  0  0  0  0
    6.1993    2.7910    1.3335 H   0  0  0  0  0  0  0  0  0  0  0  0
   -7.8863    3.0772    0.5555 H   0  0  0  0  0  0  0  0  0  0  0  0
    7.8503    3.1911   -0.0930 H   0  0  0  0  0  0  0  0  0  0  0  0
  1  6  1  0  0  0  0
  1 36  1  0  0  0  0
  2  7  1  0  0  0  0
  2 37  1  0  0  0  0
  3 22  1  0  0  0  0
  3 46  1  0  0  0  0
  4 23  1  0  0  0  0
  4 47  1  0  0  0  0
  5  6  1  0  0  0  0
  5  7  1  0  0  0  0
  5 24  1  0  0  0  0
  5 25  1  0  0  0  0
  6  8  1  0  0  0  0
  6 26  1  0  0  0  0
  7  9  1  0  0  0  0
  7 27  1  0  0  0  0
  8 10  1  0  0  0  0
  8 28  1  0  0  0  0
  8 29  1  0  0  0  0
  9 11  1  0  0  0  0
  9 30  1  0  0  0  0
  9 31  1  0  0  0  0
 10 12  1  0  0  0  0
 10 32  1  0  0  0  0
 10 33  1  0  0  0  0
 11 13  1  0  0  0  0
 11 34  1  0  0  0  0
 11 35  1  0  0  0  0
 12 14  2  0  0  0  0
 12 16  1  0  0  0  0
 13 15  2  0  0  0  0
 13 17  1  0  0  0  0
 14 18  1  0  0  0  0
 14 38  1  0  0  0  0
 15 19  1  0  0  0  0
 15 39  1  0  0  0  0
 16 20  2  0  0  0  0
 16 40  1  0  0  0  0
 17 21  2  0  0  0  0
 17 41  1  0  0  0  0
 18 22  2  0  0  0  0
 18 42  1  0  0  0  0
 19 23  2  0  0  0  0
 19 43  1  0  0  0  0
 20 22  1  0  0  0  0
 20 44  1  0  0  0  0
 21 23  1  0  0  0  0
 21 45  1  0  0  0  0
M  END
> <PUBCHEM_COMPOUND_CID>
25763835

> <PUBCHEM_CONFORMER_RMSD>
1.2

> <PUBCHEM_CONFORMER_DIVERSEORDER>
1
20
66
45
15
42
48
10
17
35
19
8
7
11
22
29
49
32
34
47
56
40
51
13
24
64
37
27
58
36
9
63
2
3
57
50
53
14
5
4
52
38
41
62
65
16
18
46
54
26
30
21
23
28
61
55
60
43
6
39
25
59
44
12
33
31

> <PUBCHEM_MMFF94_PARTIAL_CHARGES>
32
1 -0.68
10 0.14
11 0.14
12 -0.14
13 -0.14
14 -0.15
15 -0.15
16 -0.15
17 -0.15
18 -0.15
19 -0.15
2 -0.68
20 -0.15
21 -0.15
22 0.08
23 0.08
3 -0.53
36 0.4
37 0.4
38 0.15
39 0.15
4 -0.53
40 0.15
41 0.15
42 0.15
43 0.15
44 0.15
45 0.15
46 0.45
47 0.45
6 0.28
7 0.28

> <PUBCHEM_EFFECTIVE_ROTOR_COUNT>
8

> <PUBCHEM_PHARMACOPHORE_FEATURES>
8
1 1 acceptor
1 1 donor
1 2 acceptor
1 2 donor
1 3 donor
1 4 donor
6 12 14 16 18 20 22 rings
6 13 15 17 19 21 23 rings

> <PUBCHEM_HEAVY_ATOM_COUNT>
23

> <PUBCHEM_ATOM_DEF_STEREO_COUNT>
2

> <PUBCHEM_ATOM_UDEF_STEREO_COUNT>
0

> <PUBCHEM_BOND_DEF_STEREO_COUNT>
0

> <PUBCHEM_BOND_UDEF_STEREO_COUNT>
0

> <PUBCHEM_ISOTOPIC_ATOM_COUNT>
0

> <PUBCHEM_COMPONENT_COUNT>
1

> <PUBCHEM_CACTVS_TAUTO_COUNT>
3

> <PUBCHEM_CONFORMER_ID>
01891FFB00000001

> <PUBCHEM_MMFF94_ENERGY>
53.2454

> <PUBCHEM_FEATURE_SELFOVERLAP>
40.605

> <PUBCHEM_SHAPE_FINGERPRINT>
10 15 15502378923892257214
10454371 7 18201720678336016263
10753850 27 10087633806425634895
11991303 11 16630517483743150639
12895837 130 18339361967474848415
13540713 4 18337129902736422627
13668630 136 12319730363277822541
13685833 64 9007059067367367558
13885169 86 18261116295856948941
14216079 64 9367340436440206297
14251757 52 18334011683590650264
14347332 77 10807943660327072050
14394314 77 18410578341061828913
14556957 393 15769508610981487344
14565420 104 17967812691709094915
14617042 71 18340773620985352137
14849402 71 18408887356518000561
14931854 50 17775568623888899689
15183329 4 16845577499896856146
15188451 53 10015588298605025906
15519825 34 15936987343875481489
1577012 14 18409442575297660807
15778101 99 18335421300605562842
16126227 98 18408887356332825675
16993089 31 13182439137336393541
16994733 274 18187642462872289305
1768 4 18410302406708189217
17899979 19 18335421236830471461
190975 80 10809347754403899358
1979834 28 14056999374002033290
20058555 10 18337387124480581853
2026 5 11167954540860301404
20281389 69 17967809427485820294
20526848 3 18407760339280681904
20621476 66 18335422387173792268
21033648 29 18268701874586091522
21298829 104 18408605872333930212
21307412 95 13254788058694603413
21344244 78 14779272977177364479
21424621 283 18334013878345370795
21585482 111 18190177884814413541
21623969 137 12685084878679395104
21637258 2 10519983764230971923
23569943 247 10303818687763433989
270888 7 18408321094674854026
2748736 6 18335975424253101428
2838139 119 18411972538193576306
3014063 24 9223227446918016641
3627633 1 17834113426587124299
406291 66 10879721961885940060
4073 2 18260551125996734387
44249763 50 17845075433050468634
5104073 3 11458691834252511502
5385378 56 18114177493687057266
543368 44 18411416186327708469
54583773 228 18411973652093534317
5718773 13 9511456723753285761
5758199 1 18260830384795992043
59682541 35 18041288716783049065
59682541 52 16630529501494381390
6327066 14 18411136943837576335
6438161 24 10015576199497491237
6712543 237 14490192700375962041
6898599 12 18199465644111972294
9689198 14 18341898485012908431

> <PUBCHEM_SHAPE_MULTIPOLES>
449.85
25.12
2.85
0.93
0
0.47
0
-22.89
-3.49
0.25
0.11
-0.89
-0.05
-0.62

> <PUBCHEM_SHAPE_SELFOVERLAP>
931.604

> <PUBCHEM_SHAPE_VOLUME>
257

> <PUBCHEM_COORDINATE_TYPE>
2
5
10

$$$$
