11034432
  -OEChem-09082022543D

 47 48  0     1  0  0  0  0  0999 V2000
    1.2798   -2.0376    1.1955 O   0  0  0  0  0  0  0  0  0  0  0  0
   -1.3048   -2.1863   -1.0541 O   0  0  0  0  0  0  0  0  0  0  0  0
    8.4056    2.1392   -0.1013 O   0  0  0  0  0  0  0  0  0  0  0  0
   -8.4401    2.1056   -0.0173 O   0  0  0  0  0  0  0  0  0  0  0  0
    0.0067   -0.4131   -0.0508 C   0  0  0  0  0  0  0  0  0  0  0  0
    1.2910   -1.2537    0.0049 C   0  0  1  0  0  0  0  0  0  0  0  0
   -1.2701   -1.2675    0.0352 C   0  0  1  0  0  0  0  0  0  0  0  0
    2.5692   -0.4029   -0.0451 C   0  0  0  0  0  0  0  0  0  0  0  0
   -2.5263   -0.3826    0.0025 C   0  0  0  0  0  0  0  0  0  0  0  0
    3.8692   -1.2121    0.0417 C   0  0  0  0  0  0  0  0  0  0  0  0
   -3.8450   -1.1669    0.0589 C   0  0  0  0  0  0  0  0  0  0  0  0
    5.0821   -0.3158    0.0036 C   0  0  0  0  0  0  0  0  0  0  0  0
   -5.0730   -0.2921    0.0384 C   0  0  0  0  0  0  0  0  0  0  0  0
    5.6550    0.0011   -1.2181 C   0  0  0  0  0  0  0  0  0  0  0  0
   -5.6084    0.1575    1.2356 C   0  0  0  0  0  0  0  0  0  0  0  0
    5.6023    0.1751    1.1911 C   0  0  0  0  0  0  0  0  0  0  0  0
   -5.6462    0.0479   -1.1775 C   0  0  0  0  0  0  0  0  0  0  0  0
    6.7767    0.8296   -1.2533 C   0  0  0  0  0  0  0  0  0  0  0  0
   -6.7445    0.9665    1.2167 C   0  0  0  0  0  0  0  0  0  0  0  0
    6.7239    1.0036    1.1559 C   0  0  0  0  0  0  0  0  0  0  0  0
   -6.7823    0.8570   -1.1966 C   0  0  0  0  0  0  0  0  0  0  0  0
    7.3111    1.3310   -0.0664 C   0  0  0  0  0  0  0  0  0  0  0  0
   -7.3315    1.3164    0.0006 C   0  0  0  0  0  0  0  0  0  0  0  0
    0.0069    0.1633   -0.9842 H   0  0  0  0  0  0  0  0  0  0  0  0
    0.0048    0.2997    0.7832 H   0  0  0  0  0  0  0  0  0  0  0  0
    1.3149   -1.9481   -0.8440 H   0  0  0  0  0  0  0  0  0  0  0  0
   -1.2810   -1.8517    0.9612 H   0  0  0  0  0  0  0  0  0  0  0  0
    2.5483    0.3075    0.7925 H   0  0  0  0  0  0  0  0  0  0  0  0
    2.5656    0.1960   -0.9649 H   0  0  0  0  0  0  0  0  0  0  0  0
   -2.4889    0.3295    0.8367 H   0  0  0  0  0  0  0  0  0  0  0  0
   -2.5215    0.2129   -0.9204 H   0  0  0  0  0  0  0  0  0  0  0  0
    3.9155   -1.9336   -0.7840 H   0  0  0  0  0  0  0  0  0  0  0  0
    3.8883   -1.8097    0.9616 H   0  0  0  0  0  0  0  0  0  0  0  0
   -3.8976   -1.8727   -0.7801 H   0  0  0  0  0  0  0  0  0  0  0  0
   -3.8605   -1.7901    0.9628 H   0  0  0  0  0  0  0  0  0  0  0  0
    0.6789   -2.7880    1.0518 H   0  0  0  0  0  0  0  0  0  0  0  0
   -1.3121   -1.6703   -1.8783 H   0  0  0  0  0  0  0  0  0  0  0  0
    5.2449   -0.3829   -2.1477 H   0  0  0  0  0  0  0  0  0  0  0  0
   -5.1573   -0.1077    2.1875 H   0  0  0  0  0  0  0  0  0  0  0  0
    5.1508   -0.0727    2.1475 H   0  0  0  0  0  0  0  0  0  0  0  0
   -5.2245   -0.3033   -2.1149 H   0  0  0  0  0  0  0  0  0  0  0  0
    7.2244    1.0774   -2.2119 H   0  0  0  0  0  0  0  0  0  0  0  0
   -7.1675    1.3216    2.1524 H   0  0  0  0  0  0  0  0  0  0  0  0
    7.1354    1.3914    2.0838 H   0  0  0  0  0  0  0  0  0  0  0  0
   -7.2297    1.1227   -2.1507 H   0  0  0  0  0  0  0  0  0  0  0  0
    8.6788    2.2599   -1.0269 H   0  0  0  0  0  0  0  0  0  0  0  0
   -8.7114    2.2469   -0.9406 H   0  0  0  0  0  0  0  0  0  0  0  0
  1  6  1  0  0  0  0
  1 36  1  0  0  0  0
  2  7  1  0  0  0  0
  2 37  1  0  0  0  0
  3 22  1  0  0  0  0
  3 46  1  0  0  0  0
  4 23  1  0  0  0  0
  4 47  1  0  0  0  0
  5  6  1  0  0  0  0
  5  7  1  0  0  0  0
  5 24  1  0  0  0  0
  5 25  1  0  0  0  0
  6  8  1  0  0  0  0
  6 26  1  0  0  0  0
  7  9  1  0  0  0  0
  7 27  1  0  0  0  0
  8 10  1  0  0  0  0
  8 28  1  0  0  0  0
  8 29  1  0  0  0  0
  9 11  1  0  0  0  0
  9 30  1  0  0  0  0
  9 31  1  0  0  0  0
 10 12  1  0  0  0  0
 10 32  1  0  0  0  0
 10 33  1  0  0  0  0
 11 13  1  0  0  0  0
 11 34  1  0  0  0  0
 11 35  1  0  0  0  0
 12 14  2  0  0  0  0
 12 16  1  0  0  0  0
 13 15  2  0  0  0  0
 13 17  1  0  0  0  0
 14 18  1  0  0  0  0
 14 38  1  0  0  0  0
 15 19  1  0  0  0  0
 15 39  1  0  0  0  0
 16 20  2  0  0  0  0
 16 40  1  0  0  0  0
 17 21  2  0  0  0  0
 17 41  1  0  0  0  0
 18 22  2  0  0  0  0
 18 42  1  0  0  0  0
 19 23  2  0  0  0  0
 19 43  1  0  0  0  0
 20 22  1  0  0  0  0
 20 44  1  0  0  0  0
 21 23  1  0  0  0  0
 21 45  1  0  0  0  0
M  END
> <PUBCHEM_COMPOUND_CID>
11034432

> <PUBCHEM_CONFORMER_RMSD>
0.8

> <PUBCHEM_CONFORMER_DIVERSEORDER>
5
6
12
3
100
13
40
106
80
65
60
53
44
42
34
31
58
89
92
84
101
25
86
57
1
19
99
56
104
51
70
7
11
14
2
73
102
66
103
16
18
49
97
24
79
75
98
9
17
61
72
59
96
62
26
8
78
28
68
50
23
33
105
94
54
47
20
83
91
41
55
22
107
74
85
67
32
46
69
38
88
77
48
36
30
81
15
63
35
90
108
10
29
45
76
52
95
93
39
71
82
4
21
87
37
64
43
27

> <PUBCHEM_MMFF94_PARTIAL_CHARGES>
32
1 -0.68
10 0.14
11 0.14
12 -0.14
13 -0.14
14 -0.15
15 -0.15
16 -0.15
17 -0.15
18 -0.15
19 -0.15
2 -0.68
20 -0.15
21 -0.15
22 0.08
23 0.08
3 -0.53
36 0.4
37 0.4
38 0.15
39 0.15
4 -0.53
40 0.15
41 0.15
42 0.15
43 0.15
44 0.15
45 0.15
46 0.45
47 0.45
6 0.28
7 0.28

> <PUBCHEM_EFFECTIVE_ROTOR_COUNT>
8

> <PUBCHEM_PHARMACOPHORE_FEATURES>
8
1 1 acceptor
1 1 donor
1 2 acceptor
1 2 donor
1 3 donor
1 4 donor
6 12 14 16 18 20 22 rings
6 13 15 17 19 21 23 rings

> <PUBCHEM_HEAVY_ATOM_COUNT>
23

> <PUBCHEM_ATOM_DEF_STEREO_COUNT>
2

> <PUBCHEM_ATOM_UDEF_STEREO_COUNT>
0

> <PUBCHEM_BOND_DEF_STEREO_COUNT>
0

> <PUBCHEM_BOND_UDEF_STEREO_COUNT>
0

> <PUBCHEM_ISOTOPIC_ATOM_COUNT>
0

> <PUBCHEM_COMPONENT_COUNT>
1

> <PUBCHEM_CACTVS_TAUTO_COUNT>
3

> <PUBCHEM_CONFORMER_ID>
00A85F4000000005

> <PUBCHEM_MMFF94_ENERGY>
52.7225

> <PUBCHEM_FEATURE_SELFOVERLAP>
40.598

> <PUBCHEM_SHAPE_FINGERPRINT>
10 15 17312823775055999815
10066227 112 18343581858410256681
10066227 49 12607418662959591508
10454371 7 16916795033129788857
10533779 47 16805876300688971088
11315181 36 18060420219137915025
11386260 185 15482386543436823040
11991303 11 14692277469851889533
12166972 35 10159693612077087770
125118 31 18333449811637148708
13668630 136 10952047840691391651
13862211 1 9223230745363456355
14251757 52 18411418401776576304
14251764 18 18113619002088679631
14729087 3 18410572898530006497
14849402 71 15213883612656655591
15183329 4 16200437948403243050
15461852 350 17489302015113591199
15690457 1 9655577401061246028
15716309 27 11818999574049526183
1577012 14 18411414016399202335
17093844 174 16298383557698934519
1754908 1 14634873062845032037
1768 124 10809333443794915776
1768 4 18411145732142322705
1818759 1 9295289464693423816
18335252 114 17418375792554783648
2026 5 10159701283347581885
20281389 69 18334292041685647782
20526848 3 18410576188475059186
21095123 293 18114187458190662396
21150785 3 16200430277760191135
21267235 1 9439403540530888779
22224240 67 16950001443602576979
22288116 15 17274812598118477255
22956985 138 8716902368978935040
23035841 295 7853572418126088913
23081809 10 18410282623340172214
23576562 1 16772654676508543729
24771293 8 17968939824824900244
33532 11 9367352530989217836
3383291 50 8214138556084082941
3711267 37 18340499918744334944
406291 66 9223231840611609460
4073 2 18408045125836401555
4093350 32 17676764293531391554
4340502 62 15357694189420974498
504843 32 18411980295654528615
5758199 1 18333450937150669547
5937810 71 17346044373061990585
59682541 35 17748832929961599521
59682541 52 16773803567623066798
6328613 192 18272370884188809753
636775 72 18115304463858843613
68570916 9 15430617167149047050
9953998 17 16153429446408987257

> <PUBCHEM_SHAPE_MULTIPOLES>
449.85
28.87
1.81
1.22
0.5
0.01
-0.01
21.53
0.74
-0.05
-0.01
-0.01
0.09
-0.24

> <PUBCHEM_SHAPE_SELFOVERLAP>
932.847

> <PUBCHEM_SHAPE_VOLUME>
256.4

> <PUBCHEM_COORDINATE_TYPE>
2
5
10

$$$$
