42608078
  -OEChem-09082022492D

 74 78  0     1  0  0  0  0  0999 V2000
    5.1350   -3.6997    0.0000 O   0  0  0  0  0  0  0  0  0  0  0  0
   11.2958    3.9404    0.0000 O   0  0  0  0  0  0  0  0  0  0  0  0
   13.5607    5.1917    0.0000 O   0  0  0  0  0  0  0  0  0  0  0  0
   12.0987    2.3495    0.0000 O   0  0  0  0  0  0  0  0  0  0  0  0
    6.8671   -3.6997    0.0000 O   0  0  0  0  0  0  0  0  0  0  0  0
   13.8637    3.6214    0.0000 O   0  0  0  0  0  0  0  0  0  0  0  0
    5.1350   -6.6997    0.0000 O   0  0  0  0  0  0  0  0  0  0  0  0
    3.4030   -5.6997    0.0000 O   0  0  0  0  0  0  0  0  0  0  0  0
    6.8671   -5.6997    0.0000 O   0  0  0  0  0  0  0  0  0  0  0  0
   11.7482    6.3897    0.0000 O   0  0  0  0  0  0  0  0  0  0  0  0
    8.6230   -0.6372    0.0000 O   0  0  0  0  0  0  0  0  0  0  0  0
    2.5369   -4.1997    0.0000 O   0  0  0  0  0  0  0  0  0  0  0  0
   12.0910    0.3495    0.0000 O   0  0  0  0  0  0  0  0  0  0  0  0
    5.1208   -0.6205    0.0000 O   0  0  0  0  0  0  0  0  0  0  0  0
    6.0308    0.8728    0.0000 O   0  0  0  0  0  0  0  0  0  0  0  0
   12.6085    4.8864    0.0000 C   0  0  3  0  0  0  0  0  0  0  0  0
   12.9138    3.9341    0.0000 C   0  0  3  0  0  0  0  0  0  0  0  0
    5.1350   -5.6997    0.0000 C   0  0  3  0  0  0  0  0  0  0  0  0
    4.2690   -5.1997    0.0000 C   0  0  3  0  0  0  0  0  0  0  0  0
    6.0010   -5.1997    0.0000 C   0  0  3  0  0  0  0  0  0  0  0  0
    4.2690   -4.1997    0.0000 C   0  0  3  0  0  0  0  0  0  0  0  0
   12.1025    3.3494    0.0000 C   0  0  3  0  0  0  0  0  0  0  0  0
   11.6085    4.8902    0.0000 C   0  0  0  0  0  0  0  0  0  0  0  0
    6.0010   -4.1997    0.0000 C   0  0  3  0  0  0  0  0  0  0  0  0
   12.6123    5.8864    0.0000 C   0  0  0  0  0  0  0  0  0  0  0  0
    3.4030   -3.6997    0.0000 C   0  0  0  0  0  0  0  0  0  0  0  0
    8.6269    0.3628    0.0000 C   0  0  1  0  0  0  0  0  0  0  0  0
   11.2307    1.8528    0.0000 C   0  0  0  0  0  0  0  0  0  0  0  0
    6.8671   -2.6997    0.0000 C   0  0  0  0  0  0  0  0  0  0  0  0
    7.7628    0.8662    0.0000 C   0  0  0  0  0  0  0  0  0  0  0  0
    9.4948    0.8595    0.0000 C   0  0  0  0  0  0  0  0  0  0  0  0
    7.7551   -1.1338    0.0000 C   0  0  0  0  0  0  0  0  0  0  0  0
    6.8910   -0.6305    0.0000 C   0  0  0  0  0  0  0  0  0  0  0  0
    7.7671   -2.1754    0.0000 C   0  0  0  0  0  0  0  0  0  0  0  0
   11.2269    0.8528    0.0000 C   0  0  0  0  0  0  0  0  0  0  0  0
    6.8948    0.3695    0.0000 C   0  0  0  0  0  0  0  0  0  0  0  0
   10.3666    2.3561    0.0000 C   0  0  0  0  0  0  0  0  0  0  0  0
    5.9670   -2.1754    0.0000 C   0  0  0  0  0  0  0  0  0  0  0  0
   10.3589    0.3561    0.0000 C   0  0  0  0  0  0  0  0  0  0  0  0
    9.4987    1.8595    0.0000 C   0  0  0  0  0  0  0  0  0  0  0  0
    5.9790   -1.1338    0.0000 C   0  0  0  0  0  0  0  0  0  0  0  0
   12.0871   -0.6505    0.0000 C   0  0  0  0  0  0  0  0  0  0  0  0
   13.0084    3.3214    0.0000 H   0  0  0  0  0  0  0  0  0  0  0  0
    4.5981   -6.0097    0.0000 H   0  0  0  0  0  0  0  0  0  0  0  0
    4.2690   -5.8197    0.0000 H   0  0  0  0  0  0  0  0  0  0  0  0
    6.0010   -5.8197    0.0000 H   0  0  0  0  0  0  0  0  0  0  0  0
    4.2690   -3.5797    0.0000 H   0  0  0  0  0  0  0  0  0  0  0  0
   12.6539    3.0659    0.0000 H   0  0  0  0  0  0  0  0  0  0  0  0
   11.6756    5.5066    0.0000 H   0  0  0  0  0  0  0  0  0  0  0  0
   11.0025    5.0214    0.0000 H   0  0  0  0  0  0  0  0  0  0  0  0
    6.0010   -3.5797    0.0000 H   0  0  0  0  0  0  0  0  0  0  0  0
   13.2225    5.7763    0.0000 H   0  0  0  0  0  0  0  0  0  0  0  0
   12.8266    6.4681    0.0000 H   0  0  0  0  0  0  0  0  0  0  0  0
    3.8015   -3.2247    0.0000 H   0  0  0  0  0  0  0  0  0  0  0  0
    3.0044   -3.2247    0.0000 H   0  0  0  0  0  0  0  0  0  0  0  0
   13.6919    5.7976    0.0000 H   0  0  0  0  0  0  0  0  0  0  0  0
   13.9902    3.0145    0.0000 H   0  0  0  0  0  0  0  0  0  0  0  0
    4.5981   -7.0097    0.0000 H   0  0  0  0  0  0  0  0  0  0  0  0
    3.4030   -6.3197    0.0000 H   0  0  0  0  0  0  0  0  0  0  0  0
    6.8671   -6.3197    0.0000 H   0  0  0  0  0  0  0  0  0  0  0  0
    8.6293    0.9828    0.0000 H   0  0  0  0  0  0  0  0  0  0  0  0
    8.1632    1.3396    0.0000 H   0  0  0  0  0  0  0  0  0  0  0  0
    7.3661    1.3426    0.0000 H   0  0  0  0  0  0  0  0  0  0  0  0
   11.7506    7.0097    0.0000 H   0  0  0  0  0  0  0  0  0  0  0  0
    8.3064   -2.4812    0.0000 H   0  0  0  0  0  0  0  0  0  0  0  0
   10.3690    2.9761    0.0000 H   0  0  0  0  0  0  0  0  0  0  0  0
   10.3565   -0.2638    0.0000 H   0  0  0  0  0  0  0  0  0  0  0  0
    5.4277   -2.4812    0.0000 H   0  0  0  0  0  0  0  0  0  0  0  0
    2.0000   -3.8897    0.0000 H   0  0  0  0  0  0  0  0  0  0  0  0
    8.9630    2.1715    0.0000 H   0  0  0  0  0  0  0  0  0  0  0  0
    4.5792   -0.9222    0.0000 H   0  0  0  0  0  0  0  0  0  0  0  0
   11.4671   -0.6481    0.0000 H   0  0  0  0  0  0  0  0  0  0  0  0
   12.0847   -1.2705    0.0000 H   0  0  0  0  0  0  0  0  0  0  0  0
   12.7071   -0.6529    0.0000 H   0  0  0  0  0  0  0  0  0  0  0  0
  1 21  1  0  0  0  0
  1 24  1  0  0  0  0
  2 22  1  0  0  0  0
  2 23  1  0  0  0  0
  3 16  1  0  0  0  0
  3 56  1  0  0  0  0
  4 22  1  0  0  0  0
  4 28  1  0  0  0  0
  5 24  1  0  0  0  0
  5 29  1  0  0  0  0
  6 17  1  0  0  0  0
  6 57  1  0  0  0  0
  7 18  1  0  0  0  0
  7 58  1  0  0  0  0
  8 19  1  0  0  0  0
  8 59  1  0  0  0  0
  9 20  1  0  0  0  0
  9 60  1  0  0  0  0
 10 25  1  0  0  0  0
 10 64  1  0  0  0  0
 11 27  1  0  0  0  0
 11 32  1  0  0  0  0
 12 26  1  0  0  0  0
 12 69  1  0  0  0  0
 13 35  1  0  0  0  0
 13 42  1  0  0  0  0
 14 41  1  0  0  0  0
 14 71  1  0  0  0  0
 15 36  2  0  0  0  0
 16 17  1  0  0  0  0
 16 23  1  0  0  0  0
 16 25  1  0  0  0  0
 17 22  1  0  0  0  0
 17 43  1  0  0  0  0
 18 19  1  0  0  0  0
 18 20  1  0  0  0  0
 18 44  1  0  0  0  0
 19 21  1  0  0  0  0
 19 45  1  0  0  0  0
 20 24  1  0  0  0  0
 20 46  1  0  0  0  0
 21 26  1  0  0  0  0
 21 47  1  0  0  0  0
 22 48  1  0  0  0  0
 23 49  1  0  0  0  0
 23 50  1  0  0  0  0
 24 51  1  0  0  0  0
 25 52  1  0  0  0  0
 25 53  1  0  0  0  0
 26 54  1  0  0  0  0
 26 55  1  0  0  0  0
 27 30  1  0  0  0  0
 27 31  1  1  0  0  0
 27 61  1  0  0  0  0
 28 35  2  0  0  0  0
 28 37  1  0  0  0  0
 29 34  1  0  0  0  0
 29 38  2  0  0  0  0
 30 36  1  0  0  0  0
 30 62  1  0  0  0  0
 30 63  1  0  0  0  0
 31 39  2  0  0  0  0
 31 40  1  0  0  0  0
 32 33  1  0  0  0  0
 32 34  2  0  0  0  0
 33 36  1  0  0  0  0
 33 41  2  0  0  0  0
 34 65  1  0  0  0  0
 35 39  1  0  0  0  0
 37 40  2  0  0  0  0
 37 66  1  0  0  0  0
 38 41  1  0  0  0  0
 38 68  1  0  0  0  0
 39 67  1  0  0  0  0
 40 70  1  0  0  0  0
 42 72  1  0  0  0  0
 42 73  1  0  0  0  0
 42 74  1  0  0  0  0
M  END
> <PUBCHEM_COMPOUND_CID>
42608078

> <PUBCHEM_COMPOUND_CANONICALIZED>
1

> <PUBCHEM_CACTVS_COMPLEXITY>
924

> <PUBCHEM_CACTVS_HBOND_ACCEPTOR>
15

> <PUBCHEM_CACTVS_HBOND_DONOR>
8

> <PUBCHEM_CACTVS_ROTATABLE_BOND>
8

> <PUBCHEM_CACTVS_SUBSKEYS>
AAADcfB4PAAAAAAAAAAAAAAAAAAAASAAAAA0aIEAAAAAAACRQAAAGgAACAAADFSwmAMyDoAABgCIAqBSAAACCAAkIAAIiAEGiMgdNzaGNRqieWKl4BUPuQfI7PzOIAABCAAIQABAAAIQABCAAAAAAAAAAA==

> <PUBCHEM_IUPAC_OPENEYE_NAME>
(2S)-2-[4-[3,4-dihydroxy-4-(hydroxymethyl)tetrahydrofuran-2-yl]oxy-3-methoxy-phenyl]-5-hydroxy-7-[3,4,5-trihydroxy-6-(hydroxymethyl)tetrahydropyran-2-yl]oxy-chroman-4-one

> <PUBCHEM_IUPAC_CAS_NAME>
(2S)-2-[4-[[3,4-dihydroxy-4-(hydroxymethyl)-2-oxolanyl]oxy]-3-methoxyphenyl]-5-hydroxy-7-[[3,4,5-trihydroxy-6-(hydroxymethyl)-2-oxanyl]oxy]-3,4-dihydro-2H-1-benzopyran-4-one

> <PUBCHEM_IUPAC_NAME_MARKUP>
(2<I>S</I>)-2-[4-[3,4-dihydroxy-4-(hydroxymethyl)oxolan-2-yl]oxy-3-methoxyphenyl]-5-hydroxy-7-[3,4,5-trihydroxy-6-(hydroxymethyl)oxan-2-yl]oxy-2,3-dihydrochromen-4-one

> <PUBCHEM_IUPAC_NAME>
(2S)-2-[4-[3,4-dihydroxy-4-(hydroxymethyl)oxolan-2-yl]oxy-3-methoxyphenyl]-5-hydroxy-7-[3,4,5-trihydroxy-6-(hydroxymethyl)oxan-2-yl]oxy-2,3-dihydrochromen-4-one

> <PUBCHEM_IUPAC_SYSTEMATIC_NAME>
(2S)-2-[4-[4-(hydroxymethyl)-3,4-bis(oxidanyl)oxolan-2-yl]oxy-3-methoxy-phenyl]-7-[6-(hydroxymethyl)-3,4,5-tris(oxidanyl)oxan-2-yl]oxy-5-oxidanyl-2,3-dihydrochromen-4-one

> <PUBCHEM_IUPAC_TRADITIONAL_NAME>
(2S)-2-[4-(3,4-dihydroxy-4-methylol-tetrahydrofuran-2-yl)oxy-3-methoxy-phenyl]-5-hydroxy-7-(3,4,5-trihydroxy-6-methylol-tetrahydropyran-2-yl)oxy-chroman-4-one

> <PUBCHEM_IUPAC_INCHI>
InChI=1S/C27H32O15/c1-37-17-4-11(2-3-15(17)41-26-24(35)27(36,9-29)10-38-26)16-7-14(31)20-13(30)5-12(6-18(20)40-16)39-25-23(34)22(33)21(32)19(8-28)42-25/h2-6,16,19,21-26,28-30,32-36H,7-10H2,1H3/t16-,19?,21?,22?,23?,24?,25?,26?,27?/m0/s1

> <PUBCHEM_IUPAC_INCHIKEY>
HGMGIRJXPKZTBP-YVQLQRJJSA-N

> <PUBCHEM_XLOGP3_AA>
-0.9

> <PUBCHEM_EXACT_MASS>
596.17412

> <PUBCHEM_MOLECULAR_FORMULA>
C27H32O15

> <PUBCHEM_MOLECULAR_WEIGHT>
596.5

> <PUBCHEM_OPENEYE_CAN_SMILES>
COC1=C(C=CC(=C1)C2CC(=O)C3=C(C=C(C=C3O2)OC4C(C(C(C(O4)CO)O)O)O)O)OC5C(C(CO5)(CO)O)O

> <PUBCHEM_OPENEYE_ISO_SMILES>
COC1=C(C=CC(=C1)[C@@H]2CC(=O)C3=C(C=C(C=C3O2)OC4C(C(C(C(O4)CO)O)O)O)O)OC5C(C(CO5)(CO)O)O

> <PUBCHEM_CACTVS_TPSA>
234

> <PUBCHEM_MONOISOTOPIC_WEIGHT>
596.17412

> <PUBCHEM_TOTAL_CHARGE>
0

> <PUBCHEM_HEAVY_ATOM_COUNT>
42

> <PUBCHEM_ATOM_DEF_STEREO_COUNT>
1

> <PUBCHEM_ATOM_UDEF_STEREO_COUNT>
8

> <PUBCHEM_BOND_DEF_STEREO_COUNT>
0

> <PUBCHEM_BOND_UDEF_STEREO_COUNT>
0

> <PUBCHEM_ISOTOPIC_ATOM_COUNT>
0

> <PUBCHEM_COMPONENT_COUNT>
1

> <PUBCHEM_CACTVS_TAUTO_COUNT>
-1

> <PUBCHEM_COORDINATE_TYPE>
1
5
255

> <PUBCHEM_BONDANNOTATIONS>
21  26  3
27  31  5
28  35  8
28  37  8
29  34  8
29  38  8
16  3  3
31  39  8
31  40  8
32  33  8
32  34  8
33  41  8
35  39  8
37  40  8
38  41  8
22  4  3
24  5  3
17  6  3
18  7  3
19  8  3
20  9  3

$$$$
