12304093
  -OEChem-09152005573D

 51 54  0     1  0  0  0  0  0999 V2000
   -3.3811    0.0785   -0.5720 O   0  0  0  0  0  0  0  0  0  0  0  0
   -2.5735    0.7976    1.4956 O   0  0  0  0  0  0  0  0  0  0  0  0
   -6.5906   -1.7869    1.1847 O   0  0  0  0  0  0  0  0  0  0  0  0
   -5.8482   -2.4537   -1.5283 O   0  0  0  0  0  0  0  0  0  0  0  0
   -4.1999   -1.1313    2.7770 O   0  0  0  0  0  0  0  0  0  0  0  0
   -2.7049   -0.1838   -3.2234 O   0  0  0  0  0  0  0  0  0  0  0  0
    1.9887   -0.0198    0.4600 O   0  0  0  0  0  0  0  0  0  0  0  0
    0.0331    4.3540   -0.2746 O   0  0  0  0  0  0  0  0  0  0  0  0
    2.5421    3.8099   -0.8153 O   0  0  0  0  0  0  0  0  0  0  0  0
    7.2344   -3.5256    0.0407 O   0  0  0  0  0  0  0  0  0  0  0  0
   -5.2562   -1.6988    0.6828 C   0  0  1  0  0  0  0  0  0  0  0  0
   -5.3320   -1.3416   -0.8017 C   0  0  1  0  0  0  0  0  0  0  0  0
   -4.4858   -0.6375    1.4687 C   0  0  2  0  0  0  0  0  0  0  0  0
   -3.9472   -0.9812   -1.3450 C   0  0  1  0  0  0  0  0  0  0  0  0
   -3.1618   -0.2927    0.7869 C   0  0  1  0  0  0  0  0  0  0  0  0
   -4.0145   -0.5083   -2.7938 C   0  0  0  0  0  0  0  0  0  0  0  0
   -1.3775    1.2555    1.0273 C   0  0  0  0  0  0  0  0  0  0  0  0
   -0.2781    0.3986    0.9715 C   0  0  0  0  0  0  0  0  0  0  0  0
   -1.2556    2.5798    0.6041 C   0  0  0  0  0  0  0  0  0  0  0  0
    0.9441    0.8689    0.4907 C   0  0  0  0  0  0  0  0  0  0  0  0
    1.0640    2.1918    0.0686 C   0  0  0  0  0  0  0  0  0  0  0  0
   -0.0343    3.0532    0.1232 C   0  0  0  0  0  0  0  0  0  0  0  0
    2.3647    2.6619   -0.4319 C   0  0  0  0  0  0  0  0  0  0  0  0
    3.2141    0.4177   -0.0194 C   0  0  0  0  0  0  0  0  0  0  0  0
    3.4561    1.6670   -0.4472 C   0  0  0  0  0  0  0  0  0  0  0  0
    4.2684   -0.6162   -0.0030 C   0  0  0  0  0  0  0  0  0  0  0  0
    5.6047   -0.2533    0.1815 C   0  0  0  0  0  0  0  0  0  0  0  0
    3.9339   -1.9620   -0.1726 C   0  0  0  0  0  0  0  0  0  0  0  0
    6.6004   -1.2301    0.1961 C   0  0  0  0  0  0  0  0  0  0  0  0
    4.9296   -2.9388   -0.1578 C   0  0  0  0  0  0  0  0  0  0  0  0
    6.2629   -2.5728    0.0266 C   0  0  0  0  0  0  0  0  0  0  0  0
   -4.8053   -2.6884    0.8267 H   0  0  0  0  0  0  0  0  0  0  0  0
   -6.0299   -0.5067   -0.9405 H   0  0  0  0  0  0  0  0  0  0  0  0
   -5.1008    0.2613    1.5964 H   0  0  0  0  0  0  0  0  0  0  0  0
   -3.2693   -1.8445   -1.3016 H   0  0  0  0  0  0  0  0  0  0  0  0
   -2.4895   -1.1596    0.8323 H   0  0  0  0  0  0  0  0  0  0  0  0
   -4.4120   -1.2836   -3.4550 H   0  0  0  0  0  0  0  0  0  0  0  0
   -4.6312    0.3912   -2.8936 H   0  0  0  0  0  0  0  0  0  0  0  0
   -7.0563   -2.4581    0.6570 H   0  0  0  0  0  0  0  0  0  0  0  0
   -5.2317   -3.1974   -1.4171 H   0  0  0  0  0  0  0  0  0  0  0  0
   -3.6553   -1.9317    2.6852 H   0  0  0  0  0  0  0  0  0  0  0  0
   -2.3593    0.4998   -2.6241 H   0  0  0  0  0  0  0  0  0  0  0  0
   -0.3565   -0.6295    1.3150 H   0  0  0  0  0  0  0  0  0  0  0  0
   -2.1163    3.2428    0.6498 H   0  0  0  0  0  0  0  0  0  0  0  0
    4.4114    2.0029   -0.8328 H   0  0  0  0  0  0  0  0  0  0  0  0
    0.9248    4.5680   -0.5888 H   0  0  0  0  0  0  0  0  0  0  0  0
    5.9062    0.7789    0.3390 H   0  0  0  0  0  0  0  0  0  0  0  0
    2.9040   -2.2747   -0.3268 H   0  0  0  0  0  0  0  0  0  0  0  0
    7.6350   -0.9328    0.3453 H   0  0  0  0  0  0  0  0  0  0  0  0
    4.6609   -3.9830   -0.2924 H   0  0  0  0  0  0  0  0  0  0  0  0
    8.0959   -3.0954    0.1786 H   0  0  0  0  0  0  0  0  0  0  0  0
  1 14  1  0  0  0  0
  1 15  1  0  0  0  0
  2 15  1  0  0  0  0
  2 17  1  0  0  0  0
  3 11  1  0  0  0  0
  3 39  1  0  0  0  0
  4 12  1  0  0  0  0
  4 40  1  0  0  0  0
  5 13  1  0  0  0  0
  5 41  1  0  0  0  0
  6 16  1  0  0  0  0
  6 42  1  0  0  0  0
  7 20  1  0  0  0  0
  7 24  1  0  0  0  0
  8 22  1  0  0  0  0
  8 46  1  0  0  0  0
  9 23  2  0  0  0  0
 10 31  1  0  0  0  0
 10 51  1  0  0  0  0
 11 12  1  0  0  0  0
 11 13  1  0  0  0  0
 11 32  1  0  0  0  0
 12 14  1  0  0  0  0
 12 33  1  0  0  0  0
 13 15  1  0  0  0  0
 13 34  1  0  0  0  0
 14 16  1  0  0  0  0
 14 35  1  0  0  0  0
 15 36  1  0  0  0  0
 16 37  1  0  0  0  0
 16 38  1  0  0  0  0
 17 18  1  0  0  0  0
 17 19  2  0  0  0  0
 18 20  2  0  0  0  0
 18 43  1  0  0  0  0
 19 22  1  0  0  0  0
 19 44  1  0  0  0  0
 20 21  1  0  0  0  0
 21 22  2  0  0  0  0
 21 23  1  0  0  0  0
 23 25  1  0  0  0  0
 24 25  2  0  0  0  0
 24 26  1  0  0  0  0
 25 45  1  0  0  0  0
 26 27  2  0  0  0  0
 26 28  1  0  0  0  0
 27 29  1  0  0  0  0
 27 47  1  0  0  0  0
 28 30  2  0  0  0  0
 28 48  1  0  0  0  0
 29 31  2  0  0  0  0
 29 49  1  0  0  0  0
 30 31  1  0  0  0  0
 30 50  1  0  0  0  0
M  END
> <PUBCHEM_COMPOUND_CID>
12304093

> <PUBCHEM_CONFORMER_RMSD>
0.8

> <PUBCHEM_CONFORMER_DIVERSEORDER>
6
46
143
155
151
123
35
67
102
115
51
25
153
124
47
120
99
113
27
30
131
66
14
118
31
107
20
138
125
156
41
64
75
100
132
43
72
152
23
112
159
18
130
87
148
94
24
60
140
109
147
7
135
111
119
106
158
53
52
85
122
63
79
129
5
55
4
21
71
22
121
69
15
40
160
17
136
32
9
26
70
128
19
157
62
150
65
45
126
101
11
61
103
144
74
96
117
54
76
116
127
77
104
108
73
110
83
93
16
97
80
82
90
84
95
89
37
142
137
98
36
133
1
88
145
10
146
92
2
86
134
29
149
8
78
91
105
59
81
28
68
13
154
3
12
139
56
114
42
44
57
58
141
50
48
49
33
38
39
34

> <PUBCHEM_MMFF94_PARTIAL_CHARGES>
44
1 -0.56
10 -0.53
11 0.28
12 0.28
13 0.28
14 0.28
15 0.56
16 0.28
17 0.08
18 -0.15
19 -0.15
2 -0.36
20 0.08
21 0.09
22 0.08
23 0.47
24 0.05
25 -0.14
26 0.03
27 -0.15
28 -0.15
29 -0.15
3 -0.68
30 -0.15
31 0.08
39 0.4
4 -0.68
40 0.4
41 0.4
42 0.4
43 0.15
44 0.15
45 0.15
46 0.45
47 0.15
48 0.15
49 0.15
5 -0.68
50 0.15
51 0.45
6 -0.68
7 -0.16
8 -0.53
9 -0.57

> <PUBCHEM_EFFECTIVE_ROTOR_COUNT>
5.2

> <PUBCHEM_PHARMACOPHORE_FEATURES>
18
1 1 acceptor
1 10 donor
1 2 acceptor
1 3 acceptor
1 3 donor
1 4 acceptor
1 4 donor
1 5 acceptor
1 5 donor
1 6 acceptor
1 6 donor
1 7 acceptor
1 8 donor
1 9 acceptor
6 1 11 12 13 14 15 rings
6 17 18 19 20 21 22 rings
6 26 27 28 29 30 31 rings
6 7 20 21 23 24 25 rings

> <PUBCHEM_HEAVY_ATOM_COUNT>
31

> <PUBCHEM_ATOM_DEF_STEREO_COUNT>
4

> <PUBCHEM_ATOM_UDEF_STEREO_COUNT>
1

> <PUBCHEM_BOND_DEF_STEREO_COUNT>
0

> <PUBCHEM_BOND_UDEF_STEREO_COUNT>
0

> <PUBCHEM_ISOTOPIC_ATOM_COUNT>
0

> <PUBCHEM_COMPONENT_COUNT>
1

> <PUBCHEM_CACTVS_TAUTO_COUNT>
21

> <PUBCHEM_CONFORMER_ID>
00BBBEDD00000006

> <PUBCHEM_MMFF94_ENERGY>
102.6212

> <PUBCHEM_FEATURE_SELFOVERLAP>
91.444

> <PUBCHEM_SHAPE_FINGERPRINT>
10319926 262 14979687605870073637
10411042 1 18336272262676165248
10622 236 18413666902786346179
10670039 82 14851595579366075687
11135609 149 18338502131991652932
11135926 11 18119820350675179220
11211813 128 18271244925435066602
11227688 84 18118685414262588898
11410812 94 16153982440770940718
11497681 19 18271249327549074790
12107183 9 18269291088344325057
12166972 35 17967820448556758974
12342043 65 17316223581674730499
12422481 6 17203053975989067766
12633257 1 15769772489640475089
13540713 5 18266202598415101368
13583140 156 15338264641809942672
13673619 4 17458921421984587235
13782708 43 17822008774264050771
14429380 30 18336551525839826218
1454969 45 18410578418781845932
14950920 106 16199856315690257458
15183329 4 15719389512824197098
15320294 125 17489871566168275519
1813 80 18200886139935738629
19315092 285 17703788162990195320
20028762 73 18273215279477125334
20775438 99 18049990392664262090
21033650 10 16008744684833725677
22393880 68 17531237383537154795
23522609 53 17913804762336672448
23536364 44 18040989597020538629
23559900 14 18188214311501816008
23569914 152 17977352020843143589
24771750 20 17247818655137736660
25025965 108 18195512706890861722
2838139 119 12685096994687411934
314194 84 18340775943454116872
34797466 226 16516251884967944533
3882209 13 17247768790588724362
4015057 19 18262525912955823113
46194498 28 17314230140611923516
513202 73 18342175510076582895
5937810 71 8933556771772380002
613672 6 18334282172389041232
6431902 208 18338516344344201810
6691757 9 17487626221632836329
6712543 237 15769776814678369910
70251023 43 18407761439061790304
7970288 3 18411702105583532827
86090 222 14383175425083718631
96874 4 18131062762289868615

> <PUBCHEM_SHAPE_MULTIPOLES>
579.27
16.72
4.19
1.82
6.32
2.73
-0.89
-21.03
-0.06
4.27
-0.53
-4.32
-0.6
-0.77

> <PUBCHEM_SHAPE_SELFOVERLAP>
1270.762

> <PUBCHEM_SHAPE_VOLUME>
309.7

> <PUBCHEM_COORDINATE_TYPE>
2
5
10

$$$$
