5489090
  -OEChem-09152006013D

 63 66  0     1  0  0  0  0  0999 V2000
   -3.8066   -0.4291   -0.5897 O   0  0  0  0  0  0  0  0  0  0  0  0
   -3.1646    0.3643    1.5085 O   0  0  0  0  0  0  0  0  0  0  0  0
   -6.8668   -2.6331    1.0365 O   0  0  0  0  0  0  0  0  0  0  0  0
   -5.9485   -3.2066   -1.6438 O   0  0  0  0  0  0  0  0  0  0  0  0
   -4.6261   -1.7322    2.7240 O   0  0  0  0  0  0  0  0  0  0  0  0
   -2.9998   -0.6078   -3.2114 O   0  0  0  0  0  0  0  0  0  0  0  0
    1.4894    0.0090    0.6708 O   0  0  0  0  0  0  0  0  0  0  0  0
   -3.1527    3.0028    0.6754 O   0  0  0  0  0  0  0  0  0  0  0  0
   -0.8362    4.1721   -0.1639 O   0  0  0  0  0  0  0  0  0  0  0  0
    4.0364    2.3490   -0.6038 O   0  0  0  0  0  0  0  0  0  0  0  0
    1.7109    3.8745   -0.5991 O   0  0  0  0  0  0  0  0  0  0  0  0
    6.9959   -3.0440    0.5188 O   0  0  0  0  0  0  0  0  0  0  0  0
    5.4550   -2.8721   -1.7873 O   0  0  0  0  0  0  0  0  0  0  0  0
   -5.5303   -2.4012    0.5890 C   0  0  1  0  0  0  0  0  0  0  0  0
   -5.5838   -2.0485   -0.8975 C   0  0  1  0  0  0  0  0  0  0  0  0
   -4.9101   -1.2667    1.4049 C   0  0  2  0  0  0  0  0  0  0  0  0
   -4.2247   -1.5403   -1.3845 C   0  0  1  0  0  0  0  0  0  0  0  0
   -3.6040   -0.7800    0.7772 C   0  0  1  0  0  0  0  0  0  0  0  0
   -4.2836   -1.0719   -2.8350 C   0  0  0  0  0  0  0  0  0  0  0  0
   -2.0058    0.9493    1.0887 C   0  0  0  0  0  0  0  0  0  0  0  0
   -1.9948    2.2798    0.6681 C   0  0  0  0  0  0  0  0  0  0  0  0
   -0.8267    0.2039    1.0827 C   0  0  0  0  0  0  0  0  0  0  0  0
    0.3642    0.7920    0.6553 C   0  0  0  0  0  0  0  0  0  0  0  0
    0.3737    2.1204    0.2356 C   0  0  0  0  0  0  0  0  0  0  0  0
   -0.8051    2.8703    0.2399 C   0  0  0  0  0  0  0  0  0  0  0  0
    1.6420    2.7155   -0.2126 C   0  0  0  0  0  0  0  0  0  0  0  0
    2.6898    0.5683    0.2624 C   0  0  0  0  0  0  0  0  0  0  0  0
    2.8332    1.8333   -0.1731 C   0  0  0  0  0  0  0  0  0  0  0  0
    3.8166   -0.3793    0.3266 C   0  0  0  0  0  0  0  0  0  0  0  0
   -3.9421    2.9709   -0.5111 C   0  0  0  0  0  0  0  0  0  0  0  0
    4.1111   -1.1890   -0.7707 C   0  0  0  0  0  0  0  0  0  0  0  0
    4.5897   -0.4671    1.4846 C   0  0  0  0  0  0  0  0  0  0  0  0
    5.1780   -2.0857   -0.7102 C   0  0  0  0  0  0  0  0  0  0  0  0
    5.6564   -1.3640    1.5453 C   0  0  0  0  0  0  0  0  0  0  0  0
    5.9506   -2.1732    0.4479 C   0  0  0  0  0  0  0  0  0  0  0  0
    3.9478    2.7774   -1.9493 C   0  0  0  0  0  0  0  0  0  0  0  0
    8.2713   -2.5610    0.1011 C   0  0  0  0  0  0  0  0  0  0  0  0
   -4.9824   -3.3376    0.7516 H   0  0  0  0  0  0  0  0  0  0  0  0
   -6.3606   -1.2924   -1.0649 H   0  0  0  0  0  0  0  0  0  0  0  0
   -5.6220   -0.4389    1.5069 H   0  0  0  0  0  0  0  0  0  0  0  0
   -3.4607   -2.3265   -1.3131 H   0  0  0  0  0  0  0  0  0  0  0  0
   -2.8465   -1.5712    0.8501 H   0  0  0  0  0  0  0  0  0  0  0  0
   -4.9879   -0.2428   -2.9599 H   0  0  0  0  0  0  0  0  0  0  0  0
   -4.5690   -1.8825   -3.5114 H   0  0  0  0  0  0  0  0  0  0  0  0
   -7.2365   -3.3482    0.4906 H   0  0  0  0  0  0  0  0  0  0  0  0
   -5.2610   -3.8807   -1.5073 H   0  0  0  0  0  0  0  0  0  0  0  0
   -3.9959   -2.4695    2.6548 H   0  0  0  0  0  0  0  0  0  0  0  0
   -2.7553    0.1086   -2.6006 H   0  0  0  0  0  0  0  0  0  0  0  0
   -0.8179   -0.8273    1.4257 H   0  0  0  0  0  0  0  0  0  0  0  0
    0.0452    4.4693   -0.4355 H   0  0  0  0  0  0  0  0  0  0  0  0
   -4.5234    3.8958   -0.5595 H   0  0  0  0  0  0  0  0  0  0  0  0
   -4.6370    2.1281   -0.4676 H   0  0  0  0  0  0  0  0  0  0  0  0
   -3.3240    2.8996   -1.4125 H   0  0  0  0  0  0  0  0  0  0  0  0
    3.5135   -1.1274   -1.6776 H   0  0  0  0  0  0  0  0  0  0  0  0
    4.3723    0.1568    2.3482 H   0  0  0  0  0  0  0  0  0  0  0  0
    6.2536   -1.4272    2.4509 H   0  0  0  0  0  0  0  0  0  0  0  0
    4.9464    2.6906   -2.3902 H   0  0  0  0  0  0  0  0  0  0  0  0
    3.2712    2.1621   -2.5551 H   0  0  0  0  0  0  0  0  0  0  0  0
    3.6660    3.8326   -2.0079 H   0  0  0  0  0  0  0  0  0  0  0  0
    6.1966   -3.4588   -1.5594 H   0  0  0  0  0  0  0  0  0  0  0  0
    8.6006   -1.7435    0.7503 H   0  0  0  0  0  0  0  0  0  0  0  0
    8.2377   -2.2232   -0.9395 H   0  0  0  0  0  0  0  0  0  0  0  0
    8.9904   -3.3810    0.1795 H   0  0  0  0  0  0  0  0  0  0  0  0
  1 17  1  0  0  0  0
  1 18  1  0  0  0  0
  2 18  1  0  0  0  0
  2 20  1  0  0  0  0
  3 14  1  0  0  0  0
  3 45  1  0  0  0  0
  4 15  1  0  0  0  0
  4 46  1  0  0  0  0
  5 16  1  0  0  0  0
  5 47  1  0  0  0  0
  6 19  1  0  0  0  0
  6 48  1  0  0  0  0
  7 23  1  0  0  0  0
  7 27  1  0  0  0  0
  8 21  1  0  0  0  0
  8 30  1  0  0  0  0
  9 25  1  0  0  0  0
  9 50  1  0  0  0  0
 10 28  1  0  0  0  0
 10 36  1  0  0  0  0
 11 26  2  0  0  0  0
 12 35  1  0  0  0  0
 12 37  1  0  0  0  0
 13 33  1  0  0  0  0
 13 60  1  0  0  0  0
 14 15  1  0  0  0  0
 14 16  1  0  0  0  0
 14 38  1  0  0  0  0
 15 17  1  0  0  0  0
 15 39  1  0  0  0  0
 16 18  1  0  0  0  0
 16 40  1  0  0  0  0
 17 19  1  0  0  0  0
 17 41  1  0  0  0  0
 18 42  1  0  0  0  0
 19 43  1  0  0  0  0
 19 44  1  0  0  0  0
 20 21  2  0  0  0  0
 20 22  1  0  0  0  0
 21 25  1  0  0  0  0
 22 23  2  0  0  0  0
 22 49  1  0  0  0  0
 23 24  1  0  0  0  0
 24 25  2  0  0  0  0
 24 26  1  0  0  0  0
 26 28  1  0  0  0  0
 27 28  2  0  0  0  0
 27 29  1  0  0  0  0
 29 31  2  0  0  0  0
 29 32  1  0  0  0  0
 30 51  1  0  0  0  0
 30 52  1  0  0  0  0
 30 53  1  0  0  0  0
 31 33  1  0  0  0  0
 31 54  1  0  0  0  0
 32 34  2  0  0  0  0
 32 55  1  0  0  0  0
 33 35  2  0  0  0  0
 34 35  1  0  0  0  0
 34 56  1  0  0  0  0
 36 57  1  0  0  0  0
 36 58  1  0  0  0  0
 36 59  1  0  0  0  0
 37 61  1  0  0  0  0
 37 62  1  0  0  0  0
 37 63  1  0  0  0  0
M  END
> <PUBCHEM_COMPOUND_CID>
5489090

> <PUBCHEM_CONFORMER_RMSD>
1

> <PUBCHEM_CONFORMER_DIVERSEORDER>
1
118
90
129
69
7
59
62
128
105
124
56
25
83
111
133
93
75
122
60
26
16
94
110
98
95
73
96
108
32
68
28
30
97
63
9
76
88
85
72
24
12
89
53
82
44
107
45
49
127
21
38
67
92
23
27
41
6
132
121
100
57
18
130
54
19
2
47
64
8
31
40
79
84
116
65
46
48
109
3
81
55
74
86
4
50
114
117
33
52
43
61
77
39
80
99
15
115
131
5
58
35
104
70
101
71
120
126
78
103
91
134
17
66
123
10
113
42
20
36
51
112
87
125
119
11
34
13
37
106
22
102
14
29

> <PUBCHEM_MMFF94_PARTIAL_CHARGES>
47
1 -0.56
10 -0.36
11 -0.57
12 -0.36
13 -0.53
14 0.28
15 0.28
16 0.28
17 0.28
18 0.56
19 0.28
2 -0.36
20 0.08
21 0.08
22 -0.15
23 0.08
24 0.09
25 0.08
26 0.47
27 0.05
28 0.09
29 0.03
3 -0.68
30 0.28
31 -0.15
32 -0.15
33 0.08
34 -0.15
35 0.08
36 0.28
37 0.28
4 -0.68
45 0.4
46 0.4
47 0.4
48 0.4
49 0.15
5 -0.68
50 0.45
54 0.15
55 0.15
56 0.15
6 -0.68
60 0.45
7 -0.16
8 -0.36
9 -0.53

> <PUBCHEM_EFFECTIVE_ROTOR_COUNT>
8.2

> <PUBCHEM_PHARMACOPHORE_FEATURES>
21
1 1 acceptor
1 10 acceptor
1 11 acceptor
1 12 acceptor
1 13 donor
1 2 acceptor
1 3 acceptor
1 3 donor
1 4 acceptor
1 4 donor
1 5 acceptor
1 5 donor
1 6 acceptor
1 6 donor
1 7 acceptor
1 8 acceptor
1 9 donor
6 1 14 15 16 17 18 rings
6 20 21 22 23 24 25 rings
6 29 31 32 33 34 35 rings
6 7 23 24 26 27 28 rings

> <PUBCHEM_HEAVY_ATOM_COUNT>
37

> <PUBCHEM_ATOM_DEF_STEREO_COUNT>
5

> <PUBCHEM_ATOM_UDEF_STEREO_COUNT>
0

> <PUBCHEM_BOND_DEF_STEREO_COUNT>
0

> <PUBCHEM_BOND_UDEF_STEREO_COUNT>
0

> <PUBCHEM_ISOTOPIC_ATOM_COUNT>
0

> <PUBCHEM_COMPONENT_COUNT>
1

> <PUBCHEM_CACTVS_TAUTO_COUNT>
14

> <PUBCHEM_CONFORMER_ID>
0053C1C200000001

> <PUBCHEM_MMFF94_ENERGY>
148.5407

> <PUBCHEM_FEATURE_SELFOVERLAP>
106.688

> <PUBCHEM_SHAPE_FINGERPRINT>
10050765 1 18408046208073201568
10622 236 18411132541358609896
11093857 51 17465398795055652468
11135926 11 18120378919524484260
12166972 35 17967254221153023999
12422481 6 17489596636204758895
13540713 5 18336848432196772784
13782708 43 17750508645712243299
14114206 34 17240769415377015488
14347332 77 18411423916541185417
15320294 125 17489593406985568519
15361156 5 18189351095235756672
17492 89 18409732880363349792
17686467 74 18410567376415250944
18393751 57 17695048295660218352
19301679 30 18342188782248357011
19303781 99 18409720773077850302
19315092 285 17989203776616395256
19958102 18 17240758519234630115
20691028 202 8790892899477541163
20775438 99 18048307044736212946
208703 8 18409728465052716354
21033650 10 15502646088296692957
21703447 108 18336253639603362496
23536364 44 18114449103270990579
23559900 14 18335700495297927264
23569914 152 18121748709739340855
23569914 2 13335867269770947438
24771750 20 16887528533327613653
249057 3 18263924337386792717
34797466 226 16516807155656873639
397830 11 17845354623589940250
44062 13 18336548209740042641
46194498 28 17024870605079386269
50009960 94 18115567272622284474
513202 73 18412546505476518743
5937810 71 8501501482751204986
6034566 193 9511457844739730705
6058803 2 18265920036616752192
6691757 9 17844250614678393841
7970288 3 18270676610139058279

> <PUBCHEM_SHAPE_MULTIPOLES>
685.14
18.19
4.88
2.03
11.73
2.79
-1.03
-23.81
-0.45
0.26
-1
-2.37
-1.06
-1.21

> <PUBCHEM_SHAPE_SELFOVERLAP>
1489.981

> <PUBCHEM_SHAPE_VOLUME>
371.3

> <PUBCHEM_COORDINATE_TYPE>
2
5
10

$$$$
