24205
  -OEChem-09152014373D

 82 82  0     1  0  0  0  0  0999 V2000
   -0.9786    1.8810    0.7278 O   0  0  0  0  0  0  0  0  0  0  0  0
    2.8540   -1.6169    0.1056 O   0  0  0  0  0  0  0  0  0  0  0  0
    6.7444    1.8155   -1.0486 O   0  0  0  0  0  0  0  0  0  0  0  0
   -1.4950   -3.4566    1.3243 C   0  0  1  0  0  0  0  0  0  0  0  0
   -1.2268   -2.1888    2.1626 C   0  0  0  0  0  0  0  0  0  0  0  0
   -2.2897   -3.2103    0.0249 C   0  0  0  0  0  0  0  0  0  0  0  0
    0.0929    1.4713    1.5945 C   0  0  1  0  0  0  0  0  0  0  0  0
   -0.6743   -0.9929    1.3778 C   0  0  0  0  0  0  0  0  0  0  0  0
   -3.6520   -2.5507    0.2607 C   0  0  0  0  0  0  0  0  0  0  0  0
   -0.3722    0.1866    2.3144 C   0  0  0  0  0  0  0  0  0  0  0  0
   -5.8837   -1.7733   -0.8410 C   0  0  1  0  0  0  0  0  0  0  0  0
   -4.4774   -2.3806   -1.0207 C   0  0  0  0  0  0  0  0  0  0  0  0
   -5.9001   -0.3971   -0.1439 C   0  0  0  0  0  0  0  0  0  0  0  0
    1.3435    1.2853    0.7017 C   0  0  0  0  0  0  0  0  0  0  0  0
   -0.1928   -4.1968    1.0010 C   0  0  0  0  0  0  0  0  0  0  0  0
   -5.2700    0.7503   -0.9430 C   0  0  0  0  0  0  0  0  0  0  0  0
    0.2687    2.5928    2.6255 C   0  0  0  0  0  0  0  0  0  0  0  0
   -6.5972   -1.7200   -2.1970 C   0  0  0  0  0  0  0  0  0  0  0  0
    2.6344    0.8101    1.3770 C   0  0  0  0  0  0  0  0  0  0  0  0
   -5.3919    2.0751   -0.1796 C   0  0  0  0  0  0  0  0  0  0  0  0
   -4.7441    3.2936   -0.8641 C   0  0  0  0  0  0  0  0  0  0  0  0
    3.7598    0.5433    0.4373 C   0  0  0  0  0  0  0  0  0  0  0  0
   -5.3480    3.5810   -2.2384 C   0  0  0  0  0  0  0  0  0  0  0  0
   -4.7893    4.5449    0.0129 C   0  0  0  0  0  0  0  0  0  0  0  0
    4.7288    1.4195    0.1252 C   0  0  0  0  0  0  0  0  0  0  0  0
    3.7592   -0.8258   -0.1541 C   0  0  0  0  0  0  0  0  0  0  0  0
    4.8651   -1.2176   -1.0744 C   0  0  0  0  0  0  0  0  0  0  0  0
    5.8365    1.0263   -0.7927 C   0  0  0  0  0  0  0  0  0  0  0  0
    5.8339   -0.3414   -1.3868 C   0  0  0  0  0  0  0  0  0  0  0  0
    4.8054    2.8385    0.6231 C   0  0  0  0  0  0  0  0  0  0  0  0
    4.7874   -2.6360   -1.5738 C   0  0  0  0  0  0  0  0  0  0  0  0
    6.9692   -0.6103   -2.3382 C   0  0  0  0  0  0  0  0  0  0  0  0
   -2.0889   -4.1324    1.9550 H   0  0  0  0  0  0  0  0  0  0  0  0
   -0.5385   -2.4393    2.9802 H   0  0  0  0  0  0  0  0  0  0  0  0
   -2.1642   -1.8852    2.6461 H   0  0  0  0  0  0  0  0  0  0  0  0
   -1.7017   -2.6031   -0.6739 H   0  0  0  0  0  0  0  0  0  0  0  0
   -2.4526   -4.1748   -0.4737 H   0  0  0  0  0  0  0  0  0  0  0  0
   -1.3889   -0.6727    0.6140 H   0  0  0  0  0  0  0  0  0  0  0  0
    0.2408   -1.2956    0.8612 H   0  0  0  0  0  0  0  0  0  0  0  0
   -4.2259   -3.1544    0.9743 H   0  0  0  0  0  0  0  0  0  0  0  0
   -3.5055   -1.5695    0.7202 H   0  0  0  0  0  0  0  0  0  0  0  0
   -1.2936    0.4123    2.8687 H   0  0  0  0  0  0  0  0  0  0  0  0
    0.3743   -0.1197    3.0572 H   0  0  0  0  0  0  0  0  0  0  0  0
   -6.4544   -2.4581   -0.1990 H   0  0  0  0  0  0  0  0  0  0  0  0
   -3.9029   -1.7687   -1.7278 H   0  0  0  0  0  0  0  0  0  0  0  0
   -4.5847   -3.3663   -1.4926 H   0  0  0  0  0  0  0  0  0  0  0  0
   -5.4217   -0.4702    0.8392 H   0  0  0  0  0  0  0  0  0  0  0  0
   -6.9481   -0.1375    0.0597 H   0  0  0  0  0  0  0  0  0  0  0  0
    1.5490    2.2406    0.1968 H   0  0  0  0  0  0  0  0  0  0  0  0
    1.0884    0.6059   -0.1229 H   0  0  0  0  0  0  0  0  0  0  0  0
    0.3684   -4.4172    1.9151 H   0  0  0  0  0  0  0  0  0  0  0  0
   -0.4025   -5.1496    0.5032 H   0  0  0  0  0  0  0  0  0  0  0  0
    0.4512   -3.6081    0.3399 H   0  0  0  0  0  0  0  0  0  0  0  0
   -5.7723    0.8453   -1.9097 H   0  0  0  0  0  0  0  0  0  0  0  0
   -4.2127    0.5380   -1.1359 H   0  0  0  0  0  0  0  0  0  0  0  0
   -0.6759    2.8033    3.1403 H   0  0  0  0  0  0  0  0  0  0  0  0
    0.5688    3.5272    2.1376 H   0  0  0  0  0  0  0  0  0  0  0  0
    1.0223    2.3388    3.3772 H   0  0  0  0  0  0  0  0  0  0  0  0
   -6.7416   -2.7321   -2.5908 H   0  0  0  0  0  0  0  0  0  0  0  0
   -7.5857   -1.2585   -2.1021 H   0  0  0  0  0  0  0  0  0  0  0  0
   -6.0230   -1.1591   -2.9412 H   0  0  0  0  0  0  0  0  0  0  0  0
    2.9342    1.5436    2.1341 H   0  0  0  0  0  0  0  0  0  0  0  0
    2.4313   -0.0932    1.9652 H   0  0  0  0  0  0  0  0  0  0  0  0
   -6.4537    2.2893   -0.0009 H   0  0  0  0  0  0  0  0  0  0  0  0
   -4.9320    1.9497    0.8096 H   0  0  0  0  0  0  0  0  0  0  0  0
   -3.6832    3.0555   -1.0206 H   0  0  0  0  0  0  0  0  0  0  0  0
   -0.7175    2.7134    0.2983 H   0  0  0  0  0  0  0  0  0  0  0  0
   -5.1686    2.7575   -2.9359 H   0  0  0  0  0  0  0  0  0  0  0  0
   -4.9009    4.4786   -2.6795 H   0  0  0  0  0  0  0  0  0  0  0  0
   -6.4290    3.7425   -2.1683 H   0  0  0  0  0  0  0  0  0  0  0  0
   -4.2687    5.3798   -0.4679 H   0  0  0  0  0  0  0  0  0  0  0  0
   -4.3050    4.3600    0.9774 H   0  0  0  0  0  0  0  0  0  0  0  0
   -5.8223    4.8531    0.2056 H   0  0  0  0  0  0  0  0  0  0  0  0
    4.9555    3.5302   -0.2134 H   0  0  0  0  0  0  0  0  0  0  0  0
    3.8973    3.1695    1.1329 H   0  0  0  0  0  0  0  0  0  0  0  0
    5.6431    2.9496    1.3194 H   0  0  0  0  0  0  0  0  0  0  0  0
    4.5724   -3.3239   -0.7482 H   0  0  0  0  0  0  0  0  0  0  0  0
    5.7175   -2.9912   -2.0228 H   0  0  0  0  0  0  0  0  0  0  0  0
    3.9900   -2.7305   -2.3181 H   0  0  0  0  0  0  0  0  0  0  0  0
    7.0925    0.2250   -3.0368 H   0  0  0  0  0  0  0  0  0  0  0  0
    6.8171   -1.4965   -2.9582 H   0  0  0  0  0  0  0  0  0  0  0  0
    7.9043   -0.7372   -1.7832 H   0  0  0  0  0  0  0  0  0  0  0  0
  1  7  1  0  0  0  0
  1 67  1  0  0  0  0
  2 26  2  0  0  0  0
  3 28  2  0  0  0  0
  4  5  1  0  0  0  0
  4  6  1  0  0  0  0
  4 15  1  0  0  0  0
  4 33  1  0  0  0  0
  5  8  1  0  0  0  0
  5 34  1  0  0  0  0
  5 35  1  0  0  0  0
  6  9  1  0  0  0  0
  6 36  1  0  0  0  0
  6 37  1  0  0  0  0
  7 10  1  0  0  0  0
  7 14  1  0  0  0  0
  7 17  1  0  0  0  0
  8 10  1  0  0  0  0
  8 38  1  0  0  0  0
  8 39  1  0  0  0  0
  9 12  1  0  0  0  0
  9 40  1  0  0  0  0
  9 41  1  0  0  0  0
 10 42  1  0  0  0  0
 10 43  1  0  0  0  0
 11 12  1  0  0  0  0
 11 13  1  0  0  0  0
 11 18  1  0  0  0  0
 11 44  1  0  0  0  0
 12 45  1  0  0  0  0
 12 46  1  0  0  0  0
 13 16  1  0  0  0  0
 13 47  1  0  0  0  0
 13 48  1  0  0  0  0
 14 19  1  0  0  0  0
 14 49  1  0  0  0  0
 14 50  1  0  0  0  0
 15 51  1  0  0  0  0
 15 52  1  0  0  0  0
 15 53  1  0  0  0  0
 16 20  1  0  0  0  0
 16 54  1  0  0  0  0
 16 55  1  0  0  0  0
 17 56  1  0  0  0  0
 17 57  1  0  0  0  0
 17 58  1  0  0  0  0
 18 59  1  0  0  0  0
 18 60  1  0  0  0  0
 18 61  1  0  0  0  0
 19 22  1  0  0  0  0
 19 62  1  0  0  0  0
 19 63  1  0  0  0  0
 20 21  1  0  0  0  0
 20 64  1  0  0  0  0
 20 65  1  0  0  0  0
 21 23  1  0  0  0  0
 21 24  1  0  0  0  0
 21 66  1  0  0  0  0
 22 25  2  0  0  0  0
 22 26  1  0  0  0  0
 23 68  1  0  0  0  0
 23 69  1  0  0  0  0
 23 70  1  0  0  0  0
 24 71  1  0  0  0  0
 24 72  1  0  0  0  0
 24 73  1  0  0  0  0
 25 28  1  0  0  0  0
 25 30  1  0  0  0  0
 26 27  1  0  0  0  0
 27 29  2  0  0  0  0
 27 31  1  0  0  0  0
 28 29  1  0  0  0  0
 29 32  1  0  0  0  0
 30 74  1  0  0  0  0
 30 75  1  0  0  0  0
 30 76  1  0  0  0  0
 31 77  1  0  0  0  0
 31 78  1  0  0  0  0
 31 79  1  0  0  0  0
 32 80  1  0  0  0  0
 32 81  1  0  0  0  0
 32 82  1  0  0  0  0
M  END
> <PUBCHEM_COMPOUND_CID>
24205

> <PUBCHEM_CONFORMER_RMSD>
1.8

> <PUBCHEM_CONFORMER_DIVERSEORDER>
1
36
67
58
108
9
60
100
94
51
14
72
21
48
26
41
35
27
45
61
71
86
85
73
25
88
39
103
32
8
99
80
30
78
49
24
7
57
64
93
42
96
68
6
33
102
23
91
44
16
3
34
52
62
43
104
10
97
76
89
70
11
77
79
31
59
37
90
75
87
53
19
55
4
50
5
95
66
54
63
105
17
98
106
74
81
65
40
107
18
29
56
92
15
69
82
84
28
22
101
47
13
20
38
83
2
12
46

> <PUBCHEM_MMFF94_PARTIAL_CHARGES>
15
1 -0.68
19 0.14
2 -0.57
22 -0.12
25 -0.12
26 0.54
27 -0.12
28 0.54
29 -0.12
3 -0.57
30 0.14
31 0.14
32 0.14
67 0.4
7 0.28

> <PUBCHEM_EFFECTIVE_ROTOR_COUNT>
15

> <PUBCHEM_PHARMACOPHORE_FEATURES>
8
1 1 acceptor
1 1 donor
1 15 hydrophobe
1 18 hydrophobe
1 2 acceptor
1 3 acceptor
3 21 23 24 hydrophobe
6 22 25 26 27 28 29 rings

> <PUBCHEM_HEAVY_ATOM_COUNT>
32

> <PUBCHEM_ATOM_DEF_STEREO_COUNT>
0

> <PUBCHEM_ATOM_UDEF_STEREO_COUNT>
3

> <PUBCHEM_BOND_DEF_STEREO_COUNT>
0

> <PUBCHEM_BOND_UDEF_STEREO_COUNT>
0

> <PUBCHEM_ISOTOPIC_ATOM_COUNT>
0

> <PUBCHEM_COMPONENT_COUNT>
1

> <PUBCHEM_CACTVS_TAUTO_COUNT>
39

> <PUBCHEM_CONFORMER_ID>
00005E8D00000001

> <PUBCHEM_MMFF94_ENERGY>
52.6311

> <PUBCHEM_FEATURE_SELFOVERLAP>
40.597

> <PUBCHEM_SHAPE_FINGERPRINT>
10429389 16 18413109480708977423
10670039 82 18335127718674635677
11170278 133 17975686200081029565
11211813 163 18335420127862699922
12128747 34 18342171206693412957
12166972 35 16127812010455371867
14340393 91 18060425677139521422
14931854 50 18341037589395107247
15082195 135 18265905842324319124
15183329 4 18341047501589107379
16992727 255 18337393716832764477
17852330 28 14039038688026768037
19958102 18 18409166640422645067
20771845 165 17908696581399905825
20775438 99 18057016130390208632
21033650 10 17895197769803237506
22122407 14 14779534674462244607
23536364 44 18201999907108128587
3882209 13 18123744254578206898
4173938 306 18201988959384171498
437795 70 18340200895063086619
46194498 28 17613441464007861922
4756261 7 8645327433957436659
50677037 204 18114179787157681525
5283173 99 18409449210584088562

> <PUBCHEM_SHAPE_MULTIPOLES>
640.94
18.96
5.5
2.32
4.48
0.8
0.22
5.49
-16.26
-7.88
0.26
0.16
0.11
2.32

> <PUBCHEM_SHAPE_SELFOVERLAP>
1254.49

> <PUBCHEM_SHAPE_VOLUME>
387.2

> <PUBCHEM_COORDINATE_TYPE>
2
5
10

$$$$
