91746617
  -OEChem-09152011333D

 42 44  0     1  0  0  0  0  0999 V2000
   -2.1803    2.1076    0.8182 O   0  0  0  0  0  0  0  0  0  0  0  0
    0.4279    0.5900   -0.5011 C   0  0  2  0  0  0  0  0  0  0  0  0
   -0.3840    0.4685    0.7799 C   0  0  2  0  0  0  0  0  0  0  0  0
   -0.1681   -0.6984   -1.1992 C   0  0  1  0  0  0  0  0  0  0  0  0
    0.0809   -0.9930    1.1690 C   0  0  1  0  0  0  0  0  0  0  0  0
    0.2292   -1.7926   -0.1886 C   0  0  1  0  0  0  0  0  0  0  0  0
    1.9727    0.6650   -0.2410 C   0  0  0  0  0  0  0  0  0  0  0  0
   -1.8993    0.7571    0.3900 C   0  0  2  0  0  0  0  0  0  0  0  0
    1.4703   -0.8589    1.8125 C   0  0  0  0  0  0  0  0  0  0  0  0
   -1.2991   -0.1401   -2.0746 C   0  0  0  0  0  0  0  0  0  0  0  0
    2.5179   -0.3359    0.8199 C   0  0  0  0  0  0  0  0  0  0  0  0
   -2.2217    0.7639   -1.1749 C   0  0  0  0  0  0  0  0  0  0  0  0
   -0.7073   -2.9886   -0.2779 C   0  0  0  0  0  0  0  0  0  0  0  0
    2.7549    0.4917   -1.5581 C   0  0  0  0  0  0  0  0  0  0  0  0
    2.2916    2.0946    0.2775 C   0  0  0  0  0  0  0  0  0  0  0  0
   -2.8856   -0.1309    1.1484 C   0  0  0  0  0  0  0  0  0  0  0  0
    0.1712    1.5007   -1.0588 H   0  0  0  0  0  0  0  0  0  0  0  0
   -0.0831    1.1860    1.5509 H   0  0  0  0  0  0  0  0  0  0  0  0
    0.5202   -0.9630   -2.0177 H   0  0  0  0  0  0  0  0  0  0  0  0
   -0.6080   -1.4680    1.8735 H   0  0  0  0  0  0  0  0  0  0  0  0
    1.2422   -2.1672   -0.3574 H   0  0  0  0  0  0  0  0  0  0  0  0
    1.7979   -1.8305    2.2015 H   0  0  0  0  0  0  0  0  0  0  0  0
    1.4132   -0.1828    2.6743 H   0  0  0  0  0  0  0  0  0  0  0  0
   -1.8855   -0.9667   -2.4897 H   0  0  0  0  0  0  0  0  0  0  0  0
   -0.9176    0.4519   -2.9155 H   0  0  0  0  0  0  0  0  0  0  0  0
    3.3534    0.0999    1.3832 H   0  0  0  0  0  0  0  0  0  0  0  0
    2.9661   -1.1996    0.3118 H   0  0  0  0  0  0  0  0  0  0  0  0
   -2.1383    1.7929   -1.5521 H   0  0  0  0  0  0  0  0  0  0  0  0
   -3.2697    0.4875   -1.3456 H   0  0  0  0  0  0  0  0  0  0  0  0
   -1.7585   -2.7004   -0.2142 H   0  0  0  0  0  0  0  0  0  0  0  0
   -0.4994   -3.7007    0.5271 H   0  0  0  0  0  0  0  0  0  0  0  0
   -0.5689   -3.5077   -1.2324 H   0  0  0  0  0  0  0  0  0  0  0  0
    2.6705   -0.5262   -1.9512 H   0  0  0  0  0  0  0  0  0  0  0  0
    3.3719    2.2423    0.3937 H   0  0  0  0  0  0  0  0  0  0  0  0
    1.8323    2.2867    1.2523 H   0  0  0  0  0  0  0  0  0  0  0  0
    3.8232    0.6896   -1.4117 H   0  0  0  0  0  0  0  0  0  0  0  0
    2.3912    1.1816   -2.3277 H   0  0  0  0  0  0  0  0  0  0  0  0
    1.9334    2.8603   -0.4200 H   0  0  0  0  0  0  0  0  0  0  0  0
   -2.7015   -0.0785    2.2275 H   0  0  0  0  0  0  0  0  0  0  0  0
   -2.8321   -1.1735    0.8352 H   0  0  0  0  0  0  0  0  0  0  0  0
   -3.9169    0.2102    0.9996 H   0  0  0  0  0  0  0  0  0  0  0  0
   -3.1035    2.3107    0.5892 H   0  0  0  0  0  0  0  0  0  0  0  0
  1  8  1  0  0  0  0
  1 42  1  0  0  0  0
  2  3  1  0  0  0  0
  2  4  1  0  0  0  0
  2  7  1  0  0  0  0
  2 17  1  0  0  0  0
  3  5  1  0  0  0  0
  3  8  1  0  0  0  0
  3 18  1  0  0  0  0
  4  6  1  0  0  0  0
  4 10  1  0  0  0  0
  4 19  1  0  0  0  0
  5  6  1  0  0  0  0
  5  9  1  0  0  0  0
  5 20  1  0  0  0  0
  6 13  1  0  0  0  0
  6 21  1  0  0  0  0
  7 11  1  0  0  0  0
  7 14  1  0  0  0  0
  7 15  1  0  0  0  0
  8 12  1  0  0  0  0
  8 16  1  0  0  0  0
  9 11  1  0  0  0  0
  9 22  1  0  0  0  0
  9 23  1  0  0  0  0
 10 12  1  0  0  0  0
 10 24  1  0  0  0  0
 10 25  1  0  0  0  0
 11 26  1  0  0  0  0
 11 27  1  0  0  0  0
 12 28  1  0  0  0  0
 12 29  1  0  0  0  0
 13 30  1  0  0  0  0
 13 31  1  0  0  0  0
 13 32  1  0  0  0  0
 14 33  1  0  0  0  0
 14 36  1  0  0  0  0
 14 37  1  0  0  0  0
 15 34  1  0  0  0  0
 15 35  1  0  0  0  0
 15 38  1  0  0  0  0
 16 39  1  0  0  0  0
 16 40  1  0  0  0  0
 16 41  1  0  0  0  0
M  END
> <PUBCHEM_COMPOUND_CID>
91746617

> <PUBCHEM_CONFORMER_RMSD>
0.6

> <PUBCHEM_CONFORMER_DIVERSEORDER>
1

> <PUBCHEM_MMFF94_PARTIAL_CHARGES>
3
1 -0.68
42 0.4
8 0.28

> <PUBCHEM_EFFECTIVE_ROTOR_COUNT>
1.4

> <PUBCHEM_PHARMACOPHORE_FEATURES>
5
1 1 acceptor
1 1 donor
3 7 14 15 hydrophobe
8 2 3 4 5 6 7 9 11 rings
8 2 3 4 5 6 8 10 12 rings

> <PUBCHEM_HEAVY_ATOM_COUNT>
16

> <PUBCHEM_ATOM_DEF_STEREO_COUNT>
3

> <PUBCHEM_ATOM_UDEF_STEREO_COUNT>
3

> <PUBCHEM_BOND_DEF_STEREO_COUNT>
0

> <PUBCHEM_BOND_UDEF_STEREO_COUNT>
0

> <PUBCHEM_ISOTOPIC_ATOM_COUNT>
0

> <PUBCHEM_COMPONENT_COUNT>
1

> <PUBCHEM_CACTVS_TAUTO_COUNT>
1

> <PUBCHEM_CONFORMER_ID>
0577F13900000001

> <PUBCHEM_MMFF94_ENERGY>
113.5936

> <PUBCHEM_FEATURE_SELFOVERLAP>
26.194

> <PUBCHEM_SHAPE_FINGERPRINT>
10702982 57 18342736308188091654
10863032 1 18123216543965116790
12326174 3 17753888316189230786
12423570 1 16237510177735644274
12808571 1 18341060648151164752
13024252 1 15575543829276391644
13299463 15 15697432377070323620
13538477 17 18337665442254851202
13898156 1 18126534955951789810
144361 1 17534303891244150958
14614273 12 17681816729300625334
14617773 55 17973707358228915730
14817 1 17829363458601387823
15490181 7 18187638158729002020
15490181 8 18343013376565422846
15557651 10 18041295317198457228
15775835 57 18114174263560017908
15881359 60 16806996856654105101
16945 1 18342462546956670858
17834069 17 17748825206876996196
19837323 101 18129383859451691654
20511035 2 17387667458713079916
21501502 16 16515961463067953901
22344851 12 17824005409890753902
22344851 262 17476878452077981693
22802520 49 17559966583004647596
23419403 2 16456367890320492602
23559900 14 18271260369994369756
2748010 2 16805592634376806382
430814 3 18411704261635425041
5084963 1 17676489449324451200
528886 8 18200890473552127348
5845 1 17328042364799394338
81228 2 17830463039080626434

> <PUBCHEM_SHAPE_MULTIPOLES>
323.4
3.68
2.16
1.75
0.46
0.93
0.34
-1.56
-0.25
-0.32
-0.12
-0.16
0.06
-0.44

> <PUBCHEM_SHAPE_SELFOVERLAP>
676.648

> <PUBCHEM_SHAPE_VOLUME>
186.6

> <PUBCHEM_COORDINATE_TYPE>
2
5
10

$$$$
