5282676
  -OEChem-09152013043D

 60 59  0     1  0  0  0  0  0999 V2000
   -0.1558   -1.3616   -1.4999 O   0  0  0  0  0  0  0  0  0  0  0  0
    0.2562   -1.6211    0.7249 O   0  0  0  0  0  0  0  0  0  0  0  0
   -1.9855    2.7008   -0.6040 C   0  0  1  0  0  0  0  0  0  0  0  0
   -0.5577    2.1120   -0.6691 C   0  0  0  0  0  0  0  0  0  0  0  0
    0.5819    3.1317   -0.5585 C   0  0  0  0  0  0  0  0  0  0  0  0
    2.3624    1.4798    0.4068 C   0  0  1  0  0  0  0  0  0  0  0  0
    1.9751    2.4989   -0.6881 C   0  0  0  0  0  0  0  0  0  0  0  0
   -3.0434    1.6315   -0.9438 C   0  0  0  0  0  0  0  0  0  0  0  0
   -3.2058    0.5067    0.0882 C   0  0  0  0  0  0  0  0  0  0  0  0
    3.7719    0.9290    0.0970 C   0  0  0  0  0  0  0  0  0  0  0  0
   -4.3141   -0.4901   -0.2656 C   0  0  0  0  0  0  0  0  0  0  0  0
   -2.2594    3.3800    0.7399 C   0  0  0  0  0  0  0  0  0  0  0  0
    4.2558   -0.2173    0.9962 C   0  0  0  0  0  0  0  0  0  0  0  0
    2.2909    2.0964    1.8058 C   0  0  0  0  0  0  0  0  0  0  0  0
   -4.4566   -1.6322    0.7586 C   0  0  0  0  0  0  0  0  0  0  0  0
    3.3487   -1.4578    1.0357 C   0  0  0  0  0  0  0  0  0  0  0  0
   -3.1768   -2.4589    0.8915 C   0  0  0  0  0  0  0  0  0  0  0  0
   -5.6215   -2.5426    0.3620 C   0  0  0  0  0  0  0  0  0  0  0  0
    3.0945   -2.1045   -0.3114 C   0  0  0  0  0  0  0  0  0  0  0  0
    4.3240   -2.6645   -0.9871 C   0  0  0  0  0  0  0  0  0  0  0  0
    1.9084   -2.2021   -0.9417 C   0  0  0  0  0  0  0  0  0  0  0  0
    0.6069   -1.7143   -0.4376 C   0  0  0  0  0  0  0  0  0  0  0  0
   -2.0596    3.4723   -1.3824 H   0  0  0  0  0  0  0  0  0  0  0  0
   -0.4495    1.3727    0.1316 H   0  0  0  0  0  0  0  0  0  0  0  0
   -0.4427    1.5701   -1.6164 H   0  0  0  0  0  0  0  0  0  0  0  0
    0.5134    3.6898    0.3799 H   0  0  0  0  0  0  0  0  0  0  0  0
    0.4672    3.8706   -1.3616 H   0  0  0  0  0  0  0  0  0  0  0  0
    1.6496    0.6558    0.3668 H   0  0  0  0  0  0  0  0  0  0  0  0
    2.0429    2.0126   -1.6700 H   0  0  0  0  0  0  0  0  0  0  0  0
    2.7139    3.3111   -0.6969 H   0  0  0  0  0  0  0  0  0  0  0  0
   -4.0124    2.1337   -1.0629 H   0  0  0  0  0  0  0  0  0  0  0  0
   -2.8084    1.1899   -1.9206 H   0  0  0  0  0  0  0  0  0  0  0  0
   -3.4380    0.9368    1.0691 H   0  0  0  0  0  0  0  0  0  0  0  0
   -2.2524   -0.0148    0.1914 H   0  0  0  0  0  0  0  0  0  0  0  0
    4.5010    1.7470    0.1671 H   0  0  0  0  0  0  0  0  0  0  0  0
    3.8028    0.5888   -0.9459 H   0  0  0  0  0  0  0  0  0  0  0  0
   -4.1131   -0.9115   -1.2589 H   0  0  0  0  0  0  0  0  0  0  0  0
   -5.2664    0.0501   -0.3395 H   0  0  0  0  0  0  0  0  0  0  0  0
   -2.0281    2.7207    1.5826 H   0  0  0  0  0  0  0  0  0  0  0  0
   -1.6550    4.2859    0.8508 H   0  0  0  0  0  0  0  0  0  0  0  0
   -3.3095    3.6810    0.8169 H   0  0  0  0  0  0  0  0  0  0  0  0
    4.3867    0.1503    2.0208 H   0  0  0  0  0  0  0  0  0  0  0  0
    5.2599   -0.5115    0.6655 H   0  0  0  0  0  0  0  0  0  0  0  0
    1.2756    2.4258    2.0462 H   0  0  0  0  0  0  0  0  0  0  0  0
    2.5697    1.3715    2.5763 H   0  0  0  0  0  0  0  0  0  0  0  0
    2.9599    2.9589    1.8926 H   0  0  0  0  0  0  0  0  0  0  0  0
   -4.6879   -1.1982    1.7396 H   0  0  0  0  0  0  0  0  0  0  0  0
    2.4204   -1.1920    1.5458 H   0  0  0  0  0  0  0  0  0  0  0  0
    3.8200   -2.2071    1.6855 H   0  0  0  0  0  0  0  0  0  0  0  0
   -2.8203   -2.8039   -0.0847 H   0  0  0  0  0  0  0  0  0  0  0  0
   -3.3465   -3.3403    1.5196 H   0  0  0  0  0  0  0  0  0  0  0  0
   -2.3802   -1.8807    1.3673 H   0  0  0  0  0  0  0  0  0  0  0  0
   -5.4421   -3.0178   -0.6085 H   0  0  0  0  0  0  0  0  0  0  0  0
   -5.7683   -3.3337    1.1050 H   0  0  0  0  0  0  0  0  0  0  0  0
   -6.5545   -1.9732    0.2940 H   0  0  0  0  0  0  0  0  0  0  0  0
    5.0125   -1.8616   -1.2670 H   0  0  0  0  0  0  0  0  0  0  0  0
    4.8446   -3.3541   -0.3143 H   0  0  0  0  0  0  0  0  0  0  0  0
    4.0817   -3.2215   -1.8987 H   0  0  0  0  0  0  0  0  0  0  0  0
    1.8690   -2.6582   -1.9290 H   0  0  0  0  0  0  0  0  0  0  0  0
   -1.0418   -1.0392   -1.2342 H   0  0  0  0  0  0  0  0  0  0  0  0
  1 22  1  0  0  0  0
  1 60  1  0  0  0  0
  2 22  2  0  0  0  0
  3  4  1  0  0  0  0
  3  8  1  0  0  0  0
  3 12  1  0  0  0  0
  3 23  1  0  0  0  0
  4  5  1  0  0  0  0
  4 24  1  0  0  0  0
  4 25  1  0  0  0  0
  5  7  1  0  0  0  0
  5 26  1  0  0  0  0
  5 27  1  0  0  0  0
  6  7  1  0  0  0  0
  6 10  1  0  0  0  0
  6 14  1  0  0  0  0
  6 28  1  0  0  0  0
  7 29  1  0  0  0  0
  7 30  1  0  0  0  0
  8  9  1  0  0  0  0
  8 31  1  0  0  0  0
  8 32  1  0  0  0  0
  9 11  1  0  0  0  0
  9 33  1  0  0  0  0
  9 34  1  0  0  0  0
 10 13  1  0  0  0  0
 10 35  1  0  0  0  0
 10 36  1  0  0  0  0
 11 15  1  0  0  0  0
 11 37  1  0  0  0  0
 11 38  1  0  0  0  0
 12 39  1  0  0  0  0
 12 40  1  0  0  0  0
 12 41  1  0  0  0  0
 13 16  1  0  0  0  0
 13 42  1  0  0  0  0
 13 43  1  0  0  0  0
 14 44  1  0  0  0  0
 14 45  1  0  0  0  0
 14 46  1  0  0  0  0
 15 17  1  0  0  0  0
 15 18  1  0  0  0  0
 15 47  1  0  0  0  0
 16 19  1  0  0  0  0
 16 48  1  0  0  0  0
 16 49  1  0  0  0  0
 17 50  1  0  0  0  0
 17 51  1  0  0  0  0
 17 52  1  0  0  0  0
 18 53  1  0  0  0  0
 18 54  1  0  0  0  0
 18 55  1  0  0  0  0
 19 20  1  0  0  0  0
 19 21  2  0  0  0  0
 20 56  1  0  0  0  0
 20 57  1  0  0  0  0
 20 58  1  0  0  0  0
 21 22  1  0  0  0  0
 21 59  1  0  0  0  0
M  END
> <PUBCHEM_COMPOUND_CID>
5282676

> <PUBCHEM_CONFORMER_RMSD>
1.6

> <PUBCHEM_CONFORMER_DIVERSEORDER>
2
1
54
4
17
25
56
52
44
36
48
5
50
29
12
43
46
18
38
3
27
55
41
34
24
31
40
21
6
51
19
9
28
32
35
14
42
23
49
20
53
15
45
47
37
7
13
26
16
22
30
11
39
10
33
8

> <PUBCHEM_MMFF94_PARTIAL_CHARGES>
9
1 -0.65
16 0.14
19 -0.28
2 -0.57
20 0.14
21 -0.14
22 0.71
59 0.15
60 0.5

> <PUBCHEM_EFFECTIVE_ROTOR_COUNT>
13

> <PUBCHEM_PHARMACOPHORE_FEATURES>
7
1 1 acceptor
1 12 hydrophobe
1 14 hydrophobe
1 2 acceptor
1 20 hydrophobe
3 1 2 22 anion
3 15 17 18 hydrophobe

> <PUBCHEM_HEAVY_ATOM_COUNT>
22

> <PUBCHEM_ATOM_DEF_STEREO_COUNT>
0

> <PUBCHEM_ATOM_UDEF_STEREO_COUNT>
2

> <PUBCHEM_BOND_DEF_STEREO_COUNT>
1

> <PUBCHEM_BOND_UDEF_STEREO_COUNT>
0

> <PUBCHEM_ISOTOPIC_ATOM_COUNT>
0

> <PUBCHEM_COMPONENT_COUNT>
1

> <PUBCHEM_CACTVS_TAUTO_COUNT>
1

> <PUBCHEM_CONFORMER_ID>
00509B7400000002

> <PUBCHEM_MMFF94_ENERGY>
28.1751

> <PUBCHEM_FEATURE_SELFOVERLAP>
35.579

> <PUBCHEM_SHAPE_FINGERPRINT>
12596599 1 17842281358934197752
12633257 1 17905039261928026744
13402501 40 18408882966459459419
13911882 115 18343295938838512560
14081887 123 18262796255525254619
14251705 54 18409729569059537477
14681488 357 18270415948077719502
20765182 20 18272943721183547551
20905425 154 18411989052421873021
221490 88 18341332180674308574
23557571 272 18334573560150153955
23559900 14 18408037395121095613
445580 102 18343301444427423173
508706 21 18265043635606518029
5283268 108 18408890658761814698

> <PUBCHEM_SHAPE_MULTIPOLES>
441.01
9.94
4.79
1.27
6.52
1.6
-0.16
-7.53
-1.69
0.96
0.28
-0.57
0.06
1.74

> <PUBCHEM_SHAPE_SELFOVERLAP>
824.771

> <PUBCHEM_SHAPE_VOLUME>
276.1

> <PUBCHEM_COORDINATE_TYPE>
2
5
10

$$$$
