5367460
  -OEChem-09152015083D

 56 55  0     0  0  0  0  0  0999 V2000
    5.2185   -0.0977    0.6512 O   0  0  0  0  0  0  0  0  0  0  0  0
    4.4541    0.9298   -1.2699 O   0  0  0  0  0  0  0  0  0  0  0  0
    0.7782   -2.1008   -0.6260 C   0  0  0  0  0  0  0  0  0  0  0  0
   -0.1935   -2.0042    0.5540 C   0  0  0  0  0  0  0  0  0  0  0  0
    2.2271   -1.7822   -0.2508 C   0  0  0  0  0  0  0  0  0  0  0  0
   -1.6537   -2.2514    0.1584 C   0  0  0  0  0  0  0  0  0  0  0  0
    3.1376   -1.8251   -1.4826 C   0  0  0  0  0  0  0  0  0  0  0  0
   -2.6164   -2.1630    1.3481 C   0  0  0  0  0  0  0  0  0  0  0  0
    4.5856   -1.4773   -1.1501 C   0  0  0  0  0  0  0  0  0  0  0  0
   -4.0341   -2.4755    0.9655 C   0  0  0  0  0  0  0  0  0  0  0  0
    4.7353   -0.0713   -0.6237 C   0  0  0  0  0  0  0  0  0  0  0  0
   -4.9387   -1.5482    0.6173 C   0  0  0  0  0  0  0  0  0  0  0  0
   -4.6390   -0.0790    0.5689 C   0  0  0  0  0  0  0  0  0  0  0  0
   -4.8396    0.4747   -0.8114 C   0  0  0  0  0  0  0  0  0  0  0  0
    5.4038    1.1812    1.2660 C   0  0  0  0  0  0  0  0  0  0  0  0
   -3.9203    1.0663   -1.5908 C   0  0  0  0  0  0  0  0  0  0  0  0
   -2.4764    1.3207   -1.2674 C   0  0  0  0  0  0  0  0  0  0  0  0
    4.1297    1.5725    1.9839 C   0  0  0  0  0  0  0  0  0  0  0  0
   -2.1683    2.7898   -1.2532 C   0  0  0  0  0  0  0  0  0  0  0  0
   -1.7124    3.4513   -0.1793 C   0  0  0  0  0  0  0  0  0  0  0  0
   -1.4523    2.8024    1.1480 C   0  0  0  0  0  0  0  0  0  0  0  0
   -0.0250    2.2869    1.2439 C   0  0  0  0  0  0  0  0  0  0  0  0
    0.4499   -1.4068   -1.4102 H   0  0  0  0  0  0  0  0  0  0  0  0
    0.7260   -3.1094   -1.0540 H   0  0  0  0  0  0  0  0  0  0  0  0
    0.1024   -2.7287    1.3224 H   0  0  0  0  0  0  0  0  0  0  0  0
   -0.1116   -1.0094    1.0082 H   0  0  0  0  0  0  0  0  0  0  0  0
    2.5810   -2.5009    0.4979 H   0  0  0  0  0  0  0  0  0  0  0  0
    2.2630   -0.7889    0.2111 H   0  0  0  0  0  0  0  0  0  0  0  0
   -1.7325   -3.2469   -0.2975 H   0  0  0  0  0  0  0  0  0  0  0  0
   -1.9477   -1.5336   -0.6148 H   0  0  0  0  0  0  0  0  0  0  0  0
    2.7594   -1.1258   -2.2384 H   0  0  0  0  0  0  0  0  0  0  0  0
    3.1054   -2.8269   -1.9270 H   0  0  0  0  0  0  0  0  0  0  0  0
   -2.5140   -1.2002    1.8568 H   0  0  0  0  0  0  0  0  0  0  0  0
   -2.3145   -2.9037    2.1007 H   0  0  0  0  0  0  0  0  0  0  0  0
    5.2146   -1.5634   -2.0433 H   0  0  0  0  0  0  0  0  0  0  0  0
    4.9823   -2.1923   -0.4195 H   0  0  0  0  0  0  0  0  0  0  0  0
   -4.3302   -3.5212    0.9623 H   0  0  0  0  0  0  0  0  0  0  0  0
   -5.9442   -1.8712    0.3591 H   0  0  0  0  0  0  0  0  0  0  0  0
   -3.6625    0.1875    0.9666 H   0  0  0  0  0  0  0  0  0  0  0  0
   -5.3565    0.4229    1.2313 H   0  0  0  0  0  0  0  0  0  0  0  0
   -5.8472    0.3872   -1.2159 H   0  0  0  0  0  0  0  0  0  0  0  0
    6.2197    1.0775    1.9887 H   0  0  0  0  0  0  0  0  0  0  0  0
    5.7093    1.9435    0.5405 H   0  0  0  0  0  0  0  0  0  0  0  0
   -4.2501    1.4021   -2.5734 H   0  0  0  0  0  0  0  0  0  0  0  0
   -1.8766    0.8681   -2.0682 H   0  0  0  0  0  0  0  0  0  0  0  0
   -2.1579    0.8055   -0.3622 H   0  0  0  0  0  0  0  0  0  0  0  0
    3.2985    1.6772    1.2790 H   0  0  0  0  0  0  0  0  0  0  0  0
    3.8391    0.8010    2.7048 H   0  0  0  0  0  0  0  0  0  0  0  0
    4.2577    2.5201    2.5145 H   0  0  0  0  0  0  0  0  0  0  0  0
   -2.3100    3.3421   -2.1794 H   0  0  0  0  0  0  0  0  0  0  0  0
   -1.4963    4.5125   -0.2693 H   0  0  0  0  0  0  0  0  0  0  0  0
   -2.1653    2.0043    1.3722 H   0  0  0  0  0  0  0  0  0  0  0  0
   -1.6117    3.5559    1.9294 H   0  0  0  0  0  0  0  0  0  0  0  0
    0.1759    1.5177    0.4909 H   0  0  0  0  0  0  0  0  0  0  0  0
    0.1515    1.8462    2.2303 H   0  0  0  0  0  0  0  0  0  0  0  0
    0.6991    3.0966    1.1032 H   0  0  0  0  0  0  0  0  0  0  0  0
  1 11  1  0  0  0  0
  1 15  1  0  0  0  0
  2 11  2  0  0  0  0
  3  4  1  0  0  0  0
  3  5  1  0  0  0  0
  3 23  1  0  0  0  0
  3 24  1  0  0  0  0
  4  6  1  0  0  0  0
  4 25  1  0  0  0  0
  4 26  1  0  0  0  0
  5  7  1  0  0  0  0
  5 27  1  0  0  0  0
  5 28  1  0  0  0  0
  6  8  1  0  0  0  0
  6 29  1  0  0  0  0
  6 30  1  0  0  0  0
  7  9  1  0  0  0  0
  7 31  1  0  0  0  0
  7 32  1  0  0  0  0
  8 10  1  0  0  0  0
  8 33  1  0  0  0  0
  8 34  1  0  0  0  0
  9 11  1  0  0  0  0
  9 35  1  0  0  0  0
  9 36  1  0  0  0  0
 10 12  2  0  0  0  0
 10 37  1  0  0  0  0
 12 13  1  0  0  0  0
 12 38  1  0  0  0  0
 13 14  1  0  0  0  0
 13 39  1  0  0  0  0
 13 40  1  0  0  0  0
 14 16  2  0  0  0  0
 14 41  1  0  0  0  0
 15 18  1  0  0  0  0
 15 42  1  0  0  0  0
 15 43  1  0  0  0  0
 16 17  1  0  0  0  0
 16 44  1  0  0  0  0
 17 19  1  0  0  0  0
 17 45  1  0  0  0  0
 17 46  1  0  0  0  0
 18 47  1  0  0  0  0
 18 48  1  0  0  0  0
 18 49  1  0  0  0  0
 19 20  2  0  0  0  0
 19 50  1  0  0  0  0
 20 21  1  0  0  0  0
 20 51  1  0  0  0  0
 21 22  1  0  0  0  0
 21 52  1  0  0  0  0
 21 53  1  0  0  0  0
 22 54  1  0  0  0  0
 22 55  1  0  0  0  0
 22 56  1  0  0  0  0
M  END
> <PUBCHEM_COMPOUND_CID>
5367460

> <PUBCHEM_CONFORMER_RMSD>
1.6

> <PUBCHEM_CONFORMER_DIVERSEORDER>
8
32
33
16
31
80
53
17
4
41
69
23
40
12
59
73
61
45
13
82
60
67
1
79
70
46
62
26
20
27
63
29
50
28
58
75
37
9
25
42
39
30
38
74
76
10
24
72
56
78
34
64
52
43
65
68
5
77
55
36
21
51
54
18
44
81
15
14
2
71
66
57
6
48
35
49
7
3
19
47
11
22

> <PUBCHEM_MMFF94_PARTIAL_CHARGES>
21
1 -0.43
10 -0.29
11 0.66
12 -0.29
13 0.28
14 -0.29
15 0.28
16 -0.29
17 0.28
19 -0.29
2 -0.57
20 -0.29
21 0.14
37 0.15
38 0.15
41 0.15
44 0.15
50 0.15
51 0.15
8 0.14
9 0.06

> <PUBCHEM_EFFECTIVE_ROTOR_COUNT>
15

> <PUBCHEM_PHARMACOPHORE_FEATURES>
2
1 2 acceptor
1 22 hydrophobe

> <PUBCHEM_HEAVY_ATOM_COUNT>
22

> <PUBCHEM_ATOM_DEF_STEREO_COUNT>
0

> <PUBCHEM_ATOM_UDEF_STEREO_COUNT>
0

> <PUBCHEM_BOND_DEF_STEREO_COUNT>
3

> <PUBCHEM_BOND_UDEF_STEREO_COUNT>
0

> <PUBCHEM_ISOTOPIC_ATOM_COUNT>
0

> <PUBCHEM_COMPONENT_COUNT>
1

> <PUBCHEM_CACTVS_TAUTO_COUNT>
1

> <PUBCHEM_CONFORMER_ID>
0051E6A400000008

> <PUBCHEM_MMFF94_ENERGY>
8.2792

> <PUBCHEM_FEATURE_SELFOVERLAP>
10.148

> <PUBCHEM_SHAPE_FINGERPRINT>
10670039 82 18266204819360430518
11112241 14 17416383566951859353
11595378 159 17676761015869859762
12596602 18 16443350922366809882
13111901 137 18271535290376550876
13402501 40 18341045302317483961
13561361 72 18335136514266972316
14251757 17 18413105031122833210
14251764 38 18337676317581517236
14904385 31 17986939951079638160
20429585 67 18131067125865325849
21095088 737 18341611451937118416
21795232 40 17413571089391465752
23557571 272 18334587849037368950
354706 132 18120387466836386724
469060 322 17605300444256394913
508706 21 18338242552947672824
574716 61 15482379945549313146

> <PUBCHEM_SHAPE_MULTIPOLES>
441.01
12.97
4.14
1.75
10.39
1.65
0.06
-0.9
0.25
-2.6
0.53
0.63
0.52
3.53

> <PUBCHEM_SHAPE_SELFOVERLAP>
824.543

> <PUBCHEM_SHAPE_VOLUME>
273.7

> <PUBCHEM_COORDINATE_TYPE>
2
5
10

$$$$
