91749818
  -OEChem-09152011293D

 38 39  0     1  0  0  0  0  0999 V2000
   -0.7032    2.3679    1.4045 O   0  0  0  0  0  0  0  0  0  0  0  0
   -1.2722   -0.7232   -0.6279 C   0  0  1  0  0  0  0  0  0  0  0  0
   -2.2398    0.3924   -0.2105 C   0  0  0  0  0  0  0  0  0  0  0  0
   -0.3986    2.0920    0.0308 C   0  0  2  0  0  0  0  0  0  0  0  0
   -1.7222    1.7461   -0.6707 C   0  0  0  0  0  0  0  0  0  0  0  0
    0.1803   -0.3871   -0.3114 C   0  0  0  0  0  0  0  0  0  0  0  0
   -1.7581   -2.0360    0.0041 C   0  0  0  0  0  0  0  0  0  0  0  0
    0.5935    0.9340   -0.0134 C   0  0  0  0  0  0  0  0  0  0  0  0
    0.1383    3.3912   -0.5934 C   0  0  0  0  0  0  0  0  0  0  0  0
    1.1553   -1.4024   -0.3823 C   0  0  0  0  0  0  0  0  0  0  0  0
   -3.2043   -2.3100   -0.3917 C   0  0  0  0  0  0  0  0  0  0  0  0
   -1.6109   -1.9794    1.5202 C   0  0  0  0  0  0  0  0  0  0  0  0
    1.9521    1.1653    0.2860 C   0  0  0  0  0  0  0  0  0  0  0  0
    2.4966   -1.1441   -0.1050 C   0  0  0  0  0  0  0  0  0  0  0  0
    2.8934    0.1384    0.2406 C   0  0  0  0  0  0  0  0  0  0  0  0
    3.4997   -2.2452   -0.1797 C   0  0  0  0  0  0  0  0  0  0  0  0
   -1.3255   -0.8206   -1.7221 H   0  0  0  0  0  0  0  0  0  0  0  0
   -2.4013    0.4400    0.8702 H   0  0  0  0  0  0  0  0  0  0  0  0
   -3.2213    0.2482   -0.6759 H   0  0  0  0  0  0  0  0  0  0  0  0
   -1.5885    1.7293   -1.7606 H   0  0  0  0  0  0  0  0  0  0  0  0
   -2.4829    2.5055   -0.4486 H   0  0  0  0  0  0  0  0  0  0  0  0
   -1.1639   -2.8766   -0.3710 H   0  0  0  0  0  0  0  0  0  0  0  0
   -0.6396    4.1641   -0.6133 H   0  0  0  0  0  0  0  0  0  0  0  0
    0.4890    3.2319   -1.6188 H   0  0  0  0  0  0  0  0  0  0  0  0
    0.9584    3.8187   -0.0066 H   0  0  0  0  0  0  0  0  0  0  0  0
    0.8767   -2.4134   -0.6676 H   0  0  0  0  0  0  0  0  0  0  0  0
   -3.4719   -3.3384   -0.1218 H   0  0  0  0  0  0  0  0  0  0  0  0
   -1.8244   -2.9708    1.9388 H   0  0  0  0  0  0  0  0  0  0  0  0
   -3.3503   -2.2113   -1.4726 H   0  0  0  0  0  0  0  0  0  0  0  0
   -2.3166   -1.2950    1.9994 H   0  0  0  0  0  0  0  0  0  0  0  0
   -3.9205   -1.6617    0.1229 H   0  0  0  0  0  0  0  0  0  0  0  0
   -0.6016   -1.7182    1.8490 H   0  0  0  0  0  0  0  0  0  0  0  0
    2.2979    2.1571    0.5648 H   0  0  0  0  0  0  0  0  0  0  0  0
   -1.3200    3.1191    1.4341 H   0  0  0  0  0  0  0  0  0  0  0  0
    3.9318    0.3587    0.4728 H   0  0  0  0  0  0  0  0  0  0  0  0
    4.5182   -1.8552   -0.2807 H   0  0  0  0  0  0  0  0  0  0  0  0
    3.3121   -2.8833   -1.0499 H   0  0  0  0  0  0  0  0  0  0  0  0
    3.4532   -2.8580    0.7261 H   0  0  0  0  0  0  0  0  0  0  0  0
  1  4  1  0  0  0  0
  1 34  1  0  0  0  0
  2  3  1  0  0  0  0
  2  6  1  0  0  0  0
  2  7  1  0  0  0  0
  2 17  1  0  0  0  0
  3  5  1  0  0  0  0
  3 18  1  0  0  0  0
  3 19  1  0  0  0  0
  4  5  1  0  0  0  0
  4  8  1  0  0  0  0
  4  9  1  0  0  0  0
  5 20  1  0  0  0  0
  5 21  1  0  0  0  0
  6  8  2  0  0  0  0
  6 10  1  0  0  0  0
  7 11  1  0  0  0  0
  7 12  1  0  0  0  0
  7 22  1  0  0  0  0
  8 13  1  0  0  0  0
  9 23  1  0  0  0  0
  9 24  1  0  0  0  0
  9 25  1  0  0  0  0
 10 14  2  0  0  0  0
 10 26  1  0  0  0  0
 11 27  1  0  0  0  0
 11 29  1  0  0  0  0
 11 31  1  0  0  0  0
 12 28  1  0  0  0  0
 12 30  1  0  0  0  0
 12 32  1  0  0  0  0
 13 15  2  0  0  0  0
 13 33  1  0  0  0  0
 14 15  1  0  0  0  0
 14 16  1  0  0  0  0
 15 35  1  0  0  0  0
 16 36  1  0  0  0  0
 16 37  1  0  0  0  0
 16 38  1  0  0  0  0
M  END
> <PUBCHEM_COMPOUND_CID>
91749818

> <PUBCHEM_CONFORMER_RMSD>
0.6

> <PUBCHEM_CONFORMER_DIVERSEORDER>
1
4
3
2

> <PUBCHEM_MMFF94_PARTIAL_CHARGES>
14
1 -0.68
10 -0.15
13 -0.15
14 -0.14
15 -0.15
16 0.14
2 0.14
26 0.15
33 0.15
34 0.4
35 0.15
4 0.42
6 -0.14
8 -0.14

> <PUBCHEM_EFFECTIVE_ROTOR_COUNT>
1.8

> <PUBCHEM_PHARMACOPHORE_FEATURES>
5
1 1 acceptor
1 1 donor
3 7 11 12 hydrophobe
6 2 3 4 5 6 8 rings
6 6 8 10 13 14 15 rings

> <PUBCHEM_HEAVY_ATOM_COUNT>
16

> <PUBCHEM_ATOM_DEF_STEREO_COUNT>
2

> <PUBCHEM_ATOM_UDEF_STEREO_COUNT>
0

> <PUBCHEM_BOND_DEF_STEREO_COUNT>
0

> <PUBCHEM_BOND_UDEF_STEREO_COUNT>
0

> <PUBCHEM_ISOTOPIC_ATOM_COUNT>
0

> <PUBCHEM_COMPONENT_COUNT>
1

> <PUBCHEM_CACTVS_TAUTO_COUNT>
1

> <PUBCHEM_CONFORMER_ID>
0577FDBA00000001

> <PUBCHEM_MMFF94_ENERGY>
48.4171

> <PUBCHEM_FEATURE_SELFOVERLAP>
25.391

> <PUBCHEM_SHAPE_FINGERPRINT>
10967382 1 18410852161614384142
11578080 2 16843010235294475275
11680986 33 18341040882806873904
13140716 1 18412542085343358554
1420 336 18265610996375392034
14648413 74 17973717279745566845
14790565 3 17616544290311987853
14817 1 17112343145584411491
15001771 113 18410580608091495252
15042514 8 18193278498898223051
15309172 13 17618511982375551880
15490181 7 17401770718057991253
16945 1 18195799666017088358
17990270 104 18192708058263004355
193761 8 18337952419285388005
19591789 44 17403463966160029495
20510252 161 18054500305845552120
20645476 183 17541406552108754310
20645477 70 17615111618387357919
21501502 16 18410577296692750646
21524375 3 17689437079120093077
22721475 48 18191305077225998871
22802520 49 18343018848564663518
2334 1 18339920523439439814
23388829 49 17983289623381265775
23402539 116 18126832812276555351
23419403 2 17180186483584029860
23526113 38 18044907256024917487
23559900 14 17623847926034803774
257057 1 18339632434144638407
2748010 2 18341041999656334358
54173680 148 18339078164541726886
568465 68 17763749093001977656
7364860 26 17907296902992004485
81228 2 18337676321338310386
8272917 22 17834120028067065023
8809292 202 18337391522262965534
9709674 26 18055349142134832870

> <PUBCHEM_SHAPE_MULTIPOLES>
323.4
4.33
3.65
0.96
1.33
1.77
0.3
-3.7
-0.23
-0.51
0.01
-0.36
0
0.32

> <PUBCHEM_SHAPE_SELFOVERLAP>
677.358

> <PUBCHEM_SHAPE_VOLUME>
183.9

> <PUBCHEM_COORDINATE_TYPE>
2
5
10

$$$$
