71317672
  -OEChem-09152013513D

 53 52  0     0  0  0  0  0  0999 V2000
   10.7383    1.6393    0.0590 O   0  0  0  0  0  0  0  0  0  0  0  0
   -2.4572   -0.6679   -0.1736 C   0  0  0  0  0  0  0  0  0  0  0  0
   -3.6977    0.0060    0.4223 C   0  0  0  0  0  0  0  0  0  0  0  0
   -1.1486   -0.2201    0.4830 C   0  0  0  0  0  0  0  0  0  0  0  0
   -5.0006   -0.3823   -0.2806 C   0  0  0  0  0  0  0  0  0  0  0  0
    0.0966   -0.8394   -0.1605 C   0  0  0  0  0  0  0  0  0  0  0  0
   -6.1942    0.3772    0.3058 C   0  0  0  0  0  0  0  0  0  0  0  0
    1.4088   -0.3728    0.4738 C   0  0  0  0  0  0  0  0  0  0  0  0
   -7.5012   -0.0349   -0.3752 C   0  0  0  0  0  0  0  0  0  0  0  0
    2.6156   -1.0151   -0.2158 C   0  0  0  0  0  0  0  0  0  0  0  0
   -8.7261    0.7173    0.1526 C   0  0  0  0  0  0  0  0  0  0  0  0
    3.9311   -0.5243    0.3971 C   0  0  0  0  0  0  0  0  0  0  0  0
  -10.0411    0.2538   -0.4753 C   0  0  0  0  0  0  0  0  0  0  0  0
    5.1682   -1.1190   -0.2832 C   0  0  0  0  0  0  0  0  0  0  0  0
  -11.2235    1.0390    0.0718 C   0  0  0  0  0  0  0  0  0  0  0  0
    6.4569   -0.6187    0.3045 C   0  0  0  0  0  0  0  0  0  0  0  0
    7.3845    0.0485   -0.3984 C   0  0  0  0  0  0  0  0  0  0  0  0
    8.6212    0.5228    0.1801 C   0  0  0  0  0  0  0  0  0  0  0  0
    9.5688    1.1906   -0.4875 C   0  0  0  0  0  0  0  0  0  0  0  0
   -2.5565   -1.7562   -0.0799 H   0  0  0  0  0  0  0  0  0  0  0  0
   -2.4120   -0.4453   -1.2470 H   0  0  0  0  0  0  0  0  0  0  0  0
   -3.7684   -0.2485    1.4871 H   0  0  0  0  0  0  0  0  0  0  0  0
   -3.5709    1.0944    0.3653 H   0  0  0  0  0  0  0  0  0  0  0  0
   -1.1724   -0.4794    1.5486 H   0  0  0  0  0  0  0  0  0  0  0  0
   -1.0730    0.8727    0.4246 H   0  0  0  0  0  0  0  0  0  0  0  0
   -5.1604   -1.4626   -0.1804 H   0  0  0  0  0  0  0  0  0  0  0  0
   -4.9186   -0.1647   -1.3523 H   0  0  0  0  0  0  0  0  0  0  0  0
    0.0286   -1.9321   -0.0898 H   0  0  0  0  0  0  0  0  0  0  0  0
    0.1055   -0.5918   -1.2293 H   0  0  0  0  0  0  0  0  0  0  0  0
   -6.2654    0.1804    1.3823 H   0  0  0  0  0  0  0  0  0  0  0  0
   -6.0412    1.4561    0.1828 H   0  0  0  0  0  0  0  0  0  0  0  0
    1.4125   -0.6286    1.5401 H   0  0  0  0  0  0  0  0  0  0  0  0
    1.4801    0.7192    0.4019 H   0  0  0  0  0  0  0  0  0  0  0  0
   -7.4180    0.1342   -1.4560 H   0  0  0  0  0  0  0  0  0  0  0  0
   -7.6545   -1.1122   -0.2346 H   0  0  0  0  0  0  0  0  0  0  0  0
    2.5550   -2.1065   -0.1282 H   0  0  0  0  0  0  0  0  0  0  0  0
    2.5998   -0.7740   -1.2856 H   0  0  0  0  0  0  0  0  0  0  0  0
   -8.7832    0.5884    1.2407 H   0  0  0  0  0  0  0  0  0  0  0  0
   -8.5925    1.7906   -0.0317 H   0  0  0  0  0  0  0  0  0  0  0  0
    3.9735    0.5705    0.3287 H   0  0  0  0  0  0  0  0  0  0  0  0
    3.9472   -0.7737    1.4658 H   0  0  0  0  0  0  0  0  0  0  0  0
   -9.9966    0.3786   -1.5634 H   0  0  0  0  0  0  0  0  0  0  0  0
  -10.1918   -0.8134   -0.2762 H   0  0  0  0  0  0  0  0  0  0  0  0
    5.1470   -2.2110   -0.1823 H   0  0  0  0  0  0  0  0  0  0  0  0
    5.1274   -0.9037   -1.3582 H   0  0  0  0  0  0  0  0  0  0  0  0
  -11.3126    0.9100    1.1552 H   0  0  0  0  0  0  0  0  0  0  0  0
  -11.1166    2.1077   -0.1399 H   0  0  0  0  0  0  0  0  0  0  0  0
  -12.1538    0.6928   -0.3892 H   0  0  0  0  0  0  0  0  0  0  0  0
    6.6227   -0.8314    1.3584 H   0  0  0  0  0  0  0  0  0  0  0  0
    7.2181    0.2556   -1.4523 H   0  0  0  0  0  0  0  0  0  0  0  0
    8.7829    0.3162    1.2359 H   0  0  0  0  0  0  0  0  0  0  0  0
    9.4976    1.4420   -1.5379 H   0  0  0  0  0  0  0  0  0  0  0  0
   11.2319    2.0863   -0.6506 H   0  0  0  0  0  0  0  0  0  0  0  0
  1 19  1  0  0  0  0
  1 53  1  0  0  0  0
  2  3  1  0  0  0  0
  2  4  1  0  0  0  0
  2 20  1  0  0  0  0
  2 21  1  0  0  0  0
  3  5  1  0  0  0  0
  3 22  1  0  0  0  0
  3 23  1  0  0  0  0
  4  6  1  0  0  0  0
  4 24  1  0  0  0  0
  4 25  1  0  0  0  0
  5  7  1  0  0  0  0
  5 26  1  0  0  0  0
  5 27  1  0  0  0  0
  6  8  1  0  0  0  0
  6 28  1  0  0  0  0
  6 29  1  0  0  0  0
  7  9  1  0  0  0  0
  7 30  1  0  0  0  0
  7 31  1  0  0  0  0
  8 10  1  0  0  0  0
  8 32  1  0  0  0  0
  8 33  1  0  0  0  0
  9 11  1  0  0  0  0
  9 34  1  0  0  0  0
  9 35  1  0  0  0  0
 10 12  1  0  0  0  0
 10 36  1  0  0  0  0
 10 37  1  0  0  0  0
 11 13  1  0  0  0  0
 11 38  1  0  0  0  0
 11 39  1  0  0  0  0
 12 14  1  0  0  0  0
 12 40  1  0  0  0  0
 12 41  1  0  0  0  0
 13 15  1  0  0  0  0
 13 42  1  0  0  0  0
 13 43  1  0  0  0  0
 14 16  1  0  0  0  0
 14 44  1  0  0  0  0
 14 45  1  0  0  0  0
 15 46  1  0  0  0  0
 15 47  1  0  0  0  0
 15 48  1  0  0  0  0
 16 17  2  3  0  0  0
 16 49  1  0  0  0  0
 17 18  1  0  0  0  0
 17 50  1  0  0  0  0
 18 19  2  3  0  0  0
 18 51  1  0  0  0  0
 19 52  1  0  0  0  0
M  END
> <PUBCHEM_COMPOUND_CID>
71317672

> <PUBCHEM_CONFORMER_RMSD>
1.4

> <PUBCHEM_CONFORMER_DIVERSEORDER>
1
10
47
70
27
34
72
19
21
13
71
58
25
73
53
20
6
30
62
67
57
12
17
36
3
39
46
55
44
4
11
54
42
61
38
60
14
45
29
69
5
35
68
65
2
63
15
43
24
52
66
18
7
37
32
49
9
28
31
59
8
40
23
26
22
64
56
50
48
33
16
41
51

> <PUBCHEM_MMFF94_PARTIAL_CHARGES>
11
1 -0.53
14 0.14
16 -0.29
17 -0.15
18 -0.15
19 -0.07
49 0.15
50 0.15
51 0.15
52 0.15
53 0.45

> <PUBCHEM_EFFECTIVE_ROTOR_COUNT>
14

> <PUBCHEM_PHARMACOPHORE_FEATURES>
2
1 1 donor
1 15 hydrophobe

> <PUBCHEM_HEAVY_ATOM_COUNT>
19

> <PUBCHEM_ATOM_DEF_STEREO_COUNT>
0

> <PUBCHEM_ATOM_UDEF_STEREO_COUNT>
0

> <PUBCHEM_BOND_DEF_STEREO_COUNT>
0

> <PUBCHEM_BOND_UDEF_STEREO_COUNT>
2

> <PUBCHEM_ISOTOPIC_ATOM_COUNT>
0

> <PUBCHEM_COMPONENT_COUNT>
1

> <PUBCHEM_CACTVS_TAUTO_COUNT>
3

> <PUBCHEM_CONFORMER_ID>
044038A800000001

> <PUBCHEM_MMFF94_ENERGY>
0.2606

> <PUBCHEM_FEATURE_SELFOVERLAP>
10.148

> <PUBCHEM_SHAPE_FINGERPRINT>
11315181 36 18273218599739364291
11463208 3 10663813096891289229
11638347 137 8502654809637509164
12498461 61 12107791830539582857
14251764 46 18410573980861771591
14344974 52 18059852917248557635
14428016 248 18272655640784616561
15061470 23 18187643580043651981
155225 1 18409449207254731964
15690457 1 8790887372434061168
21095086 128 11312058742572447438
21362267 2 18340190986047261192
21362267 313 17969494918512873771
21792961 116 9223234032100231763
232437 2 9655576314133683761
23521765 1 18343018870730537947
246663 6 11527950062852969666
335352 9 17561079211874047503
33684 2 17489867120507871099
59520757 100 14835829742792868788
59521099 67 12751231528978878018
67123 10 18411418410625103455
8209 1 17917990560722939443

> <PUBCHEM_SHAPE_MULTIPOLES>
385.14
45.42
1.14
0.72
13.26
0.19
0
23.59
3.92
-1.89
0.05
0.02
-0.01
-0.35

> <PUBCHEM_SHAPE_SELFOVERLAP>
700.748

> <PUBCHEM_SHAPE_VOLUME>
245.1

> <PUBCHEM_COORDINATE_TYPE>
2
5
10

$$$$
