134688997
  -OEChem-09152014253D

 77 80  0     1  0  0  0  0  0999 V2000
    5.1230    3.8980    0.0736 O   0  0  0  0  0  0  0  0  0  0  0  0
   -0.0439   -1.4190   -0.2800 C   0  0  1  0  0  0  0  0  0  0  0  0
    0.9328   -1.0050    0.8485 C   0  0  2  0  0  0  0  0  0  0  0  0
    2.2477   -1.7857    0.7892 C   0  0  1  0  0  0  0  0  0  0  0  0
    2.9679   -1.5033   -0.5611 C   0  0  2  0  0  0  0  0  0  0  0  0
   -1.2449   -0.5159    0.0947 C   0  0  2  0  0  0  0  0  0  0  0  0
    0.6048   -1.1032   -1.6358 C   0  0  0  0  0  0  0  0  0  0  0  0
    3.8245   -0.1574   -0.6181 C   0  0  2  0  0  0  0  0  0  0  0  0
    0.0708   -1.0843    2.1062 C   0  0  0  0  0  0  0  0  0  0  0  0
    2.0112   -1.7215   -1.7685 C   0  0  0  0  0  0  0  0  0  0  0  0
   -1.3254   -0.6366    1.6345 C   0  0  0  0  0  0  0  0  0  0  0  0
    3.1799   -1.5677    1.9835 C   0  0  0  0  0  0  0  0  0  0  0  0
   -2.5688   -0.8168   -0.5927 C   0  0  1  0  0  0  0  0  0  0  0  0
   -0.4499   -2.9162   -0.2545 C   0  0  0  0  0  0  0  0  0  0  0  0
    4.2943    0.3123    0.7630 C   0  0  0  0  0  0  0  0  0  0  0  0
    3.0778    1.0405   -1.2750 C   0  0  0  0  0  0  0  0  0  0  0  0
    4.0001   -0.3290    1.9043 C   0  0  0  0  0  0  0  0  0  0  0  0
    5.0747   -0.4884   -1.4838 C   0  0  0  0  0  0  0  0  0  0  0  0
    5.0823    1.6012    0.8121 C   0  0  0  0  0  0  0  0  0  0  0  0
    3.8515    2.3645   -1.2550 C   0  0  0  0  0  0  0  0  0  0  0  0
   -3.7792   -0.2312    0.1661 C   0  0  0  0  0  0  0  0  0  0  0  0
    4.3027    2.7372    0.1540 C   0  0  2  0  0  0  0  0  0  0  0  0
   -2.5511   -0.2735   -2.0263 C   0  0  0  0  0  0  0  0  0  0  0  0
   -5.1146   -0.4746   -0.5477 C   0  0  0  0  0  0  0  0  0  0  0  0
   -6.3399    0.0935    0.2082 C   0  0  1  0  0  0  0  0  0  0  0  0
   -6.2047    1.6005    0.5708 C   0  0  0  0  0  0  0  0  0  0  0  0
   -7.6067   -0.2285   -0.5976 C   0  0  0  0  0  0  0  0  0  0  0  0
   -7.3297    2.1278    1.4655 C   0  0  0  0  0  0  0  0  0  0  0  0
   -6.0872    2.4822   -0.6783 C   0  0  0  0  0  0  0  0  0  0  0  0
    1.1782    0.0592    0.7346 H   0  0  0  0  0  0  0  0  0  0  0  0
    2.0042   -2.8547    0.8208 H   0  0  0  0  0  0  0  0  0  0  0  0
    3.7045   -2.3193   -0.6380 H   0  0  0  0  0  0  0  0  0  0  0  0
   -0.9775    0.5304   -0.1206 H   0  0  0  0  0  0  0  0  0  0  0  0
    0.6452   -0.0235   -1.8027 H   0  0  0  0  0  0  0  0  0  0  0  0
    0.0189   -1.5236   -2.4582 H   0  0  0  0  0  0  0  0  0  0  0  0
    0.4461   -0.4315    2.9010 H   0  0  0  0  0  0  0  0  0  0  0  0
    0.0336   -2.1044    2.5047 H   0  0  0  0  0  0  0  0  0  0  0  0
    1.8890   -2.8056   -1.8966 H   0  0  0  0  0  0  0  0  0  0  0  0
    2.4756   -1.3827   -2.7010 H   0  0  0  0  0  0  0  0  0  0  0  0
   -2.0461   -1.3924    1.9643 H   0  0  0  0  0  0  0  0  0  0  0  0
   -1.6055    0.3200    2.0890 H   0  0  0  0  0  0  0  0  0  0  0  0
    3.8716   -2.4166    2.0624 H   0  0  0  0  0  0  0  0  0  0  0  0
    2.6059   -1.5614    2.9164 H   0  0  0  0  0  0  0  0  0  0  0  0
   -2.7415   -1.8961   -0.6450 H   0  0  0  0  0  0  0  0  0  0  0  0
   -0.9996   -3.1898    0.6513 H   0  0  0  0  0  0  0  0  0  0  0  0
   -1.0834   -3.1679   -1.1125 H   0  0  0  0  0  0  0  0  0  0  0  0
    0.4108   -3.5869   -0.3185 H   0  0  0  0  0  0  0  0  0  0  0  0
    2.1312    1.2215   -0.7573 H   0  0  0  0  0  0  0  0  0  0  0  0
    2.8356    0.8186   -2.3203 H   0  0  0  0  0  0  0  0  0  0  0  0
    4.3735    0.0563    2.8500 H   0  0  0  0  0  0  0  0  0  0  0  0
    4.7824   -0.8341   -2.4816 H   0  0  0  0  0  0  0  0  0  0  0  0
    5.6768   -1.2795   -1.0204 H   0  0  0  0  0  0  0  0  0  0  0  0
    5.7402    0.3675   -1.6275 H   0  0  0  0  0  0  0  0  0  0  0  0
    5.3247    1.8900    1.8432 H   0  0  0  0  0  0  0  0  0  0  0  0
    6.0554    1.4708    0.3235 H   0  0  0  0  0  0  0  0  0  0  0  0
    4.7144    2.3205   -1.9303 H   0  0  0  0  0  0  0  0  0  0  0  0
    3.2184    3.1656   -1.6571 H   0  0  0  0  0  0  0  0  0  0  0  0
   -3.8635   -0.6636    1.1678 H   0  0  0  0  0  0  0  0  0  0  0  0
   -3.6046    0.8430    0.2883 H   0  0  0  0  0  0  0  0  0  0  0  0
    3.4244    2.9908    0.7607 H   0  0  0  0  0  0  0  0  0  0  0  0
   -2.5584    0.8222   -2.0348 H   0  0  0  0  0  0  0  0  0  0  0  0
   -1.6962   -0.6002   -2.6083 H   0  0  0  0  0  0  0  0  0  0  0  0
   -3.4169   -0.6228   -2.5969 H   0  0  0  0  0  0  0  0  0  0  0  0
   -5.1072   -0.0360   -1.5496 H   0  0  0  0  0  0  0  0  0  0  0  0
   -5.2497   -1.5557   -0.6825 H   0  0  0  0  0  0  0  0  0  0  0  0
   -6.4154   -0.4574    1.1561 H   0  0  0  0  0  0  0  0  0  0  0  0
    5.3968    4.1263    0.9783 H   0  0  0  0  0  0  0  0  0  0  0  0
   -5.2899    1.7335    1.1591 H   0  0  0  0  0  0  0  0  0  0  0  0
   -7.6952   -1.3098   -0.7522 H   0  0  0  0  0  0  0  0  0  0  0  0
   -8.5092    0.0952   -0.0713 H   0  0  0  0  0  0  0  0  0  0  0  0
   -7.5949    0.2434   -1.5848 H   0  0  0  0  0  0  0  0  0  0  0  0
   -6.9912    2.4429   -1.2936 H   0  0  0  0  0  0  0  0  0  0  0  0
   -5.2323    2.1998   -1.2989 H   0  0  0  0  0  0  0  0  0  0  0  0
   -5.9371    3.5288   -0.3891 H   0  0  0  0  0  0  0  0  0  0  0  0
   -8.2892    2.1544    0.9397 H   0  0  0  0  0  0  0  0  0  0  0  0
   -7.4435    1.5001    2.3553 H   0  0  0  0  0  0  0  0  0  0  0  0
   -7.1094    3.1468    1.8023 H   0  0  0  0  0  0  0  0  0  0  0  0
  1 22  1  0  0  0  0
  1 67  1  0  0  0  0
  2  3  1  0  0  0  0
  2  6  1  0  0  0  0
  2  7  1  0  0  0  0
  2 14  1  0  0  0  0
  3  4  1  0  0  0  0
  3  9  1  0  0  0  0
  3 30  1  0  0  0  0
  4  5  1  0  0  0  0
  4 12  1  0  0  0  0
  4 31  1  0  0  0  0
  5  8  1  0  0  0  0
  5 10  1  0  0  0  0
  5 32  1  0  0  0  0
  6 11  1  0  0  0  0
  6 13  1  0  0  0  0
  6 33  1  0  0  0  0
  7 10  1  0  0  0  0
  7 34  1  0  0  0  0
  7 35  1  0  0  0  0
  8 15  1  0  0  0  0
  8 16  1  0  0  0  0
  8 18  1  0  0  0  0
  9 11  1  0  0  0  0
  9 36  1  0  0  0  0
  9 37  1  0  0  0  0
 10 38  1  0  0  0  0
 10 39  1  0  0  0  0
 11 40  1  0  0  0  0
 11 41  1  0  0  0  0
 12 17  1  0  0  0  0
 12 42  1  0  0  0  0
 12 43  1  0  0  0  0
 13 21  1  0  0  0  0
 13 23  1  0  0  0  0
 13 44  1  0  0  0  0
 14 45  1  0  0  0  0
 14 46  1  0  0  0  0
 14 47  1  0  0  0  0
 15 17  2  0  0  0  0
 15 19  1  0  0  0  0
 16 20  1  0  0  0  0
 16 48  1  0  0  0  0
 16 49  1  0  0  0  0
 17 50  1  0  0  0  0
 18 51  1  0  0  0  0
 18 52  1  0  0  0  0
 18 53  1  0  0  0  0
 19 22  1  0  0  0  0
 19 54  1  0  0  0  0
 19 55  1  0  0  0  0
 20 22  1  0  0  0  0
 20 56  1  0  0  0  0
 20 57  1  0  0  0  0
 21 24  1  0  0  0  0
 21 58  1  0  0  0  0
 21 59  1  0  0  0  0
 22 60  1  0  0  0  0
 23 61  1  0  0  0  0
 23 62  1  0  0  0  0
 23 63  1  0  0  0  0
 24 25  1  0  0  0  0
 24 64  1  0  0  0  0
 24 65  1  0  0  0  0
 25 26  1  0  0  0  0
 25 27  1  0  0  0  0
 25 66  1  0  0  0  0
 26 28  1  0  0  0  0
 26 29  1  0  0  0  0
 26 68  1  0  0  0  0
 27 69  1  0  0  0  0
 27 70  1  0  0  0  0
 27 71  1  0  0  0  0
 28 75  1  0  0  0  0
 28 76  1  0  0  0  0
 28 77  1  0  0  0  0
 29 72  1  0  0  0  0
 29 73  1  0  0  0  0
 29 74  1  0  0  0  0
M  END
> <PUBCHEM_COMPOUND_CID>
134688997

> <PUBCHEM_CONFORMER_RMSD>
0.8

> <PUBCHEM_CONFORMER_DIVERSEORDER>
2
9
30
16
6
10
25
18
20
38
17
23
26
31
19
15
34
37
36
21
13
39
27
22
14
5
29
32
33
28
12
11
35
4
3
8
24
1
7

> <PUBCHEM_MMFF94_PARTIAL_CHARGES>
9
1 -0.68
12 0.14
15 -0.28
17 -0.29
19 0.14
22 0.28
50 0.15
67 0.4
8 0.14

> <PUBCHEM_EFFECTIVE_ROTOR_COUNT>
7

> <PUBCHEM_PHARMACOPHORE_FEATURES>
10
1 1 acceptor
1 1 donor
1 23 hydrophobe
1 27 hydrophobe
3 26 28 29 hydrophobe
5 13 21 24 25 26 hydrophobe
5 2 3 6 9 11 rings
6 2 3 4 5 7 10 rings
6 4 5 8 12 15 17 rings
6 8 15 16 19 20 22 rings

> <PUBCHEM_HEAVY_ATOM_COUNT>
29

> <PUBCHEM_ATOM_DEF_STEREO_COUNT>
9

> <PUBCHEM_ATOM_UDEF_STEREO_COUNT>
0

> <PUBCHEM_BOND_DEF_STEREO_COUNT>
0

> <PUBCHEM_BOND_UDEF_STEREO_COUNT>
0

> <PUBCHEM_ISOTOPIC_ATOM_COUNT>
0

> <PUBCHEM_COMPONENT_COUNT>
1

> <PUBCHEM_CACTVS_TAUTO_COUNT>
1

> <PUBCHEM_CONFORMER_ID>
080730E500000002

> <PUBCHEM_MMFF94_ENERGY>
99.0788

> <PUBCHEM_FEATURE_SELFOVERLAP>
50.887

> <PUBCHEM_SHAPE_FINGERPRINT>
10 15 14996290223439876775
10165383 225 17167586008085536142
10554248 39 17844516713977392703
10673678 19 18130510824389195349
11456790 92 17749100051004886576
11578080 2 17895489131831352786
12422481 6 14851603280738387803
12633257 1 15937797731284899412
12661589 4 10954041272632481705
13533116 47 17458621172930826795
13955234 65 18041838390049183459
14211702 104 9799394647535892533
14251764 30 8934733183580717221
14251764 75 18190747625005504612
14347332 77 10735883855124759227
14790565 3 18412827967494513381
15082195 135 17703799080565037225
15183329 4 12751231498565133953
15475509 35 10737281368293811468
15840311 113 18340776940757253357
17857418 61 8790882982745454125
19319366 153 17418372463370210847
19377110 9 17240486880054409735
19438510 23 18264202698554100344
1979834 28 16371009576771799275
19958102 18 10735868449208995633
20567600 247 9439403527788522033
20691028 202 17771069294572780185
20715895 44 18343585157319569352
20775438 99 12247384710031431620
21033648 29 17677623110748731802
21641784 216 16702029651732314985
21792934 111 16443058358660059381
22061861 79 12679459773139403129
22122407 14 18409174320135699761
22149856 69 16371587873756322481
22956985 138 8052694064580940598
23559900 14 18342463621284934734
23569914 152 13251172666894519609
23569914 2 17760035806482561341
2838139 119 18409724088538804189
29717793 49 12535624956138821123
3004659 81 17274825705710226982
3472631 163 18339641243275296470
34797466 226 18272658935367255079
3680242 22 17967811622182706961
392239 28 17095238133870650961
4058900 60 17417542302743678615
4112364 45 18264752415850348504
4340502 62 17240196647027758603
465052 167 12324242758491832466
5104073 3 17749107820437129691
5951187 136 18271252724230467756
59682541 52 13254795720594356321
960060 61 12031784790180132290

> <PUBCHEM_SHAPE_MULTIPOLES>
590.94
17.19
2.97
1.92
32.12
2.42
-0.24
13.41
-1.02
-2.61
0.05
-1.02
-0.46
-1.02

> <PUBCHEM_SHAPE_SELFOVERLAP>
1220.587

> <PUBCHEM_SHAPE_VOLUME>
337.9

> <PUBCHEM_COORDINATE_TYPE>
2
5
10

$$$$
