11264113
  -OEChem-09152005463D

 27 26  0     1  0  0  0  0  0999 V2000
   -5.6643   -0.8021   -0.9043 O   0  0  0  0  0  0  0  0  0  0  0  0
   -7.4728    1.1497    0.0270 O   0  0  0  0  0  0  0  0  0  0  0  0
   -5.3070    0.0717    0.1653 C   0  0  1  0  0  0  0  0  0  0  0  0
   -3.7866    0.2706    0.1543 C   0  0  0  0  0  0  0  0  0  0  0  0
   -6.0706    1.3863    0.0124 C   0  0  0  0  0  0  0  0  0  0  0  0
   -3.0327   -1.0584    0.2691 C   0  0  0  0  0  0  0  0  0  0  0  0
   -1.5793   -0.8465    0.2152 C   0  0  0  0  0  0  0  0  0  0  0  0
   -0.3917   -0.6752    0.1710 C   0  0  0  0  0  0  0  0  0  0  0  0
    0.9652   -0.4781    0.1206 C   0  0  0  0  0  0  0  0  0  0  0  0
    2.1521   -0.3053    0.0769 C   0  0  0  0  0  0  0  0  0  0  0  0
    8.6876    0.6393   -0.1542 C   0  0  0  0  0  0  0  0  0  0  0  0
    3.5091   -0.1078    0.0277 C   0  0  0  0  0  0  0  0  0  0  0  0
    7.2411    0.4312   -0.1037 C   0  0  0  0  0  0  0  0  0  0  0  0
    4.6963    0.0644   -0.0148 C   0  0  0  0  0  0  0  0  0  0  0  0
    6.0536    0.2604   -0.0626 C   0  0  0  0  0  0  0  0  0  0  0  0
   -5.6184   -0.4248    1.0911 H   0  0  0  0  0  0  0  0  0  0  0  0
   -3.4957    0.9393    0.9742 H   0  0  0  0  0  0  0  0  0  0  0  0
   -3.4903    0.7634   -0.7816 H   0  0  0  0  0  0  0  0  0  0  0  0
   -5.8287    1.8640   -0.9430 H   0  0  0  0  0  0  0  0  0  0  0  0
   -5.8248    2.0740    0.8278 H   0  0  0  0  0  0  0  0  0  0  0  0
   -3.3216   -1.7346   -0.5432 H   0  0  0  0  0  0  0  0  0  0  0  0
   -3.2982   -1.5534    1.2104 H   0  0  0  0  0  0  0  0  0  0  0  0
   -5.4025   -0.3756   -1.7382 H   0  0  0  0  0  0  0  0  0  0  0  0
   -7.9088    2.0131   -0.0727 H   0  0  0  0  0  0  0  0  0  0  0  0
    9.1474   -0.0051   -0.9095 H   0  0  0  0  0  0  0  0  0  0  0  0
    9.1476    0.4112    0.8121 H   0  0  0  0  0  0  0  0  0  0  0  0
    8.9228    1.6779   -0.4053 H   0  0  0  0  0  0  0  0  0  0  0  0
  1  3  1  0  0  0  0
  1 23  1  0  0  0  0
  2  5  1  0  0  0  0
  2 24  1  0  0  0  0
  3  4  1  0  0  0  0
  3  5  1  0  0  0  0
  3 16  1  0  0  0  0
  4  6  1  0  0  0  0
  4 17  1  0  0  0  0
  4 18  1  0  0  0  0
  5 19  1  0  0  0  0
  5 20  1  0  0  0  0
  6  7  1  0  0  0  0
  6 21  1  0  0  0  0
  6 22  1  0  0  0  0
  7  8  3  0  0  0  0
  8  9  1  0  0  0  0
  9 10  3  0  0  0  0
 10 12  1  0  0  0  0
 11 13  1  0  0  0  0
 11 25  1  0  0  0  0
 11 26  1  0  0  0  0
 11 27  1  0  0  0  0
 12 14  3  0  0  0  0
 13 15  3  0  0  0  0
 14 15  1  0  0  0  0
M  END
> <PUBCHEM_COMPOUND_CID>
11264113

> <PUBCHEM_CONFORMER_RMSD>
0.6

> <PUBCHEM_CONFORMER_DIVERSEORDER>
1
9
6
4
3
10
12
8
2
13
7
5
11

> <PUBCHEM_MMFF94_PARTIAL_CHARGES>
10
1 -0.68
11 0.2
13 -0.2
2 -0.68
23 0.4
24 0.4
3 0.28
5 0.28
6 0.2
7 -0.2

> <PUBCHEM_EFFECTIVE_ROTOR_COUNT>
3

> <PUBCHEM_PHARMACOPHORE_FEATURES>
5
1 1 acceptor
1 1 donor
1 11 hydrophobe
1 2 acceptor
1 2 donor

> <PUBCHEM_HEAVY_ATOM_COUNT>
15

> <PUBCHEM_ATOM_DEF_STEREO_COUNT>
0

> <PUBCHEM_ATOM_UDEF_STEREO_COUNT>
1

> <PUBCHEM_BOND_DEF_STEREO_COUNT>
0

> <PUBCHEM_BOND_UDEF_STEREO_COUNT>
0

> <PUBCHEM_ISOTOPIC_ATOM_COUNT>
0

> <PUBCHEM_COMPONENT_COUNT>
1

> <PUBCHEM_CACTVS_TAUTO_COUNT>
1

> <PUBCHEM_CONFORMER_ID>
00ABE07100000001

> <PUBCHEM_MMFF94_ENERGY>
7.0189

> <PUBCHEM_FEATURE_SELFOVERLAP>
25.378

> <PUBCHEM_SHAPE_FINGERPRINT>
10066227 49 16773527568898555142
10730089 173 18413108342606356825
11315181 36 17131837594414623499
12091667 2 18413390955991968083
125118 31 18336266834275781400
12714333 28 18201720647654229107
13073987 5 13768189577061049602
13288520 33 10447926166583463139
13533116 47 17968648334016311778
13964095 4 17988925573945814326
13968360 50 16487260941714334350
14123256 10 13326855530476725804
1420 363 10737283546074001258
14251764 18 18113896069959452922
14251764 46 18410575093253039491
14729087 3 18408884031606184320
15048467 5 18334295361705897680
155225 1 18337108978762876013
15690457 1 11455893538610305284
15716309 27 11097860696063475531
17834072 8 17703790327358143824
17834076 25 18334575759189291850
18006028 8 10663819676416546306
20281389 69 18040432179364939172
20621476 38 9799424317317386764
20621476 66 18041001765142942594
20621476 8 18260267422094786478
20735858 18 12829207771868525048
21130983 4 17676209087319146796
21150785 3 15051733088590798304
21267235 1 10665224848535667058
21304253 13 18114181956105460620
220451 1 16226043423295309442
22224240 67 15213020470343183152
22288116 15 17988066886352517847
23035841 295 9943806690190398044
23402539 116 18342453768049026711
23521765 1 18342458153880386274
246663 6 8574712412344674912
28498 318 18272092665815667974
33532 11 9655308025403436804
33684 2 18131351908531077146
57583515 80 18413390951433081394
59567204 34 18411982421510060073
59682541 35 11458431249885471236
8209 1 18411136939405120994

> <PUBCHEM_SHAPE_MULTIPOLES>
296.95
25.38
1.07
0.66
17.61
0.12
-0.03
10.61
-1.88
-1.52
0.01
-0.21
-0.04
-0.25

> <PUBCHEM_SHAPE_SELFOVERLAP>
569.782

> <PUBCHEM_SHAPE_VOLUME>
177.3

> <PUBCHEM_COORDINATE_TYPE>
2
5
10

$$$$
