14213549
  -OEChem-09152009473D

 54 56  0     1  0  0  0  0  0999 V2000
   -2.1091   -0.8767    0.0554 O   0  0  0  0  0  0  0  0  0  0  0  0
   -5.3432   -3.2882   -0.8745 O   0  0  0  0  0  0  0  0  0  0  0  0
   -3.2362    1.0405   -0.6949 O   0  0  0  0  0  0  0  0  0  0  0  0
   -3.3021   -4.2382    0.9360 O   0  0  0  0  0  0  0  0  0  0  0  0
   -3.8813   -1.2614   -2.1132 O   0  0  0  0  0  0  0  0  0  0  0  0
    0.0725   -1.7250    1.4778 O   0  0  0  0  0  0  0  0  0  0  0  0
   -0.5809    1.0631   -1.4399 O   0  0  0  0  0  0  0  0  0  0  0  0
   -4.1525    2.8657    1.1778 O   0  0  0  0  0  0  0  0  0  0  0  0
    1.7433    3.9230   -0.8588 O   0  0  0  0  0  0  0  0  0  0  0  0
    4.0276   -3.1115    0.2296 O   0  0  0  0  0  0  0  0  0  0  0  0
    6.7845   -2.7607    0.2200 O   0  0  0  0  0  0  0  0  0  0  0  0
   -4.5203   -2.4270   -0.0925 C   0  0  1  0  0  0  0  0  0  0  0  0
   -3.1534   -3.0855    0.1111 C   0  0  1  0  0  0  0  0  0  0  0  0
   -2.1814   -2.1064    0.7844 C   0  0  1  0  0  0  0  0  0  0  0  0
   -4.3739   -1.0714   -0.7832 C   0  0  1  0  0  0  0  0  0  0  0  0
   -3.3698   -0.2073   -0.0209 C   0  0  1  0  0  0  0  0  0  0  0  0
   -0.7699   -2.6798    0.8584 C   0  0  0  0  0  0  0  0  0  0  0  0
   -2.3755    1.9498   -0.1409 C   0  0  0  0  0  0  0  0  0  0  0  0
   -1.0324    1.9612   -0.5175 C   0  0  0  0  0  0  0  0  0  0  0  0
   -2.8433    2.8656    0.8014 C   0  0  0  0  0  0  0  0  0  0  0  0
   -0.1571    2.8882    0.0485 C   0  0  0  0  0  0  0  0  0  0  0  0
   -1.9680    3.7927    1.3673 C   0  0  0  0  0  0  0  0  0  0  0  0
   -0.6250    3.8040    0.9909 C   0  0  0  0  0  0  0  0  0  0  0  0
    1.2492    2.9172   -0.3297 C   0  0  0  0  0  0  0  0  0  0  0  0
    2.0812    1.6892   -0.0930 C   0  0  0  0  0  0  0  0  0  0  0  0
    3.3734    1.6619   -0.4513 C   0  0  0  0  0  0  0  0  0  0  0  0
    4.2640    0.5015   -0.2744 C   0  0  0  0  0  0  0  0  0  0  0  0
    3.7236   -0.7731   -0.1045 C   0  0  0  0  0  0  0  0  0  0  0  0
    5.6477    0.6775   -0.2781 C   0  0  0  0  0  0  0  0  0  0  0  0
    4.5668   -1.8718    0.0618 C   0  0  0  0  0  0  0  0  0  0  0  0
    6.4909   -0.4211   -0.1116 C   0  0  0  0  0  0  0  0  0  0  0  0
    5.9505   -1.6958    0.0582 C   0  0  0  0  0  0  0  0  0  0  0  0
   -5.0184   -2.3028    0.8771 H   0  0  0  0  0  0  0  0  0  0  0  0
   -2.7586   -3.4294   -0.8520 H   0  0  0  0  0  0  0  0  0  0  0  0
   -5.3423   -0.5701   -0.8811 H   0  0  0  0  0  0  0  0  0  0  0  0
   -2.5061   -1.8768    1.8086 H   0  0  0  0  0  0  0  0  0  0  0  0
   -3.7405   -0.0181    0.9958 H   0  0  0  0  0  0  0  0  0  0  0  0
   -0.3743   -2.8704   -0.1448 H   0  0  0  0  0  0  0  0  0  0  0  0
   -0.7418   -3.6057    1.4407 H   0  0  0  0  0  0  0  0  0  0  0  0
   -6.1986   -2.8424   -0.9978 H   0  0  0  0  0  0  0  0  0  0  0  0
   -3.6472   -3.9489    1.7979 H   0  0  0  0  0  0  0  0  0  0  0  0
   -2.9463   -1.5215   -2.0594 H   0  0  0  0  0  0  0  0  0  0  0  0
    0.9664   -2.1066    1.5071 H   0  0  0  0  0  0  0  0  0  0  0  0
   -2.3190    4.5115    2.1028 H   0  0  0  0  0  0  0  0  0  0  0  0
    0.0469    4.5306    1.4410 H   0  0  0  0  0  0  0  0  0  0  0  0
   -1.3299    0.5171   -1.7348 H   0  0  0  0  0  0  0  0  0  0  0  0
   -4.2925    3.5663    1.8377 H   0  0  0  0  0  0  0  0  0  0  0  0
    1.5838    0.8588    0.3949 H   0  0  0  0  0  0  0  0  0  0  0  0
    3.8341    2.5335   -0.9099 H   0  0  0  0  0  0  0  0  0  0  0  0
    2.6511   -0.9457   -0.1191 H   0  0  0  0  0  0  0  0  0  0  0  0
    6.0864    1.6638   -0.4081 H   0  0  0  0  0  0  0  0  0  0  0  0
    7.5671   -0.2698   -0.1160 H   0  0  0  0  0  0  0  0  0  0  0  0
    3.0577   -3.0427    0.2088 H   0  0  0  0  0  0  0  0  0  0  0  0
    7.7054   -2.4492    0.1905 H   0  0  0  0  0  0  0  0  0  0  0  0
  1 14  1  0  0  0  0
  1 16  1  0  0  0  0
  2 12  1  0  0  0  0
  2 40  1  0  0  0  0
  3 16  1  0  0  0  0
  3 18  1  0  0  0  0
  4 13  1  0  0  0  0
  4 41  1  0  0  0  0
  5 15  1  0  0  0  0
  5 42  1  0  0  0  0
  6 17  1  0  0  0  0
  6 43  1  0  0  0  0
  7 19  1  0  0  0  0
  7 46  1  0  0  0  0
  8 20  1  0  0  0  0
  8 47  1  0  0  0  0
  9 24  2  0  0  0  0
 10 30  1  0  0  0  0
 10 53  1  0  0  0  0
 11 32  1  0  0  0  0
 11 54  1  0  0  0  0
 12 13  1  0  0  0  0
 12 15  1  0  0  0  0
 12 33  1  0  0  0  0
 13 14  1  0  0  0  0
 13 34  1  0  0  0  0
 14 17  1  0  0  0  0
 14 36  1  0  0  0  0
 15 16  1  0  0  0  0
 15 35  1  0  0  0  0
 16 37  1  0  0  0  0
 17 38  1  0  0  0  0
 17 39  1  0  0  0  0
 18 19  1  0  0  0  0
 18 20  2  0  0  0  0
 19 21  2  0  0  0  0
 20 22  1  0  0  0  0
 21 23  1  0  0  0  0
 21 24  1  0  0  0  0
 22 23  2  0  0  0  0
 22 44  1  0  0  0  0
 23 45  1  0  0  0  0
 24 25  1  0  0  0  0
 25 26  2  0  0  0  0
 25 48  1  0  0  0  0
 26 27  1  0  0  0  0
 26 49  1  0  0  0  0
 27 28  2  0  0  0  0
 27 29  1  0  0  0  0
 28 30  1  0  0  0  0
 28 50  1  0  0  0  0
 29 31  2  0  0  0  0
 29 51  1  0  0  0  0
 30 32  2  0  0  0  0
 31 32  1  0  0  0  0
 31 52  1  0  0  0  0
M  END
> <PUBCHEM_COMPOUND_CID>
14213549

> <PUBCHEM_CONFORMER_RMSD>
1.4

> <PUBCHEM_CONFORMER_DIVERSEORDER>
1
117
44
114
30
112
88
57
78
92
21
22
126
41
89
72
14
137
16
105
66
97
35
63
133
23
28
129
145
91
81
121
111
6
108
12
5
98
29
20
122
118
15
128
53
52
119
87
9
62
79
61
59
113
7
48
60
146
24
2
49
123
99
132
31
36
26
67
25
55
80
115
51
32
38
143
140
134
40
8
138
43
110
125
82
39
4
11
69
94
68
33
95
3
139
45
65
17
74
50
84
120
127
13
106
100
18
142
109
58
34
136
124
70
130
96
42
135
10
107
103
86
104
19
37
54
64
83
77
90
75
141
131
101
116
71
47
93
76
73
27
56
46
102
144
85

> <PUBCHEM_MMFF94_PARTIAL_CHARGES>
47
1 -0.56
10 -0.53
11 -0.53
12 0.28
13 0.28
14 0.28
15 0.28
16 0.56
17 0.28
18 0.08
19 0.08
2 -0.68
20 0.08
21 0.09
22 -0.15
23 -0.15
24 0.47
25 -0.14
26 -0.18
27 0.03
28 -0.15
29 -0.15
3 -0.36
30 0.08
31 -0.15
32 0.08
4 -0.68
40 0.4
41 0.4
42 0.4
43 0.4
44 0.15
45 0.15
46 0.45
47 0.45
48 0.15
49 0.15
5 -0.68
50 0.15
51 0.15
52 0.15
53 0.45
54 0.45
6 -0.68
7 -0.53
8 -0.53
9 -0.57

> <PUBCHEM_EFFECTIVE_ROTOR_COUNT>
7.2

> <PUBCHEM_PHARMACOPHORE_FEATURES>
18
1 1 acceptor
1 10 donor
1 11 donor
1 2 acceptor
1 2 donor
1 3 acceptor
1 4 acceptor
1 4 donor
1 5 acceptor
1 5 donor
1 6 acceptor
1 6 donor
1 7 donor
1 8 donor
1 9 acceptor
6 1 12 13 14 15 16 rings
6 18 19 20 21 22 23 rings
6 27 28 29 30 31 32 rings

> <PUBCHEM_HEAVY_ATOM_COUNT>
32

> <PUBCHEM_ATOM_DEF_STEREO_COUNT>
0

> <PUBCHEM_ATOM_UDEF_STEREO_COUNT>
5

> <PUBCHEM_BOND_DEF_STEREO_COUNT>
1

> <PUBCHEM_BOND_UDEF_STEREO_COUNT>
0

> <PUBCHEM_ISOTOPIC_ATOM_COUNT>
0

> <PUBCHEM_COMPONENT_COUNT>
1

> <PUBCHEM_CACTVS_TAUTO_COUNT>
183

> <PUBCHEM_CONFORMER_ID>
00D8E1AD00000001

> <PUBCHEM_MMFF94_ENERGY>
106.2942

> <PUBCHEM_FEATURE_SELFOVERLAP>
91.429

> <PUBCHEM_SHAPE_FINGERPRINT>
10190206 1 17829079790015332564
10305334 12 18125159329534976157
10622 236 18410004438539778612
10693767 8 17839163458124200847
10864689 126 17330003391406713454
1100329 8 18411422778707479721
11513181 2 18128820742311915142
12107183 9 18270415961811837001
13165053 137 18195804072580785491
13631057 29 18411704326888466916
14659021 117 18409722933604311824
14790565 3 17691128132399475897
14844126 61 18060412500217008285
14866123 147 18412269415624455361
14931854 50 18259979383970470846
15082195 135 17896612855092161924
15250474 111 18337112268264135060
15320467 1 18049161069129195394
15351339 4 18114728404377675851
15352361 1 18409448120063282972
15728490 83 18336274491305496555
15968369 26 17470994243861398697
17627616 140 17752758039890516794
17909252 39 18195250138169069200
19315092 285 16771536537338287443
20764821 26 18263375719844115966
20775438 99 17190065737410355487
20775530 9 18336539516483239776
21703447 108 18127686239485390440
23559900 14 18265042712172835365
4073 2 18412545406186892080
4435113 14 17485100605059240726
4616759 239 17915163630544555784
463206 1 18334864870649711352
484985 159 18409729521930850829
5104073 3 18059853948679746712
5309563 4 18125163985227277583
57527585 103 17387443244135267763
59444896 2 16833438655916146381
5951187 136 10481172631857970830
6376802 90 18189591939395346180
6431902 208 18410853291623546582
7970288 3 18268427026121939207

> <PUBCHEM_SHAPE_MULTIPOLES>
593.98
13.52
6.07
1.12
18.8
0.9
-0.09
-12.16
-1.34
-4.61
1.53
-1.1
0.12
-1.71

> <PUBCHEM_SHAPE_SELFOVERLAP>
1279.75

> <PUBCHEM_SHAPE_VOLUME>
322.8

> <PUBCHEM_COORDINATE_TYPE>
2
5
10

$$$$
