6436064
  -OEChem-09152015102D

 73 72  0     0  0  0  0  0  0999 V2000
    8.0622   -2.2500    0.0000 O   0  0  0  0  0  0  0  0  0  0  0  0
    5.4641   -2.7500    0.0000 O   0  0  0  0  0  0  0  0  0  0  0  0
    8.9282   -3.7500    0.0000 O   0  0  0  0  0  0  0  0  0  0  0  0
   18.4545    0.7500    0.0000 C   0  0  0  0  0  0  0  0  0  0  0  0
   17.5885    0.2500    0.0000 C   0  0  0  0  0  0  0  0  0  0  0  0
   13.2583   -2.2500    0.0000 C   0  0  0  0  0  0  0  0  0  0  0  0
   12.3923   -2.7500    0.0000 C   0  0  0  0  0  0  0  0  0  0  0  0
   18.4545    1.7500    0.0000 C   0  0  0  0  0  0  0  0  0  0  0  0
   17.5885   -0.7500    0.0000 C   0  0  0  0  0  0  0  0  0  0  0  0
   14.1244   -2.7500    0.0000 C   0  0  0  0  0  0  0  0  0  0  0  0
   11.5263   -2.2500    0.0000 C   0  0  0  0  0  0  0  0  0  0  0  0
   19.3205    2.2500    0.0000 C   0  0  0  0  0  0  0  0  0  0  0  0
   16.7224   -1.2500    0.0000 C   0  0  0  0  0  0  0  0  0  0  0  0
   14.9904   -2.2500    0.0000 C   0  0  0  0  0  0  0  0  0  0  0  0
   10.6603   -2.7500    0.0000 C   0  0  0  0  0  0  0  0  0  0  0  0
   19.3205    3.2500    0.0000 C   0  0  0  0  0  0  0  0  0  0  0  0
   16.7224   -2.2500    0.0000 C   0  0  0  0  0  0  0  0  0  0  0  0
   15.8564   -2.7500    0.0000 C   0  0  0  0  0  0  0  0  0  0  0  0
    9.7942   -2.2500    0.0000 C   0  0  0  0  0  0  0  0  0  0  0  0
   20.1865    3.7500    0.0000 C   0  0  0  0  0  0  0  0  0  0  0  0
    8.9282   -2.7500    0.0000 C   0  0  0  0  0  0  0  0  0  0  0  0
    7.1962   -2.7500    0.0000 C   0  0  0  0  0  0  0  0  0  0  0  0
    6.3301   -2.2500    0.0000 C   0  0  0  0  0  0  0  0  0  0  0  0
    3.7320   -2.7500    0.0000 C   0  0  0  0  0  0  0  0  0  0  0  0
    4.5981   -2.2500    0.0000 C   0  0  0  0  0  0  0  0  0  0  0  0
    2.8660   -2.2500    0.0000 C   0  0  0  0  0  0  0  0  0  0  0  0
    2.0000   -2.7500    0.0000 C   0  0  0  0  0  0  0  0  0  0  0  0
   18.6665    0.1674    0.0000 H   0  0  0  0  0  0  0  0  0  0  0  0
   19.0651    0.8577    0.0000 H   0  0  0  0  0  0  0  0  0  0  0  0
   17.3764    0.8326    0.0000 H   0  0  0  0  0  0  0  0  0  0  0  0
   16.9779    0.1423    0.0000 H   0  0  0  0  0  0  0  0  0  0  0  0
   11.9938   -3.2250    0.0000 H   0  0  0  0  0  0  0  0  0  0  0  0
   12.7908   -3.2250    0.0000 H   0  0  0  0  0  0  0  0  0  0  0  0
   13.6569   -1.7750    0.0000 H   0  0  0  0  0  0  0  0  0  0  0  0
   12.8598   -1.7750    0.0000 H   0  0  0  0  0  0  0  0  0  0  0  0
   18.2424    2.3326    0.0000 H   0  0  0  0  0  0  0  0  0  0  0  0
   17.8439    1.6423    0.0000 H   0  0  0  0  0  0  0  0  0  0  0  0
   17.8005   -1.3326    0.0000 H   0  0  0  0  0  0  0  0  0  0  0  0
   18.1990   -0.6423    0.0000 H   0  0  0  0  0  0  0  0  0  0  0  0
   13.7258   -3.2250    0.0000 H   0  0  0  0  0  0  0  0  0  0  0  0
   14.5229   -3.2250    0.0000 H   0  0  0  0  0  0  0  0  0  0  0  0
   11.9248   -1.7750    0.0000 H   0  0  0  0  0  0  0  0  0  0  0  0
   11.1278   -1.7750    0.0000 H   0  0  0  0  0  0  0  0  0  0  0  0
   19.5326    1.6674    0.0000 H   0  0  0  0  0  0  0  0  0  0  0  0
   19.9311    2.3577    0.0000 H   0  0  0  0  0  0  0  0  0  0  0  0
   16.5104   -0.6674    0.0000 H   0  0  0  0  0  0  0  0  0  0  0  0
   16.1119   -1.3577    0.0000 H   0  0  0  0  0  0  0  0  0  0  0  0
   15.3889   -1.7750    0.0000 H   0  0  0  0  0  0  0  0  0  0  0  0
   14.5919   -1.7750    0.0000 H   0  0  0  0  0  0  0  0  0  0  0  0
   10.2617   -3.2250    0.0000 H   0  0  0  0  0  0  0  0  0  0  0  0
   11.0588   -3.2250    0.0000 H   0  0  0  0  0  0  0  0  0  0  0  0
   19.1085    3.8326    0.0000 H   0  0  0  0  0  0  0  0  0  0  0  0
   18.7099    3.1423    0.0000 H   0  0  0  0  0  0  0  0  0  0  0  0
   17.2594   -2.5600    0.0000 H   0  0  0  0  0  0  0  0  0  0  0  0
   15.8564   -3.3700    0.0000 H   0  0  0  0  0  0  0  0  0  0  0  0
   10.1928   -1.7750    0.0000 H   0  0  0  0  0  0  0  0  0  0  0  0
    9.3957   -1.7750    0.0000 H   0  0  0  0  0  0  0  0  0  0  0  0
   20.4965    3.2131    0.0000 H   0  0  0  0  0  0  0  0  0  0  0  0
   20.7235    4.0600    0.0000 H   0  0  0  0  0  0  0  0  0  0  0  0
   19.8765    4.2869    0.0000 H   0  0  0  0  0  0  0  0  0  0  0  0
    6.7976   -3.2250    0.0000 H   0  0  0  0  0  0  0  0  0  0  0  0
    7.5947   -3.2250    0.0000 H   0  0  0  0  0  0  0  0  0  0  0  0
    6.7287   -1.7750    0.0000 H   0  0  0  0  0  0  0  0  0  0  0  0
    5.9316   -1.7750    0.0000 H   0  0  0  0  0  0  0  0  0  0  0  0
    3.3335   -3.2250    0.0000 H   0  0  0  0  0  0  0  0  0  0  0  0
    4.1306   -3.2250    0.0000 H   0  0  0  0  0  0  0  0  0  0  0  0
    4.9966   -1.7750    0.0000 H   0  0  0  0  0  0  0  0  0  0  0  0
    4.1996   -1.7750    0.0000 H   0  0  0  0  0  0  0  0  0  0  0  0
    3.2646   -1.7750    0.0000 H   0  0  0  0  0  0  0  0  0  0  0  0
    2.4675   -1.7750    0.0000 H   0  0  0  0  0  0  0  0  0  0  0  0
    1.6900   -2.2131    0.0000 H   0  0  0  0  0  0  0  0  0  0  0  0
    1.4631   -3.0600    0.0000 H   0  0  0  0  0  0  0  0  0  0  0  0
    2.3100   -3.2869    0.0000 H   0  0  0  0  0  0  0  0  0  0  0  0
  1 21  1  0  0  0  0
  1 22  1  0  0  0  0
  2 23  1  0  0  0  0
  2 25  1  0  0  0  0
  3 21  2  0  0  0  0
  4  5  1  0  0  0  0
  4  8  1  0  0  0  0
  4 28  1  0  0  0  0
  4 29  1  0  0  0  0
  5  9  1  0  0  0  0
  5 30  1  0  0  0  0
  5 31  1  0  0  0  0
  6  7  1  0  0  0  0
  6 10  1  0  0  0  0
  6 34  1  0  0  0  0
  6 35  1  0  0  0  0
  7 11  1  0  0  0  0
  7 32  1  0  0  0  0
  7 33  1  0  0  0  0
  8 12  1  0  0  0  0
  8 36  1  0  0  0  0
  8 37  1  0  0  0  0
  9 13  1  0  0  0  0
  9 38  1  0  0  0  0
  9 39  1  0  0  0  0
 10 14  1  0  0  0  0
 10 40  1  0  0  0  0
 10 41  1  0  0  0  0
 11 15  1  0  0  0  0
 11 42  1  0  0  0  0
 11 43  1  0  0  0  0
 12 16  1  0  0  0  0
 12 44  1  0  0  0  0
 12 45  1  0  0  0  0
 13 17  1  0  0  0  0
 13 46  1  0  0  0  0
 13 47  1  0  0  0  0
 14 18  1  0  0  0  0
 14 48  1  0  0  0  0
 14 49  1  0  0  0  0
 15 19  1  0  0  0  0
 15 50  1  0  0  0  0
 15 51  1  0  0  0  0
 16 20  1  0  0  0  0
 16 52  1  0  0  0  0
 16 53  1  0  0  0  0
 17 18  2  0  0  0  0
 17 54  1  0  0  0  0
 18 55  1  0  0  0  0
 19 21  1  0  0  0  0
 19 56  1  0  0  0  0
 19 57  1  0  0  0  0
 20 58  1  0  0  0  0
 20 59  1  0  0  0  0
 20 60  1  0  0  0  0
 22 23  1  0  0  0  0
 22 61  1  0  0  0  0
 22 62  1  0  0  0  0
 23 63  1  0  0  0  0
 23 64  1  0  0  0  0
 24 25  1  0  0  0  0
 24 26  1  0  0  0  0
 24 65  1  0  0  0  0
 24 66  1  0  0  0  0
 25 67  1  0  0  0  0
 25 68  1  0  0  0  0
 26 27  1  0  0  0  0
 26 69  1  0  0  0  0
 26 70  1  0  0  0  0
 27 71  1  0  0  0  0
 27 72  1  0  0  0  0
 27 73  1  0  0  0  0
M  END
> <PUBCHEM_COMPOUND_CID>
6436064

> <PUBCHEM_COMPOUND_CANONICALIZED>
1

> <PUBCHEM_CACTVS_COMPLEXITY>
326

> <PUBCHEM_CACTVS_HBOND_ACCEPTOR>
3

> <PUBCHEM_CACTVS_HBOND_DONOR>
0

> <PUBCHEM_CACTVS_ROTATABLE_BOND>
22

> <PUBCHEM_CACTVS_SUBSKEYS>
AAADcfB4MAAAAAAAAAAAAAAAAAAAAAAAAAAAAAAAAAAAAAAAAAAAGgAAAAAACACggAICCAAABACIACDSCAAAAAAgAAAICAEAAAgBABIAAQACAAAEgAAKAAOIyKCAAAAAAAAAAAAAAAAAAAAAAAAAAAAAAA==

> <PUBCHEM_IUPAC_OPENEYE_NAME>
2-butoxyethyl (Z)-octadec-9-enoate

> <PUBCHEM_IUPAC_CAS_NAME>
(Z)-9-octadecenoic acid 2-butoxyethyl ester

> <PUBCHEM_IUPAC_NAME_MARKUP>
2-butoxyethyl (<I>Z</I>)-octadec-9-enoate

> <PUBCHEM_IUPAC_NAME>
2-butoxyethyl (Z)-octadec-9-enoate

> <PUBCHEM_IUPAC_SYSTEMATIC_NAME>
2-butoxyethyl (Z)-octadec-9-enoate

> <PUBCHEM_IUPAC_TRADITIONAL_NAME>
(Z)-octadec-9-enoic acid 2-butoxyethyl ester

> <PUBCHEM_IUPAC_INCHI>
InChI=1S/C24H46O3/c1-3-5-7-8-9-10-11-12-13-14-15-16-17-18-19-20-24(25)27-23-22-26-21-6-4-2/h12-13H,3-11,14-23H2,1-2H3/b13-12-

> <PUBCHEM_IUPAC_INCHIKEY>
LBUOSVPOVIEPLJ-SEYXRHQNSA-N

> <PUBCHEM_XLOGP3_AA>
8.7

> <PUBCHEM_EXACT_MASS>
382.344695

> <PUBCHEM_MOLECULAR_FORMULA>
C24H46O3

> <PUBCHEM_MOLECULAR_WEIGHT>
382.6

> <PUBCHEM_OPENEYE_CAN_SMILES>
CCCCCCCCC=CCCCCCCCC(=O)OCCOCCCC

> <PUBCHEM_OPENEYE_ISO_SMILES>
CCCCCCCC/C=C\CCCCCCCC(=O)OCCOCCCC

> <PUBCHEM_CACTVS_TPSA>
35.5

> <PUBCHEM_MONOISOTOPIC_WEIGHT>
382.344695

> <PUBCHEM_TOTAL_CHARGE>
0

> <PUBCHEM_HEAVY_ATOM_COUNT>
27

> <PUBCHEM_ATOM_DEF_STEREO_COUNT>
0

> <PUBCHEM_ATOM_UDEF_STEREO_COUNT>
0

> <PUBCHEM_BOND_DEF_STEREO_COUNT>
1

> <PUBCHEM_BOND_UDEF_STEREO_COUNT>
0

> <PUBCHEM_ISOTOPIC_ATOM_COUNT>
0

> <PUBCHEM_COMPONENT_COUNT>
1

> <PUBCHEM_CACTVS_TAUTO_COUNT>
-1

> <PUBCHEM_COORDINATE_TYPE>
1
5
255

$$$$
