101838305
  -OEChem-09152017062D

139145  0     1  0  0  0  0  0999 V2000
   13.9657   -2.4261    0.0000 O   0  0  0  0  0  0  0  0  0  0  0  0
   14.9376   -2.6683    0.0000 O   0  0  0  0  0  0  0  0  0  0  0  0
   13.4970   -1.6823    0.0000 O   0  0  0  0  0  0  0  0  0  0  0  0
   12.1256   -2.7401    0.0000 O   0  0  0  0  0  0  0  0  0  0  0  0
    9.5836   -0.7772    0.0000 O   0  0  0  0  0  0  0  0  0  0  0  0
   11.3130   -0.6811    0.0000 O   0  0  0  0  0  0  0  0  0  0  0  0
   10.9246   -3.3730    0.0000 N   0  0  0  0  0  0  0  0  0  0  0  0
   14.0963   -5.8551    0.0000 N   0  0  0  0  0  0  0  0  0  0  0  0
    8.8113   -7.0828    0.0000 N   0  0  0  0  0  0  0  0  0  0  0  0
   12.1093   -8.6202    0.0000 N   0  0  0  0  0  0  0  0  0  0  0  0
   13.7274   -3.3990    0.0000 C   0  0  1  0  0  0  0  0  0  0  0  0
   14.6913   -3.6392    0.0000 C   0  0  2  0  0  0  0  0  0  0  0  0
   13.2166   -4.2509    0.0000 C   0  0  0  0  0  0  0  0  0  0  0  0
   11.4795   -3.6765    0.0000 C   0  0  2  0  0  0  0  0  0  0  0  0
   14.7426   -4.6312    0.0000 C   0  0  0  0  0  0  0  0  0  0  0  0
   12.4025   -3.7989    0.0000 C   0  0  0  0  0  0  0  0  0  0  0  0
   13.8086   -4.9695    0.0000 C   0  0  0  0  0  0  0  0  0  0  0  0
   10.5758   -3.9005    0.0000 C   0  0  1  0  0  0  0  0  0  0  0  0
   15.0127   -5.9107    0.0000 C   0  0  0  0  0  0  0  0  0  0  0  0
   11.4240   -2.6780    0.0000 C   0  0  0  0  0  0  0  0  0  0  0  0
   13.1167   -2.6071    0.0000 C   0  0  0  0  0  0  0  0  0  0  0  0
    9.8168   -4.4399    0.0000 C   0  0  0  0  0  0  0  0  0  0  0  0
   14.0398   -6.7844    0.0000 C   0  0  0  0  0  0  0  0  0  0  0  0
   10.1585   -2.9917    0.0000 C   0  0  0  0  0  0  0  0  0  0  0  0
   10.5316   -2.2268    0.0000 C   0  0  0  0  0  0  0  0  0  0  0  0
   15.9634   -6.2210    0.0000 C   0  0  0  0  0  0  0  0  0  0  0  0
    9.3081   -5.2197    0.0000 C   0  0  0  0  0  0  0  0  0  0  0  0
   13.6468   -7.6286    0.0000 C   0  0  0  0  0  0  0  0  0  0  0  0
    9.1203   -6.1317    0.0000 C   0  0  0  0  0  0  0  0  0  0  0  0
   12.9721   -8.2702    0.0000 C   0  0  0  0  0  0  0  0  0  0  0  0
   10.4761   -1.2284    0.0000 C   0  0  0  0  0  0  0  0  0  0  0  0
   14.4881   -1.5493    0.0000 C   0  0  0  0  0  0  0  0  0  0  0  0
   10.1203   -6.1317    0.0000 C   0  0  0  0  0  0  0  0  0  0  0  0
   12.7382   -9.2342    0.0000 C   0  0  0  0  0  0  0  0  0  0  0  0
    9.6203   -7.6705    0.0000 C   0  0  0  0  0  0  0  0  0  0  0  0
   11.1782   -8.6298    0.0000 C   0  0  0  0  0  0  0  0  0  0  0  0
   11.7656   -9.4292    0.0000 C   0  0  0  0  0  0  0  0  0  0  0  0
   10.4294   -7.0828    0.0000 C   0  0  0  0  0  0  0  0  0  0  0  0
   10.3083   -8.2980    0.0000 C   0  0  0  0  0  0  0  0  0  0  0  0
   13.4310   -9.9553    0.0000 C   0  0  0  0  0  0  0  0  0  0  0  0
   10.7081   -5.3227    0.0000 C   0  0  0  0  0  0  0  0  0  0  0  0
    4.7884    7.4693    0.0000 C   0  0  1  0  0  0  0  0  0  0  0  0
    6.6842    4.5701    0.0000 C   0  0  2  0  0  0  0  0  0  0  0  0
    4.8438    6.4709    0.0000 C   0  0  0  0  0  0  0  0  0  0  0  0
    5.7918    5.0212    0.0000 C   0  0  0  0  0  0  0  0  0  0  0  0
    5.7363    6.0197    0.0000 C   0  0  0  0  0  0  0  0  0  0  0  0
   11.4044  -10.3616    0.0000 C   0  0  0  0  0  0  0  0  0  0  0  0
    3.8959    7.9205    0.0000 C   0  0  0  0  0  0  0  0  0  0  0  0
    9.5281    0.2212    0.0000 C   0  0  0  0  0  0  0  0  0  0  0  0
    6.7398    3.5716    0.0000 C   0  0  0  0  0  0  0  0  0  0  0  0
   11.3804   -7.3918    0.0000 C   0  0  0  0  0  0  0  0  0  0  0  0
    3.8404    8.9189    0.0000 C   0  0  0  0  0  0  0  0  0  0  0  0
   13.1529  -10.9158    0.0000 C   0  0  0  0  0  0  0  0  0  0  0  0
    7.6322    3.1205    0.0000 C   0  0  0  0  0  0  0  0  0  0  0  0
    2.9480    9.3701    0.0000 C   0  0  0  0  0  0  0  0  0  0  0  0
    5.6253    8.0166    0.0000 C   0  0  0  0  0  0  0  0  0  0  0  0
    7.5212    5.1174    0.0000 C   0  0  0  0  0  0  0  0  0  0  0  0
    7.6877    2.1220    0.0000 C   0  0  0  0  0  0  0  0  0  0  0  0
    8.6357    0.6724    0.0000 C   0  0  0  0  0  0  0  0  0  0  0  0
    2.8924   10.3685    0.0000 C   0  0  0  0  0  0  0  0  0  0  0  0
    8.5802    1.6708    0.0000 C   0  0  0  0  0  0  0  0  0  0  0  0
   12.1236   -6.7226    0.0000 C   0  0  0  0  0  0  0  0  0  0  0  0
    2.0000   10.8197    0.0000 C   0  0  0  0  0  0  0  0  0  0  0  0
    3.7294   10.9158    0.0000 C   0  0  0  0  0  0  0  0  0  0  0  0
    9.4171    2.2182    0.0000 C   0  0  0  0  0  0  0  0  0  0  0  0
   15.5161   -3.8448    0.0000 H   0  0  0  0  0  0  0  0  0  0  0  0
   11.9343   -3.2551    0.0000 H   0  0  0  0  0  0  0  0  0  0  0  0
   10.8447   -3.3418    0.0000 H   0  0  0  0  0  0  0  0  0  0  0  0
   12.0396   -2.7516    0.0000 H   0  0  0  0  0  0  0  0  0  0  0  0
   11.6034   -2.0845    0.0000 H   0  0  0  0  0  0  0  0  0  0  0  0
   10.7219   -2.7330    0.0000 H   0  0  0  0  0  0  0  0  0  0  0  0
    9.8998   -2.4283    0.0000 H   0  0  0  0  0  0  0  0  0  0  0  0
    9.5950   -3.2504    0.0000 H   0  0  0  0  0  0  0  0  0  0  0  0
    9.9160   -2.1532    0.0000 H   0  0  0  0  0  0  0  0  0  0  0  0
   10.3522   -2.8203    0.0000 H   0  0  0  0  0  0  0  0  0  0  0  0
   15.7710   -6.8104    0.0000 H   0  0  0  0  0  0  0  0  0  0  0  0
   16.5528   -6.4134    0.0000 H   0  0  0  0  0  0  0  0  0  0  0  0
   16.1558   -5.6316    0.0000 H   0  0  0  0  0  0  0  0  0  0  0  0
    8.7348   -4.9837    0.0000 H   0  0  0  0  0  0  0  0  0  0  0  0
   14.1503   -7.9904    0.0000 H   0  0  0  0  0  0  0  0  0  0  0  0
   14.5706   -2.1638    0.0000 H   0  0  0  0  0  0  0  0  0  0  0  0
   15.1026   -1.4668    0.0000 H   0  0  0  0  0  0  0  0  0  0  0  0
   14.4056   -0.9348    0.0000 H   0  0  0  0  0  0  0  0  0  0  0  0
    8.2217   -7.2743    0.0000 H   0  0  0  0  0  0  0  0  0  0  0  0
   12.2312   -9.2280    0.0000 H   0  0  0  0  0  0  0  0  0  0  0  0
    9.9832   -8.8259    0.0000 H   0  0  0  0  0  0  0  0  0  0  0  0
   13.9875  -10.2286    0.0000 H   0  0  0  0  0  0  0  0  0  0  0  0
   13.7967   -9.4547    0.0000 H   0  0  0  0  0  0  0  0  0  0  0  0
   11.2097   -5.6871    0.0000 H   0  0  0  0  0  0  0  0  0  0  0  0
   11.0726   -4.8211    0.0000 H   0  0  0  0  0  0  0  0  0  0  0  0
   10.2065   -4.9582    0.0000 H   0  0  0  0  0  0  0  0  0  0  0  0
    4.7539    8.0884    0.0000 H   0  0  0  0  0  0  0  0  0  0  0  0
    7.2376    4.2904    0.0000 H   0  0  0  0  0  0  0  0  0  0  0  0
    4.2282    6.5445    0.0000 H   0  0  0  0  0  0  0  0  0  0  0  0
    4.6645    5.8774    0.0000 H   0  0  0  0  0  0  0  0  0  0  0  0
    5.1762    5.0948    0.0000 H   0  0  0  0  0  0  0  0  0  0  0  0
    5.6124    4.4278    0.0000 H   0  0  0  0  0  0  0  0  0  0  0  0
    6.3519    5.9461    0.0000 H   0  0  0  0  0  0  0  0  0  0  0  0
    5.9157    6.6132    0.0000 H   0  0  0  0  0  0  0  0  0  0  0  0
    3.2803    7.9941    0.0000 H   0  0  0  0  0  0  0  0  0  0  0  0
    3.7165    7.3270    0.0000 H   0  0  0  0  0  0  0  0  0  0  0  0
   10.8263  -10.1377    0.0000 H   0  0  0  0  0  0  0  0  0  0  0  0
   11.1805  -10.9398    0.0000 H   0  0  0  0  0  0  0  0  0  0  0  0
   11.9826  -10.5856    0.0000 H   0  0  0  0  0  0  0  0  0  0  0  0
    6.1241    3.6452    0.0000 H   0  0  0  0  0  0  0  0  0  0  0  0
    6.5604    2.9781    0.0000 H   0  0  0  0  0  0  0  0  0  0  0  0
   10.1437    0.1476    0.0000 H   0  0  0  0  0  0  0  0  0  0  0  0
    9.7075    0.8147    0.0000 H   0  0  0  0  0  0  0  0  0  0  0  0
   11.5093   -7.9982    0.0000 H   0  0  0  0  0  0  0  0  0  0  0  0
    4.4560    8.8453    0.0000 H   0  0  0  0  0  0  0  0  0  0  0  0
    4.0198    9.5124    0.0000 H   0  0  0  0  0  0  0  0  0  0  0  0
    8.2478    3.0469    0.0000 H   0  0  0  0  0  0  0  0  0  0  0  0
    7.8116    3.7140    0.0000 H   0  0  0  0  0  0  0  0  0  0  0  0
   12.5573  -10.7434    0.0000 H   0  0  0  0  0  0  0  0  0  0  0  0
   12.9804  -11.5114    0.0000 H   0  0  0  0  0  0  0  0  0  0  0  0
   13.7484  -11.0883    0.0000 H   0  0  0  0  0  0  0  0  0  0  0  0
    2.3323    9.4437    0.0000 H   0  0  0  0  0  0  0  0  0  0  0  0
    2.7686    8.7766    0.0000 H   0  0  0  0  0  0  0  0  0  0  0  0
    5.9646    7.4977    0.0000 H   0  0  0  0  0  0  0  0  0  0  0  0
    6.1442    8.3559    0.0000 H   0  0  0  0  0  0  0  0  0  0  0  0
    5.2860    8.5355    0.0000 H   0  0  0  0  0  0  0  0  0  0  0  0
    7.8605    4.5985    0.0000 H   0  0  0  0  0  0  0  0  0  0  0  0
    8.0401    5.4567    0.0000 H   0  0  0  0  0  0  0  0  0  0  0  0
    7.1819    5.6363    0.0000 H   0  0  0  0  0  0  0  0  0  0  0  0
    7.0721    2.1956    0.0000 H   0  0  0  0  0  0  0  0  0  0  0  0
    7.5083    1.5285    0.0000 H   0  0  0  0  0  0  0  0  0  0  0  0
    8.1168    0.3331    0.0000 H   0  0  0  0  0  0  0  0  0  0  0  0
    2.8580   10.9876    0.0000 H   0  0  0  0  0  0  0  0  0  0  0  0
   12.7132   -6.9142    0.0000 H   0  0  0  0  0  0  0  0  0  0  0  0
   11.9947   -6.1162    0.0000 H   0  0  0  0  0  0  0  0  0  0  0  0
    2.2797   11.3730    0.0000 H   0  0  0  0  0  0  0  0  0  0  0  0
    1.4467   11.0994    0.0000 H   0  0  0  0  0  0  0  0  0  0  0  0
    1.7203   10.2664    0.0000 H   0  0  0  0  0  0  0  0  0  0  0  0
    4.0687   10.3969    0.0000 H   0  0  0  0  0  0  0  0  0  0  0  0
    4.2483   11.2552    0.0000 H   0  0  0  0  0  0  0  0  0  0  0  0
    3.3900   11.4347    0.0000 H   0  0  0  0  0  0  0  0  0  0  0  0
    9.7564    1.6992    0.0000 H   0  0  0  0  0  0  0  0  0  0  0  0
    9.9360    2.5575    0.0000 H   0  0  0  0  0  0  0  0  0  0  0  0
    9.0778    2.7370    0.0000 H   0  0  0  0  0  0  0  0  0  0  0  0
  1  2  1  0  0  0  0
  1 11  1  0  0  0  0
  2 12  1  0  0  0  0
  3 21  1  0  0  0  0
  3 32  1  0  0  0  0
  4 21  2  0  0  0  0
  5 31  1  0  0  0  0
  5 49  1  0  0  0  0
  6 31  2  0  0  0  0
  7 16  2  0  0  0  0
  7 22  1  0  0  0  0
  8 17  1  0  0  0  0
  8 23  2  0  0  0  0
  9 29  1  0  0  0  0
  9 35  1  0  0  0  0
  9 84  1  0  0  0  0
 10 30  1  0  0  0  0
 10 36  1  0  0  0  0
 10 85  1  0  0  0  0
 11 12  1  0  0  0  0
 11 13  1  0  0  0  0
 11 21  1  6  0  0  0
 12 15  1  0  0  0  0
 12 66  1  6  0  0  0
 13 16  1  0  0  0  0
 13 17  2  0  0  0  0
 14 16  1  0  0  0  0
 14 18  1  0  0  0  0
 14 20  1  6  0  0  0
 14 67  1  0  0  0  0
 15 17  1  0  0  0  0
 15 19  2  0  0  0  0
 18 22  1  0  0  0  0
 18 24  1  1  0  0  0
 18 68  1  0  0  0  0
 19 23  1  0  0  0  0
 19 26  1  0  0  0  0
 20 25  1  0  0  0  0
 20 69  1  0  0  0  0
 20 70  1  0  0  0  0
 22 27  2  0  0  0  0
 23 28  1  0  0  0  0
 24 71  1  0  0  0  0
 24 72  1  0  0  0  0
 24 73  1  0  0  0  0
 25 31  1  0  0  0  0
 25 74  1  0  0  0  0
 25 75  1  0  0  0  0
 26 76  1  0  0  0  0
 26 77  1  0  0  0  0
 26 78  1  0  0  0  0
 27 29  1  0  0  0  0
 27 79  1  0  0  0  0
 28 30  2  0  0  0  0
 28 80  1  0  0  0  0
 29 33  2  0  0  0  0
 30 34  1  0  0  0  0
 32 81  1  0  0  0  0
 32 82  1  0  0  0  0
 32 83  1  0  0  0  0
 33 38  1  0  0  0  0
 33 41  1  0  0  0  0
 34 37  2  0  0  0  0
 34 40  1  0  0  0  0
 35 38  2  0  0  0  0
 35 39  1  0  0  0  0
 36 37  1  0  0  0  0
 36 39  2  0  0  0  0
 37 47  1  0  0  0  0
 38 51  1  0  0  0  0
 39 86  1  0  0  0  0
 40 53  1  0  0  0  0
 40 87  1  0  0  0  0
 40 88  1  0  0  0  0
 41 89  1  0  0  0  0
 41 90  1  0  0  0  0
 41 91  1  0  0  0  0
 42 44  1  0  0  0  0
 42 48  1  0  0  0  0
 42 56  1  1  0  0  0
 42 92  1  0  0  0  0
 43 45  1  0  0  0  0
 43 50  1  0  0  0  0
 43 57  1  1  0  0  0
 43 93  1  0  0  0  0
 44 46  1  0  0  0  0
 44 94  1  0  0  0  0
 44 95  1  0  0  0  0
 45 46  1  0  0  0  0
 45 96  1  0  0  0  0
 45 97  1  0  0  0  0
 46 98  1  0  0  0  0
 46 99  1  0  0  0  0
 47102  1  0  0  0  0
 47103  1  0  0  0  0
 47104  1  0  0  0  0
 48 52  1  0  0  0  0
 48100  1  0  0  0  0
 48101  1  0  0  0  0
 49 59  1  0  0  0  0
 49107  1  0  0  0  0
 49108  1  0  0  0  0
 50 54  1  0  0  0  0
 50105  1  0  0  0  0
 50106  1  0  0  0  0
 51 62  2  0  0  0  0
 51109  1  0  0  0  0
 52 55  1  0  0  0  0
 52110  1  0  0  0  0
 52111  1  0  0  0  0
 53114  1  0  0  0  0
 53115  1  0  0  0  0
 53116  1  0  0  0  0
 54 58  1  0  0  0  0
 54112  1  0  0  0  0
 54113  1  0  0  0  0
 55 60  1  0  0  0  0
 55117  1  0  0  0  0
 55118  1  0  0  0  0
 56119  1  0  0  0  0
 56120  1  0  0  0  0
 56121  1  0  0  0  0
 57122  1  0  0  0  0
 57123  1  0  0  0  0
 57124  1  0  0  0  0
 58 61  1  0  0  0  0
 58125  1  0  0  0  0
 58126  1  0  0  0  0
 59 61  2  0  0  0  0
 59127  1  0  0  0  0
 60 63  1  0  0  0  0
 60 64  1  0  0  0  0
 60128  1  0  0  0  0
 61 65  1  0  0  0  0
 62129  1  0  0  0  0
 62130  1  0  0  0  0
 63131  1  0  0  0  0
 63132  1  0  0  0  0
 63133  1  0  0  0  0
 64134  1  0  0  0  0
 64135  1  0  0  0  0
 64136  1  0  0  0  0
 65137  1  0  0  0  0
 65138  1  0  0  0  0
 65139  1  0  0  0  0
M  END
> <PUBCHEM_COMPOUND_CID>
101838305

> <PUBCHEM_COMPOUND_CANONICALIZED>
1

> <PUBCHEM_CACTVS_COMPLEXITY>
1620

> <PUBCHEM_CACTVS_HBOND_ACCEPTOR>
8

> <PUBCHEM_CACTVS_HBOND_DONOR>
2

> <PUBCHEM_CACTVS_ROTATABLE_BOND>
22

> <PUBCHEM_CACTVS_SUBSKEYS>
AAADcfB/uAAAAAAAAAAAAAAAAABIAeLFixAAAAAABIAAAAAB/gAAHgAQBAAADVyhngIyyLLJlACoAyTyTAKCgCAhAiAImSFwbJgJJnbA9dGGNAhn8AHK6Ae8+feegAAAAAAAAAAAAAAAAAAAAaEADSAAAA==

> <PUBCHEM_IUPAC_OPENEYE_NAME>
methyl (3R,6S,23S,24S)-13-ethyl-14,19,23,28-tetramethyl-24-[3-oxo-3-[(E,7R,11R)-3,7,11,15-tetramethylhexadec-2-enoxy]propyl]-18-vinyl-4,5-dioxa-9,25,26,27-tetrazaheptacyclo[20.2.1.17,10.112,15.117,20.02,8.03,6]octacosa-1(25),2(8),7(28),9,11,13,15,17,19,21-decaene-3-carboxylate

> <PUBCHEM_IUPAC_CAS_NAME>
(3R,6S,23S,24S)-18-ethenyl-13-ethyl-14,19,23,28-tetramethyl-24-[3-oxo-3-[(E,7R,11R)-3,7,11,15-tetramethylhexadec-2-enoxy]propyl]-4,5-dioxa-9,25,26,27-tetrazaheptacyclo[20.2.1.17,10.112,15.117,20.02,8.03,6]octacosa-1(25),2(8),7(28),9,11,13,15,17,19,21-decaene-3-carboxylic acid methyl ester

> <PUBCHEM_IUPAC_NAME_MARKUP>
methyl (3<I>R</I>,6<I>S</I>,23<I>S</I>,24<I>S</I>)-18-ethenyl-13-ethyl-14,19,23,28-tetramethyl-24-[3-oxo-3-[(<I>E</I>,7<I>R</I>,11<I>R</I>)-3,7,11,15-tetramethylhexadec-2-enoxy]propyl]-4,5-dioxa-9,25,26,27-tetrazaheptacyclo[20.2.1.1<SUP>7,10</SUP>.1<SUP>12,15</SUP>.1<SUP>17,20</SUP>.0<SUP>2,8</SUP>.0<SUP>3,6</SUP>]octacosa-1(25),2(8),7(28),9,11,13,15,17,19,21-decaene-3-carboxylate

> <PUBCHEM_IUPAC_NAME>
methyl (3R,6S,23S,24S)-18-ethenyl-13-ethyl-14,19,23,28-tetramethyl-24-[3-oxo-3-[(E,7R,11R)-3,7,11,15-tetramethylhexadec-2-enoxy]propyl]-4,5-dioxa-9,25,26,27-tetrazaheptacyclo[20.2.1.17,10.112,15.117,20.02,8.03,6]octacosa-1(25),2(8),7(28),9,11,13,15,17,19,21-decaene-3-carboxylate

> <PUBCHEM_IUPAC_SYSTEMATIC_NAME>
methyl (3R,6S,23S,24S)-18-ethenyl-13-ethyl-14,19,23,28-tetramethyl-24-[3-oxidanylidene-3-[(E,7R,11R)-3,7,11,15-tetramethylhexadec-2-enoxy]propyl]-4,5-dioxa-9,25,26,27-tetrazaheptacyclo[20.2.1.17,10.112,15.117,20.02,8.03,6]octacosa-1(25),2(8),7(28),9,11,13,15,17,19,21-decaene-3-carboxylate

> <PUBCHEM_IUPAC_TRADITIONAL_NAME>
(3R,6S,23S,24S)-13-ethyl-24-[3-keto-3-[(E,7R,11R)-3,7,11,15-tetramethylhexadec-2-enoxy]propyl]-14,19,23,28-tetramethyl-18-vinyl-4,5-dioxa-9,25,26,27-tetrazaheptacyclo[20.2.1.17,10.112,15.117,20.02,8.03,6]octacosa-1(25),2(8),7(28),9,11,13,15,17,19,21-decaene-3-carboxylic acid methyl ester

> <PUBCHEM_IUPAC_INCHI>
InChI=1S/C55H74N4O6/c1-13-39-35(8)42-28-44-37(10)41(24-25-48(60)63-27-26-34(7)23-17-22-33(6)21-16-20-32(5)19-15-18-31(3)4)51(58-44)50-52-49(53-55(50,65-64-53)54(61)62-12)38(11)45(59-52)30-47-40(14-2)36(9)43(57-47)29-46(39)56-42/h13,26,28-33,37,41,53,56-57H,1,14-25,27H2,2-12H3/b34-26+,42-28?,43-29?,44-28?,45-30?,46-29?,47-30?,51-50?/t32-,33-,37+,41+,53+,55-/m1/s1

> <PUBCHEM_IUPAC_INCHIKEY>
ZUVWUIAQURMXHO-DKHHEMPPSA-N

> <PUBCHEM_XLOGP3_AA>
13.4

> <PUBCHEM_EXACT_MASS>
886.560836

> <PUBCHEM_MOLECULAR_FORMULA>
C55H74N4O6

> <PUBCHEM_MOLECULAR_WEIGHT>
887.2

> <PUBCHEM_OPENEYE_CAN_SMILES>
CCC1=C(C2=CC3=C(C(=C(N3)C=C4C(C(C(=N4)C5=C6C(=C(C(=N6)C=C1N2)C)C7C5(OO7)C(=O)OC)CCC(=O)OCC=C(C)CCCC(C)CCCC(C)CCCC(C)C)C)C)C=C)C

> <PUBCHEM_OPENEYE_ISO_SMILES>
CCC1=C(C2=CC3=C(C(=C(N3)C=C4[C@H]([C@@H](C(=N4)C5=C6C(=C(C(=N6)C=C1N2)C)[C@H]7[C@@]5(OO7)C(=O)OC)CCC(=O)OC/C=C(\C)/CCC[C@H](C)CCC[C@H](C)CCCC(C)C)C)C)C=C)C

> <PUBCHEM_CACTVS_TPSA>
128

> <PUBCHEM_MONOISOTOPIC_WEIGHT>
886.560836

> <PUBCHEM_TOTAL_CHARGE>
0

> <PUBCHEM_HEAVY_ATOM_COUNT>
65

> <PUBCHEM_ATOM_DEF_STEREO_COUNT>
6

> <PUBCHEM_ATOM_UDEF_STEREO_COUNT>
0

> <PUBCHEM_BOND_DEF_STEREO_COUNT>
1

> <PUBCHEM_BOND_UDEF_STEREO_COUNT>
0

> <PUBCHEM_ISOTOPIC_ATOM_COUNT>
0

> <PUBCHEM_COMPONENT_COUNT>
1

> <PUBCHEM_CACTVS_TAUTO_COUNT>
-1

> <PUBCHEM_COORDINATE_TYPE>
1
5
255

> <PUBCHEM_BONDANNOTATIONS>
10  30  8
10  36  8
11  21  6
12  66  6
13  16  8
13  17  8
14  20  6
18  24  5
22  27  8
23  28  8
27  29  8
28  30  8
29  33  8
30  34  8
33  38  8
34  37  8
35  38  8
35  39  8
36  37  8
36  39  8
42  56  5
43  57  5
7  16  8
7  22  8
8  17  8
8  23  8
9  29  8
9  35  8

$$$$
