630576
  -OEChem-08242011043D

 46 47  0     0  0  0  0  0  0999 V2000
    3.4847   -2.3564   -0.4427 O   0  0  0  0  0  0  0  0  0  0  0  0
   -3.4627    2.2727   -0.9962 O   0  0  0  0  0  0  0  0  0  0  0  0
    3.4874    2.3679    0.3427 O   0  0  0  0  0  0  0  0  0  0  0  0
   -3.5035   -2.2152    0.6752 O   0  0  0  0  0  0  0  0  0  0  0  0
    4.8774    0.0006   -0.0240 O   0  0  0  0  0  0  0  0  0  0  0  0
   -4.8746    0.0346   -0.1788 O   0  0  0  0  0  0  0  0  0  0  0  0
    0.7248    0.0147   -0.0946 C   0  0  0  0  0  0  0  0  0  0  0  0
   -0.7218    0.0195   -0.1175 C   0  0  0  0  0  0  0  0  0  0  0  0
    1.4226    1.2039    0.1159 C   0  0  0  0  0  0  0  0  0  0  0  0
   -1.4294   -1.1096    0.2943 C   0  0  0  0  0  0  0  0  0  0  0  0
    1.4214   -1.1792   -0.2817 C   0  0  0  0  0  0  0  0  0  0  0  0
   -1.4090    1.1538   -0.5502 C   0  0  0  0  0  0  0  0  0  0  0  0
    2.8161   -1.1839   -0.2583 C   0  0  0  0  0  0  0  0  0  0  0  0
   -2.8037    1.1588   -0.5712 C   0  0  0  0  0  0  0  0  0  0  0  0
    2.8173    1.1992    0.1392 C   0  0  0  0  0  0  0  0  0  0  0  0
   -2.8241   -1.1048    0.2734 C   0  0  0  0  0  0  0  0  0  0  0  0
    3.5141    0.0054   -0.0478 C   0  0  0  0  0  0  0  0  0  0  0  0
   -3.5113    0.0294   -0.1592 C   0  0  0  0  0  0  0  0  0  0  0  0
    3.7814   -3.1235    0.7225 C   0  0  0  0  0  0  0  0  0  0  0  0
   -3.7929    3.2470   -0.0084 C   0  0  0  0  0  0  0  0  0  0  0  0
    3.7870    2.7165    1.6928 C   0  0  0  0  0  0  0  0  0  0  0  0
   -3.8077   -3.1859   -0.3243 C   0  0  0  0  0  0  0  0  0  0  0  0
    5.5467    0.2078   -1.2657 C   0  0  0  0  0  0  0  0  0  0  0  0
   -5.5403   -0.1731    1.0648 C   0  0  0  0  0  0  0  0  0  0  0  0
    0.9163    2.1490    0.2951 H   0  0  0  0  0  0  0  0  0  0  0  0
   -0.9317   -2.0011    0.6677 H   0  0  0  0  0  0  0  0  0  0  0  0
    0.9151   -2.1205   -0.4800 H   0  0  0  0  0  0  0  0  0  0  0  0
   -0.8940    2.0415   -0.9087 H   0  0  0  0  0  0  0  0  0  0  0  0
    2.8584   -3.4258    1.2274 H   0  0  0  0  0  0  0  0  0  0  0  0
    4.4157   -2.5532    1.4083 H   0  0  0  0  0  0  0  0  0  0  0  0
    4.3212   -4.0224    0.4126 H   0  0  0  0  0  0  0  0  0  0  0  0
   -2.8849    3.6422    0.4582 H   0  0  0  0  0  0  0  0  0  0  0  0
   -4.4504    2.8177    0.7540 H   0  0  0  0  0  0  0  0  0  0  0  0
   -4.3192    4.0692   -0.5008 H   0  0  0  0  0  0  0  0  0  0  0  0
    4.4214    1.9543    2.1561 H   0  0  0  0  0  0  0  0  0  0  0  0
    2.8654    2.8402    2.2703 H   0  0  0  0  0  0  0  0  0  0  0  0
    4.3279    3.6667    1.6893 H   0  0  0  0  0  0  0  0  0  0  0  0
   -4.4313   -2.7484   -1.1102 H   0  0  0  0  0  0  0  0  0  0  0  0
   -4.3619   -4.0017    0.1479 H   0  0  0  0  0  0  0  0  0  0  0  0
   -2.8875   -3.5916   -0.7567 H   0  0  0  0  0  0  0  0  0  0  0  0
    5.2913    1.1871   -1.6826 H   0  0  0  0  0  0  0  0  0  0  0  0
    5.2901   -0.5822   -1.9785 H   0  0  0  0  0  0  0  0  0  0  0  0
    6.6243    0.1766   -1.0830 H   0  0  0  0  0  0  0  0  0  0  0  0
   -5.8231   -1.2243    1.1679 H   0  0  0  0  0  0  0  0  0  0  0  0
   -6.4567    0.4244    1.0595 H   0  0  0  0  0  0  0  0  0  0  0  0
   -4.9319    0.1440    1.9191 H   0  0  0  0  0  0  0  0  0  0  0  0
  1 13  1  0  0  0  0
  1 19  1  0  0  0  0
  2 14  1  0  0  0  0
  2 20  1  0  0  0  0
  3 15  1  0  0  0  0
  3 21  1  0  0  0  0
  4 16  1  0  0  0  0
  4 22  1  0  0  0  0
  5 17  1  0  0  0  0
  5 23  1  0  0  0  0
  6 18  1  0  0  0  0
  6 24  1  0  0  0  0
  7  8  1  0  0  0  0
  7  9  2  0  0  0  0
  7 11  1  0  0  0  0
  8 10  2  0  0  0  0
  8 12  1  0  0  0  0
  9 15  1  0  0  0  0
  9 25  1  0  0  0  0
 10 16  1  0  0  0  0
 10 26  1  0  0  0  0
 11 13  2  0  0  0  0
 11 27  1  0  0  0  0
 12 14  2  0  0  0  0
 12 28  1  0  0  0  0
 13 17  1  0  0  0  0
 14 18  1  0  0  0  0
 15 17  2  0  0  0  0
 16 18  2  0  0  0  0
 19 29  1  0  0  0  0
 19 30  1  0  0  0  0
 19 31  1  0  0  0  0
 20 32  1  0  0  0  0
 20 33  1  0  0  0  0
 20 34  1  0  0  0  0
 21 35  1  0  0  0  0
 21 36  1  0  0  0  0
 21 37  1  0  0  0  0
 22 38  1  0  0  0  0
 22 39  1  0  0  0  0
 22 40  1  0  0  0  0
 23 41  1  0  0  0  0
 23 42  1  0  0  0  0
 23 43  1  0  0  0  0
 24 44  1  0  0  0  0
 24 45  1  0  0  0  0
 24 46  1  0  0  0  0
M  END
> <PUBCHEM_COMPOUND_CID>
630576

> <PUBCHEM_CONFORMER_RMSD>
0.8

> <PUBCHEM_CONFORMER_DIVERSEORDER>
1
3
4
2

> <PUBCHEM_MMFF94_PARTIAL_CHARGES>
26
1 -0.36
10 -0.15
11 -0.15
12 -0.15
13 0.08
14 0.08
15 0.08
16 0.08
17 0.08
18 0.08
19 0.28
2 -0.36
20 0.28
21 0.28
22 0.28
23 0.28
24 0.28
25 0.15
26 0.15
27 0.15
28 0.15
3 -0.36
4 -0.36
5 -0.36
6 -0.36
9 -0.15

> <PUBCHEM_EFFECTIVE_ROTOR_COUNT>
7

> <PUBCHEM_PHARMACOPHORE_FEATURES>
8
1 1 acceptor
1 2 acceptor
1 3 acceptor
1 4 acceptor
1 5 acceptor
1 6 acceptor
6 7 9 11 13 15 17 rings
6 8 10 12 14 16 18 rings

> <PUBCHEM_HEAVY_ATOM_COUNT>
24

> <PUBCHEM_ATOM_DEF_STEREO_COUNT>
0

> <PUBCHEM_ATOM_UDEF_STEREO_COUNT>
0

> <PUBCHEM_BOND_DEF_STEREO_COUNT>
0

> <PUBCHEM_BOND_UDEF_STEREO_COUNT>
0

> <PUBCHEM_ISOTOPIC_ATOM_COUNT>
0

> <PUBCHEM_COMPONENT_COUNT>
1

> <PUBCHEM_CACTVS_TAUTO_COUNT>
1

> <PUBCHEM_CONFORMER_ID>
00099F3000000001

> <PUBCHEM_MMFF94_ENERGY>
137.4192

> <PUBCHEM_FEATURE_SELFOVERLAP>
40.618

> <PUBCHEM_SHAPE_FINGERPRINT>
10366900 7 18189341324005719394
10608611 8 18410851062092622525
10616163 171 18410576214345583679
1100329 8 16320619740543946337
11405975 8 18410852122970254121
11552529 35 17988081235453540107
11595378 159 17168412809720535789
12107183 9 17831014628734617994
12236239 1 15841555175559072732
12390115 104 18197794206502780529
12403259 415 18411979174034456912
12730499 353 18409175432621444922
13073987 5 18263084331476010472
13140716 1 18338510842036895496
13533116 47 18409165481076978347
13583140 156 18343578555633023908
13944108 23 16749013703100941741
14289901 80 18261115204929694984
14341114 176 18410863139534961895
14617045 38 18336275590774802351
14790565 3 17689441481615455277
14866123 147 16685135363350606074
15196674 1 18263645069516025535
17492 89 18409164428467703523
17844677 252 18411706482144391373
1813 80 16732990807794982919
20510252 161 18411418380856024033
20645477 56 18335421249297693565
20645477 70 17917994988370011356
20681677 76 18340479058029324237
21065198 57 18410290285434519669
21065199 12 18410290332716115793
21065201 7 17530962436968885857
21267235 1 18408896130412817791
21421861 104 17461432534722766714
21859007 373 17462258276049841141
221490 88 18410578400816006126
22393880 68 18413110571957913486
23557571 272 18410582772823747005
23559900 14 18409727395721579180
3004659 81 18115592514002741830
335352 9 18048876295042010791
350125 39 18410300219651820213
3545911 37 18409169921777464413
4214541 1 18409167671330723805
5104073 3 18336263418784530809
59755656 215 18408887334404139822
7399639 24 18196080264847006800
9709674 26 18412544275808334591

> <PUBCHEM_SHAPE_MULTIPOLES>
458.69
11.95
3.46
0.98
0.01
0.3
0.15
0.09
0.35
0.42
0.58
-0.46
-0.31
1.12

> <PUBCHEM_SHAPE_SELFOVERLAP>
971.173

> <PUBCHEM_SHAPE_VOLUME>
261.4

> <PUBCHEM_COORDINATE_TYPE>
2
5
10

$$$$
