6428439
  -OEChem-11232013363D

 42 43  0     1  0  0  0  0  0999 V2000
    1.5653    2.4749    0.7563 O   0  0  0  0  0  0  0  0  0  0  0  0
    0.7910   -1.1965   -0.0489 C   0  0  2  0  0  0  0  0  0  0  0  0
    0.5776    0.2978    0.3552 C   0  0  1  0  0  0  0  0  0  0  0  0
    1.7532    1.2571    0.0090 C   0  0  2  0  0  0  0  0  0  0  0  0
   -0.8156    0.8096   -0.0716 C   0  0  0  0  0  0  0  0  0  0  0  0
   -0.3403   -2.0307    0.6147 C   0  0  0  0  0  0  0  0  0  0  0  0
    2.1548   -1.6809    0.5017 C   0  0  0  0  0  0  0  0  0  0  0  0
   -1.9365   -0.0567    0.5295 C   0  0  2  0  0  0  0  0  0  0  0  0
    3.0806    0.6687    0.5231 C   0  0  0  0  0  0  0  0  0  0  0  0
   -1.7417   -1.5475    0.2323 C   0  0  0  0  0  0  0  0  0  0  0  0
    3.3216   -0.7763    0.1041 C   0  0  0  0  0  0  0  0  0  0  0  0
    0.7446   -1.4667   -1.5710 C   0  0  0  0  0  0  0  0  0  0  0  0
    1.8663    1.6765   -1.4600 C   0  0  0  0  0  0  0  0  0  0  0  0
   -3.2814    0.3998    0.0524 C   0  0  0  0  0  0  0  0  0  0  0  0
   -3.5271    0.3039   -1.4241 C   0  0  0  0  0  0  0  0  0  0  0  0
   -4.2124    0.8670    0.8974 C   0  0  0  0  0  0  0  0  0  0  0  0
    0.5419    0.3080    1.4584 H   0  0  0  0  0  0  0  0  0  0  0  0
   -0.8688    0.8372   -1.1631 H   0  0  0  0  0  0  0  0  0  0  0  0
   -0.9469    1.8452    0.2679 H   0  0  0  0  0  0  0  0  0  0  0  0
   -0.2432   -1.9811    1.7076 H   0  0  0  0  0  0  0  0  0  0  0  0
   -0.2395   -3.0909    0.3498 H   0  0  0  0  0  0  0  0  0  0  0  0
    2.3595   -2.7046    0.1636 H   0  0  0  0  0  0  0  0  0  0  0  0
    2.1137   -1.7236    1.5985 H   0  0  0  0  0  0  0  0  0  0  0  0
   -1.8814    0.0620    1.6215 H   0  0  0  0  0  0  0  0  0  0  0  0
    3.0957    0.7219    1.6211 H   0  0  0  0  0  0  0  0  0  0  0  0
    3.9244    1.2917    0.1991 H   0  0  0  0  0  0  0  0  0  0  0  0
   -1.9041   -1.7791   -0.8251 H   0  0  0  0  0  0  0  0  0  0  0  0
   -2.4824   -2.1360    0.7892 H   0  0  0  0  0  0  0  0  0  0  0  0
    4.2361   -1.1415    0.5865 H   0  0  0  0  0  0  0  0  0  0  0  0
    3.5049   -0.8305   -0.9738 H   0  0  0  0  0  0  0  0  0  0  0  0
    0.6845   -2.5447   -1.7658 H   0  0  0  0  0  0  0  0  0  0  0  0
   -0.1183   -1.0068   -2.0592 H   0  0  0  0  0  0  0  0  0  0  0  0
    1.6368   -1.1233   -2.0945 H   0  0  0  0  0  0  0  0  0  0  0  0
    2.1257    0.8586   -2.1298 H   0  0  0  0  0  0  0  0  0  0  0  0
    0.9380    2.1375   -1.8129 H   0  0  0  0  0  0  0  0  0  0  0  0
    2.6393    2.4458   -1.5804 H   0  0  0  0  0  0  0  0  0  0  0  0
    2.3307    3.0526    0.5940 H   0  0  0  0  0  0  0  0  0  0  0  0
   -2.8250    0.9136   -1.9982 H   0  0  0  0  0  0  0  0  0  0  0  0
   -3.4808   -0.7274   -1.7826 H   0  0  0  0  0  0  0  0  0  0  0  0
   -4.5287    0.6708   -1.6793 H   0  0  0  0  0  0  0  0  0  0  0  0
   -5.1836    1.1950    0.5421 H   0  0  0  0  0  0  0  0  0  0  0  0
   -4.0268    0.9330    1.9643 H   0  0  0  0  0  0  0  0  0  0  0  0
  1  4  1  0  0  0  0
  1 37  1  0  0  0  0
  2  3  1  0  0  0  0
  2  6  1  0  0  0  0
  2  7  1  0  0  0  0
  2 12  1  0  0  0  0
  3  4  1  0  0  0  0
  3  5  1  0  0  0  0
  3 17  1  0  0  0  0
  4  9  1  0  0  0  0
  4 13  1  0  0  0  0
  5  8  1  0  0  0  0
  5 18  1  0  0  0  0
  5 19  1  0  0  0  0
  6 10  1  0  0  0  0
  6 20  1  0  0  0  0
  6 21  1  0  0  0  0
  7 11  1  0  0  0  0
  7 22  1  0  0  0  0
  7 23  1  0  0  0  0
  8 10  1  0  0  0  0
  8 14  1  0  0  0  0
  8 24  1  0  0  0  0
  9 11  1  0  0  0  0
  9 25  1  0  0  0  0
  9 26  1  0  0  0  0
 10 27  1  0  0  0  0
 10 28  1  0  0  0  0
 11 29  1  0  0  0  0
 11 30  1  0  0  0  0
 12 31  1  0  0  0  0
 12 32  1  0  0  0  0
 12 33  1  0  0  0  0
 13 34  1  0  0  0  0
 13 35  1  0  0  0  0
 13 36  1  0  0  0  0
 14 15  1  0  0  0  0
 14 16  2  0  0  0  0
 15 38  1  0  0  0  0
 15 39  1  0  0  0  0
 15 40  1  0  0  0  0
 16 41  1  0  0  0  0
 16 42  1  0  0  0  0
M  END
> <PUBCHEM_COMPOUND_CID>
6428439

> <PUBCHEM_CONFORMER_RMSD>
0.6

> <PUBCHEM_CONFORMER_DIVERSEORDER>
4
1
15
9
12
14
6
10
13
8
5
11
2
7
3

> <PUBCHEM_MMFF94_PARTIAL_CHARGES>
9
1 -0.68
14 -0.28
15 0.14
16 -0.3
37 0.4
4 0.28
41 0.15
42 0.15
8 0.14

> <PUBCHEM_EFFECTIVE_ROTOR_COUNT>
2.6

> <PUBCHEM_PHARMACOPHORE_FEATURES>
4
1 1 acceptor
1 1 donor
6 2 3 4 7 9 11 rings
6 2 3 5 6 8 10 rings

> <PUBCHEM_HEAVY_ATOM_COUNT>
16

> <PUBCHEM_ATOM_DEF_STEREO_COUNT>
3

> <PUBCHEM_ATOM_UDEF_STEREO_COUNT>
1

> <PUBCHEM_BOND_DEF_STEREO_COUNT>
0

> <PUBCHEM_BOND_UDEF_STEREO_COUNT>
0

> <PUBCHEM_ISOTOPIC_ATOM_COUNT>
0

> <PUBCHEM_COMPONENT_COUNT>
1

> <PUBCHEM_CACTVS_TAUTO_COUNT>
1

> <PUBCHEM_CONFORMER_ID>
0062171700000004

> <PUBCHEM_MMFF94_ENERGY>
49.1654

> <PUBCHEM_FEATURE_SELFOVERLAP>
20.312

> <PUBCHEM_SHAPE_FINGERPRINT>
10062212 137 18060127726816118879
10219947 1 18341890745234051018
104564 63 18123755253424059532
10608611 8 18336543910482690449
10967382 1 18409729521672277666
11132069 177 18411971456072678050
11471102 20 18410006611392264465
12011746 2 18335136445526195390
12654215 9 18115578228128534437
13134695 92 18339911615772200396
13140716 1 18335983167868120562
13380535 21 18262249931215935587
13380535 76 18412544331685152675
13581323 91 17240206529921345811
13583140 156 16515673460263199497
13897977 150 18411416258572051769
13922767 16 18335979775028514169
14181834 199 18412538799677384086
14251717 144 18411973638021494375
14344429 50 18188501180714798214
14817 1 9975057546572379406
14993402 34 18272649035098404974
15219456 202 18334015016548348043
15490181 7 17767408246377275432
15775835 57 18339929319521899364
16945 1 18409724041431151458
18186145 218 18408887304634917079
18219364 16 18187083923649196793
18511873 20 18333448742321985586
20233049 118 17604708854923116374
20511035 2 18267024040900430670
21130352 189 18187359892003106348
21501502 16 18263928902535588427
21524375 3 18337951294014323847
21639500 275 18340473543634207565
22094290 62 18408601487266766216
22854114 111 18260554411397977019
22892500 29 18189036655920325703
2334 1 18191870247608966507
23402539 116 18128807543512962078
23419403 2 15078400488691621371
23557571 272 15697995202812396745
23559900 14 18198356229160075612
25 1 18409169891749668531
2748010 2 18265338493590468578
3060560 45 17917994945051034494
350125 39 18118693342096607275
474 4 18413672405082707233
53812653 166 18408041805693935930
7364860 26 18343305825273206454
74978 22 18341333395770128299
81228 2 16318066683482650475
9999458 23 17603872208120754490

> <PUBCHEM_SHAPE_MULTIPOLES>
323.4
5.93
2.17
1.2
4.47
0.03
0.5
1.44
-0.45
-1.18
-0.08
0.21
0.11
-0.09

> <PUBCHEM_SHAPE_SELFOVERLAP>
658.059

> <PUBCHEM_SHAPE_VOLUME>
187.3

> <PUBCHEM_COORDINATE_TYPE>
2
5
10

$$$$
