12314971
  -OEChem-11232013503D

 52 54  0     1  0  0  0  0  0999 V2000
   -0.4052    0.3262   -0.6116 C   0  0  2  0  0  0  0  0  0  0  0  0
   -0.9361   -0.9920    0.0245 C   0  0  1  0  0  0  0  0  0  0  0  0
    0.9977    0.6288    0.0480 C   0  0  1  0  0  0  0  0  0  0  0  0
   -1.4061    1.4674   -0.2817 C   0  0  0  0  0  0  0  0  0  0  0  0
   -2.3888   -1.3234   -0.3663 C   0  0  0  0  0  0  0  0  0  0  0  0
    1.9240   -0.5935    0.1139 C   0  0  0  0  0  0  0  0  0  0  0  0
   -3.3738   -0.1740   -0.0556 C   0  0  1  0  0  0  0  0  0  0  0  0
   -0.0053   -2.1729   -0.2817 C   0  0  0  0  0  0  0  0  0  0  0  0
   -2.8543    1.1428   -0.6702 C   0  0  0  0  0  0  0  0  0  0  0  0
    3.4104   -0.3296    0.4126 C   0  0  0  0  0  0  0  0  0  0  0  0
    1.7322    1.8117   -0.6113 C   0  0  0  0  0  0  0  0  0  0  0  0
   -0.2772    0.2065   -2.1535 C   0  0  0  0  0  0  0  0  0  0  0  0
    1.4398   -1.8395   -0.0636 C   0  0  0  0  0  0  0  0  0  0  0  0
    3.5861    1.0919    0.9991 C   0  0  0  0  0  0  0  0  0  0  0  0
    3.0143    2.2043    0.1238 C   0  0  0  0  0  0  0  0  0  0  0  0
   -4.7504   -0.5076   -0.6538 C   0  0  0  0  0  0  0  0  0  0  0  0
    4.2409   -0.4791   -0.8781 C   0  0  0  0  0  0  0  0  0  0  0  0
    3.9717   -1.3180    1.4626 C   0  0  0  0  0  0  0  0  0  0  0  0
   -3.5515   -0.0215    1.4369 C   0  0  0  0  0  0  0  0  0  0  0  0
   -4.3685    0.8713    2.0059 C   0  0  0  0  0  0  0  0  0  0  0  0
   -0.9171   -0.8582    1.1166 H   0  0  0  0  0  0  0  0  0  0  0  0
    0.8040    0.9114    1.0943 H   0  0  0  0  0  0  0  0  0  0  0  0
   -1.1163    2.3918   -0.7949 H   0  0  0  0  0  0  0  0  0  0  0  0
   -1.3688    1.6930    0.7917 H   0  0  0  0  0  0  0  0  0  0  0  0
   -2.4353   -1.5714   -1.4343 H   0  0  0  0  0  0  0  0  0  0  0  0
   -2.7029   -2.2358    0.1599 H   0  0  0  0  0  0  0  0  0  0  0  0
   -0.1353   -2.5219   -1.3128 H   0  0  0  0  0  0  0  0  0  0  0  0
   -0.2720   -3.0140    0.3702 H   0  0  0  0  0  0  0  0  0  0  0  0
   -3.4909    1.9926   -0.3931 H   0  0  0  0  0  0  0  0  0  0  0  0
   -2.9203    1.0830   -1.7644 H   0  0  0  0  0  0  0  0  0  0  0  0
    1.0874    2.6949   -0.6705 H   0  0  0  0  0  0  0  0  0  0  0  0
    1.9964    1.5598   -1.6456 H   0  0  0  0  0  0  0  0  0  0  0  0
   -0.0801    1.1824   -2.6112 H   0  0  0  0  0  0  0  0  0  0  0  0
    0.5386   -0.4599   -2.4511 H   0  0  0  0  0  0  0  0  0  0  0  0
   -1.1896   -0.1757   -2.6194 H   0  0  0  0  0  0  0  0  0  0  0  0
    2.1117   -2.6925   -0.0471 H   0  0  0  0  0  0  0  0  0  0  0  0
    4.6461    1.3039    1.1908 H   0  0  0  0  0  0  0  0  0  0  0  0
    3.0928    1.1403    1.9806 H   0  0  0  0  0  0  0  0  0  0  0  0
    3.7624    2.5249   -0.6116 H   0  0  0  0  0  0  0  0  0  0  0  0
    2.8214    3.0799    0.7559 H   0  0  0  0  0  0  0  0  0  0  0  0
   -4.6702   -0.7006   -1.7303 H   0  0  0  0  0  0  0  0  0  0  0  0
   -5.1815   -1.4053   -0.1944 H   0  0  0  0  0  0  0  0  0  0  0  0
   -5.4697    0.3104   -0.5331 H   0  0  0  0  0  0  0  0  0  0  0  0
    5.2945   -0.2372   -0.6960 H   0  0  0  0  0  0  0  0  0  0  0  0
    3.8869    0.1761   -1.6801 H   0  0  0  0  0  0  0  0  0  0  0  0
    4.2028   -1.5061   -1.2599 H   0  0  0  0  0  0  0  0  0  0  0  0
    4.0142   -2.3454    1.0852 H   0  0  0  0  0  0  0  0  0  0  0  0
    3.3610   -1.3194    2.3731 H   0  0  0  0  0  0  0  0  0  0  0  0
    4.9941   -1.0452    1.7504 H   0  0  0  0  0  0  0  0  0  0  0  0
   -3.0075   -0.6911    2.0986 H   0  0  0  0  0  0  0  0  0  0  0  0
   -4.4567    0.9158    3.0863 H   0  0  0  0  0  0  0  0  0  0  0  0
   -4.9608    1.5713    1.4283 H   0  0  0  0  0  0  0  0  0  0  0  0
  1  2  1  0  0  0  0
  1  3  1  0  0  0  0
  1  4  1  0  0  0  0
  1 12  1  0  0  0  0
  2  5  1  0  0  0  0
  2  8  1  0  0  0  0
  2 21  1  0  0  0  0
  3  6  1  0  0  0  0
  3 11  1  0  0  0  0
  3 22  1  0  0  0  0
  4  9  1  0  0  0  0
  4 23  1  0  0  0  0
  4 24  1  0  0  0  0
  5  7  1  0  0  0  0
  5 25  1  0  0  0  0
  5 26  1  0  0  0  0
  6 10  1  0  0  0  0
  6 13  2  0  0  0  0
  7  9  1  0  0  0  0
  7 16  1  0  0  0  0
  7 19  1  0  0  0  0
  8 13  1  0  0  0  0
  8 27  1  0  0  0  0
  8 28  1  0  0  0  0
  9 29  1  0  0  0  0
  9 30  1  0  0  0  0
 10 14  1  0  0  0  0
 10 17  1  0  0  0  0
 10 18  1  0  0  0  0
 11 15  1  0  0  0  0
 11 31  1  0  0  0  0
 11 32  1  0  0  0  0
 12 33  1  0  0  0  0
 12 34  1  0  0  0  0
 12 35  1  0  0  0  0
 13 36  1  0  0  0  0
 14 15  1  0  0  0  0
 14 37  1  0  0  0  0
 14 38  1  0  0  0  0
 15 39  1  0  0  0  0
 15 40  1  0  0  0  0
 16 41  1  0  0  0  0
 16 42  1  0  0  0  0
 16 43  1  0  0  0  0
 17 44  1  0  0  0  0
 17 45  1  0  0  0  0
 17 46  1  0  0  0  0
 18 47  1  0  0  0  0
 18 48  1  0  0  0  0
 18 49  1  0  0  0  0
 19 20  2  0  0  0  0
 19 50  1  0  0  0  0
 20 51  1  0  0  0  0
 20 52  1  0  0  0  0
M  END
> <PUBCHEM_COMPOUND_CID>
12314971

> <PUBCHEM_CONFORMER_RMSD>
0.6

> <PUBCHEM_CONFORMER_DIVERSEORDER>
2
1

> <PUBCHEM_MMFF94_PARTIAL_CHARGES>
12
10 0.14
13 -0.29
19 -0.29
20 -0.3
3 0.14
36 0.15
50 0.15
51 0.15
52 0.15
6 -0.28
7 0.14
8 0.14

> <PUBCHEM_EFFECTIVE_ROTOR_COUNT>
2.8

> <PUBCHEM_PHARMACOPHORE_FEATURES>
5
1 20 hydrophobe
3 10 17 18 hydrophobe
6 1 2 3 6 8 13 rings
6 1 2 4 5 7 9 rings
6 3 6 10 11 14 15 rings

> <PUBCHEM_HEAVY_ATOM_COUNT>
20

> <PUBCHEM_ATOM_DEF_STEREO_COUNT>
4

> <PUBCHEM_ATOM_UDEF_STEREO_COUNT>
0

> <PUBCHEM_BOND_DEF_STEREO_COUNT>
0

> <PUBCHEM_BOND_UDEF_STEREO_COUNT>
0

> <PUBCHEM_ISOTOPIC_ATOM_COUNT>
0

> <PUBCHEM_COMPONENT_COUNT>
1

> <PUBCHEM_CACTVS_TAUTO_COUNT>
1

> <PUBCHEM_CONFORMER_ID>
00BBE95B00000002

> <PUBCHEM_MMFF94_ENERGY>
63.1713

> <PUBCHEM_FEATURE_SELFOVERLAP>
25.404

> <PUBCHEM_SHAPE_FINGERPRINT>
10366900 7 18187088351312183691
10646746 165 16056606417194723569
10863032 1 18129665338644397618
10967382 1 18409442626626064036
10980938 120 18410009953172245870
11132069 177 18336819879073814301
11615757 297 18272651246711104785
11796584 16 14201690796723703625
12011746 2 18334012774412038854
12173636 292 16630517445278471439
12236239 1 17917709115647365791
12251169 10 18261666051929033258
12390115 104 17689444097830832576
12633257 1 18410856542528745915
12644460 14 18114463448467339576
12670545 47 18041000673635648171
12670546 56 18202560696144633361
13140716 1 18337391655248663946
13224815 77 18409730685697923075
13544653 18 17894631448368761001
13583140 156 17023168457620383385
13675066 3 17749106703634485281
14004511 7 18273497883485954243
14223421 5 18264764359526403844
14289901 80 18261105305077862393
14341114 328 17918283064753595665
14739800 52 17344612958924585464
15196674 1 18409724101576407399
15209294 21 17988649545404308345
15238133 3 17274557433431108729
15309172 13 18410854352185160323
15375358 24 17894905227106910231
15375462 189 18113331982150811218
15536298 74 18341610460105582812
15848702 151 17775292612274210670
1601671 61 18341057324463760174
16945 1 18408603643198170943
17349148 13 18411128165277779791
17804303 29 18334575711628017278
18186145 218 18272089396422155488
200 152 18271794740639122279
20028762 73 18271232906734828159
20261772 1 18408606980414146595
20626108 58 12829493700599701665
20645477 70 18260818306783537855
20739085 24 18262534635982159668
21267235 1 18409451388138107062
21501502 16 18267577099496722686
21503847 285 17988655064273961128
22854114 111 18408882945026781776
22854114 59 18411132554417572211
23184049 59 18335419092685930266
23402539 116 17489297612682448407
23463225 33 18334287686873717844
23557571 272 16415766336062875819
23559900 14 18272937146010409358
2748010 2 17977941285317674078
2838139 119 15194728870982596161
3286 77 18186790358181324820
465052 167 18040722467240118483
474 4 18341050817002718345
5104073 3 18411417345024698611
633830 44 17988931067135165572
69090 78 18341323487423261143

> <PUBCHEM_SHAPE_MULTIPOLES>
411.59
8.6
2
1.45
2.3
0.05
-0.17
0.38
-2.86
-1.11
0.01
0.67
0.16
-0.54

> <PUBCHEM_SHAPE_SELFOVERLAP>
858.403

> <PUBCHEM_SHAPE_VOLUME>
233.3

> <PUBCHEM_COORDINATE_TYPE>
2
5
10

$$$$
