10887971
  -OEChem-11232013253D

 26 27  0     1  0  0  0  0  0999 V2000
   -0.4676    0.3337   -0.2400 C   0  0  1  0  0  0  0  0  0  0  0  0
    0.7228    0.7570    0.5823 C   0  0  2  0  0  0  0  0  0  0  0  0
    0.1172    1.7097   -0.4057 C   0  0  0  0  0  0  0  0  0  0  0  0
   -0.0589   -0.7943   -1.1442 C   0  0  0  0  0  0  0  0  0  0  0  0
   -1.7922    0.2125    0.4284 C   0  0  0  0  0  0  0  0  0  0  0  0
    1.8313   -0.1261    0.1939 C   0  0  0  0  0  0  0  0  0  0  0  0
    1.2950   -1.2879   -0.6093 C   0  0  0  0  0  0  0  0  0  0  0  0
   -2.9330    0.1476   -0.5954 C   0  0  0  0  0  0  0  0  0  0  0  0
   -1.8469   -1.0155    1.3465 C   0  0  0  0  0  0  0  0  0  0  0  0
    3.1322    0.0634    0.4435 C   0  0  0  0  0  0  0  0  0  0  0  0
    0.5940    0.9510    1.6394 H   0  0  0  0  0  0  0  0  0  0  0  0
   -0.4258    2.5614   -0.0117 H   0  0  0  0  0  0  0  0  0  0  0  0
    0.6625    1.9341   -1.3156 H   0  0  0  0  0  0  0  0  0  0  0  0
    0.0579   -0.4187   -2.1685 H   0  0  0  0  0  0  0  0  0  0  0  0
   -0.7665   -1.6268   -1.1934 H   0  0  0  0  0  0  0  0  0  0  0  0
   -1.9712    1.0939    1.0588 H   0  0  0  0  0  0  0  0  0  0  0  0
    1.9577   -1.5917   -1.4254 H   0  0  0  0  0  0  0  0  0  0  0  0
    1.1398   -2.1445    0.0571 H   0  0  0  0  0  0  0  0  0  0  0  0
   -2.8868   -0.7559   -1.2116 H   0  0  0  0  0  0  0  0  0  0  0  0
   -3.9041    0.1547   -0.0889 H   0  0  0  0  0  0  0  0  0  0  0  0
   -2.8979    1.0115   -1.2680 H   0  0  0  0  0  0  0  0  0  0  0  0
   -1.7630   -1.9553    0.7920 H   0  0  0  0  0  0  0  0  0  0  0  0
   -2.7960   -1.0403    1.8930 H   0  0  0  0  0  0  0  0  0  0  0  0
   -1.0394   -0.9924    2.0858 H   0  0  0  0  0  0  0  0  0  0  0  0
    3.4719    0.9267    1.0055 H   0  0  0  0  0  0  0  0  0  0  0  0
    3.8794   -0.6401    0.0926 H   0  0  0  0  0  0  0  0  0  0  0  0
  1  2  1  0  0  0  0
  1  3  1  0  0  0  0
  1  4  1  0  0  0  0
  1  5  1  0  0  0  0
  2  3  1  0  0  0  0
  2  6  1  0  0  0  0
  2 11  1  0  0  0  0
  3 12  1  0  0  0  0
  3 13  1  0  0  0  0
  4  7  1  0  0  0  0
  4 14  1  0  0  0  0
  4 15  1  0  0  0  0
  5  8  1  0  0  0  0
  5  9  1  0  0  0  0
  5 16  1  0  0  0  0
  6  7  1  0  0  0  0
  6 10  2  0  0  0  0
  7 17  1  0  0  0  0
  7 18  1  0  0  0  0
  8 19  1  0  0  0  0
  8 20  1  0  0  0  0
  8 21  1  0  0  0  0
  9 22  1  0  0  0  0
  9 23  1  0  0  0  0
  9 24  1  0  0  0  0
 10 25  1  0  0  0  0
 10 26  1  0  0  0  0
M  END
> <PUBCHEM_COMPOUND_CID>
10887971

> <PUBCHEM_CONFORMER_RMSD>
0.4

> <PUBCHEM_CONFORMER_DIVERSEORDER>
1
2
3

> <PUBCHEM_MMFF94_PARTIAL_CHARGES>
13
1 -0.19
10 -0.3
11 0.1
12 0.1
13 0.1
2 -0.06
25 0.15
26 0.15
3 -0.2
4 0.09
5 0.09
6 -0.18
7 0.14

> <PUBCHEM_EFFECTIVE_ROTOR_COUNT>
1.6

> <PUBCHEM_PHARMACOPHORE_FEATURES>
2
3 5 8 9 hydrophobe
6 1 2 3 4 6 7 rings

> <PUBCHEM_HEAVY_ATOM_COUNT>
10

> <PUBCHEM_ATOM_DEF_STEREO_COUNT>
2

> <PUBCHEM_ATOM_UDEF_STEREO_COUNT>
0

> <PUBCHEM_BOND_DEF_STEREO_COUNT>
0

> <PUBCHEM_BOND_UDEF_STEREO_COUNT>
0

> <PUBCHEM_ISOTOPIC_ATOM_COUNT>
0

> <PUBCHEM_COMPONENT_COUNT>
1

> <PUBCHEM_CACTVS_TAUTO_COUNT>
1

> <PUBCHEM_CONFORMER_ID>
00A6232300000001

> <PUBCHEM_MMFF94_ENERGY>
22.7723

> <PUBCHEM_FEATURE_SELFOVERLAP>
10.148

> <PUBCHEM_SHAPE_FINGERPRINT>
10219947 1 18343582953579320869
10857977 72 18408603686311094920
11062470 55 18187641388544434621
12138202 97 18040705966197222319
12423570 1 15068893101618768882
13024252 1 17604136043877653636
14128692 85 16081663273684990482
14993402 34 18131063878817211596
16945 1 18130795576520820330
20201158 50 18334854996055563675
20653085 51 12966857887407639410
21040471 1 17846497066908777614
21922407 69 16271655468571372779
23402539 116 18114165429313268309
2748010 2 17913490143038562116
29004967 10 18409737252623816992
369184 2 17603578604399019120
5084963 1 15626221316522249976
68250623 7 17606692588706030628

> <PUBCHEM_SHAPE_MULTIPOLES>
205.8
3.7
1.32
1.1
0.2
0.18
0.08
-0.3
0.51
0.08
-0.12
-0.34
-0.27
0.39

> <PUBCHEM_SHAPE_SELFOVERLAP>
423.097

> <PUBCHEM_SHAPE_VOLUME>
120.3

> <PUBCHEM_COORDINATE_TYPE>
2
5
10

$$$$
