443470
  -OEChem-11232013383D

 52 54  0     1  0  0  0  0  0999 V2000
    1.1298    0.6460   -0.2869 C   0  0  1  0  0  0  0  0  0  0  0  0
    1.9519   -0.5798    0.2604 C   0  0  2  0  0  0  0  0  0  0  0  0
    3.5183   -0.4439    0.2893 C   0  0  0  0  0  0  0  0  0  0  0  0
   -0.3685    0.4255    0.1847 C   0  0  2  0  0  0  0  0  0  0  0  0
    1.6745    1.9550    0.3401 C   0  0  0  0  0  0  0  0  0  0  0  0
    3.9094    0.9340    0.8760 C   0  0  0  0  0  0  0  0  0  0  0  0
    1.4397   -1.8980   -0.3617 C   0  0  0  0  0  0  0  0  0  0  0  0
    3.1873    2.1045    0.2219 C   0  0  0  0  0  0  0  0  0  0  0  0
    1.1811    0.7758   -1.8294 C   0  0  0  0  0  0  0  0  0  0  0  0
   -0.8876   -0.9784   -0.1122 C   0  0  0  0  0  0  0  0  0  0  0  0
   -1.3608    1.4812   -0.3468 C   0  0  0  0  0  0  0  0  0  0  0  0
   -0.0583   -2.0056   -0.3673 C   0  0  0  0  0  0  0  0  0  0  0  0
    4.1084   -1.5231    1.2356 C   0  0  0  0  0  0  0  0  0  0  0  0
    4.2155   -0.6446   -1.0707 C   0  0  0  0  0  0  0  0  0  0  0  0
   -2.7722    1.2555    0.2054 C   0  0  0  0  0  0  0  0  0  0  0  0
   -2.3276   -1.1798   -0.0817 C   0  0  0  0  0  0  0  0  0  0  0  0
   -3.2107   -0.1811    0.0908 C   0  0  0  0  0  0  0  0  0  0  0  0
   -4.6871   -0.4324    0.1777 C   0  0  0  0  0  0  0  0  0  0  0  0
   -5.2201    0.0178    1.5337 C   0  0  0  0  0  0  0  0  0  0  0  0
   -5.4229    0.2714   -0.9588 C   0  0  0  0  0  0  0  0  0  0  0  0
    1.6754   -0.6382    1.3276 H   0  0  0  0  0  0  0  0  0  0  0  0
   -0.3776    0.5172    1.2827 H   0  0  0  0  0  0  0  0  0  0  0  0
    1.4089    1.9908    1.4051 H   0  0  0  0  0  0  0  0  0  0  0  0
    1.2029    2.8303   -0.1220 H   0  0  0  0  0  0  0  0  0  0  0  0
    4.9927    1.0895    0.7929 H   0  0  0  0  0  0  0  0  0  0  0  0
    3.6828    0.9510    1.9510 H   0  0  0  0  0  0  0  0  0  0  0  0
    1.8292   -2.7493    0.2070 H   0  0  0  0  0  0  0  0  0  0  0  0
    1.7891   -2.0143   -1.3926 H   0  0  0  0  0  0  0  0  0  0  0  0
    3.4858    2.2067   -0.8263 H   0  0  0  0  0  0  0  0  0  0  0  0
    3.4924    3.0334    0.7187 H   0  0  0  0  0  0  0  0  0  0  0  0
    2.1945    0.8706   -2.2132 H   0  0  0  0  0  0  0  0  0  0  0  0
    0.7179   -0.0740   -2.3390 H   0  0  0  0  0  0  0  0  0  0  0  0
    0.6583    1.6771   -2.1680 H   0  0  0  0  0  0  0  0  0  0  0  0
   -1.4145    1.4420   -1.4419 H   0  0  0  0  0  0  0  0  0  0  0  0
   -1.0385    2.4922   -0.0765 H   0  0  0  0  0  0  0  0  0  0  0  0
   -0.4611   -2.9922   -0.5858 H   0  0  0  0  0  0  0  0  0  0  0  0
    3.6386   -1.4878    2.2250 H   0  0  0  0  0  0  0  0  0  0  0  0
    3.9736   -2.5330    0.8348 H   0  0  0  0  0  0  0  0  0  0  0  0
    5.1851   -1.3742    1.3803 H   0  0  0  0  0  0  0  0  0  0  0  0
    5.3058   -0.6459   -0.9461 H   0  0  0  0  0  0  0  0  0  0  0  0
    3.9535   -1.6026   -1.5290 H   0  0  0  0  0  0  0  0  0  0  0  0
    3.9999    0.1467   -1.7869 H   0  0  0  0  0  0  0  0  0  0  0  0
   -3.4413    1.9318   -0.3339 H   0  0  0  0  0  0  0  0  0  0  0  0
   -2.7964    1.5530    1.2610 H   0  0  0  0  0  0  0  0  0  0  0  0
   -2.6872   -2.2009   -0.1850 H   0  0  0  0  0  0  0  0  0  0  0  0
   -4.8846   -1.5084    0.0830 H   0  0  0  0  0  0  0  0  0  0  0  0
   -5.1568    1.1032    1.6678 H   0  0  0  0  0  0  0  0  0  0  0  0
   -4.6717   -0.4587    2.3542 H   0  0  0  0  0  0  0  0  0  0  0  0
   -6.2749   -0.2603    1.6377 H   0  0  0  0  0  0  0  0  0  0  0  0
   -4.9665    0.0497   -1.9299 H   0  0  0  0  0  0  0  0  0  0  0  0
   -5.4588    1.3585   -0.8347 H   0  0  0  0  0  0  0  0  0  0  0  0
   -6.4625   -0.0742   -0.9997 H   0  0  0  0  0  0  0  0  0  0  0  0
  1  2  1  0  0  0  0
  1  4  1  0  0  0  0
  1  5  1  0  0  0  0
  1  9  1  0  0  0  0
  2  3  1  0  0  0  0
  2  7  1  0  0  0  0
  2 21  1  0  0  0  0
  3  6  1  0  0  0  0
  3 13  1  0  0  0  0
  3 14  1  0  0  0  0
  4 10  1  0  0  0  0
  4 11  1  0  0  0  0
  4 22  1  0  0  0  0
  5  8  1  0  0  0  0
  5 23  1  0  0  0  0
  5 24  1  0  0  0  0
  6  8  1  0  0  0  0
  6 25  1  0  0  0  0
  6 26  1  0  0  0  0
  7 12  1  0  0  0  0
  7 27  1  0  0  0  0
  7 28  1  0  0  0  0
  8 29  1  0  0  0  0
  8 30  1  0  0  0  0
  9 31  1  0  0  0  0
  9 32  1  0  0  0  0
  9 33  1  0  0  0  0
 10 12  2  0  0  0  0
 10 16  1  0  0  0  0
 11 15  1  0  0  0  0
 11 34  1  0  0  0  0
 11 35  1  0  0  0  0
 12 36  1  0  0  0  0
 13 37  1  0  0  0  0
 13 38  1  0  0  0  0
 13 39  1  0  0  0  0
 14 40  1  0  0  0  0
 14 41  1  0  0  0  0
 14 42  1  0  0  0  0
 15 17  1  0  0  0  0
 15 43  1  0  0  0  0
 15 44  1  0  0  0  0
 16 17  2  0  0  0  0
 16 45  1  0  0  0  0
 17 18  1  0  0  0  0
 18 19  1  0  0  0  0
 18 20  1  0  0  0  0
 18 46  1  0  0  0  0
 19 47  1  0  0  0  0
 19 48  1  0  0  0  0
 19 49  1  0  0  0  0
 20 50  1  0  0  0  0
 20 51  1  0  0  0  0
 20 52  1  0  0  0  0
M  END
> <PUBCHEM_COMPOUND_CID>
443470

> <PUBCHEM_CONFORMER_RMSD>
0.6

> <PUBCHEM_CONFORMER_DIVERSEORDER>
1
2

> <PUBCHEM_MMFF94_PARTIAL_CHARGES>
10
10 -0.14
12 -0.29
15 0.14
16 -0.15
17 -0.28
18 0.14
36 0.15
4 0.14
45 0.15
7 0.14

> <PUBCHEM_EFFECTIVE_ROTOR_COUNT>
2.4

> <PUBCHEM_PHARMACOPHORE_FEATURES>
5
3 18 19 20 hydrophobe
3 3 13 14 hydrophobe
6 1 2 3 5 6 8 rings
6 1 2 4 7 10 12 rings
6 4 10 11 15 16 17 rings

> <PUBCHEM_HEAVY_ATOM_COUNT>
20

> <PUBCHEM_ATOM_DEF_STEREO_COUNT>
3

> <PUBCHEM_ATOM_UDEF_STEREO_COUNT>
0

> <PUBCHEM_BOND_DEF_STEREO_COUNT>
0

> <PUBCHEM_BOND_UDEF_STEREO_COUNT>
0

> <PUBCHEM_ISOTOPIC_ATOM_COUNT>
0

> <PUBCHEM_COMPONENT_COUNT>
1

> <PUBCHEM_CACTVS_TAUTO_COUNT>
1

> <PUBCHEM_CONFORMER_ID>
0006C44E00000001

> <PUBCHEM_MMFF94_ENERGY>
55.7241

> <PUBCHEM_FEATURE_SELFOVERLAP>
25.405

> <PUBCHEM_SHAPE_FINGERPRINT>
10366900 7 18260276226065548010
10967382 1 18412260662048459112
11132069 177 18411415141938563939
11471102 20 18413385449295021557
11796584 16 16298384639339863635
12011746 2 18410295796325999126
12236239 1 17749112179802300838
12251169 10 18410003360576775178
12403259 226 18337102363547622860
12403259 415 18410009927244751829
12403260 363 18341041948101201169
12507560 40 18261384542387219764
12592029 89 18410858732904311019
12633257 1 18342454837474823370
13140716 1 18338796843967600194
13224815 77 18412267259334523131
13533116 47 17895469233274666579
13583140 156 17096624630591130721
13675066 3 18040434425658942337
13862211 1 18411694361920696951
14178342 30 18055072051870981328
14341114 176 18334580143812746754
14341114 328 17704077300246570849
15196674 1 18339922718399752039
15375358 24 18334011701160649555
15536298 74 18343301491698456672
15788980 27 18113899373284967575
16945 1 18411128117985614686
17349148 13 18409728461200340799
17802600 8 18410006620304121381
17804303 29 18408887300260653116
17862501 102 18341325630738347435
1813 80 17022897926826965684
18186145 218 18343301474428949316
200 152 18202555177723451261
20028762 73 18131342029574411199
20261772 1 18412545431202042147
20645477 70 18412260644752623567
20691752 17 17750219465321096782
21033648 29 18189034495837313573
21267235 1 18410863131314604218
21637258 2 15864341408011201482
22854114 111 18411140251083434025
22854114 59 18412260640410098985
23184049 59 18408882957753343670
23402539 116 17917986170902411701
23557571 272 16558755585540169345
23558518 356 17617650399151013256
23559900 14 18130796693660704052
2838139 119 14476091528522189778
296302 2 18272087248701098217
3286 77 18261385607955483216
335352 9 18411980252186948902
34797466 226 14907619077336163689
34934 24 18199180875211472952
350125 39 18409732837361046060
351380 180 18411975867088337529
4072396 5 18337095783567989691
42630746 31 18272934916722110823
465052 167 18186807971483912586
474 4 18342455997194965121
5104073 3 18340768247073384347
542803 24 16988847181064145401
59755656 215 18336828581157669175
633830 44 18059858384731428223
69090 78 18272928353801046983
7364860 26 18272093772909616222
9709674 26 18340771541049678895
9999458 23 18407760356840378966

> <PUBCHEM_SHAPE_MULTIPOLES>
411.59
10.05
2
1.17
8.84
0.1
0.11
-0.17
-1.91
-1.49
-0.05
-0.07
0.03
0.03

> <PUBCHEM_SHAPE_SELFOVERLAP>
856.311

> <PUBCHEM_SHAPE_VOLUME>
232.9

> <PUBCHEM_COORDINATE_TYPE>
2
5
10

$$$$
