73555482
  -OEChem-11232013503D

 40 41  0     1  0  0  0  0  0999 V2000
   -4.5740   -1.8529   -0.1173 O   0  0  0  0  0  0  0  0  0  0  0  0
    1.0316    0.4933   -0.2145 C   0  0  2  0  0  0  0  0  0  0  0  0
    1.2397   -1.0689   -0.4387 C   0  0  2  0  0  0  0  0  0  0  0  0
    2.1033    0.2709    0.9454 C   0  0  1  0  0  0  0  0  0  0  0  0
    1.4614   -1.1557    1.1079 C   0  0  0  0  0  0  0  0  0  0  0  0
    2.5364   -1.4676   -1.1756 C   0  0  0  0  0  0  0  0  0  0  0  0
   -0.3727    0.9027    0.2729 C   0  0  0  0  0  0  0  0  0  0  0  0
    3.5210    0.1415    0.4497 C   0  0  0  0  0  0  0  0  0  0  0  0
    1.4041    1.4277   -1.3731 C   0  0  0  0  0  0  0  0  0  0  0  0
    3.7065   -0.7212   -0.5692 C   0  0  0  0  0  0  0  0  0  0  0  0
   -1.4115    0.6924   -0.8214 C   0  0  0  0  0  0  0  0  0  0  0  0
    4.5959    0.9394    1.1048 C   0  0  0  0  0  0  0  0  0  0  0  0
   -2.7921    1.1189   -0.4040 C   0  0  0  0  0  0  0  0  0  0  0  0
   -3.7538    0.3709    0.1709 C   0  0  0  0  0  0  0  0  0  0  0  0
   -3.6025   -1.0728    0.5670 C   0  0  0  0  0  0  0  0  0  0  0  0
   -5.0932    0.9815    0.4953 C   0  0  0  0  0  0  0  0  0  0  0  0
    0.3777   -1.6308   -0.8092 H   0  0  0  0  0  0  0  0  0  0  0  0
    2.0059    0.9269    1.8159 H   0  0  0  0  0  0  0  0  0  0  0  0
    2.1182   -1.9574    1.4643 H   0  0  0  0  0  0  0  0  0  0  0  0
    0.5535   -1.2043    1.7173 H   0  0  0  0  0  0  0  0  0  0  0  0
    2.4553   -1.2264   -2.2407 H   0  0  0  0  0  0  0  0  0  0  0  0
    2.7045   -2.5463   -1.0850 H   0  0  0  0  0  0  0  0  0  0  0  0
   -0.6796    0.3506    1.1670 H   0  0  0  0  0  0  0  0  0  0  0  0
   -0.3599    1.9581    0.5772 H   0  0  0  0  0  0  0  0  0  0  0  0
    0.8596    1.1731   -2.2876 H   0  0  0  0  0  0  0  0  0  0  0  0
    2.4633    1.3849   -1.6385 H   0  0  0  0  0  0  0  0  0  0  0  0
    1.1960    2.4738   -1.1218 H   0  0  0  0  0  0  0  0  0  0  0  0
    4.6934   -0.8869   -0.9886 H   0  0  0  0  0  0  0  0  0  0  0  0
   -1.1731    1.2758   -1.7169 H   0  0  0  0  0  0  0  0  0  0  0  0
   -1.4262   -0.3501   -1.1544 H   0  0  0  0  0  0  0  0  0  0  0  0
    5.5757    0.7495    0.6549 H   0  0  0  0  0  0  0  0  0  0  0  0
    4.6595    0.6903    2.1688 H   0  0  0  0  0  0  0  0  0  0  0  0
    4.3841    2.0092    1.0114 H   0  0  0  0  0  0  0  0  0  0  0  0
   -3.0146    2.1646   -0.6140 H   0  0  0  0  0  0  0  0  0  0  0  0
   -3.7645   -1.1812    1.6449 H   0  0  0  0  0  0  0  0  0  0  0  0
   -2.6141   -1.4778    0.3357 H   0  0  0  0  0  0  0  0  0  0  0  0
   -5.8898    0.4823   -0.0657 H   0  0  0  0  0  0  0  0  0  0  0  0
   -5.3053    0.8827    1.5650 H   0  0  0  0  0  0  0  0  0  0  0  0
   -5.1357    2.0478    0.2489 H   0  0  0  0  0  0  0  0  0  0  0  0
   -4.4664   -2.7713    0.1838 H   0  0  0  0  0  0  0  0  0  0  0  0
  1 15  1  0  0  0  0
  1 40  1  0  0  0  0
  2  3  1  0  0  0  0
  2  4  1  0  0  0  0
  2  7  1  0  0  0  0
  2  9  1  0  0  0  0
  3  5  1  0  0  0  0
  3  6  1  0  0  0  0
  3 17  1  0  0  0  0
  4  5  1  0  0  0  0
  4  8  1  0  0  0  0
  4 18  1  0  0  0  0
  5 19  1  0  0  0  0
  5 20  1  0  0  0  0
  6 10  1  0  0  0  0
  6 21  1  0  0  0  0
  6 22  1  0  0  0  0
  7 11  1  0  0  0  0
  7 23  1  0  0  0  0
  7 24  1  0  0  0  0
  8 10  2  0  0  0  0
  8 12  1  0  0  0  0
  9 25  1  0  0  0  0
  9 26  1  0  0  0  0
  9 27  1  0  0  0  0
 10 28  1  0  0  0  0
 11 13  1  0  0  0  0
 11 29  1  0  0  0  0
 11 30  1  0  0  0  0
 12 31  1  0  0  0  0
 12 32  1  0  0  0  0
 12 33  1  0  0  0  0
 13 14  2  0  0  0  0
 13 34  1  0  0  0  0
 14 15  1  0  0  0  0
 14 16  1  0  0  0  0
 15 35  1  0  0  0  0
 15 36  1  0  0  0  0
 16 37  1  0  0  0  0
 16 38  1  0  0  0  0
 16 39  1  0  0  0  0
M  END
> <PUBCHEM_COMPOUND_CID>
73555482

> <PUBCHEM_CONFORMER_RMSD>
0.6

> <PUBCHEM_CONFORMER_DIVERSEORDER>
6
19
38
36
23
8
20
10
33
9
28
4
32
21
25
5
22
3
14
13
30
35
7
29
2
37
34
17
1
11
26
24
12
31
15
18
27
16

> <PUBCHEM_MMFF94_PARTIAL_CHARGES>
14
1 -0.68
10 -0.29
11 0.14
12 0.14
13 -0.29
14 -0.28
15 0.42
16 0.14
28 0.15
34 0.15
4 0.12
40 0.4
6 0.14
8 -0.25

> <PUBCHEM_EFFECTIVE_ROTOR_COUNT>
4.6

> <PUBCHEM_PHARMACOPHORE_FEATURES>
4
1 1 acceptor
1 1 donor
1 16 hydrophobe
7 2 3 4 5 6 8 10 rings

> <PUBCHEM_HEAVY_ATOM_COUNT>
16

> <PUBCHEM_ATOM_DEF_STEREO_COUNT>
3

> <PUBCHEM_ATOM_UDEF_STEREO_COUNT>
0

> <PUBCHEM_BOND_DEF_STEREO_COUNT>
1

> <PUBCHEM_BOND_UDEF_STEREO_COUNT>
0

> <PUBCHEM_ISOTOPIC_ATOM_COUNT>
0

> <PUBCHEM_COMPONENT_COUNT>
1

> <PUBCHEM_CACTVS_TAUTO_COUNT>
1

> <PUBCHEM_CONFORMER_ID>
04625E1A00000006

> <PUBCHEM_MMFF94_ENERGY>
38.339

> <PUBCHEM_FEATURE_SELFOVERLAP>
20.297

> <PUBCHEM_SHAPE_FINGERPRINT>
10366900 7 17917698098771519049
11132069 177 18335423456805252151
11552529 35 16988275508264917399
11806522 49 18261110802662206132
12553582 1 17603872182809808773
12916748 109 10231745704545895181
13296908 3 18341892952873491541
13675066 3 18202002114399785845
13911882 115 18201730603478650830
14178342 30 17824253800518664300
14252887 29 18410862018617160272
14787075 74 18266454489513885832
14863182 85 17240485750156641578
15375358 24 18411696552569866957
15788980 27 16588019087218047713
16945 1 17313391067912453868
17349148 13 16008749074290003512
19050596 39 18114185250397642669
200 152 14634865340582887549
20279233 1 18412545384263032245
20645477 70 17274256128473996957
21079973 296 18335140916317995179
21730867 7 18201999906501525128
22485316 2 18408602535481398985
23048698 100 16630525103157544179
23402539 116 15285632162333140516
23402655 69 17240763930761281189
23503953 91 18408891733047158961
23557571 272 18041843883232759340
23559900 14 18339644421619725846
26918003 58 18130786724661840745
4047638 21 18201718444979467576
5104073 3 18271806795995501395
90127 26 16988572272855384865

> <PUBCHEM_SHAPE_MULTIPOLES>
323.4
9.69
1.6
1.18
8.45
0.39
-0.07
0.31
2.02
0.51
-0.21
-0.86
-0.06
0.54

> <PUBCHEM_SHAPE_SELFOVERLAP>
656.714

> <PUBCHEM_SHAPE_VOLUME>
191.7

> <PUBCHEM_COORDINATE_TYPE>
2
5
10

$$$$
