11401461
  -OEChem-11232013413D

 39 41  0     1  0  0  0  0  0999 V2000
    0.1865   -0.3195   -0.4374 C   0  0  2  0  0  0  0  0  0  0  0  0
   -1.0663   -1.1598   -0.1616 C   0  0  2  0  0  0  0  0  0  0  0  0
    0.0312    1.2388   -0.3101 C   0  0  2  0  0  0  0  0  0  0  0  0
   -0.5704   -0.9959   -1.5719 C   0  0  0  0  0  0  0  0  0  0  0  0
    1.5741   -0.9164    0.0007 C   0  0  0  0  0  0  0  0  0  0  0  0
    0.5161    1.6896    1.0906 C   0  0  0  0  0  0  0  0  0  0  0  0
    1.9949   -0.3173    1.3656 C   0  0  0  0  0  0  0  0  0  0  0  0
   -1.4559    1.7118   -0.4744 C   0  0  0  0  0  0  0  0  0  0  0  0
   -2.2973   -0.4840    0.2847 C   0  0  0  0  0  0  0  0  0  0  0  0
    1.9171    1.2007    1.4372 C   0  0  0  0  0  0  0  0  0  0  0  0
    0.8077    1.9943   -1.4124 C   0  0  0  0  0  0  0  0  0  0  0  0
    1.5539   -2.4568    0.2080 C   0  0  0  0  0  0  0  0  0  0  0  0
    2.6567   -0.6661   -1.0709 C   0  0  0  0  0  0  0  0  0  0  0  0
   -2.4893    0.8380    0.1594 C   0  0  0  0  0  0  0  0  0  0  0  0
   -3.3590   -1.3577    0.8926 C   0  0  0  0  0  0  0  0  0  0  0  0
   -0.9689   -2.1579    0.2452 H   0  0  0  0  0  0  0  0  0  0  0  0
   -0.1312   -1.8593   -2.0579 H   0  0  0  0  0  0  0  0  0  0  0  0
   -1.1402   -0.3900   -2.2667 H   0  0  0  0  0  0  0  0  0  0  0  0
   -0.1738    1.3168    1.8592 H   0  0  0  0  0  0  0  0  0  0  0  0
    0.4964    2.7845    1.1631 H   0  0  0  0  0  0  0  0  0  0  0  0
    3.0147   -0.6341    1.6193 H   0  0  0  0  0  0  0  0  0  0  0  0
    1.3429   -0.7206    2.1529 H   0  0  0  0  0  0  0  0  0  0  0  0
   -1.7174    1.7974   -1.5380 H   0  0  0  0  0  0  0  0  0  0  0  0
   -1.5603    2.7250   -0.0635 H   0  0  0  0  0  0  0  0  0  0  0  0
    2.6673    1.6587    0.7857 H   0  0  0  0  0  0  0  0  0  0  0  0
    2.1643    1.5227    2.4561 H   0  0  0  0  0  0  0  0  0  0  0  0
    0.6314    1.5500   -2.3979 H   0  0  0  0  0  0  0  0  0  0  0  0
    0.4936    3.0443   -1.4613 H   0  0  0  0  0  0  0  0  0  0  0  0
    1.8836    2.0214   -1.2480 H   0  0  0  0  0  0  0  0  0  0  0  0
    0.8909   -2.7529    1.0276 H   0  0  0  0  0  0  0  0  0  0  0  0
    1.2419   -2.9909   -0.6948 H   0  0  0  0  0  0  0  0  0  0  0  0
    2.5509   -2.8303    0.4735 H   0  0  0  0  0  0  0  0  0  0  0  0
    3.5589   -1.2559   -0.8680 H   0  0  0  0  0  0  0  0  0  0  0  0
    2.2998   -0.9435   -2.0685 H   0  0  0  0  0  0  0  0  0  0  0  0
    2.9910    0.3690   -1.1123 H   0  0  0  0  0  0  0  0  0  0  0  0
   -3.4197    1.2997    0.4753 H   0  0  0  0  0  0  0  0  0  0  0  0
   -2.9757   -1.8495    1.7928 H   0  0  0  0  0  0  0  0  0  0  0  0
   -3.6677   -2.1298    0.1801 H   0  0  0  0  0  0  0  0  0  0  0  0
   -4.2520   -0.7910    1.1771 H   0  0  0  0  0  0  0  0  0  0  0  0
  1  2  1  0  0  0  0
  1  3  1  0  0  0  0
  1  4  1  0  0  0  0
  1  5  1  0  0  0  0
  2  4  1  0  0  0  0
  2  9  1  0  0  0  0
  2 16  1  0  0  0  0
  3  6  1  0  0  0  0
  3  8  1  0  0  0  0
  3 11  1  0  0  0  0
  4 17  1  0  0  0  0
  4 18  1  0  0  0  0
  5  7  1  0  0  0  0
  5 12  1  0  0  0  0
  5 13  1  0  0  0  0
  6 10  1  0  0  0  0
  6 19  1  0  0  0  0
  6 20  1  0  0  0  0
  7 10  1  0  0  0  0
  7 21  1  0  0  0  0
  7 22  1  0  0  0  0
  8 14  1  0  0  0  0
  8 23  1  0  0  0  0
  8 24  1  0  0  0  0
  9 14  2  0  0  0  0
  9 15  1  0  0  0  0
 10 25  1  0  0  0  0
 10 26  1  0  0  0  0
 11 27  1  0  0  0  0
 11 28  1  0  0  0  0
 11 29  1  0  0  0  0
 12 30  1  0  0  0  0
 12 31  1  0  0  0  0
 12 32  1  0  0  0  0
 13 33  1  0  0  0  0
 13 34  1  0  0  0  0
 13 35  1  0  0  0  0
 14 36  1  0  0  0  0
 15 37  1  0  0  0  0
 15 38  1  0  0  0  0
 15 39  1  0  0  0  0
M  END
> <PUBCHEM_COMPOUND_CID>
11401461

> <PUBCHEM_CONFORMER_RMSD>
0.6

> <PUBCHEM_CONFORMER_DIVERSEORDER>
4
2
1
3

> <PUBCHEM_MMFF94_PARTIAL_CHARGES>
13
1 -0.19
14 -0.29
15 0.14
16 0.1
17 0.1
18 0.1
2 -0.06
3 0.09
36 0.15
4 -0.2
5 0.09
8 0.14
9 -0.18

> <PUBCHEM_EFFECTIVE_ROTOR_COUNT>
1.2

> <PUBCHEM_PHARMACOPHORE_FEATURES>
3
3 5 12 13 hydrophobe
6 1 3 5 6 7 10 rings
7 1 2 3 4 8 9 14 rings

> <PUBCHEM_HEAVY_ATOM_COUNT>
15

> <PUBCHEM_ATOM_DEF_STEREO_COUNT>
3

> <PUBCHEM_ATOM_UDEF_STEREO_COUNT>
0

> <PUBCHEM_BOND_DEF_STEREO_COUNT>
0

> <PUBCHEM_BOND_UDEF_STEREO_COUNT>
0

> <PUBCHEM_ISOTOPIC_ATOM_COUNT>
0

> <PUBCHEM_COMPONENT_COUNT>
1

> <PUBCHEM_CACTVS_TAUTO_COUNT>
1

> <PUBCHEM_CONFORMER_ID>
00ADF8F500000004

> <PUBCHEM_MMFF94_ENERGY>
49.392

> <PUBCHEM_FEATURE_SELFOVERLAP>
15.268

> <PUBCHEM_SHAPE_FINGERPRINT>
10863032 1 18043261145178078134
11067466 332 18264498462501395467
12326174 3 17314225755481910292
12423570 1 14974837505830513228
12524768 44 18268411495377336655
12696612 119 18340193206549406952
13024252 1 13843685231751930334
144361 1 18338816553640859176
14817 1 11789962094155168236
15076042 46 17622159070945129038
15775835 57 17772754011718761449
161256 15 18342176691118606028
16945 1 18264206911415565005
18186145 218 8934461609168288347
20511035 2 18342174423740098213
20588541 1 17908988699358076087
20645477 70 17898576638398739987
21922407 69 16806447990130594944
22344851 341 18410867572315933116
23388829 49 17981023525864129703
23419403 2 17112645382696787532
23559900 14 17549531917685595706
2748010 2 18270106933733393413
430814 3 16740864672433490492
5084963 1 18270413770750417179
528862 383 17825388749952871437
528886 8 18118417369241872396
54276843 12 18199208263758684974
598444 67 17615399269141255571
81228 2 18043799906076609613

> <PUBCHEM_SHAPE_MULTIPOLES>
308.69
3.74
2.31
1.43
1.86
0.06
0.04
-1.25
-0.93
-0.32
0.09
-0.56
0.26
0.43

> <PUBCHEM_SHAPE_SELFOVERLAP>
647.099

> <PUBCHEM_SHAPE_VOLUME>
176.1

> <PUBCHEM_COORDINATE_TYPE>
2
5
10

$$$$
