91747202
  -OEChem-09122015243D

 40 42  0     1  0  0  0  0  0999 V2000
    1.5755    0.9950    1.8934 O   0  0  0  0  0  0  0  0  0  0  0  0
   -0.5725   -0.9644   -0.1216 C   0  0  1  0  0  0  0  0  0  0  0  0
    0.5968   -0.5763   -1.1024 C   0  0  1  0  0  0  0  0  0  0  0  0
    0.4217   -0.9997    1.0790 C   0  0  1  0  0  0  0  0  0  0  0  0
    1.2215    0.7448   -0.5148 C   0  0  2  0  0  0  0  0  0  0  0  0
   -1.8171    0.0445    0.0320 C   0  0  0  0  0  0  0  0  0  0  0  0
    1.6116   -1.7426   -0.8821 C   0  0  0  0  0  0  0  0  0  0  0  0
    1.5236   -1.9884    0.6410 C   0  0  0  0  0  0  0  0  0  0  0  0
    1.1199    0.3556    0.9564 C   0  0  0  0  0  0  0  0  0  0  0  0
    0.4260    1.9868   -0.9297 C   0  0  0  0  0  0  0  0  0  0  0  0
   -1.5237    1.4069    0.7104 C   0  0  0  0  0  0  0  0  0  0  0  0
   -1.1486   -2.3865   -0.4318 C   0  0  0  0  0  0  0  0  0  0  0  0
   -0.7240    2.4476   -0.0532 C   0  0  0  0  0  0  0  0  0  0  0  0
    2.6957    0.9689   -0.8940 C   0  0  0  0  0  0  0  0  0  0  0  0
   -2.9085   -0.5923    0.9523 C   0  0  0  0  0  0  0  0  0  0  0  0
   -2.4980    0.3002   -1.3349 C   0  0  0  0  0  0  0  0  0  0  0  0
    0.3032   -0.4917   -2.1522 H   0  0  0  0  0  0  0  0  0  0  0  0
   -0.0094   -1.1769    2.0642 H   0  0  0  0  0  0  0  0  0  0  0  0
    2.6306   -1.5230   -1.2072 H   0  0  0  0  0  0  0  0  0  0  0  0
    1.3305   -2.6347   -1.4503 H   0  0  0  0  0  0  0  0  0  0  0  0
    1.2505   -3.0261    0.8574 H   0  0  0  0  0  0  0  0  0  0  0  0
    2.4840   -1.7859    1.1284 H   0  0  0  0  0  0  0  0  0  0  0  0
    0.0649    1.8479   -1.9566 H   0  0  0  0  0  0  0  0  0  0  0  0
    1.0977    2.8525   -1.0140 H   0  0  0  0  0  0  0  0  0  0  0  0
   -1.0791    1.2433    1.6993 H   0  0  0  0  0  0  0  0  0  0  0  0
   -2.4783    1.8999    0.9496 H   0  0  0  0  0  0  0  0  0  0  0  0
   -1.8168   -2.3657   -1.2969 H   0  0  0  0  0  0  0  0  0  0  0  0
   -1.6965   -2.7836    0.4289 H   0  0  0  0  0  0  0  0  0  0  0  0
   -0.4150   -3.1602   -0.6580 H   0  0  0  0  0  0  0  0  0  0  0  0
   -0.3364    3.1669    0.6810 H   0  0  0  0  0  0  0  0  0  0  0  0
   -1.4096    3.0315   -0.6818 H   0  0  0  0  0  0  0  0  0  0  0  0
    2.8377    0.9008   -1.9776 H   0  0  0  0  0  0  0  0  0  0  0  0
    3.3742    0.2644   -0.4020 H   0  0  0  0  0  0  0  0  0  0  0  0
    3.0394    1.9593   -0.5712 H   0  0  0  0  0  0  0  0  0  0  0  0
   -1.7973    0.6634   -2.0890 H   0  0  0  0  0  0  0  0  0  0  0  0
   -2.4844   -0.9001    1.9142 H   0  0  0  0  0  0  0  0  0  0  0  0
   -3.2944    1.0483   -1.2408 H   0  0  0  0  0  0  0  0  0  0  0  0
   -3.7200    0.1153    1.1623 H   0  0  0  0  0  0  0  0  0  0  0  0
   -3.3919   -1.4592    0.4908 H   0  0  0  0  0  0  0  0  0  0  0  0
   -2.9664   -0.6031   -1.7375 H   0  0  0  0  0  0  0  0  0  0  0  0
  1  9  2  0  0  0  0
  2  3  1  0  0  0  0
  2  4  1  0  0  0  0
  2  6  1  0  0  0  0
  2 12  1  0  0  0  0
  3  5  1  0  0  0  0
  3  7  1  0  0  0  0
  3 17  1  0  0  0  0
  4  8  1  0  0  0  0
  4  9  1  0  0  0  0
  4 18  1  0  0  0  0
  5  9  1  0  0  0  0
  5 10  1  0  0  0  0
  5 14  1  0  0  0  0
  6 11  1  0  0  0  0
  6 15  1  0  0  0  0
  6 16  1  0  0  0  0
  7  8  1  0  0  0  0
  7 19  1  0  0  0  0
  7 20  1  0  0  0  0
  8 21  1  0  0  0  0
  8 22  1  0  0  0  0
 10 13  1  0  0  0  0
 10 23  1  0  0  0  0
 10 24  1  0  0  0  0
 11 13  1  0  0  0  0
 11 25  1  0  0  0  0
 11 26  1  0  0  0  0
 12 27  1  0  0  0  0
 12 28  1  0  0  0  0
 12 29  1  0  0  0  0
 13 30  1  0  0  0  0
 13 31  1  0  0  0  0
 14 32  1  0  0  0  0
 14 33  1  0  0  0  0
 14 34  1  0  0  0  0
 15 36  1  0  0  0  0
 15 38  1  0  0  0  0
 15 39  1  0  0  0  0
 16 35  1  0  0  0  0
 16 37  1  0  0  0  0
 16 40  1  0  0  0  0
M  END
> <PUBCHEM_COMPOUND_CID>
91747202

> <PUBCHEM_CONFORMER_RMSD>
0.6

> <PUBCHEM_CONFORMER_DIVERSEORDER>
1
3
5
2
4
6

> <PUBCHEM_MMFF94_PARTIAL_CHARGES>
4
1 -0.57
4 0.06
5 0.06
9 0.45

> <PUBCHEM_EFFECTIVE_ROTOR_COUNT>
1.2

> <PUBCHEM_PHARMACOPHORE_FEATURES>
4
1 1 acceptor
3 6 15 16 hydrophobe
7 2 3 4 5 7 8 9 rings
7 2 3 5 6 10 11 13 rings

> <PUBCHEM_HEAVY_ATOM_COUNT>
16

> <PUBCHEM_ATOM_DEF_STEREO_COUNT>
0

> <PUBCHEM_ATOM_UDEF_STEREO_COUNT>
4

> <PUBCHEM_BOND_DEF_STEREO_COUNT>
0

> <PUBCHEM_BOND_UDEF_STEREO_COUNT>
0

> <PUBCHEM_ISOTOPIC_ATOM_COUNT>
0

> <PUBCHEM_COMPONENT_COUNT>
1

> <PUBCHEM_CACTVS_TAUTO_COUNT>
1

> <PUBCHEM_CONFORMER_ID>
0577F38200000001

> <PUBCHEM_MMFF94_ENERGY>
94.0948

> <PUBCHEM_FEATURE_SELFOVERLAP>
20.562

> <PUBCHEM_SHAPE_FINGERPRINT>
10863032 1 18193299428073084621
10948715 1 17970362613581395165
12423570 1 17766600027916129134
12524768 44 18343578542959326175
12808571 1 18194426556398583105
13024252 1 14720988269689625884
13140716 1 18050859015255068593
13172582 1 18265047127309311041
141345 1 15264488669927096944
144361 1 18341619161387590477
14817 1 17767360855566005800
15557651 10 17988654037528707888
15881359 60 17254491354565983276
16945 1 18343868835413971340
20511035 2 18123173620162213237
22344851 341 18194417593054992106
22802520 49 18124618408416114046
2334 1 18337961086376215565
23419403 2 16531649282120198237
23559900 14 17047101231609094326
241688 4 18192439567035798113
2748010 2 18337112246314531989
353137 74 18336839631776381132
5084963 1 17985535672328700095
528886 8 18196669581546538532

> <PUBCHEM_SHAPE_MULTIPOLES>
323.4
3.15
2.5
1.39
0.94
0.02
-0.22
-0.05
0.16
-0.18
0.21
-0.17
0.1
-0.05

> <PUBCHEM_SHAPE_SELFOVERLAP>
694.826

> <PUBCHEM_SHAPE_VOLUME>
181.2

> <PUBCHEM_COORDINATE_TYPE>
2
5
10

$$$$
