10526066
  -OEChem-09122016543D

 67 69  0     1  0  0  0  0  0999 V2000
    0.4766   -0.7347   -0.6291 O   0  0  0  0  0  0  0  0  0  0  0  0
   -0.7437    0.7259   -2.5155 O   0  0  0  0  0  0  0  0  0  0  0  0
   -5.4373    0.9695    0.5223 O   0  0  0  0  0  0  0  0  0  0  0  0
    1.8343    0.8456    0.4215 O   0  0  0  0  0  0  0  0  0  0  0  0
    2.7832   -2.2138   -1.3361 O   0  0  0  0  0  0  0  0  0  0  0  0
    5.1620   -0.4926   -1.5792 O   0  0  0  0  0  0  0  0  0  0  0  0
    5.4663    1.1522    0.7784 O   0  0  0  0  0  0  0  0  0  0  0  0
    1.8999    2.6597    2.4856 O   0  0  0  0  0  0  0  0  0  0  0  0
   -3.0649    0.2790    0.5127 C   0  0  2  0  0  0  0  0  0  0  0  0
   -1.8631    0.0548   -0.4744 C   0  0  2  0  0  0  0  0  0  0  0  0
   -0.5967   -0.4608    0.2691 C   0  0  1  0  0  0  0  0  0  0  0  0
   -1.6221    1.2215   -1.4868 C   0  0  2  0  0  0  0  0  0  0  0  0
   -0.8692   -1.7456    1.0842 C   0  0  1  0  0  0  0  0  0  0  0  0
   -3.3198   -1.0577    1.2710 C   0  0  0  0  0  0  0  0  0  0  0  0
   -4.3312    0.6450   -0.3180 C   0  0  2  0  0  0  0  0  0  0  0  0
   -2.0824   -1.5791    2.0045 C   0  0  0  0  0  0  0  0  0  0  0  0
   -2.9368    1.5910   -2.1997 C   0  0  0  0  0  0  0  0  0  0  0  0
   -4.1051    1.8311   -1.2575 C   0  0  0  0  0  0  0  0  0  0  0  0
   -2.8134    1.3690    1.5861 C   0  0  0  0  0  0  0  0  0  0  0  0
   -1.0158   -2.9996    0.2078 C   0  0  0  0  0  0  0  0  0  0  0  0
   -0.9327    2.4612   -0.9076 C   0  0  0  0  0  0  0  0  0  0  0  0
    1.7433   -0.5099   -0.0109 C   0  0  2  0  0  0  0  0  0  0  0  0
    0.1806   -3.1330   -0.7264 C   0  0  0  0  0  0  0  0  0  0  0  0
   -1.1657   -4.2392    1.0813 C   0  0  0  0  0  0  0  0  0  0  0  0
    2.8307   -0.8184   -1.0400 C   0  0  1  0  0  0  0  0  0  0  0  0
    4.2181   -0.4596   -0.5075 C   0  0  2  0  0  0  0  0  0  0  0  0
    3.0730    1.1308    1.0737 C   0  0  1  0  0  0  0  0  0  0  0  0
    4.2338    0.9462    0.0933 C   0  0  1  0  0  0  0  0  0  0  0  0
    2.9983    2.5615    1.5974 C   0  0  0  0  0  0  0  0  0  0  0  0
   -2.1572   -0.7829   -1.1276 H   0  0  0  0  0  0  0  0  0  0  0  0
   -0.3055    0.3205    0.9776 H   0  0  0  0  0  0  0  0  0  0  0  0
   -0.0036   -1.9149    1.7395 H   0  0  0  0  0  0  0  0  0  0  0  0
   -3.6701   -1.8228    0.5669 H   0  0  0  0  0  0  0  0  0  0  0  0
   -4.1319   -0.9309    1.9985 H   0  0  0  0  0  0  0  0  0  0  0  0
   -4.6297   -0.2248   -0.9175 H   0  0  0  0  0  0  0  0  0  0  0  0
   -1.8148   -0.8655    2.7944 H   0  0  0  0  0  0  0  0  0  0  0  0
   -2.3354   -2.4925    2.5483 H   0  0  0  0  0  0  0  0  0  0  0  0
   -3.2061    0.7831   -2.8947 H   0  0  0  0  0  0  0  0  0  0  0  0
   -2.7880    2.4727   -2.8363 H   0  0  0  0  0  0  0  0  0  0  0  0
   -3.9607    2.7584   -0.6920 H   0  0  0  0  0  0  0  0  0  0  0  0
   -5.0142    2.0031   -1.8482 H   0  0  0  0  0  0  0  0  0  0  0  0
   -3.5535    1.2978    2.3928 H   0  0  0  0  0  0  0  0  0  0  0  0
   -1.8305    1.2926    2.0561 H   0  0  0  0  0  0  0  0  0  0  0  0
   -2.9061    2.3816    1.1929 H   0  0  0  0  0  0  0  0  0  0  0  0
   -1.9113   -2.9357   -0.4208 H   0  0  0  0  0  0  0  0  0  0  0  0
    0.0033    2.2122   -0.4086 H   0  0  0  0  0  0  0  0  0  0  0  0
   -0.6588    3.1547   -1.7126 H   0  0  0  0  0  0  0  0  0  0  0  0
   -1.5569    3.0192   -0.2115 H   0  0  0  0  0  0  0  0  0  0  0  0
   -0.6400    1.4216   -3.1871 H   0  0  0  0  0  0  0  0  0  0  0  0
   -6.2060    1.1322   -0.0505 H   0  0  0  0  0  0  0  0  0  0  0  0
    1.8492   -1.1742    0.8554 H   0  0  0  0  0  0  0  0  0  0  0  0
    0.1330   -2.5231   -1.6299 H   0  0  0  0  0  0  0  0  0  0  0  0
    0.1757   -4.1503   -1.1452 H   0  0  0  0  0  0  0  0  0  0  0  0
    1.1026   -3.0932   -0.1526 H   0  0  0  0  0  0  0  0  0  0  0  0
   -2.1494   -4.2946    1.5559 H   0  0  0  0  0  0  0  0  0  0  0  0
   -1.0756   -5.1509    0.4795 H   0  0  0  0  0  0  0  0  0  0  0  0
   -0.3966   -4.2844    1.8598 H   0  0  0  0  0  0  0  0  0  0  0  0
    2.6330   -0.2881   -1.9791 H   0  0  0  0  0  0  0  0  0  0  0  0
    4.5583   -1.1985    0.2285 H   0  0  0  0  0  0  0  0  0  0  0  0
    3.1776    0.4589    1.9365 H   0  0  0  0  0  0  0  0  0  0  0  0
    4.1762    1.6803   -0.7209 H   0  0  0  0  0  0  0  0  0  0  0  0
    3.1625   -2.6963   -0.5818 H   0  0  0  0  0  0  0  0  0  0  0  0
    2.8289    3.2683    0.7782 H   0  0  0  0  0  0  0  0  0  0  0  0
    3.9046    2.8447    2.1398 H   0  0  0  0  0  0  0  0  0  0  0  0
    6.0279   -0.2446   -1.2123 H   0  0  0  0  0  0  0  0  0  0  0  0
    5.5646    2.1064    0.9338 H   0  0  0  0  0  0  0  0  0  0  0  0
    1.8647    3.5796    2.7986 H   0  0  0  0  0  0  0  0  0  0  0  0
  1 11  1  0  0  0  0
  1 22  1  0  0  0  0
  2 12  1  0  0  0  0
  2 49  1  0  0  0  0
  3 15  1  0  0  0  0
  3 50  1  0  0  0  0
  4 22  1  0  0  0  0
  4 27  1  0  0  0  0
  5 25  1  0  0  0  0
  5 62  1  0  0  0  0
  6 26  1  0  0  0  0
  6 65  1  0  0  0  0
  7 28  1  0  0  0  0
  7 66  1  0  0  0  0
  8 29  1  0  0  0  0
  8 67  1  0  0  0  0
  9 10  1  0  0  0  0
  9 14  1  0  0  0  0
  9 15  1  0  0  0  0
  9 19  1  0  0  0  0
 10 11  1  0  0  0  0
 10 12  1  0  0  0  0
 10 30  1  0  0  0  0
 11 13  1  0  0  0  0
 11 31  1  0  0  0  0
 12 17  1  0  0  0  0
 12 21  1  0  0  0  0
 13 16  1  0  0  0  0
 13 20  1  0  0  0  0
 13 32  1  0  0  0  0
 14 16  1  0  0  0  0
 14 33  1  0  0  0  0
 14 34  1  0  0  0  0
 15 18  1  0  0  0  0
 15 35  1  0  0  0  0
 16 36  1  0  0  0  0
 16 37  1  0  0  0  0
 17 18  1  0  0  0  0
 17 38  1  0  0  0  0
 17 39  1  0  0  0  0
 18 40  1  0  0  0  0
 18 41  1  0  0  0  0
 19 42  1  0  0  0  0
 19 43  1  0  0  0  0
 19 44  1  0  0  0  0
 20 23  1  0  0  0  0
 20 24  1  0  0  0  0
 20 45  1  0  0  0  0
 21 46  1  0  0  0  0
 21 47  1  0  0  0  0
 21 48  1  0  0  0  0
 22 25  1  0  0  0  0
 22 51  1  0  0  0  0
 23 52  1  0  0  0  0
 23 53  1  0  0  0  0
 23 54  1  0  0  0  0
 24 55  1  0  0  0  0
 24 56  1  0  0  0  0
 24 57  1  0  0  0  0
 25 26  1  0  0  0  0
 25 58  1  0  0  0  0
 26 28  1  0  0  0  0
 26 59  1  0  0  0  0
 27 28  1  0  0  0  0
 27 29  1  0  0  0  0
 27 60  1  0  0  0  0
 28 61  1  0  0  0  0
 29 63  1  0  0  0  0
 29 64  1  0  0  0  0
M  END
> <PUBCHEM_COMPOUND_CID>
10526066

> <PUBCHEM_CONFORMER_RMSD>
0.8

> <PUBCHEM_CONFORMER_DIVERSEORDER>
1
10
9
8
5
2
11
4
6
3
7

> <PUBCHEM_MMFF94_PARTIAL_CHARGES>
23
1 -0.56
11 0.28
12 0.28
15 0.28
2 -0.68
22 0.56
25 0.28
26 0.28
27 0.28
28 0.28
29 0.28
3 -0.68
4 -0.56
49 0.4
5 -0.68
50 0.4
6 -0.68
62 0.4
65 0.4
66 0.4
67 0.4
7 -0.68
8 -0.68

> <PUBCHEM_EFFECTIVE_ROTOR_COUNT>
6.8

> <PUBCHEM_PHARMACOPHORE_FEATURES>
18
1 1 acceptor
1 2 acceptor
1 2 donor
1 3 acceptor
1 3 donor
1 4 acceptor
1 5 acceptor
1 5 donor
1 6 acceptor
1 6 donor
1 7 acceptor
1 7 donor
1 8 acceptor
1 8 donor
3 20 23 24 hydrophobe
6 4 22 25 26 27 28 rings
6 9 10 11 13 14 16 rings
6 9 10 12 15 17 18 rings

> <PUBCHEM_HEAVY_ATOM_COUNT>
29

> <PUBCHEM_ATOM_DEF_STEREO_COUNT>
11

> <PUBCHEM_ATOM_UDEF_STEREO_COUNT>
0

> <PUBCHEM_BOND_DEF_STEREO_COUNT>
0

> <PUBCHEM_BOND_UDEF_STEREO_COUNT>
0

> <PUBCHEM_ISOTOPIC_ATOM_COUNT>
0

> <PUBCHEM_COMPONENT_COUNT>
1

> <PUBCHEM_CACTVS_TAUTO_COUNT>
1

> <PUBCHEM_CONFORMER_ID>
00A09D7200000001

> <PUBCHEM_MMFF94_ENERGY>
116.7845

> <PUBCHEM_FEATURE_SELFOVERLAP>
91.436

> <PUBCHEM_SHAPE_FINGERPRINT>
10165383 225 18335435525172775980
10366900 7 18412267198825335436
10906281 52 17169002080156648757
11370993 70 18342178877378506731
11578080 2 18196382630755979528
11595378 159 17023175050600950080
11725454 13 18334848403333765187
12035758 1 18187655721277784041
12236239 1 16200432450934651589
12403259 415 18335143046743125661
12422481 6 18046653328283190179
12633257 1 18337940273344442816
12969540 114 18261940891439715567
13004483 165 17761204823122443723
13140716 1 17678199250815984761
13402501 40 18409453578523630344
13583140 156 17774727579155771891
13726171 33 17531829964539491588
14251764 3 18337381665059579877
15295992 7 18342730845311464160
16945 1 17240206534453676879
18219364 16 18271242824087581552
19930381 70 18130785672510878377
20511986 3 15430029980800676613
20600515 1 17458635539838862509
21033648 29 18336254691501214073
22182313 1 18116458984831361659
23559900 14 17969511415915280926
23598288 3 15719938168756958533
238 59 18199449005133847718
3187 122 17830170564566518579
3298306 158 18336261224447119082
3380486 145 17262146442392853111
35225 105 17968357031341784376
3524813 1 18408892819167151378
3729539 64 18122354475842882102
469060 322 16622901346970192019
474 4 17845924217156310112
508706 21 18337388361298950118
5265222 85 17969239944603438646
6287921 2 17834688471225642008
633830 44 18058736779965947999
6442390 28 18334012757379920983
7399639 24 17406543088765879360
7808743 9 18114748252027822028
81228 2 18046060729358250915

> <PUBCHEM_SHAPE_MULTIPOLES>
549.85
9.01
3.63
2.05
5.7
3.24
-0.09
-4.53
0.01
-1
-0.63
0
-0.9
2.88

> <PUBCHEM_SHAPE_SELFOVERLAP>
1137.916

> <PUBCHEM_SHAPE_VOLUME>
308.7

> <PUBCHEM_COORDINATE_TYPE>
2
5
10

$$$$
