93231
  -OEChem-09122015003D

 25 24  0     0  0  0  0  0  0999 V2000
   -1.5300    0.4264   -1.5896 O   0  0  0  0  0  0  0  0  0  0  0  0
   -0.1017    0.1330    0.3286 C   0  0  0  0  0  0  0  0  0  0  0  0
    1.0587    0.5176   -0.5973 C   0  0  0  0  0  0  0  0  0  0  0  0
   -1.4449    0.1540   -0.3911 C   0  0  0  0  0  0  0  0  0  0  0  0
    2.3952    0.5071    0.1133 C   0  0  0  0  0  0  0  0  0  0  0  0
   -2.6953   -0.1678    0.3795 C   0  0  0  0  0  0  0  0  0  0  0  0
   -3.9833   -0.1304   -0.3892 C   0  0  0  0  0  0  0  0  0  0  0  0
    3.2070   -0.7024    0.1465 C   0  0  0  0  0  0  0  0  0  0  0  0
    2.8519    1.6293    0.6967 C   0  0  0  0  0  0  0  0  0  0  0  0
   -2.6598   -0.4727    1.6842 C   0  0  0  0  0  0  0  0  0  0  0  0
    2.9022   -1.8942   -0.3816 C   0  0  0  0  0  0  0  0  0  0  0  0
    0.0616   -0.8776    0.7201 H   0  0  0  0  0  0  0  0  0  0  0  0
   -0.1465    0.8409    1.1645 H   0  0  0  0  0  0  0  0  0  0  0  0
    0.8685    1.5257   -0.9930 H   0  0  0  0  0  0  0  0  0  0  0  0
    1.0788   -0.1219   -1.4878 H   0  0  0  0  0  0  0  0  0  0  0  0
   -3.9587   -0.8524   -1.2121 H   0  0  0  0  0  0  0  0  0  0  0  0
   -4.1515    0.8683   -0.8054 H   0  0  0  0  0  0  0  0  0  0  0  0
   -4.8455   -0.3757    0.2400 H   0  0  0  0  0  0  0  0  0  0  0  0
    4.1666   -0.6236    0.6558 H   0  0  0  0  0  0  0  0  0  0  0  0
    2.2716    2.5466    0.6804 H   0  0  0  0  0  0  0  0  0  0  0  0
    3.8094    1.6654    1.2071 H   0  0  0  0  0  0  0  0  0  0  0  0
   -3.5738   -0.7026    2.2236 H   0  0  0  0  0  0  0  0  0  0  0  0
   -1.7448   -0.5087    2.2629 H   0  0  0  0  0  0  0  0  0  0  0  0
    3.5999   -2.7206   -0.2881 H   0  0  0  0  0  0  0  0  0  0  0  0
    1.9739   -2.0914   -0.9041 H   0  0  0  0  0  0  0  0  0  0  0  0
  1  4  2  0  0  0  0
  2  3  1  0  0  0  0
  2  4  1  0  0  0  0
  2 12  1  0  0  0  0
  2 13  1  0  0  0  0
  3  5  1  0  0  0  0
  3 14  1  0  0  0  0
  3 15  1  0  0  0  0
  4  6  1  0  0  0  0
  5  8  1  0  0  0  0
  5  9  2  0  0  0  0
  6  7  1  0  0  0  0
  6 10  2  0  0  0  0
  7 16  1  0  0  0  0
  7 17  1  0  0  0  0
  7 18  1  0  0  0  0
  8 11  2  0  0  0  0
  8 19  1  0  0  0  0
  9 20  1  0  0  0  0
  9 21  1  0  0  0  0
 10 22  1  0  0  0  0
 10 23  1  0  0  0  0
 11 24  1  0  0  0  0
 11 25  1  0  0  0  0
M  END
> <PUBCHEM_COMPOUND_CID>
93231

> <PUBCHEM_CONFORMER_RMSD>
0.6

> <PUBCHEM_CONFORMER_DIVERSEORDER>
1
99
114
98
64
100
22
45
110
116
79
58
15
71
108
17
72
74
94
109
122
95
101
10
14
89
28
18
21
69
78
35
102
46
26
103
16
82
117
33
120
73
119
50
39
115
12
31
83
125
93
8
105
121
123
43
111
70
24
81
84
9
97
61
90
60
77
47
13
54
25
63
91
107
49
65
92
80
2
86
126
88
27
34
67
30
75
85
104
66
118
113
11
4
38
53
55
6
40
52
68
37
29
106
41
3
56
36
87
44
51
112
57
62
5
32
19
76
48
20
23
124
7
59
96
42

> <PUBCHEM_MMFF94_PARTIAL_CHARGES>
18
1 -0.57
10 -0.3
11 -0.3
19 0.15
2 0.06
20 0.15
21 0.15
22 0.15
23 0.15
24 0.15
25 0.15
3 0.14
4 0.49
5 -0.14
6 -0.12
7 0.14
8 -0.15
9 -0.3

> <PUBCHEM_EFFECTIVE_ROTOR_COUNT>
5

> <PUBCHEM_PHARMACOPHORE_FEATURES>
4
1 1 acceptor
1 11 hydrophobe
1 9 hydrophobe
4 2 3 5 8 hydrophobe

> <PUBCHEM_HEAVY_ATOM_COUNT>
11

> <PUBCHEM_ATOM_DEF_STEREO_COUNT>
0

> <PUBCHEM_ATOM_UDEF_STEREO_COUNT>
0

> <PUBCHEM_BOND_DEF_STEREO_COUNT>
0

> <PUBCHEM_BOND_UDEF_STEREO_COUNT>
0

> <PUBCHEM_ISOTOPIC_ATOM_COUNT>
0

> <PUBCHEM_COMPONENT_COUNT>
1

> <PUBCHEM_CACTVS_TAUTO_COUNT>
2

> <PUBCHEM_CONFORMER_ID>
00016C2F00000001

> <PUBCHEM_MMFF94_ENERGY>
15.91

> <PUBCHEM_FEATURE_SELFOVERLAP>
20.473

> <PUBCHEM_SHAPE_FINGERPRINT>
10465860 71 16298682598179665742
107287 299 18334864969386252332
12932764 1 18059856177329500740
13296908 3 17821734961176173283
14144814 61 16487259876003170833
15669948 3 15841262761432684181
19107657 162 17894638088298679627
20201158 50 18186804651579661762
20279233 1 17967249818837672346
20281407 28 17458069269796359515
20645477 70 18411975836797135662
20711983 138 18114186289457806177
20715346 28 18114175350202464052
21730867 7 18409729590760837472
22169311 21 18334856160091940795
22485316 2 18341889723290239007
23048698 100 17918275367607711401
23557571 272 17240475889001153852
3248919 1 17894915156575640781
581208 293 18409163346388301418
81228 2 17604143714642473701

> <PUBCHEM_SHAPE_MULTIPOLES>
220.51
6.92
1.33
1.18
1.85
0.22
0.11
0.97
0.72
-1.95
0.09
0.99
-0.03
0.34

> <PUBCHEM_SHAPE_SELFOVERLAP>
418.647

> <PUBCHEM_SHAPE_VOLUME>
136

> <PUBCHEM_COORDINATE_TYPE>
2
5
10

$$$$
