5315832
  -OEChem-09122016503D

 43 44  0     1  0  0  0  0  0999 V2000
   -0.9528   -1.4480    0.2388 O   0  0  0  0  0  0  0  0  0  0  0  0
   -4.3835    0.8694    1.4158 O   0  0  0  0  0  0  0  0  0  0  0  0
   -2.7178   -1.8305   -1.8992 O   0  0  0  0  0  0  0  0  0  0  0  0
   -5.1772   -1.8466    0.7753 O   0  0  0  0  0  0  0  0  0  0  0  0
   -3.6638    2.4329   -1.6670 O   0  0  0  0  0  0  0  0  0  0  0  0
   -4.4284    3.2197    0.3310 O   0  0  0  0  0  0  0  0  0  0  0  0
   -0.2981   -0.2764    2.1192 O   0  0  0  0  0  0  0  0  0  0  0  0
    7.0448    0.6222    1.3237 O   0  0  0  0  0  0  0  0  0  0  0  0
    7.3681    0.2822   -1.4159 O   0  0  0  0  0  0  0  0  0  0  0  0
   -3.9339    0.8664    0.0652 C   0  0  1  0  0  0  0  0  0  0  0  0
   -2.3184   -1.0629    0.3681 C   0  0  1  0  0  0  0  0  0  0  0  0
   -2.4691    0.4235    0.0319 C   0  0  0  0  0  0  0  0  0  0  0  0
   -4.8288   -0.0312   -0.8026 C   0  0  0  0  0  0  0  0  0  0  0  0
   -3.1739   -1.9426   -0.5509 C   0  0  1  0  0  0  0  0  0  0  0  0
   -4.6463   -1.5288   -0.5078 C   0  0  1  0  0  0  0  0  0  0  0  0
   -4.0453    2.2975   -0.3734 C   0  0  0  0  0  0  0  0  0  0  0  0
   -0.0729   -0.7670    1.0243 C   0  0  0  0  0  0  0  0  0  0  0  0
    1.2246   -0.7204    0.3126 C   0  0  0  0  0  0  0  0  0  0  0  0
    2.2709   -0.1090    0.8857 C   0  0  0  0  0  0  0  0  0  0  0  0
    3.6122   -0.0058    0.2843 C   0  0  0  0  0  0  0  0  0  0  0  0
    4.7018    0.2615    1.0972 C   0  0  0  0  0  0  0  0  0  0  0  0
    3.7572   -0.1772   -1.0829 C   0  0  0  0  0  0  0  0  0  0  0  0
    5.9711    0.3601    0.5273 C   0  0  0  0  0  0  0  0  0  0  0  0
    5.0263   -0.0787   -1.6528 C   0  0  0  0  0  0  0  0  0  0  0  0
    6.1333    0.1898   -0.8478 C   0  0  0  0  0  0  0  0  0  0  0  0
   -2.6282   -1.2434    1.4061 H   0  0  0  0  0  0  0  0  0  0  0  0
   -1.8997    1.0390    0.7386 H   0  0  0  0  0  0  0  0  0  0  0  0
   -2.0172    0.6178   -0.9501 H   0  0  0  0  0  0  0  0  0  0  0  0
   -4.6240    0.1373   -1.8671 H   0  0  0  0  0  0  0  0  0  0  0  0
   -5.8807    0.2324   -0.6313 H   0  0  0  0  0  0  0  0  0  0  0  0
   -3.0592   -2.9926   -0.2571 H   0  0  0  0  0  0  0  0  0  0  0  0
   -5.2189   -2.0946   -1.2523 H   0  0  0  0  0  0  0  0  0  0  0  0
   -5.3380    1.0552    1.4198 H   0  0  0  0  0  0  0  0  0  0  0  0
   -1.7717   -2.0558   -1.9048 H   0  0  0  0  0  0  0  0  0  0  0  0
   -5.0760   -2.8048    0.9064 H   0  0  0  0  0  0  0  0  0  0  0  0
   -3.7306    3.3623   -1.9734 H   0  0  0  0  0  0  0  0  0  0  0  0
    1.2741   -1.2141   -0.6509 H   0  0  0  0  0  0  0  0  0  0  0  0
    2.1657    0.3461    1.8681 H   0  0  0  0  0  0  0  0  0  0  0  0
    4.5771    0.3929    2.1694 H   0  0  0  0  0  0  0  0  0  0  0  0
    2.9223   -0.3656   -1.7503 H   0  0  0  0  0  0  0  0  0  0  0  0
    5.1461   -0.2076   -2.7251 H   0  0  0  0  0  0  0  0  0  0  0  0
    6.7433    0.7090    2.2443 H   0  0  0  0  0  0  0  0  0  0  0  0
    8.0144    0.4714   -0.7136 H   0  0  0  0  0  0  0  0  0  0  0  0
  1 11  1  0  0  0  0
  1 17  1  0  0  0  0
  2 10  1  0  0  0  0
  2 33  1  0  0  0  0
  3 14  1  0  0  0  0
  3 34  1  0  0  0  0
  4 15  1  0  0  0  0
  4 35  1  0  0  0  0
  5 16  1  0  0  0  0
  5 36  1  0  0  0  0
  6 16  2  0  0  0  0
  7 17  2  0  0  0  0
  8 23  1  0  0  0  0
  8 42  1  0  0  0  0
  9 25  1  0  0  0  0
  9 43  1  0  0  0  0
 10 12  1  0  0  0  0
 10 13  1  0  0  0  0
 10 16  1  0  0  0  0
 11 12  1  0  0  0  0
 11 14  1  0  0  0  0
 11 26  1  0  0  0  0
 12 27  1  0  0  0  0
 12 28  1  0  0  0  0
 13 15  1  0  0  0  0
 13 29  1  0  0  0  0
 13 30  1  0  0  0  0
 14 15  1  0  0  0  0
 14 31  1  0  0  0  0
 15 32  1  0  0  0  0
 17 18  1  0  0  0  0
 18 19  2  0  0  0  0
 18 37  1  0  0  0  0
 19 20  1  0  0  0  0
 19 38  1  0  0  0  0
 20 21  2  0  0  0  0
 20 22  1  0  0  0  0
 21 23  1  0  0  0  0
 21 39  1  0  0  0  0
 22 24  2  0  0  0  0
 22 40  1  0  0  0  0
 23 25  2  0  0  0  0
 24 25  1  0  0  0  0
 24 41  1  0  0  0  0
M  END
> <PUBCHEM_COMPOUND_CID>
5315832

> <PUBCHEM_CONFORMER_RMSD>
1

> <PUBCHEM_CONFORMER_DIVERSEORDER>
1
48
14
219
116
163
246
206
87
99
143
144
263
280
169
22
158
224
240
208
252
196
220
24
159
145
156
258
229
288
10
236
120
63
277
276
39
161
235
121
204
223
270
4
203
260
131
68
287
267
73
45
62
265
94
271
197
2
242
108
266
187
212
81
129
227
284
78
289
92
107
166
142
221
191
52
225
174
11
32
138
12
8
247
264
9
230
218
153
75
237
207
55
57
89
201
15
157
100
283
195
167
170
80
262
259
6
186
56
149
106
238
74
188
202
26
231
17
84
209
110
36
162
58
101
164
132
86
20
104
152
253
77
183
275
254
119
85
46
117
118
278
111
103
66
31
200
123
124
38
126
136
234
210
40
93
13
127
243
192
29
96
213
102
30
61
113
60
255
18
51
239
105
180
160
76
184
154
168
226
273
172
233
173
272
47
27
114
274
292
179
286
82
232
245
134
54
3
211
72
291
71
294
90
151
155
43
198
139
88
176
185
37
165
249
215
293
64
190
175
28
130
222
228
177
244
281
178
214
79
70
23
147
141
33
146
268
182
290
150
135
256
35
248
199
49
125
42
122
148
217
65
171
34
257
7
83
282
241
133
269
97
193
140
44
59
285
279
98
216
50
205
69
194
21
189
251
91
137
109
181
95
16
67
128
112
19
115
261
5
25
250
41
53

> <PUBCHEM_MMFF94_PARTIAL_CHARGES>
34
1 -0.43
10 0.34
11 0.28
14 0.28
15 0.28
16 0.66
17 0.71
18 -0.14
19 -0.18
2 -0.68
20 0.03
21 -0.15
22 -0.15
23 0.08
24 -0.15
25 0.08
3 -0.68
33 0.4
34 0.4
35 0.4
36 0.5
37 0.15
38 0.15
39 0.15
4 -0.68
40 0.15
41 0.15
42 0.45
43 0.45
5 -0.65
6 -0.57
7 -0.57
8 -0.53
9 -0.53

> <PUBCHEM_EFFECTIVE_ROTOR_COUNT>
6.2

> <PUBCHEM_PHARMACOPHORE_FEATURES>
14
1 2 acceptor
1 2 donor
1 3 acceptor
1 3 donor
1 4 acceptor
1 4 donor
1 5 acceptor
1 6 acceptor
1 7 acceptor
1 8 donor
1 9 donor
3 5 6 16 anion
6 10 11 12 13 14 15 rings
6 20 21 22 23 24 25 rings

> <PUBCHEM_HEAVY_ATOM_COUNT>
25

> <PUBCHEM_ATOM_DEF_STEREO_COUNT>
0

> <PUBCHEM_ATOM_UDEF_STEREO_COUNT>
4

> <PUBCHEM_BOND_DEF_STEREO_COUNT>
1

> <PUBCHEM_BOND_UDEF_STEREO_COUNT>
0

> <PUBCHEM_ISOTOPIC_ATOM_COUNT>
0

> <PUBCHEM_COMPONENT_COUNT>
1

> <PUBCHEM_CACTVS_TAUTO_COUNT>
10

> <PUBCHEM_CONFORMER_ID>
00511CF800000001

> <PUBCHEM_MMFF94_ENERGY>
66.5339

> <PUBCHEM_FEATURE_SELFOVERLAP>
71.127

> <PUBCHEM_SHAPE_FINGERPRINT>
10 15 12757152424662826470
10076449 9 18411414047692600903
10087517 78 18260542334024372068
10165383 225 17917721167599937795
105312 117 18201154360832894677
10638233 991 17749395914232736772
10670039 82 18333449837459505396
10803635 8 17989488515483751462
10835480 77 17060335236858939080
11089746 13 17967814977237856776
11135926 11 16486982765151408342
12236239 1 17385719214556317898
12390115 104 18270686364236010937
12516196 113 14692572139300091474
12596602 18 15285362825245660304
13073987 5 18334572430363213362
13631057 29 16878792754710368563
13673619 4 17916587691017922155
14251752 14 18412262801396035134
14856354 85 18188497994382399315
15183329 4 18202284671866497618
1577012 14 17603587409519903796
15880784 105 10879984766418073854
16120349 67 17557998247097000809
17780758 139 9799690394150175439
17844677 252 18341050808692560096
17913733 40 14490467569724600184
19489759 90 18412262856692552834
200 152 15195570095845574266
20281389 69 18334290959934359144
21033650 10 18338813233884171928
21315759 40 17168136875626151290
21756936 100 17894355470733879401
22061861 79 17060344015750771748
22122407 14 16153707600827534741
22393880 68 17988635316056681266
2297311 6 18343022229136552547
23081809 10 17894345575830816754
23198884 109 18187367648877943386
23402539 116 18261105279713831186
23559900 14 16845565461657660858
2838139 119 17967252005567064428
34797466 226 17988928928879722984
4015057 19 15697706112442387338
46194498 28 17916298518979385776
497634 4 17385439960120280607
5283173 99 18131351886713590144
531348 171 18343018856917734582
542803 24 17894631470234059210
6126387 218 18340482250561902746
6327066 14 18118394052477053949
633830 44 17458904816887166451
7808743 9 18262795147561108729

> <PUBCHEM_SHAPE_MULTIPOLES>
461.66
17.94
2.08
1.56
24.46
1.2
-0.12
3.92
-2.92
-5.34
-0.41
0.89
-0.01
0.2

> <PUBCHEM_SHAPE_SELFOVERLAP>
982.523

> <PUBCHEM_SHAPE_VOLUME>
253.8

> <PUBCHEM_COORDINATE_TYPE>
2
5
10

$$$$
