534549
  -OEChem-09122017103D

 48 48  0     0  0  0  0  0  0999 V2000
   -9.1065   -0.7604   -0.1252 O   0  0  0  0  0  0  0  0  0  0  0  0
   -8.0798    1.2052    0.3732 O   0  0  0  0  0  0  0  0  0  0  0  0
    5.9819    0.1842   -0.3477 C   0  0  0  0  0  0  0  0  0  0  0  0
    6.2402   -1.0806    0.4650 C   0  0  0  0  0  0  0  0  0  0  0  0
    7.2189    1.0239   -0.0445 C   0  0  0  0  0  0  0  0  0  0  0  0
    7.7303   -1.3430    0.2729 C   0  0  0  0  0  0  0  0  0  0  0  0
    8.3621    0.0137   -0.0433 C   0  0  0  0  0  0  0  0  0  0  0  0
    4.6823    0.8779    0.0210 C   0  0  0  0  0  0  0  0  0  0  0  0
    3.4360    0.0385   -0.2709 C   0  0  0  0  0  0  0  0  0  0  0  0
    2.0941    0.7113    0.0335 C   0  0  0  0  0  0  0  0  0  0  0  0
    0.8886   -0.2025   -0.1962 C   0  0  0  0  0  0  0  0  0  0  0  0
   -0.4248    0.5298    0.0927 C   0  0  0  0  0  0  0  0  0  0  0  0
   -1.6321   -0.3721   -0.1731 C   0  0  0  0  0  0  0  0  0  0  0  0
   -2.9755    0.3188    0.0784 C   0  0  0  0  0  0  0  0  0  0  0  0
   -4.1824   -0.5913   -0.1637 C   0  0  0  0  0  0  0  0  0  0  0  0
   -5.4962    0.1471    0.1136 C   0  0  0  0  0  0  0  0  0  0  0  0
   -6.7217   -0.7226   -0.1509 C   0  0  0  0  0  0  0  0  0  0  0  0
   -8.0153    0.0222    0.0650 C   0  0  0  0  0  0  0  0  0  0  0  0
    5.9738   -0.0677   -1.4169 H   0  0  0  0  0  0  0  0  0  0  0  0
    6.0276   -0.9148    1.5284 H   0  0  0  0  0  0  0  0  0  0  0  0
    5.6389   -1.9308    0.1285 H   0  0  0  0  0  0  0  0  0  0  0  0
    7.3747    1.8181   -0.7811 H   0  0  0  0  0  0  0  0  0  0  0  0
    7.1406    1.4933    0.9439 H   0  0  0  0  0  0  0  0  0  0  0  0
    8.1727   -1.8016    1.1630 H   0  0  0  0  0  0  0  0  0  0  0  0
    7.8914   -2.0307   -0.5653 H   0  0  0  0  0  0  0  0  0  0  0  0
    8.8425   -0.0212   -1.0279 H   0  0  0  0  0  0  0  0  0  0  0  0
    9.1311    0.2849    0.6870 H   0  0  0  0  0  0  0  0  0  0  0  0
    4.6107    1.8202   -0.5366 H   0  0  0  0  0  0  0  0  0  0  0  0
    4.6865    1.1487    1.0845 H   0  0  0  0  0  0  0  0  0  0  0  0
    3.4466   -0.2567   -1.3278 H   0  0  0  0  0  0  0  0  0  0  0  0
    3.4871   -0.8902    0.3104 H   0  0  0  0  0  0  0  0  0  0  0  0
    2.0945    1.0505    1.0768 H   0  0  0  0  0  0  0  0  0  0  0  0
    1.9982    1.6084   -0.5906 H   0  0  0  0  0  0  0  0  0  0  0  0
    0.9688   -1.0864    0.4479 H   0  0  0  0  0  0  0  0  0  0  0  0
    0.8928   -0.5563   -1.2342 H   0  0  0  0  0  0  0  0  0  0  0  0
   -0.4940    1.4253   -0.5366 H   0  0  0  0  0  0  0  0  0  0  0  0
   -0.4394    0.8653    1.1367 H   0  0  0  0  0  0  0  0  0  0  0  0
   -1.5630   -1.2632    0.4632 H   0  0  0  0  0  0  0  0  0  0  0  0
   -1.6013   -0.7225   -1.2123 H   0  0  0  0  0  0  0  0  0  0  0  0
   -3.0505    1.2008   -0.5697 H   0  0  0  0  0  0  0  0  0  0  0  0
   -3.0006    0.6833    1.1130 H   0  0  0  0  0  0  0  0  0  0  0  0
   -4.1704   -0.9461   -1.2011 H   0  0  0  0  0  0  0  0  0  0  0  0
   -4.1139   -1.4745    0.4825 H   0  0  0  0  0  0  0  0  0  0  0  0
   -5.5105    0.4930    1.1549 H   0  0  0  0  0  0  0  0  0  0  0  0
   -5.5444    1.0463   -0.5139 H   0  0  0  0  0  0  0  0  0  0  0  0
   -6.7078   -1.0776   -1.1874 H   0  0  0  0  0  0  0  0  0  0  0  0
   -6.7100   -1.5883    0.5204 H   0  0  0  0  0  0  0  0  0  0  0  0
   -9.9414   -0.2649    0.0153 H   0  0  0  0  0  0  0  0  0  0  0  0
  1 18  1  0  0  0  0
  1 48  1  0  0  0  0
  2 18  2  0  0  0  0
  3  4  1  0  0  0  0
  3  5  1  0  0  0  0
  3  8  1  0  0  0  0
  3 19  1  0  0  0  0
  4  6  1  0  0  0  0
  4 20  1  0  0  0  0
  4 21  1  0  0  0  0
  5  7  1  0  0  0  0
  5 22  1  0  0  0  0
  5 23  1  0  0  0  0
  6  7  1  0  0  0  0
  6 24  1  0  0  0  0
  6 25  1  0  0  0  0
  7 26  1  0  0  0  0
  7 27  1  0  0  0  0
  8  9  1  0  0  0  0
  8 28  1  0  0  0  0
  8 29  1  0  0  0  0
  9 10  1  0  0  0  0
  9 30  1  0  0  0  0
  9 31  1  0  0  0  0
 10 11  1  0  0  0  0
 10 32  1  0  0  0  0
 10 33  1  0  0  0  0
 11 12  1  0  0  0  0
 11 34  1  0  0  0  0
 11 35  1  0  0  0  0
 12 13  1  0  0  0  0
 12 36  1  0  0  0  0
 12 37  1  0  0  0  0
 13 14  1  0  0  0  0
 13 38  1  0  0  0  0
 13 39  1  0  0  0  0
 14 15  1  0  0  0  0
 14 40  1  0  0  0  0
 14 41  1  0  0  0  0
 15 16  1  0  0  0  0
 15 42  1  0  0  0  0
 15 43  1  0  0  0  0
 16 17  1  0  0  0  0
 16 44  1  0  0  0  0
 16 45  1  0  0  0  0
 17 18  1  0  0  0  0
 17 46  1  0  0  0  0
 17 47  1  0  0  0  0
M  END
> <PUBCHEM_COMPOUND_CID>
534549

> <PUBCHEM_CONFORMER_RMSD>
1.2

> <PUBCHEM_CONFORMER_DIVERSEORDER>
1
44
19
37
42
21
59
57
23
7
4
28
6
15
5
43
91
26
25
62
73
12
86
88
3
92
24
30
2
22
32
38
33
14
67
18
77
39
8
47
50
36
90
46
9
31
80
55
35
10
85
16
48
94
56
29
72
66
71
81
40
27
84
34
20
54
63
58
11
74
96
76
45
17
13
95
79
68
41
61
65
53
52
89
87
60
49
69
75
93
83
70
64
51
82
78

> <PUBCHEM_MMFF94_PARTIAL_CHARGES>
5
1 -0.65
17 0.06
18 0.66
2 -0.57
48 0.5

> <PUBCHEM_EFFECTIVE_ROTOR_COUNT>
12

> <PUBCHEM_PHARMACOPHORE_FEATURES>
4
1 1 acceptor
1 2 acceptor
3 1 2 18 anion
5 3 4 5 6 7 rings

> <PUBCHEM_HEAVY_ATOM_COUNT>
18

> <PUBCHEM_ATOM_DEF_STEREO_COUNT>
0

> <PUBCHEM_ATOM_UDEF_STEREO_COUNT>
0

> <PUBCHEM_BOND_DEF_STEREO_COUNT>
0

> <PUBCHEM_BOND_UDEF_STEREO_COUNT>
0

> <PUBCHEM_ISOTOPIC_ATOM_COUNT>
0

> <PUBCHEM_COMPONENT_COUNT>
1

> <PUBCHEM_CACTVS_TAUTO_COUNT>
1

> <PUBCHEM_CONFORMER_ID>
0008281500000001

> <PUBCHEM_MMFF94_ENERGY>
9.95

> <PUBCHEM_FEATURE_SELFOVERLAP>
20.355

> <PUBCHEM_SHAPE_FINGERPRINT>
10299344 5 18410573989478255359
11315181 36 17561088029663511163
11638347 137 15339125619987080286
12091667 2 15429751796865802655
13885169 127 18335701620499639477
14123256 10 12973602235533760854
14251764 18 18342740710540048129
14251764 46 18410856568235005414
15690457 1 18342453750895667574
15716309 27 18341893000134001654
16120349 18 18334294314346366092
18006028 8 17989205949427052969
20621476 8 17967530168997045117
21095086 128 18113335323788510459
21150785 3 8142085359864961757
21315763 28 18411138056788045741
22224240 67 17385723616465195443
232437 2 18411982472991034615
23521765 1 18341895198935619949
246663 6 16732702748575261135
249057 3 15430323559100507407
2835820 82 18043244640247722514
28498 318 18334856099972811638
33532 11 18260544507488787890
33684 2 18410855464423129091
5283156 175 18410013226000706892
67123 10 18409730681244784693
8209 1 18410575093253020012

> <PUBCHEM_SHAPE_MULTIPOLES>
358.69
33.24
1.08
0.65
25.72
0.07
0
3.38
1.33
-0.9
0.07
-0.14
0.01
-0.62

> <PUBCHEM_SHAPE_SELFOVERLAP>
679.993

> <PUBCHEM_SHAPE_VOLUME>
222.4

> <PUBCHEM_COORDINATE_TYPE>
2
5
10

$$$$
