21575210
  -OEChem-09032009483D

 48 50  0     1  0  0  0  0  0999 V2000
    1.0820   -3.1426   -0.0765 O   0  0  0  0  0  0  0  0  0  0  0  0
   -1.9864    0.3721    0.6410 O   0  0  0  0  0  0  0  0  0  0  0  0
    3.3013    2.2833   -0.5413 O   0  0  0  0  0  0  0  0  0  0  0  0
   -0.5645   -4.7393    0.0243 O   0  0  0  0  0  0  0  0  0  0  0  0
    1.2057    2.6242   -1.4321 O   0  0  0  0  0  0  0  0  0  0  0  0
   -2.2744    1.9130   -1.0454 O   0  0  0  0  0  0  0  0  0  0  0  0
   -0.1353   -1.2148    0.6013 C   0  0  2  0  0  0  0  0  0  0  0  0
   -0.6013    0.2440    0.2916 C   0  0  2  0  0  0  0  0  0  0  0  0
    1.0942   -1.7111   -0.1977 C   0  0  1  0  0  0  0  0  0  0  0  0
    0.0856    1.3767    1.1059 C   0  0  0  0  0  0  0  0  0  0  0  0
   -1.0421   -2.3743    0.2648 C   0  0  0  0  0  0  0  0  0  0  0  0
    1.4881    1.7015    0.7602 C   0  0  0  0  0  0  0  0  0  0  0  0
    2.4130   -1.2229    0.3145 C   0  0  0  0  0  0  0  0  0  0  0  0
    3.7993    1.6450    0.6453 C   0  0  2  0  0  0  0  0  0  0  0  0
    4.4032    0.2596    0.2831 C   0  0  0  0  0  0  0  0  0  0  0  0
    3.3887   -0.6436   -0.4157 C   0  0  0  0  0  0  0  0  0  0  0  0
    2.5881    1.5249    1.4919 C   0  0  0  0  0  0  0  0  0  0  0  0
   -0.2008   -3.5775    0.0540 C   0  0  0  0  0  0  0  0  0  0  0  0
    1.9326    2.2524   -0.5275 C   0  0  0  0  0  0  0  0  0  0  0  0
   -2.3634   -2.4936    0.1036 C   0  0  0  0  0  0  0  0  0  0  0  0
    3.4695   -0.6810   -1.9164 C   0  0  0  0  0  0  0  0  0  0  0  0
   -2.7042    1.2454   -0.1154 C   0  0  0  0  0  0  0  0  0  0  0  0
   -4.1175    1.2739    0.3696 C   0  0  0  0  0  0  0  0  0  0  0  0
   -4.3718    1.6492    1.7994 C   0  0  0  0  0  0  0  0  0  0  0  0
   -5.0544    0.9235   -0.5306 C   0  0  0  0  0  0  0  0  0  0  0  0
   -4.8350    0.5120   -1.9519 C   0  0  0  0  0  0  0  0  0  0  0  0
    0.0567   -1.2926    1.6815 H   0  0  0  0  0  0  0  0  0  0  0  0
   -0.4674    0.4150   -0.7844 H   0  0  0  0  0  0  0  0  0  0  0  0
    0.9660   -1.4702   -1.2603 H   0  0  0  0  0  0  0  0  0  0  0  0
    0.0147    1.1217    2.1725 H   0  0  0  0  0  0  0  0  0  0  0  0
   -0.4948    2.3045    1.0134 H   0  0  0  0  0  0  0  0  0  0  0  0
    2.4933   -1.1938    1.4004 H   0  0  0  0  0  0  0  0  0  0  0  0
    4.5482    2.2962    1.1062 H   0  0  0  0  0  0  0  0  0  0  0  0
    4.7791   -0.2323    1.1892 H   0  0  0  0  0  0  0  0  0  0  0  0
    5.2665    0.4064   -0.3773 H   0  0  0  0  0  0  0  0  0  0  0  0
    2.5973    1.1302    2.4985 H   0  0  0  0  0  0  0  0  0  0  0  0
   -3.0526   -1.6728    0.2348 H   0  0  0  0  0  0  0  0  0  0  0  0
   -2.8170   -3.4439   -0.1625 H   0  0  0  0  0  0  0  0  0  0  0  0
    3.2000    0.2852   -2.3512 H   0  0  0  0  0  0  0  0  0  0  0  0
    2.8239   -1.4466   -2.3555 H   0  0  0  0  0  0  0  0  0  0  0  0
    4.4911   -0.9246   -2.2279 H   0  0  0  0  0  0  0  0  0  0  0  0
   -3.9189    0.9188    2.4770 H   0  0  0  0  0  0  0  0  0  0  0  0
   -3.9454    2.6345    2.0135 H   0  0  0  0  0  0  0  0  0  0  0  0
   -5.4435    1.6926    2.0193 H   0  0  0  0  0  0  0  0  0  0  0  0
   -6.0951    0.9346   -0.2117 H   0  0  0  0  0  0  0  0  0  0  0  0
   -5.1321    1.3214   -2.6254 H   0  0  0  0  0  0  0  0  0  0  0  0
   -5.4622   -0.3581   -2.1739 H   0  0  0  0  0  0  0  0  0  0  0  0
   -3.8067    0.2222   -2.1801 H   0  0  0  0  0  0  0  0  0  0  0  0
  1  9  1  0  0  0  0
  1 18  1  0  0  0  0
  2  8  1  0  0  0  0
  2 22  1  0  0  0  0
  3 14  1  0  0  0  0
  3 19  1  0  0  0  0
  4 18  2  0  0  0  0
  5 19  2  0  0  0  0
  6 22  2  0  0  0  0
  7  8  1  0  0  0  0
  7  9  1  0  0  0  0
  7 11  1  0  0  0  0
  7 27  1  0  0  0  0
  8 10  1  0  0  0  0
  8 28  1  0  0  0  0
  9 13  1  0  0  0  0
  9 29  1  0  0  0  0
 10 12  1  0  0  0  0
 10 30  1  0  0  0  0
 10 31  1  0  0  0  0
 11 18  1  0  0  0  0
 11 20  2  0  0  0  0
 12 17  2  0  0  0  0
 12 19  1  0  0  0  0
 13 16  2  0  0  0  0
 13 32  1  0  0  0  0
 14 15  1  0  0  0  0
 14 17  1  0  0  0  0
 14 33  1  0  0  0  0
 15 16  1  0  0  0  0
 15 34  1  0  0  0  0
 15 35  1  0  0  0  0
 16 21  1  0  0  0  0
 17 36  1  0  0  0  0
 20 37  1  0  0  0  0
 20 38  1  0  0  0  0
 21 39  1  0  0  0  0
 21 40  1  0  0  0  0
 21 41  1  0  0  0  0
 22 23  1  0  0  0  0
 23 24  1  0  0  0  0
 23 25  2  0  0  0  0
 24 42  1  0  0  0  0
 24 43  1  0  0  0  0
 24 44  1  0  0  0  0
 25 26  1  0  0  0  0
 25 45  1  0  0  0  0
 26 46  1  0  0  0  0
 26 47  1  0  0  0  0
 26 48  1  0  0  0  0
M  END
> <PUBCHEM_COMPOUND_CID>
21575210

> <PUBCHEM_CONFORMER_RMSD>
0.8

> <PUBCHEM_CONFORMER_DIVERSEORDER>
1
23
14
20
7
16
4
11
17
15
22
2
10
18
3
6
8
21
13
5
19
9
12

> <PUBCHEM_MMFF94_PARTIAL_CHARGES>
31
1 -0.43
10 0.14
11 -0.12
12 -0.12
13 -0.29
14 0.42
15 0.14
16 -0.28
17 -0.29
18 0.71
19 0.71
2 -0.43
20 -0.3
21 0.14
22 0.71
23 -0.12
24 0.14
25 -0.29
26 0.14
3 -0.43
32 0.15
36 0.15
37 0.15
38 0.15
4 -0.57
45 0.15
5 -0.57
6 -0.57
7 0.14
8 0.28
9 0.42

> <PUBCHEM_EFFECTIVE_ROTOR_COUNT>
4

> <PUBCHEM_PHARMACOPHORE_FEATURES>
7
1 24 hydrophobe
1 26 hydrophobe
1 4 acceptor
1 5 acceptor
1 6 acceptor
5 1 7 9 11 18 rings
5 3 12 14 17 19 rings

> <PUBCHEM_HEAVY_ATOM_COUNT>
26

> <PUBCHEM_ATOM_DEF_STEREO_COUNT>
4

> <PUBCHEM_ATOM_UDEF_STEREO_COUNT>
0

> <PUBCHEM_BOND_DEF_STEREO_COUNT>
2

> <PUBCHEM_BOND_UDEF_STEREO_COUNT>
0

> <PUBCHEM_ISOTOPIC_ATOM_COUNT>
0

> <PUBCHEM_COMPONENT_COUNT>
1

> <PUBCHEM_CACTVS_TAUTO_COUNT>
1

> <PUBCHEM_CONFORMER_ID>
0149362A00000001

> <PUBCHEM_MMFF94_ENERGY>
66.4104

> <PUBCHEM_FEATURE_SELFOVERLAP>
35.522

> <PUBCHEM_SHAPE_FINGERPRINT>
10064457 181 18412831312773078592
10411042 1 17186724918758536235
10693767 8 17843397388790573119
108634 29 18270962469955254726
1100329 8 18340768152763620290
11370993 70 18410287034186552653
11725454 13 17313933127013098191
12730499 353 18337114467324164659
12788726 201 17686052103814864410
13140716 1 18413108355343351802
13583140 156 17095516301638459977
138480 1 17762900961478645675
14790565 3 18341344296624732801
16752209 62 18123458647024188963
17138139 8 17699535299538172807
17492 54 18189354385143256158
17909252 39 17200773778147468671
19591789 44 18411706512615227707
20691752 17 17822288024241414618
20775438 99 18058991969617000215
20905425 154 17837784683226754910
21033650 10 17416152570689420192
22182313 1 18340497775512748042
22907989 373 17762059135166862213
23227448 37 18409730698720209175
23558518 356 17901382617282997752
23559900 14 18272377460485600150
23566358 2 18199758096776801087
238 59 18263355915575710855
2748010 2 18341059617781156466
3052486 1 18188769569279345454
3060560 45 18337667521182396742
338550 245 18264210377860134055
340366 18 18187087295024886428
350125 39 18338808930327071251
474 4 18411135810293056369
484989 97 18338524135214631023
633830 44 18130231467174460765
7164475 11 17904478854769142286
81228 2 17759233386020081193

> <PUBCHEM_SHAPE_MULTIPOLES>
499.85
8.53
4.22
1.4
6.28
4.98
-0.34
-5.27
-1.5
-0.23
0.16
0.5
-0.7
0.19

> <PUBCHEM_SHAPE_SELFOVERLAP>
1063.893

> <PUBCHEM_SHAPE_VOLUME>
278.5

> <PUBCHEM_COORDINATE_TYPE>
2
5
10

$$$$
