609227
  -OEChem-09032010423D

 39 40  0     1  0  0  0  0  0999 V2000
    0.5840   -0.5169    0.8172 C   0  0  2  0  0  0  0  0  0  0  0  0
   -0.2697    0.8056    0.6740 C   0  0  1  0  0  0  0  0  0  0  0  0
    1.8014   -0.6665   -0.1809 C   0  0  0  0  0  0  0  0  0  0  0  0
    0.6806    2.0301    0.5298 C   0  0  0  0  0  0  0  0  0  0  0  0
    2.6170    0.6486   -0.2147 C   0  0  0  0  0  0  0  0  0  0  0  0
   -0.3323   -1.7655    0.9009 C   0  0  0  0  0  0  0  0  0  0  0  0
    1.7653    1.8679   -0.5237 C   0  0  0  0  0  0  0  0  0  0  0  0
   -1.3308    0.6644   -0.4358 C   0  0  0  0  0  0  0  0  0  0  0  0
   -1.0490    1.0664    2.0011 C   0  0  0  0  0  0  0  0  0  0  0  0
   -1.4316   -1.8336   -0.1605 C   0  0  0  0  0  0  0  0  0  0  0  0
    1.4104   -1.0483   -1.6206 C   0  0  0  0  0  0  0  0  0  0  0  0
    2.7674   -1.7685    0.3263 C   0  0  0  0  0  0  0  0  0  0  0  0
   -2.1676   -0.5350   -0.3327 C   0  0  0  0  0  0  0  0  0  0  0  0
   -1.5347    1.5377   -1.4391 C   0  0  0  0  0  0  0  0  0  0  0  0
   -3.5103   -0.4864   -0.3412 C   0  0  0  0  0  0  0  0  0  0  0  0
    1.0594   -0.4491    1.8094 H   0  0  0  0  0  0  0  0  0  0  0  0
    1.1850    2.2063    1.4910 H   0  0  0  0  0  0  0  0  0  0  0  0
    0.1130    2.9487    0.3358 H   0  0  0  0  0  0  0  0  0  0  0  0
    3.4247    0.5804   -0.9549 H   0  0  0  0  0  0  0  0  0  0  0  0
    3.1092    0.8015    0.7556 H   0  0  0  0  0  0  0  0  0  0  0  0
   -0.8150   -1.7699    1.8876 H   0  0  0  0  0  0  0  0  0  0  0  0
    0.2499   -2.6913    0.8725 H   0  0  0  0  0  0  0  0  0  0  0  0
    1.3400    1.7982   -1.5290 H   0  0  0  0  0  0  0  0  0  0  0  0
    2.4029    2.7600   -0.5200 H   0  0  0  0  0  0  0  0  0  0  0  0
   -0.3626    1.1487    2.8522 H   0  0  0  0  0  0  0  0  0  0  0  0
   -1.6156    2.0041    1.9443 H   0  0  0  0  0  0  0  0  0  0  0  0
   -1.7625    0.2731    2.2454 H   0  0  0  0  0  0  0  0  0  0  0  0
   -2.1238   -2.6387    0.1188 H   0  0  0  0  0  0  0  0  0  0  0  0
   -1.0189   -2.1312   -1.1285 H   0  0  0  0  0  0  0  0  0  0  0  0
    1.0406   -2.0762   -1.6778 H   0  0  0  0  0  0  0  0  0  0  0  0
    0.6539   -0.3853   -2.0435 H   0  0  0  0  0  0  0  0  0  0  0  0
    2.2815   -1.0026   -2.2857 H   0  0  0  0  0  0  0  0  0  0  0  0
    3.0692   -1.5863    1.3638 H   0  0  0  0  0  0  0  0  0  0  0  0
    2.3195   -2.7655    0.2774 H   0  0  0  0  0  0  0  0  0  0  0  0
    3.6804   -1.7994   -0.2803 H   0  0  0  0  0  0  0  0  0  0  0  0
   -0.9556    2.4452   -1.5541 H   0  0  0  0  0  0  0  0  0  0  0  0
   -2.2987    1.3704   -2.1932 H   0  0  0  0  0  0  0  0  0  0  0  0
   -4.1055   -1.3888   -0.2458 H   0  0  0  0  0  0  0  0  0  0  0  0
   -4.0510    0.4499   -0.4360 H   0  0  0  0  0  0  0  0  0  0  0  0
  1  2  1  0  0  0  0
  1  3  1  0  0  0  0
  1  6  1  0  0  0  0
  1 16  1  0  0  0  0
  2  4  1  0  0  0  0
  2  8  1  0  0  0  0
  2  9  1  0  0  0  0
  3  5  1  0  0  0  0
  3 11  1  0  0  0  0
  3 12  1  0  0  0  0
  4  7  1  0  0  0  0
  4 17  1  0  0  0  0
  4 18  1  0  0  0  0
  5  7  1  0  0  0  0
  5 19  1  0  0  0  0
  5 20  1  0  0  0  0
  6 10  1  0  0  0  0
  6 21  1  0  0  0  0
  6 22  1  0  0  0  0
  7 23  1  0  0  0  0
  7 24  1  0  0  0  0
  8 13  1  0  0  0  0
  8 14  2  0  0  0  0
  9 25  1  0  0  0  0
  9 26  1  0  0  0  0
  9 27  1  0  0  0  0
 10 13  1  0  0  0  0
 10 28  1  0  0  0  0
 10 29  1  0  0  0  0
 11 30  1  0  0  0  0
 11 31  1  0  0  0  0
 11 32  1  0  0  0  0
 12 33  1  0  0  0  0
 12 34  1  0  0  0  0
 12 35  1  0  0  0  0
 13 15  2  0  0  0  0
 14 36  1  0  0  0  0
 14 37  1  0  0  0  0
 15 38  1  0  0  0  0
 15 39  1  0  0  0  0
M  END
> <PUBCHEM_COMPOUND_CID>
609227

> <PUBCHEM_CONFORMER_RMSD>
0.6

> <PUBCHEM_CONFORMER_DIVERSEORDER>
1
6
7
11
12
10
4
9
5
2
3
8

> <PUBCHEM_MMFF94_PARTIAL_CHARGES>
10
10 0.14
13 -0.14
14 -0.3
15 -0.3
2 0.14
36 0.15
37 0.15
38 0.15
39 0.15
8 -0.14

> <PUBCHEM_EFFECTIVE_ROTOR_COUNT>
1.2

> <PUBCHEM_PHARMACOPHORE_FEATURES>
3
3 3 11 12 hydrophobe
6 1 2 3 4 5 7 rings
6 1 2 6 8 10 13 rings

> <PUBCHEM_HEAVY_ATOM_COUNT>
15

> <PUBCHEM_ATOM_DEF_STEREO_COUNT>
0

> <PUBCHEM_ATOM_UDEF_STEREO_COUNT>
2

> <PUBCHEM_BOND_DEF_STEREO_COUNT>
0

> <PUBCHEM_BOND_UDEF_STEREO_COUNT>
0

> <PUBCHEM_ISOTOPIC_ATOM_COUNT>
0

> <PUBCHEM_COMPONENT_COUNT>
1

> <PUBCHEM_CACTVS_TAUTO_COUNT>
1

> <PUBCHEM_CONFORMER_ID>
00094BCB00000001

> <PUBCHEM_MMFF94_ENERGY>
53.7392

> <PUBCHEM_FEATURE_SELFOVERLAP>
15.261

> <PUBCHEM_SHAPE_FINGERPRINT>
10702982 57 17483695398384681993
10863032 1 18190458466083523991
12423570 1 17554914077945853784
12524768 44 18190173684203593311
13024252 1 16444494289567898874
13299463 15 18336546113563620852
13380535 220 18261386689823174372
13897977 150 18192989554877997453
144361 1 18194403522378088072
14617773 55 18060150811980238777
14817 1 8175997463877998912
15001771 113 18272094850772275616
15775835 57 18115032904662906214
16945 1 18266450095514136049
20201158 50 18341049717538673734
20588541 1 18191305077115060193
21501502 16 18194114342277780911
22344851 12 11747222312025809402
22344851 341 18052809544719378386
22802520 49 18188771789619312011
23402539 116 18129084637660006278
23419403 2 17697554945604466936
23559900 14 18123172525842813186
241688 4 18125163732008303866
2748010 2 18263914458544494444
353137 74 18409164424266830809
430814 3 16837152822719293809
5084963 1 18410851032117190954
528886 8 18044084885588046841
54276843 12 18060130995111904371
63268167 104 18409171025510167560

> <PUBCHEM_SHAPE_MULTIPOLES>
308.69
3.83
2.25
1.4
0.65
0.12
-0.15
-0.88
0.79
-0.56
-0.06
0.23
0.28
0

> <PUBCHEM_SHAPE_SELFOVERLAP>
634.335

> <PUBCHEM_SHAPE_VOLUME>
178

> <PUBCHEM_COORDINATE_TYPE>
2
5
10

$$$$
