129819727
  -OEChem-09032011183D

 38 39  0     1  0  0  0  0  0999 V2000
    0.6121   -1.9362    0.6702 O   0  0  0  0  0  0  0  0  0  0  0  0
    1.3840    0.3130    0.1068 C   0  0  2  0  0  0  0  0  0  0  0  0
    0.3685   -0.8436   -0.2287 C   0  0  2  0  0  0  0  0  0  0  0  0
    0.9441    1.6014   -0.6229 C   0  0  0  0  0  0  0  0  0  0  0  0
    2.8251   -0.0185   -0.3458 C   0  0  0  0  0  0  0  0  0  0  0  0
   -1.0886   -0.4042   -0.0607 C   0  0  0  0  0  0  0  0  0  0  0  0
   -0.4498    2.0651   -0.2134 C   0  0  0  0  0  0  0  0  0  0  0  0
    1.4560    0.5642    1.6357 C   0  0  0  0  0  0  0  0  0  0  0  0
   -1.4603    0.9541   -0.1001 C   0  0  0  0  0  0  0  0  0  0  0  0
    0.5212   -1.3994   -1.6608 C   0  0  0  0  0  0  0  0  0  0  0  0
    3.2940   -1.3024    0.3197 C   0  0  0  0  0  0  0  0  0  0  0  0
    3.7501    1.1432   -0.0195 C   0  0  0  0  0  0  0  0  0  0  0  0
   -2.1013   -1.3731    0.0902 C   0  0  0  0  0  0  0  0  0  0  0  0
   -2.8146    1.3088    0.0321 C   0  0  0  0  0  0  0  0  0  0  0  0
   -3.4418   -1.0072    0.2128 C   0  0  0  0  0  0  0  0  0  0  0  0
   -3.7987    0.3348    0.1845 C   0  0  0  0  0  0  0  0  0  0  0  0
    0.9681    1.4459   -1.7088 H   0  0  0  0  0  0  0  0  0  0  0  0
    1.6003    2.4522   -0.4214 H   0  0  0  0  0  0  0  0  0  0  0  0
    2.8648   -0.1564   -1.4331 H   0  0  0  0  0  0  0  0  0  0  0  0
   -0.7984    2.8044   -0.9454 H   0  0  0  0  0  0  0  0  0  0  0  0
   -0.3949    2.5759    0.7564 H   0  0  0  0  0  0  0  0  0  0  0  0
    1.8756   -0.2522    2.2242 H   0  0  0  0  0  0  0  0  0  0  0  0
    0.4480    0.7006    2.0465 H   0  0  0  0  0  0  0  0  0  0  0  0
    1.9832    1.4877    1.8929 H   0  0  0  0  0  0  0  0  0  0  0  0
   -0.2108   -2.1923   -1.8615 H   0  0  0  0  0  0  0  0  0  0  0  0
    0.3706   -0.6261   -2.4209 H   0  0  0  0  0  0  0  0  0  0  0  0
    1.4941   -1.8683   -1.8312 H   0  0  0  0  0  0  0  0  0  0  0  0
    3.3149   -1.2892    1.4099 H   0  0  0  0  0  0  0  0  0  0  0  0
    4.7675    0.8766   -0.3373 H   0  0  0  0  0  0  0  0  0  0  0  0
    2.7765   -2.1980   -0.0256 H   0  0  0  0  0  0  0  0  0  0  0  0
    3.5276    2.0602   -0.5682 H   0  0  0  0  0  0  0  0  0  0  0  0
    3.8396    1.3666    1.0460 H   0  0  0  0  0  0  0  0  0  0  0  0
    4.3392   -1.4757    0.0275 H   0  0  0  0  0  0  0  0  0  0  0  0
    0.4992   -2.7772    0.1963 H   0  0  0  0  0  0  0  0  0  0  0  0
   -1.8548   -2.4322    0.1063 H   0  0  0  0  0  0  0  0  0  0  0  0
   -3.1076    2.3563    0.0199 H   0  0  0  0  0  0  0  0  0  0  0  0
   -4.2047   -1.7713    0.3285 H   0  0  0  0  0  0  0  0  0  0  0  0
   -4.8406    0.6245    0.2827 H   0  0  0  0  0  0  0  0  0  0  0  0
  1  3  1  0  0  0  0
  1 34  1  0  0  0  0
  2  3  1  0  0  0  0
  2  4  1  0  0  0  0
  2  5  1  0  0  0  0
  2  8  1  0  0  0  0
  3  6  1  0  0  0  0
  3 10  1  0  0  0  0
  4  7  1  0  0  0  0
  4 17  1  0  0  0  0
  4 18  1  0  0  0  0
  5 11  1  0  0  0  0
  5 12  1  0  0  0  0
  5 19  1  0  0  0  0
  6  9  1  0  0  0  0
  6 13  2  0  0  0  0
  7  9  1  0  0  0  0
  7 20  1  0  0  0  0
  7 21  1  0  0  0  0
  8 22  1  0  0  0  0
  8 23  1  0  0  0  0
  8 24  1  0  0  0  0
  9 14  2  0  0  0  0
 10 25  1  0  0  0  0
 10 26  1  0  0  0  0
 10 27  1  0  0  0  0
 11 28  1  0  0  0  0
 11 30  1  0  0  0  0
 11 33  1  0  0  0  0
 12 29  1  0  0  0  0
 12 31  1  0  0  0  0
 12 32  1  0  0  0  0
 13 15  1  0  0  0  0
 13 35  1  0  0  0  0
 14 16  1  0  0  0  0
 14 36  1  0  0  0  0
 15 16  2  0  0  0  0
 15 37  1  0  0  0  0
 16 38  1  0  0  0  0
M  END
> <PUBCHEM_COMPOUND_CID>
129819727

> <PUBCHEM_CONFORMER_RMSD>
0.6

> <PUBCHEM_CONFORMER_DIVERSEORDER>
1
6
9
4
3
8
7
2
5

> <PUBCHEM_MMFF94_PARTIAL_CHARGES>
14
1 -0.68
13 -0.15
14 -0.15
15 -0.15
16 -0.15
3 0.42
34 0.4
35 0.15
36 0.15
37 0.15
38 0.15
6 -0.14
7 0.14
9 -0.14

> <PUBCHEM_EFFECTIVE_ROTOR_COUNT>
1.8

> <PUBCHEM_PHARMACOPHORE_FEATURES>
5
1 1 acceptor
1 1 donor
3 5 11 12 hydrophobe
6 2 3 4 6 7 9 rings
6 6 9 13 14 15 16 rings

> <PUBCHEM_HEAVY_ATOM_COUNT>
16

> <PUBCHEM_ATOM_DEF_STEREO_COUNT>
0

> <PUBCHEM_ATOM_UDEF_STEREO_COUNT>
2

> <PUBCHEM_BOND_DEF_STEREO_COUNT>
0

> <PUBCHEM_BOND_UDEF_STEREO_COUNT>
0

> <PUBCHEM_ISOTOPIC_ATOM_COUNT>
0

> <PUBCHEM_COMPONENT_COUNT>
1

> <PUBCHEM_CACTVS_TAUTO_COUNT>
5

> <PUBCHEM_CONFORMER_ID>
07BCE44F00000001

> <PUBCHEM_MMFF94_ENERGY>
68.1373

> <PUBCHEM_FEATURE_SELFOVERLAP>
25.391

> <PUBCHEM_SHAPE_FINGERPRINT>
10219947 1 18411421717280299597
10608611 8 18411980226280072605
10863032 1 18410294709398449672
10967382 1 18336548303959791100
11132069 177 18410007745263851529
11578080 2 16734919381450526220
12032990 46 18409736144443269639
12251169 10 18409169952084841481
12382932 28 18341055120918833409
12423570 1 17986967429546550582
12524768 44 18199191689875626095
12696612 119 18408892849427088301
13221675 6 18333449858886784409
13581323 91 18412261757048861253
14115302 16 16805619096034437467
14144814 61 18335138695883135089
14325111 11 18410293609818399476
14993402 34 18335422408448324660
15196674 1 18409450280268367329
15219456 202 18272940375256240047
15309172 13 17632295687468488102
15536298 74 18412827984479021876
15775835 57 18202283640636340690
16945 1 18336532820629231673
17804303 29 18342460300931413646
18175812 5 18272084998196335445
18186145 218 15841550799198414218
193761 8 17688307889389549453
19422 9 18333453136004834032
200 152 18130497618198119263
20510252 161 18342741801567652377
20511035 2 18126286586567075148
20588541 1 18271529684742167693
21267235 1 18336274465488109051
21501502 16 18268148669206693011
22344851 341 18052547568730927434
22721475 48 18412269410949679529
22802520 49 18127709127048891542
2334 1 18410011082447990365
23402539 116 18412255147067851742
23419403 2 15681877689040628405
23463225 33 18408324380166397988
23559900 14 18268146470895866742
2748010 2 18411416211100636245
296302 2 18408888442764288253
3286 77 17632284679440785315
335352 9 18120373159640440133
474 4 17097220669426853396
5084963 1 18343023336578498195
5104073 3 18409450271630993433
528886 8 18409447007302873280
5337951 7 16988556948670386208
53812653 166 18342737412079030897
568465 68 17704070685574967562
7364860 26 18197500610490070167
84936 31 16270804394973851694
8809292 202 18259992582447123771

> <PUBCHEM_SHAPE_MULTIPOLES>
323.4
5.74
1.97
1.03
0.71
0.09
0
0.05
-0.61
-0.03
0.17
-0.4
-0.15
0.05

> <PUBCHEM_SHAPE_SELFOVERLAP>
682.593

> <PUBCHEM_SHAPE_VOLUME>
181.8

> <PUBCHEM_COORDINATE_TYPE>
2
5
10

$$$$
