10075681
  -OEChem-09032009453D

 64 66  0     1  0  0  0  0  0999 V2000
   -2.2386    0.7252   -0.7161 O   0  0  0  0  0  0  0  0  0  0  0  0
    2.1075    0.8639   -1.0275 O   0  0  0  0  0  0  0  0  0  0  0  0
    1.2771    2.0463    1.4508 O   0  0  0  0  0  0  0  0  0  0  0  0
   -0.1064    0.0865   -2.5087 O   0  0  0  0  0  0  0  0  0  0  0  0
   -0.2635    5.1191    0.6152 O   0  0  0  0  0  0  0  0  0  0  0  0
    0.9935    4.4297    2.4266 O   0  0  0  0  0  0  0  0  0  0  0  0
   -2.2909   -0.5457    1.2125 O   0  0  0  0  0  0  0  0  0  0  0  0
    3.9239    1.7236   -2.1672 O   0  0  0  0  0  0  0  0  0  0  0  0
   -9.4029   -2.6848    1.8849 O   0  0  0  0  0  0  0  0  0  0  0  0
    9.7733   -2.1055    0.4272 O   0  0  0  0  0  0  0  0  0  0  0  0
  -10.3465   -2.3673   -0.7094 O   0  0  0  0  0  0  0  0  0  0  0  0
    8.5560   -4.3701    1.4816 O   0  0  0  0  0  0  0  0  0  0  0  0
    0.5235    2.9140    0.6126 C   0  0  0  0  0  0  0  0  0  0  0  0
   -0.8802    1.0826   -0.4604 C   0  0  2  0  0  0  0  0  0  0  0  0
    1.2608    1.8628   -1.5974 C   0  0  2  0  0  0  0  0  0  0  0  0
   -0.8825    2.3503    0.3967 C   0  0  0  0  0  0  0  0  0  0  0  0
    1.2683    3.1165   -0.7149 C   0  0  0  0  0  0  0  0  0  0  0  0
   -0.1582    1.3173   -1.7893 C   0  0  0  0  0  0  0  0  0  0  0  0
    0.4629    4.2242    1.3435 C   0  0  0  0  0  0  0  0  0  0  0  0
   -2.8150   -0.0950    0.2063 C   0  0  0  0  0  0  0  0  0  0  0  0
    3.4149    0.9184   -1.4038 C   0  0  0  0  0  0  0  0  0  0  0  0
   -0.4027    6.4182    1.1992 C   0  0  0  0  0  0  0  0  0  0  0  0
   -4.2073   -0.3528   -0.2263 C   0  0  0  0  0  0  0  0  0  0  0  0
    4.1265   -0.1849   -0.7194 C   0  0  0  0  0  0  0  0  0  0  0  0
   -4.9952   -1.1414    0.5185 C   0  0  0  0  0  0  0  0  0  0  0  0
    5.4406   -0.3517   -0.9255 C   0  0  0  0  0  0  0  0  0  0  0  0
   -6.3972   -1.4639    0.2000 C   0  0  0  0  0  0  0  0  0  0  0  0
    6.2595   -1.4027   -0.2961 C   0  0  0  0  0  0  0  0  0  0  0  0
   -7.2511   -1.9271    1.2011 C   0  0  0  0  0  0  0  0  0  0  0  0
    7.6455   -1.2601   -0.2284 C   0  0  0  0  0  0  0  0  0  0  0  0
   -6.8706   -1.3060   -1.1025 C   0  0  0  0  0  0  0  0  0  0  0  0
    5.6488   -2.5401    0.2319 C   0  0  0  0  0  0  0  0  0  0  0  0
   -8.5785   -2.2320    0.8997 C   0  0  0  0  0  0  0  0  0  0  0  0
    8.4206   -2.2548    0.3678 C   0  0  0  0  0  0  0  0  0  0  0  0
   -8.1980   -1.6112   -1.4040 C   0  0  0  0  0  0  0  0  0  0  0  0
    6.4241   -3.5350    0.8277 C   0  0  0  0  0  0  0  0  0  0  0  0
   -9.0520   -2.0741   -0.4029 C   0  0  0  0  0  0  0  0  0  0  0  0
    7.8100   -3.3923    0.8959 C   0  0  0  0  0  0  0  0  0  0  0  0
   -0.3698    0.2642    0.0649 H   0  0  0  0  0  0  0  0  0  0  0  0
    1.6358    2.1242   -2.5960 H   0  0  0  0  0  0  0  0  0  0  0  0
   -1.3465    2.1257    1.3663 H   0  0  0  0  0  0  0  0  0  0  0  0
   -1.5402    3.0926   -0.0753 H   0  0  0  0  0  0  0  0  0  0  0  0
    0.8086    3.9317   -1.2882 H   0  0  0  0  0  0  0  0  0  0  0  0
    2.3052    3.4146   -0.5129 H   0  0  0  0  0  0  0  0  0  0  0  0
   -0.7473    2.0158   -2.3971 H   0  0  0  0  0  0  0  0  0  0  0  0
    2.1925    2.3724    1.4883 H   0  0  0  0  0  0  0  0  0  0  0  0
    0.3505    0.2581   -3.3498 H   0  0  0  0  0  0  0  0  0  0  0  0
   -1.0007    7.0331    0.5215 H   0  0  0  0  0  0  0  0  0  0  0  0
    0.5793    6.8847    1.3230 H   0  0  0  0  0  0  0  0  0  0  0  0
   -0.9216    6.3476    2.1599 H   0  0  0  0  0  0  0  0  0  0  0  0
   -4.5396    0.1350   -1.1352 H   0  0  0  0  0  0  0  0  0  0  0  0
    3.5433   -0.8085   -0.0519 H   0  0  0  0  0  0  0  0  0  0  0  0
   -4.6149   -1.5841    1.4363 H   0  0  0  0  0  0  0  0  0  0  0  0
    5.9802    0.3220   -1.5871 H   0  0  0  0  0  0  0  0  0  0  0  0
   -6.8861   -2.0507    2.2185 H   0  0  0  0  0  0  0  0  0  0  0  0
    8.1257   -0.3740   -0.6380 H   0  0  0  0  0  0  0  0  0  0  0  0
   -6.2376   -0.9680   -1.9176 H   0  0  0  0  0  0  0  0  0  0  0  0
    4.5762   -2.7034    0.1838 H   0  0  0  0  0  0  0  0  0  0  0  0
   -8.5532   -1.4877   -2.4237 H   0  0  0  0  0  0  0  0  0  0  0  0
    5.9362   -4.4182    1.2316 H   0  0  0  0  0  0  0  0  0  0  0  0
   -8.9048   -2.7315    2.7190 H   0  0  0  0  0  0  0  0  0  0  0  0
   10.0178   -1.2601    0.0130 H   0  0  0  0  0  0  0  0  0  0  0  0
  -10.4943   -2.1971   -1.6555 H   0  0  0  0  0  0  0  0  0  0  0  0
    7.9646   -5.0784    1.7892 H   0  0  0  0  0  0  0  0  0  0  0  0
  1 14  1  0  0  0  0
  1 20  1  0  0  0  0
  2 15  1  0  0  0  0
  2 21  1  0  0  0  0
  3 13  1  0  0  0  0
  3 46  1  0  0  0  0
  4 18  1  0  0  0  0
  4 47  1  0  0  0  0
  5 19  1  0  0  0  0
  5 22  1  0  0  0  0
  6 19  2  0  0  0  0
  7 20  2  0  0  0  0
  8 21  2  0  0  0  0
  9 33  1  0  0  0  0
  9 61  1  0  0  0  0
 10 34  1  0  0  0  0
 10 62  1  0  0  0  0
 11 37  1  0  0  0  0
 11 63  1  0  0  0  0
 12 38  1  0  0  0  0
 12 64  1  0  0  0  0
 13 16  1  0  0  0  0
 13 17  1  0  0  0  0
 13 19  1  0  0  0  0
 14 16  1  0  0  0  0
 14 18  1  0  0  0  0
 14 39  1  0  0  0  0
 15 17  1  0  0  0  0
 15 18  1  0  0  0  0
 15 40  1  0  0  0  0
 16 41  1  0  0  0  0
 16 42  1  0  0  0  0
 17 43  1  0  0  0  0
 17 44  1  0  0  0  0
 18 45  1  0  0  0  0
 20 23  1  0  0  0  0
 21 24  1  0  0  0  0
 22 48  1  0  0  0  0
 22 49  1  0  0  0  0
 22 50  1  0  0  0  0
 23 25  2  0  0  0  0
 23 51  1  0  0  0  0
 24 26  2  0  0  0  0
 24 52  1  0  0  0  0
 25 27  1  0  0  0  0
 25 53  1  0  0  0  0
 26 28  1  0  0  0  0
 26 54  1  0  0  0  0
 27 29  2  0  0  0  0
 27 31  1  0  0  0  0
 28 30  2  0  0  0  0
 28 32  1  0  0  0  0
 29 33  1  0  0  0  0
 29 55  1  0  0  0  0
 30 34  1  0  0  0  0
 30 56  1  0  0  0  0
 31 35  2  0  0  0  0
 31 57  1  0  0  0  0
 32 36  2  0  0  0  0
 32 58  1  0  0  0  0
 33 37  2  0  0  0  0
 34 38  2  0  0  0  0
 35 37  1  0  0  0  0
 35 59  1  0  0  0  0
 36 38  1  0  0  0  0
 36 60  1  0  0  0  0
M  END
> <PUBCHEM_COMPOUND_CID>
10075681

> <PUBCHEM_CONFORMER_RMSD>
1.2

> <PUBCHEM_CONFORMER_DIVERSEORDER>
1
25
21
19
2
31
26
8
15
20
30
14
9
35
12
4
22
16
18
27
33
29
23
3
28
34
17
24
7
5
32
13
11
36
10
6

> <PUBCHEM_MMFF94_PARTIAL_CHARGES>
52
1 -0.43
10 -0.53
11 -0.53
12 -0.53
13 0.34
14 0.28
15 0.28
18 0.28
19 0.66
2 -0.43
20 0.71
21 0.71
22 0.28
23 -0.14
24 -0.14
25 -0.18
26 -0.18
27 0.03
28 0.03
29 -0.15
3 -0.68
30 -0.15
31 -0.15
32 -0.15
33 0.08
34 0.08
35 -0.15
36 -0.15
37 0.08
38 0.08
4 -0.68
46 0.4
47 0.4
5 -0.43
51 0.15
52 0.15
53 0.15
54 0.15
55 0.15
56 0.15
57 0.15
58 0.15
59 0.15
6 -0.57
60 0.15
61 0.45
62 0.45
63 0.45
64 0.45
7 -0.57
8 -0.57
9 -0.53

> <PUBCHEM_EFFECTIVE_ROTOR_COUNT>
11.2

> <PUBCHEM_PHARMACOPHORE_FEATURES>
14
1 10 donor
1 11 donor
1 12 donor
1 3 acceptor
1 3 donor
1 4 acceptor
1 4 donor
1 6 acceptor
1 7 acceptor
1 8 acceptor
1 9 donor
6 13 14 15 16 17 18 rings
6 27 29 31 33 35 37 rings
6 28 30 32 34 36 38 rings

> <PUBCHEM_HEAVY_ATOM_COUNT>
38

> <PUBCHEM_ATOM_DEF_STEREO_COUNT>
2

> <PUBCHEM_ATOM_UDEF_STEREO_COUNT>
0

> <PUBCHEM_BOND_DEF_STEREO_COUNT>
2

> <PUBCHEM_BOND_UDEF_STEREO_COUNT>
0

> <PUBCHEM_ISOTOPIC_ATOM_COUNT>
0

> <PUBCHEM_COMPONENT_COUNT>
1

> <PUBCHEM_CACTVS_TAUTO_COUNT>
27

> <PUBCHEM_CONFORMER_ID>
0099BE2100000001

> <PUBCHEM_MMFF94_ENERGY>
100.2113

> <PUBCHEM_FEATURE_SELFOVERLAP>
71.072

> <PUBCHEM_SHAPE_FINGERPRINT>
10673678 19 9007066768138195517
11297750 10 18410284831222738797
11409948 35 18260830423799253719
11456790 92 18341345452693043891
12013929 112 16805313393696447271
12013929 94 18410294676236814198
13008946 282 16987716977901591785
14068700 675 18336268959962410868
14359421 15 17313097519303406930
14400156 188 18339082704237860363
14400156 413 18262796414476917341
16993427 108 18412259519476518586
19301679 30 18271534074547346230
19304671 126 15141249891726396844
19841028 212 18259704502037792410
2026 5 18187081733011180283
212700 22 18040712567372909906
21344244 78 16773528736391317265
23523787 8 13767931225993660968
23528940 14 18262794057515641834
23569943 247 18409450306830261331
25242607 90 18201997746091316582
32027 91 18267305507683021171
3986486 107 14923942344883286439
406291 66 18334295327921951702
4112364 45 14117509987087793818
474113 269 18409166606411190087
4760202 70 18113913641947404878
5372103 7 9223229663269217682
6058803 2 17055536044576076149
6327066 14 9367341535724922224
6636798 310 18337951187299362170
6697151 62 18199756997824316425
9896288 288 17983577403934397804
9962374 69 17916583275991722951

> <PUBCHEM_SHAPE_MULTIPOLES>
711.59
31.36
6.81
1.8
23.13
10.38
0.2
-60.3
-5.13
-5.65
-4.8
0.31
0.88
-2.24

> <PUBCHEM_SHAPE_SELFOVERLAP>
1522.919

> <PUBCHEM_SHAPE_VOLUME>
389.8

> <PUBCHEM_COORDINATE_TYPE>
2
5
10

$$$$
