102466643
  -OEChem-09032011553D

 47 49  0     1  0  0  0  0  0999 V2000
    0.8920    2.2808    1.2615 O   0  0  0  0  0  0  0  0  0  0  0  0
   -2.2460   -0.0980   -0.6196 O   0  0  0  0  0  0  0  0  0  0  0  0
    2.8252   -2.5572    0.8282 O   0  0  0  0  0  0  0  0  0  0  0  0
   -0.6563    3.9664    1.4231 O   0  0  0  0  0  0  0  0  0  0  0  0
    0.7354   -3.0144    1.6797 O   0  0  0  0  0  0  0  0  0  0  0  0
   -3.0034   -1.3595    1.1564 O   0  0  0  0  0  0  0  0  0  0  0  0
   -0.0502    0.9986   -0.5422 C   0  0  2  0  0  0  0  0  0  0  0  0
   -0.9002   -0.2502   -0.1532 C   0  0  2  0  0  0  0  0  0  0  0  0
    1.1906    1.1919    0.3595 C   0  0  1  0  0  0  0  0  0  0  0  0
   -0.3930   -1.5824   -0.7623 C   0  0  0  0  0  0  0  0  0  0  0  0
   -0.7457    2.3034   -0.3185 C   0  0  0  0  0  0  0  0  0  0  0  0
    1.0104   -1.9042   -0.4224 C   0  0  0  0  0  0  0  0  0  0  0  0
    2.4455    1.5399   -0.4110 C   0  0  0  0  0  0  0  0  0  0  0  0
    3.3135   -1.7581   -0.2664 C   0  0  2  0  0  0  0  0  0  0  0  0
    3.8491   -0.4372    0.3341 C   0  0  0  0  0  0  0  0  0  0  0  0
    3.5939    0.8299   -0.4598 C   0  0  0  0  0  0  0  0  0  0  0  0
    2.1083   -1.5943   -1.1072 C   0  0  0  0  0  0  0  0  0  0  0  0
   -0.2106    2.9745    0.8752 C   0  0  0  0  0  0  0  0  0  0  0  0
    1.4580   -2.5505    0.8154 C   0  0  0  0  0  0  0  0  0  0  0  0
   -1.6574    2.8988   -1.0929 C   0  0  0  0  0  0  0  0  0  0  0  0
    4.7348    1.2770   -1.3323 C   0  0  0  0  0  0  0  0  0  0  0  0
   -3.2034   -0.7099    0.1383 C   0  0  0  0  0  0  0  0  0  0  0  0
   -4.5680   -0.4718   -0.4841 C   0  0  0  0  0  0  0  0  0  0  0  0
   -4.8736   -1.5743   -1.4911 C   0  0  0  0  0  0  0  0  0  0  0  0
   -5.6486   -0.3992    0.5917 C   0  0  0  0  0  0  0  0  0  0  0  0
    0.2287    0.9110   -1.6006 H   0  0  0  0  0  0  0  0  0  0  0  0
   -0.8946   -0.3251    0.9434 H   0  0  0  0  0  0  0  0  0  0  0  0
    1.3531    0.3288    1.0064 H   0  0  0  0  0  0  0  0  0  0  0  0
   -0.5091   -1.5362   -1.8540 H   0  0  0  0  0  0  0  0  0  0  0  0
   -1.0425   -2.4106   -0.4528 H   0  0  0  0  0  0  0  0  0  0  0  0
    2.3778    2.4459   -1.0121 H   0  0  0  0  0  0  0  0  0  0  0  0
    4.0954   -2.3160   -0.7909 H   0  0  0  0  0  0  0  0  0  0  0  0
    4.9296   -0.5527    0.4974 H   0  0  0  0  0  0  0  0  0  0  0  0
    3.4608   -0.2994    1.3530 H   0  0  0  0  0  0  0  0  0  0  0  0
    2.1058   -1.0993   -2.0687 H   0  0  0  0  0  0  0  0  0  0  0  0
   -2.0137    2.4175   -1.9977 H   0  0  0  0  0  0  0  0  0  0  0  0
   -2.0686    3.8730   -0.8518 H   0  0  0  0  0  0  0  0  0  0  0  0
    5.6168    1.4959   -0.7218 H   0  0  0  0  0  0  0  0  0  0  0  0
    4.4936    2.1794   -1.9038 H   0  0  0  0  0  0  0  0  0  0  0  0
    4.9929    0.4902   -2.0488 H   0  0  0  0  0  0  0  0  0  0  0  0
   -4.5469    0.4980   -0.9969 H   0  0  0  0  0  0  0  0  0  0  0  0
   -4.8945   -2.5581   -1.0093 H   0  0  0  0  0  0  0  0  0  0  0  0
   -5.7417   -1.3480    1.1318 H   0  0  0  0  0  0  0  0  0  0  0  0
   -4.1079   -1.6095   -2.2737 H   0  0  0  0  0  0  0  0  0  0  0  0
   -6.6223   -0.1632    0.1499 H   0  0  0  0  0  0  0  0  0  0  0  0
   -5.8427   -1.4075   -1.9723 H   0  0  0  0  0  0  0  0  0  0  0  0
   -5.4118    0.3773    1.3272 H   0  0  0  0  0  0  0  0  0  0  0  0
  1  9  1  0  0  0  0
  1 18  1  0  0  0  0
  2  8  1  0  0  0  0
  2 22  1  0  0  0  0
  3 14  1  0  0  0  0
  3 19  1  0  0  0  0
  4 18  2  0  0  0  0
  5 19  2  0  0  0  0
  6 22  2  0  0  0  0
  7  8  1  0  0  0  0
  7  9  1  0  0  0  0
  7 11  1  0  0  0  0
  7 26  1  0  0  0  0
  8 10  1  0  0  0  0
  8 27  1  0  0  0  0
  9 13  1  0  0  0  0
  9 28  1  0  0  0  0
 10 12  1  0  0  0  0
 10 29  1  0  0  0  0
 10 30  1  0  0  0  0
 11 18  1  0  0  0  0
 11 20  2  0  0  0  0
 12 17  2  0  0  0  0
 12 19  1  0  0  0  0
 13 16  2  0  0  0  0
 13 31  1  0  0  0  0
 14 15  1  0  0  0  0
 14 17  1  0  0  0  0
 14 32  1  0  0  0  0
 15 16  1  0  0  0  0
 15 33  1  0  0  0  0
 15 34  1  0  0  0  0
 16 21  1  0  0  0  0
 17 35  1  0  0  0  0
 20 36  1  0  0  0  0
 20 37  1  0  0  0  0
 21 38  1  0  0  0  0
 21 39  1  0  0  0  0
 21 40  1  0  0  0  0
 22 23  1  0  0  0  0
 23 24  1  0  0  0  0
 23 25  1  0  0  0  0
 23 41  1  0  0  0  0
 24 42  1  0  0  0  0
 24 44  1  0  0  0  0
 24 46  1  0  0  0  0
 25 43  1  0  0  0  0
 25 45  1  0  0  0  0
 25 47  1  0  0  0  0
M  END
> <PUBCHEM_COMPOUND_CID>
102466643

> <PUBCHEM_CONFORMER_RMSD>
0.8

> <PUBCHEM_CONFORMER_DIVERSEORDER>
1
8
7
2
3
6
5
4

> <PUBCHEM_MMFF94_PARTIAL_CHARGES>
27
1 -0.43
10 0.14
11 -0.12
12 -0.12
13 -0.29
14 0.42
15 0.14
16 -0.28
17 -0.29
18 0.71
19 0.71
2 -0.43
20 -0.3
21 0.14
22 0.66
23 0.06
3 -0.43
31 0.15
35 0.15
36 0.15
37 0.15
4 -0.57
5 -0.57
6 -0.57
7 0.14
8 0.28
9 0.42

> <PUBCHEM_EFFECTIVE_ROTOR_COUNT>
4

> <PUBCHEM_PHARMACOPHORE_FEATURES>
6
1 4 acceptor
1 5 acceptor
1 6 acceptor
3 23 24 25 hydrophobe
5 1 7 9 11 18 rings
5 3 12 14 17 19 rings

> <PUBCHEM_HEAVY_ATOM_COUNT>
25

> <PUBCHEM_ATOM_DEF_STEREO_COUNT>
4

> <PUBCHEM_ATOM_UDEF_STEREO_COUNT>
0

> <PUBCHEM_BOND_DEF_STEREO_COUNT>
1

> <PUBCHEM_BOND_UDEF_STEREO_COUNT>
0

> <PUBCHEM_ISOTOPIC_ATOM_COUNT>
0

> <PUBCHEM_COMPONENT_COUNT>
1

> <PUBCHEM_CACTVS_TAUTO_COUNT>
2

> <PUBCHEM_CONFORMER_ID>
061B845300000001

> <PUBCHEM_MMFF94_ENERGY>
52.5997

> <PUBCHEM_FEATURE_SELFOVERLAP>
30.447

> <PUBCHEM_SHAPE_FINGERPRINT>
10090160 65 18113615711616340430
10366900 7 18262793098993070703
104564 63 18270973349107265704
10688039 33 18187086131299745749
1100329 8 18195527228089671620
11578080 2 17532080597312883773
12107698 1 18341054004612751046
12553582 1 18272362105091118500
12788726 201 18269559338504469729
13140716 1 18123743425279039040
13899415 154 18270694163390094493
14178342 30 18122053205561636712
14223421 5 18265899047226516918
14787075 74 18408886273668842390
14790565 3 18194130826257463125
1601671 61 18202285826901399039
16945 1 18342729754642770764
17492 54 18336553836320767300
20691752 17 17822866272725977940
20905425 154 18341047424110410548
21041028 32 18341610356799527271
21421861 104 18115306653209742547
21641784 216 18188789283011086196
229495 10 13038083009336171008
2334 1 18339362955533610652
23419403 2 16033721019619856288
23558518 356 18194410978810767432
23559900 14 17979063895300874710
23566358 2 18339926996134444980
283562 15 18411143536897536944
2871803 45 18408608054429991590
34934 24 18342738567330541542
350125 39 18337675218217491508
352729 6 17767114311648010125
463206 1 18339640152411982903
6443956 14 18412545439971389757
70251023 43 18196947573221181455
7471813 234 18265315232106174358
81228 2 17977122162382715335

> <PUBCHEM_SHAPE_MULTIPOLES>
479.27
8.51
3.99
1.3
7.61
2.03
-0.09
-2.96
1.92
-0.95
-1.31
0.14
-0.01
-0.75

> <PUBCHEM_SHAPE_SELFOVERLAP>
1017.56

> <PUBCHEM_SHAPE_VOLUME>
266.2

> <PUBCHEM_COORDINATE_TYPE>
2
5
10

$$$$
