38359583
  -OEChem-09032009473D

 45 47  0     1  0  0  0  0  0999 V2000
   -0.6049    3.0160   -0.5713 O   0  0  0  0  0  0  0  0  0  0  0  0
    2.1226   -0.5505    0.2658 O   0  0  0  0  0  0  0  0  0  0  0  0
   -3.6265   -1.0941    1.1699 O   0  0  0  0  0  0  0  0  0  0  0  0
    0.9454    4.5295    0.1921 O   0  0  0  0  0  0  0  0  0  0  0  0
   -2.1655   -0.5864    2.8703 O   0  0  0  0  0  0  0  0  0  0  0  0
    2.1764   -2.1883   -1.3508 O   0  0  0  0  0  0  0  0  0  0  0  0
    0.2158    1.0115    0.4156 C   0  0  2  0  0  0  0  0  0  0  0  0
    0.7088   -0.4415    0.1212 C   0  0  2  0  0  0  0  0  0  0  0  0
   -0.6146    1.5933   -0.7529 C   0  0  1  0  0  0  0  0  0  0  0  0
    0.0632   -1.5255    1.0286 C   0  0  0  0  0  0  0  0  0  0  0  0
    1.1650    2.1541    0.6065 C   0  0  0  0  0  0  0  0  0  0  0  0
   -1.4093   -1.6357    0.8534 C   0  0  0  0  0  0  0  0  0  0  0  0
   -2.0318    1.0934   -0.7243 C   0  0  0  0  0  0  0  0  0  0  0  0
   -3.5024   -1.6523   -0.1502 C   0  0  1  0  0  0  0  0  0  0  0  0
   -3.8317   -0.5523   -1.2020 C   0  0  0  0  0  0  0  0  0  0  0  0
   -2.6198    0.2785   -1.6232 C   0  0  0  0  0  0  0  0  0  0  0  0
   -2.0927   -2.1200   -0.1838 C   0  0  0  0  0  0  0  0  0  0  0  0
    0.5432    3.3868    0.0651 C   0  0  0  0  0  0  0  0  0  0  0  0
   -2.3993   -1.0507    1.7679 C   0  0  0  0  0  0  0  0  0  0  0  0
    2.3556    2.2175    1.2088 C   0  0  0  0  0  0  0  0  0  0  0  0
   -2.0714   -0.0352   -2.9879 C   0  0  0  0  0  0  0  0  0  0  0  0
    2.7356   -1.4682   -0.5358 C   0  0  0  0  0  0  0  0  0  0  0  0
    4.2018   -1.4689   -0.2736 C   0  0  0  0  0  0  0  0  0  0  0  0
    4.7271   -1.1203    1.0852 C   0  0  0  0  0  0  0  0  0  0  0  0
    5.0093   -1.7908   -1.2947 C   0  0  0  0  0  0  0  0  0  0  0  0
   -0.4026    1.0011    1.3239 H   0  0  0  0  0  0  0  0  0  0  0  0
    0.4416   -0.6722   -0.9188 H   0  0  0  0  0  0  0  0  0  0  0  0
   -0.1246    1.3960   -1.7124 H   0  0  0  0  0  0  0  0  0  0  0  0
    0.3127   -1.3133    2.0760 H   0  0  0  0  0  0  0  0  0  0  0  0
    0.5197   -2.5027    0.8266 H   0  0  0  0  0  0  0  0  0  0  0  0
   -2.5522    1.2740    0.2154 H   0  0  0  0  0  0  0  0  0  0  0  0
   -4.2087   -2.4851   -0.2259 H   0  0  0  0  0  0  0  0  0  0  0  0
   -4.6158    0.1146   -0.8219 H   0  0  0  0  0  0  0  0  0  0  0  0
   -4.2444   -1.0436   -2.0924 H   0  0  0  0  0  0  0  0  0  0  0  0
   -1.6393   -2.5945   -1.0431 H   0  0  0  0  0  0  0  0  0  0  0  0
    2.7983    1.3504    1.6816 H   0  0  0  0  0  0  0  0  0  0  0  0
    2.9105    3.1472    1.2823 H   0  0  0  0  0  0  0  0  0  0  0  0
   -1.6840   -1.0575   -3.0260 H   0  0  0  0  0  0  0  0  0  0  0  0
   -1.2739    0.6441   -3.2975 H   0  0  0  0  0  0  0  0  0  0  0  0
   -2.8650    0.0595   -3.7372 H   0  0  0  0  0  0  0  0  0  0  0  0
    4.6518   -0.0441    1.2628 H   0  0  0  0  0  0  0  0  0  0  0  0
    4.1619   -1.6457    1.8619 H   0  0  0  0  0  0  0  0  0  0  0  0
    5.7790   -1.4038    1.1989 H   0  0  0  0  0  0  0  0  0  0  0  0
    6.0873   -1.8089   -1.1697 H   0  0  0  0  0  0  0  0  0  0  0  0
    4.6264   -2.0384   -2.2794 H   0  0  0  0  0  0  0  0  0  0  0  0
  1  9  1  0  0  0  0
  1 18  1  0  0  0  0
  2  8  1  0  0  0  0
  2 22  1  0  0  0  0
  3 14  1  0  0  0  0
  3 19  1  0  0  0  0
  4 18  2  0  0  0  0
  5 19  2  0  0  0  0
  6 22  2  0  0  0  0
  7  8  1  0  0  0  0
  7  9  1  0  0  0  0
  7 11  1  0  0  0  0
  7 26  1  0  0  0  0
  8 10  1  0  0  0  0
  8 27  1  0  0  0  0
  9 13  1  0  0  0  0
  9 28  1  0  0  0  0
 10 12  1  0  0  0  0
 10 29  1  0  0  0  0
 10 30  1  0  0  0  0
 11 18  1  0  0  0  0
 11 20  2  0  0  0  0
 12 17  2  0  0  0  0
 12 19  1  0  0  0  0
 13 16  2  0  0  0  0
 13 31  1  0  0  0  0
 14 15  1  0  0  0  0
 14 17  1  0  0  0  0
 14 32  1  0  0  0  0
 15 16  1  0  0  0  0
 15 33  1  0  0  0  0
 15 34  1  0  0  0  0
 16 21  1  0  0  0  0
 17 35  1  0  0  0  0
 20 36  1  0  0  0  0
 20 37  1  0  0  0  0
 21 38  1  0  0  0  0
 21 39  1  0  0  0  0
 21 40  1  0  0  0  0
 22 23  1  0  0  0  0
 23 24  1  0  0  0  0
 23 25  2  0  0  0  0
 24 41  1  0  0  0  0
 24 42  1  0  0  0  0
 24 43  1  0  0  0  0
 25 44  1  0  0  0  0
 25 45  1  0  0  0  0
M  END
> <PUBCHEM_COMPOUND_CID>
38359583

> <PUBCHEM_CONFORMER_RMSD>
0.8

> <PUBCHEM_CONFORMER_DIVERSEORDER>
1
2
6
5
3
4

> <PUBCHEM_MMFF94_PARTIAL_CHARGES>
31
1 -0.43
10 0.14
11 -0.12
12 -0.12
13 -0.29
14 0.42
15 0.14
16 -0.28
17 -0.29
18 0.71
19 0.71
2 -0.43
20 -0.3
21 0.14
22 0.71
23 -0.12
24 0.14
25 -0.3
3 -0.43
31 0.15
35 0.15
36 0.15
37 0.15
4 -0.57
44 0.15
45 0.15
5 -0.57
6 -0.57
7 0.14
8 0.28
9 0.42

> <PUBCHEM_EFFECTIVE_ROTOR_COUNT>
4

> <PUBCHEM_PHARMACOPHORE_FEATURES>
5
1 4 acceptor
1 5 acceptor
1 6 acceptor
5 1 7 9 11 18 rings
5 3 12 14 17 19 rings

> <PUBCHEM_HEAVY_ATOM_COUNT>
25

> <PUBCHEM_ATOM_DEF_STEREO_COUNT>
4

> <PUBCHEM_ATOM_UDEF_STEREO_COUNT>
0

> <PUBCHEM_BOND_DEF_STEREO_COUNT>
1

> <PUBCHEM_BOND_UDEF_STEREO_COUNT>
0

> <PUBCHEM_ISOTOPIC_ATOM_COUNT>
0

> <PUBCHEM_COMPONENT_COUNT>
1

> <PUBCHEM_CACTVS_TAUTO_COUNT>
1

> <PUBCHEM_CONFORMER_ID>
0249521F00000001

> <PUBCHEM_MMFF94_ENERGY>
65.8471

> <PUBCHEM_FEATURE_SELFOVERLAP>
25.373

> <PUBCHEM_SHAPE_FINGERPRINT>
10764073 3 16116322878090485331
12363563 72 18411416194211001814
12553582 1 18267012873700488046
12714826 92 17895206488518360514
12788726 201 18049998887977301648
13009979 54 17059767948545651463
13149001 5 18114726201254170357
133893 2 18124896795300730832
13583140 156 13829556584987837570
13911987 19 18336557083527657238
14790565 3 17620753882153275248
16945 1 17903086864695852753
17357779 13 18341886368857477206
17980427 23 17417268562575131267
1813 80 17988659475152516454
18927931 339 18266747874883632398
20101258 96 18269846324304191404
20691752 17 16733807805755110567
21304303 282 17396108289526640500
21339142 36 18336268950844871062
22182313 1 18188757465776714169
22907989 373 18118988922384085462
23175994 123 18409452483512951727
23419403 2 18260828258164727540
23558518 356 17541935391210591850
23559900 14 18262508188327749666
238 59 17834357453436864013
2748010 2 18188757465876901989
35225 105 17332003453979956620
81228 2 18120386367013008792
9709674 26 18191571159451293095

> <PUBCHEM_SHAPE_MULTIPOLES>
479.27
7.27
3.79
2
6.35
4.94
-0.15
-6.04
-1.26
1.78
0.18
-1.49
-0.59
1.63

> <PUBCHEM_SHAPE_SELFOVERLAP>
1022.872

> <PUBCHEM_SHAPE_VOLUME>
264.9

> <PUBCHEM_COORDINATE_TYPE>
2
5
10

$$$$
