460892
  -OEChem-09032009462D

 64 66  0     1  0  0  0  0  0999 V2000
    8.0622    1.7890    0.0000 O   0  0  0  0  0  0  0  0  0  0  0  0
    9.7942    0.7890    0.0000 O   0  0  0  0  0  0  0  0  0  0  0  0
    9.2942    4.6550    0.0000 O   0  0  0  0  0  0  0  0  0  0  0  0
   11.5263    1.7890    0.0000 O   0  0  0  0  0  0  0  0  0  0  0  0
   11.2942    4.6550    0.0000 O   0  0  0  0  0  0  0  0  0  0  0  0
    9.7942    5.5210    0.0000 O   0  0  0  0  0  0  0  0  0  0  0  0
    7.1962    3.2890    0.0000 O   0  0  0  0  0  0  0  0  0  0  0  0
    8.0622    0.7890    0.0000 O   0  0  0  0  0  0  0  0  0  0  0  0
    2.0000    2.2890    0.0000 O   0  0  0  0  0  0  0  0  0  0  0  0
    6.3301   -4.2110    0.0000 O   0  0  0  0  0  0  0  0  0  0  0  0
    2.0000    0.2890    0.0000 O   0  0  0  0  0  0  0  0  0  0  0  0
    8.0622   -5.2110    0.0000 O   0  0  0  0  0  0  0  0  0  0  0  0
    9.7942    3.7890    0.0000 C   0  0  3  0  0  0  0  0  0  0  0  0
    8.9282    2.2890    0.0000 C   0  0  3  0  0  0  0  0  0  0  0  0
    9.7942    1.7890    0.0000 C   0  0  3  0  0  0  0  0  0  0  0  0
    8.9282    3.2890    0.0000 C   0  0  0  0  0  0  0  0  0  0  0  0
   10.6603    3.2890    0.0000 C   0  0  0  0  0  0  0  0  0  0  0  0
   10.6603    2.2890    0.0000 C   0  0  3  0  0  0  0  0  0  0  0  0
   10.2942    4.6550    0.0000 C   0  0  0  0  0  0  0  0  0  0  0  0
    7.1962    2.2890    0.0000 C   0  0  0  0  0  0  0  0  0  0  0  0
    8.9282    0.2890    0.0000 C   0  0  0  0  0  0  0  0  0  0  0  0
   11.7942    5.5210    0.0000 C   0  0  0  0  0  0  0  0  0  0  0  0
    6.3301    1.7890    0.0000 C   0  0  0  0  0  0  0  0  0  0  0  0
    8.9282   -0.7110    0.0000 C   0  0  0  0  0  0  0  0  0  0  0  0
    5.4641    2.2890    0.0000 C   0  0  0  0  0  0  0  0  0  0  0  0
    8.0622   -1.2110    0.0000 C   0  0  0  0  0  0  0  0  0  0  0  0
    4.5981    1.7890    0.0000 C   0  0  0  0  0  0  0  0  0  0  0  0
    8.0622   -2.2110    0.0000 C   0  0  0  0  0  0  0  0  0  0  0  0
    3.7320    2.2890    0.0000 C   0  0  0  0  0  0  0  0  0  0  0  0
    7.1962   -2.7110    0.0000 C   0  0  0  0  0  0  0  0  0  0  0  0
    4.5981    0.7890    0.0000 C   0  0  0  0  0  0  0  0  0  0  0  0
    8.9282   -2.7110    0.0000 C   0  0  0  0  0  0  0  0  0  0  0  0
    2.8660    1.7890    0.0000 C   0  0  0  0  0  0  0  0  0  0  0  0
    7.1962   -3.7110    0.0000 C   0  0  0  0  0  0  0  0  0  0  0  0
    3.7320    0.2890    0.0000 C   0  0  0  0  0  0  0  0  0  0  0  0
    8.9282   -3.7110    0.0000 C   0  0  0  0  0  0  0  0  0  0  0  0
    2.8660    0.7890    0.0000 C   0  0  0  0  0  0  0  0  0  0  0  0
    8.0622   -4.2110    0.0000 C   0  0  0  0  0  0  0  0  0  0  0  0
    8.3913    2.5990    0.0000 H   0  0  0  0  0  0  0  0  0  0  0  0
    9.2573    1.4790    0.0000 H   0  0  0  0  0  0  0  0  0  0  0  0
    8.7162    3.8716    0.0000 H   0  0  0  0  0  0  0  0  0  0  0  0
    8.3176    3.1813    0.0000 H   0  0  0  0  0  0  0  0  0  0  0  0
   11.2708    3.1813    0.0000 H   0  0  0  0  0  0  0  0  0  0  0  0
   10.8723    3.8716    0.0000 H   0  0  0  0  0  0  0  0  0  0  0  0
   10.6603    1.6690    0.0000 H   0  0  0  0  0  0  0  0  0  0  0  0
    8.6742    4.6550    0.0000 H   0  0  0  0  0  0  0  0  0  0  0  0
   12.0632    2.0990    0.0000 H   0  0  0  0  0  0  0  0  0  0  0  0
   12.3312    5.2110    0.0000 H   0  0  0  0  0  0  0  0  0  0  0  0
   12.1042    6.0580    0.0000 H   0  0  0  0  0  0  0  0  0  0  0  0
   11.2573    5.8310    0.0000 H   0  0  0  0  0  0  0  0  0  0  0  0
    6.3301    1.1690    0.0000 H   0  0  0  0  0  0  0  0  0  0  0  0
    9.4651   -1.0210    0.0000 H   0  0  0  0  0  0  0  0  0  0  0  0
    5.4641    2.9090    0.0000 H   0  0  0  0  0  0  0  0  0  0  0  0
    7.5252   -0.9010    0.0000 H   0  0  0  0  0  0  0  0  0  0  0  0
    3.7320    2.9090    0.0000 H   0  0  0  0  0  0  0  0  0  0  0  0
    6.6592   -2.4010    0.0000 H   0  0  0  0  0  0  0  0  0  0  0  0
    5.1350    0.4790    0.0000 H   0  0  0  0  0  0  0  0  0  0  0  0
    9.4651   -2.4010    0.0000 H   0  0  0  0  0  0  0  0  0  0  0  0
    3.7320   -0.3310    0.0000 H   0  0  0  0  0  0  0  0  0  0  0  0
    9.4651   -4.0210    0.0000 H   0  0  0  0  0  0  0  0  0  0  0  0
    2.0000    2.9090    0.0000 H   0  0  0  0  0  0  0  0  0  0  0  0
    6.3301   -4.8310    0.0000 H   0  0  0  0  0  0  0  0  0  0  0  0
    2.0000   -0.3310    0.0000 H   0  0  0  0  0  0  0  0  0  0  0  0
    8.5991   -5.5210    0.0000 H   0  0  0  0  0  0  0  0  0  0  0  0
  1 14  1  0  0  0  0
  1 20  1  0  0  0  0
  2 15  1  0  0  0  0
  2 21  1  0  0  0  0
  3 13  1  0  0  0  0
  3 46  1  0  0  0  0
  4 18  1  0  0  0  0
  4 47  1  0  0  0  0
  5 19  1  0  0  0  0
  5 22  1  0  0  0  0
  6 19  2  0  0  0  0
  7 20  2  0  0  0  0
  8 21  2  0  0  0  0
  9 33  1  0  0  0  0
  9 61  1  0  0  0  0
 10 34  1  0  0  0  0
 10 62  1  0  0  0  0
 11 37  1  0  0  0  0
 11 63  1  0  0  0  0
 12 38  1  0  0  0  0
 12 64  1  0  0  0  0
 13 16  1  0  0  0  0
 13 17  1  0  0  0  0
 13 19  1  0  0  0  0
 14 15  1  0  0  0  0
 14 16  1  0  0  0  0
 14 39  1  0  0  0  0
 15 18  1  0  0  0  0
 15 40  1  0  0  0  0
 16 41  1  0  0  0  0
 16 42  1  0  0  0  0
 17 18  1  0  0  0  0
 17 43  1  0  0  0  0
 17 44  1  0  0  0  0
 18 45  1  0  0  0  0
 20 23  1  0  0  0  0
 21 24  1  0  0  0  0
 22 48  1  0  0  0  0
 22 49  1  0  0  0  0
 22 50  1  0  0  0  0
 23 25  2  3  0  0  0
 23 51  1  0  0  0  0
 24 26  2  3  0  0  0
 24 52  1  0  0  0  0
 25 27  1  0  0  0  0
 25 53  1  0  0  0  0
 26 28  1  0  0  0  0
 26 54  1  0  0  0  0
 27 29  2  0  0  0  0
 27 31  1  0  0  0  0
 28 30  2  0  0  0  0
 28 32  1  0  0  0  0
 29 33  1  0  0  0  0
 29 55  1  0  0  0  0
 30 34  1  0  0  0  0
 30 56  1  0  0  0  0
 31 35  2  0  0  0  0
 31 57  1  0  0  0  0
 32 36  2  0  0  0  0
 32 58  1  0  0  0  0
 33 37  2  0  0  0  0
 34 38  2  0  0  0  0
 35 37  1  0  0  0  0
 35 59  1  0  0  0  0
 36 38  1  0  0  0  0
 36 60  1  0  0  0  0
M  END
> <PUBCHEM_COMPOUND_CID>
460892

> <PUBCHEM_COMPOUND_CANONICALIZED>
1

> <PUBCHEM_CACTVS_COMPLEXITY>
903

> <PUBCHEM_CACTVS_HBOND_ACCEPTOR>
12

> <PUBCHEM_CACTVS_HBOND_DONOR>
6

> <PUBCHEM_CACTVS_ROTATABLE_BOND>
10

> <PUBCHEM_CACTVS_SUBSKEYS>
AAADceB4PAAAAAAAAAAAAAAAAAAAAAAAAAAwYMAAAAAAAAABQAAAGgAACAAADFSgmAIyDoAABgCIAiDSCAICAAAgIAAIiAFGiMgJNjKCMRKCcAElwBELuYfK7DzOIAABAAAAQABCAAIQAACAAAAAAAAAAA==

> <PUBCHEM_IUPAC_OPENEYE_NAME>
methyl 3,4-bis[3-(3,4-dihydroxyphenyl)prop-2-enoyloxy]-1,5-dihydroxy-cyclohexanecarboxylate

> <PUBCHEM_IUPAC_CAS_NAME>
3,4-bis[3-(3,4-dihydroxyphenyl)-1-oxoprop-2-enoxy]-1,5-dihydroxy-1-cyclohexanecarboxylic acid methyl ester

> <PUBCHEM_IUPAC_NAME_MARKUP>
methyl 3,4-bis[3-(3,4-dihydroxyphenyl)prop-2-enoyloxy]-1,5-dihydroxycyclohexane-1-carboxylate

> <PUBCHEM_IUPAC_NAME>
methyl 3,4-bis[3-(3,4-dihydroxyphenyl)prop-2-enoyloxy]-1,5-dihydroxycyclohexane-1-carboxylate

> <PUBCHEM_IUPAC_SYSTEMATIC_NAME>
methyl 3,4-bis[3-[3,4-bis(oxidanyl)phenyl]prop-2-enoyloxy]-1,5-bis(oxidanyl)cyclohexane-1-carboxylate

> <PUBCHEM_IUPAC_TRADITIONAL_NAME>
3,4-dicaffeoyloxy-1,5-dihydroxy-cyclohexanecarboxylic acid methyl ester

> <PUBCHEM_IUPAC_INCHI>
InChI=1S/C26H26O12/c1-36-25(34)26(35)12-20(31)24(38-23(33)9-5-15-3-7-17(28)19(30)11-15)21(13-26)37-22(32)8-4-14-2-6-16(27)18(29)10-14/h2-11,20-21,24,27-31,35H,12-13H2,1H3

> <PUBCHEM_IUPAC_INCHIKEY>
PKJBSZTYNDRXEQ-UHFFFAOYSA-N

> <PUBCHEM_XLOGP3_AA>
1.9

> <PUBCHEM_EXACT_MASS>
530.142426

> <PUBCHEM_MOLECULAR_FORMULA>
C26H26O12

> <PUBCHEM_MOLECULAR_WEIGHT>
530.5

> <PUBCHEM_OPENEYE_CAN_SMILES>
COC(=O)C1(CC(C(C(C1)OC(=O)C=CC2=CC(=C(C=C2)O)O)OC(=O)C=CC3=CC(=C(C=C3)O)O)O)O

> <PUBCHEM_OPENEYE_ISO_SMILES>
COC(=O)C1(CC(C(C(C1)OC(=O)C=CC2=CC(=C(C=C2)O)O)OC(=O)C=CC3=CC(=C(C=C3)O)O)O)O

> <PUBCHEM_CACTVS_TPSA>
200

> <PUBCHEM_MONOISOTOPIC_WEIGHT>
530.142426

> <PUBCHEM_TOTAL_CHARGE>
0

> <PUBCHEM_HEAVY_ATOM_COUNT>
38

> <PUBCHEM_ATOM_DEF_STEREO_COUNT>
0

> <PUBCHEM_ATOM_UDEF_STEREO_COUNT>
4

> <PUBCHEM_BOND_DEF_STEREO_COUNT>
0

> <PUBCHEM_BOND_UDEF_STEREO_COUNT>
2

> <PUBCHEM_ISOTOPIC_ATOM_COUNT>
0

> <PUBCHEM_COMPONENT_COUNT>
1

> <PUBCHEM_CACTVS_TAUTO_COUNT>
-1

> <PUBCHEM_COORDINATE_TYPE>
1
5
255

> <PUBCHEM_BONDANNOTATIONS>
14  1  3
15  2  3
23  25  1
24  26  1
27  29  8
27  31  8
28  30  8
28  32  8
29  33  8
13  3  3
30  34  8
31  35  8
32  36  8
33  37  8
34  38  8
35  37  8
36  38  8
18  4  3

$$$$
