5321977
  -OEChem-09032021183D

 32 33  0     0  0  0  0  0  0999 V2000
    1.3133    2.1524   -0.0403 O   0  0  0  0  0  0  0  0  0  0  0  0
   -4.3029   -0.9344    0.0292 O   0  0  0  0  0  0  0  0  0  0  0  0
   -1.2282    2.6620   -0.0207 O   0  0  0  0  0  0  0  0  0  0  0  0
    4.0188    0.5600   -1.1180 O   0  0  0  0  0  0  0  0  0  0  0  0
   -0.3503    0.3933   -0.0129 C   0  0  0  0  0  0  0  0  0  0  0  0
   -0.6303   -0.9939   -0.0014 C   0  0  0  0  0  0  0  0  0  0  0  0
    2.0321   -0.0996   -0.0310 C   0  0  0  0  0  0  0  0  0  0  0  0
    1.7566   -1.4638   -0.0195 C   0  0  0  0  0  0  0  0  0  0  0  0
    0.9864    0.8241   -0.0278 C   0  0  0  0  0  0  0  0  0  0  0  0
    0.4346   -1.9094   -0.0050 C   0  0  0  0  0  0  0  0  0  0  0  0
   -1.4151    1.3089   -0.0097 C   0  0  0  0  0  0  0  0  0  0  0  0
   -1.9670   -1.4246    0.0130 C   0  0  0  0  0  0  0  0  0  0  0  0
   -3.0127   -0.5009    0.0163 C   0  0  0  0  0  0  0  0  0  0  0  0
   -2.7372    0.8633    0.0048 C   0  0  0  0  0  0  0  0  0  0  0  0
    2.8556   -2.4767   -0.0231 C   0  0  0  0  0  0  0  0  0  0  0  0
    3.4164    0.3628   -0.0471 C   0  0  0  0  0  0  0  0  0  0  0  0
    4.1528    0.6133    1.2614 C   0  0  0  0  0  0  0  0  0  0  0  0
   -5.3229    0.0632    0.0319 C   0  0  0  0  0  0  0  0  0  0  0  0
    0.2240   -2.9775    0.0040 H   0  0  0  0  0  0  0  0  0  0  0  0
   -2.1997   -2.4880    0.0217 H   0  0  0  0  0  0  0  0  0  0  0  0
   -3.5078    1.6275    0.0062 H   0  0  0  0  0  0  0  0  0  0  0  0
    3.4633   -2.3866    0.8832 H   0  0  0  0  0  0  0  0  0  0  0  0
    2.4669   -3.5005   -0.0532 H   0  0  0  0  0  0  0  0  0  0  0  0
    3.4945   -2.3496   -0.9034 H   0  0  0  0  0  0  0  0  0  0  0  0
    3.5030    0.3968    2.1140 H   0  0  0  0  0  0  0  0  0  0  0  0
    4.4556    1.6624    1.3080 H   0  0  0  0  0  0  0  0  0  0  0  0
    5.0280   -0.0392    1.3119 H   0  0  0  0  0  0  0  0  0  0  0  0
    2.2695    2.2900   -0.1235 H   0  0  0  0  0  0  0  0  0  0  0  0
   -0.2849    2.8815   -0.0276 H   0  0  0  0  0  0  0  0  0  0  0  0
   -6.2853   -0.4591    0.0433 H   0  0  0  0  0  0  0  0  0  0  0  0
   -5.2985    0.6667   -0.8819 H   0  0  0  0  0  0  0  0  0  0  0  0
   -5.2829    0.6779    0.9376 H   0  0  0  0  0  0  0  0  0  0  0  0
  1  9  1  0  0  0  0
  1 28  1  0  0  0  0
  2 13  1  0  0  0  0
  2 18  1  0  0  0  0
  3 11  1  0  0  0  0
  3 29  1  0  0  0  0
  4 16  2  0  0  0  0
  5  6  1  0  0  0  0
  5  9  1  0  0  0  0
  5 11  2  0  0  0  0
  6 10  1  0  0  0  0
  6 12  2  0  0  0  0
  7  8  1  0  0  0  0
  7  9  2  0  0  0  0
  7 16  1  0  0  0  0
  8 10  2  0  0  0  0
  8 15  1  0  0  0  0
 10 19  1  0  0  0  0
 11 14  1  0  0  0  0
 12 13  1  0  0  0  0
 12 20  1  0  0  0  0
 13 14  2  0  0  0  0
 14 21  1  0  0  0  0
 15 22  1  0  0  0  0
 15 23  1  0  0  0  0
 15 24  1  0  0  0  0
 16 17  1  0  0  0  0
 17 25  1  0  0  0  0
 17 26  1  0  0  0  0
 17 27  1  0  0  0  0
 18 30  1  0  0  0  0
 18 31  1  0  0  0  0
 18 32  1  0  0  0  0
M  END
> <PUBCHEM_COMPOUND_CID>
5321977

> <PUBCHEM_CONFORMER_RMSD>
0.6

> <PUBCHEM_CONFORMER_DIVERSEORDER>
2
3
1

> <PUBCHEM_MMFF94_PARTIAL_CHARGES>
21
1 -0.53
10 -0.15
11 0.08
12 -0.15
13 0.08
14 -0.15
15 0.14
16 0.42
17 0.06
18 0.28
19 0.15
2 -0.36
20 0.15
21 0.15
28 0.45
29 0.45
3 -0.53
4 -0.57
7 0.09
8 -0.14
9 0.08

> <PUBCHEM_EFFECTIVE_ROTOR_COUNT>
2

> <PUBCHEM_PHARMACOPHORE_FEATURES>
6
1 1 donor
1 2 acceptor
1 3 donor
1 4 acceptor
6 5 6 11 12 13 14 rings
6 5 6 7 8 9 10 rings

> <PUBCHEM_HEAVY_ATOM_COUNT>
18

> <PUBCHEM_ATOM_DEF_STEREO_COUNT>
0

> <PUBCHEM_ATOM_UDEF_STEREO_COUNT>
0

> <PUBCHEM_BOND_DEF_STEREO_COUNT>
0

> <PUBCHEM_BOND_UDEF_STEREO_COUNT>
0

> <PUBCHEM_ISOTOPIC_ATOM_COUNT>
0

> <PUBCHEM_COMPONENT_COUNT>
1

> <PUBCHEM_CACTVS_TAUTO_COUNT>
100

> <PUBCHEM_CONFORMER_ID>
005134F900000002

> <PUBCHEM_MMFF94_ENERGY>
71.1557

> <PUBCHEM_FEATURE_SELFOVERLAP>
30.484

> <PUBCHEM_SHAPE_FINGERPRINT>
10608611 8 18339637824465511008
10967382 1 18410575110448882358
10980938 120 18410857637914341002
11132069 177 18342454884719223130
11471102 20 18410008823759598303
12236239 1 17676485077643816740
13140716 1 18122338244828271136
13221675 6 18411419526873540759
13380535 76 18408603686232467210
13862211 1 18410568526628176843
14178342 30 18267013964949787936
14576447 43 18128242571141875215
14790565 3 18266189502658674636
15196674 1 18338517435260061551
15442244 35 18194120707561731922
15536298 74 18342458101734422590
16945 1 18410574028364998134
200 152 18131064948854677895
20510252 161 18271524200179993169
20559304 39 18408322185749216040
20645477 70 18339641140412898559
21267235 1 18338525140236770430
21421861 104 17896593990609224379
21501502 16 18267027154413967298
22182313 1 18265604403631864740
2334 1 17689998259810745390
23402539 116 18270953639623527559
23402655 69 18341044139051136295
23463225 33 18335699391269045138
23559900 14 18266453201139786738
2748010 2 18266740177847959678
2871803 45 18408886204822615511
296302 2 17167866395496296479
335352 9 18410856576883034166
34934 24 18340761624117775007
350125 39 18266742385614234346
4072396 5 18335404773249303874
43471831 8 18335416829344160770
474 4 16734684198037526748
5104073 3 18339362951122599563
5374978 207 18409442561938025106
537710 114 18408889550533547773
53812653 166 18271801358867227216
57005193 9 18410284835342748999
69090 78 17917426570453840639
7364860 26 18271805662636064702
9709674 26 18409452470501747963

> <PUBCHEM_SHAPE_MULTIPOLES>
346.95
7.94
2.26
0.74
4.2
0.02
-0.05
-0.14
-0.47
-0.69
0.04
-0.59
0.08
0.12

> <PUBCHEM_SHAPE_SELFOVERLAP>
757.005

> <PUBCHEM_SHAPE_VOLUME>
191.1

> <PUBCHEM_COORDINATE_TYPE>
2
5
10

$$$$
