28454
  -OEChem-09032022193D

 41 40  0     1  0  0  0  0  0999 V2000
   -2.0147   -1.0383   -0.5614 C   0  0  2  0  0  0  0  0  0  0  0  0
    2.4968   -1.0031    0.3483 C   0  0  2  0  0  0  0  0  0  0  0  0
   -1.3822   -1.6062    0.7253 C   0  0  0  0  0  0  0  0  0  0  0  0
    1.0752   -1.4968    0.0095 C   0  0  0  0  0  0  0  0  0  0  0  0
    0.0284   -1.1023    1.0561 C   0  0  0  0  0  0  0  0  0  0  0  0
   -1.9841    0.5010   -0.6582 C   0  0  0  0  0  0  0  0  0  0  0  0
    2.5986    0.5157    0.6011 C   0  0  0  0  0  0  0  0  0  0  0  0
   -3.4411   -1.5794   -0.7151 C   0  0  0  0  0  0  0  0  0  0  0  0
    3.4752   -1.4567   -0.7404 C   0  0  0  0  0  0  0  0  0  0  0  0
   -2.7535    1.2400    0.4398 C   0  0  0  0  0  0  0  0  0  0  0  0
    2.2214    1.4020   -0.5888 C   0  0  0  0  0  0  0  0  0  0  0  0
   -2.5978    2.7476    0.3007 C   0  0  0  0  0  0  0  0  0  0  0  0
    2.2778    2.8766   -0.2170 C   0  0  0  0  0  0  0  0  0  0  0  0
   -1.4421   -1.4209   -1.4162 H   0  0  0  0  0  0  0  0  0  0  0  0
    2.8022   -1.4976    1.2807 H   0  0  0  0  0  0  0  0  0  0  0  0
   -1.3552   -2.7015    0.6529 H   0  0  0  0  0  0  0  0  0  0  0  0
   -2.0312   -1.3801    1.5809 H   0  0  0  0  0  0  0  0  0  0  0  0
    0.7850   -1.1119   -0.9741 H   0  0  0  0  0  0  0  0  0  0  0  0
    1.0901   -2.5907   -0.0808 H   0  0  0  0  0  0  0  0  0  0  0  0
   -0.0042   -0.0185    1.1949 H   0  0  0  0  0  0  0  0  0  0  0  0
    0.3247   -1.5260    2.0240 H   0  0  0  0  0  0  0  0  0  0  0  0
   -0.9474    0.8470   -0.6692 H   0  0  0  0  0  0  0  0  0  0  0  0
   -2.3997    0.7940   -1.6317 H   0  0  0  0  0  0  0  0  0  0  0  0
    3.6331    0.7467    0.8895 H   0  0  0  0  0  0  0  0  0  0  0  0
    1.9910    0.7876    1.4719 H   0  0  0  0  0  0  0  0  0  0  0  0
   -3.9115   -1.1879   -1.6231 H   0  0  0  0  0  0  0  0  0  0  0  0
   -4.0719   -1.3150    0.1395 H   0  0  0  0  0  0  0  0  0  0  0  0
   -3.4297   -2.6721   -0.7922 H   0  0  0  0  0  0  0  0  0  0  0  0
    4.4918   -1.1156   -0.5189 H   0  0  0  0  0  0  0  0  0  0  0  0
    3.4985   -2.5502   -0.8030 H   0  0  0  0  0  0  0  0  0  0  0  0
    3.1923   -1.0753   -1.7266 H   0  0  0  0  0  0  0  0  0  0  0  0
   -3.8188    0.9908    0.3923 H   0  0  0  0  0  0  0  0  0  0  0  0
   -2.3914    0.9428    1.4293 H   0  0  0  0  0  0  0  0  0  0  0  0
    1.2163    1.1683   -0.9455 H   0  0  0  0  0  0  0  0  0  0  0  0
    2.9093    1.2263   -1.4228 H   0  0  0  0  0  0  0  0  0  0  0  0
   -1.5466    3.0424    0.3827 H   0  0  0  0  0  0  0  0  0  0  0  0
   -3.1567    3.2605    1.0896 H   0  0  0  0  0  0  0  0  0  0  0  0
   -2.9782    3.0937   -0.6656 H   0  0  0  0  0  0  0  0  0  0  0  0
    1.5719    3.1047    0.5880 H   0  0  0  0  0  0  0  0  0  0  0  0
    2.0173    3.4953   -1.0815 H   0  0  0  0  0  0  0  0  0  0  0  0
    3.2820    3.1603    0.1139 H   0  0  0  0  0  0  0  0  0  0  0  0
  1  3  1  0  0  0  0
  1  6  1  0  0  0  0
  1  8  1  0  0  0  0
  1 14  1  0  0  0  0
  2  4  1  0  0  0  0
  2  7  1  0  0  0  0
  2  9  1  0  0  0  0
  2 15  1  0  0  0  0
  3  5  1  0  0  0  0
  3 16  1  0  0  0  0
  3 17  1  0  0  0  0
  4  5  1  0  0  0  0
  4 18  1  0  0  0  0
  4 19  1  0  0  0  0
  5 20  1  0  0  0  0
  5 21  1  0  0  0  0
  6 10  1  0  0  0  0
  6 22  1  0  0  0  0
  6 23  1  0  0  0  0
  7 11  1  0  0  0  0
  7 24  1  0  0  0  0
  7 25  1  0  0  0  0
  8 26  1  0  0  0  0
  8 27  1  0  0  0  0
  8 28  1  0  0  0  0
  9 29  1  0  0  0  0
  9 30  1  0  0  0  0
  9 31  1  0  0  0  0
 10 12  1  0  0  0  0
 10 32  1  0  0  0  0
 10 33  1  0  0  0  0
 11 13  1  0  0  0  0
 11 34  1  0  0  0  0
 11 35  1  0  0  0  0
 12 36  1  0  0  0  0
 12 37  1  0  0  0  0
 12 38  1  0  0  0  0
 13 39  1  0  0  0  0
 13 40  1  0  0  0  0
 13 41  1  0  0  0  0
M  END
> <PUBCHEM_COMPOUND_CID>
28454

> <PUBCHEM_CONFORMER_RMSD>
0.8

> <PUBCHEM_CONFORMER_DIVERSEORDER>
1
50
230
97
215
201
60
44
223
168
141
140
95
25
183
62
128
126
93
178
195
78
147
32
175
134
79
210
102
146
2
108
163
177
224
53
86
148
119
125
222
228
118
219
162
123
193
11
206
176
19
120
221
28
30
165
233
242
77
121
31
232
84
129
180
98
83
244
196
185
24
143
38
144
170
155
240
15
133
122
158
72
231
220
39
111
247
68
203
8
149
174
150
173
153
5
75
237
164
208
85
18
160
137
197
179
3
105
104
202
64
127
229
154
116
100
7
172
171
213
56
234
211
205
189
4
184
250
214
22
159
89
246
88
35
16
138
198
212
99
91
13
112
131
151
142
90
161
253
110
204
94
166
225
192
169
58
186
238
252
207
188
82
115
92
29
69
200
191
49
187
167
218
248
66
71
251
135
145
33
81
181
209
36
20
236
34
76
96
59
136
194
190
43
139
9
199
42
157
17
54
114
46
117
107
217
227
87
47
61
51
52
74
65
239
45
37
101
113
216
132
23
109
124
182
67
40
41
73
245
156
12
57
80
152
235
6
103
63
106
130
249
55
243
70
241
226
10
14
21
27
26
48

> <PUBCHEM_MMFF94_PARTIAL_CHARGES>
0

> <PUBCHEM_EFFECTIVE_ROTOR_COUNT>
8

> <PUBCHEM_PHARMACOPHORE_FEATURES>
4
1 12 hydrophobe
1 13 hydrophobe
1 8 hydrophobe
1 9 hydrophobe

> <PUBCHEM_HEAVY_ATOM_COUNT>
13

> <PUBCHEM_ATOM_DEF_STEREO_COUNT>
0

> <PUBCHEM_ATOM_UDEF_STEREO_COUNT>
2

> <PUBCHEM_BOND_DEF_STEREO_COUNT>
0

> <PUBCHEM_BOND_UDEF_STEREO_COUNT>
0

> <PUBCHEM_ISOTOPIC_ATOM_COUNT>
0

> <PUBCHEM_COMPONENT_COUNT>
1

> <PUBCHEM_CACTVS_TAUTO_COUNT>
1

> <PUBCHEM_CONFORMER_ID>
00006F2600000001

> <PUBCHEM_MMFF94_ENERGY>
7.824

> <PUBCHEM_FEATURE_SELFOVERLAP>
20.3

> <PUBCHEM_SHAPE_FINGERPRINT>
10922523 26 18131350769695038758
12162725 195 18336820978696458714
13618510 140 18118121596403591668
1420 336 18410293571069008248
14250199 8 18336826484707304391
14251711 518 17902220127168167873
17041 49 18190169114548418194
17041 50 18341621356664687078
18186145 218 18334850606630798023
18522851 268 17989203741713616814
192875 21 18191843799279368592
19973954 147 18336547204627680346
20304884 271 18409170991303448905
20653085 51 18411424977234629331
21501502 16 18410857676336574276
21524375 3 18047474426876203771
21947302 44 18262794206867864202
22959321 54 18263359368381270197
23557571 272 17845924208281448219
25610 137 18264770050843536435
5262128 65 18342178877399456390
7832392 63 18267582407796595584
8050 44 18116421733962188308
81228 2 16807595008123224619

> <PUBCHEM_SHAPE_MULTIPOLES>
267.53
6.19
3.12
0.97
0.1
2.42
0.04
0.28
-1.02
-0.19
-0.03
-0.05
-0.2
-0.47

> <PUBCHEM_SHAPE_SELFOVERLAP>
478.898

> <PUBCHEM_SHAPE_VOLUME>
174.1

> <PUBCHEM_COORDINATE_TYPE>
2
5
10

$$$$
