5321980
  -OEChem-09032021173D

 32 34  0     0  0  0  0  0  0999 V2000
    3.9434   -0.3154   -0.0001 O   0  0  0  0  0  0  0  0  0  0  0  0
    0.3981   -2.5065    0.0005 O   0  0  0  0  0  0  0  0  0  0  0  0
   -2.1565   -2.5909    0.0003 O   0  0  0  0  0  0  0  0  0  0  0  0
   -4.5970    1.4577   -0.0007 O   0  0  0  0  0  0  0  0  0  0  0  0
    2.9263   -2.3211    0.0001 O   0  0  0  0  0  0  0  0  0  0  0  0
   -0.9132   -0.4958    0.0000 C   0  0  0  0  0  0  0  0  0  0  0  0
   -0.9637    0.9171    0.0005 C   0  0  0  0  0  0  0  0  0  0  0  0
    1.4758    0.9982   -0.0001 C   0  0  0  0  0  0  0  0  0  0  0  0
    1.5210   -0.3959   -0.0004 C   0  0  0  0  0  0  0  0  0  0  0  0
    0.3349   -1.1403   -0.0003 C   0  0  0  0  0  0  0  0  0  0  0  0
    0.2359    1.6489    0.0004 C   0  0  0  0  0  0  0  0  0  0  0  0
   -2.1135   -1.2255   -0.0001 C   0  0  0  0  0  0  0  0  0  0  0  0
   -2.2128    1.5595    0.0009 C   0  0  0  0  0  0  0  0  0  0  0  0
    2.7151    1.7596   -0.0006 C   0  0  0  0  0  0  0  0  0  0  0  0
   -3.3952    0.8190    0.0007 C   0  0  0  0  0  0  0  0  0  0  0  0
    2.8248   -1.1015   -0.0006 C   0  0  0  0  0  0  0  0  0  0  0  0
   -3.3456   -0.5713    0.0002 C   0  0  0  0  0  0  0  0  0  0  0  0
    3.8771    1.0967   -0.0009 C   0  0  0  0  0  0  0  0  0  0  0  0
    5.2117    1.7667    0.0010 C   0  0  0  0  0  0  0  0  0  0  0  0
   -5.7666    0.6407   -0.0009 C   0  0  0  0  0  0  0  0  0  0  0  0
    0.2005    2.7378    0.0007 H   0  0  0  0  0  0  0  0  0  0  0  0
   -2.2692    2.6467    0.0010 H   0  0  0  0  0  0  0  0  0  0  0  0
    2.6729    2.8429   -0.0002 H   0  0  0  0  0  0  0  0  0  0  0  0
   -4.2306   -1.1995    0.0000 H   0  0  0  0  0  0  0  0  0  0  0  0
    5.7819    1.4751   -0.8867 H   0  0  0  0  0  0  0  0  0  0  0  0
    5.7806    1.4732    0.8889 H   0  0  0  0  0  0  0  0  0  0  0  0
    5.1242    2.8580    0.0020 H   0  0  0  0  0  0  0  0  0  0  0  0
    1.2639   -2.8139   -0.3072 H   0  0  0  0  0  0  0  0  0  0  0  0
   -1.2648   -2.9676    0.0017 H   0  0  0  0  0  0  0  0  0  0  0  0
   -5.8340    0.0343   -0.9105 H   0  0  0  0  0  0  0  0  0  0  0  0
   -6.6304    1.3135   -0.0014 H   0  0  0  0  0  0  0  0  0  0  0  0
   -5.8348    0.0347    0.9090 H   0  0  0  0  0  0  0  0  0  0  0  0
  1 16  1  0  0  0  0
  1 18  1  0  0  0  0
  2 10  1  0  0  0  0
  2 28  1  0  0  0  0
  3 12  1  0  0  0  0
  3 29  1  0  0  0  0
  4 15  1  0  0  0  0
  4 20  1  0  0  0  0
  5 16  2  0  0  0  0
  6  7  1  0  0  0  0
  6 10  1  0  0  0  0
  6 12  2  0  0  0  0
  7 11  1  0  0  0  0
  7 13  2  0  0  0  0
  8  9  1  0  0  0  0
  8 11  2  0  0  0  0
  8 14  1  0  0  0  0
  9 10  2  0  0  0  0
  9 16  1  0  0  0  0
 11 21  1  0  0  0  0
 12 17  1  0  0  0  0
 13 15  1  0  0  0  0
 13 22  1  0  0  0  0
 14 18  2  0  0  0  0
 14 23  1  0  0  0  0
 15 17  2  0  0  0  0
 17 24  1  0  0  0  0
 18 19  1  0  0  0  0
 19 25  1  0  0  0  0
 19 26  1  0  0  0  0
 19 27  1  0  0  0  0
 20 30  1  0  0  0  0
 20 31  1  0  0  0  0
 20 32  1  0  0  0  0
M  END
> <PUBCHEM_COMPOUND_CID>
5321980

> <PUBCHEM_CONFORMER_RMSD>
0.6

> <PUBCHEM_CONFORMER_DIVERSEORDER>
1

> <PUBCHEM_MMFF94_PARTIAL_CHARGES>
24
1 -0.23
10 0.08
11 -0.15
12 0.08
13 -0.15
14 -0.18
15 0.08
16 0.63
17 -0.15
18 -0.06
19 0.14
2 -0.53
20 0.28
21 0.15
22 0.15
23 0.15
24 0.15
28 0.45
29 0.45
3 -0.53
4 -0.36
5 -0.57
8 0.03
9 0.09

> <PUBCHEM_EFFECTIVE_ROTOR_COUNT>
1

> <PUBCHEM_PHARMACOPHORE_FEATURES>
7
1 2 donor
1 3 donor
1 4 acceptor
1 5 acceptor
6 1 8 9 14 16 18 rings
6 6 7 12 13 15 17 rings
6 6 7 8 9 10 11 rings

> <PUBCHEM_HEAVY_ATOM_COUNT>
20

> <PUBCHEM_ATOM_DEF_STEREO_COUNT>
0

> <PUBCHEM_ATOM_UDEF_STEREO_COUNT>
0

> <PUBCHEM_BOND_DEF_STEREO_COUNT>
0

> <PUBCHEM_BOND_UDEF_STEREO_COUNT>
0

> <PUBCHEM_ISOTOPIC_ATOM_COUNT>
0

> <PUBCHEM_COMPONENT_COUNT>
1

> <PUBCHEM_CACTVS_TAUTO_COUNT>
24

> <PUBCHEM_CONFORMER_ID>
005134FC00000001

> <PUBCHEM_MMFF94_ENERGY>
77.6495

> <PUBCHEM_FEATURE_SELFOVERLAP>
35.587

> <PUBCHEM_SHAPE_FINGERPRINT>
10411042 1 17474107592772486279
10493431 412 18410577301335903529
10608611 8 18410290315557488372
10616163 171 18339363092513823014
10967382 1 18410573950844460294
11132069 177 18409164432851594528
11471102 20 18410853226866682133
12236239 1 17846216635978703137
12403259 415 18115025187187327013
12403814 3 17749384875881910325
12788726 201 17489034755761835977
13140716 1 18408881828319746722
138480 1 17689997838751677635
14790565 3 18339931394276563721
15196674 1 18410856572540645635
15442244 35 18267585693799953066
15536298 74 18342176648601436804
16945 1 18266740173268064614
19591789 44 18193276295505718413
200 152 17988921184969402637
20645477 56 18335137618089411021
20645477 70 18341894035052438455
21267235 1 18339369552049664558
21421861 104 17896025569273370514
21501502 16 18411132558596754726
2334 1 18410856607058652546
23366157 5 18113620054582591930
23402539 116 18270956950890461916
23402655 69 18343581858489358564
23463225 33 18408885114053760060
23558518 356 17682399496038121113
23559900 14 18342739616146216396
25147074 1 18338781395033565718
2748010 2 18410579504337589310
296302 2 18413390938505922877
335352 9 18410856543156356982
33824 294 18408322155568439554
34934 24 18411133658176746390
350125 39 18265617572070600932
3545911 37 18410576197123269404
474 4 17967537912670495196
495365 180 17489293218387708992
5104073 3 18409167709827122787
59755656 215 18411142416169016228
69090 78 18411134723687292965
7364860 26 18341332185048514046
8272917 22 18342461391600022958
9709674 26 18411986879221460950

> <PUBCHEM_SHAPE_MULTIPOLES>
382.24
9.48
2.46
0.59
2.53
1.16
0
-4.24
0
-0.64
0
0
-0.03
0

> <PUBCHEM_SHAPE_SELFOVERLAP>
856.071

> <PUBCHEM_SHAPE_VOLUME>
202.2

> <PUBCHEM_COORDINATE_TYPE>
2
5
10

$$$$
