58552693
  -OEChem-09032022213D

 36 36  0     1  0  0  0  0  0999 V2000
   -1.3392    0.5255    0.1941 C   0  0  1  0  0  0  0  0  0  0  0  0
    0.9301   -0.6351    0.1927 C   0  0  1  0  0  0  0  0  0  0  0  0
   -2.0125   -0.7974   -0.2450 C   0  0  1  0  0  0  0  0  0  0  0  0
    0.1229    0.5780   -0.2850 C   0  0  0  0  0  0  0  0  0  0  0  0
    0.2580   -1.9380   -0.2487 C   0  0  0  0  0  0  0  0  0  0  0  0
   -1.1900   -2.0081    0.2265 C   0  0  0  0  0  0  0  0  0  0  0  0
    2.3655   -0.5666   -0.3259 C   0  0  0  0  0  0  0  0  0  0  0  0
   -2.0844    1.7614   -0.3183 C   0  0  0  0  0  0  0  0  0  0  0  0
   -3.4473   -0.9271    0.2745 C   0  0  0  0  0  0  0  0  0  0  0  0
    3.1841    0.4599    0.4491 C   0  0  0  0  0  0  0  0  0  0  0  0
   -1.4067    3.0380    0.1355 C   0  0  0  0  0  0  0  0  0  0  0  0
    4.6195    0.5096   -0.0496 C   0  0  0  0  0  0  0  0  0  0  0  0
   -1.3364    0.5578    1.2931 H   0  0  0  0  0  0  0  0  0  0  0  0
    0.9490   -0.6303    1.2914 H   0  0  0  0  0  0  0  0  0  0  0  0
   -2.0524   -0.8231   -1.3427 H   0  0  0  0  0  0  0  0  0  0  0  0
    0.6070    1.4790    0.0997 H   0  0  0  0  0  0  0  0  0  0  0  0
    0.1509    0.6386   -1.3810 H   0  0  0  0  0  0  0  0  0  0  0  0
    0.8077   -2.7988    0.1504 H   0  0  0  0  0  0  0  0  0  0  0  0
    0.2856   -2.0224   -1.3427 H   0  0  0  0  0  0  0  0  0  0  0  0
   -1.6424   -2.9347   -0.1473 H   0  0  0  0  0  0  0  0  0  0  0  0
   -1.2086   -2.0669    1.3224 H   0  0  0  0  0  0  0  0  0  0  0  0
    2.8445   -1.5473   -0.2096 H   0  0  0  0  0  0  0  0  0  0  0  0
    2.3791   -0.3361   -1.3983 H   0  0  0  0  0  0  0  0  0  0  0  0
   -2.1590    1.7495   -1.4119 H   0  0  0  0  0  0  0  0  0  0  0  0
   -3.1068    1.7707    0.0740 H   0  0  0  0  0  0  0  0  0  0  0  0
   -3.4888   -0.8033    1.3618 H   0  0  0  0  0  0  0  0  0  0  0  0
   -3.8605   -1.9122    0.0313 H   0  0  0  0  0  0  0  0  0  0  0  0
   -4.1079   -0.1842   -0.1819 H   0  0  0  0  0  0  0  0  0  0  0  0
    2.7547    1.4616    0.3497 H   0  0  0  0  0  0  0  0  0  0  0  0
    3.1863    0.2116    1.5169 H   0  0  0  0  0  0  0  0  0  0  0  0
   -1.1726    3.0177    1.2047 H   0  0  0  0  0  0  0  0  0  0  0  0
   -2.0736    3.8895   -0.0396 H   0  0  0  0  0  0  0  0  0  0  0  0
   -0.4910    3.2426   -0.4271 H   0  0  0  0  0  0  0  0  0  0  0  0
    4.6582    0.7894   -1.1073 H   0  0  0  0  0  0  0  0  0  0  0  0
    5.1927    1.2492    0.5182 H   0  0  0  0  0  0  0  0  0  0  0  0
    5.1102   -0.4620    0.0675 H   0  0  0  0  0  0  0  0  0  0  0  0
  1  3  1  0  0  0  0
  1  4  1  0  0  0  0
  1  8  1  0  0  0  0
  1 13  1  0  0  0  0
  2  4  1  0  0  0  0
  2  5  1  0  0  0  0
  2  7  1  0  0  0  0
  2 14  1  0  0  0  0
  3  6  1  0  0  0  0
  3  9  1  0  0  0  0
  3 15  1  0  0  0  0
  4 16  1  0  0  0  0
  4 17  1  0  0  0  0
  5  6  1  0  0  0  0
  5 18  1  0  0  0  0
  5 19  1  0  0  0  0
  6 20  1  0  0  0  0
  6 21  1  0  0  0  0
  7 10  1  0  0  0  0
  7 22  1  0  0  0  0
  7 23  1  0  0  0  0
  8 11  1  0  0  0  0
  8 24  1  0  0  0  0
  8 25  1  0  0  0  0
  9 26  1  0  0  0  0
  9 27  1  0  0  0  0
  9 28  1  0  0  0  0
 10 12  1  0  0  0  0
 10 29  1  0  0  0  0
 10 30  1  0  0  0  0
 11 31  1  0  0  0  0
 11 32  1  0  0  0  0
 11 33  1  0  0  0  0
 12 34  1  0  0  0  0
 12 35  1  0  0  0  0
 12 36  1  0  0  0  0
M  END
> <PUBCHEM_COMPOUND_CID>
58552693

> <PUBCHEM_CONFORMER_RMSD>
0.6

> <PUBCHEM_CONFORMER_DIVERSEORDER>
2
63
38
52
103
65
88
62
77
76
57
46
53
87
72
84
82
70
89
99
90
94
55
83
13
79
34
75
93
48
60
37
40
59
29
33
50
28
96
80
16
68
56
91
64
92
73
95
86
12
20
54
27
44
101
81
30
7
23
69
102
26
17
71
35
31
45
32
4
22
14
85
5
97
19
67
8
78
9
10
41
15
98
47
21
74
36
42
61
39
1
25
58
24
18
66
49
6
3
11
100
43
51

> <PUBCHEM_MMFF94_PARTIAL_CHARGES>
0

> <PUBCHEM_EFFECTIVE_ROTOR_COUNT>
4.2

> <PUBCHEM_PHARMACOPHORE_FEATURES>
3
1 11 hydrophobe
1 12 hydrophobe
6 1 2 3 4 5 6 rings

> <PUBCHEM_HEAVY_ATOM_COUNT>
12

> <PUBCHEM_ATOM_DEF_STEREO_COUNT>
0

> <PUBCHEM_ATOM_UDEF_STEREO_COUNT>
3

> <PUBCHEM_BOND_DEF_STEREO_COUNT>
0

> <PUBCHEM_BOND_UDEF_STEREO_COUNT>
0

> <PUBCHEM_ISOTOPIC_ATOM_COUNT>
0

> <PUBCHEM_COMPONENT_COUNT>
1

> <PUBCHEM_CACTVS_TAUTO_COUNT>
1

> <PUBCHEM_CONFORMER_ID>
037D717500000002

> <PUBCHEM_MMFF94_ENERGY>
13.9212

> <PUBCHEM_FEATURE_SELFOVERLAP>
15.223

> <PUBCHEM_SHAPE_FINGERPRINT>
10608611 8 18342454833823252168
11132069 177 18201435938746492722
13024252 1 11602811402577453431
13380535 21 18124887763016181589
13380535 76 18194674865642972455
13380536 55 18122332485330010943
13839132 238 18268995289076064558
14325111 11 18410572847481028854
14614273 12 18188203191905138037
14648413 74 17836368146634796015
15219456 202 18129949983644745574
15775835 57 18261956245826576456
16945 1 18408610283222963127
17846911 113 18410852191705756275
18186145 218 17987808397650241334
193761 8 18050286964508663271
20510252 161 18413672396134011552
20645477 56 18059008506010377728
20671657 1 17760933935144535470
20871998 184 18342741823147652511
21501502 16 18266171721472405034
21524375 3 18124022443107162324
22802520 49 17986122802953357422
2306618 200 18201726154092323586
23402539 116 18342449395983471975
23557571 272 18272101499861834388
23559900 14 17984424028331631382
23598294 1 18335691724404308224
2748010 2 18193846942056566519
305870 269 18189613831032492242
3071541 12 17619631285001468798
6333449 129 18411415090108987996
81228 2 18336561455350196113

> <PUBCHEM_SHAPE_MULTIPOLES>
246.95
5.91
2.57
0.69
6.66
1.41
0
0.77
0.3
-2.07
0.03
0.02
0
0.2

> <PUBCHEM_SHAPE_SELFOVERLAP>
469.152

> <PUBCHEM_SHAPE_VOLUME>
151.3

> <PUBCHEM_COORDINATE_TYPE>
2
5
10

$$$$
