5364471
  -OEChem-09032000013D

 41 40  0     0  0  0  0  0  0999 V2000
   -6.7863   -0.8836   -1.2711 O   0  0  0  0  0  0  0  0  0  0  0  0
   -1.8984    0.6770   -0.0674 C   0  0  0  0  0  0  0  0  0  0  0  0
   -0.6367    0.9056    0.7676 C   0  0  0  0  0  0  0  0  0  0  0  0
   -3.0613    0.0866    0.7352 C   0  0  0  0  0  0  0  0  0  0  0  0
    0.4953    1.4838   -0.0856 C   0  0  0  0  0  0  0  0  0  0  0  0
   -4.3150   -0.1660   -0.1044 C   0  0  0  0  0  0  0  0  0  0  0  0
    1.7674    1.6828    0.7409 C   0  0  0  0  0  0  0  0  0  0  0  0
   -5.4343   -0.7654    0.7423 C   0  0  0  0  0  0  0  0  0  0  0  0
    2.8860    2.2190   -0.1040 C   0  0  0  0  0  0  0  0  0  0  0  0
    3.7062   -0.0564   -0.7689 C   0  0  0  0  0  0  0  0  0  0  0  0
    4.9971   -0.6423   -0.1916 C   0  0  0  0  0  0  0  0  0  0  0  0
    3.7499    1.4446   -0.7767 C   0  0  0  0  0  0  0  0  0  0  0  0
    4.9785   -2.1698   -0.0973 C   0  0  0  0  0  0  0  0  0  0  0  0
   -6.6764   -1.0624   -0.0628 C   0  0  0  0  0  0  0  0  0  0  0  0
    6.2280   -2.7534    0.5437 C   0  0  0  0  0  0  0  0  0  0  0  0
   -2.2168    1.6286   -0.5109 H   0  0  0  0  0  0  0  0  0  0  0  0
   -1.6624    0.0031   -0.9005 H   0  0  0  0  0  0  0  0  0  0  0  0
   -0.8623    1.5892    1.5948 H   0  0  0  0  0  0  0  0  0  0  0  0
   -0.3159   -0.0451    1.2105 H   0  0  0  0  0  0  0  0  0  0  0  0
   -2.7365   -0.8571    1.1909 H   0  0  0  0  0  0  0  0  0  0  0  0
   -3.3085    0.7671    1.5595 H   0  0  0  0  0  0  0  0  0  0  0  0
    0.1781    2.4421   -0.5161 H   0  0  0  0  0  0  0  0  0  0  0  0
    0.6954    0.8070   -0.9257 H   0  0  0  0  0  0  0  0  0  0  0  0
   -4.6536    0.7744   -0.5562 H   0  0  0  0  0  0  0  0  0  0  0  0
   -4.0716   -0.8439   -0.9318 H   0  0  0  0  0  0  0  0  0  0  0  0
    1.5711    2.4102    1.5392 H   0  0  0  0  0  0  0  0  0  0  0  0
    2.0507    0.7612    1.2604 H   0  0  0  0  0  0  0  0  0  0  0  0
   -5.7179   -0.0746    1.5436 H   0  0  0  0  0  0  0  0  0  0  0  0
   -5.1084   -1.7054    1.2005 H   0  0  0  0  0  0  0  0  0  0  0  0
    2.9796    3.2988   -0.1826 H   0  0  0  0  0  0  0  0  0  0  0  0
    2.8468   -0.4665   -0.2329 H   0  0  0  0  0  0  0  0  0  0  0  0
    3.5960   -0.3941   -1.8072 H   0  0  0  0  0  0  0  0  0  0  0  0
    5.1633   -0.2301    0.8124 H   0  0  0  0  0  0  0  0  0  0  0  0
    5.8521   -0.3299   -0.8049 H   0  0  0  0  0  0  0  0  0  0  0  0
    4.5218    1.9209   -1.3757 H   0  0  0  0  0  0  0  0  0  0  0  0
    4.1054   -2.4876    0.4853 H   0  0  0  0  0  0  0  0  0  0  0  0
    4.8615   -2.5935   -1.1018 H   0  0  0  0  0  0  0  0  0  0  0  0
   -7.5189   -1.4749    0.5188 H   0  0  0  0  0  0  0  0  0  0  0  0
    6.3522   -2.3820    1.5658 H   0  0  0  0  0  0  0  0  0  0  0  0
    7.1213   -2.4863   -0.0297 H   0  0  0  0  0  0  0  0  0  0  0  0
    6.1612   -3.8451    0.5831 H   0  0  0  0  0  0  0  0  0  0  0  0
  1 14  2  0  0  0  0
  2  3  1  0  0  0  0
  2  4  1  0  0  0  0
  2 16  1  0  0  0  0
  2 17  1  0  0  0  0
  3  5  1  0  0  0  0
  3 18  1  0  0  0  0
  3 19  1  0  0  0  0
  4  6  1  0  0  0  0
  4 20  1  0  0  0  0
  4 21  1  0  0  0  0
  5  7  1  0  0  0  0
  5 22  1  0  0  0  0
  5 23  1  0  0  0  0
  6  8  1  0  0  0  0
  6 24  1  0  0  0  0
  6 25  1  0  0  0  0
  7  9  1  0  0  0  0
  7 26  1  0  0  0  0
  7 27  1  0  0  0  0
  8 14  1  0  0  0  0
  8 28  1  0  0  0  0
  8 29  1  0  0  0  0
  9 12  2  0  0  0  0
  9 30  1  0  0  0  0
 10 11  1  0  0  0  0
 10 12  1  0  0  0  0
 10 31  1  0  0  0  0
 10 32  1  0  0  0  0
 11 13  1  0  0  0  0
 11 33  1  0  0  0  0
 11 34  1  0  0  0  0
 12 35  1  0  0  0  0
 13 15  1  0  0  0  0
 13 36  1  0  0  0  0
 13 37  1  0  0  0  0
 14 38  1  0  0  0  0
 15 39  1  0  0  0  0
 15 40  1  0  0  0  0
 15 41  1  0  0  0  0
M  END
> <PUBCHEM_COMPOUND_CID>
5364471

> <PUBCHEM_CONFORMER_RMSD>
1.2

> <PUBCHEM_CONFORMER_DIVERSEORDER>
1
22
10
15
49
20
7
36
51
18
50
35
39
47
28
43
4
11
16
2
6
26
12
41
14
5
17
40
33
8
3
44
23
21
34
45
42
13
30
32
29
38
19
25
24
37
31
46
48
27
9

> <PUBCHEM_MMFF94_PARTIAL_CHARGES>
10
1 -0.57
10 0.14
12 -0.29
14 0.45
30 0.15
35 0.15
38 0.06
7 0.14
8 0.06
9 -0.29

> <PUBCHEM_EFFECTIVE_ROTOR_COUNT>
11

> <PUBCHEM_PHARMACOPHORE_FEATURES>
3
1 1 acceptor
1 15 hydrophobe
4 10 11 12 13 hydrophobe

> <PUBCHEM_HEAVY_ATOM_COUNT>
15

> <PUBCHEM_ATOM_DEF_STEREO_COUNT>
0

> <PUBCHEM_ATOM_UDEF_STEREO_COUNT>
0

> <PUBCHEM_BOND_DEF_STEREO_COUNT>
1

> <PUBCHEM_BOND_UDEF_STEREO_COUNT>
0

> <PUBCHEM_ISOTOPIC_ATOM_COUNT>
0

> <PUBCHEM_COMPONENT_COUNT>
1

> <PUBCHEM_CACTVS_TAUTO_COUNT>
2

> <PUBCHEM_CONFORMER_ID>
0051DAF700000001

> <PUBCHEM_MMFF94_ENERGY>
0.7173

> <PUBCHEM_FEATURE_SELFOVERLAP>
15.223

> <PUBCHEM_SHAPE_FINGERPRINT>
10730089 47 18413107286207646427
10753850 27 18335981987253280362
11858739 19 18335137613804739841
12670543 26 18113615690711066509
13073987 5 18343586243619884656
13533116 47 18342740745063524968
13955234 65 18198063775629895056
1420 369 18270687459442017586
14251740 57 17631181796960540886
14774955 27 9223226326174165096
17857418 61 18131634504193539311
20369508 70 17918278683729243584
20526848 3 8646480830392633690
20621476 21 17387149739640885603
20621476 38 18413109468130400919
20621476 91 15195278746971152117
20645477 70 18333453157806913064
21315764 119 17095244696291042023
21585483 132 18268410469356258095
21637258 2 18201716249924131713
22061861 79 18260545645538498695
22849339 104 15936987352238640739
23272321 79 9007054652441765273
270888 7 9222930570843015434
2916195 48 11527956638558526769
29717793 49 17894911853714382181
3014063 24 18343018853034022510
3014965 18 18409446994744908655
33532 11 18339364171447621043
3472631 163 10881693403129042442
34797466 226 16733274563700131173
465052 167 18342463646732114518
5283384 97 18411134714623247862
531348 171 18341890789175221805
5718773 13 18263360296843838330
57583515 39 18409168800938615290
59682541 52 18259987101794495533
6025842 7 18263370334240321028
6438161 24 18408878538274577627
76465 3 18337676313381625160

> <PUBCHEM_SHAPE_MULTIPOLES>
302.82
18.75
2.54
0.94
18.48
0.69
-0.05
16.17
-2.41
-5.36
0.23
0.43
0.01
-1.01

> <PUBCHEM_SHAPE_SELFOVERLAP>
549.865

> <PUBCHEM_SHAPE_VOLUME>
192.8

> <PUBCHEM_COORDINATE_TYPE>
2
5
10

$$$$
