545799
  -OEChem-09032022203D

 38 37  0     1  0  0  0  0  0999 V2000
    0.9598   -0.1134    0.5380 C   0  0  1  0  0  0  0  0  0  0  0  0
    2.3262    0.0934   -0.2291 C   0  0  0  0  0  0  0  0  0  0  0  0
   -0.2418   -0.3730   -0.4134 C   0  0  0  0  0  0  0  0  0  0  0  0
   -1.6557   -0.3700    0.2279 C   0  0  0  0  0  0  0  0  0  0  0  0
    1.0355   -1.2182    1.6063 C   0  0  0  0  0  0  0  0  0  0  0  0
    3.4967    0.4056    0.7221 C   0  0  0  0  0  0  0  0  0  0  0  0
    2.6885   -1.1695   -1.0429 C   0  0  0  0  0  0  0  0  0  0  0  0
    2.2052    1.2574   -1.2396 C   0  0  0  0  0  0  0  0  0  0  0  0
   -2.0010    0.9478    0.9546 C   0  0  0  0  0  0  0  0  0  0  0  0
   -2.6885   -0.7573   -0.8575 C   0  0  0  0  0  0  0  0  0  0  0  0
   -2.0116    2.1887    0.0727 C   0  0  0  0  0  0  0  0  0  0  0  0
   -4.1134   -0.8914   -0.3390 C   0  0  0  0  0  0  0  0  0  0  0  0
    0.7729    0.8282    1.0693 H   0  0  0  0  0  0  0  0  0  0  0  0
   -0.0987   -1.3493   -0.8937 H   0  0  0  0  0  0  0  0  0  0  0  0
   -0.2495    0.3621   -1.2229 H   0  0  0  0  0  0  0  0  0  0  0  0
   -1.6874   -1.1673    0.9812 H   0  0  0  0  0  0  0  0  0  0  0  0
    0.1345   -1.2242    2.2275 H   0  0  0  0  0  0  0  0  0  0  0  0
    1.1342   -2.2110    1.1571 H   0  0  0  0  0  0  0  0  0  0  0  0
    1.8720   -1.0651    2.2928 H   0  0  0  0  0  0  0  0  0  0  0  0
    3.2557    1.2543    1.3715 H   0  0  0  0  0  0  0  0  0  0  0  0
    4.4052    0.6624    0.1648 H   0  0  0  0  0  0  0  0  0  0  0  0
    3.7486   -0.4492    1.3572 H   0  0  0  0  0  0  0  0  0  0  0  0
    2.8106   -2.0462   -0.3991 H   0  0  0  0  0  0  0  0  0  0  0  0
    3.6384   -1.0283   -1.5729 H   0  0  0  0  0  0  0  0  0  0  0  0
    1.9354   -1.4051   -1.8011 H   0  0  0  0  0  0  0  0  0  0  0  0
    1.8230    2.1607   -0.7514 H   0  0  0  0  0  0  0  0  0  0  0  0
    1.5497    1.0182   -2.0824 H   0  0  0  0  0  0  0  0  0  0  0  0
    3.1822    1.5064   -1.6712 H   0  0  0  0  0  0  0  0  0  0  0  0
   -2.9801    0.8543    1.4385 H   0  0  0  0  0  0  0  0  0  0  0  0
   -1.2947    1.1088    1.7769 H   0  0  0  0  0  0  0  0  0  0  0  0
   -2.6716   -0.0335   -1.6807 H   0  0  0  0  0  0  0  0  0  0  0  0
   -2.3978   -1.7226   -1.2914 H   0  0  0  0  0  0  0  0  0  0  0  0
   -1.0291    2.3775   -0.3690 H   0  0  0  0  0  0  0  0  0  0  0  0
   -2.2766    3.0664    0.6714 H   0  0  0  0  0  0  0  0  0  0  0  0
   -2.7465    2.1053   -0.7328 H   0  0  0  0  0  0  0  0  0  0  0  0
   -4.7603   -1.2964   -1.1241 H   0  0  0  0  0  0  0  0  0  0  0  0
   -4.5269    0.0766   -0.0422 H   0  0  0  0  0  0  0  0  0  0  0  0
   -4.1583   -1.5692    0.5191 H   0  0  0  0  0  0  0  0  0  0  0  0
  1  2  1  0  0  0  0
  1  3  1  0  0  0  0
  1  5  1  0  0  0  0
  1 13  1  0  0  0  0
  2  6  1  0  0  0  0
  2  7  1  0  0  0  0
  2  8  1  0  0  0  0
  3  4  1  0  0  0  0
  3 14  1  0  0  0  0
  3 15  1  0  0  0  0
  4  9  1  0  0  0  0
  4 10  1  0  0  0  0
  4 16  1  0  0  0  0
  5 17  1  0  0  0  0
  5 18  1  0  0  0  0
  5 19  1  0  0  0  0
  6 20  1  0  0  0  0
  6 21  1  0  0  0  0
  6 22  1  0  0  0  0
  7 23  1  0  0  0  0
  7 24  1  0  0  0  0
  7 25  1  0  0  0  0
  8 26  1  0  0  0  0
  8 27  1  0  0  0  0
  8 28  1  0  0  0  0
  9 11  1  0  0  0  0
  9 29  1  0  0  0  0
  9 30  1  0  0  0  0
 10 12  1  0  0  0  0
 10 31  1  0  0  0  0
 10 32  1  0  0  0  0
 11 33  1  0  0  0  0
 11 34  1  0  0  0  0
 11 35  1  0  0  0  0
 12 36  1  0  0  0  0
 12 37  1  0  0  0  0
 12 38  1  0  0  0  0
M  END
> <PUBCHEM_COMPOUND_CID>
545799

> <PUBCHEM_CONFORMER_RMSD>
0.6

> <PUBCHEM_CONFORMER_DIVERSEORDER>
1
9
4
8
5
2
6
3
7

> <PUBCHEM_MMFF94_PARTIAL_CHARGES>
0

> <PUBCHEM_EFFECTIVE_ROTOR_COUNT>
5

> <PUBCHEM_PHARMACOPHORE_FEATURES>
5
1 11 hydrophobe
1 12 hydrophobe
1 5 hydrophobe
4 2 6 7 8 hydrophobe
6 1 2 3 4 9 10 hydrophobe

> <PUBCHEM_HEAVY_ATOM_COUNT>
12

> <PUBCHEM_ATOM_DEF_STEREO_COUNT>
0

> <PUBCHEM_ATOM_UDEF_STEREO_COUNT>
1

> <PUBCHEM_BOND_DEF_STEREO_COUNT>
0

> <PUBCHEM_BOND_UDEF_STEREO_COUNT>
0

> <PUBCHEM_ISOTOPIC_ATOM_COUNT>
0

> <PUBCHEM_COMPONENT_COUNT>
1

> <PUBCHEM_CACTVS_TAUTO_COUNT>
1

> <PUBCHEM_CONFORMER_ID>
0008540700000001

> <PUBCHEM_MMFF94_ENERGY>
26.5581

> <PUBCHEM_FEATURE_SELFOVERLAP>
25.402

> <PUBCHEM_SHAPE_FINGERPRINT>
10922523 26 18128266601024356022
12162725 195 18335143106867529444
12932764 1 17917445202137794078
13380536 127 18341317912613570891
15279308 10 18189051984611450361
15310529 11 17489868232640409950
15775835 57 18338520733347000489
16945 1 18340217400237218214
17844478 74 16559033809147561147
18186145 218 17821737160046408926
200 152 18040989670383135803
20201158 50 15267348452231285902
20281407 28 17418096559176591479
22485316 2 17132112468137369855
22802520 49 17273988934184650856
228727 97 18408042935555080361
230 275 18113622296106874328
23402539 116 18269540775518607806
23557571 272 17775290464816903520
23598291 2 17972875861023724939
3248919 1 18261119585991541722
5084963 1 18060423490811270159
58051976 100 18059021557746363303
7832392 63 18193562168376368676
8030462 33 18041000600710868371

> <PUBCHEM_SHAPE_MULTIPOLES>
246.95
6.18
1.61
1.29
1.85
0.73
-0.15
-0.6
0.91
0.6
0.04
-0.57
-0.18
-0.52

> <PUBCHEM_SHAPE_SELFOVERLAP>
448.613

> <PUBCHEM_SHAPE_VOLUME>
162.7

> <PUBCHEM_COORDINATE_TYPE>
2
5
10

$$$$
