503732
  -OEChem-09032001363D

 74 77  0     1  0  0  0  0  0999 V2000
    0.9847    1.7624    0.1638 O   0  0  0  0  0  0  0  0  0  0  0  0
   -2.4271    0.1075    1.1618 O   0  0  0  0  0  0  0  0  0  0  0  0
   -1.7451    2.1987    0.3836 O   0  0  0  0  0  0  0  0  0  0  0  0
   -0.0530    5.2683    0.3774 O   0  0  0  0  0  0  0  0  0  0  0  0
    2.7461    0.6992   -0.9367 O   0  0  0  0  0  0  0  0  0  0  0  0
    1.4698    5.1695   -2.0776 O   0  0  0  0  0  0  0  0  0  0  0  0
    3.6628    3.2145   -1.8533 O   0  0  0  0  0  0  0  0  0  0  0  0
   -4.4332    2.8152   -0.2502 O   0  0  0  0  0  0  0  0  0  0  0  0
   -6.0112    0.3939   -0.8228 O   0  0  0  0  0  0  0  0  0  0  0  0
   -5.6919   -1.5468    1.2956 O   0  0  0  0  0  0  0  0  0  0  0  0
   -1.8231   -1.8633    2.9805 O   0  0  0  0  0  0  0  0  0  0  0  0
    4.5991   -1.2082    2.9793 O   0  0  0  0  0  0  0  0  0  0  0  0
    1.0601   -0.6842   -2.3380 O   0  0  0  0  0  0  0  0  0  0  0  0
    0.0162   -3.4412   -3.8639 O   0  0  0  0  0  0  0  0  0  0  0  0
    0.4874    2.9525    0.7782 C   0  0  1  0  0  0  0  0  0  0  0  0
    0.3638    4.0660   -0.2644 C   0  0  2  0  0  0  0  0  0  0  0  0
    1.7016    4.3044   -0.9648 C   0  0  1  0  0  0  0  0  0  0  0  0
    2.3093    2.9914   -1.4587 C   0  0  2  0  0  0  0  0  0  0  0  0
   -3.9641    1.4723   -0.1313 C   0  0  2  0  0  0  0  0  0  0  0  0
   -5.1228    0.5649    0.2826 C   0  0  2  0  0  0  0  0  0  0  0  0
   -2.8408    1.4475    0.9052 C   0  0  1  0  0  0  0  0  0  0  0  0
   -4.6208   -0.8163    0.7038 C   0  0  1  0  0  0  0  0  0  0  0  0
   -3.4747   -0.6938    1.7108 C   0  0  1  0  0  0  0  0  0  0  0  0
    2.2998    1.9269   -0.3617 C   0  0  1  0  0  0  0  0  0  0  0  0
   -0.8608    2.6161    1.4078 C   0  0  0  0  0  0  0  0  0  0  0  0
   -2.8794   -2.0549    2.0572 C   0  0  0  0  0  0  0  0  0  0  0  0
    2.8089   -0.3815   -0.1004 C   0  0  0  0  0  0  0  0  0  0  0  0
    2.0720   -1.5571   -0.3189 C   0  0  0  0  0  0  0  0  0  0  0  0
    3.6544   -0.2661    1.0035 C   0  0  0  0  0  0  0  0  0  0  0  0
    2.1946   -2.6307    0.5949 C   0  0  0  0  0  0  0  0  0  0  0  0
    1.2166   -1.6905   -1.4246 C   0  0  0  0  0  0  0  0  0  0  0  0
    3.7747   -1.3220    1.9022 C   0  0  0  0  0  0  0  0  0  0  0  0
    3.0504   -2.4971    1.7003 C   0  0  0  0  0  0  0  0  0  0  0  0
    0.4921   -2.8657   -1.6265 C   0  0  0  0  0  0  0  0  0  0  0  0
    1.4579   -3.8062    0.3760 C   0  0  0  0  0  0  0  0  0  0  0  0
    0.6125   -3.9215   -0.7279 C   0  0  0  0  0  0  0  0  0  0  0  0
   -0.1512   -5.1922   -0.9178 C   0  0  0  0  0  0  0  0  0  0  0  0
   -0.3944   -2.9895   -2.7794 C   0  0  0  0  0  0  0  0  0  0  0  0
   -1.8514   -2.5624   -2.6715 C   0  0  0  0  0  0  0  0  0  0  0  0
    5.3102    0.0200    3.1257 C   0  0  0  0  0  0  0  0  0  0  0  0
    1.1666    3.2534    1.5870 H   0  0  0  0  0  0  0  0  0  0  0  0
   -0.3945    3.8191   -1.0169 H   0  0  0  0  0  0  0  0  0  0  0  0
    2.3984    4.8354   -0.3057 H   0  0  0  0  0  0  0  0  0  0  0  0
    1.7762    2.6312   -2.3465 H   0  0  0  0  0  0  0  0  0  0  0  0
   -3.5822    1.1821   -1.1173 H   0  0  0  0  0  0  0  0  0  0  0  0
   -5.7153    1.0257    1.0817 H   0  0  0  0  0  0  0  0  0  0  0  0
   -3.1824    1.9184    1.8381 H   0  0  0  0  0  0  0  0  0  0  0  0
   -4.2936   -1.3753   -0.1815 H   0  0  0  0  0  0  0  0  0  0  0  0
   -3.8179   -0.2267    2.6441 H   0  0  0  0  0  0  0  0  0  0  0  0
    2.9824    2.2347    0.4403 H   0  0  0  0  0  0  0  0  0  0  0  0
   -1.2873    3.4797    1.9291 H   0  0  0  0  0  0  0  0  0  0  0  0
   -0.7147    1.8050    2.1321 H   0  0  0  0  0  0  0  0  0  0  0  0
   -3.6244   -2.7173    2.5079 H   0  0  0  0  0  0  0  0  0  0  0  0
   -2.4596   -2.5346    1.1664 H   0  0  0  0  0  0  0  0  0  0  0  0
    0.6119    5.4963    1.0493 H   0  0  0  0  0  0  0  0  0  0  0  0
    0.8696    4.7160   -2.6937 H   0  0  0  0  0  0  0  0  0  0  0  0
    4.1543    3.5351   -1.0779 H   0  0  0  0  0  0  0  0  0  0  0  0
   -4.7763    3.0928    0.6164 H   0  0  0  0  0  0  0  0  0  0  0  0
   -5.5087    0.0008   -1.5566 H   0  0  0  0  0  0  0  0  0  0  0  0
   -5.9804   -1.0662    2.0902 H   0  0  0  0  0  0  0  0  0  0  0  0
   -1.4485   -2.7395    3.1741 H   0  0  0  0  0  0  0  0  0  0  0  0
    4.2292    0.6469    1.1047 H   0  0  0  0  0  0  0  0  0  0  0  0
    3.1559   -3.3133    2.4128 H   0  0  0  0  0  0  0  0  0  0  0  0
    1.5484   -4.6345    1.0770 H   0  0  0  0  0  0  0  0  0  0  0  0
    0.0934   -5.9339   -0.1494 H   0  0  0  0  0  0  0  0  0  0  0  0
    0.0852   -5.6437   -1.8869 H   0  0  0  0  0  0  0  0  0  0  0  0
   -1.2281   -5.0044   -0.8570 H   0  0  0  0  0  0  0  0  0  0  0  0
    0.4922   -0.9501   -3.0775 H   0  0  0  0  0  0  0  0  0  0  0  0
   -2.0487   -1.7702   -3.3981 H   0  0  0  0  0  0  0  0  0  0  0  0
   -2.0647   -2.1794   -1.6694 H   0  0  0  0  0  0  0  0  0  0  0  0
   -2.4945   -3.4250   -2.8627 H   0  0  0  0  0  0  0  0  0  0  0  0
    6.0115    0.1803    2.2997 H   0  0  0  0  0  0  0  0  0  0  0  0
    4.6293    0.8668    3.2652 H   0  0  0  0  0  0  0  0  0  0  0  0
    5.9083   -0.0608    4.0394 H   0  0  0  0  0  0  0  0  0  0  0  0
  1 15  1  0  0  0  0
  1 24  1  0  0  0  0
  2 21  1  0  0  0  0
  2 23  1  0  0  0  0
  3 21  1  0  0  0  0
  3 25  1  0  0  0  0
  4 16  1  0  0  0  0
  4 55  1  0  0  0  0
  5 24  1  0  0  0  0
  5 27  1  0  0  0  0
  6 17  1  0  0  0  0
  6 56  1  0  0  0  0
  7 18  1  0  0  0  0
  7 57  1  0  0  0  0
  8 19  1  0  0  0  0
  8 58  1  0  0  0  0
  9 20  1  0  0  0  0
  9 59  1  0  0  0  0
 10 22  1  0  0  0  0
 10 60  1  0  0  0  0
 11 26  1  0  0  0  0
 11 61  1  0  0  0  0
 12 32  1  0  0  0  0
 12 40  1  0  0  0  0
 13 31  1  0  0  0  0
 13 68  1  0  0  0  0
 14 38  2  0  0  0  0
 15 16  1  0  0  0  0
 15 25  1  0  0  0  0
 15 41  1  0  0  0  0
 16 17  1  0  0  0  0
 16 42  1  0  0  0  0
 17 18  1  0  0  0  0
 17 43  1  0  0  0  0
 18 24  1  0  0  0  0
 18 44  1  0  0  0  0
 19 20  1  0  0  0  0
 19 21  1  0  0  0  0
 19 45  1  0  0  0  0
 20 22  1  0  0  0  0
 20 46  1  0  0  0  0
 21 47  1  0  0  0  0
 22 23  1  0  0  0  0
 22 48  1  0  0  0  0
 23 26  1  0  0  0  0
 23 49  1  0  0  0  0
 24 50  1  0  0  0  0
 25 51  1  0  0  0  0
 25 52  1  0  0  0  0
 26 53  1  0  0  0  0
 26 54  1  0  0  0  0
 27 28  2  0  0  0  0
 27 29  1  0  0  0  0
 28 30  1  0  0  0  0
 28 31  1  0  0  0  0
 29 32  2  0  0  0  0
 29 62  1  0  0  0  0
 30 33  2  0  0  0  0
 30 35  1  0  0  0  0
 31 34  2  0  0  0  0
 32 33  1  0  0  0  0
 33 63  1  0  0  0  0
 34 36  1  0  0  0  0
 34 38  1  0  0  0  0
 35 36  2  0  0  0  0
 35 64  1  0  0  0  0
 36 37  1  0  0  0  0
 37 65  1  0  0  0  0
 37 66  1  0  0  0  0
 37 67  1  0  0  0  0
 38 39  1  0  0  0  0
 39 69  1  0  0  0  0
 39 70  1  0  0  0  0
 39 71  1  0  0  0  0
 40 72  1  0  0  0  0
 40 73  1  0  0  0  0
 40 74  1  0  0  0  0
M  END
> <PUBCHEM_COMPOUND_CID>
503732

> <PUBCHEM_CONFORMER_RMSD>
1.2

> <PUBCHEM_CONFORMER_DIVERSEORDER>
1
112
40
128
39
23
103
100
105
57
22
59
51
16
56
101
107
121
129
91
85
28
89
64
76
13
5
70
61
98
131
79
42
43
110
54
93
130
73
111
127
50
116
6
122
113
108
92
32
117
72
109
49
84
114
115
77
102
124
78
27
123
18
90
48
63
30
99
74
9
68
86
106
126
65
60
75
58
41
132
82
38
46
120
47
7
44
45
83
17
33
119
87
104
52
35
10
94
95
36
66
29
62
14
125
118
20
69
31
53
97
71
11
81
21
96
80
2
25
67
15
88
8
133
26
55
24
3
12
134
34
19
37
4

> <PUBCHEM_MMFF94_PARTIAL_CHARGES>
49
1 -0.56
10 -0.68
11 -0.68
12 -0.36
13 -0.53
14 -0.57
15 0.28
16 0.28
17 0.28
18 0.28
19 0.28
2 -0.56
20 0.28
21 0.56
22 0.28
23 0.28
24 0.56
25 0.28
26 0.28
27 0.08
29 -0.15
3 -0.56
31 0.08
32 0.08
33 -0.15
34 0.09
35 -0.15
36 -0.14
37 0.14
38 0.42
39 0.06
4 -0.68
40 0.28
5 -0.36
55 0.4
56 0.4
57 0.4
58 0.4
59 0.4
6 -0.68
60 0.4
61 0.4
62 0.15
63 0.15
64 0.15
68 0.45
7 -0.68
8 -0.68
9 -0.68

> <PUBCHEM_EFFECTIVE_ROTOR_COUNT>
10.4

> <PUBCHEM_PHARMACOPHORE_FEATURES>
25
1 1 acceptor
1 10 acceptor
1 10 donor
1 11 acceptor
1 11 donor
1 12 acceptor
1 13 donor
1 14 acceptor
1 2 acceptor
1 3 acceptor
1 4 acceptor
1 4 donor
1 5 acceptor
1 6 acceptor
1 6 donor
1 7 acceptor
1 7 donor
1 8 acceptor
1 8 donor
1 9 acceptor
1 9 donor
6 1 15 16 17 18 24 rings
6 2 19 20 21 22 23 rings
6 27 28 29 30 32 33 rings
6 28 30 31 34 35 36 rings

> <PUBCHEM_HEAVY_ATOM_COUNT>
40

> <PUBCHEM_ATOM_DEF_STEREO_COUNT>
10

> <PUBCHEM_ATOM_UDEF_STEREO_COUNT>
0

> <PUBCHEM_BOND_DEF_STEREO_COUNT>
0

> <PUBCHEM_BOND_UDEF_STEREO_COUNT>
0

> <PUBCHEM_ISOTOPIC_ATOM_COUNT>
0

> <PUBCHEM_COMPONENT_COUNT>
1

> <PUBCHEM_CACTVS_TAUTO_COUNT>
29

> <PUBCHEM_CONFORMER_ID>
0007AFB400000001

> <PUBCHEM_MMFF94_ENERGY>
144.7764

> <PUBCHEM_FEATURE_SELFOVERLAP>
127.048

> <PUBCHEM_SHAPE_FINGERPRINT>
10006869 2 17692250055457097031
10190206 1 16246318739244469188
12156800 1 15958707323897990007
140371 6 18193843639126976273
15297060 5 16986344774024845015
161222 10 16988843925531903535
17809404 112 18122906426331505139
17974551 9 17313390092332847650
19319366 153 17901393616430647736
1979834 28 18059581230998303779
20764821 26 18120397375019606219
21133410 62 17975406138692131999
21315764 371 17060612296424639339
21860390 5 18335144150354983523
23559900 14 18123762954273930599
23572383 38 18122049919679565865
255183 313 18056167277759809922
3493558 16 8133051428808189056
469060 322 18053626305607024614
474144 1 18337950207192328445
613672 6 18191580857371448345

> <PUBCHEM_SHAPE_MULTIPOLES>
741.01
8.95
7.41
3.07
8.99
4.02
0.43
0.24
-6.32
-2.47
4.62
-1.79
-2.25
-1.36

> <PUBCHEM_SHAPE_SELFOVERLAP>
1585.296

> <PUBCHEM_SHAPE_VOLUME>
407.2

> <PUBCHEM_COORDINATE_TYPE>
2
5
10

$$$$
