85211061
  -OEChem-09032021222D

 74 78  0     1  0  0  0  0  0999 V2000
    6.8671   -0.2738    0.0000 O   0  0  0  0  0  0  0  0  0  0  0  0
    4.2690   -2.7738    0.0000 O   0  0  0  0  0  0  0  0  0  0  0  0
    6.0010   -2.7738    0.0000 O   0  0  0  0  0  0  0  0  0  0  0  0
    7.7331   -2.7738    0.0000 O   0  0  0  0  0  0  0  0  0  0  0  0
    7.7331    1.2262    0.0000 O   0  0  0  0  0  0  0  0  0  0  0  0
    9.4651   -1.7738    0.0000 O   0  0  0  0  0  0  0  0  0  0  0  0
    9.4651    0.2262    0.0000 O   0  0  0  0  0  0  0  0  0  0  0  0
    6.0010   -4.7738    0.0000 O   0  0  0  0  0  0  0  0  0  0  0  0
    4.2690   -5.7738    0.0000 O   0  0  0  0  0  0  0  0  0  0  0  0
    2.5369   -4.7738    0.0000 O   0  0  0  0  0  0  0  0  0  0  0  0
    2.5369   -1.7738    0.0000 O   0  0  0  0  0  0  0  0  0  0  0  0
    8.6225    2.7128    0.0000 O   0  0  0  0  0  0  0  0  0  0  0  0
    4.1934    1.2535    0.0000 O   0  0  0  0  0  0  0  0  0  0  0  0
    6.8977    5.7676    0.0000 O   0  0  0  0  0  0  0  0  0  0  0  0
    8.6464    5.7820    0.0000 O   0  0  0  0  0  0  0  0  0  0  0  0
    6.8671   -1.2738    0.0000 C   0  0  3  0  0  0  0  0  0  0  0  0
    7.7331   -1.7738    0.0000 C   0  0  3  0  0  0  0  0  0  0  0  0
    8.5991   -1.2738    0.0000 C   0  0  3  0  0  0  0  0  0  0  0  0
    8.5991   -0.2738    0.0000 C   0  0  3  0  0  0  0  0  0  0  0  0
    5.1350   -4.2738    0.0000 C   0  0  3  0  0  0  0  0  0  0  0  0
    5.1350   -3.2738    0.0000 C   0  0  3  0  0  0  0  0  0  0  0  0
    4.2690   -4.7738    0.0000 C   0  0  3  0  0  0  0  0  0  0  0  0
    3.4030   -4.2738    0.0000 C   0  0  3  0  0  0  0  0  0  0  0  0
    3.4030   -3.2738    0.0000 C   0  0  3  0  0  0  0  0  0  0  0  0
    7.7331    0.2262    0.0000 C   0  0  3  0  0  0  0  0  0  0  0  0
    6.0010   -1.7738    0.0000 C   0  0  0  0  0  0  0  0  0  0  0  0
    2.5369   -2.7738    0.0000 C   0  0  0  0  0  0  0  0  0  0  0  0
    6.8671    1.7262    0.0000 C   0  0  0  0  0  0  0  0  0  0  0  0
    6.8630    2.7678    0.0000 C   0  0  0  0  0  0  0  0  0  0  0  0
    5.9630    1.2089    0.0000 C   0  0  0  0  0  0  0  0  0  0  0  0
    6.0029    3.2778    0.0000 C   0  0  0  0  0  0  0  0  0  0  0  0
    7.7348    3.2578    0.0000 C   0  0  0  0  0  0  0  0  0  0  0  0
    5.0670    1.7401    0.0000 C   0  0  0  0  0  0  0  0  0  0  0  0
    5.0871    2.7815    0.0000 C   0  0  0  0  0  0  0  0  0  0  0  0
    7.7464    4.2577    0.0000 C   0  0  0  0  0  0  0  0  0  0  0  0
    6.0144    4.2777    0.0000 C   0  0  0  0  0  0  0  0  0  0  0  0
    6.8862    4.7677    0.0000 C   0  0  0  0  0  0  0  0  0  0  0  0
    8.6464    4.7820    0.0000 C   0  0  0  0  0  0  0  0  0  0  0  0
    9.5344    3.2161    0.0000 C   0  0  0  0  0  0  0  0  0  0  0  0
    9.5465    4.2577    0.0000 C   0  0  0  0  0  0  0  0  0  0  0  0
   10.3927    2.7029    0.0000 C   0  0  0  0  0  0  0  0  0  0  0  0
    3.3351    1.7668    0.0000 C   0  0  0  0  0  0  0  0  0  0  0  0
    6.3301   -0.9638    0.0000 H   0  0  0  0  0  0  0  0  0  0  0  0
    8.2700   -2.0838    0.0000 H   0  0  0  0  0  0  0  0  0  0  0  0
    9.1360   -0.9638    0.0000 H   0  0  0  0  0  0  0  0  0  0  0  0
    8.5991    0.3462    0.0000 H   0  0  0  0  0  0  0  0  0  0  0  0
    5.1350   -4.8938    0.0000 H   0  0  0  0  0  0  0  0  0  0  0  0
    5.1350   -2.6538    0.0000 H   0  0  0  0  0  0  0  0  0  0  0  0
    3.7320   -5.0838    0.0000 H   0  0  0  0  0  0  0  0  0  0  0  0
    3.4030   -4.8938    0.0000 H   0  0  0  0  0  0  0  0  0  0  0  0
    3.4030   -2.6538    0.0000 H   0  0  0  0  0  0  0  0  0  0  0  0
    7.1962    0.5362    0.0000 H   0  0  0  0  0  0  0  0  0  0  0  0
    5.7890   -1.1912    0.0000 H   0  0  0  0  0  0  0  0  0  0  0  0
    5.3905   -1.8815    0.0000 H   0  0  0  0  0  0  0  0  0  0  0  0
    1.9264   -2.6661    0.0000 H   0  0  0  0  0  0  0  0  0  0  0  0
    2.3249   -3.3564    0.0000 H   0  0  0  0  0  0  0  0  0  0  0  0
    8.2700   -3.0838    0.0000 H   0  0  0  0  0  0  0  0  0  0  0  0
   10.0021   -1.4638    0.0000 H   0  0  0  0  0  0  0  0  0  0  0  0
   10.0021   -0.0838    0.0000 H   0  0  0  0  0  0  0  0  0  0  0  0
    6.5380   -4.4638    0.0000 H   0  0  0  0  0  0  0  0  0  0  0  0
    3.7320   -6.0838    0.0000 H   0  0  0  0  0  0  0  0  0  0  0  0
    2.0000   -4.4638    0.0000 H   0  0  0  0  0  0  0  0  0  0  0  0
    2.0000   -1.4638    0.0000 H   0  0  0  0  0  0  0  0  0  0  0  0
    5.9582    0.5889    0.0000 H   0  0  0  0  0  0  0  0  0  0  0  0
    4.5574    3.1038    0.0000 H   0  0  0  0  0  0  0  0  0  0  0  0
    5.4811    4.5939    0.0000 H   0  0  0  0  0  0  0  0  0  0  0  0
   10.0858    4.5636    0.0000 H   0  0  0  0  0  0  0  0  0  0  0  0
    6.3644    6.0838    0.0000 H   0  0  0  0  0  0  0  0  0  0  0  0
   10.0744    2.1708    0.0000 H   0  0  0  0  0  0  0  0  0  0  0  0
   10.9248    2.3846    0.0000 H   0  0  0  0  0  0  0  0  0  0  0  0
   10.7109    3.2349    0.0000 H   0  0  0  0  0  0  0  0  0  0  0  0
    3.6534    2.2989    0.0000 H   0  0  0  0  0  0  0  0  0  0  0  0
    2.8030    2.0850    0.0000 H   0  0  0  0  0  0  0  0  0  0  0  0
    3.0169    1.2347    0.0000 H   0  0  0  0  0  0  0  0  0  0  0  0
  1 16  1  0  0  0  0
  1 25  1  0  0  0  0
  2 21  1  0  0  0  0
  2 24  1  0  0  0  0
  3 21  1  0  0  0  0
  3 26  1  0  0  0  0
  4 17  1  0  0  0  0
  4 57  1  0  0  0  0
  5 25  1  0  0  0  0
  5 28  1  0  0  0  0
  6 18  1  0  0  0  0
  6 58  1  0  0  0  0
  7 19  1  0  0  0  0
  7 59  1  0  0  0  0
  8 20  1  0  0  0  0
  8 60  1  0  0  0  0
  9 22  1  0  0  0  0
  9 61  1  0  0  0  0
 10 23  1  0  0  0  0
 10 62  1  0  0  0  0
 11 27  1  0  0  0  0
 11 63  1  0  0  0  0
 12 32  1  0  0  0  0
 12 39  1  0  0  0  0
 13 33  1  0  0  0  0
 13 42  1  0  0  0  0
 14 37  1  0  0  0  0
 14 68  1  0  0  0  0
 15 38  2  0  0  0  0
 16 17  1  0  0  0  0
 16 26  1  0  0  0  0
 16 43  1  0  0  0  0
 17 18  1  0  0  0  0
 17 44  1  0  0  0  0
 18 19  1  0  0  0  0
 18 45  1  0  0  0  0
 19 25  1  0  0  0  0
 19 46  1  0  0  0  0
 20 21  1  0  0  0  0
 20 22  1  0  0  0  0
 20 47  1  0  0  0  0
 21 48  1  0  0  0  0
 22 23  1  0  0  0  0
 22 49  1  0  0  0  0
 23 24  1  0  0  0  0
 23 50  1  0  0  0  0
 24 27  1  0  0  0  0
 24 51  1  0  0  0  0
 25 52  1  0  0  0  0
 26 53  1  0  0  0  0
 26 54  1  0  0  0  0
 27 55  1  0  0  0  0
 27 56  1  0  0  0  0
 28 29  2  0  0  0  0
 28 30  1  0  0  0  0
 29 31  1  0  0  0  0
 29 32  1  0  0  0  0
 30 33  2  0  0  0  0
 30 64  1  0  0  0  0
 31 34  2  0  0  0  0
 31 36  1  0  0  0  0
 32 35  2  0  0  0  0
 33 34  1  0  0  0  0
 34 65  1  0  0  0  0
 35 37  1  0  0  0  0
 35 38  1  0  0  0  0
 36 37  2  0  0  0  0
 36 66  1  0  0  0  0
 38 40  1  0  0  0  0
 39 40  2  0  0  0  0
 39 41  1  0  0  0  0
 40 67  1  0  0  0  0
 41 69  1  0  0  0  0
 41 70  1  0  0  0  0
 41 71  1  0  0  0  0
 42 72  1  0  0  0  0
 42 73  1  0  0  0  0
 42 74  1  0  0  0  0
M  END
> <PUBCHEM_COMPOUND_CID>
85211061

> <PUBCHEM_COMPOUND_CANONICALIZED>
1

> <PUBCHEM_CACTVS_COMPLEXITY>
979

> <PUBCHEM_CACTVS_HBOND_ACCEPTOR>
15

> <PUBCHEM_CACTVS_HBOND_DONOR>
8

> <PUBCHEM_CACTVS_ROTATABLE_BOND>
7

> <PUBCHEM_CACTVS_SUBSKEYS>
AAADcfB4PAAAAAAAAAAAAAAAAAAAAAAAAAA0aIECAAAAAADBUAAAGgAACAAADBSwmAMyDsAABgCIAqBSAAACCAAkIAAAiAEGCMgdNzaGNRqieWCl4BUPuQfI7PzO4AADCAAYAADAAAYQADAAAAAAAAAAAA==

> <PUBCHEM_IUPAC_OPENEYE_NAME>
5-hydroxy-8-methoxy-2-methyl-10-[3,4,5-trihydroxy-6-[[3,4,5-trihydroxy-6-(hydroxymethyl)tetrahydropyran-2-yl]oxymethyl]tetrahydropyran-2-yl]oxy-benzo[h]chromen-4-one

> <PUBCHEM_IUPAC_CAS_NAME>
5-hydroxy-8-methoxy-2-methyl-10-[[3,4,5-trihydroxy-6-[[3,4,5-trihydroxy-6-(hydroxymethyl)-2-oxanyl]oxymethyl]-2-oxanyl]oxy]-4-benzo[h][1]benzopyranone

> <PUBCHEM_IUPAC_NAME_MARKUP>
5-hydroxy-8-methoxy-2-methyl-10-[3,4,5-trihydroxy-6-[[3,4,5-trihydroxy-6-(hydroxymethyl)oxan-2-yl]oxymethyl]oxan-2-yl]oxybenzo[h]chromen-4-one

> <PUBCHEM_IUPAC_NAME>
5-hydroxy-8-methoxy-2-methyl-10-[3,4,5-trihydroxy-6-[[3,4,5-trihydroxy-6-(hydroxymethyl)oxan-2-yl]oxymethyl]oxan-2-yl]oxybenzo[h]chromen-4-one

> <PUBCHEM_IUPAC_SYSTEMATIC_NAME>
10-[6-[[6-(hydroxymethyl)-3,4,5-tris(oxidanyl)oxan-2-yl]oxymethyl]-3,4,5-tris(oxidanyl)oxan-2-yl]oxy-8-methoxy-2-methyl-5-oxidanyl-benzo[h]chromen-4-one

> <PUBCHEM_IUPAC_TRADITIONAL_NAME>
5-hydroxy-8-methoxy-2-methyl-10-[3,4,5-trihydroxy-6-[(3,4,5-trihydroxy-6-methylol-tetrahydropyran-2-yl)oxymethyl]tetrahydropyran-2-yl]oxy-benzo[h]chromen-4-one

> <PUBCHEM_IUPAC_INCHI>
InChI=1S/C27H32O15/c1-9-3-12(29)18-13(30)5-10-4-11(37-2)6-14(17(10)25(18)39-9)40-27-24(36)22(34)20(32)16(42-27)8-38-26-23(35)21(33)19(31)15(7-28)41-26/h3-6,15-16,19-24,26-28,30-36H,7-8H2,1-2H3

> <PUBCHEM_IUPAC_INCHIKEY>
CREWSFDYWMXJQL-UHFFFAOYSA-N

> <PUBCHEM_XLOGP3_AA>
-1

> <PUBCHEM_EXACT_MASS>
596.17412

> <PUBCHEM_MOLECULAR_FORMULA>
C27H32O15

> <PUBCHEM_MOLECULAR_WEIGHT>
596.5

> <PUBCHEM_OPENEYE_CAN_SMILES>
CC1=CC(=O)C2=C(O1)C3=C(C=C(C=C3C=C2O)OC)OC4C(C(C(C(O4)COC5C(C(C(C(O5)CO)O)O)O)O)O)O

> <PUBCHEM_OPENEYE_ISO_SMILES>
CC1=CC(=O)C2=C(O1)C3=C(C=C(C=C3C=C2O)OC)OC4C(C(C(C(O4)COC5C(C(C(C(O5)CO)O)O)O)O)O)O

> <PUBCHEM_CACTVS_TPSA>
234

> <PUBCHEM_MONOISOTOPIC_WEIGHT>
596.17412

> <PUBCHEM_TOTAL_CHARGE>
0

> <PUBCHEM_HEAVY_ATOM_COUNT>
42

> <PUBCHEM_ATOM_DEF_STEREO_COUNT>
0

> <PUBCHEM_ATOM_UDEF_STEREO_COUNT>
10

> <PUBCHEM_BOND_DEF_STEREO_COUNT>
0

> <PUBCHEM_BOND_UDEF_STEREO_COUNT>
0

> <PUBCHEM_ISOTOPIC_ATOM_COUNT>
0

> <PUBCHEM_COMPONENT_COUNT>
1

> <PUBCHEM_CACTVS_TAUTO_COUNT>
-1

> <PUBCHEM_COORDINATE_TYPE>
1
5
255

> <PUBCHEM_BONDANNOTATIONS>
23  10  3
12  32  8
12  39  8
16  26  3
24  27  3
28  29  8
28  30  8
29  31  8
29  32  8
21  3  3
30  33  8
31  34  8
31  36  8
32  35  8
33  34  8
35  37  8
35  38  8
36  37  8
38  40  8
39  40  8
17  4  3
25  5  3
18  6  3
19  7  3
20  8  3
22  9  3

$$$$
