131753095
  -OEChem-09032021212D

 71 74  0     1  0  0  0  0  0999 V2000
    9.5918    2.4177    0.0000 O   0  0  0  0  0  0  0  0  0  0  0  0
    5.1350   -2.1734    0.0000 O   0  0  0  0  0  0  0  0  0  0  0  0
   10.3824    0.8207    0.0000 O   0  0  0  0  0  0  0  0  0  0  0  0
   11.8663    3.6516    0.0000 O   0  0  0  0  0  0  0  0  0  0  0  0
    6.8671   -2.1734    0.0000 O   0  0  0  0  0  0  0  0  0  0  0  0
   12.1571    2.0790    0.0000 O   0  0  0  0  0  0  0  0  0  0  0  0
    5.1350   -5.1734    0.0000 O   0  0  0  0  0  0  0  0  0  0  0  0
    3.4030   -4.1734    0.0000 O   0  0  0  0  0  0  0  0  0  0  0  0
    6.8671   -4.1734    0.0000 O   0  0  0  0  0  0  0  0  0  0  0  0
   10.0631    4.8635    0.0000 O   0  0  0  0  0  0  0  0  0  0  0  0
    2.5369   -2.6734    0.0000 O   0  0  0  0  0  0  0  0  0  0  0  0
    8.6158   -2.1591    0.0000 O   0  0  0  0  0  0  0  0  0  0  0  0
    5.1208    0.9057    0.0000 O   0  0  0  0  0  0  0  0  0  0  0  0
   10.3477   -2.1791    0.0000 O   0  0  0  0  0  0  0  0  0  0  0  0
   10.9117    3.3536    0.0000 C   0  0  3  0  0  0  0  0  0  0  0  0
   11.2097    2.3990    0.0000 C   0  0  3  0  0  0  0  0  0  0  0  0
    5.1350   -4.1734    0.0000 C   0  0  3  0  0  0  0  0  0  0  0  0
    4.2690   -3.6734    0.0000 C   0  0  3  0  0  0  0  0  0  0  0  0
    6.0010   -3.6734    0.0000 C   0  0  3  0  0  0  0  0  0  0  0  0
    4.2690   -2.6734    0.0000 C   0  0  3  0  0  0  0  0  0  0  0  0
   10.3939    1.8206    0.0000 C   0  0  3  0  0  0  0  0  0  0  0  0
    9.9118    3.3652    0.0000 C   0  0  0  0  0  0  0  0  0  0  0  0
    6.0010   -2.6734    0.0000 C   0  0  3  0  0  0  0  0  0  0  0  0
   10.9233    4.3535    0.0000 C   0  0  0  0  0  0  0  0  0  0  0  0
    3.4030   -2.1734    0.0000 C   0  0  0  0  0  0  0  0  0  0  0  0
    9.5106    0.3307    0.0000 C   0  0  0  0  0  0  0  0  0  0  0  0
    6.8671   -1.1735    0.0000 C   0  0  0  0  0  0  0  0  0  0  0  0
    7.7671   -0.6492    0.0000 C   0  0  0  0  0  0  0  0  0  0  0  0
    7.7787    0.3508    0.0000 C   0  0  0  0  0  0  0  0  0  0  0  0
    9.4991   -0.6692    0.0000 C   0  0  0  0  0  0  0  0  0  0  0  0
    8.6273   -1.1591    0.0000 C   0  0  0  0  0  0  0  0  0  0  0  0
    8.6504    0.8407    0.0000 C   0  0  0  0  0  0  0  0  0  0  0  0
    5.9670   -0.6492    0.0000 C   0  0  0  0  0  0  0  0  0  0  0  0
    6.8910    0.8957    0.0000 C   0  0  0  0  0  0  0  0  0  0  0  0
    5.9790    0.3924    0.0000 C   0  0  0  0  0  0  0  0  0  0  0  0
   10.3592   -1.1792    0.0000 C   0  0  0  0  0  0  0  0  0  0  0  0
   11.2310   -0.6892    0.0000 C   0  0  0  0  0  0  0  0  0  0  0  0
    9.4759   -2.6691    0.0000 C   0  0  0  0  0  0  0  0  0  0  0  0
    5.1363    1.9056    0.0000 C   0  0  0  0  0  0  0  0  0  0  0  0
   11.6531    2.8323    0.0000 H   0  0  0  0  0  0  0  0  0  0  0  0
    4.5981   -4.4835    0.0000 H   0  0  0  0  0  0  0  0  0  0  0  0
    4.2690   -4.2934    0.0000 H   0  0  0  0  0  0  0  0  0  0  0  0
    6.0010   -4.2934    0.0000 H   0  0  0  0  0  0  0  0  0  0  0  0
    4.2690   -2.0535    0.0000 H   0  0  0  0  0  0  0  0  0  0  0  0
   10.9431    1.5328    0.0000 H   0  0  0  0  0  0  0  0  0  0  0  0
    9.9837    3.9810    0.0000 H   0  0  0  0  0  0  0  0  0  0  0  0
    9.3069    3.5010    0.0000 H   0  0  0  0  0  0  0  0  0  0  0  0
    6.5380   -2.9834    0.0000 H   0  0  0  0  0  0  0  0  0  0  0  0
   11.5326    4.2388    0.0000 H   0  0  0  0  0  0  0  0  0  0  0  0
   11.1420    4.9336    0.0000 H   0  0  0  0  0  0  0  0  0  0  0  0
    3.8015   -1.6985    0.0000 H   0  0  0  0  0  0  0  0  0  0  0  0
    3.0044   -1.6985    0.0000 H   0  0  0  0  0  0  0  0  0  0  0  0
   12.0022    4.2565    0.0000 H   0  0  0  0  0  0  0  0  0  0  0  0
   12.6226    2.4885    0.0000 H   0  0  0  0  0  0  0  0  0  0  0  0
    4.5981   -5.4835    0.0000 H   0  0  0  0  0  0  0  0  0  0  0  0
    3.4030   -4.7934    0.0000 H   0  0  0  0  0  0  0  0  0  0  0  0
    6.8671   -4.7934    0.0000 H   0  0  0  0  0  0  0  0  0  0  0  0
    8.6576    1.4607    0.0000 H   0  0  0  0  0  0  0  0  0  0  0  0
   10.0702    5.4835    0.0000 H   0  0  0  0  0  0  0  0  0  0  0  0
    5.4277   -0.9550    0.0000 H   0  0  0  0  0  0  0  0  0  0  0  0
    6.9053    1.5156    0.0000 H   0  0  0  0  0  0  0  0  0  0  0  0
    2.0000   -2.3634    0.0000 H   0  0  0  0  0  0  0  0  0  0  0  0
   11.5348   -1.2297    0.0000 H   0  0  0  0  0  0  0  0  0  0  0  0
   11.7715   -0.3855    0.0000 H   0  0  0  0  0  0  0  0  0  0  0  0
   10.9272   -0.1487    0.0000 H   0  0  0  0  0  0  0  0  0  0  0  0
    9.1598   -3.2024    0.0000 H   0  0  0  0  0  0  0  0  0  0  0  0
   10.0093   -2.9852    0.0000 H   0  0  0  0  0  0  0  0  0  0  0  0
    9.7921   -2.1357    0.0000 H   0  0  0  0  0  0  0  0  0  0  0  0
    5.7562    1.8960    0.0000 H   0  0  0  0  0  0  0  0  0  0  0  0
    5.1458    2.5255    0.0000 H   0  0  0  0  0  0  0  0  0  0  0  0
    4.5163    1.9151    0.0000 H   0  0  0  0  0  0  0  0  0  0  0  0
  1 21  1  0  0  0  0
  1 22  1  0  0  0  0
  2 20  1  0  0  0  0
  2 23  1  0  0  0  0
  3 21  1  0  0  0  0
  3 26  1  0  0  0  0
  4 15  1  0  0  0  0
  4 53  1  0  0  0  0
  5 23  1  0  0  0  0
  5 27  1  0  0  0  0
  6 16  1  0  0  0  0
  6 54  1  0  0  0  0
  7 17  1  0  0  0  0
  7 55  1  0  0  0  0
  8 18  1  0  0  0  0
  8 56  1  0  0  0  0
  9 19  1  0  0  0  0
  9 57  1  0  0  0  0
 10 24  1  0  0  0  0
 10 59  1  0  0  0  0
 11 25  1  0  0  0  0
 11 62  1  0  0  0  0
 12 31  1  0  0  0  0
 12 38  1  0  0  0  0
 13 35  1  0  0  0  0
 13 39  1  0  0  0  0
 14 36  2  0  0  0  0
 15 16  1  0  0  0  0
 15 22  1  0  0  0  0
 15 24  1  0  0  0  0
 16 21  1  0  0  0  0
 16 40  1  0  0  0  0
 17 18  1  0  0  0  0
 17 19  1  0  0  0  0
 17 41  1  0  0  0  0
 18 20  1  0  0  0  0
 18 42  1  0  0  0  0
 19 23  1  0  0  0  0
 19 43  1  0  0  0  0
 20 25  1  0  0  0  0
 20 44  1  0  0  0  0
 21 45  1  0  0  0  0
 22 46  1  0  0  0  0
 22 47  1  0  0  0  0
 23 48  1  0  0  0  0
 24 49  1  0  0  0  0
 24 50  1  0  0  0  0
 25 51  1  0  0  0  0
 25 52  1  0  0  0  0
 26 30  1  0  0  0  0
 26 32  2  0  0  0  0
 27 28  2  0  0  0  0
 27 33  1  0  0  0  0
 28 29  1  0  0  0  0
 28 31  1  0  0  0  0
 29 32  1  0  0  0  0
 29 34  2  0  0  0  0
 30 31  2  0  0  0  0
 30 36  1  0  0  0  0
 32 58  1  0  0  0  0
 33 35  2  0  0  0  0
 33 60  1  0  0  0  0
 34 35  1  0  0  0  0
 34 61  1  0  0  0  0
 36 37  1  0  0  0  0
 37 63  1  0  0  0  0
 37 64  1  0  0  0  0
 37 65  1  0  0  0  0
 38 66  1  0  0  0  0
 38 67  1  0  0  0  0
 38 68  1  0  0  0  0
 39 69  1  0  0  0  0
 39 70  1  0  0  0  0
 39 71  1  0  0  0  0
M  END
> <PUBCHEM_COMPOUND_CID>
131753095

> <PUBCHEM_COMPOUND_CANONICALIZED>
1

> <PUBCHEM_CACTVS_COMPLEXITY>
831

> <PUBCHEM_CACTVS_HBOND_ACCEPTOR>
14

> <PUBCHEM_CACTVS_HBOND_DONOR>
7

> <PUBCHEM_CACTVS_ROTATABLE_BOND>
9

> <PUBCHEM_CACTVS_SUBSKEYS>
AAADcfB4PAAAAAAAAAAAAAAAAAAAASAAAAA0YIAAAAAAAADBUAAAGgAACAAADFSwmAMyDsAABgCIAqBSAAACCAAkIAAAiAEGCMgdNzaENRqieWCl4BUPqQfI7PzO4AADCAAYAADAAAYQADAAAAAAAAAAAA==

> <PUBCHEM_IUPAC_OPENEYE_NAME>
1-[3-[3,4-dihydroxy-4-(hydroxymethyl)tetrahydrofuran-2-yl]oxy-1,6-dimethoxy-8-[3,4,5-trihydroxy-6-(hydroxymethyl)tetrahydropyran-2-yl]oxy-2-naphthyl]ethanone

> <PUBCHEM_IUPAC_CAS_NAME>
1-[3-[[3,4-dihydroxy-4-(hydroxymethyl)-2-oxolanyl]oxy]-1,6-dimethoxy-8-[[3,4,5-trihydroxy-6-(hydroxymethyl)-2-oxanyl]oxy]-2-naphthalenyl]ethanone

> <PUBCHEM_IUPAC_NAME_MARKUP>
1-[3-[3,4-dihydroxy-4-(hydroxymethyl)oxolan-2-yl]oxy-1,6-dimethoxy-8-[3,4,5-trihydroxy-6-(hydroxymethyl)oxan-2-yl]oxynaphthalen-2-yl]ethanone

> <PUBCHEM_IUPAC_NAME>
1-[3-[3,4-dihydroxy-4-(hydroxymethyl)oxolan-2-yl]oxy-1,6-dimethoxy-8-[3,4,5-trihydroxy-6-(hydroxymethyl)oxan-2-yl]oxynaphthalen-2-yl]ethanone

> <PUBCHEM_IUPAC_SYSTEMATIC_NAME>
1-[3-[4-(hydroxymethyl)-3,4-bis(oxidanyl)oxolan-2-yl]oxy-8-[6-(hydroxymethyl)-3,4,5-tris(oxidanyl)oxan-2-yl]oxy-1,6-dimethoxy-naphthalen-2-yl]ethanone

> <PUBCHEM_IUPAC_TRADITIONAL_NAME>
1-[3-(3,4-dihydroxy-4-methylol-tetrahydrofuran-2-yl)oxy-1,6-dimethoxy-8-(3,4,5-trihydroxy-6-methylol-tetrahydropyran-2-yl)oxy-2-naphthyl]ethanone

> <PUBCHEM_IUPAC_INCHI>
InChI=1S/C25H32O14/c1-10(28)16-13(38-24-22(32)25(33,8-27)9-36-24)5-11-4-12(34-2)6-14(17(11)21(16)35-3)37-23-20(31)19(30)18(29)15(7-26)39-23/h4-6,15,18-20,22-24,26-27,29-33H,7-9H2,1-3H3

> <PUBCHEM_IUPAC_INCHIKEY>
PGDDDJBSORSPAG-UHFFFAOYSA-N

> <PUBCHEM_XLOGP3_AA>
-1.2

> <PUBCHEM_EXACT_MASS>
556.179206

> <PUBCHEM_MOLECULAR_FORMULA>
C25H32O14

> <PUBCHEM_MOLECULAR_WEIGHT>
556.5

> <PUBCHEM_OPENEYE_CAN_SMILES>
CC(=O)C1=C(C2=C(C=C(C=C2C=C1OC3C(C(CO3)(CO)O)O)OC)OC4C(C(C(C(O4)CO)O)O)O)OC

> <PUBCHEM_OPENEYE_ISO_SMILES>
CC(=O)C1=C(C2=C(C=C(C=C2C=C1OC3C(C(CO3)(CO)O)O)OC)OC4C(C(C(C(O4)CO)O)O)O)OC

> <PUBCHEM_CACTVS_TPSA>
214

> <PUBCHEM_MONOISOTOPIC_WEIGHT>
556.179206

> <PUBCHEM_TOTAL_CHARGE>
0

> <PUBCHEM_HEAVY_ATOM_COUNT>
39

> <PUBCHEM_ATOM_DEF_STEREO_COUNT>
0

> <PUBCHEM_ATOM_UDEF_STEREO_COUNT>
8

> <PUBCHEM_BOND_DEF_STEREO_COUNT>
0

> <PUBCHEM_BOND_UDEF_STEREO_COUNT>
0

> <PUBCHEM_ISOTOPIC_ATOM_COUNT>
0

> <PUBCHEM_COMPONENT_COUNT>
1

> <PUBCHEM_CACTVS_TAUTO_COUNT>
-1

> <PUBCHEM_COORDINATE_TYPE>
1
5
255

> <PUBCHEM_BONDANNOTATIONS>
20  25  3
26  30  8
26  32  8
27  28  8
27  33  8
28  29  8
28  31  8
29  32  8
29  34  8
21  3  3
30  31  8
33  35  8
34  35  8
15  4  3
23  5  3
16  6  3
17  7  3
18  8  3
19  9  3

$$$$
