637584
  -OEChem-08232003143D

 48 51  0     1  0  0  0  0  0999 V2000
    1.0106   -0.7010    1.7613 O   0  0  0  0  0  0  0  0  0  0  0  0
   -1.3322   -2.7294   -0.6941 O   0  0  0  0  0  0  0  0  0  0  0  0
    4.2163    2.6476   -0.0957 O   0  0  0  0  0  0  0  0  0  0  0  0
   -4.5238    2.4776   -0.6783 O   0  0  0  0  0  0  0  0  0  0  0  0
    6.5001    1.1937   -0.7254 O   0  0  0  0  0  0  0  0  0  0  0  0
   -6.4389    0.8771    0.5455 O   0  0  0  0  0  0  0  0  0  0  0  0
    0.8247   -1.7558   -0.3659 C   0  0  1  0  0  0  0  0  0  0  0  0
   -0.2264   -0.6824   -0.2613 C   0  0  1  0  0  0  0  0  0  0  0  0
    1.7544   -1.4912    0.8126 C   0  0  1  0  0  0  0  0  0  0  0  0
   -1.4309   -1.3150   -0.9438 C   0  0  2  0  0  0  0  0  0  0  0  0
   -0.3090   -0.4737    1.2451 C   0  0  0  0  0  0  0  0  0  0  0  0
   -0.0048   -3.0304   -0.2363 C   0  0  0  0  0  0  0  0  0  0  0  0
    3.0210   -0.7705    0.4026 C   0  0  0  0  0  0  0  0  0  0  0  0
   -2.7643   -0.7280   -0.5489 C   0  0  0  0  0  0  0  0  0  0  0  0
    3.0413    0.6226    0.3396 C   0  0  0  0  0  0  0  0  0  0  0  0
   -3.0390    0.6196   -0.7956 C   0  0  0  0  0  0  0  0  0  0  0  0
    4.1671   -1.5002    0.0869 C   0  0  0  0  0  0  0  0  0  0  0  0
   -3.7296   -1.5292    0.0662 C   0  0  0  0  0  0  0  0  0  0  0  0
    4.2082    1.2865   -0.0390 C   0  0  0  0  0  0  0  0  0  0  0  0
   -4.2708    1.1623   -0.4299 C   0  0  0  0  0  0  0  0  0  0  0  0
    5.3339   -0.8364   -0.2918 C   0  0  0  0  0  0  0  0  0  0  0  0
   -4.9614   -0.9866    0.4320 C   0  0  0  0  0  0  0  0  0  0  0  0
    5.3544    0.5570   -0.3547 C   0  0  0  0  0  0  0  0  0  0  0  0
   -5.2320    0.3591    0.1839 C   0  0  0  0  0  0  0  0  0  0  0  0
    3.0035    3.3176    0.2424 C   0  0  0  0  0  0  0  0  0  0  0  0
   -4.1724    3.4093    0.3427 C   0  0  0  0  0  0  0  0  0  0  0  0
    1.3275   -1.7507   -1.3402 H   0  0  0  0  0  0  0  0  0  0  0  0
    0.0848    0.2498   -0.7464 H   0  0  0  0  0  0  0  0  0  0  0  0
    2.0334   -2.4213    1.3223 H   0  0  0  0  0  0  0  0  0  0  0  0
   -1.3295   -1.2060   -2.0320 H   0  0  0  0  0  0  0  0  0  0  0  0
   -0.6263    0.5406    1.5049 H   0  0  0  0  0  0  0  0  0  0  0  0
   -0.9854   -1.1791    1.7398 H   0  0  0  0  0  0  0  0  0  0  0  0
    0.4065   -3.8438   -0.8418 H   0  0  0  0  0  0  0  0  0  0  0  0
   -0.0822   -3.3868    0.7966 H   0  0  0  0  0  0  0  0  0  0  0  0
    2.1266    1.1490    0.5839 H   0  0  0  0  0  0  0  0  0  0  0  0
   -2.2953    1.2499   -1.2774 H   0  0  0  0  0  0  0  0  0  0  0  0
    4.1624   -2.5860    0.1299 H   0  0  0  0  0  0  0  0  0  0  0  0
   -3.5495   -2.5795    0.2761 H   0  0  0  0  0  0  0  0  0  0  0  0
    6.2233   -1.4104   -0.5372 H   0  0  0  0  0  0  0  0  0  0  0  0
   -5.7012   -1.6231    0.9102 H   0  0  0  0  0  0  0  0  0  0  0  0
    6.3344    2.1525   -0.7145 H   0  0  0  0  0  0  0  0  0  0  0  0
   -6.9741    0.1764    0.9562 H   0  0  0  0  0  0  0  0  0  0  0  0
    2.7203    3.1399    1.2855 H   0  0  0  0  0  0  0  0  0  0  0  0
    2.1975    3.0726   -0.4578 H   0  0  0  0  0  0  0  0  0  0  0  0
    3.1917    4.3918    0.1444 H   0  0  0  0  0  0  0  0  0  0  0  0
   -4.7234    3.1975    1.2644 H   0  0  0  0  0  0  0  0  0  0  0  0
   -4.4395    4.4121   -0.0018 H   0  0  0  0  0  0  0  0  0  0  0  0
   -3.0950    3.3801    0.5338 H   0  0  0  0  0  0  0  0  0  0  0  0
  1  9  1  0  0  0  0
  1 11  1  0  0  0  0
  2 10  1  0  0  0  0
  2 12  1  0  0  0  0
  3 19  1  0  0  0  0
  3 25  1  0  0  0  0
  4 20  1  0  0  0  0
  4 26  1  0  0  0  0
  5 23  1  0  0  0  0
  5 41  1  0  0  0  0
  6 24  1  0  0  0  0
  6 42  1  0  0  0  0
  7  8  1  0  0  0  0
  7  9  1  0  0  0  0
  7 12  1  0  0  0  0
  7 27  1  0  0  0  0
  8 10  1  0  0  0  0
  8 11  1  0  0  0  0
  8 28  1  0  0  0  0
  9 13  1  0  0  0  0
  9 29  1  0  0  0  0
 10 14  1  0  0  0  0
 10 30  1  0  0  0  0
 11 31  1  0  0  0  0
 11 32  1  0  0  0  0
 12 33  1  0  0  0  0
 12 34  1  0  0  0  0
 13 15  2  0  0  0  0
 13 17  1  0  0  0  0
 14 16  2  0  0  0  0
 14 18  1  0  0  0  0
 15 19  1  0  0  0  0
 15 35  1  0  0  0  0
 16 20  1  0  0  0  0
 16 36  1  0  0  0  0
 17 21  2  0  0  0  0
 17 37  1  0  0  0  0
 18 22  2  0  0  0  0
 18 38  1  0  0  0  0
 19 23  2  0  0  0  0
 20 24  2  0  0  0  0
 21 23  1  0  0  0  0
 21 39  1  0  0  0  0
 22 24  1  0  0  0  0
 22 40  1  0  0  0  0
 25 43  1  0  0  0  0
 25 44  1  0  0  0  0
 25 45  1  0  0  0  0
 26 46  1  0  0  0  0
 26 47  1  0  0  0  0
 26 48  1  0  0  0  0
M  END
> <PUBCHEM_COMPOUND_CID>
637584

> <PUBCHEM_CONFORMER_RMSD>
0.8

> <PUBCHEM_CONFORMER_DIVERSEORDER>
1
12
36
39
21
7
16
13
38
8
19
28
33
29
18
27
23
30
34
26
37
5
22
17
9
35
6
10
32
4
25
24
11
31
3
20
14
2
15

> <PUBCHEM_MMFF94_PARTIAL_CHARGES>
32
1 -0.56
10 0.42
11 0.28
12 0.28
13 -0.14
14 -0.14
15 -0.15
16 -0.15
17 -0.15
18 -0.15
19 0.08
2 -0.56
20 0.08
21 -0.15
22 -0.15
23 0.08
24 0.08
25 0.28
26 0.28
3 -0.36
35 0.15
36 0.15
37 0.15
38 0.15
39 0.15
4 -0.36
40 0.15
41 0.45
42 0.45
5 -0.53
6 -0.53
9 0.42

> <PUBCHEM_EFFECTIVE_ROTOR_COUNT>
5.2

> <PUBCHEM_PHARMACOPHORE_FEATURES>
10
1 1 acceptor
1 2 acceptor
1 3 acceptor
1 4 acceptor
1 5 donor
1 6 donor
5 1 7 8 9 11 rings
5 2 7 8 10 12 rings
6 13 15 17 19 21 23 rings
6 14 16 18 20 22 24 rings

> <PUBCHEM_HEAVY_ATOM_COUNT>
26

> <PUBCHEM_ATOM_DEF_STEREO_COUNT>
4

> <PUBCHEM_ATOM_UDEF_STEREO_COUNT>
0

> <PUBCHEM_BOND_DEF_STEREO_COUNT>
0

> <PUBCHEM_BOND_UDEF_STEREO_COUNT>
0

> <PUBCHEM_ISOTOPIC_ATOM_COUNT>
0

> <PUBCHEM_COMPONENT_COUNT>
1

> <PUBCHEM_CACTVS_TAUTO_COUNT>
5

> <PUBCHEM_CONFORMER_ID>
0009BA9000000001

> <PUBCHEM_MMFF94_ENERGY>
100.1551

> <PUBCHEM_FEATURE_SELFOVERLAP>
51.176

> <PUBCHEM_SHAPE_FINGERPRINT>
10165383 225 18131074827443313931
10670039 82 18412539903363036348
11070050 100 16660355983369801024
11101153 10 18339919446140945149
11273773 38 18124595271739540217
11595378 159 16443331053526416901
11796584 16 11240000040432918359
12107183 9 17758668958545552395
12390115 104 18341341002563397879
12403259 118 18337936918679630731
12467345 10 18410856572583136060
12516196 113 7853573500136419175
12596602 18 17603585197680123771
12788726 201 17632587028312203784
12925494 130 18338511916565755161
13544653 18 10087639338027144022
13785724 45 17689994540676230770
14251751 18 9871453332078184373
14251764 38 18334866034005996101
14341114 176 18259990357801529883
14341114 328 17748822990874435651
14347329 18 18271519785032662977
1454969 45 18340763841223077655
14790565 3 18411139129838454981
14849402 71 17894907456548657208
15183329 4 18060146422935131470
1601671 61 18338794516232040312
17844677 252 18410298007849099347
17959699 21 18411136974297641946
18335252 114 18339917130309677324
19611394 137 18043825388766508499
20567600 70 8862644811775276989
21033648 29 18340760537548773112
21315764 268 18335415755850094317
21756936 100 18340479058098143030
22079108 93 17313104167653797699
23227448 37 18268428104163888462
23559900 14 17703224131232555066
245318 6 17751373982168162069
25122255 55 8718551648434321696
2838139 119 18410567401330797908
338550 245 18334016129045845324
339767 52 9007057950401752525
350125 39 18411139143208913349
38570 142 17024899145537683716
4144715 1 18261121720606489179
474 4 17676487302099175302
5104073 3 17968091980283278979
54446538 1 18409726253270678509
57724786 102 17911523095620219857
59755656 520 17240760722753429978
633830 44 18337099133779890486
7808743 9 18412258463178444259

> <PUBCHEM_SHAPE_MULTIPOLES>
499.85
14.31
3.38
0.96
0.13
2.08
0.18
8.08
-0.93
-0.44
-0.17
-0.08
-0.14
-0.27

> <PUBCHEM_SHAPE_SELFOVERLAP>
1093.827

> <PUBCHEM_SHAPE_VOLUME>
274.2

> <PUBCHEM_COORDINATE_TYPE>
2
5
10

$$$$
