14274761
  -OEChem-08232003043D

 51 52  0     1  0  0  0  0  0999 V2000
    0.0137    0.4177   -0.0363 O   0  0  0  0  0  0  0  0  0  0  0  0
    2.0012   -1.5867    2.3049 O   0  0  0  0  0  0  0  0  0  0  0  0
    0.3718    2.3657    1.8928 O   0  0  0  0  0  0  0  0  0  0  0  0
    6.1608    0.3424    0.4256 O   0  0  0  0  0  0  0  0  0  0  0  0
   -1.5462    2.6399   -0.6279 O   0  0  0  0  0  0  0  0  0  0  0  0
    6.0082   -0.1928   -2.2979 O   0  0  0  0  0  0  0  0  0  0  0  0
   -8.1457   -2.3545   -0.5171 O   0  0  0  0  0  0  0  0  0  0  0  0
    0.6112    0.0764    1.2165 C   0  0  1  0  0  0  0  0  0  0  0  0
    1.5468   -1.1322    1.0278 C   0  0  1  0  0  0  0  0  0  0  0  0
    2.7454   -0.8787    0.1386 C   0  0  0  0  0  0  0  0  0  0  0  0
    1.3160    1.3044    1.7867 C   0  0  0  0  0  0  0  0  0  0  0  0
    3.9085   -0.3807    0.6989 C   0  0  0  0  0  0  0  0  0  0  0  0
    2.6511   -1.1511   -1.2149 C   0  0  0  0  0  0  0  0  0  0  0  0
   -1.3470    0.3108   -0.1127 C   0  0  0  0  0  0  0  0  0  0  0  0
    5.0130   -0.1477   -0.1205 C   0  0  0  0  0  0  0  0  0  0  0  0
    3.7555   -0.9176   -2.0343 C   0  0  0  0  0  0  0  0  0  0  0  0
   -2.1256    1.4269   -0.4079 C   0  0  0  0  0  0  0  0  0  0  0  0
    4.9365   -0.4161   -1.4871 C   0  0  0  0  0  0  0  0  0  0  0  0
   -1.9466   -0.9262    0.1094 C   0  0  0  0  0  0  0  0  0  0  0  0
   -3.5131    1.3052   -0.4817 C   0  0  0  0  0  0  0  0  0  0  0  0
   -4.1176    0.0678   -0.2596 C   0  0  0  0  0  0  0  0  0  0  0  0
   -3.3343   -1.0480    0.0360 C   0  0  0  0  0  0  0  0  0  0  0  0
   -5.5643   -0.0592   -0.3360 C   0  0  0  0  0  0  0  0  0  0  0  0
    7.1130   -0.6098    0.8955 C   0  0  0  0  0  0  0  0  0  0  0  0
   -2.4170    3.7300   -0.9242 C   0  0  0  0  0  0  0  0  0  0  0  0
   -6.3025   -1.0531    0.2089 C   0  0  0  0  0  0  0  0  0  0  0  0
   -7.7926   -1.1328    0.1166 C   0  0  0  0  0  0  0  0  0  0  0  0
   -0.1637   -0.1942    1.9491 H   0  0  0  0  0  0  0  0  0  0  0  0
    0.9821   -1.9667    0.5945 H   0  0  0  0  0  0  0  0  0  0  0  0
    1.7390    1.1064    2.7760 H   0  0  0  0  0  0  0  0  0  0  0  0
    2.1000    1.6663    1.1163 H   0  0  0  0  0  0  0  0  0  0  0  0
    3.9826   -0.1604    1.7602 H   0  0  0  0  0  0  0  0  0  0  0  0
    1.7355   -1.5404   -1.6505 H   0  0  0  0  0  0  0  0  0  0  0  0
    1.2160   -1.8098    2.8333 H   0  0  0  0  0  0  0  0  0  0  0  0
    3.6820   -1.1308   -3.0974 H   0  0  0  0  0  0  0  0  0  0  0  0
   -1.3530   -1.8091    0.3258 H   0  0  0  0  0  0  0  0  0  0  0  0
   -4.1681    2.1410   -0.7061 H   0  0  0  0  0  0  0  0  0  0  0  0
    0.8451    3.1330    2.2572 H   0  0  0  0  0  0  0  0  0  0  0  0
   -3.7588   -2.0351    0.1939 H   0  0  0  0  0  0  0  0  0  0  0  0
   -6.0834    0.7309   -0.8750 H   0  0  0  0  0  0  0  0  0  0  0  0
    5.7719   -0.4362   -3.2094 H   0  0  0  0  0  0  0  0  0  0  0  0
    7.4530   -1.2517    0.0767 H   0  0  0  0  0  0  0  0  0  0  0  0
    6.6825   -1.2188    1.6967 H   0  0  0  0  0  0  0  0  0  0  0  0
    7.9737   -0.0656    1.2938 H   0  0  0  0  0  0  0  0  0  0  0  0
   -3.0858    3.9520   -0.0856 H   0  0  0  0  0  0  0  0  0  0  0  0
   -2.9600    3.5702   -1.8619 H   0  0  0  0  0  0  0  0  0  0  0  0
   -1.7872    4.6140   -1.0695 H   0  0  0  0  0  0  0  0  0  0  0  0
   -5.8351   -1.8489    0.7817 H   0  0  0  0  0  0  0  0  0  0  0  0
   -8.2274   -0.3045   -0.4516 H   0  0  0  0  0  0  0  0  0  0  0  0
   -8.2296   -1.1279    1.1195 H   0  0  0  0  0  0  0  0  0  0  0  0
   -7.7943   -2.3292   -1.4238 H   0  0  0  0  0  0  0  0  0  0  0  0
  1  8  1  0  0  0  0
  1 14  1  0  0  0  0
  2  9  1  0  0  0  0
  2 34  1  0  0  0  0
  3 11  1  0  0  0  0
  3 38  1  0  0  0  0
  4 15  1  0  0  0  0
  4 24  1  0  0  0  0
  5 17  1  0  0  0  0
  5 25  1  0  0  0  0
  6 18  1  0  0  0  0
  6 41  1  0  0  0  0
  7 27  1  0  0  0  0
  7 51  1  0  0  0  0
  8  9  1  0  0  0  0
  8 11  1  0  0  0  0
  8 28  1  0  0  0  0
  9 10  1  0  0  0  0
  9 29  1  0  0  0  0
 10 12  2  0  0  0  0
 10 13  1  0  0  0  0
 11 30  1  0  0  0  0
 11 31  1  0  0  0  0
 12 15  1  0  0  0  0
 12 32  1  0  0  0  0
 13 16  2  0  0  0  0
 13 33  1  0  0  0  0
 14 17  2  0  0  0  0
 14 19  1  0  0  0  0
 15 18  2  0  0  0  0
 16 18  1  0  0  0  0
 16 35  1  0  0  0  0
 17 20  1  0  0  0  0
 19 22  2  0  0  0  0
 19 36  1  0  0  0  0
 20 21  2  0  0  0  0
 20 37  1  0  0  0  0
 21 22  1  0  0  0  0
 21 23  1  0  0  0  0
 22 39  1  0  0  0  0
 23 26  2  0  0  0  0
 23 40  1  0  0  0  0
 24 42  1  0  0  0  0
 24 43  1  0  0  0  0
 24 44  1  0  0  0  0
 25 45  1  0  0  0  0
 25 46  1  0  0  0  0
 25 47  1  0  0  0  0
 26 27  1  0  0  0  0
 26 48  1  0  0  0  0
 27 49  1  0  0  0  0
 27 50  1  0  0  0  0
M  END
> <PUBCHEM_COMPOUND_CID>
14274761

> <PUBCHEM_CONFORMER_RMSD>
1

> <PUBCHEM_CONFORMER_DIVERSEORDER>
6
51
139
91
58
30
83
75
109
15
45
25
14
82
88
136
99
110
92
131
106
140
62
55
103
87
79
102
74
98
90
29
9
132
129
127
118
107
63
112
32
124
33
119
49
27
73
13
72
65
69
59
60
35
86
138
22
12
105
37
5
39
122
117
18
81
104
46
126
66
28
114
54
101
70
44
42
20
67
94
80
77
128
78
125
26
40
130
31
85
2
76
43
115
3
84
133
93
19
108
121
34
123
10
57
11
137
96
7
111
64
56
52
4
71
116
113
61
17
38
68
134
23
135
1
24
8
100
95
16
89
41
36
120
21
97
48
47
50
53

> <PUBCHEM_MMFF94_PARTIAL_CHARGES>
39
1 -0.36
10 -0.14
11 0.28
12 -0.15
13 -0.15
14 0.08
15 0.08
16 -0.15
17 0.08
18 0.08
19 -0.15
2 -0.68
20 -0.15
21 0.03
22 -0.15
23 -0.18
24 0.28
25 0.28
26 -0.29
27 0.42
3 -0.68
32 0.15
33 0.15
34 0.4
35 0.15
36 0.15
37 0.15
38 0.4
39 0.15
4 -0.36
40 0.15
41 0.45
48 0.15
5 -0.36
51 0.4
6 -0.53
7 -0.68
8 0.28
9 0.42

> <PUBCHEM_EFFECTIVE_ROTOR_COUNT>
9

> <PUBCHEM_PHARMACOPHORE_FEATURES>
12
1 1 acceptor
1 2 acceptor
1 2 donor
1 3 acceptor
1 3 donor
1 4 acceptor
1 5 acceptor
1 6 donor
1 7 acceptor
1 7 donor
6 10 12 13 15 16 18 rings
6 14 17 19 20 21 22 rings

> <PUBCHEM_HEAVY_ATOM_COUNT>
27

> <PUBCHEM_ATOM_DEF_STEREO_COUNT>
2

> <PUBCHEM_ATOM_UDEF_STEREO_COUNT>
0

> <PUBCHEM_BOND_DEF_STEREO_COUNT>
1

> <PUBCHEM_BOND_UDEF_STEREO_COUNT>
0

> <PUBCHEM_ISOTOPIC_ATOM_COUNT>
0

> <PUBCHEM_COMPONENT_COUNT>
1

> <PUBCHEM_CACTVS_TAUTO_COUNT>
3

> <PUBCHEM_CONFORMER_ID>
00D9D0C900000006

> <PUBCHEM_MMFF94_ENERGY>
101.1462

> <PUBCHEM_FEATURE_SELFOVERLAP>
60.91

> <PUBCHEM_SHAPE_FINGERPRINT>
10595046 47 18041278768926679946
12107183 9 11887673952943116223
12166972 35 16732702744839606564
12236239 1 17240482485701557327
12516196 113 17703793621587490651
12788726 201 18187079512844475753
13617811 41 17967529090992084413
13673619 4 18272933834506513793
13685833 64 17346884450772736759
14251764 18 14333411151259232403
14767858 380 17749108907132368087
15849732 13 14764630819785020225
1813 80 15482399698689723120
18222031 100 18335697274446091755
18608769 82 18060416954425596671
19319366 153 17458617922015624299
19377110 9 17749956548481477777
20157964 124 15357698591519813642
20554085 129 8069753949383868829
20567600 254 12396299261713386953
21033650 10 18045522828228736060
21150785 3 16081083810600810687
21267235 1 18335701667965481643
21344244 181 17274835640265339726
21403212 168 13334731367227649192
22907989 373 17752186320077971045
2297311 6 18341618101153225717
23557571 272 18341610378728408224
23559900 14 17632006555176992427
23622692 88 12319734756707431129
249057 25 17385727946462279148
345986 75 14332853608627965014
34797466 226 18130792282740074372
4325135 7 16877659067642494067
437815 12 18060424638216209699
46194498 28 18272650164691004844
474 4 16153718596096532372
5283156 175 17894346661830158827
5385378 56 10303551493594874781
54039377 194 15122963790303671956
58260988 393 18333730187191837740
7237137 82 17895188862726848341

> <PUBCHEM_SHAPE_MULTIPOLES>
514.56
18.24
2.34
1.68
11.86
2.4
-0.02
-10.38
3.63
3.52
0.17
-2.88
0.01
0.57

> <PUBCHEM_SHAPE_SELFOVERLAP>
1080.307

> <PUBCHEM_SHAPE_VOLUME>
291.3

> <PUBCHEM_COORDINATE_TYPE>
2
5
10

$$$$
