161953
  -OEChem-09082013583D

 49 53  0     1  0  0  0  0  0999 V2000
    1.2481    1.9906   -1.4182 O   0  0  0  0  0  0  0  0  0  0  0  0
    3.2298   -1.6808   -0.4215 O   0  0  0  0  0  0  0  0  0  0  0  0
    5.2696   -1.5075    0.6230 O   0  0  0  0  0  0  0  0  0  0  0  0
    0.2499    1.3839   -0.5689 C   0  0  1  0  0  0  0  0  0  0  0  0
   -1.3601   -0.5768   -0.1204 C   0  0  1  0  0  0  0  0  0  0  0  0
   -0.1572   -0.0313   -1.0140 C   0  0  2  0  0  0  0  0  0  0  0  0
   -2.5064    0.5056   -0.1348 C   0  0  1  0  0  0  0  0  0  0  0  0
    1.6842    1.6288   -0.1013 C   0  0  1  0  0  0  0  0  0  0  0  0
   -0.8419    2.3860   -0.3125 C   0  0  0  0  0  0  0  0  0  0  0  0
   -3.9265    0.0597    0.3767 C   0  0  0  0  0  0  0  0  0  0  0  0
   -2.0038    1.8205    0.4895 C   0  0  0  0  0  0  0  0  0  0  0  0
   -1.9108   -1.8924   -0.7369 C   0  0  0  0  0  0  0  0  0  0  0  0
   -4.3049   -1.3047   -0.2468 C   0  0  0  0  0  0  0  0  0  0  0  0
    1.0012   -1.0271   -1.0549 C   0  0  0  0  0  0  0  0  0  0  0  0
   -0.8235   -0.8855    1.3032 C   0  0  0  0  0  0  0  0  0  0  0  0
   -3.2198   -2.3620   -0.1122 C   0  0  0  0  0  0  0  0  0  0  0  0
    2.5735    0.4837    0.0581 C   0  0  0  0  0  0  0  0  0  0  0  0
    2.2006   -0.7648   -0.5190 C   0  0  0  0  0  0  0  0  0  0  0  0
   -4.9929    1.0792   -0.1098 C   0  0  0  0  0  0  0  0  0  0  0  0
   -4.0682   -0.0070    1.9100 C   0  0  0  0  0  0  0  0  0  0  0  0
    3.7909    0.3670    0.5761 C   0  0  0  0  0  0  0  0  0  0  0  0
    4.2009   -1.0191    0.2900 C   0  0  0  0  0  0  0  0  0  0  0  0
    4.6671    1.3537    1.2444 C   0  0  0  0  0  0  0  0  0  0  0  0
   -0.5188    0.0648   -2.0479 H   0  0  0  0  0  0  0  0  0  0  0  0
   -2.6675    0.7244   -1.2038 H   0  0  0  0  0  0  0  0  0  0  0  0
    1.8385    2.4355    0.6070 H   0  0  0  0  0  0  0  0  0  0  0  0
   -1.2210    2.7443   -1.2787 H   0  0  0  0  0  0  0  0  0  0  0  0
   -0.4440    3.2650    0.2091 H   0  0  0  0  0  0  0  0  0  0  0  0
   -1.6997    1.6717    1.5305 H   0  0  0  0  0  0  0  0  0  0  0  0
   -2.7931    2.5780    0.5073 H   0  0  0  0  0  0  0  0  0  0  0  0
   -1.1807   -2.7041   -0.6379 H   0  0  0  0  0  0  0  0  0  0  0  0
   -2.0711   -1.7512   -1.8142 H   0  0  0  0  0  0  0  0  0  0  0  0
   -4.5176   -1.1707   -1.3164 H   0  0  0  0  0  0  0  0  0  0  0  0
   -5.2326   -1.6836    0.2010 H   0  0  0  0  0  0  0  0  0  0  0  0
    0.8214   -2.0042   -1.4935 H   0  0  0  0  0  0  0  0  0  0  0  0
   -0.3214   -0.0258    1.7561 H   0  0  0  0  0  0  0  0  0  0  0  0
   -1.6014   -1.2072    1.9913 H   0  0  0  0  0  0  0  0  0  0  0  0
   -0.0949   -1.7041    1.2848 H   0  0  0  0  0  0  0  0  0  0  0  0
   -3.5487   -3.2759   -0.6214 H   0  0  0  0  0  0  0  0  0  0  0  0
   -3.0727   -2.6346    0.9377 H   0  0  0  0  0  0  0  0  0  0  0  0
   -4.9247    1.2438   -1.1910 H   0  0  0  0  0  0  0  0  0  0  0  0
   -6.0068    0.7182    0.1014 H   0  0  0  0  0  0  0  0  0  0  0  0
   -4.8904    2.0496    0.3858 H   0  0  0  0  0  0  0  0  0  0  0  0
   -3.7405    0.9193    2.3916 H   0  0  0  0  0  0  0  0  0  0  0  0
   -5.1178   -0.1561    2.1933 H   0  0  0  0  0  0  0  0  0  0  0  0
   -3.5220   -0.8367    2.3569 H   0  0  0  0  0  0  0  0  0  0  0  0
    4.2025    2.3431    1.2943 H   0  0  0  0  0  0  0  0  0  0  0  0
    5.6128    1.4557    0.7028 H   0  0  0  0  0  0  0  0  0  0  0  0
    4.8887    1.0349    2.2677 H   0  0  0  0  0  0  0  0  0  0  0  0
  1  4  1  0  0  0  0
  1  8  1  0  0  0  0
  2 18  1  0  0  0  0
  2 22  1  0  0  0  0
  3 22  2  0  0  0  0
  4  6  1  0  0  0  0
  4  8  1  0  0  0  0
  4  9  1  0  0  0  0
  5  6  1  0  0  0  0
  5  7  1  0  0  0  0
  5 12  1  0  0  0  0
  5 15  1  0  0  0  0
  6 14  1  0  0  0  0
  6 24  1  0  0  0  0
  7 10  1  0  0  0  0
  7 11  1  0  0  0  0
  7 25  1  0  0  0  0
  8 17  1  0  0  0  0
  8 26  1  0  0  0  0
  9 11  1  0  0  0  0
  9 27  1  0  0  0  0
  9 28  1  0  0  0  0
 10 13  1  0  0  0  0
 10 19  1  0  0  0  0
 10 20  1  0  0  0  0
 11 29  1  0  0  0  0
 11 30  1  0  0  0  0
 12 16  1  0  0  0  0
 12 31  1  0  0  0  0
 12 32  1  0  0  0  0
 13 16  1  0  0  0  0
 13 33  1  0  0  0  0
 13 34  1  0  0  0  0
 14 18  2  0  0  0  0
 14 35  1  0  0  0  0
 15 36  1  0  0  0  0
 15 37  1  0  0  0  0
 15 38  1  0  0  0  0
 16 39  1  0  0  0  0
 16 40  1  0  0  0  0
 17 18  1  0  0  0  0
 17 21  2  0  0  0  0
 19 41  1  0  0  0  0
 19 42  1  0  0  0  0
 19 43  1  0  0  0  0
 20 44  1  0  0  0  0
 20 45  1  0  0  0  0
 20 46  1  0  0  0  0
 21 22  1  0  0  0  0
 21 23  1  0  0  0  0
 23 47  1  0  0  0  0
 23 48  1  0  0  0  0
 23 49  1  0  0  0  0
M  END
> <PUBCHEM_COMPOUND_CID>
161953

> <PUBCHEM_CONFORMER_RMSD>
0.6

> <PUBCHEM_CONFORMER_DIVERSEORDER>
1

> <PUBCHEM_MMFF94_PARTIAL_CHARGES>
15
1 -0.3
14 -0.29
17 -0.04
18 0.08
2 -0.23
21 -0.12
22 0.71
23 0.14
26 0.1
3 -0.57
35 0.15
4 -0.04
6 0.23
8 0.09
9 0.09

> <PUBCHEM_EFFECTIVE_ROTOR_COUNT>
1.6

> <PUBCHEM_PHARMACOPHORE_FEATURES>
7
1 1 acceptor
1 3 acceptor
3 10 19 20 hydrophobe
5 2 17 18 21 22 rings
6 4 5 6 7 9 11 rings
6 5 7 10 12 13 16 rings
7 1 4 6 8 14 17 18 rings

> <PUBCHEM_HEAVY_ATOM_COUNT>
23

> <PUBCHEM_ATOM_DEF_STEREO_COUNT>
5

> <PUBCHEM_ATOM_UDEF_STEREO_COUNT>
0

> <PUBCHEM_BOND_DEF_STEREO_COUNT>
0

> <PUBCHEM_BOND_UDEF_STEREO_COUNT>
0

> <PUBCHEM_ISOTOPIC_ATOM_COUNT>
0

> <PUBCHEM_COMPONENT_COUNT>
1

> <PUBCHEM_CACTVS_TAUTO_COUNT>
1

> <PUBCHEM_CONFORMER_ID>
000278A100000001

> <PUBCHEM_MMFF94_ENERGY>
66.1188

> <PUBCHEM_FEATURE_SELFOVERLAP>
35.616

> <PUBCHEM_SHAPE_FINGERPRINT>
10062212 137 18340205293120231679
10366900 7 17346596378515094209
10863032 1 18201720699220100041
10906281 52 18114755944282717172
11045977 3 17989201560086241736
11132069 177 18412266142490064893
11370993 70 17988923353558823471
11796584 16 16515402967064158459
12011746 2 18340489967504576364
12251169 10 18341895181987885484
12403814 3 18131345311102569007
12553582 1 18335997444344674076
12633257 1 18060424590301650120
12714826 92 17095796646595335317
12788726 201 18263379022431743680
12892183 10 18059572533357109616
13140716 1 18339931510218938539
13224815 77 18272658977509669837
13544653 18 18261111897968459344
13583140 156 14548726318340011774
13675066 3 18260551138596091145
14115302 16 16950295013212142554
14341114 176 18413673500367796456
14790565 3 17833272291749374556
15196674 1 18411980282008769199
15209289 33 17967535674786786475
15375462 478 18343018925604939357
15788980 27 18260550026304920019
16945 1 18341909471534204341
17349148 13 18201437008599421079
17492 89 18191871338731697915
17804303 29 18342178851724675844
17980427 23 17489593389705536801
1813 80 17530682117433310940
19141452 34 18412262835486631255
200 152 18272644675864653863
20715895 44 18198343962321917401
20739085 24 18409450306433790932
21033648 29 18270665477356870257
21267235 1 18410019861799370119
21501502 16 18193284202756723501
21756936 100 16341996897485093488
22182313 1 18122913031832970749
23184049 59 18412829083531694391
23402539 116 18342449327537957511
23559900 14 18342738503338249638
2637199 183 9439136367631775980
296302 2 17704074014300975467
3009799 131 18262503850241566733
3323516 105 10809345546294772222
335352 9 18409448047180838061
34934 24 18409724045963430535
350125 39 18341610422136757160
4340502 62 14548740612460327189
4990 188 11025788787010391240
5104073 3 18343022215608138171
69090 78 18343299245620549543
7064713 232 18060425698498235667
9709674 26 18261959668514591275
9981440 41 17110439148318538897

> <PUBCHEM_SHAPE_MULTIPOLES>
455.72
9.65
2.33
1.19
2.91
0.13
0.28
-1.76
3.19
-0.26
-0.34
-0.17
0.1
-0.06

> <PUBCHEM_SHAPE_SELFOVERLAP>
999.238

> <PUBCHEM_SHAPE_VOLUME>
246.9

> <PUBCHEM_COORDINATE_TYPE>
2
5
10

$$$$
