6712606
  -OEChem-09082014043D

 50 54  0     1  0  0  0  0  0999 V2000
    0.9982    1.7777   -1.7500 O   0  0  0  0  0  0  0  0  0  0  0  0
    2.9466   -1.8452   -0.5342 O   0  0  0  0  0  0  0  0  0  0  0  0
    5.0458   -1.6377    0.3778 O   0  0  0  0  0  0  0  0  0  0  0  0
    4.9178    0.9733    2.1072 O   0  0  0  0  0  0  0  0  0  0  0  0
    0.0358    1.2778   -0.7962 C   0  0  1  0  0  0  0  0  0  0  0  0
   -1.5917   -0.5886   -0.0851 C   0  0  1  0  0  0  0  0  0  0  0  0
   -0.4290   -0.1593   -1.0886 C   0  0  2  0  0  0  0  0  0  0  0  0
   -2.7113    0.5204   -0.1351 C   0  0  1  0  0  0  0  0  0  0  0  0
    1.4996    1.5224   -0.4314 C   0  0  1  0  0  0  0  0  0  0  0  0
   -1.0159    2.3294   -0.5726 C   0  0  0  0  0  0  0  0  0  0  0  0
   -4.1101    0.1625    0.4911 C   0  0  0  0  0  0  0  0  0  0  0  0
   -2.1433    1.8708    0.3393 C   0  0  0  0  0  0  0  0  0  0  0  0
   -2.2072   -1.9377   -0.5491 C   0  0  0  0  0  0  0  0  0  0  0  0
   -4.5552   -1.2407    0.0152 C   0  0  0  0  0  0  0  0  0  0  0  0
    0.7015   -1.1874   -1.1021 C   0  0  0  0  0  0  0  0  0  0  0  0
   -0.9826   -0.7843    1.3292 C   0  0  0  0  0  0  0  0  0  0  0  0
   -3.4893   -2.3123    0.1857 C   0  0  0  0  0  0  0  0  0  0  0  0
    2.3694    0.3712   -0.2176 C   0  0  0  0  0  0  0  0  0  0  0  0
    1.9352   -0.9126   -0.6582 C   0  0  0  0  0  0  0  0  0  0  0  0
   -5.1783    1.1644   -0.0269 C   0  0  0  0  0  0  0  0  0  0  0  0
   -4.1661    0.2367    2.0296 C   0  0  0  0  0  0  0  0  0  0  0  0
    3.6112    0.2665    0.2419 C   0  0  0  0  0  0  0  0  0  0  0  0
    3.9718   -1.1507    0.0606 C   0  0  0  0  0  0  0  0  0  0  0  0
    4.5468    1.2835    0.7695 C   0  0  0  0  0  0  0  0  0  0  0  0
   -0.8462   -0.1455   -2.1057 H   0  0  0  0  0  0  0  0  0  0  0  0
   -2.9276    0.6476   -1.2092 H   0  0  0  0  0  0  0  0  0  0  0  0
    1.7129    2.3842    0.1914 H   0  0  0  0  0  0  0  0  0  0  0  0
   -1.4406    2.6109   -1.5452 H   0  0  0  0  0  0  0  0  0  0  0  0
   -0.5686    3.2396   -0.1552 H   0  0  0  0  0  0  0  0  0  0  0  0
   -1.7843    1.8068    1.3714 H   0  0  0  0  0  0  0  0  0  0  0  0
   -2.9124    2.6491    0.3313 H   0  0  0  0  0  0  0  0  0  0  0  0
   -1.4919   -2.7578   -0.4169 H   0  0  0  0  0  0  0  0  0  0  0  0
   -2.4249   -1.8885   -1.6244 H   0  0  0  0  0  0  0  0  0  0  0  0
   -4.8250   -1.1966   -1.0490 H   0  0  0  0  0  0  0  0  0  0  0  0
   -5.4646   -1.5517    0.5453 H   0  0  0  0  0  0  0  0  0  0  0  0
    0.4743   -2.1942   -1.4400 H   0  0  0  0  0  0  0  0  0  0  0  0
   -0.4355    0.0976    1.6745 H   0  0  0  0  0  0  0  0  0  0  0  0
   -1.7276   -1.0211    2.0849 H   0  0  0  0  0  0  0  0  0  0  0  0
   -0.2757   -1.6217    1.3455 H   0  0  0  0  0  0  0  0  0  0  0  0
   -3.8679   -3.2582   -0.2200 H   0  0  0  0  0  0  0  0  0  0  0  0
   -3.2894   -2.4943    1.2465 H   0  0  0  0  0  0  0  0  0  0  0  0
   -5.1676    1.2300   -1.1207 H   0  0  0  0  0  0  0  0  0  0  0  0
   -6.1867    0.8527    0.2708 H   0  0  0  0  0  0  0  0  0  0  0  0
   -5.0251    2.1718    0.3724 H   0  0  0  0  0  0  0  0  0  0  0  0
   -3.7900    1.1925    2.4068 H   0  0  0  0  0  0  0  0  0  0  0  0
   -5.2012    0.1434    2.3818 H   0  0  0  0  0  0  0  0  0  0  0  0
   -3.6151   -0.5652    2.5194 H   0  0  0  0  0  0  0  0  0  0  0  0
    4.1129    2.2881    0.7597 H   0  0  0  0  0  0  0  0  0  0  0  0
    5.4581    1.3115    0.1639 H   0  0  0  0  0  0  0  0  0  0  0  0
    4.1080    0.9776    2.6460 H   0  0  0  0  0  0  0  0  0  0  0  0
  1  5  1  0  0  0  0
  1  9  1  0  0  0  0
  2 19  1  0  0  0  0
  2 23  1  0  0  0  0
  3 23  2  0  0  0  0
  4 24  1  0  0  0  0
  4 50  1  0  0  0  0
  5  7  1  0  0  0  0
  5  9  1  0  0  0  0
  5 10  1  0  0  0  0
  6  7  1  0  0  0  0
  6  8  1  0  0  0  0
  6 13  1  0  0  0  0
  6 16  1  0  0  0  0
  7 15  1  0  0  0  0
  7 25  1  0  0  0  0
  8 11  1  0  0  0  0
  8 12  1  0  0  0  0
  8 26  1  0  0  0  0
  9 18  1  0  0  0  0
  9 27  1  0  0  0  0
 10 12  1  0  0  0  0
 10 28  1  0  0  0  0
 10 29  1  0  0  0  0
 11 14  1  0  0  0  0
 11 20  1  0  0  0  0
 11 21  1  0  0  0  0
 12 30  1  0  0  0  0
 12 31  1  0  0  0  0
 13 17  1  0  0  0  0
 13 32  1  0  0  0  0
 13 33  1  0  0  0  0
 14 17  1  0  0  0  0
 14 34  1  0  0  0  0
 14 35  1  0  0  0  0
 15 19  2  0  0  0  0
 15 36  1  0  0  0  0
 16 37  1  0  0  0  0
 16 38  1  0  0  0  0
 16 39  1  0  0  0  0
 17 40  1  0  0  0  0
 17 41  1  0  0  0  0
 18 19  1  0  0  0  0
 18 22  2  0  0  0  0
 20 42  1  0  0  0  0
 20 43  1  0  0  0  0
 20 44  1  0  0  0  0
 21 45  1  0  0  0  0
 21 46  1  0  0  0  0
 21 47  1  0  0  0  0
 22 23  1  0  0  0  0
 22 24  1  0  0  0  0
 24 48  1  0  0  0  0
 24 49  1  0  0  0  0
M  END
> <PUBCHEM_COMPOUND_CID>
6712606

> <PUBCHEM_CONFORMER_RMSD>
0.6

> <PUBCHEM_CONFORMER_DIVERSEORDER>
1

> <PUBCHEM_MMFF94_PARTIAL_CHARGES>
17
1 -0.3
10 0.09
15 -0.29
18 -0.04
19 0.08
2 -0.23
22 -0.12
23 0.71
24 0.42
27 0.1
3 -0.57
36 0.15
4 -0.68
5 -0.04
50 0.4
7 0.23
9 0.09

> <PUBCHEM_EFFECTIVE_ROTOR_COUNT>
2.6

> <PUBCHEM_PHARMACOPHORE_FEATURES>
9
1 1 acceptor
1 3 acceptor
1 4 acceptor
1 4 donor
3 11 20 21 hydrophobe
5 2 18 19 22 23 rings
6 5 6 7 8 10 12 rings
6 6 8 11 13 14 17 rings
7 1 5 7 9 15 18 19 rings

> <PUBCHEM_HEAVY_ATOM_COUNT>
24

> <PUBCHEM_ATOM_DEF_STEREO_COUNT>
5

> <PUBCHEM_ATOM_UDEF_STEREO_COUNT>
0

> <PUBCHEM_BOND_DEF_STEREO_COUNT>
0

> <PUBCHEM_BOND_UDEF_STEREO_COUNT>
0

> <PUBCHEM_ISOTOPIC_ATOM_COUNT>
0

> <PUBCHEM_COMPONENT_COUNT>
1

> <PUBCHEM_CACTVS_TAUTO_COUNT>
1

> <PUBCHEM_CONFORMER_ID>
00666D1E00000001

> <PUBCHEM_MMFF94_ENERGY>
67.3945

> <PUBCHEM_FEATURE_SELFOVERLAP>
45.765

> <PUBCHEM_SHAPE_FINGERPRINT>
10062212 137 18410295856650804319
10319926 262 18267006277443241746
10670039 82 11959740390777799002
10906281 52 18041575740182590780
11045977 3 18131911563653810456
11132069 177 18410578387862279245
11370993 70 18131914840761680711
11796584 16 16225770709281554443
12251169 10 18412267220220829836
12403814 3 18201996625542214951
12422481 6 18411419470938524709
12507560 40 18273210902667079652
12553582 1 18188504547979363836
12633257 1 18131075896035310274
12670546 56 18343299258310344067
12714826 92 16877937213718474151
12788726 201 18041005011869829732
12892183 10 18130788979403581034
12969540 114 11599721706431807433
13140716 1 18338528524913313491
13224815 77 18342748432854225743
13544653 18 18259706717675985892
13583140 156 17774714367973662609
13675066 3 18259991478661432529
14341114 176 18412831270102681600
14790565 3 17904209479027567708
15163728 17 14332309389263473873
15196674 1 18410576197149357479
15209289 33 17749114395900119107
15788980 27 18187651301650642123
16945 1 18268448887906155765
17349148 13 18114187448956434335
17492 89 18190469452911314003
17980427 23 17632583773180887713
1813 80 17313104163643375020
19141452 34 18410576176149378591
19784866 240 15141229993770765136
20511986 3 18130492086016699151
20715895 44 18268433426314442861
20775530 9 15866853714602635738
21033648 29 18340193090902366361
21267235 1 18335995198177368591
21756936 100 16557890386423218376
21859007 373 17823120251982209949
22122407 14 16415483761474409171
22182313 1 18192151495110601733
22854114 59 18131067151809020736
23184049 59 18411986853366845527
23402539 116 18412821361771379055
23559900 14 18200333042705541742
2748010 2 17760383101784207301
296302 2 17704075105328176671
3009799 131 18262223483466541325
3323516 105 8142083147888323591
335352 9 18335705997144907869
34934 24 18408318870203366135
350125 39 18413388731588870204
392239 28 18130784581557719000
4990 188 10665221553709935248
5104073 3 18343023297976936907
7064713 232 18202009806617394385
9709674 26 18188780559805276387
9981440 41 17109600216730712617

> <PUBCHEM_SHAPE_MULTIPOLES>
470.43
10.18
2.3
1.34
2.85
0.05
-0.45
1.05
-4.28
-0.36
0.37
0.26
-0.29
0.3

> <PUBCHEM_SHAPE_SELFOVERLAP>
1029.808

> <PUBCHEM_SHAPE_VOLUME>
254.8

> <PUBCHEM_COORDINATE_TYPE>
2
5
10

$$$$
