161954
  -OEChem-09082013593D

 50 55  0     1  0  0  0  0  0999 V2000
    1.1593   -2.1982    1.3797 O   0  0  0  0  0  0  0  0  0  0  0  0
    1.9993    0.3406    2.2358 O   0  0  0  0  0  0  0  0  0  0  0  0
    3.2235    1.5156    0.4594 O   0  0  0  0  0  0  0  0  0  0  0  0
    4.7459    1.6753   -1.2752 O   0  0  0  0  0  0  0  0  0  0  0  0
    0.1655   -1.5097    0.5971 C   0  0  1  0  0  0  0  0  0  0  0  0
   -0.2203   -0.1172    1.1440 C   0  0  2  0  0  0  0  0  0  0  0  0
   -1.3304    0.5451    0.2033 C   0  0  1  0  0  0  0  0  0  0  0  0
    0.9626    0.8307    1.3639 C   0  0  2  0  0  0  0  0  0  0  0  0
    1.5764   -1.7786    0.0707 C   0  0  1  0  0  0  0  0  0  0  0  0
    2.3240    0.4737    0.8496 C   0  0  2  0  0  0  0  0  0  0  0  0
   -2.5195   -0.4858    0.0546 C   0  0  2  0  0  0  0  0  0  0  0  0
   -0.9608   -2.4487    0.2685 C   0  0  0  0  0  0  0  0  0  0  0  0
    2.4476   -0.6209   -0.0868 C   0  0  0  0  0  0  0  0  0  0  0  0
   -2.0289   -1.7945   -0.5937 C   0  0  0  0  0  0  0  0  0  0  0  0
   -3.8689    0.0524   -0.5492 C   0  0  0  0  0  0  0  0  0  0  0  0
   -1.8876    1.8354    0.8670 C   0  0  0  0  0  0  0  0  0  0  0  0
   -0.6672    0.9267   -1.1446 C   0  0  0  0  0  0  0  0  0  0  0  0
   -4.2546    1.3817    0.1404 C   0  0  0  0  0  0  0  0  0  0  0  0
   -3.1272    2.4004    0.1806 C   0  0  0  0  0  0  0  0  0  0  0  0
    3.3764   -0.3099   -1.0030 C   0  0  0  0  0  0  0  0  0  0  0  0
   -5.0140   -0.9512   -0.2410 C   0  0  0  0  0  0  0  0  0  0  0  0
   -3.8596    0.2338   -2.0793 C   0  0  0  0  0  0  0  0  0  0  0  0
    3.8899    1.0629   -0.6611 C   0  0  0  0  0  0  0  0  0  0  0  0
    3.8686   -1.0596   -2.1806 C   0  0  0  0  0  0  0  0  0  0  0  0
   -0.6741   -0.2812    2.1315 H   0  0  0  0  0  0  0  0  0  0  0  0
    0.7029    1.8666    1.5134 H   0  0  0  0  0  0  0  0  0  0  0  0
    1.6930   -2.5578   -0.6736 H   0  0  0  0  0  0  0  0  0  0  0  0
   -2.7834   -0.7514    1.0923 H   0  0  0  0  0  0  0  0  0  0  0  0
   -1.4152   -2.7966    1.2052 H   0  0  0  0  0  0  0  0  0  0  0  0
   -0.5860   -3.3424   -0.2451 H   0  0  0  0  0  0  0  0  0  0  0  0
   -1.6377   -1.6135   -1.5999 H   0  0  0  0  0  0  0  0  0  0  0  0
   -2.8469   -2.5123   -0.7059 H   0  0  0  0  0  0  0  0  0  0  0  0
   -1.1329    2.6292    0.8767 H   0  0  0  0  0  0  0  0  0  0  0  0
   -2.1337    1.6278    1.9167 H   0  0  0  0  0  0  0  0  0  0  0  0
   -1.3549    1.4075   -1.8368 H   0  0  0  0  0  0  0  0  0  0  0  0
    0.1444    1.6478   -0.9956 H   0  0  0  0  0  0  0  0  0  0  0  0
   -0.2344    0.0647   -1.6591 H   0  0  0  0  0  0  0  0  0  0  0  0
   -4.5660    1.1794    1.1746 H   0  0  0  0  0  0  0  0  0  0  0  0
   -5.1253    1.8295   -0.3556 H   0  0  0  0  0  0  0  0  0  0  0  0
   -3.4668    3.2845    0.7338 H   0  0  0  0  0  0  0  0  0  0  0  0
   -2.8863    2.7490   -0.8287 H   0  0  0  0  0  0  0  0  0  0  0  0
   -5.9898   -0.5275   -0.5075 H   0  0  0  0  0  0  0  0  0  0  0  0
   -4.9078   -1.8830   -0.8051 H   0  0  0  0  0  0  0  0  0  0  0  0
   -5.0483   -1.2034    0.8248 H   0  0  0  0  0  0  0  0  0  0  0  0
   -3.5301   -0.6731   -2.5956 H   0  0  0  0  0  0  0  0  0  0  0  0
   -4.8691    0.4577   -2.4464 H   0  0  0  0  0  0  0  0  0  0  0  0
   -3.2339    1.0611   -2.4110 H   0  0  0  0  0  0  0  0  0  0  0  0
    3.3693   -2.0270   -2.2874 H   0  0  0  0  0  0  0  0  0  0  0  0
    4.9435   -1.2454   -2.0919 H   0  0  0  0  0  0  0  0  0  0  0  0
    3.6919   -0.4888   -3.0976 H   0  0  0  0  0  0  0  0  0  0  0  0
  1  5  1  0  0  0  0
  1  9  1  0  0  0  0
  2  8  1  0  0  0  0
  2 10  1  0  0  0  0
  3 10  1  0  0  0  0
  3 23  1  0  0  0  0
  4 23  2  0  0  0  0
  5  6  1  0  0  0  0
  5  9  1  0  0  0  0
  5 12  1  0  0  0  0
  6  7  1  0  0  0  0
  6  8  1  0  0  0  0
  6 25  1  0  0  0  0
  7 11  1  0  0  0  0
  7 16  1  0  0  0  0
  7 17  1  0  0  0  0
  8 10  1  0  0  0  0
  8 26  1  0  0  0  0
  9 13  1  0  0  0  0
  9 27  1  0  0  0  0
 10 13  1  0  0  0  0
 11 14  1  0  0  0  0
 11 15  1  0  0  0  0
 11 28  1  0  0  0  0
 12 14  1  0  0  0  0
 12 29  1  0  0  0  0
 12 30  1  0  0  0  0
 13 20  2  0  0  0  0
 14 31  1  0  0  0  0
 14 32  1  0  0  0  0
 15 18  1  0  0  0  0
 15 21  1  0  0  0  0
 15 22  1  0  0  0  0
 16 19  1  0  0  0  0
 16 33  1  0  0  0  0
 16 34  1  0  0  0  0
 17 35  1  0  0  0  0
 17 36  1  0  0  0  0
 17 37  1  0  0  0  0
 18 19  1  0  0  0  0
 18 38  1  0  0  0  0
 18 39  1  0  0  0  0
 19 40  1  0  0  0  0
 19 41  1  0  0  0  0
 20 23  1  0  0  0  0
 20 24  1  0  0  0  0
 21 42  1  0  0  0  0
 21 43  1  0  0  0  0
 21 44  1  0  0  0  0
 22 45  1  0  0  0  0
 22 46  1  0  0  0  0
 22 47  1  0  0  0  0
 24 48  1  0  0  0  0
 24 49  1  0  0  0  0
 24 50  1  0  0  0  0
M  END
> <PUBCHEM_COMPOUND_CID>
161954

> <PUBCHEM_CONFORMER_RMSD>
0.6

> <PUBCHEM_CONFORMER_DIVERSEORDER>
1

> <PUBCHEM_MMFF94_PARTIAL_CHARGES>
16
1 -0.3
10 0.34
12 0.09
13 -0.08
2 -0.3
20 -0.12
23 0.71
24 0.14
26 0.1
27 0.1
3 -0.3
4 -0.57
5 -0.04
6 0.19
8 -0.05
9 0.09

> <PUBCHEM_EFFECTIVE_ROTOR_COUNT>
1.8

> <PUBCHEM_PHARMACOPHORE_FEATURES>
8
1 1 acceptor
1 2 acceptor
1 4 acceptor
3 15 21 22 hydrophobe
5 3 10 13 20 23 rings
6 5 6 7 11 12 14 rings
6 7 11 15 16 18 19 rings
8 1 2 5 6 8 9 10 13 rings

> <PUBCHEM_HEAVY_ATOM_COUNT>
24

> <PUBCHEM_ATOM_DEF_STEREO_COUNT>
7

> <PUBCHEM_ATOM_UDEF_STEREO_COUNT>
0

> <PUBCHEM_BOND_DEF_STEREO_COUNT>
0

> <PUBCHEM_BOND_UDEF_STEREO_COUNT>
0

> <PUBCHEM_ISOTOPIC_ATOM_COUNT>
0

> <PUBCHEM_COMPONENT_COUNT>
1

> <PUBCHEM_CACTVS_TAUTO_COUNT>
1

> <PUBCHEM_CONFORMER_ID>
000278A200000001

> <PUBCHEM_MMFF94_ENERGY>
79.2506

> <PUBCHEM_FEATURE_SELFOVERLAP>
40.689

> <PUBCHEM_SHAPE_FINGERPRINT>
10498660 4 18260825990664822205
10759866 29 18040988557612372027
10764073 3 17337834203646461858
10863032 1 18334019371460803538
10948715 1 18334582312781832402
11578080 2 13470405505426177210
11640471 11 17531244002192592310
11796584 16 14405186174971739013
12173636 292 18340760443318195405
12670546 177 18131075943517444156
12714826 92 13758083943497984032
128620 24 17966969422282777285
12892183 10 11098152105410344380
13140716 1 17908119316710591241
13224815 77 17968089785982050049
13675066 3 11527947859260336407
14251751 93 18058735671906960597
14787075 74 18115584993388289227
14790565 3 18270973345334850129
16752209 62 17916288469098537933
16945 1 18341316881974459203
1813 80 13326856608713840930
18186145 218 18271801277210224209
19862831 5 18130507440060448089
200 152 16773808004102503102
20645477 70 15985107452800657420
20739085 24 15896744814182031345
20775530 9 14043524790347770844
21864079 5 18261958431733217717
221357 26 17988926673795065141
22182313 1 17843116171743547114
22393880 68 18340487742537580013
23227448 37 17532098382550883853
23366157 5 17971748866190664611
23557571 272 18120101829661715086
23559900 14 18342741849634698864
238 59 17917711352966637534
2637199 183 18338807701628846627
2748010 2 17765414836201913587
2838139 119 17895198844099254764
296302 2 13406801025290420549
3323516 105 17775002392585484919
350125 39 18263918843632387226
4028521 119 18408886260604351967
4280585 95 17266114103585743126
469060 322 17387148657108439131
474 4 17676493886173556140
49207404 50 13479136795712192564
4990 188 18060420196465755206
5161694 15 17632578219012324317
633830 44 18412264999918137485
9709674 26 18060135470225194847

> <PUBCHEM_SHAPE_MULTIPOLES>
470.43
8.62
2.3
1.65
0.81
0.26
-0.29
-2.13
-4.17
0.41
0.29
-0.97
0.04
-0.13

> <PUBCHEM_SHAPE_SELFOVERLAP>
1035.639

> <PUBCHEM_SHAPE_VOLUME>
251.5

> <PUBCHEM_COORDINATE_TYPE>
2
5
10

$$$$
