5364977
  -OEChem-09062002303D

 41 41  0     1  0  0  0  0  0999 V2000
    4.0530    2.4973    0.1321 O   0  0  0  0  0  0  0  0  0  0  0  0
   -3.2630   -1.4634   -0.6868 O   0  0  0  0  0  0  0  0  0  0  0  0
    2.6644   -0.7512    0.3887 C   0  0  1  0  0  0  0  0  0  0  0  0
    3.8892   -1.5958    0.0087 C   0  0  0  0  0  0  0  0  0  0  0  0
    2.6756    0.5921   -0.3446 C   0  0  0  0  0  0  0  0  0  0  0  0
    5.1863   -0.8443    0.3043 C   0  0  0  0  0  0  0  0  0  0  0  0
    1.3727   -1.5113    0.0953 C   0  0  0  0  0  0  0  0  0  0  0  0
    5.2436    0.4916   -0.4222 C   0  0  0  0  0  0  0  0  0  0  0  0
    3.9973    1.2998   -0.1434 C   0  0  0  0  0  0  0  0  0  0  0  0
    0.1669   -0.7179    0.5036 C   0  0  0  0  0  0  0  0  0  0  0  0
   -4.6337    0.3826    0.0801 C   0  0  0  0  0  0  0  0  0  0  0  0
   -2.0050    0.4498    0.0628 C   0  0  0  0  0  0  0  0  0  0  0  0
   -0.8048   -0.3489   -0.3441 C   0  0  0  0  0  0  0  0  0  0  0  0
   -3.2926   -0.3194   -0.2262 C   0  0  0  0  0  0  0  0  0  0  0  0
   -4.7707    1.6748   -0.7354 C   0  0  0  0  0  0  0  0  0  0  0  0
   -5.7838   -0.5778   -0.2481 C   0  0  0  0  0  0  0  0  0  0  0  0
   -4.6954    0.7418    1.5754 C   0  0  0  0  0  0  0  0  0  0  0  0
    2.7204   -0.5523    1.4689 H   0  0  0  0  0  0  0  0  0  0  0  0
    3.8526   -1.8585   -1.0561 H   0  0  0  0  0  0  0  0  0  0  0  0
    3.8832   -2.5369    0.5713 H   0  0  0  0  0  0  0  0  0  0  0  0
    1.8881    1.2549    0.0303 H   0  0  0  0  0  0  0  0  0  0  0  0
    2.5266    0.4622   -1.4229 H   0  0  0  0  0  0  0  0  0  0  0  0
    6.0445   -1.4594    0.0115 H   0  0  0  0  0  0  0  0  0  0  0  0
    5.2656   -0.6765    1.3858 H   0  0  0  0  0  0  0  0  0  0  0  0
    1.3231   -1.7756   -0.9687 H   0  0  0  0  0  0  0  0  0  0  0  0
    1.3654   -2.4561    0.6526 H   0  0  0  0  0  0  0  0  0  0  0  0
    5.3193    0.3456   -1.5051 H   0  0  0  0  0  0  0  0  0  0  0  0
    6.1207    1.0580   -0.0920 H   0  0  0  0  0  0  0  0  0  0  0  0
    0.0882   -0.4513    1.5548 H   0  0  0  0  0  0  0  0  0  0  0  0
   -1.9664    0.6906    1.1290 H   0  0  0  0  0  0  0  0  0  0  0  0
   -2.0071    1.3805   -0.5114 H   0  0  0  0  0  0  0  0  0  0  0  0
   -0.7206   -0.6117   -1.3960 H   0  0  0  0  0  0  0  0  0  0  0  0
   -4.0303    2.4264   -0.4418 H   0  0  0  0  0  0  0  0  0  0  0  0
   -4.6301    1.4778   -1.8043 H   0  0  0  0  0  0  0  0  0  0  0  0
   -5.7619    2.1231   -0.6031 H   0  0  0  0  0  0  0  0  0  0  0  0
   -5.7137   -1.5025    0.3366 H   0  0  0  0  0  0  0  0  0  0  0  0
   -5.7788   -0.8560   -1.3085 H   0  0  0  0  0  0  0  0  0  0  0  0
   -6.7564   -0.1215   -0.0313 H   0  0  0  0  0  0  0  0  0  0  0  0
   -4.4898   -0.1360    2.1988 H   0  0  0  0  0  0  0  0  0  0  0  0
   -5.6850    1.1252    1.8492 H   0  0  0  0  0  0  0  0  0  0  0  0
   -3.9638    1.5118    1.8425 H   0  0  0  0  0  0  0  0  0  0  0  0
  1  9  2  0  0  0  0
  2 14  2  0  0  0  0
  3  4  1  0  0  0  0
  3  5  1  0  0  0  0
  3  7  1  0  0  0  0
  3 18  1  0  0  0  0
  4  6  1  0  0  0  0
  4 19  1  0  0  0  0
  4 20  1  0  0  0  0
  5  9  1  0  0  0  0
  5 21  1  0  0  0  0
  5 22  1  0  0  0  0
  6  8  1  0  0  0  0
  6 23  1  0  0  0  0
  6 24  1  0  0  0  0
  7 10  1  0  0  0  0
  7 25  1  0  0  0  0
  7 26  1  0  0  0  0
  8  9  1  0  0  0  0
  8 27  1  0  0  0  0
  8 28  1  0  0  0  0
 10 13  2  0  0  0  0
 10 29  1  0  0  0  0
 11 14  1  0  0  0  0
 11 15  1  0  0  0  0
 11 16  1  0  0  0  0
 11 17  1  0  0  0  0
 12 13  1  0  0  0  0
 12 14  1  0  0  0  0
 12 30  1  0  0  0  0
 12 31  1  0  0  0  0
 13 32  1  0  0  0  0
 15 33  1  0  0  0  0
 15 34  1  0  0  0  0
 15 35  1  0  0  0  0
 16 36  1  0  0  0  0
 16 37  1  0  0  0  0
 16 38  1  0  0  0  0
 17 39  1  0  0  0  0
 17 40  1  0  0  0  0
 17 41  1  0  0  0  0
M  END
> <PUBCHEM_COMPOUND_CID>
5364977

> <PUBCHEM_CONFORMER_RMSD>
0.8

> <PUBCHEM_CONFORMER_DIVERSEORDER>
2
92
76
37
20
175
189
75
115
93
24
66
73
68
188
202
167
4
60
195
173
178
194
5
147
109
155
172
201
98
164
3
168
137
127
186
191
33
132
39
6
203
1
48
196
80
187
54
122
28
182
129
81
36
49
150
136
180
157
42
91
111
205
71
18
85
162
58
7
154
193
38
83
50
133
184
104
192
114
142
44
56
72
82
169
140
131
17
88
120
45
78
116
96
170
94
145
13
126
206
31
86
43
107
19
197
63
128
198
23
14
12
148
156
26
183
15
102
165
199
103
89
146
40
30
108
27
152
125
11
200
110
185
29
62
59
22
64
130
153
77
84
151
10
25
119
112
177
32
158
61
46
55
143
105
204
149
117
47
53
141
101
135
57
179
106
134
35
99
9
160
138
95
65
79
97
176
159
171
144
16
41
67
51
87
113
118
139
69
70
190
174
166
52
8
181
90
161
121
123
100
21
34
124
74
163

> <PUBCHEM_MMFF94_PARTIAL_CHARGES>
13
1 -0.57
10 -0.29
11 0.06
12 0.2
13 -0.29
14 0.45
2 -0.57
29 0.15
32 0.15
5 0.06
7 0.14
8 0.06
9 0.45

> <PUBCHEM_EFFECTIVE_ROTOR_COUNT>
6

> <PUBCHEM_PHARMACOPHORE_FEATURES>
4
1 1 acceptor
1 2 acceptor
4 11 15 16 17 hydrophobe
6 3 4 5 6 8 9 rings

> <PUBCHEM_HEAVY_ATOM_COUNT>
17

> <PUBCHEM_ATOM_DEF_STEREO_COUNT>
0

> <PUBCHEM_ATOM_UDEF_STEREO_COUNT>
1

> <PUBCHEM_BOND_DEF_STEREO_COUNT>
1

> <PUBCHEM_BOND_UDEF_STEREO_COUNT>
0

> <PUBCHEM_ISOTOPIC_ATOM_COUNT>
0

> <PUBCHEM_COMPONENT_COUNT>
1

> <PUBCHEM_CACTVS_TAUTO_COUNT>
9

> <PUBCHEM_CONFORMER_ID>
0051DCF100000002

> <PUBCHEM_MMFF94_ENERGY>
24.1417

> <PUBCHEM_FEATURE_SELFOVERLAP>
20.297

> <PUBCHEM_SHAPE_FINGERPRINT>
10014705 185 18335978701898587485
10595046 47 18342173405674586903
10912923 1 18272651238406130363
11045977 3 17894355496482681587
11287383 113 18407761447414146323
12107183 9 17620195334498167011
12236239 1 18202846534676182874
12616971 3 18412257324574313007
12730499 353 18260839198005930962
13081056 2 18333167262913105596
13167372 99 18341897325087291873
13167823 11 18412541024375900407
13533116 47 16950834809223783810
13675066 3 17894917317139174701
13955234 65 18261952951771855546
14251732 16 18336267955024492187
14251764 18 18040713663464081098
14251764 75 17537180394357943916
14528608 73 18411417336360923319
15196674 1 18409728486490070748
15239154 128 18411418401840067985
17834072 33 18342736334258582343
17844677 252 18335707109135437021
17959699 21 18408602556513455168
19433438 28 17749392546593117865
20281389 69 18335417967399490273
20645477 56 18113900459495215479
20645477 70 18340770347370667022
21033648 29 17313089865407232629
212847 35 18259987076778838196
21652331 79 18335419062589874629
23402539 116 18412819179332056038
23402655 69 18342457067142981694
23559900 14 18130508526967463654
300161 21 18342730819256830054
34797466 226 17775012326903012685
351380 180 18407758132031488656
3545911 37 18408044021886484966
4214541 1 18410291393958036277
42788 4 18407759218273287559
465052 167 7997972397146862840
474 4 18041001781911303236
5104073 3 18335983150751776130
542803 24 18409730651275069619
543368 44 18060136591713176513
54446538 1 18413669106294603065
633830 44 18261104184207553006
77779 3 18411136939537269191
8272917 22 18342461400828741750
90127 26 18114749239690782897

> <PUBCHEM_SHAPE_MULTIPOLES>
338.11
14.99
1.77
0.87
4.43
0.59
-0.2
2.74
0.04
-1.4
0.09
0.86
0.09
-0.37

> <PUBCHEM_SHAPE_SELFOVERLAP>
666.212

> <PUBCHEM_SHAPE_VOLUME>
201.3

> <PUBCHEM_COORDINATE_TYPE>
2
5
10

$$$$
