485707
  -OEChem-09062004043D

 81 85  0     1  0  0  0  0  0999 V2000
    5.6285   -1.7558   -1.6816 O   0  0  0  0  0  0  0  0  0  0  0  0
   -4.3584    2.5582    1.1464 O   0  0  0  0  0  0  0  0  0  0  0  0
   -3.2652    0.7767    2.0556 O   0  0  0  0  0  0  0  0  0  0  0  0
    0.8567    0.9334    0.0713 C   0  0  2  0  0  0  0  0  0  0  0  0
    1.5111   -0.4820    0.3042 C   0  0  1  0  0  0  0  0  0  0  0  0
    3.0542   -0.5192    0.7166 C   0  0  2  0  0  0  0  0  0  0  0  0
   -0.5770    0.7235   -0.6942 C   0  0  1  0  0  0  0  0  0  0  0  0
    3.8290    0.3809   -0.3147 C   0  0  1  0  0  0  0  0  0  0  0  0
    1.8137    1.8268   -0.7671 C   0  0  0  0  0  0  0  0  0  0  0  0
   -1.4173   -0.4006   -0.0358 C   0  0  0  0  0  0  0  0  0  0  0  0
    3.2727    1.8193   -0.3053 C   0  0  0  0  0  0  0  0  0  0  0  0
    5.3985    0.2749   -0.2936 C   0  0  0  0  0  0  0  0  0  0  0  0
   -2.9025   -0.4854   -0.4471 C   0  0  2  0  0  0  0  0  0  0  0  0
    0.5935   -1.3550    1.1831 C   0  0  0  0  0  0  0  0  0  0  0  0
   -1.3854    2.0605   -0.6937 C   0  0  0  0  0  0  0  0  0  0  0  0
    3.5726   -1.9835    0.5684 C   0  0  0  0  0  0  0  0  0  0  0  0
   -3.6184    0.8842   -0.3491 C   0  0  1  0  0  0  0  0  0  0  0  0
    0.6246    1.6596    1.4307 C   0  0  0  0  0  0  0  0  0  0  0  0
   -2.8401    1.9410   -1.1554 C   0  0  0  0  0  0  0  0  0  0  0  0
    5.8249   -1.2227   -0.3675 C   0  0  1  0  0  0  0  0  0  0  0  0
   -0.8554   -1.2884    0.8070 C   0  0  0  0  0  0  0  0  0  0  0  0
    3.2867   -0.0999    2.1905 C   0  0  0  0  0  0  0  0  0  0  0  0
    5.0977   -2.1263    0.6267 C   0  0  0  0  0  0  0  0  0  0  0  0
   -0.3734    0.3119   -2.1850 C   0  0  0  0  0  0  0  0  0  0  0  0
   -3.7432   -1.5995    0.2297 C   0  0  0  0  0  0  0  0  0  0  0  0
   -5.0578    0.7928   -0.8990 C   0  0  0  0  0  0  0  0  0  0  0  0
   -5.1997   -1.6957   -0.2876 C   0  0  0  0  0  0  0  0  0  0  0  0
    5.9883    1.0046   -1.5324 C   0  0  0  0  0  0  0  0  0  0  0  0
    6.0454    0.9384    0.9390 C   0  0  0  0  0  0  0  0  0  0  0  0
   -5.8793   -0.3140   -0.2346 C   0  0  0  0  0  0  0  0  0  0  0  0
   -3.7099    1.3697    1.0841 C   0  0  0  0  0  0  0  0  0  0  0  0
   -5.9827   -2.6707    0.6138 C   0  0  0  0  0  0  0  0  0  0  0  0
   -5.2325   -2.2575   -1.7232 C   0  0  0  0  0  0  0  0  0  0  0  0
    1.5044   -0.9697   -0.6804 H   0  0  0  0  0  0  0  0  0  0  0  0
    3.5510   -0.0163   -1.3044 H   0  0  0  0  0  0  0  0  0  0  0  0
    1.4529    2.8623   -0.7853 H   0  0  0  0  0  0  0  0  0  0  0  0
    1.8314    1.4974   -1.8099 H   0  0  0  0  0  0  0  0  0  0  0  0
    3.8292    2.4535   -1.0023 H   0  0  0  0  0  0  0  0  0  0  0  0
    3.3683    2.2957    0.6735 H   0  0  0  0  0  0  0  0  0  0  0  0
   -2.8792   -0.7592   -1.5096 H   0  0  0  0  0  0  0  0  0  0  0  0
    0.6602   -1.0880    2.2408 H   0  0  0  0  0  0  0  0  0  0  0  0
    0.9042   -2.4028    1.1024 H   0  0  0  0  0  0  0  0  0  0  0  0
   -0.8806    2.8021   -1.3252 H   0  0  0  0  0  0  0  0  0  0  0  0
   -1.4228    2.4971    0.3074 H   0  0  0  0  0  0  0  0  0  0  0  0
    3.2229   -2.4046   -0.3828 H   0  0  0  0  0  0  0  0  0  0  0  0
    3.1435   -2.6174    1.3544 H   0  0  0  0  0  0  0  0  0  0  0  0
    1.5066    1.6713    2.0653 H   0  0  0  0  0  0  0  0  0  0  0  0
    0.3767    2.7166    1.2848 H   0  0  0  0  0  0  0  0  0  0  0  0
   -0.1841    1.2093    2.0136 H   0  0  0  0  0  0  0  0  0  0  0  0
   -3.3122    2.9290   -1.0806 H   0  0  0  0  0  0  0  0  0  0  0  0
   -2.8625    1.6871   -2.2225 H   0  0  0  0  0  0  0  0  0  0  0  0
    6.9026   -1.3029   -0.1802 H   0  0  0  0  0  0  0  0  0  0  0  0
   -1.4571   -2.0644    1.2695 H   0  0  0  0  0  0  0  0  0  0  0  0
    4.1676   -0.5734    2.6292 H   0  0  0  0  0  0  0  0  0  0  0  0
    3.4334    0.9738    2.3148 H   0  0  0  0  0  0  0  0  0  0  0  0
    2.4677   -0.3970    2.8477 H   0  0  0  0  0  0  0  0  0  0  0  0
    5.4609   -1.9310    1.6402 H   0  0  0  0  0  0  0  0  0  0  0  0
    5.3446   -3.1739    0.4116 H   0  0  0  0  0  0  0  0  0  0  0  0
    0.2779   -0.5591   -2.2956 H   0  0  0  0  0  0  0  0  0  0  0  0
   -1.3120    0.0538   -2.6848 H   0  0  0  0  0  0  0  0  0  0  0  0
    0.0491    1.1295   -2.7779 H   0  0  0  0  0  0  0  0  0  0  0  0
   -3.2590   -2.5705    0.0562 H   0  0  0  0  0  0  0  0  0  0  0  0
   -3.7566   -1.4635    1.3172 H   0  0  0  0  0  0  0  0  0  0  0  0
   -5.0233    0.6082   -1.9803 H   0  0  0  0  0  0  0  0  0  0  0  0
   -5.5958    1.7424   -0.7863 H   0  0  0  0  0  0  0  0  0  0  0  0
    7.0520    0.7682   -1.6554 H   0  0  0  0  0  0  0  0  0  0  0  0
    5.4758    0.7162   -2.4566 H   0  0  0  0  0  0  0  0  0  0  0  0
    5.9168    2.0931   -1.4379 H   0  0  0  0  0  0  0  0  0  0  0  0
    7.1353    0.9864    0.8224 H   0  0  0  0  0  0  0  0  0  0  0  0
    5.6941    1.9658    1.0770 H   0  0  0  0  0  0  0  0  0  0  0  0
    5.8684    0.3916    1.8646 H   0  0  0  0  0  0  0  0  0  0  0  0
   -6.0651   -0.0350    0.8109 H   0  0  0  0  0  0  0  0  0  0  0  0
   -6.8663   -0.3605   -0.7126 H   0  0  0  0  0  0  0  0  0  0  0  0
   -5.9984   -2.3258    1.6539 H   0  0  0  0  0  0  0  0  0  0  0  0
   -5.5317   -3.6694    0.6020 H   0  0  0  0  0  0  0  0  0  0  0  0
   -7.0225   -2.7689    0.2815 H   0  0  0  0  0  0  0  0  0  0  0  0
   -6.2641   -2.3660   -2.0774 H   0  0  0  0  0  0  0  0  0  0  0  0
   -4.7639   -3.2474   -1.7678 H   0  0  0  0  0  0  0  0  0  0  0  0
   -4.7105   -1.6168   -2.4391 H   0  0  0  0  0  0  0  0  0  0  0  0
    4.6820   -1.7222   -1.8941 H   0  0  0  0  0  0  0  0  0  0  0  0
   -4.4286    2.8891    2.0671 H   0  0  0  0  0  0  0  0  0  0  0  0
  1 20  1  0  0  0  0
  1 80  1  0  0  0  0
  2 31  1  0  0  0  0
  2 81  1  0  0  0  0
  3 31  2  0  0  0  0
  4  5  1  0  0  0  0
  4  7  1  0  0  0  0
  4  9  1  0  0  0  0
  4 18  1  0  0  0  0
  5  6  1  0  0  0  0
  5 14  1  0  0  0  0
  5 34  1  0  0  0  0
  6  8  1  0  0  0  0
  6 16  1  0  0  0  0
  6 22  1  0  0  0  0
  7 10  1  0  0  0  0
  7 15  1  0  0  0  0
  7 24  1  0  0  0  0
  8 11  1  0  0  0  0
  8 12  1  0  0  0  0
  8 35  1  0  0  0  0
  9 11  1  0  0  0  0
  9 36  1  0  0  0  0
  9 37  1  0  0  0  0
 10 13  1  0  0  0  0
 10 21  2  0  0  0  0
 11 38  1  0  0  0  0
 11 39  1  0  0  0  0
 12 20  1  0  0  0  0
 12 28  1  0  0  0  0
 12 29  1  0  0  0  0
 13 17  1  0  0  0  0
 13 25  1  0  0  0  0
 13 40  1  0  0  0  0
 14 21  1  0  0  0  0
 14 41  1  0  0  0  0
 14 42  1  0  0  0  0
 15 19  1  0  0  0  0
 15 43  1  0  0  0  0
 15 44  1  0  0  0  0
 16 23  1  0  0  0  0
 16 45  1  0  0  0  0
 16 46  1  0  0  0  0
 17 19  1  0  0  0  0
 17 26  1  0  0  0  0
 17 31  1  0  0  0  0
 18 47  1  0  0  0  0
 18 48  1  0  0  0  0
 18 49  1  0  0  0  0
 19 50  1  0  0  0  0
 19 51  1  0  0  0  0
 20 23  1  0  0  0  0
 20 52  1  0  0  0  0
 21 53  1  0  0  0  0
 22 54  1  0  0  0  0
 22 55  1  0  0  0  0
 22 56  1  0  0  0  0
 23 57  1  0  0  0  0
 23 58  1  0  0  0  0
 24 59  1  0  0  0  0
 24 60  1  0  0  0  0
 24 61  1  0  0  0  0
 25 27  1  0  0  0  0
 25 62  1  0  0  0  0
 25 63  1  0  0  0  0
 26 30  1  0  0  0  0
 26 64  1  0  0  0  0
 26 65  1  0  0  0  0
 27 30  1  0  0  0  0
 27 32  1  0  0  0  0
 27 33  1  0  0  0  0
 28 66  1  0  0  0  0
 28 67  1  0  0  0  0
 28 68  1  0  0  0  0
 29 69  1  0  0  0  0
 29 70  1  0  0  0  0
 29 71  1  0  0  0  0
 30 72  1  0  0  0  0
 30 73  1  0  0  0  0
 32 74  1  0  0  0  0
 32 75  1  0  0  0  0
 32 76  1  0  0  0  0
 33 77  1  0  0  0  0
 33 78  1  0  0  0  0
 33 79  1  0  0  0  0
M  END
> <PUBCHEM_COMPOUND_CID>
485707

> <PUBCHEM_CONFORMER_RMSD>
0.8

> <PUBCHEM_CONFORMER_DIVERSEORDER>
1
13
10
12
9
14
5
8
11
7
4
3
6
2

> <PUBCHEM_MMFF94_PARTIAL_CHARGES>
14
1 -0.68
10 -0.28
13 0.14
14 0.14
17 0.06
2 -0.65
20 0.28
21 -0.29
3 -0.57
31 0.66
53 0.15
7 0.14
80 0.4
81 0.5

> <PUBCHEM_EFFECTIVE_ROTOR_COUNT>
3.6

> <PUBCHEM_PHARMACOPHORE_FEATURES>
12
1 1 acceptor
1 1 donor
1 2 acceptor
1 3 acceptor
3 12 28 29 hydrophobe
3 2 3 31 anion
3 27 32 33 hydrophobe
6 13 17 25 26 27 30 rings
6 4 5 6 8 9 11 rings
6 4 5 7 10 14 21 rings
6 6 8 12 16 20 23 rings
6 7 10 13 15 17 19 rings

> <PUBCHEM_HEAVY_ATOM_COUNT>
33

> <PUBCHEM_ATOM_DEF_STEREO_COUNT>
5

> <PUBCHEM_ATOM_UDEF_STEREO_COUNT>
3

> <PUBCHEM_BOND_DEF_STEREO_COUNT>
0

> <PUBCHEM_BOND_UDEF_STEREO_COUNT>
0

> <PUBCHEM_ISOTOPIC_ATOM_COUNT>
0

> <PUBCHEM_COMPONENT_COUNT>
1

> <PUBCHEM_CACTVS_TAUTO_COUNT>
1

> <PUBCHEM_CONFORMER_ID>
0007694B00000001

> <PUBCHEM_MMFF94_ENERGY>
144.0213

> <PUBCHEM_FEATURE_SELFOVERLAP>
61.006

> <PUBCHEM_SHAPE_FINGERPRINT>
10 15 12319458826824117711
10366900 7 17240481407554113393
10595046 47 18333449846233900246
11488393 25 17845102761559102558
11545043 162 17704351056702631881
11578080 2 16445295786912175591
12107183 9 17907016179734817433
12107698 1 17846495976266951849
12166972 35 18342740744868580049
12236239 1 18272089379142338944
12516196 113 18412541028939613584
12596602 18 18131913758598461240
13009979 54 18411427228356797897
13224815 77 17603863381931332345
13533116 47 18269836578448208504
13583140 156 16773792563499810739
13782708 43 17346596378541715174
13911987 19 14490481876028430590
14347332 77 18341891922392680935
14790565 3 18114466665144649452
14840074 17 17530689783717910007
14856354 85 17704355493941945175
14955137 171 17989486324960700928
15082195 135 17750808829692660932
15183329 4 18186522094750947838
15361156 5 17968109576911892468
15788980 27 17894912897375246784
15799311 1 18338248058863800246
16728433 281 16010965665117455559
17349148 13 17560802134374291673
17844677 252 17704070707234381688
17857418 61 18334853926497761798
18681886 176 18336823199563848392
18927931 339 17989486342884005207
20028762 73 18409160026152585882
20567600 75 17489311862671792950
21033648 29 15267339587455606491
21236236 1 18409729552132713467
21267235 1 18260832639959978811
21424621 283 13552291630137055679
221357 26 18335698360023083574
22393880 68 18114170909121994477
22950370 63 18410011005455168092
23522609 53 18119277045591206572
23559900 14 18335411413706833541
23569914 152 17323758242396804711
23569943 247 18048600322721240698
24771293 8 18334295401348008628
335352 9 18334570249368542509
34797466 226 17275108379446640280
350125 39 18409729573665383881
3633792 109 18187916284295866997
4015057 19 17095808832040604805
4073 2 17894634776694460146
497634 4 18410573977110376845
5104073 3 18341888567849020040
7495541 125 17988356056945264536

> <PUBCHEM_SHAPE_MULTIPOLES>
661.52
15.65
2.59
1.64
3.3
0.34
-0.04
5.67
2.41
-1.5
0.01
0.17
-0.14
-0.75

> <PUBCHEM_SHAPE_SELFOVERLAP>
1407.592

> <PUBCHEM_SHAPE_VOLUME>
363.1

> <PUBCHEM_COORDINATE_TYPE>
2
5
10

$$$$
