519255
  -OEChem-09062002013D

 38 37  0     1  0  0  0  0  0999 V2000
   -0.6877    1.1644   -0.4574 C   0  0  1  0  0  0  0  0  0  0  0  0
    0.3480    0.2179    0.2266 C   0  0  1  0  0  0  0  0  0  0  0  0
   -2.1557    0.9161   -0.0360 C   0  0  0  0  0  0  0  0  0  0  0  0
    1.7510    0.3774   -0.4077 C   0  0  0  0  0  0  0  0  0  0  0  0
   -0.3670    2.6532   -0.2596 C   0  0  0  0  0  0  0  0  0  0  0  0
    0.4063    0.3936    1.7491 C   0  0  0  0  0  0  0  0  0  0  0  0
   -2.6401   -0.5175   -0.2712 C   0  0  0  0  0  0  0  0  0  0  0  0
    2.7777   -0.6295    0.1246 C   0  0  0  0  0  0  0  0  0  0  0  0
   -4.1250   -0.6620    0.0673 C   0  0  0  0  0  0  0  0  0  0  0  0
    4.1497   -0.4098   -0.5154 C   0  0  0  0  0  0  0  0  0  0  0  0
   -4.6217   -2.0744   -0.1970 C   0  0  0  0  0  0  0  0  0  0  0  0
    5.1644   -1.4294   -0.0232 C   0  0  0  0  0  0  0  0  0  0  0  0
   -0.6356    0.9700   -1.5381 H   0  0  0  0  0  0  0  0  0  0  0  0
    0.0398   -0.8156    0.0286 H   0  0  0  0  0  0  0  0  0  0  0  0
   -2.2998    1.1837    1.0174 H   0  0  0  0  0  0  0  0  0  0  0  0
   -2.7994    1.5959   -0.6104 H   0  0  0  0  0  0  0  0  0  0  0  0
    1.6698    0.2625   -1.4958 H   0  0  0  0  0  0  0  0  0  0  0  0
    2.1340    1.3871   -0.2203 H   0  0  0  0  0  0  0  0  0  0  0  0
   -2.0731   -1.2175    0.3517 H   0  0  0  0  0  0  0  0  0  0  0  0
   -2.4702   -0.7957   -1.3181 H   0  0  0  0  0  0  0  0  0  0  0  0
    2.8888   -0.5312    1.2094 H   0  0  0  0  0  0  0  0  0  0  0  0
    2.4300   -1.6494   -0.0788 H   0  0  0  0  0  0  0  0  0  0  0  0
    0.6177    2.9131   -0.6574 H   0  0  0  0  0  0  0  0  0  0  0  0
   -0.3990    2.9370    0.7969 H   0  0  0  0  0  0  0  0  0  0  0  0
   -1.0963    3.2761   -0.7899 H   0  0  0  0  0  0  0  0  0  0  0  0
   -0.5913    0.3712    2.1964 H   0  0  0  0  0  0  0  0  0  0  0  0
    0.9675   -0.4190    2.2206 H   0  0  0  0  0  0  0  0  0  0  0  0
    0.8841    1.3382    2.0278 H   0  0  0  0  0  0  0  0  0  0  0  0
   -4.2926   -0.4111    1.1212 H   0  0  0  0  0  0  0  0  0  0  0  0
   -4.7144    0.0419   -0.5318 H   0  0  0  0  0  0  0  0  0  0  0  0
    4.5113    0.5992   -0.2853 H   0  0  0  0  0  0  0  0  0  0  0  0
    4.0679   -0.4845   -1.6060 H   0  0  0  0  0  0  0  0  0  0  0  0
   -4.0744   -2.8027    0.4100 H   0  0  0  0  0  0  0  0  0  0  0  0
   -4.4981   -2.3430   -1.2510 H   0  0  0  0  0  0  0  0  0  0  0  0
   -5.6845   -2.1551    0.0516 H   0  0  0  0  0  0  0  0  0  0  0  0
    6.1369   -1.2540   -0.4938 H   0  0  0  0  0  0  0  0  0  0  0  0
    4.8473   -2.4482   -0.2680 H   0  0  0  0  0  0  0  0  0  0  0  0
    5.2946   -1.3611    1.0616 H   0  0  0  0  0  0  0  0  0  0  0  0
  1  2  1  0  0  0  0
  1  3  1  0  0  0  0
  1  5  1  0  0  0  0
  1 13  1  0  0  0  0
  2  4  1  0  0  0  0
  2  6  1  0  0  0  0
  2 14  1  0  0  0  0
  3  7  1  0  0  0  0
  3 15  1  0  0  0  0
  3 16  1  0  0  0  0
  4  8  1  0  0  0  0
  4 17  1  0  0  0  0
  4 18  1  0  0  0  0
  5 23  1  0  0  0  0
  5 24  1  0  0  0  0
  5 25  1  0  0  0  0
  6 26  1  0  0  0  0
  6 27  1  0  0  0  0
  6 28  1  0  0  0  0
  7  9  1  0  0  0  0
  7 19  1  0  0  0  0
  7 20  1  0  0  0  0
  8 10  1  0  0  0  0
  8 21  1  0  0  0  0
  8 22  1  0  0  0  0
  9 11  1  0  0  0  0
  9 29  1  0  0  0  0
  9 30  1  0  0  0  0
 10 12  1  0  0  0  0
 10 31  1  0  0  0  0
 10 32  1  0  0  0  0
 11 33  1  0  0  0  0
 11 34  1  0  0  0  0
 11 35  1  0  0  0  0
 12 36  1  0  0  0  0
 12 37  1  0  0  0  0
 12 38  1  0  0  0  0
M  END
> <PUBCHEM_COMPOUND_CID>
519255

> <PUBCHEM_CONFORMER_RMSD>
0.8

> <PUBCHEM_CONFORMER_DIVERSEORDER>
1
57
28
38
6
33
91
88
25
56
72
65
94
103
32
45
53
93
78
12
84
59
34
95
89
13
23
96
87
42
80
51
98
17
2
20
43
90
54
82
100
30
81
73
52
31
47
79
40
37
26
70
62
7
76
4
86
102
11
48
83
92
29
46
77
55
60
74
15
67
35
44
61
85
18
75
24
101
39
22
66
19
97
5
27
14
16
21
69
63
50
68
49
41
64
58
71
10
8
36
99
9
3

> <PUBCHEM_MMFF94_PARTIAL_CHARGES>
0

> <PUBCHEM_EFFECTIVE_ROTOR_COUNT>
7

> <PUBCHEM_PHARMACOPHORE_FEATURES>
4
1 11 hydrophobe
1 12 hydrophobe
1 5 hydrophobe
1 6 hydrophobe

> <PUBCHEM_HEAVY_ATOM_COUNT>
12

> <PUBCHEM_ATOM_DEF_STEREO_COUNT>
0

> <PUBCHEM_ATOM_UDEF_STEREO_COUNT>
2

> <PUBCHEM_BOND_DEF_STEREO_COUNT>
0

> <PUBCHEM_BOND_UDEF_STEREO_COUNT>
0

> <PUBCHEM_ISOTOPIC_ATOM_COUNT>
0

> <PUBCHEM_COMPONENT_COUNT>
1

> <PUBCHEM_CACTVS_TAUTO_COUNT>
1

> <PUBCHEM_CONFORMER_ID>
0007EC5700000001

> <PUBCHEM_MMFF94_ENERGY>
8.0369

> <PUBCHEM_FEATURE_SELFOVERLAP>
20.3

> <PUBCHEM_SHAPE_FINGERPRINT>
100836 57 9007061283328055263
11046707 91 18412544305967862543
12006461 19 18271243936616233103
12032990 46 18410855477418878805
124424 183 16988843861334208529
12841375 25 18410009957546483989
12916754 54 18341619162173600068
13288520 33 18411140199591364414
13740256 8 18411420656402505863
14123255 352 10231765470033331827
14178000 29 18339360872152530381
14993402 34 15574720188009522526
15061688 2 8574438629480136145
15501527 24 17676211281783963758
18186145 218 16370729257109454077
187816 3 17312827069438262792
18785283 64 17629461250157178312
200 152 17967536753018418394
20112054 13 11384117448859185893
20300324 65 18188214200112110628
20374829 77 18410289207672255839
20388580 30 18262521510545947989
20621476 21 17845951649371374054
20645477 70 17973712869368275815
20671657 53 18337396045079741293
20724930 31 18060137652422151866
20871998 22 18339073908334670449
20871999 31 18114455687318757605
21061003 4 16845280618999159392
21426921 1 18264769857438262956
22485316 2 18411134740656204583
23402539 116 18114462267071420396
23402655 69 13118270482622912815
23557571 272 18199750241503396756
328317 168 8574718983755511467
83771 10 18341894112567421901

> <PUBCHEM_SHAPE_MULTIPOLES>
246.95
9.41
2.05
0.95
3.2
0.71
0.42
-8.57
-1.24
-1.25
-0.27
0.18
0.12
-0.04

> <PUBCHEM_SHAPE_SELFOVERLAP>
439.917

> <PUBCHEM_SHAPE_VOLUME>
162.8

> <PUBCHEM_COORDINATE_TYPE>
2
5
10

$$$$
