94213
  -OEChem-09062002203D

 38 37  0     1  0  0  0  0  0999 V2000
    1.1688   -0.3685   -0.1862 C   0  0  1  0  0  0  0  0  0  0  0  0
   -0.1149    0.3926    0.2129 C   0  0  0  0  0  0  0  0  0  0  0  0
    2.3996    0.4570    0.2526 C   0  0  0  0  0  0  0  0  0  0  0  0
   -1.4070   -0.2990   -0.2335 C   0  0  0  0  0  0  0  0  0  0  0  0
   -2.6402    0.4903    0.2142 C   0  0  0  0  0  0  0  0  0  0  0  0
    3.7330   -0.1214   -0.2344 C   0  0  0  0  0  0  0  0  0  0  0  0
    1.1967   -1.7798    0.4084 C   0  0  0  0  0  0  0  0  0  0  0  0
   -3.9314   -0.1770   -0.2627 C   0  0  0  0  0  0  0  0  0  0  0  0
    4.9393    0.7395    0.1514 C   0  0  0  0  0  0  0  0  0  0  0  0
   -5.1633    0.5927    0.2130 C   0  0  0  0  0  0  0  0  0  0  0  0
    6.2689    0.1590   -0.3048 C   0  0  0  0  0  0  0  0  0  0  0  0
   -6.4496   -0.0854   -0.2309 C   0  0  0  0  0  0  0  0  0  0  0  0
    1.1866   -0.4589   -1.2801 H   0  0  0  0  0  0  0  0  0  0  0  0
   -0.0854    1.3991   -0.2238 H   0  0  0  0  0  0  0  0  0  0  0  0
   -0.1345    0.5235    1.3027 H   0  0  0  0  0  0  0  0  0  0  0  0
    2.4184    0.5382    1.3469 H   0  0  0  0  0  0  0  0  0  0  0  0
    2.3023    1.4784   -0.1370 H   0  0  0  0  0  0  0  0  0  0  0  0
   -1.4753   -1.3040    0.1946 H   0  0  0  0  0  0  0  0  0  0  0  0
   -1.4071   -0.4056   -1.3247 H   0  0  0  0  0  0  0  0  0  0  0  0
   -2.5884    1.5114   -0.1830 H   0  0  0  0  0  0  0  0  0  0  0  0
   -2.6474    0.5686    1.3082 H   0  0  0  0  0  0  0  0  0  0  0  0
    3.7039   -0.2336   -1.3250 H   0  0  0  0  0  0  0  0  0  0  0  0
    3.8857   -1.1205    0.1871 H   0  0  0  0  0  0  0  0  0  0  0  0
    1.1482   -1.7491    1.5019 H   0  0  0  0  0  0  0  0  0  0  0  0
    2.1033   -2.3210    0.1237 H   0  0  0  0  0  0  0  0  0  0  0  0
    0.3628   -2.3872    0.0459 H   0  0  0  0  0  0  0  0  0  0  0  0
   -3.9738   -1.2056    0.1160 H   0  0  0  0  0  0  0  0  0  0  0  0
   -3.9334   -0.2357   -1.3579 H   0  0  0  0  0  0  0  0  0  0  0  0
    4.8232    1.7408   -0.2800 H   0  0  0  0  0  0  0  0  0  0  0  0
    4.9634    0.8634    1.2407 H   0  0  0  0  0  0  0  0  0  0  0  0
   -5.1391    1.6148   -0.1824 H   0  0  0  0  0  0  0  0  0  0  0  0
   -5.1570    0.6675    1.3067 H   0  0  0  0  0  0  0  0  0  0  0  0
    6.2951    0.0538   -1.3940 H   0  0  0  0  0  0  0  0  0  0  0  0
    6.4375   -0.8268    0.1398 H   0  0  0  0  0  0  0  0  0  0  0  0
    7.0929    0.8139   -0.0051 H   0  0  0  0  0  0  0  0  0  0  0  0
   -7.3175    0.4822    0.1188 H   0  0  0  0  0  0  0  0  0  0  0  0
   -6.5199   -1.0989    0.1769 H   0  0  0  0  0  0  0  0  0  0  0  0
   -6.5027   -0.1495   -1.3224 H   0  0  0  0  0  0  0  0  0  0  0  0
  1  2  1  0  0  0  0
  1  3  1  0  0  0  0
  1  7  1  0  0  0  0
  1 13  1  0  0  0  0
  2  4  1  0  0  0  0
  2 14  1  0  0  0  0
  2 15  1  0  0  0  0
  3  6  1  0  0  0  0
  3 16  1  0  0  0  0
  3 17  1  0  0  0  0
  4  5  1  0  0  0  0
  4 18  1  0  0  0  0
  4 19  1  0  0  0  0
  5  8  1  0  0  0  0
  5 20  1  0  0  0  0
  5 21  1  0  0  0  0
  6  9  1  0  0  0  0
  6 22  1  0  0  0  0
  6 23  1  0  0  0  0
  7 24  1  0  0  0  0
  7 25  1  0  0  0  0
  7 26  1  0  0  0  0
  8 10  1  0  0  0  0
  8 27  1  0  0  0  0
  8 28  1  0  0  0  0
  9 11  1  0  0  0  0
  9 29  1  0  0  0  0
  9 30  1  0  0  0  0
 10 12  1  0  0  0  0
 10 31  1  0  0  0  0
 10 32  1  0  0  0  0
 11 33  1  0  0  0  0
 11 34  1  0  0  0  0
 11 35  1  0  0  0  0
 12 36  1  0  0  0  0
 12 37  1  0  0  0  0
 12 38  1  0  0  0  0
M  END
> <PUBCHEM_COMPOUND_CID>
94213

> <PUBCHEM_CONFORMER_RMSD>
0.8

> <PUBCHEM_CONFORMER_DIVERSEORDER>
1
119
94
124
3
104
163
97
126
26
24
135
17
168
35
13
133
101
27
162
139
7
11
177
145
53
99
37
32
76
137
19
165
132
42
180
22
169
16
176
18
171
55
85
129
2
73
81
79
74
115
39
174
57
92
143
9
89
65
172
34
95
77
116
98
40
93
160
46
61
6
47
66
51
178
50
48
90
91
21
136
159
68
33
146
72
84
148
59
155
56
161
14
4
83
108
10
88
152
38
12
52
170
5
20
15
44
128
75
105
173
60
62
109
80
64
8
30
144
167
111
113
70
134
25
122
166
29
23
103
78
106
149
86
67
142
58
41
154
157
100
69
125
131
43
158
138
147
45
140
107
31
156
71
49
141
36
120
28
123
121
164
153
96
114
130
175
150
102
63
127
54
112
110
118
117
179
87
151
82

> <PUBCHEM_MMFF94_PARTIAL_CHARGES>
0

> <PUBCHEM_EFFECTIVE_ROTOR_COUNT>
8

> <PUBCHEM_PHARMACOPHORE_FEATURES>
3
1 11 hydrophobe
1 12 hydrophobe
1 7 hydrophobe

> <PUBCHEM_HEAVY_ATOM_COUNT>
12

> <PUBCHEM_ATOM_DEF_STEREO_COUNT>
0

> <PUBCHEM_ATOM_UDEF_STEREO_COUNT>
1

> <PUBCHEM_BOND_DEF_STEREO_COUNT>
0

> <PUBCHEM_BOND_UDEF_STEREO_COUNT>
0

> <PUBCHEM_ISOTOPIC_ATOM_COUNT>
0

> <PUBCHEM_COMPONENT_COUNT>
1

> <PUBCHEM_CACTVS_TAUTO_COUNT>
1

> <PUBCHEM_CONFORMER_ID>
0001700500000001

> <PUBCHEM_MMFF94_ENERGY>
0.8956

> <PUBCHEM_FEATURE_SELFOVERLAP>
15.223

> <PUBCHEM_SHAPE_FINGERPRINT>
12091667 2 18272933826259164961
12714333 28 18410855464465463536
12815109 37 14056719045654852749
13533116 47 16588293961463333288
14123238 8 17894348874159984429
1420 363 18410580591180521531
14251718 22 18060419123304108503
14251764 46 18410009939991944837
15048467 5 18409448068597840101
15242439 84 13254792443586894487
17834072 33 17775000202421130941
17834072 8 18201726154593392206
17834076 25 18334575745982513141
187816 3 17989210352153179042
20279233 1 17023193699675880299
20605781 2 18410292527781962056
20645477 70 18271245997710243439
20767249 13 9007060166704759628
20767249 213 17968097537976123661
22224240 67 17676766552013911762
23035841 295 17346598573528199487
23402539 116 17988920093520033180
23402655 69 18271240534964912669
23521765 1 18341895194646044373
3545911 37 18411138039254443343
366044 4 18408886252668798338
42630746 31 18410855422175647762
42788 4 18202002131294766289
8209 1 18273496775970019228

> <PUBCHEM_SHAPE_MULTIPOLES>
246.95
15.52
1.03
0.68
4.32
0.4
0
-2.88
-1.39
-0.38
0.13
-0.02
0.02
-0.13

> <PUBCHEM_SHAPE_SELFOVERLAP>
436.383

> <PUBCHEM_SHAPE_VOLUME>
163.1

> <PUBCHEM_COORDINATE_TYPE>
2
5
10

$$$$
