519254
  -OEChem-09062002223D

 38 37  0     1  0  0  0  0  0999 V2000
   -0.8960    0.5666   -0.0643 C   0  0  2  0  0  0  0  0  0  0  0  0
    0.5720    0.3240    0.4289 C   0  0  1  0  0  0  0  0  0  0  0  0
   -1.7202   -0.7256   -0.2897 C   0  0  0  0  0  0  0  0  0  0  0  0
    1.4782   -0.4645   -0.5509 C   0  0  0  0  0  0  0  0  0  0  0  0
   -0.9775    1.4753   -1.3167 C   0  0  0  0  0  0  0  0  0  0  0  0
    1.3054    1.5836    0.9550 C   0  0  0  0  0  0  0  0  0  0  0  0
   -1.7942   -1.6099    0.9632 C   0  0  0  0  0  0  0  0  0  0  0  0
    2.8843   -0.8138   -0.0639 C   0  0  0  0  0  0  0  0  0  0  0  0
   -2.4000    1.8127   -1.7455 C   0  0  0  0  0  0  0  0  0  0  0  0
    0.5638    2.3109    2.0689 C   0  0  0  0  0  0  0  0  0  0  0  0
   -2.6595   -2.8384    0.7235 C   0  0  0  0  0  0  0  0  0  0  0  0
    3.6439   -1.6210   -1.1085 C   0  0  0  0  0  0  0  0  0  0  0  0
   -1.4189    1.1002    0.7403 H   0  0  0  0  0  0  0  0  0  0  0  0
    0.4930   -0.3125    1.3196 H   0  0  0  0  0  0  0  0  0  0  0  0
   -1.3055   -1.2976   -1.1278 H   0  0  0  0  0  0  0  0  0  0  0  0
   -2.7503   -0.4713   -0.5617 H   0  0  0  0  0  0  0  0  0  0  0  0
    1.5732    0.1122   -1.4793 H   0  0  0  0  0  0  0  0  0  0  0  0
    0.9714   -1.3987   -0.8207 H   0  0  0  0  0  0  0  0  0  0  0  0
   -0.4558    2.4169   -1.1118 H   0  0  0  0  0  0  0  0  0  0  0  0
   -0.4623    1.0035   -2.1609 H   0  0  0  0  0  0  0  0  0  0  0  0
    2.2762    1.3026    1.3751 H   0  0  0  0  0  0  0  0  0  0  0  0
    1.5075    2.2784    0.1323 H   0  0  0  0  0  0  0  0  0  0  0  0
   -2.1999   -1.0366    1.8043 H   0  0  0  0  0  0  0  0  0  0  0  0
   -0.7988   -1.9619    1.2494 H   0  0  0  0  0  0  0  0  0  0  0  0
    2.8254   -1.3848    0.8693 H   0  0  0  0  0  0  0  0  0  0  0  0
    3.4647    0.0921    0.1352 H   0  0  0  0  0  0  0  0  0  0  0  0
   -2.3802    2.6037   -2.5027 H   0  0  0  0  0  0  0  0  0  0  0  0
   -2.9954    2.1716   -0.9003 H   0  0  0  0  0  0  0  0  0  0  0  0
   -2.9042    0.9531   -2.1961 H   0  0  0  0  0  0  0  0  0  0  0  0
    0.2901    1.6247    2.8764 H   0  0  0  0  0  0  0  0  0  0  0  0
    1.2007    3.0946    2.4924 H   0  0  0  0  0  0  0  0  0  0  0  0
   -0.3435    2.7958    1.6975 H   0  0  0  0  0  0  0  0  0  0  0  0
   -3.6849   -2.5524    0.4683 H   0  0  0  0  0  0  0  0  0  0  0  0
   -2.2586   -3.4472   -0.0932 H   0  0  0  0  0  0  0  0  0  0  0  0
   -2.6947   -3.4589    1.6245 H   0  0  0  0  0  0  0  0  0  0  0  0
    4.6484   -1.8597   -0.7454 H   0  0  0  0  0  0  0  0  0  0  0  0
    3.1298   -2.5625   -1.3268 H   0  0  0  0  0  0  0  0  0  0  0  0
    3.7447   -1.0590   -2.0425 H   0  0  0  0  0  0  0  0  0  0  0  0
  1  2  1  0  0  0  0
  1  3  1  0  0  0  0
  1  5  1  0  0  0  0
  1 13  1  0  0  0  0
  2  4  1  0  0  0  0
  2  6  1  0  0  0  0
  2 14  1  0  0  0  0
  3  7  1  0  0  0  0
  3 15  1  0  0  0  0
  3 16  1  0  0  0  0
  4  8  1  0  0  0  0
  4 17  1  0  0  0  0
  4 18  1  0  0  0  0
  5  9  1  0  0  0  0
  5 19  1  0  0  0  0
  5 20  1  0  0  0  0
  6 10  1  0  0  0  0
  6 21  1  0  0  0  0
  6 22  1  0  0  0  0
  7 11  1  0  0  0  0
  7 23  1  0  0  0  0
  7 24  1  0  0  0  0
  8 12  1  0  0  0  0
  8 25  1  0  0  0  0
  8 26  1  0  0  0  0
  9 27  1  0  0  0  0
  9 28  1  0  0  0  0
  9 29  1  0  0  0  0
 10 30  1  0  0  0  0
 10 31  1  0  0  0  0
 10 32  1  0  0  0  0
 11 33  1  0  0  0  0
 11 34  1  0  0  0  0
 11 35  1  0  0  0  0
 12 36  1  0  0  0  0
 12 37  1  0  0  0  0
 12 38  1  0  0  0  0
M  END
> <PUBCHEM_COMPOUND_CID>
519254

> <PUBCHEM_CONFORMER_RMSD>
0.8

> <PUBCHEM_CONFORMER_DIVERSEORDER>
10
24
8
13
29
9
31
6
23
4
12
20
1
32
5
25
3
26
11
30
7
22
18
28
2
27
15
14
17
19
21
16

> <PUBCHEM_MMFF94_PARTIAL_CHARGES>
0

> <PUBCHEM_EFFECTIVE_ROTOR_COUNT>
7

> <PUBCHEM_PHARMACOPHORE_FEATURES>
9
1 10 hydrophobe
1 11 hydrophobe
1 12 hydrophobe
1 9 hydrophobe
4 1 2 5 6 hydrophobe
4 1 3 5 7 hydrophobe
4 2 4 6 8 hydrophobe
5 1 2 3 6 7 hydrophobe
5 1 2 4 5 8 hydrophobe

> <PUBCHEM_HEAVY_ATOM_COUNT>
12

> <PUBCHEM_ATOM_DEF_STEREO_COUNT>
0

> <PUBCHEM_ATOM_UDEF_STEREO_COUNT>
2

> <PUBCHEM_BOND_DEF_STEREO_COUNT>
0

> <PUBCHEM_BOND_UDEF_STEREO_COUNT>
0

> <PUBCHEM_ISOTOPIC_ATOM_COUNT>
0

> <PUBCHEM_COMPONENT_COUNT>
1

> <PUBCHEM_CACTVS_TAUTO_COUNT>
1

> <PUBCHEM_CONFORMER_ID>
0007EC560000000A

> <PUBCHEM_MMFF94_ENERGY>
12.7764

> <PUBCHEM_FEATURE_SELFOVERLAP>
61.594

> <PUBCHEM_SHAPE_FINGERPRINT>
12423570 1 15662229978977681808
14817 1 17124287123285839009
15501101 241 18053393380961759475
15502708 8 17968102997000902447
16945 1 18189331269249558188
17841504 4 18059025010710223699
18380122 1 17977649128683458057
18534176 82 18262802848057188574
19873495 37 16154564038364480732
20379382 53 17843127162358823720
20645476 183 17678457446278829422
20711978 78 17844525711068726888
20711985 344 17822001043227575691
20871998 22 17899417768624459195
21061003 4 17989216949091395002
21930827 45 18115285818313105933
23526113 38 18271225154449642426
23557571 272 17968933235659408276
23559900 14 18265606586467514914
2748010 2 18266724939045485117
298252 57 17025437682158768684
3250762 1 18338226171673562389
57003041 14 18338813285049531602
68419 9 16371545047513748457
76951 1 17476034022758099233
81228 2 18042106813083699069
88987 49 17677871518292487932

> <PUBCHEM_SHAPE_MULTIPOLES>
246.95
4.52
2.98
1.72
2.75
0.55
-0.16
3.41
1.5
-1.59
-0.83
-0.3
-1.19
2.44

> <PUBCHEM_SHAPE_SELFOVERLAP>
439.045

> <PUBCHEM_SHAPE_VOLUME>
162.9

> <PUBCHEM_COORDINATE_TYPE>
2
5
10

$$$$
