26375
  -OEChem-09062002113D

 29 28  0     1  0  0  0  0  0999 V2000
   -0.9799   -0.7149   -0.3591 C   0  0  1  0  0  0  0  0  0  0  0  0
   -1.4779    0.7508   -0.2028 C   0  0  0  0  0  0  0  0  0  0  0  0
    0.4444   -0.9595    0.1922 C   0  0  0  0  0  0  0  0  0  0  0  0
    1.4961    0.0178   -0.3409 C   0  0  0  0  0  0  0  0  0  0  0  0
   -1.9308   -1.7465    0.2651 C   0  0  0  0  0  0  0  0  0  0  0  0
   -2.8720    0.9509   -0.8096 C   0  0  0  0  0  0  0  0  0  0  0  0
   -1.4708    1.2586    1.2415 C   0  0  0  0  0  0  0  0  0  0  0  0
    2.8741   -0.2721    0.2567 C   0  0  0  0  0  0  0  0  0  0  0  0
    3.9168    0.7151   -0.2431 C   0  0  0  0  0  0  0  0  0  0  0  0
   -0.9446   -0.9271   -1.4370 H   0  0  0  0  0  0  0  0  0  0  0  0
   -0.8074    1.3972   -0.7824 H   0  0  0  0  0  0  0  0  0  0  0  0
    0.7517   -1.9817   -0.0651 H   0  0  0  0  0  0  0  0  0  0  0  0
    0.4293   -0.9133    1.2884 H   0  0  0  0  0  0  0  0  0  0  0  0
    1.5417   -0.0515   -1.4342 H   0  0  0  0  0  0  0  0  0  0  0  0
    1.2285    1.0489   -0.0897 H   0  0  0  0  0  0  0  0  0  0  0  0
   -1.5499   -2.7622    0.1103 H   0  0  0  0  0  0  0  0  0  0  0  0
   -2.9238   -1.7077   -0.1919 H   0  0  0  0  0  0  0  0  0  0  0  0
   -2.0408   -1.5959    1.3434 H   0  0  0  0  0  0  0  0  0  0  0  0
   -3.6504    0.4571   -0.2194 H   0  0  0  0  0  0  0  0  0  0  0  0
   -3.1207    2.0172   -0.8504 H   0  0  0  0  0  0  0  0  0  0  0  0
   -2.9131    0.5623   -1.8324 H   0  0  0  0  0  0  0  0  0  0  0  0
   -0.4712    1.2159    1.6828 H   0  0  0  0  0  0  0  0  0  0  0  0
   -2.1493    0.6805    1.8766 H   0  0  0  0  0  0  0  0  0  0  0  0
   -1.7953    2.3045    1.2801 H   0  0  0  0  0  0  0  0  0  0  0  0
    2.8252   -0.2179    1.3505 H   0  0  0  0  0  0  0  0  0  0  0  0
    3.1863   -1.2898   -0.0046 H   0  0  0  0  0  0  0  0  0  0  0  0
    4.0119    0.6668   -1.3326 H   0  0  0  0  0  0  0  0  0  0  0  0
    4.8942    0.4874    0.1937 H   0  0  0  0  0  0  0  0  0  0  0  0
    3.6516    1.7403    0.0340 H   0  0  0  0  0  0  0  0  0  0  0  0
  1  2  1  0  0  0  0
  1  3  1  0  0  0  0
  1  5  1  0  0  0  0
  1 10  1  0  0  0  0
  2  6  1  0  0  0  0
  2  7  1  0  0  0  0
  2 11  1  0  0  0  0
  3  4  1  0  0  0  0
  3 12  1  0  0  0  0
  3 13  1  0  0  0  0
  4  8  1  0  0  0  0
  4 14  1  0  0  0  0
  4 15  1  0  0  0  0
  5 16  1  0  0  0  0
  5 17  1  0  0  0  0
  5 18  1  0  0  0  0
  6 19  1  0  0  0  0
  6 20  1  0  0  0  0
  6 21  1  0  0  0  0
  7 22  1  0  0  0  0
  7 23  1  0  0  0  0
  7 24  1  0  0  0  0
  8  9  1  0  0  0  0
  8 25  1  0  0  0  0
  8 26  1  0  0  0  0
  9 27  1  0  0  0  0
  9 28  1  0  0  0  0
  9 29  1  0  0  0  0
M  END
> <PUBCHEM_COMPOUND_CID>
26375

> <PUBCHEM_CONFORMER_RMSD>
0.6

> <PUBCHEM_CONFORMER_DIVERSEORDER>
1
6
35
41
17
45
38
13
30
16
42
4
44
27
39
11
18
2
33
21
40
15
14
34
22
43
8
37
9
26
12
10
32
19
23
36
25
3
28
7
24
31
5
29
20

> <PUBCHEM_MMFF94_PARTIAL_CHARGES>
0

> <PUBCHEM_EFFECTIVE_ROTOR_COUNT>
4

> <PUBCHEM_PHARMACOPHORE_FEATURES>
4
1 5 hydrophobe
1 9 hydrophobe
3 2 6 7 hydrophobe
5 1 2 3 4 8 hydrophobe

> <PUBCHEM_HEAVY_ATOM_COUNT>
9

> <PUBCHEM_ATOM_DEF_STEREO_COUNT>
0

> <PUBCHEM_ATOM_UDEF_STEREO_COUNT>
1

> <PUBCHEM_BOND_DEF_STEREO_COUNT>
0

> <PUBCHEM_BOND_UDEF_STEREO_COUNT>
0

> <PUBCHEM_ISOTOPIC_ATOM_COUNT>
0

> <PUBCHEM_COMPONENT_COUNT>
1

> <PUBCHEM_CACTVS_TAUTO_COUNT>
1

> <PUBCHEM_CONFORMER_ID>
0000670700000001

> <PUBCHEM_MMFF94_ENERGY>
7.3175

> <PUBCHEM_FEATURE_SELFOVERLAP>
20.313

> <PUBCHEM_SHAPE_FINGERPRINT>
12897270 3 16845279523582006196
12932764 1 17894916200653464334
13024252 1 14634868656571920575
14325111 11 18334574651029720238
14390081 3 18273493459959796136
15310529 11 16271642274220674245
15775835 57 18186518787299108324
19837323 101 17560253418047776697
20653085 51 18188494570791466356
20828058 34 18413108338237237708
21293036 1 18272359867740256717
23235685 24 18342452599981361297
3248919 1 18202282468542915502
369184 2 17749106686080154250

> <PUBCHEM_SHAPE_MULTIPOLES>
185.22
5.43
1.52
0.92
5.45
0.33
-0.15
-1.51
0.68
-1.06
-0.2
-0.43
-0.26
-0.02

> <PUBCHEM_SHAPE_SELFOVERLAP>
326.563

> <PUBCHEM_SHAPE_VOLUME>
123.8

> <PUBCHEM_COORDINATE_TYPE>
2
5
10

$$$$
