49799270
  -OEChem-09062002592D

198208  0     1  0  0  0  0  0999 V2000
   21.8779    3.4840    0.0000 O   0  0  0  0  0  0  0  0  0  0  0  0
   20.0774    5.2758    0.0000 O   0  0  0  0  0  0  0  0  0  0  0  0
   12.9292    0.4664    0.0000 O   0  0  0  0  0  0  0  0  0  0  0  0
   13.7953    1.9664    0.0000 O   0  0  0  0  0  0  0  0  0  0  0  0
   23.6098    3.4640    0.0000 O   0  0  0  0  0  0  0  0  0  0  0  0
   21.8547    1.4841    0.0000 O   0  0  0  0  0  0  0  0  0  0  0  0
   11.1972    0.4664    0.0000 O   0  0  0  0  0  0  0  0  0  0  0  0
   23.5751    0.4642    0.0000 O   0  0  0  0  0  0  0  0  0  0  0  0
   25.3186    1.4441    0.0000 O   0  0  0  0  0  0  0  0  0  0  0  0
   12.9292    2.4664    0.0000 O   0  0  0  0  0  0  0  0  0  0  0  0
   11.1972    3.4664    0.0000 O   0  0  0  0  0  0  0  0  0  0  0  0
   22.7034   -0.0258    0.0000 O   0  0  0  0  0  0  0  0  0  0  0  0
    9.4651    2.4664    0.0000 O   0  0  0  0  0  0  0  0  0  0  0  0
    9.4651   -0.5336    0.0000 O   0  0  0  0  0  0  0  0  0  0  0  0
   20.1112    0.5042    0.0000 O   0  0  0  0  0  0  0  0  0  0  0  0
   20.0881   -1.4956    0.0000 O   0  0  0  0  0  0  0  0  0  0  0  0
   21.8085   -2.5156    0.0000 O   0  0  0  0  0  0  0  0  0  0  0  0
    7.7331   -0.5336    0.0000 O   0  0  0  0  0  0  0  0  0  0  0  0
   20.9367   -3.0056    0.0000 O   0  0  0  0  0  0  0  0  0  0  0  0
    9.4651   -2.5336    0.0000 O   0  0  0  0  0  0  0  0  0  0  0  0
   18.3446   -2.4755    0.0000 O   0  0  0  0  0  0  0  0  0  0  0  0
    7.7331   -3.5336    0.0000 O   0  0  0  0  0  0  0  0  0  0  0  0
    6.0010   -2.5336    0.0000 O   0  0  0  0  0  0  0  0  0  0  0  0
   18.3215   -4.4754    0.0000 O   0  0  0  0  0  0  0  0  0  0  0  0
   20.0419   -5.4954    0.0000 O   0  0  0  0  0  0  0  0  0  0  0  0
    6.0010    0.4664    0.0000 O   0  0  0  0  0  0  0  0  0  0  0  0
    4.2690   -2.5336    0.0000 O   0  0  0  0  0  0  0  0  0  0  0  0
    6.0010   -0.5336    0.0000 O   0  0  0  0  0  0  0  0  0  0  0  0
    4.2690    0.4664    0.0000 O   0  0  0  0  0  0  0  0  0  0  0  0
    2.5369   -0.5336    0.0000 O   0  0  0  0  0  0  0  0  0  0  0  0
   17.3390    1.9666    0.0000 C   0  0  2  0  0  0  0  0  0  0  0  0
   18.2011    1.4600    0.0000 C   0  0  1  0  0  0  0  0  0  0  0  0
   19.1150    1.9598    0.0000 C   0  0  2  0  0  0  0  0  0  0  0  0
   16.4691    1.4733    0.0000 C   0  0  1  0  0  0  0  0  0  0  0  0
   19.1311    3.0013    0.0000 C   0  0  2  0  0  0  0  0  0  0  0  0
   17.3309    3.0082    0.0000 C   0  0  0  0  0  0  0  0  0  0  0  0
   20.0707    3.5438    0.0000 C   0  0  1  0  0  0  0  0  0  0  0  0
   18.2330    3.5290    0.0000 C   0  0  0  0  0  0  0  0  0  0  0  0
   16.4614    0.4733    0.0000 C   0  0  0  0  0  0  0  0  0  0  0  0
   20.0375    1.3886    0.0000 C   0  0  0  0  0  0  0  0  0  0  0  0
   18.1934    0.4600    0.0000 C   0  0  0  0  0  0  0  0  0  0  0  0
   15.5634   -0.0544    0.0000 C   0  0  1  0  0  0  0  0  0  0  0  0
   15.5793    2.0148    0.0000 C   0  0  0  0  0  0  0  0  0  0  0  0
   14.6613    0.4664    0.0000 C   0  0  1  0  0  0  0  0  0  0  0  0
   21.0061    2.9940    0.0000 C   0  0  2  0  0  0  0  0  0  0  0  0
   16.7021    2.7376    0.0000 C   0  0  0  0  0  0  0  0  0  0  0  0
   14.6693    1.5080    0.0000 C   0  0  0  0  0  0  0  0  0  0  0  0
   19.0996    0.9599    0.0000 C   0  0  0  0  0  0  0  0  0  0  0  0
   20.9894    1.9092    0.0000 C   0  0  0  0  0  0  0  0  0  0  0  0
   17.3236   -0.0333    0.0000 C   0  0  0  0  0  0  0  0  0  0  0  0
   16.1343    2.4156    0.0000 C   0  0  0  0  0  0  0  0  0  0  0  0
   15.5801   -1.1393    0.0000 C   0  0  0  0  0  0  0  0  0  0  0  0
   13.7134   -0.0615    0.0000 C   0  0  0  0  0  0  0  0  0  0  0  0
   14.6447   -1.6890    0.0000 C   0  0  0  0  0  0  0  0  0  0  0  0
   20.5740    4.4079    0.0000 C   0  0  0  0  0  0  0  0  0  0  0  0
   19.5740    4.4117    0.0000 C   0  0  0  0  0  0  0  0  0  0  0  0
   13.7050   -1.1465    0.0000 C   0  0  0  0  0  0  0  0  0  0  0  0
   13.7953    0.9664    0.0000 C   0  0  0  0  0  0  0  0  0  0  0  0
   15.1480   -2.5531    0.0000 C   0  0  0  0  0  0  0  0  0  0  0  0
   14.1480   -2.5570    0.0000 C   0  0  0  0  0  0  0  0  0  0  0  0
   22.7380    2.9740    0.0000 C   0  0  2  0  0  0  0  0  0  0  0  0
   22.7265    1.9741    0.0000 C   0  0  1  0  0  0  0  0  0  0  0  0
   12.0632    0.9664    0.0000 C   0  0  2  0  0  0  0  0  0  0  0  0
   23.5867    1.4641    0.0000 C   0  0  2  0  0  0  0  0  0  0  0  0
   24.4700    2.9540    0.0000 C   0  0  0  0  0  0  0  0  0  0  0  0
   24.4584    1.9541    0.0000 C   0  0  2  0  0  0  0  0  0  0  0  0
   12.0632    1.9664    0.0000 C   0  0  1  0  0  0  0  0  0  0  0  0
   11.1972    2.4664    0.0000 C   0  0  2  0  0  0  0  0  0  0  0  0
   10.3312    0.9664    0.0000 C   0  0  1  0  0  0  0  0  0  0  0  0
   10.3312    1.9664    0.0000 C   0  0  1  0  0  0  0  0  0  0  0  0
   21.8432    0.4842    0.0000 C   0  0  2  0  0  0  0  0  0  0  0  0
   20.9714   -0.0057    0.0000 C   0  0  1  0  0  0  0  0  0  0  0  0
    9.4651    0.4664    0.0000 C   0  0  0  0  0  0  0  0  0  0  0  0
   20.9599   -1.0057    0.0000 C   0  0  1  0  0  0  0  0  0  0  0  0
   22.6918   -1.0257    0.0000 C   0  0  2  0  0  0  0  0  0  0  0  0
   21.8200   -1.5157    0.0000 C   0  0  2  0  0  0  0  0  0  0  0  0
   23.5520   -1.5357    0.0000 C   0  0  0  0  0  0  0  0  0  0  0  0
    8.5991   -1.0336    0.0000 C   0  0  2  0  0  0  0  0  0  0  0  0
   20.0765   -2.4956    0.0000 C   0  0  2  0  0  0  0  0  0  0  0  0
    8.5991   -2.0336    0.0000 C   0  0  1  0  0  0  0  0  0  0  0  0
   19.2048   -2.9855    0.0000 C   0  0  1  0  0  0  0  0  0  0  0  0
    7.7331   -2.5336    0.0000 C   0  0  2  0  0  0  0  0  0  0  0  0
    6.8671   -1.0336    0.0000 C   0  0  1  0  0  0  0  0  0  0  0  0
    6.8671   -2.0336    0.0000 C   0  0  1  0  0  0  0  0  0  0  0  0
   19.1932   -3.9854    0.0000 C   0  0  1  0  0  0  0  0  0  0  0  0
   20.9252   -4.0055    0.0000 C   0  0  0  0  0  0  0  0  0  0  0  0
   20.0534   -4.4954    0.0000 C   0  0  1  0  0  0  0  0  0  0  0  0
    6.0010   -0.5336    0.0000 C   0  0  0  0  0  0  0  0  0  0  0  0
    5.1350   -2.0336    0.0000 C   0  0  2  0  0  0  0  0  0  0  0  0
    5.1350   -1.0336    0.0000 C   0  0  1  0  0  0  0  0  0  0  0  0
    4.2690   -0.5336    0.0000 C   0  0  1  0  0  0  0  0  0  0  0  0
    3.4030   -2.0336    0.0000 C   0  0  2  0  0  0  0  0  0  0  0  0
    3.4030   -1.0336    0.0000 C   0  0  2  0  0  0  0  0  0  0  0  0
    2.5369   -2.5336    0.0000 C   0  0  0  0  0  0  0  0  0  0  0  0
   18.9306    1.0237    0.0000 H   0  0  0  0  0  0  0  0  0  0  0  0
   19.1343    3.8513    0.0000 H   0  0  0  0  0  0  0  0  0  0  0  0
   17.1174    3.5903    0.0000 H   0  0  0  0  0  0  0  0  0  0  0  0
   16.7209    2.8974    0.0000 H   0  0  0  0  0  0  0  0  0  0  0  0
   18.6340    4.0019    0.0000 H   0  0  0  0  0  0  0  0  0  0  0  0
   17.8357    4.0050    0.0000 H   0  0  0  0  0  0  0  0  0  0  0  0
   19.6257    0.9251    0.0000 H   0  0  0  0  0  0  0  0  0  0  0  0
   20.4237    0.9035    0.0000 H   0  0  0  0  0  0  0  0  0  0  0  0
   18.4010   -0.1242    0.0000 H   0  0  0  0  0  0  0  0  0  0  0  0
   18.8048    0.5629    0.0000 H   0  0  0  0  0  0  0  0  0  0  0  0
   16.3044   -0.4709    0.0000 H   0  0  0  0  0  0  0  0  0  0  0  0
   15.9875    2.4815    0.0000 H   0  0  0  0  0  0  0  0  0  0  0  0
   15.1894    2.4969    0.0000 H   0  0  0  0  0  0  0  0  0  0  0  0
   21.5388    2.6768    0.0000 H   0  0  0  0  0  0  0  0  0  0  0  0
   17.1801    3.1324    0.0000 H   0  0  0  0  0  0  0  0  0  0  0  0
   16.3073    3.2156    0.0000 H   0  0  0  0  0  0  0  0  0  0  0  0
   16.2241    2.3427    0.0000 H   0  0  0  0  0  0  0  0  0  0  0  0
   14.4648    2.0933    0.0000 H   0  0  0  0  0  0  0  0  0  0  0  0
   14.0577    1.4066    0.0000 H   0  0  0  0  0  0  0  0  0  0  0  0
   18.4797    0.9695    0.0000 H   0  0  0  0  0  0  0  0  0  0  0  0
   19.0900    0.3400    0.0000 H   0  0  0  0  0  0  0  0  0  0  0  0
   19.7195    0.9503    0.0000 H   0  0  0  0  0  0  0  0  0  0  0  0
   21.1894    1.3223    0.0000 H   0  0  0  0  0  0  0  0  0  0  0  0
   21.6018    2.0058    0.0000 H   0  0  0  0  0  0  0  0  0  0  0  0
   17.3188   -0.6533    0.0000 H   0  0  0  0  0  0  0  0  0  0  0  0
   16.7186    2.6232    0.0000 H   0  0  0  0  0  0  0  0  0  0  0  0
   15.9268    2.9998    0.0000 H   0  0  0  0  0  0  0  0  0  0  0  0
   15.5501    2.2081    0.0000 H   0  0  0  0  0  0  0  0  0  0  0  0
   15.7981   -1.7197    0.0000 H   0  0  0  0  0  0  0  0  0  0  0  0
   16.1892   -1.0238    0.0000 H   0  0  0  0  0  0  0  0  0  0  0  0
   13.5089    0.5237    0.0000 H   0  0  0  0  0  0  0  0  0  0  0  0
   13.1018   -0.1629    0.0000 H   0  0  0  0  0  0  0  0  0  0  0  0
   21.0474    4.0075    0.0000 H   0  0  0  0  0  0  0  0  0  0  0  0
   21.0505    4.8046    0.0000 H   0  0  0  0  0  0  0  0  0  0  0  0
   20.1122    4.7196    0.0000 H   0  0  0  0  0  0  0  0  0  0  0  0
   19.2661    4.9498    0.0000 H   0  0  0  0  0  0  0  0  0  0  0  0
   19.0359    4.1038    0.0000 H   0  0  0  0  0  0  0  0  0  0  0  0
   13.0950   -1.0357    0.0000 H   0  0  0  0  0  0  0  0  0  0  0  0
   13.4915   -1.7286    0.0000 H   0  0  0  0  0  0  0  0  0  0  0  0
   14.6123   -2.8652    0.0000 H   0  0  0  0  0  0  0  0  0  0  0  0
   15.4601   -3.0888    0.0000 H   0  0  0  0  0  0  0  0  0  0  0  0
   15.6837   -2.2410    0.0000 H   0  0  0  0  0  0  0  0  0  0  0  0
   13.6099   -2.2490    0.0000 H   0  0  0  0  0  0  0  0  0  0  0  0
   13.8401   -3.0951    0.0000 H   0  0  0  0  0  0  0  0  0  0  0  0
   14.6861   -2.8649    0.0000 H   0  0  0  0  0  0  0  0  0  0  0  0
   22.1976    2.6702    0.0000 H   0  0  0  0  0  0  0  0  0  0  0  0
   20.3894    5.8116    0.0000 H   0  0  0  0  0  0  0  0  0  0  0  0
   22.7193    1.3541    0.0000 H   0  0  0  0  0  0  0  0  0  0  0  0
   12.6002    1.2764    0.0000 H   0  0  0  0  0  0  0  0  0  0  0  0
   24.1200    1.1479    0.0000 H   0  0  0  0  0  0  0  0  0  0  0  0
   25.0793    2.8393    0.0000 H   0  0  0  0  0  0  0  0  0  0  0  0
   24.6888    3.5341    0.0000 H   0  0  0  0  0  0  0  0  0  0  0  0
   24.9989    2.2578    0.0000 H   0  0  0  0  0  0  0  0  0  0  0  0
   12.0632    2.5864    0.0000 H   0  0  0  0  0  0  0  0  0  0  0  0
   10.6603    2.7764    0.0000 H   0  0  0  0  0  0  0  0  0  0  0  0
   10.3312    0.3464    0.0000 H   0  0  0  0  0  0  0  0  0  0  0  0
    9.7942    1.6564    0.0000 H   0  0  0  0  0  0  0  0  0  0  0  0
   21.3099    0.8004    0.0000 H   0  0  0  0  0  0  0  0  0  0  0  0
   24.1084    0.1480    0.0000 H   0  0  0  0  0  0  0  0  0  0  0  0
   25.8591    1.7478    0.0000 H   0  0  0  0  0  0  0  0  0  0  0  0
   12.9292    3.0864    0.0000 H   0  0  0  0  0  0  0  0  0  0  0  0
   20.4309   -0.3095    0.0000 H   0  0  0  0  0  0  0  0  0  0  0  0
    9.2531    1.0490    0.0000 H   0  0  0  0  0  0  0  0  0  0  0  0
    8.8546    0.3587    0.0000 H   0  0  0  0  0  0  0  0  0  0  0  0
   11.7341    3.7764    0.0000 H   0  0  0  0  0  0  0  0  0  0  0  0
   20.9527   -1.6256    0.0000 H   0  0  0  0  0  0  0  0  0  0  0  0
    9.4651    3.0864    0.0000 H   0  0  0  0  0  0  0  0  0  0  0  0
   23.2323   -0.7219    0.0000 H   0  0  0  0  0  0  0  0  0  0  0  0
   22.3534   -1.8318    0.0000 H   0  0  0  0  0  0  0  0  0  0  0  0
   19.5708    0.2005    0.0000 H   0  0  0  0  0  0  0  0  0  0  0  0
   23.2358   -2.0690    0.0000 H   0  0  0  0  0  0  0  0  0  0  0  0
   24.0853   -1.8519    0.0000 H   0  0  0  0  0  0  0  0  0  0  0  0
   23.8682   -1.0024    0.0000 H   0  0  0  0  0  0  0  0  0  0  0  0
    8.5991   -0.4136    0.0000 H   0  0  0  0  0  0  0  0  0  0  0  0
   22.3418   -2.8318    0.0000 H   0  0  0  0  0  0  0  0  0  0  0  0
   19.5432   -2.1794    0.0000 H   0  0  0  0  0  0  0  0  0  0  0  0
    8.5991   -2.6536    0.0000 H   0  0  0  0  0  0  0  0  0  0  0  0
   19.2120   -2.3656    0.0000 H   0  0  0  0  0  0  0  0  0  0  0  0
    7.1962   -2.8436    0.0000 H   0  0  0  0  0  0  0  0  0  0  0  0
    6.8671   -0.4136    0.0000 H   0  0  0  0  0  0  0  0  0  0  0  0
    6.3301   -1.7236    0.0000 H   0  0  0  0  0  0  0  0  0  0  0  0
   18.6599   -3.6693    0.0000 H   0  0  0  0  0  0  0  0  0  0  0  0
   10.0021   -2.2236    0.0000 H   0  0  0  0  0  0  0  0  0  0  0  0
   21.1305   -4.5905    0.0000 H   0  0  0  0  0  0  0  0  0  0  0  0
   21.5370   -3.9049    0.0000 H   0  0  0  0  0  0  0  0  0  0  0  0
   20.5867   -4.8116    0.0000 H   0  0  0  0  0  0  0  0  0  0  0  0
    5.3905   -0.4259    0.0000 H   0  0  0  0  0  0  0  0  0  0  0  0
    5.7890   -1.1162    0.0000 H   0  0  0  0  0  0  0  0  0  0  0  0
   17.8041   -2.7793    0.0000 H   0  0  0  0  0  0  0  0  0  0  0  0
    8.2700   -3.8436    0.0000 H   0  0  0  0  0  0  0  0  0  0  0  0
   18.3143   -5.0954    0.0000 H   0  0  0  0  0  0  0  0  0  0  0  0
    5.1350   -2.6536    0.0000 H   0  0  0  0  0  0  0  0  0  0  0  0
   20.5752   -5.8116    0.0000 H   0  0  0  0  0  0  0  0  0  0  0  0
    6.5380    0.7764    0.0000 H   0  0  0  0  0  0  0  0  0  0  0  0
    5.1350   -0.4136    0.0000 H   0  0  0  0  0  0  0  0  0  0  0  0
    3.7320   -0.2236    0.0000 H   0  0  0  0  0  0  0  0  0  0  0  0
    3.4030   -2.6536    0.0000 H   0  0  0  0  0  0  0  0  0  0  0  0
    3.4030   -0.4136    0.0000 H   0  0  0  0  0  0  0  0  0  0  0  0
    6.0010    0.0864    0.0000 H   0  0  0  0  0  0  0  0  0  0  0  0
    2.2269   -1.9967    0.0000 H   0  0  0  0  0  0  0  0  0  0  0  0
    2.0000   -2.8436    0.0000 H   0  0  0  0  0  0  0  0  0  0  0  0
    2.8469   -3.0705    0.0000 H   0  0  0  0  0  0  0  0  0  0  0  0
    3.7320    0.7764    0.0000 H   0  0  0  0  0  0  0  0  0  0  0  0
    2.0000   -0.8436    0.0000 H   0  0  0  0  0  0  0  0  0  0  0  0
 45  1  1  1  0  0  0
 61  1  1  6  0  0  0
  2 55  1  0  0  0  0
  2141  1  0  0  0  0
  3 58  1  0  0  0  0
 63  3  1  6  0  0  0
  4 58  2  0  0  0  0
  5 61  1  0  0  0  0
  5 65  1  0  0  0  0
 62  6  1  1  0  0  0
 71  6  1  6  0  0  0
  7 63  1  0  0  0  0
  7 69  1  0  0  0  0
 64  8  1  6  0  0  0
  8153  1  0  0  0  0
 66  9  1  6  0  0  0
  9154  1  0  0  0  0
 67 10  1  1  0  0  0
 10155  1  0  0  0  0
 68 11  1  6  0  0  0
 11159  1  0  0  0  0
 12 71  1  0  0  0  0
 12 75  1  0  0  0  0
 70 13  1  1  0  0  0
 13161  1  0  0  0  0
 14 73  1  0  0  0  0
 78 14  1  1  0  0  0
 72 15  1  1  0  0  0
 15164  1  0  0  0  0
 74 16  1  1  0  0  0
 79 16  1  6  0  0  0
 76 17  1  6  0  0  0
 17169  1  0  0  0  0
 18 78  1  0  0  0  0
 18 83  1  0  0  0  0
 19 79  1  0  0  0  0
 19 86  1  0  0  0  0
 80 20  1  6  0  0  0
 20177  1  0  0  0  0
 81 21  1  1  0  0  0
 21183  1  0  0  0  0
 82 22  1  1  0  0  0
 22184  1  0  0  0  0
 84 23  1  6  0  0  0
 89 23  1  6  0  0  0
 85 24  1  1  0  0  0
 24185  1  0  0  0  0
 87 25  1  1  0  0  0
 25187  1  0  0  0  0
 26 88  1  0  0  0  0
 26188  1  0  0  0  0
 27 89  1  0  0  0  0
 27 92  1  0  0  0  0
 90 28  1  1  0  0  0
 28193  1  0  0  0  0
 91 29  1  1  0  0  0
 29197  1  0  0  0  0
 93 30  1  6  0  0  0
 30198  1  0  0  0  0
 31 32  1  0  0  0  0
 31 34  1  0  0  0  0
 31 36  1  0  0  0  0
 31 46  1  1  0  0  0
 32 33  1  0  0  0  0
 32 41  1  0  0  0  0
 32 95  1  6  0  0  0
 33 35  1  0  0  0  0
 33 40  1  0  0  0  0
 33 48  1  1  0  0  0
 34 39  1  0  0  0  0
 34 43  1  0  0  0  0
 34 51  1  6  0  0  0
 35 37  1  0  0  0  0
 35 38  1  0  0  0  0
 35 96  1  6  0  0  0
 36 38  1  0  0  0  0
 36 97  1  0  0  0  0
 36 98  1  0  0  0  0
 37 45  1  0  0  0  0
 37 55  1  0  0  0  0
 37 56  1  1  0  0  0
 38 99  1  0  0  0  0
 38100  1  0  0  0  0
 39 42  1  0  0  0  0
 39 50  2  0  0  0  0
 40 49  1  0  0  0  0
 40101  1  0  0  0  0
 40102  1  0  0  0  0
 41 50  1  0  0  0  0
 41103  1  0  0  0  0
 41104  1  0  0  0  0
 42 44  1  0  0  0  0
 42 52  1  0  0  0  0
 42105  1  1  0  0  0
 43 47  1  0  0  0  0
 43106  1  0  0  0  0
 43107  1  0  0  0  0
 44 47  1  0  0  0  0
 44 53  1  0  0  0  0
 44 58  1  1  0  0  0
 45 49  1  0  0  0  0
 45108  1  0  0  0  0
 46109  1  0  0  0  0
 46110  1  0  0  0  0
 46111  1  0  0  0  0
 47112  1  0  0  0  0
 47113  1  0  0  0  0
 48114  1  0  0  0  0
 48115  1  0  0  0  0
 48116  1  0  0  0  0
 49117  1  0  0  0  0
 49118  1  0  0  0  0
 50119  1  0  0  0  0
 51120  1  0  0  0  0
 51121  1  0  0  0  0
 51122  1  0  0  0  0
 52 54  1  0  0  0  0
 52123  1  0  0  0  0
 52124  1  0  0  0  0
 53 57  1  0  0  0  0
 53125  1  0  0  0  0
 53126  1  0  0  0  0
 54 57  1  0  0  0  0
 54 59  1  0  0  0  0
 54 60  1  0  0  0  0
 55127  1  0  0  0  0
 55128  1  0  0  0  0
 56129  1  0  0  0  0
 56130  1  0  0  0  0
 56131  1  0  0  0  0
 57132  1  0  0  0  0
 57133  1  0  0  0  0
 59134  1  0  0  0  0
 59135  1  0  0  0  0
 59136  1  0  0  0  0
 60137  1  0  0  0  0
 60138  1  0  0  0  0
 60139  1  0  0  0  0
 61 62  1  0  0  0  0
 61140  1  0  0  0  0
 62 64  1  0  0  0  0
 62142  1  0  0  0  0
 63 67  1  0  0  0  0
 63143  1  0  0  0  0
 64 66  1  0  0  0  0
 64144  1  0  0  0  0
 65 66  1  0  0  0  0
 65145  1  0  0  0  0
 65146  1  0  0  0  0
 66147  1  0  0  0  0
 67 68  1  0  0  0  0
 67148  1  0  0  0  0
 68 70  1  0  0  0  0
 68149  1  0  0  0  0
 69 70  1  0  0  0  0
 69 73  1  6  0  0  0
 69150  1  0  0  0  0
 70151  1  0  0  0  0
 71 72  1  0  0  0  0
 71152  1  0  0  0  0
 72 74  1  0  0  0  0
 72156  1  0  0  0  0
 73157  1  0  0  0  0
 73158  1  0  0  0  0
 74 76  1  0  0  0  0
 74160  1  0  0  0  0
 75 76  1  0  0  0  0
 75 77  1  1  0  0  0
 75162  1  0  0  0  0
 76163  1  0  0  0  0
 77165  1  0  0  0  0
 77166  1  0  0  0  0
 77167  1  0  0  0  0
 78 80  1  0  0  0  0
 78168  1  0  0  0  0
 79 81  1  0  0  0  0
 79170  1  0  0  0  0
 80 82  1  0  0  0  0
 80171  1  0  0  0  0
 81 85  1  0  0  0  0
 81172  1  0  0  0  0
 82 84  1  0  0  0  0
 82173  1  0  0  0  0
 83 84  1  0  0  0  0
 83 88  1  1  0  0  0
 83174  1  0  0  0  0
 84175  1  0  0  0  0
 85 87  1  0  0  0  0
 85176  1  0  0  0  0
 86 87  1  0  0  0  0
 86178  1  0  0  0  0
 86179  1  0  0  0  0
 87180  1  0  0  0  0
 88181  1  0  0  0  0
 88182  1  0  0  0  0
 89 90  1  0  0  0  0
 89186  1  0  0  0  0
 90 91  1  0  0  0  0
 90189  1  0  0  0  0
 91 93  1  0  0  0  0
 91190  1  0  0  0  0
 92 93  1  0  0  0  0
 92 94  1  1  0  0  0
 92191  1  0  0  0  0
 93192  1  0  0  0  0
 94194  1  0  0  0  0
 94195  1  0  0  0  0
 94196  1  0  0  0  0
M  END
> <PUBCHEM_COMPOUND_CID>
49799270

> <PUBCHEM_COMPOUND_CANONICALIZED>
1

> <PUBCHEM_CACTVS_COMPLEXITY>
2640

> <PUBCHEM_CACTVS_HBOND_ACCEPTOR>
30

> <PUBCHEM_CACTVS_HBOND_DONOR>
17

> <PUBCHEM_CACTVS_ROTATABLE_BOND>
16

> <PUBCHEM_CACTVS_SUBSKEYS>
AAADcfB8PgAAAAAAAAAAAAAAAAAAAAAAAAA0aNGiQAAAAADAAAAAGgAACAAADxSwgAMCCAAABgCIAiDSCAAAAAAgAAAACAEAAAgREBIAAQAiQAAFgAAPAAPI6PyPgAAAAAAAAADAAAYAADAAAAAAAAAAAA==

> <PUBCHEM_IUPAC_OPENEYE_NAME>
[(2S,3R,4S,5S,6R)-6-[[(2R,3R,4R,5S,6R)-3,4-dihydroxy-6-(hydroxymethyl)-5-[(2S,3R,4R,5R,6S)-3,4,5-trihydroxy-6-methyl-tetrahydropyran-2-yl]oxy-tetrahydropyran-2-yl]oxymethyl]-3,4,5-trihydroxy-tetrahydropyran-2-yl] (4aS,6aR,6aS,6bR,8aR,9R,10S,12aR,14bS)-10-[(2S,3R,4S,5S)-3-[(2S,3R,4R,5S,6S)-3,5-dihydroxy-6-methyl-4-[(2S,3R,4R,5R)-3,4,5-trihydroxytetrahydropyran-2-yl]oxy-tetrahydropyran-2-yl]oxy-4,5-dihydroxy-tetrahydropyran-2-yl]oxy-9-(hydroxymethyl)-2,2,6a,6b,9,12a-hexamethyl-1,3,4,5,6,6a,7,8,8a,10,11,12,13,14b-tetradecahydropicene-4a-carboxylate

> <PUBCHEM_IUPAC_CAS_NAME>
(4aS,6aR,6aS,6bR,8aR,9R,10S,12aR,14bS)-10-[[(2S,3R,4S,5S)-3-[[(2S,3R,4R,5S,6S)-3,5-dihydroxy-6-methyl-4-[[(2S,3R,4R,5R)-3,4,5-trihydroxy-2-oxanyl]oxy]-2-oxanyl]oxy]-4,5-dihydroxy-2-oxanyl]oxy]-9-(hydroxymethyl)-2,2,6a,6b,9,12a-hexamethyl-1,3,4,5,6,6a,7,8,8a,10,11,12,13,14b-tetradecahydropicene-4a-carboxylic acid [(2S,3R,4S,5S,6R)-6-[[(2R,3R,4R,5S,6R)-3,4-dihydroxy-6-(hydroxymethyl)-5-[[(2S,3R,4R,5R,6S)-3,4,5-trihydroxy-6-methyl-2-oxanyl]oxy]-2-oxanyl]oxymethyl]-3,4,5-trihydroxy-2-oxanyl] ester

> <PUBCHEM_IUPAC_NAME_MARKUP>
[(2<I>S</I>,3<I>R</I>,4<I>S</I>,5<I>S</I>,6<I>R</I>)-6-[[(2<I>R</I>,3<I>R</I>,4<I>R</I>,5<I>S</I>,6<I>R</I>)-3,4-dihydroxy-6-(hydroxymethyl)-5-[(2<I>S</I>,3<I>R</I>,4<I>R</I>,5<I>R</I>,6<I>S</I>)-3,4,5-trihydroxy-6-methyloxan-2-yl]oxyoxan-2-yl]oxymethyl]-3,4,5-trihydroxyoxan-2-yl] (4<I>a</I><I>S</I>,6<I>a</I><I>R</I>,6<I>a</I><I>S</I>,6<I>b</I><I>R</I>,8<I>a</I><I>R</I>,9<I>R</I>,10<I>S</I>,12<I>a</I><I>R</I>,14<I>b</I><I>S</I>)-10-[(2<I>S</I>,3<I>R</I>,4<I>S</I>,5<I>S</I>)-3-[(2<I>S</I>,3<I>R</I>,4<I>R</I>,5<I>S</I>,6<I>S</I>)-3,5-dihydroxy-6-methyl-4-[(2<I>S</I>,3<I>R</I>,4<I>R</I>,5<I>R</I>)-3,4,5-trihydroxyoxan-2-yl]oxyoxan-2-yl]oxy-4,5-dihydroxyoxan-2-yl]oxy-9-(hydroxymethyl)-2,2,6<I>a</I>,6<I>b</I>,9,12<I>a</I>-hexamethyl-1,3,4,5,6,6<I>a</I>,7,8,8<I>a</I>,10,11,12,13,14<I>b</I>-tetradecahydropicene-4<I>a</I>-carboxylate

> <PUBCHEM_IUPAC_NAME>
[(2S,3R,4S,5S,6R)-6-[[(2R,3R,4R,5S,6R)-3,4-dihydroxy-6-(hydroxymethyl)-5-[(2S,3R,4R,5R,6S)-3,4,5-trihydroxy-6-methyloxan-2-yl]oxyoxan-2-yl]oxymethyl]-3,4,5-trihydroxyoxan-2-yl] (4aS,6aR,6aS,6bR,8aR,9R,10S,12aR,14bS)-10-[(2S,3R,4S,5S)-3-[(2S,3R,4R,5S,6S)-3,5-dihydroxy-6-methyl-4-[(2S,3R,4R,5R)-3,4,5-trihydroxyoxan-2-yl]oxyoxan-2-yl]oxy-4,5-dihydroxyoxan-2-yl]oxy-9-(hydroxymethyl)-2,2,6a,6b,9,12a-hexamethyl-1,3,4,5,6,6a,7,8,8a,10,11,12,13,14b-tetradecahydropicene-4a-carboxylate

> <PUBCHEM_IUPAC_SYSTEMATIC_NAME>
[(2S,3R,4S,5S,6R)-6-[[(2R,3R,4R,5S,6R)-6-(hydroxymethyl)-5-[(2S,3R,4R,5R,6S)-6-methyl-3,4,5-tris(oxidanyl)oxan-2-yl]oxy-3,4-bis(oxidanyl)oxan-2-yl]oxymethyl]-3,4,5-tris(oxidanyl)oxan-2-yl] (4aS,6aR,6aS,6bR,8aR,9R,10S,12aR,14bS)-9-(hydroxymethyl)-2,2,6a,6b,9,12a-hexamethyl-10-[(2S,3R,4S,5S)-3-[(2S,3R,4R,5S,6S)-6-methyl-3,5-bis(oxidanyl)-4-[(2S,3R,4R,5R)-3,4,5-tris(oxidanyl)oxan-2-yl]oxy-oxan-2-yl]oxy-4,5-bis(oxidanyl)oxan-2-yl]oxy-1,3,4,5,6,6a,7,8,8a,10,11,12,13,14b-tetradecahydropicene-4a-carboxylate

> <PUBCHEM_IUPAC_TRADITIONAL_NAME>
(4aS,6aR,6aS,6bR,8aR,9R,10S,12aR,14bS)-10-[(2S,3R,4S,5S)-3-[(2S,3R,4R,5S,6S)-3,5-dihydroxy-6-methyl-4-[(2S,3R,4R,5R)-3,4,5-trihydroxytetrahydropyran-2-yl]oxy-tetrahydropyran-2-yl]oxy-4,5-dihydroxy-tetrahydropyran-2-yl]oxy-2,2,6a,6b,9,12a-hexamethyl-9-methylol-1,3,4,5,6,6a,7,8,8a,10,11,12,13,14b-tetradecahydropicene-4a-carboxylic acid [(2S,3R,4S,5S,6R)-6-[[(2R,3R,4R,5S,6R)-3,4-dihydroxy-6-methylol-5-[(2S,3R,4R,5R,6S)-3,4,5-trihydroxy-6-methyl-tetrahydropyran-2-yl]oxy-tetrahydropyran-2-yl]oxymethyl]-3,4,5-trihydroxy-tetrahydropyran-2-yl] ester

> <PUBCHEM_IUPAC_INCHI>
InChI=1S/C64H104O30/c1-25-36(69)41(74)45(78)54(86-25)91-49-31(20-65)88-52(47(80)43(49)76)85-23-32-40(73)42(75)46(79)55(89-32)94-58(82)64-17-15-59(3,4)19-28(64)27-9-10-34-60(5)13-12-35(61(6,24-66)33(60)11-14-63(34,8)62(27,7)16-18-64)90-57-51(39(72)30(68)22-84-57)93-56-48(81)50(37(70)26(2)87-56)92-53-44(77)38(71)29(67)21-83-53/h9,25-26,28-57,65-81H,10-24H2,1-8H3/t25-,26-,28-,29+,30-,31+,32+,33+,34+,35-,36-,37-,38+,39-,40+,41+,42-,43+,44+,45+,46+,47+,48+,49+,50+,51+,52+,53-,54-,55-,56-,57-,60-,61-,62+,63+,64-/m0/s1

> <PUBCHEM_IUPAC_INCHIKEY>
PLQZZVHULIUSEV-FXDKWXKUSA-N

> <PUBCHEM_XLOGP3_AA>
-3.5

> <PUBCHEM_EXACT_MASS>
1352.661242

> <PUBCHEM_MOLECULAR_FORMULA>
C64H104O30

> <PUBCHEM_MOLECULAR_WEIGHT>
1353.5

> <PUBCHEM_OPENEYE_CAN_SMILES>
CC1C(C(C(C(O1)OC2C(OC(C(C2O)O)OCC3C(C(C(C(O3)OC(=O)C45CCC(CC4C6=CCC7C8(CCC(C(C8CCC7(C6(CC5)C)C)(C)CO)OC9C(C(C(CO9)O)O)OC1C(C(C(C(O1)C)O)OC1C(C(C(CO1)O)O)O)O)C)(C)C)O)O)O)CO)O)O)O

> <PUBCHEM_OPENEYE_ISO_SMILES>
C[C@H]1[C@@H]([C@H]([C@H]([C@@H](O1)O[C@@H]2[C@H](O[C@H]([C@@H]([C@H]2O)O)OC[C@@H]3[C@H]([C@@H]([C@H]([C@@H](O3)OC(=O)[C@@]45CC[C@@]6(C(=CC[C@H]7[C@]6(CC[C@@H]8[C@@]7(CC[C@@H]([C@@]8(C)CO)O[C@H]9[C@@H]([C@H]([C@H](CO9)O)O)O[C@H]1[C@@H]([C@@H]([C@H]([C@@H](O1)C)O)O[C@H]1[C@@H]([C@@H]([C@@H](CO1)O)O)O)O)C)C)[C@@H]4CC(CC5)(C)C)C)O)O)O)CO)O)O)O

> <PUBCHEM_CACTVS_TPSA>
472

> <PUBCHEM_MONOISOTOPIC_WEIGHT>
1352.661242

> <PUBCHEM_TOTAL_CHARGE>
0

> <PUBCHEM_HEAVY_ATOM_COUNT>
94

> <PUBCHEM_ATOM_DEF_STEREO_COUNT>
37

> <PUBCHEM_ATOM_UDEF_STEREO_COUNT>
0

> <PUBCHEM_BOND_DEF_STEREO_COUNT>
0

> <PUBCHEM_BOND_UDEF_STEREO_COUNT>
0

> <PUBCHEM_ISOTOPIC_ATOM_COUNT>
0

> <PUBCHEM_COMPONENT_COUNT>
1

> <PUBCHEM_CACTVS_TAUTO_COUNT>
-1

> <PUBCHEM_COORDINATE_TYPE>
1
5
255

> <PUBCHEM_BONDANNOTATIONS>
45  1  5
61  1  6
67  10  5
68  11  6
70  13  5
78  14  5
72  15  5
74  16  5
79  16  6
76  17  6
80  20  6
81  21  5
82  22  5
84  23  6
89  23  6
85  24  5
87  25  5
90  28  5
91  29  5
63  3  6
93  30  6
31  46  5
32  95  6
33  48  5
34  51  6
35  96  6
37  56  5
42  105  5
44  58  5
62  6  5
71  6  6
69  73  6
75  77  5
64  8  6
83  88  5
66  9  6
92  94  5

$$$$
