11636713
  -OEChem-09062002562D

181190  0     1  0  0  0  0  0999 V2000
   21.8779    2.5000    0.0000 O   0  0  0  0  0  0  0  0  0  0  0  0
   12.9292   -0.5176    0.0000 O   0  0  0  0  0  0  0  0  0  0  0  0
   20.0774    4.2918    0.0000 O   0  0  0  0  0  0  0  0  0  0  0  0
   13.7953    0.9824    0.0000 O   0  0  0  0  0  0  0  0  0  0  0  0
   23.6098    2.4800    0.0000 O   0  0  0  0  0  0  0  0  0  0  0  0
   11.1972   -0.5176    0.0000 O   0  0  0  0  0  0  0  0  0  0  0  0
   21.8547    0.5002    0.0000 O   0  0  0  0  0  0  0  0  0  0  0  0
   12.9292    1.4824    0.0000 O   0  0  0  0  0  0  0  0  0  0  0  0
   23.5751   -0.5198    0.0000 O   0  0  0  0  0  0  0  0  0  0  0  0
   25.3186    0.4601    0.0000 O   0  0  0  0  0  0  0  0  0  0  0  0
   11.1972    2.4824    0.0000 O   0  0  0  0  0  0  0  0  0  0  0  0
    9.4651    1.4824    0.0000 O   0  0  0  0  0  0  0  0  0  0  0  0
   22.7034   -1.0098    0.0000 O   0  0  0  0  0  0  0  0  0  0  0  0
    9.4651   -1.5176    0.0000 O   0  0  0  0  0  0  0  0  0  0  0  0
   20.1112   -0.4797    0.0000 O   0  0  0  0  0  0  0  0  0  0  0  0
   20.0881   -2.4796    0.0000 O   0  0  0  0  0  0  0  0  0  0  0  0
   21.8085   -3.4996    0.0000 O   0  0  0  0  0  0  0  0  0  0  0  0
    7.7331   -1.5176    0.0000 O   0  0  0  0  0  0  0  0  0  0  0  0
    9.4651   -3.5176    0.0000 O   0  0  0  0  0  0  0  0  0  0  0  0
    7.7331   -4.5176    0.0000 O   0  0  0  0  0  0  0  0  0  0  0  0
    6.0010   -3.5176    0.0000 O   0  0  0  0  0  0  0  0  0  0  0  0
    6.0010   -0.5176    0.0000 O   0  0  0  0  0  0  0  0  0  0  0  0
    5.1350   -2.0176    0.0000 O   0  0  0  0  0  0  0  0  0  0  0  0
    4.2690   -4.5176    0.0000 O   0  0  0  0  0  0  0  0  0  0  0  0
    2.5369   -3.5176    0.0000 O   0  0  0  0  0  0  0  0  0  0  0  0
    2.5369   -1.5176    0.0000 O   0  0  0  0  0  0  0  0  0  0  0  0
   17.3390    0.9826    0.0000 C   0  0  1  0  0  0  0  0  0  0  0  0
   16.4691    0.4893    0.0000 C   0  0  1  0  0  0  0  0  0  0  0  0
   18.2011    0.4760    0.0000 C   0  0  1  0  0  0  0  0  0  0  0  0
   16.4614   -0.5106    0.0000 C   0  0  1  0  0  0  0  0  0  0  0  0
   19.1150    0.9758    0.0000 C   0  0  2  0  0  0  0  0  0  0  0  0
   15.5634   -1.0384    0.0000 C   0  0  2  0  0  0  0  0  0  0  0  0
   19.1311    2.0173    0.0000 C   0  0  1  0  0  0  0  0  0  0  0  0
   14.6613   -0.5176    0.0000 C   0  0  1  0  0  0  0  0  0  0  0  0
   17.3309    2.0242    0.0000 C   0  0  0  0  0  0  0  0  0  0  0  0
   18.1934   -0.5240    0.0000 C   0  0  0  0  0  0  0  0  0  0  0  0
   15.5793    1.0309    0.0000 C   0  0  0  0  0  0  0  0  0  0  0  0
   17.3236   -1.0173    0.0000 C   0  0  0  0  0  0  0  0  0  0  0  0
   18.2330    2.5451    0.0000 C   0  0  0  0  0  0  0  0  0  0  0  0
   14.6693    0.5240    0.0000 C   0  0  0  0  0  0  0  0  0  0  0  0
   20.0707    2.5598    0.0000 C   0  0  1  0  0  0  0  0  0  0  0  0
   15.3455   -2.0507    0.0000 C   0  0  1  0  0  0  0  0  0  0  0  0
   20.0375    0.4046    0.0000 C   0  0  0  0  0  0  0  0  0  0  0  0
   16.7021    1.7536    0.0000 C   0  0  0  0  0  0  0  0  0  0  0  0
   16.1343    1.4316    0.0000 C   0  0  0  0  0  0  0  0  0  0  0  0
   13.8936   -1.2124    0.0000 C   0  0  0  0  0  0  0  0  0  0  0  0
   14.3156   -2.1580    0.0000 C   0  0  0  0  0  0  0  0  0  0  0  0
   19.0996   -0.0241    0.0000 C   0  0  0  0  0  0  0  0  0  0  0  0
   21.0061    2.0101    0.0000 C   0  0  2  0  0  0  0  0  0  0  0  0
   20.9894    0.9252    0.0000 C   0  0  0  0  0  0  0  0  0  0  0  0
   13.7953   -0.0176    0.0000 C   0  0  0  0  0  0  0  0  0  0  0  0
   20.5740    3.4239    0.0000 C   0  0  0  0  0  0  0  0  0  0  0  0
   19.5740    3.4278    0.0000 C   0  0  0  0  0  0  0  0  0  0  0  0
   16.0133   -2.7950    0.0000 C   0  0  0  0  0  0  0  0  0  0  0  0
   15.7026   -3.7455    0.0000 C   0  0  0  0  0  0  0  0  0  0  0  0
   16.9918   -2.5888    0.0000 C   0  0  0  0  0  0  0  0  0  0  0  0
   22.7380    1.9900    0.0000 C   0  0  2  0  0  0  0  0  0  0  0  0
   12.0632   -0.0176    0.0000 C   0  0  2  0  0  0  0  0  0  0  0  0
   22.7265    0.9901    0.0000 C   0  0  1  0  0  0  0  0  0  0  0  0
   12.0632    0.9824    0.0000 C   0  0  1  0  0  0  0  0  0  0  0  0
   23.5867    0.4801    0.0000 C   0  0  2  0  0  0  0  0  0  0  0  0
   24.4700    1.9700    0.0000 C   0  0  0  0  0  0  0  0  0  0  0  0
   24.4584    0.9701    0.0000 C   0  0  2  0  0  0  0  0  0  0  0  0
   11.1972    1.4824    0.0000 C   0  0  2  0  0  0  0  0  0  0  0  0
   10.3312   -0.0176    0.0000 C   0  0  1  0  0  0  0  0  0  0  0  0
   10.3312    0.9824    0.0000 C   0  0  1  0  0  0  0  0  0  0  0  0
   21.8432   -0.4998    0.0000 C   0  0  2  0  0  0  0  0  0  0  0  0
    9.4651   -0.5176    0.0000 C   0  0  0  0  0  0  0  0  0  0  0  0
   20.9714   -0.9897    0.0000 C   0  0  1  0  0  0  0  0  0  0  0  0
   20.9599   -1.9897    0.0000 C   0  0  1  0  0  0  0  0  0  0  0  0
   22.6918   -2.0097    0.0000 C   0  0  2  0  0  0  0  0  0  0  0  0
   21.8200   -2.4996    0.0000 C   0  0  2  0  0  0  0  0  0  0  0  0
    8.5991   -2.0176    0.0000 C   0  0  2  0  0  0  0  0  0  0  0  0
   23.5520   -2.5197    0.0000 C   0  0  0  0  0  0  0  0  0  0  0  0
    8.5991   -3.0176    0.0000 C   0  0  1  0  0  0  0  0  0  0  0  0
    7.7331   -3.5176    0.0000 C   0  0  2  0  0  0  0  0  0  0  0  0
    6.8671   -2.0176    0.0000 C   0  0  1  0  0  0  0  0  0  0  0  0
    6.8671   -3.0176    0.0000 C   0  0  1  0  0  0  0  0  0  0  0  0
    6.0010   -1.5176    0.0000 C   0  0  0  0  0  0  0  0  0  0  0  0
    5.1350   -3.0176    0.0000 C   0  0  2  0  0  0  0  0  0  0  0  0
    4.2690   -3.5176    0.0000 C   0  0  1  0  0  0  0  0  0  0  0  0
    3.4030   -3.0176    0.0000 C   0  0  1  0  0  0  0  0  0  0  0  0
    4.2690   -1.5176    0.0000 C   0  0  2  0  0  0  0  0  0  0  0  0
    3.4030   -2.0176    0.0000 C   0  0  2  0  0  0  0  0  0  0  0  0
    4.2690   -0.5176    0.0000 C   0  0  0  0  0  0  0  0  0  0  0  0
   18.9306    0.0397    0.0000 H   0  0  0  0  0  0  0  0  0  0  0  0
   16.4614   -1.3606    0.0000 H   0  0  0  0  0  0  0  0  0  0  0  0
   16.2523   -1.5362    0.0000 H   0  0  0  0  0  0  0  0  0  0  0  0
   19.1343    2.8673    0.0000 H   0  0  0  0  0  0  0  0  0  0  0  0
   17.1174    2.6063    0.0000 H   0  0  0  0  0  0  0  0  0  0  0  0
   16.7209    1.9134    0.0000 H   0  0  0  0  0  0  0  0  0  0  0  0
   18.4010   -1.1082    0.0000 H   0  0  0  0  0  0  0  0  0  0  0  0
   18.8048   -0.4210    0.0000 H   0  0  0  0  0  0  0  0  0  0  0  0
   15.9875    1.4975    0.0000 H   0  0  0  0  0  0  0  0  0  0  0  0
   15.1894    1.5129    0.0000 H   0  0  0  0  0  0  0  0  0  0  0  0
   16.9214   -1.4892    0.0000 H   0  0  0  0  0  0  0  0  0  0  0  0
   17.7184   -1.4953    0.0000 H   0  0  0  0  0  0  0  0  0  0  0  0
   18.6340    3.0180    0.0000 H   0  0  0  0  0  0  0  0  0  0  0  0
   17.8357    3.0210    0.0000 H   0  0  0  0  0  0  0  0  0  0  0  0
   14.4648    1.1093    0.0000 H   0  0  0  0  0  0  0  0  0  0  0  0
   14.0577    0.4226    0.0000 H   0  0  0  0  0  0  0  0  0  0  0  0
   15.9447   -1.8915    0.0000 H   0  0  0  0  0  0  0  0  0  0  0  0
   19.6257   -0.0589    0.0000 H   0  0  0  0  0  0  0  0  0  0  0  0
   20.4237   -0.0804    0.0000 H   0  0  0  0  0  0  0  0  0  0  0  0
   17.1801    2.1485    0.0000 H   0  0  0  0  0  0  0  0  0  0  0  0
   16.3073    2.2316    0.0000 H   0  0  0  0  0  0  0  0  0  0  0  0
   16.2241    1.3588    0.0000 H   0  0  0  0  0  0  0  0  0  0  0  0
   16.7186    1.6392    0.0000 H   0  0  0  0  0  0  0  0  0  0  0  0
   15.9268    2.0159    0.0000 H   0  0  0  0  0  0  0  0  0  0  0  0
   15.5501    1.2241    0.0000 H   0  0  0  0  0  0  0  0  0  0  0  0
   13.5282   -0.7116    0.0000 H   0  0  0  0  0  0  0  0  0  0  0  0
   13.3571   -1.5232    0.0000 H   0  0  0  0  0  0  0  0  0  0  0  0
   13.7260   -2.3498    0.0000 H   0  0  0  0  0  0  0  0  0  0  0  0
   14.4443   -2.7645    0.0000 H   0  0  0  0  0  0  0  0  0  0  0  0
   18.4797   -0.0145    0.0000 H   0  0  0  0  0  0  0  0  0  0  0  0
   19.0900   -0.6440    0.0000 H   0  0  0  0  0  0  0  0  0  0  0  0
   19.7195   -0.0336    0.0000 H   0  0  0  0  0  0  0  0  0  0  0  0
   21.5388    1.6929    0.0000 H   0  0  0  0  0  0  0  0  0  0  0  0
   21.1894    0.3384    0.0000 H   0  0  0  0  0  0  0  0  0  0  0  0
   21.6018    1.0219    0.0000 H   0  0  0  0  0  0  0  0  0  0  0  0
   21.0474    3.0235    0.0000 H   0  0  0  0  0  0  0  0  0  0  0  0
   21.0505    3.8206    0.0000 H   0  0  0  0  0  0  0  0  0  0  0  0
   20.1122    3.7357    0.0000 H   0  0  0  0  0  0  0  0  0  0  0  0
   19.2661    3.9659    0.0000 H   0  0  0  0  0  0  0  0  0  0  0  0
   19.0359    3.1198    0.0000 H   0  0  0  0  0  0  0  0  0  0  0  0
   15.1133   -3.5529    0.0000 H   0  0  0  0  0  0  0  0  0  0  0  0
   15.5100   -4.3348    0.0000 H   0  0  0  0  0  0  0  0  0  0  0  0
   16.2920   -3.9381    0.0000 H   0  0  0  0  0  0  0  0  0  0  0  0
   17.4059   -3.0502    0.0000 H   0  0  0  0  0  0  0  0  0  0  0  0
   17.1844   -1.9994    0.0000 H   0  0  0  0  0  0  0  0  0  0  0  0
   20.3894    4.8276    0.0000 H   0  0  0  0  0  0  0  0  0  0  0  0
   22.1976    1.6863    0.0000 H   0  0  0  0  0  0  0  0  0  0  0  0
   12.6002    0.2924    0.0000 H   0  0  0  0  0  0  0  0  0  0  0  0
   22.7193    0.3702    0.0000 H   0  0  0  0  0  0  0  0  0  0  0  0
   12.0632    1.6024    0.0000 H   0  0  0  0  0  0  0  0  0  0  0  0
   24.1200    0.1639    0.0000 H   0  0  0  0  0  0  0  0  0  0  0  0
   25.0793    1.8553    0.0000 H   0  0  0  0  0  0  0  0  0  0  0  0
   24.6888    2.5501    0.0000 H   0  0  0  0  0  0  0  0  0  0  0  0
   24.9989    1.2739    0.0000 H   0  0  0  0  0  0  0  0  0  0  0  0
   10.6603    1.7924    0.0000 H   0  0  0  0  0  0  0  0  0  0  0  0
   10.3312   -0.6376    0.0000 H   0  0  0  0  0  0  0  0  0  0  0  0
    9.7942    0.6724    0.0000 H   0  0  0  0  0  0  0  0  0  0  0  0
   12.9292    2.1024    0.0000 H   0  0  0  0  0  0  0  0  0  0  0  0
   21.3099   -0.1836    0.0000 H   0  0  0  0  0  0  0  0  0  0  0  0
   24.1084   -0.8360    0.0000 H   0  0  0  0  0  0  0  0  0  0  0  0
    9.2531    0.0650    0.0000 H   0  0  0  0  0  0  0  0  0  0  0  0
    8.8546   -0.6252    0.0000 H   0  0  0  0  0  0  0  0  0  0  0  0
   25.8591    0.7639    0.0000 H   0  0  0  0  0  0  0  0  0  0  0  0
   11.7341    2.7924    0.0000 H   0  0  0  0  0  0  0  0  0  0  0  0
   20.4309   -1.2935    0.0000 H   0  0  0  0  0  0  0  0  0  0  0  0
    9.4651    2.1024    0.0000 H   0  0  0  0  0  0  0  0  0  0  0  0
   20.9527   -2.6096    0.0000 H   0  0  0  0  0  0  0  0  0  0  0  0
   23.2323   -1.7059    0.0000 H   0  0  0  0  0  0  0  0  0  0  0  0
   22.3534   -2.8158    0.0000 H   0  0  0  0  0  0  0  0  0  0  0  0
   19.5708   -0.7835    0.0000 H   0  0  0  0  0  0  0  0  0  0  0  0
    8.5991   -1.3976    0.0000 H   0  0  0  0  0  0  0  0  0  0  0  0
   23.2358   -3.0530    0.0000 H   0  0  0  0  0  0  0  0  0  0  0  0
   24.0853   -2.8359    0.0000 H   0  0  0  0  0  0  0  0  0  0  0  0
   23.8682   -1.9864    0.0000 H   0  0  0  0  0  0  0  0  0  0  0  0
   20.0809   -3.0996    0.0000 H   0  0  0  0  0  0  0  0  0  0  0  0
    8.5991   -3.6376    0.0000 H   0  0  0  0  0  0  0  0  0  0  0  0
   22.3418   -3.8158    0.0000 H   0  0  0  0  0  0  0  0  0  0  0  0
    7.1962   -3.8276    0.0000 H   0  0  0  0  0  0  0  0  0  0  0  0
    6.8671   -1.3976    0.0000 H   0  0  0  0  0  0  0  0  0  0  0  0
    6.3301   -2.7076    0.0000 H   0  0  0  0  0  0  0  0  0  0  0  0
   10.0021   -3.2076    0.0000 H   0  0  0  0  0  0  0  0  0  0  0  0
    5.3905   -1.4099    0.0000 H   0  0  0  0  0  0  0  0  0  0  0  0
    5.7890   -2.1002    0.0000 H   0  0  0  0  0  0  0  0  0  0  0  0
    8.2700   -4.8276    0.0000 H   0  0  0  0  0  0  0  0  0  0  0  0
    5.1350   -3.6376    0.0000 H   0  0  0  0  0  0  0  0  0  0  0  0
    6.5380   -0.2076    0.0000 H   0  0  0  0  0  0  0  0  0  0  0  0
    3.7320   -3.8276    0.0000 H   0  0  0  0  0  0  0  0  0  0  0  0
    2.8660   -2.7076    0.0000 H   0  0  0  0  0  0  0  0  0  0  0  0
    4.8059   -1.2076    0.0000 H   0  0  0  0  0  0  0  0  0  0  0  0
    3.4030   -1.3976    0.0000 H   0  0  0  0  0  0  0  0  0  0  0  0
    3.7320   -4.8276    0.0000 H   0  0  0  0  0  0  0  0  0  0  0  0
    4.8890   -0.5176    0.0000 H   0  0  0  0  0  0  0  0  0  0  0  0
    4.2690    0.1024    0.0000 H   0  0  0  0  0  0  0  0  0  0  0  0
    3.6490   -0.5176    0.0000 H   0  0  0  0  0  0  0  0  0  0  0  0
    2.0000   -3.2076    0.0000 H   0  0  0  0  0  0  0  0  0  0  0  0
    2.5369   -0.8976    0.0000 H   0  0  0  0  0  0  0  0  0  0  0  0
 49  1  1  1  0  0  0
 57  1  1  6  0  0  0
  2 51  1  0  0  0  0
 58  2  1  6  0  0  0
  3 52  1  0  0  0  0
  3131  1  0  0  0  0
  4 51  2  0  0  0  0
  5 57  1  0  0  0  0
  5 62  1  0  0  0  0
  6 58  1  0  0  0  0
  6 65  1  0  0  0  0
 59  7  1  1  0  0  0
 67  7  1  6  0  0  0
 60  8  1  1  0  0  0
  8143  1  0  0  0  0
 61  9  1  6  0  0  0
  9145  1  0  0  0  0
 63 10  1  6  0  0  0
 10148  1  0  0  0  0
 64 11  1  6  0  0  0
 11149  1  0  0  0  0
 66 12  1  1  0  0  0
 12151  1  0  0  0  0
 13 67  1  0  0  0  0
 13 71  1  0  0  0  0
 14 68  1  0  0  0  0
 73 14  1  1  0  0  0
 69 15  1  1  0  0  0
 15155  1  0  0  0  0
 70 16  1  1  0  0  0
 16160  1  0  0  0  0
 72 17  1  6  0  0  0
 17162  1  0  0  0  0
 18 73  1  0  0  0  0
 18 77  1  0  0  0  0
 75 19  1  6  0  0  0
 19166  1  0  0  0  0
 76 20  1  1  0  0  0
 20169  1  0  0  0  0
 78 21  1  6  0  0  0
 80 21  1  1  0  0  0
 22 79  1  0  0  0  0
 22171  1  0  0  0  0
 23 80  1  0  0  0  0
 23 83  1  0  0  0  0
 81 24  1  6  0  0  0
 24176  1  0  0  0  0
 82 25  1  6  0  0  0
 25180  1  0  0  0  0
 84 26  1  1  0  0  0
 26181  1  0  0  0  0
 27 28  1  0  0  0  0
 27 29  1  0  0  0  0
 27 35  1  0  0  0  0
 27 44  1  1  0  0  0
 28 30  1  0  0  0  0
 28 37  1  0  0  0  0
 28 45  1  6  0  0  0
 29 31  1  0  0  0  0
 29 36  1  0  0  0  0
 29 86  1  6  0  0  0
 30 32  1  0  0  0  0
 30 38  1  0  0  0  0
 30 87  1  1  0  0  0
 31 33  1  0  0  0  0
 31 43  1  0  0  0  0
 31 48  1  1  0  0  0
 32 34  1  0  0  0  0
 32 42  1  0  0  0  0
 32 88  1  6  0  0  0
 33 39  1  0  0  0  0
 33 41  1  0  0  0  0
 33 89  1  6  0  0  0
 34 40  1  0  0  0  0
 34 46  1  0  0  0  0
 34 51  1  1  0  0  0
 35 39  1  0  0  0  0
 35 90  1  0  0  0  0
 35 91  1  0  0  0  0
 36 38  1  0  0  0  0
 36 92  1  0  0  0  0
 36 93  1  0  0  0  0
 37 40  1  0  0  0  0
 37 94  1  0  0  0  0
 37 95  1  0  0  0  0
 38 96  1  0  0  0  0
 38 97  1  0  0  0  0
 39 98  1  0  0  0  0
 39 99  1  0  0  0  0
 40100  1  0  0  0  0
 40101  1  0  0  0  0
 41 49  1  0  0  0  0
 41 52  1  0  0  0  0
 41 53  1  1  0  0  0
 42 47  1  0  0  0  0
 42 54  1  6  0  0  0
 42102  1  0  0  0  0
 43 50  1  0  0  0  0
 43103  1  0  0  0  0
 43104  1  0  0  0  0
 44105  1  0  0  0  0
 44106  1  0  0  0  0
 44107  1  0  0  0  0
 45108  1  0  0  0  0
 45109  1  0  0  0  0
 45110  1  0  0  0  0
 46 47  1  0  0  0  0
 46111  1  0  0  0  0
 46112  1  0  0  0  0
 47113  1  0  0  0  0
 47114  1  0  0  0  0
 48115  1  0  0  0  0
 48116  1  0  0  0  0
 48117  1  0  0  0  0
 49 50  1  0  0  0  0
 49118  1  0  0  0  0
 50119  1  0  0  0  0
 50120  1  0  0  0  0
 52121  1  0  0  0  0
 52122  1  0  0  0  0
 53123  1  0  0  0  0
 53124  1  0  0  0  0
 53125  1  0  0  0  0
 54 55  1  0  0  0  0
 54 56  2  0  0  0  0
 55126  1  0  0  0  0
 55127  1  0  0  0  0
 55128  1  0  0  0  0
 56129  1  0  0  0  0
 56130  1  0  0  0  0
 57 59  1  0  0  0  0
 57132  1  0  0  0  0
 58 60  1  0  0  0  0
 58133  1  0  0  0  0
 59 61  1  0  0  0  0
 59134  1  0  0  0  0
 60 64  1  0  0  0  0
 60135  1  0  0  0  0
 61 63  1  0  0  0  0
 61136  1  0  0  0  0
 62 63  1  0  0  0  0
 62137  1  0  0  0  0
 62138  1  0  0  0  0
 63139  1  0  0  0  0
 64 66  1  0  0  0  0
 64140  1  0  0  0  0
 65 66  1  0  0  0  0
 65 68  1  6  0  0  0
 65141  1  0  0  0  0
 66142  1  0  0  0  0
 67 69  1  0  0  0  0
 67144  1  0  0  0  0
 68146  1  0  0  0  0
 68147  1  0  0  0  0
 69 70  1  0  0  0  0
 69150  1  0  0  0  0
 70 72  1  0  0  0  0
 70152  1  0  0  0  0
 71 72  1  0  0  0  0
 71 74  1  1  0  0  0
 71153  1  0  0  0  0
 72154  1  0  0  0  0
 73 75  1  0  0  0  0
 73156  1  0  0  0  0
 74157  1  0  0  0  0
 74158  1  0  0  0  0
 74159  1  0  0  0  0
 75 76  1  0  0  0  0
 75161  1  0  0  0  0
 76 78  1  0  0  0  0
 76163  1  0  0  0  0
 77 78  1  0  0  0  0
 77 79  1  1  0  0  0
 77164  1  0  0  0  0
 78165  1  0  0  0  0
 79167  1  0  0  0  0
 79168  1  0  0  0  0
 80 81  1  0  0  0  0
 80170  1  0  0  0  0
 81 82  1  0  0  0  0
 81172  1  0  0  0  0
 82 84  1  0  0  0  0
 82173  1  0  0  0  0
 83 84  1  0  0  0  0
 83 85  1  6  0  0  0
 83174  1  0  0  0  0
 84175  1  0  0  0  0
 85177  1  0  0  0  0
 85178  1  0  0  0  0
 85179  1  0  0  0  0
M  END
> <PUBCHEM_COMPOUND_CID>
11636713

> <PUBCHEM_COMPOUND_CANONICALIZED>
1

> <PUBCHEM_CACTVS_COMPLEXITY>
2340

> <PUBCHEM_CACTVS_HBOND_ACCEPTOR>
26

> <PUBCHEM_CACTVS_HBOND_DONOR>
15

> <PUBCHEM_CACTVS_ROTATABLE_BOND>
15

> <PUBCHEM_CACTVS_SUBSKEYS>
AAADcfB8PgAAAAAAAAAAAAAAAAAAAYAAAAA0aNGiQAAAAGDAAAAAGgAACAAADxSwgAMCCAAABgCIAgDSCAAAAAAgAAAAAAEAAAgREBIAAQAiQAAFgAAHAAHI6PyPgAAAAAAAAADAAAYAADAAAQAACAAAAA==

> <PUBCHEM_IUPAC_OPENEYE_NAME>
[(2S,3R,4S,5S,6R)-6-[[(2R,3R,4R,5S,6R)-3,4-dihydroxy-6-(hydroxymethyl)-5-[(2S,3R,4R,5R,6S)-3,4,5-trihydroxy-6-methyl-tetrahydropyran-2-yl]oxy-tetrahydropyran-2-yl]oxymethyl]-3,4,5-trihydroxy-tetrahydropyran-2-yl] (1R,3aS,5aR,5bR,7aR,8R,9S,11aR,11bR,13aR,13bR)-9-[(2S,3R,4S,5S)-4,5-dihydroxy-3-[(2S,3R,4R,5R,6S)-3,4,5-trihydroxy-6-methyl-tetrahydropyran-2-yl]oxy-tetrahydropyran-2-yl]oxy-8-(hydroxymethyl)-1-isopropenyl-5a,5b,8,11a-tetramethyl-1,2,3,4,5,6,7,7a,9,10,11,11b,12,13,13a,13b-hexadecahydrocyclopenta[a]chrysene-3a-carboxylate

> <PUBCHEM_IUPAC_CAS_NAME>
(1R,3aS,5aR,5bR,7aR,8R,9S,11aR,11bR,13aR,13bR)-9-[[(2S,3R,4S,5S)-4,5-dihydroxy-3-[[(2S,3R,4R,5R,6S)-3,4,5-trihydroxy-6-methyl-2-oxanyl]oxy]-2-oxanyl]oxy]-8-(hydroxymethyl)-5a,5b,8,11a-tetramethyl-1-(1-methylethenyl)-1,2,3,4,5,6,7,7a,9,10,11,11b,12,13,13a,13b-hexadecahydrocyclopenta[a]chrysene-3a-carboxylic acid [(2S,3R,4S,5S,6R)-6-[[(2R,3R,4R,5S,6R)-3,4-dihydroxy-6-(hydroxymethyl)-5-[[(2S,3R,4R,5R,6S)-3,4,5-trihydroxy-6-methyl-2-oxanyl]oxy]-2-oxanyl]oxymethyl]-3,4,5-trihydroxy-2-oxanyl] ester

> <PUBCHEM_IUPAC_NAME_MARKUP>
[(2<I>S</I>,3<I>R</I>,4<I>S</I>,5<I>S</I>,6<I>R</I>)-6-[[(2<I>R</I>,3<I>R</I>,4<I>R</I>,5<I>S</I>,6<I>R</I>)-3,4-dihydroxy-6-(hydroxymethyl)-5-[(2<I>S</I>,3<I>R</I>,4<I>R</I>,5<I>R</I>,6<I>S</I>)-3,4,5-trihydroxy-6-methyloxan-2-yl]oxyoxan-2-yl]oxymethyl]-3,4,5-trihydroxyoxan-2-yl] (1<I>R</I>,3<I>a</I><I>S</I>,5<I>a</I><I>R</I>,5<I>b</I><I>R</I>,7<I>a</I><I>R</I>,8<I>R</I>,9<I>S</I>,11<I>a</I><I>R</I>,11<I>b</I><I>R</I>,13<I>a</I><I>R</I>,13<I>b</I><I>R</I>)-9-[(2<I>S</I>,3<I>R</I>,4<I>S</I>,5<I>S</I>)-4,5-dihydroxy-3-[(2<I>S</I>,3<I>R</I>,4<I>R</I>,5<I>R</I>,6<I>S</I>)-3,4,5-trihydroxy-6-methyloxan-2-yl]oxyoxan-2-yl]oxy-8-(hydroxymethyl)-5<I>a</I>,5<I>b</I>,8,11<I>a</I>-tetramethyl-1-prop-1-en-2-yl-1,2,3,4,5,6,7,7<I>a</I>,9,10,11,11<I>b</I>,12,13,13<I>a</I>,13<I>b</I>-hexadecahydrocyclopenta[a]chrysene-3<I>a</I>-carboxylate

> <PUBCHEM_IUPAC_NAME>
[(2S,3R,4S,5S,6R)-6-[[(2R,3R,4R,5S,6R)-3,4-dihydroxy-6-(hydroxymethyl)-5-[(2S,3R,4R,5R,6S)-3,4,5-trihydroxy-6-methyloxan-2-yl]oxyoxan-2-yl]oxymethyl]-3,4,5-trihydroxyoxan-2-yl] (1R,3aS,5aR,5bR,7aR,8R,9S,11aR,11bR,13aR,13bR)-9-[(2S,3R,4S,5S)-4,5-dihydroxy-3-[(2S,3R,4R,5R,6S)-3,4,5-trihydroxy-6-methyloxan-2-yl]oxyoxan-2-yl]oxy-8-(hydroxymethyl)-5a,5b,8,11a-tetramethyl-1-prop-1-en-2-yl-1,2,3,4,5,6,7,7a,9,10,11,11b,12,13,13a,13b-hexadecahydrocyclopenta[a]chrysene-3a-carboxylate

> <PUBCHEM_IUPAC_SYSTEMATIC_NAME>
[(2S,3R,4S,5S,6R)-6-[[(2R,3R,4R,5S,6R)-6-(hydroxymethyl)-5-[(2S,3R,4R,5R,6S)-6-methyl-3,4,5-tris(oxidanyl)oxan-2-yl]oxy-3,4-bis(oxidanyl)oxan-2-yl]oxymethyl]-3,4,5-tris(oxidanyl)oxan-2-yl] (1R,3aS,5aR,5bR,7aR,8R,9S,11aR,11bR,13aR,13bR)-8-(hydroxymethyl)-5a,5b,8,11a-tetramethyl-9-[(2S,3R,4S,5S)-3-[(2S,3R,4R,5R,6S)-6-methyl-3,4,5-tris(oxidanyl)oxan-2-yl]oxy-4,5-bis(oxidanyl)oxan-2-yl]oxy-1-prop-1-en-2-yl-1,2,3,4,5,6,7,7a,9,10,11,11b,12,13,13a,13b-hexadecahydrocyclopenta[a]chrysene-3a-carboxylate

> <PUBCHEM_IUPAC_TRADITIONAL_NAME>
(1R,3aS,5aR,5bR,7aR,8R,9S,11aR,11bR,13aR,13bR)-9-[(2S,3R,4S,5S)-4,5-dihydroxy-3-[(2S,3R,4R,5R,6S)-3,4,5-trihydroxy-6-methyl-tetrahydropyran-2-yl]oxy-tetrahydropyran-2-yl]oxy-1-isopropenyl-5a,5b,8,11a-tetramethyl-8-methylol-1,2,3,4,5,6,7,7a,9,10,11,11b,12,13,13a,13b-hexadecahydrocyclopenta[a]chrysene-3a-carboxylic acid [(2S,3R,4S,5S,6R)-6-[[(2R,3R,4R,5S,6R)-3,4-dihydroxy-6-methylol-5-[(2S,3R,4R,5R,6S)-3,4,5-trihydroxy-6-methyl-tetrahydropyran-2-yl]oxy-tetrahydropyran-2-yl]oxymethyl]-3,4,5-trihydroxy-tetrahydropyran-2-yl] ester

> <PUBCHEM_IUPAC_INCHI>
InChI=1S/C59H96O26/c1-23(2)26-11-16-59(54(75)85-52-45(73)41(69)38(66)30(81-52)21-77-49-46(74)42(70)47(29(19-60)80-49)83-50-43(71)39(67)35(63)24(3)78-50)18-17-57(7)27(34(26)59)9-10-32-55(5)14-13-33(56(6,22-61)31(55)12-15-58(32,57)8)82-53-48(37(65)28(62)20-76-53)84-51-44(72)40(68)36(64)25(4)79-51/h24-53,60-74H,1,9-22H2,2-8H3/t24-,25-,26-,27+,28-,29+,30+,31+,32+,33-,34+,35-,36-,37-,38+,39+,40+,41-,42+,43+,44+,45+,46+,47+,48+,49+,50-,51-,52-,53-,55-,56-,57+,58+,59-/m0/s1

> <PUBCHEM_IUPAC_INCHIKEY>
OUHBKBTZUPLIIA-OTEDBJMHSA-N

> <PUBCHEM_XLOGP3_AA>
-1.2

> <PUBCHEM_EXACT_MASS>
1220.618983

> <PUBCHEM_MOLECULAR_FORMULA>
C59H96O26

> <PUBCHEM_MOLECULAR_WEIGHT>
1221.4

> <PUBCHEM_OPENEYE_CAN_SMILES>
CC1C(C(C(C(O1)OC2C(OC(C(C2O)O)OCC3C(C(C(C(O3)OC(=O)C45CCC(C4C6CCC7C8(CCC(C(C8CCC7(C6(CC5)C)C)(C)CO)OC9C(C(C(CO9)O)O)OC1C(C(C(C(O1)C)O)O)O)C)C(=C)C)O)O)O)CO)O)O)O

> <PUBCHEM_OPENEYE_ISO_SMILES>
C[C@H]1[C@@H]([C@H]([C@H]([C@@H](O1)O[C@@H]2[C@H](O[C@H]([C@@H]([C@H]2O)O)OC[C@@H]3[C@H]([C@@H]([C@H]([C@@H](O3)OC(=O)[C@]45CC[C@H]([C@@H]4[C@H]6CC[C@@H]7[C@]8(CC[C@@H]([C@@]([C@@H]8CC[C@]7([C@@]6(CC5)C)C)(C)CO)O[C@H]9[C@@H]([C@H]([C@H](CO9)O)O)O[C@H]1[C@@H]([C@@H]([C@H]([C@@H](O1)C)O)O)O)C)C(=C)C)O)O)O)CO)O)O)O

> <PUBCHEM_CACTVS_TPSA>
413

> <PUBCHEM_MONOISOTOPIC_WEIGHT>
1220.618983

> <PUBCHEM_TOTAL_CHARGE>
0

> <PUBCHEM_HEAVY_ATOM_COUNT>
85

> <PUBCHEM_ATOM_DEF_STEREO_COUNT>
35

> <PUBCHEM_ATOM_UDEF_STEREO_COUNT>
0

> <PUBCHEM_BOND_DEF_STEREO_COUNT>
0

> <PUBCHEM_BOND_UDEF_STEREO_COUNT>
0

> <PUBCHEM_ISOTOPIC_ATOM_COUNT>
0

> <PUBCHEM_COMPONENT_COUNT>
1

> <PUBCHEM_CACTVS_TAUTO_COUNT>
-1

> <PUBCHEM_COORDINATE_TYPE>
1
5
255

> <PUBCHEM_BONDANNOTATIONS>
49  1  5
57  1  6
63  10  6
64  11  6
66  12  5
73  14  5
69  15  5
70  16  5
72  17  6
75  19  6
58  2  6
76  20  5
78  21  6
80  21  5
81  24  6
82  25  6
84  26  5
27  44  5
28  45  6
29  86  6
30  87  5
31  48  5
32  88  6
33  89  6
34  51  5
41  53  5
42  54  6
65  68  6
59  7  5
67  7  6
71  74  5
77  79  5
60  8  5
83  85  6
61  9  6

$$$$
