15625347
  -OEChem-09062003012D

136143  0     1  0  0  0  0  0999 V2000
    9.4651    0.5900    0.0000 O   0  0  0  0  0  0  0  0  0  0  0  0
   11.2862   -1.1808    0.0000 O   0  0  0  0  0  0  0  0  0  0  0  0
   18.3783    3.7109    0.0000 O   0  0  0  0  0  0  0  0  0  0  0  0
   17.5296    2.2010    0.0000 O   0  0  0  0  0  0  0  0  0  0  0  0
    8.5991    2.0900    0.0000 O   0  0  0  0  0  0  0  0  0  0  0  0
    7.7331   -0.4100    0.0000 O   0  0  0  0  0  0  0  0  0  0  0  0
    6.0010    0.5900    0.0000 O   0  0  0  0  0  0  0  0  0  0  0  0
    6.0010    2.5900    0.0000 O   0  0  0  0  0  0  0  0  0  0  0  0
    6.0010   -0.4100    0.0000 O   0  0  0  0  0  0  0  0  0  0  0  0
    7.7331   -2.4100    0.0000 O   0  0  0  0  0  0  0  0  0  0  0  0
    6.0010   -3.4100    0.0000 O   0  0  0  0  0  0  0  0  0  0  0  0
    4.2690   -2.4100    0.0000 O   0  0  0  0  0  0  0  0  0  0  0  0
    4.2690   -3.4100    0.0000 O   0  0  0  0  0  0  0  0  0  0  0  0
    6.0010   -5.4100    0.0000 O   0  0  0  0  0  0  0  0  0  0  0  0
    4.2690   -6.4100    0.0000 O   0  0  0  0  0  0  0  0  0  0  0  0
    2.5369   -5.4100    0.0000 O   0  0  0  0  0  0  0  0  0  0  0  0
   13.9862    2.1598    0.0000 C   0  0  3  0  0  0  0  0  0  0  0  0
   13.1182    2.6565    0.0000 C   0  0  3  0  0  0  0  0  0  0  0  0
   12.2102    2.1461    0.0000 C   0  0  3  0  0  0  0  0  0  0  0  0
   14.8503    2.6631    0.0000 C   0  0  3  0  0  0  0  0  0  0  0  0
   12.2062    1.1045    0.0000 C   0  0  3  0  0  0  0  0  0  0  0  0
   14.0063    1.1184    0.0000 C   0  0  0  0  0  0  0  0  0  0  0  0
   11.2729    0.5512    0.0000 C   0  0  3  0  0  0  0  0  0  0  0  0
   13.1103    0.5872    0.0000 C   0  0  0  0  0  0  0  0  0  0  0  0
   14.8464    3.6631    0.0000 C   0  0  0  0  0  0  0  0  0  0  0  0
   11.2812    2.7066    0.0000 C   0  0  0  0  0  0  0  0  0  0  0  0
   13.1144    3.6564    0.0000 C   0  0  0  0  0  0  0  0  0  0  0  0
   15.7383    4.2012    0.0000 C   0  0  3  0  0  0  0  0  0  0  0  0
   15.7463    2.1319    0.0000 C   0  0  0  0  0  0  0  0  0  0  0  0
   16.6463    3.6909    0.0000 C   0  0  3  0  0  0  0  0  0  0  0  0
   10.3312    1.0900    0.0000 C   0  0  3  0  0  0  0  0  0  0  0  0
   14.6319    1.3962    0.0000 C   0  0  0  0  0  0  0  0  0  0  0  0
   16.6503    2.6493    0.0000 C   0  0  0  0  0  0  0  0  0  0  0  0
   12.2140    3.1461    0.0000 C   0  0  0  0  0  0  0  0  0  0  0  0
   10.3353    2.1750    0.0000 C   0  0  0  0  0  0  0  0  0  0  0  0
   13.9785    4.1598    0.0000 C   0  0  0  0  0  0  0  0  0  0  0  0
   15.1959    1.7248    0.0000 C   0  0  0  0  0  0  0  0  0  0  0  0
   15.7090    5.2858    0.0000 C   0  0  0  0  0  0  0  0  0  0  0  0
   17.5881    4.2298    0.0000 C   0  0  0  0  0  0  0  0  0  0  0  0
   16.6380    5.8463    0.0000 C   0  0  0  0  0  0  0  0  0  0  0  0
   11.7795   -0.3110    0.0000 C   0  0  0  0  0  0  0  0  0  0  0  0
   10.7796   -0.3187    0.0000 C   0  0  0  0  0  0  0  0  0  0  0  0
   17.5839    5.3147    0.0000 C   0  0  0  0  0  0  0  0  0  0  0  0
   17.5181    3.2009    0.0000 C   0  0  0  0  0  0  0  0  0  0  0  0
   17.1246    6.7200    0.0000 C   0  0  0  0  0  0  0  0  0  0  0  0
   16.1247    6.7046    0.0000 C   0  0  0  0  0  0  0  0  0  0  0  0
    8.5991    1.0900    0.0000 C   0  0  3  0  0  0  0  0  0  0  0  0
    7.7331    0.5900    0.0000 C   0  0  3  0  0  0  0  0  0  0  0  0
    6.8671    1.0900    0.0000 C   0  0  3  0  0  0  0  0  0  0  0  0
    7.7331    2.5900    0.0000 C   0  0  0  0  0  0  0  0  0  0  0  0
    6.8671    2.0900    0.0000 C   0  0  3  0  0  0  0  0  0  0  0  0
    6.8671   -0.9100    0.0000 C   0  0  3  0  0  0  0  0  0  0  0  0
    6.8671   -1.9100    0.0000 C   0  0  3  0  0  0  0  0  0  0  0  0
    6.0010   -2.4100    0.0000 C   0  0  3  0  0  0  0  0  0  0  0  0
    5.1350   -0.9100    0.0000 C   0  0  3  0  0  0  0  0  0  0  0  0
    5.1350   -1.9100    0.0000 C   0  0  3  0  0  0  0  0  0  0  0  0
    4.2690   -0.4100    0.0000 C   0  0  0  0  0  0  0  0  0  0  0  0
    5.1350   -3.9100    0.0000 C   0  0  3  0  0  0  0  0  0  0  0  0
    5.1350   -4.9100    0.0000 C   0  0  3  0  0  0  0  0  0  0  0  0
    4.2690   -5.4100    0.0000 C   0  0  3  0  0  0  0  0  0  0  0  0
    3.4030   -3.9100    0.0000 C   0  0  0  0  0  0  0  0  0  0  0  0
    3.4030   -4.9100    0.0000 C   0  0  3  0  0  0  0  0  0  0  0  0
   13.6540    2.9685    0.0000 H   0  0  0  0  0  0  0  0  0  0  0  0
   12.2110    0.4845    0.0000 H   0  0  0  0  0  0  0  0  0  0  0  0
   14.2265    0.5388    0.0000 H   0  0  0  0  0  0  0  0  0  0  0  0
   14.6150    1.2362    0.0000 H   0  0  0  0  0  0  0  0  0  0  0  0
   12.7148    0.1097    0.0000 H   0  0  0  0  0  0  0  0  0  0  0  0
   13.5130    0.1158    0.0000 H   0  0  0  0  0  0  0  0  0  0  0  0
   11.6876    3.1748    0.0000 H   0  0  0  0  0  0  0  0  0  0  0  0
   10.8894    3.1872    0.0000 H   0  0  0  0  0  0  0  0  0  0  0  0
   12.9001    4.2382    0.0000 H   0  0  0  0  0  0  0  0  0  0  0  0
   12.5042    3.5464    0.0000 H   0  0  0  0  0  0  0  0  0  0  0  0
   16.2692    4.5215    0.0000 H   0  0  0  0  0  0  0  0  0  0  0  0
   15.3435    1.6606    0.0000 H   0  0  0  0  0  0  0  0  0  0  0  0
   16.1417    1.6544    0.0000 H   0  0  0  0  0  0  0  0  0  0  0  0
    9.7948    1.4011    0.0000 H   0  0  0  0  0  0  0  0  0  0  0  0
   14.1585    0.9959    0.0000 H   0  0  0  0  0  0  0  0  0  0  0  0
   15.0323    0.9228    0.0000 H   0  0  0  0  0  0  0  0  0  0  0  0
   15.1053    1.7966    0.0000 H   0  0  0  0  0  0  0  0  0  0  0  0
   16.8617    2.0664    0.0000 H   0  0  0  0  0  0  0  0  0  0  0  0
   17.2608    2.7577    0.0000 H   0  0  0  0  0  0  0  0  0  0  0  0
   12.8340    3.1437    0.0000 H   0  0  0  0  0  0  0  0  0  0  0  0
   12.2164    3.7661    0.0000 H   0  0  0  0  0  0  0  0  0  0  0  0
   11.5941    3.1485    0.0000 H   0  0  0  0  0  0  0  0  0  0  0  0
   10.1285    2.7595    0.0000 H   0  0  0  0  0  0  0  0  0  0  0  0
    9.7241    2.0713    0.0000 H   0  0  0  0  0  0  0  0  0  0  0  0
   13.9761    4.7798    0.0000 H   0  0  0  0  0  0  0  0  0  0  0  0
   14.6141    1.5105    0.0000 H   0  0  0  0  0  0  0  0  0  0  0  0
   15.4102    1.1430    0.0000 H   0  0  0  0  0  0  0  0  0  0  0  0
   15.7777    1.9391    0.0000 H   0  0  0  0  0  0  0  0  0  0  0  0
   15.4843    5.8637    0.0000 H   0  0  0  0  0  0  0  0  0  0  0  0
   15.1012    5.1633    0.0000 H   0  0  0  0  0  0  0  0  0  0  0  0
   17.7994    3.6469    0.0000 H   0  0  0  0  0  0  0  0  0  0  0  0
   18.1985    4.3382    0.0000 H   0  0  0  0  0  0  0  0  0  0  0  0
   12.2575   -0.7058    0.0000 H   0  0  0  0  0  0  0  0  0  0  0  0
   12.2514    0.0912    0.0000 H   0  0  0  0  0  0  0  0  0  0  0  0
   10.2403   -0.0128    0.0000 H   0  0  0  0  0  0  0  0  0  0  0  0
   10.4737   -0.8580    0.0000 H   0  0  0  0  0  0  0  0  0  0  0  0
   11.3189   -0.6245    0.0000 H   0  0  0  0  0  0  0  0  0  0  0  0
   18.1951    5.2110    0.0000 H   0  0  0  0  0  0  0  0  0  0  0  0
   17.7907    5.8992    0.0000 H   0  0  0  0  0  0  0  0  0  0  0  0
   17.6663    6.4183    0.0000 H   0  0  0  0  0  0  0  0  0  0  0  0
   17.4263    7.2616    0.0000 H   0  0  0  0  0  0  0  0  0  0  0  0
   16.5830    7.0216    0.0000 H   0  0  0  0  0  0  0  0  0  0  0  0
   16.6568    7.0228    0.0000 H   0  0  0  0  0  0  0  0  0  0  0  0
   15.8065    7.2366    0.0000 H   0  0  0  0  0  0  0  0  0  0  0  0
   15.5926    6.3863    0.0000 H   0  0  0  0  0  0  0  0  0  0  0  0
    8.5991    0.4700    0.0000 H   0  0  0  0  0  0  0  0  0  0  0  0
   11.6004   -1.7154    0.0000 H   0  0  0  0  0  0  0  0  0  0  0  0
   18.9188    3.4071    0.0000 H   0  0  0  0  0  0  0  0  0  0  0  0
    7.1962    0.2800    0.0000 H   0  0  0  0  0  0  0  0  0  0  0  0
    6.3301    1.4000    0.0000 H   0  0  0  0  0  0  0  0  0  0  0  0
    8.1316    3.0650    0.0000 H   0  0  0  0  0  0  0  0  0  0  0  0
    7.3346    3.0650    0.0000 H   0  0  0  0  0  0  0  0  0  0  0  0
    6.8671    2.7100    0.0000 H   0  0  0  0  0  0  0  0  0  0  0  0
    7.4040   -1.2200    0.0000 H   0  0  0  0  0  0  0  0  0  0  0  0
    5.4641    0.9000    0.0000 H   0  0  0  0  0  0  0  0  0  0  0  0
    6.0010    3.2100    0.0000 H   0  0  0  0  0  0  0  0  0  0  0  0
    6.8671   -2.5300    0.0000 H   0  0  0  0  0  0  0  0  0  0  0  0
    5.4641   -2.7200    0.0000 H   0  0  0  0  0  0  0  0  0  0  0  0
    5.1350   -0.2900    0.0000 H   0  0  0  0  0  0  0  0  0  0  0  0
    4.5981   -1.6000    0.0000 H   0  0  0  0  0  0  0  0  0  0  0  0
    8.2700   -2.1000    0.0000 H   0  0  0  0  0  0  0  0  0  0  0  0
    4.5790    0.1270    0.0000 H   0  0  0  0  0  0  0  0  0  0  0  0
    3.7320   -0.1000    0.0000 H   0  0  0  0  0  0  0  0  0  0  0  0
    3.9590   -0.9469    0.0000 H   0  0  0  0  0  0  0  0  0  0  0  0
    3.7320   -2.1000    0.0000 H   0  0  0  0  0  0  0  0  0  0  0  0
    5.1350   -3.2900    0.0000 H   0  0  0  0  0  0  0  0  0  0  0  0
    5.1350   -5.5300    0.0000 H   0  0  0  0  0  0  0  0  0  0  0  0
    3.7320   -5.7200    0.0000 H   0  0  0  0  0  0  0  0  0  0  0  0
    3.1909   -3.3274    0.0000 H   0  0  0  0  0  0  0  0  0  0  0  0
    2.7924   -4.0176    0.0000 H   0  0  0  0  0  0  0  0  0  0  0  0
    2.8660   -4.6000    0.0000 H   0  0  0  0  0  0  0  0  0  0  0  0
    6.0010   -6.0300    0.0000 H   0  0  0  0  0  0  0  0  0  0  0  0
    3.7320   -6.7200    0.0000 H   0  0  0  0  0  0  0  0  0  0  0  0
    2.0000   -5.1000    0.0000 H   0  0  0  0  0  0  0  0  0  0  0  0
  1 31  1  0  0  0  0
  1 47  1  0  0  0  0
  2 41  1  0  0  0  0
  2109  1  0  0  0  0
  3 44  1  0  0  0  0
  3110  1  0  0  0  0
  4 44  2  0  0  0  0
  5 47  1  0  0  0  0
  5 50  1  0  0  0  0
  6 48  1  0  0  0  0
  6 52  1  0  0  0  0
  7 49  1  0  0  0  0
  7117  1  0  0  0  0
  8 51  1  0  0  0  0
  8118  1  0  0  0  0
  9 52  1  0  0  0  0
  9 55  1  0  0  0  0
 10 53  1  0  0  0  0
 10123  1  0  0  0  0
 11 54  1  0  0  0  0
 11 58  1  0  0  0  0
 12 56  1  0  0  0  0
 12127  1  0  0  0  0
 13 58  1  0  0  0  0
 13 61  1  0  0  0  0
 14 59  1  0  0  0  0
 14134  1  0  0  0  0
 15 60  1  0  0  0  0
 15135  1  0  0  0  0
 16 62  1  0  0  0  0
 16136  1  0  0  0  0
 17 18  1  0  0  0  0
 17 20  1  0  0  0  0
 17 22  1  0  0  0  0
 17 32  1  0  0  0  0
 18 19  1  0  0  0  0
 18 27  1  0  0  0  0
 18 63  1  0  0  0  0
 19 21  1  0  0  0  0
 19 26  1  0  0  0  0
 19 34  1  0  0  0  0
 20 25  1  0  0  0  0
 20 29  1  0  0  0  0
 20 37  1  0  0  0  0
 21 23  1  0  0  0  0
 21 24  1  0  0  0  0
 21 64  1  0  0  0  0
 22 24  1  0  0  0  0
 22 65  1  0  0  0  0
 22 66  1  0  0  0  0
 23 31  1  0  0  0  0
 23 41  1  0  0  0  0
 23 42  1  0  0  0  0
 24 67  1  0  0  0  0
 24 68  1  0  0  0  0
 25 28  1  0  0  0  0
 25 36  2  0  0  0  0
 26 35  1  0  0  0  0
 26 69  1  0  0  0  0
 26 70  1  0  0  0  0
 27 36  1  0  0  0  0
 27 71  1  0  0  0  0
 27 72  1  0  0  0  0
 28 30  1  0  0  0  0
 28 38  1  0  0  0  0
 28 73  1  0  0  0  0
 29 33  1  0  0  0  0
 29 74  1  0  0  0  0
 29 75  1  0  0  0  0
 30 33  1  0  0  0  0
 30 39  1  0  0  0  0
 30 44  1  0  0  0  0
 31 35  1  0  0  0  0
 31 76  1  0  0  0  0
 32 77  1  0  0  0  0
 32 78  1  0  0  0  0
 32 79  1  0  0  0  0
 33 80  1  0  0  0  0
 33 81  1  0  0  0  0
 34 82  1  0  0  0  0
 34 83  1  0  0  0  0
 34 84  1  0  0  0  0
 35 85  1  0  0  0  0
 35 86  1  0  0  0  0
 36 87  1  0  0  0  0
 37 88  1  0  0  0  0
 37 89  1  0  0  0  0
 37 90  1  0  0  0  0
 38 40  1  0  0  0  0
 38 91  1  0  0  0  0
 38 92  1  0  0  0  0
 39 43  1  0  0  0  0
 39 93  1  0  0  0  0
 39 94  1  0  0  0  0
 40 43  1  0  0  0  0
 40 45  1  0  0  0  0
 40 46  1  0  0  0  0
 41 95  1  0  0  0  0
 41 96  1  0  0  0  0
 42 97  1  0  0  0  0
 42 98  1  0  0  0  0
 42 99  1  0  0  0  0
 43100  1  0  0  0  0
 43101  1  0  0  0  0
 45102  1  0  0  0  0
 45103  1  0  0  0  0
 45104  1  0  0  0  0
 46105  1  0  0  0  0
 46106  1  0  0  0  0
 46107  1  0  0  0  0
 47 48  1  0  0  0  0
 47108  1  0  0  0  0
 48 49  1  0  0  0  0
 48111  1  0  0  0  0
 49 51  1  0  0  0  0
 49112  1  0  0  0  0
 50 51  1  0  0  0  0
 50113  1  0  0  0  0
 50114  1  0  0  0  0
 51115  1  0  0  0  0
 52 53  1  0  0  0  0
 52116  1  0  0  0  0
 53 54  1  0  0  0  0
 53119  1  0  0  0  0
 54 56  1  0  0  0  0
 54120  1  0  0  0  0
 55 56  1  0  0  0  0
 55 57  1  0  0  0  0
 55121  1  0  0  0  0
 56122  1  0  0  0  0
 57124  1  0  0  0  0
 57125  1  0  0  0  0
 57126  1  0  0  0  0
 58 59  1  0  0  0  0
 58128  1  0  0  0  0
 59 60  1  0  0  0  0
 59129  1  0  0  0  0
 60 62  1  0  0  0  0
 60130  1  0  0  0  0
 61 62  1  0  0  0  0
 61131  1  0  0  0  0
 61132  1  0  0  0  0
 62133  1  0  0  0  0
M  END
> <PUBCHEM_COMPOUND_CID>
15625347

> <PUBCHEM_COMPOUND_CANONICALIZED>
1

> <PUBCHEM_CACTVS_COMPLEXITY>
1690

> <PUBCHEM_CACTVS_HBOND_ACCEPTOR>
16

> <PUBCHEM_CACTVS_HBOND_DONOR>
9

> <PUBCHEM_CACTVS_ROTATABLE_BOND>
8

> <PUBCHEM_CACTVS_SUBSKEYS>
AAADcfB8PgAAAAAAAAAAAAAAAAAAAAAAAAA0aNGCAAAAAADAAAAAGgAACAAADxSwgAMCCAAABgCIAiDSCAAAAAAgAAAACAEAAAgREBIAAQAiQAAFgAAPAAPI6PyPgAAAAAAAAADAAAYAADAAAAAAAAAAAA==

> <PUBCHEM_IUPAC_OPENEYE_NAME>
10-[3-[3,5-dihydroxy-6-methyl-4-(3,4,5-trihydroxytetrahydropyran-2-yl)oxy-tetrahydropyran-2-yl]oxy-4,5-dihydroxy-tetrahydropyran-2-yl]oxy-9-(hydroxymethyl)-2,2,6a,6b,9,12a-hexamethyl-1,3,4,5,6,6a,7,8,8a,10,11,12,13,14b-tetradecahydropicene-4a-carboxylic acid

> <PUBCHEM_IUPAC_CAS_NAME>
10-[[3-[[3,5-dihydroxy-6-methyl-4-[(3,4,5-trihydroxy-2-oxanyl)oxy]-2-oxanyl]oxy]-4,5-dihydroxy-2-oxanyl]oxy]-9-(hydroxymethyl)-2,2,6a,6b,9,12a-hexamethyl-1,3,4,5,6,6a,7,8,8a,10,11,12,13,14b-tetradecahydropicene-4a-carboxylic acid

> <PUBCHEM_IUPAC_NAME_MARKUP>
10-[3-[3,5-dihydroxy-6-methyl-4-(3,4,5-trihydroxyoxan-2-yl)oxyoxan-2-yl]oxy-4,5-dihydroxyoxan-2-yl]oxy-9-(hydroxymethyl)-2,2,6<I>a</I>,6<I>b</I>,9,12<I>a</I>-hexamethyl-1,3,4,5,6,6<I>a</I>,7,8,8<I>a</I>,10,11,12,13,14<I>b</I>-tetradecahydropicene-4<I>a</I>-carboxylic acid

> <PUBCHEM_IUPAC_NAME>
10-[3-[3,5-dihydroxy-6-methyl-4-(3,4,5-trihydroxyoxan-2-yl)oxyoxan-2-yl]oxy-4,5-dihydroxyoxan-2-yl]oxy-9-(hydroxymethyl)-2,2,6a,6b,9,12a-hexamethyl-1,3,4,5,6,6a,7,8,8a,10,11,12,13,14b-tetradecahydropicene-4a-carboxylic acid

> <PUBCHEM_IUPAC_SYSTEMATIC_NAME>
9-(hydroxymethyl)-2,2,6a,6b,9,12a-hexamethyl-10-[3-[6-methyl-3,5-bis(oxidanyl)-4-[3,4,5-tris(oxidanyl)oxan-2-yl]oxy-oxan-2-yl]oxy-4,5-bis(oxidanyl)oxan-2-yl]oxy-1,3,4,5,6,6a,7,8,8a,10,11,12,13,14b-tetradecahydropicene-4a-carboxylic acid

> <PUBCHEM_IUPAC_TRADITIONAL_NAME>
10-[3-[3,5-dihydroxy-6-methyl-4-(3,4,5-trihydroxytetrahydropyran-2-yl)oxy-tetrahydropyran-2-yl]oxy-4,5-dihydroxy-tetrahydropyran-2-yl]oxy-2,2,6a,6b,9,12a-hexamethyl-9-methylol-1,3,4,5,6,6a,7,8,8a,10,11,12,13,14b-tetradecahydropicene-4a-carboxylic acid

> <PUBCHEM_IUPAC_INCHI>
InChI=1S/C46H74O16/c1-22-30(50)35(61-37-33(53)31(51)25(48)19-57-37)34(54)38(59-22)62-36-32(52)26(49)20-58-39(36)60-29-11-12-42(4)27(43(29,5)21-47)10-13-45(7)28(42)9-8-23-24-18-41(2,3)14-16-46(24,40(55)56)17-15-44(23,45)6/h8,22,24-39,47-54H,9-21H2,1-7H3,(H,55,56)

> <PUBCHEM_IUPAC_INCHIKEY>
IAGSHEHQJJTLLR-UHFFFAOYSA-N

> <PUBCHEM_XLOGP3_AA>
2.1

> <PUBCHEM_EXACT_MASS>
882.497686

> <PUBCHEM_MOLECULAR_FORMULA>
C46H74O16

> <PUBCHEM_MOLECULAR_WEIGHT>
883.1

> <PUBCHEM_OPENEYE_CAN_SMILES>
CC1C(C(C(C(O1)OC2C(C(COC2OC3CCC4(C(C3(C)CO)CCC5(C4CC=C6C5(CCC7(C6CC(CC7)(C)C)C(=O)O)C)C)C)O)O)O)OC8C(C(C(CO8)O)O)O)O

> <PUBCHEM_OPENEYE_ISO_SMILES>
CC1C(C(C(C(O1)OC2C(C(COC2OC3CCC4(C(C3(C)CO)CCC5(C4CC=C6C5(CCC7(C6CC(CC7)(C)C)C(=O)O)C)C)C)O)O)O)OC8C(C(C(CO8)O)O)O)O

> <PUBCHEM_CACTVS_TPSA>
255

> <PUBCHEM_MONOISOTOPIC_WEIGHT>
882.497686

> <PUBCHEM_TOTAL_CHARGE>
0

> <PUBCHEM_HEAVY_ATOM_COUNT>
62

> <PUBCHEM_ATOM_DEF_STEREO_COUNT>
0

> <PUBCHEM_ATOM_UDEF_STEREO_COUNT>
22

> <PUBCHEM_BOND_DEF_STEREO_COUNT>
0

> <PUBCHEM_BOND_UDEF_STEREO_COUNT>
0

> <PUBCHEM_ISOTOPIC_ATOM_COUNT>
0

> <PUBCHEM_COMPONENT_COUNT>
1

> <PUBCHEM_CACTVS_TAUTO_COUNT>
-1

> <PUBCHEM_COORDINATE_TYPE>
1
5
255

> <PUBCHEM_BONDANNOTATIONS>
31  1  3
47  1  3
53  10  3
54  11  3
58  11  3
56  12  3
59  14  3
60  15  3
62  16  3
17  32  3
18  27  3
19  34  3
20  37  3
21  24  3
23  42  3
28  38  3
30  44  3
55  57  3
48  6  3
52  6  3
49  7  3
51  8  3

$$$$
