46184806
  -OEChem-09302010333D

 70 73  0     1  0  0  0  0  0999 V2000
   -1.2626   -0.2849   -0.9767 O   0  0  0  0  0  0  0  0  0  0  0  0
    0.5338    0.4937    0.3539 O   0  0  0  0  0  0  0  0  0  0  0  0
   -4.7526    1.7987   -0.3718 O   0  0  0  0  0  0  0  0  0  0  0  0
    2.2977   -1.8199    0.8602 O   0  0  0  0  0  0  0  0  0  0  0  0
    0.6110   -2.7653   -1.1471 O   0  0  0  0  0  0  0  0  0  0  0  0
   -1.1667    2.5606   -0.6013 O   0  0  0  0  0  0  0  0  0  0  0  0
   -3.4064   -1.4714    0.5929 O   0  0  0  0  0  0  0  0  0  0  0  0
   -5.9050   -0.1596    0.1629 O   0  0  0  0  0  0  0  0  0  0  0  0
    4.5534   -0.8225   -0.4591 O   0  0  0  0  0  0  0  0  0  0  0  0
   -4.9404    4.5318   -0.2859 O   0  0  0  0  0  0  0  0  0  0  0  0
    5.9504   -1.4064   -2.2042 O   0  0  0  0  0  0  0  0  0  0  0  0
   -2.2218    0.4496   -0.2141 C   0  0  1  0  0  0  0  0  0  0  0  0
    2.1787   -1.0598   -0.3428 C   0  0  1  0  0  0  0  0  0  0  0  0
    0.8735   -1.3792   -1.0474 C   0  0  2  0  0  0  0  0  0  0  0  0
   -0.1462   -0.6549   -0.1806 C   0  0  2  0  0  0  0  0  0  0  0  0
   -2.3734    1.8387   -0.8343 C   0  0  1  0  0  0  0  0  0  0  0  0
   -3.5508   -0.3059   -0.2177 C   0  0  2  0  0  0  0  0  0  0  0  0
   -3.5653    2.5793   -0.2230 C   0  0  1  0  0  0  0  0  0  0  0  0
    1.9386    0.3908    0.0438 C   0  0  0  0  0  0  0  0  0  0  0  0
   -4.6844    0.5602    0.3313 C   0  0  1  0  0  0  0  0  0  0  0  0
    3.4231   -1.2735   -1.1873 C   0  0  0  0  0  0  0  0  0  0  0  0
   -3.8209    3.9215   -0.9015 C   0  0  0  0  0  0  0  0  0  0  0  0
   -6.9180    0.3337    1.0257 C   0  0  0  0  0  0  0  0  0  0  0  0
   -8.1749   -0.4564    0.8075 C   0  0  0  0  0  0  0  0  0  0  0  0
    5.7593   -0.9483   -1.0889 C   0  0  0  0  0  0  0  0  0  0  0  0
   -9.1038   -0.0404   -0.1463 C   0  0  0  0  0  0  0  0  0  0  0  0
   -8.4143   -1.6071    1.5586 C   0  0  0  0  0  0  0  0  0  0  0  0
    6.8084   -0.4297   -0.1820 C   0  0  0  0  0  0  0  0  0  0  0  0
  -10.2723   -0.7749   -0.3489 C   0  0  0  0  0  0  0  0  0  0  0  0
   -9.5827   -2.3416    1.3562 C   0  0  0  0  0  0  0  0  0  0  0  0
  -10.5117   -1.9255    0.4023 C   0  0  0  0  0  0  0  0  0  0  0  0
    8.0895   -0.4446   -0.5767 C   0  0  0  0  0  0  0  0  0  0  0  0
    9.2214    0.0333    0.2369 C   0  0  0  0  0  0  0  0  0  0  0  0
    8.9959    0.9069    1.3007 C   0  0  0  0  0  0  0  0  0  0  0  0
   10.5181   -0.3882   -0.0566 C   0  0  0  0  0  0  0  0  0  0  0  0
   10.0674    1.3593    2.0709 C   0  0  0  0  0  0  0  0  0  0  0  0
   11.5896    0.0640    0.7135 C   0  0  0  0  0  0  0  0  0  0  0  0
   11.3643    0.9378    1.7772 C   0  0  0  0  0  0  0  0  0  0  0  0
   -1.8861    0.5558    0.8279 H   0  0  0  0  0  0  0  0  0  0  0  0
    0.8612   -0.9621   -2.0629 H   0  0  0  0  0  0  0  0  0  0  0  0
   -0.4817   -1.2908    0.6487 H   0  0  0  0  0  0  0  0  0  0  0  0
   -2.4943    1.7421   -1.9201 H   0  0  0  0  0  0  0  0  0  0  0  0
   -3.7867   -0.6523   -1.2310 H   0  0  0  0  0  0  0  0  0  0  0  0
   -3.4037    2.7675    0.8473 H   0  0  0  0  0  0  0  0  0  0  0  0
    2.1388    1.0802   -0.7837 H   0  0  0  0  0  0  0  0  0  0  0  0
    2.5060    0.7097    0.9233 H   0  0  0  0  0  0  0  0  0  0  0  0
   -4.5206    0.7480    1.4017 H   0  0  0  0  0  0  0  0  0  0  0  0
    3.3505   -0.7222   -2.1324 H   0  0  0  0  0  0  0  0  0  0  0  0
    3.5493   -2.3413   -1.4030 H   0  0  0  0  0  0  0  0  0  0  0  0
   -4.0567    3.7837   -1.9621 H   0  0  0  0  0  0  0  0  0  0  0  0
   -2.9584    4.5881   -0.8061 H   0  0  0  0  0  0  0  0  0  0  0  0
    3.1221   -1.5517    1.3010 H   0  0  0  0  0  0  0  0  0  0  0  0
    1.3302   -3.1646   -1.6651 H   0  0  0  0  0  0  0  0  0  0  0  0
   -1.0639    2.6728    0.3591 H   0  0  0  0  0  0  0  0  0  0  0  0
   -3.2201   -1.1849    1.5033 H   0  0  0  0  0  0  0  0  0  0  0  0
   -6.6021    0.2439    2.0727 H   0  0  0  0  0  0  0  0  0  0  0  0
   -7.1033    1.3967    0.8270 H   0  0  0  0  0  0  0  0  0  0  0  0
   -5.0869    5.3818   -0.7349 H   0  0  0  0  0  0  0  0  0  0  0  0
   -8.9274    0.8532   -0.7391 H   0  0  0  0  0  0  0  0  0  0  0  0
   -7.6972   -1.9427    2.3030 H   0  0  0  0  0  0  0  0  0  0  0  0
    6.4866   -0.0719    0.7890 H   0  0  0  0  0  0  0  0  0  0  0  0
  -10.9953   -0.4512   -1.0919 H   0  0  0  0  0  0  0  0  0  0  0  0
   -9.7689   -3.2379    1.9406 H   0  0  0  0  0  0  0  0  0  0  0  0
  -11.4213   -2.4976    0.2445 H   0  0  0  0  0  0  0  0  0  0  0  0
    8.3562   -0.8401   -1.5541 H   0  0  0  0  0  0  0  0  0  0  0  0
    8.0069    1.2773    1.5535 H   0  0  0  0  0  0  0  0  0  0  0  0
   10.7125   -1.0698   -0.8811 H   0  0  0  0  0  0  0  0  0  0  0  0
    9.8932    2.0433    2.8964 H   0  0  0  0  0  0  0  0  0  0  0  0
   12.5995   -0.2641    0.4850 H   0  0  0  0  0  0  0  0  0  0  0  0
   12.1987    1.2907    2.3761 H   0  0  0  0  0  0  0  0  0  0  0  0
  1 12  1  0  0  0  0
  1 15  1  0  0  0  0
  2 15  1  0  0  0  0
  2 19  1  0  0  0  0
  3 18  1  0  0  0  0
  3 20  1  0  0  0  0
  4 13  1  0  0  0  0
  4 52  1  0  0  0  0
  5 14  1  0  0  0  0
  5 53  1  0  0  0  0
  6 16  1  0  0  0  0
  6 54  1  0  0  0  0
  7 17  1  0  0  0  0
  7 55  1  0  0  0  0
  8 20  1  0  0  0  0
  8 23  1  0  0  0  0
  9 21  1  0  0  0  0
  9 25  1  0  0  0  0
 10 22  1  0  0  0  0
 10 58  1  0  0  0  0
 11 25  2  0  0  0  0
 12 16  1  0  0  0  0
 12 17  1  0  0  0  0
 12 39  1  0  0  0  0
 13 14  1  0  0  0  0
 13 19  1  0  0  0  0
 13 21  1  0  0  0  0
 14 15  1  0  0  0  0
 14 40  1  0  0  0  0
 15 41  1  0  0  0  0
 16 18  1  0  0  0  0
 16 42  1  0  0  0  0
 17 20  1  0  0  0  0
 17 43  1  0  0  0  0
 18 22  1  0  0  0  0
 18 44  1  0  0  0  0
 19 45  1  0  0  0  0
 19 46  1  0  0  0  0
 20 47  1  0  0  0  0
 21 48  1  0  0  0  0
 21 49  1  0  0  0  0
 22 50  1  0  0  0  0
 22 51  1  0  0  0  0
 23 24  1  0  0  0  0
 23 56  1  0  0  0  0
 23 57  1  0  0  0  0
 24 26  2  0  0  0  0
 24 27  1  0  0  0  0
 25 28  1  0  0  0  0
 26 29  1  0  0  0  0
 26 59  1  0  0  0  0
 27 30  2  0  0  0  0
 27 60  1  0  0  0  0
 28 32  2  0  0  0  0
 28 61  1  0  0  0  0
 29 31  2  0  0  0  0
 29 62  1  0  0  0  0
 30 31  1  0  0  0  0
 30 63  1  0  0  0  0
 31 64  1  0  0  0  0
 32 33  1  0  0  0  0
 32 65  1  0  0  0  0
 33 34  2  0  0  0  0
 33 35  1  0  0  0  0
 34 36  1  0  0  0  0
 34 66  1  0  0  0  0
 35 37  2  0  0  0  0
 35 67  1  0  0  0  0
 36 38  2  0  0  0  0
 36 68  1  0  0  0  0
 37 38  1  0  0  0  0
 37 69  1  0  0  0  0
 38 70  1  0  0  0  0
M  END
> <PUBCHEM_COMPOUND_CID>
46184806

> <PUBCHEM_CONFORMER_RMSD>
1.2

> <PUBCHEM_CONFORMER_DIVERSEORDER>
1
27
26
19
7
10
15
13
17
9
8
11
21
25
4
14
2
23
20
18
16
24
5
28
22
6
12
3

> <PUBCHEM_MMFF94_PARTIAL_CHARGES>
55
1 -0.56
10 -0.68
11 -0.57
12 0.28
13 0.28
14 0.28
15 0.56
16 0.28
17 0.28
18 0.28
19 0.28
2 -0.56
20 0.56
21 0.28
22 0.28
23 0.42
24 -0.14
25 0.71
26 -0.15
27 -0.15
28 -0.14
29 -0.15
3 -0.56
30 -0.15
31 -0.15
32 -0.18
33 0.03
34 -0.15
35 -0.15
36 -0.15
37 -0.15
38 -0.15
4 -0.68
5 -0.68
52 0.4
53 0.4
54 0.4
55 0.4
58 0.4
59 0.15
6 -0.68
60 0.15
61 0.15
62 0.15
63 0.15
64 0.15
65 0.15
66 0.15
67 0.15
68 0.15
69 0.15
7 -0.68
70 0.15
8 -0.56
9 -0.43

> <PUBCHEM_EFFECTIVE_ROTOR_COUNT>
13.2

> <PUBCHEM_PHARMACOPHORE_FEATURES>
19
1 1 acceptor
1 10 acceptor
1 10 donor
1 11 acceptor
1 2 acceptor
1 3 acceptor
1 4 acceptor
1 4 donor
1 5 acceptor
1 5 donor
1 6 acceptor
1 6 donor
1 7 acceptor
1 7 donor
1 8 acceptor
5 2 13 14 15 19 rings
6 24 26 27 29 30 31 rings
6 3 12 16 17 18 20 rings
6 33 34 35 36 37 38 rings

> <PUBCHEM_HEAVY_ATOM_COUNT>
38

> <PUBCHEM_ATOM_DEF_STEREO_COUNT>
8

> <PUBCHEM_ATOM_UDEF_STEREO_COUNT>
0

> <PUBCHEM_BOND_DEF_STEREO_COUNT>
1

> <PUBCHEM_BOND_UDEF_STEREO_COUNT>
0

> <PUBCHEM_ISOTOPIC_ATOM_COUNT>
0

> <PUBCHEM_COMPONENT_COUNT>
1

> <PUBCHEM_CACTVS_TAUTO_COUNT>
1

> <PUBCHEM_CONFORMER_ID>
02C0B96600000001

> <PUBCHEM_MMFF94_ENERGY>
116.7394

> <PUBCHEM_FEATURE_SELFOVERLAP>
96.542

> <PUBCHEM_SHAPE_FINGERPRINT>
10076449 9 18131074827290040657
10162869 55 16950566584553528894
106641 1 18344148093976814071
10883706 142 18410012131448957582
10930396 42 18407759248855075471
11409948 35 11098121272631930336
11409948 8 18271807955684117626
11410812 94 16081078257128392173
11534866 41 17822007606771489898
11621639 148 18343020016928026636
12013929 2 11458420241425628398
12144603 126 13326856626109916106
12559415 86 10879730783279183091
12664476 115 18131348613911561400
13740195 50 18412545426838503370
14344974 52 17704069624929288690
14918687 75 17632573890656234647
15247644 1 16660363688546820946
15274700 256 18259704518726551002
15347591 1 18121217576260575839
16664035 7 17894633647224128709
16728433 110 18060421326353325649
16992610 120 10879994662106820757
17686467 74 18411420609801482905
19315958 150 17131839750994842694
20501277 279 17988925587442853930
21057603 130 17989201582832527815
21102433 48 16443058418331055954
21130935 74 18191024500288233114
21360443 89 18334296509380550931
21895431 317 16081076062326478322
232437 2 14201394993372420714
2835820 33 18407760343533425419
3092352 35 15482954943403029630
335507 130 18343301478998470620
3991529 128 13686304591144421179
4173938 188 18342176691451585171
4353968 344 14418126314582248143
4625314 4 9367050160854083378
474113 269 14634866453554456326
57303763 39 15913037781515056767
57828716 8 16660640786630005643
58083652 198 15068635881055687396
6081469 158 11746935395748015118
9663363 56 18335419072308359311

> <PUBCHEM_SHAPE_MULTIPOLES>
717.46
45.6
2.94
1.4
51.23
3.52
0.23
-8.82
21.63
-6.72
-0.65
2.15
-0.23
4.74

> <PUBCHEM_SHAPE_SELFOVERLAP>
1520.786

> <PUBCHEM_SHAPE_VOLUME>
396.7

> <PUBCHEM_COORDINATE_TYPE>
2
5
10

$$$$
