122198191
  -OEChem-09302010283D

 74 78  0     1  0  0  0  0  0999 V2000
    6.9591   -0.0675   -0.6186 O   0  0  0  0  0  0  0  0  0  0  0  0
   -6.9416   -1.9134    0.5668 O   0  0  0  0  0  0  0  0  0  0  0  0
   -9.2424   -0.5755    1.8461 O   0  0  0  0  0  0  0  0  0  0  0  0
   -5.9659   -0.3451   -0.9139 O   0  0  0  0  0  0  0  0  0  0  0  0
    4.7901   -0.8791   -0.9036 O   0  0  0  0  0  0  0  0  0  0  0  0
   -8.5998    1.1678   -0.2312 O   0  0  0  0  0  0  0  0  0  0  0  0
    8.4580   -3.8636   -0.1597 O   0  0  0  0  0  0  0  0  0  0  0  0
   10.0258   -1.5869    0.6852 O   0  0  0  0  0  0  0  0  0  0  0  0
    5.5855   -3.3429    0.2386 O   0  0  0  0  0  0  0  0  0  0  0  0
  -11.2264   -2.2631    0.8269 O   0  0  0  0  0  0  0  0  0  0  0  0
    0.2407    0.3713   -0.3784 O   0  0  0  0  0  0  0  0  0  0  0  0
    8.4041    2.2270   -0.1691 O   0  0  0  0  0  0  0  0  0  0  0  0
   -4.3890    1.2189   -2.5849 O   0  0  0  0  0  0  0  0  0  0  0  0
    3.7939    3.0880    1.5169 O   0  0  0  0  0  0  0  0  0  0  0  0
    1.2841    3.7619    1.6819 O   0  0  0  0  0  0  0  0  0  0  0  0
   -9.1635   -1.0976    0.5194 C   0  0  1  0  0  0  0  0  0  0  0  0
   -8.2964   -0.2082   -0.3519 C   0  0  2  0  0  0  0  0  0  0  0  0
    7.8905   -2.6301    0.2841 C   0  0  1  0  0  0  0  0  0  0  0  0
    8.8450   -1.5022   -0.1082 C   0  0  1  0  0  0  0  0  0  0  0  0
    6.5166   -2.4413   -0.3593 C   0  0  2  0  0  0  0  0  0  0  0  0
    8.1887   -0.1362    0.1057 C   0  0  1  0  0  0  0  0  0  0  0  0
   -6.8958   -0.5405    0.1417 C   0  0  1  0  0  0  0  0  0  0  0  0
   -8.3137   -2.3576    0.5637 C   0  0  0  0  0  0  0  0  0  0  0  0
    5.9998   -1.0166   -0.1587 C   0  0  1  0  0  0  0  0  0  0  0  0
  -10.5703   -1.3226   -0.0074 C   0  0  0  0  0  0  0  0  0  0  0  0
    9.0775    1.0009   -0.3882 C   0  0  0  0  0  0  0  0  0  0  0  0
   -0.6566    0.9527    0.5803 C   0  0  1  0  0  0  0  0  0  0  0  0
   -4.6888   -0.0276   -0.5624 C   0  0  0  0  0  0  0  0  0  0  0  0
    3.8621   -0.0048   -0.4079 C   0  0  0  0  0  0  0  0  0  0  0  0
   -0.4607    2.4649    0.6674 C   0  0  0  0  0  0  0  0  0  0  0  0
   -2.0754    0.6083    0.1786 C   0  0  0  0  0  0  0  0  0  0  0  0
    1.5565    0.6568   -0.1198 C   0  0  0  0  0  0  0  0  0  0  0  0
    1.9745    1.7834    0.5944 C   0  0  0  0  0  0  0  0  0  0  0  0
    2.5039   -0.2289   -0.6348 C   0  0  0  0  0  0  0  0  0  0  0  0
   -3.8978    0.7581   -1.4007 C   0  0  0  0  0  0  0  0  0  0  0  0
    0.9642    2.7545    1.0622 C   0  0  0  0  0  0  0  0  0  0  0  0
   -4.1731   -0.4952    0.6463 C   0  0  0  0  0  0  0  0  0  0  0  0
    4.2755    1.1088    0.3240 C   0  0  0  0  0  0  0  0  0  0  0  0
   -2.5911    1.0762   -1.0301 C   0  0  0  0  0  0  0  0  0  0  0  0
   -2.8664   -0.1773    1.0168 C   0  0  0  0  0  0  0  0  0  0  0  0
    3.3340    2.0090    0.8243 C   0  0  0  0  0  0  0  0  0  0  0  0
   -3.5152    2.0155   -3.3827 C   0  0  0  0  0  0  0  0  0  0  0  0
   -8.3921   -0.4806   -1.4111 H   0  0  0  0  0  0  0  0  0  0  0  0
    7.8053   -2.7084    1.3743 H   0  0  0  0  0  0  0  0  0  0  0  0
    9.1459   -1.6219   -1.1562 H   0  0  0  0  0  0  0  0  0  0  0  0
    6.5552   -2.6884   -1.4268 H   0  0  0  0  0  0  0  0  0  0  0  0
    7.9765    0.0375    1.1695 H   0  0  0  0  0  0  0  0  0  0  0  0
   -6.6655    0.0984    1.0062 H   0  0  0  0  0  0  0  0  0  0  0  0
   -8.4770   -2.9652    1.4588 H   0  0  0  0  0  0  0  0  0  0  0  0
   -8.4501   -2.9823   -0.3258 H   0  0  0  0  0  0  0  0  0  0  0  0
    5.8062   -0.8723    0.9150 H   0  0  0  0  0  0  0  0  0  0  0  0
  -10.5608   -1.7090   -1.0316 H   0  0  0  0  0  0  0  0  0  0  0  0
  -11.1491   -0.3936    0.0190 H   0  0  0  0  0  0  0  0  0  0  0  0
    9.2644    0.9109   -1.4635 H   0  0  0  0  0  0  0  0  0  0  0  0
   10.0328    1.0246    0.1446 H   0  0  0  0  0  0  0  0  0  0  0  0
   -9.7642   -1.1986    2.3805 H   0  0  0  0  0  0  0  0  0  0  0  0
   -9.5235    1.2908   -0.5080 H   0  0  0  0  0  0  0  0  0  0  0  0
    8.5306   -3.8318   -1.1289 H   0  0  0  0  0  0  0  0  0  0  0  0
    9.7714   -1.4681    1.6162 H   0  0  0  0  0  0  0  0  0  0  0  0
    5.5386   -3.1428    1.1890 H   0  0  0  0  0  0  0  0  0  0  0  0
   -0.4422    0.4952    1.5575 H   0  0  0  0  0  0  0  0  0  0  0  0
   -1.1312    2.8932    1.4209 H   0  0  0  0  0  0  0  0  0  0  0  0
   -0.6321    2.9721   -0.2886 H   0  0  0  0  0  0  0  0  0  0  0  0
  -12.1228   -2.3856    0.4706 H   0  0  0  0  0  0  0  0  0  0  0  0
    2.1863   -1.0993   -1.2035 H   0  0  0  0  0  0  0  0  0  0  0  0
   -4.7347   -1.1283    1.3245 H   0  0  0  0  0  0  0  0  0  0  0  0
    5.3212    1.3340    0.5056 H   0  0  0  0  0  0  0  0  0  0  0  0
   -1.9306    1.6690   -1.6527 H   0  0  0  0  0  0  0  0  0  0  0  0
   -2.4766   -0.5533    1.9590 H   0  0  0  0  0  0  0  0  0  0  0  0
    8.9851    2.9357   -0.4942 H   0  0  0  0  0  0  0  0  0  0  0  0
    3.0545    3.6042    1.8725 H   0  0  0  0  0  0  0  0  0  0  0  0
   -3.2395    2.9460   -2.8748 H   0  0  0  0  0  0  0  0  0  0  0  0
   -4.0707    2.2988   -4.2829 H   0  0  0  0  0  0  0  0  0  0  0  0
   -2.6411    1.4458   -3.7162 H   0  0  0  0  0  0  0  0  0  0  0  0
  1 21  1  0  0  0  0
  1 24  1  0  0  0  0
  2 22  1  0  0  0  0
  2 23  1  0  0  0  0
  3 16  1  0  0  0  0
  3 56  1  0  0  0  0
  4 22  1  0  0  0  0
  4 28  1  0  0  0  0
  5 24  1  0  0  0  0
  5 29  1  0  0  0  0
  6 17  1  0  0  0  0
  6 57  1  0  0  0  0
  7 18  1  0  0  0  0
  7 58  1  0  0  0  0
  8 19  1  0  0  0  0
  8 59  1  0  0  0  0
  9 20  1  0  0  0  0
  9 60  1  0  0  0  0
 10 25  1  0  0  0  0
 10 64  1  0  0  0  0
 11 27  1  0  0  0  0
 11 32  1  0  0  0  0
 12 26  1  0  0  0  0
 12 70  1  0  0  0  0
 13 35  1  0  0  0  0
 13 42  1  0  0  0  0
 14 41  1  0  0  0  0
 14 71  1  0  0  0  0
 15 36  2  0  0  0  0
 16 17  1  0  0  0  0
 16 23  1  0  0  0  0
 16 25  1  0  0  0  0
 17 22  1  0  0  0  0
 17 43  1  0  0  0  0
 18 19  1  0  0  0  0
 18 20  1  0  0  0  0
 18 44  1  0  0  0  0
 19 21  1  0  0  0  0
 19 45  1  0  0  0  0
 20 24  1  0  0  0  0
 20 46  1  0  0  0  0
 21 26  1  0  0  0  0
 21 47  1  0  0  0  0
 22 48  1  0  0  0  0
 23 49  1  0  0  0  0
 23 50  1  0  0  0  0
 24 51  1  0  0  0  0
 25 52  1  0  0  0  0
 25 53  1  0  0  0  0
 26 54  1  0  0  0  0
 26 55  1  0  0  0  0
 27 30  1  0  0  0  0
 27 31  1  0  0  0  0
 27 61  1  0  0  0  0
 28 35  2  0  0  0  0
 28 37  1  0  0  0  0
 29 34  1  0  0  0  0
 29 38  2  0  0  0  0
 30 36  1  0  0  0  0
 30 62  1  0  0  0  0
 30 63  1  0  0  0  0
 31 39  2  0  0  0  0
 31 40  1  0  0  0  0
 32 33  1  0  0  0  0
 32 34  2  0  0  0  0
 33 36  1  0  0  0  0
 33 41  2  0  0  0  0
 34 65  1  0  0  0  0
 35 39  1  0  0  0  0
 37 40  2  0  0  0  0
 37 66  1  0  0  0  0
 38 41  1  0  0  0  0
 38 67  1  0  0  0  0
 39 68  1  0  0  0  0
 40 69  1  0  0  0  0
 42 72  1  0  0  0  0
 42 73  1  0  0  0  0
 42 74  1  0  0  0  0
M  END
> <PUBCHEM_COMPOUND_CID>
122198191

> <PUBCHEM_CONFORMER_RMSD>
1.2

> <PUBCHEM_CONFORMER_DIVERSEORDER>
9
44
30
22
58
56
29
36
5
13
24
12
17
41
28
60
64
49
46
43
47
45
21
62
8
59
19
40
7
38
53
51
50
63
35
33
52
27
37
42
61
18
57
16
6
15
23
55
10
1
54
31
25
11
20
14
4
32
39
34
48
26
2
3

> <PUBCHEM_MMFF94_PARTIAL_CHARGES>
55
1 -0.56
10 -0.68
11 -0.36
12 -0.68
13 -0.36
14 -0.53
15 -0.57
16 0.28
17 0.28
18 0.28
19 0.28
2 -0.56
20 0.28
21 0.28
22 0.56
23 0.28
24 0.56
25 0.28
26 0.28
27 0.42
28 0.08
29 0.08
3 -0.68
30 0.06
31 -0.14
32 0.08
33 0.09
34 -0.15
35 0.08
36 0.42
37 -0.15
38 -0.15
39 -0.15
4 -0.36
40 -0.15
41 0.08
42 0.28
5 -0.36
56 0.4
57 0.4
58 0.4
59 0.4
6 -0.68
60 0.4
64 0.4
65 0.15
66 0.15
67 0.15
68 0.15
69 0.15
7 -0.68
70 0.4
71 0.45
8 -0.68
9 -0.68

> <PUBCHEM_EFFECTIVE_ROTOR_COUNT>
10.8

> <PUBCHEM_PHARMACOPHORE_FEATURES>
27
1 1 acceptor
1 10 acceptor
1 10 donor
1 11 acceptor
1 12 acceptor
1 12 donor
1 13 acceptor
1 14 donor
1 15 acceptor
1 2 acceptor
1 3 acceptor
1 3 donor
1 4 acceptor
1 5 acceptor
1 6 acceptor
1 6 donor
1 7 acceptor
1 7 donor
1 8 acceptor
1 8 donor
1 9 acceptor
1 9 donor
5 2 16 17 22 23 rings
6 1 18 19 20 21 24 rings
6 11 27 30 32 33 36 rings
6 28 31 35 37 39 40 rings
6 29 32 33 34 38 41 rings

> <PUBCHEM_HEAVY_ATOM_COUNT>
42

> <PUBCHEM_ATOM_DEF_STEREO_COUNT>
9

> <PUBCHEM_ATOM_UDEF_STEREO_COUNT>
0

> <PUBCHEM_BOND_DEF_STEREO_COUNT>
0

> <PUBCHEM_BOND_UDEF_STEREO_COUNT>
0

> <PUBCHEM_ISOTOPIC_ATOM_COUNT>
0

> <PUBCHEM_COMPONENT_COUNT>
1

> <PUBCHEM_CACTVS_TAUTO_COUNT>
9

> <PUBCHEM_CONFORMER_ID>
074898AF00000009

> <PUBCHEM_MMFF94_ENERGY>
156.8701

> <PUBCHEM_FEATURE_SELFOVERLAP>
137.208

> <PUBCHEM_SHAPE_FINGERPRINT>
10 15 10879988064757427428
10076449 9 18259706709782610949
10258705 36 18334581265544140067
10930396 42 13830128374294963339
11411753 29 18260541230186499149
11443803 9 14707205548102145808
11456790 92 17703794726069306667
11476731 38 18341617040765957948
12013929 2 18408882924770432517
12082328 90 18337105679188535837
12522641 24 16486969644564337440
12522641 33 8646774383070789921
12539745 222 18411703158937106185
13008946 282 16845281804632141744
13782708 43 18261946427826613407
14118638 360 15213289799268665021
14294032 229 16733814274340311053
15064986 266 18337947901375912629
15065858 18 18335698338606353935
15183329 4 14851609843759379238
15247644 1 18040999544355636523
15320294 125 16702583848511231741
15419008 145 17846506894617423657
15510794 2 18333169479369398811
16067689 302 18413672400972778398
17134984 74 18040431054653473586
1754911 235 12757150191111332587
18603816 31 18059287760616487431
19301679 30 17773888510329387774
19841028 212 18410011018662272114
20105231 36 18260553360001902147
20156587 128 15068890933303810655
2026 5 18261389980248976402
20771845 65 18341895220680683848
21033650 10 17096082481070268581
21781055 127 15338573711598179709
21792961 116 18338791226472143621
232437 2 18409450297485374155
23569917 315 18195530295488514862
23729398 52 18198621223873109304
3178227 256 18060137643932489982
4149490 64 18059012912536508411
4258327 124 11674884394421310385
439807 62 18409171021589921902
4403749 210 9367046888068528789
4461854 278 17346595275273548190
44880568 143 17531245003442752132
45377200 153 16588317137539360307
54039377 194 18411700980575693391
6058803 2 16340016723724172021
6691757 9 15123500399112266917
9953998 17 14117509943926824893
9962374 69 17775276205852138965

> <PUBCHEM_SHAPE_MULTIPOLES>
776.3
38.5
3.4
1.5
23.88
0.39
-1.03
32.44
3.48
-5.59
0.91
2.34
-1.2
2.99

> <PUBCHEM_SHAPE_SELFOVERLAP>
1684.03

> <PUBCHEM_SHAPE_VOLUME>
423

> <PUBCHEM_COORDINATE_TYPE>
2
5
10

$$$$
