46184805
  -OEChem-09302010333D

 57 59  0     1  0  0  0  0  0999 V2000
    3.2950   -1.0188    0.4989 O   0  0  0  0  0  0  0  0  0  0  0  0
    1.5315    0.2085   -0.4950 O   0  0  0  0  0  0  0  0  0  0  0  0
    6.9697    0.8284    0.1305 O   0  0  0  0  0  0  0  0  0  0  0  0
   -0.4832   -1.7534   -1.3960 O   0  0  0  0  0  0  0  0  0  0  0  0
    1.1839   -3.2904    0.2244 O   0  0  0  0  0  0  0  0  0  0  0  0
    3.4868    1.8313    0.8030 O   0  0  0  0  0  0  0  0  0  0  0  0
    5.2475   -2.0497   -1.3720 O   0  0  0  0  0  0  0  0  0  0  0  0
    6.5840    0.2931   -2.1467 O   0  0  0  0  0  0  0  0  0  0  0  0
   -2.5625   -0.8921    0.2646 O   0  0  0  0  0  0  0  0  0  0  0  0
    7.4491    3.4409    0.7600 O   0  0  0  0  0  0  0  0  0  0  0  0
   -3.9337   -1.7387    1.9203 O   0  0  0  0  0  0  0  0  0  0  0  0
    4.2908   -0.2158   -0.1389 C   0  0  1  0  0  0  0  0  0  0  0  0
   -0.2329   -1.3095   -0.0622 C   0  0  1  0  0  0  0  0  0  0  0  0
    1.0623   -1.9015    0.4616 C   0  0  2  0  0  0  0  0  0  0  0  0
    2.1121   -1.0899   -0.2836 C   0  0  2  0  0  0  0  0  0  0  0  0
    4.6174    0.9632    0.7798 C   0  0  1  0  0  0  0  0  0  0  0  0
    5.5358   -1.0659   -0.3848 C   0  0  2  0  0  0  0  0  0  0  0  0
    0.1389    0.1635   -0.1228 C   0  0  0  0  0  0  0  0  0  0  0  0
    5.8602    1.7197    0.2914 C   0  0  1  0  0  0  0  0  0  0  0  0
    6.7270   -0.2109   -0.8199 C   0  0  2  0  0  0  0  0  0  0  0  0
   -1.4539   -1.6012    0.7930 C   0  0  0  0  0  0  0  0  0  0  0  0
    6.2968    2.8010    1.2763 C   0  0  0  0  0  0  0  0  0  0  0  0
   -3.7458   -1.0519    0.9287 C   0  0  0  0  0  0  0  0  0  0  0  0
   -4.7748   -0.2430    0.2367 C   0  0  0  0  0  0  0  0  0  0  0  0
   -6.0317   -0.2337    0.7029 C   0  0  0  0  0  0  0  0  0  0  0  0
   -7.1431    0.5214    0.0978 C   0  0  0  0  0  0  0  0  0  0  0  0
   -6.8759    1.5954   -0.7512 C   0  0  0  0  0  0  0  0  0  0  0  0
   -8.4622    0.1621    0.3739 C   0  0  0  0  0  0  0  0  0  0  0  0
   -7.9279    2.3103   -1.3240 C   0  0  0  0  0  0  0  0  0  0  0  0
   -9.5142    0.8769   -0.1988 C   0  0  0  0  0  0  0  0  0  0  0  0
   -9.2470    1.9510   -1.0478 C   0  0  0  0  0  0  0  0  0  0  0  0
    3.9263    0.1581   -1.1065 H   0  0  0  0  0  0  0  0  0  0  0  0
    1.1530   -1.7373    1.5432 H   0  0  0  0  0  0  0  0  0  0  0  0
    2.3430   -1.5416   -1.2569 H   0  0  0  0  0  0  0  0  0  0  0  0
    4.7695    0.5962    1.8022 H   0  0  0  0  0  0  0  0  0  0  0  0
    5.7829   -1.5948    0.5446 H   0  0  0  0  0  0  0  0  0  0  0  0
    0.0482    0.6556    0.8518 H   0  0  0  0  0  0  0  0  0  0  0  0
   -0.4310    0.7292   -0.8660 H   0  0  0  0  0  0  0  0  0  0  0  0
    5.6635    2.2066   -0.6731 H   0  0  0  0  0  0  0  0  0  0  0  0
    7.6163   -0.8519   -0.8318 H   0  0  0  0  0  0  0  0  0  0  0  0
   -1.6777   -2.6746    0.7673 H   0  0  0  0  0  0  0  0  0  0  0  0
   -1.2827   -1.2947    1.8318 H   0  0  0  0  0  0  0  0  0  0  0  0
    5.5115    3.5488    1.4224 H   0  0  0  0  0  0  0  0  0  0  0  0
    6.5636    2.3621    2.2435 H   0  0  0  0  0  0  0  0  0  0  0  0
   -1.2941   -1.3159   -1.7077 H   0  0  0  0  0  0  0  0  0  0  0  0
    2.0803   -3.5544    0.4934 H   0  0  0  0  0  0  0  0  0  0  0  0
    3.3554    2.1776   -0.0961 H   0  0  0  0  0  0  0  0  0  0  0  0
    6.0543   -2.5757   -1.5056 H   0  0  0  0  0  0  0  0  0  0  0  0
    7.4793    0.4170   -2.5051 H   0  0  0  0  0  0  0  0  0  0  0  0
    7.7114    4.1220    1.4024 H   0  0  0  0  0  0  0  0  0  0  0  0
   -4.4612    0.3012   -0.6464 H   0  0  0  0  0  0  0  0  0  0  0  0
   -6.2943   -0.8209    1.5800 H   0  0  0  0  0  0  0  0  0  0  0  0
   -5.8660    1.9236   -0.9788 H   0  0  0  0  0  0  0  0  0  0  0  0
   -8.6893   -0.6729    1.0323 H   0  0  0  0  0  0  0  0  0  0  0  0
   -7.7206    3.1496   -1.9814 H   0  0  0  0  0  0  0  0  0  0  0  0
  -10.5415    0.5973    0.0161 H   0  0  0  0  0  0  0  0  0  0  0  0
  -10.0662    2.5081   -1.4929 H   0  0  0  0  0  0  0  0  0  0  0  0
  1 12  1  0  0  0  0
  1 15  1  0  0  0  0
  2 15  1  0  0  0  0
  2 18  1  0  0  0  0
  3 19  1  0  0  0  0
  3 20  1  0  0  0  0
  4 13  1  0  0  0  0
  4 45  1  0  0  0  0
  5 14  1  0  0  0  0
  5 46  1  0  0  0  0
  6 16  1  0  0  0  0
  6 47  1  0  0  0  0
  7 17  1  0  0  0  0
  7 48  1  0  0  0  0
  8 20  1  0  0  0  0
  8 49  1  0  0  0  0
  9 21  1  0  0  0  0
  9 23  1  0  0  0  0
 10 22  1  0  0  0  0
 10 50  1  0  0  0  0
 11 23  2  0  0  0  0
 12 16  1  0  0  0  0
 12 17  1  0  0  0  0
 12 32  1  0  0  0  0
 13 14  1  0  0  0  0
 13 18  1  0  0  0  0
 13 21  1  0  0  0  0
 14 15  1  0  0  0  0
 14 33  1  0  0  0  0
 15 34  1  0  0  0  0
 16 19  1  0  0  0  0
 16 35  1  0  0  0  0
 17 20  1  0  0  0  0
 17 36  1  0  0  0  0
 18 37  1  0  0  0  0
 18 38  1  0  0  0  0
 19 22  1  0  0  0  0
 19 39  1  0  0  0  0
 20 40  1  0  0  0  0
 21 41  1  0  0  0  0
 21 42  1  0  0  0  0
 22 43  1  0  0  0  0
 22 44  1  0  0  0  0
 23 24  1  0  0  0  0
 24 25  2  0  0  0  0
 24 51  1  0  0  0  0
 25 26  1  0  0  0  0
 25 52  1  0  0  0  0
 26 27  2  0  0  0  0
 26 28  1  0  0  0  0
 27 29  1  0  0  0  0
 27 53  1  0  0  0  0
 28 30  2  0  0  0  0
 28 54  1  0  0  0  0
 29 31  2  0  0  0  0
 29 55  1  0  0  0  0
 30 31  1  0  0  0  0
 30 56  1  0  0  0  0
 31 57  1  0  0  0  0
M  END
> <PUBCHEM_COMPOUND_CID>
46184805

> <PUBCHEM_CONFORMER_RMSD>
1

> <PUBCHEM_CONFORMER_DIVERSEORDER>
1
73
60
18
55
26
82
58
61
84
68
43
5
69
16
56
46
24
75
12
63
47
21
28
34
25
45
40
79
78
81
51
85
72
83
33
36
86
15
29
49
41
44
64
39
59
14
62
4
35
70
66
65
53
31
52
77
76
48
17
74
22
13
37
50
80
57
71
27
19
30
42
67
20
32
10
11
7
54
38
2
23
9
8
6
3

> <PUBCHEM_MMFF94_PARTIAL_CHARGES>
44
1 -0.56
10 -0.68
11 -0.57
12 0.28
13 0.28
14 0.28
15 0.56
16 0.28
17 0.28
18 0.28
19 0.28
2 -0.56
20 0.56
21 0.28
22 0.28
23 0.71
24 -0.14
25 -0.18
26 0.03
27 -0.15
28 -0.15
29 -0.15
3 -0.56
30 -0.15
31 -0.15
4 -0.68
45 0.4
46 0.4
47 0.4
48 0.4
49 0.4
5 -0.68
50 0.4
51 0.15
52 0.15
53 0.15
54 0.15
55 0.15
56 0.15
57 0.15
6 -0.68
7 -0.68
8 -0.68
9 -0.43

> <PUBCHEM_EFFECTIVE_ROTOR_COUNT>
10.2

> <PUBCHEM_PHARMACOPHORE_FEATURES>
19
1 1 acceptor
1 10 acceptor
1 10 donor
1 11 acceptor
1 2 acceptor
1 3 acceptor
1 4 acceptor
1 4 donor
1 5 acceptor
1 5 donor
1 6 acceptor
1 6 donor
1 7 acceptor
1 7 donor
1 8 acceptor
1 8 donor
5 2 13 14 15 18 rings
6 26 27 28 29 30 31 rings
6 3 12 16 17 19 20 rings

> <PUBCHEM_HEAVY_ATOM_COUNT>
31

> <PUBCHEM_ATOM_DEF_STEREO_COUNT>
8

> <PUBCHEM_ATOM_UDEF_STEREO_COUNT>
0

> <PUBCHEM_BOND_DEF_STEREO_COUNT>
1

> <PUBCHEM_BOND_UDEF_STEREO_COUNT>
0

> <PUBCHEM_ISOTOPIC_ATOM_COUNT>
0

> <PUBCHEM_COMPONENT_COUNT>
1

> <PUBCHEM_CACTVS_TAUTO_COUNT>
1

> <PUBCHEM_CONFORMER_ID>
02C0B96500000001

> <PUBCHEM_MMFF94_ENERGY>
93.9056

> <PUBCHEM_FEATURE_SELFOVERLAP>
96.541

> <PUBCHEM_SHAPE_FINGERPRINT>
10 15 17821446846855106793
10006869 2 18337381656881154026
10554248 39 17203622449375887478
11135609 127 17774996938974200944
11181472 205 17986961748169740995
11386260 185 17632300094743789568
11409948 41 16916233148586785102
11991303 11 17274814788235612295
125118 31 18040721376223375844
12522641 24 18041554725082237658
12838862 33 17774995839383751216
13150687 139 17846787295129643119
13668630 136 10231761084723496803
13673619 4 10663816378477943923
13782708 43 11239995651145413019
13878862 14 17917982898053202808
14028597 1 14996556258099342349
14251764 18 15502381136512610219
14347424 109 18040988493314541434
14556957 393 16916796180334378473
150020 25 18410856534614148269
15183329 4 15913333502238748466
15289351 153 18339357461748193489
15320295 198 18339645654244321657
15461852 350 18411703210476564511
15510800 12 10735875110244284141
15840311 113 18411420609104988629
1754911 235 18201997717033782941
17686467 74 18186801414476826843
18335252 114 17989205940799935248
18335252 98 9079114458424604922
19301679 30 11170181043353139658
2026 5 10159712286874491501
20721686 124 18060143111780169894
21033648 29 18187641453327679134
21344244 181 9871752403383517636
21585482 111 18267584796717401624
21792934 111 18410848842559414258
22149856 69 10665220424049498047
23569943 247 10229832545982808468
23576562 1 17916295208145234469
24771293 8 18190172567755066780
3633792 109 18201723959464209928
437795 83 18130788894544387985
4403749 210 18339081622254657803
504579 68 16917348130475204799
54039377 194 8790891799770228313
5758199 1 17458346317374275963
57634706 306 18342452685907217514
636775 72 18260546715598064445
636775 8 9655305864502001128
9663363 56 18201439148443180950
9937071 3 9367339354657301557
9962374 69 8069728660806061075
999808 66 9151172052689431977

> <PUBCHEM_SHAPE_MULTIPOLES>
573.4
30.63
2.87
1.27
41.71
0.87
0.2
24.23
4.78
-3.18
-0.44
-0.57
0.06
4.27

> <PUBCHEM_SHAPE_SELFOVERLAP>
1205.344

> <PUBCHEM_SHAPE_VOLUME>
319.2

> <PUBCHEM_COORDINATE_TYPE>
2
5
10

$$$$
