46184807
  -OEChem-09302010343D

 79 82  0     1  0  0  0  0  0999 V2000
   -0.4121    0.3894    1.1925 O   0  0  0  0  0  0  0  0  0  0  0  0
   -2.2095    0.7375   -0.3082 O   0  0  0  0  0  0  0  0  0  0  0  0
    2.8535    2.7511    0.3892 O   0  0  0  0  0  0  0  0  0  0  0  0
   -3.6770   -1.8178   -0.5029 O   0  0  0  0  0  0  0  0  0  0  0  0
   -2.0065   -2.2382    1.6880 O   0  0  0  0  0  0  0  0  0  0  0  0
   -0.8017    3.1121    0.3666 O   0  0  0  0  0  0  0  0  0  0  0  0
    1.9309   -0.7639   -0.0910 O   0  0  0  0  0  0  0  0  0  0  0  0
    4.2425    0.8832    0.2140 O   0  0  0  0  0  0  0  0  0  0  0  0
   -6.0967   -0.9017    0.5596 O   0  0  0  0  0  0  0  0  0  0  0  0
    2.7423    5.4414   -0.1232 O   0  0  0  0  0  0  0  0  0  0  0  0
   -7.5124   -1.3705    2.3243 O   0  0  0  0  0  0  0  0  0  0  0  0
   11.5360   -1.9540   -2.4769 O   0  0  0  0  0  0  0  0  0  0  0  0
   12.2727   -2.2725    0.1835 O   0  0  0  0  0  0  0  0  0  0  0  0
    0.4996    1.1057    0.3577 C   0  0  1  0  0  0  0  0  0  0  0  0
   -3.7077   -0.8730    0.5674 C   0  0  1  0  0  0  0  0  0  0  0  0
   -2.4149   -0.9245    1.3600 C   0  0  2  0  0  0  0  0  0  0  0  0
   -1.4363   -0.2273    0.4261 C   0  0  2  0  0  0  0  0  0  0  0  0
    0.4632    2.5817    0.7542 C   0  0  1  0  0  0  0  0  0  0  0  0
    1.9018    0.5212    0.5288 C   0  0  2  0  0  0  0  0  0  0  0  0
    1.5969    3.3544    0.0759 C   0  0  1  0  0  0  0  0  0  0  0  0
   -3.6090    0.5189   -0.0361 C   0  0  0  0  0  0  0  0  0  0  0  0
    2.9606    1.4199   -0.1101 C   0  0  1  0  0  0  0  0  0  0  0  0
   -4.9643   -1.0992    1.3901 C   0  0  0  0  0  0  0  0  0  0  0  0
    1.6657    4.8056    0.5412 C   0  0  0  0  0  0  0  0  0  0  0  0
    5.2396    1.3536   -0.6795 C   0  0  0  0  0  0  0  0  0  0  0  0
   -7.3135   -1.0700    1.1579 C   0  0  0  0  0  0  0  0  0  0  0  0
    6.5540    0.7577   -0.2886 C   0  0  0  0  0  0  0  0  0  0  0  0
   -8.3632   -0.8241    0.1433 C   0  0  0  0  0  0  0  0  0  0  0  0
    7.2945    0.0009   -1.1132 C   0  0  0  0  0  0  0  0  0  0  0  0
   -9.6541   -0.9287    0.4893 C   0  0  0  0  0  0  0  0  0  0  0  0
    8.5988   -0.5944   -0.7777 C   0  0  0  0  0  0  0  0  0  0  0  0
  -10.7866   -0.7181   -0.4298 C   0  0  0  0  0  0  0  0  0  0  0  0
    9.4643   -0.9982   -1.7943 C   0  0  0  0  0  0  0  0  0  0  0  0
    8.9683   -0.7552    0.5578 C   0  0  0  0  0  0  0  0  0  0  0  0
   10.6992   -1.5628   -1.4756 C   0  0  0  0  0  0  0  0  0  0  0  0
   10.2032   -1.3199    0.8766 C   0  0  0  0  0  0  0  0  0  0  0  0
  -10.6023    0.0019   -1.6101 C   0  0  0  0  0  0  0  0  0  0  0  0
  -12.0427   -1.2390   -0.1195 C   0  0  0  0  0  0  0  0  0  0  0  0
   11.0687   -1.7236   -0.1402 C   0  0  0  0  0  0  0  0  0  0  0  0
  -11.6743    0.2013   -2.4802 C   0  0  0  0  0  0  0  0  0  0  0  0
  -13.1146   -1.0398   -0.9894 C   0  0  0  0  0  0  0  0  0  0  0  0
  -12.9305   -0.3196   -2.1697 C   0  0  0  0  0  0  0  0  0  0  0  0
   12.5737   -2.4016    1.5719 C   0  0  0  0  0  0  0  0  0  0  0  0
    0.2106    1.0101   -0.6993 H   0  0  0  0  0  0  0  0  0  0  0  0
   -2.5033   -0.3577    2.2960 H   0  0  0  0  0  0  0  0  0  0  0  0
   -0.9886   -0.9392   -0.2791 H   0  0  0  0  0  0  0  0  0  0  0  0
    0.5354    2.6680    1.8452 H   0  0  0  0  0  0  0  0  0  0  0  0
    2.1197    0.3650    1.5920 H   0  0  0  0  0  0  0  0  0  0  0  0
    1.4732    3.3554   -1.0157 H   0  0  0  0  0  0  0  0  0  0  0  0
   -3.9283    1.2990    0.6637 H   0  0  0  0  0  0  0  0  0  0  0  0
   -4.1601    0.6298   -0.9747 H   0  0  0  0  0  0  0  0  0  0  0  0
    2.8338    1.4204   -1.2018 H   0  0  0  0  0  0  0  0  0  0  0  0
   -5.0040   -0.4044    2.2376 H   0  0  0  0  0  0  0  0  0  0  0  0
   -4.9831   -2.1284    1.7681 H   0  0  0  0  0  0  0  0  0  0  0  0
    1.8580    4.8612    1.6179 H   0  0  0  0  0  0  0  0  0  0  0  0
    0.7413    5.3435    0.3103 H   0  0  0  0  0  0  0  0  0  0  0  0
   -4.5012   -1.7193   -1.0100 H   0  0  0  0  0  0  0  0  0  0  0  0
   -2.7039   -2.6348    2.2368 H   0  0  0  0  0  0  0  0  0  0  0  0
   -0.8646    3.0625   -0.6026 H   0  0  0  0  0  0  0  0  0  0  0  0
    1.7627   -0.6448   -1.0413 H   0  0  0  0  0  0  0  0  0  0  0  0
    5.3119    2.4454   -0.6156 H   0  0  0  0  0  0  0  0  0  0  0  0
    4.9759    1.0812   -1.7084 H   0  0  0  0  0  0  0  0  0  0  0  0
    2.7696    6.3616    0.1898 H   0  0  0  0  0  0  0  0  0  0  0  0
    6.8921    1.0042    0.7134 H   0  0  0  0  0  0  0  0  0  0  0  0
   -8.0313   -0.5845   -0.8601 H   0  0  0  0  0  0  0  0  0  0  0  0
    6.9328   -0.1960   -2.1200 H   0  0  0  0  0  0  0  0  0  0  0  0
   -9.9277   -1.1978    1.5070 H   0  0  0  0  0  0  0  0  0  0  0  0
    9.1801   -0.8735   -2.8370 H   0  0  0  0  0  0  0  0  0  0  0  0
    8.3179   -0.4746    1.3811 H   0  0  0  0  0  0  0  0  0  0  0  0
   10.4219   -1.4183    1.9343 H   0  0  0  0  0  0  0  0  0  0  0  0
   -9.6481    0.4428   -1.8831 H   0  0  0  0  0  0  0  0  0  0  0  0
  -12.2045   -1.8038    0.7954 H   0  0  0  0  0  0  0  0  0  0  0  0
  -11.5327    0.7659   -3.3971 H   0  0  0  0  0  0  0  0  0  0  0  0
  -14.0928   -1.4453   -0.7479 H   0  0  0  0  0  0  0  0  0  0  0  0
  -13.7654   -0.1636   -2.8465 H   0  0  0  0  0  0  0  0  0  0  0  0
   11.1152   -1.7666   -3.3335 H   0  0  0  0  0  0  0  0  0  0  0  0
   12.6331   -1.4252    2.0645 H   0  0  0  0  0  0  0  0  0  0  0  0
   11.8766   -3.0808    2.0744 H   0  0  0  0  0  0  0  0  0  0  0  0
   13.5676   -2.8554    1.6452 H   0  0  0  0  0  0  0  0  0  0  0  0
  1 14  1  0  0  0  0
  1 17  1  0  0  0  0
  2 17  1  0  0  0  0
  2 21  1  0  0  0  0
  3 20  1  0  0  0  0
  3 22  1  0  0  0  0
  4 15  1  0  0  0  0
  4 57  1  0  0  0  0
  5 16  1  0  0  0  0
  5 58  1  0  0  0  0
  6 18  1  0  0  0  0
  6 59  1  0  0  0  0
  7 19  1  0  0  0  0
  7 60  1  0  0  0  0
  8 22  1  0  0  0  0
  8 25  1  0  0  0  0
  9 23  1  0  0  0  0
  9 26  1  0  0  0  0
 10 24  1  0  0  0  0
 10 63  1  0  0  0  0
 11 26  2  0  0  0  0
 12 35  1  0  0  0  0
 12 76  1  0  0  0  0
 13 39  1  0  0  0  0
 13 43  1  0  0  0  0
 14 18  1  0  0  0  0
 14 19  1  0  0  0  0
 14 44  1  0  0  0  0
 15 16  1  0  0  0  0
 15 21  1  0  0  0  0
 15 23  1  0  0  0  0
 16 17  1  0  0  0  0
 16 45  1  0  0  0  0
 17 46  1  0  0  0  0
 18 20  1  0  0  0  0
 18 47  1  0  0  0  0
 19 22  1  0  0  0  0
 19 48  1  0  0  0  0
 20 24  1  0  0  0  0
 20 49  1  0  0  0  0
 21 50  1  0  0  0  0
 21 51  1  0  0  0  0
 22 52  1  0  0  0  0
 23 53  1  0  0  0  0
 23 54  1  0  0  0  0
 24 55  1  0  0  0  0
 24 56  1  0  0  0  0
 25 27  1  0  0  0  0
 25 61  1  0  0  0  0
 25 62  1  0  0  0  0
 26 28  1  0  0  0  0
 27 29  2  0  0  0  0
 27 64  1  0  0  0  0
 28 30  2  0  0  0  0
 28 65  1  0  0  0  0
 29 31  1  0  0  0  0
 29 66  1  0  0  0  0
 30 32  1  0  0  0  0
 30 67  1  0  0  0  0
 31 33  2  0  0  0  0
 31 34  1  0  0  0  0
 32 37  2  0  0  0  0
 32 38  1  0  0  0  0
 33 35  1  0  0  0  0
 33 68  1  0  0  0  0
 34 36  2  0  0  0  0
 34 69  1  0  0  0  0
 35 39  2  0  0  0  0
 36 39  1  0  0  0  0
 36 70  1  0  0  0  0
 37 40  1  0  0  0  0
 37 71  1  0  0  0  0
 38 41  2  0  0  0  0
 38 72  1  0  0  0  0
 40 42  2  0  0  0  0
 40 73  1  0  0  0  0
 41 42  1  0  0  0  0
 41 74  1  0  0  0  0
 42 75  1  0  0  0  0
 43 77  1  0  0  0  0
 43 78  1  0  0  0  0
 43 79  1  0  0  0  0
M  END
> <PUBCHEM_COMPOUND_CID>
46184807

> <PUBCHEM_CONFORMER_RMSD>
1.4

> <PUBCHEM_CONFORMER_DIVERSEORDER>
1
6
7
19
14
10
8
4
20
18
17
9
12
11
13
16
21
5
15
2
3

> <PUBCHEM_MMFF94_PARTIAL_CHARGES>
61
1 -0.56
10 -0.68
11 -0.57
12 -0.53
13 -0.36
14 0.28
15 0.28
16 0.28
17 0.56
18 0.28
19 0.28
2 -0.56
20 0.28
21 0.28
22 0.56
23 0.28
24 0.28
25 0.42
26 0.71
27 -0.29
28 -0.14
29 -0.18
3 -0.56
30 -0.18
31 0.03
32 0.03
33 -0.15
34 -0.15
35 0.08
36 -0.15
37 -0.15
38 -0.15
39 0.08
4 -0.68
40 -0.15
41 -0.15
42 -0.15
43 0.28
5 -0.68
57 0.4
58 0.4
59 0.4
6 -0.68
60 0.4
63 0.4
64 0.15
65 0.15
66 0.15
67 0.15
68 0.15
69 0.15
7 -0.68
70 0.15
71 0.15
72 0.15
73 0.15
74 0.15
75 0.15
76 0.45
8 -0.56
9 -0.43

> <PUBCHEM_EFFECTIVE_ROTOR_COUNT>
15.2

> <PUBCHEM_PHARMACOPHORE_FEATURES>
21
1 1 acceptor
1 10 acceptor
1 10 donor
1 11 acceptor
1 12 donor
1 13 acceptor
1 2 acceptor
1 3 acceptor
1 4 acceptor
1 4 donor
1 5 acceptor
1 5 donor
1 6 acceptor
1 6 donor
1 7 acceptor
1 7 donor
1 8 acceptor
5 2 15 16 17 21 rings
6 3 14 18 19 20 22 rings
6 31 33 34 35 36 39 rings
6 32 37 38 40 41 42 rings

> <PUBCHEM_HEAVY_ATOM_COUNT>
43

> <PUBCHEM_ATOM_DEF_STEREO_COUNT>
8

> <PUBCHEM_ATOM_UDEF_STEREO_COUNT>
0

> <PUBCHEM_BOND_DEF_STEREO_COUNT>
2

> <PUBCHEM_BOND_UDEF_STEREO_COUNT>
0

> <PUBCHEM_ISOTOPIC_ATOM_COUNT>
0

> <PUBCHEM_COMPONENT_COUNT>
1

> <PUBCHEM_CACTVS_TAUTO_COUNT>
3

> <PUBCHEM_CONFORMER_ID>
02C0B96700000001

> <PUBCHEM_MMFF94_ENERGY>
138.9259

> <PUBCHEM_FEATURE_SELFOVERLAP>
106.698

> <PUBCHEM_SHAPE_FINGERPRINT>
10930396 42 14620516700829064795
11409948 8 11239998962844558799
11421887 21 18339358575865208053
11621639 148 11167942468149622963
11828042 206 17530969133308509772
12013929 2 17967811661565315611
12559415 86 15502647166523362295
15065858 18 18041283269693840291
15247644 1 17703791440567882479
15289351 153 18410007755077912441
15706992 2 12107787398090556511
15890870 6 18040155115125138970
16728433 110 18261395577492689612
16992610 120 15647055975864560267
20105231 36 18187375371535311939
20156587 128 16226042267695736394
20737093 207 16917063361902488599
21057603 323 18265615382255439517
21102433 48 16630527328119942303
21792938 131 18186795865120781162
21792961 116 18260830384236868337
21895431 317 17060065808669784607
25242607 90 18272649065832874778
3092352 35 18060139878550217223
3991529 128 10735873989785353234
4173938 188 12823297905849534711
4353968 344 18343866602996809377
57303763 176 18271530802594994073
57828716 8 17060618893726872575
9663363 56 18410853287608264688

> <PUBCHEM_SHAPE_MULTIPOLES>
808.62
59.71
3.64
1.74
25.54
6.77
0.58
-54.53
27.92
-7.68
-0.78
1.44
-0.91
1.6

> <PUBCHEM_SHAPE_SELFOVERLAP>
1709.605

> <PUBCHEM_SHAPE_VOLUME>
449.4

> <PUBCHEM_COORDINATE_TYPE>
2
5
10

$$$$
