46184559
  -OEChem-09302010313D

 70 74  0     1  0  0  0  0  0999 V2000
    5.4371   -0.6872    0.8888 O   0  0  0  0  0  0  0  0  0  0  0  0
    2.3844    1.0961   -0.0797 O   0  0  0  0  0  0  0  0  0  0  0  0
    3.2116   -1.3302    1.1767 O   0  0  0  0  0  0  0  0  0  0  0  0
    4.3442    3.2219    0.2480 O   0  0  0  0  0  0  0  0  0  0  0  0
    6.9622    2.3367   -0.5329 O   0  0  0  0  0  0  0  0  0  0  0  0
    7.9617   -1.6824    0.5030 O   0  0  0  0  0  0  0  0  0  0  0  0
   -1.5187   -1.5476    0.8375 O   0  0  0  0  0  0  0  0  0  0  0  0
    1.3059   -3.9206   -2.3228 O   0  0  0  0  0  0  0  0  0  0  0  0
    1.8562    2.7850    1.4055 O   0  0  0  0  0  0  0  0  0  0  0  0
   -1.2928   -4.0724   -2.3879 O   0  0  0  0  0  0  0  0  0  0  0  0
   -6.9731    0.5629   -0.2687 O   0  0  0  0  0  0  0  0  0  0  0  0
   -7.4172   -0.1037    2.3929 O   0  0  0  0  0  0  0  0  0  0  0  0
    4.6492    1.8791   -0.1323 C   0  0  1  0  0  0  0  0  0  0  0  0
    6.0859    1.5699    0.2892 C   0  0  1  0  0  0  0  0  0  0  0  0
    3.6585    0.9293    0.5411 C   0  0  2  0  0  0  0  0  0  0  0  0
    6.3857    0.0764    0.1418 C   0  0  1  0  0  0  0  0  0  0  0  0
    4.1049   -0.5266    0.4070 C   0  0  1  0  0  0  0  0  0  0  0  0
    7.7710   -0.2890    0.6663 C   0  0  0  0  0  0  0  0  0  0  0  0
    2.1005   -1.8003    0.5316 C   0  0  0  0  0  0  0  0  0  0  0  0
   -2.5700   -1.5851   -0.1400 C   0  0  1  0  0  0  0  0  0  0  0  0
   -0.3034   -1.9280    0.3295 C   0  0  0  0  0  0  0  0  0  0  0  0
    0.8297   -1.4576    0.9943 C   0  0  0  0  0  0  0  0  0  0  0  0
   -0.1604   -2.7677   -0.7789 C   0  0  0  0  0  0  0  0  0  0  0  0
   -2.6819   -2.9713   -0.7714 C   0  0  0  0  0  0  0  0  0  0  0  0
    1.5886    2.0616    0.4593 C   0  0  0  0  0  0  0  0  0  0  0  0
    2.2406   -2.6207   -0.5882 C   0  0  0  0  0  0  0  0  0  0  0  0
   -1.3691   -3.3233   -1.4213 C   0  0  0  0  0  0  0  0  0  0  0  0
    1.1113   -3.1107   -1.2449 C   0  0  0  0  0  0  0  0  0  0  0  0
   -3.8657   -1.1863    0.5346 C   0  0  0  0  0  0  0  0  0  0  0  0
    0.3236    2.0859   -0.3096 C   0  0  0  0  0  0  0  0  0  0  0  0
   -4.8371   -0.4856   -0.1803 C   0  0  0  0  0  0  0  0  0  0  0  0
   -4.0887   -1.5211    1.8703 C   0  0  0  0  0  0  0  0  0  0  0  0
   -6.0314   -0.1197    0.4403 C   0  0  0  0  0  0  0  0  0  0  0  0
   -5.2831   -1.1552    2.4910 C   0  0  0  0  0  0  0  0  0  0  0  0
   -0.6368    2.9590    0.0258 C   0  0  0  0  0  0  0  0  0  0  0  0
   -6.2545   -0.4546    1.7759 C   0  0  0  0  0  0  0  0  0  0  0  0
   -1.9389    3.0728   -0.6546 C   0  0  0  0  0  0  0  0  0  0  0  0
   -2.0986    2.5661   -1.9443 C   0  0  0  0  0  0  0  0  0  0  0  0
   -3.0118    3.6872   -0.0088 C   0  0  0  0  0  0  0  0  0  0  0  0
   -3.3313    2.6739   -2.5884 C   0  0  0  0  0  0  0  0  0  0  0  0
   -4.2444    3.7950   -0.6528 C   0  0  0  0  0  0  0  0  0  0  0  0
   -4.4041    3.2884   -1.9426 C   0  0  0  0  0  0  0  0  0  0  0  0
    4.5430    1.8391   -1.2231 H   0  0  0  0  0  0  0  0  0  0  0  0
    6.2437    1.8919    1.3257 H   0  0  0  0  0  0  0  0  0  0  0  0
    3.5865    1.1621    1.6132 H   0  0  0  0  0  0  0  0  0  0  0  0
    6.3321   -0.2326   -0.9111 H   0  0  0  0  0  0  0  0  0  0  0  0
    4.0889   -0.8274   -0.6484 H   0  0  0  0  0  0  0  0  0  0  0  0
    7.8556   -0.0632    1.7346 H   0  0  0  0  0  0  0  0  0  0  0  0
    8.5574    0.2414    0.1210 H   0  0  0  0  0  0  0  0  0  0  0  0
    4.4149    3.2851    1.2158 H   0  0  0  0  0  0  0  0  0  0  0  0
    6.8584    2.0303   -1.4500 H   0  0  0  0  0  0  0  0  0  0  0  0
   -2.3322   -0.8296   -0.9037 H   0  0  0  0  0  0  0  0  0  0  0  0
    0.7250   -0.8171    1.8665 H   0  0  0  0  0  0  0  0  0  0  0  0
   -3.4684   -2.9834   -1.5341 H   0  0  0  0  0  0  0  0  0  0  0  0
   -2.9005   -3.7433   -0.0242 H   0  0  0  0  0  0  0  0  0  0  0  0
    8.8471   -1.8930    0.8455 H   0  0  0  0  0  0  0  0  0  0  0  0
    3.2282   -2.9076   -0.9417 H   0  0  0  0  0  0  0  0  0  0  0  0
    0.2213    1.3662   -1.1134 H   0  0  0  0  0  0  0  0  0  0  0  0
   -4.6629   -0.2280   -1.2222 H   0  0  0  0  0  0  0  0  0  0  0  0
   -3.3536   -2.0778    2.4450 H   0  0  0  0  0  0  0  0  0  0  0  0
    0.4588   -4.1430   -2.7383 H   0  0  0  0  0  0  0  0  0  0  0  0
   -5.4453   -1.4250    3.5312 H   0  0  0  0  0  0  0  0  0  0  0  0
   -0.4891    3.6407    0.8603 H   0  0  0  0  0  0  0  0  0  0  0  0
   -6.6427    0.7143   -1.1709 H   0  0  0  0  0  0  0  0  0  0  0  0
   -7.3949   -0.4182    3.3130 H   0  0  0  0  0  0  0  0  0  0  0  0
   -1.2873    2.0967   -2.4927 H   0  0  0  0  0  0  0  0  0  0  0  0
   -2.9063    4.0859    0.9971 H   0  0  0  0  0  0  0  0  0  0  0  0
   -3.4555    2.2822   -3.5938 H   0  0  0  0  0  0  0  0  0  0  0  0
   -5.0805    4.2719   -0.1497 H   0  0  0  0  0  0  0  0  0  0  0  0
   -5.3641    3.3714   -2.4436 H   0  0  0  0  0  0  0  0  0  0  0  0
  1 16  1  0  0  0  0
  1 17  1  0  0  0  0
  2 15  1  0  0  0  0
  2 25  1  0  0  0  0
  3 17  1  0  0  0  0
  3 19  1  0  0  0  0
  4 13  1  0  0  0  0
  4 50  1  0  0  0  0
  5 14  1  0  0  0  0
  5 51  1  0  0  0  0
  6 18  1  0  0  0  0
  6 56  1  0  0  0  0
  7 20  1  0  0  0  0
  7 21  1  0  0  0  0
  8 28  1  0  0  0  0
  8 61  1  0  0  0  0
  9 25  2  0  0  0  0
 10 27  2  0  0  0  0
 11 33  1  0  0  0  0
 11 64  1  0  0  0  0
 12 36  1  0  0  0  0
 12 65  1  0  0  0  0
 13 14  1  0  0  0  0
 13 15  1  0  0  0  0
 13 43  1  0  0  0  0
 14 16  1  0  0  0  0
 14 44  1  0  0  0  0
 15 17  1  0  0  0  0
 15 45  1  0  0  0  0
 16 18  1  0  0  0  0
 16 46  1  0  0  0  0
 17 47  1  0  0  0  0
 18 48  1  0  0  0  0
 18 49  1  0  0  0  0
 19 22  1  0  0  0  0
 19 26  2  0  0  0  0
 20 24  1  0  0  0  0
 20 29  1  0  0  0  0
 20 52  1  0  0  0  0
 21 22  2  0  0  0  0
 21 23  1  0  0  0  0
 22 53  1  0  0  0  0
 23 27  1  0  0  0  0
 23 28  2  0  0  0  0
 24 27  1  0  0  0  0
 24 54  1  0  0  0  0
 24 55  1  0  0  0  0
 25 30  1  0  0  0  0
 26 28  1  0  0  0  0
 26 57  1  0  0  0  0
 29 31  2  0  0  0  0
 29 32  1  0  0  0  0
 30 35  2  0  0  0  0
 30 58  1  0  0  0  0
 31 33  1  0  0  0  0
 31 59  1  0  0  0  0
 32 34  2  0  0  0  0
 32 60  1  0  0  0  0
 33 36  2  0  0  0  0
 34 36  1  0  0  0  0
 34 62  1  0  0  0  0
 35 37  1  0  0  0  0
 35 63  1  0  0  0  0
 37 38  2  0  0  0  0
 37 39  1  0  0  0  0
 38 40  1  0  0  0  0
 38 66  1  0  0  0  0
 39 41  2  0  0  0  0
 39 67  1  0  0  0  0
 40 42  2  0  0  0  0
 40 68  1  0  0  0  0
 41 42  1  0  0  0  0
 41 69  1  0  0  0  0
 42 70  1  0  0  0  0
M  END
> <PUBCHEM_COMPOUND_CID>
46184559

> <PUBCHEM_CONFORMER_RMSD>
1.2

> <PUBCHEM_CONFORMER_DIVERSEORDER>
1
41
63
42
13
7
37
52
65
33
50
30
46
16
39
60
18
21
36
62
43
44
58
26
24
23
57
66
40
59
29
17
28
49
25
64
35
48
34
12
22
67
11
32
31
19
47
53
61
51
54
55
20
14
45
27
38
10
8
56
15
2
4
9
3
5
6

> <PUBCHEM_MMFF94_PARTIAL_CHARGES>
60
1 -0.56
10 -0.57
11 -0.53
12 -0.53
13 0.28
14 0.28
15 0.28
16 0.28
17 0.56
18 0.28
19 0.08
2 -0.43
20 0.42
21 0.08
22 -0.15
23 0.09
24 0.06
25 0.71
26 -0.15
27 0.42
28 0.08
29 -0.14
3 -0.36
30 -0.14
31 -0.15
32 -0.15
33 0.08
34 -0.15
35 -0.18
36 0.08
37 0.03
38 -0.15
39 -0.15
4 -0.68
40 -0.15
41 -0.15
42 -0.15
5 -0.68
50 0.4
51 0.4
53 0.15
56 0.4
57 0.15
58 0.15
59 0.15
6 -0.68
60 0.15
61 0.45
62 0.15
63 0.15
64 0.45
65 0.45
66 0.15
67 0.15
68 0.15
69 0.15
7 -0.36
70 0.15
8 -0.53
9 -0.57

> <PUBCHEM_EFFECTIVE_ROTOR_COUNT>
9.8

> <PUBCHEM_PHARMACOPHORE_FEATURES>
19
1 1 acceptor
1 10 acceptor
1 11 donor
1 12 donor
1 3 acceptor
1 4 acceptor
1 4 donor
1 5 acceptor
1 5 donor
1 6 acceptor
1 6 donor
1 7 acceptor
1 8 donor
1 9 acceptor
6 1 13 14 15 16 17 rings
6 19 21 22 23 26 28 rings
6 29 31 32 33 34 36 rings
6 37 38 39 40 41 42 rings
6 7 20 21 23 24 27 rings

> <PUBCHEM_HEAVY_ATOM_COUNT>
42

> <PUBCHEM_ATOM_DEF_STEREO_COUNT>
6

> <PUBCHEM_ATOM_UDEF_STEREO_COUNT>
0

> <PUBCHEM_BOND_DEF_STEREO_COUNT>
1

> <PUBCHEM_BOND_UDEF_STEREO_COUNT>
0

> <PUBCHEM_ISOTOPIC_ATOM_COUNT>
0

> <PUBCHEM_COMPONENT_COUNT>
1

> <PUBCHEM_CACTVS_TAUTO_COUNT>
90

> <PUBCHEM_CONFORMER_ID>
02C0B86F00000001

> <PUBCHEM_MMFF94_ENERGY>
131.2897

> <PUBCHEM_FEATURE_SELFOVERLAP>
96.525

> <PUBCHEM_SHAPE_FINGERPRINT>
10939801 23 18263368152180740900
11170278 141 17677354813380734113
11763389 116 18271805683693975406
12107698 1 18113897165302506322
12156800 1 18189640296367685636
12422481 6 18408603694938050211
12522641 33 17753032923216626333
13402501 40 18335417955068417945
14017579 153 18342461448263325158
14117953 113 18273217486952457318
14279260 333 17895183373716485298
14394314 77 18196094558904882720
14840074 17 18339084890523387313
14904385 31 18341323405908553141
15276724 80 18263082270578010860
15406563 190 18187914105983602873
15444296 9 18334585616287124201
18603816 31 16200432468794990774
20721686 56 18260548957301103937
20764821 26 18194666284441143133
21133410 38 17915188919354562265
25223398 141 18333167275993849124
3388396 114 16259245654448401471
469060 322 16153709774080823605
484989 97 18335985290479088216

> <PUBCHEM_SHAPE_MULTIPOLES>
793.91
17.45
5.62
1.94
14.81
1.27
-0.36
4.12
7.49
-2.54
-3.41
-3.17
-0.79
2.63

> <PUBCHEM_SHAPE_SELFOVERLAP>
1736.653

> <PUBCHEM_SHAPE_VOLUME>
424.5

> <PUBCHEM_COORDINATE_TYPE>
2
5
10

$$$$
