110998
  -OEChem-11232014233D

 21 21  0     1  0  0  0  0  0999 V2000
    1.1726    1.1660    0.4248 O   0  0  0  0  0  0  0  0  0  0  0  0
    1.0041   -1.8300   -0.7215 O   0  0  0  0  0  0  0  0  0  0  0  0
   -0.8125    1.2049   -0.9396 C   0  0  0  0  0  0  0  0  0  0  0  0
   -1.8273    0.9953    0.1860 C   0  0  0  0  0  0  0  0  0  0  0  0
    0.5196    0.5194   -0.6536 C   0  0  2  0  0  0  0  0  0  0  0  0
   -2.0467   -0.4919    0.4537 C   0  0  0  0  0  0  0  0  0  0  0  0
   -0.7442   -1.2019    0.7952 C   0  0  0  0  0  0  0  0  0  0  0  0
    0.3035   -0.9289   -0.2618 C   0  0  0  0  0  0  0  0  0  0  0  0
    2.4309    0.5671    0.7167 C   0  0  0  0  0  0  0  0  0  0  0  0
   -1.2325    0.8109   -1.8734 H   0  0  0  0  0  0  0  0  0  0  0  0
   -0.6559    2.2815   -1.0746 H   0  0  0  0  0  0  0  0  0  0  0  0
   -2.7796    1.4626   -0.0891 H   0  0  0  0  0  0  0  0  0  0  0  0
   -1.4802    1.4899    1.1011 H   0  0  0  0  0  0  0  0  0  0  0  0
    1.1458    0.5692   -1.5523 H   0  0  0  0  0  0  0  0  0  0  0  0
   -2.4929   -0.9547   -0.4356 H   0  0  0  0  0  0  0  0  0  0  0  0
   -2.7615   -0.6185    1.2744 H   0  0  0  0  0  0  0  0  0  0  0  0
   -0.9152   -2.2817    0.8584 H   0  0  0  0  0  0  0  0  0  0  0  0
   -0.3552   -0.8632    1.7614 H   0  0  0  0  0  0  0  0  0  0  0  0
    2.9715    1.2406    1.3883 H   0  0  0  0  0  0  0  0  0  0  0  0
    3.0315    0.4370   -0.1891 H   0  0  0  0  0  0  0  0  0  0  0  0
    2.3067   -0.3854    1.2396 H   0  0  0  0  0  0  0  0  0  0  0  0
  1  5  1  0  0  0  0
  1  9  1  0  0  0  0
  2  8  2  0  0  0  0
  3  4  1  0  0  0  0
  3  5  1  0  0  0  0
  3 10  1  0  0  0  0
  3 11  1  0  0  0  0
  4  6  1  0  0  0  0
  4 12  1  0  0  0  0
  4 13  1  0  0  0  0
  5  8  1  0  0  0  0
  5 14  1  0  0  0  0
  6  7  1  0  0  0  0
  6 15  1  0  0  0  0
  6 16  1  0  0  0  0
  7  8  1  0  0  0  0
  7 17  1  0  0  0  0
  7 18  1  0  0  0  0
  9 19  1  0  0  0  0
  9 20  1  0  0  0  0
  9 21  1  0  0  0  0
M  END
> <PUBCHEM_COMPOUND_CID>
110998

> <PUBCHEM_CONFORMER_RMSD>
0.4

> <PUBCHEM_CONFORMER_DIVERSEORDER>
3
1
7
5
4
2
8
6
9

> <PUBCHEM_MMFF94_PARTIAL_CHARGES>
6
1 -0.56
2 -0.57
5 0.34
7 0.06
8 0.45
9 0.28

> <PUBCHEM_EFFECTIVE_ROTOR_COUNT>
2

> <PUBCHEM_PHARMACOPHORE_FEATURES>
3
1 1 acceptor
1 2 acceptor
6 3 4 5 6 7 8 rings

> <PUBCHEM_HEAVY_ATOM_COUNT>
9

> <PUBCHEM_ATOM_DEF_STEREO_COUNT>
0

> <PUBCHEM_ATOM_UDEF_STEREO_COUNT>
1

> <PUBCHEM_BOND_DEF_STEREO_COUNT>
0

> <PUBCHEM_BOND_UDEF_STEREO_COUNT>
0

> <PUBCHEM_ISOTOPIC_ATOM_COUNT>
0

> <PUBCHEM_COMPONENT_COUNT>
1

> <PUBCHEM_CACTVS_TAUTO_COUNT>
3

> <PUBCHEM_CONFORMER_ID>
0001B19600000003

> <PUBCHEM_MMFF94_ENERGY>
13.4638

> <PUBCHEM_FEATURE_SELFOVERLAP>
15.223

> <PUBCHEM_SHAPE_FINGERPRINT>
12423570 1 17407908325282166479
13024252 1 15793384488999154896
137420 1 17614240448173049695
16945 1 18339367460532141955
18185500 45 16536798694530996286
20645464 45 17844801680562288272
20653085 51 14763518204191159200
21040471 1 18261968370382063965
241688 4 18044112171599635529
29004967 10 17627227849381845583
369184 2 17130981126322223448
5084963 1 18261946440047013536

> <PUBCHEM_SHAPE_MULTIPOLES>
173.48
2.57
1.66
0.98
0.5
0.33
0.05
-0.44
-0.79
-0.04
0.22
0.12
0.02
0.44

> <PUBCHEM_SHAPE_SELFOVERLAP>
340.136

> <PUBCHEM_SHAPE_VOLUME>
103.7

> <PUBCHEM_COORDINATE_TYPE>
2
5
10

$$$$
