41143
  -OEChem-11232014143D

 27 26  0     1  0  0  0  0  0999 V2000
    2.8232    1.1141   -0.2284 O   0  0  0  0  0  0  0  0  0  0  0  0
   -1.4976    0.4262   -0.2791 C   0  0  1  0  0  0  0  0  0  0  0  0
   -0.0541    0.6968    0.2009 C   0  0  0  0  0  0  0  0  0  0  0  0
    0.9458   -0.3971   -0.1993 C   0  0  0  0  0  0  0  0  0  0  0  0
   -2.0485   -0.9001    0.2817 C   0  0  0  0  0  0  0  0  0  0  0  0
    2.3544   -0.1092    0.3320 C   0  0  1  0  0  0  0  0  0  0  0  0
   -2.3816    1.6173    0.1099 C   0  0  0  0  0  0  0  0  0  0  0  0
   -3.4641   -1.2237   -0.1778 C   0  0  0  0  0  0  0  0  0  0  0  0
    3.3225   -1.2243   -0.0399 C   0  0  0  0  0  0  0  0  0  0  0  0
   -1.4848    0.3606   -1.3749 H   0  0  0  0  0  0  0  0  0  0  0  0
   -0.0500    0.8045    1.2933 H   0  0  0  0  0  0  0  0  0  0  0  0
    0.2807    1.6572   -0.2108 H   0  0  0  0  0  0  0  0  0  0  0  0
    0.9669   -0.4665   -1.2939 H   0  0  0  0  0  0  0  0  0  0  0  0
    0.6318   -1.3690    0.1926 H   0  0  0  0  0  0  0  0  0  0  0  0
   -2.0209   -0.8857    1.3779 H   0  0  0  0  0  0  0  0  0  0  0  0
   -1.4175   -1.7335   -0.0428 H   0  0  0  0  0  0  0  0  0  0  0  0
    2.3259    0.0064    1.4214 H   0  0  0  0  0  0  0  0  0  0  0  0
   -2.4994    1.6854    1.1967 H   0  0  0  0  0  0  0  0  0  0  0  0
   -1.9446    2.5580   -0.2425 H   0  0  0  0  0  0  0  0  0  0  0  0
   -3.3764    1.5395   -0.3391 H   0  0  0  0  0  0  0  0  0  0  0  0
   -4.1936   -0.5267    0.2448 H   0  0  0  0  0  0  0  0  0  0  0  0
   -3.5407   -1.1914   -1.2691 H   0  0  0  0  0  0  0  0  0  0  0  0
   -3.7441   -2.2296    0.1518 H   0  0  0  0  0  0  0  0  0  0  0  0
    4.3264   -1.0014    0.3372 H   0  0  0  0  0  0  0  0  0  0  0  0
    3.4100   -1.3211   -1.1277 H   0  0  0  0  0  0  0  0  0  0  0  0
    3.0018   -2.1849    0.3744 H   0  0  0  0  0  0  0  0  0  0  0  0
    3.7085    1.2838    0.1365 H   0  0  0  0  0  0  0  0  0  0  0  0
  1  6  1  0  0  0  0
  1 27  1  0  0  0  0
  2  3  1  0  0  0  0
  2  5  1  0  0  0  0
  2  7  1  0  0  0  0
  2 10  1  0  0  0  0
  3  4  1  0  0  0  0
  3 11  1  0  0  0  0
  3 12  1  0  0  0  0
  4  6  1  0  0  0  0
  4 13  1  0  0  0  0
  4 14  1  0  0  0  0
  5  8  1  0  0  0  0
  5 15  1  0  0  0  0
  5 16  1  0  0  0  0
  6  9  1  0  0  0  0
  6 17  1  0  0  0  0
  7 18  1  0  0  0  0
  7 19  1  0  0  0  0
  7 20  1  0  0  0  0
  8 21  1  0  0  0  0
  8 22  1  0  0  0  0
  8 23  1  0  0  0  0
  9 24  1  0  0  0  0
  9 25  1  0  0  0  0
  9 26  1  0  0  0  0
M  END
> <PUBCHEM_COMPOUND_CID>
41143

> <PUBCHEM_CONFORMER_RMSD>
0.6

> <PUBCHEM_CONFORMER_DIVERSEORDER>
1
75
77
8
31
49
14
74
7
78
36
44
55
80
37
59
72
81
20
71
42
3
11
26
66
51
68
35
10
57
12
76
32
79
23
38
5
54
73
47
29
63
70
28
16
43
48
69
19
41
61
46
56
64
62
34
40
24
21
27
65
13
50
67
45
52
39
9
60
53
22
15
30
6
33
17
58
4
2
25
18

> <PUBCHEM_MMFF94_PARTIAL_CHARGES>
3
1 -0.68
27 0.4
6 0.28

> <PUBCHEM_EFFECTIVE_ROTOR_COUNT>
4

> <PUBCHEM_PHARMACOPHORE_FEATURES>
5
1 1 acceptor
1 1 donor
1 7 hydrophobe
1 8 hydrophobe
4 2 3 4 5 hydrophobe

> <PUBCHEM_HEAVY_ATOM_COUNT>
9

> <PUBCHEM_ATOM_DEF_STEREO_COUNT>
0

> <PUBCHEM_ATOM_UDEF_STEREO_COUNT>
2

> <PUBCHEM_BOND_DEF_STEREO_COUNT>
0

> <PUBCHEM_BOND_UDEF_STEREO_COUNT>
0

> <PUBCHEM_ISOTOPIC_ATOM_COUNT>
0

> <PUBCHEM_COMPONENT_COUNT>
1

> <PUBCHEM_CACTVS_TAUTO_COUNT>
1

> <PUBCHEM_CONFORMER_ID>
0000A0B700000001

> <PUBCHEM_MMFF94_ENERGY>
7.5983

> <PUBCHEM_FEATURE_SELFOVERLAP>
25.406

> <PUBCHEM_SHAPE_FINGERPRINT>
10857977 72 18271796956156574569
11062470 55 17530958133401047391
12932764 1 17458623354990178612
14325111 11 18410855451791493256
15310529 11 18342737442069896884
177051 138 18413387635671031366
18342897 69 18413103961533869683
19973954 147 18410575076300400400
20211469 26 18410006641710464151
20281407 28 18270963556729446067
20711978 1 18409728503870497405
20871998 184 18273497879639523007
23552423 10 18260831470926858706
3248919 1 18341321211090418716
8030462 33 15574988434249649560
9939556 21 18335424508782310196

> <PUBCHEM_SHAPE_MULTIPOLES>
179.35
6.03
1.54
0.66
1.49
0.16
0.01
-1.66
-0.14
-0.69
-0.01
-0.02
-0.01
-0.08

> <PUBCHEM_SHAPE_SELFOVERLAP>
317.878

> <PUBCHEM_SHAPE_VOLUME>
118.3

> <PUBCHEM_COORDINATE_TYPE>
2
5
10

$$$$
