84336
  -OEChem-11232014123D

 20 21  0     0  0  0  0  0  0999 V2000
    0.0002   -1.7595    0.1771 O   0  0  0  0  0  0  0  0  0  0  0  0
    1.2600    0.1746   -0.4862 C   0  0  0  0  0  0  0  0  0  0  0  0
   -1.2602    0.1745   -0.4863 C   0  0  0  0  0  0  0  0  0  0  0  0
    0.0000   -0.3354    0.1962 C   0  0  0  0  0  0  0  0  0  0  0  0
    2.5692   -0.2702    0.0487 C   0  0  0  0  0  0  0  0  0  0  0  0
    2.1068    1.1431    0.2508 C   0  0  0  0  0  0  0  0  0  0  0  0
   -2.5692   -0.2702    0.0488 C   0  0  0  0  0  0  0  0  0  0  0  0
   -2.1069    1.1430    0.2508 C   0  0  0  0  0  0  0  0  0  0  0  0
    1.1767    0.2547   -1.5625 H   0  0  0  0  0  0  0  0  0  0  0  0
   -1.1768    0.2547   -1.5625 H   0  0  0  0  0  0  0  0  0  0  0  0
    0.0000   -0.0478    1.2543 H   0  0  0  0  0  0  0  0  0  0  0  0
    3.3745   -0.4398   -0.6556 H   0  0  0  0  0  0  0  0  0  0  0  0
    2.5950   -0.9164    0.9175 H   0  0  0  0  0  0  0  0  0  0  0  0
    1.8257    1.4416    1.2530 H   0  0  0  0  0  0  0  0  0  0  0  0
    2.5994    1.9207   -0.3205 H   0  0  0  0  0  0  0  0  0  0  0  0
   -2.5948   -0.9165    0.9175 H   0  0  0  0  0  0  0  0  0  0  0  0
   -3.3745   -0.4398   -0.6555 H   0  0  0  0  0  0  0  0  0  0  0  0
   -2.5995    1.9207   -0.3205 H   0  0  0  0  0  0  0  0  0  0  0  0
   -1.8257    1.4416    1.2530 H   0  0  0  0  0  0  0  0  0  0  0  0
    0.0000   -2.0443   -0.7530 H   0  0  0  0  0  0  0  0  0  0  0  0
  1  4  1  0  0  0  0
  1 20  1  0  0  0  0
  2  4  1  0  0  0  0
  2  5  1  0  0  0  0
  2  6  1  0  0  0  0
  2  9  1  0  0  0  0
  3  4  1  0  0  0  0
  3  7  1  0  0  0  0
  3  8  1  0  0  0  0
  3 10  1  0  0  0  0
  4 11  1  0  0  0  0
  5  6  1  0  0  0  0
  5 12  1  0  0  0  0
  5 13  1  0  0  0  0
  6 14  1  0  0  0  0
  6 15  1  0  0  0  0
  7  8  1  0  0  0  0
  7 16  1  0  0  0  0
  7 17  1  0  0  0  0
  8 18  1  0  0  0  0
  8 19  1  0  0  0  0
M  END
> <PUBCHEM_COMPOUND_CID>
84336

> <PUBCHEM_CONFORMER_RMSD>
0.6

> <PUBCHEM_CONFORMER_DIVERSEORDER>
1
3
2

> <PUBCHEM_MMFF94_PARTIAL_CHARGES>
19
1 -0.68
10 0.1
12 0.1
13 0.1
14 0.1
15 0.1
16 0.1
17 0.1
18 0.1
19 0.1
2 -0.19
20 0.4
3 -0.19
4 0.47
5 -0.2
6 -0.2
7 -0.2
8 -0.2
9 0.1

> <PUBCHEM_EFFECTIVE_ROTOR_COUNT>
3.2

> <PUBCHEM_PHARMACOPHORE_FEATURES>
2
1 1 acceptor
1 1 donor

> <PUBCHEM_HEAVY_ATOM_COUNT>
8

> <PUBCHEM_ATOM_DEF_STEREO_COUNT>
0

> <PUBCHEM_ATOM_UDEF_STEREO_COUNT>
0

> <PUBCHEM_BOND_DEF_STEREO_COUNT>
0

> <PUBCHEM_BOND_UDEF_STEREO_COUNT>
0

> <PUBCHEM_ISOTOPIC_ATOM_COUNT>
0

> <PUBCHEM_COMPONENT_COUNT>
1

> <PUBCHEM_CACTVS_TAUTO_COUNT>
1

> <PUBCHEM_CONFORMER_ID>
0001497000000001

> <PUBCHEM_MMFF94_ENERGY>
18.8646

> <PUBCHEM_FEATURE_SELFOVERLAP>
10.148

> <PUBCHEM_SHAPE_FINGERPRINT>
10857977 72 18041283274273605001
11062470 55 11672061934660120194
12897270 3 18411978053258437213
14128692 85 7997380842188854513
14325111 11 18410012139020540116
14390081 3 18343580724734160249
15310529 11 16200434662869150373
19973954 147 18342461460377853048
20096714 4 18411418401544474028
20653085 51 17631751412043484224
21028194 46 18408324384419121673
21040471 1 18408606989156821582
23235685 24 18408322193985891716
23552449 1 17908702078878727810
29004967 10 9727628419034531092
369184 2 18342736342669077785
5084963 1 17821446863191086957
5460574 1 9223234048161431180

> <PUBCHEM_SHAPE_MULTIPOLES>
158.77
3.88
1.27
0.69
0
0.18
-0.03
-0.74
0.18
0
0.14
0
-0.03
0

> <PUBCHEM_SHAPE_SELFOVERLAP>
312.047

> <PUBCHEM_SHAPE_VOLUME>
97

> <PUBCHEM_COORDINATE_TYPE>
2
5
10

$$$$
