584765
  -OEChem-11232014273D

 24 24  0     0  0  0  0  0  0999 V2000
    2.8853   -1.1714   -0.0014 O   0  0  0  0  0  0  0  0  0  0  0  0
   -2.1322   -1.6577    0.0044 O   0  0  0  0  0  0  0  0  0  0  0  0
   -0.5513    0.0836    0.0017 C   0  0  0  0  0  0  0  0  0  0  0  0
   -3.1014    0.5480    0.0048 C   0  0  0  0  0  0  0  0  0  0  0  0
   -1.9122   -0.4291    0.0034 C   0  0  0  0  0  0  0  0  0  0  0  0
    0.5275   -0.8008    0.0009 C   0  0  0  0  0  0  0  0  0  0  0  0
   -0.3247    1.4599    0.0014 C   0  0  0  0  0  0  0  0  0  0  0  0
    1.8326   -0.3087   -0.0004 C   0  0  0  0  0  0  0  0  0  0  0  0
    0.9804    1.9520    0.0002 C   0  0  0  0  0  0  0  0  0  0  0  0
    2.0591    1.0676   -0.0008 C   0  0  0  0  0  0  0  0  0  0  0  0
   -4.4558   -0.1431   -0.0113 C   0  0  0  0  0  0  0  0  0  0  0  0
    4.1928   -0.6003   -0.0029 C   0  0  0  0  0  0  0  0  0  0  0  0
   -3.0397    1.1689    0.9052 H   0  0  0  0  0  0  0  0  0  0  0  0
   -3.0297    1.1846   -0.8838 H   0  0  0  0  0  0  0  0  0  0  0  0
    0.3712   -1.8768    0.0011 H   0  0  0  0  0  0  0  0  0  0  0  0
   -1.1321    2.1852    0.0029 H   0  0  0  0  0  0  0  0  0  0  0  0
    1.1563    3.0238    0.0001 H   0  0  0  0  0  0  0  0  0  0  0  0
    3.0460    1.5175   -0.0018 H   0  0  0  0  0  0  0  0  0  0  0  0
   -4.5791   -0.7843    0.8676 H   0  0  0  0  0  0  0  0  0  0  0  0
   -5.2620    0.5969   -0.0115 H   0  0  0  0  0  0  0  0  0  0  0  0
   -4.5653   -0.7702   -0.9022 H   0  0  0  0  0  0  0  0  0  0  0  0
    4.3790   -0.0187    0.9064 H   0  0  0  0  0  0  0  0  0  0  0  0
    4.3770   -0.0188   -0.9127 H   0  0  0  0  0  0  0  0  0  0  0  0
    4.9077   -1.4297   -0.0036 H   0  0  0  0  0  0  0  0  0  0  0  0
  1  8  1  0  0  0  0
  1 12  1  0  0  0  0
  2  5  2  0  0  0  0
  3  5  1  0  0  0  0
  3  6  2  0  0  0  0
  3  7  1  0  0  0  0
  4  5  1  0  0  0  0
  4 11  1  0  0  0  0
  4 13  1  0  0  0  0
  4 14  1  0  0  0  0
  6  8  1  0  0  0  0
  6 15  1  0  0  0  0
  7  9  2  0  0  0  0
  7 16  1  0  0  0  0
  8 10  2  0  0  0  0
  9 10  1  0  0  0  0
  9 17  1  0  0  0  0
 10 18  1  0  0  0  0
 11 19  1  0  0  0  0
 11 20  1  0  0  0  0
 11 21  1  0  0  0  0
 12 22  1  0  0  0  0
 12 23  1  0  0  0  0
 12 24  1  0  0  0  0
M  END
> <PUBCHEM_COMPOUND_CID>
584765

> <PUBCHEM_CONFORMER_RMSD>
0.6

> <PUBCHEM_CONFORMER_DIVERSEORDER>
1
9
7
16
11
8
15
2
12
5
10
6
13
14
4
3

> <PUBCHEM_MMFF94_PARTIAL_CHARGES>
15
1 -0.36
10 -0.15
12 0.28
15 0.15
16 0.15
17 0.15
18 0.15
2 -0.57
3 0.09
4 0.06
5 0.42
6 -0.15
7 -0.15
8 0.08
9 -0.15

> <PUBCHEM_EFFECTIVE_ROTOR_COUNT>
3

> <PUBCHEM_PHARMACOPHORE_FEATURES>
4
1 1 acceptor
1 11 hydrophobe
1 2 acceptor
6 3 6 7 8 9 10 rings

> <PUBCHEM_HEAVY_ATOM_COUNT>
12

> <PUBCHEM_ATOM_DEF_STEREO_COUNT>
0

> <PUBCHEM_ATOM_UDEF_STEREO_COUNT>
0

> <PUBCHEM_BOND_DEF_STEREO_COUNT>
0

> <PUBCHEM_BOND_UDEF_STEREO_COUNT>
0

> <PUBCHEM_ISOTOPIC_ATOM_COUNT>
0

> <PUBCHEM_COMPONENT_COUNT>
1

> <PUBCHEM_CACTVS_TAUTO_COUNT>
2

> <PUBCHEM_CONFORMER_ID>
0008EC3D00000001

> <PUBCHEM_MMFF94_ENERGY>
36.7393

> <PUBCHEM_FEATURE_SELFOVERLAP>
20.297

> <PUBCHEM_SHAPE_FINGERPRINT>
10130415 120 18409728452135678721
10219947 1 18272934911978627119
11062470 55 17418372480517657363
11471102 20 18409444808332449757
12032990 46 18410578357438798927
124424 183 18260829289278592659
12932764 1 17240748614812834259
13690532 89 18411699868268892651
14115302 16 17894643555639176926
14252887 29 18202008694289871550
14325111 11 18338797922447145569
14911166 2 18408318869971218735
14993402 34 18342459231278919767
15375462 189 18113612361536588018
15442244 35 18412547595965799201
15536298 74 18271806869284199312
16945 1 18411139099789664032
18186145 218 17822001047575199511
18511873 20 18412265034393660331
20201158 50 18410575063209653271
20645477 70 18411698811638606711
20871998 22 18200038326476636150
21501502 16 18266460004336042911
21501925 9 18412537726030440432
23402539 116 17988916748442252861
23402655 69 18341323440811662837
23463225 33 18410856551118472350
23552423 10 18189898784531649524
23559900 14 18410011031979365322
2748010 2 18265895937327049740
3071541 12 18266181823562909572
528886 8 18411414029225542835
7364860 26 18270679899914955096
8809292 202 18260271879706662259

> <PUBCHEM_SHAPE_MULTIPOLES>
235.22
6.65
1.61
0.6
1.91
0.44
0
-1.87
0.02
-0.42
0
0.01
0.02
0

> <PUBCHEM_SHAPE_SELFOVERLAP>
481.755

> <PUBCHEM_SHAPE_VOLUME>
136.9

> <PUBCHEM_COORDINATE_TYPE>
2
5
10

$$$$
