131752661
  -OEChem-11232014183D

 30 30  0     0  0  0  0  0  0999 V2000
   -1.5366    1.4460    0.0271 O   0  0  0  0  0  0  0  0  0  0  0  0
   -2.6622   -1.0762   -0.2889 O   0  0  0  0  0  0  0  0  0  0  0  0
   -0.7633    0.3274    0.1092 C   0  0  0  0  0  0  0  0  0  0  0  0
    1.4063   -0.6829    0.4403 C   0  0  0  0  0  0  0  0  0  0  0  0
   -1.3283   -0.9380   -0.0494 C   0  0  0  0  0  0  0  0  0  0  0  0
    0.6040    0.4550    0.3542 C   0  0  0  0  0  0  0  0  0  0  0  0
    0.8414   -1.9482    0.2815 C   0  0  0  0  0  0  0  0  0  0  0  0
   -0.5260   -2.0758    0.0368 C   0  0  0  0  0  0  0  0  0  0  0  0
   -0.8812    2.7008    0.2011 C   0  0  0  0  0  0  0  0  0  0  0  0
    2.8319   -0.5492    0.6960 C   0  0  0  0  0  0  0  0  0  0  0  0
   -1.8991    3.8124    0.0605 C   0  0  0  0  0  0  0  0  0  0  0  0
    3.7179    0.1130   -0.0822 C   0  0  0  0  0  0  0  0  0  0  0  0
   -3.1594   -2.4047   -0.4388 C   0  0  0  0  0  0  0  0  0  0  0  0
    3.3547    0.8204   -1.3474 C   0  0  0  0  0  0  0  0  0  0  0  0
    1.0915    1.4134    0.4998 H   0  0  0  0  0  0  0  0  0  0  0  0
    1.4547   -2.8440    0.3457 H   0  0  0  0  0  0  0  0  0  0  0  0
   -0.8952   -3.0893   -0.0759 H   0  0  0  0  0  0  0  0  0  0  0  0
   -0.1171    2.8483   -0.5719 H   0  0  0  0  0  0  0  0  0  0  0  0
   -0.4431    2.7710    1.2040 H   0  0  0  0  0  0  0  0  0  0  0  0
    3.2006   -1.0570    1.5841 H   0  0  0  0  0  0  0  0  0  0  0  0
   -2.3771    3.7755   -0.9241 H   0  0  0  0  0  0  0  0  0  0  0  0
   -2.6956    3.7023    0.8040 H   0  0  0  0  0  0  0  0  0  0  0  0
   -1.4302    4.7921    0.1885 H   0  0  0  0  0  0  0  0  0  0  0  0
    4.7608    0.1395    0.2220 H   0  0  0  0  0  0  0  0  0  0  0  0
   -4.2360   -2.3268   -0.6231 H   0  0  0  0  0  0  0  0  0  0  0  0
   -3.0359   -2.9879    0.4801 H   0  0  0  0  0  0  0  0  0  0  0  0
   -2.7230   -2.9029   -1.3112 H   0  0  0  0  0  0  0  0  0  0  0  0
    4.1092    0.5991   -2.1100 H   0  0  0  0  0  0  0  0  0  0  0  0
    2.3906    0.5213   -1.7659 H   0  0  0  0  0  0  0  0  0  0  0  0
    3.3507    1.9024   -1.1843 H   0  0  0  0  0  0  0  0  0  0  0  0
  1  3  1  0  0  0  0
  1  9  1  0  0  0  0
  2  5  1  0  0  0  0
  2 13  1  0  0  0  0
  3  5  2  0  0  0  0
  3  6  1  0  0  0  0
  4  6  2  0  0  0  0
  4  7  1  0  0  0  0
  4 10  1  0  0  0  0
  5  8  1  0  0  0  0
  6 15  1  0  0  0  0
  7  8  2  0  0  0  0
  7 16  1  0  0  0  0
  8 17  1  0  0  0  0
  9 11  1  0  0  0  0
  9 18  1  0  0  0  0
  9 19  1  0  0  0  0
 10 12  2  0  0  0  0
 10 20  1  0  0  0  0
 11 21  1  0  0  0  0
 11 22  1  0  0  0  0
 11 23  1  0  0  0  0
 12 14  1  0  0  0  0
 12 24  1  0  0  0  0
 13 25  1  0  0  0  0
 13 26  1  0  0  0  0
 13 27  1  0  0  0  0
 14 28  1  0  0  0  0
 14 29  1  0  0  0  0
 14 30  1  0  0  0  0
M  END
> <PUBCHEM_COMPOUND_CID>
131752661

> <PUBCHEM_CONFORMER_RMSD>
0.6

> <PUBCHEM_CONFORMER_DIVERSEORDER>
8
25
13
15
26
14
19
17
16
27
20
23
28
2
24
7
4
6
21
18
9
12
22
10
5
3
11
1

> <PUBCHEM_MMFF94_PARTIAL_CHARGES>
18
1 -0.36
10 -0.18
12 -0.29
13 0.28
14 0.14
15 0.15
16 0.15
17 0.15
2 -0.36
20 0.15
24 0.15
3 0.08
4 0.03
5 0.08
6 -0.15
7 -0.15
8 -0.15
9 0.28

> <PUBCHEM_EFFECTIVE_ROTOR_COUNT>
4

> <PUBCHEM_PHARMACOPHORE_FEATURES>
4
1 1 acceptor
1 14 hydrophobe
1 2 acceptor
6 3 4 5 6 7 8 rings

> <PUBCHEM_HEAVY_ATOM_COUNT>
14

> <PUBCHEM_ATOM_DEF_STEREO_COUNT>
0

> <PUBCHEM_ATOM_UDEF_STEREO_COUNT>
0

> <PUBCHEM_BOND_DEF_STEREO_COUNT>
1

> <PUBCHEM_BOND_UDEF_STEREO_COUNT>
0

> <PUBCHEM_ISOTOPIC_ATOM_COUNT>
0

> <PUBCHEM_COMPONENT_COUNT>
1

> <PUBCHEM_CACTVS_TAUTO_COUNT>
1

> <PUBCHEM_CONFORMER_ID>
07DA62D500000008

> <PUBCHEM_MMFF94_ENERGY>
50.8469

> <PUBCHEM_FEATURE_SELFOVERLAP>
20.301

> <PUBCHEM_SHAPE_FINGERPRINT>
1 1 17187277968510919181
11206711 2 18413101771052822678
13380535 21 18127700335177028850
15490181 8 17835788708496876895
16945 1 18411976996580730210
17134986 127 17904774275700173484
193761 8 18123464973558813275
20510252 161 18342454855071216288
20511035 2 17767944468681272034
20671657 1 17832149325166953470
21501502 16 18265046934257640682
21524375 3 17901670371275360000
228727 97 18187929533763670018
23402539 116 18270391806393479110
23530152 11 17836362649266307853
23557571 272 18201725098026493672
23558518 356 18262237694886238722
23559900 14 17914894228858582682
23598291 2 18041275449254927714
2748010 2 18125138670926970041
3071541 12 17546446039021141387
3071541 250 18050574241875089847
353137 74 18260263083724143246
537710 114 18116433837180138894
53812653 8 18408327687465334626
58734987 43 18122342647206951795
68521 5 18411417328013620661
7364860 26 17476077298906303559
81228 2 18340775921984451240

> <PUBCHEM_SHAPE_MULTIPOLES>
276.37
5.05
3.63
0.83
3.2
3.34
-0.14
-0.55
-1.11
-4.24
-0.01
0.52
0.04
-0.81

> <PUBCHEM_SHAPE_SELFOVERLAP>
561.166

> <PUBCHEM_SHAPE_VOLUME>
162.6

> <PUBCHEM_COORDINATE_TYPE>
2
5
10

$$$$
