6452061
  -OEChem-11232014083D

 27 28  0     1  0  0  0  0  0999 V2000
   -1.8423    0.9564   -0.8954 O   0  0  0  0  0  0  0  0  0  0  0  0
   -1.9956   -0.1591    0.0043 C   0  0  2  0  0  0  0  0  0  0  0  0
   -1.2970    1.1087    0.4162 C   0  0  1  0  0  0  0  0  0  0  0  0
   -1.2224   -1.3694   -0.4112 C   0  0  0  0  0  0  0  0  0  0  0  0
    0.1954    1.1628    0.4953 C   0  0  0  0  0  0  0  0  0  0  0  0
    0.8868    0.0248   -0.2735 C   0  0  2  0  0  0  0  0  0  0  0  0
    0.2324   -1.3237    0.0587 C   0  0  0  0  0  0  0  0  0  0  0  0
   -3.3986   -0.3696    0.4240 C   0  0  0  0  0  0  0  0  0  0  0  0
    2.3525   -0.0111    0.0335 C   0  0  0  0  0  0  0  0  0  0  0  0
    3.2772    0.1981   -1.1288 C   0  0  0  0  0  0  0  0  0  0  0  0
    2.8116   -0.2179    1.2767 C   0  0  0  0  0  0  0  0  0  0  0  0
   -1.7845    1.8034    1.0863 H   0  0  0  0  0  0  0  0  0  0  0  0
   -1.2524   -1.4629   -1.5041 H   0  0  0  0  0  0  0  0  0  0  0  0
   -1.6868   -2.2789   -0.0110 H   0  0  0  0  0  0  0  0  0  0  0  0
    0.4578    1.1391    1.5598 H   0  0  0  0  0  0  0  0  0  0  0  0
    0.5398    2.1318    0.1129 H   0  0  0  0  0  0  0  0  0  0  0  0
    0.7500    0.2066   -1.3487 H   0  0  0  0  0  0  0  0  0  0  0  0
    0.2533   -1.5040    1.1417 H   0  0  0  0  0  0  0  0  0  0  0  0
    0.7818   -2.1489   -0.4116 H   0  0  0  0  0  0  0  0  0  0  0  0
   -3.9615   -0.8953   -0.3546 H   0  0  0  0  0  0  0  0  0  0  0  0
   -3.4381   -0.9723    1.3373 H   0  0  0  0  0  0  0  0  0  0  0  0
   -3.9181    0.5734    0.6274 H   0  0  0  0  0  0  0  0  0  0  0  0
    3.1176   -0.5765   -1.8859 H   0  0  0  0  0  0  0  0  0  0  0  0
    3.0973    1.1763   -1.5865 H   0  0  0  0  0  0  0  0  0  0  0  0
    4.3301    0.1593   -0.8301 H   0  0  0  0  0  0  0  0  0  0  0  0
    3.8770   -0.2403    1.4825 H   0  0  0  0  0  0  0  0  0  0  0  0
    2.1492   -0.3746    2.1208 H   0  0  0  0  0  0  0  0  0  0  0  0
  1  2  1  0  0  0  0
  1  3  1  0  0  0  0
  2  3  1  0  0  0  0
  2  4  1  0  0  0  0
  2  8  1  0  0  0  0
  3  5  1  0  0  0  0
  3 12  1  0  0  0  0
  4  7  1  0  0  0  0
  4 13  1  0  0  0  0
  4 14  1  0  0  0  0
  5  6  1  0  0  0  0
  5 15  1  0  0  0  0
  5 16  1  0  0  0  0
  6  7  1  0  0  0  0
  6  9  1  0  0  0  0
  6 17  1  0  0  0  0
  7 18  1  0  0  0  0
  7 19  1  0  0  0  0
  8 20  1  0  0  0  0
  8 21  1  0  0  0  0
  8 22  1  0  0  0  0
  9 10  1  0  0  0  0
  9 11  2  0  0  0  0
 10 23  1  0  0  0  0
 10 24  1  0  0  0  0
 10 25  1  0  0  0  0
 11 26  1  0  0  0  0
 11 27  1  0  0  0  0
M  END
> <PUBCHEM_COMPOUND_CID>
6452061

> <PUBCHEM_CONFORMER_RMSD>
0.4

> <PUBCHEM_CONFORMER_DIVERSEORDER>
1
6
4
3
8
2
5
7

> <PUBCHEM_MMFF94_PARTIAL_CHARGES>
13
1 -0.3
10 0.14
11 -0.3
12 0.1
2 -0.04
26 0.15
27 0.15
3 -0.05
4 0.09
5 0.09
6 0.14
8 0.09
9 -0.28

> <PUBCHEM_EFFECTIVE_ROTOR_COUNT>
2

> <PUBCHEM_PHARMACOPHORE_FEATURES>
2
1 1 acceptor
7 1 2 3 4 5 6 7 rings

> <PUBCHEM_HEAVY_ATOM_COUNT>
11

> <PUBCHEM_ATOM_DEF_STEREO_COUNT>
3

> <PUBCHEM_ATOM_UDEF_STEREO_COUNT>
0

> <PUBCHEM_BOND_DEF_STEREO_COUNT>
0

> <PUBCHEM_BOND_UDEF_STEREO_COUNT>
0

> <PUBCHEM_ISOTOPIC_ATOM_COUNT>
0

> <PUBCHEM_COMPONENT_COUNT>
1

> <PUBCHEM_CACTVS_TAUTO_COUNT>
1

> <PUBCHEM_CONFORMER_ID>
0062735D00000001

> <PUBCHEM_MMFF94_ENERGY>
20.665

> <PUBCHEM_FEATURE_SELFOVERLAP>
10.148

> <PUBCHEM_SHAPE_FINGERPRINT>
10857977 72 18343577464742894657
11062470 55 14923945669493434455
12032990 46 18272098226869907727
12716758 59 18201720617832142062
12932764 1 18261106400505279008
13024252 1 16660647370935643195
14325111 11 18408323259248446948
14993402 34 18113345227539697854
15310529 11 17385441024775758492
15775835 57 18041002847184531548
16945 1 18342451547587623839
18511873 20 13110974084463095620
19026448 5 16805321089475214793
20645464 45 17775272885578804754
20645476 183 17968104156758415558
21040471 1 18341328877612258330
23235685 24 18272091586623361389
23402655 69 18126268763587615949
23552423 10 17973441293367762948
2748010 2 18125444107510387935
29004967 10 16415478268189968522
3248919 1 14129347277690363924
369184 2 18411407414991685762
5084963 1 18040995116048102856

> <PUBCHEM_SHAPE_MULTIPOLES>
220.51
4.92
1.27
1.01
0.85
0.09
-0.03
0.15
0.01
-0.46
-0.01
0.64
-0.05
0

> <PUBCHEM_SHAPE_SELFOVERLAP>
447.577

> <PUBCHEM_SHAPE_VOLUME>
130.1

> <PUBCHEM_COORDINATE_TYPE>
2
5
10

$$$$
