10314175
  -OEChem-09112013033D

 44 46  0     0  0  0  0  0  0999 V2000
   -0.1541   -0.5970    0.1619 O   0  0  0  0  0  0  0  0  0  0  0  0
    1.8651   -2.7026    0.2978 O   0  0  0  0  0  0  0  0  0  0  0  0
   -4.9559   -1.6024   -0.7934 O   0  0  0  0  0  0  0  0  0  0  0  0
   -6.3368    0.5716    0.2533 O   0  0  0  0  0  0  0  0  0  0  0  0
    1.4633    0.9676   -0.0357 C   0  0  0  0  0  0  0  0  0  0  0  0
    0.1995    1.6140   -0.0578 C   0  0  0  0  0  0  0  0  0  0  0  0
    1.1915   -0.3898    0.1004 C   0  0  0  0  0  0  0  0  0  0  0  0
   -0.7457    0.6220    0.0649 C   0  0  0  0  0  0  0  0  0  0  0  0
    2.8053    1.3789   -0.1153 C   0  0  0  0  0  0  0  0  0  0  0  0
   -2.1815    0.6070    0.1105 C   0  0  0  0  0  0  0  0  0  0  0  0
    2.1697   -1.3806    0.1631 C   0  0  0  0  0  0  0  0  0  0  0  0
    3.8118    0.4053   -0.0546 C   0  0  0  0  0  0  0  0  0  0  0  0
   -0.0493    3.0634   -0.1874 C   0  0  0  0  0  0  0  0  0  0  0  0
    3.4970   -0.9492    0.0817 C   0  0  0  0  0  0  0  0  0  0  0  0
   -2.8886   -0.4998   -0.3682 C   0  0  0  0  0  0  0  0  0  0  0  0
   -2.8804    1.6976    0.6360 C   0  0  0  0  0  0  0  0  0  0  0  0
   -4.2825   -0.5159   -0.3216 C   0  0  0  0  0  0  0  0  0  0  0  0
    5.2063    0.8145   -0.1368 C   0  0  0  0  0  0  0  0  0  0  0  0
   -4.2743    1.6815    0.6824 C   0  0  0  0  0  0  0  0  0  0  0  0
   -4.9755    0.5748    0.2036 C   0  0  0  0  0  0  0  0  0  0  0  0
    6.2463    0.0180   -0.4706 C   0  0  0  0  0  0  0  0  0  0  0  0
    1.7642   -3.1951    1.6281 C   0  0  0  0  0  0  0  0  0  0  0  0
    7.6660    0.4800   -0.5334 C   0  0  0  0  0  0  0  0  0  0  0  0
   -4.1615   -2.6638   -1.3090 C   0  0  0  0  0  0  0  0  0  0  0  0
    3.0489    2.4324   -0.2223 H   0  0  0  0  0  0  0  0  0  0  0  0
   -0.9016    3.2691   -0.8427 H   0  0  0  0  0  0  0  0  0  0  0  0
   -0.2370    3.5130    0.7927 H   0  0  0  0  0  0  0  0  0  0  0  0
    0.8146    3.5758   -0.6241 H   0  0  0  0  0  0  0  0  0  0  0  0
    4.2689   -1.7121    0.1507 H   0  0  0  0  0  0  0  0  0  0  0  0
   -2.3086   -1.3198   -0.7784 H   0  0  0  0  0  0  0  0  0  0  0  0
   -2.3718    2.5643    1.0459 H   0  0  0  0  0  0  0  0  0  0  0  0
    5.4084    1.8588    0.0922 H   0  0  0  0  0  0  0  0  0  0  0  0
   -4.8085    2.5315    1.0985 H   0  0  0  0  0  0  0  0  0  0  0  0
    6.0976   -1.0247   -0.7339 H   0  0  0  0  0  0  0  0  0  0  0  0
    2.7174   -3.0828    2.1547 H   0  0  0  0  0  0  0  0  0  0  0  0
    1.5147   -4.2587    1.5830 H   0  0  0  0  0  0  0  0  0  0  0  0
    0.9705   -2.6741    2.1733 H   0  0  0  0  0  0  0  0  0  0  0  0
    8.2788   -0.1048    0.1594 H   0  0  0  0  0  0  0  0  0  0  0  0
    8.0593    0.3392   -1.5447 H   0  0  0  0  0  0  0  0  0  0  0  0
    7.7692    1.5376   -0.2710 H   0  0  0  0  0  0  0  0  0  0  0  0
   -6.6543   -0.2694   -0.1190 H   0  0  0  0  0  0  0  0  0  0  0  0
   -3.5261   -3.1107   -0.5364 H   0  0  0  0  0  0  0  0  0  0  0  0
   -3.5945   -2.3557   -2.1944 H   0  0  0  0  0  0  0  0  0  0  0  0
   -4.8506   -3.4490   -1.6381 H   0  0  0  0  0  0  0  0  0  0  0  0
  1  7  1  0  0  0  0
  1  8  1  0  0  0  0
  2 11  1  0  0  0  0
  2 22  1  0  0  0  0
  3 17  1  0  0  0  0
  3 24  1  0  0  0  0
  4 20  1  0  0  0  0
  4 41  1  0  0  0  0
  5  6  1  0  0  0  0
  5  7  2  0  0  0  0
  5  9  1  0  0  0  0
  6  8  2  0  0  0  0
  6 13  1  0  0  0  0
  7 11  1  0  0  0  0
  8 10  1  0  0  0  0
  9 12  2  0  0  0  0
  9 25  1  0  0  0  0
 10 15  2  0  0  0  0
 10 16  1  0  0  0  0
 11 14  2  0  0  0  0
 12 14  1  0  0  0  0
 12 18  1  0  0  0  0
 13 26  1  0  0  0  0
 13 27  1  0  0  0  0
 13 28  1  0  0  0  0
 14 29  1  0  0  0  0
 15 17  1  0  0  0  0
 15 30  1  0  0  0  0
 16 19  2  0  0  0  0
 16 31  1  0  0  0  0
 17 20  2  0  0  0  0
 18 21  2  0  0  0  0
 18 32  1  0  0  0  0
 19 20  1  0  0  0  0
 19 33  1  0  0  0  0
 21 23  1  0  0  0  0
 21 34  1  0  0  0  0
 22 35  1  0  0  0  0
 22 36  1  0  0  0  0
 22 37  1  0  0  0  0
 23 38  1  0  0  0  0
 23 39  1  0  0  0  0
 23 40  1  0  0  0  0
 24 42  1  0  0  0  0
 24 43  1  0  0  0  0
 24 44  1  0  0  0  0
M  END
> <PUBCHEM_COMPOUND_CID>
10314175

> <PUBCHEM_CONFORMER_RMSD>
0.8

> <PUBCHEM_CONFORMER_DIVERSEORDER>
8
2
6
7
4
5
1
3

> <PUBCHEM_MMFF94_PARTIAL_CHARGES>
31
1 -0.28
10 0.05
11 0.08
12 0.03
13 0.18
14 -0.15
15 -0.15
16 -0.15
17 0.08
18 -0.18
19 -0.15
2 -0.36
20 0.08
21 -0.29
22 0.28
23 0.14
24 0.28
25 0.15
29 0.15
3 -0.36
30 0.15
31 0.15
32 0.15
33 0.15
34 0.15
4 -0.53
41 0.45
6 -0.18
7 0.14
8 0.09
9 -0.15

> <PUBCHEM_EFFECTIVE_ROTOR_COUNT>
4

> <PUBCHEM_PHARMACOPHORE_FEATURES>
8
1 1 acceptor
1 2 acceptor
1 23 hydrophobe
1 3 acceptor
1 4 donor
5 1 5 6 7 8 rings
6 10 15 16 17 19 20 rings
6 5 7 9 11 12 14 rings

> <PUBCHEM_HEAVY_ATOM_COUNT>
24

> <PUBCHEM_ATOM_DEF_STEREO_COUNT>
0

> <PUBCHEM_ATOM_UDEF_STEREO_COUNT>
0

> <PUBCHEM_BOND_DEF_STEREO_COUNT>
1

> <PUBCHEM_BOND_UDEF_STEREO_COUNT>
0

> <PUBCHEM_ISOTOPIC_ATOM_COUNT>
0

> <PUBCHEM_COMPONENT_COUNT>
1

> <PUBCHEM_CACTVS_TAUTO_COUNT>
3

> <PUBCHEM_CONFORMER_ID>
009D61BF00000008

> <PUBCHEM_MMFF94_ENERGY>
75.5349

> <PUBCHEM_FEATURE_SELFOVERLAP>
40.7

> <PUBCHEM_SHAPE_FINGERPRINT>
10050765 1 18048316640040869380
10090160 65 17967254191552170858
10616163 171 18271805748551261199
10906281 52 18114764658686873904
11135926 11 18335693919043178766
11315181 36 17917998295189140441
11524674 6 16056880234297467676
11578080 2 17387965374714018868
12107183 9 17619632380592676337
12236239 1 18272652363645318332
12788726 201 17774163392837521009
12838862 33 18337655469235502605
13140716 1 18335702810100137728
13167823 11 18413107247610950043
13288520 33 18202003248387319909
13631057 29 18271523204011538559
13862211 1 18408881846126921312
14787075 74 18409730681740773816
14790565 3 18336553797788153796
14931854 50 18263909094679852023
15196674 1 18411419466912576266
15250474 111 18340753880582371399
15537594 2 18410578370767026851
15629462 23 16987741012564368650
16087824 20 18339644413959251749
16993438 75 17897173626458622923
17349148 13 18113332024610010032
1813 80 17531257101790332061
18681886 176 17846491569181853104
20028762 73 18342173397665141678
20511986 3 18340190913437842857
21033648 29 12829769691109059948
21054139 6 18409163350720478006
21065198 48 18269838623243012297
21267235 1 18341337777074626517
21421861 104 17971190322693665602
21641784 216 17749968656453572532
21709351 56 18335134323464425677
22224240 67 18335138700742734848
22393880 68 18342170076879597797
23402539 116 18342737433564566388
23522609 53 18193867923547632268
23559900 14 18131061675757750521
24771293 8 18341043138488254360
283562 15 18337112272596532448
335352 9 18342455946584051933
34797466 226 16989129776859125784
34934 24 18337952294699285009
3545911 37 18413671305586987889
4073 2 18261680362617795114
4214541 1 18343865520052925997
4325135 7 18409450280136661292
4340502 62 15647051569296536992
5104073 3 18341049627302059355
5486654 2 18408047312448482252
5758199 1 18409452488319544104
59755656 215 18342746183066959342
59755656 520 17967248728623451938

> <PUBCHEM_SHAPE_MULTIPOLES>
470.43
14.6
2.83
0.9
8.29
1.4
-0.08
-0.39
2.71
-0.97
-0.4
-0.25
0.54
-1.92

> <PUBCHEM_SHAPE_SELFOVERLAP>
1027.011

> <PUBCHEM_SHAPE_VOLUME>
260.5

> <PUBCHEM_COORDINATE_TYPE>
2
5
10

$$$$
