5458879
  -OEChem-09042005243D

 42 44  0     0  0  0  0  0  0999 V2000
    0.5369    2.5334    1.7217 O   0  0  0  0  0  0  0  0  0  0  0  0
   -0.0440   -3.0537    1.1158 O   0  0  0  0  0  0  0  0  0  0  0  0
   -6.7277    1.7219   -0.7598 O   0  0  0  0  0  0  0  0  0  0  0  0
    4.8779    0.7837   -1.1338 N   0  0  0  0  0  0  0  0  0  0  0  0
    1.1316   -2.1531   -0.6772 N   0  0  0  0  0  0  0  0  0  0  0  0
    3.7568   -0.8161   -0.0799 C   0  0  0  0  0  0  0  0  0  0  0  0
    3.1175    0.4264    0.1892 C   0  0  0  0  0  0  0  0  0  0  0  0
    3.3462   -2.1430    0.4211 C   0  0  0  0  0  0  0  0  0  0  0  0
    3.8405    1.4136   -0.4838 C   0  0  0  0  0  0  0  0  0  0  0  0
    4.8356   -0.5638   -0.8958 C   0  0  0  0  0  0  0  0  0  0  0  0
    2.3577   -2.8830   -0.4953 C   0  0  0  0  0  0  0  0  0  0  0  0
    1.9894    0.8070    0.9429 C   0  0  0  0  0  0  0  0  0  0  0  0
    3.4907    2.7679   -0.4404 C   0  0  0  0  0  0  0  0  0  0  0  0
    1.6276    2.1581    0.9954 C   0  0  0  0  0  0  0  0  0  0  0  0
    2.3680    3.1217    0.3137 C   0  0  0  0  0  0  0  0  0  0  0  0
    0.0258   -2.3010    0.1497 C   0  0  0  0  0  0  0  0  0  0  0  0
   -1.1058   -1.4244   -0.2669 C   0  0  0  0  0  0  0  0  0  0  0  0
   -3.4275   -0.6031    0.1182 C   0  0  0  0  0  0  0  0  0  0  0  0
   -2.2504   -1.4322    0.4321 C   0  0  0  0  0  0  0  0  0  0  0  0
   -3.2714    0.5266   -0.6681 C   0  0  0  0  0  0  0  0  0  0  0  0
   -4.6672   -0.9697    0.6162 C   0  0  0  0  0  0  0  0  0  0  0  0
   -4.3858    1.3116   -0.9645 C   0  0  0  0  0  0  0  0  0  0  0  0
   -5.7816   -0.1848    0.3197 C   0  0  0  0  0  0  0  0  0  0  0  0
   -5.6408    0.9559   -0.4706 C   0  0  0  0  0  0  0  0  0  0  0  0
    2.9040   -2.0391    1.4202 H   0  0  0  0  0  0  0  0  0  0  0  0
    4.2344   -2.7747    0.5508 H   0  0  0  0  0  0  0  0  0  0  0  0
    2.7947   -3.0335   -1.4886 H   0  0  0  0  0  0  0  0  0  0  0  0
    2.1309   -3.8670   -0.0708 H   0  0  0  0  0  0  0  0  0  0  0  0
    5.5770   -1.2205   -1.3293 H   0  0  0  0  0  0  0  0  0  0  0  0
    5.5700    1.2496   -1.7042 H   0  0  0  0  0  0  0  0  0  0  0  0
    1.4128    0.0619    1.4833 H   0  0  0  0  0  0  0  0  0  0  0  0
    4.0665    3.5188   -0.9709 H   0  0  0  0  0  0  0  0  0  0  0  0
    2.0740    4.1676    0.3639 H   0  0  0  0  0  0  0  0  0  0  0  0
    1.0938   -1.4968   -1.4518 H   0  0  0  0  0  0  0  0  0  0  0  0
   -0.9560   -0.8123   -1.1485 H   0  0  0  0  0  0  0  0  0  0  0  0
    0.1370    1.7424    2.1221 H   0  0  0  0  0  0  0  0  0  0  0  0
   -2.3593   -2.0834    1.2964 H   0  0  0  0  0  0  0  0  0  0  0  0
   -2.3116    0.8544   -1.0546 H   0  0  0  0  0  0  0  0  0  0  0  0
   -4.7931   -1.8562    1.2322 H   0  0  0  0  0  0  0  0  0  0  0  0
   -4.2695    2.2021   -1.5764 H   0  0  0  0  0  0  0  0  0  0  0  0
   -6.7539   -0.4729    0.7102 H   0  0  0  0  0  0  0  0  0  0  0  0
   -7.5112    1.3295   -0.3376 H   0  0  0  0  0  0  0  0  0  0  0  0
  1 14  1  0  0  0  0
  1 36  1  0  0  0  0
  2 16  2  0  0  0  0
  3 24  1  0  0  0  0
  3 42  1  0  0  0  0
  4  9  1  0  0  0  0
  4 10  1  0  0  0  0
  4 30  1  0  0  0  0
  5 11  1  0  0  0  0
  5 16  1  0  0  0  0
  5 34  1  0  0  0  0
  6  7  1  0  0  0  0
  6  8  1  0  0  0  0
  6 10  2  0  0  0  0
  7  9  2  0  0  0  0
  7 12  1  0  0  0  0
  8 11  1  0  0  0  0
  8 25  1  0  0  0  0
  8 26  1  0  0  0  0
  9 13  1  0  0  0  0
 10 29  1  0  0  0  0
 11 27  1  0  0  0  0
 11 28  1  0  0  0  0
 12 14  2  0  0  0  0
 12 31  1  0  0  0  0
 13 15  2  0  0  0  0
 13 32  1  0  0  0  0
 14 15  1  0  0  0  0
 15 33  1  0  0  0  0
 16 17  1  0  0  0  0
 17 19  2  0  0  0  0
 17 35  1  0  0  0  0
 18 19  1  0  0  0  0
 18 20  2  0  0  0  0
 18 21  1  0  0  0  0
 19 37  1  0  0  0  0
 20 22  1  0  0  0  0
 20 38  1  0  0  0  0
 21 23  2  0  0  0  0
 21 39  1  0  0  0  0
 22 24  2  0  0  0  0
 22 40  1  0  0  0  0
 23 24  1  0  0  0  0
 23 41  1  0  0  0  0
M  END
> <PUBCHEM_COMPOUND_CID>
5458879

> <PUBCHEM_CONFORMER_RMSD>
0.8

> <PUBCHEM_CONFORMER_DIVERSEORDER>
2
25
42
15
40
61
22
50
28
30
27
18
11
23
12
5
4
41
9
38
60
31
24
46
6
51
14
29
21
33
34
10
49
8
45
39
19
43
20
35
54
16
36
47
1
53
44
32
13
56
57
3
7
48
58
55
37
17
26
59
52

> <PUBCHEM_MMFF94_PARTIAL_CHARGES>
37
1 -0.53
10 -0.3
11 0.3
12 -0.15
13 -0.15
14 0.08
15 -0.15
16 0.62
17 -0.14
18 0.03
19 -0.18
2 -0.57
20 -0.15
21 -0.15
22 -0.15
23 -0.15
24 0.08
29 0.15
3 -0.53
30 0.27
31 0.15
32 0.15
33 0.15
34 0.37
35 0.15
36 0.45
37 0.15
38 0.15
39 0.15
4 0.03
40 0.15
41 0.15
42 0.45
5 -0.73
6 -0.18
8 0.18
9 -0.15

> <PUBCHEM_EFFECTIVE_ROTOR_COUNT>
6

> <PUBCHEM_PHARMACOPHORE_FEATURES>
9
1 1 donor
1 2 acceptor
1 3 donor
1 4 cation
1 4 donor
1 5 donor
5 4 6 7 9 10 rings
6 18 20 21 22 23 24 rings
6 7 9 12 13 14 15 rings

> <PUBCHEM_HEAVY_ATOM_COUNT>
24

> <PUBCHEM_ATOM_DEF_STEREO_COUNT>
0

> <PUBCHEM_ATOM_UDEF_STEREO_COUNT>
0

> <PUBCHEM_BOND_DEF_STEREO_COUNT>
1

> <PUBCHEM_BOND_UDEF_STEREO_COUNT>
0

> <PUBCHEM_ISOTOPIC_ATOM_COUNT>
0

> <PUBCHEM_COMPONENT_COUNT>
1

> <PUBCHEM_CACTVS_TAUTO_COUNT>
32

> <PUBCHEM_CONFORMER_ID>
00534BBF00000002

> <PUBCHEM_MMFF94_ENERGY>
46.1861

> <PUBCHEM_FEATURE_SELFOVERLAP>
45.764

> <PUBCHEM_SHAPE_FINGERPRINT>
10675989 125 18412265038705309704
11578080 2 13480572831824986572
11595378 159 15574985131704571247
12769317 202 18410851045086755127
12788726 201 17917725590609800304
12838862 33 18270384058652174632
12925494 130 18264486201204052917
13402501 40 18335139786731150789
13878862 14 18189875574950492807
13944108 23 18337115562130115740
14464042 87 17917151593725517945
14848178 96 18409162234086606941
14931854 50 18341625789033929180
151778 21 18336827610015324052
15183329 4 18341896256157490729
15210252 30 18261116309390963892
15238133 3 18334289899372953002
15322687 12 18410290319757354425
16067690 210 16226051059357213669
16992727 255 18118138085485155508
17093844 170 18411977001287316656
1768 85 18268157624836121249
20465049 17 18408609162399970818
21033648 29 18335416923986240265
21315764 21 18410857689343315953
21344244 78 17830148243743087066
21475661 188 18334855030436511431
21860390 5 18272937089854386878
221357 26 18342175531751898749
22289505 5 18341049627455175790
23227448 37 18341611564092156391
23559900 14 18410289237827041973
3004659 81 18335701624657417904
3014063 31 18341050731093095672
3298306 158 18411978091939406067
340366 18 17917991650949100382
3524813 1 18334288738924427815
3680242 22 18263642853350077915
5312510 48 18410292467921705173
54672768 99 18336827614663719052
7808743 9 17971196065175742164
8509985 295 18335130965221980026

> <PUBCHEM_SHAPE_MULTIPOLES>
466.34
13.38
3.67
1.07
18.18
0
-0.13
4.99
3.49
-3.11
-0.52
-0.18
0.3
1.08

> <PUBCHEM_SHAPE_SELFOVERLAP>
1013.642

> <PUBCHEM_SHAPE_VOLUME>
254.8

> <PUBCHEM_COORDINATE_TYPE>
2
5
10

$$$$
