600415
  -OEChem-08312016033D

 38 41  0     1  0  0  0  0  0999 V2000
    0.9486   -2.6746    0.5206 O   0  0  0  0  0  0  0  0  0  0  0  0
   -0.5387    0.6953    0.0589 C   0  0  1  0  0  0  0  0  0  0  0  0
    0.5164   -0.3820    0.1870 C   0  0  2  0  0  0  0  0  0  0  0  0
    0.1979    0.5146    1.3524 C   0  0  1  0  0  0  0  0  0  0  0  0
    1.8005    0.1496   -0.4639 C   0  0  0  0  0  0  0  0  0  0  0  0
    1.5289    1.6650   -0.0885 C   0  0  1  0  0  0  0  0  0  0  0  0
    0.0809    1.9063   -0.6205 C   0  0  0  0  0  0  0  0  0  0  0  0
    1.2410    1.6031    1.4449 C   0  0  0  0  0  0  0  0  0  0  0  0
   -1.9983    0.3381   -0.1215 C   0  0  0  0  0  0  0  0  0  0  0  0
    0.1306   -1.8096    0.2289 C   0  0  0  0  0  0  0  0  0  0  0  0
   -2.2688   -1.0990    0.3968 C   0  0  0  0  0  0  0  0  0  0  0  0
    1.8462   -0.1174   -1.9729 C   0  0  0  0  0  0  0  0  0  0  0  0
    3.0798   -0.4043    0.1764 C   0  0  0  0  0  0  0  0  0  0  0  0
   -1.2913   -2.1324   -0.1601 C   0  0  0  0  0  0  0  0  0  0  0  0
   -2.3939    0.4263   -1.6095 C   0  0  0  0  0  0  0  0  0  0  0  0
   -2.8797    1.3210    0.6708 C   0  0  0  0  0  0  0  0  0  0  0  0
   -0.2682    0.1671    2.2541 H   0  0  0  0  0  0  0  0  0  0  0  0
    2.2807    2.3889   -0.4052 H   0  0  0  0  0  0  0  0  0  0  0  0
   -0.3417    2.8473   -0.2532 H   0  0  0  0  0  0  0  0  0  0  0  0
    0.0189    1.8833   -1.7102 H   0  0  0  0  0  0  0  0  0  0  0  0
    2.1052    1.3177    2.0479 H   0  0  0  0  0  0  0  0  0  0  0  0
    0.8209    2.5380    1.8299 H   0  0  0  0  0  0  0  0  0  0  0  0
   -3.2935   -1.4028    0.1482 H   0  0  0  0  0  0  0  0  0  0  0  0
   -2.2028   -1.1152    1.4931 H   0  0  0  0  0  0  0  0  0  0  0  0
    0.9019    0.0999   -2.4793 H   0  0  0  0  0  0  0  0  0  0  0  0
    2.0546   -1.1751   -2.1732 H   0  0  0  0  0  0  0  0  0  0  0  0
    2.6338    0.4767   -2.4482 H   0  0  0  0  0  0  0  0  0  0  0  0
    3.9458    0.2069   -0.0991 H   0  0  0  0  0  0  0  0  0  0  0  0
    3.2765   -1.4282   -0.1615 H   0  0  0  0  0  0  0  0  0  0  0  0
    3.0279   -0.4537    1.2678 H   0  0  0  0  0  0  0  0  0  0  0  0
   -1.3477   -2.2036   -1.2502 H   0  0  0  0  0  0  0  0  0  0  0  0
   -1.5410   -3.1167    0.2518 H   0  0  0  0  0  0  0  0  0  0  0  0
   -2.3505    1.4592   -1.9734 H   0  0  0  0  0  0  0  0  0  0  0  0
   -1.7250   -0.1647   -2.2437 H   0  0  0  0  0  0  0  0  0  0  0  0
   -3.4173    0.0689   -1.7702 H   0  0  0  0  0  0  0  0  0  0  0  0
   -2.6379    1.3013    1.7395 H   0  0  0  0  0  0  0  0  0  0  0  0
   -2.7379    2.3514    0.3261 H   0  0  0  0  0  0  0  0  0  0  0  0
   -3.9423    1.0756    0.5632 H   0  0  0  0  0  0  0  0  0  0  0  0
  1 10  2  0  0  0  0
  2  3  1  0  0  0  0
  2  4  1  0  0  0  0
  2  7  1  0  0  0  0
  2  9  1  0  0  0  0
  3  4  1  0  0  0  0
  3  5  1  0  0  0  0
  3 10  1  0  0  0  0
  4  8  1  0  0  0  0
  4 17  1  0  0  0  0
  5  6  1  0  0  0  0
  5 12  1  0  0  0  0
  5 13  1  0  0  0  0
  6  7  1  0  0  0  0
  6  8  1  0  0  0  0
  6 18  1  0  0  0  0
  7 19  1  0  0  0  0
  7 20  1  0  0  0  0
  8 21  1  0  0  0  0
  8 22  1  0  0  0  0
  9 11  1  0  0  0  0
  9 15  1  0  0  0  0
  9 16  1  0  0  0  0
 10 14  1  0  0  0  0
 11 14  1  0  0  0  0
 11 23  1  0  0  0  0
 11 24  1  0  0  0  0
 12 25  1  0  0  0  0
 12 26  1  0  0  0  0
 12 27  1  0  0  0  0
 13 28  1  0  0  0  0
 13 29  1  0  0  0  0
 13 30  1  0  0  0  0
 14 31  1  0  0  0  0
 14 32  1  0  0  0  0
 15 33  1  0  0  0  0
 15 34  1  0  0  0  0
 15 35  1  0  0  0  0
 16 36  1  0  0  0  0
 16 37  1  0  0  0  0
 16 38  1  0  0  0  0
M  END
> <PUBCHEM_COMPOUND_CID>
600415

> <PUBCHEM_CONFORMER_RMSD>
0.6

> <PUBCHEM_CONFORMER_DIVERSEORDER>
1
2

> <PUBCHEM_MMFF94_PARTIAL_CHARGES>
11
1 -0.57
10 0.51
14 0.06
17 0.1
2 -0.19
3 -0.09
4 -0.19
5 0.09
7 0.09
8 0.09
9 0.09

> <PUBCHEM_EFFECTIVE_ROTOR_COUNT>
1.2

> <PUBCHEM_PHARMACOPHORE_FEATURES>
5
1 1 acceptor
3 5 12 13 hydrophobe
3 9 15 16 hydrophobe
7 2 3 4 5 6 7 8 rings
7 2 3 4 9 10 11 14 rings

> <PUBCHEM_HEAVY_ATOM_COUNT>
16

> <PUBCHEM_ATOM_DEF_STEREO_COUNT>
0

> <PUBCHEM_ATOM_UDEF_STEREO_COUNT>
4

> <PUBCHEM_BOND_DEF_STEREO_COUNT>
0

> <PUBCHEM_BOND_UDEF_STEREO_COUNT>
0

> <PUBCHEM_ISOTOPIC_ATOM_COUNT>
0

> <PUBCHEM_COMPONENT_COUNT>
1

> <PUBCHEM_CACTVS_TAUTO_COUNT>
2

> <PUBCHEM_CONFORMER_ID>
0009295F00000001

> <PUBCHEM_MMFF94_ENERGY>
67.772

> <PUBCHEM_FEATURE_SELFOVERLAP>
25.535

> <PUBCHEM_SHAPE_FINGERPRINT>
10863032 1 18337391646885335628
12423570 1 10558316544831449188
12524768 44 17326053356838916435
12808571 1 16733280026502652199
13024252 1 13556013747004717764
13132413 78 18127123070240138832
13140716 1 18409447020129785800
13172582 1 18408888416688548944
13299463 15 18334296491514489687
14142880 1 12259555452872289663
14181834 199 17972304127793799822
144361 1 17532354384087182621
14761567 1 18410858715898241983
14817 1 14060429983134373366
15001771 113 17477211530917942138
15557651 10 17531262689416144181
15852999 172 17767089331949248825
16945 1 18263077730264348092
20511035 2 17913766386739850724
21501502 16 18125443257027774328
21922407 69 15285631170480427505
22344851 341 18341900718084796098
22802520 49 17835547163593798854
2334 1 18193273215782065136
23419403 2 17627481037788178472
23559900 14 18341900671910943502
2748010 2 18265047110065982311
5084963 1 18268430324688094083
5255222 1 18337104579760907241
528886 8 18335424534425526505
5337951 7 17917160497161262056
53812653 166 18341332210527998817
81228 2 17758674838461171371

> <PUBCHEM_SHAPE_MULTIPOLES>
323.4
3.55
2.28
1.37
0.59
0.93
-0.41
-0.3
-0.39
0.09
0.41
-0.2
-0.29
0.13

> <PUBCHEM_SHAPE_SELFOVERLAP>
719.948

> <PUBCHEM_SHAPE_VOLUME>
180.6

> <PUBCHEM_COORDINATE_TYPE>
2
5
10

$$$$
