102095305
  -OEChem-08312014033D

 42 43  0     1  0  0  0  0  0999 V2000
   -1.7013    1.8379    0.7875 O   0  0  0  0  0  0  0  0  0  0  0  0
    0.5326   -0.8216   -0.8137 C   0  0  2  0  0  0  0  0  0  0  0  0
    0.0126    0.6004   -0.4526 C   0  0  1  0  0  0  0  0  0  0  0  0
   -1.3348    0.5331    0.3209 C   0  0  1  0  0  0  0  0  0  0  0  0
    0.5868   -1.7643    0.4260 C   0  0  1  0  0  0  0  0  0  0  0  0
   -1.2262   -0.3816    1.5464 C   0  0  0  0  0  0  0  0  0  0  0  0
   -0.7468   -1.7838    1.1891 C   0  0  0  0  0  0  0  0  0  0  0  0
    1.8939   -0.6738   -1.5196 C   0  0  0  0  0  0  0  0  0  0  0  0
   -2.4833    0.0831   -0.5992 C   0  0  0  0  0  0  0  0  0  0  0  0
    1.0868    1.4064    0.2606 C   0  0  0  0  0  0  0  0  0  0  0  0
    2.9459   -0.0075   -0.6298 C   0  0  0  0  0  0  0  0  0  0  0  0
    0.9688   -3.1983    0.0435 C   0  0  0  0  0  0  0  0  0  0  0  0
    2.4029    1.1360    0.1889 C   0  0  0  0  0  0  0  0  0  0  0  0
   -3.8036    0.0936    0.1615 C   0  0  0  0  0  0  0  0  0  0  0  0
   -2.5559    0.9797   -1.8290 C   0  0  0  0  0  0  0  0  0  0  0  0
    3.4214    1.9608    0.9198 C   0  0  0  0  0  0  0  0  0  0  0  0
   -0.1573   -1.2643   -1.5441 H   0  0  0  0  0  0  0  0  0  0  0  0
   -0.1251    1.1729   -1.3764 H   0  0  0  0  0  0  0  0  0  0  0  0
    1.3487   -1.4040    1.1282 H   0  0  0  0  0  0  0  0  0  0  0  0
   -2.1520   -0.4332    2.1276 H   0  0  0  0  0  0  0  0  0  0  0  0
   -0.5092    0.0610    2.2529 H   0  0  0  0  0  0  0  0  0  0  0  0
   -0.6263   -2.3592    2.1158 H   0  0  0  0  0  0  0  0  0  0  0  0
   -1.5117   -2.3082    0.6049 H   0  0  0  0  0  0  0  0  0  0  0  0
    1.7552   -0.0610   -2.4211 H   0  0  0  0  0  0  0  0  0  0  0  0
    2.2668   -1.6398   -1.8759 H   0  0  0  0  0  0  0  0  0  0  0  0
   -2.3254   -0.9397   -0.9587 H   0  0  0  0  0  0  0  0  0  0  0  0
    0.7649    2.2715    0.8346 H   0  0  0  0  0  0  0  0  0  0  0  0
    3.7634    0.3495   -1.2678 H   0  0  0  0  0  0  0  0  0  0  0  0
    3.3774   -0.7529    0.0493 H   0  0  0  0  0  0  0  0  0  0  0  0
    0.2881   -3.6012   -0.7139 H   0  0  0  0  0  0  0  0  0  0  0  0
    0.9285   -3.8573    0.9177 H   0  0  0  0  0  0  0  0  0  0  0  0
    1.9883   -3.2499   -0.3494 H   0  0  0  0  0  0  0  0  0  0  0  0
   -2.2750    1.7497    1.5667 H   0  0  0  0  0  0  0  0  0  0  0  0
   -1.7602    0.7603   -2.5472 H   0  0  0  0  0  0  0  0  0  0  0  0
   -3.4934    0.8045   -2.3704 H   0  0  0  0  0  0  0  0  0  0  0  0
   -4.6223   -0.1705   -0.5196 H   0  0  0  0  0  0  0  0  0  0  0  0
   -2.5262    2.0456   -1.5817 H   0  0  0  0  0  0  0  0  0  0  0  0
   -4.0554    1.0740    0.5768 H   0  0  0  0  0  0  0  0  0  0  0  0
   -3.8393   -0.6511    0.9605 H   0  0  0  0  0  0  0  0  0  0  0  0
    3.9913    1.3322    1.6117 H   0  0  0  0  0  0  0  0  0  0  0  0
    2.9614    2.7654    1.5029 H   0  0  0  0  0  0  0  0  0  0  0  0
    4.1186    2.4191    0.2110 H   0  0  0  0  0  0  0  0  0  0  0  0
  1  4  1  0  0  0  0
  1 33  1  0  0  0  0
  2  3  1  0  0  0  0
  2  5  1  0  0  0  0
  2  8  1  0  0  0  0
  2 17  1  0  0  0  0
  3  4  1  0  0  0  0
  3 10  1  0  0  0  0
  3 18  1  0  0  0  0
  4  6  1  0  0  0  0
  4  9  1  0  0  0  0
  5  7  1  0  0  0  0
  5 12  1  0  0  0  0
  5 19  1  0  0  0  0
  6  7  1  0  0  0  0
  6 20  1  0  0  0  0
  6 21  1  0  0  0  0
  7 22  1  0  0  0  0
  7 23  1  0  0  0  0
  8 11  1  0  0  0  0
  8 24  1  0  0  0  0
  8 25  1  0  0  0  0
  9 14  1  0  0  0  0
  9 15  1  0  0  0  0
  9 26  1  0  0  0  0
 10 13  2  0  0  0  0
 10 27  1  0  0  0  0
 11 13  1  0  0  0  0
 11 28  1  0  0  0  0
 11 29  1  0  0  0  0
 12 30  1  0  0  0  0
 12 31  1  0  0  0  0
 12 32  1  0  0  0  0
 13 16  1  0  0  0  0
 14 36  1  0  0  0  0
 14 38  1  0  0  0  0
 14 39  1  0  0  0  0
 15 34  1  0  0  0  0
 15 35  1  0  0  0  0
 15 37  1  0  0  0  0
 16 40  1  0  0  0  0
 16 41  1  0  0  0  0
 16 42  1  0  0  0  0
M  END
> <PUBCHEM_COMPOUND_CID>
102095305

> <PUBCHEM_CONFORMER_RMSD>
0.6

> <PUBCHEM_CONFORMER_DIVERSEORDER>
3
7
1
5
4
6
2

> <PUBCHEM_MMFF94_PARTIAL_CHARGES>
9
1 -0.68
10 -0.29
11 0.14
13 -0.28
16 0.14
27 0.15
3 0.14
33 0.4
4 0.28

> <PUBCHEM_EFFECTIVE_ROTOR_COUNT>
2.2

> <PUBCHEM_PHARMACOPHORE_FEATURES>
5
1 1 acceptor
1 1 donor
3 9 14 15 hydrophobe
6 2 3 4 5 6 7 rings
6 2 3 8 10 11 13 rings

> <PUBCHEM_HEAVY_ATOM_COUNT>
16

> <PUBCHEM_ATOM_DEF_STEREO_COUNT>
4

> <PUBCHEM_ATOM_UDEF_STEREO_COUNT>
0

> <PUBCHEM_BOND_DEF_STEREO_COUNT>
0

> <PUBCHEM_BOND_UDEF_STEREO_COUNT>
0

> <PUBCHEM_ISOTOPIC_ATOM_COUNT>
0

> <PUBCHEM_COMPONENT_COUNT>
1

> <PUBCHEM_CACTVS_TAUTO_COUNT>
1

> <PUBCHEM_CONFORMER_ID>
0615D9C900000003

> <PUBCHEM_MMFF94_ENERGY>
40.4569

> <PUBCHEM_FEATURE_SELFOVERLAP>
25.446

> <PUBCHEM_SHAPE_FINGERPRINT>
12138202 97 18192145108573190884
12326174 3 18200876162826709302
12423570 1 13944377999786042167
12491281 212 17274837886131489344
13299463 15 18187654557146130079
13380535 76 18129096891607656100
13464514 151 17756124722877356093
13538477 17 15792300430505350457
13571099 52 17895740821252141365
13581323 91 17023180573818090425
14181834 199 17825359934943734759
14761567 1 17901981580447830374
14817 1 17680159756793562570
15207287 21 17894906377862811531
15852999 172 17967530168564762187
15881359 60 17838900682632625882
16945 1 18342168917280612839
18186145 218 18410575080458068493
19765921 60 18059564836638571609
21947302 44 18343590654856518324
22112679 90 17552922823495946674
23236772 104 17489316303752509337
23402539 116 18267008621756991029
23493267 7 16154576193380157446
23559900 14 18339095839334067590
25 1 18335422309716824309
2748010 2 18193578841592223554
353137 74 18201995525877801097
4340502 62 18341904025979883819
528886 8 17561078142036859389
5845 1 17402931153849751618
6992083 37 11458420211307973205
7364860 26 18195524800889914843
7832392 63 17626395527674919496
81228 2 17686061995129990410

> <PUBCHEM_SHAPE_MULTIPOLES>
323.4
4.78
2.45
1.42
0.59
1.72
-0.23
-2.54
-0.28
-1.14
0.49
0.3
-0.06
0.92

> <PUBCHEM_SHAPE_SELFOVERLAP>
659.672

> <PUBCHEM_SHAPE_VOLUME>
186.2

> <PUBCHEM_COORDINATE_TYPE>
2
5
10

$$$$
