91747339
  -OEChem-09012002463D

 42 43  0     1  0  0  0  0  0999 V2000
    2.0133   -1.0210   -1.0836 O   0  0  0  0  0  0  0  0  0  0  0  0
   -0.9274   -0.7950   -0.8471 C   0  0  1  0  0  0  0  0  0  0  0  0
    0.0872    0.3654   -0.6085 C   0  0  2  0  0  0  0  0  0  0  0  0
    1.4378   -0.1834   -0.0657 C   0  0  1  0  0  0  0  0  0  0  0  0
   -1.0969   -1.6988    0.4084 C   0  0  2  0  0  0  0  0  0  0  0  0
    1.2352   -1.0565    1.1787 C   0  0  0  0  0  0  0  0  0  0  0  0
    0.2606   -2.2026    0.9176 C   0  0  0  0  0  0  0  0  0  0  0  0
   -2.2537   -0.1871   -1.3392 C   0  0  0  0  0  0  0  0  0  0  0  0
    2.4762    0.9087    0.2208 C   0  0  0  0  0  0  0  0  0  0  0  0
   -0.5327    1.4785    0.2146 C   0  0  0  0  0  0  0  0  0  0  0  0
   -2.8709    0.7696   -0.3169 C   0  0  0  0  0  0  0  0  0  0  0  0
   -2.0107   -2.8992    0.1396 C   0  0  0  0  0  0  0  0  0  0  0  0
   -1.8583    1.6611    0.3560 C   0  0  0  0  0  0  0  0  0  0  0  0
    2.6565    1.8021   -1.0013 C   0  0  0  0  0  0  0  0  0  0  0  0
    3.8030    0.2827    0.6360 C   0  0  0  0  0  0  0  0  0  0  0  0
   -2.4191    2.7752    1.1906 C   0  0  0  0  0  0  0  0  0  0  0  0
   -0.5373   -1.4230   -1.6606 H   0  0  0  0  0  0  0  0  0  0  0  0
    0.2797    0.7907   -1.6042 H   0  0  0  0  0  0  0  0  0  0  0  0
   -1.5513   -1.1199    1.2220 H   0  0  0  0  0  0  0  0  0  0  0  0
    0.8711   -0.4497    2.0168 H   0  0  0  0  0  0  0  0  0  0  0  0
    2.1636   -1.5355    1.5047 H   0  0  0  0  0  0  0  0  0  0  0  0
    0.6946   -2.9046    0.1944 H   0  0  0  0  0  0  0  0  0  0  0  0
    0.1199   -2.7656    1.8488 H   0  0  0  0  0  0  0  0  0  0  0  0
   -2.9770   -0.9650   -1.6048 H   0  0  0  0  0  0  0  0  0  0  0  0
   -2.0616    0.3661   -2.2690 H   0  0  0  0  0  0  0  0  0  0  0  0
    2.1523    1.5383    1.0579 H   0  0  0  0  0  0  0  0  0  0  0  0
    0.1301    2.1934    0.6914 H   0  0  0  0  0  0  0  0  0  0  0  0
   -3.4014    0.1953    0.4523 H   0  0  0  0  0  0  0  0  0  0  0  0
   -3.6225    1.3834   -0.8279 H   0  0  0  0  0  0  0  0  0  0  0  0
   -1.6561   -3.4842   -0.7156 H   0  0  0  0  0  0  0  0  0  0  0  0
   -3.0379   -2.5827   -0.0632 H   0  0  0  0  0  0  0  0  0  0  0  0
   -2.0464   -3.5628    1.0105 H   0  0  0  0  0  0  0  0  0  0  0  0
    2.6169   -1.6607   -0.6711 H   0  0  0  0  0  0  0  0  0  0  0  0
    1.7692    2.4024   -1.2194 H   0  0  0  0  0  0  0  0  0  0  0  0
    3.4704    2.5164   -0.8294 H   0  0  0  0  0  0  0  0  0  0  0  0
    2.9165    1.2306   -1.8986 H   0  0  0  0  0  0  0  0  0  0  0  0
    3.7481   -0.2344    1.5972 H   0  0  0  0  0  0  0  0  0  0  0  0
    4.2153   -0.3989   -0.1138 H   0  0  0  0  0  0  0  0  0  0  0  0
    4.5519    1.0729    0.7741 H   0  0  0  0  0  0  0  0  0  0  0  0
   -3.0275    3.4436    0.5727 H   0  0  0  0  0  0  0  0  0  0  0  0
   -1.6341    3.3774    1.6598 H   0  0  0  0  0  0  0  0  0  0  0  0
   -3.0490    2.3696    1.9889 H   0  0  0  0  0  0  0  0  0  0  0  0
  1  4  1  0  0  0  0
  1 33  1  0  0  0  0
  2  3  1  0  0  0  0
  2  5  1  0  0  0  0
  2  8  1  0  0  0  0
  2 17  1  0  0  0  0
  3  4  1  0  0  0  0
  3 10  1  0  0  0  0
  3 18  1  0  0  0  0
  4  6  1  0  0  0  0
  4  9  1  0  0  0  0
  5  7  1  0  0  0  0
  5 12  1  0  0  0  0
  5 19  1  0  0  0  0
  6  7  1  0  0  0  0
  6 20  1  0  0  0  0
  6 21  1  0  0  0  0
  7 22  1  0  0  0  0
  7 23  1  0  0  0  0
  8 11  1  0  0  0  0
  8 24  1  0  0  0  0
  8 25  1  0  0  0  0
  9 14  1  0  0  0  0
  9 15  1  0  0  0  0
  9 26  1  0  0  0  0
 10 13  2  0  0  0  0
 10 27  1  0  0  0  0
 11 13  1  0  0  0  0
 11 28  1  0  0  0  0
 11 29  1  0  0  0  0
 12 30  1  0  0  0  0
 12 31  1  0  0  0  0
 12 32  1  0  0  0  0
 13 16  1  0  0  0  0
 14 34  1  0  0  0  0
 14 35  1  0  0  0  0
 14 36  1  0  0  0  0
 15 37  1  0  0  0  0
 15 38  1  0  0  0  0
 15 39  1  0  0  0  0
 16 40  1  0  0  0  0
 16 41  1  0  0  0  0
 16 42  1  0  0  0  0
M  END
> <PUBCHEM_COMPOUND_CID>
91747339

> <PUBCHEM_CONFORMER_RMSD>
0.6

> <PUBCHEM_CONFORMER_DIVERSEORDER>
1
2
3
8
9
7
5
6
4
10

> <PUBCHEM_MMFF94_PARTIAL_CHARGES>
9
1 -0.68
10 -0.29
11 0.14
13 -0.28
16 0.14
27 0.15
3 0.14
33 0.4
4 0.28

> <PUBCHEM_EFFECTIVE_ROTOR_COUNT>
2.2

> <PUBCHEM_PHARMACOPHORE_FEATURES>
5
1 1 acceptor
1 1 donor
3 9 14 15 hydrophobe
6 2 3 4 5 6 7 rings
6 2 3 8 10 11 13 rings

> <PUBCHEM_HEAVY_ATOM_COUNT>
16

> <PUBCHEM_ATOM_DEF_STEREO_COUNT>
3

> <PUBCHEM_ATOM_UDEF_STEREO_COUNT>
1

> <PUBCHEM_BOND_DEF_STEREO_COUNT>
0

> <PUBCHEM_BOND_UDEF_STEREO_COUNT>
0

> <PUBCHEM_ISOTOPIC_ATOM_COUNT>
0

> <PUBCHEM_COMPONENT_COUNT>
1

> <PUBCHEM_CACTVS_TAUTO_COUNT>
1

> <PUBCHEM_CONFORMER_ID>
0577F40B00000001

> <PUBCHEM_MMFF94_ENERGY>
38.723

> <PUBCHEM_FEATURE_SELFOVERLAP>
25.443

> <PUBCHEM_SHAPE_FINGERPRINT>
108231 29 17904758139228363507
12423570 1 17414993552521035111
12491281 212 17917999334333673553
12532896 13 18198628739510812897
13027679 85 17399805285452432853
13140716 1 18124873714342018353
13380535 76 18341325622122084614
13538477 17 18335137634942024748
13764800 53 18409173241903176907
14617773 55 18189903199963764690
14761567 1 18047159085882164151
14787075 74 17252572986375545992
14817 1 17830217710828338083
15490181 8 18339924796995222303
15775835 57 18199185083715187225
15906896 17 18272370867214727367
16945 1 18271812366499323444
17357990 137 18124029027186415370
19837323 101 18202286904774555919
20510252 161 18118963843642658962
20525323 117 18271800250491604860
21501502 16 18188775084212408988
21524375 3 18128255588776149225
22344851 262 16733527395102192406
22802520 49 18130241397033230902
23236772 104 18342167860935091713
2334 1 18117274980902735206
23402539 116 18270381893265873751
23419403 2 15799636557038926657
23557571 272 18269557320001819502
23558518 356 18342181007813907309
23559900 14 18412549778721633502
2748010 2 18335703896336499254
276578 36 18193849136563250240
305870 269 18120088390518895096
353137 74 18338504292407181637
430814 3 18196372515849170929
5845 1 17759556599383842579
6992083 37 18113612370463982900
7364860 26 17837489648373450986
81228 2 18191319353670865283
9999458 23 17835543534615660597

> <PUBCHEM_SHAPE_MULTIPOLES>
323.4
4.63
2.92
1.2
2.66
0.4
0.06
-1.72
0.04
-2.04
-0.91
-0.07
-0.1
-0.81

> <PUBCHEM_SHAPE_SELFOVERLAP>
659.624

> <PUBCHEM_SHAPE_VOLUME>
186.3

> <PUBCHEM_COORDINATE_TYPE>
2
5
10

$$$$
