91747336
  -OEChem-09012002483D

 44 45  0     1  0  0  0  0  0999 V2000
    3.1863    0.8190   -0.1860 O   0  0  0  0  0  0  0  0  0  0  0  0
   -3.5977   -0.9358    1.4230 O   0  0  0  0  0  0  0  0  0  0  0  0
    4.3048   -1.1848    0.0790 O   0  0  0  0  0  0  0  0  0  0  0  0
   -0.1642   -0.7286   -0.9158 C   0  0  2  0  0  0  0  0  0  0  0  0
   -0.9212    0.5734   -0.5337 C   0  0  1  0  0  0  0  0  0  0  0  0
   -0.4052   -1.8668    0.1159 C   0  0  1  0  0  0  0  0  0  0  0  0
    1.3202   -0.3749   -1.1041 C   0  0  0  0  0  0  0  0  0  0  0  0
   -1.9033   -2.1593    0.2534 C   0  0  0  0  0  0  0  0  0  0  0  0
    1.9570    0.1894    0.1724 C   0  0  2  0  0  0  0  0  0  0  0  0
   -2.3625    0.3053   -0.1843 C   0  0  0  0  0  0  0  0  0  0  0  0
   -0.2216    1.3496    0.5624 C   0  0  0  0  0  0  0  0  0  0  0  0
    1.0717    1.1795    0.8948 C   0  0  0  0  0  0  0  0  0  0  0  0
   -2.6889   -0.9182    0.5964 C   0  0  0  0  0  0  0  0  0  0  0  0
    0.3248   -3.1604   -0.2573 C   0  0  0  0  0  0  0  0  0  0  0  0
   -3.3867    1.0792   -0.5703 C   0  0  0  0  0  0  0  0  0  0  0  0
    1.6928    1.9491    2.0262 C   0  0  0  0  0  0  0  0  0  0  0  0
   -4.8091    0.7386   -0.2358 C   0  0  0  0  0  0  0  0  0  0  0  0
   -3.1771    2.3366   -1.3616 C   0  0  0  0  0  0  0  0  0  0  0  0
    4.2848    0.0085   -0.1912 C   0  0  0  0  0  0  0  0  0  0  0  0
    5.4952    0.8006   -0.5832 C   0  0  0  0  0  0  0  0  0  0  0  0
   -0.5489   -1.0719   -1.8874 H   0  0  0  0  0  0  0  0  0  0  0  0
   -0.8731    1.2033   -1.4312 H   0  0  0  0  0  0  0  0  0  0  0  0
   -0.0399   -1.5525    1.1018 H   0  0  0  0  0  0  0  0  0  0  0  0
    1.4121    0.3648   -1.9127 H   0  0  0  0  0  0  0  0  0  0  0  0
    1.8926   -1.2388   -1.4604 H   0  0  0  0  0  0  0  0  0  0  0  0
   -2.0628   -2.8937    1.0520 H   0  0  0  0  0  0  0  0  0  0  0  0
   -2.3169   -2.5778   -0.6718 H   0  0  0  0  0  0  0  0  0  0  0  0
    2.1423   -0.6286    0.8815 H   0  0  0  0  0  0  0  0  0  0  0  0
   -0.8069    2.1002    1.0899 H   0  0  0  0  0  0  0  0  0  0  0  0
    1.4104   -3.0365   -0.2034 H   0  0  0  0  0  0  0  0  0  0  0  0
    0.0655   -3.4842   -1.2708 H   0  0  0  0  0  0  0  0  0  0  0  0
    0.0607   -3.9688    0.4332 H   0  0  0  0  0  0  0  0  0  0  0  0
    2.1253    1.2603    2.7591 H   0  0  0  0  0  0  0  0  0  0  0  0
    2.4849    2.6073    1.6557 H   0  0  0  0  0  0  0  0  0  0  0  0
    0.9620    2.5733    2.5512 H   0  0  0  0  0  0  0  0  0  0  0  0
   -3.3300    2.1427   -2.4279 H   0  0  0  0  0  0  0  0  0  0  0  0
   -3.9023    3.0980   -1.0508 H   0  0  0  0  0  0  0  0  0  0  0  0
   -2.1968    2.7979   -1.2209 H   0  0  0  0  0  0  0  0  0  0  0  0
   -5.0613    1.0515    0.7823 H   0  0  0  0  0  0  0  0  0  0  0  0
   -5.4897    1.2745   -0.9090 H   0  0  0  0  0  0  0  0  0  0  0  0
   -5.0458   -0.3195   -0.3858 H   0  0  0  0  0  0  0  0  0  0  0  0
    5.3631    1.2050   -1.5898 H   0  0  0  0  0  0  0  0  0  0  0  0
    6.3724    0.1472   -0.5822 H   0  0  0  0  0  0  0  0  0  0  0  0
    5.6601    1.6057    0.1372 H   0  0  0  0  0  0  0  0  0  0  0  0
  1  9  1  0  0  0  0
  1 19  1  0  0  0  0
  2 13  2  0  0  0  0
  3 19  2  0  0  0  0
  4  5  1  0  0  0  0
  4  6  1  0  0  0  0
  4  7  1  0  0  0  0
  4 21  1  0  0  0  0
  5 10  1  0  0  0  0
  5 11  1  0  0  0  0
  5 22  1  0  0  0  0
  6  8  1  0  0  0  0
  6 14  1  0  0  0  0
  6 23  1  0  0  0  0
  7  9  1  0  0  0  0
  7 24  1  0  0  0  0
  7 25  1  0  0  0  0
  8 13  1  0  0  0  0
  8 26  1  0  0  0  0
  8 27  1  0  0  0  0
  9 12  1  0  0  0  0
  9 28  1  0  0  0  0
 10 13  1  0  0  0  0
 10 15  2  0  0  0  0
 11 12  2  0  0  0  0
 11 29  1  0  0  0  0
 12 16  1  0  0  0  0
 14 30  1  0  0  0  0
 14 31  1  0  0  0  0
 14 32  1  0  0  0  0
 15 17  1  0  0  0  0
 15 18  1  0  0  0  0
 16 33  1  0  0  0  0
 16 34  1  0  0  0  0
 16 35  1  0  0  0  0
 17 39  1  0  0  0  0
 17 40  1  0  0  0  0
 17 41  1  0  0  0  0
 18 36  1  0  0  0  0
 18 37  1  0  0  0  0
 18 38  1  0  0  0  0
 19 20  1  0  0  0  0
 20 42  1  0  0  0  0
 20 43  1  0  0  0  0
 20 44  1  0  0  0  0
M  END
> <PUBCHEM_COMPOUND_CID>
91747336

> <PUBCHEM_CONFORMER_RMSD>
0.6

> <PUBCHEM_CONFORMER_DIVERSEORDER>
1
36
7
35
12
9
16
13
32
39
6
38
4
19
27
41
10
18
2
14
25
17
24
23
21
26
33
30
5
15
3
20
28
42
29
11
8
40
31
37
34
22

> <PUBCHEM_MMFF94_PARTIAL_CHARGES>
17
1 -0.43
10 -0.12
11 -0.29
12 -0.28
13 0.49
15 -0.28
16 0.14
17 0.14
18 0.14
19 0.66
2 -0.57
20 0.06
29 0.15
3 -0.57
5 0.28
8 0.06
9 0.42

> <PUBCHEM_EFFECTIVE_ROTOR_COUNT>
2.8

> <PUBCHEM_PHARMACOPHORE_FEATURES>
5
1 2 acceptor
1 3 acceptor
3 15 17 18 hydrophobe
6 4 5 6 8 10 13 rings
6 4 5 7 9 11 12 rings

> <PUBCHEM_HEAVY_ATOM_COUNT>
20

> <PUBCHEM_ATOM_DEF_STEREO_COUNT>
1

> <PUBCHEM_ATOM_UDEF_STEREO_COUNT>
3

> <PUBCHEM_BOND_DEF_STEREO_COUNT>
0

> <PUBCHEM_BOND_UDEF_STEREO_COUNT>
0

> <PUBCHEM_ISOTOPIC_ATOM_COUNT>
0

> <PUBCHEM_COMPONENT_COUNT>
1

> <PUBCHEM_CACTVS_TAUTO_COUNT>
5

> <PUBCHEM_CONFORMER_ID>
0577F40800000001

> <PUBCHEM_MMFF94_ENERGY>
40.0379

> <PUBCHEM_FEATURE_SELFOVERLAP>
25.439

> <PUBCHEM_SHAPE_FINGERPRINT>
10165383 225 18410862036319606665
10366900 7 18411409606047726133
10759866 29 18186805764540459794
107951 10 17676211247076365219
10863032 1 17822007558329038546
10948715 1 18041839506681838875
11370993 70 18261109621535618022
12011746 2 18408880746377923429
12236239 1 16370443349963896725
12403259 226 18197773513091456819
12403259 415 18341039788091561777
124424 183 18201719565549174404
12500047 106 18408598180010157430
12592029 89 17968375624529697202
12633257 1 17844269503648772451
12716301 132 18334845147779839841
12788726 201 17988088790527464936
13140716 1 18058733653029335787
13464514 151 18125436406782095805
13760787 19 18187082862760730010
14115302 16 18410299137842333780
14251751 93 18113053843931088162
15099037 51 18272931622307978484
15295992 7 18202279247154024025
16945 1 17418098719165105789
17804303 29 18341055227902463202
18186145 218 18059558209683758585
18219364 16 18343032103028820691
19049666 15 18193838146401309501
192875 21 15195283165875269537
19784866 9 18265895765560123434
200 152 16773792610908104821
21033648 29 18340753910182847624
21279426 13 18125161528558270862
21524375 3 18413668006994115031
23175994 123 17846226561468808664
23402539 116 18342453755221932916
23419403 2 16700034197005053235
23493267 7 17968090889609531201
23526113 38 18130508535145226878
23559900 14 18343864412441558302
25 1 18270675360144728429
2748010 2 18270389632949967065
3004659 81 18335140848537781414
3286 77 17487623150509114027
350125 39 18340211915817390243
3759504 43 18260547835634495182
53812653 166 18411982442846836923
59755656 215 18408880733852159447
598444 67 18340486776085587635
7226269 152 18273209782092208880
81228 2 17690826179213584227

> <PUBCHEM_SHAPE_MULTIPOLES>
393.98
8.45
2.54
1.24
5.69
1.35
-0.32
-2.65
1.25
-0.83
-0.14
-0.13
-0.57
1.28

> <PUBCHEM_SHAPE_SELFOVERLAP>
815.948

> <PUBCHEM_SHAPE_VOLUME>
223.6

> <PUBCHEM_COORDINATE_TYPE>
2
5
10

$$$$
