77667
  -OEChem-08312015293D

 26 26  0     0  0  0  0  0  0999 V2000
    0.0000   -1.2938    0.3286 C   0  0  0  0  0  0  0  0  0  0  0  0
   -1.1767   -0.3513    0.1797 C   0  0  0  0  0  0  0  0  0  0  0  0
    1.1768   -0.3513    0.1796 C   0  0  0  0  0  0  0  0  0  0  0  0
   -0.7291    0.9060    0.0008 C   0  0  0  0  0  0  0  0  0  0  0  0
    0.7291    0.9060    0.0007 C   0  0  0  0  0  0  0  0  0  0  0  0
   -0.0001   -2.4036   -0.7203 C   0  0  0  0  0  0  0  0  0  0  0  0
   -2.5753   -0.8612    0.2067 C   0  0  0  0  0  0  0  0  0  0  0  0
    2.5753   -0.8613    0.2070 C   0  0  0  0  0  0  0  0  0  0  0  0
   -1.5181    2.1552   -0.1911 C   0  0  0  0  0  0  0  0  0  0  0  0
    1.5179    2.1553   -0.1916 C   0  0  0  0  0  0  0  0  0  0  0  0
    0.0001   -1.7303    1.3349 H   0  0  0  0  0  0  0  0  0  0  0  0
   -0.0002   -2.0011   -1.7400 H   0  0  0  0  0  0  0  0  0  0  0  0
    0.8807   -3.0459   -0.6133 H   0  0  0  0  0  0  0  0  0  0  0  0
   -0.8810   -3.0458   -0.6131 H   0  0  0  0  0  0  0  0  0  0  0  0
   -2.7410   -1.4559    1.1108 H   0  0  0  0  0  0  0  0  0  0  0  0
   -2.7734   -1.4929   -0.6644 H   0  0  0  0  0  0  0  0  0  0  0  0
   -3.3151   -0.0568    0.2070 H   0  0  0  0  0  0  0  0  0  0  0  0
    2.7408   -1.4558    1.1113 H   0  0  0  0  0  0  0  0  0  0  0  0
    3.3151   -0.0569    0.2075 H   0  0  0  0  0  0  0  0  0  0  0  0
    2.7737   -1.4930   -0.6640 H   0  0  0  0  0  0  0  0  0  0  0  0
   -2.5963    1.9765   -0.1762 H   0  0  0  0  0  0  0  0  0  0  0  0
   -1.2796    2.6174   -1.1547 H   0  0  0  0  0  0  0  0  0  0  0  0
   -1.2966    2.8756    0.6033 H   0  0  0  0  0  0  0  0  0  0  0  0
    1.2970    2.8758    0.6028 H   0  0  0  0  0  0  0  0  0  0  0  0
    1.2790    2.6175   -1.1551 H   0  0  0  0  0  0  0  0  0  0  0  0
    2.5962    1.9766   -0.1774 H   0  0  0  0  0  0  0  0  0  0  0  0
  1  2  1  0  0  0  0
  1  3  1  0  0  0  0
  1  6  1  0  0  0  0
  1 11  1  0  0  0  0
  2  4  2  0  0  0  0
  2  7  1  0  0  0  0
  3  5  2  0  0  0  0
  3  8  1  0  0  0  0
  4  5  1  0  0  0  0
  4  9  1  0  0  0  0
  5 10  1  0  0  0  0
  6 12  1  0  0  0  0
  6 13  1  0  0  0  0
  6 14  1  0  0  0  0
  7 15  1  0  0  0  0
  7 16  1  0  0  0  0
  7 17  1  0  0  0  0
  8 18  1  0  0  0  0
  8 19  1  0  0  0  0
  8 20  1  0  0  0  0
  9 21  1  0  0  0  0
  9 22  1  0  0  0  0
  9 23  1  0  0  0  0
 10 24  1  0  0  0  0
 10 25  1  0  0  0  0
 10 26  1  0  0  0  0
M  END
> <PUBCHEM_COMPOUND_CID>
77667

> <PUBCHEM_CONFORMER_RMSD>
0.4

> <PUBCHEM_CONFORMER_DIVERSEORDER>
1

> <PUBCHEM_MMFF94_PARTIAL_CHARGES>
9
1 0.28
10 0.14
2 -0.28
3 -0.28
4 -0.14
5 -0.14
7 0.14
8 0.14
9 0.14

> <PUBCHEM_EFFECTIVE_ROTOR_COUNT>
0.2

> <PUBCHEM_PHARMACOPHORE_FEATURES>
1
5 1 2 3 4 5 rings

> <PUBCHEM_HEAVY_ATOM_COUNT>
10

> <PUBCHEM_ATOM_DEF_STEREO_COUNT>
0

> <PUBCHEM_ATOM_UDEF_STEREO_COUNT>
0

> <PUBCHEM_BOND_DEF_STEREO_COUNT>
0

> <PUBCHEM_BOND_UDEF_STEREO_COUNT>
0

> <PUBCHEM_ISOTOPIC_ATOM_COUNT>
0

> <PUBCHEM_COMPONENT_COUNT>
1

> <PUBCHEM_CACTVS_TAUTO_COUNT>
1

> <PUBCHEM_CONFORMER_ID>
00012F6300000001

> <PUBCHEM_MMFF94_ENERGY>
16.3857

> <PUBCHEM_FEATURE_SELFOVERLAP>
5.074

> <PUBCHEM_SHAPE_FINGERPRINT>
11206711 2 18336266751768647597
12423570 1 13861124293564442966
12524768 44 18195817494384213894
13380535 76 17906159660103030187
16945 1 18407760339191199651
18185500 45 17762617686867991566
193761 8 18409167709779908929
20588541 1 17835799703470580416
21040471 1 18051695743598277801
23552423 10 18259986015167554968
241688 4 17546452180523740035
2748010 2 18410288077979818964
5084963 1 18202565081169040539

> <PUBCHEM_SHAPE_MULTIPOLES>
205.8
2.79
2.63
0.7
0
0.41
-0.03
-0.15
0.24
0
-0.5
0
-0.13
0

> <PUBCHEM_SHAPE_SELFOVERLAP>
415.108

> <PUBCHEM_SHAPE_VOLUME>
122.8

> <PUBCHEM_COORDINATE_TYPE>
2
5
10

$$$$
