5369926
  -OEChem-08312016003D

 38 40  0     1  0  0  0  0  0999 V2000
   -0.3061    0.9947   -1.1192 O   0  0  0  0  0  0  0  0  0  0  0  0
   -0.5637   -1.3243   -0.2203 C   0  0  1  0  0  0  0  0  0  0  0  0
   -2.0749   -1.4015   -0.1882 C   0  0  1  0  0  0  0  0  0  0  0  0
    0.1188    0.0292   -0.1391 C   0  0  2  0  0  0  0  0  0  0  0  0
   -0.6893    1.2426    0.2326 C   0  0  2  0  0  0  0  0  0  0  0  0
   -1.2705   -1.9322    0.9687 C   0  0  0  0  0  0  0  0  0  0  0  0
   -2.8893   -0.1156   -0.1008 C   0  0  0  0  0  0  0  0  0  0  0  0
   -2.1352    1.0588    0.5917 C   0  0  0  0  0  0  0  0  0  0  0  0
   -0.0270    2.4517    0.7999 C   0  0  0  0  0  0  0  0  0  0  0  0
    1.5132   -0.0290    0.2998 C   0  0  0  0  0  0  0  0  0  0  0  0
   -4.1731   -0.4059    0.7063 C   0  0  0  0  0  0  0  0  0  0  0  0
   -3.3218    0.2995   -1.5240 C   0  0  0  0  0  0  0  0  0  0  0  0
    2.5762   -0.1607   -0.5116 C   0  0  0  0  0  0  0  0  0  0  0  0
    3.9749   -0.2208   -0.1088 C   0  0  0  0  0  0  0  0  0  0  0  0
    4.3303   -0.1314    1.3496 C   0  0  0  0  0  0  0  0  0  0  0  0
    4.9375   -0.3550   -1.0366 C   0  0  0  0  0  0  0  0  0  0  0  0
   -0.0857   -2.0335   -0.8953 H   0  0  0  0  0  0  0  0  0  0  0  0
   -2.5501   -2.1472   -0.8183 H   0  0  0  0  0  0  0  0  0  0  0  0
   -1.2129   -3.0077    1.0893 H   0  0  0  0  0  0  0  0  0  0  0  0
   -1.2713   -1.3862    1.9036 H   0  0  0  0  0  0  0  0  0  0  0  0
   -2.6781    1.9950    0.4071 H   0  0  0  0  0  0  0  0  0  0  0  0
   -2.1682    0.9063    1.6793 H   0  0  0  0  0  0  0  0  0  0  0  0
    0.9502    2.6548    0.3487 H   0  0  0  0  0  0  0  0  0  0  0  0
   -0.6445    3.3410    0.6333 H   0  0  0  0  0  0  0  0  0  0  0  0
    0.1137    2.3379    1.8798 H   0  0  0  0  0  0  0  0  0  0  0  0
    1.6640    0.0308    1.3748 H   0  0  0  0  0  0  0  0  0  0  0  0
   -3.9361   -0.7262    1.7273 H   0  0  0  0  0  0  0  0  0  0  0  0
   -4.8112    0.4824    0.7716 H   0  0  0  0  0  0  0  0  0  0  0  0
   -4.7589   -1.2093    0.2447 H   0  0  0  0  0  0  0  0  0  0  0  0
   -3.9029    1.2282   -1.5092 H   0  0  0  0  0  0  0  0  0  0  0  0
   -2.4663    0.4468   -2.1891 H   0  0  0  0  0  0  0  0  0  0  0  0
   -3.9471   -0.4742   -1.9855 H   0  0  0  0  0  0  0  0  0  0  0  0
    2.3859   -0.2263   -1.5824 H   0  0  0  0  0  0  0  0  0  0  0  0
    3.9879    0.8182    1.7750 H   0  0  0  0  0  0  0  0  0  0  0  0
    5.4126   -0.1869    1.5124 H   0  0  0  0  0  0  0  0  0  0  0  0
    3.8764   -0.9551    1.9110 H   0  0  0  0  0  0  0  0  0  0  0  0
    5.9857   -0.4019   -0.7588 H   0  0  0  0  0  0  0  0  0  0  0  0
    4.7097   -0.4219   -2.0960 H   0  0  0  0  0  0  0  0  0  0  0  0
  1  4  1  0  0  0  0
  1  5  1  0  0  0  0
  2  3  1  0  0  0  0
  2  4  1  0  0  0  0
  2  6  1  0  0  0  0
  2 17  1  0  0  0  0
  3  6  1  0  0  0  0
  3  7  1  0  0  0  0
  3 18  1  0  0  0  0
  4  5  1  0  0  0  0
  4 10  1  0  0  0  0
  5  8  1  0  0  0  0
  5  9  1  0  0  0  0
  6 19  1  0  0  0  0
  6 20  1  0  0  0  0
  7  8  1  0  0  0  0
  7 11  1  0  0  0  0
  7 12  1  0  0  0  0
  8 21  1  0  0  0  0
  8 22  1  0  0  0  0
  9 23  1  0  0  0  0
  9 24  1  0  0  0  0
  9 25  1  0  0  0  0
 10 13  2  0  0  0  0
 10 26  1  0  0  0  0
 11 27  1  0  0  0  0
 11 28  1  0  0  0  0
 11 29  1  0  0  0  0
 12 30  1  0  0  0  0
 12 31  1  0  0  0  0
 12 32  1  0  0  0  0
 13 14  1  0  0  0  0
 13 33  1  0  0  0  0
 14 15  1  0  0  0  0
 14 16  2  0  0  0  0
 15 34  1  0  0  0  0
 15 35  1  0  0  0  0
 15 36  1  0  0  0  0
 16 37  1  0  0  0  0
 16 38  1  0  0  0  0
M  END
> <PUBCHEM_COMPOUND_CID>
5369926

> <PUBCHEM_CONFORMER_RMSD>
0.6

> <PUBCHEM_CONFORMER_DIVERSEORDER>
5
26
21
15
25
18
14
20
23
2
22
17
16
4
6
8
24
12
11
9
7
10
19
13
3
1

> <PUBCHEM_MMFF94_PARTIAL_CHARGES>
22
1 -0.3
10 -0.19
13 -0.15
14 -0.14
15 0.14
16 -0.3
17 0.1
18 0.1
19 0.1
2 -0.1
20 0.1
26 0.15
3 -0.19
33 0.15
37 0.15
38 0.15
4 0.19
5 -0.04
6 -0.2
7 0.09
8 0.09
9 0.09

> <PUBCHEM_EFFECTIVE_ROTOR_COUNT>
2.8

> <PUBCHEM_PHARMACOPHORE_FEATURES>
3
1 1 acceptor
3 7 11 12 hydrophobe
8 1 2 3 4 5 6 7 8 rings

> <PUBCHEM_HEAVY_ATOM_COUNT>
16

> <PUBCHEM_ATOM_DEF_STEREO_COUNT>
0

> <PUBCHEM_ATOM_UDEF_STEREO_COUNT>
4

> <PUBCHEM_BOND_DEF_STEREO_COUNT>
1

> <PUBCHEM_BOND_UDEF_STEREO_COUNT>
0

> <PUBCHEM_ISOTOPIC_ATOM_COUNT>
0

> <PUBCHEM_COMPONENT_COUNT>
1

> <PUBCHEM_CACTVS_TAUTO_COUNT>
1

> <PUBCHEM_CONFORMER_ID>
0051F04600000005

> <PUBCHEM_MMFF94_ENERGY>
39.7159

> <PUBCHEM_FEATURE_SELFOVERLAP>
15.223

> <PUBCHEM_SHAPE_FINGERPRINT>
10130415 120 18337112357809530328
10366900 7 18059857255840896122
11132069 177 18272083898684681592
11315181 36 18334861611217504172
11680986 33 18124312967733063633
12119455 92 16271929276841400165
12236239 1 17676207966348571586
12403814 3 17385723595148400117
12592029 89 16878220870464887099
13024252 1 13406797726861006287
13862211 1 18410852187864761939
14115302 16 18115034103059060590
14911166 2 18410566297687492823
14993402 34 18113898260339785989
15375358 24 18272083911949502102
16752209 62 18263629693665130512
16945 1 18342165675023344491
17804303 29 18336833099289275459
18186145 218 18186800318263303244
187816 3 18411415099009938239
200 152 16370441146914432912
20279233 1 17917992785273464166
20510252 161 18271811155424203688
20645476 183 17530965804002011795
21029758 11 18201431489287318929
21029758 27 18260840318765398645
21501502 16 18052821639521337485
22344851 262 17275110531056197287
22854114 59 16774076284960779466
2297311 6 18200328658087198964
23175994 123 18342183284099270149
23366157 5 17827354693992269468
23402539 116 18060135427649964399
23493267 7 17240755151921922513
23557571 272 18059587840995469212
23559900 14 18412545419034201270
2748010 2 18049998089382046155
296302 2 15698001859473706355
3286 77 15841257229440765408
4175511 318 17894345566460342455
43471831 8 18263645069543042594
81228 2 18199487488289038416
9709674 26 18201166438592648078

> <PUBCHEM_SHAPE_MULTIPOLES>
323.4
7.99
1.71
1.19
8.17
0.49
-0.1
-1.46
-0.48
-0.85
0.46
0.09
0.01
0.31

> <PUBCHEM_SHAPE_SELFOVERLAP>
672.73

> <PUBCHEM_SHAPE_VOLUME>
186.3

> <PUBCHEM_COORDINATE_TYPE>
2
5
10

$$$$
