583087
  -OEChem-08312015523D

 34 36  0     1  0  0  0  0  0999 V2000
    0.6757   -1.2100   -0.3996 C   0  0  1  0  0  0  0  0  0  0  0  0
   -0.6753   -1.2102    0.3991 C   0  0  1  0  0  0  0  0  0  0  0  0
    0.7049    0.2842   -0.0407 C   0  0  0  0  0  0  0  0  0  0  0  0
   -0.7049    0.2841    0.0402 C   0  0  0  0  0  0  0  0  0  0  0  0
    1.9374   -1.8899    0.1255 C   0  0  0  0  0  0  0  0  0  0  0  0
   -1.9373   -1.8900   -0.1257 C   0  0  0  0  0  0  0  0  0  0  0  0
    1.7910    1.0459    0.1379 C   0  0  0  0  0  0  0  0  0  0  0  0
   -1.7913    1.0457   -0.1379 C   0  0  0  0  0  0  0  0  0  0  0  0
    3.1433   -1.0972   -0.4156 C   0  0  0  0  0  0  0  0  0  0  0  0
   -3.1428   -1.0976    0.4163 C   0  0  0  0  0  0  0  0  0  0  0  0
    3.1602    0.3858    0.0352 C   0  0  0  0  0  0  0  0  0  0  0  0
   -3.1603    0.3855   -0.0346 C   0  0  0  0  0  0  0  0  0  0  0  0
    1.7878    2.4820    0.5619 C   0  0  0  0  0  0  0  0  0  0  0  0
   -1.7885    2.4818   -0.5620 C   0  0  0  0  0  0  0  0  0  0  0  0
    0.5482   -1.4197   -1.4734 H   0  0  0  0  0  0  0  0  0  0  0  0
   -0.5478   -1.4199    1.4729 H   0  0  0  0  0  0  0  0  0  0  0  0
    1.9799   -2.9294   -0.2165 H   0  0  0  0  0  0  0  0  0  0  0  0
    1.9607   -1.8992    1.2218 H   0  0  0  0  0  0  0  0  0  0  0  0
   -1.9795   -2.9295    0.2159 H   0  0  0  0  0  0  0  0  0  0  0  0
   -1.9611   -1.8988   -1.2221 H   0  0  0  0  0  0  0  0  0  0  0  0
    3.1245   -1.1272   -1.5130 H   0  0  0  0  0  0  0  0  0  0  0  0
    4.0759   -1.5804   -0.1025 H   0  0  0  0  0  0  0  0  0  0  0  0
   -3.1232   -1.1274    1.5138 H   0  0  0  0  0  0  0  0  0  0  0  0
   -4.0756   -1.5809    0.1040 H   0  0  0  0  0  0  0  0  0  0  0  0
    3.7945    0.9566   -0.6533 H   0  0  0  0  0  0  0  0  0  0  0  0
    3.6331    0.4358    1.0245 H   0  0  0  0  0  0  0  0  0  0  0  0
   -3.7943    0.9562    0.6542 H   0  0  0  0  0  0  0  0  0  0  0  0
   -3.6338    0.4353   -1.0237 H   0  0  0  0  0  0  0  0  0  0  0  0
    2.1734    3.1149   -0.2433 H   0  0  0  0  0  0  0  0  0  0  0  0
    2.4221    2.6204    1.4438 H   0  0  0  0  0  0  0  0  0  0  0  0
    0.7880    2.8339    0.8282 H   0  0  0  0  0  0  0  0  0  0  0  0
   -0.7888    2.8339   -0.8287 H   0  0  0  0  0  0  0  0  0  0  0  0
   -2.1739    3.1146    0.2434 H   0  0  0  0  0  0  0  0  0  0  0  0
   -2.4231    2.6201   -1.4436 H   0  0  0  0  0  0  0  0  0  0  0  0
  1  2  1  0  0  0  0
  1  3  1  0  0  0  0
  1  5  1  0  0  0  0
  1 15  1  0  0  0  0
  2  4  1  0  0  0  0
  2  6  1  0  0  0  0
  2 16  1  0  0  0  0
  3  4  1  0  0  0  0
  3  7  2  0  0  0  0
  4  8  2  0  0  0  0
  5  9  1  0  0  0  0
  5 17  1  0  0  0  0
  5 18  1  0  0  0  0
  6 10  1  0  0  0  0
  6 19  1  0  0  0  0
  6 20  1  0  0  0  0
  7 11  1  0  0  0  0
  7 13  1  0  0  0  0
  8 12  1  0  0  0  0
  8 14  1  0  0  0  0
  9 11  1  0  0  0  0
  9 21  1  0  0  0  0
  9 22  1  0  0  0  0
 10 12  1  0  0  0  0
 10 23  1  0  0  0  0
 10 24  1  0  0  0  0
 11 25  1  0  0  0  0
 11 26  1  0  0  0  0
 12 27  1  0  0  0  0
 12 28  1  0  0  0  0
 13 29  1  0  0  0  0
 13 30  1  0  0  0  0
 13 31  1  0  0  0  0
 14 32  1  0  0  0  0
 14 33  1  0  0  0  0
 14 34  1  0  0  0  0
M  END
> <PUBCHEM_COMPOUND_CID>
583087

> <PUBCHEM_CONFORMER_RMSD>
0.4

> <PUBCHEM_CONFORMER_DIVERSEORDER>
1
3
2

> <PUBCHEM_MMFF94_PARTIAL_CHARGES>
10
1 0.14
11 0.14
12 0.14
13 0.14
14 0.14
2 0.14
3 -0.17
4 -0.17
7 -0.25
8 -0.25

> <PUBCHEM_EFFECTIVE_ROTOR_COUNT>
1.2

> <PUBCHEM_PHARMACOPHORE_FEATURES>
3
4 1 2 3 4 rings
6 1 3 5 7 9 11 rings
6 2 4 6 8 10 12 rings

> <PUBCHEM_HEAVY_ATOM_COUNT>
14

> <PUBCHEM_ATOM_DEF_STEREO_COUNT>
0

> <PUBCHEM_ATOM_UDEF_STEREO_COUNT>
2

> <PUBCHEM_BOND_DEF_STEREO_COUNT>
0

> <PUBCHEM_BOND_UDEF_STEREO_COUNT>
0

> <PUBCHEM_ISOTOPIC_ATOM_COUNT>
0

> <PUBCHEM_COMPONENT_COUNT>
1

> <PUBCHEM_CACTVS_TAUTO_COUNT>
1

> <PUBCHEM_CONFORMER_ID>
0008E5AF00000001

> <PUBCHEM_MMFF94_ENERGY>
24.6246

> <PUBCHEM_FEATURE_SELFOVERLAP>
15.762

> <PUBCHEM_SHAPE_FINGERPRINT>
10608611 8 18410570686616866624
10967382 1 18122344841692276617
11132069 177 18340761667061926601
11206711 2 18409735040604961503
11471102 20 18412823581842176903
12524768 44 18264766747601845969
12730499 353 17250327298712813141
13140716 1 18266459995382053299
13897977 150 18340202011406443329
14144814 61 18410575050366806650
14325111 11 18410575076078451564
14648413 74 18411135857326830064
15219456 202 18411981394452784643
15375462 6 18337954613712547614
15442244 35 18193555571496330730
15775835 57 18410583885051133377
161256 15 18410858801623274102
16945 1 18410848863058557542
17804303 29 18410299103229218726
17844478 74 18261404351103007939
17990270 104 18412545401284951146
193761 8 18410854364911702692
19973954 147 18410573985151659009
20201158 50 18412545405221183323
21501502 16 18410857663446436623
22802520 49 18411421730281213497
2334 1 17978229692239477895
23388829 49 17476918425423099079
23402539 116 18341040891945448023
23463225 33 18336547217422735976
23552423 10 18334296512783721134
23559900 14 18053099520270558046
238 59 16454284165372448885
25 1 17759797044759533917
2748010 2 18122063366715579015
5255222 1 18410570690911807941
53812653 166 18413668019905091768
69090 78 18341889671835189935
7364860 26 18271246122675192680
81228 2 18187083979463075377
8809292 202 18334301963071080035

> <PUBCHEM_SHAPE_MULTIPOLES>
288.11
5.04
2.58
0.71
0
0.95
0
-0.46
0
0
0
0
0.06
0.58

> <PUBCHEM_SHAPE_SELFOVERLAP>
608.106

> <PUBCHEM_SHAPE_VOLUME>
161.4

> <PUBCHEM_COORDINATE_TYPE>
2
5
10

$$$$
