99738483
  -OEChem-09012002223D

 86 90  0     1  0  0  0  0  0999 V2000
   -6.3237   -0.3312    0.4225 O   0  0  0  0  0  0  0  0  0  0  0  0
   -6.8801   -1.8159   -1.2577 O   0  0  0  0  0  0  0  0  0  0  0  0
    0.2530    0.9694   -0.4307 C   0  0  1  0  0  0  0  0  0  0  0  0
    1.7432    1.0226    0.2262 C   0  0  1  0  0  0  0  0  0  0  0  0
   -0.5111   -0.2970    0.1330 C   0  0  1  0  0  0  0  0  0  0  0  0
    2.5193   -0.3149   -0.1018 C   0  0  1  0  0  0  0  0  0  0  0  0
   -2.0586   -0.4280   -0.2298 C   0  0  2  0  0  0  0  0  0  0  0  0
   -2.7607    0.9868   -0.2459 C   0  0  2  0  0  0  0  0  0  0  0  0
    4.0214   -0.2923    0.3843 C   0  0  2  0  0  0  0  0  0  0  0  0
   -0.5506    2.2689   -0.1214 C   0  0  0  0  0  0  0  0  0  0  0  0
    0.2902   -1.5881   -0.1336 C   0  0  0  0  0  0  0  0  0  0  0  0
    4.7846    0.9331   -0.2331 C   0  0  1  0  0  0  0  0  0  0  0  0
    1.7255   -1.5386    0.3856 C   0  0  0  0  0  0  0  0  0  0  0  0
    2.5643    2.2322   -0.3179 C   0  0  0  0  0  0  0  0  0  0  0  0
   -1.9192    2.0389    0.5036 C   0  0  0  0  0  0  0  0  0  0  0  0
   -4.2774    1.0188    0.2426 C   0  0  0  0  0  0  0  0  0  0  0  0
    4.0326    2.2419    0.1097 C   0  0  0  0  0  0  0  0  0  0  0  0
   -2.7381   -1.3123    0.8565 C   0  0  0  0  0  0  0  0  0  0  0  0
    0.3428    0.9083   -1.9856 C   0  0  0  0  0  0  0  0  0  0  0  0
    1.6458    1.2082    1.7790 C   0  0  0  0  0  0  0  0  0  0  0  0
    4.7929   -1.6448    0.1657 C   0  0  1  0  0  0  0  0  0  0  0  0
   -2.2491   -1.1615   -1.5876 C   0  0  0  0  0  0  0  0  0  0  0  0
   -4.9603   -0.3464   -0.0069 C   0  0  1  0  0  0  0  0  0  0  0  0
   -4.2445   -1.5061    0.6834 C   0  0  0  0  0  0  0  0  0  0  0  0
    6.2118    1.0368    0.3817 C   0  0  0  0  0  0  0  0  0  0  0  0
    4.9195    0.8448   -1.7786 C   0  0  0  0  0  0  0  0  0  0  0  0
    6.9101   -0.2972    0.6567 C   0  0  0  0  0  0  0  0  0  0  0  0
    6.2790   -1.4397   -0.0794 C   0  0  0  0  0  0  0  0  0  0  0  0
   -5.0299    2.0994   -0.5772 C   0  0  0  0  0  0  0  0  0  0  0  0
   -4.4468    1.4161    1.7343 C   0  0  0  0  0  0  0  0  0  0  0  0
    4.6722   -2.5811    1.3834 C   0  0  0  0  0  0  0  0  0  0  0  0
    6.9775   -2.2139   -0.9249 C   0  0  0  0  0  0  0  0  0  0  0  0
   -7.1752   -1.1162   -0.2982 C   0  0  0  0  0  0  0  0  0  0  0  0
   -8.5605   -1.0011    0.2619 C   0  0  0  0  0  0  0  0  0  0  0  0
   -0.5123   -0.1829    1.2236 H   0  0  0  0  0  0  0  0  0  0  0  0
    2.5641   -0.4184   -1.1915 H   0  0  0  0  0  0  0  0  0  0  0  0
   -2.7666    1.3032   -1.2995 H   0  0  0  0  0  0  0  0  0  0  0  0
    4.0051   -0.1348    1.4711 H   0  0  0  0  0  0  0  0  0  0  0  0
   -0.6966    2.8551   -1.0391 H   0  0  0  0  0  0  0  0  0  0  0  0
   -0.0046    2.9500    0.5356 H   0  0  0  0  0  0  0  0  0  0  0  0
    0.3194   -1.8131   -1.2051 H   0  0  0  0  0  0  0  0  0  0  0  0
   -0.1993   -2.4459    0.3393 H   0  0  0  0  0  0  0  0  0  0  0  0
    1.7175   -1.5806    1.4801 H   0  0  0  0  0  0  0  0  0  0  0  0
    2.2062   -2.4584    0.0368 H   0  0  0  0  0  0  0  0  0  0  0  0
    2.5494    2.2607   -1.4086 H   0  0  0  0  0  0  0  0  0  0  0  0
    2.1139    3.1774    0.0066 H   0  0  0  0  0  0  0  0  0  0  0  0
   -2.4368    3.0052    0.5108 H   0  0  0  0  0  0  0  0  0  0  0  0
   -1.7856    1.7467    1.5523 H   0  0  0  0  0  0  0  0  0  0  0  0
    4.5313    3.0944   -0.3708 H   0  0  0  0  0  0  0  0  0  0  0  0
    4.0929    2.4421    1.1860 H   0  0  0  0  0  0  0  0  0  0  0  0
   -2.5543   -0.8717    1.8441 H   0  0  0  0  0  0  0  0  0  0  0  0
   -2.2788   -2.3065    0.9020 H   0  0  0  0  0  0  0  0  0  0  0  0
    0.7956   -0.0117   -2.3598 H   0  0  0  0  0  0  0  0  0  0  0  0
    0.9097    1.7433   -2.4044 H   0  0  0  0  0  0  0  0  0  0  0  0
   -0.6455    1.0032   -2.4438 H   0  0  0  0  0  0  0  0  0  0  0  0
    1.1191    0.3943    2.2803 H   0  0  0  0  0  0  0  0  0  0  0  0
    1.1356    2.1359    2.0519 H   0  0  0  0  0  0  0  0  0  0  0  0
    2.6266    1.2609    2.2578 H   0  0  0  0  0  0  0  0  0  0  0  0
    4.3651   -2.1522   -0.7088 H   0  0  0  0  0  0  0  0  0  0  0  0
   -2.0188   -2.2294   -1.4963 H   0  0  0  0  0  0  0  0  0  0  0  0
   -1.6103   -0.7707   -2.3777 H   0  0  0  0  0  0  0  0  0  0  0  0
   -3.2651   -1.0965   -1.9765 H   0  0  0  0  0  0  0  0  0  0  0  0
   -4.9493   -0.5037   -1.0900 H   0  0  0  0  0  0  0  0  0  0  0  0
   -4.4269   -2.4197    0.1024 H   0  0  0  0  0  0  0  0  0  0  0  0
   -4.6910   -1.7069    1.6661 H   0  0  0  0  0  0  0  0  0  0  0  0
    6.1738    1.5807    1.3353 H   0  0  0  0  0  0  0  0  0  0  0  0
    6.8502    1.6499   -0.2687 H   0  0  0  0  0  0  0  0  0  0  0  0
    3.9537    0.7903   -2.2870 H   0  0  0  0  0  0  0  0  0  0  0  0
    5.4960   -0.0211   -2.1095 H   0  0  0  0  0  0  0  0  0  0  0  0
    5.4312    1.7322   -2.1707 H   0  0  0  0  0  0  0  0  0  0  0  0
    6.8648   -0.5097    1.7325 H   0  0  0  0  0  0  0  0  0  0  0  0
    7.9769   -0.2006    0.4202 H   0  0  0  0  0  0  0  0  0  0  0  0
   -6.0770    2.1861   -0.2661 H   0  0  0  0  0  0  0  0  0  0  0  0
   -5.0231    1.8595   -1.6466 H   0  0  0  0  0  0  0  0  0  0  0  0
   -5.4975    1.3726    2.0435 H   0  0  0  0  0  0  0  0  0  0  0  0
   -4.5710    3.0864   -0.4559 H   0  0  0  0  0  0  0  0  0  0  0  0
   -4.1216    2.4446    1.9233 H   0  0  0  0  0  0  0  0  0  0  0  0
   -3.8863    0.7627    2.4069 H   0  0  0  0  0  0  0  0  0  0  0  0
    5.1047   -2.1277    2.2829 H   0  0  0  0  0  0  0  0  0  0  0  0
    5.2004   -3.5250    1.2035 H   0  0  0  0  0  0  0  0  0  0  0  0
    3.6396   -2.8390    1.6204 H   0  0  0  0  0  0  0  0  0  0  0  0
    6.5048   -3.0310   -1.4594 H   0  0  0  0  0  0  0  0  0  0  0  0
    8.0352   -2.0482   -1.0998 H   0  0  0  0  0  0  0  0  0  0  0  0
   -8.5705   -1.3451    1.2991 H   0  0  0  0  0  0  0  0  0  0  0  0
   -8.9016    0.0352    0.1961 H   0  0  0  0  0  0  0  0  0  0  0  0
   -9.2406   -1.6293   -0.3204 H   0  0  0  0  0  0  0  0  0  0  0  0
  1 23  1  0  0  0  0
  1 33  1  0  0  0  0
  2 33  2  0  0  0  0
  3  4  1  0  0  0  0
  3  5  1  0  0  0  0
  3 10  1  0  0  0  0
  3 19  1  0  0  0  0
  4  6  1  0  0  0  0
  4 14  1  0  0  0  0
  4 20  1  0  0  0  0
  5  7  1  0  0  0  0
  5 11  1  0  0  0  0
  5 35  1  0  0  0  0
  6  9  1  0  0  0  0
  6 13  1  0  0  0  0
  6 36  1  0  0  0  0
  7  8  1  0  0  0  0
  7 18  1  0  0  0  0
  7 22  1  0  0  0  0
  8 15  1  0  0  0  0
  8 16  1  0  0  0  0
  8 37  1  0  0  0  0
  9 12  1  0  0  0  0
  9 21  1  0  0  0  0
  9 38  1  0  0  0  0
 10 15  1  0  0  0  0
 10 39  1  0  0  0  0
 10 40  1  0  0  0  0
 11 13  1  0  0  0  0
 11 41  1  0  0  0  0
 11 42  1  0  0  0  0
 12 17  1  0  0  0  0
 12 25  1  0  0  0  0
 12 26  1  0  0  0  0
 13 43  1  0  0  0  0
 13 44  1  0  0  0  0
 14 17  1  0  0  0  0
 14 45  1  0  0  0  0
 14 46  1  0  0  0  0
 15 47  1  0  0  0  0
 15 48  1  0  0  0  0
 16 23  1  0  0  0  0
 16 29  1  0  0  0  0
 16 30  1  0  0  0  0
 17 49  1  0  0  0  0
 17 50  1  0  0  0  0
 18 24  1  0  0  0  0
 18 51  1  0  0  0  0
 18 52  1  0  0  0  0
 19 53  1  0  0  0  0
 19 54  1  0  0  0  0
 19 55  1  0  0  0  0
 20 56  1  0  0  0  0
 20 57  1  0  0  0  0
 20 58  1  0  0  0  0
 21 28  1  0  0  0  0
 21 31  1  0  0  0  0
 21 59  1  0  0  0  0
 22 60  1  0  0  0  0
 22 61  1  0  0  0  0
 22 62  1  0  0  0  0
 23 24  1  0  0  0  0
 23 63  1  0  0  0  0
 24 64  1  0  0  0  0
 24 65  1  0  0  0  0
 25 27  1  0  0  0  0
 25 66  1  0  0  0  0
 25 67  1  0  0  0  0
 26 68  1  0  0  0  0
 26 69  1  0  0  0  0
 26 70  1  0  0  0  0
 27 28  1  0  0  0  0
 27 71  1  0  0  0  0
 27 72  1  0  0  0  0
 28 32  2  0  0  0  0
 29 73  1  0  0  0  0
 29 74  1  0  0  0  0
 29 76  1  0  0  0  0
 30 75  1  0  0  0  0
 30 77  1  0  0  0  0
 30 78  1  0  0  0  0
 31 79  1  0  0  0  0
 31 80  1  0  0  0  0
 31 81  1  0  0  0  0
 32 82  1  0  0  0  0
 32 83  1  0  0  0  0
 33 34  1  0  0  0  0
 34 84  1  0  0  0  0
 34 85  1  0  0  0  0
 34 86  1  0  0  0  0
M  END
> <PUBCHEM_COMPOUND_CID>
99738483

> <PUBCHEM_CONFORMER_RMSD>
0.8

> <PUBCHEM_CONFORMER_DIVERSEORDER>
1
2

> <PUBCHEM_MMFF94_PARTIAL_CHARGES>
11
1 -0.43
2 -0.57
21 0.14
23 0.28
27 0.14
28 -0.28
32 -0.3
33 0.66
34 0.06
82 0.15
83 0.15

> <PUBCHEM_EFFECTIVE_ROTOR_COUNT>
4.6

> <PUBCHEM_PHARMACOPHORE_FEATURES>
7
1 2 acceptor
3 16 29 30 hydrophobe
6 3 4 5 6 11 13 rings
6 3 5 7 8 10 15 rings
6 4 6 9 12 14 17 rings
6 7 8 16 18 23 24 rings
6 9 12 21 25 27 28 rings

> <PUBCHEM_HEAVY_ATOM_COUNT>
34

> <PUBCHEM_ATOM_DEF_STEREO_COUNT>
10

> <PUBCHEM_ATOM_UDEF_STEREO_COUNT>
0

> <PUBCHEM_BOND_DEF_STEREO_COUNT>
0

> <PUBCHEM_BOND_UDEF_STEREO_COUNT>
0

> <PUBCHEM_ISOTOPIC_ATOM_COUNT>
0

> <PUBCHEM_COMPONENT_COUNT>
1

> <PUBCHEM_CACTVS_TAUTO_COUNT>
2

> <PUBCHEM_CONFORMER_ID>
05F1E37300000001

> <PUBCHEM_MMFF94_ENERGY>
165.3975

> <PUBCHEM_FEATURE_SELFOVERLAP>
35.577

> <PUBCHEM_SHAPE_FINGERPRINT>
10 15 16487253296329518688
10299344 5 18342460348429320083
11456790 92 17845949493777241939
11578080 2 16662602147917400799
117089 54 17840878374230908374
12107698 1 18413107273333183609
12166972 35 18334858346668534045
12236239 1 18272090491369894689
12516196 113 18413669114705313105
12788726 201 17917444098991180288
13533116 47 18408602578077670144
13617811 41 15791448223089606390
13685833 64 18408041818663214187
13782708 43 18059855103872467783
13811026 1 18334011692038010651
14068700 675 17917991728954187337
14251764 18 18343585156997725041
14341114 176 18410015420897904216
14790565 3 18409733958690018368
14849402 71 17845933047440721232
14856354 85 14418142802971701249
14955137 171 18114188574259562765
15082195 135 17969232290375657500
15131766 46 15938961057146312190
15183329 4 18187086139615094274
15849732 13 18411417324003730767
16728433 281 16372390491353288757
1813 80 17168145633201494668
18608769 82 18341328998383480787
20028762 73 18343301448770688582
21130935 74 18131070390415127386
21267235 1 18410295809295270739
21279426 13 18336825295212515876
21792934 111 18412254043277386321
23522609 53 18195558975987608328
23559900 14 18409161113005717040
23569917 315 18341338833215796735
23569943 247 17975414616704789066
3004659 81 18261112942357558426
335352 9 18408325506196980918
3383291 50 18411416224350301779
34797466 226 17060625529255911988
350125 39 18336264553278472844
3633792 109 18187357719551436357
4073 2 17895199960225995890
4093350 32 16988563520788188716
4112364 45 15338258186959342184
439807 62 18409730669019246497
4516262 110 18120651594208697260
5080951 261 15841252823601009421
5104073 3 18411983546257988832
54039377 194 18340773642159099022
59755656 215 18040715857507047994
6081469 158 18040429993368679343
6086070 43 17989197132297252401
9996256 80 18413669115011099191

> <PUBCHEM_SHAPE_MULTIPOLES>
687.97
19.82
2.6
1.31
12.03
0.12
0.15
-8.92
0.21
-1.14
-0.12
-0.15
0.06
-0.72

> <PUBCHEM_SHAPE_SELFOVERLAP>
1443.021

> <PUBCHEM_SHAPE_VOLUME>
381.7

> <PUBCHEM_COORDINATE_TYPE>
2
5
10

$$$$
