539247
  -OEChem-08312016063D

 37 38  0     1  0  0  0  0  0999 V2000
    2.0109    0.4182    1.5814 O   0  0  0  0  0  0  0  0  0  0  0  0
    1.2352   -2.5657    0.0602 O   0  0  0  0  0  0  0  0  0  0  0  0
    0.5749   -0.2504   -0.3380 C   0  0  2  0  0  0  0  0  0  0  0  0
    1.8237    0.5697    0.1640 C   0  0  1  0  0  0  0  0  0  0  0  0
   -0.5424    0.7670   -0.0948 C   0  0  0  0  0  0  0  0  0  0  0  0
   -2.0010    0.3479    0.0209 C   0  0  0  0  0  0  0  0  0  0  0  0
    0.3266   -1.5480    0.4716 C   0  0  1  0  0  0  0  0  0  0  0  0
   -2.1100   -0.9987    0.7810 C   0  0  0  0  0  0  0  0  0  0  0  0
   -1.1095   -2.0589    0.3218 C   0  0  0  0  0  0  0  0  0  0  0  0
    1.4537    2.0390   -0.0996 C   0  0  0  0  0  0  0  0  0  0  0  0
   -0.0374    2.0077    0.0147 C   0  0  0  0  0  0  0  0  0  0  0  0
    0.6838   -0.5455   -1.8542 C   0  0  0  0  0  0  0  0  0  0  0  0
    3.1705    0.2096   -0.4580 C   0  0  0  0  0  0  0  0  0  0  0  0
   -2.6402    0.2218   -1.3763 C   0  0  0  0  0  0  0  0  0  0  0  0
   -2.8389    1.3863    0.8054 C   0  0  0  0  0  0  0  0  0  0  0  0
    0.5014   -1.3887    1.5408 H   0  0  0  0  0  0  0  0  0  0  0  0
   -3.1259   -1.4034    0.6870 H   0  0  0  0  0  0  0  0  0  0  0  0
   -1.9502   -0.8269    1.8548 H   0  0  0  0  0  0  0  0  0  0  0  0
   -1.2334   -2.9655    0.9275 H   0  0  0  0  0  0  0  0  0  0  0  0
   -1.3144   -2.3733   -0.7074 H   0  0  0  0  0  0  0  0  0  0  0  0
    1.7371    2.3804   -1.1007 H   0  0  0  0  0  0  0  0  0  0  0  0
    1.8825    2.7105    0.6513 H   0  0  0  0  0  0  0  0  0  0  0  0
   -0.6188    2.9052    0.1685 H   0  0  0  0  0  0  0  0  0  0  0  0
    1.5661   -1.1498   -2.0898 H   0  0  0  0  0  0  0  0  0  0  0  0
   -0.1752   -1.1040   -2.2323 H   0  0  0  0  0  0  0  0  0  0  0  0
    0.7536    0.3760   -2.4439 H   0  0  0  0  0  0  0  0  0  0  0  0
    3.4082   -0.8464   -0.2907 H   0  0  0  0  0  0  0  0  0  0  0  0
    3.2039    0.4115   -1.5328 H   0  0  0  0  0  0  0  0  0  0  0  0
    3.9772    0.7849    0.0119 H   0  0  0  0  0  0  0  0  0  0  0  0
   -2.2247   -0.6026   -1.9594 H   0  0  0  0  0  0  0  0  0  0  0  0
   -3.7183    0.0364   -1.2982 H   0  0  0  0  0  0  0  0  0  0  0  0
   -2.5074    1.1413   -1.9585 H   0  0  0  0  0  0  0  0  0  0  0  0
   -3.8637    1.0281    0.9602 H   0  0  0  0  0  0  0  0  0  0  0  0
   -2.4084    1.5840    1.7942 H   0  0  0  0  0  0  0  0  0  0  0  0
   -2.9092    2.3405    0.2706 H   0  0  0  0  0  0  0  0  0  0  0  0
    1.2103    0.7303    2.0359 H   0  0  0  0  0  0  0  0  0  0  0  0
    0.9319   -2.9239   -0.7908 H   0  0  0  0  0  0  0  0  0  0  0  0
  1  4  1  0  0  0  0
  1 36  1  0  0  0  0
  2  7  1  0  0  0  0
  2 37  1  0  0  0  0
  3  4  1  0  0  0  0
  3  5  1  0  0  0  0
  3  7  1  0  0  0  0
  3 12  1  0  0  0  0
  4 10  1  0  0  0  0
  4 13  1  0  0  0  0
  5  6  1  0  0  0  0
  5 11  2  0  0  0  0
  6  8  1  0  0  0  0
  6 14  1  0  0  0  0
  6 15  1  0  0  0  0
  7  9  1  0  0  0  0
  7 16  1  0  0  0  0
  8  9  1  0  0  0  0
  8 17  1  0  0  0  0
  8 18  1  0  0  0  0
  9 19  1  0  0  0  0
  9 20  1  0  0  0  0
 10 11  1  0  0  0  0
 10 21  1  0  0  0  0
 10 22  1  0  0  0  0
 11 23  1  0  0  0  0
 12 24  1  0  0  0  0
 12 25  1  0  0  0  0
 12 26  1  0  0  0  0
 13 27  1  0  0  0  0
 13 28  1  0  0  0  0
 13 29  1  0  0  0  0
 14 30  1  0  0  0  0
 14 31  1  0  0  0  0
 14 32  1  0  0  0  0
 15 33  1  0  0  0  0
 15 34  1  0  0  0  0
 15 35  1  0  0  0  0
M  END
> <PUBCHEM_COMPOUND_CID>
539247

> <PUBCHEM_CONFORMER_RMSD>
0.6

> <PUBCHEM_CONFORMER_DIVERSEORDER>
2
9
7
6
11
4
10
5
3
8
1

> <PUBCHEM_MMFF94_PARTIAL_CHARGES>
12
1 -0.68
10 0.14
11 -0.29
2 -0.68
23 0.15
3 0.14
36 0.4
37 0.4
4 0.28
5 -0.28
6 0.14
7 0.28

> <PUBCHEM_EFFECTIVE_ROTOR_COUNT>
1.2

> <PUBCHEM_PHARMACOPHORE_FEATURES>
7
1 1 acceptor
1 1 donor
1 2 acceptor
1 2 donor
3 6 14 15 hydrophobe
5 3 4 5 10 11 rings
6 3 5 6 7 8 9 rings

> <PUBCHEM_HEAVY_ATOM_COUNT>
15

> <PUBCHEM_ATOM_DEF_STEREO_COUNT>
0

> <PUBCHEM_ATOM_UDEF_STEREO_COUNT>
3

> <PUBCHEM_BOND_DEF_STEREO_COUNT>
0

> <PUBCHEM_BOND_UDEF_STEREO_COUNT>
0

> <PUBCHEM_ISOTOPIC_ATOM_COUNT>
0

> <PUBCHEM_COMPONENT_COUNT>
1

> <PUBCHEM_CACTVS_TAUTO_COUNT>
1

> <PUBCHEM_CONFORMER_ID>
00083A6F00000002

> <PUBCHEM_MMFF94_ENERGY>
51.5687

> <PUBCHEM_FEATURE_SELFOVERLAP>
35.593

> <PUBCHEM_SHAPE_FINGERPRINT>
10967382 1 18265339412639454489
11680611 10 17825368933063295930
12138202 97 17895461592538064767
12423570 1 15443863692551131254
12524768 44 17986119504545015997
13140716 1 18337111279773077184
13172582 1 18408036329536929824
144361 1 17775004544337733143
14817 1 14781201477569484678
15076042 46 18124034795343493448
15775835 57 17894912966221389057
15852999 172 17968919955958197423
15881359 60 17480558869572774383
16945 1 18409441479600971912
193761 8 17544760027876031056
20511035 2 18129102406055689276
21922407 69 16128658539676456963
22344851 341 17623308069217575776
22802520 49 18056225525451890454
2334 1 18120656000427546840
23419403 2 14934861358841093963
23493267 7 17241051981042790848
23559900 14 18340781390585614556
241688 4 17761208813030296313
25 1 18261661572547409661
2748010 2 18192712469157578548
5084963 1 17986961944925943978
528886 8 18410863139577380872
53812653 166 18340499875883351721
63268167 104 18268424638362585633
68250623 7 17903091258463480628

> <PUBCHEM_SHAPE_MULTIPOLES>
296.95
3.75
2.27
1.23
0.18
0.58
-0.33
-0.84
0.11
-0.05
0.34
0.07
0.06
0.1

> <PUBCHEM_SHAPE_SELFOVERLAP>
620.422

> <PUBCHEM_SHAPE_VOLUME>
170.9

> <PUBCHEM_COORDINATE_TYPE>
2
5
10

$$$$
