5368333
  -OEChem-08312016043D

 54 55  0     0  0  0  0  0  0999 V2000
    0.9483   -0.7869    0.1421 C   0  0  0  0  0  0  0  0  0  0  0  0
    0.9376    0.5687    0.3140 C   0  0  0  0  0  0  0  0  0  0  0  0
   -0.0566   -1.5222   -0.7332 C   0  0  0  0  0  0  0  0  0  0  0  0
   -0.0948    1.4970   -0.3278 C   0  0  0  0  0  0  0  0  0  0  0  0
   -1.2533   -2.0246    0.0801 C   0  0  0  0  0  0  0  0  0  0  0  0
   -1.2037    1.9138    0.6510 C   0  0  0  0  0  0  0  0  0  0  0  0
    1.9186   -1.7445    0.8325 C   0  0  0  0  0  0  0  0  0  0  0  0
    1.9917    1.3456    1.1210 C   0  0  0  0  0  0  0  0  0  0  0  0
   -2.4146   -2.4162   -0.8348 C   0  0  0  0  0  0  0  0  0  0  0  0
   -2.1346    2.9910    0.0805 C   0  0  0  0  0  0  0  0  0  0  0  0
   -3.6913   -2.8231   -0.0871 C   0  0  0  0  0  0  0  0  0  0  0  0
   -3.0732    2.5376   -1.0477 C   0  0  0  0  0  0  0  0  0  0  0  0
    3.3610   -1.6809    0.4101 C   0  0  0  0  0  0  0  0  0  0  0  0
    3.1853    1.6380    0.2464 C   0  0  0  0  0  0  0  0  0  0  0  0
   -4.2112   -1.8183    0.9463 C   0  0  0  0  0  0  0  0  0  0  0  0
   -4.4357    2.0225   -0.5711 C   0  0  0  0  0  0  0  0  0  0  0  0
    5.2892   -0.7148   -0.8287 C   0  0  0  0  0  0  0  0  0  0  0  0
    5.3747    0.8159   -0.5657 C   0  0  0  0  0  0  0  0  0  0  0  0
    3.8589   -1.2098   -0.7473 C   0  0  0  0  0  0  0  0  0  0  0  0
    4.4244    1.2086    0.5420 C   0  0  0  0  0  0  0  0  0  0  0  0
   -4.3378   -0.4580    0.4065 C   0  0  0  0  0  0  0  0  0  0  0  0
   -4.3831    0.6604   -0.0293 C   0  0  0  0  0  0  0  0  0  0  0  0
   -0.3940   -0.8944   -1.5619 H   0  0  0  0  0  0  0  0  0  0  0  0
    0.4351   -2.3703   -1.2282 H   0  0  0  0  0  0  0  0  0  0  0  0
    0.4220    2.3928   -0.6969 H   0  0  0  0  0  0  0  0  0  0  0  0
   -0.5410    1.0553   -1.2198 H   0  0  0  0  0  0  0  0  0  0  0  0
   -0.9581   -2.8868    0.6903 H   0  0  0  0  0  0  0  0  0  0  0  0
   -1.5701   -1.2424    0.7753 H   0  0  0  0  0  0  0  0  0  0  0  0
   -1.7803    1.0412    0.9677 H   0  0  0  0  0  0  0  0  0  0  0  0
   -0.7474    2.3225    1.5611 H   0  0  0  0  0  0  0  0  0  0  0  0
    1.5812   -2.7840    0.7406 H   0  0  0  0  0  0  0  0  0  0  0  0
    1.8723   -1.5327    1.9094 H   0  0  0  0  0  0  0  0  0  0  0  0
    2.2765    0.7794    2.0151 H   0  0  0  0  0  0  0  0  0  0  0  0
    1.5786    2.2923    1.4865 H   0  0  0  0  0  0  0  0  0  0  0  0
   -2.1043   -3.2507   -1.4760 H   0  0  0  0  0  0  0  0  0  0  0  0
   -2.6468   -1.5837   -1.5104 H   0  0  0  0  0  0  0  0  0  0  0  0
   -1.5110    3.8108   -0.2991 H   0  0  0  0  0  0  0  0  0  0  0  0
   -2.7263    3.4185    0.8992 H   0  0  0  0  0  0  0  0  0  0  0  0
   -3.5197   -3.7817    0.4181 H   0  0  0  0  0  0  0  0  0  0  0  0
   -4.4752   -3.0046   -0.8340 H   0  0  0  0  0  0  0  0  0  0  0  0
   -2.5892    1.8060   -1.7033 H   0  0  0  0  0  0  0  0  0  0  0  0
   -3.2722    3.4210   -1.6691 H   0  0  0  0  0  0  0  0  0  0  0  0
    4.0623   -1.8981    1.2155 H   0  0  0  0  0  0  0  0  0  0  0  0
    2.9704    1.9669   -0.7689 H   0  0  0  0  0  0  0  0  0  0  0  0
   -3.5487   -1.8072    1.8194 H   0  0  0  0  0  0  0  0  0  0  0  0
   -5.1877   -2.1599    1.3096 H   0  0  0  0  0  0  0  0  0  0  0  0
   -5.1226    2.0252   -1.4264 H   0  0  0  0  0  0  0  0  0  0  0  0
   -4.8622    2.7078    0.1701 H   0  0  0  0  0  0  0  0  0  0  0  0
    5.9137   -1.2384   -0.0934 H   0  0  0  0  0  0  0  0  0  0  0  0
    5.7065   -0.9490   -1.8143 H   0  0  0  0  0  0  0  0  0  0  0  0
    5.1324    1.3535   -1.4912 H   0  0  0  0  0  0  0  0  0  0  0  0
    6.3991    1.0952   -0.2966 H   0  0  0  0  0  0  0  0  0  0  0  0
    3.1989   -0.9468   -1.5690 H   0  0  0  0  0  0  0  0  0  0  0  0
    4.6460    0.8250    1.5349 H   0  0  0  0  0  0  0  0  0  0  0  0
  1  2  2  0  0  0  0
  1  3  1  0  0  0  0
  1  7  1  0  0  0  0
  2  4  1  0  0  0  0
  2  8  1  0  0  0  0
  3  5  1  0  0  0  0
  3 23  1  0  0  0  0
  3 24  1  0  0  0  0
  4  6  1  0  0  0  0
  4 25  1  0  0  0  0
  4 26  1  0  0  0  0
  5  9  1  0  0  0  0
  5 27  1  0  0  0  0
  5 28  1  0  0  0  0
  6 10  1  0  0  0  0
  6 29  1  0  0  0  0
  6 30  1  0  0  0  0
  7 13  1  0  0  0  0
  7 31  1  0  0  0  0
  7 32  1  0  0  0  0
  8 14  1  0  0  0  0
  8 33  1  0  0  0  0
  8 34  1  0  0  0  0
  9 11  1  0  0  0  0
  9 35  1  0  0  0  0
  9 36  1  0  0  0  0
 10 12  1  0  0  0  0
 10 37  1  0  0  0  0
 10 38  1  0  0  0  0
 11 15  1  0  0  0  0
 11 39  1  0  0  0  0
 11 40  1  0  0  0  0
 12 16  1  0  0  0  0
 12 41  1  0  0  0  0
 12 42  1  0  0  0  0
 13 19  2  0  0  0  0
 13 43  1  0  0  0  0
 14 20  2  3  0  0  0
 14 44  1  0  0  0  0
 15 21  1  0  0  0  0
 15 45  1  0  0  0  0
 15 46  1  0  0  0  0
 16 22  1  0  0  0  0
 16 47  1  0  0  0  0
 16 48  1  0  0  0  0
 17 18  1  0  0  0  0
 17 19  1  0  0  0  0
 17 49  1  0  0  0  0
 17 50  1  0  0  0  0
 18 20  1  0  0  0  0
 18 51  1  0  0  0  0
 18 52  1  0  0  0  0
 19 53  1  0  0  0  0
 20 54  1  0  0  0  0
 21 22  3  0  0  0  0
M  END
> <PUBCHEM_COMPOUND_CID>
5368333

> <PUBCHEM_CONFORMER_RMSD>
0.6

> <PUBCHEM_CONFORMER_DIVERSEORDER>
1

> <PUBCHEM_MMFF94_PARTIAL_CHARGES>
20
1 -0.28
13 -0.29
14 -0.29
15 0.2
16 0.2
17 0.14
18 0.14
19 -0.29
2 -0.28
20 -0.29
21 -0.2
22 -0.2
3 0.14
4 0.14
43 0.15
44 0.15
53 0.15
54 0.15
7 0.28
8 0.28

> <PUBCHEM_EFFECTIVE_ROTOR_COUNT>
2.8

> <PUBCHEM_PHARMACOPHORE_FEATURES>
0

> <PUBCHEM_HEAVY_ATOM_COUNT>
22

> <PUBCHEM_ATOM_DEF_STEREO_COUNT>
0

> <PUBCHEM_ATOM_UDEF_STEREO_COUNT>
0

> <PUBCHEM_BOND_DEF_STEREO_COUNT>
3

> <PUBCHEM_BOND_UDEF_STEREO_COUNT>
0

> <PUBCHEM_ISOTOPIC_ATOM_COUNT>
0

> <PUBCHEM_COMPONENT_COUNT>
1

> <PUBCHEM_CACTVS_TAUTO_COUNT>
1

> <PUBCHEM_CONFORMER_ID>
0051EA0D00000001

> <PUBCHEM_MMFF94_ENERGY>
41.7209

> <PUBCHEM_FEATURE_SELFOVERLAP>
0

> <PUBCHEM_SHAPE_FINGERPRINT>
10759866 29 18115587032753826370
1100329 8 17832139425146731810
11014199 57 17762336216503460983
11552529 35 17845933065073575051
11595378 159 17676476242226098105
11756154 67 17544754526794091362
12467345 10 18333737918106408524
12954195 1 18201173057100048124
13402501 40 18412825777187630561
13757389 114 15820437229846645896
14251751 93 18409165497876766473
14251757 17 18200318718958077190
14251757 5 18410298024976636719
14363568 33 17760946421089264425
14617045 38 18408889512543486969
14790565 3 18337114557138805910
15196674 1 18411699898154400195
15256400 18 18411139151397700597
1601671 61 18272374195904403086
19591789 44 18411981390194753624
21279426 13 18412829053899725982
221357 26 18342171232605939807
23557571 272 18340212976632192598
23559900 14 18413385428073866992
23566358 2 18343588425910890710
3052486 1 18259985985414130908
338550 245 18261680349975700692
350125 39 18411984697968729824
4098825 35 18335146406299023692
469060 322 16805602581663619151
5047190 48 17260173922906809408
59755656 215 18411420579193250029
6437827 68 18339923697615495806
7237137 82 18408611374133918876

> <PUBCHEM_SHAPE_MULTIPOLES>
452.75
11.26
3.57
1
4.53
0.19
0
0.08
-1.22
-3.66
-0.23
0.09
0
0.91

> <PUBCHEM_SHAPE_SELFOVERLAP>
892.663

> <PUBCHEM_SHAPE_VOLUME>
260.5

> <PUBCHEM_COORDINATE_TYPE>
2
5
10

$$$$
