561870
  -OEChem-08312015353D

 27 28  0     1  0  0  0  0  0999 V2000
    2.7204    0.7740   -0.0707 O   0  0  0  0  0  0  0  0  0  0  0  0
   -0.6995    0.4662   -0.0126 C   0  0  1  0  0  0  0  0  0  0  0  0
    0.5083    0.2872   -0.9158 C   0  0  1  0  0  0  0  0  0  0  0  0
   -0.1370    1.6412   -0.7590 C   0  0  0  0  0  0  0  0  0  0  0  0
    1.6622   -0.1767   -0.0313 C   0  0  2  0  0  0  0  0  0  0  0  0
   -2.0026   -0.1026   -0.4451 C   0  0  0  0  0  0  0  0  0  0  0  0
   -0.2098    0.1368    1.3341 C   0  0  0  0  0  0  0  0  0  0  0  0
    1.0848   -0.2202    1.3685 C   0  0  0  0  0  0  0  0  0  0  0  0
    2.1919   -1.5436   -0.4525 C   0  0  0  0  0  0  0  0  0  0  0  0
   -1.9669   -1.6370   -0.4693 C   0  0  0  0  0  0  0  0  0  0  0  0
   -3.1518    0.3747    0.4538 C   0  0  0  0  0  0  0  0  0  0  0  0
    0.4197   -0.2110   -1.8705 H   0  0  0  0  0  0  0  0  0  0  0  0
   -0.6862    2.0334   -1.6078 H   0  0  0  0  0  0  0  0  0  0  0  0
    0.3916    2.4082   -0.2042 H   0  0  0  0  0  0  0  0  0  0  0  0
   -2.2310    0.2307   -1.4664 H   0  0  0  0  0  0  0  0  0  0  0  0
   -0.8275    0.1973    2.2198 H   0  0  0  0  0  0  0  0  0  0  0  0
    1.6346   -0.4845    2.2594 H   0  0  0  0  0  0  0  0  0  0  0  0
    3.0169   -1.8624    0.1949 H   0  0  0  0  0  0  0  0  0  0  0  0
    1.4110   -2.3115   -0.4255 H   0  0  0  0  0  0  0  0  0  0  0  0
    2.5908   -1.5062   -1.4730 H   0  0  0  0  0  0  0  0  0  0  0  0
   -1.7859   -2.0577    0.5257 H   0  0  0  0  0  0  0  0  0  0  0  0
   -2.9207   -2.0367   -0.8308 H   0  0  0  0  0  0  0  0  0  0  0  0
   -1.1805   -2.0058   -1.1358 H   0  0  0  0  0  0  0  0  0  0  0  0
   -3.0673   -0.0152    1.4735 H   0  0  0  0  0  0  0  0  0  0  0  0
   -4.1152    0.0427    0.0521 H   0  0  0  0  0  0  0  0  0  0  0  0
   -3.1704    1.4684    0.5121 H   0  0  0  0  0  0  0  0  0  0  0  0
    3.0457    0.8185   -0.9862 H   0  0  0  0  0  0  0  0  0  0  0  0
  1  5  1  0  0  0  0
  1 27  1  0  0  0  0
  2  3  1  0  0  0  0
  2  4  1  0  0  0  0
  2  6  1  0  0  0  0
  2  7  1  0  0  0  0
  3  4  1  0  0  0  0
  3  5  1  0  0  0  0
  3 12  1  0  0  0  0
  4 13  1  0  0  0  0
  4 14  1  0  0  0  0
  5  8  1  0  0  0  0
  5  9  1  0  0  0  0
  6 10  1  0  0  0  0
  6 11  1  0  0  0  0
  6 15  1  0  0  0  0
  7  8  2  0  0  0  0
  7 16  1  0  0  0  0
  8 17  1  0  0  0  0
  9 18  1  0  0  0  0
  9 19  1  0  0  0  0
  9 20  1  0  0  0  0
 10 21  1  0  0  0  0
 10 22  1  0  0  0  0
 10 23  1  0  0  0  0
 11 24  1  0  0  0  0
 11 25  1  0  0  0  0
 11 26  1  0  0  0  0
M  END
> <PUBCHEM_COMPOUND_CID>
561870

> <PUBCHEM_CONFORMER_RMSD>
0.4

> <PUBCHEM_CONFORMER_DIVERSEORDER>
2
7
11
9
8
5
12
6
3
4
10
1

> <PUBCHEM_MMFF94_PARTIAL_CHARGES>
14
1 -0.68
12 0.1
13 0.1
14 0.1
16 0.15
17 0.15
2 -0.05
27 0.4
3 -0.19
4 -0.2
5 0.51
6 0.09
7 -0.19
8 -0.29

> <PUBCHEM_EFFECTIVE_ROTOR_COUNT>
1.4

> <PUBCHEM_PHARMACOPHORE_FEATURES>
4
1 1 acceptor
1 1 donor
3 6 10 11 hydrophobe
6 2 3 4 5 7 8 rings

> <PUBCHEM_HEAVY_ATOM_COUNT>
11

> <PUBCHEM_ATOM_DEF_STEREO_COUNT>
0

> <PUBCHEM_ATOM_UDEF_STEREO_COUNT>
3

> <PUBCHEM_BOND_DEF_STEREO_COUNT>
0

> <PUBCHEM_BOND_UDEF_STEREO_COUNT>
0

> <PUBCHEM_ISOTOPIC_ATOM_COUNT>
0

> <PUBCHEM_COMPONENT_COUNT>
1

> <PUBCHEM_CACTVS_TAUTO_COUNT>
1

> <PUBCHEM_CONFORMER_ID>
000892CE00000002

> <PUBCHEM_MMFF94_ENERGY>
30.6415

> <PUBCHEM_FEATURE_SELFOVERLAP>
20.297

> <PUBCHEM_SHAPE_FINGERPRINT>
10353120 184 17386295293992472717
12423570 1 13757490194339435432
12897270 3 18409166619163826790
13024252 1 16155428276247618518
14128692 85 18197499747153592895
16945 1 18272082811947302840
207724 885 18410018715095433741
23552423 10 18407759222510336646
29004967 10 18334017211023402552
369184 2 16199572589818133254
5084963 1 18058161726583637998
528886 8 18408884057259709695

> <PUBCHEM_SHAPE_MULTIPOLES>
220.51
3.65
1.42
1.16
0.89
0.27
0.33
0.61
-0.02
-0.03
-0.41
-0.11
-0.05
-0.08

> <PUBCHEM_SHAPE_SELFOVERLAP>
459.138

> <PUBCHEM_SHAPE_VOLUME>
130.5

> <PUBCHEM_COORDINATE_TYPE>
2
5
10

$$$$
