535386
  -OEChem-08312016053D

 41 42  0     1  0  0  0  0  0999 V2000
    4.0266   -0.4066    0.7718 O   0  0  0  0  0  0  0  0  0  0  0  0
   -4.3202    0.3610   -1.5360 O   0  0  0  0  0  0  0  0  0  0  0  0
    1.1171   -1.0085   -0.1183 C   0  0  1  0  0  0  0  0  0  0  0  0
    0.7229    0.4365    0.2305 C   0  0  0  0  0  0  0  0  0  0  0  0
    0.0009   -1.6394   -1.0022 C   0  0  0  0  0  0  0  0  0  0  0  0
    2.4368   -1.0847   -0.9405 C   0  0  0  0  0  0  0  0  0  0  0  0
   -1.7327   -0.0319   -0.1050 C   0  0  1  0  0  0  0  0  0  0  0  0
   -0.6698    0.5638    0.8282 C   0  0  0  0  0  0  0  0  0  0  0  0
   -1.4136   -1.4934   -0.4363 C   0  0  0  0  0  0  0  0  0  0  0  0
    3.4997   -0.0824   -0.5096 C   0  0  1  0  0  0  0  0  0  0  0  0
    1.5427    1.4922    0.0091 C   0  0  0  0  0  0  0  0  0  0  0  0
    2.9517    1.3411   -0.5299 C   0  0  0  0  0  0  0  0  0  0  0  0
    1.2758   -1.8460    1.1740 C   0  0  0  0  0  0  0  0  0  0  0  0
   -3.1001    0.0767    0.4982 C   0  0  0  0  0  0  0  0  0  0  0  0
    1.1727    2.9343    0.2523 C   0  0  0  0  0  0  0  0  0  0  0  0
   -4.1042    0.9124   -0.2440 C   0  0  0  0  0  0  0  0  0  0  0  0
   -3.4062   -0.5251    1.6576 C   0  0  0  0  0  0  0  0  0  0  0  0
    0.2110   -2.7037   -1.1697 H   0  0  0  0  0  0  0  0  0  0  0  0
    0.0077   -1.1665   -1.9944 H   0  0  0  0  0  0  0  0  0  0  0  0
    2.2211   -0.8908   -2.0004 H   0  0  0  0  0  0  0  0  0  0  0  0
    2.8440   -2.1030   -0.8934 H   0  0  0  0  0  0  0  0  0  0  0  0
   -1.7057    0.5381   -1.0447 H   0  0  0  0  0  0  0  0  0  0  0  0
   -0.6667    0.0586    1.8020 H   0  0  0  0  0  0  0  0  0  0  0  0
   -0.9362    1.5991    1.0573 H   0  0  0  0  0  0  0  0  0  0  0  0
   -2.1303   -1.8735   -1.1760 H   0  0  0  0  0  0  0  0  0  0  0  0
   -1.5130   -2.1409    0.4425 H   0  0  0  0  0  0  0  0  0  0  0  0
    4.3458   -0.1352   -1.2053 H   0  0  0  0  0  0  0  0  0  0  0  0
    2.9509    1.7086   -1.5642 H   0  0  0  0  0  0  0  0  0  0  0  0
    3.6247    1.9844    0.0509 H   0  0  0  0  0  0  0  0  0  0  0  0
    1.9902   -1.3897    1.8664 H   0  0  0  0  0  0  0  0  0  0  0  0
    0.3365   -1.9584    1.7238 H   0  0  0  0  0  0  0  0  0  0  0  0
    1.6312   -2.8575    0.9459 H   0  0  0  0  0  0  0  0  0  0  0  0
    0.0977    3.1221    0.2241 H   0  0  0  0  0  0  0  0  0  0  0  0
    1.6035    3.5726   -0.5278 H   0  0  0  0  0  0  0  0  0  0  0  0
    1.5662    3.2661    1.2182 H   0  0  0  0  0  0  0  0  0  0  0  0
    4.3693   -1.3155    0.7271 H   0  0  0  0  0  0  0  0  0  0  0  0
   -5.0674    0.9528    0.2754 H   0  0  0  0  0  0  0  0  0  0  0  0
   -3.7324    1.9365   -0.3552 H   0  0  0  0  0  0  0  0  0  0  0  0
   -4.3972   -0.4331    2.0907 H   0  0  0  0  0  0  0  0  0  0  0  0
   -2.6882   -1.1221    2.2088 H   0  0  0  0  0  0  0  0  0  0  0  0
   -4.9568    0.9388   -1.9902 H   0  0  0  0  0  0  0  0  0  0  0  0
  1 10  1  0  0  0  0
  1 36  1  0  0  0  0
  2 16  1  0  0  0  0
  2 41  1  0  0  0  0
  3  4  1  0  0  0  0
  3  5  1  0  0  0  0
  3  6  1  0  0  0  0
  3 13  1  0  0  0  0
  4  8  1  0  0  0  0
  4 11  2  0  0  0  0
  5  9  1  0  0  0  0
  5 18  1  0  0  0  0
  5 19  1  0  0  0  0
  6 10  1  0  0  0  0
  6 20  1  0  0  0  0
  6 21  1  0  0  0  0
  7  8  1  0  0  0  0
  7  9  1  0  0  0  0
  7 14  1  0  0  0  0
  7 22  1  0  0  0  0
  8 23  1  0  0  0  0
  8 24  1  0  0  0  0
  9 25  1  0  0  0  0
  9 26  1  0  0  0  0
 10 12  1  0  0  0  0
 10 27  1  0  0  0  0
 11 12  1  0  0  0  0
 11 15  1  0  0  0  0
 12 28  1  0  0  0  0
 12 29  1  0  0  0  0
 13 30  1  0  0  0  0
 13 31  1  0  0  0  0
 13 32  1  0  0  0  0
 14 16  1  0  0  0  0
 14 17  2  0  0  0  0
 15 33  1  0  0  0  0
 15 34  1  0  0  0  0
 15 35  1  0  0  0  0
 16 37  1  0  0  0  0
 16 38  1  0  0  0  0
 17 39  1  0  0  0  0
 17 40  1  0  0  0  0
M  END
> <PUBCHEM_COMPOUND_CID>
535386

> <PUBCHEM_CONFORMER_RMSD>
0.6

> <PUBCHEM_CONFORMER_DIVERSEORDER>
2
91
23
90
86
81
18
52
83
92
19
69
48
82
39
53
12
46
33
7
67
89
72
54
65
62
74
57
41
73
76
45
28
71
37
93
63
13
44
26
68
61
88
58
27
64
84
32
87
85
31
78
60
51
79
55
42
16
36
14
47
70
38
40
50
29
59
49
22
56
30
20
15
25
17
35
10
11
9
77
3
80
4
21
24
75
8
34
6
5
43
66
1

> <PUBCHEM_MMFF94_PARTIAL_CHARGES>
17
1 -0.68
10 0.28
11 -0.28
12 0.14
14 -0.28
15 0.14
16 0.42
17 -0.3
2 -0.68
3 0.14
36 0.4
39 0.15
4 -0.28
40 0.15
41 0.4
7 0.14
8 0.14

> <PUBCHEM_EFFECTIVE_ROTOR_COUNT>
3.4

> <PUBCHEM_PHARMACOPHORE_FEATURES>
7
1 1 acceptor
1 1 donor
1 17 hydrophobe
1 2 acceptor
1 2 donor
6 3 4 5 7 8 9 rings
6 3 4 6 10 11 12 rings

> <PUBCHEM_HEAVY_ATOM_COUNT>
17

> <PUBCHEM_ATOM_DEF_STEREO_COUNT>
0

> <PUBCHEM_ATOM_UDEF_STEREO_COUNT>
3

> <PUBCHEM_BOND_DEF_STEREO_COUNT>
0

> <PUBCHEM_BOND_UDEF_STEREO_COUNT>
0

> <PUBCHEM_ISOTOPIC_ATOM_COUNT>
0

> <PUBCHEM_COMPONENT_COUNT>
1

> <PUBCHEM_CACTVS_TAUTO_COUNT>
1

> <PUBCHEM_CONFORMER_ID>
00082B5A00000002

> <PUBCHEM_MMFF94_ENERGY>
35.7493

> <PUBCHEM_FEATURE_SELFOVERLAP>
35.541

> <PUBCHEM_SHAPE_FINGERPRINT>
10366900 7 17822585996409250619
104564 63 18197225741220416488
10967382 1 18342183254060684508
10980938 120 18412268319801178558
11132069 177 18272368676712879858
11471102 20 18411982459652276828
11543360 7 14476959008087464826
11578080 2 17201334292458814033
116883 192 17622165663646030173
124424 183 18186236212652403945
12500047 106 17385722483168874547
12654215 9 18335420140753065084
13134695 92 18409725128031666076
13140716 1 18199190770246118858
13221675 6 18413395327730455747
13583140 156 18040433317446831371
13922767 16 18410291415116536952
14251717 144 18343581828482499405
14289901 80 16951140593514714707
14993402 34 18273217477998356870
15219456 202 18187653522085476241
15309172 13 18202010914835364907
15653759 3 17822019726387931001
15775835 57 18337399351993387236
16945 1 18272381879368390854
18175812 5 17968100841148703325
18186145 218 18129112267073701988
18219364 16 18409174328756684499
19784866 9 17822287933978620914
200 152 17917706899285991877
20233049 118 18334295340437056092
20606313 2 18412830178985920068
20645477 70 18411421687437289151
21501502 16 18125163993996274334
21524375 3 17979920736859932032
21639500 275 18271525394286454565
22094290 62 18341335599257389928
22854114 111 18335425702603798953
22892500 29 18260537918676152901
231179 274 18333447638356946591
2334 1 17910675697897648200
23402539 116 17988358174627729644
23402655 69 18130504133363216557
23419403 2 15448706388357353524
23557571 272 17313108558012012317
23558518 356 17903634434044449762
23559900 14 17604433990233799514
25 1 18335145305811468774
2748010 2 17982738763760827960
3060560 45 18273210872375624775
3286 77 17676769880634795154
34934 24 18413383237803621454
4072396 5 18264474123048355674
528886 8 18130792265264825286
5939293 188 18413107290344754408
63268167 104 18340779224956830264
74978 22 18271241733018058693
77492 1 17346889926950666369
7832392 63 18272653493105490814
81228 2 17402616242642046105
9981440 41 17262139837107406640

> <PUBCHEM_SHAPE_MULTIPOLES>
338.11
6.85
2.13
1.21
4
0.9
-0.09
0.97
0.58
-1.19
-0.04
0.71
-0.31
0.14

> <PUBCHEM_SHAPE_SELFOVERLAP>
693.336

> <PUBCHEM_SHAPE_VOLUME>
194.1

> <PUBCHEM_COORDINATE_TYPE>
2
5
10

$$$$
