637413
  -OEChem-09172012123D

 29 31  0     0  0  0  0  0  0999 V2000
    4.4645   -0.1089    0.2544 O   0  0  0  0  0  0  0  0  0  0  0  0
    0.5227   -2.6503    0.0946 O   0  0  0  0  0  0  0  0  0  0  0  0
    2.9058    2.1220    0.0931 O   0  0  0  0  0  0  0  0  0  0  0  0
   -5.4803   -0.0984   -0.1199 O   0  0  0  0  0  0  0  0  0  0  0  0
    0.1710   -0.2754    0.0650 C   0  0  0  0  0  0  0  0  0  0  0  0
   -1.2675   -0.3022    0.0209 C   0  0  0  0  0  0  0  0  0  0  0  0
    0.8514    0.9557    0.0574 C   0  0  0  0  0  0  0  0  0  0  0  0
   -1.9561    0.9417   -0.0377 C   0  0  0  0  0  0  0  0  0  0  0  0
    0.1424    2.1565    0.0004 C   0  0  0  0  0  0  0  0  0  0  0  0
   -1.2451    2.1451   -0.0480 C   0  0  0  0  0  0  0  0  0  0  0  0
    0.9960   -1.5215    0.1153 C   0  0  0  0  0  0  0  0  0  0  0  0
    2.3269    1.0413    0.1106 C   0  0  0  0  0  0  0  0  0  0  0  0
   -2.0914   -1.4615    0.0323 C   0  0  0  0  0  0  0  0  0  0  0  0
   -3.3600    0.9927   -0.0851 C   0  0  0  0  0  0  0  0  0  0  0  0
    3.0911   -0.2178    0.1879 C   0  0  0  0  0  0  0  0  0  0  0  0
    2.4663   -1.3933    0.1902 C   0  0  0  0  0  0  0  0  0  0  0  0
   -3.4883   -1.3963   -0.0145 C   0  0  0  0  0  0  0  0  0  0  0  0
   -4.1234   -0.1684   -0.0741 C   0  0  0  0  0  0  0  0  0  0  0  0
    5.0739   -0.7611   -0.8428 C   0  0  0  0  0  0  0  0  0  0  0  0
    0.6504    3.1174   -0.0072 H   0  0  0  0  0  0  0  0  0  0  0  0
   -1.7676    3.0993   -0.0923 H   0  0  0  0  0  0  0  0  0  0  0  0
   -1.6743   -2.4608    0.0813 H   0  0  0  0  0  0  0  0  0  0  0  0
   -3.8723    1.9531   -0.1305 H   0  0  0  0  0  0  0  0  0  0  0  0
    3.0194   -2.3248    0.2601 H   0  0  0  0  0  0  0  0  0  0  0  0
   -4.0618   -2.3196   -0.0026 H   0  0  0  0  0  0  0  0  0  0  0  0
   -5.8436   -1.0005   -0.1036 H   0  0  0  0  0  0  0  0  0  0  0  0
    4.6211   -0.4664   -1.7969 H   0  0  0  0  0  0  0  0  0  0  0  0
    6.1258   -0.4595   -0.8699 H   0  0  0  0  0  0  0  0  0  0  0  0
    5.0504   -1.8498   -0.7277 H   0  0  0  0  0  0  0  0  0  0  0  0
  1 15  1  0  0  0  0
  1 19  1  0  0  0  0
  2 11  2  0  0  0  0
  3 12  2  0  0  0  0
  4 18  1  0  0  0  0
  4 26  1  0  0  0  0
  5  6  1  0  0  0  0
  5  7  2  0  0  0  0
  5 11  1  0  0  0  0
  6  8  2  0  0  0  0
  6 13  1  0  0  0  0
  7  9  1  0  0  0  0
  7 12  1  0  0  0  0
  8 10  1  0  0  0  0
  8 14  1  0  0  0  0
  9 10  2  0  0  0  0
  9 20  1  0  0  0  0
 10 21  1  0  0  0  0
 11 16  1  0  0  0  0
 12 15  1  0  0  0  0
 13 17  2  0  0  0  0
 13 22  1  0  0  0  0
 14 18  2  0  0  0  0
 14 23  1  0  0  0  0
 15 16  2  0  0  0  0
 16 24  1  0  0  0  0
 17 18  1  0  0  0  0
 17 25  1  0  0  0  0
 19 27  1  0  0  0  0
 19 28  1  0  0  0  0
 19 29  1  0  0  0  0
M  END
> <PUBCHEM_COMPOUND_CID>
637413

> <PUBCHEM_CONFORMER_RMSD>
0.6

> <PUBCHEM_CONFORMER_DIVERSEORDER>
1

> <PUBCHEM_MMFF94_PARTIAL_CHARGES>
24
1 -0.36
10 -0.15
11 0.47
12 0.47
13 -0.15
14 -0.15
15 0.09
16 -0.14
17 -0.15
18 0.08
19 0.28
2 -0.57
20 0.15
21 0.15
22 0.15
23 0.15
24 0.15
25 0.15
26 0.45
3 -0.57
4 -0.53
5 0.09
7 0.09
9 -0.15

> <PUBCHEM_EFFECTIVE_ROTOR_COUNT>
1

> <PUBCHEM_PHARMACOPHORE_FEATURES>
7
1 1 acceptor
1 2 acceptor
1 3 acceptor
1 4 donor
6 5 6 7 8 9 10 rings
6 5 7 11 12 15 16 rings
6 6 8 13 14 17 18 rings

> <PUBCHEM_HEAVY_ATOM_COUNT>
19

> <PUBCHEM_ATOM_DEF_STEREO_COUNT>
0

> <PUBCHEM_ATOM_UDEF_STEREO_COUNT>
0

> <PUBCHEM_BOND_DEF_STEREO_COUNT>
0

> <PUBCHEM_BOND_UDEF_STEREO_COUNT>
0

> <PUBCHEM_ISOTOPIC_ATOM_COUNT>
0

> <PUBCHEM_COMPONENT_COUNT>
1

> <PUBCHEM_CACTVS_TAUTO_COUNT>
7

> <PUBCHEM_CONFORMER_ID>
0009B9E500000001

> <PUBCHEM_MMFF94_ENERGY>
67.086

> <PUBCHEM_FEATURE_SELFOVERLAP>
35.57

> <PUBCHEM_SHAPE_FINGERPRINT>
10411042 1 15743880443338778546
10616163 171 18411700967648749103
10967382 1 18410291423722172419
11132069 177 18411973689249833272
11458722 379 18409452466385803942
11471102 20 18410287043108790085
11578080 2 16880467065446685990
11806522 49 18410012117630047772
12011746 2 18410293592538323311
12032990 46 18411140259409611545
12236239 1 17703791427265364755
12553582 1 18338505383439462659
13140716 1 18338230582541211051
13221675 6 18411135814155493878
13288520 33 18341335513584592198
13862211 1 18410568483314584986
14115302 16 18041007270721219727
14178342 30 18123457294536986232
14790565 3 18410583897936652412
15196674 1 18338516455817646483
15536298 74 18342737459540085296
15848702 151 17703519796047988678
16945 1 18266455408388811184
17804303 29 18412827988383858856
18186145 218 18114735022926949012
19141452 34 17917429856336067247
19591789 44 18339079401244459630
200 152 18131347510194376729
20028762 73 18130222795594111271
20645477 70 18341893017218931903
21267235 1 18411145735904545971
21421861 104 17825385172303240795
21501502 16 18120935005882198706
221490 88 18263932205275619042
2334 1 18266176308492001024
23402539 116 18342449365686546798
23463225 33 18408601465607423745
23557571 272 18201164247700020676
23559900 14 18341611577103509064
2748010 2 18337667628340476680
2871803 45 18408600344599730620
3286 77 17418372519240993720
335352 9 18410855451918055245
34934 24 18337665322438891423
350125 39 18409732841645496228
43471831 8 18263077730544397450
5104073 3 18338797922341541089
59755656 215 18337955593049916143
7364860 26 18341892991338247571
8809292 202 18260269689362934163
9709674 26 18411422774027351463

> <PUBCHEM_SHAPE_MULTIPOLES>
367.53
8.57
2.31
0.65
0.06
0.22
0.03
-1.52
1.02
-0.23
-0.06
-0.2
-0.03
0.16

> <PUBCHEM_SHAPE_SELFOVERLAP>
824.695

> <PUBCHEM_SHAPE_VOLUME>
193.6

> <PUBCHEM_COORDINATE_TYPE>
2
5
10

$$$$
