10038025
  -OEChem-09172011143D

 31 33  0     0  0  0  0  0  0999 V2000
   -4.4721    0.2551    0.1381 O   0  0  0  0  0  0  0  0  0  0  0  0
   -2.9596   -2.0078   -0.0448 O   0  0  0  0  0  0  0  0  0  0  0  0
   -0.4307    2.6082    0.6636 O   0  0  0  0  0  0  0  0  0  0  0  0
    5.4587    0.1049   -0.2895 O   0  0  0  0  0  0  0  0  0  0  0  0
   -0.1465   -2.2012   -0.1377 C   0  0  0  0  0  0  0  0  0  0  0  0
    1.2123   -2.1872    0.5631 C   0  0  0  0  0  0  0  0  0  0  0  0
   -0.8654   -0.8803    0.0066 C   0  0  0  0  0  0  0  0  0  0  0  0
    1.9813   -0.9428    0.2091 C   0  0  0  0  0  0  0  0  0  0  0  0
   -0.1988    0.2877    0.1124 C   0  0  0  0  0  0  0  0  0  0  0  0
    1.2869    0.2656   -0.0157 C   0  0  0  0  0  0  0  0  0  0  0  0
   -2.3546   -0.9431    0.0443 C   0  0  0  0  0  0  0  0  0  0  0  0
   -0.9679    1.5427    0.3767 C   0  0  0  0  0  0  0  0  0  0  0  0
    3.3811   -0.9871    0.1332 C   0  0  0  0  0  0  0  0  0  0  0  0
    2.0339    1.3952   -0.3839 C   0  0  0  0  0  0  0  0  0  0  0  0
   -3.0955    0.3284    0.1710 C   0  0  0  0  0  0  0  0  0  0  0  0
   -2.4414    1.4809    0.3219 C   0  0  0  0  0  0  0  0  0  0  0  0
    4.1016    0.1533   -0.2072 C   0  0  0  0  0  0  0  0  0  0  0  0
    3.4280    1.3400   -0.4747 C   0  0  0  0  0  0  0  0  0  0  0  0
   -4.9511    0.3874   -1.1864 C   0  0  0  0  0  0  0  0  0  0  0  0
   -0.0214   -2.4142   -1.2071 H   0  0  0  0  0  0  0  0  0  0  0  0
   -0.7319   -3.0243    0.2877 H   0  0  0  0  0  0  0  0  0  0  0  0
    1.0801   -2.2178    1.6519 H   0  0  0  0  0  0  0  0  0  0  0  0
    1.7704   -3.0850    0.2721 H   0  0  0  0  0  0  0  0  0  0  0  0
    3.9083   -1.9173    0.3313 H   0  0  0  0  0  0  0  0  0  0  0  0
    1.5552    2.3391   -0.6275 H   0  0  0  0  0  0  0  0  0  0  0  0
   -2.9803    2.4162    0.4344 H   0  0  0  0  0  0  0  0  0  0  0  0
    3.9747    2.2355   -0.7590 H   0  0  0  0  0  0  0  0  0  0  0  0
    5.7911    0.9843   -0.5389 H   0  0  0  0  0  0  0  0  0  0  0  0
   -4.6981    1.3682   -1.6042 H   0  0  0  0  0  0  0  0  0  0  0  0
   -4.5645   -0.4075   -1.8338 H   0  0  0  0  0  0  0  0  0  0  0  0
   -6.0417    0.3027   -1.1644 H   0  0  0  0  0  0  0  0  0  0  0  0
  1 15  1  0  0  0  0
  1 19  1  0  0  0  0
  2 11  2  0  0  0  0
  3 12  2  0  0  0  0
  4 17  1  0  0  0  0
  4 28  1  0  0  0  0
  5  6  1  0  0  0  0
  5  7  1  0  0  0  0
  5 20  1  0  0  0  0
  5 21  1  0  0  0  0
  6  8  1  0  0  0  0
  6 22  1  0  0  0  0
  6 23  1  0  0  0  0
  7  9  2  0  0  0  0
  7 11  1  0  0  0  0
  8 10  2  0  0  0  0
  8 13  1  0  0  0  0
  9 10  1  0  0  0  0
  9 12  1  0  0  0  0
 10 14  1  0  0  0  0
 11 15  1  0  0  0  0
 12 16  1  0  0  0  0
 13 17  2  0  0  0  0
 13 24  1  0  0  0  0
 14 18  2  0  0  0  0
 14 25  1  0  0  0  0
 15 16  2  0  0  0  0
 16 26  1  0  0  0  0
 17 18  1  0  0  0  0
 18 27  1  0  0  0  0
 19 29  1  0  0  0  0
 19 30  1  0  0  0  0
 19 31  1  0  0  0  0
M  END
> <PUBCHEM_COMPOUND_CID>
10038025

> <PUBCHEM_CONFORMER_RMSD>
0.6

> <PUBCHEM_CONFORMER_DIVERSEORDER>
1
2

> <PUBCHEM_MMFF94_PARTIAL_CHARGES>
24
1 -0.36
10 0.03
11 0.54
12 0.54
13 -0.15
14 -0.15
15 0.09
16 -0.14
17 0.08
18 -0.15
19 0.28
2 -0.57
24 0.15
25 0.15
26 0.15
27 0.15
28 0.45
3 -0.57
4 -0.53
5 0.14
6 0.14
7 -0.12
8 -0.14
9 -0.01

> <PUBCHEM_EFFECTIVE_ROTOR_COUNT>
1.4

> <PUBCHEM_PHARMACOPHORE_FEATURES>
7
1 1 acceptor
1 2 acceptor
1 3 acceptor
1 4 donor
6 5 6 7 8 9 10 rings
6 7 9 11 12 15 16 rings
6 8 10 13 14 17 18 rings

> <PUBCHEM_HEAVY_ATOM_COUNT>
19

> <PUBCHEM_ATOM_DEF_STEREO_COUNT>
0

> <PUBCHEM_ATOM_UDEF_STEREO_COUNT>
0

> <PUBCHEM_BOND_DEF_STEREO_COUNT>
0

> <PUBCHEM_BOND_UDEF_STEREO_COUNT>
0

> <PUBCHEM_ISOTOPIC_ATOM_COUNT>
0

> <PUBCHEM_COMPONENT_COUNT>
1

> <PUBCHEM_CACTVS_TAUTO_COUNT>
90

> <PUBCHEM_CONFORMER_ID>
00992B0900000001

> <PUBCHEM_MMFF94_ENERGY>
56.2162

> <PUBCHEM_FEATURE_SELFOVERLAP>
35.569

> <PUBCHEM_SHAPE_FINGERPRINT>
10062212 137 18410005572042275667
10498660 4 18410575106153746190
10616163 171 18412267250391589423
10967382 1 18410857637697731954
11132069 177 18411979178260209536
11471102 20 18335698321452890910
12236239 1 18040152920575210632
12403814 3 17749387049108786885
13140716 1 18339087097804320305
13221675 6 18411702079897572714
13380535 76 18409452470564863130
13583140 156 17022907847779562769
13862211 1 18412539903357514635
14790565 3 18269565961761284801
14911166 2 18412820300962007461
15196674 1 18337955704903266004
15442244 35 18121781625867958834
15536298 74 18342178813381342814
16945 1 18266466407847516075
18186145 218 18261107504311770382
19591789 44 18122629611146735019
200 152 18342172250323057533
20510252 161 18129947762883007040
20645477 70 18336543820209613215
21029758 11 18272927228762611369
21267235 1 18410867559114565546
21501502 16 18124596375418456353
231179 274 17749102270911939303
2334 1 18339082721232677819
23402539 116 18343297102447699822
23402655 69 18408884014352286917
23463225 33 18408323259274846738
23493267 7 17749105633981920347
23557571 272 17775008946980164640
23559900 14 18270963565746986312
2748010 2 18051684744751554705
2871803 45 18410009897132053212
296302 2 16950286204044268915
3312278 4 18409732876168381859
335352 9 18409730647222656830
34934 24 18411412899934188307
3545911 37 18408042913753274095
4072396 5 18189598502209758578
4340502 62 17023192587479752571
4409770 3 15880671045258794806
474 4 17894356596363522164
5104073 3 18337392746491812320
537710 114 18411982455542068681
57005193 9 18408598149982290047
58051976 378 18413390912762415134
59755656 215 18340209592372192686
69090 78 18272369780340114062
7364860 26 18268996384414622238
9709674 26 18270689657774534246

> <PUBCHEM_SHAPE_MULTIPOLES>
367.53
8.46
2.26
0.76
0.28
0.26
0.07
-1.11
1.98
-0.12
-0.29
-0.3
-0.09
-0.38

> <PUBCHEM_SHAPE_SELFOVERLAP>
813.817

> <PUBCHEM_SHAPE_VOLUME>
195.5

> <PUBCHEM_COORDINATE_TYPE>
2
5
10

$$$$
