132427497
  -OEChem-09172012133D

 37 38  0     0  0  0  0  0  0999 V2000
   -3.7229    2.4462   -0.1768 O   0  0  0  0  0  0  0  0  0  0  0  0
   -4.0244   -2.3155   -0.0254 O   0  0  0  0  0  0  0  0  0  0  0  0
    5.5544    1.8064    0.0865 O   0  0  0  0  0  0  0  0  0  0  0  0
    0.3276   -0.1756    0.6935 C   0  0  0  0  0  0  0  0  0  0  0  0
    1.1830   -0.2705   -0.5855 C   0  0  0  0  0  0  0  0  0  0  0  0
   -1.1531   -0.0907    0.4134 C   0  0  0  0  0  0  0  0  0  0  0  0
    2.6483   -0.3765   -0.3307 C   0  0  0  0  0  0  0  0  0  0  0  0
   -1.9137   -1.2564    0.3227 C   0  0  0  0  0  0  0  0  0  0  0  0
   -1.7610    1.1536    0.2457 C   0  0  0  0  0  0  0  0  0  0  0  0
   -3.1295    1.2320   -0.0129 C   0  0  0  0  0  0  0  0  0  0  0  0
   -3.2822   -1.1780    0.0638 C   0  0  0  0  0  0  0  0  0  0  0  0
    3.4255    0.7783   -0.2393 C   0  0  0  0  0  0  0  0  0  0  0  0
    3.2421   -1.6303   -0.1843 C   0  0  0  0  0  0  0  0  0  0  0  0
   -3.8901    0.0663   -0.1040 C   0  0  0  0  0  0  0  0  0  0  0  0
    4.7964    0.6794   -0.0014 C   0  0  0  0  0  0  0  0  0  0  0  0
    4.6130   -1.7292    0.0533 C   0  0  0  0  0  0  0  0  0  0  0  0
    5.3902   -0.5744    0.1450 C   0  0  0  0  0  0  0  0  0  0  0  0
   -2.8860    3.5970   -0.0711 C   0  0  0  0  0  0  0  0  0  0  0  0
   -5.4177   -2.1621   -0.2923 C   0  0  0  0  0  0  0  0  0  0  0  0
    0.6368    0.6960    1.2858 H   0  0  0  0  0  0  0  0  0  0  0  0
    0.5232   -1.0435    1.3376 H   0  0  0  0  0  0  0  0  0  0  0  0
    0.9861    0.6019   -1.2238 H   0  0  0  0  0  0  0  0  0  0  0  0
    0.8554   -1.1324   -1.1830 H   0  0  0  0  0  0  0  0  0  0  0  0
   -1.4451   -2.2292    0.4507 H   0  0  0  0  0  0  0  0  0  0  0  0
   -1.1212    2.0264    0.3241 H   0  0  0  0  0  0  0  0  0  0  0  0
    2.9684    1.7586   -0.3508 H   0  0  0  0  0  0  0  0  0  0  0  0
    2.6472   -2.5373   -0.2514 H   0  0  0  0  0  0  0  0  0  0  0  0
   -4.9484    0.1932   -0.3070 H   0  0  0  0  0  0  0  0  0  0  0  0
    5.0753   -2.7053    0.1676 H   0  0  0  0  0  0  0  0  0  0  0  0
    6.4571   -0.6651    0.3305 H   0  0  0  0  0  0  0  0  0  0  0  0
   -2.4546    3.6906    0.9313 H   0  0  0  0  0  0  0  0  0  0  0  0
   -2.1220    3.6128   -0.8559 H   0  0  0  0  0  0  0  0  0  0  0  0
   -3.5222    4.4743   -0.2277 H   0  0  0  0  0  0  0  0  0  0  0  0
   -5.5919   -1.7024   -1.2710 H   0  0  0  0  0  0  0  0  0  0  0  0
   -5.9256   -1.6247    0.5158 H   0  0  0  0  0  0  0  0  0  0  0  0
   -5.8519   -3.1666   -0.3297 H   0  0  0  0  0  0  0  0  0  0  0  0
    6.4784    1.5523    0.2534 H   0  0  0  0  0  0  0  0  0  0  0  0
  1 10  1  0  0  0  0
  1 18  1  0  0  0  0
  2 11  1  0  0  0  0
  2 19  1  0  0  0  0
  3 15  1  0  0  0  0
  3 37  1  0  0  0  0
  4  5  1  0  0  0  0
  4  6  1  0  0  0  0
  4 20  1  0  0  0  0
  4 21  1  0  0  0  0
  5  7  1  0  0  0  0
  5 22  1  0  0  0  0
  5 23  1  0  0  0  0
  6  8  2  0  0  0  0
  6  9  1  0  0  0  0
  7 12  2  0  0  0  0
  7 13  1  0  0  0  0
  8 11  1  0  0  0  0
  8 24  1  0  0  0  0
  9 10  2  0  0  0  0
  9 25  1  0  0  0  0
 10 14  1  0  0  0  0
 11 14  2  0  0  0  0
 12 15  1  0  0  0  0
 12 26  1  0  0  0  0
 13 16  2  0  0  0  0
 13 27  1  0  0  0  0
 14 28  1  0  0  0  0
 15 17  2  0  0  0  0
 16 17  1  0  0  0  0
 16 29  1  0  0  0  0
 17 30  1  0  0  0  0
 18 31  1  0  0  0  0
 18 32  1  0  0  0  0
 18 33  1  0  0  0  0
 19 34  1  0  0  0  0
 19 35  1  0  0  0  0
 19 36  1  0  0  0  0
M  END
> <PUBCHEM_COMPOUND_CID>
132427497

> <PUBCHEM_CONFORMER_RMSD>
0.6

> <PUBCHEM_CONFORMER_DIVERSEORDER>
5
40
43
24
28
50
22
6
15
29
35
3
33
18
54
46
34
56
21
32
55
36
42
25
8
37
17
47
1
53
30
23
38
16
26
10
4
9
31
13
57
45
19
7
14
49
27
20
12
2
11
48
44
51
39
60
58
52
41
61
59

> <PUBCHEM_MMFF94_PARTIAL_CHARGES>
27
1 -0.36
10 0.08
11 0.08
12 -0.15
13 -0.15
14 -0.15
15 0.08
16 -0.15
17 -0.15
18 0.28
19 0.28
2 -0.36
24 0.15
25 0.15
26 0.15
27 0.15
28 0.15
29 0.15
3 -0.53
30 0.15
37 0.45
4 0.14
5 0.14
6 -0.14
7 -0.14
8 -0.15
9 -0.15

> <PUBCHEM_EFFECTIVE_ROTOR_COUNT>
5

> <PUBCHEM_PHARMACOPHORE_FEATURES>
5
1 1 acceptor
1 2 acceptor
1 3 donor
6 6 8 9 10 11 14 rings
6 7 12 13 15 16 17 rings

> <PUBCHEM_HEAVY_ATOM_COUNT>
19

> <PUBCHEM_ATOM_DEF_STEREO_COUNT>
0

> <PUBCHEM_ATOM_UDEF_STEREO_COUNT>
0

> <PUBCHEM_BOND_DEF_STEREO_COUNT>
0

> <PUBCHEM_BOND_UDEF_STEREO_COUNT>
0

> <PUBCHEM_ISOTOPIC_ATOM_COUNT>
0

> <PUBCHEM_COMPONENT_COUNT>
1

> <PUBCHEM_CACTVS_TAUTO_COUNT>
27

> <PUBCHEM_CONFORMER_ID>
07E4AEE900000005

> <PUBCHEM_MMFF94_ENERGY>
66.228

> <PUBCHEM_FEATURE_SELFOVERLAP>
25.372

> <PUBCHEM_SHAPE_FINGERPRINT>
10014705 185 18334576802434022957
10595046 47 18408323302498787242
10912923 1 17967813830244023762
11405975 8 18336828568230575714
12107183 9 17758953727909677226
12403259 118 18412254031072654368
12670546 56 18186515488843339834
13073987 5 18335417959278956978
13167823 11 18410008819417443938
13583140 156 17846484920836378846
14508225 48 18338785819683214013
14790565 3 17765440846767555593
15196674 1 18410575072258185962
16087824 20 18337952296066102005
17492 89 18340489976216635462
17834072 33 18410012148185598118
17844677 252 18410863148626114788
19489759 90 18259701207296300626
200 152 18342738541565953658
20300324 65 18408886248099160627
20645477 56 18265340508283733605
20645477 70 18341335513928133182
21065198 48 18334011679717571978
21065198 57 18338518521907983990
21236236 1 18342176653360582323
21315763 129 18410290311911289696
21426921 1 18411138009458730113
21618674 54 18410855421621525978
22393880 68 18340495461084681302
23402539 116 18407755950230398007
23557571 272 18342746212366806509
23559900 14 18412818097021409408
245318 6 16809843570291549124
283562 15 18408322190482442907
34797466 226 17846227704167350140
3545911 37 18339929225306828008
4214541 1 18410293566926696804
4325135 7 18341050825925098814
5104073 3 18411138009295181186
5283173 99 18339078181705804360
559249 180 18264203608834063130
573450 72 18261667082684397866
5924683 9 18410855460555553247
633830 44 17023481754373585616
67856867 119 18189900992451217404
7495541 125 17846776351552621786
77779 3 18410857638146183202
90127 26 18336559252512066666
9709674 26 18409740547080790266
9971528 1 17748829605709504174

> <PUBCHEM_SHAPE_MULTIPOLES>
373.4
13.23
2.87
0.69
8.56
1.82
0.01
-1.9
-0.57
-3.85
-0.15
0.02
-0.03
-0.03

> <PUBCHEM_SHAPE_SELFOVERLAP>
788.32

> <PUBCHEM_SHAPE_VOLUME>
211.5

> <PUBCHEM_COORDINATE_TYPE>
2
5
10

$$$$
