44600287
  -OEChem-09172011223D

 66 71  0     0  0  0  0  0  0999 V2000
    4.4268    1.6735    1.9870 O   0  0  0  0  0  0  0  0  0  0  0  0
   -4.4268    1.6734   -1.9870 O   0  0  0  0  0  0  0  0  0  0  0  0
   -0.0057    3.1428    1.8251 O   0  0  0  0  0  0  0  0  0  0  0  0
    0.0058    3.1428   -1.8251 O   0  0  0  0  0  0  0  0  0  0  0  0
    7.5431   -1.2087    0.1078 O   0  0  0  0  0  0  0  0  0  0  0  0
   -7.5431   -1.2087   -0.1077 O   0  0  0  0  0  0  0  0  0  0  0  0
    6.7959   -2.8812   -1.9784 O   0  0  0  0  0  0  0  0  0  0  0  0
   -6.7959   -2.8811    1.9785 O   0  0  0  0  0  0  0  0  0  0  0  0
    0.6789    1.4409    0.2663 C   0  0  0  0  0  0  0  0  0  0  0  0
   -0.6789    1.4409   -0.2663 C   0  0  0  0  0  0  0  0  0  0  0  0
    1.6771    0.5964   -0.2492 C   0  0  0  0  0  0  0  0  0  0  0  0
   -1.6771    0.5965    0.2492 C   0  0  0  0  0  0  0  0  0  0  0  0
    2.9904    0.6185    0.2887 C   0  0  0  0  0  0  0  0  0  0  0  0
   -2.9905    0.6185   -0.2887 C   0  0  0  0  0  0  0  0  0  0  0  0
    3.9901   -0.2591   -0.2624 C   0  0  0  0  0  0  0  0  0  0  0  0
   -3.9901   -0.2591    0.2625 C   0  0  0  0  0  0  0  0  0  0  0  0
    0.9505    2.3165    1.3130 C   0  0  0  0  0  0  0  0  0  0  0  0
   -0.9504    2.3164   -1.3130 C   0  0  0  0  0  0  0  0  0  0  0  0
    3.2266    1.5238    1.3535 C   0  0  0  0  0  0  0  0  0  0  0  0
   -3.2266    1.5238   -1.3536 C   0  0  0  0  0  0  0  0  0  0  0  0
    3.6379   -1.1257   -1.3301 C   0  0  0  0  0  0  0  0  0  0  0  0
   -3.6379   -1.1257    1.3301 C   0  0  0  0  0  0  0  0  0  0  0  0
    1.3687   -0.2706   -1.3004 C   0  0  0  0  0  0  0  0  0  0  0  0
   -1.3687   -0.2706    1.3004 C   0  0  0  0  0  0  0  0  0  0  0  0
    2.2248    2.3580    1.8570 C   0  0  0  0  0  0  0  0  0  0  0  0
   -2.2248    2.3580   -1.8570 C   0  0  0  0  0  0  0  0  0  0  0  0
    2.3343   -1.1188   -1.8327 C   0  0  0  0  0  0  0  0  0  0  0  0
   -2.3343   -1.1187    1.8327 C   0  0  0  0  0  0  0  0  0  0  0  0
    5.3310   -0.3232    0.1928 C   0  0  0  0  0  0  0  0  0  0  0  0
   -5.3310   -0.3232   -0.1928 C   0  0  0  0  0  0  0  0  0  0  0  0
    4.5902   -1.9946   -1.8898 C   0  0  0  0  0  0  0  0  0  0  0  0
   -4.5901   -1.9946    1.8898 C   0  0  0  0  0  0  0  0  0  0  0  0
    6.2682   -1.1919   -0.3729 C   0  0  0  0  0  0  0  0  0  0  0  0
   -6.2682   -1.1919    0.3728 C   0  0  0  0  0  0  0  0  0  0  0  0
    5.8974   -2.0281   -1.4145 C   0  0  0  0  0  0  0  0  0  0  0  0
   -5.8975   -2.0280    1.4145 C   0  0  0  0  0  0  0  0  0  0  0  0
    4.6641    0.8462    3.1227 C   0  0  0  0  0  0  0  0  0  0  0  0
   -4.6641    0.8460   -3.1227 C   0  0  0  0  0  0  0  0  0  0  0  0
    7.8214   -2.1146    1.1736 C   0  0  0  0  0  0  0  0  0  0  0  0
   -7.8214   -2.1146   -1.1736 C   0  0  0  0  0  0  0  0  0  0  0  0
    0.3794   -0.3265   -1.7471 H   0  0  0  0  0  0  0  0  0  0  0  0
   -0.3794   -0.3265    1.7471 H   0  0  0  0  0  0  0  0  0  0  0  0
    2.4491    3.0398    2.6745 H   0  0  0  0  0  0  0  0  0  0  0  0
   -2.4491    3.0398   -2.6745 H   0  0  0  0  0  0  0  0  0  0  0  0
    2.0511   -1.7784   -2.6510 H   0  0  0  0  0  0  0  0  0  0  0  0
   -2.0510   -1.7783    2.6511 H   0  0  0  0  0  0  0  0  0  0  0  0
    5.7391    0.3252    0.9509 H   0  0  0  0  0  0  0  0  0  0  0  0
   -5.7391    0.3252   -0.9509 H   0  0  0  0  0  0  0  0  0  0  0  0
    4.3046   -2.6538   -2.7086 H   0  0  0  0  0  0  0  0  0  0  0  0
   -4.3046   -2.6538    2.7086 H   0  0  0  0  0  0  0  0  0  0  0  0
    0.3786    3.6712    2.5455 H   0  0  0  0  0  0  0  0  0  0  0  0
   -0.3785    3.6711   -2.5456 H   0  0  0  0  0  0  0  0  0  0  0  0
    5.7349    0.8596    3.3450 H   0  0  0  0  0  0  0  0  0  0  0  0
    4.3502   -0.1886    2.9496 H   0  0  0  0  0  0  0  0  0  0  0  0
    4.1280    1.2478    3.9884 H   0  0  0  0  0  0  0  0  0  0  0  0
   -4.3502   -0.1887   -2.9495 H   0  0  0  0  0  0  0  0  0  0  0  0
   -5.7349    0.8594   -3.3451 H   0  0  0  0  0  0  0  0  0  0  0  0
   -4.1279    1.2476   -3.9884 H   0  0  0  0  0  0  0  0  0  0  0  0
    6.3572   -3.3831   -2.6866 H   0  0  0  0  0  0  0  0  0  0  0  0
   -6.3572   -3.3829    2.6868 H   0  0  0  0  0  0  0  0  0  0  0  0
    8.8772   -2.0159    1.4403 H   0  0  0  0  0  0  0  0  0  0  0  0
    7.6341   -3.1469    0.8616 H   0  0  0  0  0  0  0  0  0  0  0  0
    7.2143   -1.8711    2.0514 H   0  0  0  0  0  0  0  0  0  0  0  0
   -8.8772   -2.0160   -1.4402 H   0  0  0  0  0  0  0  0  0  0  0  0
   -7.6340   -3.1469   -0.8616 H   0  0  0  0  0  0  0  0  0  0  0  0
   -7.2144   -1.8711   -2.0514 H   0  0  0  0  0  0  0  0  0  0  0  0
  1 19  1  0  0  0  0
  1 37  1  0  0  0  0
  2 20  1  0  0  0  0
  2 38  1  0  0  0  0
  3 17  1  0  0  0  0
  3 51  1  0  0  0  0
  4 18  1  0  0  0  0
  4 52  1  0  0  0  0
  5 33  1  0  0  0  0
  5 39  1  0  0  0  0
  6 34  1  0  0  0  0
  6 40  1  0  0  0  0
  7 35  1  0  0  0  0
  7 59  1  0  0  0  0
  8 36  1  0  0  0  0
  8 60  1  0  0  0  0
  9 10  1  0  0  0  0
  9 11  2  0  0  0  0
  9 17  1  0  0  0  0
 10 12  2  0  0  0  0
 10 18  1  0  0  0  0
 11 13  1  0  0  0  0
 11 23  1  0  0  0  0
 12 14  1  0  0  0  0
 12 24  1  0  0  0  0
 13 15  1  0  0  0  0
 13 19  2  0  0  0  0
 14 16  1  0  0  0  0
 14 20  2  0  0  0  0
 15 21  1  0  0  0  0
 15 29  2  0  0  0  0
 16 22  1  0  0  0  0
 16 30  2  0  0  0  0
 17 25  2  0  0  0  0
 18 26  2  0  0  0  0
 19 25  1  0  0  0  0
 20 26  1  0  0  0  0
 21 27  1  0  0  0  0
 21 31  2  0  0  0  0
 22 28  1  0  0  0  0
 22 32  2  0  0  0  0
 23 27  2  0  0  0  0
 23 41  1  0  0  0  0
 24 28  2  0  0  0  0
 24 42  1  0  0  0  0
 25 43  1  0  0  0  0
 26 44  1  0  0  0  0
 27 45  1  0  0  0  0
 28 46  1  0  0  0  0
 29 33  1  0  0  0  0
 29 47  1  0  0  0  0
 30 34  1  0  0  0  0
 30 48  1  0  0  0  0
 31 35  1  0  0  0  0
 31 49  1  0  0  0  0
 32 36  1  0  0  0  0
 32 50  1  0  0  0  0
 33 35  2  0  0  0  0
 34 36  2  0  0  0  0
 37 53  1  0  0  0  0
 37 54  1  0  0  0  0
 37 55  1  0  0  0  0
 38 56  1  0  0  0  0
 38 57  1  0  0  0  0
 38 58  1  0  0  0  0
 39 61  1  0  0  0  0
 39 62  1  0  0  0  0
 39 63  1  0  0  0  0
 40 64  1  0  0  0  0
 40 65  1  0  0  0  0
 40 66  1  0  0  0  0
M  END
> <PUBCHEM_COMPOUND_CID>
44600287

> <PUBCHEM_CONFORMER_RMSD>
1

> <PUBCHEM_CONFORMER_DIVERSEORDER>
1
2
3

> <PUBCHEM_MMFF94_PARTIAL_CHARGES>
44
1 -0.36
17 0.08
18 0.08
19 0.08
2 -0.36
20 0.08
23 -0.15
24 -0.15
25 -0.15
26 -0.15
27 -0.15
28 -0.15
29 -0.15
3 -0.53
30 -0.15
31 -0.15
32 -0.15
33 0.08
34 0.08
35 0.08
36 0.08
37 0.28
38 0.28
39 0.28
4 -0.53
40 0.28
41 0.15
42 0.15
43 0.15
44 0.15
45 0.15
46 0.15
47 0.15
48 0.15
49 0.15
5 -0.36
50 0.15
51 0.45
52 0.45
59 0.45
6 -0.36
60 0.45
7 -0.53
8 -0.53

> <PUBCHEM_EFFECTIVE_ROTOR_COUNT>
5

> <PUBCHEM_PHARMACOPHORE_FEATURES>
14
1 1 acceptor
1 2 acceptor
1 3 donor
1 4 donor
1 5 acceptor
1 6 acceptor
1 7 donor
1 8 donor
6 10 12 14 18 20 26 rings
6 11 13 15 21 23 27 rings
6 12 14 16 22 24 28 rings
6 15 21 29 31 33 35 rings
6 16 22 30 32 34 36 rings
6 9 11 13 17 19 25 rings

> <PUBCHEM_HEAVY_ATOM_COUNT>
40

> <PUBCHEM_ATOM_DEF_STEREO_COUNT>
0

> <PUBCHEM_ATOM_UDEF_STEREO_COUNT>
0

> <PUBCHEM_BOND_DEF_STEREO_COUNT>
0

> <PUBCHEM_BOND_UDEF_STEREO_COUNT>
0

> <PUBCHEM_ISOTOPIC_ATOM_COUNT>
0

> <PUBCHEM_COMPONENT_COUNT>
1

> <PUBCHEM_CACTVS_TAUTO_COUNT>
45

> <PUBCHEM_CONFORMER_ID>
02A88BDF00000001

> <PUBCHEM_MMFF94_ENERGY>
203.2493

> <PUBCHEM_FEATURE_SELFOVERLAP>
71.148

> <PUBCHEM_SHAPE_FINGERPRINT>
10076449 9 18272944821407078606
10670039 82 17167859751857155519
11227688 84 17699860514293501678
11828532 37 18262809604031092291
12342043 65 18411701001834667768
13673619 4 18410862061493194569
13782708 43 18410573989446704259
13811026 1 18410576188470037762
13947930 73 18339366386691091779
14068700 675 17676493843234290172
14117953 113 17822558509446815607
14294032 229 17096641008172473733
14849402 71 15553864699294867514
15131766 46 16914238866438427689
15183329 4 16081088181954352023
15324884 4 18194652995739145156
15328829 1 15719392836801563554
15357212 105 12030915085906901386
15361156 5 18342450405148442677
15419008 47 18410015428955251156
15484559 13 14438719475986493411
15510800 12 18410569587105199878
16112460 7 17417527029196292143
18603816 31 18130780201409131991
19246450 95 16414090560214982203
21033650 10 17458349585164211265
23559900 14 18186517679482779132
244849 19 18271513243739922633
2747138 104 17917715657009372298
3004659 81 16950564423509719779
4149490 64 17845374522306011511
437815 12 18412270536378758953
44880168 125 18336269054573426627
46194498 28 18188213224838380940
504579 68 15647052663843452639
57527295 17 18053079758582379269
6009941 240 18200036114859116257
6608658 132 15647049331528795039
86090 222 18342186569982055506

> <PUBCHEM_SHAPE_MULTIPOLES>
776.23
19.64
3.23
2.67
0
0.61
0
-20.36
0
0
0
0
0.35
5.26

> <PUBCHEM_SHAPE_SELFOVERLAP>
1769.836

> <PUBCHEM_SHAPE_VOLUME>
406.8

> <PUBCHEM_COORDINATE_TYPE>
2
5
10

$$$$
