91542987
  -OEChem-09172011483D

 48 50  0     0  0  0  0  0  0999 V2000
   -3.4373    1.4580   -1.5743 O   0  0  0  0  0  0  0  0  0  0  0  0
   -0.9840    4.7792    0.8048 O   0  0  0  0  0  0  0  0  0  0  0  0
    6.3775   -0.7207    1.4974 O   0  0  0  0  0  0  0  0  0  0  0  0
   -4.7910   -3.8550    1.6616 O   0  0  0  0  0  0  0  0  0  0  0  0
   -0.1141    1.3255   -0.0311 C   0  0  0  0  0  0  0  0  0  0  0  0
    1.0249    0.3818    0.1764 C   0  0  0  0  0  0  0  0  0  0  0  0
   -1.2584    0.9300   -0.7238 C   0  0  0  0  0  0  0  0  0  0  0  0
    2.2357    0.6515   -0.7372 C   0  0  0  0  0  0  0  0  0  0  0  0
   -1.3650   -0.4749   -1.2825 C   0  0  0  0  0  0  0  0  0  0  0  0
   -0.0222    2.6190    0.4826 C   0  0  0  0  0  0  0  0  0  0  0  0
   -2.3108    1.8278   -0.9026 C   0  0  0  0  0  0  0  0  0  0  0  0
    3.3628   -0.3325   -0.5380 C   0  0  0  0  0  0  0  0  0  0  0  0
   -2.2700   -1.3687   -0.5042 C   0  0  0  0  0  0  0  0  0  0  0  0
   -1.0745    3.5170    0.3036 C   0  0  0  0  0  0  0  0  0  0  0  0
   -2.2189    3.1213   -0.3889 C   0  0  0  0  0  0  0  0  0  0  0  0
    4.3615   -0.0690    0.3993 C   0  0  0  0  0  0  0  0  0  0  0  0
    3.4055   -1.5052   -1.2921 C   0  0  0  0  0  0  0  0  0  0  0  0
   -1.8316   -1.9346    0.6929 C   0  0  0  0  0  0  0  0  0  0  0  0
   -3.5556   -1.6383   -0.9736 C   0  0  0  0  0  0  0  0  0  0  0  0
    5.4031   -0.9784    0.5826 C   0  0  0  0  0  0  0  0  0  0  0  0
    4.4472   -2.4145   -1.1088 C   0  0  0  0  0  0  0  0  0  0  0  0
   -2.6787   -2.7704    1.4206 C   0  0  0  0  0  0  0  0  0  0  0  0
   -4.4026   -2.4741   -0.2461 C   0  0  0  0  0  0  0  0  0  0  0  0
    5.4462   -2.1510   -0.1715 C   0  0  0  0  0  0  0  0  0  0  0  0
   -3.9641   -3.0402    0.9510 C   0  0  0  0  0  0  0  0  0  0  0  0
    0.2144    5.1163    1.5020 C   0  0  0  0  0  0  0  0  0  0  0  0
    1.3542    0.4881    1.2213 H   0  0  0  0  0  0  0  0  0  0  0  0
    0.7515   -0.6716    0.1211 H   0  0  0  0  0  0  0  0  0  0  0  0
    2.6137    1.6701   -0.5775 H   0  0  0  0  0  0  0  0  0  0  0  0
    1.9179    0.6241   -1.7883 H   0  0  0  0  0  0  0  0  0  0  0  0
   -0.4002   -0.9632   -1.4494 H   0  0  0  0  0  0  0  0  0  0  0  0
   -1.7416   -0.3847   -2.3128 H   0  0  0  0  0  0  0  0  0  0  0  0
    0.8889    2.8742    1.0137 H   0  0  0  0  0  0  0  0  0  0  0  0
   -3.0348    3.8271   -0.5236 H   0  0  0  0  0  0  0  0  0  0  0  0
    4.3321    0.8427    0.9911 H   0  0  0  0  0  0  0  0  0  0  0  0
    2.6315   -1.7224   -2.0234 H   0  0  0  0  0  0  0  0  0  0  0  0
   -0.8383   -1.7438    1.0827 H   0  0  0  0  0  0  0  0  0  0  0  0
   -3.9116   -1.2142   -1.9084 H   0  0  0  0  0  0  0  0  0  0  0  0
    4.4802   -3.3279   -1.6954 H   0  0  0  0  0  0  0  0  0  0  0  0
   -2.3318   -3.2084    2.3526 H   0  0  0  0  0  0  0  0  0  0  0  0
   -5.4011   -2.6779   -0.6234 H   0  0  0  0  0  0  0  0  0  0  0  0
   -4.0558    2.2082   -1.5952 H   0  0  0  0  0  0  0  0  0  0  0  0
    6.2522   -2.8676   -0.0382 H   0  0  0  0  0  0  0  0  0  0  0  0
    1.0891    5.0723    0.8442 H   0  0  0  0  0  0  0  0  0  0  0  0
    0.3406    4.5075    2.4038 H   0  0  0  0  0  0  0  0  0  0  0  0
    0.1149    6.1560    1.8308 H   0  0  0  0  0  0  0  0  0  0  0  0
    7.0162   -1.4543    1.4923 H   0  0  0  0  0  0  0  0  0  0  0  0
   -5.6390   -3.9308    1.1912 H   0  0  0  0  0  0  0  0  0  0  0  0
  1 11  1  0  0  0  0
  1 42  1  0  0  0  0
  2 14  1  0  0  0  0
  2 26  1  0  0  0  0
  3 20  1  0  0  0  0
  3 47  1  0  0  0  0
  4 25  1  0  0  0  0
  4 48  1  0  0  0  0
  5  6  1  0  0  0  0
  5  7  2  0  0  0  0
  5 10  1  0  0  0  0
  6  8  1  0  0  0  0
  6 27  1  0  0  0  0
  6 28  1  0  0  0  0
  7  9  1  0  0  0  0
  7 11  1  0  0  0  0
  8 12  1  0  0  0  0
  8 29  1  0  0  0  0
  8 30  1  0  0  0  0
  9 13  1  0  0  0  0
  9 31  1  0  0  0  0
  9 32  1  0  0  0  0
 10 14  2  0  0  0  0
 10 33  1  0  0  0  0
 11 15  2  0  0  0  0
 12 16  2  0  0  0  0
 12 17  1  0  0  0  0
 13 18  2  0  0  0  0
 13 19  1  0  0  0  0
 14 15  1  0  0  0  0
 15 34  1  0  0  0  0
 16 20  1  0  0  0  0
 16 35  1  0  0  0  0
 17 21  2  0  0  0  0
 17 36  1  0  0  0  0
 18 22  1  0  0  0  0
 18 37  1  0  0  0  0
 19 23  2  0  0  0  0
 19 38  1  0  0  0  0
 20 24  2  0  0  0  0
 21 24  1  0  0  0  0
 21 39  1  0  0  0  0
 22 25  2  0  0  0  0
 22 40  1  0  0  0  0
 23 25  1  0  0  0  0
 23 41  1  0  0  0  0
 24 43  1  0  0  0  0
 26 44  1  0  0  0  0
 26 45  1  0  0  0  0
 26 46  1  0  0  0  0
M  END
> <PUBCHEM_COMPOUND_CID>
91542987

> <PUBCHEM_CONFORMER_RMSD>
0.8

> <PUBCHEM_CONFORMER_DIVERSEORDER>
3
88
47
32
61
106
6
45
71
89
49
99
38
65
8
97
67
29
40
104
101
44
64
48
52
50
100
11
59
95
12
91
72
27
53
103
76
96
15
28
16
78
42
39
33
20
36
22
41
84
31
26
80
94
25
13
35
93
5
34
105
18
1
46
86
75
4
70
66
81
63
17
74
10
68
43
85
57
87
7
19
56
69
51
9
14
90
79
55
82
30
58
98
24
21
83
37
92
62
73
2
54
23
102
60
77

> <PUBCHEM_MMFF94_PARTIAL_CHARGES>
39
1 -0.53
10 -0.15
11 0.08
12 -0.14
13 -0.14
14 0.08
15 -0.15
16 -0.15
17 -0.15
18 -0.15
19 -0.15
2 -0.36
20 0.08
21 -0.15
22 -0.15
23 -0.15
24 -0.15
25 0.08
26 0.28
3 -0.53
33 0.15
34 0.15
35 0.15
36 0.15
37 0.15
38 0.15
39 0.15
4 -0.53
40 0.15
41 0.15
42 0.45
43 0.15
47 0.45
48 0.45
5 -0.14
6 0.14
7 -0.14
8 0.14
9 0.29

> <PUBCHEM_EFFECTIVE_ROTOR_COUNT>
6

> <PUBCHEM_PHARMACOPHORE_FEATURES>
7
1 1 donor
1 2 acceptor
1 3 donor
1 4 donor
6 12 16 17 20 21 24 rings
6 13 18 19 22 23 25 rings
6 5 7 10 11 14 15 rings

> <PUBCHEM_HEAVY_ATOM_COUNT>
26

> <PUBCHEM_ATOM_DEF_STEREO_COUNT>
0

> <PUBCHEM_ATOM_UDEF_STEREO_COUNT>
0

> <PUBCHEM_BOND_DEF_STEREO_COUNT>
0

> <PUBCHEM_BOND_UDEF_STEREO_COUNT>
0

> <PUBCHEM_ISOTOPIC_ATOM_COUNT>
0

> <PUBCHEM_COMPONENT_COUNT>
1

> <PUBCHEM_CACTVS_TAUTO_COUNT>
242

> <PUBCHEM_CONFORMER_ID>
0574D5CB00000003

> <PUBCHEM_MMFF94_ENERGY>
82.1917

> <PUBCHEM_FEATURE_SELFOVERLAP>
35.522

> <PUBCHEM_SHAPE_FINGERPRINT>
10074138 170 18270125587087856729
1100329 8 18410576158954289145
11014199 57 18336272267119014116
11036077 51 17979356360940464640
11488393 25 18048594008348766200
12107183 9 18197239112302955283
12293681 160 17980454803718119933
12553582 1 18198912598305383654
12760667 363 18335419092897589567
12788726 201 18334869346005685542
13140716 1 18412267241717226240
13533116 47 17760381272556342435
13540713 4 17899679448724462047
13911852 28 18265055910971878535
13955234 65 17620204560393743835
14363568 33 18052543467079370700
14844126 61 18341598300895405982
14866123 147 18335706001529850931
15042514 8 18339086995121042469
15361156 5 18129945568671352580
15463212 79 17763175843865433032
15775530 1 18049140457602319301
17492 89 18409169905320639206
17980427 23 13686306811405266699
1813 80 18128555922911955151
19611394 137 18338223986531780528
20101258 96 18272930531444723268
21049683 271 17830187053003743476
21120745 212 18196119744450733828
21796203 349 18051155849272420946
22440779 20 17477825226290293518
23557571 272 18410564077194779378
23559900 14 17824813688735053255
3027735 51 18261960647778457683
329604 57 18260830453526180822
3380486 145 17774425183425121620
3421961 26 18049448346411070011
376196 1 17052166715662658252
4073 2 18268146449785280398
437815 12 18337672022757016095
4921388 177 18263643978958368262
5104073 3 18200303313722991106
5309563 4 18339083807960513951
59755656 520 18046058268626652061
6004065 56 18125430058783899159
613672 6 18412257367814571782
6695519 79 17059474323913938858
79837 15 17980772531959355240
9709674 26 17986389980405907142
9981440 41 17842826729607913614

> <PUBCHEM_SHAPE_MULTIPOLES>
511.59
11.04
6.07
1.42
15.4
6.97
0.15
-13.52
1.72
-6.4
3.04
-0.41
-0.32
2.32

> <PUBCHEM_SHAPE_SELFOVERLAP>
1106.829

> <PUBCHEM_SHAPE_VOLUME>
279.7

> <PUBCHEM_COORDINATE_TYPE>
2
5
10

$$$$
