442711
  -OEChem-09172011433D

 37 38  0     0  0  0  0  0  0999 V2000
    1.6687   -2.1684    1.5356 O   0  0  0  0  0  0  0  0  0  0  0  0
   -2.2388   -1.9433   -1.5158 O   0  0  0  0  0  0  0  0  0  0  0  0
    4.1573    0.3181   -1.6907 O   0  0  0  0  0  0  0  0  0  0  0  0
    0.4607    2.4848    0.6590 C   0  0  0  0  0  0  0  0  0  0  0  0
   -0.7821    2.5470   -0.2510 C   0  0  0  0  0  0  0  0  0  0  0  0
    1.3286    1.2779    0.3981 C   0  0  0  0  0  0  0  0  0  0  0  0
   -1.7067    1.3870   -0.0973 C   0  0  0  0  0  0  0  0  0  0  0  0
    1.0896    0.1053    1.0975 C   0  0  0  0  0  0  0  0  0  0  0  0
    2.3490    1.3639   -0.5358 C   0  0  0  0  0  0  0  0  0  0  0  0
   -1.5377    0.2502   -0.8877 C   0  0  0  0  0  0  0  0  0  0  0  0
   -2.7417    1.4398    0.8363 C   0  0  0  0  0  0  0  0  0  0  0  0
    1.8918   -1.0101    0.8565 C   0  0  0  0  0  0  0  0  0  0  0  0
    3.1510    0.2483   -0.7769 C   0  0  0  0  0  0  0  0  0  0  0  0
   -2.4036   -0.8340   -0.7445 C   0  0  0  0  0  0  0  0  0  0  0  0
    2.9224   -0.9386   -0.0809 C   0  0  0  0  0  0  0  0  0  0  0  0
   -3.6078    0.3558    0.9793 C   0  0  0  0  0  0  0  0  0  0  0  0
   -3.4387   -0.7812    0.1891 C   0  0  0  0  0  0  0  0  0  0  0  0
    0.5984   -2.1722    2.4790 C   0  0  0  0  0  0  0  0  0  0  0  0
   -1.1605   -1.9303   -2.4499 C   0  0  0  0  0  0  0  0  0  0  0  0
    0.1538    2.4934    1.7133 H   0  0  0  0  0  0  0  0  0  0  0  0
    1.0535    3.3980    0.5185 H   0  0  0  0  0  0  0  0  0  0  0  0
   -0.4675    2.6287   -1.3002 H   0  0  0  0  0  0  0  0  0  0  0  0
   -1.3249    3.4779   -0.0409 H   0  0  0  0  0  0  0  0  0  0  0  0
    0.2825    0.1081    1.8217 H   0  0  0  0  0  0  0  0  0  0  0  0
    2.5285    2.2863   -1.0815 H   0  0  0  0  0  0  0  0  0  0  0  0
   -0.7247    0.2640   -1.6060 H   0  0  0  0  0  0  0  0  0  0  0  0
   -2.8827    2.3188    1.4597 H   0  0  0  0  0  0  0  0  0  0  0  0
    3.5434   -1.8120   -0.2639 H   0  0  0  0  0  0  0  0  0  0  0  0
   -4.4133    0.3964    1.7068 H   0  0  0  0  0  0  0  0  0  0  0  0
   -4.1161   -1.6227    0.3055 H   0  0  0  0  0  0  0  0  0  0  0  0
    4.6084   -0.5428   -1.7294 H   0  0  0  0  0  0  0  0  0  0  0  0
   -0.3683   -2.0049    1.9918 H   0  0  0  0  0  0  0  0  0  0  0  0
    0.7796   -1.4662    3.2965 H   0  0  0  0  0  0  0  0  0  0  0  0
    0.5627   -3.1724    2.9231 H   0  0  0  0  0  0  0  0  0  0  0  0
   -0.1910   -1.8588   -1.9449 H   0  0  0  0  0  0  0  0  0  0  0  0
   -1.2932   -1.1506   -3.2076 H   0  0  0  0  0  0  0  0  0  0  0  0
   -1.1763   -2.8912   -2.9746 H   0  0  0  0  0  0  0  0  0  0  0  0
  1 12  1  0  0  0  0
  1 18  1  0  0  0  0
  2 14  1  0  0  0  0
  2 19  1  0  0  0  0
  3 13  1  0  0  0  0
  3 31  1  0  0  0  0
  4  5  1  0  0  0  0
  4  6  1  0  0  0  0
  4 20  1  0  0  0  0
  4 21  1  0  0  0  0
  5  7  1  0  0  0  0
  5 22  1  0  0  0  0
  5 23  1  0  0  0  0
  6  8  1  0  0  0  0
  6  9  2  0  0  0  0
  7 10  2  0  0  0  0
  7 11  1  0  0  0  0
  8 12  2  0  0  0  0
  8 24  1  0  0  0  0
  9 13  1  0  0  0  0
  9 25  1  0  0  0  0
 10 14  1  0  0  0  0
 10 26  1  0  0  0  0
 11 16  2  0  0  0  0
 11 27  1  0  0  0  0
 12 15  1  0  0  0  0
 13 15  2  0  0  0  0
 14 17  2  0  0  0  0
 15 28  1  0  0  0  0
 16 17  1  0  0  0  0
 16 29  1  0  0  0  0
 17 30  1  0  0  0  0
 18 32  1  0  0  0  0
 18 33  1  0  0  0  0
 18 34  1  0  0  0  0
 19 35  1  0  0  0  0
 19 36  1  0  0  0  0
 19 37  1  0  0  0  0
M  END
> <PUBCHEM_COMPOUND_CID>
442711

> <PUBCHEM_CONFORMER_RMSD>
0.6

> <PUBCHEM_CONFORMER_DIVERSEORDER>
1
69
66
75
2
56
45
126
62
74
24
61
51
42
64
11
70
113
72
16
130
30
49
57
37
13
6
15
114
48
91
25
109
54
71
59
123
60
22
73
88
47
52
89
41
131
68
97
127
9
20
76
27
58
39
100
46
53
119
67
133
82
32
18
31
17
35
55
102
4
19
63
40
122
28
65
33
92
106
5
84
44
110
50
29
14
3
90
120
38
98
12
26
10
78
105
117
34
80
36
8
103
107
43
83
95
7
108
93
124
104
128
112
129
116
96
132
115
77
23
118
94
21
79
125
134
135
111
101
99
81
85
87
121
86

> <PUBCHEM_MMFF94_PARTIAL_CHARGES>
27
1 -0.36
10 -0.15
11 -0.15
12 0.08
13 0.08
14 0.08
15 -0.15
16 -0.15
17 -0.15
18 0.28
19 0.28
2 -0.36
24 0.15
25 0.15
26 0.15
27 0.15
28 0.15
29 0.15
3 -0.53
30 0.15
31 0.45
4 0.14
5 0.14
6 -0.14
7 -0.14
8 -0.15
9 -0.15

> <PUBCHEM_EFFECTIVE_ROTOR_COUNT>
5

> <PUBCHEM_PHARMACOPHORE_FEATURES>
5
1 1 acceptor
1 2 acceptor
1 3 donor
6 6 8 9 12 13 15 rings
6 7 10 11 14 16 17 rings

> <PUBCHEM_HEAVY_ATOM_COUNT>
19

> <PUBCHEM_ATOM_DEF_STEREO_COUNT>
0

> <PUBCHEM_ATOM_UDEF_STEREO_COUNT>
0

> <PUBCHEM_BOND_DEF_STEREO_COUNT>
0

> <PUBCHEM_BOND_UDEF_STEREO_COUNT>
0

> <PUBCHEM_ISOTOPIC_ATOM_COUNT>
0

> <PUBCHEM_COMPONENT_COUNT>
1

> <PUBCHEM_CACTVS_TAUTO_COUNT>
9

> <PUBCHEM_CONFORMER_ID>
0006C15700000001

> <PUBCHEM_MMFF94_ENERGY>
66.1928

> <PUBCHEM_FEATURE_SELFOVERLAP>
25.371

> <PUBCHEM_SHAPE_FINGERPRINT>
11321824 6 17980735196029917677
11370993 70 8502107192369486975
11578080 2 18046872010173868596
12156800 1 11522616052436702875
12507560 18 15410348636806149371
12553582 1 18413102870648950325
12596599 1 18129946787882985707
13221675 6 18411140220834072649
14251711 518 18339346518266468331
15209289 33 18334020514164418240
15375462 175 17772471187958984176
15375462 189 18335986384830397065
16752209 62 18129648717627507437
16945 1 18272081652406619532
17349148 13 18040433262192245384
17357779 13 17101449459571383755
17492 54 14709487141798007799
18522851 12 18411700976080324195
18981168 100 8861252989105640769
19777482 4 16383897858778033699
20442098 301 17987793137220157469
20645476 183 17611182654754658765
21634736 98 18339930423655750212
21731516 1 18339626898005373985
22445834 79 18341330114942946697
23402539 116 18260551126207243428
23598288 3 18120078494808581061
23598291 2 18117844291581610440
238 59 17532907563196084487
34934 24 18411411795932680857
465052 167 18339939190158410795
90525 40 18125157130612122505

> <PUBCHEM_SHAPE_MULTIPOLES>
373.4
5.8
2.7
1.93
0.48
0.21
-0.04
-0.42
-1.05
-0.28
0.29
0.24
-1.64
-1.42

> <PUBCHEM_SHAPE_SELFOVERLAP>
791.73

> <PUBCHEM_SHAPE_VOLUME>
208.9

> <PUBCHEM_COORDINATE_TYPE>
2
5
10

$$$$
