101637168
  -OEChem-09172012203D

 69 71  0     1  0  0  0  0  0999 V2000
    4.4867    1.2286   -0.4145 O   0  0  0  0  0  0  0  0  0  0  0  0
    3.6289   -0.9156   -0.7466 O   0  0  0  0  0  0  0  0  0  0  0  0
    8.2499   -0.2485    0.3093 O   0  0  0  0  0  0  0  0  0  0  0  0
    7.5900    2.4535    1.0965 O   0  0  0  0  0  0  0  0  0  0  0  0
    5.8939   -2.0000    0.5580 O   0  0  0  0  0  0  0  0  0  0  0  0
    2.2070   -1.9400    0.7960 O   0  0  0  0  0  0  0  0  0  0  0  0
    3.7572    3.8504   -0.0278 O   0  0  0  0  0  0  0  0  0  0  0  0
   -2.6955    1.2481    0.3505 O   0  0  0  0  0  0  0  0  0  0  0  0
   -2.0436   -3.2357    0.0743 O   0  0  0  0  0  0  0  0  0  0  0  0
   -1.8601   -2.2533    2.1626 O   0  0  0  0  0  0  0  0  0  0  0  0
   -2.9764   -0.5409   -1.1302 O   0  0  0  0  0  0  0  0  0  0  0  0
   -8.7396    0.7343   -1.5127 O   0  0  0  0  0  0  0  0  0  0  0  0
    6.9324    0.1757    0.6623 C   0  0  1  0  0  0  0  0  0  0  0  0
    6.7810    1.6403    0.2508 C   0  0  1  0  0  0  0  0  0  0  0  0
    5.9060   -0.7075   -0.0474 C   0  0  2  0  0  0  0  0  0  0  0  0
    5.3218    2.0880    0.3635 C   0  0  1  0  0  0  0  0  0  0  0  0
    4.4995   -0.1176    0.0548 C   0  0  1  0  0  0  0  0  0  0  0  0
    5.1260    3.5101   -0.1526 C   0  0  0  0  0  0  0  0  0  0  0  0
    2.3029   -0.9252   -0.2203 C   0  0  2  0  0  0  0  0  0  0  0  0
   -0.1802   -1.1476   -0.7509 C   0  0  1  0  0  0  0  0  0  0  0  0
    1.2360   -1.0529   -1.2959 C   0  0  0  0  0  0  0  0  0  0  0  0
   -0.1853   -1.9642    0.5109 C   0  0  0  0  0  0  0  0  0  0  0  0
   -0.7597    0.2499   -0.5071 C   0  0  0  0  0  0  0  0  0  0  0  0
    0.9361   -2.3058    1.1577 C   0  0  0  0  0  0  0  0  0  0  0  0
    1.4725   -1.1002   -2.6170 C   0  0  0  0  0  0  0  0  0  0  0  0
   -1.4493   -2.4846    1.0361 C   0  0  0  0  0  0  0  0  0  0  0  0
   -2.2663    0.2310   -0.4999 C   0  0  0  0  0  0  0  0  0  0  0  0
    0.4060   -1.2450   -3.6458 C   0  0  0  0  0  0  0  0  0  0  0  0
   -4.0870    1.3309    0.4403 C   0  0  0  0  0  0  0  0  0  0  0  0
   -3.2989   -3.8186    0.4391 C   0  0  0  0  0  0  0  0  0  0  0  0
   -4.7674    0.6009    1.4149 C   0  0  0  0  0  0  0  0  0  0  0  0
   -4.7960    2.1427   -0.4451 C   0  0  0  0  0  0  0  0  0  0  0  0
   -6.8661    1.4946    0.6187 C   0  0  0  0  0  0  0  0  0  0  0  0
   -6.1570    0.6828    1.5040 C   0  0  0  0  0  0  0  0  0  0  0  0
   -6.1856    2.2244   -0.3559 C   0  0  0  0  0  0  0  0  0  0  0  0
   -8.3515    1.5823    0.7135 C   0  0  0  0  0  0  0  0  0  0  0  0
   -9.0685    0.5347   -0.1438 C   0  0  0  0  0  0  0  0  0  0  0  0
    6.8580    0.0660    1.7506 H   0  0  0  0  0  0  0  0  0  0  0  0
    7.1437    1.7739   -0.7758 H   0  0  0  0  0  0  0  0  0  0  0  0
    6.1853   -0.8529   -1.0977 H   0  0  0  0  0  0  0  0  0  0  0  0
    4.9788    2.0562    1.4068 H   0  0  0  0  0  0  0  0  0  0  0  0
    4.1724   -0.1469    1.1043 H   0  0  0  0  0  0  0  0  0  0  0  0
    5.3915    3.5803   -1.2127 H   0  0  0  0  0  0  0  0  0  0  0  0
    5.7205    4.2300    0.4179 H   0  0  0  0  0  0  0  0  0  0  0  0
    2.1134    0.0415    0.2706 H   0  0  0  0  0  0  0  0  0  0  0  0
   -0.7998   -1.6915   -1.4729 H   0  0  0  0  0  0  0  0  0  0  0  0
    8.3415   -0.1791   -0.6563 H   0  0  0  0  0  0  0  0  0  0  0  0
    7.2674    2.3526    2.0083 H   0  0  0  0  0  0  0  0  0  0  0  0
    5.6470   -1.8934    1.4925 H   0  0  0  0  0  0  0  0  0  0  0  0
   -0.3937    0.6553    0.4451 H   0  0  0  0  0  0  0  0  0  0  0  0
   -0.4642    0.9482   -1.2998 H   0  0  0  0  0  0  0  0  0  0  0  0
    0.9677   -2.9426    2.0318 H   0  0  0  0  0  0  0  0  0  0  0  0
    2.4925   -1.0533   -2.9874 H   0  0  0  0  0  0  0  0  0  0  0  0
    3.6547    4.7565   -0.3656 H   0  0  0  0  0  0  0  0  0  0  0  0
    0.1879   -2.3015   -3.8279 H   0  0  0  0  0  0  0  0  0  0  0  0
    0.7577   -0.8124   -4.5891 H   0  0  0  0  0  0  0  0  0  0  0  0
   -0.5172   -0.7157   -3.3950 H   0  0  0  0  0  0  0  0  0  0  0  0
   -3.1679   -4.5007    1.2845 H   0  0  0  0  0  0  0  0  0  0  0  0
   -3.6714   -4.3870   -0.4172 H   0  0  0  0  0  0  0  0  0  0  0  0
   -4.0231   -3.0352    0.6827 H   0  0  0  0  0  0  0  0  0  0  0  0
   -4.2203   -0.0341    2.1064 H   0  0  0  0  0  0  0  0  0  0  0  0
   -4.2713    2.7138   -1.2060 H   0  0  0  0  0  0  0  0  0  0  0  0
   -6.6757    0.1074    2.2662 H   0  0  0  0  0  0  0  0  0  0  0  0
   -6.7249    2.8614   -1.0519 H   0  0  0  0  0  0  0  0  0  0  0  0
   -8.6711    2.5856    0.4024 H   0  0  0  0  0  0  0  0  0  0  0  0
   -8.6668    1.4747    1.7587 H   0  0  0  0  0  0  0  0  0  0  0  0
  -10.1525    0.6327   -0.0289 H   0  0  0  0  0  0  0  0  0  0  0  0
   -8.7713   -0.4800    0.1413 H   0  0  0  0  0  0  0  0  0  0  0  0
   -9.2150    0.0558   -2.0218 H   0  0  0  0  0  0  0  0  0  0  0  0
  1 16  1  0  0  0  0
  1 17  1  0  0  0  0
  2 17  1  0  0  0  0
  2 19  1  0  0  0  0
  3 13  1  0  0  0  0
  3 47  1  0  0  0  0
  4 14  1  0  0  0  0
  4 48  1  0  0  0  0
  5 15  1  0  0  0  0
  5 49  1  0  0  0  0
  6 19  1  0  0  0  0
  6 24  1  0  0  0  0
  7 18  1  0  0  0  0
  7 54  1  0  0  0  0
  8 27  1  0  0  0  0
  8 29  1  0  0  0  0
  9 26  1  0  0  0  0
  9 30  1  0  0  0  0
 10 26  2  0  0  0  0
 11 27  2  0  0  0  0
 12 37  1  0  0  0  0
 12 69  1  0  0  0  0
 13 14  1  0  0  0  0
 13 15  1  0  0  0  0
 13 38  1  0  0  0  0
 14 16  1  0  0  0  0
 14 39  1  0  0  0  0
 15 17  1  0  0  0  0
 15 40  1  0  0  0  0
 16 18  1  0  0  0  0
 16 41  1  0  0  0  0
 17 42  1  0  0  0  0
 18 43  1  0  0  0  0
 18 44  1  0  0  0  0
 19 21  1  0  0  0  0
 19 45  1  0  0  0  0
 20 21  1  0  0  0  0
 20 22  1  0  0  0  0
 20 23  1  0  0  0  0
 20 46  1  0  0  0  0
 21 25  2  0  0  0  0
 22 24  2  0  0  0  0
 22 26  1  0  0  0  0
 23 27  1  0  0  0  0
 23 50  1  0  0  0  0
 23 51  1  0  0  0  0
 24 52  1  0  0  0  0
 25 28  1  0  0  0  0
 25 53  1  0  0  0  0
 28 55  1  0  0  0  0
 28 56  1  0  0  0  0
 28 57  1  0  0  0  0
 29 31  2  0  0  0  0
 29 32  1  0  0  0  0
 30 58  1  0  0  0  0
 30 59  1  0  0  0  0
 30 60  1  0  0  0  0
 31 34  1  0  0  0  0
 31 61  1  0  0  0  0
 32 35  2  0  0  0  0
 32 62  1  0  0  0  0
 33 34  2  0  0  0  0
 33 35  1  0  0  0  0
 33 36  1  0  0  0  0
 34 63  1  0  0  0  0
 35 64  1  0  0  0  0
 36 37  1  0  0  0  0
 36 65  1  0  0  0  0
 36 66  1  0  0  0  0
 37 67  1  0  0  0  0
 37 68  1  0  0  0  0
M  END
> <PUBCHEM_COMPOUND_CID>
101637168

> <PUBCHEM_CONFORMER_RMSD>
1.2

> <PUBCHEM_CONFORMER_DIVERSEORDER>
1
3
15
6
19
11
29
21
27
28
10
14
26
18
5
24
13
4
16
25
12
34
23
7
33
30
2
31
20
22
9
32
35
17
8

> <PUBCHEM_MMFF94_PARTIAL_CHARGES>
48
1 -0.56
10 -0.57
11 -0.57
12 -0.68
13 0.28
14 0.28
15 0.28
16 0.28
17 0.56
18 0.28
19 0.7
2 -0.56
20 0.28
21 -0.28
22 -0.12
23 0.06
24 -0.07
25 -0.29
26 0.71
27 0.66
28 0.14
29 0.08
3 -0.68
30 0.28
31 -0.15
32 -0.15
33 -0.14
34 -0.15
35 -0.15
36 0.14
37 0.28
4 -0.68
47 0.4
48 0.4
49 0.4
5 -0.68
52 0.15
53 0.15
54 0.4
6 -0.36
61 0.15
62 0.15
63 0.15
64 0.15
69 0.4
7 -0.68
8 -0.23
9 -0.43

> <PUBCHEM_EFFECTIVE_ROTOR_COUNT>
12.8

> <PUBCHEM_PHARMACOPHORE_FEATURES>
19
1 1 acceptor
1 10 acceptor
1 11 acceptor
1 12 acceptor
1 12 donor
1 2 acceptor
1 28 hydrophobe
1 3 acceptor
1 3 donor
1 4 acceptor
1 4 donor
1 5 acceptor
1 5 donor
1 6 acceptor
1 7 acceptor
1 7 donor
6 1 13 14 15 16 17 rings
6 29 31 32 33 34 35 rings
6 6 19 20 21 22 24 rings

> <PUBCHEM_HEAVY_ATOM_COUNT>
37

> <PUBCHEM_ATOM_DEF_STEREO_COUNT>
7

> <PUBCHEM_ATOM_UDEF_STEREO_COUNT>
0

> <PUBCHEM_BOND_DEF_STEREO_COUNT>
1

> <PUBCHEM_BOND_UDEF_STEREO_COUNT>
0

> <PUBCHEM_ISOTOPIC_ATOM_COUNT>
0

> <PUBCHEM_COMPONENT_COUNT>
1

> <PUBCHEM_CACTVS_TAUTO_COUNT>
4

> <PUBCHEM_CONFORMER_ID>
060EDC3000000001

> <PUBCHEM_MMFF94_ENERGY>
96.9426

> <PUBCHEM_FEATURE_SELFOVERLAP>
96.538

> <PUBCHEM_SHAPE_FINGERPRINT>
10 15 18187368718108347041
10673678 19 17346602958447248236
11456790 92 18261103025336400240
12422481 6 17385736802030884363
12608794 3 16588308345024327783
12925494 130 18339920549436434960
13383668 362 17677631885251055243
14190465 44 18113909290063858255
15183329 4 16056879121964422776
15840311 113 18408606928805740174
19841028 212 9079124349619191692
20511986 3 17603864465371016523
21033648 29 17458898250034853020
21133410 90 17131828824413711424
21716022 299 14403519191053632876
22122407 14 18270121348308400544
22224240 67 18187366502495988067
24771293 8 18341057333244202933
25223398 141 16987984124339595942
2838139 119 18343295968587129948
4173938 306 17095514090310394997
5104073 3 18114456860251316994

> <PUBCHEM_SHAPE_MULTIPOLES>
691.01
24.21
3.81
1.78
11.99
0.02
-1.54
-19.88
4.66
-1.7
0.8
0.54
1.08
0.79

> <PUBCHEM_SHAPE_SELFOVERLAP>
1445.746

> <PUBCHEM_SHAPE_VOLUME>
384.8

> <PUBCHEM_COORDINATE_TYPE>
2
5
10

$$$$
