356766
  -OEChem-09172010453D

 38 40  0     0  0  0  0  0  0999 V2000
    0.9842   -1.9553    0.1324 O   0  0  0  0  0  0  0  0  0  0  0  0
    3.6177   -1.7173   -0.0244 O   0  0  0  0  0  0  0  0  0  0  0  0
   -3.6370   -1.9375    0.3732 O   0  0  0  0  0  0  0  0  0  0  0  0
    4.8152    0.7570   -0.2451 O   0  0  0  0  0  0  0  0  0  0  0  0
   -5.0122    0.4719    0.2954 O   0  0  0  0  0  0  0  0  0  0  0  0
    0.6251    0.4693   -0.0060 C   0  0  0  0  0  0  0  0  0  0  0  0
   -0.8120    0.4277    0.0731 C   0  0  0  0  0  0  0  0  0  0  0  0
    1.2763    1.7253   -0.1207 C   0  0  0  0  0  0  0  0  0  0  0  0
   -1.5430    1.6438    0.0351 C   0  0  0  0  0  0  0  0  0  0  0  0
    1.4572   -0.6779    0.0236 C   0  0  0  0  0  0  0  0  0  0  0  0
    0.5221    2.9009   -0.1551 C   0  0  0  0  0  0  0  0  0  0  0  0
   -0.8663    2.8609   -0.0783 C   0  0  0  0  0  0  0  0  0  0  0  0
   -1.5682   -0.7657    0.1890 C   0  0  0  0  0  0  0  0  0  0  0  0
    2.6777    1.7999   -0.1998 C   0  0  0  0  0  0  0  0  0  0  0  0
    2.8497   -0.5896   -0.0558 C   0  0  0  0  0  0  0  0  0  0  0  0
   -2.9463    1.6376    0.1107 C   0  0  0  0  0  0  0  0  0  0  0  0
    3.4603    0.6498   -0.1677 C   0  0  0  0  0  0  0  0  0  0  0  0
   -2.9638   -0.7579    0.2627 C   0  0  0  0  0  0  0  0  0  0  0  0
   -3.6530    0.4444    0.2239 C   0  0  0  0  0  0  0  0  0  0  0  0
    0.6927   -2.6396   -1.0822 C   0  0  0  0  0  0  0  0  0  0  0  0
    4.0485   -2.1698    1.2565 C   0  0  0  0  0  0  0  0  0  0  0  0
   -4.0248   -2.5781   -0.8404 C   0  0  0  0  0  0  0  0  0  0  0  0
    1.0084    3.8708   -0.2427 H   0  0  0  0  0  0  0  0  0  0  0  0
   -1.4143    3.8009   -0.1086 H   0  0  0  0  0  0  0  0  0  0  0  0
   -1.1354   -1.7461    0.2977 H   0  0  0  0  0  0  0  0  0  0  0  0
    3.1627    2.7713   -0.2872 H   0  0  0  0  0  0  0  0  0  0  0  0
   -3.5002    2.5749    0.0811 H   0  0  0  0  0  0  0  0  0  0  0  0
    0.1707   -1.9988   -1.8007 H   0  0  0  0  0  0  0  0  0  0  0  0
    0.0611   -3.5026   -0.8527 H   0  0  0  0  0  0  0  0  0  0  0  0
    1.6204   -3.0060   -1.5328 H   0  0  0  0  0  0  0  0  0  0  0  0
    5.0567    1.6964   -0.3170 H   0  0  0  0  0  0  0  0  0  0  0  0
   -5.3346   -0.4386    0.4109 H   0  0  0  0  0  0  0  0  0  0  0  0
    3.1900   -2.4036    1.8939 H   0  0  0  0  0  0  0  0  0  0  0  0
    4.6792   -1.4168    1.7393 H   0  0  0  0  0  0  0  0  0  0  0  0
    4.6374   -3.0806    1.1174 H   0  0  0  0  0  0  0  0  0  0  0  0
   -4.6704   -1.9251   -1.4362 H   0  0  0  0  0  0  0  0  0  0  0  0
   -4.5822   -3.4838   -0.5867 H   0  0  0  0  0  0  0  0  0  0  0  0
   -3.1410   -2.8620   -1.4206 H   0  0  0  0  0  0  0  0  0  0  0  0
  1 10  1  0  0  0  0
  1 20  1  0  0  0  0
  2 15  1  0  0  0  0
  2 21  1  0  0  0  0
  3 18  1  0  0  0  0
  3 22  1  0  0  0  0
  4 17  1  0  0  0  0
  4 31  1  0  0  0  0
  5 19  1  0  0  0  0
  5 32  1  0  0  0  0
  6  7  1  0  0  0  0
  6  8  1  0  0  0  0
  6 10  2  0  0  0  0
  7  9  1  0  0  0  0
  7 13  2  0  0  0  0
  8 11  1  0  0  0  0
  8 14  2  0  0  0  0
  9 12  1  0  0  0  0
  9 16  2  0  0  0  0
 10 15  1  0  0  0  0
 11 12  2  0  0  0  0
 11 23  1  0  0  0  0
 12 24  1  0  0  0  0
 13 18  1  0  0  0  0
 13 25  1  0  0  0  0
 14 17  1  0  0  0  0
 14 26  1  0  0  0  0
 15 17  2  0  0  0  0
 16 19  1  0  0  0  0
 16 27  1  0  0  0  0
 18 19  2  0  0  0  0
 20 28  1  0  0  0  0
 20 29  1  0  0  0  0
 20 30  1  0  0  0  0
 21 33  1  0  0  0  0
 21 34  1  0  0  0  0
 21 35  1  0  0  0  0
 22 36  1  0  0  0  0
 22 37  1  0  0  0  0
 22 38  1  0  0  0  0
M  END
> <PUBCHEM_COMPOUND_CID>
356766

> <PUBCHEM_CONFORMER_RMSD>
0.6

> <PUBCHEM_CONFORMER_DIVERSEORDER>
1
3
4
2

> <PUBCHEM_MMFF94_PARTIAL_CHARGES>
25
1 -0.36
10 0.08
11 -0.15
12 -0.15
13 -0.15
14 -0.15
15 0.08
16 -0.15
17 0.08
18 0.08
19 0.08
2 -0.36
20 0.28
21 0.28
22 0.28
23 0.15
24 0.15
25 0.15
26 0.15
27 0.15
3 -0.36
31 0.45
32 0.45
4 -0.53
5 -0.53

> <PUBCHEM_EFFECTIVE_ROTOR_COUNT>
3

> <PUBCHEM_PHARMACOPHORE_FEATURES>
8
1 1 acceptor
1 2 acceptor
1 3 acceptor
1 4 donor
1 5 donor
6 6 7 8 9 11 12 rings
6 6 8 10 14 15 17 rings
6 7 9 13 16 18 19 rings

> <PUBCHEM_HEAVY_ATOM_COUNT>
22

> <PUBCHEM_ATOM_DEF_STEREO_COUNT>
0

> <PUBCHEM_ATOM_UDEF_STEREO_COUNT>
0

> <PUBCHEM_BOND_DEF_STEREO_COUNT>
0

> <PUBCHEM_BOND_UDEF_STEREO_COUNT>
0

> <PUBCHEM_ISOTOPIC_ATOM_COUNT>
0

> <PUBCHEM_COMPONENT_COUNT>
1

> <PUBCHEM_CACTVS_TAUTO_COUNT>
8

> <PUBCHEM_CONFORMER_ID>
0005719E00000001

> <PUBCHEM_MMFF94_ENERGY>
108.4576

> <PUBCHEM_FEATURE_SELFOVERLAP>
40.654

> <PUBCHEM_SHAPE_FINGERPRINT>
10062212 137 18411978079096968563
10616163 171 18412268350018839559
10759866 29 18114191834761602492
10906281 52 18265073382634516417
10967382 1 18410577287981529132
11578080 2 17488164067549625257
12553582 1 18339082588352403231
12596599 1 17916325907917305807
12633257 1 18339366249520351643
12839892 36 18269260292969908642
13140716 1 18412259502307244632
14117953 113 18198619935123476735
14178342 30 17837488553684311608
14223421 5 18195249910219167516
14576447 43 18267300009449525694
14787075 74 18188211026125822184
14790565 3 18121227729706260108
15196674 1 18410294722082904434
15442244 35 18337111163787737448
16945 1 18051136891302431500
17492 89 18409730655549782490
1813 80 17313109643842660285
19141452 34 18413393125103264425
19591789 44 18268149932122354340
200 152 18202279226000888629
20028762 73 17771628124650303407
20905425 154 18411422782738196204
21267235 1 18337684035062611577
21421861 104 17970913249821134507
21501502 16 18409172094946650024
221490 88 18191031311947465963
2334 1 18411140280969045436
23402539 116 18341891935061175116
23463225 33 18408888421168281836
23559900 14 18339357449385666936
2748010 2 18411134757709882532
335352 9 18193276291184650541
34934 24 18409728435488533321
4409770 3 16380562980698650316
5104073 3 18410858733083386761
8809292 202 18261117339686742419
9709674 26 18197500614753057807

> <PUBCHEM_SHAPE_MULTIPOLES>
423.4
8.17
3.39
0.79
1.12
0.1
0.01
3.23
0.75
0.17
-0.39
-0.18
0.38
-0.9

> <PUBCHEM_SHAPE_SELFOVERLAP>
938.818

> <PUBCHEM_SHAPE_VOLUME>
228.9

> <PUBCHEM_COORDINATE_TYPE>
2
5
10

$$$$
