10401022
  -OEChem-09172011113D

 36 38  0     0  0  0  0  0  0999 V2000
   -0.9050   -2.0541    0.2067 O   0  0  0  0  0  0  0  0  0  0  0  0
   -3.4898   -1.3665    0.3298 O   0  0  0  0  0  0  0  0  0  0  0  0
   -4.2594    1.2822    0.2436 O   0  0  0  0  0  0  0  0  0  0  0  0
    5.3786   -0.7832    0.0172 O   0  0  0  0  0  0  0  0  0  0  0  0
    0.4132    2.7264    0.0271 C   0  0  0  0  0  0  0  0  0  0  0  0
    1.6447    2.2949   -0.7689 C   0  0  0  0  0  0  0  0  0  0  0  0
   -0.6161    1.6235    0.0910 C   0  0  0  0  0  0  0  0  0  0  0  0
   -0.1922    0.2754    0.1673 C   0  0  0  0  0  0  0  0  0  0  0  0
    2.1686    0.9608   -0.2937 C   0  0  0  0  0  0  0  0  0  0  0  0
    1.2597   -0.0299    0.1481 C   0  0  0  0  0  0  0  0  0  0  0  0
   -1.1855   -0.7170    0.2437 C   0  0  0  0  0  0  0  0  0  0  0  0
   -1.9799    1.9502    0.1315 C   0  0  0  0  0  0  0  0  0  0  0  0
    3.5455    0.6977   -0.3488 C   0  0  0  0  0  0  0  0  0  0  0  0
    1.7913   -1.2634    0.5646 C   0  0  0  0  0  0  0  0  0  0  0  0
   -2.5433   -0.3848    0.2677 C   0  0  0  0  0  0  0  0  0  0  0  0
   -2.9398    0.9468    0.2162 C   0  0  0  0  0  0  0  0  0  0  0  0
    4.0416   -0.5356    0.0616 C   0  0  0  0  0  0  0  0  0  0  0  0
    3.1664   -1.5127    0.5220 C   0  0  0  0  0  0  0  0  0  0  0  0
   -0.8824   -2.6718   -1.0764 C   0  0  0  0  0  0  0  0  0  0  0  0
   -4.4163   -1.4390   -0.7504 C   0  0  0  0  0  0  0  0  0  0  0  0
   -0.0109    3.6243   -0.4378 H   0  0  0  0  0  0  0  0  0  0  0  0
    0.6974    2.9884    1.0544 H   0  0  0  0  0  0  0  0  0  0  0  0
    2.4158    3.0686   -0.6737 H   0  0  0  0  0  0  0  0  0  0  0  0
    1.3959    2.2045   -1.8340 H   0  0  0  0  0  0  0  0  0  0  0  0
   -2.2842    2.9936    0.0936 H   0  0  0  0  0  0  0  0  0  0  0  0
    4.2318    1.4597   -0.7107 H   0  0  0  0  0  0  0  0  0  0  0  0
    1.1838   -2.0523    0.9921 H   0  0  0  0  0  0  0  0  0  0  0  0
    3.5402   -2.4749    0.8628 H   0  0  0  0  0  0  0  0  0  0  0  0
   -4.3424    2.2501    0.1962 H   0  0  0  0  0  0  0  0  0  0  0  0
   -0.2745   -2.0979   -1.7835 H   0  0  0  0  0  0  0  0  0  0  0  0
   -1.8971   -2.7867   -1.4673 H   0  0  0  0  0  0  0  0  0  0  0  0
   -0.4404   -3.6663   -0.9680 H   0  0  0  0  0  0  0  0  0  0  0  0
    5.5431   -1.6864    0.3386 H   0  0  0  0  0  0  0  0  0  0  0  0
   -4.0026   -1.0349   -1.6811 H   0  0  0  0  0  0  0  0  0  0  0  0
   -5.3405   -0.9172   -0.4869 H   0  0  0  0  0  0  0  0  0  0  0  0
   -4.6593   -2.4929   -0.9155 H   0  0  0  0  0  0  0  0  0  0  0  0
  1 11  1  0  0  0  0
  1 19  1  0  0  0  0
  2 15  1  0  0  0  0
  2 20  1  0  0  0  0
  3 16  1  0  0  0  0
  3 29  1  0  0  0  0
  4 17  1  0  0  0  0
  4 33  1  0  0  0  0
  5  6  1  0  0  0  0
  5  7  1  0  0  0  0
  5 21  1  0  0  0  0
  5 22  1  0  0  0  0
  6  9  1  0  0  0  0
  6 23  1  0  0  0  0
  6 24  1  0  0  0  0
  7  8  1  0  0  0  0
  7 12  2  0  0  0  0
  8 10  1  0  0  0  0
  8 11  2  0  0  0  0
  9 10  2  0  0  0  0
  9 13  1  0  0  0  0
 10 14  1  0  0  0  0
 11 15  1  0  0  0  0
 12 16  1  0  0  0  0
 12 25  1  0  0  0  0
 13 17  2  0  0  0  0
 13 26  1  0  0  0  0
 14 18  2  0  0  0  0
 14 27  1  0  0  0  0
 15 16  2  0  0  0  0
 17 18  1  0  0  0  0
 18 28  1  0  0  0  0
 19 30  1  0  0  0  0
 19 31  1  0  0  0  0
 19 32  1  0  0  0  0
 20 34  1  0  0  0  0
 20 35  1  0  0  0  0
 20 36  1  0  0  0  0
M  END
> <PUBCHEM_COMPOUND_CID>
10401022

> <PUBCHEM_CONFORMER_RMSD>
0.6

> <PUBCHEM_CONFORMER_DIVERSEORDER>
1
3
2

> <PUBCHEM_MMFF94_PARTIAL_CHARGES>
24
1 -0.36
11 0.08
12 -0.15
13 -0.15
14 -0.15
15 0.08
16 0.08
17 0.08
18 -0.15
19 0.28
2 -0.36
20 0.28
25 0.15
26 0.15
27 0.15
28 0.15
29 0.45
3 -0.53
33 0.45
4 -0.53
5 0.14
6 0.14
7 -0.14
9 -0.14

> <PUBCHEM_EFFECTIVE_ROTOR_COUNT>
2.4

> <PUBCHEM_PHARMACOPHORE_FEATURES>
7
1 1 acceptor
1 2 acceptor
1 3 donor
1 4 donor
6 5 6 7 8 9 10 rings
6 7 8 11 12 15 16 rings
6 9 10 13 14 17 18 rings

> <PUBCHEM_HEAVY_ATOM_COUNT>
20

> <PUBCHEM_ATOM_DEF_STEREO_COUNT>
0

> <PUBCHEM_ATOM_UDEF_STEREO_COUNT>
0

> <PUBCHEM_BOND_DEF_STEREO_COUNT>
0

> <PUBCHEM_BOND_UDEF_STEREO_COUNT>
0

> <PUBCHEM_ISOTOPIC_ATOM_COUNT>
0

> <PUBCHEM_COMPONENT_COUNT>
1

> <PUBCHEM_CACTVS_TAUTO_COUNT>
74

> <PUBCHEM_CONFORMER_ID>
009EB4FE00000001

> <PUBCHEM_MMFF94_ENERGY>
82.5867

> <PUBCHEM_FEATURE_SELFOVERLAP>
35.573

> <PUBCHEM_SHAPE_FINGERPRINT>
10062212 137 18413387644577165255
10616163 171 18411984628595190223
10967382 1 18265335014624578920
11132069 177 18339642235233426353
11578080 2 17751334331351916580
11680986 33 18120091938325236697
11806522 49 18408040732273910536
12236239 1 17967819306142683720
12553582 1 18410002261007508338
13140716 1 18411991269179119753
13221675 6 18335702771160380818
14790565 3 18050576148857432945
15196674 1 18409450301664264464
15375462 189 18113620049675474504
15442244 35 18410012160484749136
15536298 74 18412545444329647712
16752209 62 18412254043525078419
16945 1 18194402427399038233
17804303 29 18343023285392467864
18186145 218 17023182755645659161
19591789 44 18338237166816032099
200 152 18410571794749778689
20028762 73 17987797544390243799
20510252 161 18056478344676249920
21029758 11 18412258462883045233
21267235 1 18409176518900238442
21501502 16 18337960081580851405
21634736 98 18264774444452350364
221490 88 18189062064772840347
2334 1 18410013212804601169
23402539 116 18342451521949754054
23419403 2 16113091743980967088
23463225 33 18336267855501434688
23557571 272 18060703883403539714
23559900 14 18342736326127843592
238 59 14671699379525023590
25147074 1 18341064003238444009
2748010 2 17040360112506029309
335352 9 18409450245718959141
34934 24 18335135389096011768
350125 39 18410296926161120433
4340502 62 13398361217523544159
465052 167 18267314316634967651
5104073 3 18410013255891619984
69090 78 18411979139658264234
7364860 26 18268429225372080480
7832392 63 18410291454077093810
90525 40 18342461443208410095
9709674 26 18410864247948364650
9981440 41 17254275043329622816

> <PUBCHEM_SHAPE_MULTIPOLES>
388.11
7.77
2.8
0.78
1.65
0.36
-0.1
-2.35
-0.15
-0.67
-0.44
-0.06
-0.16
-0.83

> <PUBCHEM_SHAPE_SELFOVERLAP>
854.869

> <PUBCHEM_SHAPE_VOLUME>
209.4

> <PUBCHEM_COORDINATE_TYPE>
2
5
10

$$$$
