14863073
  -OEChem-09172011153D

 62 67  0     0  0  0  0  0  0999 V2000
   -1.3053    0.1434   -1.2571 O   0  0  0  0  0  0  0  0  0  0  0  0
    4.3508   -1.8354   -1.8277 O   0  0  0  0  0  0  0  0  0  0  0  0
    0.0539   -2.4583    2.4799 O   0  0  0  0  0  0  0  0  0  0  0  0
   -0.0877   -3.2086   -1.1424 O   0  0  0  0  0  0  0  0  0  0  0  0
    7.0379    3.2495    1.0457 O   0  0  0  0  0  0  0  0  0  0  0  0
   -7.1226    2.7380   -1.8470 O   0  0  0  0  0  0  0  0  0  0  0  0
    1.7212   -0.3428    0.2945 C   0  0  0  0  0  0  0  0  0  0  0  0
    1.4764    0.7990    1.2516 C   0  0  0  0  0  0  0  0  0  0  0  0
    0.6853   -1.2466    0.0149 C   0  0  0  0  0  0  0  0  0  0  0  0
    3.0088   -0.5222   -0.2651 C   0  0  0  0  0  0  0  0  0  0  0  0
   -2.9035   -0.2090    0.5388 C   0  0  0  0  0  0  0  0  0  0  0  0
    2.2920    2.0336    0.8680 C   0  0  0  0  0  0  0  0  0  0  0  0
   -3.1626   -0.8711    1.7625 C   0  0  0  0  0  0  0  0  0  0  0  0
   -0.6300   -1.1028    0.6172 C   0  0  0  0  0  0  0  0  0  0  0  0
   -4.5175   -0.7310    2.4140 C   0  0  0  0  0  0  0  0  0  0  0  0
    4.0869    0.4388    0.0748 C   0  0  0  0  0  0  0  0  0  0  0  0
    3.7449    1.6875    0.6464 C   0  0  0  0  0  0  0  0  0  0  0  0
   -5.6321   -0.6464    1.3713 C   0  0  0  0  0  0  0  0  0  0  0  0
   -1.6219   -0.3529   -0.0219 C   0  0  0  0  0  0  0  0  0  0  0  0
   -3.9833    0.5841   -0.0989 C   0  0  0  0  0  0  0  0  0  0  0  0
   -5.3221    0.3877    0.3157 C   0  0  0  0  0  0  0  0  0  0  0  0
   -0.8959   -1.7258    1.8313 C   0  0  0  0  0  0  0  0  0  0  0  0
   -2.1575   -1.6087    2.4058 C   0  0  0  0  0  0  0  0  0  0  0  0
    3.1951   -1.6096   -1.1370 C   0  0  0  0  0  0  0  0  0  0  0  0
    0.9020   -2.3187   -0.8448 C   0  0  0  0  0  0  0  0  0  0  0  0
    2.1536   -2.4973   -1.4233 C   0  0  0  0  0  0  0  0  0  0  0  0
    5.4513    0.1672   -0.1300 C   0  0  0  0  0  0  0  0  0  0  0  0
    4.7366    2.6302    0.9564 C   0  0  0  0  0  0  0  0  0  0  0  0
   -3.7441    1.5447   -1.0975 C   0  0  0  0  0  0  0  0  0  0  0  0
   -6.3706    1.1019   -0.2834 C   0  0  0  0  0  0  0  0  0  0  0  0
    6.0783    2.3368    0.7341 C   0  0  0  0  0  0  0  0  0  0  0  0
    6.4352    1.1054    0.1963 C   0  0  0  0  0  0  0  0  0  0  0  0
   -6.1042    2.0397   -1.2759 C   0  0  0  0  0  0  0  0  0  0  0  0
   -4.7926    2.2641   -1.6787 C   0  0  0  0  0  0  0  0  0  0  0  0
   -1.5128   -0.7211   -2.3689 C   0  0  0  0  0  0  0  0  0  0  0  0
    4.4563   -1.2435   -3.1196 C   0  0  0  0  0  0  0  0  0  0  0  0
    0.4283    1.1099    1.2856 H   0  0  0  0  0  0  0  0  0  0  0  0
    1.7534    0.4631    2.2595 H   0  0  0  0  0  0  0  0  0  0  0  0
    1.9006    2.4749   -0.0575 H   0  0  0  0  0  0  0  0  0  0  0  0
    2.1917    2.7840    1.6611 H   0  0  0  0  0  0  0  0  0  0  0  0
   -4.7172   -1.5817    3.0763 H   0  0  0  0  0  0  0  0  0  0  0  0
   -4.5069    0.1752    3.0330 H   0  0  0  0  0  0  0  0  0  0  0  0
   -5.7600   -1.6157    0.8728 H   0  0  0  0  0  0  0  0  0  0  0  0
   -6.5740   -0.4089    1.8797 H   0  0  0  0  0  0  0  0  0  0  0  0
   -2.3633   -2.0942    3.3569 H   0  0  0  0  0  0  0  0  0  0  0  0
    2.3169   -3.3270   -2.1077 H   0  0  0  0  0  0  0  0  0  0  0  0
    5.8126   -0.7889   -0.4901 H   0  0  0  0  0  0  0  0  0  0  0  0
    4.4596    3.5950    1.3749 H   0  0  0  0  0  0  0  0  0  0  0  0
   -2.7483    1.8254   -1.4198 H   0  0  0  0  0  0  0  0  0  0  0  0
   -7.3975    0.9263    0.0285 H   0  0  0  0  0  0  0  0  0  0  0  0
    7.4802    0.8545    0.0326 H   0  0  0  0  0  0  0  0  0  0  0  0
   -4.5665    3.0069   -2.4395 H   0  0  0  0  0  0  0  0  0  0  0  0
    0.8970   -2.4495    2.0009 H   0  0  0  0  0  0  0  0  0  0  0  0
   -0.8777   -3.0591   -0.6007 H   0  0  0  0  0  0  0  0  0  0  0  0
   -2.0489   -1.6387   -2.1045 H   0  0  0  0  0  0  0  0  0  0  0  0
   -0.5520   -0.9610   -2.8308 H   0  0  0  0  0  0  0  0  0  0  0  0
   -2.1101   -0.1838   -3.1120 H   0  0  0  0  0  0  0  0  0  0  0  0
    4.2616   -0.1670   -3.0776 H   0  0  0  0  0  0  0  0  0  0  0  0
    3.7595   -1.7217   -3.8152 H   0  0  0  0  0  0  0  0  0  0  0  0
    5.4750   -1.3993   -3.4854 H   0  0  0  0  0  0  0  0  0  0  0  0
    7.9096    2.8783    0.8259 H   0  0  0  0  0  0  0  0  0  0  0  0
   -6.7551    3.3432   -2.5140 H   0  0  0  0  0  0  0  0  0  0  0  0
  1 19  1  0  0  0  0
  1 35  1  0  0  0  0
  2 24  1  0  0  0  0
  2 36  1  0  0  0  0
  3 22  1  0  0  0  0
  3 53  1  0  0  0  0
  4 25  1  0  0  0  0
  4 54  1  0  0  0  0
  5 31  1  0  0  0  0
  5 61  1  0  0  0  0
  6 33  1  0  0  0  0
  6 62  1  0  0  0  0
  7  8  1  0  0  0  0
  7  9  2  0  0  0  0
  7 10  1  0  0  0  0
  8 12  1  0  0  0  0
  8 37  1  0  0  0  0
  8 38  1  0  0  0  0
  9 14  1  0  0  0  0
  9 25  1  0  0  0  0
 10 16  1  0  0  0  0
 10 24  2  0  0  0  0
 11 13  1  0  0  0  0
 11 19  2  0  0  0  0
 11 20  1  0  0  0  0
 12 17  1  0  0  0  0
 12 39  1  0  0  0  0
 12 40  1  0  0  0  0
 13 15  1  0  0  0  0
 13 23  2  0  0  0  0
 14 19  1  0  0  0  0
 14 22  2  0  0  0  0
 15 18  1  0  0  0  0
 15 41  1  0  0  0  0
 15 42  1  0  0  0  0
 16 17  2  0  0  0  0
 16 27  1  0  0  0  0
 17 28  1  0  0  0  0
 18 21  1  0  0  0  0
 18 43  1  0  0  0  0
 18 44  1  0  0  0  0
 20 21  2  0  0  0  0
 20 29  1  0  0  0  0
 21 30  1  0  0  0  0
 22 23  1  0  0  0  0
 23 45  1  0  0  0  0
 24 26  1  0  0  0  0
 25 26  2  0  0  0  0
 26 46  1  0  0  0  0
 27 32  2  0  0  0  0
 27 47  1  0  0  0  0
 28 31  2  0  0  0  0
 28 48  1  0  0  0  0
 29 34  2  0  0  0  0
 29 49  1  0  0  0  0
 30 33  2  0  0  0  0
 30 50  1  0  0  0  0
 31 32  1  0  0  0  0
 32 51  1  0  0  0  0
 33 34  1  0  0  0  0
 34 52  1  0  0  0  0
 35 55  1  0  0  0  0
 35 56  1  0  0  0  0
 35 57  1  0  0  0  0
 36 58  1  0  0  0  0
 36 59  1  0  0  0  0
 36 60  1  0  0  0  0
M  END
> <PUBCHEM_COMPOUND_CID>
14863073

> <PUBCHEM_CONFORMER_RMSD>
0.8

> <PUBCHEM_CONFORMER_DIVERSEORDER>
1
2

> <PUBCHEM_MMFF94_PARTIAL_CHARGES>
42
1 -0.36
12 0.14
13 -0.14
15 0.14
17 -0.14
18 0.14
19 0.08
2 -0.36
21 -0.14
22 0.08
23 -0.15
24 0.08
25 0.08
26 -0.15
27 -0.15
28 -0.15
29 -0.15
3 -0.53
30 -0.15
31 0.08
32 -0.15
33 0.08
34 -0.15
35 0.28
36 0.28
4 -0.53
45 0.15
46 0.15
47 0.15
48 0.15
49 0.15
5 -0.53
50 0.15
51 0.15
52 0.15
53 0.45
54 0.45
6 -0.53
61 0.45
62 0.45
7 -0.14
8 0.14

> <PUBCHEM_EFFECTIVE_ROTOR_COUNT>
3.8

> <PUBCHEM_PHARMACOPHORE_FEATURES>
12
1 1 acceptor
1 2 acceptor
1 3 donor
1 4 donor
1 5 donor
1 6 donor
6 11 13 14 19 22 23 rings
6 11 13 15 18 20 21 rings
6 16 17 27 28 31 32 rings
6 20 21 29 30 33 34 rings
6 7 8 10 12 16 17 rings
6 7 9 10 24 25 26 rings

> <PUBCHEM_HEAVY_ATOM_COUNT>
36

> <PUBCHEM_ATOM_DEF_STEREO_COUNT>
0

> <PUBCHEM_ATOM_UDEF_STEREO_COUNT>
0

> <PUBCHEM_BOND_DEF_STEREO_COUNT>
0

> <PUBCHEM_BOND_UDEF_STEREO_COUNT>
0

> <PUBCHEM_ISOTOPIC_ATOM_COUNT>
0

> <PUBCHEM_COMPONENT_COUNT>
1

> <PUBCHEM_CACTVS_TAUTO_COUNT>
986

> <PUBCHEM_CONFORMER_ID>
00E2CAE100000001

> <PUBCHEM_MMFF94_ENERGY>
152.0352

> <PUBCHEM_FEATURE_SELFOVERLAP>
60.989

> <PUBCHEM_SHAPE_FINGERPRINT>
10319926 262 17603590737628967658
11135926 11 17561092436162715548
11497681 19 17845085354947688607
11720765 8 17616241490917455083
12236239 1 16343434907473680403
12403259 415 18335149669846472739
12422481 6 18114461283867385844
12633257 1 16587744252308392942
12838862 33 17989480845721817048
13402501 40 18335698351449681289
13782708 43 18262814998531082203
13911987 19 17988645228535070329
14341114 328 15140970551622731331
14739800 52 17896588506226033433
15183329 4 16988841691795877868
15238133 3 17313109657165035020
15274700 147 15886862025773493292
15324884 4 18191617243960600039
19053607 189 17023748892976686549
19246450 95 13913419652447142189
19304671 126 18048587137282022085
20511986 3 16272210760861654992
20554085 129 17676485004566030337
21033648 144 18272376390526969039
21033648 29 18186809071512076065
21223535 225 17985560943932562209
21756936 100 18042391585999337400
21792965 68 17532066394109970756
21859007 373 18187080620619035660
22121540 332 18262795160393049620
23559900 14 17678470670757797679
244849 19 18335154054523343859
3388396 114 17632582647404007216
3459 39 17095517354084457743
44249763 50 18334013908932303079
504843 32 18058447793503582462
6058803 2 15982878579127207859
6697151 62 18054793875793839374
9658208 31 18040724649099530523
9849439 229 17026265606616282469

> <PUBCHEM_SHAPE_MULTIPOLES>
705.65
16.45
3.19
2.42
1.61
0.58
0.37
15.04
1.95
-2.13
0.4
1.19
-1.04
5.6

> <PUBCHEM_SHAPE_SELFOVERLAP>
1601.099

> <PUBCHEM_SHAPE_VOLUME>
366.4

> <PUBCHEM_COORDINATE_TYPE>
2
5
10

$$$$
