102477417
  -OEChem-09172011173D

 64 68  0     0  0  0  0  0  0999 V2000
   -1.5056   -1.0177   -2.5208 O   0  0  0  0  0  0  0  0  0  0  0  0
    2.4789    1.4575   -2.7577 O   0  0  0  0  0  0  0  0  0  0  0  0
    0.1504   -3.9041   -0.9049 O   0  0  0  0  0  0  0  0  0  0  0  0
    6.9233    1.5902    1.8862 O   0  0  0  0  0  0  0  0  0  0  0  0
   -3.5796   -4.5236    1.9858 O   0  0  0  0  0  0  0  0  0  0  0  0
   -2.1870    5.2204   -1.0843 O   0  0  0  0  0  0  0  0  0  0  0  0
    1.1955   -0.6922   -0.0415 C   0  0  0  0  0  0  0  0  0  0  0  0
    1.5495   -1.2008    1.3355 C   0  0  0  0  0  0  0  0  0  0  0  0
    2.1084    0.1361   -0.7368 C   0  0  0  0  0  0  0  0  0  0  0  0
    2.3524   -0.1654    2.1228 C   0  0  0  0  0  0  0  0  0  0  0  0
   -0.0089   -1.0924   -0.6393 C   0  0  0  0  0  0  0  0  0  0  0  0
    3.5180    0.3568    1.3174 C   0  0  0  0  0  0  0  0  0  0  0  0
    3.3843    0.5174   -0.0824 C   0  0  0  0  0  0  0  0  0  0  0  0
   -0.9367   -1.9795    0.0439 C   0  0  0  0  0  0  0  0  0  0  0  0
    1.7446    0.5711   -2.0235 C   0  0  0  0  0  0  0  0  0  0  0  0
   -0.3381   -0.6529   -1.9176 C   0  0  0  0  0  0  0  0  0  0  0  0
   -1.9410   -1.4537    0.8565 C   0  0  0  0  0  0  0  0  0  0  0  0
    0.5353    0.1809   -2.6069 C   0  0  0  0  0  0  0  0  0  0  0  0
    4.7008    0.7309    1.9726 C   0  0  0  0  0  0  0  0  0  0  0  0
    4.4895    1.0237   -0.7891 C   0  0  0  0  0  0  0  0  0  0  0  0
   -2.0987    0.0204    1.0534 C   0  0  0  0  0  0  0  0  0  0  0  0
   -0.8207   -3.3603   -0.1164 C   0  0  0  0  0  0  0  0  0  0  0  0
   -3.2705    0.6335    0.2647 C   0  0  0  0  0  0  0  0  0  0  0  0
    5.7747    1.2379    1.2478 C   0  0  0  0  0  0  0  0  0  0  0  0
   -2.8294   -2.3085    1.5089 C   0  0  0  0  0  0  0  0  0  0  0  0
    5.6708    1.3795   -0.1314 C   0  0  0  0  0  0  0  0  0  0  0  0
   -1.7090   -4.2152    0.5359 C   0  0  0  0  0  0  0  0  0  0  0  0
   -2.7134   -3.6894    1.3486 C   0  0  0  0  0  0  0  0  0  0  0  0
   -3.3963    2.1263    0.4484 C   0  0  0  0  0  0  0  0  0  0  0  0
   -1.7420   -0.5098   -3.8318 C   0  0  0  0  0  0  0  0  0  0  0  0
   -2.7246    2.9941   -0.4127 C   0  0  0  0  0  0  0  0  0  0  0  0
   -4.1849    2.6382    1.4788 C   0  0  0  0  0  0  0  0  0  0  0  0
    0.1829   -5.3261   -1.0020 C   0  0  0  0  0  0  0  0  0  0  0  0
   -2.8414    4.3736   -0.2433 C   0  0  0  0  0  0  0  0  0  0  0  0
   -4.3017    4.0177    1.6483 C   0  0  0  0  0  0  0  0  0  0  0  0
   -3.6300    4.8855    0.7871 C   0  0  0  0  0  0  0  0  0  0  0  0
    0.6717   -1.4469    1.9396 H   0  0  0  0  0  0  0  0  0  0  0  0
    2.1360   -2.1213    1.2173 H   0  0  0  0  0  0  0  0  0  0  0  0
    2.7032   -0.6244    3.0548 H   0  0  0  0  0  0  0  0  0  0  0  0
    1.7139    0.6858    2.3922 H   0  0  0  0  0  0  0  0  0  0  0  0
    0.3234    0.5685   -3.5975 H   0  0  0  0  0  0  0  0  0  0  0  0
    4.7766    0.6207    3.0520 H   0  0  0  0  0  0  0  0  0  0  0  0
    4.5037    1.1151   -1.8690 H   0  0  0  0  0  0  0  0  0  0  0  0
   -2.2585    0.2049    2.1259 H   0  0  0  0  0  0  0  0  0  0  0  0
   -1.1802    0.5750    0.8346 H   0  0  0  0  0  0  0  0  0  0  0  0
   -4.2146    0.1555    0.5581 H   0  0  0  0  0  0  0  0  0  0  0  0
   -3.1607    0.4134   -0.8047 H   0  0  0  0  0  0  0  0  0  0  0  0
   -3.6126   -1.9003    2.1435 H   0  0  0  0  0  0  0  0  0  0  0  0
    6.5103    1.7601   -0.7075 H   0  0  0  0  0  0  0  0  0  0  0  0
   -1.6785   -5.2967    0.4578 H   0  0  0  0  0  0  0  0  0  0  0  0
    2.0505    1.6317   -3.6125 H   0  0  0  0  0  0  0  0  0  0  0  0
   -0.9983   -0.8732   -4.5494 H   0  0  0  0  0  0  0  0  0  0  0  0
   -1.8334    0.5819   -3.8331 H   0  0  0  0  0  0  0  0  0  0  0  0
   -2.7102   -0.9050   -4.1572 H   0  0  0  0  0  0  0  0  0  0  0  0
   -2.1084    2.5936   -1.2143 H   0  0  0  0  0  0  0  0  0  0  0  0
   -4.7113    1.9720    2.1571 H   0  0  0  0  0  0  0  0  0  0  0  0
    6.8188    1.4241    2.8389 H   0  0  0  0  0  0  0  0  0  0  0  0
    1.0148   -5.5826   -1.6665 H   0  0  0  0  0  0  0  0  0  0  0  0
   -0.7258   -5.7216   -1.4686 H   0  0  0  0  0  0  0  0  0  0  0  0
    0.3974   -5.7938   -0.0349 H   0  0  0  0  0  0  0  0  0  0  0  0
   -4.2071   -3.9911    2.5040 H   0  0  0  0  0  0  0  0  0  0  0  0
   -4.9153    4.4163    2.4509 H   0  0  0  0  0  0  0  0  0  0  0  0
   -3.7251    5.9592    0.9240 H   0  0  0  0  0  0  0  0  0  0  0  0
   -1.6897    4.6962   -1.7355 H   0  0  0  0  0  0  0  0  0  0  0  0
  1 16  1  0  0  0  0
  1 30  1  0  0  0  0
  2 15  1  0  0  0  0
  2 51  1  0  0  0  0
  3 22  1  0  0  0  0
  3 33  1  0  0  0  0
  4 24  1  0  0  0  0
  4 57  1  0  0  0  0
  5 28  1  0  0  0  0
  5 61  1  0  0  0  0
  6 34  1  0  0  0  0
  6 64  1  0  0  0  0
  7  8  1  0  0  0  0
  7  9  2  0  0  0  0
  7 11  1  0  0  0  0
  8 10  1  0  0  0  0
  8 37  1  0  0  0  0
  8 38  1  0  0  0  0
  9 13  1  0  0  0  0
  9 15  1  0  0  0  0
 10 12  1  0  0  0  0
 10 39  1  0  0  0  0
 10 40  1  0  0  0  0
 11 14  1  0  0  0  0
 11 16  2  0  0  0  0
 12 13  2  0  0  0  0
 12 19  1  0  0  0  0
 13 20  1  0  0  0  0
 14 17  2  0  0  0  0
 14 22  1  0  0  0  0
 15 18  2  0  0  0  0
 16 18  1  0  0  0  0
 17 21  1  0  0  0  0
 17 25  1  0  0  0  0
 18 41  1  0  0  0  0
 19 24  2  0  0  0  0
 19 42  1  0  0  0  0
 20 26  2  0  0  0  0
 20 43  1  0  0  0  0
 21 23  1  0  0  0  0
 21 44  1  0  0  0  0
 21 45  1  0  0  0  0
 22 27  2  0  0  0  0
 23 29  1  0  0  0  0
 23 46  1  0  0  0  0
 23 47  1  0  0  0  0
 24 26  1  0  0  0  0
 25 28  2  0  0  0  0
 25 48  1  0  0  0  0
 26 49  1  0  0  0  0
 27 28  1  0  0  0  0
 27 50  1  0  0  0  0
 29 31  2  0  0  0  0
 29 32  1  0  0  0  0
 30 52  1  0  0  0  0
 30 53  1  0  0  0  0
 30 54  1  0  0  0  0
 31 34  1  0  0  0  0
 31 55  1  0  0  0  0
 32 35  2  0  0  0  0
 32 56  1  0  0  0  0
 33 58  1  0  0  0  0
 33 59  1  0  0  0  0
 33 60  1  0  0  0  0
 34 36  2  0  0  0  0
 35 36  1  0  0  0  0
 35 62  1  0  0  0  0
 36 63  1  0  0  0  0
M  END
> <PUBCHEM_COMPOUND_CID>
102477417

> <PUBCHEM_CONFORMER_RMSD>
1

> <PUBCHEM_CONFORMER_DIVERSEORDER>
1
6
23
25
14
22
24
2
26
20
30
16
15
19
21
12
27
29
8
35
7
13
4
32
33
34
10
9
28
18
17
3
5
11
31

> <PUBCHEM_MMFF94_PARTIAL_CHARGES>
46
1 -0.36
10 0.14
12 -0.14
15 0.08
16 0.08
17 -0.14
18 -0.15
19 -0.15
2 -0.53
20 -0.15
21 0.14
22 0.08
23 0.14
24 0.08
25 -0.15
26 -0.15
27 -0.15
28 0.08
29 -0.14
3 -0.36
30 0.28
31 -0.15
32 -0.15
33 0.28
34 0.08
35 -0.15
36 -0.15
4 -0.53
41 0.15
42 0.15
43 0.15
48 0.15
49 0.15
5 -0.53
50 0.15
51 0.45
55 0.15
56 0.15
57 0.45
6 -0.53
61 0.45
62 0.15
63 0.15
64 0.45
7 -0.14
8 0.14

> <PUBCHEM_EFFECTIVE_ROTOR_COUNT>
6.4

> <PUBCHEM_PHARMACOPHORE_FEATURES>
11
1 1 acceptor
1 2 donor
1 3 acceptor
1 4 donor
1 5 donor
1 6 donor
6 12 13 19 20 24 26 rings
6 14 17 22 25 27 28 rings
6 29 31 32 34 35 36 rings
6 7 8 9 10 12 13 rings
6 7 9 11 15 16 18 rings

> <PUBCHEM_HEAVY_ATOM_COUNT>
36

> <PUBCHEM_ATOM_DEF_STEREO_COUNT>
0

> <PUBCHEM_ATOM_UDEF_STEREO_COUNT>
0

> <PUBCHEM_BOND_DEF_STEREO_COUNT>
0

> <PUBCHEM_BOND_UDEF_STEREO_COUNT>
0

> <PUBCHEM_ISOTOPIC_ATOM_COUNT>
0

> <PUBCHEM_COMPONENT_COUNT>
1

> <PUBCHEM_CACTVS_TAUTO_COUNT>
986

> <PUBCHEM_CONFORMER_ID>
061BAE6900000001

> <PUBCHEM_MMFF94_ENERGY>
136.6116

> <PUBCHEM_FEATURE_SELFOVERLAP>
55.869

> <PUBCHEM_SHAPE_FINGERPRINT>
10032420 55 17985517058378724657
10074138 170 18336557100596191505
10930396 42 17913190229551225978
11049842 53 18118712974845818134
11421498 54 17910069661681809383
11582403 64 17916582025454398823
11725454 13 17917713452846890677
11763715 3 17762893673404194254
12422481 6 17605829210544540952
12522641 24 17403757549451992841
12655364 131 17541335139302479714
12788726 201 18268969012709071831
13009979 54 17824548706079512994
13583140 156 17917430994934930178
13617811 41 18051708920627397255
13965767 371 17752212686370296041
14068700 675 17607521624784672459
14856354 85 17838342135901807206
15219462 58 18126538298011632610
15513586 35 17697030702023665256
15878777 1 17394209780737440127
15968369 153 17914606413418568464
16114785 44 18201706388515644232
16988056 13 17040631691540551376
17980427 26 17979905026154660111
20600515 1 17625284265428461691
21033648 29 18272377455842655288
21133410 221 17701511104654184936
21133410 32 15193846117379803228
21133410 90 18047738580566263159
21756936 100 18341321237287789360
22121540 332 18269288892851229935
23522609 53 17749406879812069396
238 59 16414634835160288289
3418910 222 17901107744252205048
3552219 110 17534072049104503294
376196 1 17913494541111628613
4616759 239 17755823689268595208
550186 7 18271821145665729860
6371380 46 18196093232081598526
9849439 229 18195251014432640049
9896288 288 18409171043244490354
9981440 41 18339366271032007915

> <PUBCHEM_SHAPE_MULTIPOLES>
705.65
9.93
7.04
2.77
12.92
2.62
2.15
-13
-6.45
-10.67
-1.43
0.32
0.25
1.01

> <PUBCHEM_SHAPE_SELFOVERLAP>
1569.572

> <PUBCHEM_SHAPE_VOLUME>
377.7

> <PUBCHEM_COORDINATE_TYPE>
2
5
10

$$$$
