10819499
  -OEChem-09172012082D

118122  0     1  0  0  0  0  0999 V2000
    6.0010   -2.5385    0.0000 O   0  0  0  0  0  0  0  0  0  0  0  0
    4.2690   -2.5385    0.0000 O   0  0  0  0  0  0  0  0  0  0  0  0
    6.0010   -4.5385    0.0000 O   0  0  0  0  0  0  0  0  0  0  0  0
    4.2690   -5.5385    0.0000 O   0  0  0  0  0  0  0  0  0  0  0  0
    2.5369   -4.5385    0.0000 O   0  0  0  0  0  0  0  0  0  0  0  0
   11.1972    4.4615    0.0000 O   0  0  0  0  0  0  0  0  0  0  0  0
   14.5010   -4.1365    0.0000 O   0  0  0  0  0  0  0  0  0  0  0  0
    6.8671   -0.0385    0.0000 O   0  0  0  0  0  0  0  0  0  0  0  0
    2.5369   -1.5385    0.0000 O   0  0  0  0  0  0  0  0  0  0  0  0
   10.3312    2.9615    0.0000 O   0  0  0  0  0  0  0  0  0  0  0  0
    8.5991    5.9615    0.0000 O   0  0  0  0  0  0  0  0  0  0  0  0
   10.3312    6.9615    0.0000 O   0  0  0  0  0  0  0  0  0  0  0  0
   13.0010   -3.2705    0.0000 O   0  0  0  0  0  0  0  0  0  0  0  0
   15.0010   -6.7346    0.0000 O   0  0  0  0  0  0  0  0  0  0  0  0
   13.0010   -6.7346    0.0000 O   0  0  0  0  0  0  0  0  0  0  0  0
    8.5991    3.9615    0.0000 O   0  0  0  0  0  0  0  0  0  0  0  0
   12.0010   -5.0026    0.0000 O   0  0  0  0  0  0  0  0  0  0  0  0
    5.6590    0.4012    0.0000 O   0  0  0  0  0  0  0  0  0  0  0  0
    8.5010   -2.4045    0.0000 O   0  0  0  0  0  0  0  0  0  0  0  0
    7.0010   -3.2705    0.0000 O   0  0  0  0  0  0  0  0  0  0  0  0
   12.9292    5.4615    0.0000 O   0  0  0  0  0  0  0  0  0  0  0  0
   16.5010   -4.1365    0.0000 O   0  0  0  0  0  0  0  0  0  0  0  0
    5.1350   -4.0385    0.0000 C   0  0  1  0  0  0  0  0  0  0  0  0
    5.1350   -3.0385    0.0000 C   0  0  2  0  0  0  0  0  0  0  0  0
    4.2690   -4.5385    0.0000 C   0  0  2  0  0  0  0  0  0  0  0  0
    3.4030   -4.0385    0.0000 C   0  0  1  0  0  0  0  0  0  0  0  0
    6.0010   -1.5385    0.0000 C   0  0  2  0  0  0  0  0  0  0  0  0
    3.4030   -3.0385    0.0000 C   0  0  1  0  0  0  0  0  0  0  0  0
    5.0010   -1.5385    0.0000 C   0  0  0  0  0  0  0  0  0  0  0  0
    4.5010   -0.6724    0.0000 C   0  0  0  0  0  0  0  0  0  0  0  0
    7.0010   -1.5385    0.0000 C   0  0  0  0  0  0  0  0  0  0  0  0
    2.5369   -2.5385    0.0000 C   0  0  0  0  0  0  0  0  0  0  0  0
    6.0010   -0.5385    0.0000 C   0  0  0  0  0  0  0  0  0  0  0  0
    9.4651    5.4615    0.0000 C   0  0  1  0  0  0  0  0  0  0  0  0
   10.3312    5.9615    0.0000 C   0  0  1  0  0  0  0  0  0  0  0  0
   14.5010   -5.8686    0.0000 C   0  0  1  0  0  0  0  0  0  0  0  0
   13.5010   -5.8686    0.0000 C   0  0  1  0  0  0  0  0  0  0  0  0
    9.4651    4.4615    0.0000 C   0  0  2  0  0  0  0  0  0  0  0  0
   11.1972    5.4615    0.0000 C   0  0  1  0  0  0  0  0  0  0  0  0
   15.0010   -5.0026    0.0000 C   0  0  1  0  0  0  0  0  0  0  0  0
   13.0010   -5.0026    0.0000 C   0  0  2  0  0  0  0  0  0  0  0  0
   10.3312    3.9615    0.0000 C   0  0  1  0  0  0  0  0  0  0  0  0
   13.5010   -4.1365    0.0000 C   0  0  1  0  0  0  0  0  0  0  0  0
    3.5010   -0.6724    0.0000 C   0  0  0  0  0  0  0  0  0  0  0  0
    4.3274    0.3124    0.0000 C   0  0  0  0  0  0  0  0  0  0  0  0
    7.5010   -2.4045    0.0000 C   0  0  0  0  0  0  0  0  0  0  0  0
   12.0632    5.9615    0.0000 C   0  0  0  0  0  0  0  0  0  0  0  0
   16.0010   -5.0026    0.0000 C   0  0  0  0  0  0  0  0  0  0  0  0
    6.8671    0.9615    0.0000 C   0  0  0  0  0  0  0  0  0  0  0  0
    9.4651    2.4615    0.0000 C   0  0  0  0  0  0  0  0  0  0  0  0
    7.7331    1.4615    0.0000 C   0  0  0  0  0  0  0  0  0  0  0  0
    9.0010   -3.2705    0.0000 C   0  0  0  0  0  0  0  0  0  0  0  0
   12.0010   -3.2705    0.0000 C   0  0  0  0  0  0  0  0  0  0  0  0
   10.0010   -3.2705    0.0000 C   0  0  0  0  0  0  0  0  0  0  0  0
    8.5991    2.9615    0.0000 C   0  0  0  0  0  0  0  0  0  0  0  0
    9.4651    1.4615    0.0000 C   0  0  0  0  0  0  0  0  0  0  0  0
    7.7331    2.4615    0.0000 C   0  0  0  0  0  0  0  0  0  0  0  0
    8.5991    0.9615    0.0000 C   0  0  0  0  0  0  0  0  0  0  0  0
   11.5010   -2.4045    0.0000 C   0  0  0  0  0  0  0  0  0  0  0  0
   11.5010   -4.1365    0.0000 C   0  0  0  0  0  0  0  0  0  0  0  0
   10.5010   -2.4045    0.0000 C   0  0  0  0  0  0  0  0  0  0  0  0
   10.5010   -4.1365    0.0000 C   0  0  0  0  0  0  0  0  0  0  0  0
    5.1350   -4.6585    0.0000 H   0  0  0  0  0  0  0  0  0  0  0  0
    5.1350   -2.4185    0.0000 H   0  0  0  0  0  0  0  0  0  0  0  0
    3.7320   -4.8485    0.0000 H   0  0  0  0  0  0  0  0  0  0  0  0
    3.4030   -4.6585    0.0000 H   0  0  0  0  0  0  0  0  0  0  0  0
    3.4030   -2.4185    0.0000 H   0  0  0  0  0  0  0  0  0  0  0  0
    4.4184   -1.7505    0.0000 H   0  0  0  0  0  0  0  0  0  0  0  0
    5.1087   -2.1490    0.0000 H   0  0  0  0  0  0  0  0  0  0  0  0
    5.0836   -0.4604    0.0000 H   0  0  0  0  0  0  0  0  0  0  0  0
    7.5836   -1.3264    0.0000 H   0  0  0  0  0  0  0  0  0  0  0  0
    6.8934   -0.9279    0.0000 H   0  0  0  0  0  0  0  0  0  0  0  0
    1.9264   -2.4308    0.0000 H   0  0  0  0  0  0  0  0  0  0  0  0
    2.3249   -3.1211    0.0000 H   0  0  0  0  0  0  0  0  0  0  0  0
    9.4651    6.0815    0.0000 H   0  0  0  0  0  0  0  0  0  0  0  0
   10.8681    6.2715    0.0000 H   0  0  0  0  0  0  0  0  0  0  0  0
   15.1210   -5.8686    0.0000 H   0  0  0  0  0  0  0  0  0  0  0  0
   13.8110   -6.4055    0.0000 H   0  0  0  0  0  0  0  0  0  0  0  0
    8.9282    4.7715    0.0000 H   0  0  0  0  0  0  0  0  0  0  0  0
   11.7341    5.1515    0.0000 H   0  0  0  0  0  0  0  0  0  0  0  0
   15.3110   -4.4656    0.0000 H   0  0  0  0  0  0  0  0  0  0  0  0
   12.6910   -5.5395    0.0000 H   0  0  0  0  0  0  0  0  0  0  0  0
    6.0010   -5.1585    0.0000 H   0  0  0  0  0  0  0  0  0  0  0  0
    3.7320   -5.8485    0.0000 H   0  0  0  0  0  0  0  0  0  0  0  0
    2.0000   -4.2285    0.0000 H   0  0  0  0  0  0  0  0  0  0  0  0
    9.7942    3.6515    0.0000 H   0  0  0  0  0  0  0  0  0  0  0  0
   12.8810   -4.1365    0.0000 H   0  0  0  0  0  0  0  0  0  0  0  0
    3.5010   -0.0524    0.0000 H   0  0  0  0  0  0  0  0  0  0  0  0
    2.8810   -0.6724    0.0000 H   0  0  0  0  0  0  0  0  0  0  0  0
    3.5010   -1.2924    0.0000 H   0  0  0  0  0  0  0  0  0  0  0  0
    4.9380    0.4200    0.0000 H   0  0  0  0  0  0  0  0  0  0  0  0
    4.2197    0.9230    0.0000 H   0  0  0  0  0  0  0  0  0  0  0  0
    3.7168    0.2047    0.0000 H   0  0  0  0  0  0  0  0  0  0  0  0
   12.4617    6.4365    0.0000 H   0  0  0  0  0  0  0  0  0  0  0  0
   11.6647    6.4365    0.0000 H   0  0  0  0  0  0  0  0  0  0  0  0
   15.8934   -5.6131    0.0000 H   0  0  0  0  0  0  0  0  0  0  0  0
   16.5836   -5.2146    0.0000 H   0  0  0  0  0  0  0  0  0  0  0  0
    2.0000   -1.2285    0.0000 H   0  0  0  0  0  0  0  0  0  0  0  0
    6.6550    1.5442    0.0000 H   0  0  0  0  0  0  0  0  0  0  0  0
    6.2565    0.8539    0.0000 H   0  0  0  0  0  0  0  0  0  0  0  0
    8.5991    6.5815    0.0000 H   0  0  0  0  0  0  0  0  0  0  0  0
   10.8681    7.2715    0.0000 H   0  0  0  0  0  0  0  0  0  0  0  0
   15.6210   -6.7346    0.0000 H   0  0  0  0  0  0  0  0  0  0  0  0
   13.3110   -7.2715    0.0000 H   0  0  0  0  0  0  0  0  0  0  0  0
    8.0622    4.2715    0.0000 H   0  0  0  0  0  0  0  0  0  0  0  0
   11.6910   -5.5395    0.0000 H   0  0  0  0  0  0  0  0  0  0  0  0
    8.4184   -3.4826    0.0000 H   0  0  0  0  0  0  0  0  0  0  0  0
    9.1087   -3.8811    0.0000 H   0  0  0  0  0  0  0  0  0  0  0  0
   13.4662    5.7715    0.0000 H   0  0  0  0  0  0  0  0  0  0  0  0
   17.1210   -4.1365    0.0000 H   0  0  0  0  0  0  0  0  0  0  0  0
    8.5991    3.5815    0.0000 H   0  0  0  0  0  0  0  0  0  0  0  0
   10.0021    1.1515    0.0000 H   0  0  0  0  0  0  0  0  0  0  0  0
    7.1962    2.7715    0.0000 H   0  0  0  0  0  0  0  0  0  0  0  0
    8.5991    0.3415    0.0000 H   0  0  0  0  0  0  0  0  0  0  0  0
   11.8110   -1.8676    0.0000 H   0  0  0  0  0  0  0  0  0  0  0  0
   11.8110   -4.6735    0.0000 H   0  0  0  0  0  0  0  0  0  0  0  0
   10.1910   -1.8676    0.0000 H   0  0  0  0  0  0  0  0  0  0  0  0
   10.1910   -4.6735    0.0000 H   0  0  0  0  0  0  0  0  0  0  0  0
 24  1  1  1  0  0  0
 27  1  1  1  0  0  0
  2 24  1  0  0  0  0
  2 28  1  0  0  0  0
 23  3  1  6  0  0  0
  3 83  1  0  0  0  0
 25  4  1  1  0  0  0
  4 84  1  0  0  0  0
 26  5  1  6  0  0  0
  5 85  1  0  0  0  0
  6 39  1  0  0  0  0
  6 42  1  0  0  0  0
  7 40  1  0  0  0  0
  7 43  1  0  0  0  0
  8 33  1  0  0  0  0
  8 49  1  0  0  0  0
  9 32  1  0  0  0  0
  9 98  1  0  0  0  0
 42 10  1  1  0  0  0
 10 50  1  0  0  0  0
 34 11  1  1  0  0  0
 11101  1  0  0  0  0
 35 12  1  6  0  0  0
 12102  1  0  0  0  0
 43 13  1  6  0  0  0
 13 53  1  0  0  0  0
 36 14  1  1  0  0  0
 14103  1  0  0  0  0
 37 15  1  6  0  0  0
 15104  1  0  0  0  0
 38 16  1  6  0  0  0
 16105  1  0  0  0  0
 41 17  1  1  0  0  0
 17106  1  0  0  0  0
 18 33  2  0  0  0  0
 19 46  1  0  0  0  0
 19 52  1  0  0  0  0
 20 46  2  0  0  0  0
 21 47  1  0  0  0  0
 21109  1  0  0  0  0
 22 48  1  0  0  0  0
 22110  1  0  0  0  0
 23 24  1  0  0  0  0
 23 25  1  0  0  0  0
 23 63  1  0  0  0  0
 24 64  1  0  0  0  0
 25 26  1  0  0  0  0
 25 65  1  0  0  0  0
 26 28  1  0  0  0  0
 26 66  1  0  0  0  0
 27 29  1  0  0  0  0
 27 31  1  0  0  0  0
 27 33  1  0  0  0  0
 28 32  1  1  0  0  0
 28 67  1  0  0  0  0
 29 30  1  0  0  0  0
 29 68  1  0  0  0  0
 29 69  1  0  0  0  0
 30 44  1  0  0  0  0
 30 45  1  0  0  0  0
 30 70  1  0  0  0  0
 31 46  1  0  0  0  0
 31 71  1  0  0  0  0
 31 72  1  0  0  0  0
 32 73  1  0  0  0  0
 32 74  1  0  0  0  0
 34 35  1  0  0  0  0
 34 38  1  0  0  0  0
 34 75  1  0  0  0  0
 35 39  1  0  0  0  0
 35 76  1  0  0  0  0
 36 37  1  0  0  0  0
 36 40  1  0  0  0  0
 36 77  1  0  0  0  0
 37 41  1  0  0  0  0
 37 78  1  0  0  0  0
 38 42  1  0  0  0  0
 38 79  1  0  0  0  0
 39 47  1  1  0  0  0
 39 80  1  0  0  0  0
 40 48  1  6  0  0  0
 40 81  1  0  0  0  0
 41 43  1  0  0  0  0
 41 82  1  0  0  0  0
 42 86  1  0  0  0  0
 43 87  1  0  0  0  0
 44 88  1  0  0  0  0
 44 89  1  0  0  0  0
 44 90  1  0  0  0  0
 45 91  1  0  0  0  0
 45 92  1  0  0  0  0
 45 93  1  0  0  0  0
 47 94  1  0  0  0  0
 47 95  1  0  0  0  0
 48 96  1  0  0  0  0
 48 97  1  0  0  0  0
 49 51  1  0  0  0  0
 49 99  1  0  0  0  0
 49100  1  0  0  0  0
 50 55  2  0  0  0  0
 50 56  1  0  0  0  0
 51 57  2  0  0  0  0
 51 58  1  0  0  0  0
 52 54  1  0  0  0  0
 52107  1  0  0  0  0
 52108  1  0  0  0  0
 53 59  2  0  0  0  0
 53 60  1  0  0  0  0
 54 61  2  0  0  0  0
 54 62  1  0  0  0  0
 55 57  1  0  0  0  0
 55111  1  0  0  0  0
 56 58  2  0  0  0  0
 56112  1  0  0  0  0
 57113  1  0  0  0  0
 58114  1  0  0  0  0
 59 61  1  0  0  0  0
 59115  1  0  0  0  0
 60 62  2  0  0  0  0
 60116  1  0  0  0  0
 61117  1  0  0  0  0
 62118  1  0  0  0  0
M  END
> <PUBCHEM_COMPOUND_CID>
10819499

> <PUBCHEM_COMPOUND_CANONICALIZED>
1

> <PUBCHEM_CACTVS_COMPLEXITY>
1380

> <PUBCHEM_CACTVS_HBOND_ACCEPTOR>
22

> <PUBCHEM_CACTVS_HBOND_DONOR>
12

> <PUBCHEM_CACTVS_ROTATABLE_BOND>
20

> <PUBCHEM_CACTVS_SUBSKEYS>
AAADcfB8PgAAAAAAAAAAAAAAAAAAAAAAAAA0aJECAAAAAAABQAAAGgAACAAADVSwmAMyDoAABgCIAiDSCAICCAAgIAAIiAFGCIgdNjaEMR6ieCCl4BEPqAfL6DwOIAAAAAAAAABAAAAAAAAAAAAAAAAAAA==

> <PUBCHEM_IUPAC_OPENEYE_NAME>
bis[[4-[(2S,3R,4S,5S,6R)-3,4,5-trihydroxy-6-(hydroxymethyl)tetrahydropyran-2-yl]oxyphenyl]methyl] (2R)-2-isobutyl-2-[(2S,3R,4S,5S,6R)-3,4,5-trihydroxy-6-(hydroxymethyl)tetrahydropyran-2-yl]oxy-butanedioate

> <PUBCHEM_IUPAC_CAS_NAME>
(2R)-2-(2-methylpropyl)-2-[[(2S,3R,4S,5S,6R)-3,4,5-trihydroxy-6-(hydroxymethyl)-2-oxanyl]oxy]butanedioic acid bis[[4-[[(2S,3R,4S,5S,6R)-3,4,5-trihydroxy-6-(hydroxymethyl)-2-oxanyl]oxy]phenyl]methyl] ester

> <PUBCHEM_IUPAC_NAME_MARKUP>
bis[[4-[(2<I>S</I>,3<I>R</I>,4<I>S</I>,5<I>S</I>,6<I>R</I>)-3,4,5-trihydroxy-6-(hydroxymethyl)oxan-2-yl]oxyphenyl]methyl] (2<I>R</I>)-2-(2-methylpropyl)-2-[(2<I>S</I>,3<I>R</I>,4<I>S</I>,5<I>S</I>,6<I>R</I>)-3,4,5-trihydroxy-6-(hydroxymethyl)oxan-2-yl]oxybutanedioate

> <PUBCHEM_IUPAC_NAME>
bis[[4-[(2S,3R,4S,5S,6R)-3,4,5-trihydroxy-6-(hydroxymethyl)oxan-2-yl]oxyphenyl]methyl] (2R)-2-(2-methylpropyl)-2-[(2S,3R,4S,5S,6R)-3,4,5-trihydroxy-6-(hydroxymethyl)oxan-2-yl]oxybutanedioate

> <PUBCHEM_IUPAC_SYSTEMATIC_NAME>
bis[[4-[(2S,3R,4S,5S,6R)-6-(hydroxymethyl)-3,4,5-tris(oxidanyl)oxan-2-yl]oxyphenyl]methyl] (2R)-2-[(2S,3R,4S,5S,6R)-6-(hydroxymethyl)-3,4,5-tris(oxidanyl)oxan-2-yl]oxy-2-(2-methylpropyl)butanedioate

> <PUBCHEM_IUPAC_TRADITIONAL_NAME>
(2R)-2-isobutyl-2-[(2S,3R,4S,5S,6R)-3,4,5-trihydroxy-6-methylol-tetrahydropyran-2-yl]oxy-succinic acid bis[4-[(2S,3R,4S,5S,6R)-3,4,5-trihydroxy-6-methylol-tetrahydropyran-2-yl]oxybenzyl] ester

> <PUBCHEM_IUPAC_INCHI>
InChI=1S/C40H56O22/c1-18(2)11-40(62-38-35(53)32(50)29(47)25(15-43)61-38,39(54)56-17-20-5-9-22(10-6-20)58-37-34(52)31(49)28(46)24(14-42)60-37)12-26(44)55-16-19-3-7-21(8-4-19)57-36-33(51)30(48)27(45)23(13-41)59-36/h3-10,18,23-25,27-38,41-43,45-53H,11-17H2,1-2H3/t23-,24-,25-,27-,28-,29-,30+,31+,32+,33-,34-,35-,36-,37-,38+,40-/m1/s1

> <PUBCHEM_IUPAC_INCHIKEY>
QUCKZYFUROTIBC-HDQVGPIMSA-N

> <PUBCHEM_XLOGP3_AA>
-2.1

> <PUBCHEM_EXACT_MASS>
888.326323

> <PUBCHEM_MOLECULAR_FORMULA>
C40H56O22

> <PUBCHEM_MOLECULAR_WEIGHT>
888.9

> <PUBCHEM_OPENEYE_CAN_SMILES>
CC(C)CC(CC(=O)OCC1=CC=C(C=C1)OC2C(C(C(C(O2)CO)O)O)O)(C(=O)OCC3=CC=C(C=C3)OC4C(C(C(C(O4)CO)O)O)O)OC5C(C(C(C(O5)CO)O)O)O

> <PUBCHEM_OPENEYE_ISO_SMILES>
CC(C)C[C@@](CC(=O)OCC1=CC=C(C=C1)O[C@H]2[C@@H]([C@H]([C@@H]([C@H](O2)CO)O)O)O)(C(=O)OCC3=CC=C(C=C3)O[C@H]4[C@@H]([C@H]([C@@H]([C@H](O4)CO)O)O)O)O[C@H]5[C@@H]([C@H]([C@@H]([C@H](O5)CO)O)O)O

> <PUBCHEM_CACTVS_TPSA>
351

> <PUBCHEM_MONOISOTOPIC_WEIGHT>
888.326323

> <PUBCHEM_TOTAL_CHARGE>
0

> <PUBCHEM_HEAVY_ATOM_COUNT>
62

> <PUBCHEM_ATOM_DEF_STEREO_COUNT>
16

> <PUBCHEM_ATOM_UDEF_STEREO_COUNT>
0

> <PUBCHEM_BOND_DEF_STEREO_COUNT>
0

> <PUBCHEM_BOND_UDEF_STEREO_COUNT>
0

> <PUBCHEM_ISOTOPIC_ATOM_COUNT>
0

> <PUBCHEM_COMPONENT_COUNT>
1

> <PUBCHEM_CACTVS_TAUTO_COUNT>
-1

> <PUBCHEM_COORDINATE_TYPE>
1
5
255

> <PUBCHEM_BONDANNOTATIONS>
24  1  5
27  1  5
42  10  5
34  11  5
35  12  6
43  13  6
36  14  5
37  15  6
38  16  6
41  17  5
28  32  5
23  3  6
39  47  5
25  4  5
40  48  6
26  5  6
50  55  8
50  56  8
51  57  8
51  58  8
53  59  8
53  60  8
54  61  8
54  62  8
55  57  8
56  58  8
59  61  8
60  62  8

$$$$
