10247670
  -OEChem-11232010203D

 46 50  0     1  0  0  0  0  0999 V2000
   -1.1686   -1.7236    0.4526 O   0  0  0  0  0  0  0  0  0  0  0  0
    1.2451    1.0980    1.3656 O   0  0  0  0  0  0  0  0  0  0  0  0
   -5.7576   -0.8856   -1.6388 O   0  0  0  0  0  0  0  0  0  0  0  0
   -6.8817    0.7142   -0.2302 O   0  0  0  0  0  0  0  0  0  0  0  0
    5.7638    1.7101   -0.7024 O   0  0  0  0  0  0  0  0  0  0  0  0
    7.0419   -0.7357   -0.3691 O   0  0  0  0  0  0  0  0  0  0  0  0
   -0.5149    0.5107   -0.1040 C   0  0  1  0  0  0  0  0  0  0  0  0
    0.6307   -0.4269   -0.3742 C   0  0  1  0  0  0  0  0  0  0  0  0
   -1.4541   -0.3431    0.7584 C   0  0  1  0  0  0  0  0  0  0  0  0
    1.5346   -0.2169    0.8481 C   0  0  1  0  0  0  0  0  0  0  0  0
   -0.0410   -1.7807   -0.4321 C   0  0  0  0  0  0  0  0  0  0  0  0
    0.1453    1.6550    0.6325 C   0  0  0  0  0  0  0  0  0  0  0  0
   -2.9133   -0.0348    0.5212 C   0  0  0  0  0  0  0  0  0  0  0  0
    3.0031   -0.3515    0.5232 C   0  0  0  0  0  0  0  0  0  0  0  0
   -3.6021   -0.6782   -0.5118 C   0  0  0  0  0  0  0  0  0  0  0  0
   -3.5721    0.8993    1.3425 C   0  0  0  0  0  0  0  0  0  0  0  0
    3.7199    0.7507    0.0542 C   0  0  0  0  0  0  0  0  0  0  0  0
    3.6468   -1.5789    0.6903 C   0  0  0  0  0  0  0  0  0  0  0  0
   -4.9337   -0.3637   -0.6896 C   0  0  0  0  0  0  0  0  0  0  0  0
   -4.9213    1.1996    1.1410 C   0  0  0  0  0  0  0  0  0  0  0  0
    5.0762    0.6260   -0.2466 C   0  0  0  0  0  0  0  0  0  0  0  0
   -5.5756    0.5500    0.1147 C   0  0  0  0  0  0  0  0  0  0  0  0
    5.0030   -1.7037    0.3893 C   0  0  0  0  0  0  0  0  0  0  0  0
    5.7177   -0.6012   -0.0791 C   0  0  0  0  0  0  0  0  0  0  0  0
   -6.9903   -0.1985   -1.3414 C   0  0  0  0  0  0  0  0  0  0  0  0
    5.7979    1.9095   -2.1141 C   0  0  0  0  0  0  0  0  0  0  0  0
   -1.0067    0.8474   -1.0237 H   0  0  0  0  0  0  0  0  0  0  0  0
    1.1540   -0.1910   -1.3078 H   0  0  0  0  0  0  0  0  0  0  0  0
   -1.2371   -0.2270    1.8280 H   0  0  0  0  0  0  0  0  0  0  0  0
    1.2860   -0.9142    1.6585 H   0  0  0  0  0  0  0  0  0  0  0  0
   -0.4251   -1.9821   -1.4380 H   0  0  0  0  0  0  0  0  0  0  0  0
    0.6134   -2.6069   -0.1405 H   0  0  0  0  0  0  0  0  0  0  0  0
    0.5586    2.3847   -0.0722 H   0  0  0  0  0  0  0  0  0  0  0  0
   -0.5256    2.1793    1.3185 H   0  0  0  0  0  0  0  0  0  0  0  0
   -3.1190   -1.3953   -1.1665 H   0  0  0  0  0  0  0  0  0  0  0  0
   -3.0337    1.3991    2.1441 H   0  0  0  0  0  0  0  0  0  0  0  0
    3.2334    1.7119   -0.0908 H   0  0  0  0  0  0  0  0  0  0  0  0
    3.1009   -2.4458    1.0530 H   0  0  0  0  0  0  0  0  0  0  0  0
   -5.4305    1.9192    1.7719 H   0  0  0  0  0  0  0  0  0  0  0  0
    5.4969   -2.6625    0.5216 H   0  0  0  0  0  0  0  0  0  0  0  0
   -7.7602   -0.9436   -1.1097 H   0  0  0  0  0  0  0  0  0  0  0  0
   -7.3011    0.3645   -2.2290 H   0  0  0  0  0  0  0  0  0  0  0  0
    7.3884    0.1315   -0.6413 H   0  0  0  0  0  0  0  0  0  0  0  0
    4.7888    2.0900   -2.4982 H   0  0  0  0  0  0  0  0  0  0  0  0
    6.2419    1.0455   -2.6186 H   0  0  0  0  0  0  0  0  0  0  0  0
    6.4132    2.7893   -2.3211 H   0  0  0  0  0  0  0  0  0  0  0  0
  1  9  1  0  0  0  0
  1 11  1  0  0  0  0
  2 10  1  0  0  0  0
  2 12  1  0  0  0  0
  3 19  1  0  0  0  0
  3 25  1  0  0  0  0
  4 22  1  0  0  0  0
  4 25  1  0  0  0  0
  5 21  1  0  0  0  0
  5 26  1  0  0  0  0
  6 24  1  0  0  0  0
  6 43  1  0  0  0  0
  7  8  1  0  0  0  0
  7  9  1  0  0  0  0
  7 12  1  0  0  0  0
  7 27  1  0  0  0  0
  8 10  1  0  0  0  0
  8 11  1  0  0  0  0
  8 28  1  0  0  0  0
  9 13  1  0  0  0  0
  9 29  1  0  0  0  0
 10 14  1  0  0  0  0
 10 30  1  0  0  0  0
 11 31  1  0  0  0  0
 11 32  1  0  0  0  0
 12 33  1  0  0  0  0
 12 34  1  0  0  0  0
 13 15  2  0  0  0  0
 13 16  1  0  0  0  0
 14 17  2  0  0  0  0
 14 18  1  0  0  0  0
 15 19  1  0  0  0  0
 15 35  1  0  0  0  0
 16 20  2  0  0  0  0
 16 36  1  0  0  0  0
 17 21  1  0  0  0  0
 17 37  1  0  0  0  0
 18 23  2  0  0  0  0
 18 38  1  0  0  0  0
 19 22  2  0  0  0  0
 20 22  1  0  0  0  0
 20 39  1  0  0  0  0
 21 24  2  0  0  0  0
 23 24  1  0  0  0  0
 23 40  1  0  0  0  0
 25 41  1  0  0  0  0
 25 42  1  0  0  0  0
 26 44  1  0  0  0  0
 26 45  1  0  0  0  0
 26 46  1  0  0  0  0
M  END
> <PUBCHEM_COMPOUND_CID>
10247670

> <PUBCHEM_CONFORMER_RMSD>
0.8

> <PUBCHEM_CONFORMER_DIVERSEORDER>
1
18
36
37
13
6
10
24
28
32
35
8
38
12
31
29
15
9
30
3
7
11
25
34
4
19
20
26
22
2
17
23
21
14
33
5
16
27

> <PUBCHEM_MMFF94_PARTIAL_CHARGES>
31
1 -0.56
10 0.42
11 0.28
12 0.28
13 -0.14
14 -0.14
15 -0.15
16 -0.15
17 -0.15
18 -0.15
19 0.08
2 -0.56
20 -0.15
21 0.08
22 0.08
23 -0.15
24 0.08
25 0.56
26 0.28
3 -0.36
35 0.15
36 0.15
37 0.15
38 0.15
39 0.15
4 -0.36
40 0.15
43 0.45
5 -0.36
6 -0.53
9 0.42

> <PUBCHEM_EFFECTIVE_ROTOR_COUNT>
4.8

> <PUBCHEM_PHARMACOPHORE_FEATURES>
11
1 1 acceptor
1 2 acceptor
1 3 acceptor
1 4 acceptor
1 5 acceptor
1 6 donor
5 1 7 8 9 11 rings
5 2 7 8 10 12 rings
5 3 4 19 22 25 rings
6 13 15 16 19 20 22 rings
6 14 17 18 21 23 24 rings

> <PUBCHEM_HEAVY_ATOM_COUNT>
26

> <PUBCHEM_ATOM_DEF_STEREO_COUNT>
4

> <PUBCHEM_ATOM_UDEF_STEREO_COUNT>
0

> <PUBCHEM_BOND_DEF_STEREO_COUNT>
0

> <PUBCHEM_BOND_UDEF_STEREO_COUNT>
0

> <PUBCHEM_ISOTOPIC_ATOM_COUNT>
0

> <PUBCHEM_COMPONENT_COUNT>
1

> <PUBCHEM_CACTVS_TAUTO_COUNT>
3

> <PUBCHEM_CONFORMER_ID>
009C5DF600000001

> <PUBCHEM_MMFF94_ENERGY>
88.3166

> <PUBCHEM_FEATURE_SELFOVERLAP>
56.46

> <PUBCHEM_SHAPE_FINGERPRINT>
10 15 15213303053337222204
10066227 112 17676487258959702261
10299344 5 18272369758902200727
10638233 991 18408890650135340084
10835480 77 18113901619400220428
10906281 52 18270698497096654811
11315181 36 17203326719856220219
11524674 6 13973677356816331397
11963148 33 17489295387146552919
12011746 2 18413386536048426043
12166972 35 17917706933556508449
12236239 1 18273211989420412619
12516196 113 17775280556327098688
12788726 201 17988377974696561840
13288520 33 17275099531924559473
13533116 47 18115583743426400738
13668630 136 15195570117209517637
13685833 64 13398636048053829164
13782708 43 14692569922854061813
13862211 1 18060134323448003218
14068700 675 17704351065683600337
14251764 18 18272929414800361522
14528608 73 18272933842853556256
14856354 85 17988925591753353623
15048467 5 17822009834888415620
15183329 4 18272089387568450898
15840311 113 17603310366247855837
16079462 125 16298382478670483349
18222031 100 17203611497293717600
18335252 114 18259705619114164876
18681886 176 17632282498109303411
18927931 339 17275102852113594909
19489759 90 16774078453966756507
20612939 158 18260552234023793560
21033648 29 16081087103975362269
21150785 3 18201718487348956797
21236236 1 18336544902894987909
21267235 1 17917426558549977395
21315759 40 18059858325087390346
21641784 216 18335716991803185108
22956985 138 16913990084541505118
23035841 295 17203608190501182695
23081809 10 18343023272222586737
23402539 116 17775278353462452129
23522609 53 18128279855173061001
23559900 14 17702368723717541689
23569943 247 15265404400026013446
249057 3 18187368732037883542
29717793 49 18272656732054254902
3004659 81 18411138009764808858
34797466 226 17313106345249312662
397830 11 16371872787867778393
4073 2 17822016457644038866
4340502 62 16153706518437630138
504579 68 18411145731804576236
59755656 215 16343705421862202407
59755656 520 18335695058074896239
6328613 192 18335142015766501117

> <PUBCHEM_SHAPE_MULTIPOLES>
499.85
18.71
1.69
1.31
3.44
0.05
0.31
2.31
6.85
-2.02
0.16
0.47
0.39
-2.16

> <PUBCHEM_SHAPE_SELFOVERLAP>
1114.986

> <PUBCHEM_SHAPE_VOLUME>
269.3

> <PUBCHEM_COORDINATE_TYPE>
2
5
10

$$$$
