101715614
  -OEChem-11232011323D

 52 54  0     1  0  0  0  0  0999 V2000
    1.1228   -2.3849   -0.7684 O   0  0  0  0  0  0  0  0  0  0  0  0
    3.8439    2.4790   -0.6631 O   0  0  0  0  0  0  0  0  0  0  0  0
    1.8373    1.8894   -2.4998 O   0  0  0  0  0  0  0  0  0  0  0  0
   -4.5689    1.3600    1.1596 O   0  0  0  0  0  0  0  0  0  0  0  0
   -5.4379   -0.7782   -0.3890 O   0  0  0  0  0  0  0  0  0  0  0  0
    2.1904   -0.6915    0.6594 C   0  0  2  0  0  0  0  0  0  0  0  0
    0.7770   -0.3075    1.1929 C   0  0  2  0  0  0  0  0  0  0  0  0
    0.0949    0.4049   -0.0189 C   0  0  1  0  0  0  0  0  0  0  0  0
    0.9805    0.0091   -1.2427 C   0  0  2  0  0  0  0  0  0  0  0  0
    1.8465   -1.1655   -0.7678 C   0  0  2  0  0  0  0  0  0  0  0  0
    2.8593   -1.7853    1.4928 C   0  0  0  0  0  0  0  0  0  0  0  0
    3.1032    0.5274    0.5275 C   0  0  0  0  0  0  0  0  0  0  0  0
    1.9519    1.1566   -1.5212 C   0  0  0  0  0  0  0  0  0  0  0  0
    0.7719    0.5361    2.4667 C   0  0  0  0  0  0  0  0  0  0  0  0
   -1.3870    0.0901   -0.1152 C   0  0  0  0  0  0  0  0  0  0  0  0
    3.0275    1.3862   -0.5055 C   0  0  0  0  0  0  0  0  0  0  0  0
    4.1752   -2.1842    0.9032 C   0  0  0  0  0  0  0  0  0  0  0  0
   -2.3127    0.8740    0.5735 C   0  0  0  0  0  0  0  0  0  0  0  0
   -1.8231   -0.9824   -0.8932 C   0  0  0  0  0  0  0  0  0  0  0  0
   -3.6745    0.5855    0.4842 C   0  0  0  0  0  0  0  0  0  0  0  0
   -3.1848   -1.2711   -0.9823 C   0  0  0  0  0  0  0  0  0  0  0  0
    4.4718   -3.4302    0.5170 C   0  0  0  0  0  0  0  0  0  0  0  0
   -4.1106   -0.4871   -0.2938 C   0  0  0  0  0  0  0  0  0  0  0  0
    3.2861    3.6240   -0.0429 C   0  0  0  0  0  0  0  0  0  0  0  0
   -4.0403    2.4365    1.9317 C   0  0  0  0  0  0  0  0  0  0  0  0
   -5.8003   -1.8910   -1.2047 C   0  0  0  0  0  0  0  0  0  0  0  0
    0.2293   -1.2331    1.4233 H   0  0  0  0  0  0  0  0  0  0  0  0
    0.1657    1.4951    0.1104 H   0  0  0  0  0  0  0  0  0  0  0  0
    0.4270   -0.2108   -2.1597 H   0  0  0  0  0  0  0  0  0  0  0  0
    2.7359   -1.3064   -1.3952 H   0  0  0  0  0  0  0  0  0  0  0  0
    3.0439   -1.4257    2.5130 H   0  0  0  0  0  0  0  0  0  0  0  0
    2.1981   -2.6550    1.5945 H   0  0  0  0  0  0  0  0  0  0  0  0
    3.8286    0.7185    1.3146 H   0  0  0  0  0  0  0  0  0  0  0  0
    1.3151    0.0334    3.2726 H   0  0  0  0  0  0  0  0  0  0  0  0
   -0.2526    0.6998    2.8158 H   0  0  0  0  0  0  0  0  0  0  0  0
    1.2269    1.5194    2.3112 H   0  0  0  0  0  0  0  0  0  0  0  0
    0.9260   -2.6036   -1.6952 H   0  0  0  0  0  0  0  0  0  0  0  0
    4.9590   -1.4353    0.8256 H   0  0  0  0  0  0  0  0  0  0  0  0
   -1.9170    1.6959    1.1601 H   0  0  0  0  0  0  0  0  0  0  0  0
   -1.1412   -1.6183   -1.4432 H   0  0  0  0  0  0  0  0  0  0  0  0
   -3.4511   -2.1188   -1.6043 H   0  0  0  0  0  0  0  0  0  0  0  0
    5.4532   -3.6632    0.1186 H   0  0  0  0  0  0  0  0  0  0  0  0
    3.7473   -4.2339    0.5879 H   0  0  0  0  0  0  0  0  0  0  0  0
    3.9660    4.4654   -0.2065 H   0  0  0  0  0  0  0  0  0  0  0  0
    3.1829    3.4778    1.0381 H   0  0  0  0  0  0  0  0  0  0  0  0
    2.3158    3.8830   -0.4809 H   0  0  0  0  0  0  0  0  0  0  0  0
   -4.8899    2.9432    2.4013 H   0  0  0  0  0  0  0  0  0  0  0  0
   -3.5383    3.1779    1.3007 H   0  0  0  0  0  0  0  0  0  0  0  0
   -3.3990    2.0751    2.7430 H   0  0  0  0  0  0  0  0  0  0  0  0
   -6.8912   -1.9772   -1.1658 H   0  0  0  0  0  0  0  0  0  0  0  0
   -5.3932   -2.8289   -0.8118 H   0  0  0  0  0  0  0  0  0  0  0  0
   -5.5317   -1.7267   -2.2538 H   0  0  0  0  0  0  0  0  0  0  0  0
  1 10  1  0  0  0  0
  1 37  1  0  0  0  0
  2 16  1  0  0  0  0
  2 24  1  0  0  0  0
  3 13  2  0  0  0  0
  4 20  1  0  0  0  0
  4 25  1  0  0  0  0
  5 23  1  0  0  0  0
  5 26  1  0  0  0  0
  6  7  1  0  0  0  0
  6 10  1  0  0  0  0
  6 11  1  0  0  0  0
  6 12  1  0  0  0  0
  7  8  1  0  0  0  0
  7 14  1  0  0  0  0
  7 27  1  0  0  0  0
  8  9  1  0  0  0  0
  8 15  1  0  0  0  0
  8 28  1  0  0  0  0
  9 10  1  0  0  0  0
  9 13  1  0  0  0  0
  9 29  1  0  0  0  0
 10 30  1  0  0  0  0
 11 17  1  0  0  0  0
 11 31  1  0  0  0  0
 11 32  1  0  0  0  0
 12 16  2  0  0  0  0
 12 33  1  0  0  0  0
 13 16  1  0  0  0  0
 14 34  1  0  0  0  0
 14 35  1  0  0  0  0
 14 36  1  0  0  0  0
 15 18  2  0  0  0  0
 15 19  1  0  0  0  0
 17 22  2  0  0  0  0
 17 38  1  0  0  0  0
 18 20  1  0  0  0  0
 18 39  1  0  0  0  0
 19 21  2  0  0  0  0
 19 40  1  0  0  0  0
 20 23  2  0  0  0  0
 21 23  1  0  0  0  0
 21 41  1  0  0  0  0
 22 42  1  0  0  0  0
 22 43  1  0  0  0  0
 24 44  1  0  0  0  0
 24 45  1  0  0  0  0
 24 46  1  0  0  0  0
 25 47  1  0  0  0  0
 25 48  1  0  0  0  0
 25 49  1  0  0  0  0
 26 50  1  0  0  0  0
 26 51  1  0  0  0  0
 26 52  1  0  0  0  0
M  END
> <PUBCHEM_COMPOUND_CID>
101715614

> <PUBCHEM_CONFORMER_RMSD>
0.8

> <PUBCHEM_CONFORMER_DIVERSEORDER>
2
17
18
23
8
7
14
1
21
9
19
6
15
12
5
11
20
4
13
22
10
16
3

> <PUBCHEM_MMFF94_PARTIAL_CHARGES>
32
1 -0.68
10 0.28
11 0.14
12 -0.29
13 0.49
15 -0.14
16 0.09
17 -0.29
18 -0.15
19 -0.15
2 -0.36
20 0.08
21 -0.15
22 -0.3
23 0.08
24 0.28
25 0.28
26 0.28
3 -0.57
33 0.15
37 0.4
38 0.15
39 0.15
4 -0.36
40 0.15
41 0.15
42 0.15
43 0.15
5 -0.36
6 0.14
8 0.14
9 0.06

> <PUBCHEM_EFFECTIVE_ROTOR_COUNT>
6.6

> <PUBCHEM_PHARMACOPHORE_FEATURES>
9
1 1 acceptor
1 1 donor
1 2 acceptor
1 22 hydrophobe
1 3 acceptor
1 4 acceptor
1 5 acceptor
6 15 18 19 20 21 23 rings
8 6 7 8 9 10 12 13 16 rings

> <PUBCHEM_HEAVY_ATOM_COUNT>
26

> <PUBCHEM_ATOM_DEF_STEREO_COUNT>
5

> <PUBCHEM_ATOM_UDEF_STEREO_COUNT>
0

> <PUBCHEM_BOND_DEF_STEREO_COUNT>
0

> <PUBCHEM_BOND_UDEF_STEREO_COUNT>
0

> <PUBCHEM_ISOTOPIC_ATOM_COUNT>
0

> <PUBCHEM_COMPONENT_COUNT>
1

> <PUBCHEM_CACTVS_TAUTO_COUNT>
28

> <PUBCHEM_CONFORMER_ID>
06100E9E00000002

> <PUBCHEM_MMFF94_ENERGY>
107.4372

> <PUBCHEM_FEATURE_SELFOVERLAP>
45.681

> <PUBCHEM_SHAPE_FINGERPRINT>
11578080 2 18191839337094100741
11640471 11 18266187299429583724
12107183 9 18052822446906643849
12236239 1 18409445916829449743
12553582 1 17678170495467009386
12616971 3 18337678521089579321
12788726 201 18131354159173263227
13009979 54 18341896238386342659
13134695 92 18114469959653285524
13224815 77 18343588447470187943
13533116 47 18335697273866154883
13590594 115 18043817481204337884
13726171 33 17417268639600446993
13955234 65 18335414712130707034
14178342 30 17987515914577730327
14739800 52 17916573371285675944
14950920 106 17825982284943791905
14955137 171 18047206158676346658
15238133 3 17560524980229659457
16945 1 18126839392298477174
17349148 13 18412256238496323903
17980427 23 18201146660056720324
1813 80 18190180075389743214
18222031 100 18115016395220642138
18681886 176 17988926691275452460
19377110 9 18342746251664993419
20600515 1 17416403165008937408
20645477 70 17385715920263758327
21033650 10 17843714185683417469
21065198 48 18412545409927308427
22849341 161 18121231891533850952
23557571 272 16917076555187173185
23559900 14 18335126575675765083
25147074 1 18413112749268734533
312423 11 18409172095352715027
314194 84 17823701871731055874
3633792 109 18188473732364754471
394222 165 18340490083869555024
4340502 62 17531804796399667139
474 4 17969789776650493652
495365 180 15792279501767974877
5104073 3 18273215283697590491
5895379 119 17702398255401459552
67856867 119 18412821404167274249
70251023 43 18041267764883071971
9849439 229 17198843839199559569
9981440 41 17903352955189802744

> <PUBCHEM_SHAPE_MULTIPOLES>
505.72
10.38
3.24
1.82
11.75
0.64
-0.21
-2.92
-0.46
-3.74
-0.03
-0.16
0.64
-3.44

> <PUBCHEM_SHAPE_SELFOVERLAP>
1082.364

> <PUBCHEM_SHAPE_VOLUME>
282.9

> <PUBCHEM_COORDINATE_TYPE>
2
5
10

$$$$
