292101
  -OEChem-11232010203D

 21 21  0     0  0  0  0  0  0999 V2000
    0.1927   -1.8840   -0.4467 O   0  0  0  0  0  0  0  0  0  0  0  0
   -2.4756   -1.7203    0.2636 O   0  0  0  0  0  0  0  0  0  0  0  0
    0.3683    0.4999   -0.3771 C   0  0  0  0  0  0  0  0  0  0  0  0
    1.8101    0.4371   -0.7594 C   0  0  0  0  0  0  0  0  0  0  0  0
   -0.3838   -0.6664   -0.2355 C   0  0  0  0  0  0  0  0  0  0  0  0
   -0.2256    1.7434   -0.1605 C   0  0  0  0  0  0  0  0  0  0  0  0
   -1.7298   -0.5891    0.1226 C   0  0  0  0  0  0  0  0  0  0  0  0
   -1.5714    1.8205    0.1975 C   0  0  0  0  0  0  0  0  0  0  0  0
   -2.3235    0.6544    0.3390 C   0  0  0  0  0  0  0  0  0  0  0  0
    2.7305    0.3472    0.4294 C   0  0  0  0  0  0  0  0  0  0  0  0
    3.6081   -0.6428    0.6272 C   0  0  0  0  0  0  0  0  0  0  0  0
    1.9978   -0.3640   -1.4850 H   0  0  0  0  0  0  0  0  0  0  0  0
    2.0730    1.3521   -1.3085 H   0  0  0  0  0  0  0  0  0  0  0  0
    0.3477    2.6609   -0.2650 H   0  0  0  0  0  0  0  0  0  0  0  0
   -2.0337    2.7886    0.3666 H   0  0  0  0  0  0  0  0  0  0  0  0
   -3.3715    0.7216    0.6182 H   0  0  0  0  0  0  0  0  0  0  0  0
    2.6856    1.1514    1.1602 H   0  0  0  0  0  0  0  0  0  0  0  0
    1.1584   -1.8268   -0.3867 H   0  0  0  0  0  0  0  0  0  0  0  0
   -1.9064   -2.4871    0.0768 H   0  0  0  0  0  0  0  0  0  0  0  0
    4.2491   -0.6425    1.5019 H   0  0  0  0  0  0  0  0  0  0  0  0
    3.7021   -1.4650   -0.0735 H   0  0  0  0  0  0  0  0  0  0  0  0
  1  5  1  0  0  0  0
  1 18  1  0  0  0  0
  2  7  1  0  0  0  0
  2 19  1  0  0  0  0
  3  4  1  0  0  0  0
  3  5  2  0  0  0  0
  3  6  1  0  0  0  0
  4 10  1  0  0  0  0
  4 12  1  0  0  0  0
  4 13  1  0  0  0  0
  5  7  1  0  0  0  0
  6  8  2  0  0  0  0
  6 14  1  0  0  0  0
  7  9  2  0  0  0  0
  8  9  1  0  0  0  0
  8 15  1  0  0  0  0
  9 16  1  0  0  0  0
 10 11  2  0  0  0  0
 10 17  1  0  0  0  0
 11 20  1  0  0  0  0
 11 21  1  0  0  0  0
M  END
> <PUBCHEM_COMPOUND_CID>
292101

> <PUBCHEM_CONFORMER_RMSD>
0.4

> <PUBCHEM_CONFORMER_DIVERSEORDER>
4
6
1
9
5
8
7
2
3

> <PUBCHEM_MMFF94_PARTIAL_CHARGES>
19
1 -0.53
10 -0.29
11 -0.3
14 0.15
15 0.15
16 0.15
17 0.15
18 0.45
19 0.45
2 -0.53
20 0.15
21 0.15
3 -0.14
4 0.28
5 0.08
6 -0.15
7 0.08
8 -0.15
9 -0.15

> <PUBCHEM_EFFECTIVE_ROTOR_COUNT>
2

> <PUBCHEM_PHARMACOPHORE_FEATURES>
4
1 1 donor
1 11 hydrophobe
1 2 donor
6 3 5 6 7 8 9 rings

> <PUBCHEM_HEAVY_ATOM_COUNT>
11

> <PUBCHEM_ATOM_DEF_STEREO_COUNT>
0

> <PUBCHEM_ATOM_UDEF_STEREO_COUNT>
0

> <PUBCHEM_BOND_DEF_STEREO_COUNT>
0

> <PUBCHEM_BOND_UDEF_STEREO_COUNT>
0

> <PUBCHEM_ISOTOPIC_ATOM_COUNT>
0

> <PUBCHEM_COMPONENT_COUNT>
1

> <PUBCHEM_CACTVS_TAUTO_COUNT>
19

> <PUBCHEM_CONFORMER_ID>
0004750500000004

> <PUBCHEM_MMFF94_ENERGY>
23.9563

> <PUBCHEM_FEATURE_SELFOVERLAP>
20.302

> <PUBCHEM_SHAPE_FINGERPRINT>
10857977 72 18271525385348178512
13024252 1 14562813209685604165
13380535 76 18267862779299020677
15076042 46 18410293610050410664
16945 1 18339092488167890821
17804303 29 18268150851646340610
20645464 45 17846777386766203812
20653085 51 11023837222627514704
20871998 184 18272370901310799638
21040471 1 18194697968304018053
22445834 79 18041273249862095474
23402539 116 18341599388012502157
23463225 33 18334296440048682990
23552423 10 17900269898340869957
2748010 2 17832723278816375645
369184 2 18272926120412771680
5084963 1 17987818374368718108

> <PUBCHEM_SHAPE_MULTIPOLES>
214.64
4.37
1.85
0.77
3.39
0.16
0.02
0.63
-1.18
-1.07
0.04
0.24
-0.02
-0.12

> <PUBCHEM_SHAPE_SELFOVERLAP>
443.852

> <PUBCHEM_SHAPE_VOLUME>
122.8

> <PUBCHEM_COORDINATE_TYPE>
2
5
10

$$$$
