10385474
  -OEChem-11232010203D

 54 56  0     1  0  0  0  0  0999 V2000
   -0.4350   -1.7592    0.7444 O   0  0  0  0  0  0  0  0  0  0  0  0
   -3.9653    2.4801   -0.0476 O   0  0  0  0  0  0  0  0  0  0  0  0
   -1.8825    2.5238    1.8006 O   0  0  0  0  0  0  0  0  0  0  0  0
   -0.2502   -1.1959    2.9773 O   0  0  0  0  0  0  0  0  0  0  0  0
    4.3904   -1.3324   -0.4741 O   0  0  0  0  0  0  0  0  0  0  0  0
    5.6817    0.9904    0.3383 O   0  0  0  0  0  0  0  0  0  0  0  0
   -1.7971   -0.5325   -0.9277 C   0  0  2  0  0  0  0  0  0  0  0  0
   -0.4699   -0.0031   -1.5518 C   0  0  2  0  0  0  0  0  0  0  0  0
    0.0759    0.9899   -0.4773 C   0  0  1  0  0  0  0  0  0  0  0  0
   -0.7243    0.6450    0.8145 C   0  0  2  0  0  0  0  0  0  0  0  0
   -1.3759   -0.7172    0.5473 C   0  0  2  0  0  0  0  0  0  0  0  0
   -2.2736   -1.8318   -1.5775 C   0  0  0  0  0  0  0  0  0  0  0  0
   -2.9040    0.5229   -0.9530 C   0  0  0  0  0  0  0  0  0  0  0  0
   -1.8740    1.6419    0.9467 C   0  0  0  0  0  0  0  0  0  0  0  0
   -0.5991    0.6386   -2.9320 C   0  0  0  0  0  0  0  0  0  0  0  0
    1.5768    0.9868   -0.2599 C   0  0  0  0  0  0  0  0  0  0  0  0
   -2.9749    1.5293   -0.0621 C   0  0  0  0  0  0  0  0  0  0  0  0
   -3.5044   -2.3524   -0.9044 C   0  0  0  0  0  0  0  0  0  0  0  0
    2.3055   -0.1821   -0.4680 C   0  0  0  0  0  0  0  0  0  0  0  0
    2.2214    2.1527    0.1477 C   0  0  0  0  0  0  0  0  0  0  0  0
    0.0525   -1.8897    2.0159 C   0  0  0  0  0  0  0  0  0  0  0  0
    3.6860   -0.1851   -0.2673 C   0  0  0  0  0  0  0  0  0  0  0  0
    3.6016    2.1497    0.3481 C   0  0  0  0  0  0  0  0  0  0  0  0
   -3.5885   -3.5601   -0.3354 C   0  0  0  0  0  0  0  0  0  0  0  0
    4.3340    0.9808    0.1406 C   0  0  0  0  0  0  0  0  0  0  0  0
   -5.2388    1.8853    0.1299 C   0  0  0  0  0  0  0  0  0  0  0  0
    1.0300   -3.0242    2.0743 C   0  0  0  0  0  0  0  0  0  0  0  0
    4.9020   -1.5514   -1.7874 C   0  0  0  0  0  0  0  0  0  0  0  0
    0.1782   -0.8700   -1.6959 H   0  0  0  0  0  0  0  0  0  0  0  0
   -0.1791    2.0093   -0.8036 H   0  0  0  0  0  0  0  0  0  0  0  0
   -0.1055    0.7176    1.7107 H   0  0  0  0  0  0  0  0  0  0  0  0
   -2.2412   -0.9041    1.1990 H   0  0  0  0  0  0  0  0  0  0  0  0
   -1.4761   -2.5854   -1.5623 H   0  0  0  0  0  0  0  0  0  0  0  0
   -2.5127   -1.6634   -2.6352 H   0  0  0  0  0  0  0  0  0  0  0  0
   -3.6366    0.4683   -1.7544 H   0  0  0  0  0  0  0  0  0  0  0  0
    0.3858    0.9434   -3.3019 H   0  0  0  0  0  0  0  0  0  0  0  0
   -1.2348    1.5294   -2.9162 H   0  0  0  0  0  0  0  0  0  0  0  0
   -1.0219   -0.0661   -3.6546 H   0  0  0  0  0  0  0  0  0  0  0  0
   -4.4023   -1.7402   -0.9164 H   0  0  0  0  0  0  0  0  0  0  0  0
    1.8464   -1.1235   -0.7433 H   0  0  0  0  0  0  0  0  0  0  0  0
    1.6613    3.0687    0.3156 H   0  0  0  0  0  0  0  0  0  0  0  0
    4.1004    3.0610    0.6665 H   0  0  0  0  0  0  0  0  0  0  0  0
   -4.5171   -3.8913    0.1165 H   0  0  0  0  0  0  0  0  0  0  0  0
   -2.7396   -4.2343   -0.3069 H   0  0  0  0  0  0  0  0  0  0  0  0
   -5.9584    2.6850    0.3307 H   0  0  0  0  0  0  0  0  0  0  0  0
   -5.2509    1.2026    0.9876 H   0  0  0  0  0  0  0  0  0  0  0  0
   -5.5681    1.3661   -0.7762 H   0  0  0  0  0  0  0  0  0  0  0  0
    1.8767   -2.8201    1.4148 H   0  0  0  0  0  0  0  0  0  0  0  0
    0.5340   -3.9547    1.7870 H   0  0  0  0  0  0  0  0  0  0  0  0
    1.4023   -3.1296    3.0972 H   0  0  0  0  0  0  0  0  0  0  0  0
    6.0226    0.0918    0.1888 H   0  0  0  0  0  0  0  0  0  0  0  0
    5.5701   -0.7373   -2.0855 H   0  0  0  0  0  0  0  0  0  0  0  0
    4.0810   -1.6446   -2.5054 H   0  0  0  0  0  0  0  0  0  0  0  0
    5.4698   -2.4858   -1.7823 H   0  0  0  0  0  0  0  0  0  0  0  0
  1 11  1  0  0  0  0
  1 21  1  0  0  0  0
  2 17  1  0  0  0  0
  2 26  1  0  0  0  0
  3 14  2  0  0  0  0
  4 21  2  0  0  0  0
  5 22  1  0  0  0  0
  5 28  1  0  0  0  0
  6 25  1  0  0  0  0
  6 51  1  0  0  0  0
  7  8  1  0  0  0  0
  7 11  1  0  0  0  0
  7 12  1  0  0  0  0
  7 13  1  0  0  0  0
  8  9  1  0  0  0  0
  8 15  1  0  0  0  0
  8 29  1  0  0  0  0
  9 10  1  0  0  0  0
  9 16  1  0  0  0  0
  9 30  1  0  0  0  0
 10 11  1  0  0  0  0
 10 14  1  0  0  0  0
 10 31  1  0  0  0  0
 11 32  1  0  0  0  0
 12 18  1  0  0  0  0
 12 33  1  0  0  0  0
 12 34  1  0  0  0  0
 13 17  2  0  0  0  0
 13 35  1  0  0  0  0
 14 17  1  0  0  0  0
 15 36  1  0  0  0  0
 15 37  1  0  0  0  0
 15 38  1  0  0  0  0
 16 19  2  0  0  0  0
 16 20  1  0  0  0  0
 18 24  2  0  0  0  0
 18 39  1  0  0  0  0
 19 22  1  0  0  0  0
 19 40  1  0  0  0  0
 20 23  2  0  0  0  0
 20 41  1  0  0  0  0
 21 27  1  0  0  0  0
 22 25  2  0  0  0  0
 23 25  1  0  0  0  0
 23 42  1  0  0  0  0
 24 43  1  0  0  0  0
 24 44  1  0  0  0  0
 26 45  1  0  0  0  0
 26 46  1  0  0  0  0
 26 47  1  0  0  0  0
 27 48  1  0  0  0  0
 27 49  1  0  0  0  0
 27 50  1  0  0  0  0
 28 52  1  0  0  0  0
 28 53  1  0  0  0  0
 28 54  1  0  0  0  0
M  END
> <PUBCHEM_COMPOUND_CID>
10385474

> <PUBCHEM_CONFORMER_RMSD>
1

> <PUBCHEM_CONFORMER_DIVERSEORDER>
1
7
5
10
9
8
2
6
3
4

> <PUBCHEM_MMFF94_PARTIAL_CHARGES>
34
1 -0.43
10 0.06
11 0.28
12 0.14
13 -0.29
14 0.49
16 -0.14
17 0.09
18 -0.29
19 -0.15
2 -0.36
20 -0.15
21 0.66
22 0.08
23 -0.15
24 -0.3
25 0.08
26 0.28
27 0.06
28 0.28
3 -0.57
35 0.15
39 0.15
4 -0.57
40 0.15
41 0.15
42 0.15
43 0.15
44 0.15
5 -0.36
51 0.45
6 -0.53
7 0.14
9 0.14

> <PUBCHEM_EFFECTIVE_ROTOR_COUNT>
7.6

> <PUBCHEM_PHARMACOPHORE_FEATURES>
8
1 2 acceptor
1 24 hydrophobe
1 3 acceptor
1 4 acceptor
1 5 acceptor
1 6 donor
6 16 19 20 22 23 25 rings
8 7 8 9 10 11 13 14 17 rings

> <PUBCHEM_HEAVY_ATOM_COUNT>
28

> <PUBCHEM_ATOM_DEF_STEREO_COUNT>
5

> <PUBCHEM_ATOM_UDEF_STEREO_COUNT>
0

> <PUBCHEM_BOND_DEF_STEREO_COUNT>
0

> <PUBCHEM_BOND_UDEF_STEREO_COUNT>
0

> <PUBCHEM_ISOTOPIC_ATOM_COUNT>
0

> <PUBCHEM_COMPONENT_COUNT>
1

> <PUBCHEM_CACTVS_TAUTO_COUNT>
3

> <PUBCHEM_CONFORMER_ID>
009E784200000001

> <PUBCHEM_MMFF94_ENERGY>
101.2598

> <PUBCHEM_FEATURE_SELFOVERLAP>
40.601

> <PUBCHEM_SHAPE_FINGERPRINT>
10165383 225 17604727546979393774
10366900 7 18124604343052535528
10863032 1 18272929444580295941
12403814 3 17274260698540732695
12422481 6 17986139442126634675
12467345 10 18412543206593274415
12592029 89 17895193229980587849
12596599 1 18341612577746200578
12714826 92 16558747966020344286
12788726 201 18193268830646960003
133893 2 16517900992973865411
13583140 156 18187654566016178737
14787075 74 17832414672304207959
14955137 171 17612581229229390467
16945 1 17987813924888373901
17349148 13 18190452947604553392
17492 89 18273215335195305134
19930381 70 17984415506245441006
20600515 1 16379698179821368369
20691752 17 17530675516058053038
22907989 373 17387997488247956342
23227448 37 18341892991576033957
23419403 2 17183628135457246843
23493267 7 18202274802084346837
23558518 356 18262522622994990973
23559900 14 18059853948637080356
4340502 62 17968106270509923577
5104073 3 18201714076913299520
59755656 520 18335416850961077829
81228 2 17170403080670171370
9709674 26 18338803432979896198

> <PUBCHEM_SHAPE_MULTIPOLES>
541.01
8.92
3.39
2.1
6.91
1.52
-0.22
-1.46
1.96
-2.64
-1.06
-0.15
1
-0.36

> <PUBCHEM_SHAPE_SELFOVERLAP>
1157.84

> <PUBCHEM_SHAPE_VOLUME>
300.7

> <PUBCHEM_COORDINATE_TYPE>
2
5
10

$$$$
