10219771
  -OEChem-11232011203D

 26 26  0     0  0  0  0  0  0999 V2000
    2.4421    0.1519   -0.6128 O   0  0  0  0  0  0  0  0  0  0  0  0
    0.9886   -2.2129   -0.4751 O   0  0  0  0  0  0  0  0  0  0  0  0
    2.4279    0.2725    1.7250 O   0  0  0  0  0  0  0  0  0  0  0  0
   -1.7082    0.2532   -0.5699 C   0  0  0  0  0  0  0  0  0  0  0  0
   -3.1988    0.2938   -0.5543 C   0  0  0  0  0  0  0  0  0  0  0  0
   -1.0436   -0.9720   -0.5158 C   0  0  0  0  0  0  0  0  0  0  0  0
   -0.9786    1.4400   -0.6381 C   0  0  0  0  0  0  0  0  0  0  0  0
    1.0802    0.1764   -0.5982 C   0  0  0  0  0  0  0  0  0  0  0  0
    0.3506   -1.0104   -0.5301 C   0  0  0  0  0  0  0  0  0  0  0  0
    0.4157    1.4016   -0.6523 C   0  0  0  0  0  0  0  0  0  0  0  0
   -3.7722    0.3797    0.8365 C   0  0  0  0  0  0  0  0  0  0  0  0
    3.0297    0.2062    0.6613 C   0  0  0  0  0  0  0  0  0  0  0  0
   -4.5577   -0.5538    1.3851 C   0  0  0  0  0  0  0  0  0  0  0  0
    4.5243    0.1740    0.5385 C   0  0  0  0  0  0  0  0  0  0  0  0
   -3.5531    1.1594   -1.1290 H   0  0  0  0  0  0  0  0  0  0  0  0
   -3.5960   -0.5817   -1.0851 H   0  0  0  0  0  0  0  0  0  0  0  0
   -1.6065   -1.9008   -0.4608 H   0  0  0  0  0  0  0  0  0  0  0  0
   -1.4838    2.4014   -0.6793 H   0  0  0  0  0  0  0  0  0  0  0  0
    0.9777    2.3301   -0.7058 H   0  0  0  0  0  0  0  0  0  0  0  0
   -3.5399    1.2686    1.4183 H   0  0  0  0  0  0  0  0  0  0  0  0
    1.9475   -2.0566   -0.5220 H   0  0  0  0  0  0  0  0  0  0  0  0
   -4.9438   -0.4255    2.3904 H   0  0  0  0  0  0  0  0  0  0  0  0
   -4.8265   -1.4559    0.8469 H   0  0  0  0  0  0  0  0  0  0  0  0
    4.8341   -0.7534    0.0506 H   0  0  0  0  0  0  0  0  0  0  0  0
    4.9712    0.2102    1.5361 H   0  0  0  0  0  0  0  0  0  0  0  0
    4.8665    1.0420   -0.0300 H   0  0  0  0  0  0  0  0  0  0  0  0
  1  8  1  0  0  0  0
  1 12  1  0  0  0  0
  2  9  1  0  0  0  0
  2 21  1  0  0  0  0
  3 12  2  0  0  0  0
  4  5  1  0  0  0  0
  4  6  2  0  0  0  0
  4  7  1  0  0  0  0
  5 11  1  0  0  0  0
  5 15  1  0  0  0  0
  5 16  1  0  0  0  0
  6  9  1  0  0  0  0
  6 17  1  0  0  0  0
  7 10  2  0  0  0  0
  7 18  1  0  0  0  0
  8  9  2  0  0  0  0
  8 10  1  0  0  0  0
 10 19  1  0  0  0  0
 11 13  2  0  0  0  0
 11 20  1  0  0  0  0
 12 14  1  0  0  0  0
 13 22  1  0  0  0  0
 13 23  1  0  0  0  0
 14 24  1  0  0  0  0
 14 25  1  0  0  0  0
 14 26  1  0  0  0  0
M  END
> <PUBCHEM_COMPOUND_CID>
10219771

> <PUBCHEM_CONFORMER_RMSD>
0.6

> <PUBCHEM_CONFORMER_DIVERSEORDER>
1
39
37
12
38
36
8
31
9
45
7
41
22
16
18
26
23
13
35
40
48
5
34
32
47
19
46
24
33
30
10
49
42
14
20
11
15
43
25
2
29
44
27
4
17
21
3
28
6

> <PUBCHEM_MMFF94_PARTIAL_CHARGES>
21
1 -0.23
10 -0.15
11 -0.29
12 0.66
13 -0.3
14 0.06
17 0.15
18 0.15
19 0.15
2 -0.53
20 0.15
21 0.45
22 0.15
23 0.15
3 -0.57
4 -0.14
5 0.28
6 -0.15
7 -0.15
8 0.08
9 0.08

> <PUBCHEM_EFFECTIVE_ROTOR_COUNT>
4

> <PUBCHEM_PHARMACOPHORE_FEATURES>
4
1 13 hydrophobe
1 2 donor
1 3 acceptor
6 4 6 7 8 9 10 rings

> <PUBCHEM_HEAVY_ATOM_COUNT>
14

> <PUBCHEM_ATOM_DEF_STEREO_COUNT>
0

> <PUBCHEM_ATOM_UDEF_STEREO_COUNT>
0

> <PUBCHEM_BOND_DEF_STEREO_COUNT>
0

> <PUBCHEM_BOND_UDEF_STEREO_COUNT>
0

> <PUBCHEM_ISOTOPIC_ATOM_COUNT>
0

> <PUBCHEM_COMPONENT_COUNT>
1

> <PUBCHEM_CACTVS_TAUTO_COUNT>
9

> <PUBCHEM_CONFORMER_ID>
009BF0FB00000001

> <PUBCHEM_MMFF94_ENERGY>
33.2612

> <PUBCHEM_FEATURE_SELFOVERLAP>
20.297

> <PUBCHEM_SHAPE_FINGERPRINT>
10219947 1 18408880737250100516
106641 1 18337393871509635793
11132069 177 18411978074627765807
11769659 78 15502366825159236593
11796584 16 16153707635503699435
12251169 10 18335142024630501939
12346645 44 17775003462143117927
124424 183 17530955887486573197
13705890 14 14129063633538994813
13760787 19 16443064963359709845
14252887 29 18260838072186097770
14350558 41 15213025942273858273
14943859 89 15051733084010929439
15209294 21 17775006760862715297
15219456 202 18266735779516553639
15309172 13 18411695495622926838
15375462 189 17531238495923115432
15775835 57 17988918972670796622
16945 1 18410853261358237749
18186145 218 17203610371653635157
19026448 5 15769771334352366517
200 152 14273454773226695452
201361 129 16988011483344268811
20279233 1 18113622257816094135
20671657 53 10665227055573902847
21061003 4 18341041978155728085
21119208 17 13398631671207932360
21256008 23 18335138700035911345
21256008 61 12179848316100699819
21501925 9 18186525410455001453
21637258 2 15574703742189499432
22485316 2 15357687578901770313
22926399 65 11815895652207220033
231179 274 15410621358718619265
23402539 116 17022893550270972581
23402655 69 10015317763237111603
2748010 2 18121778322832140045
276578 36 18130792247831742062
3060560 45 8141806019840815153
4047638 21 16056609750300269865
449060 23 12540687107250887607
465052 167 17749401411569225515
53812653 166 18131066039243653534
568465 68 18338532927180712027
7364860 26 17630891499604000422
76465 3 17313669377482476067
81228 2 17765684186449550182

> <PUBCHEM_SHAPE_MULTIPOLES>
270.51
7.46
1.38
1.22
1.03
0.14
0.4
0.72
4.03
0.11
-0.37
0.08
0.19
0.41

> <PUBCHEM_SHAPE_SELFOVERLAP>
556.983

> <PUBCHEM_SHAPE_VOLUME>
154.5

> <PUBCHEM_COORDINATE_TYPE>
2
5
10

$$$$
