91884650
  -OEChem-11202009373D

101105  0     1  0  0  0  0  0999 V2000
   -3.1587   -0.7172    0.0282 O   0  0  0  0  0  0  0  0  0  0  0  0
   -5.2884    0.2041   -0.2165 O   0  0  0  0  0  0  0  0  0  0  0  0
   -2.2258    1.7603    1.0281 O   0  0  0  0  0  0  0  0  0  0  0  0
   -3.8008    4.0263   -0.0043 O   0  0  0  0  0  0  0  0  0  0  0  0
   -6.6258    3.5589    0.3913 O   0  0  0  0  0  0  0  0  0  0  0  0
   -7.3355    1.0081   -1.9054 O   0  0  0  0  0  0  0  0  0  0  0  0
    3.7316   -2.3139   -0.3453 C   0  0  1  0  0  0  0  0  0  0  0  0
    2.6789   -2.5079   -1.4668 C   0  0  1  0  0  0  0  0  0  0  0  0
    1.1950   -2.4602   -0.9964 C   0  0  2  0  0  0  0  0  0  0  0  0
    0.9358   -3.2958    0.2770 C   0  0  2  0  0  0  0  0  0  0  0  0
    3.7171   -0.7724   -0.1718 C   0  0  2  0  0  0  0  0  0  0  0  0
    3.3731   -3.0886    0.9327 C   0  0  0  0  0  0  0  0  0  0  0  0
   -0.5777   -3.2445    0.7481 C   0  0  2  0  0  0  0  0  0  0  0  0
    2.9883   -1.3534   -2.4416 C   0  0  0  0  0  0  0  0  0  0  0  0
    1.9307   -2.9102    1.3851 C   0  0  0  0  0  0  0  0  0  0  0  0
    3.6044   -0.2291   -1.6032 C   0  0  0  0  0  0  0  0  0  0  0  0
    0.2792   -2.9702   -2.1287 C   0  0  0  0  0  0  0  0  0  0  0  0
    4.8904   -0.1645    0.5876 C   0  0  1  0  0  0  0  0  0  0  0  0
    5.1157   -2.8243   -0.8174 C   0  0  0  0  0  0  0  0  0  0  0  0
   -1.5501   -3.1893   -0.4337 C   0  0  0  0  0  0  0  0  0  0  0  0
   -0.8839   -1.9998    1.6281 C   0  0  0  0  0  0  0  0  0  0  0  0
   -1.1474   -3.1005   -1.7114 C   0  0  0  0  0  0  0  0  0  0  0  0
   -0.8354   -4.5376    1.5668 C   0  0  0  0  0  0  0  0  0  0  0  0
   -3.0242   -3.1126   -0.0981 C   0  0  0  0  0  0  0  0  0  0  0  0
   -2.3657   -1.8524    2.0119 C   0  0  0  0  0  0  0  0  0  0  0  0
    5.0485    1.3467    0.3240 C   0  0  0  0  0  0  0  0  0  0  0  0
   -3.3015   -1.9078    0.8036 C   0  0  1  0  0  0  0  0  0  0  0  0
    4.7192   -0.4018    2.0927 C   0  0  0  0  0  0  0  0  0  0  0  0
    3.8137    2.2119    0.6246 C   0  0  0  0  0  0  0  0  0  0  0  0
    3.9288    3.7187    0.2753 C   0  0  2  0  0  0  0  0  0  0  0  0
   -4.0478    0.3043    0.4789 C   0  0  2  0  0  0  0  0  0  0  0  0
    4.0901    3.9629   -1.2591 C   0  0  0  0  0  0  0  0  0  0  0  0
    5.0444    4.3872    1.1166 C   0  0  0  0  0  0  0  0  0  0  0  0
   -3.3883    1.6562    0.2064 C   0  0  1  0  0  0  0  0  0  0  0  0
    2.8150    3.7078   -2.0672 C   0  0  0  0  0  0  0  0  0  0  0  0
    4.6238    5.3671   -1.5704 C   0  0  0  0  0  0  0  0  0  0  0  0
   -4.3380    2.8119    0.5221 C   0  0  2  0  0  0  0  0  0  0  0  0
    4.8674    4.2488    2.6228 C   0  0  0  0  0  0  0  0  0  0  0  0
   -6.2352    1.1864    0.2075 C   0  0  1  0  0  0  0  0  0  0  0  0
   -5.7112    2.5886   -0.1117 C   0  0  1  0  0  0  0  0  0  0  0  0
   -7.5499    0.8978   -0.5101 C   0  0  0  0  0  0  0  0  0  0  0  0
    2.8451   -3.4693   -1.9705 H   0  0  0  0  0  0  0  0  0  0  0  0
    0.9247   -1.4169   -0.7808 H   0  0  0  0  0  0  0  0  0  0  0  0
    1.1551   -4.3406    0.0052 H   0  0  0  0  0  0  0  0  0  0  0  0
    2.7876   -0.4810    0.3339 H   0  0  0  0  0  0  0  0  0  0  0  0
    4.0487   -2.8829    1.7605 H   0  0  0  0  0  0  0  0  0  0  0  0
    3.5115   -4.1612    0.7309 H   0  0  0  0  0  0  0  0  0  0  0  0
    2.1146   -0.9971   -2.9944 H   0  0  0  0  0  0  0  0  0  0  0  0
    3.7158   -1.6881   -3.1914 H   0  0  0  0  0  0  0  0  0  0  0  0
    1.7726   -3.5362    2.2699 H   0  0  0  0  0  0  0  0  0  0  0  0
    1.7789   -1.8748    1.7048 H   0  0  0  0  0  0  0  0  0  0  0  0
    4.5746    0.0289   -2.0405 H   0  0  0  0  0  0  0  0  0  0  0  0
    2.9632    0.6495   -1.6592 H   0  0  0  0  0  0  0  0  0  0  0  0
    0.6208   -3.9438   -2.5010 H   0  0  0  0  0  0  0  0  0  0  0  0
    0.3203   -2.2755   -2.9748 H   0  0  0  0  0  0  0  0  0  0  0  0
    5.8408   -0.6130    0.2796 H   0  0  0  0  0  0  0  0  0  0  0  0
    5.5208   -2.2418   -1.6507 H   0  0  0  0  0  0  0  0  0  0  0  0
    5.0489   -3.8662   -1.1524 H   0  0  0  0  0  0  0  0  0  0  0  0
    5.8509   -2.8010   -0.0055 H   0  0  0  0  0  0  0  0  0  0  0  0
   -0.5689   -1.0883    1.1032 H   0  0  0  0  0  0  0  0  0  0  0  0
   -0.3092   -2.0389    2.5612 H   0  0  0  0  0  0  0  0  0  0  0  0
   -1.8848   -3.0608   -2.5092 H   0  0  0  0  0  0  0  0  0  0  0  0
   -0.1790   -4.5958    2.4410 H   0  0  0  0  0  0  0  0  0  0  0  0
   -0.6568   -5.4309    0.9563 H   0  0  0  0  0  0  0  0  0  0  0  0
   -1.8595   -4.6122    1.9434 H   0  0  0  0  0  0  0  0  0  0  0  0
   -3.6253   -3.0226   -1.0119 H   0  0  0  0  0  0  0  0  0  0  0  0
   -3.3407   -4.0390    0.3930 H   0  0  0  0  0  0  0  0  0  0  0  0
   -2.4835   -0.9048    2.5496 H   0  0  0  0  0  0  0  0  0  0  0  0
   -2.6392   -2.6453    2.7175 H   0  0  0  0  0  0  0  0  0  0  0  0
    5.8873    1.7084    0.9324 H   0  0  0  0  0  0  0  0  0  0  0  0
    5.3767    1.4955   -0.7076 H   0  0  0  0  0  0  0  0  0  0  0  0
   -4.3397   -1.9990    1.1509 H   0  0  0  0  0  0  0  0  0  0  0  0
    5.2779    0.3417    2.6738 H   0  0  0  0  0  0  0  0  0  0  0  0
    5.1408   -1.3638    2.3903 H   0  0  0  0  0  0  0  0  0  0  0  0
    3.6758   -0.3472    2.4177 H   0  0  0  0  0  0  0  0  0  0  0  0
    3.5618    2.1114    1.6867 H   0  0  0  0  0  0  0  0  0  0  0  0
    2.9335    1.8221    0.1092 H   0  0  0  0  0  0  0  0  0  0  0  0
    2.9825    4.1896    0.5779 H   0  0  0  0  0  0  0  0  0  0  0  0
   -4.2276    0.2026    1.5582 H   0  0  0  0  0  0  0  0  0  0  0  0
    4.8483    3.2749   -1.6478 H   0  0  0  0  0  0  0  0  0  0  0  0
    6.0307    4.0094    0.8250 H   0  0  0  0  0  0  0  0  0  0  0  0
    5.0506    5.4652    0.9208 H   0  0  0  0  0  0  0  0  0  0  0  0
   -3.0462    1.7130   -0.8338 H   0  0  0  0  0  0  0  0  0  0  0  0
    2.0371    4.4316   -1.8007 H   0  0  0  0  0  0  0  0  0  0  0  0
    2.4093    2.7108   -1.8948 H   0  0  0  0  0  0  0  0  0  0  0  0
    3.0090    3.8044   -3.1409 H   0  0  0  0  0  0  0  0  0  0  0  0
    3.9925    6.1413   -1.1216 H   0  0  0  0  0  0  0  0  0  0  0  0
    4.6404    5.5414   -2.6525 H   0  0  0  0  0  0  0  0  0  0  0  0
    5.6529    5.4980   -1.2217 H   0  0  0  0  0  0  0  0  0  0  0  0
   -4.4268    2.9616    1.6045 H   0  0  0  0  0  0  0  0  0  0  0  0
    3.8649    4.5597    2.9330 H   0  0  0  0  0  0  0  0  0  0  0  0
    5.5934    4.8817    3.1439 H   0  0  0  0  0  0  0  0  0  0  0  0
    5.0355    3.2214    2.9578 H   0  0  0  0  0  0  0  0  0  0  0  0
   -6.4138    1.0754    1.2853 H   0  0  0  0  0  0  0  0  0  0  0  0
   -5.6344    2.7442   -1.1943 H   0  0  0  0  0  0  0  0  0  0  0  0
   -2.5072    1.7071    1.9574 H   0  0  0  0  0  0  0  0  0  0  0  0
   -8.3368    1.5966   -0.2107 H   0  0  0  0  0  0  0  0  0  0  0  0
   -7.8802   -0.1252   -0.3023 H   0  0  0  0  0  0  0  0  0  0  0  0
   -3.6887    3.9169   -0.9640 H   0  0  0  0  0  0  0  0  0  0  0  0
   -6.7030    3.4297    1.3520 H   0  0  0  0  0  0  0  0  0  0  0  0
   -8.1823    0.8141   -2.3420 H   0  0  0  0  0  0  0  0  0  0  0  0
  1 27  1  0  0  0  0
  1 31  1  0  0  0  0
  2 31  1  0  0  0  0
  2 39  1  0  0  0  0
  3 34  1  0  0  0  0
  3 96  1  0  0  0  0
  4 37  1  0  0  0  0
  4 99  1  0  0  0  0
  5 40  1  0  0  0  0
  5100  1  0  0  0  0
  6 41  1  0  0  0  0
  6101  1  0  0  0  0
  7  8  1  0  0  0  0
  7 11  1  0  0  0  0
  7 12  1  0  0  0  0
  7 19  1  0  0  0  0
  8  9  1  0  0  0  0
  8 14  1  0  0  0  0
  8 42  1  0  0  0  0
  9 10  1  0  0  0  0
  9 17  1  0  0  0  0
  9 43  1  0  0  0  0
 10 13  1  0  0  0  0
 10 15  1  0  0  0  0
 10 44  1  0  0  0  0
 11 16  1  0  0  0  0
 11 18  1  0  0  0  0
 11 45  1  0  0  0  0
 12 15  1  0  0  0  0
 12 46  1  0  0  0  0
 12 47  1  0  0  0  0
 13 20  1  0  0  0  0
 13 21  1  0  0  0  0
 13 23  1  0  0  0  0
 14 16  1  0  0  0  0
 14 48  1  0  0  0  0
 14 49  1  0  0  0  0
 15 50  1  0  0  0  0
 15 51  1  0  0  0  0
 16 52  1  0  0  0  0
 16 53  1  0  0  0  0
 17 22  1  0  0  0  0
 17 54  1  0  0  0  0
 17 55  1  0  0  0  0
 18 26  1  0  0  0  0
 18 28  1  0  0  0  0
 18 56  1  0  0  0  0
 19 57  1  0  0  0  0
 19 58  1  0  0  0  0
 19 59  1  0  0  0  0
 20 22  2  0  0  0  0
 20 24  1  0  0  0  0
 21 25  1  0  0  0  0
 21 60  1  0  0  0  0
 21 61  1  0  0  0  0
 22 62  1  0  0  0  0
 23 63  1  0  0  0  0
 23 64  1  0  0  0  0
 23 65  1  0  0  0  0
 24 27  1  0  0  0  0
 24 66  1  0  0  0  0
 24 67  1  0  0  0  0
 25 27  1  0  0  0  0
 25 68  1  0  0  0  0
 25 69  1  0  0  0  0
 26 29  1  0  0  0  0
 26 70  1  0  0  0  0
 26 71  1  0  0  0  0
 27 72  1  0  0  0  0
 28 73  1  0  0  0  0
 28 74  1  0  0  0  0
 28 75  1  0  0  0  0
 29 30  1  0  0  0  0
 29 76  1  0  0  0  0
 29 77  1  0  0  0  0
 30 32  1  0  0  0  0
 30 33  1  0  0  0  0
 30 78  1  0  0  0  0
 31 34  1  0  0  0  0
 31 79  1  0  0  0  0
 32 35  1  0  0  0  0
 32 36  1  0  0  0  0
 32 80  1  0  0  0  0
 33 38  1  0  0  0  0
 33 81  1  0  0  0  0
 33 82  1  0  0  0  0
 34 37  1  0  0  0  0
 34 83  1  0  0  0  0
 35 85  1  0  0  0  0
 35 87  1  0  0  0  0
 35 89  1  0  0  0  0
 36 84  1  0  0  0  0
 36 86  1  0  0  0  0
 36 88  1  0  0  0  0
 37 40  1  0  0  0  0
 37 90  1  0  0  0  0
 38 91  1  0  0  0  0
 38 92  1  0  0  0  0
 38 93  1  0  0  0  0
 39 40  1  0  0  0  0
 39 41  1  0  0  0  0
 39 94  1  0  0  0  0
 40 95  1  0  0  0  0
 41 97  1  0  0  0  0
 41 98  1  0  0  0  0
M  END
> <PUBCHEM_COMPOUND_CID>
91884650

> <PUBCHEM_CONFORMER_RMSD>
1.2

> <PUBCHEM_CONFORMER_DIVERSEORDER>
9
269
68
165
316
243
84
191
67
232
178
235
244
100
122
176
64
317
204
237
219
59
115
57
180
209
114
17
303
157
134
241
242
309
224
173
146
233
160
147
135
231
294
296
308
268
108
213
304
50
170
251
181
276
270
211
192
21
79
240
26
24
73
217
259
128
129
323
283
88
56
97
221
255
140
263
51
262
61
95
318
278
69
25
63
288
319
247
105
83
18
295
179
239
98
151
78
321
143
197
234
203
142
13
48
185
260
133
201
39
19
118
315
76
109
222
127
107
144
22
93
138
99
280
226
312
282
85
320
274
125
200
286
162
45
120
154
156
310
153
301
124
177
102
285
279
216
230
82
136
94
23
104
249
52
113
53
195
65
112
208
137
236
307
306
166
189
20
132
218
228
302
131
183
152
40
266
15
187
58
273
33
32
265
258
205
60
214
175
277
36
253
168
101
16
196
110
121
89
6
261
91
314
90
35
199
284
246
66
81
74
313
86
155
206
43
182
87
220
322
250
37
298
287
174
210
34
12
225
117
289
158
190
41
300
28
103
207
311
292
62
47
1
148
92
267
123
130
159
202
245
141
119
11
31
193
42
96
150
75
184
77
149
167
223
38
305
172
116
186
3
291
4
264
198
14
46
49
80
164
324
248
5
227
72
271
161
126
70
229
44
256
254
290
106
169
281
145
215
8
10
299
30
55
194
171
293
275
29
54
252
188
7
71
111
238
27
297
257
212
2
139
272
163

> <PUBCHEM_MMFF94_PARTIAL_CHARGES>
23
1 -0.56
100 0.4
101 0.4
13 0.14
17 0.14
2 -0.56
20 -0.28
22 -0.29
24 0.14
27 0.28
3 -0.68
31 0.56
34 0.28
37 0.28
39 0.28
4 -0.68
40 0.28
41 0.28
5 -0.68
6 -0.68
62 0.15
96 0.4
99 0.4

> <PUBCHEM_EFFECTIVE_ROTOR_COUNT>
12.2

> <PUBCHEM_PHARMACOPHORE_FEATURES>
19
1 1 acceptor
1 2 acceptor
1 28 hydrophobe
1 3 acceptor
1 3 donor
1 38 hydrophobe
1 4 acceptor
1 4 donor
1 5 acceptor
1 5 donor
1 6 acceptor
1 6 donor
3 32 35 36 hydrophobe
5 7 8 11 14 16 rings
6 13 20 21 24 25 27 rings
6 18 26 29 30 32 33 hydrophobe
6 2 31 34 37 39 40 rings
6 7 8 9 10 12 15 rings
6 9 10 13 17 20 22 rings

> <PUBCHEM_HEAVY_ATOM_COUNT>
41

> <PUBCHEM_ATOM_DEF_STEREO_COUNT>
11

> <PUBCHEM_ATOM_UDEF_STEREO_COUNT>
3

> <PUBCHEM_BOND_DEF_STEREO_COUNT>
0

> <PUBCHEM_BOND_UDEF_STEREO_COUNT>
0

> <PUBCHEM_ISOTOPIC_ATOM_COUNT>
0

> <PUBCHEM_COMPONENT_COUNT>
1

> <PUBCHEM_CACTVS_TAUTO_COUNT>
1

> <PUBCHEM_CONFORMER_ID>
057A0C6A00000009

> <PUBCHEM_MMFF94_ENERGY>
130.5658

> <PUBCHEM_FEATURE_SELFOVERLAP>
96.692

> <PUBCHEM_SHAPE_FINGERPRINT>
10439779 11 18264767662709572162
11331351 85 16243493402883865147
12104220 4 18187367618918777756
13383661 66 11566532496812195336
1361 2 18336548213945345825
14040221 178 18202844361417457230
14739800 52 18261670355782345659
15001296 14 18408039602781855873
15160629 35 18114472269776518893
15320291 9 18411984624290336264
16067689 134 17407692709788777713
16708801 149 18411975892573928417
19053607 189 18266171928190505200
19304152 47 17832434463872301738
21792938 324 18125135188674403618
21987440 362 18119825840065182772
2838139 119 18267584616027600999
4487111 67 18052259784700960424
508180 173 18193298337837486042
5109719 28 18339091389268245273
53794403 172 18409737248250085637
550186 72 17473547326920131674
5951187 136 18341899528447901086
6036956 94 17541663150371447677
6086070 43 18339372863987031578
6176135 31 18408878551270678216
6608658 132 17480577583104291598
9961470 85 18408886273626735117

> <PUBCHEM_SHAPE_MULTIPOLES>
808.54
16.22
8.15
2.12
19.88
5.68
0.16
20.58
0.4
-5.72
0.02
-2.15
-0.06
1.11

> <PUBCHEM_SHAPE_SELFOVERLAP>
1674.335

> <PUBCHEM_SHAPE_VOLUME>
459.7

> <PUBCHEM_COORDINATE_TYPE>
2
5
10

$$$$
