3084295
  -OEChem-11202009173D

 51 53  0     1  0  0  0  0  0999 V2000
    1.5168   -0.3893    0.1514 O   0  0  0  0  0  0  0  0  0  0  0  0
    2.2727    1.8150    0.0350 O   0  0  0  0  0  0  0  0  0  0  0  0
    3.1112   -3.6021   -0.5899 O   0  0  0  0  0  0  0  0  0  0  0  0
    5.3490   -1.8513   -0.0583 O   0  0  0  0  0  0  0  0  0  0  0  0
    4.7531    0.8884   -0.9637 O   0  0  0  0  0  0  0  0  0  0  0  0
   -0.7410   -1.9486   -0.0132 O   0  0  0  0  0  0  0  0  0  0  0  0
   -1.8595   -3.5536    1.2003 O   0  0  0  0  0  0  0  0  0  0  0  0
    0.4382    1.3201    2.8709 O   0  0  0  0  0  0  0  0  0  0  0  0
   -2.7056    4.0887   -0.6309 O   0  0  0  0  0  0  0  0  0  0  0  0
    2.9983   -2.3000   -0.0216 C   0  0  1  0  0  0  0  0  0  0  0  0
    4.1001   -1.4040   -0.5878 C   0  0  1  0  0  0  0  0  0  0  0  0
    1.6152   -1.7272   -0.3399 C   0  0  1  0  0  0  0  0  0  0  0  0
    3.8775    0.0581   -0.2012 C   0  0  2  0  0  0  0  0  0  0  0  0
    2.4395    0.4947   -0.4809 C   0  0  1  0  0  0  0  0  0  0  0  0
    0.5029   -2.5405    0.3145 C   0  0  0  0  0  0  0  0  0  0  0  0
    1.0361    2.3799   -0.1165 C   0  0  0  0  0  0  0  0  0  0  0  0
    0.2973    2.7753    0.9951 C   0  0  0  0  0  0  0  0  0  0  0  0
    0.5259    2.5556   -1.3999 C   0  0  0  0  0  0  0  0  0  0  0  0
   -1.8513   -2.5560    0.4959 C   0  0  0  0  0  0  0  0  0  0  0  0
   -0.9615    3.3508    0.8222 C   0  0  0  0  0  0  0  0  0  0  0  0
    0.8332    2.5934    2.3769 C   0  0  0  0  0  0  0  0  0  0  0  0
   -0.7328    3.1312   -1.5729 C   0  0  0  0  0  0  0  0  0  0  0  0
   -1.4765    3.5288   -0.4620 C   0  0  0  0  0  0  0  0  0  0  0  0
   -3.0853   -1.8426    0.0799 C   0  0  0  0  0  0  0  0  0  0  0  0
   -4.2532   -2.5619   -0.0700 C   0  0  0  0  0  0  0  0  0  0  0  0
   -3.0256   -0.4825   -0.1439 C   0  0  0  0  0  0  0  0  0  0  0  0
   -5.4124   -1.8916   -0.4611 C   0  0  0  0  0  0  0  0  0  0  0  0
   -4.1846    0.1879   -0.5348 C   0  0  0  0  0  0  0  0  0  0  0  0
   -5.3780   -0.5167   -0.6934 C   0  0  0  0  0  0  0  0  0  0  0  0
    3.1333   -2.4024    1.0622 H   0  0  0  0  0  0  0  0  0  0  0  0
    4.1706   -1.5085   -1.6776 H   0  0  0  0  0  0  0  0  0  0  0  0
    1.4330   -1.7146   -1.4232 H   0  0  0  0  0  0  0  0  0  0  0  0
    4.1307    0.2149    0.8541 H   0  0  0  0  0  0  0  0  0  0  0  0
    2.2643    0.5026   -1.5647 H   0  0  0  0  0  0  0  0  0  0  0  0
    0.6210   -2.5260    1.4049 H   0  0  0  0  0  0  0  0  0  0  0  0
    0.5219   -3.5772   -0.0402 H   0  0  0  0  0  0  0  0  0  0  0  0
    2.9853   -3.5223   -1.5509 H   0  0  0  0  0  0  0  0  0  0  0  0
    5.4539   -2.7851   -0.3092 H   0  0  0  0  0  0  0  0  0  0  0  0
    4.5450    0.7622   -1.9051 H   0  0  0  0  0  0  0  0  0  0  0  0
    1.0967    2.2714   -2.2791 H   0  0  0  0  0  0  0  0  0  0  0  0
   -1.5431    3.6584    1.6880 H   0  0  0  0  0  0  0  0  0  0  0  0
    0.4478    3.3614    3.0561 H   0  0  0  0  0  0  0  0  0  0  0  0
    1.9255    2.6636    2.4088 H   0  0  0  0  0  0  0  0  0  0  0  0
   -1.1274    3.2706   -2.5757 H   0  0  0  0  0  0  0  0  0  0  0  0
   -4.2917   -3.6329    0.1047 H   0  0  0  0  0  0  0  0  0  0  0  0
   -2.1123    0.0904   -0.0146 H   0  0  0  0  0  0  0  0  0  0  0  0
    0.6681    0.6502    2.2043 H   0  0  0  0  0  0  0  0  0  0  0  0
   -3.0797    4.2979    0.2422 H   0  0  0  0  0  0  0  0  0  0  0  0
   -6.3415   -2.4402   -0.5852 H   0  0  0  0  0  0  0  0  0  0  0  0
   -4.1591    1.2589   -0.7128 H   0  0  0  0  0  0  0  0  0  0  0  0
   -6.2805    0.0055   -0.9973 H   0  0  0  0  0  0  0  0  0  0  0  0
  1 12  1  0  0  0  0
  1 14  1  0  0  0  0
  2 14  1  0  0  0  0
  2 16  1  0  0  0  0
  3 10  1  0  0  0  0
  3 37  1  0  0  0  0
  4 11  1  0  0  0  0
  4 38  1  0  0  0  0
  5 13  1  0  0  0  0
  5 39  1  0  0  0  0
  6 15  1  0  0  0  0
  6 19  1  0  0  0  0
  7 19  2  0  0  0  0
  8 21  1  0  0  0  0
  8 47  1  0  0  0  0
  9 23  1  0  0  0  0
  9 48  1  0  0  0  0
 10 11  1  0  0  0  0
 10 12  1  0  0  0  0
 10 30  1  0  0  0  0
 11 13  1  0  0  0  0
 11 31  1  0  0  0  0
 12 15  1  0  0  0  0
 12 32  1  0  0  0  0
 13 14  1  0  0  0  0
 13 33  1  0  0  0  0
 14 34  1  0  0  0  0
 15 35  1  0  0  0  0
 15 36  1  0  0  0  0
 16 17  2  0  0  0  0
 16 18  1  0  0  0  0
 17 20  1  0  0  0  0
 17 21  1  0  0  0  0
 18 22  2  0  0  0  0
 18 40  1  0  0  0  0
 19 24  1  0  0  0  0
 20 23  2  0  0  0  0
 20 41  1  0  0  0  0
 21 42  1  0  0  0  0
 21 43  1  0  0  0  0
 22 23  1  0  0  0  0
 22 44  1  0  0  0  0
 24 25  2  0  0  0  0
 24 26  1  0  0  0  0
 25 27  1  0  0  0  0
 25 45  1  0  0  0  0
 26 28  2  0  0  0  0
 26 46  1  0  0  0  0
 27 29  2  0  0  0  0
 27 49  1  0  0  0  0
 28 29  1  0  0  0  0
 28 50  1  0  0  0  0
 29 51  1  0  0  0  0
M  END
> <PUBCHEM_COMPOUND_CID>
3084295

> <PUBCHEM_CONFORMER_RMSD>
1

> <PUBCHEM_CONFORMER_DIVERSEORDER>
1
61
133
236
255
43
191
125
11
100
246
211
188
193
113
139
114
240
247
159
161
86
181
207
137
106
52
251
176
142
78
141
185
239
227
208
98
16
175
163
130
93
35
84
147
38
248
242
149
210
20
75
17
158
152
26
69
132
29
94
252
63
256
123
105
116
107
153
237
235
33
154
140
65
138
41
209
74
124
151
249
212
120
180
229
234
162
192
172
48
87
12
71
166
190
66
101
88
233
47
205
80
45
196
200
102
21
31
112
230
177
95
184
204
57
109
222
122
42
223
244
37
121
5
50
15
259
144
206
165
91
118
155
243
216
258
39
59
30
110
257
146
53
131
46
27
232
117
97
174
126
56
111
44
72
157
136
70
76
22
8
150
173
228
241
182
148
201
19
189
195
134
77
156
202
220
4
92
186
23
13
169
170
34
96
40
214
238
198
218
10
197
250
135
224
2
226
60
194
73
178
104
199
83
115
203
9
85
160
68
187
25
245
179
219
217
168
254
18
62
49
81
3
7
221
183
167
14
28
64
55
6
67
82
79
164
225
89
215
36
143
119
213
128
32
58
99
145
90
108
54
24
103
51
129
253
171
127
231

> <PUBCHEM_MMFF94_PARTIAL_CHARGES>
42
1 -0.56
10 0.28
11 0.28
12 0.28
13 0.28
14 0.56
15 0.28
16 0.08
17 -0.14
18 -0.15
19 0.63
2 -0.36
20 -0.15
21 0.42
22 -0.15
23 0.08
24 0.09
25 -0.15
26 -0.15
27 -0.15
28 -0.15
29 -0.15
3 -0.68
37 0.4
38 0.4
39 0.4
4 -0.68
40 0.15
41 0.15
44 0.15
45 0.15
46 0.15
47 0.4
48 0.45
49 0.15
5 -0.68
50 0.15
51 0.15
6 -0.43
7 -0.57
8 -0.68
9 -0.53

> <PUBCHEM_EFFECTIVE_ROTOR_COUNT>
8.2

> <PUBCHEM_PHARMACOPHORE_FEATURES>
15
1 1 acceptor
1 2 acceptor
1 3 acceptor
1 3 donor
1 4 acceptor
1 4 donor
1 5 acceptor
1 5 donor
1 7 acceptor
1 8 acceptor
1 8 donor
1 9 donor
6 1 10 11 12 13 14 rings
6 16 17 18 20 22 23 rings
6 24 25 26 27 28 29 rings

> <PUBCHEM_HEAVY_ATOM_COUNT>
29

> <PUBCHEM_ATOM_DEF_STEREO_COUNT>
5

> <PUBCHEM_ATOM_UDEF_STEREO_COUNT>
0

> <PUBCHEM_BOND_DEF_STEREO_COUNT>
0

> <PUBCHEM_BOND_UDEF_STEREO_COUNT>
0

> <PUBCHEM_ISOTOPIC_ATOM_COUNT>
0

> <PUBCHEM_COMPONENT_COUNT>
1

> <PUBCHEM_CACTVS_TAUTO_COUNT>
3

> <PUBCHEM_CONFORMER_ID>
002F100700000001

> <PUBCHEM_MMFF94_ENERGY>
90.0593

> <PUBCHEM_FEATURE_SELFOVERLAP>
76.182

> <PUBCHEM_SHAPE_FINGERPRINT>
10190206 1 17974604491794264436
1100329 8 17617091404598993838
12156800 1 17974819840588978010
12788726 201 18336262328137579138
13122387 1 18337668625316020077
13402501 40 18336824311823007295
13631057 29 18413393112192138492
138480 1 15167416688157097429
14866123 147 18267305322967648889
14932702 115 18341614754941640060
150020 26 17977674426352100499
151778 21 17327478311260891931
15210252 30 18042409199903051884
15420108 30 17481686973398966832
16067690 210 14996546388216570103
17093844 170 18337379552131303697
17138139 8 17694745603254291317
17921350 177 17246635503395433237
19930381 70 17761210312665186759
20567600 299 18126001817545854663
20775530 9 18411132541849161887
21641784 216 18189075160771750268
21860390 5 18198069272749924463
221357 26 18410852179332778423
23419403 2 17702360940983905528
23559900 14 18192706972343498079
238918 7 17839706542998770721
24893992 56 18260260855607086683
3014063 31 18409728460746627967
3027735 51 18195812872962713931
469060 322 18262806151050640712
508706 21 17969200379168912383
653340 110 18266167349475220648

> <PUBCHEM_SHAPE_MULTIPOLES>
543.98
9.22
5.77
1.43
3.98
2.62
-0.94
-7.84
2.69
0.67
-0.15
-0.33
1.32
1

> <PUBCHEM_SHAPE_SELFOVERLAP>
1163.178

> <PUBCHEM_SHAPE_VOLUME>
298.5

> <PUBCHEM_COORDINATE_TYPE>
2
5
10

$$$$
