9921439
  -OEChem-09082012273D

 37 38  0     1  0  0  0  0  0999 V2000
    2.3382   -1.4486    0.2391 O   0  0  0  0  0  0  0  0  0  0  0  0
    4.5831   -0.9605    0.2729 O   0  0  0  0  0  0  0  0  0  0  0  0
   -1.7901    2.3732    1.3326 O   0  0  0  0  0  0  0  0  0  0  0  0
   -3.2853    0.6447    1.2515 O   0  0  0  0  0  0  0  0  0  0  0  0
    1.4519    0.6216   -0.5211 C   0  0  1  0  0  0  0  0  0  0  0  0
    1.1278   -0.6725    0.2534 C   0  0  1  0  0  0  0  0  0  0  0  0
    0.5780    1.8530   -0.1769 C   0  0  0  0  0  0  0  0  0  0  0  0
    2.9064    0.7266   -0.1666 C   0  0  0  0  0  0  0  0  0  0  0  0
   -0.7284    2.0228   -0.9928 C   0  0  0  0  0  0  0  0  0  0  0  0
    0.0490   -1.4801   -0.4024 C   0  0  0  0  0  0  0  0  0  0  0  0
   -1.0726   -1.9671    0.1672 C   0  0  0  0  0  0  0  0  0  0  0  0
    3.4195   -0.6250    0.1463 C   0  0  0  0  0  0  0  0  0  0  0  0
   -2.2467   -2.3106   -0.7381 C   0  0  0  0  0  0  0  0  0  0  0  0
   -1.8574    1.1121   -0.5905 C   0  0  0  0  0  0  0  0  0  0  0  0
   -3.1430   -1.0712   -0.9943 C   0  0  0  0  0  0  0  0  0  0  0  0
   -2.3017    0.1221   -1.3880 C   0  0  0  0  0  0  0  0  0  0  0  0
    3.7157    1.7869   -0.0912 C   0  0  0  0  0  0  0  0  0  0  0  0
   -1.3359   -2.0510    1.6421 C   0  0  0  0  0  0  0  0  0  0  0  0
   -2.4087    1.3237    0.7568 C   0  0  0  0  0  0  0  0  0  0  0  0
    1.4102    0.4449   -1.6051 H   0  0  0  0  0  0  0  0  0  0  0  0
    0.8950   -0.4455    1.2994 H   0  0  0  0  0  0  0  0  0  0  0  0
    1.1563    2.7585   -0.3988 H   0  0  0  0  0  0  0  0  0  0  0  0
    0.4132    1.8794    0.9042 H   0  0  0  0  0  0  0  0  0  0  0  0
   -0.4892    1.8867   -2.0557 H   0  0  0  0  0  0  0  0  0  0  0  0
   -1.0662    3.0653   -0.9154 H   0  0  0  0  0  0  0  0  0  0  0  0
    0.1219   -1.5216   -1.4896 H   0  0  0  0  0  0  0  0  0  0  0  0
   -1.8803   -2.6944   -1.6999 H   0  0  0  0  0  0  0  0  0  0  0  0
   -2.8428   -3.1206   -0.3013 H   0  0  0  0  0  0  0  0  0  0  0  0
   -3.8073   -0.9107   -0.1470 H   0  0  0  0  0  0  0  0  0  0  0  0
   -3.8161   -1.2983   -1.8311 H   0  0  0  0  0  0  0  0  0  0  0  0
   -1.8672    0.0424   -2.3846 H   0  0  0  0  0  0  0  0  0  0  0  0
    3.3663    2.7870   -0.3191 H   0  0  0  0  0  0  0  0  0  0  0  0
    4.7584    1.6893    0.1934 H   0  0  0  0  0  0  0  0  0  0  0  0
   -2.2128   -1.4681    1.9276 H   0  0  0  0  0  0  0  0  0  0  0  0
   -0.4951   -1.7159    2.2530 H   0  0  0  0  0  0  0  0  0  0  0  0
   -1.5290   -3.0943    1.9158 H   0  0  0  0  0  0  0  0  0  0  0  0
   -2.1268    2.5499    2.2368 H   0  0  0  0  0  0  0  0  0  0  0  0
  1  6  1  0  0  0  0
  1 12  1  0  0  0  0
  2 12  2  0  0  0  0
  3 19  1  0  0  0  0
  3 37  1  0  0  0  0
  4 19  2  0  0  0  0
  5  6  1  0  0  0  0
  5  7  1  0  0  0  0
  5  8  1  0  0  0  0
  5 20  1  0  0  0  0
  6 10  1  0  0  0  0
  6 21  1  0  0  0  0
  7  9  1  0  0  0  0
  7 22  1  0  0  0  0
  7 23  1  0  0  0  0
  8 12  1  0  0  0  0
  8 17  2  0  0  0  0
  9 14  1  0  0  0  0
  9 24  1  0  0  0  0
  9 25  1  0  0  0  0
 10 11  2  0  0  0  0
 10 26  1  0  0  0  0
 11 13  1  0  0  0  0
 11 18  1  0  0  0  0
 13 15  1  0  0  0  0
 13 27  1  0  0  0  0
 13 28  1  0  0  0  0
 14 16  2  0  0  0  0
 14 19  1  0  0  0  0
 15 16  1  0  0  0  0
 15 29  1  0  0  0  0
 15 30  1  0  0  0  0
 16 31  1  0  0  0  0
 17 32  1  0  0  0  0
 17 33  1  0  0  0  0
 18 34  1  0  0  0  0
 18 35  1  0  0  0  0
 18 36  1  0  0  0  0
M  END
> <PUBCHEM_COMPOUND_CID>
9921439

> <PUBCHEM_CONFORMER_RMSD>
0.6

> <PUBCHEM_CONFORMER_DIVERSEORDER>
2
4
3
1

> <PUBCHEM_MMFF94_PARTIAL_CHARGES>
23
1 -0.43
10 -0.29
11 -0.28
12 0.71
13 0.14
14 -0.12
15 0.14
16 -0.29
17 -0.3
18 0.14
19 0.71
2 -0.57
26 0.15
3 -0.65
31 0.15
32 0.15
33 0.15
37 0.5
4 -0.57
5 0.14
6 0.42
8 -0.12
9 0.14

> <PUBCHEM_EFFECTIVE_ROTOR_COUNT>
2

> <PUBCHEM_PHARMACOPHORE_FEATURES>
5
1 2 acceptor
1 3 acceptor
1 4 acceptor
3 3 4 19 anion
5 1 5 6 8 12 rings

> <PUBCHEM_HEAVY_ATOM_COUNT>
19

> <PUBCHEM_ATOM_DEF_STEREO_COUNT>
2

> <PUBCHEM_ATOM_UDEF_STEREO_COUNT>
0

> <PUBCHEM_BOND_DEF_STEREO_COUNT>
2

> <PUBCHEM_BOND_UDEF_STEREO_COUNT>
0

> <PUBCHEM_ISOTOPIC_ATOM_COUNT>
0

> <PUBCHEM_COMPONENT_COUNT>
1

> <PUBCHEM_CACTVS_TAUTO_COUNT>
1

> <PUBCHEM_CONFORMER_ID>
0097639F00000002

> <PUBCHEM_MMFF94_ENERGY>
53.9223

> <PUBCHEM_FEATURE_SELFOVERLAP>
25.426

> <PUBCHEM_SHAPE_FINGERPRINT>
11132069 177 18340195319910667212
12491281 212 18341616996945567458
13027679 85 18053100915569900597
13140716 1 18407762547379162562
13583140 156 15864060010196591700
14081887 123 18056462075229064000
14251745 187 18265041617114229344
15196674 1 18336538412761008487
15209289 33 18339928104214777882
15309172 13 18336267821136447493
15442244 35 18411133611422826982
15775835 57 18336261224256565581
16945 1 18266169531302652942
200 152 18271794783167107503
20261772 1 18338529576694809753
20510252 161 18263640843289779490
21501502 16 18411418440663351436
21623110 236 18192150619117185924
21731228 192 18124889966540236977
2334 1 18263363758238702006
23402539 116 18272074024797994431
23419403 2 17624373809681202701
23557571 272 18126010596580567654
23559900 14 18339063948785104248
2748010 2 17253425116039118237
3286 77 17560220518550848834
427121 178 16842236020284330529
430814 3 17769376024546602401
6438718 38 17775293776426229071
81228 2 18334573581303132824
8809292 202 18260263058017818382
9709674 26 18410571791030253398

> <PUBCHEM_SHAPE_MULTIPOLES>
367.53
6.18
2.75
1.22
5.48
0.09
0.24
-0.45
0.06
-0.91
0.37
-1.16
0.05
-0.59

> <PUBCHEM_SHAPE_SELFOVERLAP>
768.57

> <PUBCHEM_SHAPE_VOLUME>
206.3

> <PUBCHEM_COORDINATE_TYPE>
2
5
10

$$$$
