10478550
  -OEChem-09082012233D

 82 86  0     1  0  0  0  0  0999 V2000
   -3.6365   -3.3572    0.0156 O   0  0  0  0  0  0  0  0  0  0  0  0
    6.1499    1.5895   -0.7489 O   0  0  0  0  0  0  0  0  0  0  0  0
    0.6564   -0.7930   -0.3217 C   0  0  1  0  0  0  0  0  0  0  0  0
   -0.8285   -0.8092    0.3622 C   0  0  1  0  0  0  0  0  0  0  0  0
    1.3624    0.5755    0.0264 C   0  0  1  0  0  0  0  0  0  0  0  0
   -1.6638    0.4363   -0.1429 C   0  0  1  0  0  0  0  0  0  0  0  0
    2.9196    0.7102   -0.2874 C   0  0  2  0  0  0  0  0  0  0  0  0
   -3.1569    0.4300    0.3721 C   0  0  2  0  0  0  0  0  0  0  0  0
    3.6498   -0.5475    0.2981 C   0  0  1  0  0  0  0  0  0  0  0  0
    1.5414   -1.9551    0.2094 C   0  0  0  0  0  0  0  0  0  0  0  0
    0.5109    1.7613   -0.4642 C   0  0  0  0  0  0  0  0  0  0  0  0
   -3.8823   -0.9014   -0.0579 C   0  0  1  0  0  0  0  0  0  0  0  0
   -1.6037   -2.1104    0.0043 C   0  0  0  0  0  0  0  0  0  0  0  0
   -0.9032    1.7481    0.1200 C   0  0  0  0  0  0  0  0  0  0  0  0
    3.0152   -1.8620   -0.1966 C   0  0  0  0  0  0  0  0  0  0  0  0
   -3.0663   -2.1236    0.4609 C   0  0  2  0  0  0  0  0  0  0  0  0
    5.2299   -0.5211    0.2207 C   0  0  0  0  0  0  0  0  0  0  0  0
    3.4605    1.9863    0.4541 C   0  0  0  0  0  0  0  0  0  0  0  0
    0.5249   -0.9981   -1.8608 C   0  0  0  0  0  0  0  0  0  0  0  0
   -0.7224   -0.7810    1.9235 C   0  0  0  0  0  0  0  0  0  0  0  0
   -3.9780    1.7137   -0.0179 C   0  0  1  0  0  0  0  0  0  0  0  0
    3.1925    0.9069   -1.7968 C   0  0  0  0  0  0  0  0  0  0  0  0
   -5.3065   -0.9601    0.5806 C   0  0  0  0  0  0  0  0  0  0  0  0
    5.7864    0.9216    0.4563 C   0  0  2  0  0  0  0  0  0  0  0  0
    4.7901    1.8069    1.1959 C   0  0  0  0  0  0  0  0  0  0  0  0
   -4.0431   -1.0142   -1.6025 C   0  0  0  0  0  0  0  0  0  0  0  0
   -6.0242    0.3829    0.7279 C   0  0  0  0  0  0  0  0  0  0  0  0
   -5.4616    1.4300   -0.1823 C   0  0  0  0  0  0  0  0  0  0  0  0
    5.7888   -1.1389   -1.0780 C   0  0  0  0  0  0  0  0  0  0  0  0
    5.7694   -1.4021    1.3856 C   0  0  0  0  0  0  0  0  0  0  0  0
   -3.8573    2.8212    1.0466 C   0  0  0  0  0  0  0  0  0  0  0  0
   -6.2136    2.0547   -1.1022 C   0  0  0  0  0  0  0  0  0  0  0  0
    1.3428    0.6411    1.1211 H   0  0  0  0  0  0  0  0  0  0  0  0
   -1.7418    0.3695   -1.2331 H   0  0  0  0  0  0  0  0  0  0  0  0
   -3.1241    0.4276    1.4691 H   0  0  0  0  0  0  0  0  0  0  0  0
    3.4185   -0.5231    1.3762 H   0  0  0  0  0  0  0  0  0  0  0  0
    1.1482   -2.9205   -0.1309 H   0  0  0  0  0  0  0  0  0  0  0  0
    1.5218   -1.9862    1.3028 H   0  0  0  0  0  0  0  0  0  0  0  0
    0.4363    1.7664   -1.5563 H   0  0  0  0  0  0  0  0  0  0  0  0
    0.9762    2.7143   -0.1906 H   0  0  0  0  0  0  0  0  0  0  0  0
   -1.1004   -2.9837    0.4396 H   0  0  0  0  0  0  0  0  0  0  0  0
   -1.5872   -2.2963   -1.0720 H   0  0  0  0  0  0  0  0  0  0  0  0
   -0.8552    1.9531    1.1951 H   0  0  0  0  0  0  0  0  0  0  0  0
   -1.4312    2.5868   -0.3448 H   0  0  0  0  0  0  0  0  0  0  0  0
    3.5287   -2.7206    0.2496 H   0  0  0  0  0  0  0  0  0  0  0  0
    3.1224   -1.9781   -1.2786 H   0  0  0  0  0  0  0  0  0  0  0  0
   -3.1046   -2.1561    1.5547 H   0  0  0  0  0  0  0  0  0  0  0  0
    2.7409    2.3377    1.2043 H   0  0  0  0  0  0  0  0  0  0  0  0
    3.5571    2.8190   -0.2554 H   0  0  0  0  0  0  0  0  0  0  0  0
    1.4800   -0.9736   -2.3773 H   0  0  0  0  0  0  0  0  0  0  0  0
    0.1166   -1.9832   -2.1051 H   0  0  0  0  0  0  0  0  0  0  0  0
   -0.1062   -0.2515   -2.3458 H   0  0  0  0  0  0  0  0  0  0  0  0
   -1.6974   -0.7298    2.4134 H   0  0  0  0  0  0  0  0  0  0  0  0
   -0.2556   -1.6911    2.3122 H   0  0  0  0  0  0  0  0  0  0  0  0
   -0.1589    0.0707    2.3070 H   0  0  0  0  0  0  0  0  0  0  0  0
   -3.5913    2.0998   -0.9699 H   0  0  0  0  0  0  0  0  0  0  0  0
    3.2106   -0.0280   -2.3556 H   0  0  0  0  0  0  0  0  0  0  0  0
    2.4593    1.5664   -2.2678 H   0  0  0  0  0  0  0  0  0  0  0  0
    4.1600    1.3760   -1.9845 H   0  0  0  0  0  0  0  0  0  0  0  0
   -5.2493   -1.4028    1.5842 H   0  0  0  0  0  0  0  0  0  0  0  0
   -5.9437   -1.6453    0.0060 H   0  0  0  0  0  0  0  0  0  0  0  0
    6.7047    0.8787    1.0552 H   0  0  0  0  0  0  0  0  0  0  0  0
    5.2251    2.8011    1.3585 H   0  0  0  0  0  0  0  0  0  0  0  0
    4.5959    1.3871    2.1907 H   0  0  0  0  0  0  0  0  0  0  0  0
   -3.0855   -1.1099   -2.1205 H   0  0  0  0  0  0  0  0  0  0  0  0
   -4.6437   -1.8880   -1.8797 H   0  0  0  0  0  0  0  0  0  0  0  0
   -4.5427   -0.1475   -2.0404 H   0  0  0  0  0  0  0  0  0  0  0  0
   -5.9260    0.7311    1.7640 H   0  0  0  0  0  0  0  0  0  0  0  0
   -7.0993    0.2371    0.5668 H   0  0  0  0  0  0  0  0  0  0  0  0
    5.4396   -0.6192   -1.9728 H   0  0  0  0  0  0  0  0  0  0  0  0
    6.8848   -1.1030   -1.0852 H   0  0  0  0  0  0  0  0  0  0  0  0
    5.5117   -2.1936   -1.1793 H   0  0  0  0  0  0  0  0  0  0  0  0
    6.8659   -1.4132    1.3947 H   0  0  0  0  0  0  0  0  0  0  0  0
    5.4374   -1.0253    2.3595 H   0  0  0  0  0  0  0  0  0  0  0  0
    5.4409   -2.4425    1.3003 H   0  0  0  0  0  0  0  0  0  0  0  0
   -2.8283    3.1387    1.2160 H   0  0  0  0  0  0  0  0  0  0  0  0
   -4.4181    3.7140    0.7453 H   0  0  0  0  0  0  0  0  0  0  0  0
   -4.2550    2.4935    2.0141 H   0  0  0  0  0  0  0  0  0  0  0  0
   -3.4433   -3.4678   -0.9301 H   0  0  0  0  0  0  0  0  0  0  0  0
    6.9580    1.1704   -1.0891 H   0  0  0  0  0  0  0  0  0  0  0  0
   -5.7877    2.8036   -1.7614 H   0  0  0  0  0  0  0  0  0  0  0  0
   -7.2691    1.8316   -1.2151 H   0  0  0  0  0  0  0  0  0  0  0  0
  1 16  1  0  0  0  0
  1 79  1  0  0  0  0
  2 24  1  0  0  0  0
  2 80  1  0  0  0  0
  3  4  1  0  0  0  0
  3  5  1  0  0  0  0
  3 10  1  0  0  0  0
  3 19  1  0  0  0  0
  4  6  1  0  0  0  0
  4 13  1  0  0  0  0
  4 20  1  0  0  0  0
  5  7  1  0  0  0  0
  5 11  1  0  0  0  0
  5 33  1  0  0  0  0
  6  8  1  0  0  0  0
  6 14  1  0  0  0  0
  6 34  1  0  0  0  0
  7  9  1  0  0  0  0
  7 18  1  0  0  0  0
  7 22  1  0  0  0  0
  8 12  1  0  0  0  0
  8 21  1  0  0  0  0
  8 35  1  0  0  0  0
  9 15  1  0  0  0  0
  9 17  1  0  0  0  0
  9 36  1  0  0  0  0
 10 15  1  0  0  0  0
 10 37  1  0  0  0  0
 10 38  1  0  0  0  0
 11 14  1  0  0  0  0
 11 39  1  0  0  0  0
 11 40  1  0  0  0  0
 12 16  1  0  0  0  0
 12 23  1  0  0  0  0
 12 26  1  0  0  0  0
 13 16  1  0  0  0  0
 13 41  1  0  0  0  0
 13 42  1  0  0  0  0
 14 43  1  0  0  0  0
 14 44  1  0  0  0  0
 15 45  1  0  0  0  0
 15 46  1  0  0  0  0
 16 47  1  0  0  0  0
 17 24  1  0  0  0  0
 17 29  1  0  0  0  0
 17 30  1  0  0  0  0
 18 25  1  0  0  0  0
 18 48  1  0  0  0  0
 18 49  1  0  0  0  0
 19 50  1  0  0  0  0
 19 51  1  0  0  0  0
 19 52  1  0  0  0  0
 20 53  1  0  0  0  0
 20 54  1  0  0  0  0
 20 55  1  0  0  0  0
 21 28  1  0  0  0  0
 21 31  1  0  0  0  0
 21 56  1  0  0  0  0
 22 57  1  0  0  0  0
 22 58  1  0  0  0  0
 22 59  1  0  0  0  0
 23 27  1  0  0  0  0
 23 60  1  0  0  0  0
 23 61  1  0  0  0  0
 24 25  1  0  0  0  0
 24 62  1  0  0  0  0
 25 63  1  0  0  0  0
 25 64  1  0  0  0  0
 26 65  1  0  0  0  0
 26 66  1  0  0  0  0
 26 67  1  0  0  0  0
 27 28  1  0  0  0  0
 27 68  1  0  0  0  0
 27 69  1  0  0  0  0
 28 32  2  0  0  0  0
 29 70  1  0  0  0  0
 29 71  1  0  0  0  0
 29 72  1  0  0  0  0
 30 73  1  0  0  0  0
 30 74  1  0  0  0  0
 30 75  1  0  0  0  0
 31 76  1  0  0  0  0
 31 77  1  0  0  0  0
 31 78  1  0  0  0  0
 32 81  1  0  0  0  0
 32 82  1  0  0  0  0
M  END
> <PUBCHEM_COMPOUND_CID>
10478550

> <PUBCHEM_CONFORMER_RMSD>
0.8

> <PUBCHEM_CONFORMER_DIVERSEORDER>
1

> <PUBCHEM_MMFF94_PARTIAL_CHARGES>
12
1 -0.68
16 0.28
2 -0.68
21 0.14
24 0.28
27 0.14
28 -0.28
32 -0.3
79 0.4
80 0.4
81 0.15
82 0.15

> <PUBCHEM_EFFECTIVE_ROTOR_COUNT>
2.6

> <PUBCHEM_PHARMACOPHORE_FEATURES>
10
1 1 acceptor
1 1 donor
1 2 acceptor
1 2 donor
3 17 29 30 hydrophobe
6 3 4 5 6 11 14 rings
6 3 5 7 9 10 15 rings
6 4 6 8 12 13 16 rings
6 7 9 17 18 24 25 rings
6 8 12 21 23 27 28 rings

> <PUBCHEM_HEAVY_ATOM_COUNT>
32

> <PUBCHEM_ATOM_DEF_STEREO_COUNT>
11

> <PUBCHEM_ATOM_UDEF_STEREO_COUNT>
0

> <PUBCHEM_BOND_DEF_STEREO_COUNT>
0

> <PUBCHEM_BOND_UDEF_STEREO_COUNT>
0

> <PUBCHEM_ISOTOPIC_ATOM_COUNT>
0

> <PUBCHEM_COMPONENT_COUNT>
1

> <PUBCHEM_CACTVS_TAUTO_COUNT>
1

> <PUBCHEM_CONFORMER_ID>
009FE3D600000001

> <PUBCHEM_MMFF94_ENERGY>
167.5081

> <PUBCHEM_FEATURE_SELFOVERLAP>
50.799

> <PUBCHEM_SHAPE_FINGERPRINT>
10 15 18260271854295262377
10411042 1 17906172112089778659
10675989 125 17254263528886597813
10906281 52 18339377300133431495
11045977 3 18342737420880013904
11578080 2 13828756132038137457
12107183 9 18120368757731712562
12166972 35 17531254975697052989
12236239 1 17967813842527584387
12422481 6 18261106361797715668
12633257 1 18260542291105788834
12788726 201 17702665437116996857
13224815 77 18272096014697700834
13402501 40 18411981351471878913
13583140 156 17988359368328061451
13782708 43 17417807400303149343
13811026 1 18341892979075941850
13911987 19 16486694774303003592
14341114 176 18411142437058361416
14394314 77 18270687446769230361
14790565 3 18194121820221895393
15021287 119 17095245817029515604
15131766 46 16227763119214853820
15183329 4 18412825763543047488
15196674 1 18410574006984983818
15238133 3 18113907065265466116
15484559 13 16098787789388931677
15788980 27 18334860519319994865
17349148 13 17894352202374543030
17980427 23 17822296845982993518
1813 80 16660363679966850494
18608769 82 18410013278347572659
20511986 3 18334283267115006395
20715895 44 18338232653042728829
21033648 144 18409438189656101749
21033648 29 17988630956838625000
21236236 1 18412260662375461335
21267235 1 18409459084777582195
21279426 13 18412266116656944758
21421861 104 17750504097151628770
21859007 373 17678446464443164525
22393880 68 18342182184572071798
23402539 116 18411976962326123119
23522609 53 17824290149370385444
23559900 14 18342453772481436488
23569943 247 16879612805379245346
24771293 8 18268138942024418840
2838139 119 18343012264480285389
3004659 81 18333455322675905236
32027 91 16987178040603718862
335352 9 18409166584529762508
338550 245 18260553346008801908
34797466 226 17418099827451479396
34934 24 18408599245346838491
3493558 16 18342182167218603520
350125 39 18408323263802078588
3633792 109 18267013965509009013
3680242 22 18187365381166658738
404807 14 17120872985100559390
4073 2 18114185293516153794
4144715 1 18335712632305657099
5104073 3 18410570691417918656
513202 73 16372120006459421602
5283173 99 18411698781315392305
57724786 102 16588599702678075924
59755656 215 18338518534676867574
6086070 43 17703501190064968225
6328613 192 18334301980794307268
7226269 152 18343021073706045137
9981440 41 18335707139627996235

> <PUBCHEM_SHAPE_MULTIPOLES>
646.81
15.48
2.81
1.33
2.72
0.19
0.19
-3.8
-0.42
-1.66
-0.23
0.36
0.04
0.12

> <PUBCHEM_SHAPE_SELFOVERLAP>
1361.054

> <PUBCHEM_SHAPE_VOLUME>
360.1

> <PUBCHEM_COORDINATE_TYPE>
2
5
10

$$$$
