76312320
  -OEChem-09082012132D

131130  0     1  0  0  0  0  0999 V2000
   24.5167    1.6550    0.0000 O   0  0  0  0  0  0  0  0  0  0  0  0
   25.3827   -0.8450    0.0000 O   0  0  0  0  0  0  0  0  0  0  0  0
   21.0526    1.6550    0.0000 O   0  0  0  0  0  0  0  0  0  0  0  0
   22.7846   -1.3450    0.0000 O   0  0  0  0  0  0  0  0  0  0  0  0
   21.9186   -0.8450    0.0000 O   0  0  0  0  0  0  0  0  0  0  0  0
   22.7846    0.6550    0.0000 N   0  0  0  0  0  0  0  0  0  0  0  0
   13.2583    0.1550    0.0000 C   0  0  0  0  0  0  0  0  0  0  0  0
   14.1244    0.6550    0.0000 C   0  0  0  0  0  0  0  0  0  0  0  0
   12.3923    0.6550    0.0000 C   0  0  0  0  0  0  0  0  0  0  0  0
   14.9904    0.1550    0.0000 C   0  0  0  0  0  0  0  0  0  0  0  0
   11.5263    0.1550    0.0000 C   0  0  0  0  0  0  0  0  0  0  0  0
   15.8564    0.6550    0.0000 C   0  0  0  0  0  0  0  0  0  0  0  0
   10.6603    0.6550    0.0000 C   0  0  0  0  0  0  0  0  0  0  0  0
   16.7224    0.1550    0.0000 C   0  0  0  0  0  0  0  0  0  0  0  0
    9.7942    0.1550    0.0000 C   0  0  0  0  0  0  0  0  0  0  0  0
   17.5885    0.6550    0.0000 C   0  0  0  0  0  0  0  0  0  0  0  0
   24.5167    0.6550    0.0000 C   0  0  1  0  0  0  0  0  0  0  0  0
    8.9282    0.6550    0.0000 C   0  0  0  0  0  0  0  0  0  0  0  0
   23.6506    0.1550    0.0000 C   0  0  2  0  0  0  0  0  0  0  0  0
   18.4545    0.1550    0.0000 C   0  0  0  0  0  0  0  0  0  0  0  0
   25.3827    0.1550    0.0000 C   0  0  1  0  0  0  0  0  0  0  0  0
    8.0622    0.1550    0.0000 C   0  0  0  0  0  0  0  0  0  0  0  0
   19.3205    0.6550    0.0000 C   0  0  0  0  0  0  0  0  0  0  0  0
    7.1962    0.6550    0.0000 C   0  0  0  0  0  0  0  0  0  0  0  0
   20.1865    0.1550    0.0000 C   0  0  0  0  0  0  0  0  0  0  0  0
   26.2487    0.6550    0.0000 C   0  0  0  0  0  0  0  0  0  0  0  0
    6.3301    0.1550    0.0000 C   0  0  0  0  0  0  0  0  0  0  0  0
   21.0526    0.6550    0.0000 C   0  0  2  0  0  0  0  0  0  0  0  0
    5.4641    0.6550    0.0000 C   0  0  0  0  0  0  0  0  0  0  0  0
   27.1147    0.1550    0.0000 C   0  0  0  0  0  0  0  0  0  0  0  0
   23.6506   -0.8450    0.0000 C   0  0  0  0  0  0  0  0  0  0  0  0
   21.9186    0.1550    0.0000 C   0  0  0  0  0  0  0  0  0  0  0  0
    4.5981    0.1550    0.0000 C   0  0  0  0  0  0  0  0  0  0  0  0
   27.9808    0.6550    0.0000 C   0  0  0  0  0  0  0  0  0  0  0  0
    3.7320    0.6550    0.0000 C   0  0  0  0  0  0  0  0  0  0  0  0
   32.3109    0.1550    0.0000 C   0  0  0  0  0  0  0  0  0  0  0  0
   33.1769    0.6550    0.0000 C   0  0  0  0  0  0  0  0  0  0  0  0
   31.4449    0.6550    0.0000 C   0  0  0  0  0  0  0  0  0  0  0  0
    2.8660    0.1550    0.0000 C   0  0  0  0  0  0  0  0  0  0  0  0
   28.8468    0.1550    0.0000 C   0  0  0  0  0  0  0  0  0  0  0  0
   34.0429    0.1550    0.0000 C   0  0  0  0  0  0  0  0  0  0  0  0
   30.5788    0.1550    0.0000 C   0  0  0  0  0  0  0  0  0  0  0  0
   34.9090    0.6550    0.0000 C   0  0  0  0  0  0  0  0  0  0  0  0
   29.7128    0.6550    0.0000 C   0  0  0  0  0  0  0  0  0  0  0  0
   35.7750    0.1550    0.0000 C   0  0  0  0  0  0  0  0  0  0  0  0
    2.0000    0.6550    0.0000 C   0  0  0  0  0  0  0  0  0  0  0  0
   36.6410    0.6550    0.0000 C   0  0  0  0  0  0  0  0  0  0  0  0
   37.5070    0.1550    0.0000 C   0  0  0  0  0  0  0  0  0  0  0  0
   12.8598   -0.3199    0.0000 H   0  0  0  0  0  0  0  0  0  0  0  0
   13.6569   -0.3199    0.0000 H   0  0  0  0  0  0  0  0  0  0  0  0
   14.5229    1.1300    0.0000 H   0  0  0  0  0  0  0  0  0  0  0  0
   13.7258    1.1300    0.0000 H   0  0  0  0  0  0  0  0  0  0  0  0
   12.7908    1.1300    0.0000 H   0  0  0  0  0  0  0  0  0  0  0  0
   11.9938    1.1300    0.0000 H   0  0  0  0  0  0  0  0  0  0  0  0
   14.5919   -0.3199    0.0000 H   0  0  0  0  0  0  0  0  0  0  0  0
   15.3889   -0.3199    0.0000 H   0  0  0  0  0  0  0  0  0  0  0  0
   11.1278   -0.3199    0.0000 H   0  0  0  0  0  0  0  0  0  0  0  0
   11.9248   -0.3199    0.0000 H   0  0  0  0  0  0  0  0  0  0  0  0
   16.2549    1.1300    0.0000 H   0  0  0  0  0  0  0  0  0  0  0  0
   15.4579    1.1300    0.0000 H   0  0  0  0  0  0  0  0  0  0  0  0
   11.0588    1.1300    0.0000 H   0  0  0  0  0  0  0  0  0  0  0  0
   10.2617    1.1300    0.0000 H   0  0  0  0  0  0  0  0  0  0  0  0
   16.3239   -0.3199    0.0000 H   0  0  0  0  0  0  0  0  0  0  0  0
   17.1210   -0.3199    0.0000 H   0  0  0  0  0  0  0  0  0  0  0  0
    9.3957   -0.3199    0.0000 H   0  0  0  0  0  0  0  0  0  0  0  0
   10.1928   -0.3199    0.0000 H   0  0  0  0  0  0  0  0  0  0  0  0
   17.9870    1.1300    0.0000 H   0  0  0  0  0  0  0  0  0  0  0  0
   17.1899    1.1300    0.0000 H   0  0  0  0  0  0  0  0  0  0  0  0
   23.9797    0.9650    0.0000 H   0  0  0  0  0  0  0  0  0  0  0  0
    9.3267    1.1300    0.0000 H   0  0  0  0  0  0  0  0  0  0  0  0
    8.5297    1.1300    0.0000 H   0  0  0  0  0  0  0  0  0  0  0  0
   23.1137   -0.1550    0.0000 H   0  0  0  0  0  0  0  0  0  0  0  0
   18.0560   -0.3199    0.0000 H   0  0  0  0  0  0  0  0  0  0  0  0
   18.8530   -0.3199    0.0000 H   0  0  0  0  0  0  0  0  0  0  0  0
   25.9196   -0.1550    0.0000 H   0  0  0  0  0  0  0  0  0  0  0  0
    7.6636   -0.3199    0.0000 H   0  0  0  0  0  0  0  0  0  0  0  0
    8.4607   -0.3199    0.0000 H   0  0  0  0  0  0  0  0  0  0  0  0
   19.7190    1.1300    0.0000 H   0  0  0  0  0  0  0  0  0  0  0  0
   18.9220    1.1300    0.0000 H   0  0  0  0  0  0  0  0  0  0  0  0
    7.5947    1.1300    0.0000 H   0  0  0  0  0  0  0  0  0  0  0  0
    6.7976    1.1300    0.0000 H   0  0  0  0  0  0  0  0  0  0  0  0
   19.7880   -0.3199    0.0000 H   0  0  0  0  0  0  0  0  0  0  0  0
   20.5851   -0.3199    0.0000 H   0  0  0  0  0  0  0  0  0  0  0  0
   26.6472    1.1300    0.0000 H   0  0  0  0  0  0  0  0  0  0  0  0
   25.8502    1.1300    0.0000 H   0  0  0  0  0  0  0  0  0  0  0  0
    5.9316   -0.3199    0.0000 H   0  0  0  0  0  0  0  0  0  0  0  0
    6.7287   -0.3199    0.0000 H   0  0  0  0  0  0  0  0  0  0  0  0
   20.5156    0.9650    0.0000 H   0  0  0  0  0  0  0  0  0  0  0  0
    5.8626    1.1300    0.0000 H   0  0  0  0  0  0  0  0  0  0  0  0
    5.0656    1.1300    0.0000 H   0  0  0  0  0  0  0  0  0  0  0  0
   22.7846    1.2750    0.0000 H   0  0  0  0  0  0  0  0  0  0  0  0
   26.7162   -0.3199    0.0000 H   0  0  0  0  0  0  0  0  0  0  0  0
   27.5133   -0.3199    0.0000 H   0  0  0  0  0  0  0  0  0  0  0  0
   23.8627   -1.4276    0.0000 H   0  0  0  0  0  0  0  0  0  0  0  0
   24.2612   -0.7373    0.0000 H   0  0  0  0  0  0  0  0  0  0  0  0
    4.1996   -0.3199    0.0000 H   0  0  0  0  0  0  0  0  0  0  0  0
    4.9966   -0.3199    0.0000 H   0  0  0  0  0  0  0  0  0  0  0  0
   28.3793    1.1300    0.0000 H   0  0  0  0  0  0  0  0  0  0  0  0
   27.5822    1.1300    0.0000 H   0  0  0  0  0  0  0  0  0  0  0  0
    4.1306    1.1300    0.0000 H   0  0  0  0  0  0  0  0  0  0  0  0
    3.3335    1.1300    0.0000 H   0  0  0  0  0  0  0  0  0  0  0  0
   25.0536    1.9650    0.0000 H   0  0  0  0  0  0  0  0  0  0  0  0
   25.9196   -1.1550    0.0000 H   0  0  0  0  0  0  0  0  0  0  0  0
   31.9124   -0.3199    0.0000 H   0  0  0  0  0  0  0  0  0  0  0  0
   32.7094   -0.3199    0.0000 H   0  0  0  0  0  0  0  0  0  0  0  0
   33.5754    1.1300    0.0000 H   0  0  0  0  0  0  0  0  0  0  0  0
   32.7784    1.1300    0.0000 H   0  0  0  0  0  0  0  0  0  0  0  0
   31.8434    1.1300    0.0000 H   0  0  0  0  0  0  0  0  0  0  0  0
   31.0463    1.1300    0.0000 H   0  0  0  0  0  0  0  0  0  0  0  0
    2.4675   -0.3199    0.0000 H   0  0  0  0  0  0  0  0  0  0  0  0
    3.2646   -0.3199    0.0000 H   0  0  0  0  0  0  0  0  0  0  0  0
   28.8468   -0.4650    0.0000 H   0  0  0  0  0  0  0  0  0  0  0  0
   33.6444   -0.3199    0.0000 H   0  0  0  0  0  0  0  0  0  0  0  0
   34.4415   -0.3199    0.0000 H   0  0  0  0  0  0  0  0  0  0  0  0
   30.1803   -0.3199    0.0000 H   0  0  0  0  0  0  0  0  0  0  0  0
   30.9774   -0.3199    0.0000 H   0  0  0  0  0  0  0  0  0  0  0  0
   20.5156    1.9650    0.0000 H   0  0  0  0  0  0  0  0  0  0  0  0
   35.3075    1.1300    0.0000 H   0  0  0  0  0  0  0  0  0  0  0  0
   34.5104    1.1300    0.0000 H   0  0  0  0  0  0  0  0  0  0  0  0
   29.7128    1.2750    0.0000 H   0  0  0  0  0  0  0  0  0  0  0  0
   22.7846   -1.9650    0.0000 H   0  0  0  0  0  0  0  0  0  0  0  0
   35.3765   -0.3199    0.0000 H   0  0  0  0  0  0  0  0  0  0  0  0
   36.1735   -0.3199    0.0000 H   0  0  0  0  0  0  0  0  0  0  0  0
    2.3100    1.1919    0.0000 H   0  0  0  0  0  0  0  0  0  0  0  0
    1.4631    0.9650    0.0000 H   0  0  0  0  0  0  0  0  0  0  0  0
    1.6900    0.1181    0.0000 H   0  0  0  0  0  0  0  0  0  0  0  0
   37.0395    1.1300    0.0000 H   0  0  0  0  0  0  0  0  0  0  0  0
   36.2425    1.1300    0.0000 H   0  0  0  0  0  0  0  0  0  0  0  0
   37.1970   -0.3819    0.0000 H   0  0  0  0  0  0  0  0  0  0  0  0
   38.0440   -0.1550    0.0000 H   0  0  0  0  0  0  0  0  0  0  0  0
   37.8170    0.6919    0.0000 H   0  0  0  0  0  0  0  0  0  0  0  0
 17  1  1  6  0  0  0
  1102  1  0  0  0  0
 21  2  1  1  0  0  0
  2103  1  0  0  0  0
 28  3  1  1  0  0  0
  3117  1  0  0  0  0
  4 31  1  0  0  0  0
  4121  1  0  0  0  0
  5 32  2  0  0  0  0
 19  6  1  6  0  0  0
  6 32  1  0  0  0  0
  6 91  1  0  0  0  0
  7  8  1  0  0  0  0
  7  9  1  0  0  0  0
  7 49  1  0  0  0  0
  7 50  1  0  0  0  0
  8 10  1  0  0  0  0
  8 51  1  0  0  0  0
  8 52  1  0  0  0  0
  9 11  1  0  0  0  0
  9 53  1  0  0  0  0
  9 54  1  0  0  0  0
 10 12  1  0  0  0  0
 10 55  1  0  0  0  0
 10 56  1  0  0  0  0
 11 13  1  0  0  0  0
 11 57  1  0  0  0  0
 11 58  1  0  0  0  0
 12 14  1  0  0  0  0
 12 59  1  0  0  0  0
 12 60  1  0  0  0  0
 13 15  1  0  0  0  0
 13 61  1  0  0  0  0
 13 62  1  0  0  0  0
 14 16  1  0  0  0  0
 14 63  1  0  0  0  0
 14 64  1  0  0  0  0
 15 18  1  0  0  0  0
 15 65  1  0  0  0  0
 15 66  1  0  0  0  0
 16 20  1  0  0  0  0
 16 67  1  0  0  0  0
 16 68  1  0  0  0  0
 17 19  1  0  0  0  0
 17 21  1  0  0  0  0
 17 69  1  0  0  0  0
 18 22  1  0  0  0  0
 18 70  1  0  0  0  0
 18 71  1  0  0  0  0
 19 31  1  0  0  0  0
 19 72  1  0  0  0  0
 20 23  1  0  0  0  0
 20 73  1  0  0  0  0
 20 74  1  0  0  0  0
 21 26  1  0  0  0  0
 21 75  1  0  0  0  0
 22 24  1  0  0  0  0
 22 76  1  0  0  0  0
 22 77  1  0  0  0  0
 23 25  1  0  0  0  0
 23 78  1  0  0  0  0
 23 79  1  0  0  0  0
 24 27  1  0  0  0  0
 24 80  1  0  0  0  0
 24 81  1  0  0  0  0
 25 28  1  0  0  0  0
 25 82  1  0  0  0  0
 25 83  1  0  0  0  0
 26 30  1  0  0  0  0
 26 84  1  0  0  0  0
 26 85  1  0  0  0  0
 27 29  1  0  0  0  0
 27 86  1  0  0  0  0
 27 87  1  0  0  0  0
 28 32  1  0  0  0  0
 28 88  1  0  0  0  0
 29 33  1  0  0  0  0
 29 89  1  0  0  0  0
 29 90  1  0  0  0  0
 30 34  1  0  0  0  0
 30 92  1  0  0  0  0
 30 93  1  0  0  0  0
 31 94  1  0  0  0  0
 31 95  1  0  0  0  0
 33 35  1  0  0  0  0
 33 96  1  0  0  0  0
 33 97  1  0  0  0  0
 34 40  1  0  0  0  0
 34 98  1  0  0  0  0
 34 99  1  0  0  0  0
 35 39  1  0  0  0  0
 35100  1  0  0  0  0
 35101  1  0  0  0  0
 36 37  1  0  0  0  0
 36 38  1  0  0  0  0
 36104  1  0  0  0  0
 36105  1  0  0  0  0
 37 41  1  0  0  0  0
 37106  1  0  0  0  0
 37107  1  0  0  0  0
 38 42  1  0  0  0  0
 38108  1  0  0  0  0
 38109  1  0  0  0  0
 39 46  1  0  0  0  0
 39110  1  0  0  0  0
 39111  1  0  0  0  0
 40 44  2  0  0  0  0
 40112  1  0  0  0  0
 41 43  1  0  0  0  0
 41113  1  0  0  0  0
 41114  1  0  0  0  0
 42 44  1  0  0  0  0
 42115  1  0  0  0  0
 42116  1  0  0  0  0
 43 45  1  0  0  0  0
 43118  1  0  0  0  0
 43119  1  0  0  0  0
 44120  1  0  0  0  0
 45 47  1  0  0  0  0
 45122  1  0  0  0  0
 45123  1  0  0  0  0
 46124  1  0  0  0  0
 46125  1  0  0  0  0
 46126  1  0  0  0  0
 47 48  1  0  0  0  0
 47127  1  0  0  0  0
 47128  1  0  0  0  0
 48129  1  0  0  0  0
 48130  1  0  0  0  0
 48131  1  0  0  0  0
M  END
> <PUBCHEM_COMPOUND_CID>
76312320

> <PUBCHEM_COMPOUND_CANONICALIZED>
1

> <PUBCHEM_CACTVS_COMPLEXITY>
687

> <PUBCHEM_CACTVS_HBOND_ACCEPTOR>
5

> <PUBCHEM_CACTVS_HBOND_DONOR>
5

> <PUBCHEM_CACTVS_ROTATABLE_BOND>
38

> <PUBCHEM_CACTVS_SUBSKEYS>
AAADcfB+OAAAAAAAAAAAAAAAAAAAAAAAAAAAAAAAAAAAAAAAAAAAHgAQCAAACDzhgAYCAALAAgCIACFSEAIAAAAgAAAICIFIAAgDEBIAgQAEQAAHlgCZAAPYyKCAAAAAAAAAAAAAAAAAAAAAAAAAAAAAAA==

> <PUBCHEM_IUPAC_OPENEYE_NAME>
(2R)-N-[(E,1S,2S,3R)-2,3-dihydroxy-1-(hydroxymethyl)heptadec-7-enyl]-2-hydroxy-tetracosanamide

> <PUBCHEM_IUPAC_CAS_NAME>
(2R)-2-hydroxy-N-[(E,2S,3S,4R)-1,3,4-trihydroxyoctadec-8-en-2-yl]tetracosanamide

> <PUBCHEM_IUPAC_NAME_MARKUP>
(2<I>R</I>)-2-hydroxy-<I>N</I>-[(<I>E</I>,2<I>S</I>,3<I>S</I>,4<I>R</I>)-1,3,4-trihydroxyoctadec-8-en-2-yl]tetracosanamide

> <PUBCHEM_IUPAC_NAME>
(2R)-2-hydroxy-N-[(E,2S,3S,4R)-1,3,4-trihydroxyoctadec-8-en-2-yl]tetracosanamide

> <PUBCHEM_IUPAC_SYSTEMATIC_NAME>
(2R)-2-oxidanyl-N-[(E,2S,3S,4R)-1,3,4-tris(oxidanyl)octadec-8-en-2-yl]tetracosanamide

> <PUBCHEM_IUPAC_TRADITIONAL_NAME>
(2R)-N-[(E,1S,2S,3R)-2,3-dihydroxy-1-methylol-heptadec-7-enyl]-2-hydroxy-lignoceramide

> <PUBCHEM_IUPAC_INCHI>
InChI=1S/C42H83NO5/c1-3-5-7-9-11-13-15-17-18-19-20-21-22-23-24-26-28-30-32-34-36-40(46)42(48)43-38(37-44)41(47)39(45)35-33-31-29-27-25-16-14-12-10-8-6-4-2/h27,29,38-41,44-47H,3-26,28,30-37H2,1-2H3,(H,43,48)/b29-27+/t38-,39+,40+,41-/m0/s1

> <PUBCHEM_IUPAC_INCHIKEY>
BIVGPKIBTGZJJH-BMAQVQEHSA-N

> <PUBCHEM_XLOGP3_AA>
14.9

> <PUBCHEM_EXACT_MASS>
681.627125

> <PUBCHEM_MOLECULAR_FORMULA>
C42H83NO5

> <PUBCHEM_MOLECULAR_WEIGHT>
682.1

> <PUBCHEM_OPENEYE_CAN_SMILES>
CCCCCCCCCCCCCCCCCCCCCCC(C(=O)NC(CO)C(C(CCCC=CCCCCCCCCC)O)O)O

> <PUBCHEM_OPENEYE_ISO_SMILES>
CCCCCCCCCCCCCCCCCCCCCC[C@H](C(=O)N[C@@H](CO)[C@@H]([C@@H](CCC/C=C/CCCCCCCCC)O)O)O

> <PUBCHEM_CACTVS_TPSA>
110

> <PUBCHEM_MONOISOTOPIC_WEIGHT>
681.627125

> <PUBCHEM_TOTAL_CHARGE>
0

> <PUBCHEM_HEAVY_ATOM_COUNT>
48

> <PUBCHEM_ATOM_DEF_STEREO_COUNT>
4

> <PUBCHEM_ATOM_UDEF_STEREO_COUNT>
0

> <PUBCHEM_BOND_DEF_STEREO_COUNT>
1

> <PUBCHEM_BOND_UDEF_STEREO_COUNT>
0

> <PUBCHEM_ISOTOPIC_ATOM_COUNT>
0

> <PUBCHEM_COMPONENT_COUNT>
1

> <PUBCHEM_CACTVS_TAUTO_COUNT>
-1

> <PUBCHEM_COORDINATE_TYPE>
1
5
255

> <PUBCHEM_BONDANNOTATIONS>
17  1  6
21  2  5
28  3  5
19  6  6

$$$$
