12309865
  -OEChem-08272000143D

 49 52  0     1  0  0  0  0  0999 V2000
    1.0496   -2.5146    1.0645 O   0  0  0  0  0  0  0  0  0  0  0  0
    0.8429   -0.8819   -0.6402 O   0  0  0  0  0  0  0  0  0  0  0  0
    3.3252   -2.1656   -1.6345 O   0  0  0  0  0  0  0  0  0  0  0  0
    3.5068   -1.0812    1.8446 O   0  0  0  0  0  0  0  0  0  0  0  0
    3.5512   -4.6945   -0.4971 O   0  0  0  0  0  0  0  0  0  0  0  0
   -1.8145    1.6042   -0.0529 O   0  0  0  0  0  0  0  0  0  0  0  0
   -1.4641   -2.4298   -0.5098 O   0  0  0  0  0  0  0  0  0  0  0  0
   -4.0474   -2.6946   -0.2050 O   0  0  0  0  0  0  0  0  0  0  0  0
   -6.5149    1.2945    0.5324 O   0  0  0  0  0  0  0  0  0  0  0  0
    2.8996    3.5576    1.9545 O   0  0  0  0  0  0  0  0  0  0  0  0
    3.6522    4.7030   -0.4638 O   0  0  0  0  0  0  0  0  0  0  0  0
    3.6254   -2.2819   -0.2443 C   0  0  1  0  0  0  0  0  0  0  0  0
    2.9960   -1.1078    0.5130 C   0  0  1  0  0  0  0  0  0  0  0  0
    3.0682   -3.6074    0.2804 C   0  0  1  0  0  0  0  0  0  0  0  0
    1.4657   -1.2270    0.5941 C   0  0  2  0  0  0  0  0  0  0  0  0
    1.5447   -3.5965    0.2798 C   0  0  0  0  0  0  0  0  0  0  0  0
   -0.3978   -0.3164   -0.4409 C   0  0  0  0  0  0  0  0  0  0  0  0
   -0.5861    1.0070   -0.2875 C   0  0  0  0  0  0  0  0  0  0  0  0
   -1.5731   -1.2182   -0.3760 C   0  0  0  0  0  0  0  0  0  0  0  0
   -2.8758   -0.5771   -0.1404 C   0  0  0  0  0  0  0  0  0  0  0  0
   -2.9281    0.8069    0.0098 C   0  0  0  0  0  0  0  0  0  0  0  0
    0.5246    1.9748   -0.3302 C   0  0  0  0  0  0  0  0  0  0  0  0
   -4.0441   -1.3396   -0.0656 C   0  0  0  0  0  0  0  0  0  0  0  0
   -4.1512    1.4385    0.2366 C   0  0  0  0  0  0  0  0  0  0  0  0
    1.1984    2.3162    0.8427 C   0  0  0  0  0  0  0  0  0  0  0  0
    0.9026    2.5503   -1.5436 C   0  0  0  0  0  0  0  0  0  0  0  0
   -5.2664   -0.7055    0.1607 C   0  0  0  0  0  0  0  0  0  0  0  0
   -5.3200    0.6807    0.3116 C   0  0  0  0  0  0  0  0  0  0  0  0
    2.2496    3.2323    0.8023 C   0  0  0  0  0  0  0  0  0  0  0  0
    1.9537    3.4664   -1.5841 C   0  0  0  0  0  0  0  0  0  0  0  0
    2.6271    3.8073   -0.4111 C   0  0  0  0  0  0  0  0  0  0  0  0
    4.7164   -2.2760   -0.1456 H   0  0  0  0  0  0  0  0  0  0  0  0
    3.2673   -0.1652    0.0247 H   0  0  0  0  0  0  0  0  0  0  0  0
    3.4164   -3.7611    1.3087 H   0  0  0  0  0  0  0  0  0  0  0  0
    1.1427   -0.5346    1.3824 H   0  0  0  0  0  0  0  0  0  0  0  0
    1.1310   -3.5558   -0.7344 H   0  0  0  0  0  0  0  0  0  0  0  0
    1.1693   -4.5282    0.7178 H   0  0  0  0  0  0  0  0  0  0  0  0
    2.3698   -2.0253   -1.7396 H   0  0  0  0  0  0  0  0  0  0  0  0
    3.1202   -1.8247    2.3369 H   0  0  0  0  0  0  0  0  0  0  0  0
    4.5227   -4.6621   -0.4750 H   0  0  0  0  0  0  0  0  0  0  0  0
   -4.1883    2.5187    0.3538 H   0  0  0  0  0  0  0  0  0  0  0  0
    0.9073    1.8790    1.7952 H   0  0  0  0  0  0  0  0  0  0  0  0
    0.3868    2.2944   -2.4660 H   0  0  0  0  0  0  0  0  0  0  0  0
   -6.1805   -1.2916    0.2202 H   0  0  0  0  0  0  0  0  0  0  0  0
    2.2375    3.9068   -2.5362 H   0  0  0  0  0  0  0  0  0  0  0  0
   -3.1487   -3.0232   -0.3599 H   0  0  0  0  0  0  0  0  0  0  0  0
   -6.3673    2.2525    0.6124 H   0  0  0  0  0  0  0  0  0  0  0  0
    3.5963    4.2024    1.7410 H   0  0  0  0  0  0  0  0  0  0  0  0
    3.7712    4.9943   -1.3841 H   0  0  0  0  0  0  0  0  0  0  0  0
  1 15  1  0  0  0  0
  1 16  1  0  0  0  0
  2 15  1  0  0  0  0
  2 17  1  0  0  0  0
  3 12  1  0  0  0  0
  3 38  1  0  0  0  0
  4 13  1  0  0  0  0
  4 39  1  0  0  0  0
  5 14  1  0  0  0  0
  5 40  1  0  0  0  0
  6 18  1  0  0  0  0
  6 21  1  0  0  0  0
  7 19  2  0  0  0  0
  8 23  1  0  0  0  0
  8 46  1  0  0  0  0
  9 28  1  0  0  0  0
  9 47  1  0  0  0  0
 10 29  1  0  0  0  0
 10 48  1  0  0  0  0
 11 31  1  0  0  0  0
 11 49  1  0  0  0  0
 12 13  1  0  0  0  0
 12 14  1  0  0  0  0
 12 32  1  0  0  0  0
 13 15  1  0  0  0  0
 13 33  1  0  0  0  0
 14 16  1  0  0  0  0
 14 34  1  0  0  0  0
 15 35  1  0  0  0  0
 16 36  1  0  0  0  0
 16 37  1  0  0  0  0
 17 18  2  0  0  0  0
 17 19  1  0  0  0  0
 18 22  1  0  0  0  0
 19 20  1  0  0  0  0
 20 21  1  0  0  0  0
 20 23  2  0  0  0  0
 21 24  2  0  0  0  0
 22 25  2  0  0  0  0
 22 26  1  0  0  0  0
 23 27  1  0  0  0  0
 24 28  1  0  0  0  0
 24 41  1  0  0  0  0
 25 29  1  0  0  0  0
 25 42  1  0  0  0  0
 26 30  2  0  0  0  0
 26 43  1  0  0  0  0
 27 28  2  0  0  0  0
 27 44  1  0  0  0  0
 29 31  2  0  0  0  0
 30 31  1  0  0  0  0
 30 45  1  0  0  0  0
M  END
> <PUBCHEM_COMPOUND_CID>
12309865

> <PUBCHEM_CONFORMER_RMSD>
0.8

> <PUBCHEM_CONFORMER_DIVERSEORDER>
3
61
68
53
7
40
6
15
59
60
41
54
51
65
1
13
52
35
38
66
48
42
43
24
50
20
33
29
64
67
26
14
31
62
39
2
55
58
25
63
34
16
19
36
37
18
56
47
49
8
21
27
44
23
28
12
10
45
46
22
11
30
9
17
57
5
32
4

> <PUBCHEM_MMFF94_PARTIAL_CHARGES>
43
1 -0.56
10 -0.53
11 -0.53
12 0.28
13 0.28
14 0.28
15 0.56
16 0.28
17 0.09
18 0.05
19 0.47
2 -0.36
20 0.09
21 0.08
22 0.03
23 0.08
24 -0.15
25 -0.15
26 -0.15
27 -0.15
28 0.08
29 0.08
3 -0.68
30 -0.15
31 0.08
38 0.4
39 0.4
4 -0.68
40 0.4
41 0.15
42 0.15
43 0.15
44 0.15
45 0.15
46 0.45
47 0.45
48 0.45
49 0.45
5 -0.68
6 -0.16
7 -0.57
8 -0.53
9 -0.53

> <PUBCHEM_EFFECTIVE_ROTOR_COUNT>
4.2

> <PUBCHEM_PHARMACOPHORE_FEATURES>
18
1 1 acceptor
1 10 donor
1 11 donor
1 2 acceptor
1 3 acceptor
1 3 donor
1 4 acceptor
1 4 donor
1 5 acceptor
1 5 donor
1 6 acceptor
1 7 acceptor
1 8 donor
1 9 donor
6 1 12 13 14 15 16 rings
6 20 21 23 24 27 28 rings
6 22 25 26 29 30 31 rings
6 6 17 18 19 20 21 rings

> <PUBCHEM_HEAVY_ATOM_COUNT>
31

> <PUBCHEM_ATOM_DEF_STEREO_COUNT>
4

> <PUBCHEM_ATOM_UDEF_STEREO_COUNT>
0

> <PUBCHEM_BOND_DEF_STEREO_COUNT>
0

> <PUBCHEM_BOND_UDEF_STEREO_COUNT>
0

> <PUBCHEM_ISOTOPIC_ATOM_COUNT>
0

> <PUBCHEM_COMPONENT_COUNT>
1

> <PUBCHEM_CACTVS_TAUTO_COUNT>
162

> <PUBCHEM_CONFORMER_ID>
00BBD56900000003

> <PUBCHEM_MMFF94_ENERGY>
100.2539

> <PUBCHEM_FEATURE_SELFOVERLAP>
91.442

> <PUBCHEM_SHAPE_FINGERPRINT>
10050765 1 18410578418728916471
10169797 241 17896902017264176499
1100329 8 18410859837180066363
11049842 53 17900557958003911244
11582403 64 16770128101698402616
11963148 33 17614274889986301891
12156800 1 15624288302704668160
12160290 23 17115476582098992784
12166972 35 18200312105388676875
12422481 6 18048842378255532688
12553582 1 18191015716874286903
12788726 201 17539410920813015650
12839892 36 18048864488493587441
13140716 1 18411141346922495923
13383668 362 18340197583759710467
133893 2 18121466245970754663
13540713 5 18273214223420760599
138480 1 18337671923439531116
140371 6 18128546955505141085
14739800 52 17917708054585476089
14790565 3 17977105978529738788
14955137 171 18193852448542243523
15042514 8 17762339115299884999
15081414 286 18338796702223019242
15131766 46 15549039956046306258
15230672 131 18047759484616256428
15439362 3 18408606989131064957
15664445 248 18269569273075302406
15775530 1 17896855738943887685
15927050 60 18196379344742059998
17492 89 18410294753018945131
1813 80 18188771630494284968
18785283 64 18261673761253171161
20028762 73 17045713097872786415
20600515 1 17910963434889502764
20642791 178 18189902096547813116
20691752 17 17531238513266573077
20739085 24 18188481488485145672
21033648 29 17486749923628593931
21120745 212 17836667227262338308
21133410 127 17968373546035766933
21796203 349 17761537679051087755
21859007 373 17751339713626439837
22182313 1 17969201405297311637
22907989 373 17469885481047842350
23366157 5 18260267481665198373
23559900 14 18342172250560479931
249057 25 17846219905182194929
25147074 1 18272651294862911607
3091708 16 9503387407874716242
3411729 13 18338234980619890113
350125 39 18409167739982096525
352729 6 17252591677930747975
4409770 3 17251454288970999757
469060 322 18121224173847041536
5104073 3 18338809987669644417
6287921 2 18339633550872948450
79837 15 17688588681503656514
9981440 41 17975697504471570785

> <PUBCHEM_SHAPE_MULTIPOLES>
573.4
9.63
6.23
1.19
14.71
0.95
-0.08
-1.09
-1.3
-10.27
0.46
-1.23
0.61
-0.16

> <PUBCHEM_SHAPE_SELFOVERLAP>
1269.43

> <PUBCHEM_SHAPE_VOLUME>
302.6

> <PUBCHEM_COORDINATE_TYPE>
2
5
10

$$$$
