234823
  -OEChem-08272001173D

 54 57  0     1  0  0  0  0  0999 V2000
    1.6827    2.6508    1.2073 O   0  0  0  0  0  0  0  0  0  0  0  0
   -1.6285    2.8330   -1.0684 O   0  0  0  0  0  0  0  0  0  0  0  0
    3.7845   -1.8222    1.9285 O   0  0  0  0  0  0  0  0  0  0  0  0
   -5.0659   -1.2759    1.6067 O   0  0  0  0  0  0  0  0  0  0  0  0
    5.4466   -2.2059   -0.2655 O   0  0  0  0  0  0  0  0  0  0  0  0
   -5.0670   -2.4582   -0.9083 O   0  0  0  0  0  0  0  0  0  0  0  0
    0.4817    1.8221   -0.6759 C   0  0  2  0  0  0  0  0  0  0  0  0
   -0.3624    1.6376    0.5575 C   0  0  2  0  0  0  0  0  0  0  0  0
    1.8629    2.1834   -0.1440 C   0  0  2  0  0  0  0  0  0  0  0  0
   -1.7679    2.0334    0.1224 C   0  0  2  0  0  0  0  0  0  0  0  0
    0.2874    2.6059    1.5361 C   0  0  0  0  0  0  0  0  0  0  0  0
   -0.2359    2.9619   -1.3854 C   0  0  0  0  0  0  0  0  0  0  0  0
    2.8190    1.0099   -0.1735 C   0  0  0  0  0  0  0  0  0  0  0  0
   -2.6502    0.8339   -0.1497 C   0  0  0  0  0  0  0  0  0  0  0  0
    2.8671    0.1200    0.9008 C   0  0  0  0  0  0  0  0  0  0  0  0
   -3.4637    0.3203    0.8617 C   0  0  0  0  0  0  0  0  0  0  0  0
    3.6547    0.8161   -1.2747 C   0  0  0  0  0  0  0  0  0  0  0  0
   -2.6517    0.2388   -1.4124 C   0  0  0  0  0  0  0  0  0  0  0  0
    3.7484   -0.9609    0.8740 C   0  0  0  0  0  0  0  0  0  0  0  0
   -4.2764   -0.7854    0.6111 C   0  0  0  0  0  0  0  0  0  0  0  0
    4.5359   -0.2647   -1.3015 C   0  0  0  0  0  0  0  0  0  0  0  0
   -3.4642   -0.8668   -1.6629 C   0  0  0  0  0  0  0  0  0  0  0  0
    4.5827   -1.1533   -0.2273 C   0  0  0  0  0  0  0  0  0  0  0  0
   -4.2766   -1.3789   -0.6513 C   0  0  0  0  0  0  0  0  0  0  0  0
    2.9077   -2.9462    1.8779 C   0  0  0  0  0  0  0  0  0  0  0  0
   -5.0069   -0.6118    2.8677 C   0  0  0  0  0  0  0  0  0  0  0  0
    6.2646   -2.3313   -1.4270 C   0  0  0  0  0  0  0  0  0  0  0  0
   -5.0088   -3.0056   -2.2239 C   0  0  0  0  0  0  0  0  0  0  0  0
    0.4712    0.9344   -1.3190 H   0  0  0  0  0  0  0  0  0  0  0  0
   -0.2912    0.6193    0.9575 H   0  0  0  0  0  0  0  0  0  0  0  0
    2.3087    3.0101   -0.7102 H   0  0  0  0  0  0  0  0  0  0  0  0
   -2.2583    2.6652    0.8729 H   0  0  0  0  0  0  0  0  0  0  0  0
   -0.1092    3.6239    1.4542 H   0  0  0  0  0  0  0  0  0  0  0  0
    0.1705    2.2807    2.5741 H   0  0  0  0  0  0  0  0  0  0  0  0
    0.0954    3.9498   -1.0465 H   0  0  0  0  0  0  0  0  0  0  0  0
   -0.1061    2.9165   -2.4709 H   0  0  0  0  0  0  0  0  0  0  0  0
    2.2211    0.2486    1.7653 H   0  0  0  0  0  0  0  0  0  0  0  0
   -3.4187    0.8212    1.8230 H   0  0  0  0  0  0  0  0  0  0  0  0
    3.6247    1.5009   -2.1182 H   0  0  0  0  0  0  0  0  0  0  0  0
   -2.0232    0.6131   -2.2155 H   0  0  0  0  0  0  0  0  0  0  0  0
    5.1530   -0.3520   -2.1890 H   0  0  0  0  0  0  0  0  0  0  0  0
   -3.4119   -1.2772   -2.6655 H   0  0  0  0  0  0  0  0  0  0  0  0
    3.1329   -3.5719    1.0085 H   0  0  0  0  0  0  0  0  0  0  0  0
    1.8643   -2.6169    1.8439 H   0  0  0  0  0  0  0  0  0  0  0  0
    3.0581   -3.5393    2.7841 H   0  0  0  0  0  0  0  0  0  0  0  0
   -5.3567    0.4237    2.7957 H   0  0  0  0  0  0  0  0  0  0  0  0
   -4.0107   -0.6863    3.3170 H   0  0  0  0  0  0  0  0  0  0  0  0
   -5.6972   -1.1336    3.5389 H   0  0  0  0  0  0  0  0  0  0  0  0
    6.9447   -1.4795   -1.5356 H   0  0  0  0  0  0  0  0  0  0  0  0
    5.6642   -2.5029   -2.3268 H   0  0  0  0  0  0  0  0  0  0  0  0
    6.8886   -3.2202   -1.2873 H   0  0  0  0  0  0  0  0  0  0  0  0
   -4.0125   -3.3984   -2.4539 H   0  0  0  0  0  0  0  0  0  0  0  0
   -5.3582   -2.2891   -2.9751 H   0  0  0  0  0  0  0  0  0  0  0  0
   -5.6990   -3.8554   -2.2502 H   0  0  0  0  0  0  0  0  0  0  0  0
  1  9  1  0  0  0  0
  1 11  1  0  0  0  0
  2 10  1  0  0  0  0
  2 12  1  0  0  0  0
  3 19  1  0  0  0  0
  3 25  1  0  0  0  0
  4 20  1  0  0  0  0
  4 26  1  0  0  0  0
  5 23  1  0  0  0  0
  5 27  1  0  0  0  0
  6 24  1  0  0  0  0
  6 28  1  0  0  0  0
  7  8  1  0  0  0  0
  7  9  1  0  0  0  0
  7 12  1  0  0  0  0
  7 29  1  0  0  0  0
  8 10  1  0  0  0  0
  8 11  1  0  0  0  0
  8 30  1  0  0  0  0
  9 13  1  0  0  0  0
  9 31  1  0  0  0  0
 10 14  1  0  0  0  0
 10 32  1  0  0  0  0
 11 33  1  0  0  0  0
 11 34  1  0  0  0  0
 12 35  1  0  0  0  0
 12 36  1  0  0  0  0
 13 15  2  0  0  0  0
 13 17  1  0  0  0  0
 14 16  2  0  0  0  0
 14 18  1  0  0  0  0
 15 19  1  0  0  0  0
 15 37  1  0  0  0  0
 16 20  1  0  0  0  0
 16 38  1  0  0  0  0
 17 21  2  0  0  0  0
 17 39  1  0  0  0  0
 18 22  2  0  0  0  0
 18 40  1  0  0  0  0
 19 23  2  0  0  0  0
 20 24  2  0  0  0  0
 21 23  1  0  0  0  0
 21 41  1  0  0  0  0
 22 24  1  0  0  0  0
 22 42  1  0  0  0  0
 25 43  1  0  0  0  0
 25 44  1  0  0  0  0
 25 45  1  0  0  0  0
 26 46  1  0  0  0  0
 26 47  1  0  0  0  0
 26 48  1  0  0  0  0
 27 49  1  0  0  0  0
 27 50  1  0  0  0  0
 27 51  1  0  0  0  0
 28 52  1  0  0  0  0
 28 53  1  0  0  0  0
 28 54  1  0  0  0  0
M  END
> <PUBCHEM_COMPOUND_CID>
234823

> <PUBCHEM_CONFORMER_RMSD>
0.8

> <PUBCHEM_CONFORMER_DIVERSEORDER>
279
152
271
56
284
137
272
34
44
98
197
76
328
337
274
55
339
54
71
9
148
70
198
206
95
4
26
263
7
154
3
120
122
127
303
327
117
41
11
103
200
87
43
60
283
172
335
299
92
270
77
51
294
82
1
145
248
73
21
187
61
97
174
341
30
285
10
315
346
132
48
204
296
141
305
173
115
195
156
138
162
301
226
144
140
275
288
12
240
186
223
286
342
66
211
129
321
106
329
25
205
131
93
40
171
101
69
320
163
94
332
67
89
221
177
42
139
80
238
225
260
142
179
343
313
8
164
102
293
184
246
254
107
201
78
175
2
31
309
278
289
84
79
229
165
219
116
50
90
136
322
345
52
242
269
255
216
75
6
53
86
334
125
190
213
32
15
312
209
194
188
256
166
259
199
20
330
262
85
114
266
222
317
291
119
267
167
13
189
233
63
169
311
336
176
196
35
244
109
253
161
237
308
277
323
249
159
326
72
273
113
185
182
202
245
230
227
178
243
83
118
215
153
47
235
316
143
281
247
290
100
300
265
99
338
325
257
258
105
124
295
333
344
88
310
24
134
191
16
33
110
252
331
68
297
128
108
287
192
239
340
65
135
123
130
250
217
276
210
39
304
236
29
181
46
212
104
151
314
307
241
180
203
170
112
81
5
49
228
62
149
23
318
251
324
27
261
146
147
111
183
22
208
224
36
18
150
298
218
58
126
133
57
302
37
282
214
96
28
306
319
74
292
38
232
155
168
59
234
45
280
264
14
193
220
268
160
157
19
64
91
17
231
121
207
158

> <PUBCHEM_MMFF94_PARTIAL_CHARGES>
32
1 -0.56
10 0.42
11 0.28
12 0.28
13 -0.14
14 -0.14
15 -0.15
16 -0.15
17 -0.15
18 -0.15
19 0.08
2 -0.56
20 0.08
21 -0.15
22 -0.15
23 0.08
24 0.08
25 0.28
26 0.28
27 0.28
28 0.28
3 -0.36
37 0.15
38 0.15
39 0.15
4 -0.36
40 0.15
41 0.15
42 0.15
5 -0.36
6 -0.36
9 0.42

> <PUBCHEM_EFFECTIVE_ROTOR_COUNT>
7.2

> <PUBCHEM_PHARMACOPHORE_FEATURES>
10
1 1 acceptor
1 2 acceptor
1 3 acceptor
1 4 acceptor
1 5 acceptor
1 6 acceptor
5 1 7 8 9 11 rings
5 2 7 8 10 12 rings
6 13 15 17 19 21 23 rings
6 14 16 18 20 22 24 rings

> <PUBCHEM_HEAVY_ATOM_COUNT>
28

> <PUBCHEM_ATOM_DEF_STEREO_COUNT>
0

> <PUBCHEM_ATOM_UDEF_STEREO_COUNT>
4

> <PUBCHEM_BOND_DEF_STEREO_COUNT>
0

> <PUBCHEM_BOND_UDEF_STEREO_COUNT>
0

> <PUBCHEM_ISOTOPIC_ATOM_COUNT>
0

> <PUBCHEM_COMPONENT_COUNT>
1

> <PUBCHEM_CACTVS_TAUTO_COUNT>
1

> <PUBCHEM_CONFORMER_ID>
0003954700000117

> <PUBCHEM_MMFF94_ENERGY>
124.7057

> <PUBCHEM_FEATURE_SELFOVERLAP>
51.17

> <PUBCHEM_SHAPE_FINGERPRINT>
10042902 136 18343584044886253254
10074138 170 17199678372376812680
10319926 262 16056337088870725061
10498660 4 11891334218815203836
10622 236 17680129803866039130
10928967 22 18410008836212418731
11135609 12 18056494863246590062
11227688 84 17535492339572434042
11720765 8 12398232109357061208
11796584 16 18267580209258955468
11991303 11 17751631067017369037
12107183 9 17845673503210108129
12422481 6 17917162606369967295
12553582 1 18408039619513228288
12633257 1 17489599982269326401
13103583 49 17703804625568146217
13383661 66 17035014841397975043
13533116 47 17984696981791922415
13690498 29 18261962838485611076
14251764 30 18188505656408369987
14480069 147 18041287573161744467
14705955 166 15409781250283524219
14848178 5 18271792553899453453
14950920 106 15913032214857833494
15537594 2 18339653329170771237
15669420 48 15503807262669255822
16991981 162 15720499963606784399
17138139 8 18334011671265105930
1813 80 18338812194355030053
193927 3 18408325475520318904
20764821 26 17971474245559713274
20775438 99 17764847470727726134
20775530 9 18334857190751989282
21054139 6 18041845005168762866
22393880 68 18042969770961419252
235170 7 16443062811349083478
2838139 119 11386363751241320036
312425 83 13768192857767516747
3737641 26 18335425698340694704
44062 13 18264202521990864733
44880168 125 17987520295001774278
46194498 28 16155130506180856941
463206 1 18335986444991847698
474113 269 17775278414067249063
484985 159 18057607560139322769
5104073 3 17131280180905947609
5486654 36 18339369560771786761
56633871 153 18059866030163988463
613672 6 18041267881021340417
6328613 192 10159689223658864386
7970288 3 18273495663231222462
86090 222 17677614353178898331

> <PUBCHEM_SHAPE_MULTIPOLES>
541.01
13.41
3.8
2.2
1.55
0.09
0.71
-14.67
-1.21
0.43
-0.51
-1.74
-1.07
-1.3

> <PUBCHEM_SHAPE_SELFOVERLAP>
1171.626

> <PUBCHEM_SHAPE_VOLUME>
300.9

> <PUBCHEM_COORDINATE_TYPE>
2
5
10

$$$$
