573534
  -OEChem-09302014133D

 27 27  0     1  0  0  0  0  0999 V2000
   -0.0369   -2.2417    0.0013 O   0  0  0  0  0  0  0  0  0  0  0  0
   -0.7635   -0.0518   -0.7393 C   0  0  2  0  0  0  0  0  0  0  0  0
   -2.0021   -0.2249    0.1361 C   0  0  0  0  0  0  0  0  0  0  0  0
    2.1441    0.5134   -0.1103 C   0  0  1  0  0  0  0  0  0  0  0  0
    1.7143   -0.8048   -0.7610 C   0  0  0  0  0  0  0  0  0  0  0  0
    0.2754   -1.1286   -0.4216 C   0  0  0  0  0  0  0  0  0  0  0  0
   -0.1849    1.3252   -0.5609 C   0  0  0  0  0  0  0  0  0  0  0  0
    1.0974    1.5819   -0.2665 C   0  0  0  0  0  0  0  0  0  0  0  0
   -1.6424   -0.0711    1.6123 C   0  0  0  0  0  0  0  0  0  0  0  0
   -3.0843    0.7774   -0.2597 C   0  0  0  0  0  0  0  0  0  0  0  0
    2.4830    0.3250    1.3697 C   0  0  0  0  0  0  0  0  0  0  0  0
   -1.0319   -0.1794   -1.7957 H   0  0  0  0  0  0  0  0  0  0  0  0
   -2.4103   -1.2330   -0.0140 H   0  0  0  0  0  0  0  0  0  0  0  0
    3.0538    0.8521   -0.6222 H   0  0  0  0  0  0  0  0  0  0  0  0
    2.3595   -1.6303   -0.4410 H   0  0  0  0  0  0  0  0  0  0  0  0
    1.7849   -0.7378   -1.8536 H   0  0  0  0  0  0  0  0  0  0  0  0
   -0.8333    2.1835   -0.7124 H   0  0  0  0  0  0  0  0  0  0  0  0
    1.4154    2.6150   -0.1539 H   0  0  0  0  0  0  0  0  0  0  0  0
   -0.8917   -0.7944    1.9428 H   0  0  0  0  0  0  0  0  0  0  0  0
   -2.5331   -0.2410    2.2288 H   0  0  0  0  0  0  0  0  0  0  0  0
   -1.2786    0.9327    1.8555 H   0  0  0  0  0  0  0  0  0  0  0  0
   -3.2612    0.7669   -1.3404 H   0  0  0  0  0  0  0  0  0  0  0  0
   -4.0301    0.5120    0.2269 H   0  0  0  0  0  0  0  0  0  0  0  0
   -2.8534    1.8020    0.0476 H   0  0  0  0  0  0  0  0  0  0  0  0
    1.6169   -0.0178    1.9460 H   0  0  0  0  0  0  0  0  0  0  0  0
    3.2821   -0.4140    1.4922 H   0  0  0  0  0  0  0  0  0  0  0  0
    2.8300    1.2645    1.8146 H   0  0  0  0  0  0  0  0  0  0  0  0
  1  6  2  0  0  0  0
  2  3  1  0  0  0  0
  2  6  1  0  0  0  0
  2  7  1  0  0  0  0
  2 12  1  0  0  0  0
  3  9  1  0  0  0  0
  3 10  1  0  0  0  0
  3 13  1  0  0  0  0
  4  5  1  0  0  0  0
  4  8  1  0  0  0  0
  4 11  1  0  0  0  0
  4 14  1  0  0  0  0
  5  6  1  0  0  0  0
  5 15  1  0  0  0  0
  5 16  1  0  0  0  0
  7  8  2  0  0  0  0
  7 17  1  0  0  0  0
  8 18  1  0  0  0  0
  9 19  1  0  0  0  0
  9 20  1  0  0  0  0
  9 21  1  0  0  0  0
 10 22  1  0  0  0  0
 10 23  1  0  0  0  0
 10 24  1  0  0  0  0
 11 25  1  0  0  0  0
 11 26  1  0  0  0  0
 11 27  1  0  0  0  0
M  END
> <PUBCHEM_COMPOUND_CID>
573534

> <PUBCHEM_CONFORMER_RMSD>
0.4

> <PUBCHEM_CONFORMER_DIVERSEORDER>
3
1
14
11
4
13
9
2
12
10
8
16
5
15
7
6

> <PUBCHEM_MMFF94_PARTIAL_CHARGES>
9
1 -0.57
17 0.15
18 0.15
2 0.2
4 0.14
5 0.06
6 0.45
7 -0.29
8 -0.29

> <PUBCHEM_EFFECTIVE_ROTOR_COUNT>
1.6

> <PUBCHEM_PHARMACOPHORE_FEATURES>
3
1 1 acceptor
3 3 9 10 hydrophobe
6 2 4 5 6 7 8 rings

> <PUBCHEM_HEAVY_ATOM_COUNT>
11

> <PUBCHEM_ATOM_DEF_STEREO_COUNT>
0

> <PUBCHEM_ATOM_UDEF_STEREO_COUNT>
2

> <PUBCHEM_BOND_DEF_STEREO_COUNT>
0

> <PUBCHEM_BOND_UDEF_STEREO_COUNT>
0

> <PUBCHEM_ISOTOPIC_ATOM_COUNT>
0

> <PUBCHEM_COMPONENT_COUNT>
1

> <PUBCHEM_CACTVS_TAUTO_COUNT>
5

> <PUBCHEM_CONFORMER_ID>
0008C05E00000003

> <PUBCHEM_MMFF94_ENERGY>
14.53

> <PUBCHEM_FEATURE_SELFOVERLAP>
15.223

> <PUBCHEM_SHAPE_FINGERPRINT>
10857977 72 18333456451703690763
11680611 10 17971752435070792234
12423570 1 8321231216188014892
15775835 57 17274840016387906273
16945 1 18412832386377440693
20653085 51 14979136776483134488
21040471 1 18340210807372754852
23235685 24 18342455975952328068
241688 4 17542789707196756824
2748010 2 18194116309493927300
29004967 10 18334587818908852333
5084963 1 18130797766864490085
528886 8 18411133628106746125
63268167 104 18130795524854657684

> <PUBCHEM_SHAPE_MULTIPOLES>
220.51
3.58
1.61
1.19
1.01
0.41
0.53
-0.79
0.68
-0.24
-0.25
-0.08
-0.01
0.25

> <PUBCHEM_SHAPE_SELFOVERLAP>
438.965

> <PUBCHEM_SHAPE_VOLUME>
131.3

> <PUBCHEM_COORDINATE_TYPE>
2
5
10

$$$$
