91456
  -OEChem-09302012483D

 27 28  0     1  0  0  0  0  0999 V2000
    2.2053    1.8216    0.2227 O   0  0  0  0  0  0  0  0  0  0  0  0
   -0.6785   -0.2730    0.2695 C   0  0  1  0  0  0  0  0  0  0  0  0
    0.3198   -1.1451   -0.4290 C   0  0  2  0  0  0  0  0  0  0  0  0
   -0.1833   -1.5230    0.9415 C   0  0  0  0  0  0  0  0  0  0  0  0
    1.5972   -0.3751   -0.6432 C   0  0  1  0  0  0  0  0  0  0  0  0
   -0.0677    1.0605    0.5822 C   0  0  0  0  0  0  0  0  0  0  0  0
   -2.0877   -0.2616   -0.2097 C   0  0  0  0  0  0  0  0  0  0  0  0
    1.3604    0.9478    0.0796 C   0  0  0  0  0  0  0  0  0  0  0  0
    2.8219   -1.1017   -0.1230 C   0  0  0  0  0  0  0  0  0  0  0  0
   -3.0474    0.3318    0.8397 C   0  0  0  0  0  0  0  0  0  0  0  0
   -2.2401    0.5178   -1.5304 C   0  0  0  0  0  0  0  0  0  0  0  0
    0.0250   -1.7559   -1.2703 H   0  0  0  0  0  0  0  0  0  0  0  0
    0.4799   -1.4204    1.7921 H   0  0  0  0  0  0  0  0  0  0  0  0
   -0.8438   -2.3796    1.0116 H   0  0  0  0  0  0  0  0  0  0  0  0
    1.7040   -0.1531   -1.7111 H   0  0  0  0  0  0  0  0  0  0  0  0
   -0.0571    1.2393    1.6615 H   0  0  0  0  0  0  0  0  0  0  0  0
   -0.5397    1.9019    0.0716 H   0  0  0  0  0  0  0  0  0  0  0  0
   -2.4191   -1.2902   -0.4071 H   0  0  0  0  0  0  0  0  0  0  0  0
    3.7313   -0.5310   -0.3395 H   0  0  0  0  0  0  0  0  0  0  0  0
    2.7792   -1.2444    0.9622 H   0  0  0  0  0  0  0  0  0  0  0  0
    2.9171   -2.0883   -0.5882 H   0  0  0  0  0  0  0  0  0  0  0  0
   -2.8267    1.3851    1.0425 H   0  0  0  0  0  0  0  0  0  0  0  0
   -4.0850    0.2638    0.4961 H   0  0  0  0  0  0  0  0  0  0  0  0
   -2.9667   -0.2139    1.7859 H   0  0  0  0  0  0  0  0  0  0  0  0
   -2.0782    1.5924   -1.4047 H   0  0  0  0  0  0  0  0  0  0  0  0
   -3.2514    0.3863   -1.9310 H   0  0  0  0  0  0  0  0  0  0  0  0
   -1.5333    0.1561   -2.2844 H   0  0  0  0  0  0  0  0  0  0  0  0
  1  8  2  0  0  0  0
  2  3  1  0  0  0  0
  2  4  1  0  0  0  0
  2  6  1  0  0  0  0
  2  7  1  0  0  0  0
  3  4  1  0  0  0  0
  3  5  1  0  0  0  0
  3 12  1  0  0  0  0
  4 13  1  0  0  0  0
  4 14  1  0  0  0  0
  5  8  1  0  0  0  0
  5  9  1  0  0  0  0
  5 15  1  0  0  0  0
  6  8  1  0  0  0  0
  6 16  1  0  0  0  0
  6 17  1  0  0  0  0
  7 10  1  0  0  0  0
  7 11  1  0  0  0  0
  7 18  1  0  0  0  0
  9 19  1  0  0  0  0
  9 20  1  0  0  0  0
  9 21  1  0  0  0  0
 10 22  1  0  0  0  0
 10 23  1  0  0  0  0
 10 24  1  0  0  0  0
 11 25  1  0  0  0  0
 11 26  1  0  0  0  0
 11 27  1  0  0  0  0
M  END
> <PUBCHEM_COMPOUND_CID>
91456

> <PUBCHEM_CONFORMER_RMSD>
0.4

> <PUBCHEM_CONFORMER_DIVERSEORDER>
1
2
3

> <PUBCHEM_MMFF94_PARTIAL_CHARGES>
11
1 -0.57
12 0.1
13 0.1
14 0.1
2 -0.19
3 -0.19
4 -0.2
5 0.16
6 0.16
7 0.09
8 0.45

> <PUBCHEM_EFFECTIVE_ROTOR_COUNT>
1.6

> <PUBCHEM_PHARMACOPHORE_FEATURES>
3
1 1 acceptor
3 7 10 11 hydrophobe
6 2 3 4 5 6 8 rings

> <PUBCHEM_HEAVY_ATOM_COUNT>
11

> <PUBCHEM_ATOM_DEF_STEREO_COUNT>
3

> <PUBCHEM_ATOM_UDEF_STEREO_COUNT>
0

> <PUBCHEM_BOND_DEF_STEREO_COUNT>
0

> <PUBCHEM_BOND_UDEF_STEREO_COUNT>
0

> <PUBCHEM_ISOTOPIC_ATOM_COUNT>
0

> <PUBCHEM_COMPONENT_COUNT>
1

> <PUBCHEM_CACTVS_TAUTO_COUNT>
3

> <PUBCHEM_CONFORMER_ID>
0001654000000001

> <PUBCHEM_MMFF94_ENERGY>
22.416

> <PUBCHEM_FEATURE_SELFOVERLAP>
15.223

> <PUBCHEM_SHAPE_FINGERPRINT>
10353120 184 18269007387724715077
10857977 72 17023478529048331641
12423570 1 14662989087079869355
12932764 1 17967812738868916115
14128692 85 17060044948034317078
16945 1 18340201890989175006
17844478 74 17968109611598665105
21040471 1 18266464393560419800
21501502 16 18267306619367413698
241688 4 17621898495411026330
2748010 2 18267029534010731918
29004967 10 18130232557774368043
369184 2 18409731785056719491
5084963 1 17749401351038626439
528886 8 18060421287551141059
63268167 104 18343863333524188897
68250623 7 18199749309337185847
81228 2 15881210918083838411

> <PUBCHEM_SHAPE_MULTIPOLES>
220.51
3.89
1.53
1.08
0.66
0.2
0.22
0.27
0.22
-0.86
-0.25
0.62
0.01
0.27

> <PUBCHEM_SHAPE_SELFOVERLAP>
454.268

> <PUBCHEM_SHAPE_VOLUME>
131.3

> <PUBCHEM_COORDINATE_TYPE>
2
5
10

$$$$
