122371
  -OEChem-09302013293D

 27 27  0     1  0  0  0  0  0999 V2000
   -2.3709    0.7565   -1.0443 O   0  0  0  0  0  0  0  0  0  0  0  0
   -2.4671   -0.0792    0.1162 C   0  0  0  0  0  0  0  0  0  0  0  0
   -1.3425    0.8852   -0.0639 C   0  0  1  0  0  0  0  0  0  0  0  0
   -0.0037    0.4203   -0.5509 C   0  0  0  0  0  0  0  0  0  0  0  0
   -2.2986   -1.5214   -0.1835 C   0  0  0  0  0  0  0  0  0  0  0  0
   -3.5894    0.2894    1.0121 C   0  0  0  0  0  0  0  0  0  0  0  0
    0.8552   -0.1276    0.5944 C   0  0  0  0  0  0  0  0  0  0  0  0
    2.2056   -0.6226    0.1229 C   0  0  0  0  0  0  0  0  0  0  0  0
    3.3189    0.3035   -0.0390 C   0  0  0  0  0  0  0  0  0  0  0  0
    2.3748   -1.9227   -0.1755 C   0  0  0  0  0  0  0  0  0  0  0  0
    3.3178    1.6187    0.2113 C   0  0  0  0  0  0  0  0  0  0  0  0
   -1.3033    1.7883    0.5292 H   0  0  0  0  0  0  0  0  0  0  0  0
    0.4997    1.2828   -1.0055 H   0  0  0  0  0  0  0  0  0  0  0  0
   -0.0907   -0.3224   -1.3520 H   0  0  0  0  0  0  0  0  0  0  0  0
   -1.7094   -1.7166   -1.0841 H   0  0  0  0  0  0  0  0  0  0  0  0
   -1.8195   -2.0335    0.6570 H   0  0  0  0  0  0  0  0  0  0  0  0
   -3.2732   -1.9960   -0.3442 H   0  0  0  0  0  0  0  0  0  0  0  0
   -4.5437   -0.0625    0.6060 H   0  0  0  0  0  0  0  0  0  0  0  0
   -3.4530   -0.1630    1.9999 H   0  0  0  0  0  0  0  0  0  0  0  0
   -3.6703    1.3730    1.1521 H   0  0  0  0  0  0  0  0  0  0  0  0
    0.3175   -0.9522    1.0809 H   0  0  0  0  0  0  0  0  0  0  0  0
    0.9683    0.6233    1.3862 H   0  0  0  0  0  0  0  0  0  0  0  0
    4.2530   -0.1256   -0.3988 H   0  0  0  0  0  0  0  0  0  0  0  0
    1.5590   -2.6322   -0.0775 H   0  0  0  0  0  0  0  0  0  0  0  0
    3.3243   -2.3150   -0.5263 H   0  0  0  0  0  0  0  0  0  0  0  0
    4.2203    2.2000    0.0505 H   0  0  0  0  0  0  0  0  0  0  0  0
    2.4461    2.1522    0.5709 H   0  0  0  0  0  0  0  0  0  0  0  0
  1  2  1  0  0  0  0
  1  3  1  0  0  0  0
  2  3  1  0  0  0  0
  2  5  1  0  0  0  0
  2  6  1  0  0  0  0
  3  4  1  0  0  0  0
  3 12  1  0  0  0  0
  4  7  1  0  0  0  0
  4 13  1  0  0  0  0
  4 14  1  0  0  0  0
  5 15  1  0  0  0  0
  5 16  1  0  0  0  0
  5 17  1  0  0  0  0
  6 18  1  0  0  0  0
  6 19  1  0  0  0  0
  6 20  1  0  0  0  0
  7  8  1  0  0  0  0
  7 21  1  0  0  0  0
  7 22  1  0  0  0  0
  8  9  1  0  0  0  0
  8 10  2  0  0  0  0
  9 11  2  0  0  0  0
  9 23  1  0  0  0  0
 10 24  1  0  0  0  0
 10 25  1  0  0  0  0
 11 26  1  0  0  0  0
 11 27  1  0  0  0  0
M  END
> <PUBCHEM_COMPOUND_CID>
122371

> <PUBCHEM_CONFORMER_RMSD>
0.6

> <PUBCHEM_CONFORMER_DIVERSEORDER>
1
69
32
68
25
38
21
54
71
16
65
58
23
37
41
70
39
27
11
49
55
20
52
63
29
8
51
5
64
33
18
61
10
50
67
17
19
62
31
13
22
40
36
56
48
60
43
59
53
28
14
12
42
66
26
24
9
57
35
15
46
7
6
34
3
45
44
47
30
2
4

> <PUBCHEM_MMFF94_PARTIAL_CHARGES>
17
1 -0.3
10 -0.3
11 -0.3
12 0.1
2 -0.04
23 0.15
24 0.15
25 0.15
26 0.15
27 0.15
3 -0.05
4 0.09
5 0.09
6 0.09
7 0.14
8 -0.14
9 -0.15

> <PUBCHEM_EFFECTIVE_ROTOR_COUNT>
4.6

> <PUBCHEM_PHARMACOPHORE_FEATURES>
5
1 1 acceptor
1 10 hydrophobe
1 11 hydrophobe
3 2 5 6 hydrophobe
4 4 7 8 9 hydrophobe

> <PUBCHEM_HEAVY_ATOM_COUNT>
11

> <PUBCHEM_ATOM_DEF_STEREO_COUNT>
0

> <PUBCHEM_ATOM_UDEF_STEREO_COUNT>
1

> <PUBCHEM_BOND_DEF_STEREO_COUNT>
0

> <PUBCHEM_BOND_UDEF_STEREO_COUNT>
0

> <PUBCHEM_ISOTOPIC_ATOM_COUNT>
0

> <PUBCHEM_COMPONENT_COUNT>
1

> <PUBCHEM_CACTVS_TAUTO_COUNT>
1

> <PUBCHEM_CONFORMER_ID>
0001DE0300000001

> <PUBCHEM_MMFF94_ENERGY>
18.0522

> <PUBCHEM_FEATURE_SELFOVERLAP>
25.543

> <PUBCHEM_SHAPE_FINGERPRINT>
10608611 8 18335414638910709764
107287 299 18342179985817522946
10857977 72 17312822684081663045
11132069 177 18262227936825699120
124424 183 10735887161811356664
12897270 3 18410289207708945260
12932764 1 18113616746703192122
13296908 3 17822010869780264119
13380535 21 18341619243234854574
14252887 29 18041857163471702315
14325111 11 18409727365725145996
14445660 50 18343310283633674905
15775835 57 18343587360258075010
170605 34 18260827124915729976
17834072 33 18201435922041260173
18186145 218 18342740728215834852
190213 19 17275107240842352952
19422 9 17989488519551637814
20201158 50 18409727348550746554
20279233 1 18187358818287714495
20528008 55 18411414020973166261
20645477 70 18339070472149831015
20715346 28 18040997297944230389
20871998 184 18271249429905967135
21730867 7 18409449180951892438
3248919 1 18130777932763623778
449060 50 18411705408671294049
57812782 119 9439403514602550000

> <PUBCHEM_SHAPE_MULTIPOLES>
220.51
6.52
1.6
0.85
0.1
0.51
-0.01
-0.8
-0.82
0.97
0.08
-0.45
-0.1
0.08

> <PUBCHEM_SHAPE_SELFOVERLAP>
425.867

> <PUBCHEM_SHAPE_VOLUME>
136.3

> <PUBCHEM_COORDINATE_TYPE>
2
5
10

$$$$
