6506170
  -OEChem-09302011533D

 43 42  0     0  0  0  0  0  0999 V2000
   -2.1455    0.0249   -1.7378 O   0  0  0  0  0  0  0  0  0  0  0  0
   -2.8845   -0.7979    0.3040 N   0  0  0  0  0  0  0  0  0  0  0  0
   -5.0024   -2.0588    0.0933 C   0  0  0  0  0  0  0  0  0  0  0  0
   -3.5022   -1.9959   -0.2148 C   0  0  0  0  0  0  0  0  0  0  0  0
   -5.2690   -2.0730    1.6002 C   0  0  0  0  0  0  0  0  0  0  0  0
   -5.7204   -0.8731   -0.5521 C   0  0  0  0  0  0  0  0  0  0  0  0
   -2.2520    0.1182   -0.5192 C   0  0  0  0  0  0  0  0  0  0  0  0
   -0.4642    3.4438    0.3260 C   0  0  0  0  0  0  0  0  0  0  0  0
    1.0472    3.5828    0.1126 C   0  0  0  0  0  0  0  0  0  0  0  0
   -1.6988    1.2661    0.2499 C   0  0  0  0  0  0  0  0  0  0  0  0
   -1.0464    2.2512   -0.3823 C   0  0  0  0  0  0  0  0  0  0  0  0
    1.8258    2.4166    0.6555 C   0  0  0  0  0  0  0  0  0  0  0  0
    2.6056    1.6280   -0.1000 C   0  0  0  0  0  0  0  0  0  0  0  0
    3.3473    0.5086    0.4385 C   0  0  0  0  0  0  0  0  0  0  0  0
    4.1503   -0.3364   -0.2282 C   0  0  0  0  0  0  0  0  0  0  0  0
    4.8924   -1.4562    0.3100 C   0  0  0  0  0  0  0  0  0  0  0  0
    5.6718   -2.2443   -0.4459 C   0  0  0  0  0  0  0  0  0  0  0  0
    6.4450   -3.4045    0.0901 C   0  0  0  0  0  0  0  0  0  0  0  0
   -5.4006   -2.9861   -0.3365 H   0  0  0  0  0  0  0  0  0  0  0  0
   -3.3368   -2.0720   -1.2951 H   0  0  0  0  0  0  0  0  0  0  0  0
   -2.9884   -2.8432    0.2529 H   0  0  0  0  0  0  0  0  0  0  0  0
   -6.3370   -2.2180    1.7964 H   0  0  0  0  0  0  0  0  0  0  0  0
   -4.7282   -2.8936    2.0830 H   0  0  0  0  0  0  0  0  0  0  0  0
   -4.9706   -1.1362    2.0818 H   0  0  0  0  0  0  0  0  0  0  0  0
   -5.4149    0.0834   -0.1149 H   0  0  0  0  0  0  0  0  0  0  0  0
   -5.5224   -0.8356   -1.6286 H   0  0  0  0  0  0  0  0  0  0  0  0
   -6.8038   -0.9651   -0.4180 H   0  0  0  0  0  0  0  0  0  0  0  0
   -2.8805   -0.6612    1.3105 H   0  0  0  0  0  0  0  0  0  0  0  0
   -0.9590    4.3446   -0.0568 H   0  0  0  0  0  0  0  0  0  0  0  0
   -0.6810    3.4023    1.4011 H   0  0  0  0  0  0  0  0  0  0  0  0
    1.3934    4.4914    0.6201 H   0  0  0  0  0  0  0  0  0  0  0  0
    1.2552    3.7253   -0.9555 H   0  0  0  0  0  0  0  0  0  0  0  0
   -1.8320    1.2855    1.3265 H   0  0  0  0  0  0  0  0  0  0  0  0
   -0.9222    2.2275   -1.4620 H   0  0  0  0  0  0  0  0  0  0  0  0
    1.7374    2.2322    1.7240 H   0  0  0  0  0  0  0  0  0  0  0  0
    2.6970    1.8149   -1.1664 H   0  0  0  0  0  0  0  0  0  0  0  0
    3.2292    0.3472    1.5101 H   0  0  0  0  0  0  0  0  0  0  0  0
    4.2683   -0.1748   -1.2998 H   0  0  0  0  0  0  0  0  0  0  0  0
    4.7975   -1.6465    1.3756 H   0  0  0  0  0  0  0  0  0  0  0  0
    5.7681   -2.0557   -1.5126 H   0  0  0  0  0  0  0  0  0  0  0  0
    6.1304   -4.3250   -0.4109 H   0  0  0  0  0  0  0  0  0  0  0  0
    6.3023   -3.5364    1.1673 H   0  0  0  0  0  0  0  0  0  0  0  0
    7.5132   -3.2585   -0.0971 H   0  0  0  0  0  0  0  0  0  0  0  0
  1  7  2  0  0  0  0
  2  4  1  0  0  0  0
  2  7  1  0  0  0  0
  2 28  1  0  0  0  0
  3  4  1  0  0  0  0
  3  5  1  0  0  0  0
  3  6  1  0  0  0  0
  3 19  1  0  0  0  0
  4 20  1  0  0  0  0
  4 21  1  0  0  0  0
  5 22  1  0  0  0  0
  5 23  1  0  0  0  0
  5 24  1  0  0  0  0
  6 25  1  0  0  0  0
  6 26  1  0  0  0  0
  6 27  1  0  0  0  0
  7 10  1  0  0  0  0
  8  9  1  0  0  0  0
  8 11  1  0  0  0  0
  8 29  1  0  0  0  0
  8 30  1  0  0  0  0
  9 12  1  0  0  0  0
  9 31  1  0  0  0  0
  9 32  1  0  0  0  0
 10 11  2  0  0  0  0
 10 33  1  0  0  0  0
 11 34  1  0  0  0  0
 12 13  2  0  0  0  0
 12 35  1  0  0  0  0
 13 14  1  0  0  0  0
 13 36  1  0  0  0  0
 14 15  2  0  0  0  0
 14 37  1  0  0  0  0
 15 16  1  0  0  0  0
 15 38  1  0  0  0  0
 16 17  2  0  0  0  0
 16 39  1  0  0  0  0
 17 18  1  0  0  0  0
 17 40  1  0  0  0  0
 18 41  1  0  0  0  0
 18 42  1  0  0  0  0
 18 43  1  0  0  0  0
M  END
> <PUBCHEM_COMPOUND_CID>
6506170

> <PUBCHEM_CONFORMER_RMSD>
0.8

> <PUBCHEM_CONFORMER_DIVERSEORDER>
2
84
20
10
104
176
125
59
80
3
74
145
30
52
157
169
122
76
44
136
15
81
126
95
21
101
142
178
115
163
113
46
67
130
82
79
116
146
12
18
23
175
22
143
77
65
88
147
28
17
57
85
25
5
107
62
19
154
174
110
71
100
54
117
98
69
58
96
166
99
128
39
31
90
49
132
33
160
37
173
127
11
7
155
112
64
29
86
89
162
40
141
14
55
26
36
133
45
68
140
63
153
50
32
138
70
38
61
161
152
170
171
83
91
42
27
158
159
51
120
75
121
156
111
16
102
103
105
135
144
43
94
106
73
172
93
177
148
66
151
9
24
168
41
129
78
119
137
179
87
72
118
149
34
53
6
131
35
139
8
167
48
164
92
114
97
150
60
124
108
180
109
123
134
13
1
165
47
56
4

> <PUBCHEM_MMFF94_PARTIAL_CHARGES>
24
1 -0.57
10 -0.14
11 -0.29
12 -0.29
13 -0.15
14 -0.15
15 -0.15
16 -0.15
17 -0.29
18 0.14
2 -0.73
28 0.37
33 0.15
34 0.15
35 0.15
36 0.15
37 0.15
38 0.15
39 0.15
4 0.3
40 0.15
7 0.62
8 0.14
9 0.14

> <PUBCHEM_EFFECTIVE_ROTOR_COUNT>
9

> <PUBCHEM_PHARMACOPHORE_FEATURES>
5
1 1 acceptor
1 18 hydrophobe
1 2 donor
3 3 5 6 hydrophobe
4 8 9 11 12 hydrophobe

> <PUBCHEM_HEAVY_ATOM_COUNT>
18

> <PUBCHEM_ATOM_DEF_STEREO_COUNT>
0

> <PUBCHEM_ATOM_UDEF_STEREO_COUNT>
0

> <PUBCHEM_BOND_DEF_STEREO_COUNT>
4

> <PUBCHEM_BOND_UDEF_STEREO_COUNT>
0

> <PUBCHEM_ISOTOPIC_ATOM_COUNT>
0

> <PUBCHEM_COMPONENT_COUNT>
1

> <PUBCHEM_CACTVS_TAUTO_COUNT>
2

> <PUBCHEM_CONFORMER_ID>
006346BA00000002

> <PUBCHEM_MMFF94_ENERGY>
12.4098

> <PUBCHEM_FEATURE_SELFOVERLAP>
25.373

> <PUBCHEM_SHAPE_FINGERPRINT>
11088757 655 18263347115900203474
11809386 21 18117554033892652002
12107183 9 18271259265702698865
12760667 363 18413385419578468687
12990986 174 18340486639369047830
13533116 47 18124318461523574105
13911852 28 18340203085290744279
13955234 65 17982452899280796192
14251731 5 18410854361001844304
14251764 30 18410295808915774642
14420673 8 18409170974582554643
14429380 30 18337111168810964802
14774955 27 9295300425629025617
14863182 85 17977099386382985748
14866123 147 18268714905380334457
15042514 8 18340488846466098281
15352361 1 18411417310944521196
15728490 83 18192437359723931826
16120349 189 10519978249661542042
16120349 21 18270410373658367153
17859628 70 18122063371132437344
20165401 70 18125723637411414679
20645477 70 18046336707114348249
20775530 9 18335411366388145414
20843269 155 18190734246809936946
21279426 13 18261381266118184597
21682296 61 18410575115509000583
23466295 7 18338519608398027536
270888 7 9151168749379662930
3421961 26 18268989954627073168
345986 75 17774173412558632529
5309563 4 18412261722768679526
7062679 13 18410010997234654538
7970288 3 18410855451929306010
88748 71 18409450301627256804

> <PUBCHEM_SHAPE_MULTIPOLES>
359.58
15.13
4.77
0.99
5.97
2.1
0
-22.2
0.82
3.51
0.67
-1.02
-0.24
1.07

> <PUBCHEM_SHAPE_SELFOVERLAP>
680.927

> <PUBCHEM_SHAPE_VOLUME>
220.9

> <PUBCHEM_COORDINATE_TYPE>
2
5
10

$$$$
