272499
  -OEChem-09302012003D

 44 45  0     0  0  0  0  0  0999 V2000
   -2.3996   -2.1406   -0.9556 O   0  0  0  0  0  0  0  0  0  0  0  0
   -4.7488   -2.2072    0.5279 O   0  0  0  0  0  0  0  0  0  0  0  0
    1.3821    3.0676   -0.8123 O   0  0  0  0  0  0  0  0  0  0  0  0
   -0.0692    2.0963    0.7219 N   0  0  0  0  0  0  0  0  0  0  0  0
   -2.1568    2.7084   -0.4540 C   0  0  0  0  0  0  0  0  0  0  0  0
   -2.8475    1.3923   -0.1931 C   0  0  0  0  0  0  0  0  0  0  0  0
   -1.1350    3.0682    0.6217 C   0  0  0  0  0  0  0  0  0  0  0  0
   -2.2989    0.2247   -0.7000 C   0  0  0  0  0  0  0  0  0  0  0  0
   -4.0186    1.3744    0.5482 C   0  0  0  0  0  0  0  0  0  0  0  0
   -2.9376   -0.9918   -0.4593 C   0  0  0  0  0  0  0  0  0  0  0  0
   -4.1167   -1.0251    0.2852 C   0  0  0  0  0  0  0  0  0  0  0  0
   -4.6573    0.1581    0.7889 C   0  0  0  0  0  0  0  0  0  0  0  0
    1.1034    2.1830   -0.0095 C   0  0  0  0  0  0  0  0  0  0  0  0
    2.0266    1.0512    0.2888 C   0  0  0  0  0  0  0  0  0  0  0  0
    4.2120   -0.0838   -0.0980 C   0  0  0  0  0  0  0  0  0  0  0  0
    3.2185    0.9813   -0.3221 C   0  0  0  0  0  0  0  0  0  0  0  0
   -1.4668   -2.8308   -0.1263 C   0  0  0  0  0  0  0  0  0  0  0  0
   -5.7262   -2.6265   -0.4223 C   0  0  0  0  0  0  0  0  0  0  0  0
    3.8021   -1.2896    0.4476 C   0  0  0  0  0  0  0  0  0  0  0  0
    5.5363    0.1413   -0.4370 C   0  0  0  0  0  0  0  0  0  0  0  0
    4.7423   -2.2978    0.6600 C   0  0  0  0  0  0  0  0  0  0  0  0
    6.4764   -0.8670   -0.2246 C   0  0  0  0  0  0  0  0  0  0  0  0
    6.0793   -2.0866    0.3239 C   0  0  0  0  0  0  0  0  0  0  0  0
   -2.9069    3.5065   -0.5232 H   0  0  0  0  0  0  0  0  0  0  0  0
   -1.6704    2.6732   -1.4378 H   0  0  0  0  0  0  0  0  0  0  0  0
   -0.7004    4.0495    0.4015 H   0  0  0  0  0  0  0  0  0  0  0  0
   -1.6109    3.1237    1.6070 H   0  0  0  0  0  0  0  0  0  0  0  0
   -1.3821    0.2464   -1.2833 H   0  0  0  0  0  0  0  0  0  0  0  0
   -4.4459    2.2903    0.9464 H   0  0  0  0  0  0  0  0  0  0  0  0
   -0.2087    1.3199    1.3621 H   0  0  0  0  0  0  0  0  0  0  0  0
   -5.5748    0.1394    1.3708 H   0  0  0  0  0  0  0  0  0  0  0  0
    1.6964    0.3258    1.0231 H   0  0  0  0  0  0  0  0  0  0  0  0
    3.5152    1.7499   -1.0322 H   0  0  0  0  0  0  0  0  0  0  0  0
   -0.5958   -2.1999    0.0780 H   0  0  0  0  0  0  0  0  0  0  0  0
   -1.9384   -3.1362    0.8130 H   0  0  0  0  0  0  0  0  0  0  0  0
   -1.1332   -3.7263   -0.6576 H   0  0  0  0  0  0  0  0  0  0  0  0
    2.7699   -1.5070    0.7030 H   0  0  0  0  0  0  0  0  0  0  0  0
    5.8614    1.0863   -0.8638 H   0  0  0  0  0  0  0  0  0  0  0  0
   -6.1338   -3.5865   -0.0936 H   0  0  0  0  0  0  0  0  0  0  0  0
   -6.5431   -1.8999   -0.4781 H   0  0  0  0  0  0  0  0  0  0  0  0
   -5.2724   -2.7586   -1.4096 H   0  0  0  0  0  0  0  0  0  0  0  0
    4.4329   -3.2496    1.0822 H   0  0  0  0  0  0  0  0  0  0  0  0
    7.5177   -0.7028   -0.4861 H   0  0  0  0  0  0  0  0  0  0  0  0
    6.8112   -2.8721    0.4881 H   0  0  0  0  0  0  0  0  0  0  0  0
  1 10  1  0  0  0  0
  1 17  1  0  0  0  0
  2 11  1  0  0  0  0
  2 18  1  0  0  0  0
  3 13  2  0  0  0  0
  4  7  1  0  0  0  0
  4 13  1  0  0  0  0
  4 30  1  0  0  0  0
  5  6  1  0  0  0  0
  5  7  1  0  0  0  0
  5 24  1  0  0  0  0
  5 25  1  0  0  0  0
  6  8  2  0  0  0  0
  6  9  1  0  0  0  0
  7 26  1  0  0  0  0
  7 27  1  0  0  0  0
  8 10  1  0  0  0  0
  8 28  1  0  0  0  0
  9 12  2  0  0  0  0
  9 29  1  0  0  0  0
 10 11  2  0  0  0  0
 11 12  1  0  0  0  0
 12 31  1  0  0  0  0
 13 14  1  0  0  0  0
 14 16  2  3  0  0  0
 14 32  1  0  0  0  0
 15 16  1  0  0  0  0
 15 19  2  0  0  0  0
 15 20  1  0  0  0  0
 16 33  1  0  0  0  0
 17 34  1  0  0  0  0
 17 35  1  0  0  0  0
 17 36  1  0  0  0  0
 18 39  1  0  0  0  0
 18 40  1  0  0  0  0
 18 41  1  0  0  0  0
 19 21  1  0  0  0  0
 19 37  1  0  0  0  0
 20 22  2  0  0  0  0
 20 38  1  0  0  0  0
 21 23  2  0  0  0  0
 21 42  1  0  0  0  0
 22 23  1  0  0  0  0
 22 43  1  0  0  0  0
 23 44  1  0  0  0  0
M  END
> <PUBCHEM_COMPOUND_CID>
272499

> <PUBCHEM_CONFORMER_RMSD>
0.8

> <PUBCHEM_CONFORMER_DIVERSEORDER>
1
46
61
104
58
121
64
49
28
93
44
90
15
106
32
36
16
27
60
26
63
97
66
76
34
85
11
42
83
68
86
9
57
102
17
54
6
95
78
14
10
81
7
80
117
71
110
59
39
111
94
35
8
91
100
96
55
70
21
31
50
74
65
73
62
56
105
72
116
33
69
84
119
12
18
115
41
99
103
75
25
112
120
89
3
23
92
101
48
40
38
5
24
107
29
19
13
47
77
4
2
82
114
108
118
79
30
113
52
20
53
45
109
51
88
22
37
43
98
87
67

> <PUBCHEM_MMFF94_PARTIAL_CHARGES>
34
1 -0.36
10 0.08
11 0.08
12 -0.15
13 0.62
14 -0.14
15 0.03
16 -0.18
17 0.28
18 0.28
19 -0.15
2 -0.36
20 -0.15
21 -0.15
22 -0.15
23 -0.15
28 0.15
29 0.15
3 -0.57
30 0.37
31 0.15
32 0.15
33 0.15
37 0.15
38 0.15
4 -0.73
42 0.15
43 0.15
44 0.15
5 0.14
6 -0.14
7 0.3
8 -0.15
9 -0.15

> <PUBCHEM_EFFECTIVE_ROTOR_COUNT>
8

> <PUBCHEM_PHARMACOPHORE_FEATURES>
6
1 1 acceptor
1 2 acceptor
1 3 acceptor
1 4 donor
6 15 19 20 21 22 23 rings
6 6 8 9 10 11 12 rings

> <PUBCHEM_HEAVY_ATOM_COUNT>
23

> <PUBCHEM_ATOM_DEF_STEREO_COUNT>
0

> <PUBCHEM_ATOM_UDEF_STEREO_COUNT>
0

> <PUBCHEM_BOND_DEF_STEREO_COUNT>
0

> <PUBCHEM_BOND_UDEF_STEREO_COUNT>
1

> <PUBCHEM_ISOTOPIC_ATOM_COUNT>
0

> <PUBCHEM_COMPONENT_COUNT>
1

> <PUBCHEM_CACTVS_TAUTO_COUNT>
2

> <PUBCHEM_CONFORMER_ID>
0004287300000001

> <PUBCHEM_MMFF94_ENERGY>
76.7903

> <PUBCHEM_FEATURE_SELFOVERLAP>
30.45

> <PUBCHEM_SHAPE_FINGERPRINT>
10693767 8 17840005675583586999
10939801 23 18341328998768082962
117089 54 18118416261151782355
11756154 67 18338801250804921823
12107183 9 18342189847448089785
12174731 88 17684072592465434682
12633257 1 18201730565097738549
12760667 363 18341609304954786405
13103583 49 18059587870648738377
13167823 11 18263363608168229552
13402501 40 18272091578176215606
13533116 47 18125157388768940351
13551218 46 18340488967062266451
13631057 29 18411138031065532920
13911852 28 18267020755720181575
14251751 18 18341888563954888192
14251757 5 18408605864028799834
14251764 30 18116162236850395363
14420673 8 18339929207831709139
14866123 147 18412549791358576601
15352361 1 18410011039714660160
15519825 34 14835547189942409743
15537594 2 18187651249984447520
16110190 28 18342178873294568108
17492 89 18337389438955939624
17780758 139 17988926634824238737
1813 80 17749383801992614252
19319366 153 17618793890912410093
20403669 9 18342744030518100198
21054139 6 18114465570581947986
21403212 168 18058459716775693545
221357 26 18334853952426295370
22950370 63 18408325462936123340
23559900 14 18341038666947297032
3004659 81 18187361051966172408
329604 57 18407762538873630230
351380 3 18409449176625289650
44062 13 18334853875169586157
44880168 125 17489593333649501358
46194498 28 17168984654893801124
484985 159 18411135797698434649
5104073 3 18131071549507899168
56633871 153 18199188563219205399
6138700 20 18410855465283167087
6371380 46 18057598777201014497
6431902 208 18408322181380746602
7970288 3 18410009970067804707
999808 66 18040731276444759955

> <PUBCHEM_SHAPE_MULTIPOLES>
450.74
15.18
3.94
0.85
14.11
0.47
0
-11.66
0.67
-2.63
-0.06
-0.21
0.03
-1.06

> <PUBCHEM_SHAPE_SELFOVERLAP>
944.621

> <PUBCHEM_SHAPE_VOLUME>
254.5

> <PUBCHEM_COORDINATE_TYPE>
2
5
10

$$$$
