5321844
  -OEChem-09302011553D

 54 53  0     0  0  0  0  0  0999 V2000
   -6.4193   -1.5827   -1.2003 O   0  0  0  0  0  0  0  0  0  0  0  0
   -4.7783    0.9843   -1.1855 O   0  0  0  0  0  0  0  0  0  0  0  0
   -5.5248    0.2367    0.8825 N   0  0  0  0  0  0  0  0  0  0  0  0
    6.4706    0.2833    0.1673 C   0  0  0  0  0  0  0  0  0  0  0  0
    5.0807    0.2407   -0.4774 C   0  0  0  0  0  0  0  0  0  0  0  0
    7.4554   -0.7054   -0.4654 C   0  0  0  0  0  0  0  0  0  0  0  0
    4.0353    1.1370    0.1974 C   0  0  0  0  0  0  0  0  0  0  0  0
    8.7918   -0.7065    0.2815 C   0  0  0  0  0  0  0  0  0  0  0  0
    2.6208    0.9811   -0.3655 C   0  0  0  0  0  0  0  0  0  0  0  0
    9.8227   -1.6633   -0.3216 C   0  0  0  0  0  0  0  0  0  0  0  0
    1.5937    1.8973    0.3104 C   0  0  0  0  0  0  0  0  0  0  0  0
   -7.2083   -1.3491   -0.0313 C   0  0  0  0  0  0  0  0  0  0  0  0
   -6.9080    0.0576    0.5070 C   0  0  0  0  0  0  0  0  0  0  0  0
   11.1276   -1.7202    0.4578 C   0  0  0  0  0  0  0  0  0  0  0  0
    0.2103    1.7608   -0.2597 C   0  0  0  0  0  0  0  0  0  0  0  0
   -6.8695   -2.4414    0.9848 C   0  0  0  0  0  0  0  0  0  0  0  0
   -8.6826   -1.4506   -0.4325 C   0  0  0  0  0  0  0  0  0  0  0  0
   -0.8461    1.3376    0.4509 C   0  0  0  0  0  0  0  0  0  0  0  0
   -4.5710    0.6911   -0.0124 C   0  0  0  0  0  0  0  0  0  0  0  0
   -2.1765    1.2179   -0.1038 C   0  0  0  0  0  0  0  0  0  0  0  0
   -3.2246    0.7938    0.6157 C   0  0  0  0  0  0  0  0  0  0  0  0
    6.8724    1.3012    0.0937 H   0  0  0  0  0  0  0  0  0  0  0  0
    6.3710    0.0573    1.2363 H   0  0  0  0  0  0  0  0  0  0  0  0
    4.7170   -0.7945   -0.4570 H   0  0  0  0  0  0  0  0  0  0  0  0
    5.1650    0.5213   -1.5345 H   0  0  0  0  0  0  0  0  0  0  0  0
    7.0282   -1.7152   -0.4469 H   0  0  0  0  0  0  0  0  0  0  0  0
    7.6169   -0.4403   -1.5170 H   0  0  0  0  0  0  0  0  0  0  0  0
    4.3513    2.1832    0.1023 H   0  0  0  0  0  0  0  0  0  0  0  0
    4.0137    0.9119    1.2711 H   0  0  0  0  0  0  0  0  0  0  0  0
    9.2070    0.3090    0.2864 H   0  0  0  0  0  0  0  0  0  0  0  0
    8.6180   -0.9822    1.3291 H   0  0  0  0  0  0  0  0  0  0  0  0
    2.6408    1.1897   -1.4428 H   0  0  0  0  0  0  0  0  0  0  0  0
    2.3031   -0.0634   -0.2542 H   0  0  0  0  0  0  0  0  0  0  0  0
   10.0370   -1.3619   -1.3538 H   0  0  0  0  0  0  0  0  0  0  0  0
    9.3972   -2.6730   -0.3674 H   0  0  0  0  0  0  0  0  0  0  0  0
    1.9080    2.9417    0.1931 H   0  0  0  0  0  0  0  0  0  0  0  0
    1.5870    1.6944    1.3886 H   0  0  0  0  0  0  0  0  0  0  0  0
   -7.5110    0.2687    1.3972 H   0  0  0  0  0  0  0  0  0  0  0  0
   -7.1519    0.8097   -0.2530 H   0  0  0  0  0  0  0  0  0  0  0  0
   11.6017   -0.7344    0.4964 H   0  0  0  0  0  0  0  0  0  0  0  0
   11.8251   -2.4163   -0.0182 H   0  0  0  0  0  0  0  0  0  0  0  0
   10.9547   -2.0587    1.4843 H   0  0  0  0  0  0  0  0  0  0  0  0
    0.0880    2.0354   -1.3051 H   0  0  0  0  0  0  0  0  0  0  0  0
   -7.4153   -2.3002    1.9234 H   0  0  0  0  0  0  0  0  0  0  0  0
   -7.1166   -3.4337    0.5896 H   0  0  0  0  0  0  0  0  0  0  0  0
   -5.7963   -2.4622    1.2043 H   0  0  0  0  0  0  0  0  0  0  0  0
   -9.3455   -1.2824    0.4226 H   0  0  0  0  0  0  0  0  0  0  0  0
   -8.9084   -2.4355   -0.8571 H   0  0  0  0  0  0  0  0  0  0  0  0
   -8.9250   -0.7171   -1.2100 H   0  0  0  0  0  0  0  0  0  0  0  0
   -5.2627    0.0132    1.8383 H   0  0  0  0  0  0  0  0  0  0  0  0
   -0.7154    1.0682    1.4960 H   0  0  0  0  0  0  0  0  0  0  0  0
   -6.6315   -2.4703   -1.5362 H   0  0  0  0  0  0  0  0  0  0  0  0
   -2.2973    1.4905   -1.1492 H   0  0  0  0  0  0  0  0  0  0  0  0
   -3.1190    0.5178    1.6603 H   0  0  0  0  0  0  0  0  0  0  0  0
  1 12  1  0  0  0  0
  1 52  1  0  0  0  0
  2 19  2  0  0  0  0
  3 13  1  0  0  0  0
  3 19  1  0  0  0  0
  3 50  1  0  0  0  0
  4  5  1  0  0  0  0
  4  6  1  0  0  0  0
  4 22  1  0  0  0  0
  4 23  1  0  0  0  0
  5  7  1  0  0  0  0
  5 24  1  0  0  0  0
  5 25  1  0  0  0  0
  6  8  1  0  0  0  0
  6 26  1  0  0  0  0
  6 27  1  0  0  0  0
  7  9  1  0  0  0  0
  7 28  1  0  0  0  0
  7 29  1  0  0  0  0
  8 10  1  0  0  0  0
  8 30  1  0  0  0  0
  8 31  1  0  0  0  0
  9 11  1  0  0  0  0
  9 32  1  0  0  0  0
  9 33  1  0  0  0  0
 10 14  1  0  0  0  0
 10 34  1  0  0  0  0
 10 35  1  0  0  0  0
 11 15  1  0  0  0  0
 11 36  1  0  0  0  0
 11 37  1  0  0  0  0
 12 13  1  0  0  0  0
 12 16  1  0  0  0  0
 12 17  1  0  0  0  0
 13 38  1  0  0  0  0
 13 39  1  0  0  0  0
 14 40  1  0  0  0  0
 14 41  1  0  0  0  0
 14 42  1  0  0  0  0
 15 18  2  0  0  0  0
 15 43  1  0  0  0  0
 16 44  1  0  0  0  0
 16 45  1  0  0  0  0
 16 46  1  0  0  0  0
 17 47  1  0  0  0  0
 17 48  1  0  0  0  0
 17 49  1  0  0  0  0
 18 20  1  0  0  0  0
 18 51  1  0  0  0  0
 19 21  1  0  0  0  0
 20 21  2  0  0  0  0
 20 53  1  0  0  0  0
 21 54  1  0  0  0  0
M  END
> <PUBCHEM_COMPOUND_CID>
5321844

> <PUBCHEM_CONFORMER_RMSD>
1.4

> <PUBCHEM_CONFORMER_DIVERSEORDER>
1
15
7
19
27
10
28
26
24
33
31
5
14
18
32
12
11
8
6
13
4
2
22
29
21
30
25
3
20
23
34
17
9
16

> <PUBCHEM_MMFF94_PARTIAL_CHARGES>
17
1 -0.68
11 0.14
12 0.28
13 0.3
15 -0.29
18 -0.15
19 0.62
2 -0.57
20 -0.15
21 -0.14
3 -0.73
43 0.15
50 0.37
51 0.15
52 0.4
53 0.15
54 0.15

> <PUBCHEM_EFFECTIVE_ROTOR_COUNT>
13

> <PUBCHEM_PHARMACOPHORE_FEATURES>
6
1 1 acceptor
1 1 donor
1 14 hydrophobe
1 2 acceptor
1 3 donor
3 12 16 17 hydrophobe

> <PUBCHEM_HEAVY_ATOM_COUNT>
21

> <PUBCHEM_ATOM_DEF_STEREO_COUNT>
0

> <PUBCHEM_ATOM_UDEF_STEREO_COUNT>
0

> <PUBCHEM_BOND_DEF_STEREO_COUNT>
2

> <PUBCHEM_BOND_UDEF_STEREO_COUNT>
0

> <PUBCHEM_ISOTOPIC_ATOM_COUNT>
0

> <PUBCHEM_COMPONENT_COUNT>
1

> <PUBCHEM_CACTVS_TAUTO_COUNT>
2

> <PUBCHEM_CONFORMER_ID>
0051347400000001

> <PUBCHEM_MMFF94_ENERGY>
14.8932

> <PUBCHEM_FEATURE_SELFOVERLAP>
30.449

> <PUBCHEM_SHAPE_FINGERPRINT>
11135609 99 18340207483405801374
11386260 185 16009039414828189876
11463208 3 18409732876005644035
12498461 61 17918267662880189630
12539745 222 17988647350407846128
13668630 136 18335419079827707461
14178184 131 18201156675826529399
14202775 3 18341898425897171270
14428016 248 11599998869746759946
14729087 3 9223235139373378569
15510794 2 18413103961607923980
155225 1 8935002568424787327
15690457 1 18409448073377740330
15706992 2 10375869710231794588
15716309 27 18130790114087648645
1754911 235 13118003301634856410
1768 4 8935005893393976743
1818759 1 18343869905504439030
18643901 69 18040998449501991461
2026 5 18335421219275705226
20281389 69 10519722081101591721
20721686 146 7853591101608847907
21095123 293 10879986974527298794
21315763 28 18410013230644476876
23524908 199 12613028359411913624
246663 6 18411703158825842584
33532 11 18411700963812581306
3711267 37 9294999215932406046
54039377 194 18410575085222423900
5758199 1 11383835960808306164
57828716 8 17346590908161830207
5937810 71 12468624007577116127
59682541 35 17561078099851973434
59848396 5 18272080617272587687
636775 72 10087646996407838267
9953998 17 14405178469732136900
9980921 7 10519988137325019651

> <PUBCHEM_SHAPE_MULTIPOLES>
415.45
38.92
2.22
0.89
58.38
0.67
0.05
35.09
-0.33
-1.06
-0.14
-0.9
0.13
-0.08

> <PUBCHEM_SHAPE_SELFOVERLAP>
777.931

> <PUBCHEM_SHAPE_VOLUME>
258.9

> <PUBCHEM_COORDINATE_TYPE>
2
5
10

$$$$
