44258009
  -OEChem-09302013083D

 56 59  0     1  0  0  0  0  0999 V2000
    2.1758   -0.7667   -1.0010 O   0  0  0  0  0  0  0  0  0  0  0  0
    0.3824   -0.9068    0.5467 O   0  0  0  0  0  0  0  0  0  0  0  0
    2.6252   -4.5962    0.5318 O   0  0  0  0  0  0  0  0  0  0  0  0
    4.5615   -2.5137    1.1768 O   0  0  0  0  0  0  0  0  0  0  0  0
    1.5444   -3.4679   -1.7524 O   0  0  0  0  0  0  0  0  0  0  0  0
    4.8371   -0.6726   -1.8068 O   0  0  0  0  0  0  0  0  0  0  0  0
   -2.2819    1.5133   -0.2496 O   0  0  0  0  0  0  0  0  0  0  0  0
   -1.9412   -2.4209    0.7551 O   0  0  0  0  0  0  0  0  0  0  0  0
   -4.5400   -2.6812    0.6409 O   0  0  0  0  0  0  0  0  0  0  0  0
    2.7975    3.2814    1.8012 O   0  0  0  0  0  0  0  0  0  0  0  0
   -7.0130    1.2117   -0.4889 O   0  0  0  0  0  0  0  0  0  0  0  0
    3.2253    4.5385   -0.6412 O   0  0  0  0  0  0  0  0  0  0  0  0
    2.3409   -3.1999    0.5206 C   0  0  1  0  0  0  0  0  0  0  0  0
    3.5908   -2.4042    0.1393 C   0  0  1  0  0  0  0  0  0  0  0  0
    1.2061   -2.9359   -0.4702 C   0  0  1  0  0  0  0  0  0  0  0  0
    3.2349   -0.9247   -0.0531 C   0  0  1  0  0  0  0  0  0  0  0  0
    0.9633   -1.4370   -0.6397 C   0  0  2  0  0  0  0  0  0  0  0  0
    4.4282   -0.1244   -0.5674 C   0  0  0  0  0  0  0  0  0  0  0  0
   -0.8606   -0.3621    0.3065 C   0  0  0  0  0  0  0  0  0  0  0  0
   -1.0449    0.9266   -0.0335 C   0  0  0  0  0  0  0  0  0  0  0  0
   -2.0465   -1.2406    0.4497 C   0  0  0  0  0  0  0  0  0  0  0  0
   -3.3555   -0.6154    0.2064 C   0  0  0  0  0  0  0  0  0  0  0  0
   -3.4043    0.7351   -0.1317 C   0  0  0  0  0  0  0  0  0  0  0  0
    0.0747    1.8722   -0.1898 C   0  0  0  0  0  0  0  0  0  0  0  0
   -4.5333   -1.3590    0.3132 C   0  0  0  0  0  0  0  0  0  0  0  0
   -4.6337    1.3517   -0.3660 C   0  0  0  0  0  0  0  0  0  0  0  0
    0.9193    2.1366    0.8884 C   0  0  0  0  0  0  0  0  0  0  0  0
    0.2897    2.5027   -1.4152 C   0  0  0  0  0  0  0  0  0  0  0  0
   -5.7617   -0.7402    0.0783 C   0  0  0  0  0  0  0  0  0  0  0  0
   -5.8120    0.6125   -0.2608 C   0  0  0  0  0  0  0  0  0  0  0  0
    1.9791    3.0315    0.7410 C   0  0  0  0  0  0  0  0  0  0  0  0
    1.3493    3.3979   -1.5625 C   0  0  0  0  0  0  0  0  0  0  0  0
    2.1941    3.6622   -0.4844 C   0  0  0  0  0  0  0  0  0  0  0  0
    2.5090    2.5956    3.0180 C   0  0  0  0  0  0  0  0  0  0  0  0
    2.0285   -2.9301    1.5370 H   0  0  0  0  0  0  0  0  0  0  0  0
    4.0307   -2.8381   -0.7657 H   0  0  0  0  0  0  0  0  0  0  0  0
    0.3044   -3.4574   -0.1328 H   0  0  0  0  0  0  0  0  0  0  0  0
    2.9291   -0.4780    0.9017 H   0  0  0  0  0  0  0  0  0  0  0  0
    0.2998   -1.2942   -1.5044 H   0  0  0  0  0  0  0  0  0  0  0  0
    5.2678   -0.1548    0.1334 H   0  0  0  0  0  0  0  0  0  0  0  0
    4.1431    0.9182   -0.7403 H   0  0  0  0  0  0  0  0  0  0  0  0
    1.8091   -5.0600    0.7854 H   0  0  0  0  0  0  0  0  0  0  0  0
    4.1766   -2.1447    1.9901 H   0  0  0  0  0  0  0  0  0  0  0  0
    0.7765   -3.3410   -2.3354 H   0  0  0  0  0  0  0  0  0  0  0  0
    5.5917   -0.1448   -2.1191 H   0  0  0  0  0  0  0  0  0  0  0  0
   -4.6754    2.4054   -0.6301 H   0  0  0  0  0  0  0  0  0  0  0  0
    0.7033    1.6281    1.8225 H   0  0  0  0  0  0  0  0  0  0  0  0
   -0.3576    2.3052   -2.2662 H   0  0  0  0  0  0  0  0  0  0  0  0
   -6.6794   -1.3180    0.1610 H   0  0  0  0  0  0  0  0  0  0  0  0
    1.5059    3.8816   -2.5229 H   0  0  0  0  0  0  0  0  0  0  0  0
   -3.6357   -3.0035    0.7749 H   0  0  0  0  0  0  0  0  0  0  0  0
   -7.7206    0.5546   -0.3728 H   0  0  0  0  0  0  0  0  0  0  0  0
    3.2190    4.8750   -1.5537 H   0  0  0  0  0  0  0  0  0  0  0  0
    3.2595    2.9107    3.7505 H   0  0  0  0  0  0  0  0  0  0  0  0
    2.6130    1.5109    2.9048 H   0  0  0  0  0  0  0  0  0  0  0  0
    1.5321    2.8826    3.4219 H   0  0  0  0  0  0  0  0  0  0  0  0
  1 16  1  0  0  0  0
  1 17  1  0  0  0  0
  2 17  1  0  0  0  0
  2 19  1  0  0  0  0
  3 13  1  0  0  0  0
  3 42  1  0  0  0  0
  4 14  1  0  0  0  0
  4 43  1  0  0  0  0
  5 15  1  0  0  0  0
  5 44  1  0  0  0  0
  6 18  1  0  0  0  0
  6 45  1  0  0  0  0
  7 20  1  0  0  0  0
  7 23  1  0  0  0  0
  8 21  2  0  0  0  0
  9 25  1  0  0  0  0
  9 51  1  0  0  0  0
 10 31  1  0  0  0  0
 10 34  1  0  0  0  0
 11 30  1  0  0  0  0
 11 52  1  0  0  0  0
 12 33  1  0  0  0  0
 12 53  1  0  0  0  0
 13 14  1  0  0  0  0
 13 15  1  0  0  0  0
 13 35  1  0  0  0  0
 14 16  1  0  0  0  0
 14 36  1  0  0  0  0
 15 17  1  0  0  0  0
 15 37  1  0  0  0  0
 16 18  1  0  0  0  0
 16 38  1  0  0  0  0
 17 39  1  0  0  0  0
 18 40  1  0  0  0  0
 18 41  1  0  0  0  0
 19 20  2  0  0  0  0
 19 21  1  0  0  0  0
 20 24  1  0  0  0  0
 21 22  1  0  0  0  0
 22 23  1  0  0  0  0
 22 25  2  0  0  0  0
 23 26  2  0  0  0  0
 24 27  2  0  0  0  0
 24 28  1  0  0  0  0
 25 29  1  0  0  0  0
 26 30  1  0  0  0  0
 26 46  1  0  0  0  0
 27 31  1  0  0  0  0
 27 47  1  0  0  0  0
 28 32  2  0  0  0  0
 28 48  1  0  0  0  0
 29 30  2  0  0  0  0
 29 49  1  0  0  0  0
 31 33  2  0  0  0  0
 32 33  1  0  0  0  0
 32 50  1  0  0  0  0
 34 54  1  0  0  0  0
 34 55  1  0  0  0  0
 34 56  1  0  0  0  0
M  END
> <PUBCHEM_COMPOUND_CID>
44258009

> <PUBCHEM_CONFORMER_RMSD>
1

> <PUBCHEM_CONFORMER_DIVERSEORDER>
3
71
66
49
28
63
32
11
62
29
64
68
26
65
70
34
38
27
45
33
57
59
42
52
23
39
69
25
51
37
67
22
60
36
15
54
44
35
30
43
46
21
14
53
61
10
18
40
56
41
9
24
55
20
48
47
5
7
19
8
50
58
13
6
12
16
4
17
31
2
1

> <PUBCHEM_MMFF94_PARTIAL_CHARGES>
46
1 -0.56
10 -0.36
11 -0.53
12 -0.53
13 0.28
14 0.28
15 0.28
16 0.28
17 0.56
18 0.28
19 0.09
2 -0.36
20 0.05
21 0.47
22 0.09
23 0.08
24 0.03
25 0.08
26 -0.15
27 -0.15
28 -0.15
29 -0.15
3 -0.68
30 0.08
31 0.08
32 -0.15
33 0.08
34 0.28
4 -0.68
42 0.4
43 0.4
44 0.4
45 0.4
46 0.15
47 0.15
48 0.15
49 0.15
5 -0.68
50 0.15
51 0.45
52 0.45
53 0.45
6 -0.68
7 -0.16
8 -0.57
9 -0.53

> <PUBCHEM_EFFECTIVE_ROTOR_COUNT>
6.2

> <PUBCHEM_PHARMACOPHORE_FEATURES>
20
1 1 acceptor
1 10 acceptor
1 11 donor
1 12 donor
1 2 acceptor
1 3 acceptor
1 3 donor
1 4 acceptor
1 4 donor
1 5 acceptor
1 5 donor
1 6 acceptor
1 6 donor
1 7 acceptor
1 8 acceptor
1 9 donor
6 1 13 14 15 16 17 rings
6 22 23 25 26 29 30 rings
6 24 27 28 31 32 33 rings
6 7 19 20 21 22 23 rings

> <PUBCHEM_HEAVY_ATOM_COUNT>
34

> <PUBCHEM_ATOM_DEF_STEREO_COUNT>
3

> <PUBCHEM_ATOM_UDEF_STEREO_COUNT>
2

> <PUBCHEM_BOND_DEF_STEREO_COUNT>
0

> <PUBCHEM_BOND_UDEF_STEREO_COUNT>
0

> <PUBCHEM_ISOTOPIC_ATOM_COUNT>
0

> <PUBCHEM_COMPONENT_COUNT>
1

> <PUBCHEM_CACTVS_TAUTO_COUNT>
69

> <PUBCHEM_CONFORMER_ID>
02A352D900000003

> <PUBCHEM_MMFF94_ENERGY>
116.2019

> <PUBCHEM_FEATURE_SELFOVERLAP>
101.6

> <PUBCHEM_SHAPE_FINGERPRINT>
10050765 1 18336266851613386483
1100329 8 18266745877776158534
11421498 54 12540693695751904023
11456790 92 18191873323633745897
11513181 2 17983024641353746910
11963148 33 17688587582499418139
12156800 1 15866009327978906484
12422481 6 18192125278403750385
12522641 24 17988926712956199753
12788726 201 17684374953387869122
12839892 36 18048586320873588945
131258 43 17701006287261507790
13140716 1 18194417798997352459
133893 2 18266764482967979657
13540713 4 18114467838477661099
138480 1 18408887304408135244
140371 6 18269846328424728227
14117953 113 18269554927431132551
14790565 3 17759529163243934973
14955137 171 17988652869429375212
15230672 131 18048318045055228068
15439362 3 18335418002176304453
15775530 1 18117250641482117669
15927050 60 17980484782641684150
17492 54 18116175383977390332
17980427 23 17630890404946106177
20600515 1 17981895141900195573
20642791 105 17538550025067807744
20642791 178 17970359324163973932
21033648 29 17840300357046805561
22182313 1 18115847669161406581
22956985 138 18335412504428385322
23366157 5 18187085087448190357
23559900 14 18409166627975437157
24771750 20 18116730675508153485
27425 322 16591123206835442524
3004659 81 17968945162979274582
3298306 158 18126569165424617137
338550 245 18121217851064526044
469060 322 18193850245551198664
495365 180 18200591513948528241
5265222 85 17617385421329439780
57124632 79 18267582583864095561
59755656 215 18408884053408471405
6443956 14 18412546521992093904
6679774 75 18116981373340136450
9981440 41 17974854179190314081

> <PUBCHEM_SHAPE_MULTIPOLES>
629.27
10.96
5.64
1.47
16.71
0.38
-0.58
-1.78
0.38
-7.5
-0.12
-1.85
1.01
1.13

> <PUBCHEM_SHAPE_SELFOVERLAP>
1380.824

> <PUBCHEM_SHAPE_VOLUME>
336.3

> <PUBCHEM_COORDINATE_TYPE>
2
5
10

$$$$
