5281846
  -OEChem-09302012053D

 29 31  0     0  0  0  0  0  0999 V2000
   -2.2915   -2.3194    0.1693 O   0  0  0  0  0  0  0  0  0  0  0  0
   -1.8863    2.2755   -0.4303 O   0  0  0  0  0  0  0  0  0  0  0  0
    2.6256   -1.6641    0.4168 O   0  0  0  0  0  0  0  0  0  0  0  0
    4.2256    0.5583    0.2217 O   0  0  0  0  0  0  0  0  0  0  0  0
   -0.0670   -1.4661    0.2057 N   0  0  0  0  0  0  0  0  0  0  0  0
    0.1052    0.9377   -0.1108 C   0  0  0  0  0  0  0  0  0  0  0  0
    0.6626   -0.3452    0.1025 C   0  0  0  0  0  0  0  0  0  0  0  0
   -1.2882    1.0629   -0.2233 C   0  0  0  0  0  0  0  0  0  0  0  0
   -2.0654   -0.0964   -0.1187 C   0  0  0  0  0  0  0  0  0  0  0  0
   -1.3944   -1.2943    0.0913 C   0  0  0  0  0  0  0  0  0  0  0  0
    2.0462   -0.4405    0.2099 C   0  0  0  0  0  0  0  0  0  0  0  0
    0.9371    2.0653   -0.2081 C   0  0  0  0  0  0  0  0  0  0  0  0
    2.8732    0.6816    0.1128 C   0  0  0  0  0  0  0  0  0  0  0  0
   -3.4445   -0.4178   -0.1700 C   0  0  0  0  0  0  0  0  0  0  0  0
    2.3181    1.9367   -0.0964 C   0  0  0  0  0  0  0  0  0  0  0  0
   -3.5273   -1.7788    0.0103 C   0  0  0  0  0  0  0  0  0  0  0  0
   -2.8113    2.7130    0.5596 C   0  0  0  0  0  0  0  0  0  0  0  0
    2.9824   -2.4085   -0.7423 C   0  0  0  0  0  0  0  0  0  0  0  0
    0.5249    3.0585   -0.3719 H   0  0  0  0  0  0  0  0  0  0  0  0
   -4.2817    0.2463   -0.3269 H   0  0  0  0  0  0  0  0  0  0  0  0
    2.9448    2.8206   -0.1744 H   0  0  0  0  0  0  0  0  0  0  0  0
   -4.3501   -2.4777    0.0468 H   0  0  0  0  0  0  0  0  0  0  0  0
   -2.7336    3.8016    0.6358 H   0  0  0  0  0  0  0  0  0  0  0  0
   -2.5975    2.2870    1.5462 H   0  0  0  0  0  0  0  0  0  0  0  0
   -3.8315    2.4688    0.2525 H   0  0  0  0  0  0  0  0  0  0  0  0
    4.6330    1.4366    0.1284 H   0  0  0  0  0  0  0  0  0  0  0  0
    2.1002   -2.6247   -1.3530 H   0  0  0  0  0  0  0  0  0  0  0  0
    3.4217   -3.3563   -0.4191 H   0  0  0  0  0  0  0  0  0  0  0  0
    3.7244   -1.8664   -1.3370 H   0  0  0  0  0  0  0  0  0  0  0  0
  1 10  1  0  0  0  0
  1 16  1  0  0  0  0
  2  8  1  0  0  0  0
  2 17  1  0  0  0  0
  3 11  1  0  0  0  0
  3 18  1  0  0  0  0
  4 13  1  0  0  0  0
  4 26  1  0  0  0  0
  5  7  1  0  0  0  0
  5 10  2  0  0  0  0
  6  7  2  0  0  0  0
  6  8  1  0  0  0  0
  6 12  1  0  0  0  0
  7 11  1  0  0  0  0
  8  9  2  0  0  0  0
  9 10  1  0  0  0  0
  9 14  1  0  0  0  0
 11 13  2  0  0  0  0
 12 15  2  0  0  0  0
 12 19  1  0  0  0  0
 13 15  1  0  0  0  0
 14 16  2  0  0  0  0
 14 20  1  0  0  0  0
 15 21  1  0  0  0  0
 16 22  1  0  0  0  0
 17 23  1  0  0  0  0
 17 24  1  0  0  0  0
 17 25  1  0  0  0  0
 18 27  1  0  0  0  0
 18 28  1  0  0  0  0
 18 29  1  0  0  0  0
M  END
> <PUBCHEM_COMPOUND_CID>
5281846

> <PUBCHEM_CONFORMER_RMSD>
0.6

> <PUBCHEM_CONFORMER_DIVERSEORDER>
1
2

> <PUBCHEM_MMFF94_PARTIAL_CHARGES>
21
1 -0.28
10 0.4
11 0.08
12 -0.15
13 0.08
14 -0.15
15 -0.15
16 -0.01
17 0.28
18 0.28
19 0.15
2 -0.36
20 0.15
21 0.15
22 0.15
26 0.45
3 -0.36
4 -0.53
5 -0.57
7 0.31
8 0.08

> <PUBCHEM_EFFECTIVE_ROTOR_COUNT>
2

> <PUBCHEM_PHARMACOPHORE_FEATURES>
6
1 2 acceptor
1 3 acceptor
1 4 donor
5 1 9 10 14 16 rings
6 5 6 7 8 9 10 rings
6 6 7 11 12 13 15 rings

> <PUBCHEM_HEAVY_ATOM_COUNT>
18

> <PUBCHEM_ATOM_DEF_STEREO_COUNT>
0

> <PUBCHEM_ATOM_UDEF_STEREO_COUNT>
0

> <PUBCHEM_BOND_DEF_STEREO_COUNT>
0

> <PUBCHEM_BOND_UDEF_STEREO_COUNT>
0

> <PUBCHEM_ISOTOPIC_ATOM_COUNT>
0

> <PUBCHEM_COMPONENT_COUNT>
1

> <PUBCHEM_CACTVS_TAUTO_COUNT>
5

> <PUBCHEM_CONFORMER_ID>
0050983600000001

> <PUBCHEM_MMFF94_ENERGY>
65.089

> <PUBCHEM_FEATURE_SELFOVERLAP>
30.597

> <PUBCHEM_SHAPE_FINGERPRINT>
10608611 8 18411978053100304968
10616163 171 18411703222348324078
10693767 8 17047081457531009463
10967382 1 18049441736123903555
1100329 8 18051130289726519376
11132069 177 18266732674424081512
11471102 20 18192705863524043335
11578080 2 17273673516577182025
11680986 33 18341047402830687516
116883 192 18412826858986853847
12553582 1 18267019655612376855
13140716 1 17905323279783709634
13221675 6 18338516451448923654
13380535 21 18338804416258537508
13583140 156 14189299218700125671
14178342 30 18338222800509246920
14223421 5 18412262860871326080
14790565 3 17331696647946172780
15196674 1 18264486367715318572
15375462 6 18339361975737787222
15442244 35 18338234851854831994
15536298 74 18341894069754976910
16945 1 18338239378655442300
193761 8 18410293579785244437
19591789 44 16827285736615302799
200 152 18200586033638570735
20510252 161 18342457028256232657
20559304 39 18337390547363151728
20645477 70 18337383967653148271
21267235 1 18264496250630583331
21501502 16 18409730634110985636
22721475 48 18335702796724313280
23184049 29 18408881823892754342
2334 1 18409445856283234404
23366157 5 18113340782860495286
23402539 116 18339068414701909215
23463225 33 18191302882402661197
23557571 272 18271814480219299654
23558518 356 18334300838016118459
23559900 14 18412537696334934352
2748010 2 18337947883641271572
335352 9 18050285873359831373
34934 24 18267294525040149591
350125 39 18410016524383018721
5104073 3 18411131403914996440
7364860 26 18341613767399212158
74978 22 18338798884113638012
7832392 63 18266741285812534264
81228 2 18260833713153098849
8809292 202 18042404818798974410
9709674 26 18410576201428922702

> <PUBCHEM_SHAPE_MULTIPOLES>
341.97
6.13
3.02
0.68
0.99
0.38
-0.02
-1.21
0.12
-0.74
-0.07
0.04
-0.01
0.1

> <PUBCHEM_SHAPE_SELFOVERLAP>
767.911

> <PUBCHEM_SHAPE_VOLUME>
182

> <PUBCHEM_COORDINATE_TYPE>
2
5
10

$$$$
