44259090
  -OEChem-09302013103D

 53 56  0     1  0  0  0  0  0999 V2000
    4.0689   -0.8170   -0.6973 O   0  0  0  0  0  0  0  0  0  0  0  0
    3.7189   -0.4811    2.1140 O   0  0  0  0  0  0  0  0  0  0  0  0
    6.0271    1.0702    2.4471 O   0  0  0  0  0  0  0  0  0  0  0  0
    7.5255    0.0566    0.1892 O   0  0  0  0  0  0  0  0  0  0  0  0
    5.3498   -2.0855   -2.7568 O   0  0  0  0  0  0  0  0  0  0  0  0
    1.5439    2.4084   -0.4804 O   0  0  0  0  0  0  0  0  0  0  0  0
    2.2485   -2.2537    0.2475 O   0  0  0  0  0  0  0  0  0  0  0  0
   -2.1941   -0.6329   -0.0412 O   0  0  0  0  0  0  0  0  0  0  0  0
   -0.9257    3.1963   -0.6169 O   0  0  0  0  0  0  0  0  0  0  0  0
   -3.6630    2.7091   -0.5521 O   0  0  0  0  0  0  0  0  0  0  0  0
   -6.7812   -1.6813    2.1683 O   0  0  0  0  0  0  0  0  0  0  0  0
   -8.4600   -1.2638   -0.0071 O   0  0  0  0  0  0  0  0  0  0  0  0
    3.9608    0.6358    1.2545 C   0  0  1  0  0  0  0  0  0  0  0  0
    5.4691    0.8758    1.1504 C   0  0  2  0  0  0  0  0  0  0  0  0
    3.3984    0.3226   -0.1408 C   0  0  2  0  0  0  0  0  0  0  0  0
    6.1664   -0.2899    0.4417 C   0  0  1  0  0  0  0  0  0  0  0  0
    5.4703   -0.5996   -0.8903 C   0  0  1  0  0  0  0  0  0  0  0  0
    1.9005    0.0908   -0.1184 C   0  0  0  0  0  0  0  0  0  0  0  0
    6.0420   -1.8538   -1.5435 C   0  0  0  0  0  0  0  0  0  0  0  0
    1.0233    1.1621   -0.2918 C   0  0  0  0  0  0  0  0  0  0  0  0
    1.4032   -1.1983    0.0767 C   0  0  0  0  0  0  0  0  0  0  0  0
   -0.3550    0.9347   -0.2689 C   0  0  0  0  0  0  0  0  0  0  0  0
    0.0263   -1.4211    0.0993 C   0  0  0  0  0  0  0  0  0  0  0  0
   -0.8527   -0.3516   -0.0739 C   0  0  0  0  0  0  0  0  0  0  0  0
   -1.3034    2.0447   -0.4474 C   0  0  0  0  0  0  0  0  0  0  0  0
   -2.7434    1.6928   -0.4092 C   0  0  0  0  0  0  0  0  0  0  0  0
   -3.0923    0.4070   -0.2211 C   0  0  0  0  0  0  0  0  0  0  0  0
   -4.4982   -0.0312   -0.1615 C   0  0  0  0  0  0  0  0  0  0  0  0
   -4.9858   -0.6566    0.9860 C   0  0  0  0  0  0  0  0  0  0  0  0
   -5.3411    0.1791   -1.2528 C   0  0  0  0  0  0  0  0  0  0  0  0
   -6.3163   -1.0716    1.0423 C   0  0  0  0  0  0  0  0  0  0  0  0
   -6.6716   -0.2359   -1.1966 C   0  0  0  0  0  0  0  0  0  0  0  0
   -7.1592   -0.8612   -0.0490 C   0  0  0  0  0  0  0  0  0  0  0  0
    3.4664    1.5007    1.7098 H   0  0  0  0  0  0  0  0  0  0  0  0
    5.6558    1.8011    0.5907 H   0  0  0  0  0  0  0  0  0  0  0  0
    3.6053    1.1625   -0.8174 H   0  0  0  0  0  0  0  0  0  0  0  0
    6.1760   -1.1697    1.0953 H   0  0  0  0  0  0  0  0  0  0  0  0
    5.5926    0.2327   -1.5968 H   0  0  0  0  0  0  0  0  0  0  0  0
    5.8919   -2.7290   -0.9025 H   0  0  0  0  0  0  0  0  0  0  0  0
    7.1085   -1.7431   -1.7612 H   0  0  0  0  0  0  0  0  0  0  0  0
    4.0092   -1.2885    1.6572 H   0  0  0  0  0  0  0  0  0  0  0  0
    5.5547    1.8126    2.8608 H   0  0  0  0  0  0  0  0  0  0  0  0
    7.5345    0.8355   -0.3928 H   0  0  0  0  0  0  0  0  0  0  0  0
   -0.3669   -2.4233    0.2513 H   0  0  0  0  0  0  0  0  0  0  0  0
    5.7259   -2.8900   -3.1528 H   0  0  0  0  0  0  0  0  0  0  0  0
    0.8394    3.0640   -0.5920 H   0  0  0  0  0  0  0  0  0  0  0  0
    1.7251   -3.0642    0.3695 H   0  0  0  0  0  0  0  0  0  0  0  0
   -4.3314   -0.8197    1.8398 H   0  0  0  0  0  0  0  0  0  0  0  0
   -4.9786    0.6572   -2.1597 H   0  0  0  0  0  0  0  0  0  0  0  0
   -3.1668    3.5379   -0.6671 H   0  0  0  0  0  0  0  0  0  0  0  0
   -7.3169   -0.0677   -2.0548 H   0  0  0  0  0  0  0  0  0  0  0  0
   -6.0594   -1.7419    2.8174 H   0  0  0  0  0  0  0  0  0  0  0  0
   -8.8892   -1.0362   -0.8497 H   0  0  0  0  0  0  0  0  0  0  0  0
  1 15  1  0  0  0  0
  1 17  1  0  0  0  0
  2 13  1  0  0  0  0
  2 41  1  0  0  0  0
  3 14  1  0  0  0  0
  3 42  1  0  0  0  0
  4 16  1  0  0  0  0
  4 43  1  0  0  0  0
  5 19  1  0  0  0  0
  5 45  1  0  0  0  0
  6 20  1  0  0  0  0
  6 46  1  0  0  0  0
  7 21  1  0  0  0  0
  7 47  1  0  0  0  0
  8 24  1  0  0  0  0
  8 27  1  0  0  0  0
  9 25  2  0  0  0  0
 10 26  1  0  0  0  0
 10 50  1  0  0  0  0
 11 31  1  0  0  0  0
 11 52  1  0  0  0  0
 12 33  1  0  0  0  0
 12 53  1  0  0  0  0
 13 14  1  0  0  0  0
 13 15  1  0  0  0  0
 13 34  1  0  0  0  0
 14 16  1  0  0  0  0
 14 35  1  0  0  0  0
 15 18  1  0  0  0  0
 15 36  1  0  0  0  0
 16 17  1  0  0  0  0
 16 37  1  0  0  0  0
 17 19  1  0  0  0  0
 17 38  1  0  0  0  0
 18 20  2  0  0  0  0
 18 21  1  0  0  0  0
 19 39  1  0  0  0  0
 19 40  1  0  0  0  0
 20 22  1  0  0  0  0
 21 23  2  0  0  0  0
 22 24  2  0  0  0  0
 22 25  1  0  0  0  0
 23 24  1  0  0  0  0
 23 44  1  0  0  0  0
 25 26  1  0  0  0  0
 26 27  2  0  0  0  0
 27 28  1  0  0  0  0
 28 29  2  0  0  0  0
 28 30  1  0  0  0  0
 29 31  1  0  0  0  0
 29 48  1  0  0  0  0
 30 32  2  0  0  0  0
 30 49  1  0  0  0  0
 31 33  2  0  0  0  0
 32 33  1  0  0  0  0
 32 51  1  0  0  0  0
M  END
> <PUBCHEM_COMPOUND_CID>
44259090

> <PUBCHEM_CONFORMER_RMSD>
0.8

> <PUBCHEM_CONFORMER_DIVERSEORDER>
2
42
45
24
40
50
12
43
48
29
14
33
39
49
44
11
27
37
22
16
9
46
28
17
34
13
26
38
5
23
41
7
31
15
4
19
47
35
36
32
18
20
8
30
6
10
25
3
21
1

> <PUBCHEM_MMFF94_PARTIAL_CHARGES>
46
1 -0.56
10 -0.53
11 -0.53
12 -0.53
13 0.28
14 0.28
15 0.42
16 0.28
17 0.28
18 -0.14
19 0.28
2 -0.68
20 0.08
21 0.08
22 0.09
23 -0.15
24 0.08
25 0.47
26 0.09
27 0.05
28 0.03
29 -0.15
3 -0.68
30 -0.15
31 0.08
32 -0.15
33 0.08
4 -0.68
41 0.4
42 0.4
43 0.4
44 0.15
45 0.4
46 0.45
47 0.45
48 0.15
49 0.15
5 -0.68
50 0.45
51 0.15
52 0.45
53 0.45
6 -0.53
7 -0.53
8 -0.16
9 -0.57

> <PUBCHEM_EFFECTIVE_ROTOR_COUNT>
4.2

> <PUBCHEM_PHARMACOPHORE_FEATURES>
20
1 1 acceptor
1 10 donor
1 11 donor
1 12 donor
1 2 acceptor
1 2 donor
1 3 acceptor
1 3 donor
1 4 acceptor
1 4 donor
1 5 acceptor
1 5 donor
1 6 donor
1 7 donor
1 8 acceptor
1 9 acceptor
6 1 13 14 15 16 17 rings
6 18 20 21 22 23 24 rings
6 28 29 30 31 32 33 rings
6 8 22 24 25 26 27 rings

> <PUBCHEM_HEAVY_ATOM_COUNT>
33

> <PUBCHEM_ATOM_DEF_STEREO_COUNT>
3

> <PUBCHEM_ATOM_UDEF_STEREO_COUNT>
2

> <PUBCHEM_BOND_DEF_STEREO_COUNT>
0

> <PUBCHEM_BOND_UDEF_STEREO_COUNT>
0

> <PUBCHEM_ISOTOPIC_ATOM_COUNT>
0

> <PUBCHEM_COMPONENT_COUNT>
1

> <PUBCHEM_CACTVS_TAUTO_COUNT>
435

> <PUBCHEM_CONFORMER_ID>
02A3571200000002

> <PUBCHEM_MMFF94_ENERGY>
104.0896

> <PUBCHEM_FEATURE_SELFOVERLAP>
101.565

> <PUBCHEM_SHAPE_FINGERPRINT>
10 15 18262509403370783232
10076449 9 18059304188833855822
10165383 225 17703223032021744072
10299344 5 16128656357701390511
11488393 25 17558277522491442894
11646440 116 18343022211334276073
11719270 70 17894905222163863554
11963148 33 18186513332544028499
12120059 9 18336808862947709659
12166972 35 18060422421359496624
12236239 1 13614231595464298792
12373685 5 13623811695637303128
12516196 113 18410852175143026509
12596602 18 17346882247791975115
12730499 353 17988921159632063598
13533116 47 17275106115972553438
13617811 41 18187088347465538260
13673619 4 17988369174329216100
13782708 43 18130509617672606318
13914758 101 14562801123937491511
14068700 675 17240201032337256413
14849402 71 16629674192758607929
15131766 46 15409180023486667464
15183329 4 15285352921187679897
15301273 46 18273215275191791289
16087824 20 18190458261361035101
18335252 98 18343866611169512446
18608769 82 18409167744382402946
21033648 29 17916567783295684440
21130935 74 17561084722090846127
21150785 3 14923945665346199163
21267235 1 18409172117085988525
21781051 124 17895772779782531362
22149856 69 18341345426654234177
22956985 138 17389646502862174290
2303208 19 18201723912045645724
23081809 10 15719111349008522957
23516275 137 15840731650178084503
23559900 14 18041560368705940237
23569914 152 16832609597802967445
23569917 315 17967815999240569122
23569943 247 17915470384576358703
24771293 8 18127958901294483664
249057 25 15864070927908175580
2747138 104 18409455803796686113
3004659 81 17748828535708980197
3383291 50 18334577975414081419
34797466 226 18131912667898079844
3663271 9 16343703253056996967
4340502 62 15410900668979195629
439807 62 16660648501335112131
504579 68 15864080845109194870
5104073 3 18266735788386134969
58083652 198 16343124866943810633
58260988 647 17417264121933141534
59755656 215 18334012774417657551
59755656 520 15554439717652631661
636775 8 18041010552150554418
9663363 56 18408598176490578709

> <PUBCHEM_SHAPE_MULTIPOLES>
608.69
21.16
2.24
1.57
11.08
1.06
-0.26
-9.11
-2.03
0.08
0.57
-1.58
-0.55
3.19

> <PUBCHEM_SHAPE_SELFOVERLAP>
1347.858

> <PUBCHEM_SHAPE_VOLUME>
321.9

> <PUBCHEM_COORDINATE_TYPE>
2
5
10

$$$$
