6440615
  -OEChem-09302011543D

 47 46  0     0  0  0  0  0  0999 V2000
    4.2715   -1.3438   -0.6353 O   0  0  0  0  0  0  0  0  0  0  0  0
    4.4226    0.9699   -0.4807 N   0  0  0  0  0  0  0  0  0  0  0  0
    6.7928    1.0268    0.2283 C   0  0  0  0  0  0  0  0  0  0  0  0
    5.7907    1.0951   -0.9296 C   0  0  0  0  0  0  0  0  0  0  0  0
    8.2377    1.1024   -0.2705 C   0  0  0  0  0  0  0  0  0  0  0  0
    6.5241    2.1578    1.2216 C   0  0  0  0  0  0  0  0  0  0  0  0
    3.7792   -0.2513   -0.3728 C   0  0  0  0  0  0  0  0  0  0  0  0
   -1.9721   -2.0846    1.4063 C   0  0  0  0  0  0  0  0  0  0  0  0
   -2.9757   -2.6778    0.4075 C   0  0  0  0  0  0  0  0  0  0  0  0
    2.3802   -0.0988    0.1152 C   0  0  0  0  0  0  0  0  0  0  0  0
   -0.5511   -2.1625    0.9196 C   0  0  0  0  0  0  0  0  0  0  0  0
    1.6028   -1.1780    0.2813 C   0  0  0  0  0  0  0  0  0  0  0  0
    0.2373   -1.0907    0.7490 C   0  0  0  0  0  0  0  0  0  0  0  0
   -3.0869   -2.0495   -0.9578 C   0  0  0  0  0  0  0  0  0  0  0  0
   -3.8486   -1.0043   -1.3152 C   0  0  0  0  0  0  0  0  0  0  0  0
   -4.7108   -0.3032   -0.3883 C   0  0  0  0  0  0  0  0  0  0  0  0
   -5.4718    0.7419   -0.7471 C   0  0  0  0  0  0  0  0  0  0  0  0
   -6.3345    1.4428    0.1780 C   0  0  0  0  0  0  0  0  0  0  0  0
   -7.0964    2.4877   -0.1775 C   0  0  0  0  0  0  0  0  0  0  0  0
   -7.9910    3.2200    0.7681 C   0  0  0  0  0  0  0  0  0  0  0  0
    6.6642    0.0735    0.7567 H   0  0  0  0  0  0  0  0  0  0  0  0
    5.9982    0.2979   -1.6525 H   0  0  0  0  0  0  0  0  0  0  0  0
    5.8702    2.0520   -1.4576 H   0  0  0  0  0  0  0  0  0  0  0  0
    8.9429    1.0287    0.5640 H   0  0  0  0  0  0  0  0  0  0  0  0
    8.4501    0.2809   -0.9627 H   0  0  0  0  0  0  0  0  0  0  0  0
    8.4278    2.0451   -0.7946 H   0  0  0  0  0  0  0  0  0  0  0  0
    5.5322    2.0681    1.6759 H   0  0  0  0  0  0  0  0  0  0  0  0
    7.2556    2.1369    2.0369 H   0  0  0  0  0  0  0  0  0  0  0  0
    6.5902    3.1383    0.7374 H   0  0  0  0  0  0  0  0  0  0  0  0
    3.9304    1.8249   -0.2378 H   0  0  0  0  0  0  0  0  0  0  0  0
   -2.2503   -1.0479    1.6317 H   0  0  0  0  0  0  0  0  0  0  0  0
   -2.0409   -2.6403    2.3493 H   0  0  0  0  0  0  0  0  0  0  0  0
   -3.9637   -2.7025    0.8841 H   0  0  0  0  0  0  0  0  0  0  0  0
   -2.7283   -3.7375    0.2520 H   0  0  0  0  0  0  0  0  0  0  0  0
    2.0129    0.9004    0.3283 H   0  0  0  0  0  0  0  0  0  0  0  0
   -0.1652   -3.1582    0.7116 H   0  0  0  0  0  0  0  0  0  0  0  0
    1.9834   -2.1727    0.0637 H   0  0  0  0  0  0  0  0  0  0  0  0
   -0.1540   -0.0994    0.9643 H   0  0  0  0  0  0  0  0  0  0  0  0
   -2.4619   -2.4961   -1.7295 H   0  0  0  0  0  0  0  0  0  0  0  0
   -3.8181   -0.6587   -2.3449 H   0  0  0  0  0  0  0  0  0  0  0  0
   -4.7346   -0.6367    0.6452 H   0  0  0  0  0  0  0  0  0  0  0  0
   -5.4593    1.0950   -1.7760 H   0  0  0  0  0  0  0  0  0  0  0  0
   -6.3532    1.0923    1.2069 H   0  0  0  0  0  0  0  0  0  0  0  0
   -7.0850    2.8463   -1.2040 H   0  0  0  0  0  0  0  0  0  0  0  0
   -9.0262    3.1677    0.4173 H   0  0  0  0  0  0  0  0  0  0  0  0
   -7.9527    2.8066    1.7809 H   0  0  0  0  0  0  0  0  0  0  0  0
   -7.6975    4.2730    0.8182 H   0  0  0  0  0  0  0  0  0  0  0  0
  1  7  2  0  0  0  0
  2  4  1  0  0  0  0
  2  7  1  0  0  0  0
  2 30  1  0  0  0  0
  3  4  1  0  0  0  0
  3  5  1  0  0  0  0
  3  6  1  0  0  0  0
  3 21  1  0  0  0  0
  4 22  1  0  0  0  0
  4 23  1  0  0  0  0
  5 24  1  0  0  0  0
  5 25  1  0  0  0  0
  5 26  1  0  0  0  0
  6 27  1  0  0  0  0
  6 28  1  0  0  0  0
  6 29  1  0  0  0  0
  7 10  1  0  0  0  0
  8  9  1  0  0  0  0
  8 11  1  0  0  0  0
  8 31  1  0  0  0  0
  8 32  1  0  0  0  0
  9 14  1  0  0  0  0
  9 33  1  0  0  0  0
  9 34  1  0  0  0  0
 10 12  2  0  0  0  0
 10 35  1  0  0  0  0
 11 13  2  0  0  0  0
 11 36  1  0  0  0  0
 12 13  1  0  0  0  0
 12 37  1  0  0  0  0
 13 38  1  0  0  0  0
 14 15  2  0  0  0  0
 14 39  1  0  0  0  0
 15 16  1  0  0  0  0
 15 40  1  0  0  0  0
 16 17  2  0  0  0  0
 16 41  1  0  0  0  0
 17 18  1  0  0  0  0
 17 42  1  0  0  0  0
 18 19  2  0  0  0  0
 18 43  1  0  0  0  0
 19 20  1  0  0  0  0
 19 44  1  0  0  0  0
 20 45  1  0  0  0  0
 20 46  1  0  0  0  0
 20 47  1  0  0  0  0
M  END
> <PUBCHEM_COMPOUND_CID>
6440615

> <PUBCHEM_CONFORMER_RMSD>
1.2

> <PUBCHEM_CONFORMER_DIVERSEORDER>
1
30
5
43
38
4
42
20
14
50
53
37
13
12
41
48
10
27
32
15
19
11
39
9
3
40
17
35
8
18
24
21
33
28
52
58
55
2
54
57
26
49
59
45
16
44
47
51
34
23
56
7
31
36
46
6
22
25
29

> <PUBCHEM_MMFF94_PARTIAL_CHARGES>
28
1 -0.57
10 -0.14
11 -0.29
12 -0.15
13 -0.15
14 -0.29
15 -0.15
16 -0.15
17 -0.15
18 -0.15
19 -0.29
2 -0.73
20 0.14
30 0.37
35 0.15
36 0.15
37 0.15
38 0.15
39 0.15
4 0.3
40 0.15
41 0.15
42 0.15
43 0.15
44 0.15
7 0.62
8 0.14
9 0.14

> <PUBCHEM_EFFECTIVE_ROTOR_COUNT>
10

> <PUBCHEM_PHARMACOPHORE_FEATURES>
5
1 1 acceptor
1 2 donor
1 20 hydrophobe
3 3 5 6 hydrophobe
4 8 9 11 14 hydrophobe

> <PUBCHEM_HEAVY_ATOM_COUNT>
20

> <PUBCHEM_ATOM_DEF_STEREO_COUNT>
0

> <PUBCHEM_ATOM_UDEF_STEREO_COUNT>
0

> <PUBCHEM_BOND_DEF_STEREO_COUNT>
5

> <PUBCHEM_BOND_UDEF_STEREO_COUNT>
0

> <PUBCHEM_ISOTOPIC_ATOM_COUNT>
0

> <PUBCHEM_COMPONENT_COUNT>
1

> <PUBCHEM_CACTVS_TAUTO_COUNT>
2

> <PUBCHEM_CONFORMER_ID>
006246A700000001

> <PUBCHEM_MMFF94_ENERGY>
16.5426

> <PUBCHEM_FEATURE_SELFOVERLAP>
25.373

> <PUBCHEM_SHAPE_FINGERPRINT>
11273773 42 18410848859887035143
11475781 23 18343025488926735070
11497681 19 9799399036348514258
12895836 83 18272647944561957119
12895837 130 18341331197200508309
13885169 86 18260275135893350277
14556957 393 15625676014658293576
14671636 106 8934994880786748888
15183329 4 16917068828804686883
15188451 53 8286196146243073271
15778101 99 18334295392071816747
16126227 98 18409451376191909665
1768 23 17168725114077629454
19438510 23 18333449833407267979
20526848 3 18409168779954532069
20621476 66 18334577936421108911
21095123 145 9511466633086791520
21307412 95 13038890137603475381
21424621 283 18335420158043827763
21756936 100 18334857238783125923
21774942 28 18413670201928066312
23389318 12 11815887981970519400
23622692 118 11167941368496024915
270888 7 18409165472919241967
3014063 24 9655284931084198121
328310 18 18131074852927989059
406291 66 9367052364568386821
445580 204 18410854360975502997
5104073 3 17458058274601688827
5385378 56 17749385932407169426
636775 72 18338512053313449888
9689198 14 18339370665369016017
9980921 177 18189601775465494746

> <PUBCHEM_SHAPE_MULTIPOLES>
400.74
25.47
3.35
1.16
10.13
0.68
0.07
29.46
-0.77
-6.31
0.98
-0.22
-0.21
-0.39

> <PUBCHEM_SHAPE_SELFOVERLAP>
763.015

> <PUBCHEM_SHAPE_VOLUME>
244.7

> <PUBCHEM_COORDINATE_TYPE>
2
5
10

$$$$
