44144481
  -OEChem-09302014593D

 30 30  0     1  0  0  0  0  0999 V2000
   -1.8653    1.6183    0.5965 O   0  0  0  0  0  0  0  0  0  0  0  0
   -2.1375   -0.9860    1.1078 O   0  0  0  0  0  0  0  0  0  0  0  0
   -1.8889    0.7398   -0.5359 C   0  0  1  0  0  0  0  0  0  0  0  0
   -1.6303   -0.7362   -0.2052 C   0  0  1  0  0  0  0  0  0  0  0  0
   -3.1284    1.4380   -0.0568 C   0  0  0  0  0  0  0  0  0  0  0  0
   -0.1088   -0.9999   -0.1992 C   0  0  0  0  0  0  0  0  0  0  0  0
   -2.3566   -1.6202   -1.1904 C   0  0  0  0  0  0  0  0  0  0  0  0
    0.6789   -0.1598    0.8158 C   0  0  0  0  0  0  0  0  0  0  0  0
    2.1502   -0.4621    0.7409 C   0  0  0  0  0  0  0  0  0  0  0  0
    3.0724    0.1330   -0.0393 C   0  0  0  0  0  0  0  0  0  0  0  0
    4.5333   -0.2167   -0.0672 C   0  0  0  0  0  0  0  0  0  0  0  0
    2.6809    1.2519   -0.9670 C   0  0  0  0  0  0  0  0  0  0  0  0
   -1.4311    1.0762   -1.4567 H   0  0  0  0  0  0  0  0  0  0  0  0
   -3.5065    2.2638   -0.6459 H   0  0  0  0  0  0  0  0  0  0  0  0
   -3.8898    0.8725    0.4637 H   0  0  0  0  0  0  0  0  0  0  0  0
    0.0648   -2.0607    0.0290 H   0  0  0  0  0  0  0  0  0  0  0  0
    0.2902   -0.8247   -1.2072 H   0  0  0  0  0  0  0  0  0  0  0  0
   -2.2057   -2.6801   -0.9566 H   0  0  0  0  0  0  0  0  0  0  0  0
   -3.4384   -1.4461   -1.1533 H   0  0  0  0  0  0  0  0  0  0  0  0
   -2.0229   -1.4426   -2.2183 H   0  0  0  0  0  0  0  0  0  0  0  0
    0.3371   -0.3837    1.8336 H   0  0  0  0  0  0  0  0  0  0  0  0
    0.5132    0.9113    0.6776 H   0  0  0  0  0  0  0  0  0  0  0  0
   -1.9644   -1.9187    1.3221 H   0  0  0  0  0  0  0  0  0  0  0  0
    2.4827   -1.2715    1.3892 H   0  0  0  0  0  0  0  0  0  0  0  0
    4.8272   -0.5512   -1.0671 H   0  0  0  0  0  0  0  0  0  0  0  0
    4.7687   -1.0211    0.6374 H   0  0  0  0  0  0  0  0  0  0  0  0
    5.1393    0.6537    0.2039 H   0  0  0  0  0  0  0  0  0  0  0  0
    3.1122    2.1955   -0.6166 H   0  0  0  0  0  0  0  0  0  0  0  0
    3.0704    1.0531   -1.9719 H   0  0  0  0  0  0  0  0  0  0  0  0
    1.6043    1.3960   -1.0795 H   0  0  0  0  0  0  0  0  0  0  0  0
  1  3  1  0  0  0  0
  1  5  1  0  0  0  0
  2  4  1  0  0  0  0
  2 23  1  0  0  0  0
  3  4  1  0  0  0  0
  3  5  1  0  0  0  0
  3 13  1  0  0  0  0
  4  6  1  0  0  0  0
  4  7  1  0  0  0  0
  5 14  1  0  0  0  0
  5 15  1  0  0  0  0
  6  8  1  0  0  0  0
  6 16  1  0  0  0  0
  6 17  1  0  0  0  0
  7 18  1  0  0  0  0
  7 19  1  0  0  0  0
  7 20  1  0  0  0  0
  8  9  1  0  0  0  0
  8 21  1  0  0  0  0
  8 22  1  0  0  0  0
  9 10  2  0  0  0  0
  9 24  1  0  0  0  0
 10 11  1  0  0  0  0
 10 12  1  0  0  0  0
 11 25  1  0  0  0  0
 11 26  1  0  0  0  0
 11 27  1  0  0  0  0
 12 28  1  0  0  0  0
 12 29  1  0  0  0  0
 12 30  1  0  0  0  0
M  END
> <PUBCHEM_COMPOUND_CID>
44144481

> <PUBCHEM_CONFORMER_RMSD>
0.6

> <PUBCHEM_CONFORMER_DIVERSEORDER>
1
98
95
76
35
29
105
30
57
23
87
82
49
36
24
81
77
51
2
41
39
42
21
55
79
62
20
3
96
65
70
73
27
102
108
17
58
7
89
68
103
47
22
92
100
106
15
53
78
84
85
12
45
38
90
88
8
16
107
10
75
101
86
50
19
40
74
66
11
104
63
44
69
59
64
14
93
56
9
52
46
32
97
54
72
91
31
71
83
37
28
13
48
25
99
61
34
6
60
4
33
80
26
94
18
5
43
67

> <PUBCHEM_MMFF94_PARTIAL_CHARGES>
15
1 -0.3
10 -0.28
11 0.14
12 0.14
13 0.1
14 0.1
15 0.1
2 -0.68
23 0.4
24 0.15
3 -0.05
4 0.38
5 -0.05
8 0.14
9 -0.29

> <PUBCHEM_EFFECTIVE_ROTOR_COUNT>
4.6

> <PUBCHEM_PHARMACOPHORE_FEATURES>
4
1 1 acceptor
1 2 acceptor
1 2 donor
3 10 11 12 hydrophobe

> <PUBCHEM_HEAVY_ATOM_COUNT>
12

> <PUBCHEM_ATOM_DEF_STEREO_COUNT>
1

> <PUBCHEM_ATOM_UDEF_STEREO_COUNT>
1

> <PUBCHEM_BOND_DEF_STEREO_COUNT>
0

> <PUBCHEM_BOND_UDEF_STEREO_COUNT>
0

> <PUBCHEM_ISOTOPIC_ATOM_COUNT>
0

> <PUBCHEM_COMPONENT_COUNT>
1

> <PUBCHEM_CACTVS_TAUTO_COUNT>
1

> <PUBCHEM_CONFORMER_ID>
02A1976100000001

> <PUBCHEM_MMFF94_ENERGY>
19.7991

> <PUBCHEM_FEATURE_SELFOVERLAP>
20.305

> <PUBCHEM_SHAPE_FINGERPRINT>
10149128 111 18335704897005739900
10857977 72 12829494735481052266
10922523 26 18341901744972330966
12162725 195 18333731355596677590
122479 349 18262803956443788489
124424 183 17132110213458757354
12932764 1 18131350842962657986
13024252 1 11530477831463741075
14144814 61 17894342285648530050
14250199 8 18116151254386735196
15775835 57 18186803547852129388
18186145 218 17240482516304281518
20201158 50 15697999622164958476
20279233 1 17060337414206689518
20645464 45 13407068163545016883
20645476 183 18335978684107041763
20645477 56 18201718440146579608
20653085 51 18335430057974813944
20711983 171 18411420613737435908
21524375 3 18194679264006338953
23402539 116 18060126614351050189
23557571 272 17845934142867727752
23559900 14 17774999060761781090
23598291 2 18118104901807975730
3248919 1 18040987462669842498
58051976 100 18342175570412074318
8030462 33 18262785350371136226
93112 12 18273211997952299012

> <PUBCHEM_SHAPE_MULTIPOLES>
235.22
6.68
1.58
1.04
5.72
0.22
-0.03
0.91
-0.71
-1.37
-0.23
-0.17
-0.13
-0.66

> <PUBCHEM_SHAPE_SELFOVERLAP>
450.582

> <PUBCHEM_SHAPE_VOLUME>
145.6

> <PUBCHEM_COORDINATE_TYPE>
2
5
10

$$$$
