20056942
  -OEChem-09302013073D

 60 63  0     1  0  0  0  0  0999 V2000
   -0.6098    3.3480    0.5273 O   0  0  0  0  0  0  0  0  0  0  0  0
   -0.4130    1.1223   -0.2656 O   0  0  0  0  0  0  0  0  0  0  0  0
   -4.1879    1.8308    1.9221 O   0  0  0  0  0  0  0  0  0  0  0  0
   -4.1893    3.6519   -0.2995 O   0  0  0  0  0  0  0  0  0  0  0  0
   -1.8022    0.1939    1.9889 O   0  0  0  0  0  0  0  0  0  0  0  0
   -0.4011    5.3709   -1.2940 O   0  0  0  0  0  0  0  0  0  0  0  0
    2.0173   -1.6462   -0.1365 O   0  0  0  0  0  0  0  0  0  0  0  0
    2.0403    2.4285   -0.1600 O   0  0  0  0  0  0  0  0  0  0  0  0
    4.6518    2.4203   -0.0310 O   0  0  0  0  0  0  0  0  0  0  0  0
   -3.2096   -2.3896   -2.4717 O   0  0  0  0  0  0  0  0  0  0  0  0
   -2.0158   -4.3369    1.7377 O   0  0  0  0  0  0  0  0  0  0  0  0
    6.7538   -1.8349    0.1116 O   0  0  0  0  0  0  0  0  0  0  0  0
   -3.7479   -4.1668   -0.4168 O   0  0  0  0  0  0  0  0  0  0  0  0
   -3.1005    1.9669    1.0043 C   0  0  1  0  0  0  0  0  0  0  0  0
   -3.0526    3.4206    0.5293 C   0  0  1  0  0  0  0  0  0  0  0  0
   -1.8002    1.5897    1.7111 C   0  0  2  0  0  0  0  0  0  0  0  0
   -1.7599    3.7086   -0.2462 C   0  0  1  0  0  0  0  0  0  0  0  0
   -0.5743    1.9626    0.8758 C   0  0  2  0  0  0  0  0  0  0  0  0
   -1.6174    5.1882   -0.5931 C   0  0  0  0  0  0  0  0  0  0  0  0
    0.7759    0.4270   -0.2203 C   0  0  0  0  0  0  0  0  0  0  0  0
    0.8413   -0.9168   -0.2148 C   0  0  0  0  0  0  0  0  0  0  0  0
    2.0368    1.2047   -0.1566 C   0  0  0  0  0  0  0  0  0  0  0  0
    3.2821    0.4249   -0.0876 C   0  0  0  0  0  0  0  0  0  0  0  0
   -0.3605   -1.7681   -0.2678 C   0  0  0  0  0  0  0  0  0  0  0  0
    3.2063   -0.9661   -0.0809 C   0  0  0  0  0  0  0  0  0  0  0  0
    4.5229    1.0643   -0.0277 C   0  0  0  0  0  0  0  0  0  0  0  0
   -0.6282   -2.6623    0.7689 C   0  0  0  0  0  0  0  0  0  0  0  0
   -1.2303   -1.6800   -1.3546 C   0  0  0  0  0  0  0  0  0  0  0  0
    4.3729   -1.7282   -0.0135 C   0  0  0  0  0  0  0  0  0  0  0  0
    5.6884    0.2998    0.0390 C   0  0  0  0  0  0  0  0  0  0  0  0
    5.6138   -1.0936    0.0462 C   0  0  0  0  0  0  0  0  0  0  0  0
   -2.3678   -2.4858   -1.4048 C   0  0  0  0  0  0  0  0  0  0  0  0
   -1.7658   -3.4680    0.7187 C   0  0  0  0  0  0  0  0  0  0  0  0
   -2.6355   -3.3797   -0.3680 C   0  0  0  0  0  0  0  0  0  0  0  0
   -2.8629   -1.4511   -3.4881 C   0  0  0  0  0  0  0  0  0  0  0  0
   -1.4713   -5.6497    1.6183 C   0  0  0  0  0  0  0  0  0  0  0  0
   -3.3092    1.2811    0.1748 H   0  0  0  0  0  0  0  0  0  0  0  0
   -3.1355    4.0928    1.3920 H   0  0  0  0  0  0  0  0  0  0  0  0
   -1.7609    2.1161    2.6736 H   0  0  0  0  0  0  0  0  0  0  0  0
   -1.7372    3.1413   -1.1862 H   0  0  0  0  0  0  0  0  0  0  0  0
    0.2749    1.8526    1.5647 H   0  0  0  0  0  0  0  0  0  0  0  0
   -1.5744    5.7988    0.3150 H   0  0  0  0  0  0  0  0  0  0  0  0
   -2.4440    5.5324   -1.2220 H   0  0  0  0  0  0  0  0  0  0  0  0
   -4.0234    2.4212    2.6770 H   0  0  0  0  0  0  0  0  0  0  0  0
   -4.1073    3.0858   -1.0859 H   0  0  0  0  0  0  0  0  0  0  0  0
   -0.9716   -0.0140    2.4499 H   0  0  0  0  0  0  0  0  0  0  0  0
   -0.3291    6.3181   -1.5019 H   0  0  0  0  0  0  0  0  0  0  0  0
    0.0420   -2.7351    1.6227 H   0  0  0  0  0  0  0  0  0  0  0  0
   -0.9713   -0.9764   -2.1393 H   0  0  0  0  0  0  0  0  0  0  0  0
    4.3173   -2.8139   -0.0075 H   0  0  0  0  0  0  0  0  0  0  0  0
    6.6549    0.7960    0.0857 H   0  0  0  0  0  0  0  0  0  0  0  0
    3.7818    2.8449   -0.0822 H   0  0  0  0  0  0  0  0  0  0  0  0
    7.5186   -1.2350    0.1467 H   0  0  0  0  0  0  0  0  0  0  0  0
   -4.2279   -3.9690   -1.2397 H   0  0  0  0  0  0  0  0  0  0  0  0
   -3.6422   -1.5057   -4.2555 H   0  0  0  0  0  0  0  0  0  0  0  0
   -1.9186   -1.7147   -3.9765 H   0  0  0  0  0  0  0  0  0  0  0  0
   -2.8649   -0.4239   -3.1075 H   0  0  0  0  0  0  0  0  0  0  0  0
   -1.7638   -6.2237    2.5018 H   0  0  0  0  0  0  0  0  0  0  0  0
   -0.3783   -5.6085    1.5737 H   0  0  0  0  0  0  0  0  0  0  0  0
   -1.8651   -6.1513    0.7288 H   0  0  0  0  0  0  0  0  0  0  0  0
  1 17  1  0  0  0  0
  1 18  1  0  0  0  0
  2 18  1  0  0  0  0
  2 20  1  0  0  0  0
  3 14  1  0  0  0  0
  3 44  1  0  0  0  0
  4 15  1  0  0  0  0
  4 45  1  0  0  0  0
  5 16  1  0  0  0  0
  5 46  1  0  0  0  0
  6 19  1  0  0  0  0
  6 47  1  0  0  0  0
  7 21  1  0  0  0  0
  7 25  1  0  0  0  0
  8 22  2  0  0  0  0
  9 26  1  0  0  0  0
  9 52  1  0  0  0  0
 10 32  1  0  0  0  0
 10 35  1  0  0  0  0
 11 33  1  0  0  0  0
 11 36  1  0  0  0  0
 12 31  1  0  0  0  0
 12 53  1  0  0  0  0
 13 34  1  0  0  0  0
 13 54  1  0  0  0  0
 14 15  1  0  0  0  0
 14 16  1  0  0  0  0
 14 37  1  0  0  0  0
 15 17  1  0  0  0  0
 15 38  1  0  0  0  0
 16 18  1  0  0  0  0
 16 39  1  0  0  0  0
 17 19  1  0  0  0  0
 17 40  1  0  0  0  0
 18 41  1  0  0  0  0
 19 42  1  0  0  0  0
 19 43  1  0  0  0  0
 20 21  2  0  0  0  0
 20 22  1  0  0  0  0
 21 24  1  0  0  0  0
 22 23  1  0  0  0  0
 23 25  1  0  0  0  0
 23 26  2  0  0  0  0
 24 27  2  0  0  0  0
 24 28  1  0  0  0  0
 25 29  2  0  0  0  0
 26 30  1  0  0  0  0
 27 33  1  0  0  0  0
 27 48  1  0  0  0  0
 28 32  2  0  0  0  0
 28 49  1  0  0  0  0
 29 31  1  0  0  0  0
 29 50  1  0  0  0  0
 30 31  2  0  0  0  0
 30 51  1  0  0  0  0
 32 34  1  0  0  0  0
 33 34  2  0  0  0  0
 35 55  1  0  0  0  0
 35 56  1  0  0  0  0
 35 57  1  0  0  0  0
 36 58  1  0  0  0  0
 36 59  1  0  0  0  0
 36 60  1  0  0  0  0
M  END
> <PUBCHEM_COMPOUND_CID>
20056942

> <PUBCHEM_CONFORMER_RMSD>
1

> <PUBCHEM_CONFORMER_DIVERSEORDER>
4
63
5
64
14
56
29
44
65
49
37
52
26
18
62
42
27
36
58
46
61
43
30
32
3
19
57
48
55
6
54
59
33
47
25
28
39
40
8
21
17
60
20
51
23
7
31
24
22
15
41
13
2
53
10
38
45
34
16
11
9
12
1
50
35

> <PUBCHEM_MMFF94_PARTIAL_CHARGES>
47
1 -0.56
10 -0.36
11 -0.36
12 -0.53
13 -0.53
14 0.28
15 0.28
16 0.28
17 0.28
18 0.56
19 0.28
2 -0.36
20 0.09
21 0.05
22 0.47
23 0.09
24 0.03
25 0.08
26 0.08
27 -0.15
28 -0.15
29 -0.15
3 -0.68
30 -0.15
31 0.08
32 0.08
33 0.08
34 0.08
35 0.28
36 0.28
4 -0.68
44 0.4
45 0.4
46 0.4
47 0.4
48 0.15
49 0.15
5 -0.68
50 0.15
51 0.15
52 0.45
53 0.45
54 0.45
6 -0.68
7 -0.16
8 -0.57
9 -0.53

> <PUBCHEM_EFFECTIVE_ROTOR_COUNT>
7.2

> <PUBCHEM_PHARMACOPHORE_FEATURES>
21
1 1 acceptor
1 10 acceptor
1 11 acceptor
1 12 donor
1 13 donor
1 2 acceptor
1 3 acceptor
1 3 donor
1 4 acceptor
1 4 donor
1 5 acceptor
1 5 donor
1 6 acceptor
1 6 donor
1 7 acceptor
1 8 acceptor
1 9 donor
6 1 14 15 16 17 18 rings
6 23 25 26 29 30 31 rings
6 24 27 28 32 33 34 rings
6 7 20 21 22 23 25 rings

> <PUBCHEM_HEAVY_ATOM_COUNT>
36

> <PUBCHEM_ATOM_DEF_STEREO_COUNT>
4

> <PUBCHEM_ATOM_UDEF_STEREO_COUNT>
1

> <PUBCHEM_BOND_DEF_STEREO_COUNT>
0

> <PUBCHEM_BOND_UDEF_STEREO_COUNT>
0

> <PUBCHEM_ISOTOPIC_ATOM_COUNT>
0

> <PUBCHEM_COMPONENT_COUNT>
1

> <PUBCHEM_CACTVS_TAUTO_COUNT>
57

> <PUBCHEM_CONFORMER_ID>
01320B6E00000004

> <PUBCHEM_MMFF94_ENERGY>
133.988

> <PUBCHEM_FEATURE_SELFOVERLAP>
106.679

> <PUBCHEM_SHAPE_FINGERPRINT>
10050765 1 18411419519486158636
10074138 170 18337655465399212186
1100329 8 18340488868362278520
11115154 58 17771601698517683015
11297010 23 17182204830530314004
11991303 11 18268156370320523220
1200032 147 16664266826102585215
12156800 1 17841110495152020291
12160290 23 18129405763663633948
12788726 201 18339906173859141586
13140716 1 18413392030155421640
138480 1 16608574156483251496
140371 6 17976821218366731304
14400156 96 16747354038440161707
14856354 85 16590307107287525224
14866123 147 18338515227684503010
15131766 46 16445916117770823908
15463212 79 18194387914577944405
15775530 1 17914366539695196574
15927050 60 18122344571606255006
17138139 8 17556258892821577525
21033648 29 18125146144703744504
21133410 62 18190440690437869613
21641784 216 18194694880639543460
21703447 108 18127677439624194168
23559900 14 17614269387964149799
38695281 34 17908421355526977976
4015057 19 17762324113365093151
469060 322 17977400648210089816
5104073 3 18341604924821387674
5171179 24 17487600039189919936
59025328 239 17055236938283770559
6004065 56 16245739696327235189
6669772 16 17769941173323443494
7399639 24 17905064564224426505
9981440 41 17975421213146366433

> <PUBCHEM_SHAPE_MULTIPOLES>
664.56
9.51
7.78
1.79
17.54
0.66
-0.97
-0.35
-0.21
-10.27
0.84
-2.89
-1.28
-1.12

> <PUBCHEM_SHAPE_SELFOVERLAP>
1452.429

> <PUBCHEM_SHAPE_VOLUME>
357.3

> <PUBCHEM_COORDINATE_TYPE>
2
5
10

$$$$
