91753981
  -OEChem-09302012183D

 27 27  0     1  0  0  0  0  0999 V2000
   -0.6547    2.1867    0.2937 O   0  0  0  0  0  0  0  0  0  0  0  0
   -0.6789   -0.2581    0.4602 C   0  0  1  0  0  0  0  0  0  0  0  0
    0.0844   -1.5131   -0.0072 C   0  0  0  0  0  0  0  0  0  0  0  0
    1.5735   -1.4104    0.3086 C   0  0  0  0  0  0  0  0  0  0  0  0
    2.2030   -0.1996   -0.3976 C   0  0  1  0  0  0  0  0  0  0  0  0
    0.0669    1.0177    0.1307 C   0  0  0  0  0  0  0  0  0  0  0  0
    1.3495    1.0361   -0.2703 C   0  0  0  0  0  0  0  0  0  0  0  0
   -2.0692   -0.2881   -0.1119 C   0  0  0  0  0  0  0  0  0  0  0  0
    3.6096    0.0504    0.1478 C   0  0  0  0  0  0  0  0  0  0  0  0
   -3.1892   -0.4162    0.8775 C   0  0  0  0  0  0  0  0  0  0  0  0
   -2.2949   -0.2054   -1.4315 C   0  0  0  0  0  0  0  0  0  0  0  0
   -0.7418   -0.2986    1.5571 H   0  0  0  0  0  0  0  0  0  0  0  0
   -0.0251   -1.6823   -1.0863 H   0  0  0  0  0  0  0  0  0  0  0  0
   -0.3304   -2.4004    0.4881 H   0  0  0  0  0  0  0  0  0  0  0  0
    1.7067   -1.3339    1.3959 H   0  0  0  0  0  0  0  0  0  0  0  0
    2.0825   -2.3289   -0.0076 H   0  0  0  0  0  0  0  0  0  0  0  0
    2.2918   -0.4244   -1.4686 H   0  0  0  0  0  0  0  0  0  0  0  0
    1.8155    1.9870   -0.5179 H   0  0  0  0  0  0  0  0  0  0  0  0
    4.0983    0.8722   -0.3874 H   0  0  0  0  0  0  0  0  0  0  0  0
    4.2349   -0.8412    0.0297 H   0  0  0  0  0  0  0  0  0  0  0  0
    3.5875    0.3099    1.2123 H   0  0  0  0  0  0  0  0  0  0  0  0
   -3.0851   -1.3428    1.4514 H   0  0  0  0  0  0  0  0  0  0  0  0
   -3.1805    0.4287    1.5738 H   0  0  0  0  0  0  0  0  0  0  0  0
   -4.1696   -0.4353    0.3900 H   0  0  0  0  0  0  0  0  0  0  0  0
   -0.0784    2.9358    0.0638 H   0  0  0  0  0  0  0  0  0  0  0  0
   -3.3038   -0.2289   -1.8304 H   0  0  0  0  0  0  0  0  0  0  0  0
   -1.4863   -0.1067   -2.1479 H   0  0  0  0  0  0  0  0  0  0  0  0
  1  6  1  0  0  0  0
  1 25  1  0  0  0  0
  2  3  1  0  0  0  0
  2  6  1  0  0  0  0
  2  8  1  0  0  0  0
  2 12  1  0  0  0  0
  3  4  1  0  0  0  0
  3 13  1  0  0  0  0
  3 14  1  0  0  0  0
  4  5  1  0  0  0  0
  4 15  1  0  0  0  0
  4 16  1  0  0  0  0
  5  7  1  0  0  0  0
  5  9  1  0  0  0  0
  5 17  1  0  0  0  0
  6  7  2  0  0  0  0
  7 18  1  0  0  0  0
  8 10  1  0  0  0  0
  8 11  2  0  0  0  0
  9 19  1  0  0  0  0
  9 20  1  0  0  0  0
  9 21  1  0  0  0  0
 10 22  1  0  0  0  0
 10 23  1  0  0  0  0
 10 24  1  0  0  0  0
 11 26  1  0  0  0  0
 11 27  1  0  0  0  0
M  END
> <PUBCHEM_COMPOUND_CID>
91753981

> <PUBCHEM_CONFORMER_RMSD>
0.4

> <PUBCHEM_CONFORMER_DIVERSEORDER>
1
2
3
4
5

> <PUBCHEM_MMFF94_PARTIAL_CHARGES>
12
1 -0.53
10 0.14
11 -0.3
18 0.15
2 0.28
25 0.45
26 0.15
27 0.15
5 0.14
6 -0.06
7 -0.29
8 -0.28

> <PUBCHEM_EFFECTIVE_ROTOR_COUNT>
1.8

> <PUBCHEM_PHARMACOPHORE_FEATURES>
2
1 1 donor
6 2 3 4 5 6 7 rings

> <PUBCHEM_HEAVY_ATOM_COUNT>
11

> <PUBCHEM_ATOM_DEF_STEREO_COUNT>
2

> <PUBCHEM_ATOM_UDEF_STEREO_COUNT>
0

> <PUBCHEM_BOND_DEF_STEREO_COUNT>
0

> <PUBCHEM_BOND_UDEF_STEREO_COUNT>
0

> <PUBCHEM_ISOTOPIC_ATOM_COUNT>
0

> <PUBCHEM_COMPONENT_COUNT>
1

> <PUBCHEM_CACTVS_TAUTO_COUNT>
5

> <PUBCHEM_CONFORMER_ID>
05780DFD00000001

> <PUBCHEM_MMFF94_ENERGY>
11.211

> <PUBCHEM_FEATURE_SELFOVERLAP>
10.148

> <PUBCHEM_SHAPE_FINGERPRINT>
10219947 1 18413111675200077290
10353120 184 18338533966177727486
11206711 2 18337392643302106268
12423570 1 17774451472840793071
12897270 3 18410290289861375358
12932764 1 17703502216757200458
14128692 85 17774145950495244519
14993402 34 17988917890523641735
15310529 11 16732979851354489578
16945 1 18411133645418497014
17844478 74 17749116607892360415
193761 8 17834116342599671754
20201158 50 18186802482647453499
20653085 51 15936694765696192364
21061003 4 18336835272405616225
23235685 24 18409167731433827178
23402539 116 18343574145107805694
23402655 69 18265314141948976613
23419403 2 16024992060730071450
23552423 10 18117563916248487314
2748010 2 18122626054950399462
29004967 10 18408045112834513043
353137 74 18335135354335405136
5084963 1 17313391144499055263
528886 8 18412825793708253395

> <PUBCHEM_SHAPE_MULTIPOLES>
220.51
4.59
1.56
0.93
0.74
0.39
-0.21
-0.54
0.15
0.19
0.16
-0.63
-0.05
-0.04

> <PUBCHEM_SHAPE_SELFOVERLAP>
437.344

> <PUBCHEM_SHAPE_VOLUME>
131.2

> <PUBCHEM_COORDINATE_TYPE>
2
5
10

$$$$
