5378180
  -OEChem-09302013153D

 51 54  0     1  0  0  0  0  0999 V2000
    0.7628   -1.7815    1.1387 O   0  0  0  0  0  0  0  0  0  0  0  0
    1.4063   -1.7406   -2.4862 O   0  0  0  0  0  0  0  0  0  0  0  0
   -1.1578   -3.0444   -2.3269 O   0  0  0  0  0  0  0  0  0  0  0  0
   -1.9294   -2.1676    0.1933 O   0  0  0  0  0  0  0  0  0  0  0  0
    0.0157    0.7620    0.0455 O   0  0  0  0  0  0  0  0  0  0  0  0
    0.1949   -5.3499    1.7062 O   0  0  0  0  0  0  0  0  0  0  0  0
    4.3220   -1.2603   -0.0757 O   0  0  0  0  0  0  0  0  0  0  0  0
    4.0374    3.4656    0.1583 O   0  0  0  0  0  0  0  0  0  0  0  0
    1.6269    4.5001    0.2189 O   0  0  0  0  0  0  0  0  0  0  0  0
   -6.3070    0.8131    0.0619 O   0  0  0  0  0  0  0  0  0  0  0  0
    0.5888   -1.7327   -1.3155 C   0  0  1  0  0  0  0  0  0  0  0  0
   -0.2086   -3.0362   -1.2624 C   0  0  1  0  0  0  0  0  0  0  0  0
    1.4934   -1.6033   -0.0791 C   0  0  1  0  0  0  0  0  0  0  0  0
   -0.9278   -3.1844    0.0770 C   0  0  1  0  0  0  0  0  0  0  0  0
    0.0333   -3.0095    1.2549 C   0  0  1  0  0  0  0  0  0  0  0  0
    2.1537   -0.2382   -0.0148 C   0  0  0  0  0  0  0  0  0  0  0  0
    0.9738   -4.1949    1.4542 C   0  0  0  0  0  0  0  0  0  0  0  0
    1.3784    0.9199    0.0471 C   0  0  0  0  0  0  0  0  0  0  0  0
    3.5454   -0.1418   -0.0169 C   0  0  0  0  0  0  0  0  0  0  0  0
    1.9950    2.1686    0.1060 C   0  0  0  0  0  0  0  0  0  0  0  0
    4.1610    1.1093    0.0424 C   0  0  0  0  0  0  0  0  0  0  0  0
    3.3882    2.2694    0.1039 C   0  0  0  0  0  0  0  0  0  0  0  0
    1.1535    3.3733    0.1686 C   0  0  0  0  0  0  0  0  0  0  0  0
   -0.7806    1.8953    0.1131 C   0  0  0  0  0  0  0  0  0  0  0  0
   -0.3065    3.1501    0.1667 C   0  0  0  0  0  0  0  0  0  0  0  0
   -2.2298    1.6118    0.0990 C   0  0  0  0  0  0  0  0  0  0  0  0
   -2.9175    1.5278   -1.1139 C   0  0  0  0  0  0  0  0  0  0  0  0
   -2.9193    1.4261    1.2998 C   0  0  0  0  0  0  0  0  0  0  0  0
   -4.2864    1.2599   -1.1263 C   0  0  0  0  0  0  0  0  0  0  0  0
   -4.2881    1.1581    1.2876 C   0  0  0  0  0  0  0  0  0  0  0  0
   -4.9717    1.0749    0.0745 C   0  0  0  0  0  0  0  0  0  0  0  0
   -0.1187   -0.9135   -1.4506 H   0  0  0  0  0  0  0  0  0  0  0  0
    0.4599   -3.8881   -1.4341 H   0  0  0  0  0  0  0  0  0  0  0  0
    2.2660   -2.3778   -0.1248 H   0  0  0  0  0  0  0  0  0  0  0  0
   -1.4571   -4.1419    0.1262 H   0  0  0  0  0  0  0  0  0  0  0  0
   -0.5723   -2.9057    2.1645 H   0  0  0  0  0  0  0  0  0  0  0  0
    1.6368   -4.0141    2.3071 H   0  0  0  0  0  0  0  0  0  0  0  0
    1.6048   -4.3819    0.5810 H   0  0  0  0  0  0  0  0  0  0  0  0
    2.0245   -2.4880   -2.4179 H   0  0  0  0  0  0  0  0  0  0  0  0
   -1.6534   -3.8792   -2.2698 H   0  0  0  0  0  0  0  0  0  0  0  0
   -2.5172   -2.2490   -0.5772 H   0  0  0  0  0  0  0  0  0  0  0  0
    5.2465    1.1777    0.0402 H   0  0  0  0  0  0  0  0  0  0  0  0
    0.8127   -6.0882    1.8431 H   0  0  0  0  0  0  0  0  0  0  0  0
   -0.9530    4.0194    0.2110 H   0  0  0  0  0  0  0  0  0  0  0  0
    5.2587   -0.9989   -0.0675 H   0  0  0  0  0  0  0  0  0  0  0  0
    4.9979    3.3141    0.1458 H   0  0  0  0  0  0  0  0  0  0  0  0
   -2.3968    1.6677   -2.0583 H   0  0  0  0  0  0  0  0  0  0  0  0
   -2.4002    1.4862    2.2535 H   0  0  0  0  0  0  0  0  0  0  0  0
   -4.8071    1.1969   -2.0780 H   0  0  0  0  0  0  0  0  0  0  0  0
   -4.8163    1.0143    2.2262 H   0  0  0  0  0  0  0  0  0  0  0  0
   -6.6152    0.7912   -0.8604 H   0  0  0  0  0  0  0  0  0  0  0  0
  1 13  1  0  0  0  0
  1 15  1  0  0  0  0
  2 11  1  0  0  0  0
  2 39  1  0  0  0  0
  3 12  1  0  0  0  0
  3 40  1  0  0  0  0
  4 14  1  0  0  0  0
  4 41  1  0  0  0  0
  5 18  1  0  0  0  0
  5 24  1  0  0  0  0
  6 17  1  0  0  0  0
  6 43  1  0  0  0  0
  7 19  1  0  0  0  0
  7 45  1  0  0  0  0
  8 22  1  0  0  0  0
  8 46  1  0  0  0  0
  9 23  2  0  0  0  0
 10 31  1  0  0  0  0
 10 51  1  0  0  0  0
 11 12  1  0  0  0  0
 11 13  1  0  0  0  0
 11 32  1  0  0  0  0
 12 14  1  0  0  0  0
 12 33  1  0  0  0  0
 13 16  1  0  0  0  0
 13 34  1  0  0  0  0
 14 15  1  0  0  0  0
 14 35  1  0  0  0  0
 15 17  1  0  0  0  0
 15 36  1  0  0  0  0
 16 18  1  0  0  0  0
 16 19  2  0  0  0  0
 17 37  1  0  0  0  0
 17 38  1  0  0  0  0
 18 20  2  0  0  0  0
 19 21  1  0  0  0  0
 20 22  1  0  0  0  0
 20 23  1  0  0  0  0
 21 22  2  0  0  0  0
 21 42  1  0  0  0  0
 23 25  1  0  0  0  0
 24 25  2  0  0  0  0
 24 26  1  0  0  0  0
 25 44  1  0  0  0  0
 26 27  2  0  0  0  0
 26 28  1  0  0  0  0
 27 29  1  0  0  0  0
 27 47  1  0  0  0  0
 28 30  2  0  0  0  0
 28 48  1  0  0  0  0
 29 31  2  0  0  0  0
 29 49  1  0  0  0  0
 30 31  1  0  0  0  0
 30 50  1  0  0  0  0
M  END
> <PUBCHEM_COMPOUND_CID>
5378180

> <PUBCHEM_CONFORMER_RMSD>
0.8

> <PUBCHEM_CONFORMER_DIVERSEORDER>
1
46
13
60
23
51
67
65
31
72
69
9
29
59
57
33
17
20
66
7
68
28
36
35
56
62
49
24
55
61
37
50
6
4
25
40
15
14
75
22
30
44
39
47
41
48
74
54
3
38
32
8
64
27
18
42
2
11
71
34
52
16
12
45
63
19
73
26
10
53
70
43
58
5
21

> <PUBCHEM_MMFF94_PARTIAL_CHARGES>
44
1 -0.56
10 -0.53
11 0.28
12 0.28
13 0.42
14 0.28
15 0.28
16 -0.14
17 0.28
18 0.08
19 0.08
2 -0.68
20 0.09
21 -0.15
22 0.08
23 0.47
24 0.05
25 -0.14
26 0.03
27 -0.15
28 -0.15
29 -0.15
3 -0.68
30 -0.15
31 0.08
39 0.4
4 -0.68
40 0.4
41 0.4
42 0.15
43 0.4
44 0.15
45 0.45
46 0.45
47 0.15
48 0.15
49 0.15
5 -0.16
50 0.15
51 0.45
6 -0.68
7 -0.53
8 -0.53
9 -0.57

> <PUBCHEM_EFFECTIVE_ROTOR_COUNT>
4.2

> <PUBCHEM_PHARMACOPHORE_FEATURES>
18
1 1 acceptor
1 10 donor
1 2 acceptor
1 2 donor
1 3 acceptor
1 3 donor
1 4 acceptor
1 4 donor
1 5 acceptor
1 6 acceptor
1 6 donor
1 7 donor
1 8 donor
1 9 acceptor
6 1 11 12 13 14 15 rings
6 16 18 19 20 21 22 rings
6 26 27 28 29 30 31 rings
6 5 18 20 23 24 25 rings

> <PUBCHEM_HEAVY_ATOM_COUNT>
31

> <PUBCHEM_ATOM_DEF_STEREO_COUNT>
0

> <PUBCHEM_ATOM_UDEF_STEREO_COUNT>
5

> <PUBCHEM_BOND_DEF_STEREO_COUNT>
0

> <PUBCHEM_BOND_UDEF_STEREO_COUNT>
0

> <PUBCHEM_ISOTOPIC_ATOM_COUNT>
0

> <PUBCHEM_COMPONENT_COUNT>
1

> <PUBCHEM_CACTVS_TAUTO_COUNT>
57

> <PUBCHEM_CONFORMER_ID>
0052108400000001

> <PUBCHEM_MMFF94_ENERGY>
98.7791

> <PUBCHEM_FEATURE_SELFOVERLAP>
91.403

> <PUBCHEM_SHAPE_FINGERPRINT>
10190206 1 16456311119528113036
104564 63 17691690403927119996
1100329 8 18409724071807022592
12156800 1 17553444327215370587
12422481 6 18050314714666923179
12553582 1 16827566112159578557
12788726 201 17835783571426029058
13140716 1 18410014338159951008
1361 2 18409164454949196233
138480 1 17976253535153517731
13911987 19 18116174219529537012
14790565 3 18339371785644486640
16728300 4 17390201764801977898
17138139 8 17556266769865061789
19319366 153 18113907035691545354
19591789 44 18410013191546153016
20028762 73 18343298128612983246
20739085 24 18266760016234393512
20905425 154 17764588712201223966
21197605 99 18196663006764446371
21421861 104 17691415109318690817
23558518 356 17906158904273481012
25222932 49 18409165485915472535
3178227 256 18336836290159936880
394071 54 18056212284901537129
4058900 60 18335995176750427285
469060 322 17458893959842819135
5171179 24 16908620460340470496
5309563 4 18267023856301603265
6287921 2 17486774078572210471
6438718 38 17986118636755932782
6669772 16 18410015412482257422
70251023 43 17768262206330165495
9896288 288 17474932248642336626

> <PUBCHEM_SHAPE_MULTIPOLES>
579.27
7.8
6.24
1.45
9.31
3.8
-0.5
-5.17
0.26
-4.08
1.63
0.38
1.67
-0.29

> <PUBCHEM_SHAPE_SELFOVERLAP>
1278.922

> <PUBCHEM_SHAPE_VOLUME>
306.6

> <PUBCHEM_COORDINATE_TYPE>
2
5
10

$$$$
