10252339
  -OEChem-09302015213D

 49 52  0     1  0  0  0  0  0999 V2000
   -0.8983   -2.6723   -0.8965 O   0  0  0  0  0  0  0  0  0  0  0  0
   -0.8248   -0.9126    0.6553 O   0  0  0  0  0  0  0  0  0  0  0  0
   -4.2167   -3.5317    0.0839 O   0  0  0  0  0  0  0  0  0  0  0  0
   -3.5063   -0.5428    0.3716 O   0  0  0  0  0  0  0  0  0  0  0  0
   -0.1792   -5.3470   -0.3836 O   0  0  0  0  0  0  0  0  0  0  0  0
    1.5068    1.8692    0.0129 O   0  0  0  0  0  0  0  0  0  0  0  0
    1.6575   -2.1644    0.5706 O   0  0  0  0  0  0  0  0  0  0  0  0
    4.2556   -2.1134    0.2800 O   0  0  0  0  0  0  0  0  0  0  0  0
    6.2125    2.1320   -0.5510 O   0  0  0  0  0  0  0  0  0  0  0  0
   -3.4014    3.1709   -2.0567 O   0  0  0  0  0  0  0  0  0  0  0  0
   -4.3050    4.2734    0.3296 O   0  0  0  0  0  0  0  0  0  0  0  0
   -2.9614   -2.9049    0.2697 C   0  0  2  0  0  0  0  0  0  0  0  0
   -2.8992   -1.5533   -0.4057 C   0  0  2  0  0  0  0  0  0  0  0  0
   -1.8616   -3.6564   -0.4699 C   0  0  2  0  0  0  0  0  0  0  0  0
   -1.3999   -1.3674   -0.5658 C   0  0  2  0  0  0  0  0  0  0  0  0
   -1.1721   -4.6992    0.3928 C   0  0  0  0  0  0  0  0  0  0  0  0
    0.3373   -0.2024    0.4453 C   0  0  0  0  0  0  0  0  0  0  0  0
    0.3606    1.1299    0.2590 C   0  0  0  0  0  0  0  0  0  0  0  0
    1.6159   -0.9525    0.4066 C   0  0  0  0  0  0  0  0  0  0  0  0
    2.8303   -0.1603    0.1585 C   0  0  0  0  0  0  0  0  0  0  0  0
    2.7110    1.2153   -0.0265 C   0  0  0  0  0  0  0  0  0  0  0  0
   -0.8619    1.9528    0.2740 C   0  0  0  0  0  0  0  0  0  0  0  0
    4.0847   -0.7732    0.1065 C   0  0  0  0  0  0  0  0  0  0  0  0
    3.8475    1.9883   -0.2657 C   0  0  0  0  0  0  0  0  0  0  0  0
   -1.5660    2.1787   -0.9091 C   0  0  0  0  0  0  0  0  0  0  0  0
   -1.3158    2.5067    1.4714 C   0  0  0  0  0  0  0  0  0  0  0  0
    5.2200    0.0021   -0.1324 C   0  0  0  0  0  0  0  0  0  0  0  0
    5.1019    1.3801   -0.3181 C   0  0  0  0  0  0  0  0  0  0  0  0
   -2.7229    2.9576   -0.8948 C   0  0  0  0  0  0  0  0  0  0  0  0
   -2.4727    3.2857    1.4857 C   0  0  0  0  0  0  0  0  0  0  0  0
   -3.1763    3.5111    0.3025 C   0  0  0  0  0  0  0  0  0  0  0  0
   -2.7724   -2.8174    1.3462 H   0  0  0  0  0  0  0  0  0  0  0  0
   -3.4036   -1.6001   -1.3789 H   0  0  0  0  0  0  0  0  0  0  0  0
   -2.2478   -4.1323   -1.3801 H   0  0  0  0  0  0  0  0  0  0  0  0
   -1.1889   -0.6860   -1.3980 H   0  0  0  0  0  0  0  0  0  0  0  0
   -1.8756   -5.4491    0.7667 H   0  0  0  0  0  0  0  0  0  0  0  0
   -0.6655   -4.2332    1.2439 H   0  0  0  0  0  0  0  0  0  0  0  0
   -4.1567   -4.4250    0.4630 H   0  0  0  0  0  0  0  0  0  0  0  0
   -3.4370    0.2879   -0.1269 H   0  0  0  0  0  0  0  0  0  0  0  0
   -0.6270   -5.7952   -1.1212 H   0  0  0  0  0  0  0  0  0  0  0  0
    3.7508    3.0615   -0.4101 H   0  0  0  0  0  0  0  0  0  0  0  0
   -1.2173    1.7568   -1.8491 H   0  0  0  0  0  0  0  0  0  0  0  0
   -0.7779    2.3398    2.4015 H   0  0  0  0  0  0  0  0  0  0  0  0
    6.2001   -0.4670   -0.1744 H   0  0  0  0  0  0  0  0  0  0  0  0
   -2.8149    3.7107    2.4255 H   0  0  0  0  0  0  0  0  0  0  0  0
    3.4037   -2.5473    0.4410 H   0  0  0  0  0  0  0  0  0  0  0  0
    5.9475    3.0621   -0.6557 H   0  0  0  0  0  0  0  0  0  0  0  0
   -4.1742    3.7290   -1.8615 H   0  0  0  0  0  0  0  0  0  0  0  0
   -4.4649    4.5703    1.2419 H   0  0  0  0  0  0  0  0  0  0  0  0
  1 14  1  0  0  0  0
  1 15  1  0  0  0  0
  2 15  1  0  0  0  0
  2 17  1  0  0  0  0
  3 12  1  0  0  0  0
  3 38  1  0  0  0  0
  4 13  1  0  0  0  0
  4 39  1  0  0  0  0
  5 16  1  0  0  0  0
  5 40  1  0  0  0  0
  6 18  1  0  0  0  0
  6 21  1  0  0  0  0
  7 19  2  0  0  0  0
  8 23  1  0  0  0  0
  8 46  1  0  0  0  0
  9 28  1  0  0  0  0
  9 47  1  0  0  0  0
 10 29  1  0  0  0  0
 10 48  1  0  0  0  0
 11 31  1  0  0  0  0
 11 49  1  0  0  0  0
 12 13  1  0  0  0  0
 12 14  1  0  0  0  0
 12 32  1  0  0  0  0
 13 15  1  0  0  0  0
 13 33  1  0  0  0  0
 14 16  1  0  0  0  0
 14 34  1  0  0  0  0
 15 35  1  0  0  0  0
 16 36  1  0  0  0  0
 16 37  1  0  0  0  0
 17 18  2  0  0  0  0
 17 19  1  0  0  0  0
 18 22  1  0  0  0  0
 19 20  1  0  0  0  0
 20 21  1  0  0  0  0
 20 23  2  0  0  0  0
 21 24  2  0  0  0  0
 22 25  2  0  0  0  0
 22 26  1  0  0  0  0
 23 27  1  0  0  0  0
 24 28  1  0  0  0  0
 24 41  1  0  0  0  0
 25 29  1  0  0  0  0
 25 42  1  0  0  0  0
 26 30  2  0  0  0  0
 26 43  1  0  0  0  0
 27 28  2  0  0  0  0
 27 44  1  0  0  0  0
 29 31  2  0  0  0  0
 30 31  1  0  0  0  0
 30 45  1  0  0  0  0
M  END
> <PUBCHEM_COMPOUND_CID>
10252339

> <PUBCHEM_CONFORMER_RMSD>
0.8

> <PUBCHEM_CONFORMER_DIVERSEORDER>
1
20
51
54
10
38
56
49
32
4
28
37
36
40
19
53
50
41
33
55
42
47
39
52
9
34
30
6
44
21
43
24
48
35
3
27
5
25
14
15
45
29
46
8
12
26
31
22
23
16
13
7
11
18
2
17

> <PUBCHEM_MMFF94_PARTIAL_CHARGES>
43
1 -0.56
10 -0.53
11 -0.53
12 0.28
13 0.28
14 0.28
15 0.56
16 0.28
17 0.09
18 0.05
19 0.47
2 -0.36
20 0.09
21 0.08
22 0.03
23 0.08
24 -0.15
25 -0.15
26 -0.15
27 -0.15
28 0.08
29 0.08
3 -0.68
30 -0.15
31 0.08
38 0.4
39 0.4
4 -0.68
40 0.4
41 0.15
42 0.15
43 0.15
44 0.15
45 0.15
46 0.45
47 0.45
48 0.45
49 0.45
5 -0.68
6 -0.16
7 -0.57
8 -0.53
9 -0.53

> <PUBCHEM_EFFECTIVE_ROTOR_COUNT>
5

> <PUBCHEM_PHARMACOPHORE_FEATURES>
18
1 1 acceptor
1 10 donor
1 11 donor
1 2 acceptor
1 3 acceptor
1 3 donor
1 4 acceptor
1 4 donor
1 5 acceptor
1 5 donor
1 6 acceptor
1 7 acceptor
1 8 donor
1 9 donor
5 1 12 13 14 15 rings
6 20 21 23 24 27 28 rings
6 22 25 26 29 30 31 rings
6 6 17 18 19 20 21 rings

> <PUBCHEM_HEAVY_ATOM_COUNT>
31

> <PUBCHEM_ATOM_DEF_STEREO_COUNT>
4

> <PUBCHEM_ATOM_UDEF_STEREO_COUNT>
0

> <PUBCHEM_BOND_DEF_STEREO_COUNT>
0

> <PUBCHEM_BOND_UDEF_STEREO_COUNT>
0

> <PUBCHEM_ISOTOPIC_ATOM_COUNT>
0

> <PUBCHEM_COMPONENT_COUNT>
1

> <PUBCHEM_CACTVS_TAUTO_COUNT>
162

> <PUBCHEM_CONFORMER_ID>
009C703300000001

> <PUBCHEM_MMFF94_ENERGY>
100.1192

> <PUBCHEM_FEATURE_SELFOVERLAP>
91.445

> <PUBCHEM_SHAPE_FINGERPRINT>
10050765 1 18411139139625972620
10411042 1 17835241520878701258
11014199 57 17762340614317538691
11045515 52 18048034369793322737
11578080 2 13028300838972243633
11582403 64 16881024513895289893
12160290 23 18124562428002476781
12553582 1 18124301972453651546
12788726 201 18263354953408241082
13140716 1 17979350090593934024
13540713 5 18260264149609216912
13583140 156 17387704794885286176
13631057 29 18267585887237446900
138480 1 16826153231270168643
14068700 675 17975134563425179884
14251757 5 18338796831019108767
14790565 3 18267307521426759353
14955137 171 17760097606481302195
15927050 60 18125721176020055711
16087824 20 18338802325463974331
16988056 13 17402594738199926055
17138139 8 17769050698133622749
19319366 153 17912075050289331353
20775438 99 16686770887239990799
21049683 271 17686624949414899549
21641784 216 18043542809276379532
23558518 356 18333737935581611536
23559900 14 17258769846911475835
23929065 36 18196915877153419248
25147074 1 18187364325364280952
283562 15 18263643034091859096
3380486 145 17759817226652355794
340366 18 18118694223313664700
350125 39 18411141328988947929
352729 6 18198903604458846264
38695281 34 17977380538661817917
4058900 60 17909560458227118465
4409770 3 18409722993765034485
463206 1 17760087711008702578
469060 322 16732985331896458949
474 4 17909547259728963393
6669772 16 17980482256906080094
7164475 11 18337674217305644548

> <PUBCHEM_SHAPE_MULTIPOLES>
573.4
9.33
6.78
1.03
12.71
4.56
0.09
-4.21
1.14
-9.29
0.1
-0.79
-0.81
-0.41

> <PUBCHEM_SHAPE_SELFOVERLAP>
1270.066

> <PUBCHEM_SHAPE_VOLUME>
305.4

> <PUBCHEM_COORDINATE_TYPE>
2
5
10

$$$$
