44259176
  -OEChem-09302013162D

 93 98  0     1  0  0  0  0  0999 V2000
   10.4037   -0.2500    0.0000 O   0  0  0  0  0  0  0  0  0  0  0  0
    9.5376   -2.7500    0.0000 O   0  0  0  0  0  0  0  0  0  0  0  0
    7.8056   -2.7500    0.0000 O   0  0  0  0  0  0  0  0  0  0  0  0
   11.2697   -2.7500    0.0000 O   0  0  0  0  0  0  0  0  0  0  0  0
   11.2697    1.2500    0.0000 O   0  0  0  0  0  0  0  0  0  0  0  0
   13.0017   -1.7500    0.0000 O   0  0  0  0  0  0  0  0  0  0  0  0
   13.0017    0.2500    0.0000 O   0  0  0  0  0  0  0  0  0  0  0  0
    9.5376   -4.7500    0.0000 O   0  0  0  0  0  0  0  0  0  0  0  0
    4.2755    3.2808    0.0000 O   0  0  0  0  0  0  0  0  0  0  0  0
    7.8056   -5.7500    0.0000 O   0  0  0  0  0  0  0  0  0  0  0  0
    6.0736   -4.7500    0.0000 O   0  0  0  0  0  0  0  0  0  0  0  0
    6.0075    3.2742    0.0000 O   0  0  0  0  0  0  0  0  0  0  0  0
    4.2639    0.2808    0.0000 O   0  0  0  0  0  0  0  0  0  0  0  0
    2.5357    1.2875    0.0000 O   0  0  0  0  0  0  0  0  0  0  0  0
    5.9998    1.2742    0.0000 O   0  0  0  0  0  0  0  0  0  0  0  0
    9.5376    3.2500    0.0000 O   0  0  0  0  0  0  0  0  0  0  0  0
    9.5376    0.2500    0.0000 O   0  0  0  0  0  0  0  0  0  0  0  0
    7.7892    0.2154    0.0000 O   0  0  0  0  0  0  0  0  0  0  0  0
   12.1357    5.7500    0.0000 O   0  0  0  0  0  0  0  0  0  0  0  0
   13.8678    4.7500    0.0000 O   0  0  0  0  0  0  0  0  0  0  0  0
   10.4037   -1.2500    0.0000 C   0  0  3  0  0  0  0  0  0  0  0  0
   11.2697   -1.7500    0.0000 C   0  0  2  0  0  0  0  0  0  0  0  0
   12.1357   -1.2500    0.0000 C   0  0  3  0  0  0  0  0  0  0  0  0
   12.1357   -0.2500    0.0000 C   0  0  3  0  0  0  0  0  0  0  0  0
    8.6716   -4.2500    0.0000 C   0  0  3  0  0  0  0  0  0  0  0  0
    8.6716   -3.2500    0.0000 C   0  0  2  0  0  0  0  0  0  0  0  0
    7.8056   -4.7500    0.0000 C   0  0  2  0  0  0  0  0  0  0  0  0
   11.2697    0.2500    0.0000 C   0  0  1  0  0  0  0  0  0  0  0  0
    6.9396   -4.2500    0.0000 C   0  0  2  0  0  0  0  0  0  0  0  0
    9.5376   -1.7500    0.0000 C   0  0  0  0  0  0  0  0  0  0  0  0
    6.9396   -3.2500    0.0000 C   0  0  3  0  0  0  0  0  0  0  0  0
    4.2678    1.2808    0.0000 C   0  0  1  0  0  0  0  0  0  0  0  0
    3.4037    1.7842    0.0000 C   0  0  2  0  0  0  0  0  0  0  0  0
    5.1357    1.7775    0.0000 C   0  0  3  0  0  0  0  0  0  0  0  0
    3.4075    2.7842    0.0000 C   0  0  3  0  0  0  0  0  0  0  0  0
    5.1396    2.7775    0.0000 C   0  0  1  0  0  0  0  0  0  0  0  0
    6.0736   -2.7500    0.0000 C   0  0  0  0  0  0  0  0  0  0  0  0
    2.5434    3.2875    0.0000 C   0  0  0  0  0  0  0  0  0  0  0  0
   10.4037    1.7500    0.0000 C   0  0  0  0  0  0  0  0  0  0  0  0
   10.4037    2.7500    0.0000 C   0  0  0  0  0  0  0  0  0  0  0  0
    9.5376    1.2500    0.0000 C   0  0  0  0  0  0  0  0  0  0  0  0
    6.8716    2.7708    0.0000 C   0  0  0  0  0  0  0  0  0  0  0  0
    8.6716    1.7500    0.0000 C   0  0  0  0  0  0  0  0  0  0  0  0
    8.6716    2.7500    0.0000 C   0  0  0  0  0  0  0  0  0  0  0  0
    7.7777    3.2847    0.0000 C   0  0  0  0  0  0  0  0  0  0  0  0
    6.8716    1.7292    0.0000 C   0  0  0  0  0  0  0  0  0  0  0  0
    7.7777    1.2153    0.0000 C   0  0  0  0  0  0  0  0  0  0  0  0
   11.2697    3.2500    0.0000 C   0  0  0  0  0  0  0  0  0  0  0  0
   11.2697    4.2500    0.0000 C   0  0  0  0  0  0  0  0  0  0  0  0
   12.1357    2.7500    0.0000 C   0  0  0  0  0  0  0  0  0  0  0  0
   12.1357    4.7500    0.0000 C   0  0  0  0  0  0  0  0  0  0  0  0
   13.0017    3.2500    0.0000 C   0  0  0  0  0  0  0  0  0  0  0  0
   13.0017    4.2500    0.0000 C   0  0  0  0  0  0  0  0  0  0  0  0
    9.8667   -0.9400    0.0000 H   0  0  0  0  0  0  0  0  0  0  0  0
   10.7328   -2.0600    0.0000 H   0  0  0  0  0  0  0  0  0  0  0  0
   12.1357   -1.8700    0.0000 H   0  0  0  0  0  0  0  0  0  0  0  0
   12.6727   -0.5600    0.0000 H   0  0  0  0  0  0  0  0  0  0  0  0
    8.6716   -4.8700    0.0000 H   0  0  0  0  0  0  0  0  0  0  0  0
    8.6716   -2.6300    0.0000 H   0  0  0  0  0  0  0  0  0  0  0  0
    7.2687   -5.0600    0.0000 H   0  0  0  0  0  0  0  0  0  0  0  0
   10.7328    0.5600    0.0000 H   0  0  0  0  0  0  0  0  0  0  0  0
    6.9396   -4.8700    0.0000 H   0  0  0  0  0  0  0  0  0  0  0  0
    9.3256   -1.1674    0.0000 H   0  0  0  0  0  0  0  0  0  0  0  0
    8.9271   -1.8577    0.0000 H   0  0  0  0  0  0  0  0  0  0  0  0
    6.9396   -2.6300    0.0000 H   0  0  0  0  0  0  0  0  0  0  0  0
    3.7296    0.9729    0.0000 H   0  0  0  0  0  0  0  0  0  0  0  0
    2.8680    2.0962    0.0000 H   0  0  0  0  0  0  0  0  0  0  0  0
    5.6738    2.0854    0.0000 H   0  0  0  0  0  0  0  0  0  0  0  0
    3.4099    3.4042    0.0000 H   0  0  0  0  0  0  0  0  0  0  0  0
    5.1420    3.3975    0.0000 H   0  0  0  0  0  0  0  0  0  0  0  0
    6.3835   -2.2131    0.0000 H   0  0  0  0  0  0  0  0  0  0  0  0
    5.5366   -2.4400    0.0000 H   0  0  0  0  0  0  0  0  0  0  0  0
    5.7636   -3.2869    0.0000 H   0  0  0  0  0  0  0  0  0  0  0  0
   11.8066   -3.0600    0.0000 H   0  0  0  0  0  0  0  0  0  0  0  0
   13.5387   -1.4400    0.0000 H   0  0  0  0  0  0  0  0  0  0  0  0
   13.0017    0.8700    0.0000 H   0  0  0  0  0  0  0  0  0  0  0  0
   10.0746   -4.4400    0.0000 H   0  0  0  0  0  0  0  0  0  0  0  0
    7.2687   -6.0600    0.0000 H   0  0  0  0  0  0  0  0  0  0  0  0
    5.5366   -4.4400    0.0000 H   0  0  0  0  0  0  0  0  0  0  0  0
    2.8555    3.8232    0.0000 H   0  0  0  0  0  0  0  0  0  0  0  0
    2.0077    3.5996    0.0000 H   0  0  0  0  0  0  0  0  0  0  0  0
    2.2314    2.7518    0.0000 H   0  0  0  0  0  0  0  0  0  0  0  0
    3.7258   -0.0271    0.0000 H   0  0  0  0  0  0  0  0  0  0  0  0
    2.0000    1.5996    0.0000 H   0  0  0  0  0  0  0  0  0  0  0  0
    5.9974    0.6542    0.0000 H   0  0  0  0  0  0  0  0  0  0  0  0
    7.7848    3.9046    0.0000 H   0  0  0  0  0  0  0  0  0  0  0  0
    6.3359    1.4171    0.0000 H   0  0  0  0  0  0  0  0  0  0  0  0
   10.7328    4.5600    0.0000 H   0  0  0  0  0  0  0  0  0  0  0  0
   12.1357    2.1300    0.0000 H   0  0  0  0  0  0  0  0  0  0  0  0
    7.2559   -0.1008    0.0000 H   0  0  0  0  0  0  0  0  0  0  0  0
   13.5387    2.9400    0.0000 H   0  0  0  0  0  0  0  0  0  0  0  0
   11.5988    6.0600    0.0000 H   0  0  0  0  0  0  0  0  0  0  0  0
   14.4047    4.4400    0.0000 H   0  0  0  0  0  0  0  0  0  0  0  0
  1 21  1  0  0  0  0
  1 28  1  0  0  0  0
 26  2  1  1  0  0  0
  2 30  1  0  0  0  0
  3 26  1  0  0  0  0
  3 31  1  0  0  0  0
 22  4  1  6  0  0  0
  4 74  1  0  0  0  0
 28  5  1  1  0  0  0
  5 39  1  0  0  0  0
  6 23  1  0  0  0  0
  6 75  1  0  0  0  0
  7 24  1  0  0  0  0
  7 76  1  0  0  0  0
  8 25  1  0  0  0  0
  8 77  1  0  0  0  0
  9 35  1  0  0  0  0
  9 36  1  0  0  0  0
 27 10  1  1  0  0  0
 10 78  1  0  0  0  0
 29 11  1  1  0  0  0
 11 79  1  0  0  0  0
 36 12  1  1  0  0  0
 12 42  1  0  0  0  0
 32 13  1  1  0  0  0
 13 83  1  0  0  0  0
 33 14  1  1  0  0  0
 14 84  1  0  0  0  0
 15 34  1  0  0  0  0
 15 85  1  0  0  0  0
 16 40  1  0  0  0  0
 16 44  1  0  0  0  0
 17 41  2  0  0  0  0
 18 47  1  0  0  0  0
 18 90  1  0  0  0  0
 19 51  1  0  0  0  0
 19 92  1  0  0  0  0
 20 53  1  0  0  0  0
 20 93  1  0  0  0  0
 21 22  1  0  0  0  0
 21 30  1  0  0  0  0
 21 54  1  0  0  0  0
 22 23  1  0  0  0  0
 22 55  1  0  0  0  0
 23 24  1  0  0  0  0
 23 56  1  0  0  0  0
 24 28  1  0  0  0  0
 24 57  1  0  0  0  0
 25 26  1  0  0  0  0
 25 27  1  0  0  0  0
 25 58  1  0  0  0  0
 26 59  1  0  0  0  0
 27 29  1  0  0  0  0
 27 60  1  0  0  0  0
 28 61  1  0  0  0  0
 29 31  1  0  0  0  0
 29 62  1  0  0  0  0
 30 63  1  0  0  0  0
 30 64  1  0  0  0  0
 31 37  1  0  0  0  0
 31 65  1  0  0  0  0
 32 33  1  0  0  0  0
 32 34  1  0  0  0  0
 32 66  1  0  0  0  0
 33 35  1  0  0  0  0
 33 67  1  0  0  0  0
 34 36  1  0  0  0  0
 34 68  1  0  0  0  0
 35 38  1  0  0  0  0
 35 69  1  0  0  0  0
 36 70  1  0  0  0  0
 37 71  1  0  0  0  0
 37 72  1  0  0  0  0
 37 73  1  0  0  0  0
 38 80  1  0  0  0  0
 38 81  1  0  0  0  0
 38 82  1  0  0  0  0
 39 40  2  0  0  0  0
 39 41  1  0  0  0  0
 40 48  1  0  0  0  0
 41 43  1  0  0  0  0
 42 45  1  0  0  0  0
 42 46  2  0  0  0  0
 43 44  1  0  0  0  0
 43 47  2  0  0  0  0
 44 45  2  0  0  0  0
 45 86  1  0  0  0  0
 46 47  1  0  0  0  0
 46 87  1  0  0  0  0
 48 49  2  0  0  0  0
 48 50  1  0  0  0  0
 49 51  1  0  0  0  0
 49 88  1  0  0  0  0
 50 52  2  0  0  0  0
 50 89  1  0  0  0  0
 51 53  2  0  0  0  0
 52 53  1  0  0  0  0
 52 91  1  0  0  0  0
M  END
> <PUBCHEM_COMPOUND_CID>
44259176

> <PUBCHEM_COMPOUND_CANONICALIZED>
1

> <PUBCHEM_CACTVS_COMPLEXITY>
1300

> <PUBCHEM_CACTVS_HBOND_ACCEPTOR>
20

> <PUBCHEM_CACTVS_HBOND_DONOR>
12

> <PUBCHEM_CACTVS_ROTATABLE_BOND>
8

> <PUBCHEM_CACTVS_SUBSKEYS>
AAADcfB8PgAAAAAAAAAAAAAAAAAAAAAAAAA0aJECAAAAAACBQAAAGgAACAAADBSwmAMyDoAABgCIAqBSAAICCAAkIAAIiAFGiMgdNzaGNR6ieWGl4BUPuQfI7LzOIAABCAAIQABAAAIQABCAAAAAAAAAAA==

> <PUBCHEM_IUPAC_OPENEYE_NAME>
2-(3,4-dihydroxyphenyl)-5-hydroxy-7-[(2S,4S,5R)-3,4,5-trihydroxy-6-methyl-tetrahydropyran-2-yl]oxy-3-[(2S,5S)-3,4,5-trihydroxy-6-[[(2S,4S,5R)-3,4,5-trihydroxy-6-methyl-tetrahydropyran-2-yl]oxymethyl]tetrahydropyran-2-yl]oxy-chromen-4-one

> <PUBCHEM_IUPAC_CAS_NAME>
2-(3,4-dihydroxyphenyl)-5-hydroxy-7-[[(2S,4S,5R)-3,4,5-trihydroxy-6-methyl-2-oxanyl]oxy]-3-[[(2S,5S)-3,4,5-trihydroxy-6-[[(2S,4S,5R)-3,4,5-trihydroxy-6-methyl-2-oxanyl]oxymethyl]-2-oxanyl]oxy]-1-benzopyran-4-one

> <PUBCHEM_IUPAC_NAME_MARKUP>
2-(3,4-dihydroxyphenyl)-5-hydroxy-7-[(2<I>S</I>,4<I>S</I>,5<I>R</I>)-3,4,5-trihydroxy-6-methyloxan-2-yl]oxy-3-[(2<I>S</I>,5<I>S</I>)-3,4,5-trihydroxy-6-[[(2<I>S</I>,4<I>S</I>,5<I>R</I>)-3,4,5-trihydroxy-6-methyloxan-2-yl]oxymethyl]oxan-2-yl]oxychromen-4-one

> <PUBCHEM_IUPAC_NAME>
2-(3,4-dihydroxyphenyl)-5-hydroxy-7-[(2S,4S,5R)-3,4,5-trihydroxy-6-methyloxan-2-yl]oxy-3-[(2S,5S)-3,4,5-trihydroxy-6-[[(2S,4S,5R)-3,4,5-trihydroxy-6-methyloxan-2-yl]oxymethyl]oxan-2-yl]oxychromen-4-one

> <PUBCHEM_IUPAC_SYSTEMATIC_NAME>
2-[3,4-bis(oxidanyl)phenyl]-7-[(2S,4S,5R)-6-methyl-3,4,5-tris(oxidanyl)oxan-2-yl]oxy-3-[(2S,5S)-6-[[(2S,4S,5R)-6-methyl-3,4,5-tris(oxidanyl)oxan-2-yl]oxymethyl]-3,4,5-tris(oxidanyl)oxan-2-yl]oxy-5-oxidanyl-chromen-4-one

> <PUBCHEM_IUPAC_TRADITIONAL_NAME>
2-(3,4-dihydroxyphenyl)-5-hydroxy-7-[(2S,4S,5R)-3,4,5-trihydroxy-6-methyl-tetrahydropyran-2-yl]oxy-3-[(2S,5S)-3,4,5-trihydroxy-6-[[(2S,4S,5R)-3,4,5-trihydroxy-6-methyl-tetrahydropyran-2-yl]oxymethyl]tetrahydropyran-2-yl]oxy-chromone

> <PUBCHEM_IUPAC_INCHI>
InChI=1S/C33H40O20/c1-9-19(37)23(41)26(44)31(48-9)47-8-17-21(39)25(43)28(46)33(52-17)53-30-22(40)18-15(36)6-12(50-32-27(45)24(42)20(38)10(2)49-32)7-16(18)51-29(30)11-3-4-13(34)14(35)5-11/h3-7,9-10,17,19-21,23-28,31-39,41-46H,8H2,1-2H3/t9?,10?,17?,19-,20-,21+,23-,24-,25?,26?,27?,28?,31+,32-,33-/m0/s1

> <PUBCHEM_IUPAC_INCHIKEY>
BFCXCFJUDBNEMU-FCVJMGGFSA-N

> <PUBCHEM_XLOGP3_AA>
-2.6

> <PUBCHEM_EXACT_MASS>
756.211294

> <PUBCHEM_MOLECULAR_FORMULA>
C33H40O20

> <PUBCHEM_MOLECULAR_WEIGHT>
756.7

> <PUBCHEM_OPENEYE_CAN_SMILES>
CC1C(C(C(C(O1)OCC2C(C(C(C(O2)OC3=C(OC4=CC(=CC(=C4C3=O)O)OC5C(C(C(C(O5)C)O)O)O)C6=CC(=C(C=C6)O)O)O)O)O)O)O)O

> <PUBCHEM_OPENEYE_ISO_SMILES>
CC1[C@@H]([C@@H](C([C@@H](O1)OCC2[C@H](C(C([C@@H](O2)OC3=C(OC4=CC(=CC(=C4C3=O)O)O[C@H]5C([C@H]([C@H](C(O5)C)O)O)O)C6=CC(=C(C=C6)O)O)O)O)O)O)O)O

> <PUBCHEM_CACTVS_TPSA>
324

> <PUBCHEM_MONOISOTOPIC_WEIGHT>
756.211294

> <PUBCHEM_TOTAL_CHARGE>
0

> <PUBCHEM_HEAVY_ATOM_COUNT>
53

> <PUBCHEM_ATOM_DEF_STEREO_COUNT>
8

> <PUBCHEM_ATOM_UDEF_STEREO_COUNT>
7

> <PUBCHEM_BOND_DEF_STEREO_COUNT>
0

> <PUBCHEM_BOND_UDEF_STEREO_COUNT>
0

> <PUBCHEM_ISOTOPIC_ATOM_COUNT>
0

> <PUBCHEM_COMPONENT_COUNT>
1

> <PUBCHEM_CACTVS_TAUTO_COUNT>
-1

> <PUBCHEM_COORDINATE_TYPE>
1
5
255

> <PUBCHEM_BONDANNOTATIONS>
27  10  5
29  11  5
36  12  5
32  13  5
33  14  5
34  15  3
16  40  8
16  44  8
26  2  5
21  30  3
31  37  3
35  38  3
39  40  8
39  41  8
22  4  6
41  43  8
42  45  8
42  46  8
43  44  8
43  47  8
44  45  8
46  47  8
48  49  8
48  50  8
49  51  8
28  5  5
50  52  8
51  53  8
52  53  8
23  6  3
24  7  3
25  8  3

$$$$
