181681
  -OEChem-09172012583D

 52 55  0     1  0  0  0  0  0999 V2000
    1.2543    1.4573   -2.3466 O   0  0  0  0  0  0  0  0  0  0  0  0
   -1.9938    2.8550   -0.4223 O   0  0  0  0  0  0  0  0  0  0  0  0
    4.2442   -2.2742   -1.3203 O   0  0  0  0  0  0  0  0  0  0  0  0
    4.0384    0.0518    2.8615 O   0  0  0  0  0  0  0  0  0  0  0  0
   -4.5676   -2.6420   -0.2681 O   0  0  0  0  0  0  0  0  0  0  0  0
    5.0128   -2.0411    1.3305 O   0  0  0  0  0  0  0  0  0  0  0  0
   -5.5078   -1.7022    2.1725 O   0  0  0  0  0  0  0  0  0  0  0  0
    0.0947    1.7387   -0.2845 C   0  0  1  0  0  0  0  0  0  0  0  0
   -0.7845    0.9700   -1.2354 C   0  0  1  0  0  0  0  0  0  0  0  0
    1.4648    1.7468   -0.9506 C   0  0  1  0  0  0  0  0  0  0  0  0
   -2.1732    1.5655   -1.0403 C   0  0  1  0  0  0  0  0  0  0  0  0
   -0.1499    1.2859   -2.5825 C   0  0  0  0  0  0  0  0  0  0  0  0
   -0.5916    3.0967   -0.2437 C   0  0  0  0  0  0  0  0  0  0  0  0
    2.4121    0.7353   -0.3415 C   0  0  0  0  0  0  0  0  0  0  0  0
   -3.0636    0.6903   -0.1842 C   0  0  0  0  0  0  0  0  0  0  0  0
    2.7982    0.8546    0.9947 C   0  0  0  0  0  0  0  0  0  0  0  0
    2.9017   -0.3189   -1.1146 C   0  0  0  0  0  0  0  0  0  0  0  0
   -3.4126   -0.5893   -0.6193 C   0  0  0  0  0  0  0  0  0  0  0  0
   -3.5374    1.1610    1.0414 C   0  0  0  0  0  0  0  0  0  0  0  0
    3.7746   -1.2509   -0.5533 C   0  0  0  0  0  0  0  0  0  0  0  0
    3.6712   -0.0774    1.5560 C   0  0  0  0  0  0  0  0  0  0  0  0
   -4.2331   -1.3959    0.1691 C   0  0  0  0  0  0  0  0  0  0  0  0
   -4.3580    0.3544    1.8298 C   0  0  0  0  0  0  0  0  0  0  0  0
    4.1595   -1.1301    0.7819 C   0  0  0  0  0  0  0  0  0  0  0  0
   -4.7059   -0.9240    1.3936 C   0  0  0  0  0  0  0  0  0  0  0  0
    3.8015   -2.3247   -2.6751 C   0  0  0  0  0  0  0  0  0  0  0  0
    3.4939    1.1558    3.5816 C   0  0  0  0  0  0  0  0  0  0  0  0
   -4.0428   -3.0485   -1.5304 C   0  0  0  0  0  0  0  0  0  0  0  0
    0.0718    1.3013    0.7203 H   0  0  0  0  0  0  0  0  0  0  0  0
   -0.7149   -0.1092   -1.0572 H   0  0  0  0  0  0  0  0  0  0  0  0
    1.9436    2.7315   -0.8880 H   0  0  0  0  0  0  0  0  0  0  0  0
   -2.6860    1.7280   -1.9961 H   0  0  0  0  0  0  0  0  0  0  0  0
   -0.2996    0.4794   -3.3064 H   0  0  0  0  0  0  0  0  0  0  0  0
   -0.5313    2.2127   -3.0253 H   0  0  0  0  0  0  0  0  0  0  0  0
   -0.4310    3.6099    0.7091 H   0  0  0  0  0  0  0  0  0  0  0  0
   -0.2612    3.7644   -1.0472 H   0  0  0  0  0  0  0  0  0  0  0  0
    2.3940    1.6980    1.5444 H   0  0  0  0  0  0  0  0  0  0  0  0
    2.5833   -0.3879   -2.1465 H   0  0  0  0  0  0  0  0  0  0  0  0
   -3.0234   -0.8989   -1.5836 H   0  0  0  0  0  0  0  0  0  0  0  0
   -3.2882    2.1485    1.4178 H   0  0  0  0  0  0  0  0  0  0  0  0
   -4.7228    0.7272    2.7831 H   0  0  0  0  0  0  0  0  0  0  0  0
    5.1652   -1.7976    2.2602 H   0  0  0  0  0  0  0  0  0  0  0  0
   -5.6452   -2.5512    1.7174 H   0  0  0  0  0  0  0  0  0  0  0  0
    4.2731   -3.2000   -3.1342 H   0  0  0  0  0  0  0  0  0  0  0  0
    4.1378   -1.4510   -3.2438 H   0  0  0  0  0  0  0  0  0  0  0  0
    2.7190   -2.4786   -2.7419 H   0  0  0  0  0  0  0  0  0  0  0  0
    2.4035    1.0884    3.6611 H   0  0  0  0  0  0  0  0  0  0  0  0
    3.8243    2.1130    3.1639 H   0  0  0  0  0  0  0  0  0  0  0  0
    3.8898    1.1015    4.6012 H   0  0  0  0  0  0  0  0  0  0  0  0
   -2.9488   -3.1011   -1.5154 H   0  0  0  0  0  0  0  0  0  0  0  0
   -4.4199   -2.4211   -2.3453 H   0  0  0  0  0  0  0  0  0  0  0  0
   -4.4064   -4.0642   -1.7181 H   0  0  0  0  0  0  0  0  0  0  0  0
  1 10  1  0  0  0  0
  1 12  1  0  0  0  0
  2 11  1  0  0  0  0
  2 13  1  0  0  0  0
  3 20  1  0  0  0  0
  3 26  1  0  0  0  0
  4 21  1  0  0  0  0
  4 27  1  0  0  0  0
  5 22  1  0  0  0  0
  5 28  1  0  0  0  0
  6 24  1  0  0  0  0
  6 42  1  0  0  0  0
  7 25  1  0  0  0  0
  7 43  1  0  0  0  0
  8  9  1  0  0  0  0
  8 10  1  0  0  0  0
  8 13  1  0  0  0  0
  8 29  1  0  0  0  0
  9 11  1  0  0  0  0
  9 12  1  0  0  0  0
  9 30  1  0  0  0  0
 10 14  1  0  0  0  0
 10 31  1  0  0  0  0
 11 15  1  0  0  0  0
 11 32  1  0  0  0  0
 12 33  1  0  0  0  0
 12 34  1  0  0  0  0
 13 35  1  0  0  0  0
 13 36  1  0  0  0  0
 14 16  2  0  0  0  0
 14 17  1  0  0  0  0
 15 18  2  0  0  0  0
 15 19  1  0  0  0  0
 16 21  1  0  0  0  0
 16 37  1  0  0  0  0
 17 20  2  0  0  0  0
 17 38  1  0  0  0  0
 18 22  1  0  0  0  0
 18 39  1  0  0  0  0
 19 23  2  0  0  0  0
 19 40  1  0  0  0  0
 20 24  1  0  0  0  0
 21 24  2  0  0  0  0
 22 25  2  0  0  0  0
 23 25  1  0  0  0  0
 23 41  1  0  0  0  0
 26 44  1  0  0  0  0
 26 45  1  0  0  0  0
 26 46  1  0  0  0  0
 27 47  1  0  0  0  0
 27 48  1  0  0  0  0
 27 49  1  0  0  0  0
 28 50  1  0  0  0  0
 28 51  1  0  0  0  0
 28 52  1  0  0  0  0
M  END
> <PUBCHEM_COMPOUND_CID>
181681

> <PUBCHEM_CONFORMER_RMSD>
0.8

> <PUBCHEM_CONFORMER_DIVERSEORDER>
34
10
14
22
16
3
29
32
5
28
33
1
27
24
9
7
20
2
6
31
21
19
8
4
23
25
13
30
15
17
11
18
26
35
12

> <PUBCHEM_MMFF94_PARTIAL_CHARGES>
33
1 -0.56
10 0.42
11 0.42
12 0.28
13 0.28
14 -0.14
15 -0.14
16 -0.15
17 -0.15
18 -0.15
19 -0.15
2 -0.56
20 0.08
21 0.08
22 0.08
23 -0.15
24 0.08
25 0.08
26 0.28
27 0.28
28 0.28
3 -0.36
37 0.15
38 0.15
39 0.15
4 -0.36
40 0.15
41 0.15
42 0.45
43 0.45
5 -0.36
6 -0.53
7 -0.53

> <PUBCHEM_EFFECTIVE_ROTOR_COUNT>
6.2

> <PUBCHEM_PHARMACOPHORE_FEATURES>
11
1 1 acceptor
1 2 acceptor
1 3 acceptor
1 4 acceptor
1 5 acceptor
1 6 donor
1 7 donor
5 1 8 9 10 12 rings
5 2 8 9 11 13 rings
6 14 16 17 20 21 24 rings
6 15 18 19 22 23 25 rings

> <PUBCHEM_HEAVY_ATOM_COUNT>
28

> <PUBCHEM_ATOM_DEF_STEREO_COUNT>
4

> <PUBCHEM_ATOM_UDEF_STEREO_COUNT>
0

> <PUBCHEM_BOND_DEF_STEREO_COUNT>
0

> <PUBCHEM_BOND_UDEF_STEREO_COUNT>
0

> <PUBCHEM_ISOTOPIC_ATOM_COUNT>
0

> <PUBCHEM_COMPONENT_COUNT>
1

> <PUBCHEM_CACTVS_TAUTO_COUNT>
6

> <PUBCHEM_CONFORMER_ID>
0002C5B100000022

> <PUBCHEM_MMFF94_ENERGY>
115.1435

> <PUBCHEM_FEATURE_SELFOVERLAP>
56.233

> <PUBCHEM_SHAPE_FINGERPRINT>
10042902 136 18338248131777998502
10498660 4 9151173125898278479
10622 236 15431420751604421216
10842051 180 16766725138826804197
10928967 22 18259709994900271427
11135609 201 15766931455159126370
11370993 144 17488745566875576745
11720765 8 12542065886759259552
11796584 16 17967255295395962285
12422481 6 18200052689401454027
12553582 1 17894636945842471531
12633257 1 17203325619711680185
12892183 10 17417807396013040665
13103583 49 18201729431099758977
13544653 18 18186518834517628357
13583140 156 17560507426619315688
13828863 39 16484989513488896312
13887833 79 13334728029494611587
13911987 19 14348091839298308086
13965767 371 14979668867476485176
14187579 7 12035449467242888719
14848178 5 17967801778191309835
14848178 96 10735883862954823935
14950920 106 17418093208801478987
15163728 17 9871474261232583657
15342816 4 17458346334121543996
15537594 2 17096103384717750553
15669420 48 13625250986253624691
17809404 112 18118933993456649007
1813 80 17822020817151615949
193927 3 18186812378378418253
20775530 9 17894911853888110929
21033648 144 11892495329259662510
21756936 100 14188431837412480928
21968339 14 13262682565082851990
23559900 14 18340207380269070932
238 59 13623534528591749048
341906 21 10951468376594050678
3459 110 17560222726069197411
3737641 26 18123767369516707262
38570 142 16485556845042410032
4017518 198 15007761174617149210
44062 13 17385997343953809397
46194498 28 14274596169813489791
474 4 13614248070320763837
56633871 153 18272104807351012887
7970288 3 17894638040985961739
960060 61 15719397252049029943
9849439 229 12823293485911461667

> <PUBCHEM_SHAPE_MULTIPOLES>
535.14
11.88
3.2
2.91
3.66
1.72
0.88
7.68
8.56
0.29
-0.8
-1.7
-0.95
2.21

> <PUBCHEM_SHAPE_SELFOVERLAP>
1167.988

> <PUBCHEM_SHAPE_VOLUME>
294.5

> <PUBCHEM_COORDINATE_TYPE>
2
5
10

$$$$
