193323
  -OEChem-09172012433D

 51 52  0     1  0  0  0  0  0999 V2000
   -1.5139   -1.9107    0.6290 O   0  0  0  0  0  0  0  0  0  0  0  0
   -4.0378   -0.5231   -1.6522 O   0  0  0  0  0  0  0  0  0  0  0  0
   -3.8985   -3.3797    0.3751 O   0  0  0  0  0  0  0  0  0  0  0  0
   -0.0436    2.8190   -1.7308 O   0  0  0  0  0  0  0  0  0  0  0  0
   -0.1271    0.1434    1.8856 O   0  0  0  0  0  0  0  0  0  0  0  0
   -0.7213    4.3266    0.5042 O   0  0  0  0  0  0  0  0  0  0  0  0
    6.5059    0.8205   -1.0417 O   0  0  0  0  0  0  0  0  0  0  0  0
   -2.3175   -1.8306   -0.5502 C   0  0  2  0  0  0  0  0  0  0  0  0
   -3.2640   -0.6195   -0.4538 C   0  0  1  0  0  0  0  0  0  0  0  0
   -2.5798    0.7067   -0.1997 C   0  0  0  0  0  0  0  0  0  0  0  0
   -3.0500   -3.1552   -0.7468 C   0  0  0  0  0  0  0  0  0  0  0  0
   -1.6196    1.1526   -1.0908 C   0  0  0  0  0  0  0  0  0  0  0  0
   -2.9299    1.4434    0.9180 C   0  0  0  0  0  0  0  0  0  0  0  0
   -0.1642   -1.7775    0.4579 C   0  0  0  0  0  0  0  0  0  0  0  0
   -0.9894    2.3749   -0.8569 C   0  0  0  0  0  0  0  0  0  0  0  0
   -2.2995    2.6655    1.1521 C   0  0  0  0  0  0  0  0  0  0  0  0
    0.5270   -0.7460    1.0880 C   0  0  0  0  0  0  0  0  0  0  0  0
   -1.3294    3.1313    0.2647 C   0  0  0  0  0  0  0  0  0  0  0  0
    0.5120   -2.6838   -0.3548 C   0  0  0  0  0  0  0  0  0  0  0  0
    1.9041   -0.6200    0.9042 C   0  0  0  0  0  0  0  0  0  0  0  0
    2.5851   -1.5257    0.0908 C   0  0  0  0  0  0  0  0  0  0  0  0
    1.8890   -2.5577   -0.5387 C   0  0  0  0  0  0  0  0  0  0  0  0
    4.0207   -1.3941   -0.1011 C   0  0  0  0  0  0  0  0  0  0  0  0
    1.3064    2.4375   -1.4739 C   0  0  0  0  0  0  0  0  0  0  0  0
    0.6569    1.1688    2.4924 C   0  0  0  0  0  0  0  0  0  0  0  0
    4.7494   -0.2748    0.1132 C   0  0  0  0  0  0  0  0  0  0  0  0
    6.2291   -0.1917   -0.0840 C   0  0  0  0  0  0  0  0  0  0  0  0
   -1.6935   -1.6983   -1.4458 H   0  0  0  0  0  0  0  0  0  0  0  0
   -3.9721   -0.7923    0.3670 H   0  0  0  0  0  0  0  0  0  0  0  0
   -3.6538   -3.1617   -1.6586 H   0  0  0  0  0  0  0  0  0  0  0  0
   -2.3415   -3.9880   -0.7891 H   0  0  0  0  0  0  0  0  0  0  0  0
   -1.3548    0.5739   -1.9712 H   0  0  0  0  0  0  0  0  0  0  0  0
   -3.6824    1.0922    1.6178 H   0  0  0  0  0  0  0  0  0  0  0  0
   -4.6998   -1.2345   -1.6360 H   0  0  0  0  0  0  0  0  0  0  0  0
   -2.5728    3.2440    2.0305 H   0  0  0  0  0  0  0  0  0  0  0  0
   -0.0099   -3.5001   -0.8446 H   0  0  0  0  0  0  0  0  0  0  0  0
    2.4719    0.1548    1.4030 H   0  0  0  0  0  0  0  0  0  0  0  0
   -4.3466   -4.2299    0.2272 H   0  0  0  0  0  0  0  0  0  0  0  0
    2.4030   -3.2738   -1.1755 H   0  0  0  0  0  0  0  0  0  0  0  0
    4.5361   -2.2866   -0.4500 H   0  0  0  0  0  0  0  0  0  0  0  0
   -1.0789    4.7047    1.3258 H   0  0  0  0  0  0  0  0  0  0  0  0
    1.4134    1.3502   -1.5329 H   0  0  0  0  0  0  0  0  0  0  0  0
    1.6319    2.7978   -0.4934 H   0  0  0  0  0  0  0  0  0  0  0  0
    1.9416    2.8912   -2.2396 H   0  0  0  0  0  0  0  0  0  0  0  0
    4.2805    0.6496    0.4374 H   0  0  0  0  0  0  0  0  0  0  0  0
    1.1182    1.8263    1.7489 H   0  0  0  0  0  0  0  0  0  0  0  0
    1.3906    0.7525    3.1914 H   0  0  0  0  0  0  0  0  0  0  0  0
   -0.0231    1.7873    3.0874 H   0  0  0  0  0  0  0  0  0  0  0  0
    6.6643   -1.1334   -0.4327 H   0  0  0  0  0  0  0  0  0  0  0  0
    6.7156    0.0841    0.8563 H   0  0  0  0  0  0  0  0  0  0  0  0
    6.1097    0.5446   -1.8861 H   0  0  0  0  0  0  0  0  0  0  0  0
  1  8  1  0  0  0  0
  1 14  1  0  0  0  0
  2  9  1  0  0  0  0
  2 34  1  0  0  0  0
  3 11  1  0  0  0  0
  3 38  1  0  0  0  0
  4 15  1  0  0  0  0
  4 24  1  0  0  0  0
  5 17  1  0  0  0  0
  5 25  1  0  0  0  0
  6 18  1  0  0  0  0
  6 41  1  0  0  0  0
  7 27  1  0  0  0  0
  7 51  1  0  0  0  0
  8  9  1  0  0  0  0
  8 11  1  0  0  0  0
  8 28  1  0  0  0  0
  9 10  1  0  0  0  0
  9 29  1  0  0  0  0
 10 12  2  0  0  0  0
 10 13  1  0  0  0  0
 11 30  1  0  0  0  0
 11 31  1  0  0  0  0
 12 15  1  0  0  0  0
 12 32  1  0  0  0  0
 13 16  2  0  0  0  0
 13 33  1  0  0  0  0
 14 17  2  0  0  0  0
 14 19  1  0  0  0  0
 15 18  2  0  0  0  0
 16 18  1  0  0  0  0
 16 35  1  0  0  0  0
 17 20  1  0  0  0  0
 19 22  2  0  0  0  0
 19 36  1  0  0  0  0
 20 21  2  0  0  0  0
 20 37  1  0  0  0  0
 21 22  1  0  0  0  0
 21 23  1  0  0  0  0
 22 39  1  0  0  0  0
 23 26  2  3  0  0  0
 23 40  1  0  0  0  0
 24 42  1  0  0  0  0
 24 43  1  0  0  0  0
 24 44  1  0  0  0  0
 25 46  1  0  0  0  0
 25 47  1  0  0  0  0
 25 48  1  0  0  0  0
 26 27  1  0  0  0  0
 26 45  1  0  0  0  0
 27 49  1  0  0  0  0
 27 50  1  0  0  0  0
M  END
> <PUBCHEM_COMPOUND_CID>
193323

> <PUBCHEM_CONFORMER_RMSD>
1

> <PUBCHEM_CONFORMER_DIVERSEORDER>
1
80
82
111
38
59
134
21
116
90
71
3
95
108
45
78
129
50
99
40
32
62
74
52
136
100
35
49
9
101
14
130
30
120
86
92
94
123
53
37
46
26
61
84
64
68
98
103
47
107
133
117
115
131
76
4
57
65
75
121
112
118
91
55
124
39
10
126
23
119
88
132
110
67
2
29
93
27
105
102
63
20
104
54
89
51
15
66
22
6
87
137
36
34
85
122
48
127
77
44
135
97
114
28
25
5
42
60
72
73
12
11
128
16
8
24
70
81
31
79
13
17
58
7
96
113
43
69
83
56
18
106
33
125
19
41
109

> <PUBCHEM_MMFF94_PARTIAL_CHARGES>
39
1 -0.36
10 -0.14
11 0.28
12 -0.15
13 -0.15
14 0.08
15 0.08
16 -0.15
17 0.08
18 0.08
19 -0.15
2 -0.68
20 -0.15
21 0.03
22 -0.15
23 -0.18
24 0.28
25 0.28
26 -0.29
27 0.42
3 -0.68
32 0.15
33 0.15
34 0.4
35 0.15
36 0.15
37 0.15
38 0.4
39 0.15
4 -0.36
40 0.15
41 0.45
45 0.15
5 -0.36
51 0.4
6 -0.53
7 -0.68
8 0.28
9 0.42

> <PUBCHEM_EFFECTIVE_ROTOR_COUNT>
9

> <PUBCHEM_PHARMACOPHORE_FEATURES>
12
1 1 acceptor
1 2 acceptor
1 2 donor
1 3 acceptor
1 3 donor
1 4 acceptor
1 5 acceptor
1 6 donor
1 7 acceptor
1 7 donor
6 10 12 13 15 16 18 rings
6 14 17 19 20 21 22 rings

> <PUBCHEM_HEAVY_ATOM_COUNT>
27

> <PUBCHEM_ATOM_DEF_STEREO_COUNT>
0

> <PUBCHEM_ATOM_UDEF_STEREO_COUNT>
0

> <PUBCHEM_BOND_DEF_STEREO_COUNT>
0

> <PUBCHEM_BOND_UDEF_STEREO_COUNT>
1

> <PUBCHEM_ISOTOPIC_ATOM_COUNT>
0

> <PUBCHEM_COMPONENT_COUNT>
1

> <PUBCHEM_CACTVS_TAUTO_COUNT>
3

> <PUBCHEM_CONFORMER_ID>
0002F32B00000001

> <PUBCHEM_MMFF94_ENERGY>
99.4956

> <PUBCHEM_FEATURE_SELFOVERLAP>
60.908

> <PUBCHEM_SHAPE_FINGERPRINT>
10165383 225 17623290472773721489
10498660 4 17972871471714471367
10670039 82 18335996311575815982
10871710 139 18263078825597339309
1100329 8 18409171043407383363
12156800 1 16626916553271544265
12173636 292 17837484151058268989
128993 33 17545314181794264153
13583140 156 16955351461098660466
14713325 29 18411985732591929930
14790565 3 17694788423951865345
14955137 171 18194968671903670723
15324884 4 17839994641253037755
17357779 13 18199727267828727935
17492 54 18114173125409463420
20775438 99 16756598726851394591
21623110 236 18261399970400455164
22907989 373 18123447411648316157
23227448 37 18339365158635399716
23557571 272 18411420635065176782
238 59 16171693107113349053
2748010 2 17982138366430944163
2818148 4 18050023361275896099
469060 322 18336000738616713178
5364581 5 7852700450146643558
6287921 2 18049456841946039668
81228 2 18265879299267726099

> <PUBCHEM_SHAPE_MULTIPOLES>
514.56
8.61
4.59
1.56
15.92
1.16
0.38
-1.57
-2.13
-4.05
-0.57
-0.25
0.89
-0.87

> <PUBCHEM_SHAPE_SELFOVERLAP>
1081.935

> <PUBCHEM_SHAPE_VOLUME>
290.8

> <PUBCHEM_COORDINATE_TYPE>
2
5
10

$$$$
