11631864
  -OEChem-09172013113D

 50 52  0     1  0  0  0  0  0999 V2000
    0.3545    3.4267   -2.2590 O   0  0  0  0  0  0  0  0  0  0  0  0
   -3.3257    3.7565    0.9537 O   0  0  0  0  0  0  0  0  0  0  0  0
   -4.0118   -2.8454   -0.1675 O   0  0  0  0  0  0  0  0  0  0  0  0
   -1.7686   -3.4934    1.3390 O   0  0  0  0  0  0  0  0  0  0  0  0
    3.5415   -1.9948   -1.1219 O   0  0  0  0  0  0  0  0  0  0  0  0
    5.4265   -0.9615    0.6396 O   0  0  0  0  0  0  0  0  0  0  0  0
   -0.0219    2.3125   -0.1740 C   0  0  1  0  0  0  0  0  0  0  0  0
   -1.4930    2.7847   -0.2374 C   0  0  1  0  0  0  0  0  0  0  0  0
    0.1123    1.0121    0.6790 C   0  0  1  0  0  0  0  0  0  0  0  0
   -2.3836    1.6996   -0.8583 C   0  0  0  0  0  0  0  0  0  0  0  0
   -0.9885   -0.0178    0.4210 C   0  0  0  0  0  0  0  0  0  0  0  0
   -2.1603    0.3226   -0.2841 C   0  0  0  0  0  0  0  0  0  0  0  0
    0.5499    2.1925   -1.5989 C   0  0  0  0  0  0  0  0  0  0  0  0
   -2.0254    3.2294    1.1314 C   0  0  0  0  0  0  0  0  0  0  0  0
    1.5439    0.4780    0.6658 C   0  0  0  0  0  0  0  0  0  0  0  0
   -0.8994   -1.3049    0.9868 C   0  0  0  0  0  0  0  0  0  0  0  0
   -3.1585   -0.6466   -0.4861 C   0  0  0  0  0  0  0  0  0  0  0  0
    1.8943   -0.5246   -0.2301 C   0  0  0  0  0  0  0  0  0  0  0  0
    2.4797    1.0003    1.5502 C   0  0  0  0  0  0  0  0  0  0  0  0
   -1.9039   -2.2533    0.7913 C   0  0  0  0  0  0  0  0  0  0  0  0
   -3.0291   -1.9275    0.0450 C   0  0  0  0  0  0  0  0  0  0  0  0
    3.2011   -1.0126   -0.2417 C   0  0  0  0  0  0  0  0  0  0  0  0
    3.7863    0.5124    1.5387 C   0  0  0  0  0  0  0  0  0  0  0  0
    4.1470   -0.4940    0.6426 C   0  0  0  0  0  0  0  0  0  0  0  0
   -3.8906   -3.6687   -1.3259 C   0  0  0  0  0  0  0  0  0  0  0  0
    4.0236   -1.5821   -2.3992 C   0  0  0  0  0  0  0  0  0  0  0  0
    0.5552    3.1058    0.3242 H   0  0  0  0  0  0  0  0  0  0  0  0
   -1.5795    3.6678   -0.8845 H   0  0  0  0  0  0  0  0  0  0  0  0
   -0.0755    1.3109    1.7223 H   0  0  0  0  0  0  0  0  0  0  0  0
   -2.1931    1.6432   -1.9376 H   0  0  0  0  0  0  0  0  0  0  0  0
   -3.4407    1.9725   -0.7536 H   0  0  0  0  0  0  0  0  0  0  0  0
    0.0708    1.4013   -2.1819 H   0  0  0  0  0  0  0  0  0  0  0  0
    1.6259    1.9963   -1.5891 H   0  0  0  0  0  0  0  0  0  0  0  0
   -1.3889    4.0132    1.5549 H   0  0  0  0  0  0  0  0  0  0  0  0
   -2.0878    2.4042    1.8463 H   0  0  0  0  0  0  0  0  0  0  0  0
   -0.0403   -1.5709    1.5992 H   0  0  0  0  0  0  0  0  0  0  0  0
   -4.0508   -0.3924   -1.0548 H   0  0  0  0  0  0  0  0  0  0  0  0
    1.1813   -0.9242   -0.9461 H   0  0  0  0  0  0  0  0  0  0  0  0
    2.2107    1.7858    2.2508 H   0  0  0  0  0  0  0  0  0  0  0  0
    0.8417    4.1085   -1.7657 H   0  0  0  0  0  0  0  0  0  0  0  0
   -3.6422    4.0423    1.8276 H   0  0  0  0  0  0  0  0  0  0  0  0
    4.5188    0.9211    2.2295 H   0  0  0  0  0  0  0  0  0  0  0  0
   -0.9238   -3.5393    1.8186 H   0  0  0  0  0  0  0  0  0  0  0  0
   -4.7447   -4.3509   -1.3523 H   0  0  0  0  0  0  0  0  0  0  0  0
   -2.9709   -4.2607   -1.2836 H   0  0  0  0  0  0  0  0  0  0  0  0
   -3.9027   -3.0572   -2.2337 H   0  0  0  0  0  0  0  0  0  0  0  0
    5.4915   -1.6805   -0.0124 H   0  0  0  0  0  0  0  0  0  0  0  0
    4.9183   -0.9601   -2.2948 H   0  0  0  0  0  0  0  0  0  0  0  0
    3.2466   -1.0332   -2.9408 H   0  0  0  0  0  0  0  0  0  0  0  0
    4.2841   -2.4761   -2.9722 H   0  0  0  0  0  0  0  0  0  0  0  0
  1 13  1  0  0  0  0
  1 40  1  0  0  0  0
  2 14  1  0  0  0  0
  2 41  1  0  0  0  0
  3 21  1  0  0  0  0
  3 25  1  0  0  0  0
  4 20  1  0  0  0  0
  4 43  1  0  0  0  0
  5 22  1  0  0  0  0
  5 26  1  0  0  0  0
  6 24  1  0  0  0  0
  6 47  1  0  0  0  0
  7  8  1  0  0  0  0
  7  9  1  0  0  0  0
  7 13  1  0  0  0  0
  7 27  1  0  0  0  0
  8 10  1  0  0  0  0
  8 14  1  0  0  0  0
  8 28  1  0  0  0  0
  9 11  1  0  0  0  0
  9 15  1  0  0  0  0
  9 29  1  0  0  0  0
 10 12  1  0  0  0  0
 10 30  1  0  0  0  0
 10 31  1  0  0  0  0
 11 12  1  0  0  0  0
 11 16  2  0  0  0  0
 12 17  2  0  0  0  0
 13 32  1  0  0  0  0
 13 33  1  0  0  0  0
 14 34  1  0  0  0  0
 14 35  1  0  0  0  0
 15 18  2  0  0  0  0
 15 19  1  0  0  0  0
 16 20  1  0  0  0  0
 16 36  1  0  0  0  0
 17 21  1  0  0  0  0
 17 37  1  0  0  0  0
 18 22  1  0  0  0  0
 18 38  1  0  0  0  0
 19 23  2  0  0  0  0
 19 39  1  0  0  0  0
 20 21  2  0  0  0  0
 22 24  2  0  0  0  0
 23 24  1  0  0  0  0
 23 42  1  0  0  0  0
 25 44  1  0  0  0  0
 25 45  1  0  0  0  0
 25 46  1  0  0  0  0
 26 48  1  0  0  0  0
 26 49  1  0  0  0  0
 26 50  1  0  0  0  0
M  END
> <PUBCHEM_COMPOUND_CID>
11631864

> <PUBCHEM_CONFORMER_RMSD>
0.8

> <PUBCHEM_CONFORMER_DIVERSEORDER>
1
8
11
3
9
4
7
10
5
2
6

> <PUBCHEM_MMFF94_PARTIAL_CHARGES>
33
1 -0.68
10 0.14
11 -0.14
12 -0.14
13 0.28
14 0.28
15 -0.14
16 -0.15
17 -0.15
18 -0.15
19 -0.15
2 -0.68
20 0.08
21 0.08
22 0.08
23 -0.15
24 0.08
25 0.28
26 0.28
3 -0.36
36 0.15
37 0.15
38 0.15
39 0.15
4 -0.53
40 0.4
41 0.4
42 0.15
43 0.45
47 0.45
5 -0.36
6 -0.53
9 0.29

> <PUBCHEM_EFFECTIVE_ROTOR_COUNT>
5.8

> <PUBCHEM_PHARMACOPHORE_FEATURES>
11
1 1 acceptor
1 1 donor
1 2 acceptor
1 2 donor
1 3 acceptor
1 4 donor
1 5 acceptor
1 6 donor
6 11 12 16 17 20 21 rings
6 15 18 19 22 23 24 rings
6 7 8 9 10 11 12 rings

> <PUBCHEM_HEAVY_ATOM_COUNT>
26

> <PUBCHEM_ATOM_DEF_STEREO_COUNT>
3

> <PUBCHEM_ATOM_UDEF_STEREO_COUNT>
0

> <PUBCHEM_BOND_DEF_STEREO_COUNT>
0

> <PUBCHEM_BOND_UDEF_STEREO_COUNT>
0

> <PUBCHEM_ISOTOPIC_ATOM_COUNT>
0

> <PUBCHEM_COMPONENT_COUNT>
1

> <PUBCHEM_CACTVS_TAUTO_COUNT>
26

> <PUBCHEM_CONFORMER_ID>
00B17CF800000001

> <PUBCHEM_MMFF94_ENERGY>
99.41

> <PUBCHEM_FEATURE_SELFOVERLAP>
55.843

> <PUBCHEM_SHAPE_FINGERPRINT>
10165383 225 17689732865223785180
1100329 8 18408882962934969761
11578080 2 16197381349318369217
11582403 64 16254110531789631016
116883 192 18410855503331042435
12160290 23 18260829242023416265
12363563 72 18263643038028708283
12553582 1 18189632685543685690
12633257 1 18193824956572841296
12788726 201 18338249240301417033
13135754 10 17899169107260850163
13140716 1 18191592050040423891
133893 2 17096663173723331804
13583140 156 15626223532773465035
13681431 1 17973727166433247585
13757389 114 18120957026259452548
14790565 3 17764030160110418761
14863182 85 17836364126698102028
14866123 147 18339638928588819195
17357779 13 18267567152088682215
1813 80 18187650244872403007
19141452 34 18272370897554136251
19591789 44 17834396713986045929
20600515 1 17754704407262342057
20642791 13 18340477950038427961
20693207 138 18129105507517618294
20905425 154 17610902670115619669
21452121 199 18192424401479993049
23419403 2 17398060261715417861
23557571 272 18411132563107759674
23558518 356 18409446994550347328
23559900 14 18340753897877850288
3380486 77 17534032397702748347
3729539 64 17044875819477649566
46194498 28 17391607245447256575
463206 1 17907577286973812215
7364860 26 17617371127482190609
7399639 24 17914875755481173512
81228 2 18333732416063391745
9709674 26 18201432533090523990
9925002 15 18187658993494672764
9981440 41 16695771287271124520

> <PUBCHEM_SHAPE_MULTIPOLES>
499.85
7.95
4.66
1.71
6.11
1.01
-0.76
-6.26
-0.3
-5.9
-0.72
1.21
0.18
0.25

> <PUBCHEM_SHAPE_SELFOVERLAP>
1073.308

> <PUBCHEM_SHAPE_VOLUME>
274.8

> <PUBCHEM_COORDINATE_TYPE>
2
5
10

$$$$
