9976812
  -OEChem-09172012563D

 51 53  0     1  0  0  0  0  0999 V2000
    0.1483    0.4066   -0.2453 O   0  0  0  0  0  0  0  0  0  0  0  0
    0.1990   -3.5794   -0.4722 O   0  0  0  0  0  0  0  0  0  0  0  0
   -2.4887   -1.2785    2.7169 O   0  0  0  0  0  0  0  0  0  0  0  0
    4.6990    2.2930    0.5382 O   0  0  0  0  0  0  0  0  0  0  0  0
   -4.7343   -0.0573   -2.0730 O   0  0  0  0  0  0  0  0  0  0  0  0
    6.3835    0.8116   -1.1035 O   0  0  0  0  0  0  0  0  0  0  0  0
   -5.9409    1.9967   -0.6405 O   0  0  0  0  0  0  0  0  0  0  0  0
    0.7457   -1.6412    0.8136 C   0  0  2  0  0  0  0  0  0  0  0  0
   -0.7209   -1.3473    1.1110 C   0  0  2  0  0  0  0  0  0  0  0  0
    0.9852   -0.7561   -0.4142 C   0  0  2  0  0  0  0  0  0  0  0  0
   -0.7886    0.1562    0.8223 C   0  0  2  0  0  0  0  0  0  0  0  0
    1.0460   -3.1125    0.5635 C   0  0  0  0  0  0  0  0  0  0  0  0
   -1.1523   -1.7091    2.5255 C   0  0  0  0  0  0  0  0  0  0  0  0
    2.4224   -0.3355   -0.5958 C   0  0  0  0  0  0  0  0  0  0  0  0
   -2.1610    0.6442    0.4298 C   0  0  0  0  0  0  0  0  0  0  0  0
    2.9089    0.7973    0.0598 C   0  0  0  0  0  0  0  0  0  0  0  0
   -2.8271    0.0657   -0.6524 C   0  0  0  0  0  0  0  0  0  0  0  0
    3.2704   -1.0780   -1.4200 C   0  0  0  0  0  0  0  0  0  0  0  0
   -2.7690    1.6758    1.1479 C   0  0  0  0  0  0  0  0  0  0  0  0
    4.2381    1.1858   -0.1078 C   0  0  0  0  0  0  0  0  0  0  0  0
   -4.0963    0.5166   -1.0151 C   0  0  0  0  0  0  0  0  0  0  0  0
    4.5995   -0.6892   -1.5878 C   0  0  0  0  0  0  0  0  0  0  0  0
   -4.0381    2.1270    0.7850 C   0  0  0  0  0  0  0  0  0  0  0  0
    5.0834    0.4426   -0.9317 C   0  0  0  0  0  0  0  0  0  0  0  0
   -4.7017    1.5475   -0.2963 C   0  0  0  0  0  0  0  0  0  0  0  0
    5.2538    2.1012    1.8381 C   0  0  0  0  0  0  0  0  0  0  0  0
   -5.5642   -1.1837   -1.7960 C   0  0  0  0  0  0  0  0  0  0  0  0
    1.3649   -1.2950    1.6528 H   0  0  0  0  0  0  0  0  0  0  0  0
   -1.3667   -1.8873    0.4100 H   0  0  0  0  0  0  0  0  0  0  0  0
    0.6302   -1.2348   -1.3354 H   0  0  0  0  0  0  0  0  0  0  0  0
   -0.4194    0.7230    1.6871 H   0  0  0  0  0  0  0  0  0  0  0  0
    2.0845   -3.2597    0.2537 H   0  0  0  0  0  0  0  0  0  0  0  0
    0.8765   -3.7165    1.4608 H   0  0  0  0  0  0  0  0  0  0  0  0
   -1.1022   -2.7887    2.6977 H   0  0  0  0  0  0  0  0  0  0  0  0
   -0.5256   -1.2154    3.2750 H   0  0  0  0  0  0  0  0  0  0  0  0
    2.2667    1.3822    0.7134 H   0  0  0  0  0  0  0  0  0  0  0  0
   -2.3612   -0.7258   -1.2342 H   0  0  0  0  0  0  0  0  0  0  0  0
    2.9060   -1.9615   -1.9375 H   0  0  0  0  0  0  0  0  0  0  0  0
   -2.2651    2.1367    1.9932 H   0  0  0  0  0  0  0  0  0  0  0  0
   -0.6467   -3.8400   -0.0698 H   0  0  0  0  0  0  0  0  0  0  0  0
   -3.0479   -1.7626    2.0854 H   0  0  0  0  0  0  0  0  0  0  0  0
    5.2528   -1.2725   -2.2310 H   0  0  0  0  0  0  0  0  0  0  0  0
   -4.5045    2.9302    1.3492 H   0  0  0  0  0  0  0  0  0  0  0  0
    6.5386    1.6357   -0.6108 H   0  0  0  0  0  0  0  0  0  0  0  0
   -6.2357    1.5147   -1.4323 H   0  0  0  0  0  0  0  0  0  0  0  0
    5.6097    3.0679    2.2046 H   0  0  0  0  0  0  0  0  0  0  0  0
    6.0999    1.4077    1.8015 H   0  0  0  0  0  0  0  0  0  0  0  0
    4.4904    1.7253    2.5266 H   0  0  0  0  0  0  0  0  0  0  0  0
   -6.3537   -0.9197   -1.0853 H   0  0  0  0  0  0  0  0  0  0  0  0
   -4.9653   -2.0104   -1.4008 H   0  0  0  0  0  0  0  0  0  0  0  0
   -6.0293   -1.5050   -2.7319 H   0  0  0  0  0  0  0  0  0  0  0  0
  1 10  1  0  0  0  0
  1 11  1  0  0  0  0
  2 12  1  0  0  0  0
  2 40  1  0  0  0  0
  3 13  1  0  0  0  0
  3 41  1  0  0  0  0
  4 20  1  0  0  0  0
  4 26  1  0  0  0  0
  5 21  1  0  0  0  0
  5 27  1  0  0  0  0
  6 24  1  0  0  0  0
  6 44  1  0  0  0  0
  7 25  1  0  0  0  0
  7 45  1  0  0  0  0
  8  9  1  0  0  0  0
  8 10  1  0  0  0  0
  8 12  1  0  0  0  0
  8 28  1  0  0  0  0
  9 11  1  0  0  0  0
  9 13  1  0  0  0  0
  9 29  1  0  0  0  0
 10 14  1  0  0  0  0
 10 30  1  0  0  0  0
 11 15  1  0  0  0  0
 11 31  1  0  0  0  0
 12 32  1  0  0  0  0
 12 33  1  0  0  0  0
 13 34  1  0  0  0  0
 13 35  1  0  0  0  0
 14 16  2  0  0  0  0
 14 18  1  0  0  0  0
 15 17  2  0  0  0  0
 15 19  1  0  0  0  0
 16 20  1  0  0  0  0
 16 36  1  0  0  0  0
 17 21  1  0  0  0  0
 17 37  1  0  0  0  0
 18 22  2  0  0  0  0
 18 38  1  0  0  0  0
 19 23  2  0  0  0  0
 19 39  1  0  0  0  0
 20 24  2  0  0  0  0
 21 25  2  0  0  0  0
 22 24  1  0  0  0  0
 22 42  1  0  0  0  0
 23 25  1  0  0  0  0
 23 43  1  0  0  0  0
 26 46  1  0  0  0  0
 26 47  1  0  0  0  0
 26 48  1  0  0  0  0
 27 49  1  0  0  0  0
 27 50  1  0  0  0  0
 27 51  1  0  0  0  0
M  END
> <PUBCHEM_COMPOUND_CID>
9976812

> <PUBCHEM_CONFORMER_RMSD>
0.8

> <PUBCHEM_CONFORMER_DIVERSEORDER>
1
47
35
50
15
5
37
6
43
52
28
49
31
17
44
46
19
48
34
7
18
45
27
36
51
33
20
32
38
26
3
24
41
22
10
11
13
8
39
40
21
23
9
29
14
25
4
42
30
16
2
12

> <PUBCHEM_MMFF94_PARTIAL_CHARGES>
35
1 -0.56
10 0.42
11 0.42
12 0.28
13 0.28
14 -0.14
15 -0.14
16 -0.15
17 -0.15
18 -0.15
19 -0.15
2 -0.68
20 0.08
21 0.08
22 -0.15
23 -0.15
24 0.08
25 0.08
26 0.28
27 0.28
3 -0.68
36 0.15
37 0.15
38 0.15
39 0.15
4 -0.36
40 0.4
41 0.4
42 0.15
43 0.15
44 0.45
45 0.45
5 -0.36
6 -0.53
7 -0.53

> <PUBCHEM_EFFECTIVE_ROTOR_COUNT>
7

> <PUBCHEM_PHARMACOPHORE_FEATURES>
12
1 1 acceptor
1 2 acceptor
1 2 donor
1 3 acceptor
1 3 donor
1 4 acceptor
1 5 acceptor
1 6 donor
1 7 donor
5 1 8 9 10 11 rings
6 14 16 18 20 22 24 rings
6 15 17 19 21 23 25 rings

> <PUBCHEM_HEAVY_ATOM_COUNT>
27

> <PUBCHEM_ATOM_DEF_STEREO_COUNT>
4

> <PUBCHEM_ATOM_UDEF_STEREO_COUNT>
0

> <PUBCHEM_BOND_DEF_STEREO_COUNT>
0

> <PUBCHEM_BOND_UDEF_STEREO_COUNT>
0

> <PUBCHEM_ISOTOPIC_ATOM_COUNT>
0

> <PUBCHEM_COMPONENT_COUNT>
1

> <PUBCHEM_CACTVS_TAUTO_COUNT>
5

> <PUBCHEM_CONFORMER_ID>
00983BEC00000001

> <PUBCHEM_MMFF94_ENERGY>
97.0437

> <PUBCHEM_FEATURE_SELFOVERLAP>
60.9

> <PUBCHEM_SHAPE_FINGERPRINT>
105312 117 17603873294911036807
10595046 47 17847059982291918892
10692045 39 17459170912070832432
10764073 3 12903479704667398187
11089746 13 18413107247864164164
11331351 85 16967442695806381626
11543360 7 17632577128090683053
12403259 415 18336845168268495210
12422481 6 13046211767265880218
12633257 1 16660371397595813252
12730499 353 18263657190309529739
12892183 10 13118003292401324108
12969540 114 18411706499466497082
13540713 4 17824007574407436331
13544653 18 10375866355646117058
13583140 156 17241049919722213688
13631057 29 18337386158555863879
14251757 5 16629953438662921255
14251764 30 13110960954917215069
14528608 73 18342173349644826972
173720 79 16950553419956572899
1813 80 11239996767520249762
18222031 100 12175612988820993733
20554085 129 18335127679455883040
21033648 144 18040719134319084102
21033648 29 18338241561132052608
22182313 1 18190767330204441906
22393880 68 18201996586687224781
22950370 63 9295290573053332288
23559900 14 18041574563720202342
2838139 119 18410573968283221196
3117164 225 11169909468402458863
3380486 145 17256254168438146139
4371632 12 16341719854624625448
474 4 18335427850098327893
495365 180 18337390448848156842
67856867 119 18267854004317111082
7495541 125 15626214723995409276
7918774 8 12319734799472942757
9981440 41 18335978744183908723

> <PUBCHEM_SHAPE_MULTIPOLES>
514.56
13.38
2.81
2.01
2.4
1.26
-0.78
-8.76
6.27
0.24
-0.95
-0.9
0.7
0.86

> <PUBCHEM_SHAPE_SELFOVERLAP>
1101.531

> <PUBCHEM_SHAPE_VOLUME>
286.8

> <PUBCHEM_COORDINATE_TYPE>
2
5
10

$$$$
