13886890
  -OEChem-09172013483D

 40 40  0     0  0  0  0  0  0999 V2000
    2.1342    2.3385    0.0001 Si  0  0  0  0  0  0  0  0  0  0  0  0
   -3.5489    0.3524   -0.0003 Si  0  0  0  0  0  0  0  0  0  0  0  0
    0.7377    1.4162    0.0002 O   0  0  0  0  0  0  0  0  0  0  0  0
   -1.8869    0.5019    0.0002 O   0  0  0  0  0  0  0  0  0  0  0  0
    3.5598   -2.8630   -0.0013 O   0  0  0  0  0  0  0  0  0  0  0  0
    0.4699    0.0806    0.0001 C   0  0  0  0  0  0  0  0  0  0  0  0
   -0.8420   -0.3828    0.0008 C   0  0  0  0  0  0  0  0  0  0  0  0
    1.6862    4.1720    0.0004 C   0  0  0  0  0  0  0  0  0  0  0  0
    3.1751    2.0073    1.5302 C   0  0  0  0  0  0  0  0  0  0  0  0
    3.1751    2.0083   -1.5302 C   0  0  0  0  0  0  0  0  0  0  0  0
   -4.3371    2.0674   -0.0010 C   0  0  0  0  0  0  0  0  0  0  0  0
   -4.1581   -0.5540   -1.5305 C   0  0  0  0  0  0  0  0  0  0  0  0
   -4.1599   -0.5529    1.5298 C   0  0  0  0  0  0  0  0  0  0  0  0
    1.5258   -0.8309   -0.0002 C   0  0  0  0  0  0  0  0  0  0  0  0
   -1.1085   -1.7484    0.0011 C   0  0  0  0  0  0  0  0  0  0  0  0
    1.2647   -2.2010   -0.0002 C   0  0  0  0  0  0  0  0  0  0  0  0
   -0.0526   -2.6599    0.0005 C   0  0  0  0  0  0  0  0  0  0  0  0
    2.3655   -3.1514    0.0004 C   0  0  0  0  0  0  0  0  0  0  0  0
    1.0970    4.4204    0.8879 H   0  0  0  0  0  0  0  0  0  0  0  0
    2.5901    4.7880    0.0004 H   0  0  0  0  0  0  0  0  0  0  0  0
    1.0970    4.4207   -0.8871 H   0  0  0  0  0  0  0  0  0  0  0  0
    2.5839    2.1698    2.4363 H   0  0  0  0  0  0  0  0  0  0  0  0
    3.5501    0.9807    1.5457 H   0  0  0  0  0  0  0  0  0  0  0  0
    4.0360    2.6821    1.5586 H   0  0  0  0  0  0  0  0  0  0  0  0
    4.0361    2.6829   -1.5581 H   0  0  0  0  0  0  0  0  0  0  0  0
    3.5501    0.9816   -1.5464 H   0  0  0  0  0  0  0  0  0  0  0  0
    2.5839    2.1714   -2.4362 H   0  0  0  0  0  0  0  0  0  0  0  0
   -4.0295    2.6280   -0.8885 H   0  0  0  0  0  0  0  0  0  0  0  0
   -5.4282    1.9883   -0.0015 H   0  0  0  0  0  0  0  0  0  0  0  0
   -4.0303    2.6284    0.8864 H   0  0  0  0  0  0  0  0  0  0  0  0
   -3.7963   -0.0589   -2.4365 H   0  0  0  0  0  0  0  0  0  0  0  0
   -3.8133   -1.5911   -1.5462 H   0  0  0  0  0  0  0  0  0  0  0  0
   -5.2519   -0.5611   -1.5588 H   0  0  0  0  0  0  0  0  0  0  0  0
   -5.2538   -0.5600    1.5568 H   0  0  0  0  0  0  0  0  0  0  0  0
   -3.8151   -1.5901    1.5467 H   0  0  0  0  0  0  0  0  0  0  0  0
   -3.7992   -0.0572    2.4359 H   0  0  0  0  0  0  0  0  0  0  0  0
    2.5600   -0.5066   -0.0005 H   0  0  0  0  0  0  0  0  0  0  0  0
   -2.1116   -2.1577    0.0016 H   0  0  0  0  0  0  0  0  0  0  0  0
   -0.2724   -3.7245    0.0007 H   0  0  0  0  0  0  0  0  0  0  0  0
    2.0687   -4.2149    0.0016 H   0  0  0  0  0  0  0  0  0  0  0  0
  1  3  1  0  0  0  0
  1  8  1  0  0  0  0
  1  9  1  0  0  0  0
  1 10  1  0  0  0  0
  2  4  1  0  0  0  0
  2 11  1  0  0  0  0
  2 12  1  0  0  0  0
  2 13  1  0  0  0  0
  3  6  1  0  0  0  0
  4  7  1  0  0  0  0
  5 18  2  0  0  0  0
  6  7  2  0  0  0  0
  6 14  1  0  0  0  0
  7 15  1  0  0  0  0
  8 19  1  0  0  0  0
  8 20  1  0  0  0  0
  8 21  1  0  0  0  0
  9 22  1  0  0  0  0
  9 23  1  0  0  0  0
  9 24  1  0  0  0  0
 10 25  1  0  0  0  0
 10 26  1  0  0  0  0
 10 27  1  0  0  0  0
 11 28  1  0  0  0  0
 11 29  1  0  0  0  0
 11 30  1  0  0  0  0
 12 31  1  0  0  0  0
 12 32  1  0  0  0  0
 12 33  1  0  0  0  0
 13 34  1  0  0  0  0
 13 35  1  0  0  0  0
 13 36  1  0  0  0  0
 14 16  2  0  0  0  0
 14 37  1  0  0  0  0
 15 17  2  0  0  0  0
 15 38  1  0  0  0  0
 16 17  1  0  0  0  0
 16 18  1  0  0  0  0
 17 39  1  0  0  0  0
 18 40  1  0  0  0  0
M  END
> <PUBCHEM_COMPOUND_CID>
13886890

> <PUBCHEM_CONFORMER_RMSD>
0.6

> <PUBCHEM_CONFORMER_DIVERSEORDER>
1
62
9
68
56
64
2
57
45
46
44
7
67
55
66
51
47
36
20
43
16
17
58
22
38
41
53
59
31
42
48
24
39
14
29
69
49
25
32
19
15
63
65
33
11
23
35
13
27
50
8
60
40
37
21
54
18
52
26
10
6
3
70
28
12
34
5
4
61
30

> <PUBCHEM_MMFF94_PARTIAL_CHARGES>
22
1 0.54
10 -0.08
11 -0.08
12 -0.08
13 -0.08
14 -0.15
15 -0.15
16 0.09
17 -0.15
18 0.42
2 0.54
3 -0.38
37 0.15
38 0.15
39 0.15
4 -0.38
40 0.06
5 -0.57
6 0.08
7 0.08
8 -0.08
9 -0.08

> <PUBCHEM_EFFECTIVE_ROTOR_COUNT>
5

> <PUBCHEM_PHARMACOPHORE_FEATURES>
2
1 5 acceptor
6 6 7 14 15 16 17 rings

> <PUBCHEM_HEAVY_ATOM_COUNT>
18

> <PUBCHEM_ATOM_DEF_STEREO_COUNT>
0

> <PUBCHEM_ATOM_UDEF_STEREO_COUNT>
0

> <PUBCHEM_BOND_DEF_STEREO_COUNT>
0

> <PUBCHEM_BOND_UDEF_STEREO_COUNT>
0

> <PUBCHEM_ISOTOPIC_ATOM_COUNT>
0

> <PUBCHEM_COMPONENT_COUNT>
1

> <PUBCHEM_CACTVS_TAUTO_COUNT>
1

> <PUBCHEM_CONFORMER_ID>
00D3E5AA00000001

> <PUBCHEM_MMFF94_ENERGY>
35.1712

> <PUBCHEM_FEATURE_SELFOVERLAP>
10.148

> <PUBCHEM_SHAPE_FINGERPRINT>
11582403 64 16914791890437018800
11680986 33 18409448106783242491
11725454 13 16914797396442700232
12173636 292 17833831951197976572
12592029 89 18337683030019152779
12788726 201 17326893972070046067
13134695 92 18265329512850873615
13140716 1 18052260896859859977
138480 1 18266741285770303684
15842332 3 17989771099099691591
16752209 62 17762331818582829278
17134986 127 18265051525445772396
1813 80 17913783716553569630
18186145 218 18057898011418554809
18785283 64 18334866042727123946
19591789 44 18050299355199064539
20510252 161 17476646845787125481
20671657 1 18413106173389078271
21029758 11 18194118508380207742
21041028 32 18122638158215965649
21524375 3 18116703200401822121
221490 88 18335990792005159555
2255824 54 18412261705762792791
23366157 5 18259981574118967674
23402539 116 18054216635940775214
23419403 2 17972293154536844188
23557571 272 16971681897515931316
23559900 14 18337382735271223793
23598291 2 18130221563180089845
2748010 2 18048577253933960644
3071541 12 18410855455864927543
3091708 16 9401545143310104258
312423 11 18272653429224404199
352729 6 17977381960348181761
458136 41 18265349458805414633
474 4 18339918333254175001
58051976 378 18269265932403711085
633830 44 17986126316389956349
6443956 14 18266455408742381892
68521 5 17762622789537247550
7364860 26 18412542098191187530
81228 2 17258509841969154819
84936 182 18272927241447053377
9981440 41 18123174973219473417

> <PUBCHEM_SHAPE_MULTIPOLES>
389.25
7.69
4.53
1.16
6.48
1.05
0
-3.81
0
-5.08
0
0.2
-0.4
0

> <PUBCHEM_SHAPE_SELFOVERLAP>
745.116

> <PUBCHEM_SHAPE_VOLUME>
240.7

> <PUBCHEM_COORDINATE_TYPE>
2
5
10

$$$$
