21674156
  -OEChem-09172014103D

 83 84  0     1  0  0  0  0  0999 V2000
    1.9149    0.9799   -0.2490 O   0  0  0  0  0  0  0  0  0  0  0  0
    4.2026   -1.7925   -0.9029 O   0  0  0  0  0  0  0  0  0  0  0  0
    3.3244    1.0049    2.3068 O   0  0  0  0  0  0  0  0  0  0  0  0
    0.7393   -1.6997   -1.1247 O   0  0  0  0  0  0  0  0  0  0  0  0
    3.1053    0.2156    0.0115 C   0  0  2  0  0  0  0  0  0  0  0  0
    2.2804    2.2606   -0.7977 C   0  0  2  0  0  0  0  0  0  0  0  0
    4.2843    1.0106   -0.5264 C   0  0  0  0  0  0  0  0  0  0  0  0
    2.9825   -1.2589   -0.4187 C   0  0  2  0  0  0  0  0  0  0  0  0
    3.7689    2.4340   -0.5077 C   0  0  0  0  0  0  0  0  0  0  0  0
    1.4370    3.3372   -0.1219 C   0  0  0  0  0  0  0  0  0  0  0  0
    3.0901    0.0967    1.5215 C   0  0  0  0  0  0  0  0  0  0  0  0
    2.6278   -2.0034    0.8489 C   0  0  0  0  0  0  0  0  0  0  0  0
    2.6951   -1.2577    1.9611 C   0  0  0  0  0  0  0  0  0  0  0  0
    1.9887    2.2272   -2.3005 C   0  0  0  0  0  0  0  0  0  0  0  0
   -0.0555    3.1315   -0.3875 C   0  0  0  0  0  0  0  0  0  0  0  0
    1.9088   -1.4972   -1.4475 C   0  0  0  0  0  0  0  0  0  0  0  0
   -0.8942    4.1993    0.3234 C   0  0  0  0  0  0  0  0  0  0  0  0
    2.3211   -3.4686    0.7929 C   0  0  0  0  0  0  0  0  0  0  0  0
    2.4760   -1.5794    3.3913 C   0  0  0  0  0  0  0  0  0  0  0  0
   -2.4095    4.1008    0.0378 C   0  0  1  0  0  0  0  0  0  0  0  0
    2.3365   -1.4729   -2.8900 C   0  0  0  0  0  0  0  0  0  0  0  0
   -2.9839    2.7314    0.4600 C   0  0  0  0  0  0  0  0  0  0  0  0
   -4.4792    2.5707    0.1642 C   0  0  0  0  0  0  0  0  0  0  0  0
   -3.1230    5.2609    0.7420 C   0  0  0  0  0  0  0  0  0  0  0  0
   -5.0487    1.2147    0.6048 C   0  0  0  0  0  0  0  0  0  0  0  0
   -4.3734   -0.0431    0.0099 C   0  0  1  0  0  0  0  0  0  0  0  0
   -4.9323   -1.3394    0.6334 C   0  0  0  0  0  0  0  0  0  0  0  0
   -4.3257   -2.6485    0.1113 C   0  0  0  0  0  0  0  0  0  0  0  0
   -4.5551   -0.0243   -1.5133 C   0  0  0  0  0  0  0  0  0  0  0  0
   -2.8241   -2.8301    0.3650 C   0  0  0  0  0  0  0  0  0  0  0  0
   -2.2284   -4.1775   -0.0853 C   0  0  0  0  0  0  0  0  0  0  0  0
   -2.9807   -5.3268    0.5905 C   0  0  0  0  0  0  0  0  0  0  0  0
   -2.2698   -4.3559   -1.6031 C   0  0  0  0  0  0  0  0  0  0  0  0
    5.1975    0.8924    0.0653 H   0  0  0  0  0  0  0  0  0  0  0  0
    4.5139    0.7239   -1.5586 H   0  0  0  0  0  0  0  0  0  0  0  0
    4.2798    3.0814   -1.2274 H   0  0  0  0  0  0  0  0  0  0  0  0
    3.9286    2.8633    0.4886 H   0  0  0  0  0  0  0  0  0  0  0  0
    1.7436    4.3318   -0.4684 H   0  0  0  0  0  0  0  0  0  0  0  0
    1.6005    3.3048    0.9632 H   0  0  0  0  0  0  0  0  0  0  0  0
    2.0302    3.2290   -2.7411 H   0  0  0  0  0  0  0  0  0  0  0  0
    1.0167    1.7736   -2.5215 H   0  0  0  0  0  0  0  0  0  0  0  0
    2.7219    1.6130   -2.8323 H   0  0  0  0  0  0  0  0  0  0  0  0
   -0.3438    2.1347   -0.0403 H   0  0  0  0  0  0  0  0  0  0  0  0
   -0.2769    3.1915   -1.4578 H   0  0  0  0  0  0  0  0  0  0  0  0
   -0.5387    5.1903    0.0126 H   0  0  0  0  0  0  0  0  0  0  0  0
   -0.7224    4.1294    1.4054 H   0  0  0  0  0  0  0  0  0  0  0  0
    4.0872   -2.7376   -1.0965 H   0  0  0  0  0  0  0  0  0  0  0  0
    3.1406   -4.0218    0.3247 H   0  0  0  0  0  0  0  0  0  0  0  0
    1.4050   -3.6705    0.2323 H   0  0  0  0  0  0  0  0  0  0  0  0
    2.1822   -3.9006    1.7879 H   0  0  0  0  0  0  0  0  0  0  0  0
    1.7022   -0.9289    3.8116 H   0  0  0  0  0  0  0  0  0  0  0  0
    2.1551   -2.6122    3.5468 H   0  0  0  0  0  0  0  0  0  0  0  0
    3.3983   -1.4272    3.9611 H   0  0  0  0  0  0  0  0  0  0  0  0
   -2.5594    4.2206   -1.0432 H   0  0  0  0  0  0  0  0  0  0  0  0
    1.4621   -1.2964   -3.5229 H   0  0  0  0  0  0  0  0  0  0  0  0
    2.7826   -2.4341   -3.1564 H   0  0  0  0  0  0  0  0  0  0  0  0
    3.0517   -0.6681   -3.0684 H   0  0  0  0  0  0  0  0  0  0  0  0
   -2.8018    2.5667    1.5291 H   0  0  0  0  0  0  0  0  0  0  0  0
   -2.4486    1.9491   -0.0838 H   0  0  0  0  0  0  0  0  0  0  0  0
   -4.6696    2.7379   -0.9014 H   0  0  0  0  0  0  0  0  0  0  0  0
   -5.0467    3.3397    0.7002 H   0  0  0  0  0  0  0  0  0  0  0  0
   -2.6431    6.2162    0.5023 H   0  0  0  0  0  0  0  0  0  0  0  0
   -4.1661    5.3429    0.4230 H   0  0  0  0  0  0  0  0  0  0  0  0
   -3.1032    5.1370    1.8299 H   0  0  0  0  0  0  0  0  0  0  0  0
   -4.9774    1.1590    1.6991 H   0  0  0  0  0  0  0  0  0  0  0  0
   -6.1209    1.1967    0.3700 H   0  0  0  0  0  0  0  0  0  0  0  0
   -3.3024   -0.0070    0.2336 H   0  0  0  0  0  0  0  0  0  0  0  0
   -6.0170   -1.3754    0.4679 H   0  0  0  0  0  0  0  0  0  0  0  0
   -4.7894   -1.2988    1.7209 H   0  0  0  0  0  0  0  0  0  0  0  0
   -4.8732   -3.4556    0.6114 H   0  0  0  0  0  0  0  0  0  0  0  0
   -4.5453   -2.7569   -0.9554 H   0  0  0  0  0  0  0  0  0  0  0  0
   -4.0445   -0.8688   -1.9856 H   0  0  0  0  0  0  0  0  0  0  0  0
   -5.6144   -0.0715   -1.7876 H   0  0  0  0  0  0  0  0  0  0  0  0
   -4.1249    0.8757   -1.9621 H   0  0  0  0  0  0  0  0  0  0  0  0
   -2.2707   -2.0276   -0.1372 H   0  0  0  0  0  0  0  0  0  0  0  0
   -2.6347   -2.7059    1.4392 H   0  0  0  0  0  0  0  0  0  0  0  0
   -1.1804   -4.2072    0.2373 H   0  0  0  0  0  0  0  0  0  0  0  0
   -2.4531   -6.2718    0.4186 H   0  0  0  0  0  0  0  0  0  0  0  0
   -3.0414   -5.1770    1.6736 H   0  0  0  0  0  0  0  0  0  0  0  0
   -3.9949   -5.4507    0.1977 H   0  0  0  0  0  0  0  0  0  0  0  0
   -3.2945   -4.4106   -1.9834 H   0  0  0  0  0  0  0  0  0  0  0  0
   -1.7590   -5.2804   -1.8936 H   0  0  0  0  0  0  0  0  0  0  0  0
   -1.7640   -3.5240   -2.1043 H   0  0  0  0  0  0  0  0  0  0  0  0
  1  5  1  0  0  0  0
  1  6  1  0  0  0  0
  2  8  1  0  0  0  0
  2 47  1  0  0  0  0
  3 11  2  0  0  0  0
  4 16  2  0  0  0  0
  5  7  1  0  0  0  0
  5  8  1  0  0  0  0
  5 11  1  0  0  0  0
  6  9  1  0  0  0  0
  6 10  1  0  0  0  0
  6 14  1  0  0  0  0
  7  9  1  0  0  0  0
  7 34  1  0  0  0  0
  7 35  1  0  0  0  0
  8 12  1  0  0  0  0
  8 16  1  0  0  0  0
  9 36  1  0  0  0  0
  9 37  1  0  0  0  0
 10 15  1  0  0  0  0
 10 38  1  0  0  0  0
 10 39  1  0  0  0  0
 11 13  1  0  0  0  0
 12 13  2  0  0  0  0
 12 18  1  0  0  0  0
 13 19  1  0  0  0  0
 14 40  1  0  0  0  0
 14 41  1  0  0  0  0
 14 42  1  0  0  0  0
 15 17  1  0  0  0  0
 15 43  1  0  0  0  0
 15 44  1  0  0  0  0
 16 21  1  0  0  0  0
 17 20  1  0  0  0  0
 17 45  1  0  0  0  0
 17 46  1  0  0  0  0
 18 48  1  0  0  0  0
 18 49  1  0  0  0  0
 18 50  1  0  0  0  0
 19 51  1  0  0  0  0
 19 52  1  0  0  0  0
 19 53  1  0  0  0  0
 20 22  1  0  0  0  0
 20 24  1  0  0  0  0
 20 54  1  0  0  0  0
 21 55  1  0  0  0  0
 21 56  1  0  0  0  0
 21 57  1  0  0  0  0
 22 23  1  0  0  0  0
 22 58  1  0  0  0  0
 22 59  1  0  0  0  0
 23 25  1  0  0  0  0
 23 60  1  0  0  0  0
 23 61  1  0  0  0  0
 24 62  1  0  0  0  0
 24 63  1  0  0  0  0
 24 64  1  0  0  0  0
 25 26  1  0  0  0  0
 25 65  1  0  0  0  0
 25 66  1  0  0  0  0
 26 27  1  0  0  0  0
 26 29  1  0  0  0  0
 26 67  1  0  0  0  0
 27 28  1  0  0  0  0
 27 68  1  0  0  0  0
 27 69  1  0  0  0  0
 28 30  1  0  0  0  0
 28 70  1  0  0  0  0
 28 71  1  0  0  0  0
 29 72  1  0  0  0  0
 29 73  1  0  0  0  0
 29 74  1  0  0  0  0
 30 31  1  0  0  0  0
 30 75  1  0  0  0  0
 30 76  1  0  0  0  0
 31 32  1  0  0  0  0
 31 33  1  0  0  0  0
 31 77  1  0  0  0  0
 32 78  1  0  0  0  0
 32 79  1  0  0  0  0
 32 80  1  0  0  0  0
 33 81  1  0  0  0  0
 33 82  1  0  0  0  0
 33 83  1  0  0  0  0
M  END
> <PUBCHEM_COMPOUND_CID>
21674156

> <PUBCHEM_CONFORMER_RMSD>
1.2

> <PUBCHEM_CONFORMER_DIVERSEORDER>
1
87
60
21
229
189
204
128
115
177
89
244
171
77
41
238
9
236
179
143
31
193
158
237
250
65
13
270
80
274
30
134
154
16
151
17
259
4
132
144
108
119
201
195
169
231
210
216
82
114
242
190
54
196
83
212
191
182
141
173
230
255
184
56
42
23
150
199
12
76
251
103
140
122
48
187
152
73
139
240
161
252
6
172
7
100
99
261
215
225
265
97
157
185
90
254
123
3
239
59
32
124
273
84
198
266
81
70
174
19
133
227
50
135
213
120
180
63
5
163
249
8
109
166
218
71
125
268
211
167
205
224
197
39
222
15
235
57
241
131
164
18
264
262
208
111
138
232
256
220
246
112
52
61
110
247
263
275
181
35
75
118
91
116
202
43
221
78
2
207
267
137
22
92
159
200
155
67
156
98
183
146
47
26
233
188
106
226
11
14
194
162
272
79
51
153
217
258
44
126
64
37
28
209
271
219
257
45
223
68
149
53
130
27
101
160
248
136
10
46
40
175
145
206
69
33
96
38
34
214
113
245
85
25
86
95
203
102
243
29
49
178
129
105
147
253
117
168
66
94
36
186
192
234
142
24
170
104
121
176
62
74
228
148
127
72
20
107
269
165
93
88
58
260
55

> <PUBCHEM_MMFF94_PARTIAL_CHARGES>
15
1 -0.56
11 0.49
12 -0.28
13 -0.12
16 0.45
18 0.14
19 0.14
2 -0.68
21 0.06
3 -0.57
4 -0.57
47 0.4
5 0.34
6 0.28
8 0.48

> <PUBCHEM_EFFECTIVE_ROTOR_COUNT>
14

> <PUBCHEM_PHARMACOPHORE_FEATURES>
10
1 1 acceptor
1 2 acceptor
1 2 donor
1 24 hydrophobe
1 29 hydrophobe
1 3 acceptor
1 4 acceptor
3 31 32 33 hydrophobe
5 1 5 6 7 9 rings
5 5 8 11 12 13 rings

> <PUBCHEM_HEAVY_ATOM_COUNT>
33

> <PUBCHEM_ATOM_DEF_STEREO_COUNT>
5

> <PUBCHEM_ATOM_UDEF_STEREO_COUNT>
0

> <PUBCHEM_BOND_DEF_STEREO_COUNT>
0

> <PUBCHEM_BOND_UDEF_STEREO_COUNT>
0

> <PUBCHEM_ISOTOPIC_ATOM_COUNT>
0

> <PUBCHEM_COMPONENT_COUNT>
1

> <PUBCHEM_CACTVS_TAUTO_COUNT>
6

> <PUBCHEM_CONFORMER_ID>
014AB8AC00000001

> <PUBCHEM_MMFF94_ENERGY>
57.4561

> <PUBCHEM_FEATURE_SELFOVERLAP>
50.765

> <PUBCHEM_SHAPE_FINGERPRINT>
10794284 68 18338223952219436642
10928967 22 17534632507982700825
11513181 2 18269558238992803191
12218070 45 18047165502700273322
14040221 299 17547844158382514762
144659 178 17472424248716988982
15001296 14 18260267422026650097
15320291 9 18193547875305514803
15320467 1 18410862036282313151
20764821 26 18193840340971394229
22121540 332 18059281146292296392
23516275 137 16895432415064422008
3246872 21 18122345941594385489
325973 47 18411704292285778239
4394409 98 17899670403375656509
463206 1 18192439782264412369
5309563 4 17835245923873631789
5895379 119 18410006602955545098
59444896 2 17605009035495809574
636783 35 17546212568499072375
6422251 121 17327175954475591075
6823239 73 17984431745633228516
9961470 85 17041190248454812985

> <PUBCHEM_SHAPE_MULTIPOLES>
655.65
10.36
7.8
2.13
7.83
0.45
-0.36
-0.75
-0.75
8.39
-0.33
-2.56
-1.18
-1.6

> <PUBCHEM_SHAPE_SELFOVERLAP>
1320.103

> <PUBCHEM_SHAPE_VOLUME>
388.6

> <PUBCHEM_COORDINATE_TYPE>
2
5
10

$$$$
