5497165
  -OEChem-09172014062D

116115  0     0  0  0  0  0  0999 V2000
   14.1244    2.2500    0.0000 O   0  0  0  0  0  0  0  0  0  0  0  0
   17.5885    2.2500    0.0000 O   0  0  0  0  0  0  0  0  0  0  0  0
   13.2583    3.7500    0.0000 O   0  0  0  0  0  0  0  0  0  0  0  0
   18.4545    3.7500    0.0000 O   0  0  0  0  0  0  0  0  0  0  0  0
   15.8564    1.2500    0.0000 O   0  0  0  0  0  0  0  0  0  0  0  0
    3.7320   -0.7500    0.0000 C   0  0  0  0  0  0  0  0  0  0  0  0
   27.9808   -0.7500    0.0000 C   0  0  0  0  0  0  0  0  0  0  0  0
    4.5981   -0.2500    0.0000 C   0  0  0  0  0  0  0  0  0  0  0  0
   27.1147   -0.2500    0.0000 C   0  0  0  0  0  0  0  0  0  0  0  0
    8.9282    2.2500    0.0000 C   0  0  0  0  0  0  0  0  0  0  0  0
   22.7846    2.2500    0.0000 C   0  0  0  0  0  0  0  0  0  0  0  0
    9.7942    2.7500    0.0000 C   0  0  0  0  0  0  0  0  0  0  0  0
   21.9186    2.7500    0.0000 C   0  0  0  0  0  0  0  0  0  0  0  0
    3.7320   -1.7500    0.0000 C   0  0  0  0  0  0  0  0  0  0  0  0
   27.9808   -1.7500    0.0000 C   0  0  0  0  0  0  0  0  0  0  0  0
    4.5981    0.7500    0.0000 C   0  0  0  0  0  0  0  0  0  0  0  0
   27.1147    0.7500    0.0000 C   0  0  0  0  0  0  0  0  0  0  0  0
    8.0622    2.7500    0.0000 C   0  0  0  0  0  0  0  0  0  0  0  0
   23.6506    2.7500    0.0000 C   0  0  0  0  0  0  0  0  0  0  0  0
   10.6603    2.2500    0.0000 C   0  0  0  0  0  0  0  0  0  0  0  0
   21.0526    2.2500    0.0000 C   0  0  0  0  0  0  0  0  0  0  0  0
    2.8660   -2.2500    0.0000 C   0  0  0  0  0  0  0  0  0  0  0  0
   28.8468   -2.2500    0.0000 C   0  0  0  0  0  0  0  0  0  0  0  0
    5.4641    1.2500    0.0000 C   0  0  0  0  0  0  0  0  0  0  0  0
   26.2487    1.2500    0.0000 C   0  0  0  0  0  0  0  0  0  0  0  0
    7.1962    2.2500    0.0000 C   0  0  0  0  0  0  0  0  0  0  0  0
   24.5167    2.2500    0.0000 C   0  0  0  0  0  0  0  0  0  0  0  0
   11.5263    2.7500    0.0000 C   0  0  0  0  0  0  0  0  0  0  0  0
   20.1865    2.7500    0.0000 C   0  0  0  0  0  0  0  0  0  0  0  0
    2.8660   -3.2500    0.0000 C   0  0  0  0  0  0  0  0  0  0  0  0
   28.8468   -3.2500    0.0000 C   0  0  0  0  0  0  0  0  0  0  0  0
    5.4641    2.2500    0.0000 C   0  0  0  0  0  0  0  0  0  0  0  0
   26.2487    2.2500    0.0000 C   0  0  0  0  0  0  0  0  0  0  0  0
    6.3301    2.7500    0.0000 C   0  0  0  0  0  0  0  0  0  0  0  0
   25.3827    2.7500    0.0000 C   0  0  0  0  0  0  0  0  0  0  0  0
   12.3923    2.2500    0.0000 C   0  0  0  0  0  0  0  0  0  0  0  0
   19.3205    2.2500    0.0000 C   0  0  0  0  0  0  0  0  0  0  0  0
    2.0000   -3.7500    0.0000 C   0  0  0  0  0  0  0  0  0  0  0  0
   29.7128   -3.7500    0.0000 C   0  0  0  0  0  0  0  0  0  0  0  0
   13.2583    2.7500    0.0000 C   0  0  0  0  0  0  0  0  0  0  0  0
   18.4545    2.7500    0.0000 C   0  0  0  0  0  0  0  0  0  0  0  0
   15.8564    2.2500    0.0000 C   0  0  0  0  0  0  0  0  0  0  0  0
   14.9904    2.7500    0.0000 C   0  0  0  0  0  0  0  0  0  0  0  0
   16.7224    2.7500    0.0000 C   0  0  0  0  0  0  0  0  0  0  0  0
    3.5200   -0.1674    0.0000 H   0  0  0  0  0  0  0  0  0  0  0  0
    3.1215   -0.8577    0.0000 H   0  0  0  0  0  0  0  0  0  0  0  0
   28.5913   -0.8577    0.0000 H   0  0  0  0  0  0  0  0  0  0  0  0
   28.1928   -0.1674    0.0000 H   0  0  0  0  0  0  0  0  0  0  0  0
    4.8101   -0.8326    0.0000 H   0  0  0  0  0  0  0  0  0  0  0  0
    5.2087   -0.1423    0.0000 H   0  0  0  0  0  0  0  0  0  0  0  0
   26.5042   -0.1423    0.0000 H   0  0  0  0  0  0  0  0  0  0  0  0
   26.9027   -0.8326    0.0000 H   0  0  0  0  0  0  0  0  0  0  0  0
    8.5297    1.7750    0.0000 H   0  0  0  0  0  0  0  0  0  0  0  0
    9.3267    1.7750    0.0000 H   0  0  0  0  0  0  0  0  0  0  0  0
   22.3861    1.7750    0.0000 H   0  0  0  0  0  0  0  0  0  0  0  0
   23.1831    1.7750    0.0000 H   0  0  0  0  0  0  0  0  0  0  0  0
   10.1928    3.2250    0.0000 H   0  0  0  0  0  0  0  0  0  0  0  0
    9.3957    3.2250    0.0000 H   0  0  0  0  0  0  0  0  0  0  0  0
   22.3171    3.2250    0.0000 H   0  0  0  0  0  0  0  0  0  0  0  0
   21.5201    3.2250    0.0000 H   0  0  0  0  0  0  0  0  0  0  0  0
    3.9441   -2.3326    0.0000 H   0  0  0  0  0  0  0  0  0  0  0  0
    4.3426   -1.6423    0.0000 H   0  0  0  0  0  0  0  0  0  0  0  0
   27.3702   -1.6423    0.0000 H   0  0  0  0  0  0  0  0  0  0  0  0
   27.7687   -2.3326    0.0000 H   0  0  0  0  0  0  0  0  0  0  0  0
    4.3860    1.3326    0.0000 H   0  0  0  0  0  0  0  0  0  0  0  0
    3.9875    0.6423    0.0000 H   0  0  0  0  0  0  0  0  0  0  0  0
   27.7253    0.6423    0.0000 H   0  0  0  0  0  0  0  0  0  0  0  0
   27.3268    1.3326    0.0000 H   0  0  0  0  0  0  0  0  0  0  0  0
    8.4607    3.2250    0.0000 H   0  0  0  0  0  0  0  0  0  0  0  0
    7.6636    3.2250    0.0000 H   0  0  0  0  0  0  0  0  0  0  0  0
   24.0492    3.2250    0.0000 H   0  0  0  0  0  0  0  0  0  0  0  0
   23.2521    3.2250    0.0000 H   0  0  0  0  0  0  0  0  0  0  0  0
   10.2617    1.7750    0.0000 H   0  0  0  0  0  0  0  0  0  0  0  0
   11.0588    1.7750    0.0000 H   0  0  0  0  0  0  0  0  0  0  0  0
   20.6540    1.7750    0.0000 H   0  0  0  0  0  0  0  0  0  0  0  0
   21.4511    1.7750    0.0000 H   0  0  0  0  0  0  0  0  0  0  0  0
    2.6540   -1.6674    0.0000 H   0  0  0  0  0  0  0  0  0  0  0  0
    2.2554   -2.3577    0.0000 H   0  0  0  0  0  0  0  0  0  0  0  0
   29.4574   -2.3577    0.0000 H   0  0  0  0  0  0  0  0  0  0  0  0
   29.0588   -1.6674    0.0000 H   0  0  0  0  0  0  0  0  0  0  0  0
    5.6762    0.6674    0.0000 H   0  0  0  0  0  0  0  0  0  0  0  0
    6.0747    1.3577    0.0000 H   0  0  0  0  0  0  0  0  0  0  0  0
   25.6381    1.3577    0.0000 H   0  0  0  0  0  0  0  0  0  0  0  0
   26.0367    0.6674    0.0000 H   0  0  0  0  0  0  0  0  0  0  0  0
    6.7976    1.7750    0.0000 H   0  0  0  0  0  0  0  0  0  0  0  0
    7.5947    1.7750    0.0000 H   0  0  0  0  0  0  0  0  0  0  0  0
   24.1181    1.7750    0.0000 H   0  0  0  0  0  0  0  0  0  0  0  0
   24.9152    1.7750    0.0000 H   0  0  0  0  0  0  0  0  0  0  0  0
   11.9248    3.2250    0.0000 H   0  0  0  0  0  0  0  0  0  0  0  0
   11.1278    3.2250    0.0000 H   0  0  0  0  0  0  0  0  0  0  0  0
   20.5851    3.2250    0.0000 H   0  0  0  0  0  0  0  0  0  0  0  0
   19.7880    3.2250    0.0000 H   0  0  0  0  0  0  0  0  0  0  0  0
    3.0781   -3.8326    0.0000 H   0  0  0  0  0  0  0  0  0  0  0  0
    3.4766   -3.1423    0.0000 H   0  0  0  0  0  0  0  0  0  0  0  0
   28.2362   -3.1423    0.0000 H   0  0  0  0  0  0  0  0  0  0  0  0
   28.6347   -3.8326    0.0000 H   0  0  0  0  0  0  0  0  0  0  0  0
    4.9272    2.5600    0.0000 H   0  0  0  0  0  0  0  0  0  0  0  0
   26.7856    2.5600    0.0000 H   0  0  0  0  0  0  0  0  0  0  0  0
    6.3301    3.3700    0.0000 H   0  0  0  0  0  0  0  0  0  0  0  0
   25.3827    3.3700    0.0000 H   0  0  0  0  0  0  0  0  0  0  0  0
   11.9938    1.7750    0.0000 H   0  0  0  0  0  0  0  0  0  0  0  0
   12.7908    1.7750    0.0000 H   0  0  0  0  0  0  0  0  0  0  0  0
   18.9220    1.7750    0.0000 H   0  0  0  0  0  0  0  0  0  0  0  0
   19.7190    1.7750    0.0000 H   0  0  0  0  0  0  0  0  0  0  0  0
    1.6900   -3.2131    0.0000 H   0  0  0  0  0  0  0  0  0  0  0  0
    1.4631   -4.0600    0.0000 H   0  0  0  0  0  0  0  0  0  0  0  0
    2.3100   -4.2869    0.0000 H   0  0  0  0  0  0  0  0  0  0  0  0
   29.4028   -4.2869    0.0000 H   0  0  0  0  0  0  0  0  0  0  0  0
   30.2497   -4.0600    0.0000 H   0  0  0  0  0  0  0  0  0  0  0  0
   30.0228   -3.2131    0.0000 H   0  0  0  0  0  0  0  0  0  0  0  0
   16.3933    1.9400    0.0000 H   0  0  0  0  0  0  0  0  0  0  0  0
   15.3889    3.2250    0.0000 H   0  0  0  0  0  0  0  0  0  0  0  0
   14.5919    3.2250    0.0000 H   0  0  0  0  0  0  0  0  0  0  0  0
   17.1210    3.2250    0.0000 H   0  0  0  0  0  0  0  0  0  0  0  0
   16.3239    3.2250    0.0000 H   0  0  0  0  0  0  0  0  0  0  0  0
   15.3195    0.9400    0.0000 H   0  0  0  0  0  0  0  0  0  0  0  0
  1 40  1  0  0  0  0
  1 43  1  0  0  0  0
  2 41  1  0  0  0  0
  2 44  1  0  0  0  0
  3 40  2  0  0  0  0
  4 41  2  0  0  0  0
  5 42  1  0  0  0  0
  5116  1  0  0  0  0
  6  8  1  0  0  0  0
  6 14  1  0  0  0  0
  6 45  1  0  0  0  0
  6 46  1  0  0  0  0
  7  9  1  0  0  0  0
  7 15  1  0  0  0  0
  7 47  1  0  0  0  0
  7 48  1  0  0  0  0
  8 16  1  0  0  0  0
  8 49  1  0  0  0  0
  8 50  1  0  0  0  0
  9 17  1  0  0  0  0
  9 51  1  0  0  0  0
  9 52  1  0  0  0  0
 10 12  1  0  0  0  0
 10 18  1  0  0  0  0
 10 53  1  0  0  0  0
 10 54  1  0  0  0  0
 11 13  1  0  0  0  0
 11 19  1  0  0  0  0
 11 55  1  0  0  0  0
 11 56  1  0  0  0  0
 12 20  1  0  0  0  0
 12 57  1  0  0  0  0
 12 58  1  0  0  0  0
 13 21  1  0  0  0  0
 13 59  1  0  0  0  0
 13 60  1  0  0  0  0
 14 22  1  0  0  0  0
 14 61  1  0  0  0  0
 14 62  1  0  0  0  0
 15 23  1  0  0  0  0
 15 63  1  0  0  0  0
 15 64  1  0  0  0  0
 16 24  1  0  0  0  0
 16 65  1  0  0  0  0
 16 66  1  0  0  0  0
 17 25  1  0  0  0  0
 17 67  1  0  0  0  0
 17 68  1  0  0  0  0
 18 26  1  0  0  0  0
 18 69  1  0  0  0  0
 18 70  1  0  0  0  0
 19 27  1  0  0  0  0
 19 71  1  0  0  0  0
 19 72  1  0  0  0  0
 20 28  1  0  0  0  0
 20 73  1  0  0  0  0
 20 74  1  0  0  0  0
 21 29  1  0  0  0  0
 21 75  1  0  0  0  0
 21 76  1  0  0  0  0
 22 30  1  0  0  0  0
 22 77  1  0  0  0  0
 22 78  1  0  0  0  0
 23 31  1  0  0  0  0
 23 79  1  0  0  0  0
 23 80  1  0  0  0  0
 24 32  1  0  0  0  0
 24 81  1  0  0  0  0
 24 82  1  0  0  0  0
 25 33  1  0  0  0  0
 25 83  1  0  0  0  0
 25 84  1  0  0  0  0
 26 34  1  0  0  0  0
 26 85  1  0  0  0  0
 26 86  1  0  0  0  0
 27 35  1  0  0  0  0
 27 87  1  0  0  0  0
 27 88  1  0  0  0  0
 28 36  1  0  0  0  0
 28 89  1  0  0  0  0
 28 90  1  0  0  0  0
 29 37  1  0  0  0  0
 29 91  1  0  0  0  0
 29 92  1  0  0  0  0
 30 38  1  0  0  0  0
 30 93  1  0  0  0  0
 30 94  1  0  0  0  0
 31 39  1  0  0  0  0
 31 95  1  0  0  0  0
 31 96  1  0  0  0  0
 32 34  2  0  0  0  0
 32 97  1  0  0  0  0
 33 35  2  0  0  0  0
 33 98  1  0  0  0  0
 34 99  1  0  0  0  0
 35100  1  0  0  0  0
 36 40  1  0  0  0  0
 36101  1  0  0  0  0
 36102  1  0  0  0  0
 37 41  1  0  0  0  0
 37103  1  0  0  0  0
 37104  1  0  0  0  0
 38105  1  0  0  0  0
 38106  1  0  0  0  0
 38107  1  0  0  0  0
 39108  1  0  0  0  0
 39109  1  0  0  0  0
 39110  1  0  0  0  0
 42 43  1  0  0  0  0
 42 44  1  0  0  0  0
 42111  1  0  0  0  0
 43112  1  0  0  0  0
 43113  1  0  0  0  0
 44114  1  0  0  0  0
 44115  1  0  0  0  0
M  END
> <PUBCHEM_COMPOUND_CID>
5497165

> <PUBCHEM_COMPOUND_CANONICALIZED>
1

> <PUBCHEM_CACTVS_COMPLEXITY>
615

> <PUBCHEM_CACTVS_HBOND_ACCEPTOR>
5

> <PUBCHEM_CACTVS_HBOND_DONOR>
1

> <PUBCHEM_CACTVS_ROTATABLE_BOND>
36

> <PUBCHEM_CACTVS_SUBSKEYS>
AAADcfB8OAAAAAAAAAAAAAAAAAAAAAAAAAAAAAAAAAAAAAAAAAAAGgAACAAACBSggAICCAAABgCIACDSCAAAAAAgAAAICAEAAAgBEBIAAQACAAAFgAALAAOIyKCAAAAAAAAAAAAAAAAAAAAAAAAAAAAAAA==

> <PUBCHEM_IUPAC_OPENEYE_NAME>
[2-hydroxy-3-[(Z)-octadec-9-enoyl]oxy-propyl] (Z)-octadec-9-enoate

> <PUBCHEM_IUPAC_CAS_NAME>
(Z)-9-octadecenoic acid [2-hydroxy-3-[(Z)-1-oxooctadec-9-enoxy]propyl] ester

> <PUBCHEM_IUPAC_NAME_MARKUP>
[2-hydroxy-3-[(<I>Z</I>)-octadec-9-enoyl]oxypropyl] (<I>Z</I>)-octadec-9-enoate

> <PUBCHEM_IUPAC_NAME>
[2-hydroxy-3-[(Z)-octadec-9-enoyl]oxypropyl] (Z)-octadec-9-enoate

> <PUBCHEM_IUPAC_SYSTEMATIC_NAME>
[3-[(Z)-octadec-9-enoyl]oxy-2-oxidanyl-propyl] (Z)-octadec-9-enoate

> <PUBCHEM_IUPAC_TRADITIONAL_NAME>
(Z)-octadec-9-enoic acid [2-hydroxy-3-[(Z)-octadec-9-enoyl]oxy-propyl] ester

> <PUBCHEM_IUPAC_INCHI>
InChI=1S/C39H72O5/c1-3-5-7-9-11-13-15-17-19-21-23-25-27-29-31-33-38(41)43-35-37(40)36-44-39(42)34-32-30-28-26-24-22-20-18-16-14-12-10-8-6-4-2/h17-20,37,40H,3-16,21-36H2,1-2H3/b19-17-,20-18-

> <PUBCHEM_IUPAC_INCHIKEY>
DRAWQKGUORNASA-CLFAGFIQSA-N

> <PUBCHEM_XLOGP3_AA>
14.3

> <PUBCHEM_EXACT_MASS>
620.537975

> <PUBCHEM_MOLECULAR_FORMULA>
C39H72O5

> <PUBCHEM_MOLECULAR_WEIGHT>
621

> <PUBCHEM_OPENEYE_CAN_SMILES>
CCCCCCCCC=CCCCCCCCC(=O)OCC(COC(=O)CCCCCCCC=CCCCCCCCC)O

> <PUBCHEM_OPENEYE_ISO_SMILES>
CCCCCCCC/C=C\CCCCCCCC(=O)OCC(O)COC(=O)CCCCCCC/C=C\CCCCCCCC

> <PUBCHEM_CACTVS_TPSA>
72.8

> <PUBCHEM_MONOISOTOPIC_WEIGHT>
620.537975

> <PUBCHEM_TOTAL_CHARGE>
0

> <PUBCHEM_HEAVY_ATOM_COUNT>
44

> <PUBCHEM_ATOM_DEF_STEREO_COUNT>
0

> <PUBCHEM_ATOM_UDEF_STEREO_COUNT>
0

> <PUBCHEM_BOND_DEF_STEREO_COUNT>
2

> <PUBCHEM_BOND_UDEF_STEREO_COUNT>
0

> <PUBCHEM_ISOTOPIC_ATOM_COUNT>
0

> <PUBCHEM_COMPONENT_COUNT>
1

> <PUBCHEM_CACTVS_TAUTO_COUNT>
-1

> <PUBCHEM_COORDINATE_TYPE>
1
5
255

$$$$
