45934042
  -OEChem-09172014082D

112111  0     0  0  0  0  0  0999 V2000
   12.0632    2.2500    0.0000 O   0  0  0  0  0  0  0  0  0  0  0  0
   15.5273    2.2500    0.0000 O   0  0  0  0  0  0  0  0  0  0  0  0
   13.7953    1.2500    0.0000 O   0  0  0  0  0  0  0  0  0  0  0  0
   11.1972    3.7500    0.0000 O   0  0  0  0  0  0  0  0  0  0  0  0
   16.3933    3.7500    0.0000 O   0  0  0  0  0  0  0  0  0  0  0  0
    7.7331    2.7500    0.0000 C   0  0  0  0  0  0  0  0  0  0  0  0
   19.8574    2.7500    0.0000 C   0  0  0  0  0  0  0  0  0  0  0  0
    6.8671    2.2500    0.0000 C   0  0  0  0  0  0  0  0  0  0  0  0
   20.7235    2.2500    0.0000 C   0  0  0  0  0  0  0  0  0  0  0  0
    8.5991    2.2500    0.0000 C   0  0  0  0  0  0  0  0  0  0  0  0
   18.9914    2.2500    0.0000 C   0  0  0  0  0  0  0  0  0  0  0  0
    6.0010    2.7500    0.0000 C   0  0  0  0  0  0  0  0  0  0  0  0
   21.5895    2.7500    0.0000 C   0  0  0  0  0  0  0  0  0  0  0  0
    9.4651    2.7500    0.0000 C   0  0  0  0  0  0  0  0  0  0  0  0
   18.1254    2.7500    0.0000 C   0  0  0  0  0  0  0  0  0  0  0  0
    5.1350    2.2500    0.0000 C   0  0  0  0  0  0  0  0  0  0  0  0
   22.4555    2.2500    0.0000 C   0  0  0  0  0  0  0  0  0  0  0  0
   10.3312    2.2500    0.0000 C   0  0  0  0  0  0  0  0  0  0  0  0
   17.2594    2.2500    0.0000 C   0  0  0  0  0  0  0  0  0  0  0  0
    4.2690    2.7500    0.0000 C   0  0  0  0  0  0  0  0  0  0  0  0
   23.3215    2.7500    0.0000 C   0  0  0  0  0  0  0  0  0  0  0  0
   11.1972    2.7500    0.0000 C   0  0  0  0  0  0  0  0  0  0  0  0
   16.3933    2.7500    0.0000 C   0  0  0  0  0  0  0  0  0  0  0  0
   13.7953    2.2500    0.0000 C   0  0  0  0  0  0  0  0  0  0  0  0
   12.9292    2.7500    0.0000 C   0  0  0  0  0  0  0  0  0  0  0  0
   14.6613    2.7500    0.0000 C   0  0  0  0  0  0  0  0  0  0  0  0
    3.4030    2.2500    0.0000 C   0  0  0  0  0  0  0  0  0  0  0  0
   24.1876    2.2500    0.0000 C   0  0  0  0  0  0  0  0  0  0  0  0
    3.4030    1.2500    0.0000 C   0  0  0  0  0  0  0  0  0  0  0  0
   24.1876    1.2500    0.0000 C   0  0  0  0  0  0  0  0  0  0  0  0
    3.4030   -1.7500    0.0000 C   0  0  0  0  0  0  0  0  0  0  0  0
   24.1876   -1.7500    0.0000 C   0  0  0  0  0  0  0  0  0  0  0  0
    4.2690   -2.2500    0.0000 C   0  0  0  0  0  0  0  0  0  0  0  0
   23.3215   -2.2500    0.0000 C   0  0  0  0  0  0  0  0  0  0  0  0
    3.4030   -0.7500    0.0000 C   0  0  0  0  0  0  0  0  0  0  0  0
   24.1876   -0.7500    0.0000 C   0  0  0  0  0  0  0  0  0  0  0  0
    4.2690   -3.2500    0.0000 C   0  0  0  0  0  0  0  0  0  0  0  0
   23.3215   -3.2500    0.0000 C   0  0  0  0  0  0  0  0  0  0  0  0
    2.5369    0.7500    0.0000 C   0  0  0  0  0  0  0  0  0  0  0  0
   25.0536    0.7500    0.0000 C   0  0  0  0  0  0  0  0  0  0  0  0
    2.5369   -0.2500    0.0000 C   0  0  0  0  0  0  0  0  0  0  0  0
   25.0536   -0.2500    0.0000 C   0  0  0  0  0  0  0  0  0  0  0  0
    5.1350   -3.7500    0.0000 C   0  0  0  0  0  0  0  0  0  0  0  0
   22.4555   -3.7500    0.0000 C   0  0  0  0  0  0  0  0  0  0  0  0
    8.1316    3.2250    0.0000 H   0  0  0  0  0  0  0  0  0  0  0  0
    7.3346    3.2250    0.0000 H   0  0  0  0  0  0  0  0  0  0  0  0
   20.2560    3.2250    0.0000 H   0  0  0  0  0  0  0  0  0  0  0  0
   19.4589    3.2250    0.0000 H   0  0  0  0  0  0  0  0  0  0  0  0
    6.4685    1.7750    0.0000 H   0  0  0  0  0  0  0  0  0  0  0  0
    7.2656    1.7750    0.0000 H   0  0  0  0  0  0  0  0  0  0  0  0
   20.3249    1.7750    0.0000 H   0  0  0  0  0  0  0  0  0  0  0  0
   21.1220    1.7750    0.0000 H   0  0  0  0  0  0  0  0  0  0  0  0
    8.2006    1.7750    0.0000 H   0  0  0  0  0  0  0  0  0  0  0  0
    8.9976    1.7750    0.0000 H   0  0  0  0  0  0  0  0  0  0  0  0
   18.5929    1.7750    0.0000 H   0  0  0  0  0  0  0  0  0  0  0  0
   19.3899    1.7750    0.0000 H   0  0  0  0  0  0  0  0  0  0  0  0
    6.3996    3.2250    0.0000 H   0  0  0  0  0  0  0  0  0  0  0  0
    5.6025    3.2250    0.0000 H   0  0  0  0  0  0  0  0  0  0  0  0
   21.9880    3.2250    0.0000 H   0  0  0  0  0  0  0  0  0  0  0  0
   21.1910    3.2250    0.0000 H   0  0  0  0  0  0  0  0  0  0  0  0
    9.8637    3.2250    0.0000 H   0  0  0  0  0  0  0  0  0  0  0  0
    9.0666    3.2250    0.0000 H   0  0  0  0  0  0  0  0  0  0  0  0
   18.5239    3.2250    0.0000 H   0  0  0  0  0  0  0  0  0  0  0  0
   17.7269    3.2250    0.0000 H   0  0  0  0  0  0  0  0  0  0  0  0
    4.7365    1.7750    0.0000 H   0  0  0  0  0  0  0  0  0  0  0  0
    5.5335    1.7750    0.0000 H   0  0  0  0  0  0  0  0  0  0  0  0
   22.0570    1.7750    0.0000 H   0  0  0  0  0  0  0  0  0  0  0  0
   22.8540    1.7750    0.0000 H   0  0  0  0  0  0  0  0  0  0  0  0
    9.9326    1.7750    0.0000 H   0  0  0  0  0  0  0  0  0  0  0  0
   10.7297    1.7750    0.0000 H   0  0  0  0  0  0  0  0  0  0  0  0
   16.8608    1.7750    0.0000 H   0  0  0  0  0  0  0  0  0  0  0  0
   17.6579    1.7750    0.0000 H   0  0  0  0  0  0  0  0  0  0  0  0
    4.2690    3.3700    0.0000 H   0  0  0  0  0  0  0  0  0  0  0  0
   23.3215    3.3700    0.0000 H   0  0  0  0  0  0  0  0  0  0  0  0
   14.3322    1.9400    0.0000 H   0  0  0  0  0  0  0  0  0  0  0  0
   13.3278    3.2250    0.0000 H   0  0  0  0  0  0  0  0  0  0  0  0
   12.5307    3.2250    0.0000 H   0  0  0  0  0  0  0  0  0  0  0  0
   15.0598    3.2250    0.0000 H   0  0  0  0  0  0  0  0  0  0  0  0
   14.2628    3.2250    0.0000 H   0  0  0  0  0  0  0  0  0  0  0  0
    2.8660    2.5600    0.0000 H   0  0  0  0  0  0  0  0  0  0  0  0
   24.7245    2.5600    0.0000 H   0  0  0  0  0  0  0  0  0  0  0  0
    2.7924   -1.6423    0.0000 H   0  0  0  0  0  0  0  0  0  0  0  0
    3.1909   -2.3326    0.0000 H   0  0  0  0  0  0  0  0  0  0  0  0
   24.3996   -2.3326    0.0000 H   0  0  0  0  0  0  0  0  0  0  0  0
   24.7982   -1.6423    0.0000 H   0  0  0  0  0  0  0  0  0  0  0  0
    3.6150    0.6674    0.0000 H   0  0  0  0  0  0  0  0  0  0  0  0
    4.0135    1.3577    0.0000 H   0  0  0  0  0  0  0  0  0  0  0  0
   23.5770    1.3577    0.0000 H   0  0  0  0  0  0  0  0  0  0  0  0
   23.9755    0.6674    0.0000 H   0  0  0  0  0  0  0  0  0  0  0  0
    4.8796   -2.3577    0.0000 H   0  0  0  0  0  0  0  0  0  0  0  0
    4.4810   -1.6674    0.0000 H   0  0  0  0  0  0  0  0  0  0  0  0
   23.1095   -1.6674    0.0000 H   0  0  0  0  0  0  0  0  0  0  0  0
   22.7110   -2.3577    0.0000 H   0  0  0  0  0  0  0  0  0  0  0  0
    4.0135   -0.8577    0.0000 H   0  0  0  0  0  0  0  0  0  0  0  0
    3.6150   -0.1674    0.0000 H   0  0  0  0  0  0  0  0  0  0  0  0
   23.9755   -0.1674    0.0000 H   0  0  0  0  0  0  0  0  0  0  0  0
   23.5770   -0.8577    0.0000 H   0  0  0  0  0  0  0  0  0  0  0  0
    3.6584   -3.1423    0.0000 H   0  0  0  0  0  0  0  0  0  0  0  0
    4.0569   -3.8326    0.0000 H   0  0  0  0  0  0  0  0  0  0  0  0
   23.5336   -3.8326    0.0000 H   0  0  0  0  0  0  0  0  0  0  0  0
   23.9321   -3.1423    0.0000 H   0  0  0  0  0  0  0  0  0  0  0  0
    2.0000    1.0600    0.0000 H   0  0  0  0  0  0  0  0  0  0  0  0
   25.5905    1.0600    0.0000 H   0  0  0  0  0  0  0  0  0  0  0  0
    2.0000   -0.5600    0.0000 H   0  0  0  0  0  0  0  0  0  0  0  0
   25.5905   -0.5600    0.0000 H   0  0  0  0  0  0  0  0  0  0  0  0
   13.2583    0.9400    0.0000 H   0  0  0  0  0  0  0  0  0  0  0  0
    4.8250   -4.2869    0.0000 H   0  0  0  0  0  0  0  0  0  0  0  0
    5.6720   -4.0600    0.0000 H   0  0  0  0  0  0  0  0  0  0  0  0
    5.4450   -3.2131    0.0000 H   0  0  0  0  0  0  0  0  0  0  0  0
   22.1455   -3.2131    0.0000 H   0  0  0  0  0  0  0  0  0  0  0  0
   21.9186   -4.0600    0.0000 H   0  0  0  0  0  0  0  0  0  0  0  0
   22.7655   -4.2869    0.0000 H   0  0  0  0  0  0  0  0  0  0  0  0
  1 22  1  0  0  0  0
  1 25  1  0  0  0  0
  2 23  1  0  0  0  0
  2 26  1  0  0  0  0
  3 24  1  0  0  0  0
  3106  1  0  0  0  0
  4 22  2  0  0  0  0
  5 23  2  0  0  0  0
  6  8  1  0  0  0  0
  6 10  1  0  0  0  0
  6 45  1  0  0  0  0
  6 46  1  0  0  0  0
  7  9  1  0  0  0  0
  7 11  1  0  0  0  0
  7 47  1  0  0  0  0
  7 48  1  0  0  0  0
  8 12  1  0  0  0  0
  8 49  1  0  0  0  0
  8 50  1  0  0  0  0
  9 13  1  0  0  0  0
  9 51  1  0  0  0  0
  9 52  1  0  0  0  0
 10 14  1  0  0  0  0
 10 53  1  0  0  0  0
 10 54  1  0  0  0  0
 11 15  1  0  0  0  0
 11 55  1  0  0  0  0
 11 56  1  0  0  0  0
 12 16  1  0  0  0  0
 12 57  1  0  0  0  0
 12 58  1  0  0  0  0
 13 17  1  0  0  0  0
 13 59  1  0  0  0  0
 13 60  1  0  0  0  0
 14 18  1  0  0  0  0
 14 61  1  0  0  0  0
 14 62  1  0  0  0  0
 15 19  1  0  0  0  0
 15 63  1  0  0  0  0
 15 64  1  0  0  0  0
 16 20  1  0  0  0  0
 16 65  1  0  0  0  0
 16 66  1  0  0  0  0
 17 21  1  0  0  0  0
 17 67  1  0  0  0  0
 17 68  1  0  0  0  0
 18 22  1  0  0  0  0
 18 69  1  0  0  0  0
 18 70  1  0  0  0  0
 19 23  1  0  0  0  0
 19 71  1  0  0  0  0
 19 72  1  0  0  0  0
 20 27  2  0  0  0  0
 20 73  1  0  0  0  0
 21 28  2  0  0  0  0
 21 74  1  0  0  0  0
 24 25  1  0  0  0  0
 24 26  1  0  0  0  0
 24 75  1  0  0  0  0
 25 76  1  0  0  0  0
 25 77  1  0  0  0  0
 26 78  1  0  0  0  0
 26 79  1  0  0  0  0
 27 29  1  0  0  0  0
 27 80  1  0  0  0  0
 28 30  1  0  0  0  0
 28 81  1  0  0  0  0
 29 39  1  0  0  0  0
 29 86  1  0  0  0  0
 29 87  1  0  0  0  0
 30 40  1  0  0  0  0
 30 88  1  0  0  0  0
 30 89  1  0  0  0  0
 31 33  1  0  0  0  0
 31 35  1  0  0  0  0
 31 82  1  0  0  0  0
 31 83  1  0  0  0  0
 32 34  1  0  0  0  0
 32 36  1  0  0  0  0
 32 84  1  0  0  0  0
 32 85  1  0  0  0  0
 33 37  1  0  0  0  0
 33 90  1  0  0  0  0
 33 91  1  0  0  0  0
 34 38  1  0  0  0  0
 34 92  1  0  0  0  0
 34 93  1  0  0  0  0
 35 41  1  0  0  0  0
 35 94  1  0  0  0  0
 35 95  1  0  0  0  0
 36 42  1  0  0  0  0
 36 96  1  0  0  0  0
 36 97  1  0  0  0  0
 37 43  1  0  0  0  0
 37 98  1  0  0  0  0
 37 99  1  0  0  0  0
 38 44  1  0  0  0  0
 38100  1  0  0  0  0
 38101  1  0  0  0  0
 39 41  2  0  0  0  0
 39102  1  0  0  0  0
 40 42  2  0  0  0  0
 40103  1  0  0  0  0
 41104  1  0  0  0  0
 42105  1  0  0  0  0
 43107  1  0  0  0  0
 43108  1  0  0  0  0
 43109  1  0  0  0  0
 44110  1  0  0  0  0
 44111  1  0  0  0  0
 44112  1  0  0  0  0
M  END
> <PUBCHEM_COMPOUND_CID>
45934042

> <PUBCHEM_COMPOUND_CANONICALIZED>
1

> <PUBCHEM_CACTVS_COMPLEXITY>
690

> <PUBCHEM_CACTVS_HBOND_ACCEPTOR>
5

> <PUBCHEM_CACTVS_HBOND_DONOR>
1

> <PUBCHEM_CACTVS_ROTATABLE_BOND>
34

> <PUBCHEM_CACTVS_SUBSKEYS>
AAADcfB8OAAAAAAAAAAAAAAAAAAAAAAAAAAAAAAAAAAAAAAAAAAAGgAACAAACBSggAICCAAABgCIACDSCAAAAAAgAAAICAEAAAgBEBIAAQACAAAFgAALAAOIyKCAAAAAAAAAAAAAAAAAAAAAAAAAAAAAAA==

> <PUBCHEM_IUPAC_OPENEYE_NAME>
[2-hydroxy-3-[(9Z,12Z)-octadeca-9,12-dienoyl]oxy-propyl] (9Z,12Z)-octadeca-9,12-dienoate

> <PUBCHEM_IUPAC_CAS_NAME>
(9Z,12Z)-octadeca-9,12-dienoic acid [2-hydroxy-3-[(9Z,12Z)-1-oxooctadeca-9,12-dienoxy]propyl] ester

> <PUBCHEM_IUPAC_NAME_MARKUP>
[2-hydroxy-3-[(9<I>Z</I>,12<I>Z</I>)-octadeca-9,12-dienoyl]oxypropyl] (9<I>Z</I>,12<I>Z</I>)-octadeca-9,12-dienoate

> <PUBCHEM_IUPAC_NAME>
[2-hydroxy-3-[(9Z,12Z)-octadeca-9,12-dienoyl]oxypropyl] (9Z,12Z)-octadeca-9,12-dienoate

> <PUBCHEM_IUPAC_SYSTEMATIC_NAME>
[3-[(9Z,12Z)-octadeca-9,12-dienoyl]oxy-2-oxidanyl-propyl] (9Z,12Z)-octadeca-9,12-dienoate

> <PUBCHEM_IUPAC_TRADITIONAL_NAME>
(9Z,12Z)-octadeca-9,12-dienoic acid [2-hydroxy-3-[(9Z,12Z)-octadeca-9,12-dienoyl]oxy-propyl] ester

> <PUBCHEM_IUPAC_INCHI>
InChI=1S/C39H68O5/c1-3-5-7-9-11-13-15-17-19-21-23-25-27-29-31-33-38(41)43-35-37(40)36-44-39(42)34-32-30-28-26-24-22-20-18-16-14-12-10-8-6-4-2/h11-14,17-20,37,40H,3-10,15-16,21-36H2,1-2H3/b13-11-,14-12-,19-17-,20-18-

> <PUBCHEM_IUPAC_INCHIKEY>
LYPGMYIQHDZFFD-MAZCIEHSSA-N

> <PUBCHEM_XLOGP3_AA>
13

> <PUBCHEM_EXACT_MASS>
616.506675

> <PUBCHEM_MOLECULAR_FORMULA>
C39H68O5

> <PUBCHEM_MOLECULAR_WEIGHT>
617

> <PUBCHEM_OPENEYE_CAN_SMILES>
CCCCCC=CCC=CCCCCCCCC(=O)OCC(COC(=O)CCCCCCCC=CCC=CCCCCC)O

> <PUBCHEM_OPENEYE_ISO_SMILES>
CCCCC/C=C\C/C=C\CCCCCCCC(=O)OCC(O)COC(=O)CCCCCCC/C=C\C/C=C\CCCCC

> <PUBCHEM_CACTVS_TPSA>
72.8

> <PUBCHEM_MONOISOTOPIC_WEIGHT>
616.506675

> <PUBCHEM_TOTAL_CHARGE>
0

> <PUBCHEM_HEAVY_ATOM_COUNT>
44

> <PUBCHEM_ATOM_DEF_STEREO_COUNT>
0

> <PUBCHEM_ATOM_UDEF_STEREO_COUNT>
0

> <PUBCHEM_BOND_DEF_STEREO_COUNT>
4

> <PUBCHEM_BOND_UDEF_STEREO_COUNT>
0

> <PUBCHEM_ISOTOPIC_ATOM_COUNT>
0

> <PUBCHEM_COMPONENT_COUNT>
1

> <PUBCHEM_CACTVS_TAUTO_COUNT>
-1

> <PUBCHEM_COORDINATE_TYPE>
1
5
255

$$$$
