14579
  -OEChem-09062007223D

 29 29  0     1  0  0  0  0  0999 V2000
    1.6866   -0.2347   -2.0384 O   0  0  0  0  0  0  0  0  0  0  0  0
    2.2118   -0.2713    1.5978 O   0  0  0  0  0  0  0  0  0  0  0  0
    4.6206    0.8833    0.8082 O   0  0  0  0  0  0  0  0  0  0  0  0
   -2.6516    1.7447    0.0576 O   0  0  0  0  0  0  0  0  0  0  0  0
   -3.9826   -0.6378    0.5819 O   0  0  0  0  0  0  0  0  0  0  0  0
    1.5146   -0.6851   -0.6925 C   0  0  1  0  0  0  0  0  0  0  0  0
    2.4073    0.1485    0.2457 C   0  0  2  0  0  0  0  0  0  0  0  0
    0.0398   -0.6691   -0.3509 C   0  0  0  0  0  0  0  0  0  0  0  0
    3.8923    0.0582   -0.0961 C   0  0  0  0  0  0  0  0  0  0  0  0
   -0.6288    0.5414   -0.3042 C   0  0  0  0  0  0  0  0  0  0  0  0
   -0.6062   -1.8652   -0.0926 C   0  0  0  0  0  0  0  0  0  0  0  0
   -1.9876    0.5563    0.0110 C   0  0  0  0  0  0  0  0  0  0  0  0
   -1.9648   -1.8504    0.2226 C   0  0  0  0  0  0  0  0  0  0  0  0
   -2.6555   -0.6397    0.2743 C   0  0  0  0  0  0  0  0  0  0  0  0
   -1.8959    2.9211   -0.2243 C   0  0  0  0  0  0  0  0  0  0  0  0
    1.8622   -1.7263   -0.6587 H   0  0  0  0  0  0  0  0  0  0  0  0
    2.1191    1.2060    0.2025 H   0  0  0  0  0  0  0  0  0  0  0  0
    4.0985    0.4046   -1.1125 H   0  0  0  0  0  0  0  0  0  0  0  0
    4.2568   -0.9672    0.0228 H   0  0  0  0  0  0  0  0  0  0  0  0
   -0.0636    1.4379   -0.5296 H   0  0  0  0  0  0  0  0  0  0  0  0
   -0.0803   -2.8147   -0.1295 H   0  0  0  0  0  0  0  0  0  0  0  0
   -2.4729   -2.7893    0.4254 H   0  0  0  0  0  0  0  0  0  0  0  0
    2.5554   -0.5431   -2.3460 H   0  0  0  0  0  0  0  0  0  0  0  0
    2.7907    0.2729    2.1586 H   0  0  0  0  0  0  0  0  0  0  0  0
    5.5608    0.8013    0.5739 H   0  0  0  0  0  0  0  0  0  0  0  0
   -4.2740   -1.5535    0.7322 H   0  0  0  0  0  0  0  0  0  0  0  0
   -1.5176    2.9213   -1.2522 H   0  0  0  0  0  0  0  0  0  0  0  0
   -1.1016    3.0777    0.5136 H   0  0  0  0  0  0  0  0  0  0  0  0
   -2.5803    3.7715   -0.1383 H   0  0  0  0  0  0  0  0  0  0  0  0
  1  6  1  0  0  0  0
  1 23  1  0  0  0  0
  2  7  1  0  0  0  0
  2 24  1  0  0  0  0
  3  9  1  0  0  0  0
  3 25  1  0  0  0  0
  4 12  1  0  0  0  0
  4 15  1  0  0  0  0
  5 14  1  0  0  0  0
  5 26  1  0  0  0  0
  6  7  1  0  0  0  0
  6  8  1  0  0  0  0
  6 16  1  0  0  0  0
  7  9  1  0  0  0  0
  7 17  1  0  0  0  0
  8 10  2  0  0  0  0
  8 11  1  0  0  0  0
  9 18  1  0  0  0  0
  9 19  1  0  0  0  0
 10 12  1  0  0  0  0
 10 20  1  0  0  0  0
 11 13  2  0  0  0  0
 11 21  1  0  0  0  0
 12 14  2  0  0  0  0
 13 14  1  0  0  0  0
 13 22  1  0  0  0  0
 15 27  1  0  0  0  0
 15 28  1  0  0  0  0
 15 29  1  0  0  0  0
M  END
> <PUBCHEM_COMPOUND_CID>
14579

> <PUBCHEM_CONFORMER_RMSD>
0.6

> <PUBCHEM_CONFORMER_DIVERSEORDER>
84
75
60
23
68
92
8
18
74
90
96
66
54
97
7
76
19
49
67
45
31
81
80
14
51
44
64
70
13
100
73
69
88
58
86
42
59
33
38
95
62
98
25
15
53
21
61
12
57
77
5
63
30
3
99
34
91
79
26
17
37
102
39
65
20
83
4
72
6
11
24
87
55
28
101
82
71
78
32
50
41
36
16
10
52
93
1
40
35
22
85
89
94
2
56
48
43
9
27
46
29
47

> <PUBCHEM_MMFF94_PARTIAL_CHARGES>
22
1 -0.68
10 -0.15
11 -0.15
12 0.08
13 -0.15
14 0.08
15 0.28
2 -0.68
20 0.15
21 0.15
22 0.15
23 0.4
24 0.4
25 0.4
26 0.45
3 -0.68
4 -0.36
5 -0.53
6 0.42
7 0.28
8 -0.14
9 0.28

> <PUBCHEM_EFFECTIVE_ROTOR_COUNT>
4

> <PUBCHEM_PHARMACOPHORE_FEATURES>
9
1 1 acceptor
1 1 donor
1 2 acceptor
1 2 donor
1 3 acceptor
1 3 donor
1 4 acceptor
1 5 donor
6 8 10 11 12 13 14 rings

> <PUBCHEM_HEAVY_ATOM_COUNT>
15

> <PUBCHEM_ATOM_DEF_STEREO_COUNT>
0

> <PUBCHEM_ATOM_UDEF_STEREO_COUNT>
2

> <PUBCHEM_BOND_DEF_STEREO_COUNT>
0

> <PUBCHEM_BOND_UDEF_STEREO_COUNT>
0

> <PUBCHEM_ISOTOPIC_ATOM_COUNT>
0

> <PUBCHEM_COMPONENT_COUNT>
1

> <PUBCHEM_CACTVS_TAUTO_COUNT>
3

> <PUBCHEM_CONFORMER_ID>
000038F300000054

> <PUBCHEM_MMFF94_ENERGY>
47.0101

> <PUBCHEM_FEATURE_SELFOVERLAP>
45.682

> <PUBCHEM_SHAPE_FINGERPRINT>
10608611 8 18343301440354066956
11031198 65 16630253566851233622
11132069 177 18271817842941315359
12251169 10 18334293205980468190
13296909 8 18260260841477018900
13538477 17 17750809915512414047
13581323 91 18333733537218764550
13764800 53 18339930298959176377
13839132 238 18269556048416816766
13965767 371 17536032160351759244
14614273 12 18261955125024800197
15219456 202 18059862722949233326
15279308 16 18202563947566647740
15775835 57 18260548870652937928
16945 1 18336841848280212151
17846911 113 18411140242683474979
18186145 218 17915755188394160078
19049666 15 18057616360384816134
19786989 88 16845296007677103094
200 152 15357692028509072515
20388701 513 18411142437179622269
20510252 161 18341334413904367409
20645464 45 18059861674739920479
20645477 70 13984655971592089882
21639500 275 15985094220037813730
21650355 55 18192147307433331899
22445834 79 17676761011664524442
22802520 49 17699869335670361292
23402539 116 18341885333923567439
23419403 2 16981202435894090735
23557571 272 18271823314402726636
23559900 14 18269287789613846974
2748010 2 18048895008816042399
305870 269 18118401743897784627
77492 1 17458354060646260254
81228 2 18338536178597542201

> <PUBCHEM_SHAPE_MULTIPOLES>
279.35
6.45
2.09
1.06
4.89
1.23
-0.2
1.25
1.68
-2.19
-0.05
0.82
-0.08
0.45

> <PUBCHEM_SHAPE_SELFOVERLAP>
573.537

> <PUBCHEM_SHAPE_VOLUME>
161.8

> <PUBCHEM_COORDINATE_TYPE>
2
5
10

$$$$
