565594
  -OEChem-09062007383D

 31 32  0     1  0  0  0  0  0999 V2000
    2.8937    1.2049    0.1513 O   0  0  0  0  0  0  0  0  0  0  0  0
    2.6480   -1.0340   -0.1988 O   0  0  0  0  0  0  0  0  0  0  0  0
   -0.2501    0.5579   -0.4607 C   0  0  1  0  0  0  0  0  0  0  0  0
   -1.5978    0.2205    0.2565 C   0  0  0  0  0  0  0  0  0  0  0  0
   -1.1076   -1.2125    0.5911 C   0  0  2  0  0  0  0  0  0  0  0  0
    0.7995    0.2678    0.6579 C   0  0  1  0  0  0  0  0  0  0  0  0
   -0.1584   -0.5684   -1.5293 C   0  0  0  0  0  0  0  0  0  0  0  0
    0.2159   -0.9757    1.3574 C   0  0  0  0  0  0  0  0  0  0  0  0
   -0.7203   -1.7925   -0.7874 C   0  0  0  0  0  0  0  0  0  0  0  0
   -0.1312    1.9493   -1.0552 C   0  0  0  0  0  0  0  0  0  0  0  0
   -1.9290    1.0784    1.4950 C   0  0  0  0  0  0  0  0  0  0  0  0
   -2.8572    0.2605   -0.6341 C   0  0  0  0  0  0  0  0  0  0  0  0
    2.1946    0.0437    0.1563 C   0  0  0  0  0  0  0  0  0  0  0  0
   -1.8155   -1.8387    1.1393 H   0  0  0  0  0  0  0  0  0  0  0  0
    0.8465    1.0869    1.3869 H   0  0  0  0  0  0  0  0  0  0  0  0
    0.8515   -0.7430   -1.9085 H   0  0  0  0  0  0  0  0  0  0  0  0
   -0.7715   -0.3402   -2.4088 H   0  0  0  0  0  0  0  0  0  0  0  0
    0.8665   -1.8560    1.3356 H   0  0  0  0  0  0  0  0  0  0  0  0
    0.0141   -0.7598    2.4128 H   0  0  0  0  0  0  0  0  0  0  0  0
   -1.5914   -2.1995   -1.3115 H   0  0  0  0  0  0  0  0  0  0  0  0
    0.0201   -2.5956   -0.7100 H   0  0  0  0  0  0  0  0  0  0  0  0
   -0.1950    2.7203   -0.2805 H   0  0  0  0  0  0  0  0  0  0  0  0
    0.8244    2.0756   -1.5746 H   0  0  0  0  0  0  0  0  0  0  0  0
   -0.9264    2.1407   -1.7829 H   0  0  0  0  0  0  0  0  0  0  0  0
   -1.1290    1.1467    2.2343 H   0  0  0  0  0  0  0  0  0  0  0  0
   -2.1725    2.1051    1.1987 H   0  0  0  0  0  0  0  0  0  0  0  0
   -2.8009    0.6685    2.0183 H   0  0  0  0  0  0  0  0  0  0  0  0
   -3.7169   -0.1541   -0.0945 H   0  0  0  0  0  0  0  0  0  0  0  0
   -3.1043    1.2925   -0.9081 H   0  0  0  0  0  0  0  0  0  0  0  0
   -2.7762   -0.3011   -1.5668 H   0  0  0  0  0  0  0  0  0  0  0  0
    3.8104    1.0792   -0.1745 H   0  0  0  0  0  0  0  0  0  0  0  0
  1 13  1  0  0  0  0
  1 31  1  0  0  0  0
  2 13  2  0  0  0  0
  3  4  1  0  0  0  0
  3  6  1  0  0  0  0
  3  7  1  0  0  0  0
  3 10  1  0  0  0  0
  4  5  1  0  0  0  0
  4 11  1  0  0  0  0
  4 12  1  0  0  0  0
  5  8  1  0  0  0  0
  5  9  1  0  0  0  0
  5 14  1  0  0  0  0
  6  8  1  0  0  0  0
  6 13  1  0  0  0  0
  6 15  1  0  0  0  0
  7  9  1  0  0  0  0
  7 16  1  0  0  0  0
  7 17  1  0  0  0  0
  8 18  1  0  0  0  0
  8 19  1  0  0  0  0
  9 20  1  0  0  0  0
  9 21  1  0  0  0  0
 10 22  1  0  0  0  0
 10 23  1  0  0  0  0
 10 24  1  0  0  0  0
 11 25  1  0  0  0  0
 11 26  1  0  0  0  0
 11 27  1  0  0  0  0
 12 28  1  0  0  0  0
 12 29  1  0  0  0  0
 12 30  1  0  0  0  0
M  END
> <PUBCHEM_COMPOUND_CID>
565594

> <PUBCHEM_CONFORMER_RMSD>
0.6

> <PUBCHEM_CONFORMER_DIVERSEORDER>
1
5
7
3
8
6
2
4

> <PUBCHEM_MMFF94_PARTIAL_CHARGES>
5
1 -0.65
13 0.66
2 -0.57
31 0.5
6 0.06

> <PUBCHEM_EFFECTIVE_ROTOR_COUNT>
2

> <PUBCHEM_PHARMACOPHORE_FEATURES>
5
1 1 acceptor
1 2 acceptor
3 1 2 13 anion
3 4 11 12 hydrophobe
7 3 4 5 6 7 8 9 rings

> <PUBCHEM_HEAVY_ATOM_COUNT>
13

> <PUBCHEM_ATOM_DEF_STEREO_COUNT>
0

> <PUBCHEM_ATOM_UDEF_STEREO_COUNT>
3

> <PUBCHEM_BOND_DEF_STEREO_COUNT>
0

> <PUBCHEM_BOND_UDEF_STEREO_COUNT>
0

> <PUBCHEM_ISOTOPIC_ATOM_COUNT>
0

> <PUBCHEM_COMPONENT_COUNT>
1

> <PUBCHEM_CACTVS_TAUTO_COUNT>
1

> <PUBCHEM_CONFORMER_ID>
0008A15A00000001

> <PUBCHEM_MMFF94_ENERGY>
56.6762

> <PUBCHEM_FEATURE_SELFOVERLAP>
25.427

> <PUBCHEM_SHAPE_FINGERPRINT>
10219947 1 18408606933575538733
12423570 1 9559988913542232411
12491281 212 18059587870532544233
12524768 44 18335422374283576548
13024252 1 16443338775951156002
13214271 11 18042965557208124364
137420 1 14400739651043477703
14713566 1 18270389602932532435
14993402 34 18410005559404943149
15557651 10 18340756044823193993
16945 1 17918273181506436827
20653085 51 16916804941117770800
23419403 2 13880258866652218268
2748010 2 18187651348563142018
369184 2 17749658679851506952
5084963 1 18199735960483416545
528886 8 18114448059013721544
68250623 7 17903368343930776175

> <PUBCHEM_SHAPE_MULTIPOLES>
255.8
3.22
1.67
1.38
1.29
0.09
0.06
0.55
0.21
-0.03
-0.26
-0.44
0
-0.15

> <PUBCHEM_SHAPE_SELFOVERLAP>
542.267

> <PUBCHEM_SHAPE_VOLUME>
150.1

> <PUBCHEM_COORDINATE_TYPE>
2
5
10

$$$$
