22297411
  -OEChem-09062010203D

 24 24  0     1  0  0  0  0  0999 V2000
    2.2799    1.1378   -0.5520 O   0  0  0  0  0  0  0  0  0  0  0  0
    1.9565   -2.3602    0.4624 O   0  0  0  0  0  0  0  0  0  0  0  0
   -3.8703   -0.0011   -0.1399 O   0  0  0  0  0  0  0  0  0  0  0  0
    1.7610    0.0348    0.2014 C   0  0  1  0  0  0  0  0  0  0  0  0
    0.2727    0.0265    0.1116 C   0  0  0  0  0  0  0  0  0  0  0  0
    2.4076   -1.2602   -0.3147 C   0  0  0  0  0  0  0  0  0  0  0  0
   -0.4972    0.2077    1.2606 C   0  0  0  0  0  0  0  0  0  0  0  0
   -0.3498   -0.1642   -1.1221 C   0  0  0  0  0  0  0  0  0  0  0  0
   -1.8894    0.1984    1.1761 C   0  0  0  0  0  0  0  0  0  0  0  0
   -1.7421   -0.1736   -1.2067 C   0  0  0  0  0  0  0  0  0  0  0  0
   -2.5118    0.0076   -0.0575 C   0  0  0  0  0  0  0  0  0  0  0  0
    2.1828    2.3466    0.1808 C   0  0  0  0  0  0  0  0  0  0  0  0
    2.0692    0.1340    1.2520 H   0  0  0  0  0  0  0  0  0  0  0  0
    2.1787   -1.4457   -1.3695 H   0  0  0  0  0  0  0  0  0  0  0  0
    3.4980   -1.1912   -0.2295 H   0  0  0  0  0  0  0  0  0  0  0  0
   -0.0276    0.3580    2.2290 H   0  0  0  0  0  0  0  0  0  0  0  0
    0.2315   -0.2967   -2.0305 H   0  0  0  0  0  0  0  0  0  0  0  0
   -2.4837    0.3403    2.0746 H   0  0  0  0  0  0  0  0  0  0  0  0
   -2.2151   -0.3207   -2.1739 H   0  0  0  0  0  0  0  0  0  0  0  0
    2.6276    3.1439   -0.4216 H   0  0  0  0  0  0  0  0  0  0  0  0
    2.7412    2.2817    1.1202 H   0  0  0  0  0  0  0  0  0  0  0  0
    1.1411    2.6163    0.3765 H   0  0  0  0  0  0  0  0  0  0  0  0
    2.3962   -3.1546    0.1146 H   0  0  0  0  0  0  0  0  0  0  0  0
   -4.1288   -0.1449   -1.0665 H   0  0  0  0  0  0  0  0  0  0  0  0
  1  4  1  0  0  0  0
  1 12  1  0  0  0  0
  2  6  1  0  0  0  0
  2 23  1  0  0  0  0
  3 11  1  0  0  0  0
  3 24  1  0  0  0  0
  4  5  1  0  0  0  0
  4  6  1  0  0  0  0
  4 13  1  0  0  0  0
  5  7  2  0  0  0  0
  5  8  1  0  0  0  0
  6 14  1  0  0  0  0
  6 15  1  0  0  0  0
  7  9  1  0  0  0  0
  7 16  1  0  0  0  0
  8 10  2  0  0  0  0
  8 17  1  0  0  0  0
  9 11  2  0  0  0  0
  9 18  1  0  0  0  0
 10 11  1  0  0  0  0
 10 19  1  0  0  0  0
 12 20  1  0  0  0  0
 12 21  1  0  0  0  0
 12 22  1  0  0  0  0
M  END
> <PUBCHEM_COMPOUND_CID>
22297411

> <PUBCHEM_CONFORMER_RMSD>
0.6

> <PUBCHEM_CONFORMER_DIVERSEORDER>
1
6
2
3
9
7
8
10
4
5

> <PUBCHEM_MMFF94_PARTIAL_CHARGES>
18
1 -0.56
10 -0.15
11 0.08
12 0.28
16 0.15
17 0.15
18 0.15
19 0.15
2 -0.68
23 0.4
24 0.45
3 -0.53
4 0.42
5 -0.14
6 0.28
7 -0.15
8 -0.15
9 -0.15

> <PUBCHEM_EFFECTIVE_ROTOR_COUNT>
3

> <PUBCHEM_PHARMACOPHORE_FEATURES>
5
1 1 acceptor
1 2 acceptor
1 2 donor
1 3 donor
6 5 7 8 9 10 11 rings

> <PUBCHEM_HEAVY_ATOM_COUNT>
12

> <PUBCHEM_ATOM_DEF_STEREO_COUNT>
0

> <PUBCHEM_ATOM_UDEF_STEREO_COUNT>
1

> <PUBCHEM_BOND_DEF_STEREO_COUNT>
0

> <PUBCHEM_BOND_UDEF_STEREO_COUNT>
0

> <PUBCHEM_ISOTOPIC_ATOM_COUNT>
0

> <PUBCHEM_COMPONENT_COUNT>
1

> <PUBCHEM_CACTVS_TAUTO_COUNT>
2

> <PUBCHEM_CONFORMER_ID>
01543B4300000001

> <PUBCHEM_MMFF94_ENERGY>
31.5437

> <PUBCHEM_FEATURE_SELFOVERLAP>
25.371

> <PUBCHEM_SHAPE_FINGERPRINT>
10857977 72 16153708768990007973
11031198 65 18261682566073219820
12326174 3 18411991243303450414
12423570 1 13502312563811258308
12932764 1 18409739456126636749
13538477 17 17632289120532025407
15310529 11 18342454859360934349
15775835 57 18129665338671200236
16945 1 18409732854492890282
18186145 218 17603860066802129333
19026448 4 18187365437481040589
20201158 50 17822577105589752674
20361792 2 18197212538733515958
20559304 39 17489588939475476066
20645464 45 17313097592137800169
20645476 183 17917148407086546741
20715346 28 17531261581498892971
21040471 1 16056052224806160465
23552423 10 18201714076375352311
2748010 2 15142396712930639983
369184 2 18409732867720683465
5084963 1 17917433073039347987
528862 383 18341891896301149574
81228 2 17327167755245119266

> <PUBCHEM_SHAPE_MULTIPOLES>
229.35
4.56
1.68
1.15
2.21
0.08
-0.03
0.17
0.25
-2.25
-0.16
0.43
-0.03
-0.37

> <PUBCHEM_SHAPE_SELFOVERLAP>
468.219

> <PUBCHEM_SHAPE_VOLUME>
133.7

> <PUBCHEM_COORDINATE_TYPE>
2
5
10

$$$$
