1548883
  -OEChem-09062007173D

 24 24  0     0  0  0  0  0  0999 V2000
   -2.0298    1.6132   -0.8205 O   0  0  0  0  0  0  0  0  0  0  0  0
   -3.5211   -0.2668    0.5821 O   0  0  0  0  0  0  0  0  0  0  0  0
    3.6740    1.4478    0.1718 O   0  0  0  0  0  0  0  0  0  0  0  0
    1.8176    0.7248    1.2835 O   0  0  0  0  0  0  0  0  0  0  0  0
    0.4226   -1.0705   -0.4379 C   0  0  0  0  0  0  0  0  0  0  0  0
   -1.4779    0.4211   -0.4598 C   0  0  0  0  0  0  0  0  0  0  0  0
   -0.1534    0.1469   -0.8010 C   0  0  0  0  0  0  0  0  0  0  0  0
   -0.3259   -2.0137    0.2665 C   0  0  0  0  0  0  0  0  0  0  0  0
   -2.2263   -0.5223    0.2445 C   0  0  0  0  0  0  0  0  0  0  0  0
   -1.6502   -1.7396    0.6077 C   0  0  0  0  0  0  0  0  0  0  0  0
    1.8037   -1.3564   -0.7926 C   0  0  0  0  0  0  0  0  0  0  0  0
    2.8765   -0.6326   -0.4027 C   0  0  0  0  0  0  0  0  0  0  0  0
   -1.9049    2.6916    0.1045 C   0  0  0  0  0  0  0  0  0  0  0  0
    2.6952    0.5564    0.4540 C   0  0  0  0  0  0  0  0  0  0  0  0
    0.4122    0.8870   -1.3635 H   0  0  0  0  0  0  0  0  0  0  0  0
    0.1094   -2.9668    0.5572 H   0  0  0  0  0  0  0  0  0  0  0  0
   -2.2219   -2.4833    1.1565 H   0  0  0  0  0  0  0  0  0  0  0  0
    1.9643   -2.2369   -1.4095 H   0  0  0  0  0  0  0  0  0  0  0  0
    3.8752   -0.8941   -0.7331 H   0  0  0  0  0  0  0  0  0  0  0  0
   -0.8501    2.9288    0.2764 H   0  0  0  0  0  0  0  0  0  0  0  0
   -2.3937    2.4451    1.0523 H   0  0  0  0  0  0  0  0  0  0  0  0
   -2.3956    3.5696   -0.3243 H   0  0  0  0  0  0  0  0  0  0  0  0
   -3.8790   -1.0310    1.0658 H   0  0  0  0  0  0  0  0  0  0  0  0
    3.5988    2.2603    0.7164 H   0  0  0  0  0  0  0  0  0  0  0  0
  1  6  1  0  0  0  0
  1 13  1  0  0  0  0
  2  9  1  0  0  0  0
  2 23  1  0  0  0  0
  3 14  1  0  0  0  0
  3 24  1  0  0  0  0
  4 14  2  0  0  0  0
  5  7  2  0  0  0  0
  5  8  1  0  0  0  0
  5 11  1  0  0  0  0
  6  7  1  0  0  0  0
  6  9  2  0  0  0  0
  7 15  1  0  0  0  0
  8 10  2  0  0  0  0
  8 16  1  0  0  0  0
  9 10  1  0  0  0  0
 10 17  1  0  0  0  0
 11 12  2  0  0  0  0
 11 18  1  0  0  0  0
 12 14  1  0  0  0  0
 12 19  1  0  0  0  0
 13 20  1  0  0  0  0
 13 21  1  0  0  0  0
 13 22  1  0  0  0  0
M  END
> <PUBCHEM_COMPOUND_CID>
1548883

> <PUBCHEM_CONFORMER_RMSD>
0.6

> <PUBCHEM_CONFORMER_DIVERSEORDER>
1
8
4
2
6
7
3
5

> <PUBCHEM_MMFF94_PARTIAL_CHARGES>
21
1 -0.36
10 -0.15
11 -0.18
12 -0.14
13 0.28
14 0.71
15 0.15
16 0.15
17 0.15
18 0.15
19 0.15
2 -0.53
23 0.45
24 0.5
3 -0.65
4 -0.57
5 0.03
6 0.08
7 -0.15
8 -0.15
9 0.08

> <PUBCHEM_EFFECTIVE_ROTOR_COUNT>
3

> <PUBCHEM_PHARMACOPHORE_FEATURES>
6
1 1 acceptor
1 2 donor
1 3 acceptor
1 4 acceptor
3 3 4 14 anion
6 5 6 7 8 9 10 rings

> <PUBCHEM_HEAVY_ATOM_COUNT>
14

> <PUBCHEM_ATOM_DEF_STEREO_COUNT>
0

> <PUBCHEM_ATOM_UDEF_STEREO_COUNT>
0

> <PUBCHEM_BOND_DEF_STEREO_COUNT>
1

> <PUBCHEM_BOND_UDEF_STEREO_COUNT>
0

> <PUBCHEM_ISOTOPIC_ATOM_COUNT>
0

> <PUBCHEM_COMPONENT_COUNT>
1

> <PUBCHEM_CACTVS_TAUTO_COUNT>
3

> <PUBCHEM_CONFORMER_ID>
0017A25300000001

> <PUBCHEM_MMFF94_ENERGY>
51.0044

> <PUBCHEM_FEATURE_SELFOVERLAP>
30.502

> <PUBCHEM_SHAPE_FINGERPRINT>
10608611 8 18412263909049035748
10857977 72 18114188565859272095
12382932 28 18263933309182434371
13764800 53 18334858298864347705
13839132 238 18337671914802065462
15219456 202 18341614789385222350
15775835 57 17775004643354011494
16945 1 18261117391184424671
17844478 74 18411146856505804107
17846911 113 18408598188800474091
19049666 15 18268435633347085534
19973954 147 18340206297757431100
20304884 271 18053664681240313749
20510252 161 18409732859035985425
21501502 16 18264205798971666494
21524375 3 17975411313599624367
21947302 44 18198613346426969996
22802520 49 18199476454528188716
23211744 41 18342178821581062975
23388829 49 17189252128627335631
23402539 116 18341042038649176335
25 1 17909270182703259732
25610 171 18261391221061144499
2748010 2 18044384820529589287
53812653 166 18193279581076546143
7364860 26 17833547895199394583
81228 2 18187098251554906415

> <PUBCHEM_SHAPE_MULTIPOLES>
264.64
4.98
2.31
0.94
1.82
0.81
0.03
1.63
0.62
-0.94
0.15
0.12
0.02
0.79

> <PUBCHEM_SHAPE_SELFOVERLAP>
554.068

> <PUBCHEM_SHAPE_VOLUME>
149.9

> <PUBCHEM_COORDINATE_TYPE>
2
5
10

$$$$
