44575265
  -OEChem-09062007143D

 54 58  0     1  0  0  0  0  0999 V2000
    0.4469   -0.2483    1.3190 O   0  0  0  0  0  0  0  0  0  0  0  0
   -1.3849    2.5443    0.4688 O   0  0  0  0  0  0  0  0  0  0  0  0
    0.1870    4.0199    1.2906 O   0  0  0  0  0  0  0  0  0  0  0  0
   -0.6974   -1.4766    2.9065 O   0  0  0  0  0  0  0  0  0  0  0  0
    0.0689    1.0438   -0.7370 C   0  0  2  0  0  0  0  0  0  0  0  0
    0.6898   -0.2710   -0.1293 C   0  0  1  0  0  0  0  0  0  0  0  0
    2.2446   -0.2909   -0.4159 C   0  0  1  0  0  0  0  0  0  0  0  0
    2.6602    1.0625   -1.0828 C   0  0  1  0  0  0  0  0  0  0  0  0
    0.3996    1.1712   -2.2467 C   0  0  0  0  0  0  0  0  0  0  0  0
    1.9347    1.1389   -2.4522 C   0  0  0  0  0  0  0  0  0  0  0  0
    0.8170    2.1703   -0.0865 C   0  0  0  0  0  0  0  0  0  0  0  0
    2.1437    2.2109   -0.2367 C   0  0  0  0  0  0  0  0  0  0  0  0
    0.0223   -1.5532   -0.5024 C   0  0  0  0  0  0  0  0  0  0  0  0
    3.1034   -0.5945    0.8160 C   0  0  0  0  0  0  0  0  0  0  0  0
   -1.3322    1.4085   -0.3662 C   0  0  0  0  0  0  0  0  0  0  0  0
   -0.1125    3.0346    0.6392 C   0  0  0  0  0  0  0  0  0  0  0  0
   -0.5741   -2.1183    0.6100 C   0  0  0  0  0  0  0  0  0  0  0  0
    4.5723   -0.7343    0.4386 C   0  0  0  0  0  0  0  0  0  0  0  0
   -0.3193   -1.2843    1.7687 C   0  0  0  0  0  0  0  0  0  0  0  0
   -0.0507   -2.2131   -1.7196 C   0  0  0  0  0  0  0  0  0  0  0  0
   -2.4575    0.8162   -0.7800 C   0  0  0  0  0  0  0  0  0  0  0  0
   -1.2744   -3.3117    0.5717 C   0  0  0  0  0  0  0  0  0  0  0  0
    5.4280   -1.0109    1.6645 C   0  0  0  0  0  0  0  0  0  0  0  0
   -3.8335    1.2428   -0.3610 C   0  0  0  0  0  0  0  0  0  0  0  0
   -0.7522   -3.4215   -1.7941 C   0  0  0  0  0  0  0  0  0  0  0  0
   -1.3648   -3.9651   -0.6554 C   0  0  0  0  0  0  0  0  0  0  0  0
   -4.5799    0.1045    0.3353 C   0  0  0  0  0  0  0  0  0  0  0  0
   -5.9851    0.5251    0.7370 C   0  0  0  0  0  0  0  0  0  0  0  0
    2.4572   -1.0759   -1.1558 H   0  0  0  0  0  0  0  0  0  0  0  0
    3.7318    1.1607   -1.2611 H   0  0  0  0  0  0  0  0  0  0  0  0
   -0.0804    0.3850   -2.8373 H   0  0  0  0  0  0  0  0  0  0  0  0
    0.0105    2.1166   -2.6515 H   0  0  0  0  0  0  0  0  0  0  0  0
    2.2472    2.0387   -2.9973 H   0  0  0  0  0  0  0  0  0  0  0  0
    2.2091    0.2822   -3.0793 H   0  0  0  0  0  0  0  0  0  0  0  0
    2.7886    2.9637    0.1937 H   0  0  0  0  0  0  0  0  0  0  0  0
    2.9917    0.1902    1.5739 H   0  0  0  0  0  0  0  0  0  0  0  0
    2.7671   -1.5332    1.2735 H   0  0  0  0  0  0  0  0  0  0  0  0
    4.9671    0.1756   -0.0189 H   0  0  0  0  0  0  0  0  0  0  0  0
    4.7012   -1.5483   -0.2840 H   0  0  0  0  0  0  0  0  0  0  0  0
    0.4296   -1.8176   -2.6076 H   0  0  0  0  0  0  0  0  0  0  0  0
   -2.3958   -0.0290   -1.4602 H   0  0  0  0  0  0  0  0  0  0  0  0
   -1.7336   -3.7327    1.4589 H   0  0  0  0  0  0  0  0  0  0  0  0
    5.1184   -1.9375    2.1584 H   0  0  0  0  0  0  0  0  0  0  0  0
    6.4793   -1.1153    1.3778 H   0  0  0  0  0  0  0  0  0  0  0  0
    5.3537   -0.1935    2.3890 H   0  0  0  0  0  0  0  0  0  0  0  0
   -4.3846    1.5460   -1.2596 H   0  0  0  0  0  0  0  0  0  0  0  0
   -3.8070    2.1173    0.2988 H   0  0  0  0  0  0  0  0  0  0  0  0
   -0.8203   -3.9467   -2.7430 H   0  0  0  0  0  0  0  0  0  0  0  0
   -1.9042   -4.9051   -0.7308 H   0  0  0  0  0  0  0  0  0  0  0  0
   -4.0299   -0.2117    1.2302 H   0  0  0  0  0  0  0  0  0  0  0  0
   -4.6429   -0.7671   -0.3276 H   0  0  0  0  0  0  0  0  0  0  0  0
   -6.5730    0.8163   -0.1394 H   0  0  0  0  0  0  0  0  0  0  0  0
   -6.5013   -0.3031    1.2325 H   0  0  0  0  0  0  0  0  0  0  0  0
   -5.9582    1.3718    1.4303 H   0  0  0  0  0  0  0  0  0  0  0  0
  1  6  1  0  0  0  0
  1 19  1  0  0  0  0
  2 15  1  0  0  0  0
  2 16  1  0  0  0  0
  3 16  2  0  0  0  0
  4 19  2  0  0  0  0
  5  6  1  0  0  0  0
  5  9  1  0  0  0  0
  5 11  1  0  0  0  0
  5 15  1  0  0  0  0
  6  7  1  0  0  0  0
  6 13  1  0  0  0  0
  7  8  1  0  0  0  0
  7 14  1  0  0  0  0
  7 29  1  0  0  0  0
  8 10  1  0  0  0  0
  8 12  1  0  0  0  0
  8 30  1  0  0  0  0
  9 10  1  0  0  0  0
  9 31  1  0  0  0  0
  9 32  1  0  0  0  0
 10 33  1  0  0  0  0
 10 34  1  0  0  0  0
 11 12  2  0  0  0  0
 11 16  1  0  0  0  0
 12 35  1  0  0  0  0
 13 17  1  0  0  0  0
 13 20  2  0  0  0  0
 14 18  1  0  0  0  0
 14 36  1  0  0  0  0
 14 37  1  0  0  0  0
 15 21  2  0  0  0  0
 17 19  1  0  0  0  0
 17 22  2  0  0  0  0
 18 23  1  0  0  0  0
 18 38  1  0  0  0  0
 18 39  1  0  0  0  0
 20 25  1  0  0  0  0
 20 40  1  0  0  0  0
 21 24  1  0  0  0  0
 21 41  1  0  0  0  0
 22 26  1  0  0  0  0
 22 42  1  0  0  0  0
 23 43  1  0  0  0  0
 23 44  1  0  0  0  0
 23 45  1  0  0  0  0
 24 27  1  0  0  0  0
 24 46  1  0  0  0  0
 24 47  1  0  0  0  0
 25 26  2  0  0  0  0
 25 48  1  0  0  0  0
 26 49  1  0  0  0  0
 27 28  1  0  0  0  0
 27 50  1  0  0  0  0
 27 51  1  0  0  0  0
 28 52  1  0  0  0  0
 28 53  1  0  0  0  0
 28 54  1  0  0  0  0
M  END
> <PUBCHEM_COMPOUND_CID>
44575265

> <PUBCHEM_CONFORMER_RMSD>
0.8

> <PUBCHEM_CONFORMER_DIVERSEORDER>
2
6
9
3
4
7
8
1
5

> <PUBCHEM_MMFF94_PARTIAL_CHARGES>
26
1 -0.43
11 -0.12
12 -0.29
13 -0.14
15 -0.06
16 0.71
17 0.09
19 0.63
2 -0.23
20 -0.15
21 -0.29
22 -0.15
24 0.14
25 -0.15
26 -0.15
3 -0.57
35 0.15
4 -0.57
40 0.15
41 0.15
42 0.15
48 0.15
49 0.15
5 0.28
6 0.42
8 0.14

> <PUBCHEM_EFFECTIVE_ROTOR_COUNT>
5

> <PUBCHEM_PHARMACOPHORE_FEATURES>
8
1 23 hydrophobe
1 28 hydrophobe
1 3 acceptor
1 4 acceptor
5 1 6 13 17 19 rings
5 2 5 11 15 16 rings
6 13 17 20 22 25 26 rings
8 5 6 7 8 9 10 11 12 rings

> <PUBCHEM_HEAVY_ATOM_COUNT>
28

> <PUBCHEM_ATOM_DEF_STEREO_COUNT>
2

> <PUBCHEM_ATOM_UDEF_STEREO_COUNT>
2

> <PUBCHEM_BOND_DEF_STEREO_COUNT>
1

> <PUBCHEM_BOND_UDEF_STEREO_COUNT>
0

> <PUBCHEM_ISOTOPIC_ATOM_COUNT>
0

> <PUBCHEM_COMPONENT_COUNT>
1

> <PUBCHEM_CACTVS_TAUTO_COUNT>
1

> <PUBCHEM_CONFORMER_ID>
02A82A2100000002

> <PUBCHEM_MMFF94_ENERGY>
79.1723

> <PUBCHEM_FEATURE_SELFOVERLAP>
40.761

> <PUBCHEM_SHAPE_FINGERPRINT>
10863032 1 18126273375585588100
1100329 8 18410847797943461600
11421498 54 17702954621971233049
11578080 2 17700689837817440264
12035758 1 18341608217948272338
12422481 6 18409451375432748355
12715332 25 18408036316609628382
12788726 201 18271538511175066520
12930653 34 17839735972251936176
13140716 1 18339071709485131018
13583140 156 17399262105186763147
14178342 30 17980486650462522572
14787075 74 18408317778923340536
14863182 85 18268159669018988439
14955137 171 18411136905314596531
16728300 4 17607224486004302402
16945 1 18336267847164681860
20028762 73 18201715180863034135
20771845 140 18060136501851263279
23419403 2 16676620122766562996
23558518 356 17617657004937847893
23559900 14 18271538580442884372
3383291 50 18338796690050858626
57527295 17 17615380981076246590
81228 2 17467625336271163893
9896288 288 17840580393224646488
9999458 23 16443354186494261165

> <PUBCHEM_SHAPE_MULTIPOLES>
552.75
6.84
4.32
2.01
2.37
1.33
-0.08
-0.46
2.96
1.39
-0.17
-0.72
0.54
-0.95

> <PUBCHEM_SHAPE_SELFOVERLAP>
1225.431

> <PUBCHEM_SHAPE_VOLUME>
296.4

> <PUBCHEM_COORDINATE_TYPE>
2
5
10

$$$$
