1794426
  -OEChem-09062007243D

 42 43  0     1  0  0  0  0  0999 V2000
   -1.5182   -0.6275   -1.1553 O   0  0  0  0  0  0  0  0  0  0  0  0
   -5.1328    1.7722   -0.4421 O   0  0  0  0  0  0  0  0  0  0  0  0
   -3.9858   -2.2844    0.9753 O   0  0  0  0  0  0  0  0  0  0  0  0
   -2.7975   -0.6949    2.9470 O   0  0  0  0  0  0  0  0  0  0  0  0
   -2.7832    2.3826   -1.7598 O   0  5  0  0  0  0  0  0  0  0  0  0
   -2.0476    2.3059    0.4053 O   0  0  0  0  0  0  0  0  0  0  0  0
   -0.4299   -2.6609   -1.0187 O   0  0  0  0  0  0  0  0  0  0  0  0
    6.7621   -0.9193   -0.2484 O   0  0  0  0  0  0  0  0  0  0  0  0
    6.6197    1.6908    0.6970 O   0  0  0  0  0  0  0  0  0  0  0  0
   -3.9337    1.0403   -0.2014 C   0  0  2  0  0  0  0  0  0  0  0  0
   -2.7826   -1.1798   -0.8020 C   0  0  2  0  0  0  0  0  0  0  0  0
   -3.8889   -0.1707   -1.1401 C   0  0  0  0  0  0  0  0  0  0  0  0
   -2.7903   -1.5613    0.6818 C   0  0  1  0  0  0  0  0  0  0  0  0
   -3.8622    0.6583    1.2753 C   0  0  0  0  0  0  0  0  0  0  0  0
   -2.7232   -0.3170    1.5750 C   0  0  1  0  0  0  0  0  0  0  0  0
   -2.8104    2.0056   -0.5554 C   0  0  0  0  0  0  0  0  0  0  0  0
   -0.4417   -1.4416   -0.9603 C   0  0  0  0  0  0  0  0  0  0  0  0
    0.7276   -0.5845   -0.6600 C   0  0  0  0  0  0  0  0  0  0  0  0
    1.9223   -1.1509   -0.4383 C   0  0  0  0  0  0  0  0  0  0  0  0
    3.1589   -0.4069   -0.1410 C   0  0  0  0  0  0  0  0  0  0  0  0
    4.3847   -1.0218   -0.3377 C   0  0  0  0  0  0  0  0  0  0  0  0
    3.0716    0.8931    0.3299 C   0  0  0  0  0  0  0  0  0  0  0  0
    5.5551   -0.3174   -0.0561 C   0  0  0  0  0  0  0  0  0  0  0  0
    4.2420    1.5976    0.6117 C   0  0  0  0  0  0  0  0  0  0  0  0
    5.4838    0.9923    0.4185 C   0  0  0  0  0  0  0  0  0  0  0  0
   -2.9592   -2.0689   -1.4218 H   0  0  0  0  0  0  0  0  0  0  0  0
   -3.7870    0.1465   -2.1858 H   0  0  0  0  0  0  0  0  0  0  0  0
   -4.8603   -0.6816   -1.0884 H   0  0  0  0  0  0  0  0  0  0  0  0
   -1.9640   -2.2246    0.9553 H   0  0  0  0  0  0  0  0  0  0  0  0
   -4.8176    0.2032    1.5743 H   0  0  0  0  0  0  0  0  0  0  0  0
   -3.7969    1.5408    1.9264 H   0  0  0  0  0  0  0  0  0  0  0  0
   -1.7468    0.1581    1.4439 H   0  0  0  0  0  0  0  0  0  0  0  0
   -5.1868    1.9629   -1.3944 H   0  0  0  0  0  0  0  0  0  0  0  0
   -3.9922   -3.0790    0.4148 H   0  0  0  0  0  0  0  0  0  0  0  0
   -2.7227    0.1153    3.4796 H   0  0  0  0  0  0  0  0  0  0  0  0
    0.5624    0.4865   -0.6552 H   0  0  0  0  0  0  0  0  0  0  0  0
    2.0299   -2.2324   -0.4828 H   0  0  0  0  0  0  0  0  0  0  0  0
    4.4500   -2.0418   -0.7087 H   0  0  0  0  0  0  0  0  0  0  0  0
    2.1278    1.3960    0.5155 H   0  0  0  0  0  0  0  0  0  0  0  0
    4.1802    2.6160    0.9857 H   0  0  0  0  0  0  0  0  0  0  0  0
    7.4370   -0.4798    0.2937 H   0  0  0  0  0  0  0  0  0  0  0  0
    7.3664    1.3098    0.2073 H   0  0  0  0  0  0  0  0  0  0  0  0
  1 11  1  0  0  0  0
  1 17  1  0  0  0  0
  2 10  1  0  0  0  0
  2 33  1  0  0  0  0
  3 13  1  0  0  0  0
  3 34  1  0  0  0  0
  4 15  1  0  0  0  0
  4 35  1  0  0  0  0
  5 16  1  0  0  0  0
  6 16  2  0  0  0  0
  7 17  2  0  0  0  0
  8 23  1  0  0  0  0
  8 41  1  0  0  0  0
  9 25  1  0  0  0  0
  9 42  1  0  0  0  0
 10 12  1  0  0  0  0
 10 14  1  0  0  0  0
 10 16  1  0  0  0  0
 11 12  1  0  0  0  0
 11 13  1  0  0  0  0
 11 26  1  0  0  0  0
 12 27  1  0  0  0  0
 12 28  1  0  0  0  0
 13 15  1  0  0  0  0
 13 29  1  0  0  0  0
 14 15  1  0  0  0  0
 14 30  1  0  0  0  0
 14 31  1  0  0  0  0
 15 32  1  0  0  0  0
 17 18  1  0  0  0  0
 18 19  2  0  0  0  0
 18 36  1  0  0  0  0
 19 20  1  0  0  0  0
 19 37  1  0  0  0  0
 20 21  2  0  0  0  0
 20 22  1  0  0  0  0
 21 23  1  0  0  0  0
 21 38  1  0  0  0  0
 22 24  2  0  0  0  0
 22 39  1  0  0  0  0
 23 25  2  0  0  0  0
 24 25  1  0  0  0  0
 24 40  1  0  0  0  0
M  CHG  1   5  -1
M  END
> <PUBCHEM_COMPOUND_CID>
1794426

> <PUBCHEM_CONFORMER_RMSD>
0.8

> <PUBCHEM_CONFORMER_DIVERSEORDER>
1
4
120
53
27
93
84
99
79
115
113
100
144
28
19
76
141
69
67
155
17
103
131
29
35
26
74
62
91
41
85
111
32
68
124
80
146
130
25
119
18
134
70
61
7
137
142
16
89
105
122
150
8
73
90
132
145
123
116
143
40
83
92
58
136
153
106
66
49
46
31
42
114
117
112
109
13
75
86
50
47
78
72
147
149
110
101
87
59
37
148
71
94
23
65
135
151
64
55
30
43
10
77
152
88
20
36
129
52
82
60
24
104
138
38
5
21
45
128
118
9
125
22
15
44
140
107
96
14
48
34
127
102
81
133
126
33
11
98
63
108
39
2
56
97
95
54
6
57
121
154
139
12
51
3

> <PUBCHEM_MMFF94_PARTIAL_CHARGES>
33
1 -0.43
10 0.17
11 0.28
13 0.28
15 0.28
16 0.91
17 0.71
18 -0.14
19 -0.18
2 -0.68
20 0.03
21 -0.15
22 -0.15
23 0.08
24 -0.15
25 0.08
3 -0.68
33 0.4
34 0.4
35 0.4
36 0.15
37 0.15
38 0.15
39 0.15
4 -0.68
40 0.15
41 0.45
42 0.45
5 -0.9
6 -0.9
7 -0.57
8 -0.53
9 -0.53

> <PUBCHEM_EFFECTIVE_ROTOR_COUNT>
6.2

> <PUBCHEM_PHARMACOPHORE_FEATURES>
14
1 2 acceptor
1 2 donor
1 3 acceptor
1 3 donor
1 4 acceptor
1 4 donor
1 5 acceptor
1 6 acceptor
1 7 acceptor
1 8 donor
1 9 donor
3 5 6 16 anion
6 10 11 12 13 14 15 rings
6 20 21 22 23 24 25 rings

> <PUBCHEM_HEAVY_ATOM_COUNT>
25

> <PUBCHEM_ATOM_DEF_STEREO_COUNT>
4

> <PUBCHEM_ATOM_UDEF_STEREO_COUNT>
0

> <PUBCHEM_BOND_DEF_STEREO_COUNT>
1

> <PUBCHEM_BOND_UDEF_STEREO_COUNT>
0

> <PUBCHEM_ISOTOPIC_ATOM_COUNT>
0

> <PUBCHEM_COMPONENT_COUNT>
1

> <PUBCHEM_CACTVS_TAUTO_COUNT>
10

> <PUBCHEM_CONFORMER_ID>
001B617A00000001

> <PUBCHEM_MMFF94_ENERGY>
76.587

> <PUBCHEM_FEATURE_SELFOVERLAP>
71.121

> <PUBCHEM_SHAPE_FINGERPRINT>
11089746 13 15841828946388068258
11315181 36 17603867835907545862
11370993 144 18268154166801716252
11552529 35 17168716365382624298
12035758 1 18115613486644404057
12596602 18 17022906787223392112
13402501 40 18412822460787667125
13583140 156 18334581217792214010
13994607 96 16773803597455384649
14341114 176 18335424556317035900
15163728 17 13396414923102359691
15183329 4 17632302264081309198
15537594 2 13262401063929856874
16988056 13 12594260596460733163
17780758 139 16515689952410153865
17844677 252 18334018319863410924
19489759 90 17967248702140906963
21033648 29 18271513273878098704
21315759 148 17749399191350715018
21403212 168 12035992536404048663
21623110 236 18130507547566999689
23198884 109 15339117935757889340
27216 239 18410294692577257175
497634 4 17489304222077928221
5081480 168 16699242329526205116
5104073 3 18408878530365001906
602551 16 16443349818940003970
90127 26 18407761435109265622
9981440 41 18334859360233089859
9995097 60 18272369746666308062

> <PUBCHEM_SHAPE_MULTIPOLES>
461.66
14.33
2.41
1.5
21.78
0.31
0.77
4.17
1.75
-1.46
-0.4
-2.2
-0.09
1.6

> <PUBCHEM_SHAPE_SELFOVERLAP>
985.252

> <PUBCHEM_SHAPE_VOLUME>
252.9

> <PUBCHEM_COORDINATE_TYPE>
2
5
10

$$$$
