117297
  -OEChem-09062014483D

 23 22  0     1  0  0  0  0  0999 V2000
    0.5562    0.6332   -1.1714 O   0  0  0  0  0  0  0  0  0  0  0  0
   -0.2164   -1.0863    0.3382 C   0  0  2  0  0  0  0  0  0  0  0  0
   -1.6682   -0.7249   -0.0144 C   0  0  0  0  0  0  0  0  0  0  0  0
    0.7669   -0.0215   -0.1505 C   0  0  0  0  0  0  0  0  0  0  0  0
    0.1751   -2.4256   -0.2808 C   0  0  0  0  0  0  0  0  0  0  0  0
    2.0316    0.1499    0.6754 C   0  0  0  0  0  0  0  0  0  0  0  0
   -2.0905    0.5855    0.5885 C   0  0  0  0  0  0  0  0  0  0  0  0
    2.9352    1.2460    0.1402 C   0  0  0  0  0  0  0  0  0  0  0  0
   -2.4898    1.6439   -0.1253 C   0  0  0  0  0  0  0  0  0  0  0  0
   -0.1276   -1.1537    1.4299 H   0  0  0  0  0  0  0  0  0  0  0  0
   -2.3401   -1.5061    0.3622 H   0  0  0  0  0  0  0  0  0  0  0  0
   -1.7964   -0.7019   -1.1044 H   0  0  0  0  0  0  0  0  0  0  0  0
    0.1318   -2.3861   -1.3749 H   0  0  0  0  0  0  0  0  0  0  0  0
    1.1968   -2.7054   -0.0033 H   0  0  0  0  0  0  0  0  0  0  0  0
   -0.4947   -3.2223    0.0590 H   0  0  0  0  0  0  0  0  0  0  0  0
    2.5747   -0.8002    0.6810 H   0  0  0  0  0  0  0  0  0  0  0  0
    1.7379    0.3924    1.7021 H   0  0  0  0  0  0  0  0  0  0  0  0
   -2.0761    0.6631    1.6726 H   0  0  0  0  0  0  0  0  0  0  0  0
    3.8275    1.3439    0.7660 H   0  0  0  0  0  0  0  0  0  0  0  0
    2.4179    2.2110    0.1279 H   0  0  0  0  0  0  0  0  0  0  0  0
    3.2576    1.0253   -0.8828 H   0  0  0  0  0  0  0  0  0  0  0  0
   -2.7867    2.5609    0.3716 H   0  0  0  0  0  0  0  0  0  0  0  0
   -2.5266    1.6167   -1.2086 H   0  0  0  0  0  0  0  0  0  0  0  0
  1  4  2  0  0  0  0
  2  3  1  0  0  0  0
  2  4  1  0  0  0  0
  2  5  1  0  0  0  0
  2 10  1  0  0  0  0
  3  7  1  0  0  0  0
  3 11  1  0  0  0  0
  3 12  1  0  0  0  0
  4  6  1  0  0  0  0
  5 13  1  0  0  0  0
  5 14  1  0  0  0  0
  5 15  1  0  0  0  0
  6  8  1  0  0  0  0
  6 16  1  0  0  0  0
  6 17  1  0  0  0  0
  7  9  2  0  0  0  0
  7 18  1  0  0  0  0
  8 19  1  0  0  0  0
  8 20  1  0  0  0  0
  8 21  1  0  0  0  0
  9 22  1  0  0  0  0
  9 23  1  0  0  0  0
M  END
> <PUBCHEM_COMPOUND_CID>
117297

> <PUBCHEM_CONFORMER_RMSD>
0.6

> <PUBCHEM_CONFORMER_DIVERSEORDER>
1
16
22
23
69
43
74
76
57
72
11
67
77
50
2
52
36
41
42
47
4
48
81
46
68
55
59
39
18
75
26
25
66
73
40
5
63
79
28
58
78
9
70
60
3
27
44
14
32
38
33
49
53
65
64
31
15
10
37
24
35
61
34
7
13
82
54
62
56
71
29
51
8
20
21
6
45
19
30
80
17
12

> <PUBCHEM_MMFF94_PARTIAL_CHARGES>
10
1 -0.57
18 0.15
2 0.06
22 0.15
23 0.15
3 0.14
4 0.45
6 0.06
7 -0.29
9 -0.3

> <PUBCHEM_EFFECTIVE_ROTOR_COUNT>
4

> <PUBCHEM_PHARMACOPHORE_FEATURES>
4
1 1 acceptor
1 5 hydrophobe
1 8 hydrophobe
1 9 hydrophobe

> <PUBCHEM_HEAVY_ATOM_COUNT>
9

> <PUBCHEM_ATOM_DEF_STEREO_COUNT>
0

> <PUBCHEM_ATOM_UDEF_STEREO_COUNT>
1

> <PUBCHEM_BOND_DEF_STEREO_COUNT>
0

> <PUBCHEM_BOND_UDEF_STEREO_COUNT>
0

> <PUBCHEM_ISOTOPIC_ATOM_COUNT>
0

> <PUBCHEM_COMPONENT_COUNT>
1

> <PUBCHEM_CACTVS_TAUTO_COUNT>
3

> <PUBCHEM_CONFORMER_ID>
0001CA3100000001

> <PUBCHEM_MMFF94_ENERGY>
6.5952

> <PUBCHEM_FEATURE_SELFOVERLAP>
20.297

> <PUBCHEM_SHAPE_FINGERPRINT>
100427 49 16899619909440966627
12897270 3 14908176439210117673
13839132 238 18272098192304402164
14390081 3 18342738485958193297
15775835 57 18411421713070046873
20871998 184 18054236706364744566
21028194 46 18409736148806711465
21040471 1 18410301323490031286
23211744 41 18060143175364907742
23402539 116 17984975144816234663
23552449 1 17765430237664629130
29004967 10 14779535812301386552
5084963 1 17845936345827111664
54338 74 17977932807088914249

> <PUBCHEM_SHAPE_MULTIPOLES>
179.35
3.7
2.04
0.84
0.69
1
0.07
-2.61
-0.46
-0.26
0.19
0.08
-0.08
0.04

> <PUBCHEM_SHAPE_SELFOVERLAP>
329.158

> <PUBCHEM_SHAPE_VOLUME>
114.1

> <PUBCHEM_COORDINATE_TYPE>
2
5
10

$$$$
