6474833
  -OEChem-09062010503D

 45 44  0     1  0  0  0  0  0999 V2000
   -3.8984   -2.8369    0.1568 O   0  0  0  0  0  0  0  0  0  0  0  0
    3.8859   -1.6726   -1.6229 O   0  0  0  0  0  0  0  0  0  0  0  0
   -0.0983    3.0852   -0.2421 C   0  0  0  0  0  0  0  0  0  0  0  0
   -1.1822    2.0036   -0.2333 C   0  0  0  0  0  0  0  0  0  0  0  0
    1.3027    2.5296    0.0259 C   0  0  0  0  0  0  0  0  0  0  0  0
   -2.5930    2.5490   -0.4892 C   0  0  0  0  0  0  0  0  0  0  0  0
    2.3528    3.6409    0.0075 C   0  0  0  0  0  0  0  0  0  0  0  0
   -3.6625    1.4490   -0.4635 C   0  0  0  0  0  0  0  0  0  0  0  0
    3.7421    3.0985    0.3035 C   0  0  0  0  0  0  0  0  0  0  0  0
   -3.7018    0.7328    0.8560 C   0  0  0  0  0  0  0  0  0  0  0  0
   -3.5494   -0.5946    0.9870 C   0  0  0  0  0  0  0  0  0  0  0  0
   -3.3190   -1.5694   -0.1356 C   0  0  1  0  0  0  0  0  0  0  0  0
    3.9370   -1.2379    0.7427 C   0  0  0  0  0  0  0  0  0  0  0  0
    3.3510   -2.1076   -0.3746 C   0  0  1  0  0  0  0  0  0  0  0  0
    3.4068   -1.5916    2.1253 C   0  0  0  0  0  0  0  0  0  0  0  0
   -1.8707   -1.7160   -0.3329 C   0  0  0  0  0  0  0  0  0  0  0  0
    1.8864   -2.0111   -0.4343 C   0  0  0  0  0  0  0  0  0  0  0  0
   -0.6781   -1.8227   -0.4226 C   0  0  0  0  0  0  0  0  0  0  0  0
    0.6888   -1.9285   -0.4534 C   0  0  0  0  0  0  0  0  0  0  0  0
   -0.1077    3.5946   -1.2136 H   0  0  0  0  0  0  0  0  0  0  0  0
   -0.3397    3.8408    0.5156 H   0  0  0  0  0  0  0  0  0  0  0  0
   -0.9441    1.2577   -1.0008 H   0  0  0  0  0  0  0  0  0  0  0  0
   -1.1436    1.4923    0.7353 H   0  0  0  0  0  0  0  0  0  0  0  0
    1.5500    1.7753   -0.7311 H   0  0  0  0  0  0  0  0  0  0  0  0
    1.3156    2.0251    0.9997 H   0  0  0  0  0  0  0  0  0  0  0  0
   -2.6209    3.0499   -1.4644 H   0  0  0  0  0  0  0  0  0  0  0  0
   -2.8305    3.3102    0.2647 H   0  0  0  0  0  0  0  0  0  0  0  0
    2.1002    4.4045    0.7523 H   0  0  0  0  0  0  0  0  0  0  0  0
    2.3583    4.1321   -0.9725 H   0  0  0  0  0  0  0  0  0  0  0  0
   -4.6432    1.9116   -0.6291 H   0  0  0  0  0  0  0  0  0  0  0  0
   -3.4886    0.7871   -1.3151 H   0  0  0  0  0  0  0  0  0  0  0  0
    3.7771    2.6259    1.2903 H   0  0  0  0  0  0  0  0  0  0  0  0
    4.4770    3.9094    0.2885 H   0  0  0  0  0  0  0  0  0  0  0  0
    4.0401    2.3561   -0.4439 H   0  0  0  0  0  0  0  0  0  0  0  0
   -3.8713    1.3307    1.7477 H   0  0  0  0  0  0  0  0  0  0  0  0
   -3.5908   -1.0082    1.9933 H   0  0  0  0  0  0  0  0  0  0  0  0
   -3.7985   -1.2337   -1.0589 H   0  0  0  0  0  0  0  0  0  0  0  0
    3.7343   -0.1777    0.5426 H   0  0  0  0  0  0  0  0  0  0  0  0
    5.0297   -1.3362    0.7338 H   0  0  0  0  0  0  0  0  0  0  0  0
    3.6526   -3.1508   -0.2331 H   0  0  0  0  0  0  0  0  0  0  0  0
    3.5702   -2.6506    2.3486 H   0  0  0  0  0  0  0  0  0  0  0  0
    2.3379   -1.3772    2.2180 H   0  0  0  0  0  0  0  0  0  0  0  0
    3.9277   -1.0019    2.8868 H   0  0  0  0  0  0  0  0  0  0  0  0
   -3.7598   -3.4111   -0.6161 H   0  0  0  0  0  0  0  0  0  0  0  0
    3.6794   -0.7280   -1.7294 H   0  0  0  0  0  0  0  0  0  0  0  0
  1 12  1  0  0  0  0
  1 44  1  0  0  0  0
  2 14  1  0  0  0  0
  2 45  1  0  0  0  0
  3  4  1  0  0  0  0
  3  5  1  0  0  0  0
  3 20  1  0  0  0  0
  3 21  1  0  0  0  0
  4  6  1  0  0  0  0
  4 22  1  0  0  0  0
  4 23  1  0  0  0  0
  5  7  1  0  0  0  0
  5 24  1  0  0  0  0
  5 25  1  0  0  0  0
  6  8  1  0  0  0  0
  6 26  1  0  0  0  0
  6 27  1  0  0  0  0
  7  9  1  0  0  0  0
  7 28  1  0  0  0  0
  7 29  1  0  0  0  0
  8 10  1  0  0  0  0
  8 30  1  0  0  0  0
  8 31  1  0  0  0  0
  9 32  1  0  0  0  0
  9 33  1  0  0  0  0
  9 34  1  0  0  0  0
 10 11  2  0  0  0  0
 10 35  1  0  0  0  0
 11 12  1  0  0  0  0
 11 36  1  0  0  0  0
 12 16  1  0  0  0  0
 12 37  1  0  0  0  0
 13 14  1  0  0  0  0
 13 15  1  0  0  0  0
 13 38  1  0  0  0  0
 13 39  1  0  0  0  0
 14 17  1  0  0  0  0
 14 40  1  0  0  0  0
 15 41  1  0  0  0  0
 15 42  1  0  0  0  0
 15 43  1  0  0  0  0
 16 18  3  0  0  0  0
 17 19  3  0  0  0  0
 18 19  1  0  0  0  0
M  END
> <PUBCHEM_COMPOUND_CID>
6474833

> <PUBCHEM_CONFORMER_RMSD>
1

> <PUBCHEM_CONFORMER_DIVERSEORDER>
1
175
322
124
409
13
404
385
149
197
648
357
47
303
665
95
320
358
133
20
254
129
261
517
674
125
14
371
513
37
366
361
496
220
638
126
161
200
341
479
277
610
52
145
97
293
580
620
6
46
656
373
48
57
646
442
16
402
36
294
611
256
312
574
2
156
243
448
526
515
271
19
229
313
65
205
103
282
78
54
377
50
169
201
110
5
119
639
335
24
77
79
289
235
545
434
571
364
60
658
603
94
331
73
120
90
247
23
647
280
9
681
29
121
40
405
11
216
89
31
491
85
662
18
411
21
360
676
204
584
654
7
330
615
33

> <PUBCHEM_MMFF94_PARTIAL_CHARGES>
13
1 -0.68
10 -0.29
11 -0.29
12 0.62
14 0.48
16 -0.2
17 -0.2
2 -0.68
35 0.15
36 0.15
44 0.4
45 0.4
8 0.14

> <PUBCHEM_EFFECTIVE_ROTOR_COUNT>
8

> <PUBCHEM_PHARMACOPHORE_FEATURES>
6
1 1 acceptor
1 1 donor
1 15 hydrophobe
1 2 acceptor
1 2 donor
1 9 hydrophobe

> <PUBCHEM_HEAVY_ATOM_COUNT>
19

> <PUBCHEM_ATOM_DEF_STEREO_COUNT>
2

> <PUBCHEM_ATOM_UDEF_STEREO_COUNT>
0

> <PUBCHEM_BOND_DEF_STEREO_COUNT>
1

> <PUBCHEM_BOND_UDEF_STEREO_COUNT>
0

> <PUBCHEM_ISOTOPIC_ATOM_COUNT>
0

> <PUBCHEM_COMPONENT_COUNT>
1

> <PUBCHEM_CACTVS_TAUTO_COUNT>
1

> <PUBCHEM_CONFORMER_ID>
0062CC5100000001

> <PUBCHEM_MMFF94_ENERGY>
2.1578

> <PUBCHEM_FEATURE_SELFOVERLAP>
30.446

> <PUBCHEM_SHAPE_FINGERPRINT>
12422481 6 18196340763952693424
13140716 1 18410582786167175267
14081887 123 18122898737849642691
15006816 218 18268151040007963756
16120349 306 17980192312042917376
17818456 19 17613428952979430514
20621476 82 18052517899307583752
23557571 272 18199761253952628623
338550 245 18263082283642494748
3524813 1 17843666790829920522
539174 4 17911557395097391929
57091435 65 18337107981633702552

> <PUBCHEM_SHAPE_MULTIPOLES>
379.27
8.64
5.21
1.16
0.5
3.96
0.36
-2.41
1.45
2.59
-0.45
0.96
-0.63
0.4

> <PUBCHEM_SHAPE_SELFOVERLAP>
714.251

> <PUBCHEM_SHAPE_VOLUME>
233.4

> <PUBCHEM_COORDINATE_TYPE>
2
5
10

$$$$
