642373
  -OEChem-09062007023D

 27 28  0     0  0  0  0  0  0999 V2000
   -0.6224   -1.4908    0.2007 O   0  0  0  0  0  0  0  0  0  0  0  0
    0.6826    2.7556    0.1464 O   0  0  0  0  0  0  0  0  0  0  0  0
    1.0104   -3.1135   -0.0356 O   0  0  0  0  0  0  0  0  0  0  0  0
    0.7894    0.3566    0.0732 C   0  0  0  0  0  0  0  0  0  0  0  0
   -0.5701   -0.0901    0.2277 C   0  0  0  0  0  0  0  0  0  0  0  0
   -3.0530    0.0717    0.5331 C   0  0  0  0  0  0  0  0  0  0  0  0
    1.5451   -0.7896   -0.0459 C   0  0  0  0  0  0  0  0  0  0  0  0
   -1.6752    0.6463    0.3794 C   0  0  0  0  0  0  0  0  0  0  0  0
   -3.9950    0.5884   -0.5547 C   0  0  0  0  0  0  0  0  0  0  0  0
    1.3899    1.6027    0.0310 C   0  0  0  0  0  0  0  0  0  0  0  0
    0.6647   -1.9493    0.0333 C   0  0  0  0  0  0  0  0  0  0  0  0
    2.9184   -0.7645   -0.2114 C   0  0  0  0  0  0  0  0  0  0  0  0
    2.7776    1.6618   -0.1353 C   0  0  0  0  0  0  0  0  0  0  0  0
   -5.3992    0.0291   -0.3859 C   0  0  0  0  0  0  0  0  0  0  0  0
    3.5369    0.4854   -0.2558 C   0  0  0  0  0  0  0  0  0  0  0  0
   -3.0415   -1.0241    0.5148 H   0  0  0  0  0  0  0  0  0  0  0  0
   -3.4370    0.3645    1.5181 H   0  0  0  0  0  0  0  0  0  0  0  0
   -1.6359    1.7290    0.3912 H   0  0  0  0  0  0  0  0  0  0  0  0
   -3.6140    0.3083   -1.5444 H   0  0  0  0  0  0  0  0  0  0  0  0
   -4.0414    1.6840   -0.5259 H   0  0  0  0  0  0  0  0  0  0  0  0
    3.4995   -1.6748   -0.3036 H   0  0  0  0  0  0  0  0  0  0  0  0
   -5.3961   -1.0639   -0.4468 H   0  0  0  0  0  0  0  0  0  0  0  0
   -6.0564    0.4111   -1.1733 H   0  0  0  0  0  0  0  0  0  0  0  0
   -5.8232    0.3188    0.5809 H   0  0  0  0  0  0  0  0  0  0  0  0
    3.2818    2.6245   -0.1724 H   0  0  0  0  0  0  0  0  0  0  0  0
    4.6138    0.5518   -0.3842 H   0  0  0  0  0  0  0  0  0  0  0  0
    0.0291    2.6386    0.8547 H   0  0  0  0  0  0  0  0  0  0  0  0
  1  5  1  0  0  0  0
  1 11  1  0  0  0  0
  2 10  1  0  0  0  0
  2 27  1  0  0  0  0
  3 11  2  0  0  0  0
  4  5  1  0  0  0  0
  4  7  2  0  0  0  0
  4 10  1  0  0  0  0
  5  8  2  0  0  0  0
  6  8  1  0  0  0  0
  6  9  1  0  0  0  0
  6 16  1  0  0  0  0
  6 17  1  0  0  0  0
  7 11  1  0  0  0  0
  7 12  1  0  0  0  0
  8 18  1  0  0  0  0
  9 14  1  0  0  0  0
  9 19  1  0  0  0  0
  9 20  1  0  0  0  0
 10 13  2  0  0  0  0
 12 15  2  0  0  0  0
 12 21  1  0  0  0  0
 13 15  1  0  0  0  0
 13 25  1  0  0  0  0
 14 22  1  0  0  0  0
 14 23  1  0  0  0  0
 14 24  1  0  0  0  0
 15 26  1  0  0  0  0
M  END
> <PUBCHEM_COMPOUND_CID>
642373

> <PUBCHEM_CONFORMER_RMSD>
0.6

> <PUBCHEM_CONFORMER_DIVERSEORDER>
1
5
3
4
2

> <PUBCHEM_MMFF94_PARTIAL_CHARGES>
18
1 -0.23
10 0.08
11 0.63
12 -0.15
13 -0.15
15 -0.15
18 0.15
2 -0.53
21 0.15
25 0.15
26 0.15
27 0.45
3 -0.57
4 0.03
5 0.05
6 0.14
7 0.09
8 -0.29

> <PUBCHEM_EFFECTIVE_ROTOR_COUNT>
2.2

> <PUBCHEM_PHARMACOPHORE_FEATURES>
5
1 14 hydrophobe
1 2 donor
1 3 acceptor
5 1 4 5 7 11 rings
6 4 7 10 12 13 15 rings

> <PUBCHEM_HEAVY_ATOM_COUNT>
15

> <PUBCHEM_ATOM_DEF_STEREO_COUNT>
0

> <PUBCHEM_ATOM_UDEF_STEREO_COUNT>
0

> <PUBCHEM_BOND_DEF_STEREO_COUNT>
1

> <PUBCHEM_BOND_UDEF_STEREO_COUNT>
0

> <PUBCHEM_ISOTOPIC_ATOM_COUNT>
0

> <PUBCHEM_COMPONENT_COUNT>
1

> <PUBCHEM_CACTVS_TAUTO_COUNT>
3

> <PUBCHEM_CONFORMER_ID>
0009CD4500000001

> <PUBCHEM_MMFF94_ENERGY>
34.9032

> <PUBCHEM_FEATURE_SELFOVERLAP>
25.459

> <PUBCHEM_SHAPE_FINGERPRINT>
10219947 1 18410016524308782448
10693767 8 18058448716436417270
10967382 1 18410859849790557642
10980938 120 18410012096176329753
11471102 20 18410292506038165221
116883 192 17548976663663897469
12654215 9 18334293141255531756
12730499 353 18334018289930716515
13380535 76 18408042926659509003
13836976 161 18410574011364438503
13862211 1 18338798888978863166
14251717 144 18411699872421311805
14415576 193 18334014986589266965
14576447 43 18200863050813852623
14911166 2 18411709789727703788
14993402 34 18412833490447825276
15442244 35 17836369250736673529
16945 1 18338529525477091794
18186145 218 18271255996514953273
193761 8 17689722961207996520
200 152 18202280295453013521
20606313 2 18410292505969684365
20645477 70 18338796719946233495
21524375 3 18334857259439979667
21639500 275 18410563003326426285
221490 88 18409174324536193899
22289505 5 18263632971258259069
2334 1 18194971961584628170
23402539 116 18272080639089334276
23402655 69 18341327817251416509
23419403 2 17389917012586267790
23558518 356 17612867510468962648
25 1 18335417967510058831
257057 1 17542780911146257610
2748010 2 18266756842437209970
3060560 45 18411979173938901167
3071541 37 18334581217655024686
33824 294 18409165502372245803
4072396 5 18262220149996991066
528886 8 18411418436305074240
543358 83 18196374719668709441
58051976 378 18413386540855135303
7364860 26 18340206284735638859
81228 2 17400917995377715635
81539 233 18259704497236130471
8272917 22 18341618049703217495

> <PUBCHEM_SHAPE_MULTIPOLES>
291.09
7.17
2.39
0.68
10.62
0.74
-0.01
-1.48
-1.37
-1.79
0.04
0.2
-0.03
0.06

> <PUBCHEM_SHAPE_SELFOVERLAP>
625.85

> <PUBCHEM_SHAPE_VOLUME>
162.7

> <PUBCHEM_COORDINATE_TYPE>
2
5
10

$$$$
