6442656
  -OEChem-09062007073D

 56 60  0     1  0  0  0  0  0999 V2000
    0.9591    0.2655   -1.0985 O   0  0  0  0  0  0  0  0  0  0  0  0
   -2.9237   -1.2891    0.5597 O   0  0  0  0  0  0  0  0  0  0  0  0
    1.3908   -1.0570   -2.9371 O   0  0  0  0  0  0  0  0  0  0  0  0
   -0.9615   -2.4148    1.0004 O   0  0  0  0  0  0  0  0  0  0  0  0
    1.4232    0.2744    0.2798 C   0  0  2  0  0  0  0  0  0  0  0  0
    0.5523    1.9122    1.3998 C   0  0  1  0  0  0  0  0  0  0  0  0
    0.3295    0.3668    1.3837 C   0  0  1  0  0  0  0  0  0  0  0  0
    1.9478    1.6522    0.7772 C   0  0  2  0  0  0  0  0  0  0  0  0
   -0.4251    2.7282    0.5445 C   0  0  0  0  0  0  0  0  0  0  0  0
    2.3565   -0.8595    0.3763 C   0  0  0  0  0  0  0  0  0  0  0  0
   -1.0309   -0.0350    1.0206 C   0  0  0  0  0  0  0  0  0  0  0  0
    2.3568    2.7981   -0.1773 C   0  0  0  0  0  0  0  0  0  0  0  0
   -1.8720    2.3099    0.8421 C   0  0  0  0  0  0  0  0  0  0  0  0
   -2.0220    0.8225    0.8058 C   0  0  0  0  0  0  0  0  0  0  0  0
    2.4391   -1.4613   -0.8120 C   0  0  0  0  0  0  0  0  0  0  0  0
    3.0919   -1.3296    1.5853 C   0  0  0  0  0  0  0  0  0  0  0  0
    3.7462    2.5460   -0.7665 C   0  0  0  0  0  0  0  0  0  0  0  0
    1.5596   -0.7676   -1.7664 C   0  0  0  0  0  0  0  0  0  0  0  0
   -1.5886   -1.3767    0.8706 C   0  0  0  0  0  0  0  0  0  0  0  0
   -3.2040    0.0778    0.5238 C   0  0  0  0  0  0  0  0  0  0  0  0
    4.1465   -2.4213    1.2774 C   0  0  0  0  0  0  0  0  0  0  0  0
    3.2427   -2.6177   -1.0522 C   0  0  0  0  0  0  0  0  0  0  0  0
    4.0455   -3.0762   -0.0796 C   0  0  0  0  0  0  0  0  0  0  0  0
    4.1574    3.6399   -1.7382 C   0  0  0  0  0  0  0  0  0  0  0  0
   -4.4301    0.5402    0.2625 C   0  0  0  0  0  0  0  0  0  0  0  0
   -5.6151   -0.3354   -0.0244 C   0  0  0  0  0  0  0  0  0  0  0  0
   -6.2272   -0.0127   -1.3877 C   0  0  0  0  0  0  0  0  0  0  0  0
   -7.4446   -0.8796   -1.6697 C   0  0  0  0  0  0  0  0  0  0  0  0
    0.5968    2.3236    2.4171 H   0  0  0  0  0  0  0  0  0  0  0  0
    0.6248   -0.0886    2.3391 H   0  0  0  0  0  0  0  0  0  0  0  0
    2.7102    1.5652    1.5661 H   0  0  0  0  0  0  0  0  0  0  0  0
   -0.2761    2.5566   -0.5267 H   0  0  0  0  0  0  0  0  0  0  0  0
   -0.2958    3.8008    0.7264 H   0  0  0  0  0  0  0  0  0  0  0  0
    1.6612    2.9020   -1.0141 H   0  0  0  0  0  0  0  0  0  0  0  0
    2.3658    3.7471    0.3725 H   0  0  0  0  0  0  0  0  0  0  0  0
   -2.5253    2.7889    0.1041 H   0  0  0  0  0  0  0  0  0  0  0  0
   -2.1716    2.6740    1.8323 H   0  0  0  0  0  0  0  0  0  0  0  0
    3.5916   -0.4924    2.0844 H   0  0  0  0  0  0  0  0  0  0  0  0
    2.3681   -1.7359    2.3023 H   0  0  0  0  0  0  0  0  0  0  0  0
    4.4843    2.4801    0.0414 H   0  0  0  0  0  0  0  0  0  0  0  0
    3.7617    1.5814   -1.2863 H   0  0  0  0  0  0  0  0  0  0  0  0
    4.0847   -3.1967    2.0507 H   0  0  0  0  0  0  0  0  0  0  0  0
    5.1483   -1.9815    1.3632 H   0  0  0  0  0  0  0  0  0  0  0  0
    3.2004   -3.1062   -2.0185 H   0  0  0  0  0  0  0  0  0  0  0  0
    4.6680   -3.9462   -0.2670 H   0  0  0  0  0  0  0  0  0  0  0  0
    4.1832    4.6152   -1.2420 H   0  0  0  0  0  0  0  0  0  0  0  0
    3.4596    3.7000   -2.5795 H   0  0  0  0  0  0  0  0  0  0  0  0
    5.1554    3.4357   -2.1387 H   0  0  0  0  0  0  0  0  0  0  0  0
   -4.6145    1.6118    0.2606 H   0  0  0  0  0  0  0  0  0  0  0  0
   -5.3533   -1.3989    0.0153 H   0  0  0  0  0  0  0  0  0  0  0  0
   -6.3620   -0.1668    0.7610 H   0  0  0  0  0  0  0  0  0  0  0  0
   -5.4840   -0.1698   -2.1788 H   0  0  0  0  0  0  0  0  0  0  0  0
   -6.5230    1.0427   -1.4291 H   0  0  0  0  0  0  0  0  0  0  0  0
   -7.1780   -1.9413   -1.6730 H   0  0  0  0  0  0  0  0  0  0  0  0
   -7.8670   -0.6326   -2.6487 H   0  0  0  0  0  0  0  0  0  0  0  0
   -8.2216   -0.7222   -0.9148 H   0  0  0  0  0  0  0  0  0  0  0  0
  1  5  1  0  0  0  0
  1 18  1  0  0  0  0
  2 19  1  0  0  0  0
  2 20  1  0  0  0  0
  3 18  2  0  0  0  0
  4 19  2  0  0  0  0
  5  7  1  0  0  0  0
  5  8  1  0  0  0  0
  5 10  1  0  0  0  0
  6  7  1  0  0  0  0
  6  8  1  0  0  0  0
  6  9  1  0  0  0  0
  6 29  1  0  0  0  0
  7 11  1  0  0  0  0
  7 30  1  0  0  0  0
  8 12  1  0  0  0  0
  8 31  1  0  0  0  0
  9 13  1  0  0  0  0
  9 32  1  0  0  0  0
  9 33  1  0  0  0  0
 10 15  2  0  0  0  0
 10 16  1  0  0  0  0
 11 14  2  0  0  0  0
 11 19  1  0  0  0  0
 12 17  1  0  0  0  0
 12 34  1  0  0  0  0
 12 35  1  0  0  0  0
 13 14  1  0  0  0  0
 13 36  1  0  0  0  0
 13 37  1  0  0  0  0
 14 20  1  0  0  0  0
 15 18  1  0  0  0  0
 15 22  1  0  0  0  0
 16 21  1  0  0  0  0
 16 38  1  0  0  0  0
 16 39  1  0  0  0  0
 17 24  1  0  0  0  0
 17 40  1  0  0  0  0
 17 41  1  0  0  0  0
 20 25  2  0  0  0  0
 21 23  1  0  0  0  0
 21 42  1  0  0  0  0
 21 43  1  0  0  0  0
 22 23  2  0  0  0  0
 22 44  1  0  0  0  0
 23 45  1  0  0  0  0
 24 46  1  0  0  0  0
 24 47  1  0  0  0  0
 24 48  1  0  0  0  0
 25 26  1  0  0  0  0
 25 49  1  0  0  0  0
 26 27  1  0  0  0  0
 26 50  1  0  0  0  0
 26 51  1  0  0  0  0
 27 28  1  0  0  0  0
 27 52  1  0  0  0  0
 27 53  1  0  0  0  0
 28 54  1  0  0  0  0
 28 55  1  0  0  0  0
 28 56  1  0  0  0  0
M  END
> <PUBCHEM_COMPOUND_CID>
6442656

> <PUBCHEM_CONFORMER_RMSD>
0.8

> <PUBCHEM_CONFORMER_DIVERSEORDER>
1
8
3
6
5
4
2
7

> <PUBCHEM_MMFF94_PARTIAL_CHARGES>
23
1 -0.41
10 -0.25
11 -0.1
13 0.14
14 -0.14
15 0.01
16 0.14
18 0.71
19 0.71
2 -0.23
20 0.08
21 0.14
22 -0.15
23 -0.29
25 -0.29
26 0.14
3 -0.57
4 -0.57
44 0.15
45 0.15
49 0.15
5 0.37
7 0.12

> <PUBCHEM_EFFECTIVE_ROTOR_COUNT>
5.4

> <PUBCHEM_PHARMACOPHORE_FEATURES>
9
1 24 hydrophobe
1 28 hydrophobe
1 3 acceptor
1 4 acceptor
4 5 6 7 8 rings
5 1 5 10 15 18 rings
5 2 11 14 19 20 rings
6 10 15 16 21 22 23 rings
6 6 7 9 11 13 14 rings

> <PUBCHEM_HEAVY_ATOM_COUNT>
28

> <PUBCHEM_ATOM_DEF_STEREO_COUNT>
4

> <PUBCHEM_ATOM_UDEF_STEREO_COUNT>
0

> <PUBCHEM_BOND_DEF_STEREO_COUNT>
1

> <PUBCHEM_BOND_UDEF_STEREO_COUNT>
0

> <PUBCHEM_ISOTOPIC_ATOM_COUNT>
0

> <PUBCHEM_COMPONENT_COUNT>
1

> <PUBCHEM_CACTVS_TAUTO_COUNT>
1

> <PUBCHEM_CONFORMER_ID>
00624EA000000001

> <PUBCHEM_MMFF94_ENERGY>
42.6815

> <PUBCHEM_FEATURE_SELFOVERLAP>
46.215

> <PUBCHEM_SHAPE_FINGERPRINT>
10169797 241 16053198138014456527
11578080 2 17385997318352811012
12166972 35 18187646834616018879
12363563 72 18271253707366073531
12403260 363 18339921511645733009
12553582 1 18124343543610713594
12623949 98 16701461139722833894
13083527 12 18272084955584389560
13140716 1 18196668305989355297
13150687 139 18057620956760082780
133893 2 18193307168221818032
13540713 5 18200611197757649465
14068700 675 18268705013838244370
14863182 85 16487257655515687366
15163728 17 17534652561369765340
16752209 62 18118129069361876475
17349148 13 17632577128539225571
20197701 30 18122919887107625164
20600515 1 17765443045964338448
20721686 146 16733825444864517164
20905425 154 18269854123911956112
21304303 282 16976433948200915016
22393880 68 17628918116908176605
23366157 5 18187663387926438280
23419403 2 17983549967530798184
23559900 14 18411985754340553554
25147074 1 18201174156211178721
25222932 49 13470103213048281429
3380486 77 18338519638114587618
46194498 28 18261101972557495301
57527293 21 17838630955277732506
59755656 215 18409735084267232276
81228 2 17407709232447635552

> <PUBCHEM_SHAPE_MULTIPOLES>
552.75
11.27
3.74
1.86
23.16
1.51
0.95
-3.63
5.53
-6.29
0.53
-0.52
-0.18
-1.7

> <PUBCHEM_SHAPE_SELFOVERLAP>
1206.964

> <PUBCHEM_SHAPE_VOLUME>
304.6

> <PUBCHEM_COORDINATE_TYPE>
2
5
10

$$$$
