494308
  -OEChem-09062007093D

 56 60  0     1  0  0  0  0  0999 V2000
   -1.0964   -0.0237   -1.5772 O   0  0  0  0  0  0  0  0  0  0  0  0
    1.1011   -0.0140    1.5747 O   0  0  0  0  0  0  0  0  0  0  0  0
   -2.6326   -1.3811   -2.6314 O   0  0  0  0  0  0  0  0  0  0  0  0
    2.6247   -1.3732    2.6448 O   0  0  0  0  0  0  0  0  0  0  0  0
   -0.7589    0.2484   -0.1881 C   0  0  1  0  0  0  0  0  0  0  0  0
    0.7656    0.2444    0.1824 C   0  0  1  0  0  0  0  0  0  0  0  0
   -0.7447    1.7665    0.1544 C   0  0  1  0  0  0  0  0  0  0  0  0
    0.7635    1.7586   -0.1778 C   0  0  1  0  0  0  0  0  0  0  0  0
   -1.6767   -0.5945    0.5977 C   0  0  0  0  0  0  0  0  0  0  0  0
    1.6763   -0.6151   -0.5933 C   0  0  0  0  0  0  0  0  0  0  0  0
   -1.6141    2.6753   -0.7059 C   0  0  0  0  0  0  0  0  0  0  0  0
    1.6245    2.6894    0.6677 C   0  0  0  0  0  0  0  0  0  0  0  0
   -2.4723   -1.2691   -0.2362 C   0  0  0  0  0  0  0  0  0  0  0  0
    2.4663   -1.2866    0.2482 C   0  0  0  0  0  0  0  0  0  0  0  0
   -1.7842   -0.7103    2.0815 C   0  0  0  0  0  0  0  0  0  0  0  0
    1.7833   -0.7484   -2.0758 C   0  0  0  0  0  0  0  0  0  0  0  0
   -3.0710    2.5944   -0.2462 C   0  0  0  0  0  0  0  0  0  0  0  0
    3.0891    2.6310    0.2292 C   0  0  0  0  0  0  0  0  0  0  0  0
   -2.1163   -0.9345   -1.6231 C   0  0  0  0  0  0  0  0  0  0  0  0
    2.1128   -0.9333    1.6313 C   0  0  0  0  0  0  0  0  0  0  0  0
   -3.0978   -1.3851    2.5464 C   0  0  0  0  0  0  0  0  0  0  0  0
    3.0934   -1.4357   -2.5321 C   0  0  0  0  0  0  0  0  0  0  0  0
   -3.4900   -2.1714    0.2038 C   0  0  0  0  0  0  0  0  0  0  0  0
    3.4773   -2.2014   -0.1814 C   0  0  0  0  0  0  0  0  0  0  0  0
   -3.7940   -2.2336    1.5093 C   0  0  0  0  0  0  0  0  0  0  0  0
    3.7820   -2.2793   -1.4860 C   0  0  0  0  0  0  0  0  0  0  0  0
   -3.9837    3.4581   -1.1010 C   0  0  0  0  0  0  0  0  0  0  0  0
    3.9727    3.5245    1.0839 C   0  0  0  0  0  0  0  0  0  0  0  0
   -0.9184    1.9799    1.2201 H   0  0  0  0  0  0  0  0  0  0  0  0
    0.9393    1.9571   -1.2459 H   0  0  0  0  0  0  0  0  0  0  0  0
   -1.5303    2.4290   -1.7702 H   0  0  0  0  0  0  0  0  0  0  0  0
   -1.2683    3.7109   -0.5980 H   0  0  0  0  0  0  0  0  0  0  0  0
    1.5359    2.4580    1.7353 H   0  0  0  0  0  0  0  0  0  0  0  0
    1.2651    3.7188    0.5439 H   0  0  0  0  0  0  0  0  0  0  0  0
   -0.9441   -1.3122    2.4477 H   0  0  0  0  0  0  0  0  0  0  0  0
   -1.7053    0.2714    2.5600 H   0  0  0  0  0  0  0  0  0  0  0  0
    0.9398   -1.3498   -2.4352 H   0  0  0  0  0  0  0  0  0  0  0  0
    1.7102    0.2280   -2.5658 H   0  0  0  0  0  0  0  0  0  0  0  0
   -3.1492    2.9099    0.8010 H   0  0  0  0  0  0  0  0  0  0  0  0
   -3.4310    1.5622   -0.2912 H   0  0  0  0  0  0  0  0  0  0  0  0
    3.1747    2.9324   -0.8215 H   0  0  0  0  0  0  0  0  0  0  0  0
    3.4639    1.6045    0.2935 H   0  0  0  0  0  0  0  0  0  0  0  0
   -3.8027   -0.6105    2.8737 H   0  0  0  0  0  0  0  0  0  0  0  0
   -2.8830   -2.0010    3.4279 H   0  0  0  0  0  0  0  0  0  0  0  0
    3.8040   -0.6686   -2.8649 H   0  0  0  0  0  0  0  0  0  0  0  0
    2.8763   -2.0581   -3.4084 H   0  0  0  0  0  0  0  0  0  0  0  0
   -4.0145   -2.7811   -0.5223 H   0  0  0  0  0  0  0  0  0  0  0  0
    3.9963   -2.8077    0.5515 H   0  0  0  0  0  0  0  0  0  0  0  0
   -4.5833   -2.8995    1.8451 H   0  0  0  0  0  0  0  0  0  0  0  0
    4.5663   -2.9547   -1.8142 H   0  0  0  0  0  0  0  0  0  0  0  0
   -3.6832    4.5097   -1.0558 H   0  0  0  0  0  0  0  0  0  0  0  0
   -3.9589    3.1377   -2.1474 H   0  0  0  0  0  0  0  0  0  0  0  0
   -5.0168    3.3842   -0.7474 H   0  0  0  0  0  0  0  0  0  0  0  0
    3.6529    4.5693    1.0188 H   0  0  0  0  0  0  0  0  0  0  0  0
    3.9390    3.2189    2.1345 H   0  0  0  0  0  0  0  0  0  0  0  0
    5.0120    3.4653    0.7459 H   0  0  0  0  0  0  0  0  0  0  0  0
  1  5  1  0  0  0  0
  1 19  1  0  0  0  0
  2  6  1  0  0  0  0
  2 20  1  0  0  0  0
  3 19  2  0  0  0  0
  4 20  2  0  0  0  0
  5  6  1  0  0  0  0
  5  7  1  0  0  0  0
  5  9  1  0  0  0  0
  6  8  1  0  0  0  0
  6 10  1  0  0  0  0
  7  8  1  0  0  0  0
  7 11  1  0  0  0  0
  7 29  1  0  0  0  0
  8 12  1  0  0  0  0
  8 30  1  0  0  0  0
  9 13  2  0  0  0  0
  9 15  1  0  0  0  0
 10 14  2  0  0  0  0
 10 16  1  0  0  0  0
 11 17  1  0  0  0  0
 11 31  1  0  0  0  0
 11 32  1  0  0  0  0
 12 18  1  0  0  0  0
 12 33  1  0  0  0  0
 12 34  1  0  0  0  0
 13 19  1  0  0  0  0
 13 23  1  0  0  0  0
 14 20  1  0  0  0  0
 14 24  1  0  0  0  0
 15 21  1  0  0  0  0
 15 35  1  0  0  0  0
 15 36  1  0  0  0  0
 16 22  1  0  0  0  0
 16 37  1  0  0  0  0
 16 38  1  0  0  0  0
 17 27  1  0  0  0  0
 17 39  1  0  0  0  0
 17 40  1  0  0  0  0
 18 28  1  0  0  0  0
 18 41  1  0  0  0  0
 18 42  1  0  0  0  0
 21 25  1  0  0  0  0
 21 43  1  0  0  0  0
 21 44  1  0  0  0  0
 22 26  1  0  0  0  0
 22 45  1  0  0  0  0
 22 46  1  0  0  0  0
 23 25  2  0  0  0  0
 23 47  1  0  0  0  0
 24 26  2  0  0  0  0
 24 48  1  0  0  0  0
 25 49  1  0  0  0  0
 26 50  1  0  0  0  0
 27 51  1  0  0  0  0
 27 52  1  0  0  0  0
 27 53  1  0  0  0  0
 28 54  1  0  0  0  0
 28 55  1  0  0  0  0
 28 56  1  0  0  0  0
M  END
> <PUBCHEM_COMPOUND_CID>
494308

> <PUBCHEM_CONFORMER_RMSD>
0.8

> <PUBCHEM_CONFORMER_DIVERSEORDER>
1
9
16
20
10
11
21
2
18
3
17
6
8
4
12
5
22
14
13
19
7
15

> <PUBCHEM_MMFF94_PARTIAL_CHARGES>
24
1 -0.41
10 -0.25
13 0.01
14 0.01
15 0.14
16 0.14
19 0.71
2 -0.41
20 0.71
21 0.14
22 0.14
23 -0.15
24 -0.15
25 -0.29
26 -0.29
3 -0.57
4 -0.57
47 0.15
48 0.15
49 0.15
5 0.37
50 0.15
6 0.37
9 -0.25

> <PUBCHEM_EFFECTIVE_ROTOR_COUNT>
5.6

> <PUBCHEM_PHARMACOPHORE_FEATURES>
9
1 27 hydrophobe
1 28 hydrophobe
1 3 acceptor
1 4 acceptor
4 5 6 7 8 rings
5 1 5 9 13 19 rings
5 2 6 10 14 20 rings
6 10 14 16 22 24 26 rings
6 9 13 15 21 23 25 rings

> <PUBCHEM_HEAVY_ATOM_COUNT>
28

> <PUBCHEM_ATOM_DEF_STEREO_COUNT>
0

> <PUBCHEM_ATOM_UDEF_STEREO_COUNT>
4

> <PUBCHEM_BOND_DEF_STEREO_COUNT>
0

> <PUBCHEM_BOND_UDEF_STEREO_COUNT>
0

> <PUBCHEM_ISOTOPIC_ATOM_COUNT>
0

> <PUBCHEM_COMPONENT_COUNT>
1

> <PUBCHEM_CACTVS_TAUTO_COUNT>
1

> <PUBCHEM_CONFORMER_ID>
00078AE400000001

> <PUBCHEM_MMFF94_ENERGY>
42.2292

> <PUBCHEM_FEATURE_SELFOVERLAP>
45.916

> <PUBCHEM_SHAPE_FINGERPRINT>
10382601 240 17985563374899342950
11578080 2 18338535082812065873
12714826 92 18055938527057858750
12788726 201 17968672531756432075
13140716 1 18263067864577166313
13149001 5 18266737974324599724
13911987 19 17613150093368544308
13965767 371 17625587597804432881
14022347 108 17980476759394926448
14223421 5 18409448123931326704
15219462 58 18113613499634037530
16752209 62 18189057508340345667
16945 1 18050268560336436160
17980427 23 17765948975763133288
1813 80 17915767326315065486
20600515 1 17836054824876584328
20645476 183 17607540028798208653
21731516 1 18338530684770491723
22182313 1 18410300236958601909
229495 10 18129950086665983913
23557571 272 17676765486920031495
23558518 356 18187632614211592109
23559900 14 18195807354726414662
70251023 43 18337125543634020419
7097593 13 15913331269083276890
81228 2 17554046533513008400

> <PUBCHEM_SHAPE_MULTIPOLES>
552.75
7.13
4.03
2.43
0.05
3.82
-0.02
-0.93
-0.02
-0.16
0.01
0.03
-1.42
2.84

> <PUBCHEM_SHAPE_SELFOVERLAP>
1207.22

> <PUBCHEM_SHAPE_VOLUME>
304.6

> <PUBCHEM_COORDINATE_TYPE>
2
5
10

$$$$
