34225
  -OEChem-09062014103D

 20 20  0     0  0  0  0  0  0999 V2000
   -3.3079   -0.0160    0.0001 O   0  0  0  0  0  0  0  0  0  0  0  0
    1.3773   -0.9576    0.0005 C   0  0  0  0  0  0  0  0  0  0  0  0
    0.6865    1.3576    0.0000 C   0  0  0  0  0  0  0  0  0  0  0  0
    1.7002    0.3993    0.0004 C   0  0  0  0  0  0  0  0  0  0  0  0
   -0.9731   -0.3982    0.0001 C   0  0  0  0  0  0  0  0  0  0  0  0
    0.0407   -1.3565    0.0003 C   0  0  0  0  0  0  0  0  0  0  0  0
   -0.6502    0.9588   -0.0002 C   0  0  0  0  0  0  0  0  0  0  0  0
    2.4614   -1.9819   -0.0006 C   0  0  0  0  0  0  0  0  0  0  0  0
    1.0318    2.8085   -0.0002 C   0  0  0  0  0  0  0  0  0  0  0  0
   -2.3666   -0.8141   -0.0002 C   0  0  0  0  0  0  0  0  0  0  0  0
    2.7423    0.7101    0.0042 H   0  0  0  0  0  0  0  0  0  0  0  0
   -0.2079   -2.4154    0.0021 H   0  0  0  0  0  0  0  0  0  0  0  0
   -1.4327    1.7140    0.0014 H   0  0  0  0  0  0  0  0  0  0  0  0
    3.3557   -1.6110   -0.5127 H   0  0  0  0  0  0  0  0  0  0  0  0
    2.7298   -2.2456    1.0271 H   0  0  0  0  0  0  0  0  0  0  0  0
    2.1462   -2.8902   -0.5254 H   0  0  0  0  0  0  0  0  0  0  0  0
    1.9962    2.9867   -0.4881 H   0  0  0  0  0  0  0  0  0  0  0  0
    0.2839    3.3917   -0.5481 H   0  0  0  0  0  0  0  0  0  0  0  0
    1.0853    3.1819    1.0273 H   0  0  0  0  0  0  0  0  0  0  0  0
   -2.5594   -1.9005   -0.0002 H   0  0  0  0  0  0  0  0  0  0  0  0
  1 10  2  0  0  0  0
  2  4  2  0  0  0  0
  2  6  1  0  0  0  0
  2  8  1  0  0  0  0
  3  4  1  0  0  0  0
  3  7  2  0  0  0  0
  3  9  1  0  0  0  0
  4 11  1  0  0  0  0
  5  6  2  0  0  0  0
  5  7  1  0  0  0  0
  5 10  1  0  0  0  0
  6 12  1  0  0  0  0
  7 13  1  0  0  0  0
  8 14  1  0  0  0  0
  8 15  1  0  0  0  0
  8 16  1  0  0  0  0
  9 17  1  0  0  0  0
  9 18  1  0  0  0  0
  9 19  1  0  0  0  0
 10 20  1  0  0  0  0
M  END
> <PUBCHEM_COMPOUND_CID>
34225

> <PUBCHEM_CONFORMER_RMSD>
0.4

> <PUBCHEM_CONFORMER_DIVERSEORDER>
1

> <PUBCHEM_MMFF94_PARTIAL_CHARGES>
14
1 -0.57
10 0.42
11 0.15
12 0.15
13 0.15
2 -0.14
20 0.06
3 -0.14
4 -0.15
5 0.09
6 -0.15
7 -0.15
8 0.14
9 0.14

> <PUBCHEM_EFFECTIVE_ROTOR_COUNT>
1

> <PUBCHEM_PHARMACOPHORE_FEATURES>
2
1 1 acceptor
6 2 3 4 5 6 7 rings

> <PUBCHEM_HEAVY_ATOM_COUNT>
10

> <PUBCHEM_ATOM_DEF_STEREO_COUNT>
0

> <PUBCHEM_ATOM_UDEF_STEREO_COUNT>
0

> <PUBCHEM_BOND_DEF_STEREO_COUNT>
0

> <PUBCHEM_BOND_UDEF_STEREO_COUNT>
0

> <PUBCHEM_ISOTOPIC_ATOM_COUNT>
0

> <PUBCHEM_COMPONENT_COUNT>
1

> <PUBCHEM_CACTVS_TAUTO_COUNT>
1

> <PUBCHEM_CONFORMER_ID>
000085B100000001

> <PUBCHEM_MMFF94_ENERGY>
23.2994

> <PUBCHEM_FEATURE_SELFOVERLAP>
10.148

> <PUBCHEM_SHAPE_FINGERPRINT>
1 1 18194401331971277364
12423570 1 9366516802892691044
13380535 76 17976250562724892850
16945 1 18338797930520018055
193761 8 17978229692508944962
20645477 70 18338791334284448583
20871998 184 17840859677593897702
20871998 22 18198629834717300742
21040471 1 17617940678489167616
23552423 10 18267584791709283767
241688 4 18194402191043734608
2748010 2 18267294348809126100
29004967 10 18408604768484799283
7364860 26 18342176729889453688
81228 2 17906177243772856872

> <PUBCHEM_SHAPE_MULTIPOLES>
199.93
3.4
2.49
0.61
2.41
1.43
0
-1.42
0
-1.73
0
-0.03
0
0

> <PUBCHEM_SHAPE_SELFOVERLAP>
413.596

> <PUBCHEM_SHAPE_VOLUME>
116.4

> <PUBCHEM_COORDINATE_TYPE>
2
5
10

$$$$
