11572826
  -OEChem-09062007053D

 41 42  0     1  0  0  0  0  0999 V2000
   -1.7682    0.9735    1.4326 O   0  0  0  0  0  0  0  0  0  0  0  0
    2.4144    0.2684   -0.2346 O   0  0  0  0  0  0  0  0  0  0  0  0
   -2.9335   -0.3873    2.8974 O   0  0  0  0  0  0  0  0  0  0  0  0
    4.4361    0.5194   -1.3075 O   0  0  0  0  0  0  0  0  0  0  0  0
   -1.7737    1.2710    0.0103 C   0  0  1  0  0  0  0  0  0  0  0  0
   -0.4036    0.9606   -0.5654 C   0  0  0  0  0  0  0  0  0  0  0  0
    0.6596    1.9306   -0.0399 C   0  0  0  0  0  0  0  0  0  0  0  0
   -2.8532    0.3931   -0.4932 C   0  0  0  0  0  0  0  0  0  0  0  0
    2.0566    1.6044   -0.5779 C   0  0  1  0  0  0  0  0  0  0  0  0
   -3.4032   -0.3161    0.5563 C   0  0  0  0  0  0  0  0  0  0  0  0
   -2.7136    0.0463    1.7843 C   0  0  0  0  0  0  0  0  0  0  0  0
   -3.3382    0.2266   -1.7785 C   0  0  0  0  0  0  0  0  0  0  0  0
    3.1074    2.5515   -0.0141 C   0  0  0  0  0  0  0  0  0  0  0  0
   -4.4396   -1.2162    0.3895 C   0  0  0  0  0  0  0  0  0  0  0  0
   -4.3863   -0.6768   -1.9809 C   0  0  0  0  0  0  0  0  0  0  0  0
   -4.9332   -1.3939   -0.9034 C   0  0  0  0  0  0  0  0  0  0  0  0
    3.6396   -0.1496   -0.6646 C   0  0  0  0  0  0  0  0  0  0  0  0
    3.8677   -1.5630   -0.2360 C   0  0  0  0  0  0  0  0  0  0  0  0
    3.3994   -2.6650   -1.1396 C   0  0  0  0  0  0  0  0  0  0  0  0
    4.4583   -1.7253    0.9622 C   0  0  0  0  0  0  0  0  0  0  0  0
    4.9072   -0.6524    1.9030 C   0  0  0  0  0  0  0  0  0  0  0  0
   -2.0434    2.3259   -0.1120 H   0  0  0  0  0  0  0  0  0  0  0  0
   -0.1188   -0.0667   -0.3046 H   0  0  0  0  0  0  0  0  0  0  0  0
   -0.4295    1.0202   -1.6604 H   0  0  0  0  0  0  0  0  0  0  0  0
    0.3875    2.9582   -0.3093 H   0  0  0  0  0  0  0  0  0  0  0  0
    0.6803    1.8726    1.0557 H   0  0  0  0  0  0  0  0  0  0  0  0
    2.0307    1.6943   -1.6718 H   0  0  0  0  0  0  0  0  0  0  0  0
   -2.9216    0.7805   -2.6130 H   0  0  0  0  0  0  0  0  0  0  0  0
    3.3902    2.2749    1.0071 H   0  0  0  0  0  0  0  0  0  0  0  0
    4.0197    2.6019   -0.6122 H   0  0  0  0  0  0  0  0  0  0  0  0
    2.7218    3.5775    0.0106 H   0  0  0  0  0  0  0  0  0  0  0  0
   -4.8583   -1.7669    1.2240 H   0  0  0  0  0  0  0  0  0  0  0  0
   -4.7838   -0.8257   -2.9813 H   0  0  0  0  0  0  0  0  0  0  0  0
   -5.7474   -2.0913   -1.0803 H   0  0  0  0  0  0  0  0  0  0  0  0
    3.5981   -3.6520   -0.7098 H   0  0  0  0  0  0  0  0  0  0  0  0
    2.3217   -2.5824   -1.3129 H   0  0  0  0  0  0  0  0  0  0  0  0
    3.9125   -2.6063   -2.1047 H   0  0  0  0  0  0  0  0  0  0  0  0
    4.6256   -2.7419    1.3134 H   0  0  0  0  0  0  0  0  0  0  0  0
    4.3193   -0.7013    2.8248 H   0  0  0  0  0  0  0  0  0  0  0  0
    4.8249    0.3591    1.5009 H   0  0  0  0  0  0  0  0  0  0  0  0
    5.9582   -0.8148    2.1632 H   0  0  0  0  0  0  0  0  0  0  0  0
  1  5  1  0  0  0  0
  1 11  1  0  0  0  0
  2  9  1  0  0  0  0
  2 17  1  0  0  0  0
  3 11  2  0  0  0  0
  4 17  2  0  0  0  0
  5  6  1  0  0  0  0
  5  8  1  0  0  0  0
  5 22  1  0  0  0  0
  6  7  1  0  0  0  0
  6 23  1  0  0  0  0
  6 24  1  0  0  0  0
  7  9  1  0  0  0  0
  7 25  1  0  0  0  0
  7 26  1  0  0  0  0
  8 10  1  0  0  0  0
  8 12  2  0  0  0  0
  9 13  1  0  0  0  0
  9 27  1  0  0  0  0
 10 11  1  0  0  0  0
 10 14  2  0  0  0  0
 12 15  1  0  0  0  0
 12 28  1  0  0  0  0
 13 29  1  0  0  0  0
 13 30  1  0  0  0  0
 13 31  1  0  0  0  0
 14 16  1  0  0  0  0
 14 32  1  0  0  0  0
 15 16  2  0  0  0  0
 15 33  1  0  0  0  0
 16 34  1  0  0  0  0
 17 18  1  0  0  0  0
 18 19  1  0  0  0  0
 18 20  2  0  0  0  0
 19 35  1  0  0  0  0
 19 36  1  0  0  0  0
 19 37  1  0  0  0  0
 20 21  1  0  0  0  0
 20 38  1  0  0  0  0
 21 39  1  0  0  0  0
 21 40  1  0  0  0  0
 21 41  1  0  0  0  0
M  END
> <PUBCHEM_COMPOUND_CID>
11572826

> <PUBCHEM_CONFORMER_RMSD>
0.8

> <PUBCHEM_CONFORMER_DIVERSEORDER>
14
57
122
223
91
292
172
293
46
220
175
184
78
237
239
194
273
279
296
97
295
132
15
224
300
45
217
246
41
114
275
198
108
11
164
196
69
88
163
208
285
61
214
230
241
183
26
255
104
90
178
185
147
277
187
25
262
40
80
50
222
145
253
228
266
119
120
51
129
9
64
302
53
71
37
55
126
182
74
70
54
209
101
112
169
177
117
140
44
204
242
166
67
152
274
84
99
85
188
276
254
109
297
142
265
225
13
36
205
48
201
211
192
272
299
234
93
127
247
180
138
141
250
12
24
159
33
206
213
231
35
269
39
173
203
202
43
287
111
42
83
288
128
195
179
248
244
87
251
59
106
149
3
271
232
95
174
100
82
270
133
218
49
168
298
105
281
98
96
144
131
62
243
31
151
123
170
52
73
215
186
77
256
102
113
17
130
92
58
258
72
22
229
257
252
200
291
60
2
260
103
301
238
154
66
290
221
199
79
4
259
162
143
136
65
282
1
227
56
137
116
197
189
75
155
28
261
216
284
294
5
156
146
16
212
181
245
19
18
160
167
171
107
7
6
161
286
219
236
94
135
63
235
226
280
47
191
23
115
20
278
110
264
27
32
118
86
263
21
153
268
10
240
158
30
134
210
34
190
29
207
124
76
193
150
267
121
283
157
249
125
139
165
233
68
8
81
289
176
38
89
148

> <PUBCHEM_MMFF94_PARTIAL_CHARGES>
23
1 -0.43
10 0.09
11 0.63
12 -0.15
14 -0.15
15 -0.15
16 -0.15
17 0.71
18 -0.12
19 0.14
2 -0.43
20 -0.29
21 0.14
28 0.15
3 -0.57
32 0.15
33 0.15
34 0.15
38 0.15
4 -0.57
5 0.42
8 -0.14
9 0.28

> <PUBCHEM_EFFECTIVE_ROTOR_COUNT>
6.4

> <PUBCHEM_PHARMACOPHORE_FEATURES>
6
1 19 hydrophobe
1 21 hydrophobe
1 3 acceptor
1 4 acceptor
5 1 5 8 10 11 rings
6 8 10 12 14 15 16 rings

> <PUBCHEM_HEAVY_ATOM_COUNT>
21

> <PUBCHEM_ATOM_DEF_STEREO_COUNT>
0

> <PUBCHEM_ATOM_UDEF_STEREO_COUNT>
2

> <PUBCHEM_BOND_DEF_STEREO_COUNT>
1

> <PUBCHEM_BOND_UDEF_STEREO_COUNT>
0

> <PUBCHEM_ISOTOPIC_ATOM_COUNT>
0

> <PUBCHEM_COMPONENT_COUNT>
1

> <PUBCHEM_CACTVS_TAUTO_COUNT>
1

> <PUBCHEM_CONFORMER_ID>
00B0965A0000000E

> <PUBCHEM_MMFF94_ENERGY>
50.354

> <PUBCHEM_FEATURE_SELFOVERLAP>
30.537

> <PUBCHEM_SHAPE_FINGERPRINT>
10319926 262 15123520151191762878
10730089 88 16950277378260924967
10928967 22 18056212275568317590
11545043 162 15123243095710188452
11595378 159 16415478250894191512
12363563 72 18261675883167241684
12553582 1 18340498789652303708
12596602 18 17131826582160752402
12892183 10 16200147664843902966
13533116 47 18201722907286925235
13887833 79 15864069845233511782
14178342 30 16629980831959163445
1420 369 18273493468201779303
14341114 328 15769480011237419274
14508693 111 16627114568259636958
14848160 33 18260834778420831254
14848178 5 18340195324068776790
14848178 96 8574414418903041366
14910302 57 16588291809056865999
14950920 106 16486683650775914130
15163728 17 14419508336716945487
15188451 53 17489293183864518351
15475509 35 17483396709965668819
15475509 8 17385718089902537125
15880784 105 17988635251853731250
17134984 74 18124864909833388631
17349148 13 18272934942038240510
19377110 9 17489304243458053032
19752476 56 11963688724449135270
200 152 18413389856395794893
20645477 70 18334575771852686844
21065199 12 15051738568647340732
21315764 371 17489302001622631386
22849339 104 15647342987101530019
235170 7 16733281109098408518
23559900 14 16877940551346114052
23596394 208 17530965795712354676
27216 239 12679464158200629417
2838139 119 12830934040096516534
312425 83 14418430849317563202
33382 64 18196936798012957527
339767 52 18271507750286639222
4921388 177 15936419944019461881
59682541 52 17532626028564793599
6287921 2 17059229033271702807
7808743 9 12390640127569404938
960060 61 17821449062546658868
9709674 26 17531526602466753653

> <PUBCHEM_SHAPE_MULTIPOLES>
408.69
12.16
2.29
1.98
2.29
0.01
1.02
-6.38
-0.43
2.69
-0.46
-1.33
-0.42
-0.58

> <PUBCHEM_SHAPE_SELFOVERLAP>
856.44

> <PUBCHEM_SHAPE_VOLUME>
232.7

> <PUBCHEM_COORDINATE_TYPE>
2
5
10

$$$$
