5319599
  -OEChem-09062010063D

 40 39  0     0  0  0  0  0  0999 V2000
   -1.3625    1.7471    0.0273 O   0  0  0  0  0  0  0  0  0  0  0  0
    2.3715   -0.4675    0.0409 C   0  0  0  0  0  0  0  0  0  0  0  0
    1.1373    0.4410    0.0240 C   0  0  0  0  0  0  0  0  0  0  0  0
    3.6618    0.3548    0.0157 C   0  0  0  0  0  0  0  0  0  0  0  0
   -3.9476    0.7036   -0.0146 C   0  0  0  0  0  0  0  0  0  0  0  0
   -5.2974   -0.0365    0.0004 C   0  0  0  0  0  0  0  0  0  0  0  0
   -0.1688   -0.3517    0.0210 C   0  0  0  0  0  0  0  0  0  0  0  0
   -2.7398   -0.2341   -0.0187 C   0  0  0  0  0  0  0  0  0  0  0  0
    4.9313   -0.5024    0.0230 C   0  0  0  0  0  0  0  0  0  0  0  0
   -1.4174    0.5188   -0.0027 C   0  0  0  0  0  0  0  0  0  0  0  0
    6.2538    0.2666   -0.0244 C   0  0  0  0  0  0  0  0  0  0  0  0
   -5.5181   -0.8730   -1.2608 C   0  0  0  0  0  0  0  0  0  0  0  0
   -5.3837   -0.9342    1.2370 C   0  0  0  0  0  0  0  0  0  0  0  0
    7.4794   -0.6324   -0.0682 C   0  0  0  0  0  0  0  0  0  0  0  0
    2.3533   -1.0972    0.9383 H   0  0  0  0  0  0  0  0  0  0  0  0
    2.3469   -1.1375   -0.8268 H   0  0  0  0  0  0  0  0  0  0  0  0
    1.1593    1.1051    0.8971 H   0  0  0  0  0  0  0  0  0  0  0  0
    1.1703    1.0885   -0.8613 H   0  0  0  0  0  0  0  0  0  0  0  0
    3.6822    1.0270    0.8824 H   0  0  0  0  0  0  0  0  0  0  0  0
    3.6689    0.9909   -0.8781 H   0  0  0  0  0  0  0  0  0  0  0  0
   -3.8923    1.3645    0.8602 H   0  0  0  0  0  0  0  0  0  0  0  0
   -3.9057    1.3592   -0.8939 H   0  0  0  0  0  0  0  0  0  0  0  0
   -6.0925    0.7170    0.0590 H   0  0  0  0  0  0  0  0  0  0  0  0
   -0.2183   -0.9809    0.9169 H   0  0  0  0  0  0  0  0  0  0  0  0
   -0.2009   -1.0025   -0.8602 H   0  0  0  0  0  0  0  0  0  0  0  0
   -2.7408   -0.8767    0.8667 H   0  0  0  0  0  0  0  0  0  0  0  0
   -2.7423   -0.8628   -0.9144 H   0  0  0  0  0  0  0  0  0  0  0  0
    4.9243   -1.1341    0.9204 H   0  0  0  0  0  0  0  0  0  0  0  0
    4.8942   -1.1860   -0.8349 H   0  0  0  0  0  0  0  0  0  0  0  0
    6.2612    0.9170   -0.9071 H   0  0  0  0  0  0  0  0  0  0  0  0
    6.3220    0.9211    0.8526 H   0  0  0  0  0  0  0  0  0  0  0  0
   -4.8180   -1.7114   -1.3302 H   0  0  0  0  0  0  0  0  0  0  0  0
   -5.4057   -0.2574   -2.1592 H   0  0  0  0  0  0  0  0  0  0  0  0
   -6.5310   -1.2903   -1.2677 H   0  0  0  0  0  0  0  0  0  0  0  0
   -5.1377   -0.3782    2.1478 H   0  0  0  0  0  0  0  0  0  0  0  0
   -6.4048   -1.3155    1.3512 H   0  0  0  0  0  0  0  0  0  0  0  0
   -4.7240   -1.8052    1.1710 H   0  0  0  0  0  0  0  0  0  0  0  0
    8.3923   -0.0299   -0.0996 H   0  0  0  0  0  0  0  0  0  0  0  0
    7.4623   -1.2727   -0.9557 H   0  0  0  0  0  0  0  0  0  0  0  0
    7.5241   -1.2740    0.8174 H   0  0  0  0  0  0  0  0  0  0  0  0
  1 10  2  0  0  0  0
  2  3  1  0  0  0  0
  2  4  1  0  0  0  0
  2 15  1  0  0  0  0
  2 16  1  0  0  0  0
  3  7  1  0  0  0  0
  3 17  1  0  0  0  0
  3 18  1  0  0  0  0
  4  9  1  0  0  0  0
  4 19  1  0  0  0  0
  4 20  1  0  0  0  0
  5  6  1  0  0  0  0
  5  8  1  0  0  0  0
  5 21  1  0  0  0  0
  5 22  1  0  0  0  0
  6 12  1  0  0  0  0
  6 13  1  0  0  0  0
  6 23  1  0  0  0  0
  7 10  1  0  0  0  0
  7 24  1  0  0  0  0
  7 25  1  0  0  0  0
  8 10  1  0  0  0  0
  8 26  1  0  0  0  0
  8 27  1  0  0  0  0
  9 11  1  0  0  0  0
  9 28  1  0  0  0  0
  9 29  1  0  0  0  0
 11 14  1  0  0  0  0
 11 30  1  0  0  0  0
 11 31  1  0  0  0  0
 12 32  1  0  0  0  0
 12 33  1  0  0  0  0
 12 34  1  0  0  0  0
 13 35  1  0  0  0  0
 13 36  1  0  0  0  0
 13 37  1  0  0  0  0
 14 38  1  0  0  0  0
 14 39  1  0  0  0  0
 14 40  1  0  0  0  0
M  END
> <PUBCHEM_COMPOUND_CID>
5319599

> <PUBCHEM_CONFORMER_RMSD>
0.8

> <PUBCHEM_CONFORMER_DIVERSEORDER>
1
313
21
261
349
390
256
82
355
3
80
380
138
339
199
239
225
56
371
272
78
288
7
284
399
353
283
258
122
263
219
393
427
32
213
159
354
24
108
14
381
402
246
180
254
6
194
218
398
410
346
144
347
386
23
99
177
202
201
322
15
195
374
368
4
361
70
325
183
9
397
85
206
392
341
173
282
50
87
379
5
385
431
306
31
224
312
351
54
28
396
2
8
373
391
68
315
76
179
36
135
33
395
433
330
190
91
333
382
208
111
140
273
329
119
49
408
434
307
328
422
20
252
184
405
101
84
17
43
235
424
41
216
362
27
61
318
128
93
421
299
117
204
317
412
79
394
240
203
302
383
169
350
100
376
270
89
155
52
16
222
260
96
291
229
171
404
279
214
220
127
277
81
237
370
367
245
232
64
275
65
293
343
38
154
432
209
363
301
366
265
44
319
123
269
212
133
423
286
377
58
92
97
62
388
249
37
430
406
323
358
251
238
429
425
164
274
18
40
10
160
132
364
320
300
174
39
416
126
116
236
30
112
143
267
335
186
12
331
188
352
147
113
280
118
278
210
170
221
420
428
141
308
90
205
175
281
48
248
415
102
110
158
226
73
26
264
327
193
297
292
253
57
314
114
337
303
105
266
55
75
369
63
413
244
305
310
13
35
104
22
151
146
326
387
255
95
98
411
120
130
161
344
262
287
67
296
233
11
316
407
124
338
418
181
304
167
107
47
345
121
365
409
250
384
25
168
241
134
336
243
359
414
192
187
228
189
198
298
372
332
106
72
145
247
86
378
197
149
276
59
215
42
129
401
294
142
426
157
29
340
103
125
136
71
356
148
230
200
357
69
94
152
172
74
115
139
334
131
289
53
417
311
217
403
285
66
185
321
176
34
348
60
419
182
324
375
257
342
19
166
163
227
389
290
46
165
207
295
191
242
400
178
88
77
51
137
259
223
153
211
309
156
196
360
271
268
45
150
162
231
83
109
234

> <PUBCHEM_MMFF94_PARTIAL_CHARGES>
4
1 -0.57
10 0.45
7 0.06
8 0.06

> <PUBCHEM_EFFECTIVE_ROTOR_COUNT>
9

> <PUBCHEM_PHARMACOPHORE_FEATURES>
5
1 1 acceptor
1 14 hydrophobe
3 2 3 7 hydrophobe
3 4 9 11 hydrophobe
3 6 12 13 hydrophobe

> <PUBCHEM_HEAVY_ATOM_COUNT>
14

> <PUBCHEM_ATOM_DEF_STEREO_COUNT>
0

> <PUBCHEM_ATOM_UDEF_STEREO_COUNT>
0

> <PUBCHEM_BOND_DEF_STEREO_COUNT>
0

> <PUBCHEM_BOND_UDEF_STEREO_COUNT>
0

> <PUBCHEM_ISOTOPIC_ATOM_COUNT>
0

> <PUBCHEM_COMPONENT_COUNT>
1

> <PUBCHEM_CACTVS_TAUTO_COUNT>
3

> <PUBCHEM_CONFORMER_ID>
00512BAF00000001

> <PUBCHEM_MMFF94_ENERGY>
5.1765

> <PUBCHEM_FEATURE_SELFOVERLAP>
25.384

> <PUBCHEM_SHAPE_FINGERPRINT>
10087517 78 12685080467637777783
10968037 39 18260830405716908007
11089746 13 12973607750609496182
11315181 36 17676492752275776937
12091667 2 18341894087019131685
12815109 37 7925911482993433768
13288520 33 18343018895999116917
13533116 47 12685076091572426592
13862211 1 18413386548859533335
14123238 8 18410855455838469250
1420 363 18409735062369954458
14251718 22 17749108889751720554
14251764 18 18411135836685163952
14251764 46 18333448742849343682
15048467 5 8574712403696666126
15716309 27 18202002135658253407
17093844 174 17846778495131536665
17834076 25 17240483607025495138
187816 3 17530684307824505009
19489759 90 16370443345769045805
20281389 69 11024106542789086754
20621476 38 18270963428687977614
20621476 66 8286204971889339175
20645477 70 14201663227392096504
20767249 213 7997966873628768818
21130983 4 9871743612133555674
220451 1 16415479346416729278
23035841 295 17917711301443016398
23218964 4 10231756678203056632
23402539 116 18412541007596568205
23521765 1 18341895190366790854
23559900 14 17822291339687557664
42788 4 18410856555925181416
474229 33 18407761438718878987
57583515 80 17967250888527193385
8209 1 18333731316514723389

> <PUBCHEM_SHAPE_MULTIPOLES>
282.24
19.1
1.05
0.84
19.37
0.2
-0.01
-4.98
-0.5
-0.59
0.01
-1.23
-0.21
0.03

> <PUBCHEM_SHAPE_SELFOVERLAP>
511.783

> <PUBCHEM_SHAPE_VOLUME>
181.2

> <PUBCHEM_COORDINATE_TYPE>
2
5
10

$$$$
