32045
  -OEChem-09062014443D

 36 35  0     0  0  0  0  0  0999 V2000
    0.0072    1.4903    0.4312 O   0  0  0  0  0  0  0  0  0  0  0  0
    0.0067    0.2677   -0.3083 C   0  0  0  0  0  0  0  0  0  0  0  0
   -1.2842   -0.4880    0.0330 C   0  0  0  0  0  0  0  0  0  0  0  0
    1.2813   -0.5237    0.0142 C   0  0  0  0  0  0  0  0  0  0  0  0
   -2.5569    0.3201   -0.2239 C   0  0  0  0  0  0  0  0  0  0  0  0
    2.5531    0.2815   -0.2782 C   0  0  0  0  0  0  0  0  0  0  0  0
   -3.8082   -0.4989    0.1021 C   0  0  0  0  0  0  0  0  0  0  0  0
    3.8085   -0.5079    0.0989 C   0  0  0  0  0  0  0  0  0  0  0  0
   -5.0808    0.3191   -0.1171 C   0  0  0  0  0  0  0  0  0  0  0  0
    5.0762    0.3046   -0.1648 C   0  0  0  0  0  0  0  0  0  0  0  0
   -6.3273   -0.5014    0.1736 C   0  0  0  0  0  0  0  0  0  0  0  0
    6.3244   -0.4635    0.2392 C   0  0  0  0  0  0  0  0  0  0  0  0
    0.0017    0.5338   -1.3715 H   0  0  0  0  0  0  0  0  0  0  0  0
   -1.2652   -0.7686    1.0942 H   0  0  0  0  0  0  0  0  0  0  0  0
   -1.3162   -1.4200   -0.5445 H   0  0  0  0  0  0  0  0  0  0  0  0
    1.2901   -1.4572   -0.5608 H   0  0  0  0  0  0  0  0  0  0  0  0
    1.2787   -0.7940    1.0779 H   0  0  0  0  0  0  0  0  0  0  0  0
   -2.5859    0.6342   -1.2741 H   0  0  0  0  0  0  0  0  0  0  0  0
   -2.5529    1.2308    0.3867 H   0  0  0  0  0  0  0  0  0  0  0  0
    2.5849    0.5417   -1.3430 H   0  0  0  0  0  0  0  0  0  0  0  0
    2.5406    1.2221    0.2849 H   0  0  0  0  0  0  0  0  0  0  0  0
   -3.7664   -0.8377    1.1445 H   0  0  0  0  0  0  0  0  0  0  0  0
   -3.8332   -1.3959   -0.5285 H   0  0  0  0  0  0  0  0  0  0  0  0
    3.8428   -1.4417   -0.4754 H   0  0  0  0  0  0  0  0  0  0  0  0
    3.7640   -0.7825    1.1599 H   0  0  0  0  0  0  0  0  0  0  0  0
   -5.1202    0.6762   -1.1528 H   0  0  0  0  0  0  0  0  0  0  0  0
   -5.0717    1.2031    0.5310 H   0  0  0  0  0  0  0  0  0  0  0  0
    5.0387    1.2465    0.3950 H   0  0  0  0  0  0  0  0  0  0  0  0
    5.1389    0.5616   -1.2286 H   0  0  0  0  0  0  0  0  0  0  0  0
    0.0263    1.2657    1.3773 H   0  0  0  0  0  0  0  0  0  0  0  0
   -6.3834   -1.3758   -0.4826 H   0  0  0  0  0  0  0  0  0  0  0  0
   -6.3347   -0.8492    1.2114 H   0  0  0  0  0  0  0  0  0  0  0  0
   -7.2252    0.1031    0.0114 H   0  0  0  0  0  0  0  0  0  0  0  0
    6.4093   -1.3981   -0.3243 H   0  0  0  0  0  0  0  0  0  0  0  0
    6.3078   -0.7058    1.3067 H   0  0  0  0  0  0  0  0  0  0  0  0
    7.2188    0.1354    0.0409 H   0  0  0  0  0  0  0  0  0  0  0  0
  1  2  1  0  0  0  0
  1 30  1  0  0  0  0
  2  3  1  0  0  0  0
  2  4  1  0  0  0  0
  2 13  1  0  0  0  0
  3  5  1  0  0  0  0
  3 14  1  0  0  0  0
  3 15  1  0  0  0  0
  4  6  1  0  0  0  0
  4 16  1  0  0  0  0
  4 17  1  0  0  0  0
  5  7  1  0  0  0  0
  5 18  1  0  0  0  0
  5 19  1  0  0  0  0
  6  8  1  0  0  0  0
  6 20  1  0  0  0  0
  6 21  1  0  0  0  0
  7  9  1  0  0  0  0
  7 22  1  0  0  0  0
  7 23  1  0  0  0  0
  8 10  1  0  0  0  0
  8 24  1  0  0  0  0
  8 25  1  0  0  0  0
  9 11  1  0  0  0  0
  9 26  1  0  0  0  0
  9 27  1  0  0  0  0
 10 12  1  0  0  0  0
 10 28  1  0  0  0  0
 10 29  1  0  0  0  0
 11 31  1  0  0  0  0
 11 32  1  0  0  0  0
 11 33  1  0  0  0  0
 12 34  1  0  0  0  0
 12 35  1  0  0  0  0
 12 36  1  0  0  0  0
M  END
> <PUBCHEM_COMPOUND_CID>
32045

> <PUBCHEM_CONFORMER_RMSD>
0.8

> <PUBCHEM_CONFORMER_DIVERSEORDER>
1
94
44
116
37
138
99
25
143
146
107
114
7
98
17
24
29
137
112
18
60
120
59
129
95
33
52
36
117
43
113
14
31
135
97
49
109
28
144
119
20
10
131
27
11
35
2
141
64
3
34
130
30
41
96
8
115
5
122
40
106
12
69
145
4
47
110
126
136
70
86
125
6
118
55
147
76
124
38
121
9
133
51
67
48
127
68
13
101
134
142
80
132
73
77
21
82
148
84
72
16
93
58
53
140
62
78
26
19
123
81
54
57
92
15
103
88
111
75
71
50
139
128
56
91
42
32
65
63
45
46
108
104
22
87
79
83
61
23
85
90
102
39
100
66
74
105
89

> <PUBCHEM_MMFF94_PARTIAL_CHARGES>
3
1 -0.68
2 0.28
30 0.4

> <PUBCHEM_EFFECTIVE_ROTOR_COUNT>
8

> <PUBCHEM_PHARMACOPHORE_FEATURES>
6
1 1 acceptor
1 1 donor
1 11 hydrophobe
1 12 hydrophobe
4 3 5 7 9 hydrophobe
4 4 6 8 10 hydrophobe

> <PUBCHEM_HEAVY_ATOM_COUNT>
12

> <PUBCHEM_ATOM_DEF_STEREO_COUNT>
0

> <PUBCHEM_ATOM_UDEF_STEREO_COUNT>
0

> <PUBCHEM_BOND_DEF_STEREO_COUNT>
0

> <PUBCHEM_BOND_UDEF_STEREO_COUNT>
0

> <PUBCHEM_ISOTOPIC_ATOM_COUNT>
0

> <PUBCHEM_COMPONENT_COUNT>
1

> <PUBCHEM_CACTVS_TAUTO_COUNT>
1

> <PUBCHEM_CONFORMER_ID>
00007D2D00000001

> <PUBCHEM_MMFF94_ENERGY>
0.387

> <PUBCHEM_FEATURE_SELFOVERLAP>
30.448

> <PUBCHEM_SHAPE_FINGERPRINT>
11287383 113 16660370310916352469
11401426 45 18343864420171773351
12091667 2 18333731317369298151
12815109 37 18342738515785321046
13533116 47 18187077309753496114
14123238 8 16805040718036119367
1420 363 18411422808302362470
14251718 22 17967532380799746331
14251764 46 18408039610860106894
17834072 33 18201437025389029861
17834076 25 18408603660430618550
187816 3 13984663646260921164
20645477 70 18263361400534382050
20719005 15 18410575084663085436
20767249 13 18411138038911487022
21130983 4 14549016602642513618
23402539 116 18201432592993284671
23521765 1 18341894095129135359
23557571 272 17386002832346988092
366044 4 18260267456027633779
42788 4 18333450941044385245
4463277 17 18341894090866037449
8209 1 18040152920100580431

> <PUBCHEM_SHAPE_MULTIPOLES>
241.09
15.72
0.91
0.65
0.06
0.14
0.01
-2.49
-0.77
0.02
-0.07
-0.02
0.02
-0.02

> <PUBCHEM_SHAPE_SELFOVERLAP>
428.489

> <PUBCHEM_SHAPE_VOLUME>
157.6

> <PUBCHEM_COORDINATE_TYPE>
2
5
10

$$$$
