6429206
  -OEChem-09062011403D

 39 40  0     1  0  0  0  0  0999 V2000
   -0.3299    1.4355   -0.3065 C   0  0  1  0  0  0  0  0  0  0  0  0
    0.9323    2.2833   -0.0243 C   0  0  1  0  0  0  0  0  0  0  0  0
   -0.0955   -0.0724   -0.3279 C   0  0  0  0  0  0  0  0  0  0  0  0
   -1.4514    1.7259    0.7094 C   0  0  0  0  0  0  0  0  0  0  0  0
   -2.4960   -0.5391    0.1881 C   0  0  1  0  0  0  0  0  0  0  0  0
   -1.3337   -0.8201   -0.7817 C   0  0  0  0  0  0  0  0  0  0  0  0
   -2.7366    0.9712    0.3498 C   0  0  0  0  0  0  0  0  0  0  0  0
    1.8130    1.6079    1.0284 C   0  0  0  0  0  0  0  0  0  0  0  0
    1.0681   -0.6341    0.0704 C   0  0  0  0  0  0  0  0  0  0  0  0
    2.2121    0.1901    0.6205 C   0  0  0  0  0  0  0  0  0  0  0  0
    1.7184    2.5456   -1.3168 C   0  0  0  0  0  0  0  0  0  0  0  0
   -3.7707   -1.2378   -0.2820 C   0  0  0  0  0  0  0  0  0  0  0  0
    1.3428   -2.0545    0.0513 C   0  0  0  0  0  0  0  0  0  0  0  0
    2.7178   -2.4560   -0.3839 C   0  0  0  0  0  0  0  0  0  0  0  0
    0.4091   -2.9454    0.4052 C   0  0  0  0  0  0  0  0  0  0  0  0
   -0.7055    1.7329   -1.2964 H   0  0  0  0  0  0  0  0  0  0  0  0
    0.6302    3.2655    0.3620 H   0  0  0  0  0  0  0  0  0  0  0  0
   -1.6690    2.8005    0.7314 H   0  0  0  0  0  0  0  0  0  0  0  0
   -1.1375    1.4428    1.7220 H   0  0  0  0  0  0  0  0  0  0  0  0
   -2.2360   -0.9484    1.1737 H   0  0  0  0  0  0  0  0  0  0  0  0
   -1.6024   -0.4239   -1.7728 H   0  0  0  0  0  0  0  0  0  0  0  0
   -1.2144   -1.8850   -0.9731 H   0  0  0  0  0  0  0  0  0  0  0  0
   -3.4894    1.1481    1.1272 H   0  0  0  0  0  0  0  0  0  0  0  0
   -3.1427    1.3840   -0.5828 H   0  0  0  0  0  0  0  0  0  0  0  0
    1.2720    1.5685    1.9826 H   0  0  0  0  0  0  0  0  0  0  0  0
    2.7151    2.2035    1.2132 H   0  0  0  0  0  0  0  0  0  0  0  0
    2.6364   -0.2924    1.5108 H   0  0  0  0  0  0  0  0  0  0  0  0
    3.0142    0.2487   -0.1260 H   0  0  0  0  0  0  0  0  0  0  0  0
    1.1163    3.1367   -2.0155 H   0  0  0  0  0  0  0  0  0  0  0  0
    2.6316    3.1125   -1.1069 H   0  0  0  0  0  0  0  0  0  0  0  0
    2.0020    1.6200   -1.8271 H   0  0  0  0  0  0  0  0  0  0  0  0
   -4.5918   -1.0620    0.4210 H   0  0  0  0  0  0  0  0  0  0  0  0
   -4.0839   -0.8750   -1.2669 H   0  0  0  0  0  0  0  0  0  0  0  0
   -3.6165   -2.3196   -0.3528 H   0  0  0  0  0  0  0  0  0  0  0  0
    2.9873   -1.9749   -1.3309 H   0  0  0  0  0  0  0  0  0  0  0  0
    2.7838   -3.5376   -0.5501 H   0  0  0  0  0  0  0  0  0  0  0  0
    3.4714   -2.2041    0.3692 H   0  0  0  0  0  0  0  0  0  0  0  0
    0.6315   -4.0086    0.3740 H   0  0  0  0  0  0  0  0  0  0  0  0
   -0.5544   -2.6882    0.8267 H   0  0  0  0  0  0  0  0  0  0  0  0
  1  2  1  0  0  0  0
  1  3  1  0  0  0  0
  1  4  1  0  0  0  0
  1 16  1  0  0  0  0
  2  8  1  0  0  0  0
  2 11  1  0  0  0  0
  2 17  1  0  0  0  0
  3  6  1  0  0  0  0
  3  9  2  0  0  0  0
  4  7  1  0  0  0  0
  4 18  1  0  0  0  0
  4 19  1  0  0  0  0
  5  6  1  0  0  0  0
  5  7  1  0  0  0  0
  5 12  1  0  0  0  0
  5 20  1  0  0  0  0
  6 21  1  0  0  0  0
  6 22  1  0  0  0  0
  7 23  1  0  0  0  0
  7 24  1  0  0  0  0
  8 10  1  0  0  0  0
  8 25  1  0  0  0  0
  8 26  1  0  0  0  0
  9 10  1  0  0  0  0
  9 13  1  0  0  0  0
 10 27  1  0  0  0  0
 10 28  1  0  0  0  0
 11 29  1  0  0  0  0
 11 30  1  0  0  0  0
 11 31  1  0  0  0  0
 12 32  1  0  0  0  0
 12 33  1  0  0  0  0
 12 34  1  0  0  0  0
 13 14  1  0  0  0  0
 13 15  2  0  0  0  0
 14 35  1  0  0  0  0
 14 36  1  0  0  0  0
 14 37  1  0  0  0  0
 15 38  1  0  0  0  0
 15 39  1  0  0  0  0
M  END
> <PUBCHEM_COMPOUND_CID>
6429206

> <PUBCHEM_CONFORMER_RMSD>
0.6

> <PUBCHEM_CONFORMER_DIVERSEORDER>
2
16
4
14
6
5
15
8
3
13
10
7
17
9
12
11
1

> <PUBCHEM_MMFF94_PARTIAL_CHARGES>
10
1 0.14
10 0.14
13 -0.14
14 0.14
15 -0.3
3 -0.28
38 0.15
39 0.15
6 0.14
9 -0.14

> <PUBCHEM_EFFECTIVE_ROTOR_COUNT>
2.4

> <PUBCHEM_PHARMACOPHORE_FEATURES>
2
6 1 2 3 8 9 10 rings
6 1 3 4 5 6 7 rings

> <PUBCHEM_HEAVY_ATOM_COUNT>
15

> <PUBCHEM_ATOM_DEF_STEREO_COUNT>
0

> <PUBCHEM_ATOM_UDEF_STEREO_COUNT>
3

> <PUBCHEM_BOND_DEF_STEREO_COUNT>
0

> <PUBCHEM_BOND_UDEF_STEREO_COUNT>
0

> <PUBCHEM_ISOTOPIC_ATOM_COUNT>
0

> <PUBCHEM_COMPONENT_COUNT>
1

> <PUBCHEM_CACTVS_TAUTO_COUNT>
1

> <PUBCHEM_CONFORMER_ID>
00621A1600000002

> <PUBCHEM_MMFF94_ENERGY>
33.4834

> <PUBCHEM_FEATURE_SELFOVERLAP>
10.184

> <PUBCHEM_SHAPE_FINGERPRINT>
10967382 1 18267582583932569723
11680986 33 18340759330758096297
12251169 10 17984425135741304689
12382932 28 17909540658363982826
12553582 1 18049441444288303755
12696612 119 18412262800678402507
13027679 85 17982166725735892152
13140716 1 17978781634424159874
14178342 30 18339632357014478169
14251717 144 18266728272510221775
14761567 1 16968836348242328956
14817 1 10361299308394589404
15001771 113 18339926996055173737
15375462 189 17903086537904240435
15490181 8 18192712464925817322
16945 1 18342730866527766089
17990270 104 18408601448585699859
193761 8 18340202982011211857
19868273 325 17979074885984827078
20511035 2 18200590281345622941
20559304 39 18341894129710452329
20645476 183 17538847288065055253
20645477 70 18262509412319562895
21501502 16 18341334379370380129
22445834 79 18343022172990462193
2334 1 18339355271388854930
23388829 49 18270666667093842167
23419403 2 15824011273858790713
23526114 1 18338518538755589294
23552423 10 18410296908601144229
241688 4 18120652435625504656
2748010 2 18267007367657968198
2897 32 18412259570915814881
458136 41 18047775946138263243
5255222 1 17762611794425984690
7364860 26 18343863320475535667
81228 2 17689996730554442394
8272917 22 18337675321302091751

> <PUBCHEM_SHAPE_MULTIPOLES>
308.69
4.25
3.42
0.95
3.24
0.69
-0.07
1.25
-0.02
-2.12
-0.24
-0.26
-0.39
-0.34

> <PUBCHEM_SHAPE_SELFOVERLAP>
631.509

> <PUBCHEM_SHAPE_VOLUME>
175.5

> <PUBCHEM_COORDINATE_TYPE>
2
5
10

$$$$
