11241196
  -OEChem-09062006193D

 29 30  0     1  0  0  0  0  0999 V2000
    0.3869    1.4202    0.1768 O   0  0  0  0  0  0  0  0  0  0  0  0
    3.4256   -0.3761    1.7494 O   0  0  0  0  0  0  0  0  0  0  0  0
   -1.3726    2.8921   -0.0339 O   0  0  0  0  0  0  0  0  0  0  0  0
   -0.9069   -0.4835    0.0839 C   0  0  0  0  0  0  0  0  0  0  0  0
   -1.3449   -1.9105    0.0689 C   0  0  0  0  0  0  0  0  0  0  0  0
   -1.7503    0.5354   -0.0233 C   0  0  0  0  0  0  0  0  0  0  0  0
    0.4154    0.0262    0.2087 C   0  0  0  0  0  0  0  0  0  0  0  0
   -2.8775   -2.0932   -0.0829 C   0  0  0  0  0  0  0  0  0  0  0  0
    2.9084   -0.0250    0.4655 C   0  0  2  0  0  0  0  0  0  0  0  0
    1.5535   -0.6608    0.3400 C   0  0  0  0  0  0  0  0  0  0  0  0
   -3.1622    0.3988   -0.1643 C   0  0  0  0  0  0  0  0  0  0  0  0
   -3.6999   -0.8301   -0.1930 C   0  0  0  0  0  0  0  0  0  0  0  0
    3.8928   -0.5059   -0.6074 C   0  0  0  0  0  0  0  0  0  0  0  0
   -0.9405    1.7531    0.0344 C   0  0  0  0  0  0  0  0  0  0  0  0
    3.4722   -0.1406   -2.0230 C   0  0  0  0  0  0  0  0  0  0  0  0
   -0.8456   -2.4378   -0.7537 H   0  0  0  0  0  0  0  0  0  0  0  0
   -1.0233   -2.4018    0.9958 H   0  0  0  0  0  0  0  0  0  0  0  0
   -3.2489   -2.6705    0.7729 H   0  0  0  0  0  0  0  0  0  0  0  0
   -3.0717   -2.7072   -0.9713 H   0  0  0  0  0  0  0  0  0  0  0  0
    2.8508    1.0681    0.4369 H   0  0  0  0  0  0  0  0  0  0  0  0
    1.5228   -1.7482    0.3654 H   0  0  0  0  0  0  0  0  0  0  0  0
   -3.7814    1.2840   -0.2458 H   0  0  0  0  0  0  0  0  0  0  0  0
   -4.7752   -0.9390   -0.3001 H   0  0  0  0  0  0  0  0  0  0  0  0
    4.0301   -1.5928   -0.5368 H   0  0  0  0  0  0  0  0  0  0  0  0
    4.8801   -0.0734   -0.4011 H   0  0  0  0  0  0  0  0  0  0  0  0
    4.2460   -0.4450   -2.7350 H   0  0  0  0  0  0  0  0  0  0  0  0
    3.3277    0.9399   -2.1217 H   0  0  0  0  0  0  0  0  0  0  0  0
    2.5422   -0.6416   -2.3085 H   0  0  0  0  0  0  0  0  0  0  0  0
    3.5644   -1.3387    1.7688 H   0  0  0  0  0  0  0  0  0  0  0  0
  1  7  1  0  0  0  0
  1 14  1  0  0  0  0
  2  9  1  0  0  0  0
  2 29  1  0  0  0  0
  3 14  2  0  0  0  0
  4  5  1  0  0  0  0
  4  6  2  0  0  0  0
  4  7  1  0  0  0  0
  5  8  1  0  0  0  0
  5 16  1  0  0  0  0
  5 17  1  0  0  0  0
  6 11  1  0  0  0  0
  6 14  1  0  0  0  0
  7 10  2  0  0  0  0
  8 12  1  0  0  0  0
  8 18  1  0  0  0  0
  8 19  1  0  0  0  0
  9 10  1  0  0  0  0
  9 13  1  0  0  0  0
  9 20  1  0  0  0  0
 10 21  1  0  0  0  0
 11 12  2  0  0  0  0
 11 22  1  0  0  0  0
 12 23  1  0  0  0  0
 13 15  1  0  0  0  0
 13 24  1  0  0  0  0
 13 25  1  0  0  0  0
 15 26  1  0  0  0  0
 15 27  1  0  0  0  0
 15 28  1  0  0  0  0
M  END
> <PUBCHEM_COMPOUND_CID>
11241196

> <PUBCHEM_CONFORMER_RMSD>
0.6

> <PUBCHEM_CONFORMER_DIVERSEORDER>
1
8
5
3
2
6
7
4
9

> <PUBCHEM_MMFF94_PARTIAL_CHARGES>
17
1 -0.23
10 -0.29
11 -0.15
12 -0.29
14 0.71
2 -0.68
21 0.15
22 0.15
23 0.15
29 0.4
3 -0.57
4 -0.14
5 0.14
6 0.01
7 0.08
8 0.14
9 0.42

> <PUBCHEM_EFFECTIVE_ROTOR_COUNT>
2.6

> <PUBCHEM_PHARMACOPHORE_FEATURES>
6
1 15 hydrophobe
1 2 acceptor
1 2 donor
1 3 acceptor
5 1 4 6 7 14 rings
6 4 5 6 8 11 12 rings

> <PUBCHEM_HEAVY_ATOM_COUNT>
15

> <PUBCHEM_ATOM_DEF_STEREO_COUNT>
0

> <PUBCHEM_ATOM_UDEF_STEREO_COUNT>
1

> <PUBCHEM_BOND_DEF_STEREO_COUNT>
1

> <PUBCHEM_BOND_UDEF_STEREO_COUNT>
0

> <PUBCHEM_ISOTOPIC_ATOM_COUNT>
0

> <PUBCHEM_COMPONENT_COUNT>
1

> <PUBCHEM_CACTVS_TAUTO_COUNT>
1

> <PUBCHEM_CONFORMER_ID>
00AB86EC00000001

> <PUBCHEM_MMFF94_ENERGY>
19.363

> <PUBCHEM_FEATURE_SELFOVERLAP>
30.519

> <PUBCHEM_SHAPE_FINGERPRINT>
10465860 71 18338531823194768830
11132069 177 18272082803541913299
11543360 7 15792011241999770499
11578080 2 17460843355045957300
12032990 46 18340490066347066883
12553582 1 18409449223727868915
13296908 3 18131350838530533934
13538477 17 18187079546877263482
14911166 2 18409721872952669623
15375462 189 18040710381439401259
15669948 3 18335419054163294794
16752209 62 18336541616896203773
16945 1 18410571756221758153
17804303 29 18343023328426393995
18186145 218 12468627305526040030
193761 8 17762612889948691187
20279233 1 17918273160453794854
20281407 28 18343022202691541650
20510252 161 18272364226794686240
20645476 183 17604155912112132446
20871998 184 18273208699190802847
20871999 31 18335707182165777063
21029758 27 18187937222155829037
21639500 275 16008756852755215086
22096605 113 15791738546152192142
228727 97 17967819353128867714
2334 1 18049718813238680593
23402539 116 18340190934506445631
23557571 272 18202004300933934192
23559900 14 18342457007166355438
23598291 2 17460033968695811146
2748010 2 18195517315051672017
3071541 250 18193286418833422909
43471831 8 18263355902527883171
474 4 16806463572710016268
5902787 121 18191578851247330755
6049 1 17846780681085345296
7364860 26 17838335538156722705
7615 1 17676766475163514004
77492 1 17748828492769681058
81228 2 18411987931435421825
84936 31 16915934274349170408

> <PUBCHEM_SHAPE_MULTIPOLES>
291.09
6.73
2.05
1.1
3.69
0.93
-0.19
-2.21
-1.1
-1.93
-0.01
1.63
-0.14
-0.02

> <PUBCHEM_SHAPE_SELFOVERLAP>
615.153

> <PUBCHEM_SHAPE_VOLUME>
165.1

> <PUBCHEM_COORDINATE_TYPE>
2
5
10

$$$$
