138348
  -OEChem-09062013533D

 17 18  0     0  0  0  0  0  0999 V2000
    2.0645   -0.0001    0.0010 O   0  0  0  0  0  0  0  0  0  0  0  0
    1.6732   -2.2709   -0.0005 O   0  0  0  0  0  0  0  0  0  0  0  0
    1.6734    2.2710   -0.0005 O   0  0  0  0  0  0  0  0  0  0  0  0
   -0.0951   -0.6646   -0.0002 C   0  0  0  0  0  0  0  0  0  0  0  0
   -0.0952    0.6646   -0.0002 C   0  0  0  0  0  0  0  0  0  0  0  0
   -1.3189   -1.5067   -0.0003 C   0  0  0  0  0  0  0  0  0  0  0  0
   -1.3188    1.5067   -0.0004 C   0  0  0  0  0  0  0  0  0  0  0  0
   -2.5787   -0.6728    0.0004 C   0  0  0  0  0  0  0  0  0  0  0  0
   -2.5788    0.6729    0.0003 C   0  0  0  0  0  0  0  0  0  0  0  0
    1.2871   -1.1169    0.0002 C   0  0  0  0  0  0  0  0  0  0  0  0
    1.2871    1.1168    0.0002 C   0  0  0  0  0  0  0  0  0  0  0  0
   -1.3224   -2.1525    0.8848 H   0  0  0  0  0  0  0  0  0  0  0  0
   -1.3228   -2.1518   -0.8860 H   0  0  0  0  0  0  0  0  0  0  0  0
   -1.3226    2.1518   -0.8861 H   0  0  0  0  0  0  0  0  0  0  0  0
   -1.3224    2.1526    0.8847 H   0  0  0  0  0  0  0  0  0  0  0  0
   -3.5272   -1.2023    0.0008 H   0  0  0  0  0  0  0  0  0  0  0  0
   -3.5273    1.2025    0.0007 H   0  0  0  0  0  0  0  0  0  0  0  0
  1 10  1  0  0  0  0
  1 11  1  0  0  0  0
  2 10  2  0  0  0  0
  3 11  2  0  0  0  0
  4  5  2  0  0  0  0
  4  6  1  0  0  0  0
  4 10  1  0  0  0  0
  5  7  1  0  0  0  0
  5 11  1  0  0  0  0
  6  8  1  0  0  0  0
  6 12  1  0  0  0  0
  6 13  1  0  0  0  0
  7  9  1  0  0  0  0
  7 14  1  0  0  0  0
  7 15  1  0  0  0  0
  8  9  2  0  0  0  0
  8 16  1  0  0  0  0
  9 17  1  0  0  0  0
M  END
> <PUBCHEM_COMPOUND_CID>
138348

> <PUBCHEM_CONFORMER_RMSD>
0.4

> <PUBCHEM_CONFORMER_DIVERSEORDER>
1

> <PUBCHEM_MMFF94_PARTIAL_CHARGES>
13
1 -0.3
10 0.71
11 0.71
16 0.15
17 0.15
2 -0.57
3 -0.57
4 -0.12
5 -0.12
6 0.28
7 0.28
8 -0.29
9 -0.29

> <PUBCHEM_EFFECTIVE_ROTOR_COUNT>
0.6

> <PUBCHEM_PHARMACOPHORE_FEATURES>
4
1 2 acceptor
1 3 acceptor
5 1 4 5 10 11 rings
6 4 5 6 7 8 9 rings

> <PUBCHEM_HEAVY_ATOM_COUNT>
11

> <PUBCHEM_ATOM_DEF_STEREO_COUNT>
0

> <PUBCHEM_ATOM_UDEF_STEREO_COUNT>
0

> <PUBCHEM_BOND_DEF_STEREO_COUNT>
0

> <PUBCHEM_BOND_UDEF_STEREO_COUNT>
0

> <PUBCHEM_ISOTOPIC_ATOM_COUNT>
0

> <PUBCHEM_COMPONENT_COUNT>
1

> <PUBCHEM_CACTVS_TAUTO_COUNT>
1

> <PUBCHEM_CONFORMER_ID>
00021C6C00000001

> <PUBCHEM_MMFF94_ENERGY>
0.3255

> <PUBCHEM_FEATURE_SELFOVERLAP>
20.37

> <PUBCHEM_SHAPE_FINGERPRINT>
12423570 1 10715446334191342673
12524768 44 18334857238223450031
12897270 3 18338236088889815765
16945 1 18410855464539173639
17990270 104 18411135797060124675
18185500 45 18121780530329324003
193761 8 18410855464560272645
19973954 147 18410857642298673761
21040471 1 17906453582000485664
23552423 10 18408605881013132687
241688 4 17906452130074524280
2748010 2 18049726513872429678
5084963 1 18201720669239751033
528886 8 18122903393699498209
7364860 26 18343302565524618240

> <PUBCHEM_SHAPE_MULTIPOLES>
208.77
3.24
2.19
0.59
1.07
0
0
0
0
-0.9
0
0.05
0
0

> <PUBCHEM_SHAPE_SELFOVERLAP>
456.644

> <PUBCHEM_SHAPE_VOLUME>
114.5

> <PUBCHEM_COORDINATE_TYPE>
2
5
10

$$$$
