5375180
  -OEChem-09062014013D

 26 26  0     0  0  0  0  0  0999 V2000
    2.1311    2.0259   -1.1382 S   0  0  0  0  0  0  0  0  0  0  0  0
   -2.2967    0.4630    0.4206 O   0  0  0  0  0  0  0  0  0  0  0  0
   -0.5772   -1.7754    0.2532 O   0  0  0  0  0  0  0  0  0  0  0  0
    0.4876    0.9950    0.7767 N   0  0  0  0  0  0  0  0  0  0  0  0
    2.1804   -0.3843   -0.0744 N   0  0  0  0  0  0  0  0  0  0  0  0
   -0.5316    2.0426    0.7653 C   0  0  0  0  0  0  0  0  0  0  0  0
    1.8075   -1.5876    0.6683 C   0  0  0  0  0  0  0  0  0  0  0  0
   -1.6910    1.6304   -0.1362 C   0  0  0  0  0  0  0  0  0  0  0  0
    0.6913   -2.3705   -0.0212 C   0  0  0  0  0  0  0  0  0  0  0  0
   -2.5262   -0.5925   -0.5124 C   0  0  0  0  0  0  0  0  0  0  0  0
   -1.2348   -1.2973   -0.9205 C   0  0  0  0  0  0  0  0  0  0  0  0
    1.5597    0.8506   -0.0812 C   0  0  0  0  0  0  0  0  0  0  0  0
   -0.1030    2.9925    0.4367 H   0  0  0  0  0  0  0  0  0  0  0  0
   -0.8722    2.1499    1.8006 H   0  0  0  0  0  0  0  0  0  0  0  0
    1.5361   -1.3150    1.6921 H   0  0  0  0  0  0  0  0  0  0  0  0
    2.7113   -2.2049    0.7077 H   0  0  0  0  0  0  0  0  0  0  0  0
   -2.4480    2.4212   -0.1479 H   0  0  0  0  0  0  0  0  0  0  0  0
   -1.3546    1.4725   -1.1666 H   0  0  0  0  0  0  0  0  0  0  0  0
    0.8775   -2.4708   -1.0975 H   0  0  0  0  0  0  0  0  0  0  0  0
    0.6563   -3.3788    0.4050 H   0  0  0  0  0  0  0  0  0  0  0  0
   -3.0651   -0.2104   -1.3863 H   0  0  0  0  0  0  0  0  0  0  0  0
   -3.1785   -1.3106   -0.0043 H   0  0  0  0  0  0  0  0  0  0  0  0
   -1.4694   -2.1452   -1.5735 H   0  0  0  0  0  0  0  0  0  0  0  0
   -0.5710   -0.6148   -1.4590 H   0  0  0  0  0  0  0  0  0  0  0  0
    0.3013    0.2416    1.4273 H   0  0  0  0  0  0  0  0  0  0  0  0
    2.9693   -0.4847   -0.7061 H   0  0  0  0  0  0  0  0  0  0  0  0
  1 12  2  0  0  0  0
  2  8  1  0  0  0  0
  2 10  1  0  0  0  0
  3  9  1  0  0  0  0
  3 11  1  0  0  0  0
  4  6  1  0  0  0  0
  4 12  1  0  0  0  0
  4 25  1  0  0  0  0
  5  7  1  0  0  0  0
  5 12  1  0  0  0  0
  5 26  1  0  0  0  0
  6  8  1  0  0  0  0
  6 13  1  0  0  0  0
  6 14  1  0  0  0  0
  7  9  1  0  0  0  0
  7 15  1  0  0  0  0
  7 16  1  0  0  0  0
  8 17  1  0  0  0  0
  8 18  1  0  0  0  0
  9 19  1  0  0  0  0
  9 20  1  0  0  0  0
 10 11  1  0  0  0  0
 10 21  1  0  0  0  0
 10 22  1  0  0  0  0
 11 23  1  0  0  0  0
 11 24  1  0  0  0  0
M  END
> <PUBCHEM_COMPOUND_CID>
5375180

> <PUBCHEM_CONFORMER_RMSD>
0.6

> <PUBCHEM_CONFORMER_DIVERSEORDER>
1
5
6
2
3
4

> <PUBCHEM_MMFF94_PARTIAL_CHARGES>
14
1 -0.38
10 0.28
11 0.28
12 0.5
2 -0.56
25 0.37
26 0.37
3 -0.56
4 -0.73
5 -0.73
6 0.3
7 0.3
8 0.28
9 0.28

> <PUBCHEM_EFFECTIVE_ROTOR_COUNT>
2

> <PUBCHEM_PHARMACOPHORE_FEATURES>
5
1 1 acceptor
1 2 acceptor
1 3 acceptor
1 4 donor
1 5 donor

> <PUBCHEM_HEAVY_ATOM_COUNT>
12

> <PUBCHEM_ATOM_DEF_STEREO_COUNT>
0

> <PUBCHEM_ATOM_UDEF_STEREO_COUNT>
0

> <PUBCHEM_BOND_DEF_STEREO_COUNT>
0

> <PUBCHEM_BOND_UDEF_STEREO_COUNT>
0

> <PUBCHEM_ISOTOPIC_ATOM_COUNT>
0

> <PUBCHEM_COMPONENT_COUNT>
1

> <PUBCHEM_CACTVS_TAUTO_COUNT>
2

> <PUBCHEM_CONFORMER_ID>
005204CC00000001

> <PUBCHEM_MMFF94_ENERGY>
27.4072

> <PUBCHEM_FEATURE_SELFOVERLAP>
25.417

> <PUBCHEM_SHAPE_FINGERPRINT>
12524768 44 14806566618412409522
12696612 119 18194126209340913543
14251711 518 18195800769845217551
15775835 57 18343026605217506313
15881359 60 16679746686526135613
16945 1 18335986367697915815
18185500 45 18268703922541874531
19930374 2 17037794977595328538
22802520 49 17838925933140796964
23419403 2 15244442210842047011
23552423 10 18408885109700900429
23559900 14 17983310506557692940
241688 4 17544476358123436234
2748010 2 16249405068134416694
2897 32 18410854317746001892
353137 74 18265341783704365356
528862 383 18334017176853496857
66348 1 17979910841334266843

> <PUBCHEM_SHAPE_MULTIPOLES>
229.1
3.34
2.9
0.98
0.21
0.61
-0.12
-0.76
-0.85
-0.45
0.25
-0.17
-0.21
-0.76

> <PUBCHEM_SHAPE_SELFOVERLAP>
427.196

> <PUBCHEM_SHAPE_VOLUME>
143.3

> <PUBCHEM_COORDINATE_TYPE>
2
5
10

$$$$
