11090206
  -OEChem-09062007113D

 56 60  0     1  0  0  0  0  0999 V2000
   -0.7197   -0.9055   -1.4271 O   0  0  0  0  0  0  0  0  0  0  0  0
    1.9802    2.0959    0.5475 O   0  0  0  0  0  0  0  0  0  0  0  0
    1.0315    3.3986    2.2000 O   0  0  0  0  0  0  0  0  0  0  0  0
    0.0096   -2.9858   -2.0837 O   0  0  0  0  0  0  0  0  0  0  0  0
   -0.7461   -0.1353   -0.1935 C   0  0  1  0  0  0  0  0  0  0  0  0
   -0.0246    1.2366   -0.4726 C   0  0  1  0  0  0  0  0  0  0  0  0
   -2.2526    0.1564    0.2047 C   0  0  1  0  0  0  0  0  0  0  0  0
   -2.5506    1.6794    0.0135 C   0  0  2  0  0  0  0  0  0  0  0  0
   -0.6921    1.9026   -1.7110 C   0  0  0  0  0  0  0  0  0  0  0  0
   -2.2039    2.1066   -1.4350 C   0  0  0  0  0  0  0  0  0  0  0  0
   -0.3189    2.1605    0.6641 C   0  0  0  0  0  0  0  0  0  0  0  0
   -0.0794   -1.0756    0.7608 C   0  0  0  0  0  0  0  0  0  0  0  0
   -1.5995    2.4224    0.9389 C   0  0  0  0  0  0  0  0  0  0  0  0
   -3.2817   -0.7270   -0.5056 C   0  0  0  0  0  0  0  0  0  0  0  0
    1.4671    1.2816   -0.4839 C   0  0  0  0  0  0  0  0  0  0  0  0
    0.2559   -2.2199    0.1675 C   0  0  0  0  0  0  0  0  0  0  0  0
    0.9316    2.6423    1.2498 C   0  0  0  0  0  0  0  0  0  0  0  0
    0.2197   -0.8198    2.2065 C   0  0  0  0  0  0  0  0  0  0  0  0
   -0.1437   -2.1278   -1.2329 C   0  0  0  0  0  0  0  0  0  0  0  0
   -4.6905   -0.4443    0.0008 C   0  0  0  0  0  0  0  0  0  0  0  0
    2.2865    0.6733   -1.3476 C   0  0  0  0  0  0  0  0  0  0  0  0
    0.6563   -2.0833    2.9878 C   0  0  0  0  0  0  0  0  0  0  0  0
    0.9233   -3.2997    0.8199 C   0  0  0  0  0  0  0  0  0  0  0  0
    1.1179   -3.2467    2.1457 C   0  0  0  0  0  0  0  0  0  0  0  0
   -5.7094   -1.3393   -0.6863 C   0  0  0  0  0  0  0  0  0  0  0  0
    3.7832    0.7670   -1.2933 C   0  0  0  0  0  0  0  0  0  0  0  0
    4.4173   -0.6043   -1.0588 C   0  0  0  0  0  0  0  0  0  0  0  0
    5.9329   -0.5091   -0.9761 C   0  0  0  0  0  0  0  0  0  0  0  0
   -2.3685   -0.0403    1.2809 H   0  0  0  0  0  0  0  0  0  0  0  0
   -3.5723    1.9627    0.2724 H   0  0  0  0  0  0  0  0  0  0  0  0
   -0.5553    1.3002   -2.6171 H   0  0  0  0  0  0  0  0  0  0  0  0
   -0.2332    2.8774   -1.9287 H   0  0  0  0  0  0  0  0  0  0  0  0
   -2.4546    3.1651   -1.5826 H   0  0  0  0  0  0  0  0  0  0  0  0
   -2.7982    1.5472   -2.1649 H   0  0  0  0  0  0  0  0  0  0  0  0
   -1.9363    3.0836    1.7247 H   0  0  0  0  0  0  0  0  0  0  0  0
   -3.0438   -1.7814   -0.3178 H   0  0  0  0  0  0  0  0  0  0  0  0
   -3.2472   -0.5835   -1.5912 H   0  0  0  0  0  0  0  0  0  0  0  0
    1.0274   -0.0824    2.2730 H   0  0  0  0  0  0  0  0  0  0  0  0
   -0.6473   -0.3823    2.7125 H   0  0  0  0  0  0  0  0  0  0  0  0
   -4.9925    0.5864   -0.2019 H   0  0  0  0  0  0  0  0  0  0  0  0
   -4.7444   -0.5995    1.0844 H   0  0  0  0  0  0  0  0  0  0  0  0
    1.8641    0.0707   -2.1473 H   0  0  0  0  0  0  0  0  0  0  0  0
   -0.1825   -2.4286    3.6053 H   0  0  0  0  0  0  0  0  0  0  0  0
    1.4576   -1.8061    3.6834 H   0  0  0  0  0  0  0  0  0  0  0  0
    1.2555   -4.1523    0.2396 H   0  0  0  0  0  0  0  0  0  0  0  0
    1.6084   -4.0744    2.6491 H   0  0  0  0  0  0  0  0  0  0  0  0
   -5.7080   -1.1781   -1.7691 H   0  0  0  0  0  0  0  0  0  0  0  0
   -5.4955   -2.3959   -0.4958 H   0  0  0  0  0  0  0  0  0  0  0  0
   -6.7158   -1.1250   -0.3128 H   0  0  0  0  0  0  0  0  0  0  0  0
    4.1362    1.1767   -2.2476 H   0  0  0  0  0  0  0  0  0  0  0  0
    4.1178    1.4619   -0.5147 H   0  0  0  0  0  0  0  0  0  0  0  0
    4.1434   -1.2899   -1.8699 H   0  0  0  0  0  0  0  0  0  0  0  0
    4.0354   -1.0398   -0.1272 H   0  0  0  0  0  0  0  0  0  0  0  0
    6.3515   -0.1052   -1.9035 H   0  0  0  0  0  0  0  0  0  0  0  0
    6.3662   -1.5005   -0.8110 H   0  0  0  0  0  0  0  0  0  0  0  0
    6.2410    0.1381   -0.1488 H   0  0  0  0  0  0  0  0  0  0  0  0
  1  5  1  0  0  0  0
  1 19  1  0  0  0  0
  2 15  1  0  0  0  0
  2 17  1  0  0  0  0
  3 17  2  0  0  0  0
  4 19  2  0  0  0  0
  5  6  1  0  0  0  0
  5  7  1  0  0  0  0
  5 12  1  0  0  0  0
  6  9  1  0  0  0  0
  6 11  1  0  0  0  0
  6 15  1  0  0  0  0
  7  8  1  0  0  0  0
  7 14  1  0  0  0  0
  7 29  1  0  0  0  0
  8 10  1  0  0  0  0
  8 13  1  0  0  0  0
  8 30  1  0  0  0  0
  9 10  1  0  0  0  0
  9 31  1  0  0  0  0
  9 32  1  0  0  0  0
 10 33  1  0  0  0  0
 10 34  1  0  0  0  0
 11 13  2  0  0  0  0
 11 17  1  0  0  0  0
 12 16  2  0  0  0  0
 12 18  1  0  0  0  0
 13 35  1  0  0  0  0
 14 20  1  0  0  0  0
 14 36  1  0  0  0  0
 14 37  1  0  0  0  0
 15 21  2  0  0  0  0
 16 19  1  0  0  0  0
 16 23  1  0  0  0  0
 18 22  1  0  0  0  0
 18 38  1  0  0  0  0
 18 39  1  0  0  0  0
 20 25  1  0  0  0  0
 20 40  1  0  0  0  0
 20 41  1  0  0  0  0
 21 26  1  0  0  0  0
 21 42  1  0  0  0  0
 22 24  1  0  0  0  0
 22 43  1  0  0  0  0
 22 44  1  0  0  0  0
 23 24  2  0  0  0  0
 23 45  1  0  0  0  0
 24 46  1  0  0  0  0
 25 47  1  0  0  0  0
 25 48  1  0  0  0  0
 25 49  1  0  0  0  0
 26 27  1  0  0  0  0
 26 50  1  0  0  0  0
 26 51  1  0  0  0  0
 27 28  1  0  0  0  0
 27 52  1  0  0  0  0
 27 53  1  0  0  0  0
 28 54  1  0  0  0  0
 28 55  1  0  0  0  0
 28 56  1  0  0  0  0
M  END
> <PUBCHEM_COMPOUND_CID>
11090206

> <PUBCHEM_CONFORMER_RMSD>
0.8

> <PUBCHEM_CONFORMER_DIVERSEORDER>
1
3
2
4

> <PUBCHEM_MMFF94_PARTIAL_CHARGES>
24
1 -0.43
11 -0.12
12 -0.28
13 -0.29
15 -0.06
16 0.01
17 0.71
18 0.14
19 0.71
2 -0.23
21 -0.29
22 0.14
23 -0.15
24 -0.29
26 0.14
3 -0.57
35 0.15
4 -0.57
42 0.15
45 0.15
46 0.15
5 0.42
6 0.28
8 0.14

> <PUBCHEM_EFFECTIVE_ROTOR_COUNT>
5.4

> <PUBCHEM_PHARMACOPHORE_FEATURES>
8
1 25 hydrophobe
1 28 hydrophobe
1 3 acceptor
1 4 acceptor
5 1 5 12 16 19 rings
5 2 6 11 15 17 rings
6 12 16 18 22 23 24 rings
8 5 6 7 8 9 10 11 13 rings

> <PUBCHEM_HEAVY_ATOM_COUNT>
28

> <PUBCHEM_ATOM_DEF_STEREO_COUNT>
4

> <PUBCHEM_ATOM_UDEF_STEREO_COUNT>
0

> <PUBCHEM_BOND_DEF_STEREO_COUNT>
1

> <PUBCHEM_BOND_UDEF_STEREO_COUNT>
0

> <PUBCHEM_ISOTOPIC_ATOM_COUNT>
0

> <PUBCHEM_COMPONENT_COUNT>
1

> <PUBCHEM_CACTVS_TAUTO_COUNT>
1

> <PUBCHEM_CONFORMER_ID>
00A9391E00000001

> <PUBCHEM_MMFF94_ENERGY>
66.1804

> <PUBCHEM_FEATURE_SELFOVERLAP>
40.744

> <PUBCHEM_SHAPE_FINGERPRINT>
10863032 1 17628934338662173340
10906281 52 16896226812568884677
11578080 2 14906463318495335472
11607047 403 15046345687789256063
12592029 89 17678468450391281844
12788726 201 18127998415141124636
13140716 1 18120915459713161011
133893 2 17314501535331733193
14787075 74 18335428945446727222
14955137 171 18269252621873144002
16945 1 18260271879806804333
19930381 70 18059304158241713550
20691752 17 17973422580495798453
20832881 197 18272661176781176561
20905425 154 18263075527083145597
21421861 104 18262525763243832185
22393880 68 18267851943703344351
23419403 2 17978537517115071203
23559900 14 18052821639622493332
3383291 50 18411427198519302430
404807 78 16591119917244077851
6287921 2 17120571710751251630
6669772 16 18197202857845283344
81228 2 17688582088781519917

> <PUBCHEM_SHAPE_MULTIPOLES>
552.75
6.91
4.01
2.23
0.88
1.11
-1.02
1.08
4.08
0.52
-1.78
0.87
0.61
-0.53

> <PUBCHEM_SHAPE_SELFOVERLAP>
1215.439

> <PUBCHEM_SHAPE_VOLUME>
298.5

> <PUBCHEM_COORDINATE_TYPE>
2
5
10

$$$$
