556470
  -OEChem-09062010043D

 29 29  0     1  0  0  0  0  0999 V2000
   -0.2141    0.4291    0.9897 C   0  0  1  0  0  0  0  0  0  0  0  0
    0.9126    0.7767    0.0131 C   0  0  0  0  0  0  0  0  0  0  0  0
    2.1731   -0.0237    0.3211 C   0  0  0  0  0  0  0  0  0  0  0  0
   -1.4325    1.3483    0.8419 C   0  0  0  0  0  0  0  0  0  0  0  0
   -0.5284   -1.0392    0.9275 C   0  0  0  0  0  0  0  0  0  0  0  0
    3.2852    0.3033   -0.6752 C   0  0  0  0  0  0  0  0  0  0  0  0
   -2.0908    1.3296   -0.4978 C   0  0  0  0  0  0  0  0  0  0  0  0
   -1.5086   -1.6743    0.2707 C   0  0  0  0  0  0  0  0  0  0  0  0
   -2.5677   -1.1818   -0.6697 C   0  0  0  0  0  0  0  0  0  0  0  0
   -2.5664    0.2455   -1.1216 C   0  0  0  0  0  0  0  0  0  0  0  0
    4.5377   -0.5135   -0.3998 C   0  0  0  0  0  0  0  0  0  0  0  0
    0.1616    0.6133    2.0072 H   0  0  0  0  0  0  0  0  0  0  0  0
    1.1395    1.8482    0.0804 H   0  0  0  0  0  0  0  0  0  0  0  0
    0.6025    0.5818   -1.0214 H   0  0  0  0  0  0  0  0  0  0  0  0
    2.5153    0.1950    1.3399 H   0  0  0  0  0  0  0  0  0  0  0  0
    1.9811   -1.1007    0.2660 H   0  0  0  0  0  0  0  0  0  0  0  0
   -1.1142    2.3796    1.0450 H   0  0  0  0  0  0  0  0  0  0  0  0
   -2.1816    1.1163    1.6105 H   0  0  0  0  0  0  0  0  0  0  0  0
    0.1161   -1.6680    1.5426 H   0  0  0  0  0  0  0  0  0  0  0  0
    3.5317    1.3700   -0.6215 H   0  0  0  0  0  0  0  0  0  0  0  0
    2.9438    0.0999   -1.6969 H   0  0  0  0  0  0  0  0  0  0  0  0
   -2.2173    2.2932   -0.9866 H   0  0  0  0  0  0  0  0  0  0  0  0
   -1.5469   -2.7542    0.4217 H   0  0  0  0  0  0  0  0  0  0  0  0
   -3.5515   -1.4064   -0.2402 H   0  0  0  0  0  0  0  0  0  0  0  0
   -2.4835   -1.7981   -1.5750 H   0  0  0  0  0  0  0  0  0  0  0  0
   -3.0598    0.4158   -2.0781 H   0  0  0  0  0  0  0  0  0  0  0  0
    4.3335   -1.5858   -0.4820 H   0  0  0  0  0  0  0  0  0  0  0  0
    4.9237   -0.3128    0.6048 H   0  0  0  0  0  0  0  0  0  0  0  0
    5.3210   -0.2609   -1.1214 H   0  0  0  0  0  0  0  0  0  0  0  0
  1  2  1  0  0  0  0
  1  4  1  0  0  0  0
  1  5  1  0  0  0  0
  1 12  1  0  0  0  0
  2  3  1  0  0  0  0
  2 13  1  0  0  0  0
  2 14  1  0  0  0  0
  3  6  1  0  0  0  0
  3 15  1  0  0  0  0
  3 16  1  0  0  0  0
  4  7  1  0  0  0  0
  4 17  1  0  0  0  0
  4 18  1  0  0  0  0
  5  8  2  0  0  0  0
  5 19  1  0  0  0  0
  6 11  1  0  0  0  0
  6 20  1  0  0  0  0
  6 21  1  0  0  0  0
  7 10  2  0  0  0  0
  7 22  1  0  0  0  0
  8  9  1  0  0  0  0
  8 23  1  0  0  0  0
  9 10  1  0  0  0  0
  9 24  1  0  0  0  0
  9 25  1  0  0  0  0
 10 26  1  0  0  0  0
 11 27  1  0  0  0  0
 11 28  1  0  0  0  0
 11 29  1  0  0  0  0
M  END
> <PUBCHEM_COMPOUND_CID>
556470

> <PUBCHEM_CONFORMER_RMSD>
0.6

> <PUBCHEM_CONFORMER_DIVERSEORDER>
1
18
10
12
2
11
19
3
17
15
4
16
9
5
6
13
7
8
14

> <PUBCHEM_MMFF94_PARTIAL_CHARGES>
11
1 0.14
10 -0.29
19 0.15
22 0.15
23 0.15
26 0.15
4 0.14
5 -0.29
7 -0.29
8 -0.29
9 0.28

> <PUBCHEM_EFFECTIVE_ROTOR_COUNT>
3.6

> <PUBCHEM_PHARMACOPHORE_FEATURES>
2
1 11 hydrophobe
7 1 4 5 7 8 9 10 rings

> <PUBCHEM_HEAVY_ATOM_COUNT>
11

> <PUBCHEM_ATOM_DEF_STEREO_COUNT>
0

> <PUBCHEM_ATOM_UDEF_STEREO_COUNT>
1

> <PUBCHEM_BOND_DEF_STEREO_COUNT>
0

> <PUBCHEM_BOND_UDEF_STEREO_COUNT>
0

> <PUBCHEM_ISOTOPIC_ATOM_COUNT>
0

> <PUBCHEM_COMPONENT_COUNT>
1

> <PUBCHEM_CACTVS_TAUTO_COUNT>
1

> <PUBCHEM_CONFORMER_ID>
00087DB600000001

> <PUBCHEM_MMFF94_ENERGY>
10.1106

> <PUBCHEM_FEATURE_SELFOVERLAP>
10.148

> <PUBCHEM_SHAPE_FINGERPRINT>
10857977 72 10087643753358778907
11127187 94 18342454872013799543
12251169 10 10015582830605223518
12696612 119 9727341446848224466
12716758 59 18411690006728517265
12932764 1 18040437698419007216
13024252 1 13479136821698293705
13764800 53 11169902884017036422
13897977 13 8790588317550007902
15775835 57 17603860066258732525
16945 1 18262500585686554811
20201158 50 18131350812686818950
20645476 183 17821719538043909499
20653085 51 17240764016365162805
21061003 4 15339115758077491106
22802520 49 18264766747691549201
23402539 116 18342734079226886605
23559900 14 18343292657684023648
27216 239 11314316069856205134
2748010 2 17830999592544757179
528716 315 18410295821763376398

> <PUBCHEM_SHAPE_MULTIPOLES>
226.37
5.99
1.53
1.1
8.22
0.2
-0.02
0.77
2.3
-1.17
-0.13
-0.39
-0.05
-0.02

> <PUBCHEM_SHAPE_SELFOVERLAP>
435.118

> <PUBCHEM_SHAPE_VOLUME>
135.5

> <PUBCHEM_COORDINATE_TYPE>
2
5
10

$$$$
