91746711
  -OEChem-09062013553D

 39 41  0     1  0  0  0  0  0999 V2000
   -0.8387    0.0023   -0.4681 C   0  0  1  0  0  0  0  0  0  0  0  0
   -2.1470    0.7318   -0.1728 C   0  0  0  0  0  0  0  0  0  0  0  0
   -0.8970    1.5037   -0.5689 C   0  0  1  0  0  0  0  0  0  0  0  0
    0.0175   -0.6429    0.5964 C   0  0  2  0  0  0  0  0  0  0  0  0
    1.5341   -0.4307    0.3613 C   0  0  1  0  0  0  0  0  0  0  0  0
   -0.0680   -2.1832    0.5693 C   0  0  2  0  0  0  0  0  0  0  0  0
   -0.0502    2.3121    0.3598 C   0  0  0  0  0  0  0  0  0  0  0  0
   -2.6983    0.8267    1.2264 C   0  0  0  0  0  0  0  0  0  0  0  0
   -3.2332    0.6125   -1.2170 C   0  0  0  0  0  0  0  0  0  0  0  0
    1.8577   -1.4464   -0.7511 C   0  0  0  0  0  0  0  0  0  0  0  0
    0.8634   -2.6003   -0.5756 C   0  0  0  0  0  0  0  0  0  0  0  0
    2.1033    0.9605    0.1245 C   0  0  0  0  0  0  0  0  0  0  0  0
    1.4241    2.1248    0.1478 C   0  0  0  0  0  0  0  0  0  0  0  0
   -1.4670   -2.7698    0.4563 C   0  0  0  0  0  0  0  0  0  0  0  0
    3.5992    0.9989   -0.0884 C   0  0  0  0  0  0  0  0  0  0  0  0
   -0.7636   -0.5159   -1.4200 H   0  0  0  0  0  0  0  0  0  0  0  0
   -0.8672    1.9215   -1.5720 H   0  0  0  0  0  0  0  0  0  0  0  0
   -0.2468   -0.2872    1.5966 H   0  0  0  0  0  0  0  0  0  0  0  0
    2.0347   -0.7929    1.2740 H   0  0  0  0  0  0  0  0  0  0  0  0
    0.3694   -2.5578    1.5063 H   0  0  0  0  0  0  0  0  0  0  0  0
   -0.2730    2.1371    1.4165 H   0  0  0  0  0  0  0  0  0  0  0  0
   -0.2889    3.3690    0.1859 H   0  0  0  0  0  0  0  0  0  0  0  0
   -3.8965    1.4828   -1.1775 H   0  0  0  0  0  0  0  0  0  0  0  0
   -2.8250    0.5492   -2.2316 H   0  0  0  0  0  0  0  0  0  0  0  0
   -1.9390    0.9222    2.0043 H   0  0  0  0  0  0  0  0  0  0  0  0
   -3.8317   -0.2874   -1.0410 H   0  0  0  0  0  0  0  0  0  0  0  0
   -3.2903   -0.0655    1.4570 H   0  0  0  0  0  0  0  0  0  0  0  0
   -3.3566    1.6983    1.3096 H   0  0  0  0  0  0  0  0  0  0  0  0
    2.8895   -1.8078   -0.6778 H   0  0  0  0  0  0  0  0  0  0  0  0
    1.7372   -1.0000   -1.7458 H   0  0  0  0  0  0  0  0  0  0  0  0
    0.3152   -2.7641   -1.5106 H   0  0  0  0  0  0  0  0  0  0  0  0
    1.3799   -3.5359   -0.3347 H   0  0  0  0  0  0  0  0  0  0  0  0
    1.9769    3.0511   -0.0012 H   0  0  0  0  0  0  0  0  0  0  0  0
   -1.9515   -2.5046   -0.4885 H   0  0  0  0  0  0  0  0  0  0  0  0
   -2.1005   -2.4178    1.2765 H   0  0  0  0  0  0  0  0  0  0  0  0
   -1.4261   -3.8630    0.5085 H   0  0  0  0  0  0  0  0  0  0  0  0
    4.1130    0.4853    0.7310 H   0  0  0  0  0  0  0  0  0  0  0  0
    3.9907    2.0211   -0.1279 H   0  0  0  0  0  0  0  0  0  0  0  0
    3.8662    0.5099   -1.0305 H   0  0  0  0  0  0  0  0  0  0  0  0
  1  2  1  0  0  0  0
  1  3  1  0  0  0  0
  1  4  1  0  0  0  0
  1 16  1  0  0  0  0
  2  3  1  0  0  0  0
  2  8  1  0  0  0  0
  2  9  1  0  0  0  0
  3  7  1  0  0  0  0
  3 17  1  0  0  0  0
  4  5  1  0  0  0  0
  4  6  1  0  0  0  0
  4 18  1  0  0  0  0
  5 10  1  0  0  0  0
  5 12  1  0  0  0  0
  5 19  1  0  0  0  0
  6 11  1  0  0  0  0
  6 14  1  0  0  0  0
  6 20  1  0  0  0  0
  7 13  1  0  0  0  0
  7 21  1  0  0  0  0
  7 22  1  0  0  0  0
  8 25  1  0  0  0  0
  8 27  1  0  0  0  0
  8 28  1  0  0  0  0
  9 23  1  0  0  0  0
  9 24  1  0  0  0  0
  9 26  1  0  0  0  0
 10 11  1  0  0  0  0
 10 29  1  0  0  0  0
 10 30  1  0  0  0  0
 11 31  1  0  0  0  0
 11 32  1  0  0  0  0
 12 13  2  0  0  0  0
 12 15  1  0  0  0  0
 13 33  1  0  0  0  0
 14 34  1  0  0  0  0
 14 35  1  0  0  0  0
 14 36  1  0  0  0  0
 15 37  1  0  0  0  0
 15 38  1  0  0  0  0
 15 39  1  0  0  0  0
M  END
> <PUBCHEM_COMPOUND_CID>
91746711

> <PUBCHEM_CONFORMER_RMSD>
0.4

> <PUBCHEM_CONFORMER_DIVERSEORDER>
1
6
4
5
2
3

> <PUBCHEM_MMFF94_PARTIAL_CHARGES>
14
1 -0.19
12 -0.28
13 -0.29
15 0.14
16 0.1
17 0.1
2 -0.19
3 -0.19
33 0.15
4 0.09
5 0.14
7 0.23
8 0.09
9 0.09

> <PUBCHEM_EFFECTIVE_ROTOR_COUNT>
1

> <PUBCHEM_PHARMACOPHORE_FEATURES>
3
3 2 8 9 hydrophobe
5 4 5 6 10 11 rings
7 1 3 4 5 7 12 13 rings

> <PUBCHEM_HEAVY_ATOM_COUNT>
15

> <PUBCHEM_ATOM_DEF_STEREO_COUNT>
3

> <PUBCHEM_ATOM_UDEF_STEREO_COUNT>
2

> <PUBCHEM_BOND_DEF_STEREO_COUNT>
0

> <PUBCHEM_BOND_UDEF_STEREO_COUNT>
0

> <PUBCHEM_ISOTOPIC_ATOM_COUNT>
0

> <PUBCHEM_COMPONENT_COUNT>
1

> <PUBCHEM_CACTVS_TAUTO_COUNT>
1

> <PUBCHEM_CONFORMER_ID>
0577F19700000001

> <PUBCHEM_MMFF94_ENERGY>
40.8585

> <PUBCHEM_FEATURE_SELFOVERLAP>
15.269

> <PUBCHEM_SHAPE_FINGERPRINT>
104564 63 17616830158933779179
10967382 1 18410856525301156722
11680611 10 17681246065575605736
12138202 97 18260544571390648566
12423570 1 17824283676316131761
12524768 44 18337111172440741549
13132413 78 16032399973241089205
13140716 1 18267303321191330888
13380535 76 18411129251698679726
14251711 518 17548411510344689423
14251717 144 18338505357922925165
15881359 60 17552059019752587374
16945 1 18339081484334792004
193761 8 17761490696182218336
20588541 1 18410577301077434132
20645476 183 17603874454979435652
20645477 70 18196637524622850213
20871998 184 18051416463497522484
21041028 32 17839757962452687688
21501502 16 17975702997629428640
21524375 3 18410001157079288582
22802520 49 18200612353340604990
2334 1 17978227493469819696
23419403 2 14864080568270123668
23552423 10 17978222760304953429
23557571 272 17909853246917495500
23559900 14 16254749107643920134
241688 4 17474949827088949144
25 1 18410855434442955564
257057 1 16965737370588199823
2748010 2 18051409862112033740
528886 8 18412819205286489000
63268167 104 18342734079258521953
7364860 26 18053938463835288084
81228 2 17687178007958398448

> <PUBCHEM_SHAPE_MULTIPOLES>
308.69
4.08
3.12
0.99
0.11
1.61
0.02
-1.64
0.46
0.26
-0.18
-0.54
0.01
0.4

> <PUBCHEM_SHAPE_SELFOVERLAP>
642.439

> <PUBCHEM_SHAPE_VOLUME>
171.4

> <PUBCHEM_COORDINATE_TYPE>
2
5
10

$$$$
