21578034
  -OEChem-09062010483D

 68 71  0     1  0  0  0  0  0999 V2000
    2.9047   -0.5309    1.2406 O   0  0  0  0  0  0  0  0  0  0  0  0
    0.2622   -1.2334   -1.2076 O   0  0  0  0  0  0  0  0  0  0  0  0
    2.2809   -3.3019   -1.7386 O   0  0  0  0  0  0  0  0  0  0  0  0
    3.6184   -4.0806    0.6924 O   0  0  0  0  0  0  0  0  0  0  0  0
    4.4047   -1.0095    3.4913 O   0  0  0  0  0  0  0  0  0  0  0  0
   -0.9646    0.6076    0.7234 O   0  0  0  0  0  0  0  0  0  0  0  0
    3.6670    1.4708    0.0488 O   0  0  0  0  0  0  0  0  0  0  0  0
    1.0735   -1.3633   -3.3633 O   0  0  0  0  0  0  0  0  0  0  0  0
    0.6165    5.0882   -0.2367 O   0  0  0  0  0  0  0  0  0  0  0  0
   -1.9177    4.5264    0.1456 O   0  0  0  0  0  0  0  0  0  0  0  0
   -6.0207   -2.9947    1.9030 O   0  0  0  0  0  0  0  0  0  0  0  0
    1.5973   -1.2284   -0.7027 C   0  0  2  0  0  0  0  0  0  0  0  0
    2.0498   -2.6735   -0.4764 C   0  0  2  0  0  0  0  0  0  0  0  0
    1.6231   -0.4321    0.6110 C   0  0  2  0  0  0  0  0  0  0  0  0
    3.3509   -2.7300    0.3238 C   0  0  1  0  0  0  0  0  0  0  0  0
    3.2491   -1.8730    1.5869 C   0  0  1  0  0  0  0  0  0  0  0  0
    1.3325    1.0391    0.3879 C   0  0  0  0  0  0  0  0  0  0  0  0
    4.5712   -1.8254    2.3460 C   0  0  0  0  0  0  0  0  0  0  0  0
    0.0243    1.5193    0.4532 C   0  0  0  0  0  0  0  0  0  0  0  0
    2.3812    1.9182    0.1161 C   0  0  0  0  0  0  0  0  0  0  0  0
    0.1449   -1.3050   -2.5675 C   0  0  0  0  0  0  0  0  0  0  0  0
   -0.2317    2.8738    0.2467 C   0  0  0  0  0  0  0  0  0  0  0  0
   -1.3233   -1.2711   -2.9568 C   0  0  1  0  0  0  0  0  0  0  0  0
    2.1228    3.2741   -0.0903 C   0  0  0  0  0  0  0  0  0  0  0  0
    0.8153    3.7572   -0.0259 C   0  0  0  0  0  0  0  0  0  0  0  0
   -1.6473   -0.0454   -3.8233 C   0  0  0  0  0  0  0  0  0  0  0  0
   -1.6205    3.3527    0.3194 C   0  0  0  0  0  0  0  0  0  0  0  0
   -2.2740    1.0572    0.8012 C   0  0  0  0  0  0  0  0  0  0  0  0
   -1.6541   -2.5637   -3.6976 C   0  0  0  0  0  0  0  0  0  0  0  0
   -2.6474    2.3332    0.6151 C   0  0  0  0  0  0  0  0  0  0  0  0
   -1.3498    1.2684   -3.1120 C   0  0  0  0  0  0  0  0  0  0  0  0
    4.6751    2.4387   -0.2339 C   0  0  0  0  0  0  0  0  0  0  0  0
   -3.2571   -0.0062    1.0903 C   0  0  0  0  0  0  0  0  0  0  0  0
   -4.2741   -0.2829    0.1766 C   0  0  0  0  0  0  0  0  0  0  0  0
   -3.1688   -0.7338    2.2770 C   0  0  0  0  0  0  0  0  0  0  0  0
   -5.2028   -1.2873    0.4496 C   0  0  0  0  0  0  0  0  0  0  0  0
   -4.0974   -1.7381    2.5502 C   0  0  0  0  0  0  0  0  0  0  0  0
   -5.1145   -2.0148    1.6365 C   0  0  0  0  0  0  0  0  0  0  0  0
    2.2775   -0.7440   -1.4178 H   0  0  0  0  0  0  0  0  0  0  0  0
    1.2604   -3.2546    0.0147 H   0  0  0  0  0  0  0  0  0  0  0  0
    0.8839   -0.8348    1.3161 H   0  0  0  0  0  0  0  0  0  0  0  0
    4.1844   -2.3905   -0.3032 H   0  0  0  0  0  0  0  0  0  0  0  0
    2.4816   -2.2649    2.2683 H   0  0  0  0  0  0  0  0  0  0  0  0
    5.3582   -1.3776    1.7297 H   0  0  0  0  0  0  0  0  0  0  0  0
    4.8865   -2.8225    2.6676 H   0  0  0  0  0  0  0  0  0  0  0  0
    2.9620   -2.7923   -2.2099 H   0  0  0  0  0  0  0  0  0  0  0  0
    2.8893   -4.3875    1.2581 H   0  0  0  0  0  0  0  0  0  0  0  0
   -1.9334   -1.2326   -2.0455 H   0  0  0  0  0  0  0  0  0  0  0  0
    2.8937    4.0069   -0.3056 H   0  0  0  0  0  0  0  0  0  0  0  0
    5.2587   -0.9890    3.9557 H   0  0  0  0  0  0  0  0  0  0  0  0
   -2.7071   -0.0648   -4.1046 H   0  0  0  0  0  0  0  0  0  0  0  0
   -1.0675   -0.0773   -4.7541 H   0  0  0  0  0  0  0  0  0  0  0  0
   -2.7198   -2.6088   -3.9446 H   0  0  0  0  0  0  0  0  0  0  0  0
   -1.4118   -3.4372   -3.0821 H   0  0  0  0  0  0  0  0  0  0  0  0
   -1.0848   -2.6498   -4.6298 H   0  0  0  0  0  0  0  0  0  0  0  0
   -3.6793    2.6603    0.6769 H   0  0  0  0  0  0  0  0  0  0  0  0
   -1.9395    1.3503   -2.1963 H   0  0  0  0  0  0  0  0  0  0  0  0
   -1.6151    2.1120   -3.7573 H   0  0  0  0  0  0  0  0  0  0  0  0
   -0.2900    1.3641   -2.8589 H   0  0  0  0  0  0  0  0  0  0  0  0
    4.7447    3.1933    0.5570 H   0  0  0  0  0  0  0  0  0  0  0  0
    5.6331    1.9084   -0.2497 H   0  0  0  0  0  0  0  0  0  0  0  0
    4.5431    2.8823   -1.2267 H   0  0  0  0  0  0  0  0  0  0  0  0
   -0.3255    5.3065   -0.1680 H   0  0  0  0  0  0  0  0  0  0  0  0
   -4.3554    0.2689   -0.7569 H   0  0  0  0  0  0  0  0  0  0  0  0
   -2.3829   -0.5293    3.0001 H   0  0  0  0  0  0  0  0  0  0  0  0
   -5.9918   -1.4993   -0.2668 H   0  0  0  0  0  0  0  0  0  0  0  0
   -4.0179   -2.2975    3.4785 H   0  0  0  0  0  0  0  0  0  0  0  0
   -5.8094   -3.3934    2.7647 H   0  0  0  0  0  0  0  0  0  0  0  0
  1 14  1  0  0  0  0
  1 16  1  0  0  0  0
  2 12  1  0  0  0  0
  2 21  1  0  0  0  0
  3 13  1  0  0  0  0
  3 46  1  0  0  0  0
  4 15  1  0  0  0  0
  4 47  1  0  0  0  0
  5 18  1  0  0  0  0
  5 50  1  0  0  0  0
  6 19  1  0  0  0  0
  6 28  1  0  0  0  0
  7 20  1  0  0  0  0
  7 32  1  0  0  0  0
  8 21  2  0  0  0  0
  9 25  1  0  0  0  0
  9 63  1  0  0  0  0
 10 27  2  0  0  0  0
 11 38  1  0  0  0  0
 11 68  1  0  0  0  0
 12 13  1  0  0  0  0
 12 14  1  0  0  0  0
 12 39  1  0  0  0  0
 13 15  1  0  0  0  0
 13 40  1  0  0  0  0
 14 17  1  0  0  0  0
 14 41  1  0  0  0  0
 15 16  1  0  0  0  0
 15 42  1  0  0  0  0
 16 18  1  0  0  0  0
 16 43  1  0  0  0  0
 17 19  1  0  0  0  0
 17 20  2  0  0  0  0
 18 44  1  0  0  0  0
 18 45  1  0  0  0  0
 19 22  2  0  0  0  0
 20 24  1  0  0  0  0
 21 23  1  0  0  0  0
 22 25  1  0  0  0  0
 22 27  1  0  0  0  0
 23 26  1  0  0  0  0
 23 29  1  0  0  0  0
 23 48  1  0  0  0  0
 24 25  2  0  0  0  0
 24 49  1  0  0  0  0
 26 31  1  0  0  0  0
 26 51  1  0  0  0  0
 26 52  1  0  0  0  0
 27 30  1  0  0  0  0
 28 30  2  0  0  0  0
 28 33  1  0  0  0  0
 29 53  1  0  0  0  0
 29 54  1  0  0  0  0
 29 55  1  0  0  0  0
 30 56  1  0  0  0  0
 31 57  1  0  0  0  0
 31 58  1  0  0  0  0
 31 59  1  0  0  0  0
 32 60  1  0  0  0  0
 32 61  1  0  0  0  0
 32 62  1  0  0  0  0
 33 34  2  0  0  0  0
 33 35  1  0  0  0  0
 34 36  1  0  0  0  0
 34 64  1  0  0  0  0
 35 37  2  0  0  0  0
 35 65  1  0  0  0  0
 36 38  2  0  0  0  0
 36 66  1  0  0  0  0
 37 38  1  0  0  0  0
 37 67  1  0  0  0  0
M  END
> <PUBCHEM_COMPOUND_CID>
21578034

> <PUBCHEM_CONFORMER_RMSD>
1

> <PUBCHEM_CONFORMER_DIVERSEORDER>
1
18
13
25
6
10
22
15
12
7
24
23
16
14
17
21
2
20
11
19
3
9
4
5
8

> <PUBCHEM_MMFF94_PARTIAL_CHARGES>
46
1 -0.56
10 -0.57
11 -0.53
12 0.28
13 0.28
14 0.42
15 0.28
16 0.28
17 -0.14
18 0.28
19 0.08
2 -0.43
20 0.08
21 0.66
22 0.09
23 0.06
24 -0.15
25 0.08
27 0.47
28 0.05
3 -0.68
30 -0.14
32 0.28
33 0.03
34 -0.15
35 -0.15
36 -0.15
37 -0.15
38 0.08
4 -0.68
46 0.4
47 0.4
49 0.15
5 -0.68
50 0.4
56 0.15
6 -0.16
63 0.45
64 0.15
65 0.15
66 0.15
67 0.15
68 0.45
7 -0.36
8 -0.57
9 -0.53

> <PUBCHEM_EFFECTIVE_ROTOR_COUNT>
9.2

> <PUBCHEM_PHARMACOPHORE_FEATURES>
19
1 1 acceptor
1 10 acceptor
1 11 donor
1 29 hydrophobe
1 3 acceptor
1 3 donor
1 31 hydrophobe
1 4 acceptor
1 4 donor
1 5 acceptor
1 5 donor
1 6 acceptor
1 7 acceptor
1 8 acceptor
1 9 donor
6 1 12 13 14 15 16 rings
6 17 19 20 22 24 25 rings
6 33 34 35 36 37 38 rings
6 6 19 22 27 28 30 rings

> <PUBCHEM_HEAVY_ATOM_COUNT>
38

> <PUBCHEM_ATOM_DEF_STEREO_COUNT>
5

> <PUBCHEM_ATOM_UDEF_STEREO_COUNT>
1

> <PUBCHEM_BOND_DEF_STEREO_COUNT>
0

> <PUBCHEM_BOND_UDEF_STEREO_COUNT>
0

> <PUBCHEM_ISOTOPIC_ATOM_COUNT>
0

> <PUBCHEM_COMPONENT_COUNT>
1

> <PUBCHEM_CACTVS_TAUTO_COUNT>
21

> <PUBCHEM_CONFORMER_ID>
0149413200000001

> <PUBCHEM_MMFF94_ENERGY>
114.9342

> <PUBCHEM_FEATURE_SELFOVERLAP>
96.496

> <PUBCHEM_SHAPE_FINGERPRINT>
11445158 3 17316199435168898276
11578080 2 16661200322664447660
12422481 6 17846212220172152235
12655387 17 18191042140520050779
14028597 1 16979530151242451003
140371 6 17409097893980027072
14840074 17 18059299884717825861
14856354 85 17688037410110352618
15297060 5 16054659315757998063
15324884 4 17627790812652471102
15484559 13 17619939556754367133
19319366 153 17837776990719067681
21133410 52 17910378821796578818
23419403 2 17750211721141335548
25222932 49 17977962498726223075
3380486 145 17701228396746526328
469060 322 18055317384571347062
484985 159 17173750767027782058
5265222 85 15958679200357722830
563151 248 17631180869168301124
613672 6 18337101281500896267
6287921 2 16915411873551242887
6669772 16 17694252222996637516

> <PUBCHEM_SHAPE_MULTIPOLES>
717.46
8.97
5.53
3.58
5.28
4.22
3.37
-6.86
-8.17
-2.72
-0.03
1.51
-3.33
-0.09

> <PUBCHEM_SHAPE_SELFOVERLAP>
1552.47

> <PUBCHEM_SHAPE_VOLUME>
389.8

> <PUBCHEM_COORDINATE_TYPE>
2
5
10

$$$$
