5316848
  -OEChem-09062007113D

 56 60  0     1  0  0  0  0  0999 V2000
   -0.8638   -0.3471    1.0417 O   0  0  0  0  0  0  0  0  0  0  0  0
    2.9575    1.3959   -0.5592 O   0  0  0  0  0  0  0  0  0  0  0  0
   -1.3155    0.9398    2.9005 O   0  0  0  0  0  0  0  0  0  0  0  0
    0.9553    2.4551   -0.9843 O   0  0  0  0  0  0  0  0  0  0  0  0
   -1.3272   -0.3410   -0.3367 C   0  0  1  0  0  0  0  0  0  0  0  0
   -0.3885   -1.9163   -1.4910 C   0  0  2  0  0  0  0  0  0  0  0  0
   -0.2259   -0.3641   -1.4378 C   0  0  2  0  0  0  0  0  0  0  0  0
   -1.7962   -1.7248   -0.8712 C   0  0  1  0  0  0  0  0  0  0  0  0
    0.6158   -2.7141   -0.6498 C   0  0  0  0  0  0  0  0  0  0  0  0
   -2.3043    0.7586   -0.4075 C   0  0  0  0  0  0  0  0  0  0  0  0
    1.1165    0.0810   -1.0583 C   0  0  0  0  0  0  0  0  0  0  0  0
   -2.2222   -2.7357    0.2074 C   0  0  0  0  0  0  0  0  0  0  0  0
    2.0468   -2.2333   -0.9296 C   0  0  0  0  0  0  0  0  0  0  0  0
    2.1391   -0.7426   -0.8583 C   0  0  0  0  0  0  0  0  0  0  0  0
   -2.3913    1.3431    0.7889 C   0  0  0  0  0  0  0  0  0  0  0  0
   -3.0932    1.1933   -1.5961 C   0  0  0  0  0  0  0  0  0  0  0  0
   -3.6405   -2.4701    0.7165 C   0  0  0  0  0  0  0  0  0  0  0  0
   -1.4848    0.6618    1.7272 C   0  0  0  0  0  0  0  0  0  0  0  0
    1.6214    1.4392   -0.8749 C   0  0  0  0  0  0  0  0  0  0  0  0
    3.2903    0.0404   -0.5539 C   0  0  0  0  0  0  0  0  0  0  0  0
   -3.9979    2.4232   -1.3308 C   0  0  0  0  0  0  0  0  0  0  0  0
   -3.2512    2.4494    1.0639 C   0  0  0  0  0  0  0  0  0  0  0  0
   -4.0058    2.9607    0.0799 C   0  0  0  0  0  0  0  0  0  0  0  0
   -4.0426   -3.4545    1.8030 C   0  0  0  0  0  0  0  0  0  0  0  0
    4.5324   -0.3804   -0.2979 C   0  0  0  0  0  0  0  0  0  0  0  0
    5.6818    0.5333    0.0134 C   0  0  0  0  0  0  0  0  0  0  0  0
    6.2322    0.2758    1.4165 C   0  0  0  0  0  0  0  0  0  0  0  0
    5.1616    0.4732    2.4785 C   0  0  0  0  0  0  0  0  0  0  0  0
   -0.4124   -2.3040   -2.5182 H   0  0  0  0  0  0  0  0  0  0  0  0
   -0.5330    0.1011   -2.3843 H   0  0  0  0  0  0  0  0  0  0  0  0
   -2.5604   -1.6677   -1.6598 H   0  0  0  0  0  0  0  0  0  0  0  0
    0.5270   -3.7852   -0.8627 H   0  0  0  0  0  0  0  0  0  0  0  0
    0.4452   -2.5850    0.4238 H   0  0  0  0  0  0  0  0  0  0  0  0
   -1.5407   -2.7422    1.0632 H   0  0  0  0  0  0  0  0  0  0  0  0
   -2.1922   -3.7434   -0.2262 H   0  0  0  0  0  0  0  0  0  0  0  0
    2.3650   -2.5626   -1.9260 H   0  0  0  0  0  0  0  0  0  0  0  0
    2.7144   -2.7038   -0.1990 H   0  0  0  0  0  0  0  0  0  0  0  0
   -2.4176    1.4326   -2.4250 H   0  0  0  0  0  0  0  0  0  0  0  0
   -3.7243    0.3644   -1.9371 H   0  0  0  0  0  0  0  0  0  0  0  0
   -4.3506   -2.5349   -0.1163 H   0  0  0  0  0  0  0  0  0  0  0  0
   -3.7158   -1.4536    1.1160 H   0  0  0  0  0  0  0  0  0  0  0  0
   -5.0280    2.1680   -1.6090 H   0  0  0  0  0  0  0  0  0  0  0  0
   -3.6938    3.2353   -2.0031 H   0  0  0  0  0  0  0  0  0  0  0  0
   -3.2833    2.8644    2.0645 H   0  0  0  0  0  0  0  0  0  0  0  0
   -4.6566    3.8041    0.2918 H   0  0  0  0  0  0  0  0  0  0  0  0
   -4.0121   -4.4834    1.4306 H   0  0  0  0  0  0  0  0  0  0  0  0
   -3.3735   -3.3807    2.6662 H   0  0  0  0  0  0  0  0  0  0  0  0
   -5.0614   -3.2466    2.1446 H   0  0  0  0  0  0  0  0  0  0  0  0
    4.7580   -1.4439   -0.3148 H   0  0  0  0  0  0  0  0  0  0  0  0
    6.4762    0.3564   -0.7213 H   0  0  0  0  0  0  0  0  0  0  0  0
    5.4024    1.5890   -0.0803 H   0  0  0  0  0  0  0  0  0  0  0  0
    7.0633    0.9650    1.6058 H   0  0  0  0  0  0  0  0  0  0  0  0
    6.6354   -0.7413    1.4889 H   0  0  0  0  0  0  0  0  0  0  0  0
    4.6984    1.4618    2.3957 H   0  0  0  0  0  0  0  0  0  0  0  0
    5.6094    0.3962    3.4749 H   0  0  0  0  0  0  0  0  0  0  0  0
    4.3763   -0.2863    2.4168 H   0  0  0  0  0  0  0  0  0  0  0  0
  1  5  1  0  0  0  0
  1 18  1  0  0  0  0
  2 19  1  0  0  0  0
  2 20  1  0  0  0  0
  3 18  2  0  0  0  0
  4 19  2  0  0  0  0
  5  7  1  0  0  0  0
  5  8  1  0  0  0  0
  5 10  1  0  0  0  0
  6  7  1  0  0  0  0
  6  8  1  0  0  0  0
  6  9  1  0  0  0  0
  6 29  1  0  0  0  0
  7 11  1  0  0  0  0
  7 30  1  0  0  0  0
  8 12  1  0  0  0  0
  8 31  1  0  0  0  0
  9 13  1  0  0  0  0
  9 32  1  0  0  0  0
  9 33  1  0  0  0  0
 10 15  2  0  0  0  0
 10 16  1  0  0  0  0
 11 14  2  0  0  0  0
 11 19  1  0  0  0  0
 12 17  1  0  0  0  0
 12 34  1  0  0  0  0
 12 35  1  0  0  0  0
 13 14  1  0  0  0  0
 13 36  1  0  0  0  0
 13 37  1  0  0  0  0
 14 20  1  0  0  0  0
 15 18  1  0  0  0  0
 15 22  1  0  0  0  0
 16 21  1  0  0  0  0
 16 38  1  0  0  0  0
 16 39  1  0  0  0  0
 17 24  1  0  0  0  0
 17 40  1  0  0  0  0
 17 41  1  0  0  0  0
 20 25  2  0  0  0  0
 21 23  1  0  0  0  0
 21 42  1  0  0  0  0
 21 43  1  0  0  0  0
 22 23  2  0  0  0  0
 22 44  1  0  0  0  0
 23 45  1  0  0  0  0
 24 46  1  0  0  0  0
 24 47  1  0  0  0  0
 24 48  1  0  0  0  0
 25 26  1  0  0  0  0
 25 49  1  0  0  0  0
 26 27  1  0  0  0  0
 26 50  1  0  0  0  0
 26 51  1  0  0  0  0
 27 28  1  0  0  0  0
 27 52  1  0  0  0  0
 27 53  1  0  0  0  0
 28 54  1  0  0  0  0
 28 55  1  0  0  0  0
 28 56  1  0  0  0  0
M  END
> <PUBCHEM_COMPOUND_CID>
5316848

> <PUBCHEM_CONFORMER_RMSD>
0.8

> <PUBCHEM_CONFORMER_DIVERSEORDER>
2
1
15
9
7
8
21
25
11
19
24
23
20
22
16
34
3
28
6
5
13
33
36
14
35
4
12
27
37
31
26
10
30
29
18
17
32

> <PUBCHEM_MMFF94_PARTIAL_CHARGES>
23
1 -0.41
10 -0.25
11 -0.1
13 0.14
14 -0.14
15 0.01
16 0.14
18 0.71
19 0.71
2 -0.23
20 0.08
21 0.14
22 -0.15
23 -0.29
25 -0.29
26 0.14
3 -0.57
4 -0.57
44 0.15
45 0.15
49 0.15
5 0.37
7 0.12

> <PUBCHEM_EFFECTIVE_ROTOR_COUNT>
5.4

> <PUBCHEM_PHARMACOPHORE_FEATURES>
9
1 24 hydrophobe
1 28 hydrophobe
1 3 acceptor
1 4 acceptor
4 5 6 7 8 rings
5 1 5 10 15 18 rings
5 2 11 14 19 20 rings
6 10 15 16 21 22 23 rings
6 6 7 9 11 13 14 rings

> <PUBCHEM_HEAVY_ATOM_COUNT>
28

> <PUBCHEM_ATOM_DEF_STEREO_COUNT>
0

> <PUBCHEM_ATOM_UDEF_STEREO_COUNT>
4

> <PUBCHEM_BOND_DEF_STEREO_COUNT>
1

> <PUBCHEM_BOND_UDEF_STEREO_COUNT>
0

> <PUBCHEM_ISOTOPIC_ATOM_COUNT>
0

> <PUBCHEM_COMPONENT_COUNT>
1

> <PUBCHEM_CACTVS_TAUTO_COUNT>
1

> <PUBCHEM_CONFORMER_ID>
005120F000000002

> <PUBCHEM_MMFF94_ENERGY>
42.0617

> <PUBCHEM_FEATURE_SELFOVERLAP>
46.214

> <PUBCHEM_SHAPE_FINGERPRINT>
11370993 70 18130499752285460892
11582403 64 16806433709907700693
11640471 11 17559125271836550149
12403259 327 17023485065609280776
12422481 6 18195277536024023811
12633257 1 17748829588107966244
12788726 201 18117574030754116115
12930653 34 18411987952921307934
13004483 165 18046075019088887171
13140716 1 18409735083924341300
13540713 4 18199766777038043310
13583140 156 17917987291904563714
14142880 1 18412818084167993910
14178342 30 18409737257098379214
14223421 5 18268170762793296671
15131766 46 14548174449908714178
15420108 30 14963086779955741563
21033648 29 17917981794293638800
22182313 1 18129680637450178414
23419403 2 14906177634693111711
2838139 119 15410894068342163130
350125 39 18267317597330079508
3886686 26 18117269259954531050
392239 28 17560518533842652122
4340502 62 18055098492496692673
469060 322 18267602358094032307
474 4 17911805674123937943
5104073 3 18409158906083389730
9981440 41 18130216078053652471

> <PUBCHEM_SHAPE_MULTIPOLES>
552.75
10.13
3.56
2.03
14.64
1.43
-1.25
-3.03
-4.38
-5.54
-0.3
-0.01
-0.12
1.63

> <PUBCHEM_SHAPE_SELFOVERLAP>
1208.684

> <PUBCHEM_SHAPE_VOLUME>
304.2

> <PUBCHEM_COORDINATE_TYPE>
2
5
10

$$$$
