129712240
  -OEChem-11202009353D

 48 49  0     1  0  0  0  0  0999 V2000
   -1.8234    1.5542   -0.7848 O   0  0  0  0  0  0  0  0  0  0  0  0
   -4.9250   -0.9103    0.4299 O   0  0  0  0  0  0  0  0  0  0  0  0
   -0.7138   -0.2943    0.2168 O   0  0  0  0  0  0  0  0  0  0  0  0
   -4.3642    1.5768    1.8699 O   0  0  0  0  0  0  0  0  0  0  0  0
   -3.6517   -0.3317   -1.9452 O   0  0  0  0  0  0  0  0  0  0  0  0
   -0.8914   -0.1557   -2.0938 O   0  0  0  0  0  0  0  0  0  0  0  0
    5.5410   -0.2370    0.6025 O   0  0  0  0  0  0  0  0  0  0  0  0
    7.5709   -0.0805   -0.4721 O   0  0  0  0  0  0  0  0  0  0  0  0
    7.4445   -0.3434    1.8087 N   0  0  0  0  0  0  0  0  0  0  0  0
   -3.6554   -0.2642    0.4754 C   0  0  2  0  0  0  0  0  0  0  0  0
   -3.8329    1.2516    0.5874 C   0  0  2  0  0  0  0  0  0  0  0  0
   -2.8681   -0.6307   -0.7850 C   0  0  2  0  0  0  0  0  0  0  0  0
   -2.4838    1.9620    0.4174 C   0  0  2  0  0  0  0  0  0  0  0  0
   -1.5424    0.1500   -0.8578 C   0  0  2  0  0  0  0  0  0  0  0  0
   -2.6573    3.4768    0.3474 C   0  0  0  0  0  0  0  0  0  0  0  0
   -4.8205   -2.2815    0.7821 C   0  0  0  0  0  0  0  0  0  0  0  0
    0.6377   -0.2488    0.0079 C   0  0  0  0  0  0  0  0  0  0  0  0
   -6.1944   -2.9136    0.7165 C   0  0  0  0  0  0  0  0  0  0  0  0
    1.3933   -1.4195    0.0738 C   0  0  0  0  0  0  0  0  0  0  0  0
    1.2600    0.9683   -0.2700 C   0  0  0  0  0  0  0  0  0  0  0  0
    2.7711   -1.3730   -0.1382 C   0  0  0  0  0  0  0  0  0  0  0  0
    2.6378    1.0147   -0.4820 C   0  0  0  0  0  0  0  0  0  0  0  0
    3.3934   -0.1559   -0.4162 C   0  0  0  0  0  0  0  0  0  0  0  0
    4.8663   -0.1056   -0.6427 C   0  0  0  0  0  0  0  0  0  0  0  0
    6.9083   -0.2086    0.5519 C   0  0  0  0  0  0  0  0  0  0  0  0
   -3.1151   -0.6075    1.3688 H   0  0  0  0  0  0  0  0  0  0  0  0
   -4.5571    1.5970   -0.1594 H   0  0  0  0  0  0  0  0  0  0  0  0
   -2.6558   -1.7030   -0.8269 H   0  0  0  0  0  0  0  0  0  0  0  0
   -1.8301    1.7506    1.2735 H   0  0  0  0  0  0  0  0  0  0  0  0
   -3.2762    3.7597   -0.5112 H   0  0  0  0  0  0  0  0  0  0  0  0
   -1.6861    3.9640    0.2075 H   0  0  0  0  0  0  0  0  0  0  0  0
   -3.1159    3.8743    1.2576 H   0  0  0  0  0  0  0  0  0  0  0  0
   -3.7335    1.2717    2.5442 H   0  0  0  0  0  0  0  0  0  0  0  0
   -3.6900    0.6346   -2.0428 H   0  0  0  0  0  0  0  0  0  0  0  0
   -0.3456    0.6137   -2.3268 H   0  0  0  0  0  0  0  0  0  0  0  0
   -4.1608   -2.8210    0.0972 H   0  0  0  0  0  0  0  0  0  0  0  0
   -4.4286   -2.3762    1.8012 H   0  0  0  0  0  0  0  0  0  0  0  0
   -6.1523   -3.9716    0.9901 H   0  0  0  0  0  0  0  0  0  0  0  0
   -6.6112   -2.8260   -0.2923 H   0  0  0  0  0  0  0  0  0  0  0  0
   -6.8872   -2.4015    1.3926 H   0  0  0  0  0  0  0  0  0  0  0  0
    0.9135   -2.3702    0.2897 H   0  0  0  0  0  0  0  0  0  0  0  0
    0.6945    1.8943   -0.3084 H   0  0  0  0  0  0  0  0  0  0  0  0
    3.3501   -2.2912   -0.0839 H   0  0  0  0  0  0  0  0  0  0  0  0
    3.1098    1.9708   -0.6919 H   0  0  0  0  0  0  0  0  0  0  0  0
    5.1628   -0.9202   -1.3157 H   0  0  0  0  0  0  0  0  0  0  0  0
    5.1536    0.8410   -1.1173 H   0  0  0  0  0  0  0  0  0  0  0  0
    8.4479   -0.3437    1.9578 H   0  0  0  0  0  0  0  0  0  0  0  0
    6.8536   -0.4467    2.6268 H   0  0  0  0  0  0  0  0  0  0  0  0
  1 13  1  0  0  0  0
  1 14  1  0  0  0  0
  2 10  1  0  0  0  0
  2 16  1  0  0  0  0
  3 14  1  0  0  0  0
  3 17  1  0  0  0  0
  4 11  1  0  0  0  0
  4 33  1  0  0  0  0
  5 12  1  0  0  0  0
  5 34  1  0  0  0  0
  6 14  1  0  0  0  0
  6 35  1  0  0  0  0
  7 24  1  0  0  0  0
  7 25  1  0  0  0  0
  8 25  2  0  0  0  0
  9 25  1  0  0  0  0
  9 47  1  0  0  0  0
  9 48  1  0  0  0  0
 10 11  1  0  0  0  0
 10 12  1  0  0  0  0
 10 26  1  0  0  0  0
 11 13  1  0  0  0  0
 11 27  1  0  0  0  0
 12 14  1  0  0  0  0
 12 28  1  0  0  0  0
 13 15  1  0  0  0  0
 13 29  1  0  0  0  0
 15 30  1  0  0  0  0
 15 31  1  0  0  0  0
 15 32  1  0  0  0  0
 16 18  1  0  0  0  0
 16 36  1  0  0  0  0
 16 37  1  0  0  0  0
 17 19  2  0  0  0  0
 17 20  1  0  0  0  0
 18 38  1  0  0  0  0
 18 39  1  0  0  0  0
 18 40  1  0  0  0  0
 19 21  1  0  0  0  0
 19 41  1  0  0  0  0
 20 22  2  0  0  0  0
 20 42  1  0  0  0  0
 21 23  2  0  0  0  0
 21 43  1  0  0  0  0
 22 23  1  0  0  0  0
 22 44  1  0  0  0  0
 23 24  1  0  0  0  0
 24 45  1  0  0  0  0
 24 46  1  0  0  0  0
M  END
> <PUBCHEM_COMPOUND_CID>
129712240

> <PUBCHEM_CONFORMER_RMSD>
0.8

> <PUBCHEM_CONFORMER_DIVERSEORDER>
1
155
10
125
193
89
150
4
100
147
207
208
53
190
179
148
117
73
197
56
154
41
72
62
129
71
99
119
191
31
202
110
183
194
38
14
2
50
167
187
214
106
42
77
186
64
105
145
101
57
24
65
180
80
96
67
158
188
135
69
137
66
139
39
103
210
107
97
49
189
114
9
185
206
21
182
16
160
48
27
23
7
87
59
61
176
86
45
113
88
126
211
51
92
165
152
25
177
6
55
74
19
181
33
44
18
76
102
37
128
63
131
17
200
109
98
170
28
115
120
209
205
58
93
68
146
173
134
161
83
168
46
29
112
91
11
215
54
85
174
95
90
142
3
116
124
75
204
26
144
212
60
169
198
84
13
78
127
172
43
30
201
213
108
138
171
8
123
104
15
136
140
175
34
151
40
153
195
118
132
22
192
156
94
12
32
166
133
141
79
52
130
122
159
157
149
184
143
70
20
162
178
47
36
82
5
81
35
111
203
163
199
196
121
164

> <PUBCHEM_MMFF94_PARTIAL_CHARGES>
32
1 -0.56
10 0.28
11 0.28
12 0.28
13 0.28
14 0.84
16 0.28
17 0.08
19 -0.15
2 -0.56
20 -0.15
21 -0.15
22 -0.15
23 -0.14
24 0.42
25 0.78
3 -0.36
33 0.4
34 0.4
35 0.4
4 -0.68
41 0.15
42 0.15
43 0.15
44 0.15
47 0.37
48 0.37
5 -0.68
6 -0.68
7 -0.43
8 -0.57
9 -0.8

> <PUBCHEM_EFFECTIVE_ROTOR_COUNT>
8.2

> <PUBCHEM_PHARMACOPHORE_FEATURES>
13
1 1 acceptor
1 2 acceptor
1 3 acceptor
1 4 acceptor
1 4 donor
1 5 acceptor
1 5 donor
1 6 acceptor
1 6 donor
1 8 acceptor
1 9 donor
6 1 10 11 12 13 14 rings
6 17 19 20 21 22 23 rings

> <PUBCHEM_HEAVY_ATOM_COUNT>
25

> <PUBCHEM_ATOM_DEF_STEREO_COUNT>
5

> <PUBCHEM_ATOM_UDEF_STEREO_COUNT>
0

> <PUBCHEM_BOND_DEF_STEREO_COUNT>
0

> <PUBCHEM_BOND_UDEF_STEREO_COUNT>
0

> <PUBCHEM_ISOTOPIC_ATOM_COUNT>
0

> <PUBCHEM_COMPONENT_COUNT>
1

> <PUBCHEM_CACTVS_TAUTO_COUNT>
2

> <PUBCHEM_CONFORMER_ID>
07BB407000000001

> <PUBCHEM_MMFF94_ENERGY>
72.6429

> <PUBCHEM_FEATURE_SELFOVERLAP>
66.117

> <PUBCHEM_SHAPE_FINGERPRINT>
10 15 18060416941529294138
11315181 36 18113900472153121221
12091667 2 17918270952808638046
12166972 35 17458627864880101892
12596602 18 18186515527762082352
13073987 5 18339640049854903250
13631057 29 18261109703530627011
13782708 43 16153984635414884690
13862211 1 17749387075126620642
14849402 71 18267870656850271272
15716309 27 17167864149645028194
1768 4 16988272201566724944
17780758 139 18408041814600212587
19377110 9 18260548896760378002
20645477 56 17346874533793301796
21130935 74 18409446952339302114
21267235 1 18337398226548600670
21315759 40 17748828527567457806
23402539 116 15357695271441405430
23522609 53 17606148159221965500
23559900 14 18408316705571731329
392239 28 18335433386548276889
5104073 3 18200033932735921458
6328613 192 11384113064057020346
9996256 80 18335423465516765914

> <PUBCHEM_SHAPE_MULTIPOLES>
462.55
16.76
2.45
1.31
26.99
0.84
-0.15
-7.05
6.23
-5.52
0.75
-0.34
0.05
-0.22

> <PUBCHEM_SHAPE_SELFOVERLAP>
960.31

> <PUBCHEM_SHAPE_VOLUME>
260.6

> <PUBCHEM_COORDINATE_TYPE>
2
5
10

$$$$
