44559760
  -OEChem-11202008333D

 53 54  0     1  0  0  0  0  0999 V2000
    7.6524    1.3244    1.6232 S   0  0  0  0  0  0  0  0  0  0  0  0
   -2.1605   -0.8002    0.6214 O   0  0  0  0  0  0  0  0  0  0  0  0
   -5.5653   -0.5136   -0.7621 O   0  0  0  0  0  0  0  0  0  0  0  0
   -5.4324    1.7184    1.0119 O   0  0  0  0  0  0  0  0  0  0  0  0
   -1.3890    1.1821   -0.4304 O   0  0  0  0  0  0  0  0  0  0  0  0
   -3.3242    0.8935    2.6306 O   0  0  0  0  0  0  0  0  0  0  0  0
   -6.9050   -1.5665    0.7979 O   0  0  0  0  0  0  0  0  0  0  0  0
    7.3801   -1.1613    0.9112 O   0  0  0  0  0  0  0  0  0  0  0  0
    4.9231    0.4883   -0.2927 N   0  0  0  0  0  0  0  0  0  0  0  0
   -4.5327   -0.3683    0.2097 C   0  0  2  0  0  0  0  0  0  0  0  0
   -4.2804    1.1257    0.4165 C   0  0  2  0  0  0  0  0  0  0  0  0
   -3.0575    1.3566    1.3059 C   0  0  2  0  0  0  0  0  0  0  0  0
   -3.2488   -1.0582   -0.2717 C   0  0  2  0  0  0  0  0  0  0  0  0
   -1.8472    0.5878    0.7791 C   0  0  1  0  0  0  0  0  0  0  0  0
   -3.4097   -2.5738   -0.3520 C   0  0  0  0  0  0  0  0  0  0  0  0
   -0.0467    1.0963   -0.6888 C   0  0  0  0  0  0  0  0  0  0  0  0
   -6.7022   -1.1342   -0.3287 C   0  0  0  0  0  0  0  0  0  0  0  0
    0.5623   -0.1532   -0.8059 C   0  0  0  0  0  0  0  0  0  0  0  0
    0.7116    2.2581   -0.8336 C   0  0  0  0  0  0  0  0  0  0  0  0
   -7.6932   -1.2162   -1.4500 C   0  0  0  0  0  0  0  0  0  0  0  0
    1.9295   -0.2407   -1.0680 C   0  0  0  0  0  0  0  0  0  0  0  0
    2.0787    2.1705   -1.0957 C   0  0  0  0  0  0  0  0  0  0  0  0
    2.6877    0.9211   -1.2131 C   0  0  0  0  0  0  0  0  0  0  0  0
    4.1493    0.8281   -1.4931 C   0  0  0  0  0  0  0  0  0  0  0  0
    6.1871    0.4559   -0.4791 C   0  0  0  0  0  0  0  0  0  0  0  0
    7.0600    0.1084    0.6767 C   0  0  0  0  0  0  0  0  0  0  0  0
    6.8814   -2.1949    0.0467 C   0  0  0  0  0  0  0  0  0  0  0  0
    7.3916   -3.5342    0.5341 C   0  0  0  0  0  0  0  0  0  0  0  0
   -4.8166   -0.7961    1.1801 H   0  0  0  0  0  0  0  0  0  0  0  0
   -4.1398    1.6113   -0.5573 H   0  0  0  0  0  0  0  0  0  0  0  0
   -2.8509    2.4312    1.3679 H   0  0  0  0  0  0  0  0  0  0  0  0
   -2.9820   -0.7032   -1.2756 H   0  0  0  0  0  0  0  0  0  0  0  0
   -1.0543    0.6364    1.5379 H   0  0  0  0  0  0  0  0  0  0  0  0
   -4.1915   -2.8592   -1.0619 H   0  0  0  0  0  0  0  0  0  0  0  0
   -2.4694   -3.0401   -0.6662 H   0  0  0  0  0  0  0  0  0  0  0  0
   -3.6557   -2.9931    0.6297 H   0  0  0  0  0  0  0  0  0  0  0  0
   -5.2429    2.6639    1.1369 H   0  0  0  0  0  0  0  0  0  0  0  0
   -2.5505    1.1089    3.1787 H   0  0  0  0  0  0  0  0  0  0  0  0
   -0.0100   -1.0709   -0.7145 H   0  0  0  0  0  0  0  0  0  0  0  0
    0.2423    3.2339   -0.7422 H   0  0  0  0  0  0  0  0  0  0  0  0
   -7.9550   -0.2101   -1.7872 H   0  0  0  0  0  0  0  0  0  0  0  0
   -8.6013   -1.7125   -1.0960 H   0  0  0  0  0  0  0  0  0  0  0  0
   -7.2741   -1.8016   -2.2722 H   0  0  0  0  0  0  0  0  0  0  0  0
    2.3929   -1.2195   -1.1603 H   0  0  0  0  0  0  0  0  0  0  0  0
    2.6571    3.0842   -1.2036 H   0  0  0  0  0  0  0  0  0  0  0  0
    4.5083    1.7776   -1.9128 H   0  0  0  0  0  0  0  0  0  0  0  0
    4.3121    0.0679   -2.2694 H   0  0  0  0  0  0  0  0  0  0  0  0
    6.7044    0.6471   -1.4346 H   0  0  0  0  0  0  0  0  0  0  0  0
    7.2318   -2.0174   -0.9759 H   0  0  0  0  0  0  0  0  0  0  0  0
    5.7864   -2.1956    0.0687 H   0  0  0  0  0  0  0  0  0  0  0  0
    7.0295   -4.3461   -0.1027 H   0  0  0  0  0  0  0  0  0  0  0  0
    7.0660   -3.7193    1.5630 H   0  0  0  0  0  0  0  0  0  0  0  0
    8.4865   -3.5503    0.5396 H   0  0  0  0  0  0  0  0  0  0  0  0
  1 26  2  0  0  0  0
  2 13  1  0  0  0  0
  2 14  1  0  0  0  0
  3 10  1  0  0  0  0
  3 17  1  0  0  0  0
  4 11  1  0  0  0  0
  4 37  1  0  0  0  0
  5 14  1  0  0  0  0
  5 16  1  0  0  0  0
  6 12  1  0  0  0  0
  6 38  1  0  0  0  0
  7 17  2  0  0  0  0
  8 26  1  0  0  0  0
  8 27  1  0  0  0  0
  9 24  1  0  0  0  0
  9 25  2  0  0  0  0
 10 11  1  0  0  0  0
 10 13  1  0  0  0  0
 10 29  1  0  0  0  0
 11 12  1  0  0  0  0
 11 30  1  0  0  0  0
 12 14  1  0  0  0  0
 12 31  1  0  0  0  0
 13 15  1  0  0  0  0
 13 32  1  0  0  0  0
 14 33  1  0  0  0  0
 15 34  1  0  0  0  0
 15 35  1  0  0  0  0
 15 36  1  0  0  0  0
 16 18  2  0  0  0  0
 16 19  1  0  0  0  0
 17 20  1  0  0  0  0
 18 21  1  0  0  0  0
 18 39  1  0  0  0  0
 19 22  2  0  0  0  0
 19 40  1  0  0  0  0
 20 41  1  0  0  0  0
 20 42  1  0  0  0  0
 20 43  1  0  0  0  0
 21 23  2  0  0  0  0
 21 44  1  0  0  0  0
 22 23  1  0  0  0  0
 22 45  1  0  0  0  0
 23 24  1  0  0  0  0
 24 46  1  0  0  0  0
 24 47  1  0  0  0  0
 25 26  1  0  0  0  0
 25 48  1  0  0  0  0
 27 28  1  0  0  0  0
 27 49  1  0  0  0  0
 27 50  1  0  0  0  0
 28 51  1  0  0  0  0
 28 52  1  0  0  0  0
 28 53  1  0  0  0  0
M  END
> <PUBCHEM_COMPOUND_CID>
44559760

> <PUBCHEM_CONFORMER_RMSD>
1

> <PUBCHEM_CONFORMER_DIVERSEORDER>
1
30
84
68
78
43
41
72
63
32
51
81
18
86
98
3
104
50
85
111
83
64
65
79
46
62
89
38
103
8
26
92
96
36
70
57
52
73
31
56
34
48
47
28
75
61
109
67
59
94
14
77
6
82
45
100
66
60
74
17
69
44
16
102
54
76
90
11
106
42
27
9
93
88
33
22
10
107
24
105
23
101
97
4
108
19
55
12
39
91
37
5
53
80
99
40
7
110
58
13
71
15
87
35
20
2
21
25
29
49
95

> <PUBCHEM_MMFF94_PARTIAL_CHARGES>
33
1 -0.38
10 0.28
11 0.28
12 0.28
13 0.28
14 0.56
16 0.08
17 0.66
18 -0.15
19 -0.15
2 -0.56
20 0.06
21 -0.15
22 -0.15
23 -0.14
24 0.39
25 0.39
26 0.53
27 0.28
3 -0.43
37 0.4
38 0.4
39 0.15
4 -0.68
40 0.15
44 0.15
45 0.15
48 0.06
5 -0.36
6 -0.68
7 -0.57
8 -0.43
9 -0.7

> <PUBCHEM_EFFECTIVE_ROTOR_COUNT>
10.2

> <PUBCHEM_PHARMACOPHORE_FEATURES>
11
1 1 acceptor
1 2 acceptor
1 4 acceptor
1 4 donor
1 5 acceptor
1 6 acceptor
1 6 donor
1 7 acceptor
1 9 acceptor
6 16 18 19 21 22 23 rings
6 2 10 11 12 13 14 rings

> <PUBCHEM_HEAVY_ATOM_COUNT>
28

> <PUBCHEM_ATOM_DEF_STEREO_COUNT>
5

> <PUBCHEM_ATOM_UDEF_STEREO_COUNT>
0

> <PUBCHEM_BOND_DEF_STEREO_COUNT>
0

> <PUBCHEM_BOND_UDEF_STEREO_COUNT>
0

> <PUBCHEM_ISOTOPIC_ATOM_COUNT>
0

> <PUBCHEM_COMPONENT_COUNT>
1

> <PUBCHEM_CACTVS_TAUTO_COUNT>
1

> <PUBCHEM_CONFORMER_ID>
02A7ED9000000001

> <PUBCHEM_MMFF94_ENERGY>
81.5241

> <PUBCHEM_FEATURE_SELFOVERLAP>
55.873

> <PUBCHEM_SHAPE_FINGERPRINT>
10 15 17132113576597563156
10554248 39 17386015004532166548
106641 1 14620797141398989509
11796584 16 16009033929817673192
12596602 18 18131068234778985970
13533116 47 18259708879221058860
13668630 136 17675925412638919466
13782708 43 16371590217800670481
13914758 101 17967811630957271085
14251764 18 18411141363612118532
15183329 4 14273728552007426004
15188451 53 18272932738973218748
1768 124 18411418385246092774
20567600 234 16988843908647719072
21033648 29 15482396343745018088
21130935 74 18412826855087531794
21521721 280 11239994556012960676
22224240 67 17203611518715806926
23081809 10 18261126174535236460
23198884 109 15213014981902544909
23559900 14 18055353793716205025
3014063 24 18335138674904333278
312425 54 18342459219269562034
3383291 50 18261117408623277083
3663271 9 18202565060611887784
3711267 37 8358266959610837438
5085150 59 18202847664506400551
5104073 3 16701195070434538742
559249 180 18408606959498362373
5758199 1 11743840269919447724
59682541 35 16128372730893180367
59755656 215 15068614989907490784
9689198 14 10087640424848840740

> <PUBCHEM_SHAPE_MULTIPOLES>
534.01
24.37
2.66
1.53
16.29
1.77
-0.47
13.67
-5.26
2.96
-0.13
-0.08
-0.6
-1.84

> <PUBCHEM_SHAPE_SELFOVERLAP>
1087.05

> <PUBCHEM_SHAPE_VOLUME>
310.9

> <PUBCHEM_COORDINATE_TYPE>
2
5
10

$$$$
