44445003
  -OEChem-11202008493D

 24 25  0     1  0  0  0  0  0999 V2000
   -1.8234    1.1799   -0.1701 O   0  0  0  0  0  0  0  0  0  0  0  0
   -1.7600   -1.3855   -1.6160 O   0  0  0  0  0  0  0  0  0  0  0  0
    2.3183    1.8546    0.0770 O   0  0  0  0  0  0  0  0  0  0  0  0
   -0.0921    2.5918   -0.5183 O   0  0  0  0  0  0  0  0  0  0  0  0
   -1.5017   -1.2483   -0.2207 C   0  0  2  0  0  0  0  0  0  0  0  0
   -2.3124   -0.0843    0.3428 C   0  0  1  0  0  0  0  0  0  0  0  0
   -0.0377   -0.9826   -0.0543 C   0  0  0  0  0  0  0  0  0  0  0  0
    0.4361    0.3339   -0.0686 C   0  0  0  0  0  0  0  0  0  0  0  0
   -2.3379   -0.0318    1.8683 C   0  0  0  0  0  0  0  0  0  0  0  0
   -0.4986    1.4652   -0.2643 C   0  0  0  0  0  0  0  0  0  0  0  0
    0.8710   -2.0384    0.0916 C   0  0  0  0  0  0  0  0  0  0  0  0
    1.8045    0.5920    0.0713 C   0  0  0  0  0  0  0  0  0  0  0  0
    2.2341   -1.7800    0.2349 C   0  0  0  0  0  0  0  0  0  0  0  0
    2.6996   -0.4667    0.2264 C   0  0  0  0  0  0  0  0  0  0  0  0
   -1.7892   -2.1852    0.2703 H   0  0  0  0  0  0  0  0  0  0  0  0
   -3.3462   -0.1644   -0.0140 H   0  0  0  0  0  0  0  0  0  0  0  0
   -1.3408    0.1260    2.2917 H   0  0  0  0  0  0  0  0  0  0  0  0
   -2.7521   -0.9541    2.2868 H   0  0  0  0  0  0  0  0  0  0  0  0
   -2.9531    0.8097    2.2050 H   0  0  0  0  0  0  0  0  0  0  0  0
    0.5216   -3.0677    0.0959 H   0  0  0  0  0  0  0  0  0  0  0  0
    2.9330   -2.6031    0.3517 H   0  0  0  0  0  0  0  0  0  0  0  0
   -2.7081   -1.5741   -1.7211 H   0  0  0  0  0  0  0  0  0  0  0  0
    3.7635   -0.2751    0.3395 H   0  0  0  0  0  0  0  0  0  0  0  0
    1.6052    2.5111    0.1032 H   0  0  0  0  0  0  0  0  0  0  0  0
  1  6  1  0  0  0  0
  1 10  1  0  0  0  0
  2  5  1  0  0  0  0
  2 22  1  0  0  0  0
  3 12  1  0  0  0  0
  3 24  1  0  0  0  0
  4 10  2  0  0  0  0
  5  6  1  0  0  0  0
  5  7  1  0  0  0  0
  5 15  1  0  0  0  0
  6  9  1  0  0  0  0
  6 16  1  0  0  0  0
  7  8  2  0  0  0  0
  7 11  1  0  0  0  0
  8 10  1  0  0  0  0
  8 12  1  0  0  0  0
  9 17  1  0  0  0  0
  9 18  1  0  0  0  0
  9 19  1  0  0  0  0
 11 13  2  0  0  0  0
 11 20  1  0  0  0  0
 12 14  2  0  0  0  0
 13 14  1  0  0  0  0
 13 21  1  0  0  0  0
 14 23  1  0  0  0  0
M  END
> <PUBCHEM_COMPOUND_CID>
44445003

> <PUBCHEM_CONFORMER_RMSD>
0.4

> <PUBCHEM_CONFORMER_DIVERSEORDER>
1
4
3
2

> <PUBCHEM_MMFF94_PARTIAL_CHARGES>
18
1 -0.43
10 0.63
11 -0.15
12 0.08
13 -0.15
14 -0.15
2 -0.68
20 0.15
21 0.15
22 0.4
23 0.15
24 0.45
3 -0.53
4 -0.57
5 0.42
6 0.28
7 -0.14
8 0.09

> <PUBCHEM_EFFECTIVE_ROTOR_COUNT>
0.6

> <PUBCHEM_PHARMACOPHORE_FEATURES>
6
1 2 acceptor
1 2 donor
1 3 donor
1 4 acceptor
6 1 5 6 7 8 10 rings
6 7 8 11 12 13 14 rings

> <PUBCHEM_HEAVY_ATOM_COUNT>
14

> <PUBCHEM_ATOM_DEF_STEREO_COUNT>
1

> <PUBCHEM_ATOM_UDEF_STEREO_COUNT>
1

> <PUBCHEM_BOND_DEF_STEREO_COUNT>
0

> <PUBCHEM_BOND_UDEF_STEREO_COUNT>
0

> <PUBCHEM_ISOTOPIC_ATOM_COUNT>
0

> <PUBCHEM_COMPONENT_COUNT>
1

> <PUBCHEM_CACTVS_TAUTO_COUNT>
4

> <PUBCHEM_CONFORMER_ID>
02A62D4B00000001

> <PUBCHEM_MMFF94_ENERGY>
41.457

> <PUBCHEM_FEATURE_SELFOVERLAP>
30.472

> <PUBCHEM_SHAPE_FINGERPRINT>
11471102 22 18261693517975976883
12423570 1 15518961024086626927
12524768 44 18341055141987449030
12696612 119 18338242570048258370
13024252 1 17314515829125513739
13380535 76 17400355646777874149
14617773 55 17916577773283859463
14761567 1 16394648346703287357
15775835 57 18272377498290765512
161256 15 18338527343570271934
16945 1 18338799992215317290
17844478 74 18116451261783194594
20511035 2 17904205823529389124
23236772 104 17914622901828724363
2334 1 18266455584698579214
23419403 2 12631262324158215716
23552423 10 18408317804708669854
241688 4 18339349838112638490
2748010 2 18408318891282635268
5084963 1 18201991127646673810
528886 8 18410006680217424818
63268167 104 18340764948337669889
66348 1 17905604759023667210

> <PUBCHEM_SHAPE_MULTIPOLES>
264.64
3.57
2.31
1.05
0.52
0.75
0.16
-0.43
0.82
0.59
-0.42
-0.85
-0.26
-0.18

> <PUBCHEM_SHAPE_SELFOVERLAP>
574.253

> <PUBCHEM_SHAPE_VOLUME>
144.3

> <PUBCHEM_COORDINATE_TYPE>
2
5
10

$$$$
