119394
  -OEChem-11202010133D

 79 82  0     1  0  0  0  0  0999 V2000
   -7.9544    0.5981   -1.2312 O   0  0  0  0  0  0  0  0  0  0  0  0
    0.5047    0.0822    0.9382 C   0  0  1  0  0  0  0  0  0  0  0  0
   -0.2440   -1.0598    0.2172 C   0  0  2  0  0  0  0  0  0  0  0  0
   -1.7577   -1.0254    0.4557 C   0  0  1  0  0  0  0  0  0  0  0  0
   -2.3130    0.3379   -0.0712 C   0  0  1  0  0  0  0  0  0  0  0  0
   -3.8760    0.4361    0.0872 C   0  0  2  0  0  0  0  0  0  0  0  0
    1.9553   -0.2837    0.5394 C   0  0  2  0  0  0  0  0  0  0  0  0
   -0.0042    1.4128    0.3658 C   0  0  0  0  0  0  0  0  0  0  0  0
   -4.4979   -0.7912   -0.6547 C   0  0  1  0  0  0  0  0  0  0  0  0
   -1.5316    1.5469    0.5079 C   0  0  0  0  0  0  0  0  0  0  0  0
    0.5411   -2.3076    0.6098 C   0  0  0  0  0  0  0  0  0  0  0  0
   -2.4603   -2.2119   -0.2194 C   0  0  0  0  0  0  0  0  0  0  0  0
    2.0001   -1.8222    0.6931 C   0  0  0  0  0  0  0  0  0  0  0  0
   -3.9812   -2.1276   -0.1110 C   0  0  0  0  0  0  0  0  0  0  0  0
   -4.4166    1.7243   -0.5967 C   0  0  0  0  0  0  0  0  0  0  0  0
    0.3327    0.0790    2.4781 C   0  0  0  0  0  0  0  0  0  0  0  0
    3.0697    0.4201    1.3002 C   0  0  1  0  0  0  0  0  0  0  0  0
   -6.0310   -0.7551   -0.6870 C   0  0  0  0  0  0  0  0  0  0  0  0
   -4.2762    0.4736    1.5844 C   0  0  0  0  0  0  0  0  0  0  0  0
   -5.9438    1.7778   -0.6786 C   0  0  0  0  0  0  0  0  0  0  0  0
   -6.5357    0.5344   -1.3336 C   0  0  2  0  0  0  0  0  0  0  0  0
    4.4458   -0.0851    0.8154 C   0  0  0  0  0  0  0  0  0  0  0  0
    2.9311    1.9388    1.1508 C   0  0  0  0  0  0  0  0  0  0  0  0
    4.6714    0.0978   -0.6905 C   0  0  0  0  0  0  0  0  0  0  0  0
    6.0555   -0.3933   -1.1792 C   0  0  2  0  0  0  0  0  0  0  0  0
    7.2532    0.1896   -0.3750 C   0  0  0  0  0  0  0  0  0  0  0  0
    6.1604   -0.1407   -2.6902 C   0  0  0  0  0  0  0  0  0  0  0  0
    8.5963   -0.3656   -0.8641 C   0  0  0  0  0  0  0  0  0  0  0  0
    7.3065    1.7196   -0.3609 C   0  0  0  0  0  0  0  0  0  0  0  0
   -0.0970   -0.9402   -0.8696 H   0  0  0  0  0  0  0  0  0  0  0  0
   -1.9474   -1.1108    1.5303 H   0  0  0  0  0  0  0  0  0  0  0  0
   -2.1110    0.3559   -1.1543 H   0  0  0  0  0  0  0  0  0  0  0  0
    2.0436   -0.0541   -0.5308 H   0  0  0  0  0  0  0  0  0  0  0  0
    0.2562    1.4937   -0.6974 H   0  0  0  0  0  0  0  0  0  0  0  0
    0.4278    2.2820    0.8625 H   0  0  0  0  0  0  0  0  0  0  0  0
   -4.1714   -0.7377   -1.7053 H   0  0  0  0  0  0  0  0  0  0  0  0
   -1.7803    1.6918    1.5637 H   0  0  0  0  0  0  0  0  0  0  0  0
   -1.8326    2.4652   -0.0084 H   0  0  0  0  0  0  0  0  0  0  0  0
    0.4312   -3.1093   -0.1276 H   0  0  0  0  0  0  0  0  0  0  0  0
    0.2127   -2.7008    1.5784 H   0  0  0  0  0  0  0  0  0  0  0  0
   -2.1263   -3.1537    0.2314 H   0  0  0  0  0  0  0  0  0  0  0  0
   -2.1796   -2.2540   -1.2797 H   0  0  0  0  0  0  0  0  0  0  0  0
    2.4310   -2.1323    1.6518 H   0  0  0  0  0  0  0  0  0  0  0  0
    2.6031   -2.2752   -0.1014 H   0  0  0  0  0  0  0  0  0  0  0  0
   -4.4195   -2.9555   -0.6815 H   0  0  0  0  0  0  0  0  0  0  0  0
   -4.2916   -2.2715    0.9301 H   0  0  0  0  0  0  0  0  0  0  0  0
   -4.0119    1.7940   -1.6151 H   0  0  0  0  0  0  0  0  0  0  0  0
   -4.0730    2.6184   -0.0634 H   0  0  0  0  0  0  0  0  0  0  0  0
    0.8285    0.9379    2.9405 H   0  0  0  0  0  0  0  0  0  0  0  0
   -0.7156    0.1330    2.7840 H   0  0  0  0  0  0  0  0  0  0  0  0
    0.7479   -0.8212    2.9424 H   0  0  0  0  0  0  0  0  0  0  0  0
    3.0163    0.1825    2.3700 H   0  0  0  0  0  0  0  0  0  0  0  0
   -6.4170   -1.6089   -1.2591 H   0  0  0  0  0  0  0  0  0  0  0  0
   -6.4538   -0.8735    0.3178 H   0  0  0  0  0  0  0  0  0  0  0  0
   -3.9199    1.3896    2.0672 H   0  0  0  0  0  0  0  0  0  0  0  0
   -5.3603    0.4531    1.7266 H   0  0  0  0  0  0  0  0  0  0  0  0
   -3.8739   -0.3697    2.1509 H   0  0  0  0  0  0  0  0  0  0  0  0
   -6.3736    1.9203    0.3204 H   0  0  0  0  0  0  0  0  0  0  0  0
   -6.2494    2.6660   -1.2459 H   0  0  0  0  0  0  0  0  0  0  0  0
   -6.2849    0.5301   -2.4007 H   0  0  0  0  0  0  0  0  0  0  0  0
    5.2078    0.4588    1.3838 H   0  0  0  0  0  0  0  0  0  0  0  0
    4.5754   -1.1423    1.0752 H   0  0  0  0  0  0  0  0  0  0  0  0
    3.8800    2.4290    1.3997 H   0  0  0  0  0  0  0  0  0  0  0  0
    2.2057    2.3505    1.8551 H   0  0  0  0  0  0  0  0  0  0  0  0
    2.6752    2.2410    0.1307 H   0  0  0  0  0  0  0  0  0  0  0  0
    3.9237   -0.4669   -1.2566 H   0  0  0  0  0  0  0  0  0  0  0  0
    4.5403    1.1510   -0.9640 H   0  0  0  0  0  0  0  0  0  0  0  0
   -8.1888    0.5854   -0.2875 H   0  0  0  0  0  0  0  0  0  0  0  0
    6.0756   -1.4832   -1.0374 H   0  0  0  0  0  0  0  0  0  0  0  0
    7.1566   -0.1467    0.6646 H   0  0  0  0  0  0  0  0  0  0  0  0
    7.0641   -0.5897   -3.1121 H   0  0  0  0  0  0  0  0  0  0  0  0
    6.1655    0.9286   -2.9228 H   0  0  0  0  0  0  0  0  0  0  0  0
    5.3092   -0.5891   -3.2149 H   0  0  0  0  0  0  0  0  0  0  0  0
    9.3992   -0.0858   -0.1729 H   0  0  0  0  0  0  0  0  0  0  0  0
    8.5719   -1.4589   -0.9175 H   0  0  0  0  0  0  0  0  0  0  0  0
    8.8655    0.0238   -1.8510 H   0  0  0  0  0  0  0  0  0  0  0  0
    7.4412    2.1284   -1.3671 H   0  0  0  0  0  0  0  0  0  0  0  0
    8.1469    2.0669    0.2506 H   0  0  0  0  0  0  0  0  0  0  0  0
    6.3981    2.1546    0.0649 H   0  0  0  0  0  0  0  0  0  0  0  0
  1 21  1  0  0  0  0
  1 68  1  0  0  0  0
  2  3  1  0  0  0  0
  2  7  1  0  0  0  0
  2  8  1  0  0  0  0
  2 16  1  0  0  0  0
  3  4  1  0  0  0  0
  3 11  1  0  0  0  0
  3 30  1  0  0  0  0
  4  5  1  0  0  0  0
  4 12  1  0  0  0  0
  4 31  1  0  0  0  0
  5  6  1  0  0  0  0
  5 10  1  0  0  0  0
  5 32  1  0  0  0  0
  6  9  1  0  0  0  0
  6 15  1  0  0  0  0
  6 19  1  0  0  0  0
  7 13  1  0  0  0  0
  7 17  1  0  0  0  0
  7 33  1  0  0  0  0
  8 10  1  0  0  0  0
  8 34  1  0  0  0  0
  8 35  1  0  0  0  0
  9 14  1  0  0  0  0
  9 18  1  0  0  0  0
  9 36  1  0  0  0  0
 10 37  1  0  0  0  0
 10 38  1  0  0  0  0
 11 13  1  0  0  0  0
 11 39  1  0  0  0  0
 11 40  1  0  0  0  0
 12 14  1  0  0  0  0
 12 41  1  0  0  0  0
 12 42  1  0  0  0  0
 13 43  1  0  0  0  0
 13 44  1  0  0  0  0
 14 45  1  0  0  0  0
 14 46  1  0  0  0  0
 15 20  1  0  0  0  0
 15 47  1  0  0  0  0
 15 48  1  0  0  0  0
 16 49  1  0  0  0  0
 16 50  1  0  0  0  0
 16 51  1  0  0  0  0
 17 22  1  0  0  0  0
 17 23  1  0  0  0  0
 17 52  1  0  0  0  0
 18 21  1  0  0  0  0
 18 53  1  0  0  0  0
 18 54  1  0  0  0  0
 19 55  1  0  0  0  0
 19 56  1  0  0  0  0
 19 57  1  0  0  0  0
 20 21  1  0  0  0  0
 20 58  1  0  0  0  0
 20 59  1  0  0  0  0
 21 60  1  0  0  0  0
 22 24  1  0  0  0  0
 22 61  1  0  0  0  0
 22 62  1  0  0  0  0
 23 63  1  0  0  0  0
 23 64  1  0  0  0  0
 23 65  1  0  0  0  0
 24 25  1  0  0  0  0
 24 66  1  0  0  0  0
 24 67  1  0  0  0  0
 25 26  1  0  0  0  0
 25 27  1  0  0  0  0
 25 69  1  0  0  0  0
 26 28  1  0  0  0  0
 26 29  1  0  0  0  0
 26 70  1  0  0  0  0
 27 71  1  0  0  0  0
 27 72  1  0  0  0  0
 27 73  1  0  0  0  0
 28 74  1  0  0  0  0
 28 75  1  0  0  0  0
 28 76  1  0  0  0  0
 29 77  1  0  0  0  0
 29 78  1  0  0  0  0
 29 79  1  0  0  0  0
M  END
> <PUBCHEM_COMPOUND_CID>
119394

> <PUBCHEM_CONFORMER_RMSD>
0.8

> <PUBCHEM_CONFORMER_DIVERSEORDER>
2
3
1
7
5
4
6

> <PUBCHEM_MMFF94_PARTIAL_CHARGES>
3
1 -0.68
21 0.28
68 0.4

> <PUBCHEM_EFFECTIVE_ROTOR_COUNT>
7.2

> <PUBCHEM_PHARMACOPHORE_FEATURES>
10
1 1 acceptor
1 1 donor
1 23 hydrophobe
1 27 hydrophobe
3 26 28 29 hydrophobe
5 17 22 24 25 26 hydrophobe
5 2 3 7 11 13 rings
6 2 3 4 5 8 10 rings
6 4 5 6 9 12 14 rings
6 6 9 15 18 20 21 rings

> <PUBCHEM_HEAVY_ATOM_COUNT>
29

> <PUBCHEM_ATOM_DEF_STEREO_COUNT>
10

> <PUBCHEM_ATOM_UDEF_STEREO_COUNT>
0

> <PUBCHEM_BOND_DEF_STEREO_COUNT>
0

> <PUBCHEM_BOND_UDEF_STEREO_COUNT>
0

> <PUBCHEM_ISOTOPIC_ATOM_COUNT>
0

> <PUBCHEM_COMPONENT_COUNT>
1

> <PUBCHEM_CACTVS_TAUTO_COUNT>
1

> <PUBCHEM_CONFORMER_ID>
0001D26200000002

> <PUBCHEM_MMFF94_ENERGY>
96.6798

> <PUBCHEM_FEATURE_SELFOVERLAP>
50.851

> <PUBCHEM_SHAPE_FINGERPRINT>
10 15 11530483328926707142
10076449 9 18342462569339018219
10554248 39 17896858998713411999
106641 1 12396303651518220421
10670039 82 18410573950839848145
10835480 77 18201439246821227488
11315181 36 17846500357017380177
11456790 92 13334723658078072764
12011746 2 18201431481055697019
12166972 35 13758064225683300331
12236239 1 17603579725174616931
12954195 1 17917437475328417136
13540713 4 18055345001147614691
13668630 136 14549022082925818292
13673619 4 14620791587621193082
13685833 64 15554446297389417684
13690498 29 18128532867770733599
13782708 43 15769774654161580740
13811026 1 18131913759125708654
14251752 14 18335138683610227818
14251764 18 11527941275096583720
14294032 229 18115585924990504476
14840074 17 17240483611062039343
14856354 85 17822295725318879479
14931854 50 18201709623264574881
15183329 4 18341614802723714002
15301273 46 11025793181273579584
1577012 14 17821720637365529410
15961568 22 17458342996499568861
16994733 274 17240476988122787381
17980427 23 13551483587173488571
18335252 114 17312821572613347484
18608769 82 18262525913399629531
18681886 176 18339071687488256721
19958102 18 18201732712940323462
20105231 36 18272652377274532119
2026 5 16128383623141292950
20567600 247 15554447375347107798
21150785 3 18060416915100224284
21267235 1 18342458192561732259
21637258 2 14836403618694190058
21756936 100 17240204356462159602
21792961 116 18343025479841538778
22122407 14 16009043773793188212
221357 26 18060699490158567320
2215653 11 17846780706807533222
22224240 67 13695587745899603985
22393880 68 18342730857890612291
23559900 14 18059571442720532712
23569914 152 16624058673158430596
23569943 247 16557639512187061862
23576562 1 18189335843242269836
2838139 119 16370444475598438486
3004659 81 18412541029319493480
335352 9 18411974772198796253
4058900 60 17967536726959069131
4073 2 17749107773366861571
4093350 32 15213289790873630586
4325135 7 18114179726626322422
437815 12 17418096520490250600
5265222 85 18341610481258925903
58902169 19 17676209100310038094
59682541 52 17489870453887886884
59755656 215 18343580720360026382
59755656 520 16081091498111859698
9953998 17 12324244970763921901

> <PUBCHEM_SHAPE_MULTIPOLES>
590.94
21.09
2.02
1.65
17.79
0.37
0.08
-4.66
13.36
-1.29
-0.16
1.14
-0.14
0.67

> <PUBCHEM_SHAPE_SELFOVERLAP>
1215.933

> <PUBCHEM_SHAPE_VOLUME>
339.7

> <PUBCHEM_COORDINATE_TYPE>
2
5
10

$$$$
