14730813
  -OEChem-11202008343D

 61 64  0     1  0  0  0  0  0999 V2000
    0.7386    1.1246   -0.1621 O   0  0  0  0  0  0  0  0  0  0  0  0
   -1.0538    1.2008    1.3513 O   0  0  0  0  0  0  0  0  0  0  0  0
    2.5193    3.7659   -1.9926 O   0  0  0  0  0  0  0  0  0  0  0  0
    1.4478    5.1784    0.2886 O   0  0  0  0  0  0  0  0  0  0  0  0
    0.9910    2.9857    1.9508 O   0  0  0  0  0  0  0  0  0  0  0  0
    3.4360    0.6331   -0.6447 O   0  0  0  0  0  0  0  0  0  0  0  0
   -2.8074   -1.7379   -0.0187 O   0  0  0  0  0  0  0  0  0  0  0  0
   -3.6512    2.1221    0.9776 O   0  0  0  0  0  0  0  0  0  0  0  0
    4.7124   -0.7818   -1.9423 O   0  0  0  0  0  0  0  0  0  0  0  0
   -6.1327    1.7792    0.2278 O   0  0  0  0  0  0  0  0  0  0  0  0
   -7.2701   -2.5209   -1.4336 O   0  0  0  0  0  0  0  0  0  0  0  0
    1.9699   -3.1971   -1.4601 O   0  0  0  0  0  0  0  0  0  0  0  0
    3.1801   -3.3859    1.0345 O   0  0  0  0  0  0  0  0  0  0  0  0
    7.2609   -1.1364    1.4292 O   0  0  0  0  0  0  0  0  0  0  0  0
    6.9388   -1.8070   -0.7192 O   0  0  0  0  0  0  0  0  0  0  0  0
    1.9758    3.1182   -0.8451 C   0  0  1  0  0  0  0  0  0  0  0  0
    0.8697    3.9908   -0.2459 C   0  0  1  0  0  0  0  0  0  0  0  0
    1.4153    1.7500   -1.2575 C   0  0  1  0  0  0  0  0  0  0  0  0
    0.1143    3.2364    0.8480 C   0  0  1  0  0  0  0  0  0  0  0  0
   -0.3719    1.8916    0.3088 C   0  0  1  0  0  0  0  0  0  0  0  0
    2.5226    0.8048   -1.7128 C   0  0  0  0  0  0  0  0  0  0  0  0
   -2.0474    0.3841    0.8562 C   0  0  0  0  0  0  0  0  0  0  0  0
   -1.8395   -0.9000    0.5123 C   0  0  0  0  0  0  0  0  0  0  0  0
   -3.4019    0.9613    0.6810 C   0  0  0  0  0  0  0  0  0  0  0  0
   -4.4281    0.0631    0.1297 C   0  0  0  0  0  0  0  0  0  0  0  0
    4.5038   -0.1964   -0.8893 C   0  0  0  0  0  0  0  0  0  0  0  0
   -4.0749   -1.2454   -0.1928 C   0  0  0  0  0  0  0  0  0  0  0  0
   -0.5248   -1.5525    0.6457 C   0  0  0  0  0  0  0  0  0  0  0  0
   -5.7363    0.5106   -0.0704 C   0  0  0  0  0  0  0  0  0  0  0  0
    5.3701   -0.2697    0.3443 C   0  0  0  0  0  0  0  0  0  0  0  0
   -5.0294   -2.1161   -0.7192 C   0  0  0  0  0  0  0  0  0  0  0  0
    0.1129   -2.0733   -0.4801 C   0  0  0  0  0  0  0  0  0  0  0  0
    0.0822   -1.6483    1.8980 C   0  0  0  0  0  0  0  0  0  0  0  0
   -6.6893   -0.3624   -0.5965 C   0  0  0  0  0  0  0  0  0  0  0  0
   -6.3367   -1.6731   -0.9204 C   0  0  0  0  0  0  0  0  0  0  0  0
    1.3578   -2.6899   -0.3540 C   0  0  0  0  0  0  0  0  0  0  0  0
    1.3270   -2.2651    2.0242 C   0  0  0  0  0  0  0  0  0  0  0  0
    1.9648   -2.7858    0.8983 C   0  0  0  0  0  0  0  0  0  0  0  0
    6.5842   -1.1559    0.2510 C   0  0  0  0  0  0  0  0  0  0  0  0
    2.7908    3.0199   -0.1193 H   0  0  0  0  0  0  0  0  0  0  0  0
    0.1754    4.3015   -1.0365 H   0  0  0  0  0  0  0  0  0  0  0  0
    0.7104    1.8601   -2.0924 H   0  0  0  0  0  0  0  0  0  0  0  0
   -0.7141    3.8346    1.2412 H   0  0  0  0  0  0  0  0  0  0  0  0
   -1.0544    2.0809   -0.5334 H   0  0  0  0  0  0  0  0  0  0  0  0
    3.0421    1.2119   -2.5877 H   0  0  0  0  0  0  0  0  0  0  0  0
    2.0925   -0.1679   -1.9745 H   0  0  0  0  0  0  0  0  0  0  0  0
    1.8066    3.8684   -2.6462 H   0  0  0  0  0  0  0  0  0  0  0  0
    0.7272    5.7073    0.6716 H   0  0  0  0  0  0  0  0  0  0  0  0
    1.6260    2.2986    1.6871 H   0  0  0  0  0  0  0  0  0  0  0  0
    5.7162    0.7458    0.5658 H   0  0  0  0  0  0  0  0  0  0  0  0
    4.7472   -0.6456    1.1634 H   0  0  0  0  0  0  0  0  0  0  0  0
   -4.7570   -3.1376   -0.9725 H   0  0  0  0  0  0  0  0  0  0  0  0
   -0.3562   -1.9962   -1.4588 H   0  0  0  0  0  0  0  0  0  0  0  0
   -0.4011   -1.2548    2.7889 H   0  0  0  0  0  0  0  0  0  0  0  0
   -7.7081   -0.0154   -0.7528 H   0  0  0  0  0  0  0  0  0  0  0  0
    1.7883   -2.3339    3.0058 H   0  0  0  0  0  0  0  0  0  0  0  0
   -5.3924    2.2917    0.5871 H   0  0  0  0  0  0  0  0  0  0  0  0
   -8.1182   -2.0501   -1.5058 H   0  0  0  0  0  0  0  0  0  0  0  0
    1.4072   -3.0348   -2.2366 H   0  0  0  0  0  0  0  0  0  0  0  0
    3.4469   -3.3525    1.9693 H   0  0  0  0  0  0  0  0  0  0  0  0
    8.0598   -1.7050    1.4011 H   0  0  0  0  0  0  0  0  0  0  0  0
  1 18  1  0  0  0  0
  1 20  1  0  0  0  0
  2 20  1  0  0  0  0
  2 22  1  0  0  0  0
  3 16  1  0  0  0  0
  3 47  1  0  0  0  0
  4 17  1  0  0  0  0
  4 48  1  0  0  0  0
  5 19  1  0  0  0  0
  5 49  1  0  0  0  0
  6 21  1  0  0  0  0
  6 26  1  0  0  0  0
  7 23  1  0  0  0  0
  7 27  1  0  0  0  0
  8 24  2  0  0  0  0
  9 26  2  0  0  0  0
 10 29  1  0  0  0  0
 10 57  1  0  0  0  0
 11 35  1  0  0  0  0
 11 58  1  0  0  0  0
 12 36  1  0  0  0  0
 12 59  1  0  0  0  0
 13 38  1  0  0  0  0
 13 60  1  0  0  0  0
 14 39  1  0  0  0  0
 14 61  1  0  0  0  0
 15 39  2  0  0  0  0
 16 17  1  0  0  0  0
 16 18  1  0  0  0  0
 16 40  1  0  0  0  0
 17 19  1  0  0  0  0
 17 41  1  0  0  0  0
 18 21  1  0  0  0  0
 18 42  1  0  0  0  0
 19 20  1  0  0  0  0
 19 43  1  0  0  0  0
 20 44  1  0  0  0  0
 21 45  1  0  0  0  0
 21 46  1  0  0  0  0
 22 23  2  0  0  0  0
 22 24  1  0  0  0  0
 23 28  1  0  0  0  0
 24 25  1  0  0  0  0
 25 27  1  0  0  0  0
 25 29  2  0  0  0  0
 26 30  1  0  0  0  0
 27 31  2  0  0  0  0
 28 32  2  0  0  0  0
 28 33  1  0  0  0  0
 29 34  1  0  0  0  0
 30 39  1  0  0  0  0
 30 50  1  0  0  0  0
 30 51  1  0  0  0  0
 31 35  1  0  0  0  0
 31 52  1  0  0  0  0
 32 36  1  0  0  0  0
 32 53  1  0  0  0  0
 33 37  2  0  0  0  0
 33 54  1  0  0  0  0
 34 35  2  0  0  0  0
 34 55  1  0  0  0  0
 36 38  2  0  0  0  0
 37 38  1  0  0  0  0
 37 56  1  0  0  0  0
M  END
> <PUBCHEM_COMPOUND_CID>
14730813

> <PUBCHEM_CONFORMER_RMSD>
1.4

> <PUBCHEM_CONFORMER_DIVERSEORDER>
1
112
2
109
101
73
124
12
53
27
120
117
95
59
39
114
7
74
83
97
32
44
56
119
91
105
103
70
87
26
6
79
11
90
23
18
4
129
9
40
17
115
50
20
107
88
81
25
77
86
61
68
46
72
118
92
21
43
84
45
58
34
29
8
80
55
15
126
108
130
16
111
22
64
100
102
69
125
62
5
24
89
76
49
28
3
30
94
116
48
31
41
37
98
51
123
66
57
52
63
96
110
113
33
10
42
99
65
13
93
36
35
106
19
121
122
54
78
104
38
47
67
82
128
60
71
127
14
75
85

> <PUBCHEM_MMFF94_PARTIAL_CHARGES>
52
1 -0.56
10 -0.53
11 -0.53
12 -0.53
13 -0.53
14 -0.65
15 -0.57
16 0.28
17 0.28
18 0.28
19 0.28
2 -0.36
20 0.56
21 0.28
22 0.09
23 0.05
24 0.47
25 0.09
26 0.66
27 0.08
28 0.03
29 0.08
3 -0.68
30 0.12
31 -0.15
32 -0.15
33 -0.15
34 -0.15
35 0.08
36 0.08
37 -0.15
38 0.08
39 0.66
4 -0.68
47 0.4
48 0.4
49 0.4
5 -0.68
52 0.15
53 0.15
54 0.15
55 0.15
56 0.15
57 0.45
58 0.45
59 0.45
6 -0.43
60 0.45
61 0.5
7 -0.16
8 -0.57
9 -0.57

> <PUBCHEM_EFFECTIVE_ROTOR_COUNT>
9.2

> <PUBCHEM_PHARMACOPHORE_FEATURES>
23
1 1 acceptor
1 10 donor
1 11 donor
1 12 donor
1 13 donor
1 14 acceptor
1 15 acceptor
1 2 acceptor
1 3 acceptor
1 3 donor
1 30 anion
1 4 acceptor
1 4 donor
1 5 acceptor
1 5 donor
1 7 acceptor
1 8 acceptor
1 9 acceptor
3 14 15 39 anion
6 1 16 17 18 19 20 rings
6 25 27 29 31 34 35 rings
6 28 32 33 36 37 38 rings
6 7 22 23 24 25 27 rings

> <PUBCHEM_HEAVY_ATOM_COUNT>
39

> <PUBCHEM_ATOM_DEF_STEREO_COUNT>
0

> <PUBCHEM_ATOM_UDEF_STEREO_COUNT>
5

> <PUBCHEM_BOND_DEF_STEREO_COUNT>
0

> <PUBCHEM_BOND_UDEF_STEREO_COUNT>
0

> <PUBCHEM_ISOTOPIC_ATOM_COUNT>
0

> <PUBCHEM_COMPONENT_COUNT>
1

> <PUBCHEM_CACTVS_TAUTO_COUNT>
162

> <PUBCHEM_CONFORMER_ID>
00E0C63D00000001

> <PUBCHEM_MMFF94_ENERGY>
108.8579

> <PUBCHEM_FEATURE_SELFOVERLAP>
117.167

> <PUBCHEM_SHAPE_FINGERPRINT>
10675989 125 18335713774761923228
10930396 42 18265307635379413664
11513181 2 18053672364900214830
11578080 2 17097194053482436447
12166972 35 18411136965270078304
12838863 1 18335976507033883130
14068700 675 18410858737853516116
14394314 77 18339362959386051152
14681490 219 18334295314688175886
14725015 67 18338789036718830578
15328829 1 17987539034792633793
15420108 30 17763759688560547200
15439362 3 18120935272181688276
18681886 176 18343013419626132003
20028762 73 18343024372251653654
21033648 29 11098149910982723956
22393880 68 18411695522337125741
23559900 14 18339640165502639185
24771293 8 18343585136034825640
24893992 56 18186525410850809595
25019877 29 17275101735037724022
3504750 166 16600944692618134906
463206 1 18335713736048194875
484989 97 18043824297217366323
5265222 85 17109609008740037028
57527306 92 18261663836295796362
57527585 103 17681597771915907426
6004065 56 18340768247299879596
6086070 43 18337938044520238213
6669772 16 17981038931669409257

> <PUBCHEM_SHAPE_MULTIPOLES>
714.56
15.14
5.04
1.61
5.83
4.66
-0.05
-9.11
4.05
-3.3
-0.12
-1.04
-0.1
-2.18

> <PUBCHEM_SHAPE_SELFOVERLAP>
1561.324

> <PUBCHEM_SHAPE_VOLUME>
381.7

> <PUBCHEM_COORDINATE_TYPE>
2
5
10

$$$$
