91751678
  -OEChem-11202009533D

 89 92  0     1  0  0  0  0  0999 V2000
    6.4216    1.3211    0.1859 Si  0  0  0  0  0  0  0  0  0  0  0  0
    5.2659    0.1086    0.1963 O   0  0  0  0  0  0  0  0  0  0  0  0
   -1.3973   -1.8898    0.6874 C   0  0  2  0  0  0  0  0  0  0  0  0
   -2.3765   -1.1807   -0.2727 C   0  0  1  0  0  0  0  0  0  0  0  0
   -0.0353   -2.1776    0.0457 C   0  0  1  0  0  0  0  0  0  0  0  0
    0.6074   -0.8222   -0.3940 C   0  0  1  0  0  0  0  0  0  0  0  0
    2.0358   -1.0255   -1.0266 C   0  0  2  0  0  0  0  0  0  0  0  0
   -3.6160   -1.1035    0.6520 C   0  0  2  0  0  0  0  0  0  0  0  0
    2.9394   -1.8244   -0.0281 C   0  0  2  0  0  0  0  0  0  0  0  0
   -1.7658    0.1768   -0.6457 C   0  0  0  0  0  0  0  0  0  0  0  0
   -0.3641    0.0208   -1.2642 C   0  0  0  0  0  0  0  0  0  0  0  0
   -2.2168   -3.0509    1.2428 C   0  0  0  0  0  0  0  0  0  0  0  0
    0.8833   -2.9455    1.0045 C   0  0  0  0  0  0  0  0  0  0  0  0
   -3.6478   -2.4896    1.3374 C   0  0  0  0  0  0  0  0  0  0  0  0
    2.2830   -3.1387    0.4289 C   0  0  0  0  0  0  0  0  0  0  0  0
    2.7375    0.3235   -1.3576 C   0  0  0  0  0  0  0  0  0  0  0  0
   -2.6918   -1.9809   -1.5615 C   0  0  0  0  0  0  0  0  0  0  0  0
    3.3595   -0.9849    1.2024 C   0  0  0  0  0  0  0  0  0  0  0  0
   -4.9381   -0.7391   -0.0081 C   0  0  1  0  0  0  0  0  0  0  0  0
    1.9444   -1.8004   -2.3673 C   0  0  0  0  0  0  0  0  0  0  0  0
    3.1242    1.1438   -0.1284 C   0  0  0  0  0  0  0  0  0  0  0  0
    4.0068    0.3448    0.8231 C   0  0  2  0  0  0  0  0  0  0  0  0
   -6.0807   -0.9359    1.0016 C   0  0  0  0  0  0  0  0  0  0  0  0
   -4.8716    0.6544   -0.6324 C   0  0  0  0  0  0  0  0  0  0  0  0
   -4.5886    1.8075    0.3127 C   0  0  0  0  0  0  0  0  0  0  0  0
   -5.0255    0.8951   -1.9459 C   0  0  0  0  0  0  0  0  0  0  0  0
   -3.7547    2.9105   -0.3521 C   0  0  0  0  0  0  0  0  0  0  0  0
    6.4275    2.2034    1.8508 C   0  0  0  0  0  0  0  0  0  0  0  0
    8.1427    0.6211   -0.1066 C   0  0  0  0  0  0  0  0  0  0  0  0
    6.0600    2.5983   -1.1470 C   0  0  0  0  0  0  0  0  0  0  0  0
   -3.4734    4.1066    0.5775 C   0  0  0  0  0  0  0  0  0  0  0  0
   -2.7023    3.6339    1.8126 C   0  0  0  0  0  0  0  0  0  0  0  0
   -2.6928    5.2193   -0.1235 C   0  0  0  0  0  0  0  0  0  0  0  0
   -1.2037   -1.2206    1.5429 H   0  0  0  0  0  0  0  0  0  0  0  0
   -0.1864   -2.8152   -0.8309 H   0  0  0  0  0  0  0  0  0  0  0  0
    0.7382   -0.2386    0.5275 H   0  0  0  0  0  0  0  0  0  0  0  0
   -3.3953   -0.3973    1.4631 H   0  0  0  0  0  0  0  0  0  0  0  0
    3.8669   -2.0987   -0.5514 H   0  0  0  0  0  0  0  0  0  0  0  0
   -1.6905    0.8206    0.2374 H   0  0  0  0  0  0  0  0  0  0  0  0
   -2.3695    0.6739   -1.4033 H   0  0  0  0  0  0  0  0  0  0  0  0
   -0.4605   -0.4201   -2.2613 H   0  0  0  0  0  0  0  0  0  0  0  0
    0.0411    1.0280   -1.4092 H   0  0  0  0  0  0  0  0  0  0  0  0
   -1.8531   -3.3767    2.2227 H   0  0  0  0  0  0  0  0  0  0  0  0
   -2.1892   -3.9181    0.5735 H   0  0  0  0  0  0  0  0  0  0  0  0
    0.4565   -3.9327    1.2187 H   0  0  0  0  0  0  0  0  0  0  0  0
    0.9448   -2.4237    1.9667 H   0  0  0  0  0  0  0  0  0  0  0  0
   -3.9620   -2.4018    2.3835 H   0  0  0  0  0  0  0  0  0  0  0  0
   -4.3326   -3.1869    0.8415 H   0  0  0  0  0  0  0  0  0  0  0  0
    2.9154   -3.6320    1.1772 H   0  0  0  0  0  0  0  0  0  0  0  0
    2.2272   -3.8333   -0.4179 H   0  0  0  0  0  0  0  0  0  0  0  0
    2.1146    0.9363   -2.0182 H   0  0  0  0  0  0  0  0  0  0  0  0
    3.6508    0.1213   -1.9342 H   0  0  0  0  0  0  0  0  0  0  0  0
   -3.2101   -2.9222   -1.3531 H   0  0  0  0  0  0  0  0  0  0  0  0
   -1.7914   -2.2392   -2.1252 H   0  0  0  0  0  0  0  0  0  0  0  0
   -3.3211   -1.4083   -2.2481 H   0  0  0  0  0  0  0  0  0  0  0  0
    2.4984   -0.7846    1.8488 H   0  0  0  0  0  0  0  0  0  0  0  0
    4.0724   -1.5714    1.7963 H   0  0  0  0  0  0  0  0  0  0  0  0
   -5.1506   -1.4555   -0.8125 H   0  0  0  0  0  0  0  0  0  0  0  0
    1.4227   -2.7558   -2.2751 H   0  0  0  0  0  0  0  0  0  0  0  0
    2.9452   -2.0208   -2.7578 H   0  0  0  0  0  0  0  0  0  0  0  0
    1.4277   -1.2153   -3.1351 H   0  0  0  0  0  0  0  0  0  0  0  0
    3.5852    2.0746   -0.4566 H   0  0  0  0  0  0  0  0  0  0  0  0
    2.2136    1.4473    0.4022 H   0  0  0  0  0  0  0  0  0  0  0  0
    4.1367    0.9036    1.7579 H   0  0  0  0  0  0  0  0  0  0  0  0
   -6.2416   -1.9902    1.2459 H   0  0  0  0  0  0  0  0  0  0  0  0
   -7.0224   -0.5598    0.5854 H   0  0  0  0  0  0  0  0  0  0  0  0
   -5.8926   -0.3910    1.9333 H   0  0  0  0  0  0  0  0  0  0  0  0
   -5.5460    2.2171    0.6581 H   0  0  0  0  0  0  0  0  0  0  0  0
   -4.0698    1.4574    1.2032 H   0  0  0  0  0  0  0  0  0  0  0  0
   -5.2240    0.0721   -2.6265 H   0  0  0  0  0  0  0  0  0  0  0  0
   -5.0024    1.8739   -2.4038 H   0  0  0  0  0  0  0  0  0  0  0  0
   -2.8038    2.5493   -0.7422 H   0  0  0  0  0  0  0  0  0  0  0  0
   -4.2993    3.3350   -1.2030 H   0  0  0  0  0  0  0  0  0  0  0  0
    8.3993   -0.1034    0.6718 H   0  0  0  0  0  0  0  0  0  0  0  0
    8.8912    1.4189   -0.0953 H   0  0  0  0  0  0  0  0  0  0  0  0
    6.9718    3.1519   -1.3921 H   0  0  0  0  0  0  0  0  0  0  0  0
    5.3156    3.3273   -0.8165 H   0  0  0  0  0  0  0  0  0  0  0  0
    5.5062    2.7741    1.9990 H   0  0  0  0  0  0  0  0  0  0  0  0
    7.2678    2.9024    1.9043 H   0  0  0  0  0  0  0  0  0  0  0  0
    6.5293    1.4834    2.6681 H   0  0  0  0  0  0  0  0  0  0  0  0
    8.1914    0.1165   -1.0760 H   0  0  0  0  0  0  0  0  0  0  0  0
    5.7015    2.1144   -2.0601 H   0  0  0  0  0  0  0  0  0  0  0  0
   -4.4305    4.5282    0.9104 H   0  0  0  0  0  0  0  0  0  0  0  0
   -1.8058    3.0694    1.5349 H   0  0  0  0  0  0  0  0  0  0  0  0
   -1.7126    4.8644   -0.4596 H   0  0  0  0  0  0  0  0  0  0  0  0
   -3.3194    3.0096    2.4650 H   0  0  0  0  0  0  0  0  0  0  0  0
   -2.3818    4.4903    2.4167 H   0  0  0  0  0  0  0  0  0  0  0  0
   -2.5349    6.0698    0.5481 H   0  0  0  0  0  0  0  0  0  0  0  0
   -3.2401    5.5820   -0.9997 H   0  0  0  0  0  0  0  0  0  0  0  0
  1  2  1  0  0  0  0
  1 28  1  0  0  0  0
  1 29  1  0  0  0  0
  1 30  1  0  0  0  0
  2 22  1  0  0  0  0
  3  4  1  0  0  0  0
  3  5  1  0  0  0  0
  3 12  1  0  0  0  0
  3 34  1  0  0  0  0
  4  8  1  0  0  0  0
  4 10  1  0  0  0  0
  4 17  1  0  0  0  0
  5  6  1  0  0  0  0
  5 13  1  0  0  0  0
  5 35  1  0  0  0  0
  6  7  1  0  0  0  0
  6 11  1  0  0  0  0
  6 36  1  0  0  0  0
  7  9  1  0  0  0  0
  7 16  1  0  0  0  0
  7 20  1  0  0  0  0
  8 14  1  0  0  0  0
  8 19  1  0  0  0  0
  8 37  1  0  0  0  0
  9 15  1  0  0  0  0
  9 18  1  0  0  0  0
  9 38  1  0  0  0  0
 10 11  1  0  0  0  0
 10 39  1  0  0  0  0
 10 40  1  0  0  0  0
 11 41  1  0  0  0  0
 11 42  1  0  0  0  0
 12 14  1  0  0  0  0
 12 43  1  0  0  0  0
 12 44  1  0  0  0  0
 13 15  1  0  0  0  0
 13 45  1  0  0  0  0
 13 46  1  0  0  0  0
 14 47  1  0  0  0  0
 14 48  1  0  0  0  0
 15 49  1  0  0  0  0
 15 50  1  0  0  0  0
 16 21  1  0  0  0  0
 16 51  1  0  0  0  0
 16 52  1  0  0  0  0
 17 53  1  0  0  0  0
 17 54  1  0  0  0  0
 17 55  1  0  0  0  0
 18 22  1  0  0  0  0
 18 56  1  0  0  0  0
 18 57  1  0  0  0  0
 19 23  1  0  0  0  0
 19 24  1  0  0  0  0
 19 58  1  0  0  0  0
 20 59  1  0  0  0  0
 20 60  1  0  0  0  0
 20 61  1  0  0  0  0
 21 22  1  0  0  0  0
 21 62  1  0  0  0  0
 21 63  1  0  0  0  0
 22 64  1  0  0  0  0
 23 65  1  0  0  0  0
 23 66  1  0  0  0  0
 23 67  1  0  0  0  0
 24 25  1  0  0  0  0
 24 26  2  0  0  0  0
 25 27  1  0  0  0  0
 25 68  1  0  0  0  0
 25 69  1  0  0  0  0
 26 70  1  0  0  0  0
 26 71  1  0  0  0  0
 27 31  1  0  0  0  0
 27 72  1  0  0  0  0
 27 73  1  0  0  0  0
 28 78  1  0  0  0  0
 28 79  1  0  0  0  0
 28 80  1  0  0  0  0
 29 74  1  0  0  0  0
 29 75  1  0  0  0  0
 29 81  1  0  0  0  0
 30 76  1  0  0  0  0
 30 77  1  0  0  0  0
 30 82  1  0  0  0  0
 31 32  1  0  0  0  0
 31 33  1  0  0  0  0
 31 83  1  0  0  0  0
 32 84  1  0  0  0  0
 32 86  1  0  0  0  0
 32 87  1  0  0  0  0
 33 85  1  0  0  0  0
 33 88  1  0  0  0  0
 33 89  1  0  0  0  0
M  END
> <PUBCHEM_COMPOUND_CID>
91751678

> <PUBCHEM_CONFORMER_RMSD>
1

> <PUBCHEM_CONFORMER_DIVERSEORDER>
1
51
79
40
78
50
60
66
10
53
56
24
58
19
5
64
61
82
41
71
27
37
2
52
42
73
23
11
80
9
7
39
67
13
59
46
16
25
26
62
77
45
22
38
43
31
3
47
12
17
65
18
76
44
68
33
34
81
35
57
32
15
54
6
36
49
30
74
63
4
55
14
20
48
28
29
75
8
21
72
69
70

> <PUBCHEM_MMFF94_PARTIAL_CHARGES>
12
1 0.54
19 0.14
2 -0.58
22 0.28
24 -0.28
25 0.14
26 -0.3
28 -0.08
29 -0.08
30 -0.08
70 0.15
71 0.15

> <PUBCHEM_EFFECTIVE_ROTOR_COUNT>
9.2

> <PUBCHEM_PHARMACOPHORE_FEATURES>
8
1 23 hydrophobe
1 26 hydrophobe
3 31 32 33 hydrophobe
5 19 24 25 27 31 hydrophobe
5 3 4 8 12 14 rings
6 3 4 5 6 10 11 rings
6 5 6 7 9 13 15 rings
6 7 9 16 18 21 22 rings

> <PUBCHEM_HEAVY_ATOM_COUNT>
33

> <PUBCHEM_ATOM_DEF_STEREO_COUNT>
7

> <PUBCHEM_ATOM_UDEF_STEREO_COUNT>
2

> <PUBCHEM_BOND_DEF_STEREO_COUNT>
0

> <PUBCHEM_BOND_UDEF_STEREO_COUNT>
0

> <PUBCHEM_ISOTOPIC_ATOM_COUNT>
0

> <PUBCHEM_COMPONENT_COUNT>
1

> <PUBCHEM_CACTVS_TAUTO_COUNT>
1

> <PUBCHEM_CONFORMER_ID>
057804FE00000001

> <PUBCHEM_MMFF94_ENERGY>
106.7597

> <PUBCHEM_FEATURE_SELFOVERLAP>
40.801

> <PUBCHEM_SHAPE_FINGERPRINT>
10 15 17676769872166186098
100830 39 18409168818403879720
10291535 26 18411138048076454209
10554248 39 16056610893621966108
12107183 9 18116701934209546266
12422481 6 17095515189305266366
12788726 201 18413101745473313113
13140716 1 18046354294984235355
13560911 43 17895475933661128417
14251751 18 8430308052552536264
14251764 38 18197214750557179721
14394314 77 18340772525473584873
14739800 52 18339913836412516330
14790565 3 18408326609903569972
15183329 4 15984835873945210678
15289351 153 18339634556849967386
15347590 135 18041009474730695883
15968369 153 18130219492906567928
16112460 7 18260542278505795096
17980427 23 17458904971975702062
21033648 144 18130795555194294351
21033648 29 18198892799165148752
21756936 100 18268138941944765022
21859007 373 18201148932727968672
22121540 332 18272083873659034036
22956985 138 17106796449627369043
23559900 14 18261968344781806398
24771293 8 18271536351581184633
2838139 119 18130780188201670572
3388396 114 18267847446556548533
373842 8 18266174122686996176
4058900 60 18259705580238010466
4144715 1 18335148557535053978
44062 13 9223227446786485649
4616759 239 17895749746442284992
469060 322 18263949708206529641
5104073 3 17968095283192549675
6036956 94 18335423418257302333
6608658 132 18271511079191976125
6679774 75 14870206313015874673
7226269 152 18409163333529799273

> <PUBCHEM_SHAPE_MULTIPOLES>
691.47
16.42
4.99
1.66
20.98
5.31
-0.31
10.37
1.79
-4.98
1.47
-0.05
-0.11
0.6

> <PUBCHEM_SHAPE_SELFOVERLAP>
1398.322

> <PUBCHEM_SHAPE_VOLUME>
412.9

> <PUBCHEM_COORDINATE_TYPE>
2
5
10

$$$$
