10426197
  -OEChem-11202008313D

 42 43  0     1  0  0  0  0  0999 V2000
    1.0407    0.3314    0.2266 O   0  0  0  0  0  0  0  0  0  0  0  0
    3.8695    0.6685   -0.5999 O   0  0  0  0  0  0  0  0  0  0  0  0
    3.0759   -2.4758    1.0342 O   0  0  0  0  0  0  0  0  0  0  0  0
   -0.3487   -0.9908   -1.0948 O   0  0  0  0  0  0  0  0  0  0  0  0
    1.6609   -2.9498   -1.2805 O   0  0  0  0  0  0  0  0  0  0  0  0
    4.5518    2.3929    0.7776 O   0  0  0  0  0  0  0  0  0  0  0  0
   -7.3063    0.0427   -0.3094 N   0  0  0  0  0  0  0  0  0  0  0  0
    3.4380   -0.1458    0.4942 C   0  0  2  0  0  0  0  0  0  0  0  0
    3.2122   -1.5575   -0.0477 C   0  0  2  0  0  0  0  0  0  0  0  0
    1.9522   -1.6039   -0.9153 C   0  0  2  0  0  0  0  0  0  0  0  0
    2.1677    0.4797    1.0975 C   0  0  2  0  0  0  0  0  0  0  0  0
    0.7526   -1.0036   -0.1844 C   0  0  1  0  0  0  0  0  0  0  0  0
    1.8365   -0.0154    2.5034 C   0  0  0  0  0  0  0  0  0  0  0  0
   -1.5273   -0.4711   -0.6289 C   0  0  0  0  0  0  0  0  0  0  0  0
    4.1424    1.9718   -0.2958 C   0  0  0  0  0  0  0  0  0  0  0  0
   -2.1470   -1.0496    0.4733 C   0  0  0  0  0  0  0  0  0  0  0  0
   -2.0926    0.6303   -1.2621 C   0  0  0  0  0  0  0  0  0  0  0  0
    3.8654    2.8384   -1.4868 C   0  0  0  0  0  0  0  0  0  0  0  0
   -3.3467   -0.5201    0.9483 C   0  0  0  0  0  0  0  0  0  0  0  0
   -3.2924    1.1598   -0.7869 C   0  0  0  0  0  0  0  0  0  0  0  0
   -3.9195    0.5847    0.3183 C   0  0  0  0  0  0  0  0  0  0  0  0
   -5.2026    1.1500    0.8260 C   0  0  0  0  0  0  0  0  0  0  0  0
   -6.3826    0.5334    0.1931 C   0  0  0  0  0  0  0  0  0  0  0  0
    4.2385   -0.1665    1.2452 H   0  0  0  0  0  0  0  0  0  0  0  0
    4.0671   -1.8921   -0.6470 H   0  0  0  0  0  0  0  0  0  0  0  0
    2.1274   -1.0481   -1.8445 H   0  0  0  0  0  0  0  0  0  0  0  0
    2.2780    1.5624    1.2018 H   0  0  0  0  0  0  0  0  0  0  0  0
    0.4909   -1.6270    0.6779 H   0  0  0  0  0  0  0  0  0  0  0  0
    0.9399    0.4916    2.8775 H   0  0  0  0  0  0  0  0  0  0  0  0
    1.6168   -1.0850    2.5363 H   0  0  0  0  0  0  0  0  0  0  0  0
    2.6615    0.1871    3.1932 H   0  0  0  0  0  0  0  0  0  0  0  0
    3.8949   -2.4366    1.5569 H   0  0  0  0  0  0  0  0  0  0  0  0
    1.5358   -3.4584   -0.4610 H   0  0  0  0  0  0  0  0  0  0  0  0
   -1.7255   -1.9210    0.9656 H   0  0  0  0  0  0  0  0  0  0  0  0
   -1.6070    1.0814   -2.1228 H   0  0  0  0  0  0  0  0  0  0  0  0
    2.8121    2.7562   -1.7665 H   0  0  0  0  0  0  0  0  0  0  0  0
    4.5095    2.5422   -2.3184 H   0  0  0  0  0  0  0  0  0  0  0  0
    4.0783    3.8811   -1.2341 H   0  0  0  0  0  0  0  0  0  0  0  0
   -3.8277   -0.9810    1.8071 H   0  0  0  0  0  0  0  0  0  0  0  0
   -3.7286    2.0202   -1.2878 H   0  0  0  0  0  0  0  0  0  0  0  0
   -5.2225    2.2347    0.6609 H   0  0  0  0  0  0  0  0  0  0  0  0
   -5.2610    1.0218    1.9142 H   0  0  0  0  0  0  0  0  0  0  0  0
  1 11  1  0  0  0  0
  1 12  1  0  0  0  0
  2  8  1  0  0  0  0
  2 15  1  0  0  0  0
  3  9  1  0  0  0  0
  3 32  1  0  0  0  0
  4 12  1  0  0  0  0
  4 14  1  0  0  0  0
  5 10  1  0  0  0  0
  5 33  1  0  0  0  0
  6 15  2  0  0  0  0
  7 23  3  0  0  0  0
  8  9  1  0  0  0  0
  8 11  1  0  0  0  0
  8 24  1  0  0  0  0
  9 10  1  0  0  0  0
  9 25  1  0  0  0  0
 10 12  1  0  0  0  0
 10 26  1  0  0  0  0
 11 13  1  0  0  0  0
 11 27  1  0  0  0  0
 12 28  1  0  0  0  0
 13 29  1  0  0  0  0
 13 30  1  0  0  0  0
 13 31  1  0  0  0  0
 14 16  2  0  0  0  0
 14 17  1  0  0  0  0
 15 18  1  0  0  0  0
 16 19  1  0  0  0  0
 16 34  1  0  0  0  0
 17 20  2  0  0  0  0
 17 35  1  0  0  0  0
 18 36  1  0  0  0  0
 18 37  1  0  0  0  0
 18 38  1  0  0  0  0
 19 21  2  0  0  0  0
 19 39  1  0  0  0  0
 20 21  1  0  0  0  0
 20 40  1  0  0  0  0
 21 22  1  0  0  0  0
 22 23  1  0  0  0  0
 22 41  1  0  0  0  0
 22 42  1  0  0  0  0
M  END
> <PUBCHEM_COMPOUND_CID>
10426197

> <PUBCHEM_CONFORMER_RMSD>
0.8

> <PUBCHEM_CONFORMER_DIVERSEORDER>
8
86
73
19
60
48
6
93
92
71
79
63
20
28
50
62
59
52
18
77
90
39
47
85
41
94
64
95
16
14
105
9
69
76
97
98
56
81
17
65
99
32
35
36
68
22
26
80
82
1
74
83
37
102
13
29
34
3
103
21
24
51
104
44
30
88
61
96
40
2
58
10
100
5
38
67
55
43
23
87
15
12
75
42
46
25
72
33
31
53
4
49
66
91
57
11
27
7
45
84
89
54
70
78
101

> <PUBCHEM_MMFF94_PARTIAL_CHARGES>
28
1 -0.56
10 0.28
11 0.28
12 0.56
14 0.08
15 0.66
16 -0.15
17 -0.15
18 0.06
19 -0.15
2 -0.43
20 -0.15
21 -0.14
22 0.34
23 0.36
3 -0.68
32 0.4
33 0.4
34 0.15
35 0.15
39 0.15
4 -0.36
40 0.15
5 -0.68
6 -0.57
7 -0.56
8 0.28
9 0.28

> <PUBCHEM_EFFECTIVE_ROTOR_COUNT>
6.2

> <PUBCHEM_PHARMACOPHORE_FEATURES>
10
1 1 acceptor
1 3 acceptor
1 3 donor
1 4 acceptor
1 5 acceptor
1 5 donor
1 6 acceptor
1 7 acceptor
6 1 8 9 10 11 12 rings
6 14 16 17 19 20 21 rings

> <PUBCHEM_HEAVY_ATOM_COUNT>
23

> <PUBCHEM_ATOM_DEF_STEREO_COUNT>
5

> <PUBCHEM_ATOM_UDEF_STEREO_COUNT>
0

> <PUBCHEM_BOND_DEF_STEREO_COUNT>
0

> <PUBCHEM_BOND_UDEF_STEREO_COUNT>
0

> <PUBCHEM_ISOTOPIC_ATOM_COUNT>
0

> <PUBCHEM_COMPONENT_COUNT>
1

> <PUBCHEM_CACTVS_TAUTO_COUNT>
1

> <PUBCHEM_CONFORMER_ID>
009F175500000008

> <PUBCHEM_MMFF94_ENERGY>
70.4474

> <PUBCHEM_FEATURE_SELFOVERLAP>
50.807

> <PUBCHEM_SHAPE_FINGERPRINT>
10366900 7 17775571944457580715
10670039 82 16629980840385814961
12236239 1 16200145448852092991
12633257 1 18113888373193299570
12730499 353 18272376381894998827
13533116 47 17168419355730535707
13583140 156 17096344207844556054
13955234 65 18337107878480842506
14251764 75 18046913959198726084
14341114 328 17531247326376310872
15183329 4 12901547902452313663
15238133 3 17560521694463399632
15342168 16 18341897411133980125
16752209 62 16128386921406987787
17844677 252 18261676952904573581
1813 80 17557160402141090950
19784866 34 18129940199872690968
20157964 124 18411982434578662327
20567600 234 18333734650174489581
21756936 100 17389671010256346268
23557571 272 16443343126779401207
23559900 14 17749970868282373871
23569943 247 10591500377864976405
25147074 1 18201140135585257935
3060560 45 15626222399254915908
427121 178 16732985349371500008
474 4 18343302556739738731
5104073 3 18334020475763083219
7970288 3 7925373826050801968
8272917 22 18272937081090345966
9999458 23 18260831475718101134

> <PUBCHEM_SHAPE_MULTIPOLES>
433.13
12.87
2.46
1.49
19.69
0.16
-0.49
6.16
-0.85
-4.31
0.77
-0.9
-0.03
-0.28

> <PUBCHEM_SHAPE_SELFOVERLAP>
903.089

> <PUBCHEM_SHAPE_VOLUME>
241.2

> <PUBCHEM_COORDINATE_TYPE>
2
5
10

$$$$
