21226412
  -OEChem-11202009043D

  6  5  0     0  0  0  0  0  0999 V2000
    1.5998   -0.0455    0.0001 S   0  0  0  0  0  0  0  0  0  0  0  0
   -0.7263    1.1191    0.0001 O   0  5  0  0  0  0  0  0  0  0  0  0
   -0.7885   -1.1291    0.0001 N   0  0  0  0  0  0  0  0  0  0  0  0
   -0.0850    0.0555   -0.0003 C   0  0  0  0  0  0  0  0  0  0  0  0
   -1.8029   -1.1415    0.0005 H   0  0  0  0  0  0  0  0  0  0  0  0
   -0.3135   -2.0255    0.0002 H   0  0  0  0  0  0  0  0  0  0  0  0
  1  4  2  0  0  0  0
  2  4  1  0  0  0  0
  3  4  1  0  0  0  0
  3  5  1  0  0  0  0
  3  6  1  0  0  0  0
M  CHG  1   2  -1
M  END
> <PUBCHEM_COMPOUND_CID>
21226412

> <PUBCHEM_CONFORMER_RMSD>
0.4

> <PUBCHEM_CONFORMER_DIVERSEORDER>
1

> <PUBCHEM_MMFF94_PARTIAL_CHARGES>
6
1 -0.38
2 -0.86
3 -0.8
4 0.3
5 0.37
6 0.37

> <PUBCHEM_EFFECTIVE_ROTOR_COUNT>
0

> <PUBCHEM_PHARMACOPHORE_FEATURES>
2
1 1 acceptor
4 1 2 3 4 anion

> <PUBCHEM_HEAVY_ATOM_COUNT>
4

> <PUBCHEM_ATOM_DEF_STEREO_COUNT>
0

> <PUBCHEM_ATOM_UDEF_STEREO_COUNT>
0

> <PUBCHEM_BOND_DEF_STEREO_COUNT>
0

> <PUBCHEM_BOND_UDEF_STEREO_COUNT>
0

> <PUBCHEM_ISOTOPIC_ATOM_COUNT>
0

> <PUBCHEM_COMPONENT_COUNT>
1

> <PUBCHEM_CACTVS_TAUTO_COUNT>
2

> <PUBCHEM_CONFORMER_ID>
0143E3AC00000001

> <PUBCHEM_MMFF94_ENERGY>
1.8941

> <PUBCHEM_FEATURE_SELFOVERLAP>
10.148

> <PUBCHEM_SHAPE_FINGERPRINT>
139733 1 9294475804682403490
20096714 4 18192995907213879320
21015797 1 9727640513593864650
5943 1 10393132295758327916

> <PUBCHEM_SHAPE_MULTIPOLES>
75.32
1.62
1.1
0.59
0.79
0.01
0
0.07
0
-0.4
0
0.08
0
0

> <PUBCHEM_SHAPE_SELFOVERLAP>
123.807

> <PUBCHEM_SHAPE_VOLUME>
53

> <PUBCHEM_COORDINATE_TYPE>
2
5
10

$$$$
