86575819
  -OEChem-11202009422D

167170  0     1  0  0  0  0  0999 V2000
   18.6797    3.3100    0.0000 O   0  0  0  0  0  0  0  0  0  0  0  0
   16.9477    3.3100    0.0000 O   0  0  0  0  0  0  0  0  0  0  0  0
   18.6797    1.3100    0.0000 O   0  0  0  0  0  0  0  0  0  0  0  0
   16.9477    0.3100    0.0000 O   0  0  0  0  0  0  0  0  0  0  0  0
   15.2156    1.3100    0.0000 O   0  0  0  0  0  0  0  0  0  0  0  0
   14.3496    2.8100    0.0000 O   0  0  0  0  0  0  0  0  0  0  0  0
   11.7953    2.0749    0.0000 O   0  0  0  0  0  0  0  0  0  0  0  0
   18.7090    9.5069    0.0000 C   0  0  1  0  0  0  0  0  0  0  0  0
   19.5769    9.0102    0.0000 C   0  0  3  0  0  0  0  0  0  0  0  0
   19.5808    8.0102    0.0000 C   0  0  3  0  0  0  0  0  0  0  0  0
   18.7167    7.5069    0.0000 C   0  0  3  0  0  0  0  0  0  0  0  0
   18.9145   10.4795    0.0000 C   0  0  2  0  0  0  0  0  0  0  0  0
   17.8449    9.0035    0.0000 C   0  0  0  0  0  0  0  0  0  0  0  0
   18.7047    6.4653    0.0000 C   0  0  2  0  0  0  0  0  0  0  0  0
   20.3114    9.6801    0.0000 C   0  0  0  0  0  0  0  0  0  0  0  0
   17.8488    8.0036    0.0000 C   0  0  0  0  0  0  0  0  0  0  0  0
   19.9028   10.5864    0.0000 C   0  0  0  0  0  0  0  0  0  0  0  0
   20.4928    7.5069    0.0000 C   0  0  0  0  0  0  0  0  0  0  0  0
   17.8411   10.0035    0.0000 C   0  0  0  0  0  0  0  0  0  0  0  0
   19.6047    5.9410    0.0000 C   0  0  0  0  0  0  0  0  0  0  0  0
   18.2438   11.2212    0.0000 C   0  0  2  0  0  0  0  0  0  0  0  0
   17.7548    5.9410    0.0000 C   0  0  0  0  0  0  0  0  0  0  0  0
   20.5048    6.4653    0.0000 C   0  0  0  0  0  0  0  0  0  0  0  0
   17.8406    6.9687    0.0000 C   0  0  0  0  0  0  0  0  0  0  0  0
   19.6173    4.8561    0.0000 C   0  0  0  0  0  0  0  0  0  0  0  0
   17.7422    4.8561    0.0000 C   0  0  0  0  0  0  0  0  0  0  0  0
   18.6797    4.3100    0.0000 C   0  0  3  0  0  0  0  0  0  0  0  0
   17.2660   11.0112    0.0000 C   0  0  0  0  0  0  0  0  0  0  0  0
   18.5507   12.1729    0.0000 C   0  0  0  0  0  0  0  0  0  0  0  0
   17.8800   12.9146    0.0000 C   0  0  0  0  0  0  0  0  0  0  0  0
   17.8137    2.8100    0.0000 C   0  0  2  0  0  0  0  0  0  0  0  0
   18.1870   13.8664    0.0000 C   0  0  2  0  0  0  0  0  0  0  0  0
   17.8137    1.8100    0.0000 C   0  0  1  0  0  0  0  0  0  0  0  0
   17.5163   14.6081    0.0000 C   0  0  0  0  0  0  0  0  0  0  0  0
   19.1647   14.0763    0.0000 C   0  0  0  0  0  0  0  0  0  0  0  0
   16.9477    1.3100    0.0000 C   0  0  2  0  0  0  0  0  0  0  0  0
   16.0817    2.8100    0.0000 C   0  0  1  0  0  0  0  0  0  0  0  0
   16.0817    1.8100    0.0000 C   0  0  1  0  0  0  0  0  0  0  0  0
   17.8233   15.5598    0.0000 C   0  0  0  0  0  0  0  0  0  0  0  0
   16.5386   14.3981    0.0000 C   0  0  0  0  0  0  0  0  0  0  0  0
   19.4717   15.0281    0.0000 C   0  0  0  0  0  0  0  0  0  0  0  0
   15.2156    3.3100    0.0000 C   0  0  0  0  0  0  0  0  0  0  0  0
    4.8671    8.0749    0.0000 C   0  0  0  0  0  0  0  0  0  0  0  0
    4.0010    8.5749    0.0000 C   0  0  0  0  0  0  0  0  0  0  0  0
    4.8671    7.0749    0.0000 C   0  0  0  0  0  0  0  0  0  0  0  0
    5.7331    5.5749    0.0000 C   0  0  0  0  0  0  0  0  0  0  0  0
    6.5991    5.0749    0.0000 C   0  0  0  0  0  0  0  0  0  0  0  0
    8.3312    4.0749    0.0000 C   0  0  0  0  0  0  0  0  0  0  0  0
    7.4651    3.5749    0.0000 C   0  0  0  0  0  0  0  0  0  0  0  0
    5.7331    6.5749    0.0000 C   0  0  0  0  0  0  0  0  0  0  0  0
    9.1972    3.5749    0.0000 C   0  0  0  0  0  0  0  0  0  0  0  0
    6.5991    4.0749    0.0000 C   0  0  0  0  0  0  0  0  0  0  0  0
    3.1350   10.0749    0.0000 C   0  0  0  0  0  0  0  0  0  0  0  0
    4.0010    9.5749    0.0000 C   0  0  0  0  0  0  0  0  0  0  0  0
    3.1350   11.0749    0.0000 C   0  0  0  0  0  0  0  0  0  0  0  0
    4.0010    6.5749    0.0000 C   0  0  0  0  0  0  0  0  0  0  0  0
    2.2690   11.5749    0.0000 C   0  0  0  0  0  0  0  0  0  0  0  0
   10.0632    4.0749    0.0000 C   0  0  0  0  0  0  0  0  0  0  0  0
    7.4651    2.5749    0.0000 C   0  0  0  0  0  0  0  0  0  0  0  0
    2.2690    9.5749    0.0000 C   0  0  0  0  0  0  0  0  0  0  0  0
    2.2690   12.5749    0.0000 C   0  0  0  0  0  0  0  0  0  0  0  0
   10.0632    5.0749    0.0000 C   0  0  0  0  0  0  0  0  0  0  0  0
   10.9292    3.5749    0.0000 C   0  0  0  0  0  0  0  0  0  0  0  0
    1.4030   13.0749    0.0000 C   0  0  0  0  0  0  0  0  0  0  0  0
   10.9292    2.5749    0.0000 C   0  0  0  0  0  0  0  0  0  0  0  0
    1.4030   14.0749    0.0000 C   0  0  0  0  0  0  0  0  0  0  0  0
    0.5369   12.5749    0.0000 C   0  0  0  0  0  0  0  0  0  0  0  0
   20.1446    8.7610    0.0000 H   0  0  0  0  0  0  0  0  0  0  0  0
   20.1141    8.3264    0.0000 H   0  0  0  0  0  0  0  0  0  0  0  0
   19.2524    7.1948    0.0000 H   0  0  0  0  0  0  0  0  0  0  0  0
   19.2170   11.2738    0.0000 H   0  0  0  0  0  0  0  0  0  0  0  0
   17.6306    9.5853    0.0000 H   0  0  0  0  0  0  0  0  0  0  0  0
   17.2347    8.8935    0.0000 H   0  0  0  0  0  0  0  0  0  0  0  0
   20.6788    9.1807    0.0000 H   0  0  0  0  0  0  0  0  0  0  0  0
   20.8467    9.9930    0.0000 H   0  0  0  0  0  0  0  0  0  0  0  0
   17.2378    8.1088    0.0000 H   0  0  0  0  0  0  0  0  0  0  0  0
   17.6390    7.4201    0.0000 H   0  0  0  0  0  0  0  0  0  0  0  0
   20.4916   10.7804    0.0000 H   0  0  0  0  0  0  0  0  0  0  0  0
   19.7717   11.1923    0.0000 H   0  0  0  0  0  0  0  0  0  0  0  0
   21.1048    7.4079    0.0000 H   0  0  0  0  0  0  0  0  0  0  0  0
   20.6950    8.0930    0.0000 H   0  0  0  0  0  0  0  0  0  0  0  0
   18.1490   10.5417    0.0000 H   0  0  0  0  0  0  0  0  0  0  0  0
   17.3029   10.3115    0.0000 H   0  0  0  0  0  0  0  0  0  0  0  0
   17.5331    9.4654    0.0000 H   0  0  0  0  0  0  0  0  0  0  0  0
   17.8279   11.6811    0.0000 H   0  0  0  0  0  0  0  0  0  0  0  0
   17.5525    6.5271    0.0000 H   0  0  0  0  0  0  0  0  0  0  0  0
   17.1427    5.8420    0.0000 H   0  0  0  0  0  0  0  0  0  0  0  0
   21.0441    6.1595    0.0000 H   0  0  0  0  0  0  0  0  0  0  0  0
   18.1526    7.5044    0.0000 H   0  0  0  0  0  0  0  0  0  0  0  0
   17.3048    7.2807    0.0000 H   0  0  0  0  0  0  0  0  0  0  0  0
   17.5285    6.4329    0.0000 H   0  0  0  0  0  0  0  0  0  0  0  0
   19.8331    4.2749    0.0000 H   0  0  0  0  0  0  0  0  0  0  0  0
   20.2269    4.9693    0.0000 H   0  0  0  0  0  0  0  0  0  0  0  0
   17.1326    4.9693    0.0000 H   0  0  0  0  0  0  0  0  0  0  0  0
   17.5264    4.2749    0.0000 H   0  0  0  0  0  0  0  0  0  0  0  0
   19.2173    4.0010    0.0000 H   0  0  0  0  0  0  0  0  0  0  0  0
   17.1359   11.6174    0.0000 H   0  0  0  0  0  0  0  0  0  0  0  0
   16.6599   10.8810    0.0000 H   0  0  0  0  0  0  0  0  0  0  0  0
   17.3962   10.4050    0.0000 H   0  0  0  0  0  0  0  0  0  0  0  0
   19.1569   12.3031    0.0000 H   0  0  0  0  0  0  0  0  0  0  0  0
   17.2739   12.7844    0.0000 H   0  0  0  0  0  0  0  0  0  0  0  0
   17.8137    3.4300    0.0000 H   0  0  0  0  0  0  0  0  0  0  0  0
   18.3774   14.4564    0.0000 H   0  0  0  0  0  0  0  0  0  0  0  0
   17.8137    1.1900    0.0000 H   0  0  0  0  0  0  0  0  0  0  0  0
   17.3260   14.0180    0.0000 H   0  0  0  0  0  0  0  0  0  0  0  0
   19.1877   13.4568    0.0000 H   0  0  0  0  0  0  0  0  0  0  0  0
   19.7789   13.9914    0.0000 H   0  0  0  0  0  0  0  0  0  0  0  0
   16.4108    1.0000    0.0000 H   0  0  0  0  0  0  0  0  0  0  0  0
   16.0817    3.4300    0.0000 H   0  0  0  0  0  0  0  0  0  0  0  0
   16.0817    1.1900    0.0000 H   0  0  0  0  0  0  0  0  0  0  0  0
   18.4134   15.3694    0.0000 H   0  0  0  0  0  0  0  0  0  0  0  0
   18.0137   16.1498    0.0000 H   0  0  0  0  0  0  0  0  0  0  0  0
   17.2333   15.7501    0.0000 H   0  0  0  0  0  0  0  0  0  0  0  0
   16.4084   15.0043    0.0000 H   0  0  0  0  0  0  0  0  0  0  0  0
   15.9324   14.2679    0.0000 H   0  0  0  0  0  0  0  0  0  0  0  0
   16.6688   13.7919    0.0000 H   0  0  0  0  0  0  0  0  0  0  0  0
   20.0618   14.8377    0.0000 H   0  0  0  0  0  0  0  0  0  0  0  0
   19.6621   15.6181    0.0000 H   0  0  0  0  0  0  0  0  0  0  0  0
   18.8817   15.2184    0.0000 H   0  0  0  0  0  0  0  0  0  0  0  0
   18.6797    0.6900    0.0000 H   0  0  0  0  0  0  0  0  0  0  0  0
   15.6142    3.7850    0.0000 H   0  0  0  0  0  0  0  0  0  0  0  0
   14.8171    3.7850    0.0000 H   0  0  0  0  0  0  0  0  0  0  0  0
   16.4108    0.0000    0.0000 H   0  0  0  0  0  0  0  0  0  0  0  0
   15.2156    0.6900    0.0000 H   0  0  0  0  0  0  0  0  0  0  0  0
   13.8127    3.1200    0.0000 H   0  0  0  0  0  0  0  0  0  0  0  0
    5.4776    7.9673    0.0000 H   0  0  0  0  0  0  0  0  0  0  0  0
    5.0791    8.6575    0.0000 H   0  0  0  0  0  0  0  0  0  0  0  0
    3.3905    8.6826    0.0000 H   0  0  0  0  0  0  0  0  0  0  0  0
    3.7890    7.9923    0.0000 H   0  0  0  0  0  0  0  0  0  0  0  0
    5.1225    5.6826    0.0000 H   0  0  0  0  0  0  0  0  0  0  0  0
    5.5210    4.9923    0.0000 H   0  0  0  0  0  0  0  0  0  0  0  0
    7.2097    4.9673    0.0000 H   0  0  0  0  0  0  0  0  0  0  0  0
    6.8112    5.6575    0.0000 H   0  0  0  0  0  0  0  0  0  0  0  0
    8.7297    4.5499    0.0000 H   0  0  0  0  0  0  0  0  0  0  0  0
    7.9326    4.5499    0.0000 H   0  0  0  0  0  0  0  0  0  0  0  0
    6.2700    6.8849    0.0000 H   0  0  0  0  0  0  0  0  0  0  0  0
    8.7987    3.1000    0.0000 H   0  0  0  0  0  0  0  0  0  0  0  0
    9.5957    3.1000    0.0000 H   0  0  0  0  0  0  0  0  0  0  0  0
    6.0622    3.7649    0.0000 H   0  0  0  0  0  0  0  0  0  0  0  0
    4.5380    9.8849    0.0000 H   0  0  0  0  0  0  0  0  0  0  0  0
    3.7456   10.9673    0.0000 H   0  0  0  0  0  0  0  0  0  0  0  0
    3.3471   11.6575    0.0000 H   0  0  0  0  0  0  0  0  0  0  0  0
    3.6910    7.1119    0.0000 H   0  0  0  0  0  0  0  0  0  0  0  0
    3.4641    6.2649    0.0000 H   0  0  0  0  0  0  0  0  0  0  0  0
    4.3110    6.0380    0.0000 H   0  0  0  0  0  0  0  0  0  0  0  0
    1.6584   11.6826    0.0000 H   0  0  0  0  0  0  0  0  0  0  0  0
    2.0569   10.9923    0.0000 H   0  0  0  0  0  0  0  0  0  0  0  0
    6.8451    2.5749    0.0000 H   0  0  0  0  0  0  0  0  0  0  0  0
    7.4651    1.9549    0.0000 H   0  0  0  0  0  0  0  0  0  0  0  0
    8.0851    2.5749    0.0000 H   0  0  0  0  0  0  0  0  0  0  0  0
    1.9590   10.1119    0.0000 H   0  0  0  0  0  0  0  0  0  0  0  0
    1.7320    9.2649    0.0000 H   0  0  0  0  0  0  0  0  0  0  0  0
    2.5790    9.0380    0.0000 H   0  0  0  0  0  0  0  0  0  0  0  0
    2.8059   12.8849    0.0000 H   0  0  0  0  0  0  0  0  0  0  0  0
   10.6832    5.0749    0.0000 H   0  0  0  0  0  0  0  0  0  0  0  0
   10.0632    5.6949    0.0000 H   0  0  0  0  0  0  0  0  0  0  0  0
    9.4432    5.0749    0.0000 H   0  0  0  0  0  0  0  0  0  0  0  0
   11.4662    3.8849    0.0000 H   0  0  0  0  0  0  0  0  0  0  0  0
   10.3187    2.6826    0.0000 H   0  0  0  0  0  0  0  0  0  0  0  0
   10.7172    1.9923    0.0000 H   0  0  0  0  0  0  0  0  0  0  0  0
    2.0230   14.0749    0.0000 H   0  0  0  0  0  0  0  0  0  0  0  0
    1.4030   14.6949    0.0000 H   0  0  0  0  0  0  0  0  0  0  0  0
    0.7830   14.0749    0.0000 H   0  0  0  0  0  0  0  0  0  0  0  0
    0.2269   13.1119    0.0000 H   0  0  0  0  0  0  0  0  0  0  0  0
    0.0000   12.2649    0.0000 H   0  0  0  0  0  0  0  0  0  0  0  0
    0.8469   12.0380    0.0000 H   0  0  0  0  0  0  0  0  0  0  0  0
   11.7953    1.4549    0.0000 H   0  0  0  0  0  0  0  0  0  0  0  0
  1 27  1  0  0  0  0
 31  1  1  1  0  0  0
  2 31  1  0  0  0  0
  2 37  1  0  0  0  0
 33  3  1  6  0  0  0
  3120  1  0  0  0  0
 36  4  1  1  0  0  0
  4123  1  0  0  0  0
 38  5  1  6  0  0  0
  5124  1  0  0  0  0
  6 42  1  0  0  0  0
  6125  1  0  0  0  0
  7 65  1  0  0  0  0
  7167  1  0  0  0  0
  8  9  1  0  0  0  0
  8 12  1  0  0  0  0
  8 13  1  0  0  0  0
  8 19  1  1  0  0  0
  9 10  1  0  0  0  0
  9 15  1  0  0  0  0
  9 68  1  0  0  0  0
 10 11  1  0  0  0  0
 10 18  1  0  0  0  0
 10 69  1  0  0  0  0
 11 14  1  0  0  0  0
 11 16  1  0  0  0  0
 11 70  1  0  0  0  0
 12 17  1  0  0  0  0
 12 21  1  0  0  0  0
 12 71  1  6  0  0  0
 13 16  1  0  0  0  0
 13 72  1  0  0  0  0
 13 73  1  0  0  0  0
 14 20  1  0  0  0  0
 14 22  1  0  0  0  0
 14 24  1  1  0  0  0
 15 17  1  0  0  0  0
 15 74  1  0  0  0  0
 15 75  1  0  0  0  0
 16 76  1  0  0  0  0
 16 77  1  0  0  0  0
 17 78  1  0  0  0  0
 17 79  1  0  0  0  0
 18 23  1  0  0  0  0
 18 80  1  0  0  0  0
 18 81  1  0  0  0  0
 19 82  1  0  0  0  0
 19 83  1  0  0  0  0
 19 84  1  0  0  0  0
 20 23  2  0  0  0  0
 20 25  1  0  0  0  0
 21 28  1  6  0  0  0
 21 29  1  0  0  0  0
 21 85  1  0  0  0  0
 22 26  1  0  0  0  0
 22 86  1  0  0  0  0
 22 87  1  0  0  0  0
 23 88  1  0  0  0  0
 24 89  1  0  0  0  0
 24 90  1  0  0  0  0
 24 91  1  0  0  0  0
 25 27  1  0  0  0  0
 25 92  1  0  0  0  0
 25 93  1  0  0  0  0
 26 27  1  0  0  0  0
 26 94  1  0  0  0  0
 26 95  1  0  0  0  0
 27 96  1  0  0  0  0
 28 97  1  0  0  0  0
 28 98  1  0  0  0  0
 28 99  1  0  0  0  0
 29 30  2  0  0  0  0
 29100  1  0  0  0  0
 30 32  1  0  0  0  0
 30101  1  0  0  0  0
 31 33  1  0  0  0  0
 31102  1  0  0  0  0
 32 34  1  0  0  0  0
 32 35  1  6  0  0  0
 32103  1  0  0  0  0
 33 36  1  0  0  0  0
 33104  1  0  0  0  0
 34 39  1  0  0  0  0
 34 40  1  0  0  0  0
 34105  1  0  0  0  0
 35 41  1  0  0  0  0
 35106  1  0  0  0  0
 35107  1  0  0  0  0
 36 38  1  0  0  0  0
 36108  1  0  0  0  0
 37 38  1  0  0  0  0
 37 42  1  1  0  0  0
 37109  1  0  0  0  0
 38110  1  0  0  0  0
 39111  1  0  0  0  0
 39112  1  0  0  0  0
 39113  1  0  0  0  0
 40114  1  0  0  0  0
 40115  1  0  0  0  0
 40116  1  0  0  0  0
 41117  1  0  0  0  0
 41118  1  0  0  0  0
 41119  1  0  0  0  0
 42121  1  0  0  0  0
 42122  1  0  0  0  0
 43 44  1  0  0  0  0
 43 45  1  0  0  0  0
 43126  1  0  0  0  0
 43127  1  0  0  0  0
 44 54  1  0  0  0  0
 44128  1  0  0  0  0
 44129  1  0  0  0  0
 45 50  2  0  0  0  0
 45 56  1  0  0  0  0
 46 47  1  0  0  0  0
 46 50  1  0  0  0  0
 46130  1  0  0  0  0
 46131  1  0  0  0  0
 47 52  1  0  0  0  0
 47132  1  0  0  0  0
 47133  1  0  0  0  0
 48 49  1  0  0  0  0
 48 51  1  0  0  0  0
 48134  1  0  0  0  0
 48135  1  0  0  0  0
 49 52  2  0  0  0  0
 49 59  1  0  0  0  0
 50136  1  0  0  0  0
 51 58  1  0  0  0  0
 51137  1  0  0  0  0
 51138  1  0  0  0  0
 52139  1  0  0  0  0
 53 54  2  0  0  0  0
 53 55  1  0  0  0  0
 53 60  1  0  0  0  0
 54140  1  0  0  0  0
 55 57  1  0  0  0  0
 55141  1  0  0  0  0
 55142  1  0  0  0  0
 56143  1  0  0  0  0
 56144  1  0  0  0  0
 56145  1  0  0  0  0
 57 61  1  0  0  0  0
 57146  1  0  0  0  0
 57147  1  0  0  0  0
 58 62  1  0  0  0  0
 58 63  2  0  0  0  0
 59148  1  0  0  0  0
 59149  1  0  0  0  0
 59150  1  0  0  0  0
 60151  1  0  0  0  0
 60152  1  0  0  0  0
 60153  1  0  0  0  0
 61 64  2  0  0  0  0
 61154  1  0  0  0  0
 62155  1  0  0  0  0
 62156  1  0  0  0  0
 62157  1  0  0  0  0
 63 65  1  0  0  0  0
 63158  1  0  0  0  0
 64 66  1  0  0  0  0
 64 67  1  0  0  0  0
 65159  1  0  0  0  0
 65160  1  0  0  0  0
 66161  1  0  0  0  0
 66162  1  0  0  0  0
 66163  1  0  0  0  0
 67164  1  0  0  0  0
 67165  1  0  0  0  0
 67166  1  0  0  0  0
M  END
> <PUBCHEM_COMPOUND_CID>
86575819

> <PUBCHEM_COMPOUND_CANONICALIZED>
1

> <PUBCHEM_CACTVS_COMPLEXITY>
1480

> <PUBCHEM_CACTVS_HBOND_ACCEPTOR>
7

> <PUBCHEM_CACTVS_HBOND_DONOR>
5

> <PUBCHEM_CACTVS_ROTATABLE_BOND>
21

> <PUBCHEM_CACTVS_SUBSKEYS>
AAADcfB8OAAAAAAAAAAAAAAAAAAAAYAAAAA0YIEAAAAAAGCAAAAAGgAACAAADxSwgAMCCAAABgCAAiBCAAAAAAAgAAAICAAAAAgRFAIAAQAiUAAFwAAPEAPA4PwPgAAAAAAAAADAAAQAACAAAQAACAAAAA==

> <PUBCHEM_IUPAC_OPENEYE_NAME>
(2R,3R,4S,5S,6R)-2-[[(10R,13R,17R)-17-[(E,1R,4S)-4-ethyl-1,5-dimethyl-hex-2-enyl]-10,13-dimethyl-2,3,4,7,8,9,11,12,14,15,16,17-dodecahydro-1H-cyclopenta[a]phenanthren-3-yl]oxy]-6-(hydroxymethyl)tetrahydropyran-3,4,5-triol;(2Z,6Z,10E,14E)-3,6,11,15,19-pentamethylicosa-2,6,10,14,18-pentaen-1-ol

> <PUBCHEM_IUPAC_CAS_NAME>
(2R,3R,4S,5S,6R)-2-[[(10R,13R,17R)-17-[(E,2R,5S)-5-ethyl-6-methylhept-3-en-2-yl]-10,13-dimethyl-2,3,4,7,8,9,11,12,14,15,16,17-dodecahydro-1H-cyclopenta[a]phenanthren-3-yl]oxy]-6-(hydroxymethyl)oxane-3,4,5-triol;(2Z,6Z,10E,14E)-3,6,11,15,19-pentamethyl-1-eicosa-2,6,10,14,18-pentaenol

> <PUBCHEM_IUPAC_NAME_MARKUP>
(2<I>R</I>,3<I>R</I>,4<I>S</I>,5<I>S</I>,6<I>R</I>)-2-[[(10<I>R</I>,13<I>R</I>,17<I>R</I>)-17-[(<I>E</I>,2<I>R</I>,5<I>S</I>)-5-ethyl-6-methylhept-3-en-2-yl]-10,13-dimethyl-2,3,4,7,8,9,11,12,14,15,16,17-dodecahydro-1<I>H</I>-cyclopenta[a]phenanthren-3-yl]oxy]-6-(hydroxymethyl)oxane-3,4,5-triol;(2<I>Z</I>,6<I>Z</I>,10<I>E</I>,14<I>E</I>)-3,6,11,15,19-pentamethylicosa-2,6,10,14,18-pentaen-1-ol

> <PUBCHEM_IUPAC_NAME>
(2R,3R,4S,5S,6R)-2-[[(10R,13R,17R)-17-[(E,2R,5S)-5-ethyl-6-methylhept-3-en-2-yl]-10,13-dimethyl-2,3,4,7,8,9,11,12,14,15,16,17-dodecahydro-1H-cyclopenta[a]phenanthren-3-yl]oxy]-6-(hydroxymethyl)oxane-3,4,5-triol;(2Z,6Z,10E,14E)-3,6,11,15,19-pentamethylicosa-2,6,10,14,18-pentaen-1-ol

> <PUBCHEM_IUPAC_SYSTEMATIC_NAME>
(2R,3R,4S,5S,6R)-2-[[(10R,13R,17R)-17-[(E,2R,5S)-5-ethyl-6-methyl-hept-3-en-2-yl]-10,13-dimethyl-2,3,4,7,8,9,11,12,14,15,16,17-dodecahydro-1H-cyclopenta[a]phenanthren-3-yl]oxy]-6-(hydroxymethyl)oxane-3,4,5-triol;(2Z,6Z,10E,14E)-3,6,11,15,19-pentamethylicosa-2,6,10,14,18-pentaen-1-ol

> <PUBCHEM_IUPAC_TRADITIONAL_NAME>
(2R,3R,4S,5S,6R)-2-[[(10R,13R,17R)-17-[(E,1R,4S)-4-ethyl-1,5-dimethyl-hex-2-enyl]-10,13-dimethyl-2,3,4,7,8,9,11,12,14,15,16,17-dodecahydro-1H-cyclopenta[a]phenanthren-3-yl]oxy]-6-methylol-tetrahydropyran-3,4,5-triol;(2Z,6Z,10E,14E)-3,6,11,15,19-pentamethyleicosa-2,6,10,14,18-pentaen-1-ol

> <PUBCHEM_IUPAC_INCHI>
InChI=1S/C35H58O6.C25H42O/c1-7-22(20(2)3)9-8-21(4)26-12-13-27-25-11-10-23-18-24(14-16-34(23,5)28(25)15-17-35(26,27)6)40-33-32(39)31(38)30(37)29(19-36)41-33;1-21(2)11-9-14-23(4)16-10-15-22(3)12-7-8-13-24(5)17-18-25(6)19-20-26/h8-10,20-22,24-33,36-39H,7,11-19H2,1-6H3;11-13,16,19,26H,7-10,14-15,17-18,20H2,1-6H3/b9-8+;22-12+,23-16+,24-13-,25-19-/t21-,22-,24?,25?,26-,27?,28?,29-,30-,31+,32-,33-,34+,35-;/m1./s1

> <PUBCHEM_IUPAC_INCHIKEY>
KXMNRIKXHMTOQD-CYARUYDRSA-N

> <PUBCHEM_EXACT_MASS>
932.746906

> <PUBCHEM_MOLECULAR_FORMULA>
C60H100O7

> <PUBCHEM_MOLECULAR_WEIGHT>
933.4

> <PUBCHEM_OPENEYE_CAN_SMILES>
CCC(C=CC(C)C1CCC2C1(CCC3C2CC=C4C3(CCC(C4)OC5C(C(C(C(O5)CO)O)O)O)C)C)C(C)C.CC(=CCCC(=CCCC(=CCCC=C(C)CCC(=CCO)C)C)C)C

> <PUBCHEM_OPENEYE_ISO_SMILES>
CC[C@H](/C=C/[C@@H](C)[C@H]1CCC2[C@@]1(CCC3C2CC=C4[C@@]3(CCC(C4)O[C@H]5[C@@H]([C@H]([C@@H]([C@H](O5)CO)O)O)O)C)C)C(C)C.CC(=CCC/C(=C/CC/C(=C/CC/C=C(/C)\CC/C(=C\CO)/C)/C)/C)C

> <PUBCHEM_CACTVS_TPSA>
120

> <PUBCHEM_MONOISOTOPIC_WEIGHT>
932.746906

> <PUBCHEM_TOTAL_CHARGE>
0

> <PUBCHEM_HEAVY_ATOM_COUNT>
67

> <PUBCHEM_ATOM_DEF_STEREO_COUNT>
10

> <PUBCHEM_ATOM_UDEF_STEREO_COUNT>
4

> <PUBCHEM_BOND_DEF_STEREO_COUNT>
5

> <PUBCHEM_BOND_UDEF_STEREO_COUNT>
0

> <PUBCHEM_ISOTOPIC_ATOM_COUNT>
0

> <PUBCHEM_COMPONENT_COUNT>
2

> <PUBCHEM_CACTVS_TAUTO_COUNT>
-1

> <PUBCHEM_COORDINATE_TYPE>
1
5
255

> <PUBCHEM_BONDANNOTATIONS>
27  1  3
31  1  5
10  18  3
11  16  3
12  71  6
14  24  5
21  28  6
33  3  6
32  35  6
37  42  5
36  4  5
38  5  6
8  19  5
9  15  3

$$$$
