16061280
  -OEChem-11202008392D

120121  0     1  0  0  0  0  0999 V2000
    4.2690   -8.7780    0.0000 O   0  0  0  0  0  0  0  0  0  0  0  0
    6.0010   -8.7780    0.0000 O   0  0  0  0  0  0  0  0  0  0  0  0
    6.0010  -10.7780    0.0000 O   0  0  0  0  0  0  0  0  0  0  0  0
    4.2690  -11.7780    0.0000 O   0  0  0  0  0  0  0  0  0  0  0  0
    2.5369  -10.7780    0.0000 O   0  0  0  0  0  0  0  0  0  0  0  0
    2.5369   -7.7780    0.0000 O   0  0  0  0  0  0  0  0  0  0  0  0
   16.3933   11.2220    0.0000 C   0  0  0  0  0  0  0  0  0  0  0  0
   17.2594   11.7220    0.0000 C   0  0  0  0  0  0  0  0  0  0  0  0
   18.1254   11.2220    0.0000 C   0  0  0  0  0  0  0  0  0  0  0  0
   16.3933   10.2220    0.0000 C   0  0  0  0  0  0  0  0  0  0  0  0
    5.1350  -10.2780    0.0000 C   0  0  3  0  0  0  0  0  0  0  0  0
    4.2690  -10.7780    0.0000 C   0  0  3  0  0  0  0  0  0  0  0  0
   18.1254   10.2220    0.0000 C   0  0  0  0  0  0  0  0  0  0  0  0
    5.1350   -9.2780    0.0000 C   0  0  1  0  0  0  0  0  0  0  0  0
    3.4030  -10.2780    0.0000 C   0  0  1  0  0  0  0  0  0  0  0  0
   17.2594    9.7220    0.0000 C   0  0  0  0  0  0  0  0  0  0  0  0
    3.4030   -9.2780    0.0000 C   0  0  1  0  0  0  0  0  0  0  0  0
   15.8933   12.0880    0.0000 C   0  0  0  0  0  0  0  0  0  0  0  0
   15.3933   11.2220    0.0000 C   0  0  0  0  0  0  0  0  0  0  0  0
    6.0010   -7.7780    0.0000 C   0  0  0  0  0  0  0  0  0  0  0  0
    6.0010   -6.7780    0.0000 C   0  0  0  0  0  0  0  0  0  0  0  0
    2.5369   -8.7780    0.0000 C   0  0  0  0  0  0  0  0  0  0  0  0
   15.5273    9.7220    0.0000 C   0  0  0  0  0  0  0  0  0  0  0  0
   17.2594    8.7220    0.0000 C   0  0  0  0  0  0  0  0  0  0  0  0
    7.0010   -7.7780    0.0000 C   0  0  0  0  0  0  0  0  0  0  0  0
    5.0010   -7.7780    0.0000 C   0  0  0  0  0  0  0  0  0  0  0  0
    6.8671   -6.2780    0.0000 C   0  0  0  0  0  0  0  0  0  0  0  0
    6.8671   -5.2780    0.0000 C   0  0  0  0  0  0  0  0  0  0  0  0
   15.5273    8.7220    0.0000 C   0  0  0  0  0  0  0  0  0  0  0  0
    7.7331   -4.7780    0.0000 C   0  0  0  0  0  0  0  0  0  0  0  0
   14.6613    8.2220    0.0000 C   0  0  0  0  0  0  0  0  0  0  0  0
    8.5991   -5.2780    0.0000 C   0  0  0  0  0  0  0  0  0  0  0  0
    7.7331   -3.7780    0.0000 C   0  0  0  0  0  0  0  0  0  0  0  0
   13.7953    8.7220    0.0000 C   0  0  0  0  0  0  0  0  0  0  0  0
   14.6613    7.2220    0.0000 C   0  0  0  0  0  0  0  0  0  0  0  0
    8.5991   -3.2780    0.0000 C   0  0  0  0  0  0  0  0  0  0  0  0
   13.7953    6.7220    0.0000 C   0  0  0  0  0  0  0  0  0  0  0  0
    8.5991   -2.2780    0.0000 C   0  0  0  0  0  0  0  0  0  0  0  0
   13.7953    5.7220    0.0000 C   0  0  0  0  0  0  0  0  0  0  0  0
    9.4651   -1.7780    0.0000 C   0  0  0  0  0  0  0  0  0  0  0  0
   12.9292    5.2220    0.0000 C   0  0  0  0  0  0  0  0  0  0  0  0
   10.3312   -2.2780    0.0000 C   0  0  0  0  0  0  0  0  0  0  0  0
    9.4651   -0.7780    0.0000 C   0  0  0  0  0  0  0  0  0  0  0  0
   12.0632    5.7220    0.0000 C   0  0  0  0  0  0  0  0  0  0  0  0
   12.9292    4.2220    0.0000 C   0  0  0  0  0  0  0  0  0  0  0  0
   10.3312   -0.2780    0.0000 C   0  0  0  0  0  0  0  0  0  0  0  0
   12.0632    3.7220    0.0000 C   0  0  0  0  0  0  0  0  0  0  0  0
   10.3312    0.7220    0.0000 C   0  0  0  0  0  0  0  0  0  0  0  0
   12.0632    2.7220    0.0000 C   0  0  0  0  0  0  0  0  0  0  0  0
   11.1972    1.2220    0.0000 C   0  0  0  0  0  0  0  0  0  0  0  0
   11.1972    2.2220    0.0000 C   0  0  0  0  0  0  0  0  0  0  0  0
   12.0632    0.7220    0.0000 C   0  0  0  0  0  0  0  0  0  0  0  0
   17.6579   12.1969    0.0000 H   0  0  0  0  0  0  0  0  0  0  0  0
   16.8608   12.1969    0.0000 H   0  0  0  0  0  0  0  0  0  0  0  0
   18.7360   11.1143    0.0000 H   0  0  0  0  0  0  0  0  0  0  0  0
   18.3374   11.8046    0.0000 H   0  0  0  0  0  0  0  0  0  0  0  0
    5.1350  -10.8980    0.0000 H   0  0  0  0  0  0  0  0  0  0  0  0
    3.7320  -11.0880    0.0000 H   0  0  0  0  0  0  0  0  0  0  0  0
    5.1350   -8.6580    0.0000 H   0  0  0  0  0  0  0  0  0  0  0  0
   18.3374    9.6394    0.0000 H   0  0  0  0  0  0  0  0  0  0  0  0
   18.7360   10.3296    0.0000 H   0  0  0  0  0  0  0  0  0  0  0  0
    3.4030  -10.8980    0.0000 H   0  0  0  0  0  0  0  0  0  0  0  0
    3.4030   -8.6580    0.0000 H   0  0  0  0  0  0  0  0  0  0  0  0
   16.4303   12.3980    0.0000 H   0  0  0  0  0  0  0  0  0  0  0  0
   15.5833   12.6249    0.0000 H   0  0  0  0  0  0  0  0  0  0  0  0
   15.3564   11.7780    0.0000 H   0  0  0  0  0  0  0  0  0  0  0  0
   15.3933   11.8420    0.0000 H   0  0  0  0  0  0  0  0  0  0  0  0
   14.7733   11.2220    0.0000 H   0  0  0  0  0  0  0  0  0  0  0  0
   15.3933   10.6020    0.0000 H   0  0  0  0  0  0  0  0  0  0  0  0
    5.7890   -6.1954    0.0000 H   0  0  0  0  0  0  0  0  0  0  0  0
    5.3905   -6.8857    0.0000 H   0  0  0  0  0  0  0  0  0  0  0  0
    1.9264   -8.6703    0.0000 H   0  0  0  0  0  0  0  0  0  0  0  0
    2.3249   -9.3606    0.0000 H   0  0  0  0  0  0  0  0  0  0  0  0
   14.9904   10.0320    0.0000 H   0  0  0  0  0  0  0  0  0  0  0  0
   16.6394    8.7220    0.0000 H   0  0  0  0  0  0  0  0  0  0  0  0
   17.2594    8.1020    0.0000 H   0  0  0  0  0  0  0  0  0  0  0  0
   17.8794    8.7220    0.0000 H   0  0  0  0  0  0  0  0  0  0  0  0
    7.0010   -8.3980    0.0000 H   0  0  0  0  0  0  0  0  0  0  0  0
    7.6210   -7.7780    0.0000 H   0  0  0  0  0  0  0  0  0  0  0  0
    7.0010   -7.1580    0.0000 H   0  0  0  0  0  0  0  0  0  0  0  0
    5.0010   -7.1580    0.0000 H   0  0  0  0  0  0  0  0  0  0  0  0
    4.3810   -7.7780    0.0000 H   0  0  0  0  0  0  0  0  0  0  0  0
    5.0010   -8.3980    0.0000 H   0  0  0  0  0  0  0  0  0  0  0  0
    7.0791   -6.8606    0.0000 H   0  0  0  0  0  0  0  0  0  0  0  0
    7.4776   -6.1704    0.0000 H   0  0  0  0  0  0  0  0  0  0  0  0
    6.5380  -10.4680    0.0000 H   0  0  0  0  0  0  0  0  0  0  0  0
    3.7320  -12.0880    0.0000 H   0  0  0  0  0  0  0  0  0  0  0  0
    2.0000  -10.4680    0.0000 H   0  0  0  0  0  0  0  0  0  0  0  0
    6.6550   -4.6954    0.0000 H   0  0  0  0  0  0  0  0  0  0  0  0
    6.2565   -5.3857    0.0000 H   0  0  0  0  0  0  0  0  0  0  0  0
   16.0643    8.4120    0.0000 H   0  0  0  0  0  0  0  0  0  0  0  0
    2.0000   -7.4680    0.0000 H   0  0  0  0  0  0  0  0  0  0  0  0
    8.2891   -5.8149    0.0000 H   0  0  0  0  0  0  0  0  0  0  0  0
    9.1360   -5.5880    0.0000 H   0  0  0  0  0  0  0  0  0  0  0  0
    8.9091   -4.7411    0.0000 H   0  0  0  0  0  0  0  0  0  0  0  0
    7.1962   -3.4680    0.0000 H   0  0  0  0  0  0  0  0  0  0  0  0
   14.1053    9.2589    0.0000 H   0  0  0  0  0  0  0  0  0  0  0  0
   13.2583    9.0320    0.0000 H   0  0  0  0  0  0  0  0  0  0  0  0
   13.4853    8.1850    0.0000 H   0  0  0  0  0  0  0  0  0  0  0  0
   15.1982    6.9120    0.0000 H   0  0  0  0  0  0  0  0  0  0  0  0
    9.1360   -3.5880    0.0000 H   0  0  0  0  0  0  0  0  0  0  0  0
   13.2583    7.0320    0.0000 H   0  0  0  0  0  0  0  0  0  0  0  0
    8.0622   -1.9680    0.0000 H   0  0  0  0  0  0  0  0  0  0  0  0
   14.3322    5.4120    0.0000 H   0  0  0  0  0  0  0  0  0  0  0  0
   10.0212   -2.8150    0.0000 H   0  0  0  0  0  0  0  0  0  0  0  0
   10.8681   -2.5880    0.0000 H   0  0  0  0  0  0  0  0  0  0  0  0
   10.6412   -1.7411    0.0000 H   0  0  0  0  0  0  0  0  0  0  0  0
    8.9282   -0.4680    0.0000 H   0  0  0  0  0  0  0  0  0  0  0  0
   12.3732    6.2589    0.0000 H   0  0  0  0  0  0  0  0  0  0  0  0
   11.5263    6.0320    0.0000 H   0  0  0  0  0  0  0  0  0  0  0  0
   11.7532    5.1851    0.0000 H   0  0  0  0  0  0  0  0  0  0  0  0
   13.4662    3.9120    0.0000 H   0  0  0  0  0  0  0  0  0  0  0  0
   10.8681   -0.5880    0.0000 H   0  0  0  0  0  0  0  0  0  0  0  0
   11.5263    4.0320    0.0000 H   0  0  0  0  0  0  0  0  0  0  0  0
    9.7942    1.0320    0.0000 H   0  0  0  0  0  0  0  0  0  0  0  0
   12.6002    2.4120    0.0000 H   0  0  0  0  0  0  0  0  0  0  0  0
   10.6603    2.5320    0.0000 H   0  0  0  0  0  0  0  0  0  0  0  0
   11.7532    0.1851    0.0000 H   0  0  0  0  0  0  0  0  0  0  0  0
   12.6002    0.4120    0.0000 H   0  0  0  0  0  0  0  0  0  0  0  0
   12.3732    1.2589    0.0000 H   0  0  0  0  0  0  0  0  0  0  0  0
  1 14  1  0  0  0  0
  1 17  1  0  0  0  0
 14  2  1  1  0  0  0
  2 20  1  0  0  0  0
  3 11  1  0  0  0  0
  3 86  1  0  0  0  0
  4 12  1  0  0  0  0
  4 87  1  0  0  0  0
 15  5  1  6  0  0  0
  5 88  1  0  0  0  0
  6 22  1  0  0  0  0
  6 92  1  0  0  0  0
  7  8  1  0  0  0  0
  7 10  1  0  0  0  0
  7 18  1  0  0  0  0
  7 19  1  0  0  0  0
  8  9  1  0  0  0  0
  8 53  1  0  0  0  0
  8 54  1  0  0  0  0
  9 13  1  0  0  0  0
  9 55  1  0  0  0  0
  9 56  1  0  0  0  0
 10 16  2  0  0  0  0
 10 23  1  0  0  0  0
 11 12  1  0  0  0  0
 11 14  1  0  0  0  0
 11 57  1  0  0  0  0
 12 15  1  0  0  0  0
 12 58  1  0  0  0  0
 13 16  1  0  0  0  0
 13 60  1  0  0  0  0
 13 61  1  0  0  0  0
 14 59  1  0  0  0  0
 15 17  1  0  0  0  0
 15 62  1  0  0  0  0
 16 24  1  0  0  0  0
 17 22  1  1  0  0  0
 17 63  1  0  0  0  0
 18 64  1  0  0  0  0
 18 65  1  0  0  0  0
 18 66  1  0  0  0  0
 19 67  1  0  0  0  0
 19 68  1  0  0  0  0
 19 69  1  0  0  0  0
 20 21  1  0  0  0  0
 20 25  1  0  0  0  0
 20 26  1  0  0  0  0
 21 27  1  0  0  0  0
 21 70  1  0  0  0  0
 21 71  1  0  0  0  0
 22 72  1  0  0  0  0
 22 73  1  0  0  0  0
 23 29  2  0  0  0  0
 23 74  1  0  0  0  0
 24 75  1  0  0  0  0
 24 76  1  0  0  0  0
 24 77  1  0  0  0  0
 25 78  1  0  0  0  0
 25 79  1  0  0  0  0
 25 80  1  0  0  0  0
 26 81  1  0  0  0  0
 26 82  1  0  0  0  0
 26 83  1  0  0  0  0
 27 28  1  0  0  0  0
 27 84  1  0  0  0  0
 27 85  1  0  0  0  0
 28 30  1  0  0  0  0
 28 89  1  0  0  0  0
 28 90  1  0  0  0  0
 29 31  1  0  0  0  0
 29 91  1  0  0  0  0
 30 32  1  0  0  0  0
 30 33  2  0  0  0  0
 31 34  1  0  0  0  0
 31 35  2  0  0  0  0
 32 93  1  0  0  0  0
 32 94  1  0  0  0  0
 32 95  1  0  0  0  0
 33 36  1  0  0  0  0
 33 96  1  0  0  0  0
 34 97  1  0  0  0  0
 34 98  1  0  0  0  0
 34 99  1  0  0  0  0
 35 37  1  0  0  0  0
 35100  1  0  0  0  0
 36 38  2  0  0  0  0
 36101  1  0  0  0  0
 37 39  2  0  0  0  0
 37102  1  0  0  0  0
 38 40  1  0  0  0  0
 38103  1  0  0  0  0
 39 41  1  0  0  0  0
 39104  1  0  0  0  0
 40 42  1  0  0  0  0
 40 43  2  0  0  0  0
 41 44  1  0  0  0  0
 41 45  2  0  0  0  0
 42105  1  0  0  0  0
 42106  1  0  0  0  0
 42107  1  0  0  0  0
 43 46  1  0  0  0  0
 43108  1  0  0  0  0
 44109  1  0  0  0  0
 44110  1  0  0  0  0
 44111  1  0  0  0  0
 45 47  1  0  0  0  0
 45112  1  0  0  0  0
 46 48  2  0  0  0  0
 46113  1  0  0  0  0
 47 49  2  0  0  0  0
 47114  1  0  0  0  0
 48 50  1  0  0  0  0
 48115  1  0  0  0  0
 49 51  1  0  0  0  0
 49116  1  0  0  0  0
 50 51  2  0  0  0  0
 50 52  1  0  0  0  0
 51117  1  0  0  0  0
 52118  1  0  0  0  0
 52119  1  0  0  0  0
 52120  1  0  0  0  0
M  END
> <PUBCHEM_COMPOUND_CID>
16061280

> <PUBCHEM_COMPOUND_CANONICALIZED>
1

> <PUBCHEM_CACTVS_COMPLEXITY>
1490

> <PUBCHEM_CACTVS_HBOND_ACCEPTOR>
6

> <PUBCHEM_CACTVS_HBOND_DONOR>
4

> <PUBCHEM_CACTVS_ROTATABLE_BOND>
17

> <PUBCHEM_CACTVS_SUBSKEYS>
AAADcfB8OAAAAAAAAAAAAAAAAAAAAAAAAAAkQAAAAAAAAAAAAAAAGgAACAAADlSwgAMCCAAABgCAAiBCAAAAAAAgAAAICAAAAAgZEAIAAQAiQAAFgAAPgAPA4MwPAAAAAAAAAAAAAAAAAAAAAAAAAAAAAA==

> <PUBCHEM_IUPAC_OPENEYE_NAME>
(2S,5S,6R)-2-[(5E,7E,9E,11E,13E,15E,17E,19E,21E,23E)-1,1,5,9,13,18,22-heptamethyl-24-(2,6,6-trimethylcyclohexen-1-yl)tetracosa-5,7,9,11,13,15,17,19,21,23-decaenoxy]-6-(hydroxymethyl)tetrahydropyran-3,4,5-triol

> <PUBCHEM_IUPAC_CAS_NAME>
(2S,5S,6R)-2-[(6E,8E,10E,12E,14E,16E,18E,20E,22E,24E)-2,6,10,14,19,23-hexamethyl-25-(2,6,6-trimethyl-1-cyclohexenyl)pentacosa-6,8,10,12,14,16,18,20,22,24-decaen-2-yl]oxy-6-(hydroxymethyl)oxane-3,4,5-triol

> <PUBCHEM_IUPAC_NAME_MARKUP>
(2<I>S</I>,5<I>S</I>,6<I>R</I>)-2-[(6<I>E</I>,8<I>E</I>,10<I>E</I>,12<I>E</I>,14<I>E</I>,16<I>E</I>,18<I>E</I>,20<I>E</I>,22<I>E</I>,24<I>E</I>)-2,6,10,14,19,23-hexamethyl-25-(2,6,6-trimethylcyclohexen-1-yl)pentacosa-6,8,10,12,14,16,18,20,22,24-decaen-2-yl]oxy-6-(hydroxymethyl)oxane-3,4,5-triol

> <PUBCHEM_IUPAC_NAME>
(2S,5S,6R)-2-[(6E,8E,10E,12E,14E,16E,18E,20E,22E,24E)-2,6,10,14,19,23-hexamethyl-25-(2,6,6-trimethylcyclohexen-1-yl)pentacosa-6,8,10,12,14,16,18,20,22,24-decaen-2-yl]oxy-6-(hydroxymethyl)oxane-3,4,5-triol

> <PUBCHEM_IUPAC_SYSTEMATIC_NAME>
(2S,5S,6R)-2-[(6E,8E,10E,12E,14E,16E,18E,20E,22E,24E)-2,6,10,14,19,23-hexamethyl-25-(2,6,6-trimethylcyclohexen-1-yl)pentacosa-6,8,10,12,14,16,18,20,22,24-decaen-2-yl]oxy-6-(hydroxymethyl)oxane-3,4,5-triol

> <PUBCHEM_IUPAC_TRADITIONAL_NAME>
(2S,5S,6R)-2-[(5E,7E,9E,11E,13E,15E,17E,19E,21E,23E)-1,1,5,9,13,18,22-heptamethyl-24-(2,6,6-trimethylcyclohexen-1-yl)tetracosa-5,7,9,11,13,15,17,19,21,23-decaenoxy]-6-methylol-tetrahydropyran-3,4,5-triol

> <PUBCHEM_IUPAC_INCHI>
InChI=1S/C46H68O6/c1-33(18-11-12-19-34(2)21-15-25-37(5)28-29-39-38(6)27-17-30-45(39,7)8)20-13-22-35(3)23-14-24-36(4)26-16-31-46(9,10)52-44-43(50)42(49)41(48)40(32-47)51-44/h11-15,18-25,28-29,40-44,47-50H,16-17,26-27,30-32H2,1-10H3/b12-11+,20-13+,21-15+,23-14+,29-28+,33-18+,34-19+,35-22+,36-24+,37-25+/t40-,41-,42?,43?,44+/m1/s1

> <PUBCHEM_IUPAC_INCHIKEY>
WWXDXMCAUBHMOT-LWTADSRSSA-N

> <PUBCHEM_XLOGP3_AA>
11.7

> <PUBCHEM_EXACT_MASS>
716.50159

> <PUBCHEM_MOLECULAR_FORMULA>
C46H68O6

> <PUBCHEM_MOLECULAR_WEIGHT>
717

> <PUBCHEM_OPENEYE_CAN_SMILES>
CC1=C(C(CCC1)(C)C)C=CC(=CC=CC(=CC=CC=C(C)C=CC=C(C)C=CC=C(C)CCCC(C)(C)OC2C(C(C(C(O2)CO)O)O)O)C)C

> <PUBCHEM_OPENEYE_ISO_SMILES>
CC1=C(C(CCC1)(C)C)/C=C/C(=C/C=C/C(=C/C=C/C=C(\C)/C=C/C=C(\C)/C=C/C=C(\C)/CCCC(C)(C)O[C@H]2C(C([C@@H]([C@H](O2)CO)O)O)O)/C)/C

> <PUBCHEM_CACTVS_TPSA>
99.4

> <PUBCHEM_MONOISOTOPIC_WEIGHT>
716.50159

> <PUBCHEM_TOTAL_CHARGE>
0

> <PUBCHEM_HEAVY_ATOM_COUNT>
52

> <PUBCHEM_ATOM_DEF_STEREO_COUNT>
3

> <PUBCHEM_ATOM_UDEF_STEREO_COUNT>
2

> <PUBCHEM_BOND_DEF_STEREO_COUNT>
10

> <PUBCHEM_BOND_UDEF_STEREO_COUNT>
0

> <PUBCHEM_ISOTOPIC_ATOM_COUNT>
0

> <PUBCHEM_COMPONENT_COUNT>
1

> <PUBCHEM_CACTVS_TAUTO_COUNT>
-1

> <PUBCHEM_COORDINATE_TYPE>
1
5
255

> <PUBCHEM_BONDANNOTATIONS>
17  22  5
14  2  5
11  3  3
12  4  3
15  5  6

$$$$
