70759
  -OEChem-11222002403D

 22 22  0     0  0  0  0  0  0999 V2000
    0.5808   -0.0794    0.0306 C   0  0  0  0  0  0  0  0  0  0  0  0
   -1.7582    0.5157   -0.0771 C   0  0  0  0  0  0  0  0  0  0  0  0
   -0.4147    0.8899   -0.0925 C   0  0  0  0  0  0  0  0  0  0  0  0
    1.9822    0.3099    0.0136 C   0  0  0  0  0  0  0  0  0  0  0  0
    0.2325   -1.4230    0.1691 C   0  0  0  0  0  0  0  0  0  0  0  0
   -2.1065   -0.8278    0.0614 C   0  0  0  0  0  0  0  0  0  0  0  0
   -1.1111   -1.7972    0.1846 C   0  0  0  0  0  0  0  0  0  0  0  0
   -2.8226    1.5517   -0.2107 C   0  0  0  0  0  0  0  0  0  0  0  0
    3.0087   -0.6578   -0.5470 C   0  0  0  0  0  0  0  0  0  0  0  0
    2.4088    1.5180    0.4681 C   0  0  0  0  0  0  0  0  0  0  0  0
   -0.1729    1.9414   -0.2269 H   0  0  0  0  0  0  0  0  0  0  0  0
    0.9797   -2.2041    0.2780 H   0  0  0  0  0  0  0  0  0  0  0  0
   -3.1494   -1.1330    0.0732 H   0  0  0  0  0  0  0  0  0  0  0  0
   -1.3827   -2.8431    0.2944 H   0  0  0  0  0  0  0  0  0  0  0  0
   -2.9931    1.7811   -1.2672 H   0  0  0  0  0  0  0  0  0  0  0  0
   -3.7671    1.2129    0.2285 H   0  0  0  0  0  0  0  0  0  0  0  0
   -2.5397    2.4729    0.3100 H   0  0  0  0  0  0  0  0  0  0  0  0
    2.6801   -1.0526   -1.5147 H   0  0  0  0  0  0  0  0  0  0  0  0
    3.1742   -1.4926    0.1418 H   0  0  0  0  0  0  0  0  0  0  0  0
    3.9777   -0.1733   -0.7120 H   0  0  0  0  0  0  0  0  0  0  0  0
    3.4614    1.7834    0.4369 H   0  0  0  0  0  0  0  0  0  0  0  0
    1.7430    2.2565    0.9010 H   0  0  0  0  0  0  0  0  0  0  0  0
  1  3  1  0  0  0  0
  1  4  1  0  0  0  0
  1  5  2  0  0  0  0
  2  3  2  0  0  0  0
  2  6  1  0  0  0  0
  2  8  1  0  0  0  0
  3 11  1  0  0  0  0
  4  9  1  0  0  0  0
  4 10  2  0  0  0  0
  5  7  1  0  0  0  0
  5 12  1  0  0  0  0
  6  7  2  0  0  0  0
  6 13  1  0  0  0  0
  7 14  1  0  0  0  0
  8 15  1  0  0  0  0
  8 16  1  0  0  0  0
  8 17  1  0  0  0  0
  9 18  1  0  0  0  0
  9 19  1  0  0  0  0
  9 20  1  0  0  0  0
 10 21  1  0  0  0  0
 10 22  1  0  0  0  0
M  END
> <PUBCHEM_COMPOUND_CID>
70759

> <PUBCHEM_CONFORMER_RMSD>
0.4

> <PUBCHEM_CONFORMER_DIVERSEORDER>
3
1
2

> <PUBCHEM_MMFF94_PARTIAL_CHARGES>
16
1 0.03
10 -0.3
11 0.15
12 0.15
13 0.15
14 0.15
2 -0.14
21 0.15
22 0.15
3 -0.15
4 -0.17
5 -0.15
6 -0.15
7 -0.15
8 0.14
9 0.14

> <PUBCHEM_EFFECTIVE_ROTOR_COUNT>
1

> <PUBCHEM_PHARMACOPHORE_FEATURES>
1
6 1 2 3 5 6 7 rings

> <PUBCHEM_HEAVY_ATOM_COUNT>
10

> <PUBCHEM_ATOM_DEF_STEREO_COUNT>
0

> <PUBCHEM_ATOM_UDEF_STEREO_COUNT>
0

> <PUBCHEM_BOND_DEF_STEREO_COUNT>
0

> <PUBCHEM_BOND_UDEF_STEREO_COUNT>
0

> <PUBCHEM_ISOTOPIC_ATOM_COUNT>
0

> <PUBCHEM_COMPONENT_COUNT>
1

> <PUBCHEM_CACTVS_TAUTO_COUNT>
1

> <PUBCHEM_CONFORMER_ID>
0001146700000003

> <PUBCHEM_MMFF94_ENERGY>
29.4123

> <PUBCHEM_FEATURE_SELFOVERLAP>
5.074

> <PUBCHEM_SHAPE_FINGERPRINT>
10608611 8 18341329002393579072
12716758 59 18410855473055346282
12932764 1 17774726492734735430
13380535 76 18337668599288026143
14325111 11 18410573989515191604
14390081 3 18411976962131190969
15219456 202 18272090543410584104
15775835 57 18187650154599026964
16945 1 18340768117933960923
193761 8 14591804522511929568
19973954 147 18339363088303199664
20201158 50 18130230363415299782
20645464 45 18342450482694255904
20653085 51 18409739451546975737
20871998 184 18126573546423212455
21028194 46 18409452457711304373
21040471 1 18408039589469568995
21501502 16 18339922722731467244
23235685 24 18336542707828602429
23402655 69 18122891046560585941
23552423 10 18188211017356721422
241688 4 17833828652958388355
2748010 2 18410575119028111628
369184 2 18201440332339728906
5084963 1 18342744043445147874
6333449 129 18411696625215084893
81228 2 18118403079954367259

> <PUBCHEM_SHAPE_MULTIPOLES>
205.8
4.22
1.84
0.68
1.05
0.14
0.01
-1.22
0.36
-0.51
-0.12
0.13
-0.01
0.42

> <PUBCHEM_SHAPE_SELFOVERLAP>
422.547

> <PUBCHEM_SHAPE_VOLUME>
114.8

> <PUBCHEM_COORDINATE_TYPE>
2
5
10

$$$$
