59284349
  -OEChem-09122004513D

 52 55  0     1  0  0  0  0  0999 V2000
   -0.8937   -0.7671    0.8190 C   0  0  1  0  0  0  0  0  0  0  0  0
    0.3850   -0.5657   -0.0814 C   0  0  1  0  0  0  0  0  0  0  0  0
    1.1138    0.8049    0.1266 C   0  0  1  0  0  0  0  0  0  0  0  0
   -1.8589    0.4815    0.7233 C   0  0  2  0  0  0  0  0  0  0  0  0
    2.1616    0.9521   -1.0013 C   0  0  0  0  0  0  0  0  0  0  0  0
    0.1647    2.0007    0.1224 C   0  0  0  0  0  0  0  0  0  0  0  0
    3.2520   -0.0221   -0.5380 C   0  0  2  0  0  0  0  0  0  0  0  0
   -2.8719    0.5256   -0.4962 C   0  0  0  0  0  0  0  0  0  0  0  0
   -1.0900    1.8028    0.9684 C   0  0  0  0  0  0  0  0  0  0  0  0
    1.4007   -1.7523   -0.0483 C   0  0  0  0  0  0  0  0  0  0  0  0
   -1.6582   -2.0656    0.4360 C   0  0  0  0  0  0  0  0  0  0  0  0
    2.7395   -1.4603   -0.7620 C   0  0  0  0  0  0  0  0  0  0  0  0
    2.0735    0.7970    1.3029 C   0  0  0  0  0  0  0  0  0  0  0  0
   -3.4788   -0.8742   -0.7545 C   0  0  0  0  0  0  0  0  0  0  0  0
   -0.5065   -0.9655    2.3140 C   0  0  0  0  0  0  0  0  0  0  0  0
   -2.4313   -1.9683   -0.8667 C   0  0  0  0  0  0  0  0  0  0  0  0
    3.2710    0.3223    0.9304 C   0  0  0  0  0  0  0  0  0  0  0  0
    4.5809    0.2314   -1.2374 C   0  0  0  0  0  0  0  0  0  0  0  0
   -4.0617    1.4590   -0.1396 C   0  0  0  0  0  0  0  0  0  0  0  0
   -2.2917    1.0635   -1.8176 C   0  0  0  0  0  0  0  0  0  0  0  0
    0.0285   -0.5546   -1.1171 H   0  0  0  0  0  0  0  0  0  0  0  0
   -2.5244    0.3850    1.5967 H   0  0  0  0  0  0  0  0  0  0  0  0
    1.7614    0.7029   -1.9917 H   0  0  0  0  0  0  0  0  0  0  0  0
    2.5435    1.9826   -1.0601 H   0  0  0  0  0  0  0  0  0  0  0  0
   -0.1144    2.2338   -0.9084 H   0  0  0  0  0  0  0  0  0  0  0  0
    0.6841    2.8994    0.4824 H   0  0  0  0  0  0  0  0  0  0  0  0
   -0.7968    1.8450    2.0250 H   0  0  0  0  0  0  0  0  0  0  0  0
   -1.7478    2.6667    0.8294 H   0  0  0  0  0  0  0  0  0  0  0  0
    0.9599   -2.6419   -0.5116 H   0  0  0  0  0  0  0  0  0  0  0  0
    1.6304   -2.0295    0.9857 H   0  0  0  0  0  0  0  0  0  0  0  0
   -0.9824   -2.9260    0.3951 H   0  0  0  0  0  0  0  0  0  0  0  0
   -2.3789   -2.3095    1.2298 H   0  0  0  0  0  0  0  0  0  0  0  0
    3.4859   -2.1917   -0.4268 H   0  0  0  0  0  0  0  0  0  0  0  0
    2.6013   -1.6286   -1.8384 H   0  0  0  0  0  0  0  0  0  0  0  0
    1.8277    1.0945    2.3112 H   0  0  0  0  0  0  0  0  0  0  0  0
   -4.0885   -0.8669   -1.6672 H   0  0  0  0  0  0  0  0  0  0  0  0
   -4.1668   -1.1334    0.0621 H   0  0  0  0  0  0  0  0  0  0  0  0
   -1.4028   -1.0987    2.9330 H   0  0  0  0  0  0  0  0  0  0  0  0
    0.1056   -1.8596    2.4650 H   0  0  0  0  0  0  0  0  0  0  0  0
    0.0281   -0.1154    2.7362 H   0  0  0  0  0  0  0  0  0  0  0  0
   -1.7634   -1.7945   -1.7157 H   0  0  0  0  0  0  0  0  0  0  0  0
   -2.9333   -2.9244   -1.0570 H   0  0  0  0  0  0  0  0  0  0  0  0
    4.1092    0.1703    1.5941 H   0  0  0  0  0  0  0  0  0  0  0  0
    4.4902    0.0811   -2.3187 H   0  0  0  0  0  0  0  0  0  0  0  0
    5.3562   -0.4488   -0.8671 H   0  0  0  0  0  0  0  0  0  0  0  0
    4.9347    1.2555   -1.0720 H   0  0  0  0  0  0  0  0  0  0  0  0
   -3.7481    2.5013   -0.0280 H   0  0  0  0  0  0  0  0  0  0  0  0
   -4.5429    1.1525    0.7960 H   0  0  0  0  0  0  0  0  0  0  0  0
   -4.8281    1.4356   -0.9237 H   0  0  0  0  0  0  0  0  0  0  0  0
   -2.0555    2.1296   -1.7494 H   0  0  0  0  0  0  0  0  0  0  0  0
   -3.0236    0.9711   -2.6299 H   0  0  0  0  0  0  0  0  0  0  0  0
   -1.3989    0.5293   -2.1417 H   0  0  0  0  0  0  0  0  0  0  0  0
  1  2  1  0  0  0  0
  1  4  1  0  0  0  0
  1 11  1  0  0  0  0
  1 15  1  0  0  0  0
  2  3  1  0  0  0  0
  2 10  1  0  0  0  0
  2 21  1  0  0  0  0
  3  5  1  0  0  0  0
  3  6  1  0  0  0  0
  3 13  1  0  0  0  0
  4  8  1  0  0  0  0
  4  9  1  0  0  0  0
  4 22  1  0  0  0  0
  5  7  1  0  0  0  0
  5 23  1  0  0  0  0
  5 24  1  0  0  0  0
  6  9  1  0  0  0  0
  6 25  1  0  0  0  0
  6 26  1  0  0  0  0
  7 12  1  0  0  0  0
  7 17  1  0  0  0  0
  7 18  1  0  0  0  0
  8 14  1  0  0  0  0
  8 19  1  0  0  0  0
  8 20  1  0  0  0  0
  9 27  1  0  0  0  0
  9 28  1  0  0  0  0
 10 12  1  0  0  0  0
 10 29  1  0  0  0  0
 10 30  1  0  0  0  0
 11 16  1  0  0  0  0
 11 31  1  0  0  0  0
 11 32  1  0  0  0  0
 12 33  1  0  0  0  0
 12 34  1  0  0  0  0
 13 17  2  0  0  0  0
 13 35  1  0  0  0  0
 14 16  1  0  0  0  0
 14 36  1  0  0  0  0
 14 37  1  0  0  0  0
 15 38  1  0  0  0  0
 15 39  1  0  0  0  0
 15 40  1  0  0  0  0
 16 41  1  0  0  0  0
 16 42  1  0  0  0  0
 17 43  1  0  0  0  0
 18 44  1  0  0  0  0
 18 45  1  0  0  0  0
 18 46  1  0  0  0  0
 19 47  1  0  0  0  0
 19 48  1  0  0  0  0
 19 49  1  0  0  0  0
 20 50  1  0  0  0  0
 20 51  1  0  0  0  0
 20 52  1  0  0  0  0
M  END
> <PUBCHEM_COMPOUND_CID>
59284349

> <PUBCHEM_CONFORMER_RMSD>
0.6

> <PUBCHEM_CONFORMER_DIVERSEORDER>
1
6
2
9
4
7
11
10
8
5
3

> <PUBCHEM_MMFF94_PARTIAL_CHARGES>
6
13 -0.29
17 -0.29
3 0.14
35 0.15
43 0.15
7 0.14

> <PUBCHEM_EFFECTIVE_ROTOR_COUNT>
1.8

> <PUBCHEM_PHARMACOPHORE_FEATURES>
4
3 8 19 20 hydrophobe
6 1 2 3 4 6 9 rings
6 1 4 8 11 14 16 rings
8 2 3 5 7 10 12 13 17 rings

> <PUBCHEM_HEAVY_ATOM_COUNT>
20

> <PUBCHEM_ATOM_DEF_STEREO_COUNT>
2

> <PUBCHEM_ATOM_UDEF_STEREO_COUNT>
3

> <PUBCHEM_BOND_DEF_STEREO_COUNT>
0

> <PUBCHEM_BOND_UDEF_STEREO_COUNT>
0

> <PUBCHEM_ISOTOPIC_ATOM_COUNT>
0

> <PUBCHEM_COMPONENT_COUNT>
1

> <PUBCHEM_CACTVS_TAUTO_COUNT>
1

> <PUBCHEM_CONFORMER_ID>
03889B7D00000001

> <PUBCHEM_MMFF94_ENERGY>
90.3847

> <PUBCHEM_FEATURE_SELFOVERLAP>
20.351

> <PUBCHEM_SHAPE_FINGERPRINT>
10062212 137 18335124389268347275
10863032 1 18201996599640548879
10948715 1 17023181574545405421
11578080 2 16199848623419492521
11640471 11 16225763038654598998
12173636 292 18270954632088092069
12251169 10 8358248229299851300
12403814 3 17748825207410006197
12491281 212 18342182111536171449
12670546 177 18334580191347680556
12788726 201 17488469559482320913
13140716 1 18339641264592170176
13224815 77 18272934955286918184
13296908 3 17846495975755034284
13299463 15 18339080492297573423
13693222 15 12391516373184433790
14115302 16 18410862065951802901
14251745 187 18341897372648027210
14289901 80 14908180850336527410
15309172 13 15140676977601939091
15775835 57 17967811613734963277
16945 1 18412542093785574096
17349148 13 18336254657689471874
17357779 13 18194676205937006847
17980427 23 18115575101962698460
18186145 218 18262794060696389013
19765921 60 17894625912140079667
19862831 5 18408885105231703989
19868273 293 18040713666735707378
200 152 16056881321029661444
20361792 2 14620791626239176483
20645476 183 17386013874639314451
20871999 31 18335425706935585846
22802520 49 18060136531261581851
2334 1 18051976110478980304
23402539 116 18333448742717494540
23419403 2 16914799599533823051
23493267 7 17749118819842800682
23557571 272 18130213981961607562
23559900 14 18343581842132389560
25 1 18187364281633781995
2748010 2 18124875909049084088
296302 2 18343861138896029920
3323516 105 18343015606043592671
4340502 62 16878234044042174481
5845 1 9438530476732200345
633830 44 17603867745765765583
69090 78 18411415086262244711
74978 22 17168427180954914690
81228 2 18411142411236284792
9709674 26 18201714106418959391

> <PUBCHEM_SHAPE_MULTIPOLES>
411.59
6.55
2.08
1.55
1.85
0.34
-0.33
-0.58
2.53
-1.03
-0.01
0.02
0.02
0.17

> <PUBCHEM_SHAPE_SELFOVERLAP>
881.613

> <PUBCHEM_SHAPE_VOLUME>
227.2

> <PUBCHEM_COORDINATE_TYPE>
2
5
10

$$$$
