521253
  -OEChem-09122015193D

 39 39  0     1  0  0  0  0  0999 V2000
   -0.3181   -0.4644    0.4433 C   0  0  1  0  0  0  0  0  0  0  0  0
    1.1567   -0.3470    0.8317 C   0  0  1  0  0  0  0  0  0  0  0  0
   -0.5716   -0.0678   -1.0250 C   0  0  0  0  0  0  0  0  0  0  0  0
    2.0014   -1.3720    0.0387 C   0  0  0  0  0  0  0  0  0  0  0  0
   -0.7988   -1.8994    0.6773 C   0  0  0  0  0  0  0  0  0  0  0  0
    1.6458    1.0726    0.6834 C   0  0  0  0  0  0  0  0  0  0  0  0
   -2.0389   -0.1120   -1.4745 C   0  0  0  0  0  0  0  0  0  0  0  0
    3.4218   -0.9488   -0.2131 C   0  0  0  0  0  0  0  0  0  0  0  0
    3.8255    0.3294   -0.1146 C   0  0  0  0  0  0  0  0  0  0  0  0
    2.8775    1.3655    0.2430 C   0  0  0  0  0  0  0  0  0  0  0  0
   -2.9295    0.7620   -0.6361 C   0  0  0  0  0  0  0  0  0  0  0  0
    5.2338    0.7608   -0.3870 C   0  0  0  0  0  0  0  0  0  0  0  0
   -4.0476    0.4202    0.0321 C   0  0  0  0  0  0  0  0  0  0  0  0
   -4.8010    1.4530    0.8288 C   0  0  0  0  0  0  0  0  0  0  0  0
   -4.6571   -0.9522    0.0719 C   0  0  0  0  0  0  0  0  0  0  0  0
   -0.8960    0.1964    1.1028 H   0  0  0  0  0  0  0  0  0  0  0  0
    1.2474   -0.5887    1.9008 H   0  0  0  0  0  0  0  0  0  0  0  0
   -0.0162   -0.7058   -1.7191 H   0  0  0  0  0  0  0  0  0  0  0  0
   -0.2049    0.9520   -1.1979 H   0  0  0  0  0  0  0  0  0  0  0  0
    1.5809   -1.6391   -0.9336 H   0  0  0  0  0  0  0  0  0  0  0  0
    2.0311   -2.3058    0.6160 H   0  0  0  0  0  0  0  0  0  0  0  0
   -0.4911   -2.2598    1.6654 H   0  0  0  0  0  0  0  0  0  0  0  0
   -1.8908   -1.9564    0.6532 H   0  0  0  0  0  0  0  0  0  0  0  0
   -0.4194   -2.5994   -0.0741 H   0  0  0  0  0  0  0  0  0  0  0  0
    0.9878    1.8833    0.9847 H   0  0  0  0  0  0  0  0  0  0  0  0
   -2.3784   -1.1497   -1.5086 H   0  0  0  0  0  0  0  0  0  0  0  0
   -2.0924    0.2522   -2.5082 H   0  0  0  0  0  0  0  0  0  0  0  0
    4.1250   -1.7232   -0.5070 H   0  0  0  0  0  0  0  0  0  0  0  0
    3.1940    2.4013    0.1711 H   0  0  0  0  0  0  0  0  0  0  0  0
   -2.6084    1.8023   -0.5877 H   0  0  0  0  0  0  0  0  0  0  0  0
    5.6680    1.2375    0.4984 H   0  0  0  0  0  0  0  0  0  0  0  0
    5.2651    1.4754   -1.2166 H   0  0  0  0  0  0  0  0  0  0  0  0
    5.8758   -0.0853   -0.6551 H   0  0  0  0  0  0  0  0  0  0  0  0
   -4.3287    2.4402    0.7869 H   0  0  0  0  0  0  0  0  0  0  0  0
   -5.8215    1.5570    0.4458 H   0  0  0  0  0  0  0  0  0  0  0  0
   -4.8527    1.1551    1.8812 H   0  0  0  0  0  0  0  0  0  0  0  0
   -5.6993   -0.9093   -0.2623 H   0  0  0  0  0  0  0  0  0  0  0  0
   -4.1487   -1.6787   -0.5643 H   0  0  0  0  0  0  0  0  0  0  0  0
   -4.6409   -1.3401    1.0958 H   0  0  0  0  0  0  0  0  0  0  0  0
  1  2  1  0  0  0  0
  1  3  1  0  0  0  0
  1  5  1  0  0  0  0
  1 16  1  0  0  0  0
  2  4  1  0  0  0  0
  2  6  1  0  0  0  0
  2 17  1  0  0  0  0
  3  7  1  0  0  0  0
  3 18  1  0  0  0  0
  3 19  1  0  0  0  0
  4  8  1  0  0  0  0
  4 20  1  0  0  0  0
  4 21  1  0  0  0  0
  5 22  1  0  0  0  0
  5 23  1  0  0  0  0
  5 24  1  0  0  0  0
  6 10  2  0  0  0  0
  6 25  1  0  0  0  0
  7 11  1  0  0  0  0
  7 26  1  0  0  0  0
  7 27  1  0  0  0  0
  8  9  2  0  0  0  0
  8 28  1  0  0  0  0
  9 10  1  0  0  0  0
  9 12  1  0  0  0  0
 10 29  1  0  0  0  0
 11 13  2  0  0  0  0
 11 30  1  0  0  0  0
 12 31  1  0  0  0  0
 12 32  1  0  0  0  0
 12 33  1  0  0  0  0
 13 14  1  0  0  0  0
 13 15  1  0  0  0  0
 14 34  1  0  0  0  0
 14 35  1  0  0  0  0
 14 36  1  0  0  0  0
 15 37  1  0  0  0  0
 15 38  1  0  0  0  0
 15 39  1  0  0  0  0
M  END
> <PUBCHEM_COMPOUND_CID>
521253

> <PUBCHEM_CONFORMER_RMSD>
0.6

> <PUBCHEM_CONFORMER_DIVERSEORDER>
18
69
59
86
65
8
105
24
90
4
104
16
91
81
60
89
103
45
20
84
67
12
100
85
1
9
87
30
92
75
94
68
80
44
27
26
15
49
96
19
64
51
72
36
53
6
34
102
41
61
101
56
40
50
54
82
57
17
35
55
22
83
66
32
88
5
42
74
97
58
48
62
76
33
11
95
14
39
10
71
7
77
99
13
31
2
46
38
47
70
29
93
21
52
78
63
79
28
23
73
98
25
3
37
43

> <PUBCHEM_MMFF94_PARTIAL_CHARGES>
16
10 -0.15
11 -0.29
12 0.14
13 -0.28
14 0.14
15 0.14
2 0.14
25 0.15
28 0.15
29 0.15
30 0.15
4 0.14
6 -0.29
7 0.14
8 -0.29
9 -0.14

> <PUBCHEM_EFFECTIVE_ROTOR_COUNT>
4.4

> <PUBCHEM_PHARMACOPHORE_FEATURES>
4
1 5 hydrophobe
3 13 14 15 hydrophobe
4 1 3 7 11 hydrophobe
6 2 4 6 8 9 10 rings

> <PUBCHEM_HEAVY_ATOM_COUNT>
15

> <PUBCHEM_ATOM_DEF_STEREO_COUNT>
0

> <PUBCHEM_ATOM_UDEF_STEREO_COUNT>
2

> <PUBCHEM_BOND_DEF_STEREO_COUNT>
0

> <PUBCHEM_BOND_UDEF_STEREO_COUNT>
0

> <PUBCHEM_ISOTOPIC_ATOM_COUNT>
0

> <PUBCHEM_COMPONENT_COUNT>
1

> <PUBCHEM_CACTVS_TAUTO_COUNT>
1

> <PUBCHEM_CONFORMER_ID>
0007F42500000012

> <PUBCHEM_MMFF94_ENERGY>
24.2241

> <PUBCHEM_FEATURE_SELFOVERLAP>
20.323

> <PUBCHEM_SHAPE_FINGERPRINT>
10354089 29 18343304755984599009
10922049 32 18413671322582266831
11031198 65 18411134736498510910
11132069 177 17313105250512875295
11401426 45 10447931667829855813
11471102 20 18411981351983198554
124424 183 13039181520188347205
12815109 37 10879996860723842468
14251752 14 17059782122333022356
14341114 176 18339370673642660545
14943859 89 17632292389133915271
15848700 24 11527943443738758530
16752209 62 14261077532246901527
17834072 14 10447927282483623735
17834072 33 18271799138712124055
17834072 8 14692569901453071365
18186145 218 18410284787897427935
19862831 5 15410895175573475206
20233049 118 16486968466851526809
20645476 183 17203320139454847439
20645477 56 17822006545286221924
20645477 70 18271812285570639438
21119208 17 16988842782685461236
22224240 67 17821733840854341081
22854114 59 17749107777328921021
23402539 116 18343579642222975676
23402655 69 18201719535310479408
23559900 14 18410290355409549944
25 1 18411695478775496834
2916195 48 18341885342365990856
347723 3 14692578714778697391
4047638 21 18186803574059458094
458136 41 18115026303420011331
4990 188 18273218590363296510
5104073 3 18408037411836884755
5283173 99 11239732829111897387
633830 44 18341610374274912791
6442390 28 17967537899485160290
76465 3 10375880645160787500
77779 3 18342457041177895031
81228 2 17534895596077836171
8272917 22 18059019367165518103
9882013 296 16949997028534074965

> <PUBCHEM_SHAPE_MULTIPOLES>
308.69
10.28
1.56
1.04
2.34
0.23
-0.18
-3.15
0.01
0.14
0.33
0.48
-0.03
-0.18

> <PUBCHEM_SHAPE_SELFOVERLAP>
606.221

> <PUBCHEM_SHAPE_VOLUME>
184.4

> <PUBCHEM_COORDINATE_TYPE>
2
5
10

$$$$
