87346610
  -OEChem-09122005043D

 24 25  0     0  0  0  0  0  0999 V2000
   -0.3471    1.6408   -0.0249 O   0  0  0  0  0  0  0  0  0  0  0  0
    2.7298   -0.2611    0.7395 O   0  0  0  0  0  0  0  0  0  0  0  0
   -4.9010    0.2391   -0.4487 O   0  0  0  0  0  0  0  0  0  0  0  0
    1.8313    2.3070    0.1775 O   0  0  0  0  0  0  0  0  0  0  0  0
    3.0352   -0.6307   -1.5392 O   0  0  0  0  0  0  0  0  0  0  0  0
   -0.9140   -0.7023    0.2871 C   0  0  0  0  0  0  0  0  0  0  0  0
   -1.3010    0.6050    0.0112 C   0  0  0  0  0  0  0  0  0  0  0  0
    0.4905   -0.9798    0.5367 C   0  0  0  0  0  0  0  0  0  0  0  0
   -1.8883   -1.7027    0.3148 C   0  0  0  0  0  0  0  0  0  0  0  0
    1.3965    0.0051    0.5019 C   0  0  0  0  0  0  0  0  0  0  0  0
   -2.6306    0.9396   -0.2373 C   0  0  0  0  0  0  0  0  0  0  0  0
   -3.5962   -0.0640   -0.2080 C   0  0  0  0  0  0  0  0  0  0  0  0
   -3.2264   -1.3823    0.0674 C   0  0  0  0  0  0  0  0  0  0  0  0
    1.0038    1.4023    0.2102 C   0  0  0  0  0  0  0  0  0  0  0  0
    3.4462   -0.5748   -0.3873 C   0  0  0  0  0  0  0  0  0  0  0  0
    4.8714   -0.8412   -0.0007 C   0  0  0  0  0  0  0  0  0  0  0  0
    0.7852   -2.0018    0.7521 H   0  0  0  0  0  0  0  0  0  0  0  0
   -1.6213   -2.7350    0.5271 H   0  0  0  0  0  0  0  0  0  0  0  0
   -2.9105    1.9671   -0.4508 H   0  0  0  0  0  0  0  0  0  0  0  0
   -3.9726   -2.1723    0.0923 H   0  0  0  0  0  0  0  0  0  0  0  0
   -5.4300   -0.5749   -0.3883 H   0  0  0  0  0  0  0  0  0  0  0  0
    5.3114    0.0591    0.4355 H   0  0  0  0  0  0  0  0  0  0  0  0
    5.4441   -1.1135   -0.8919 H   0  0  0  0  0  0  0  0  0  0  0  0
    4.9145   -1.6734    0.7065 H   0  0  0  0  0  0  0  0  0  0  0  0
  1  7  1  0  0  0  0
  1 14  1  0  0  0  0
  2 10  1  0  0  0  0
  2 15  1  0  0  0  0
  3 12  1  0  0  0  0
  3 21  1  0  0  0  0
  4 14  2  0  0  0  0
  5 15  2  0  0  0  0
  6  7  2  0  0  0  0
  6  8  1  0  0  0  0
  6  9  1  0  0  0  0
  7 11  1  0  0  0  0
  8 10  2  0  0  0  0
  8 17  1  0  0  0  0
  9 13  2  0  0  0  0
  9 18  1  0  0  0  0
 10 14  1  0  0  0  0
 11 12  2  0  0  0  0
 11 19  1  0  0  0  0
 12 13  1  0  0  0  0
 13 20  1  0  0  0  0
 15 16  1  0  0  0  0
 16 22  1  0  0  0  0
 16 23  1  0  0  0  0
 16 24  1  0  0  0  0
M  END
> <PUBCHEM_COMPOUND_CID>
87346610

> <PUBCHEM_CONFORMER_RMSD>
0.6

> <PUBCHEM_CONFORMER_DIVERSEORDER>
1
8
9
4
6
2
7
5
3

> <PUBCHEM_MMFF94_PARTIAL_CHARGES>
21
1 -0.23
10 0.09
11 -0.15
12 0.08
13 -0.15
14 0.71
15 0.66
16 0.06
17 0.15
18 0.15
19 0.15
2 -0.23
20 0.15
21 0.45
3 -0.53
4 -0.57
5 -0.57
6 0.03
7 0.08
8 -0.18
9 -0.15

> <PUBCHEM_EFFECTIVE_ROTOR_COUNT>
2

> <PUBCHEM_PHARMACOPHORE_FEATURES>
5
1 3 donor
1 4 acceptor
1 5 acceptor
6 1 6 7 8 10 14 rings
6 6 7 9 11 12 13 rings

> <PUBCHEM_HEAVY_ATOM_COUNT>
16

> <PUBCHEM_ATOM_DEF_STEREO_COUNT>
0

> <PUBCHEM_ATOM_UDEF_STEREO_COUNT>
0

> <PUBCHEM_BOND_DEF_STEREO_COUNT>
0

> <PUBCHEM_BOND_UDEF_STEREO_COUNT>
0

> <PUBCHEM_ISOTOPIC_ATOM_COUNT>
0

> <PUBCHEM_COMPONENT_COUNT>
1

> <PUBCHEM_CACTVS_TAUTO_COUNT>
5

> <PUBCHEM_CONFORMER_ID>
0534CDB200000001

> <PUBCHEM_MMFF94_ENERGY>
48.5324

> <PUBCHEM_FEATURE_SELFOVERLAP>
25.399

> <PUBCHEM_SHAPE_FINGERPRINT>
10465860 71 18338532879899141876
10608611 8 18264763427872077793
11543360 7 15719679847964972499
12032990 46 18410295843370198619
12236239 1 17458062642999678674
12932764 1 17458890613799076515
13221675 6 18335137583576477643
13288520 33 18411702050244310262
13296908 3 18336546143929020387
13571099 22 18271806864857265801
13760787 19 16877940534118785395
14115302 16 17967259701868793142
14911166 2 18408038494421739639
14993402 34 18335417946198713579
15099037 51 18411416198600888615
15196674 1 18337106873426359193
15219456 202 18340205322609950841
15375358 24 18272929431953915138
15536298 74 18340764956817140073
15848700 24 18343576335245649412
16945 1 18336257968782086081
17804303 29 18409168831129954339
18186145 218 18114169878646114015
19141452 34 17989205962602131263
200 152 17418370290226871587
20201158 50 18342741801451419142
20233049 118 18186798058968048268
20279233 1 18059859454463478510
20374829 77 18411979148406759646
20645476 183 17312824891837629091
20645477 70 18342735269096078647
20671657 53 18412830178949081168
20871999 31 18337684022610376012
21029758 11 18342173362698657248
21119208 17 17167866344199476998
21267235 1 18409453604968972795
221490 88 18191310574726180722
2334 1 18120090838797797521
23402539 116 18412255121736112166
23557571 272 18200879457641540588
23559900 14 18410011044753354610
2748010 2 18191583258094513025
335352 9 18409727340234910917
4990 188 18342176657107144471
5104073 3 18337953506022455745
7364860 26 18199748227248169880
74978 22 18337110171760925459
81228 2 18126020277631947144
8809292 202 18260831535494033611
9709674 26 18192991754012243707

> <PUBCHEM_SHAPE_MULTIPOLES>
299.93
7.91
1.72
0.81
1.45
0.55
-0.15
-1.97
-1.5
-0.03
0.13
0.42
-0.11
0.37

> <PUBCHEM_SHAPE_SELFOVERLAP>
650.641

> <PUBCHEM_SHAPE_VOLUME>
162.2

> <PUBCHEM_COORDINATE_TYPE>
2
5
10

$$$$
