578929
  -OEChem-09152012043D

 39 41  0     1  0  0  0  0  0999 V2000
   -0.0881   -0.2122   -0.3160 C   0  0  1  0  0  0  0  0  0  0  0  0
    0.8061    0.2258    0.8989 C   0  0  1  0  0  0  0  0  0  0  0  0
   -1.0604    0.9883   -0.5382 C   0  0  2  0  0  0  0  0  0  0  0  0
    2.0693   -0.1014    0.0831 C   0  0  0  0  0  0  0  0  0  0  0  0
    1.2217   -0.2190   -1.1856 C   0  0  0  0  0  0  0  0  0  0  0  0
    0.4770    1.6863    1.2063 C   0  0  0  0  0  0  0  0  0  0  0  0
   -0.2474    2.1987   -0.0293 C   0  0  0  0  0  0  0  0  0  0  0  0
   -0.7726   -1.5396   -0.1029 C   0  0  0  0  0  0  0  0  0  0  0  0
   -2.3866    0.8304    0.2648 C   0  0  0  0  0  0  0  0  0  0  0  0
   -1.4112    1.1670   -2.0234 C   0  0  0  0  0  0  0  0  0  0  0  0
    3.0938    1.0146    0.0548 C   0  0  0  0  0  0  0  0  0  0  0  0
    2.7907   -1.3952    0.4093 C   0  0  0  0  0  0  0  0  0  0  0  0
   -2.4060   -0.2978    1.2934 C   0  0  0  0  0  0  0  0  0  0  0  0
   -1.8420   -1.5525    0.7107 C   0  0  0  0  0  0  0  0  0  0  0  0
   -0.2441   -2.7934   -0.7260 C   0  0  0  0  0  0  0  0  0  0  0  0
    0.7246   -0.3806    1.8105 H   0  0  0  0  0  0  0  0  0  0  0  0
    1.4102   -1.1038   -1.8017 H   0  0  0  0  0  0  0  0  0  0  0  0
    1.3390    0.6334   -1.8648 H   0  0  0  0  0  0  0  0  0  0  0  0
    1.3421    2.2965    1.4768 H   0  0  0  0  0  0  0  0  0  0  0  0
   -0.2062    1.7307    2.0633 H   0  0  0  0  0  0  0  0  0  0  0  0
   -0.8710    3.0702    0.1960 H   0  0  0  0  0  0  0  0  0  0  0  0
    0.4839    2.5215   -0.7791 H   0  0  0  0  0  0  0  0  0  0  0  0
   -3.2088    0.6311   -0.4380 H   0  0  0  0  0  0  0  0  0  0  0  0
   -2.6634    1.7721    0.7548 H   0  0  0  0  0  0  0  0  0  0  0  0
   -1.8738    0.2603   -2.4291 H   0  0  0  0  0  0  0  0  0  0  0  0
   -2.1128    1.9979   -2.1605 H   0  0  0  0  0  0  0  0  0  0  0  0
   -0.5350    1.3850   -2.6406 H   0  0  0  0  0  0  0  0  0  0  0  0
    2.6940    1.9549   -0.3364 H   0  0  0  0  0  0  0  0  0  0  0  0
    3.5004    1.2100    1.0535 H   0  0  0  0  0  0  0  0  0  0  0  0
    3.9373    0.7532   -0.5958 H   0  0  0  0  0  0  0  0  0  0  0  0
    3.5048   -1.2470    1.2289 H   0  0  0  0  0  0  0  0  0  0  0  0
    2.1180   -2.1777    0.7604 H   0  0  0  0  0  0  0  0  0  0  0  0
    3.3551   -1.7742   -0.4497 H   0  0  0  0  0  0  0  0  0  0  0  0
   -3.4440   -0.4764    1.5983 H   0  0  0  0  0  0  0  0  0  0  0  0
   -1.8566   -0.0271    2.2010 H   0  0  0  0  0  0  0  0  0  0  0  0
   -2.3445   -2.4859    0.9466 H   0  0  0  0  0  0  0  0  0  0  0  0
   -0.8729   -3.6568   -0.4792 H   0  0  0  0  0  0  0  0  0  0  0  0
    0.7644   -3.0453   -0.4102 H   0  0  0  0  0  0  0  0  0  0  0  0
   -0.2558   -2.7029   -1.8173 H   0  0  0  0  0  0  0  0  0  0  0  0
  1  2  1  0  0  0  0
  1  3  1  0  0  0  0
  1  5  1  0  0  0  0
  1  8  1  0  0  0  0
  2  4  1  0  0  0  0
  2  6  1  0  0  0  0
  2 16  1  0  0  0  0
  3  7  1  0  0  0  0
  3  9  1  0  0  0  0
  3 10  1  0  0  0  0
  4  5  1  0  0  0  0
  4 11  1  0  0  0  0
  4 12  1  0  0  0  0
  5 17  1  0  0  0  0
  5 18  1  0  0  0  0
  6  7  1  0  0  0  0
  6 19  1  0  0  0  0
  6 20  1  0  0  0  0
  7 21  1  0  0  0  0
  7 22  1  0  0  0  0
  8 14  2  0  0  0  0
  8 15  1  0  0  0  0
  9 13  1  0  0  0  0
  9 23  1  0  0  0  0
  9 24  1  0  0  0  0
 10 25  1  0  0  0  0
 10 26  1  0  0  0  0
 10 27  1  0  0  0  0
 11 28  1  0  0  0  0
 11 29  1  0  0  0  0
 11 30  1  0  0  0  0
 12 31  1  0  0  0  0
 12 32  1  0  0  0  0
 12 33  1  0  0  0  0
 13 14  1  0  0  0  0
 13 34  1  0  0  0  0
 13 35  1  0  0  0  0
 14 36  1  0  0  0  0
 15 37  1  0  0  0  0
 15 38  1  0  0  0  0
 15 39  1  0  0  0  0
M  END
> <PUBCHEM_COMPOUND_CID>
578929

> <PUBCHEM_CONFORMER_RMSD>
0.6

> <PUBCHEM_CONFORMER_DIVERSEORDER>
2
1
7
5
4
8
6
3

> <PUBCHEM_MMFF94_PARTIAL_CHARGES>
6
1 0.12
13 0.14
14 -0.29
15 0.14
36 0.15
8 -0.25

> <PUBCHEM_EFFECTIVE_ROTOR_COUNT>
1.2

> <PUBCHEM_PHARMACOPHORE_FEATURES>
4
3 4 11 12 hydrophobe
4 1 2 4 5 rings
6 1 3 8 9 13 14 rings
7 1 2 3 4 5 6 7 rings

> <PUBCHEM_HEAVY_ATOM_COUNT>
15

> <PUBCHEM_ATOM_DEF_STEREO_COUNT>
0

> <PUBCHEM_ATOM_UDEF_STEREO_COUNT>
3

> <PUBCHEM_BOND_DEF_STEREO_COUNT>
0

> <PUBCHEM_BOND_UDEF_STEREO_COUNT>
0

> <PUBCHEM_ISOTOPIC_ATOM_COUNT>
0

> <PUBCHEM_COMPONENT_COUNT>
1

> <PUBCHEM_CACTVS_TAUTO_COUNT>
1

> <PUBCHEM_CONFORMER_ID>
0008D57100000002

> <PUBCHEM_MMFF94_ENERGY>
54.2763

> <PUBCHEM_FEATURE_SELFOVERLAP>
24.756

> <PUBCHEM_SHAPE_FINGERPRINT>
10702982 57 16372392680842271405
10863032 1 18335424564495436017
11086676 242 18118425035710990667
12138202 97 18118091819231655420
12382932 28 18342742961377153130
12403814 3 17896035610543313788
12423570 1 15300334583043889311
13024252 1 14057298449448734380
13027679 85 17187581446531422646
13172582 1 18340505446440240267
141345 1 11642438458740608069
144361 1 18043794584442922213
14817 1 17123999004095013053
15076042 46 18265615386074327930
15490181 8 17905605502068898632
15557651 10 18334850623852631409
15852999 172 17681816432879271335
16945 1 18124040292896234056
21501502 16 17981889957948288376
2334 1 18341051903724655946
23419403 2 15975469236782002595
23559900 14 18270960142984819690
241688 4 16249964019457363955
25 1 17687166613474004949
2748010 2 18411138017542184646
369184 2 18409727335623516696
5084963 1 17532667736479949556

> <PUBCHEM_SHAPE_MULTIPOLES>
308.69
3.47
2.38
1.36
1.63
0.82
0.36
0.08
-0.65
-0.27
0.2
-0.52
-0.3
0.38

> <PUBCHEM_SHAPE_SELFOVERLAP>
660.287

> <PUBCHEM_SHAPE_VOLUME>
173.8

> <PUBCHEM_COORDINATE_TYPE>
2
5
10

$$$$
