102553
  -OEChem-09152011133D

 32 33  0     1  0  0  0  0  0999 V2000
   -1.8677   -0.5740    0.1627 O   0  0  0  0  0  0  0  0  0  0  0  0
   -2.9322    1.3422   -0.5666 O   0  0  0  0  0  0  0  0  0  0  0  0
    2.0633    0.2928    0.5730 C   0  0  0  0  0  0  0  0  0  0  0  0
    1.2836    1.3027   -0.3235 C   0  0  1  0  0  0  0  0  0  0  0  0
    1.7755   -0.7336   -0.5676 C   0  0  2  0  0  0  0  0  0  0  0  0
    1.8836    0.5044   -1.5199 C   0  0  0  0  0  0  0  0  0  0  0  0
   -0.2381    1.1609   -0.1802 C   0  0  0  0  0  0  0  0  0  0  0  0
    0.3789   -1.2760   -0.4708 C   0  0  0  0  0  0  0  0  0  0  0  0
   -0.7196   -0.2420   -0.6102 C   0  0  1  0  0  0  0  0  0  0  0  0
    1.5665    0.0206    1.9748 C   0  0  0  0  0  0  0  0  0  0  0  0
    3.5461    0.6367    0.7036 C   0  0  0  0  0  0  0  0  0  0  0  0
    0.2053   -2.5800   -0.2166 C   0  0  0  0  0  0  0  0  0  0  0  0
   -2.9064    0.3108    0.0914 C   0  0  0  0  0  0  0  0  0  0  0  0
   -4.0388   -0.1656    0.9497 C   0  0  0  0  0  0  0  0  0  0  0  0
    1.6107    2.3450   -0.2473 H   0  0  0  0  0  0  0  0  0  0  0  0
    2.5427   -1.4975   -0.7337 H   0  0  0  0  0  0  0  0  0  0  0  0
    2.8883    0.7856   -1.8489 H   0  0  0  0  0  0  0  0  0  0  0  0
    1.2690    0.4723   -2.4270 H   0  0  0  0  0  0  0  0  0  0  0  0
   -0.6886    1.9148   -0.8371 H   0  0  0  0  0  0  0  0  0  0  0  0
   -0.5473    1.4215    0.8392 H   0  0  0  0  0  0  0  0  0  0  0  0
   -1.0068   -0.2184   -1.6707 H   0  0  0  0  0  0  0  0  0  0  0  0
    1.6836    0.9037    2.6136 H   0  0  0  0  0  0  0  0  0  0  0  0
    0.5106   -0.2599    2.0202 H   0  0  0  0  0  0  0  0  0  0  0  0
    2.1243   -0.8016    2.4384 H   0  0  0  0  0  0  0  0  0  0  0  0
    3.6839    1.5119    1.3502 H   0  0  0  0  0  0  0  0  0  0  0  0
    4.0962   -0.1962    1.1581 H   0  0  0  0  0  0  0  0  0  0  0  0
    4.0585    0.8649   -0.2335 H   0  0  0  0  0  0  0  0  0  0  0  0
   -0.7878   -3.0051   -0.1189 H   0  0  0  0  0  0  0  0  0  0  0  0
    1.0470   -3.2550   -0.1029 H   0  0  0  0  0  0  0  0  0  0  0  0
   -3.7121   -0.2307    1.9906 H   0  0  0  0  0  0  0  0  0  0  0  0
   -4.3895   -1.1377    0.5942 H   0  0  0  0  0  0  0  0  0  0  0  0
   -4.8658    0.5475    0.8879 H   0  0  0  0  0  0  0  0  0  0  0  0
  1  9  1  0  0  0  0
  1 13  1  0  0  0  0
  2 13  2  0  0  0  0
  3  4  1  0  0  0  0
  3  5  1  0  0  0  0
  3 10  1  0  0  0  0
  3 11  1  0  0  0  0
  4  6  1  0  0  0  0
  4  7  1  0  0  0  0
  4 15  1  0  0  0  0
  5  6  1  0  0  0  0
  5  8  1  0  0  0  0
  5 16  1  0  0  0  0
  6 17  1  0  0  0  0
  6 18  1  0  0  0  0
  7  9  1  0  0  0  0
  7 19  1  0  0  0  0
  7 20  1  0  0  0  0
  8  9  1  0  0  0  0
  8 12  2  0  0  0  0
  9 21  1  0  0  0  0
 10 22  1  0  0  0  0
 10 23  1  0  0  0  0
 10 24  1  0  0  0  0
 11 25  1  0  0  0  0
 11 26  1  0  0  0  0
 11 27  1  0  0  0  0
 12 28  1  0  0  0  0
 12 29  1  0  0  0  0
 13 14  1  0  0  0  0
 14 30  1  0  0  0  0
 14 31  1  0  0  0  0
 14 32  1  0  0  0  0
M  END
> <PUBCHEM_COMPOUND_CID>
102553

> <PUBCHEM_CONFORMER_RMSD>
0.6

> <PUBCHEM_CONFORMER_DIVERSEORDER>
4
14
9
2
15
6
5
10
16
8
12
18
7
3
11
1
13
17

> <PUBCHEM_MMFF94_PARTIAL_CHARGES>
10
1 -0.43
12 -0.3
13 0.66
14 0.06
2 -0.57
28 0.15
29 0.15
5 0.12
8 -0.25
9 0.42

> <PUBCHEM_EFFECTIVE_ROTOR_COUNT>
2.8

> <PUBCHEM_PHARMACOPHORE_FEATURES>
3
1 2 acceptor
3 3 10 11 hydrophobe
7 3 4 5 6 7 8 9 rings

> <PUBCHEM_HEAVY_ATOM_COUNT>
14

> <PUBCHEM_ATOM_DEF_STEREO_COUNT>
0

> <PUBCHEM_ATOM_UDEF_STEREO_COUNT>
3

> <PUBCHEM_BOND_DEF_STEREO_COUNT>
0

> <PUBCHEM_BOND_UDEF_STEREO_COUNT>
0

> <PUBCHEM_ISOTOPIC_ATOM_COUNT>
0

> <PUBCHEM_COMPONENT_COUNT>
1

> <PUBCHEM_CACTVS_TAUTO_COUNT>
1

> <PUBCHEM_CONFORMER_ID>
0001909900000004

> <PUBCHEM_MMFF94_ENERGY>
46.1774

> <PUBCHEM_FEATURE_SELFOVERLAP>
15.223

> <PUBCHEM_SHAPE_FINGERPRINT>
10219947 1 18409442579223233044
11680611 10 17972301074087746618
11769659 78 14924211708009679832
12119455 92 16702011003100255132
12251169 10 17967531306857462379
12423570 1 15951806389527116654
12654215 9 18268987583767858213
12932764 1 17846499188976173197
13538477 17 17751361904714453734
13571099 52 16629952356557846146
15775835 57 17775002397049224835
16945 1 17168133542662483318
18186145 218 17846787299165679165
20645477 70 17986667078842487743
21040471 1 18340490074831383310
230 275 18201436956648453965
23235685 24 18342733039902563188
23419403 2 16539838264366526018
25 1 17131833196346818400
2748010 2 18121495756727929727
276578 36 18272375269197652418
305870 269 18340196410526658631
449060 23 12468628392105078817
5084963 1 18130516296240814519
528886 8 18411425024468414646
5337951 7 17417820555945654094
53812653 166 18131350829803286954
7364860 26 17987238815713966559
81228 2 17767398350773392167

> <PUBCHEM_SHAPE_MULTIPOLES>
276.37
5.2
1.67
1.29
4.38
1.04
0.35
-1.5
1.44
-0.05
-0.25
-0.63
-0.14
0.25

> <PUBCHEM_SHAPE_SELFOVERLAP>
577.518

> <PUBCHEM_SHAPE_VOLUME>
159.4

> <PUBCHEM_COORDINATE_TYPE>
2
5
10

$$$$
