73950880
  -OEChem-09122015233D

 39 41  0     1  0  0  0  0  0999 V2000
   -0.9369   -0.5570   -0.0592 C   0  0  1  0  0  0  0  0  0  0  0  0
   -0.3327    0.8349    0.2493 C   0  0  1  0  0  0  0  0  0  0  0  0
   -0.2472   -1.5753    0.8444 C   0  0  0  0  0  0  0  0  0  0  0  0
   -2.4474   -0.3120    0.1061 C   0  0  2  0  0  0  0  0  0  0  0  0
    1.2126    0.9893    0.0640 C   0  0  0  0  0  0  0  0  0  0  0  0
    1.1233   -1.6458    0.1654 C   0  0  1  0  0  0  0  0  0  0  0  0
   -0.5946   -1.0988   -1.4677 C   0  0  0  0  0  0  0  0  0  0  0  0
   -1.2647    1.7850   -0.5025 C   0  0  0  0  0  0  0  0  0  0  0  0
    0.7492   -1.8221   -1.3105 C   0  0  0  0  0  0  0  0  0  0  0  0
   -2.6520    1.1318   -0.4056 C   0  0  0  0  0  0  0  0  0  0  0  0
    1.9092   -0.3536    0.3986 C   0  0  0  0  0  0  0  0  0  0  0  0
   -2.9596   -0.4604    1.5405 C   0  0  0  0  0  0  0  0  0  0  0  0
    1.4445    1.4019   -1.4176 C   0  0  0  0  0  0  0  0  0  0  0  0
    1.8385    2.1237    0.9031 C   0  0  0  0  0  0  0  0  0  0  0  0
    3.1578   -0.4416    0.8918 C   0  0  0  0  0  0  0  0  0  0  0  0
   -0.5066    1.0271    1.3206 H   0  0  0  0  0  0  0  0  0  0  0  0
   -0.1804   -1.2620    1.8921 H   0  0  0  0  0  0  0  0  0  0  0  0
   -0.7530   -2.5481    0.8087 H   0  0  0  0  0  0  0  0  0  0  0  0
   -3.0309   -1.0035   -0.5138 H   0  0  0  0  0  0  0  0  0  0  0  0
    1.6836   -2.5172    0.5231 H   0  0  0  0  0  0  0  0  0  0  0  0
   -0.6151   -0.3539   -2.2638 H   0  0  0  0  0  0  0  0  0  0  0  0
   -1.3376   -1.8515   -1.7652 H   0  0  0  0  0  0  0  0  0  0  0  0
   -1.0195    1.8906   -1.5629 H   0  0  0  0  0  0  0  0  0  0  0  0
   -1.2634    2.7876   -0.0628 H   0  0  0  0  0  0  0  0  0  0  0  0
    0.6138   -2.8872   -1.5369 H   0  0  0  0  0  0  0  0  0  0  0  0
    1.5137   -1.4482   -1.9985 H   0  0  0  0  0  0  0  0  0  0  0  0
   -3.3081    1.7116    0.2531 H   0  0  0  0  0  0  0  0  0  0  0  0
   -3.1224    1.1212   -1.3960 H   0  0  0  0  0  0  0  0  0  0  0  0
   -2.4442    0.2096    2.2353 H   0  0  0  0  0  0  0  0  0  0  0  0
   -2.8309   -1.4873    1.8970 H   0  0  0  0  0  0  0  0  0  0  0  0
   -4.0295   -0.2296    1.5886 H   0  0  0  0  0  0  0  0  0  0  0  0
    2.8696    2.3526    0.6118 H   0  0  0  0  0  0  0  0  0  0  0  0
    1.2649    3.0501    0.7772 H   0  0  0  0  0  0  0  0  0  0  0  0
    1.8209    1.8863    1.9732 H   0  0  0  0  0  0  0  0  0  0  0  0
    1.0130    0.7523   -2.1713 H   0  0  0  0  0  0  0  0  0  0  0  0
    1.0992    2.4241   -1.6126 H   0  0  0  0  0  0  0  0  0  0  0  0
    2.5227    1.4107   -1.6288 H   0  0  0  0  0  0  0  0  0  0  0  0
    3.7869    0.4197    1.0767 H   0  0  0  0  0  0  0  0  0  0  0  0
    3.6023   -1.4066    1.1159 H   0  0  0  0  0  0  0  0  0  0  0  0
  1  2  1  0  0  0  0
  1  3  1  0  0  0  0
  1  4  1  0  0  0  0
  1  7  1  0  0  0  0
  2  5  1  0  0  0  0
  2  8  1  0  0  0  0
  2 16  1  0  0  0  0
  3  6  1  0  0  0  0
  3 17  1  0  0  0  0
  3 18  1  0  0  0  0
  4 10  1  0  0  0  0
  4 12  1  0  0  0  0
  4 19  1  0  0  0  0
  5 11  1  0  0  0  0
  5 13  1  0  0  0  0
  5 14  1  0  0  0  0
  6  9  1  0  0  0  0
  6 11  1  0  0  0  0
  6 20  1  0  0  0  0
  7  9  1  0  0  0  0
  7 21  1  0  0  0  0
  7 22  1  0  0  0  0
  8 10  1  0  0  0  0
  8 23  1  0  0  0  0
  8 24  1  0  0  0  0
  9 25  1  0  0  0  0
  9 26  1  0  0  0  0
 10 27  1  0  0  0  0
 10 28  1  0  0  0  0
 11 15  2  0  0  0  0
 12 29  1  0  0  0  0
 12 30  1  0  0  0  0
 12 31  1  0  0  0  0
 13 35  1  0  0  0  0
 13 36  1  0  0  0  0
 13 37  1  0  0  0  0
 14 32  1  0  0  0  0
 14 33  1  0  0  0  0
 14 34  1  0  0  0  0
 15 38  1  0  0  0  0
 15 39  1  0  0  0  0
M  END
> <PUBCHEM_COMPOUND_CID>
73950880

> <PUBCHEM_CONFORMER_RMSD>
0.6

> <PUBCHEM_CONFORMER_DIVERSEORDER>
1

> <PUBCHEM_MMFF94_PARTIAL_CHARGES>
6
11 -0.28
15 -0.3
38 0.15
39 0.15
5 0.14
6 0.14

> <PUBCHEM_EFFECTIVE_ROTOR_COUNT>
1.4

> <PUBCHEM_PHARMACOPHORE_FEATURES>
3
3 5 13 14 hydrophobe
5 1 2 4 8 10 rings
8 1 2 3 5 6 7 9 11 rings

> <PUBCHEM_HEAVY_ATOM_COUNT>
15

> <PUBCHEM_ATOM_DEF_STEREO_COUNT>
4

> <PUBCHEM_ATOM_UDEF_STEREO_COUNT>
0

> <PUBCHEM_BOND_DEF_STEREO_COUNT>
0

> <PUBCHEM_BOND_UDEF_STEREO_COUNT>
0

> <PUBCHEM_ISOTOPIC_ATOM_COUNT>
0

> <PUBCHEM_COMPONENT_COUNT>
1

> <PUBCHEM_CACTVS_TAUTO_COUNT>
1

> <PUBCHEM_CONFORMER_ID>
046866A000000001

> <PUBCHEM_MMFF94_ENERGY>
69.9988

> <PUBCHEM_FEATURE_SELFOVERLAP>
15.286

> <PUBCHEM_SHAPE_FINGERPRINT>
10863032 1 17458354034765569636
11471102 22 18408329886398880859
12423570 1 18273492364395268351
12491281 212 17916863667897774080
12696612 119 18334300842110580041
13024252 1 17895736448859369714
13172582 1 18343582953579269050
141345 1 14208664736389549958
144361 1 18124846041772420639
14617773 55 17555990804640307726
14817 1 17256552122977303846
15557651 10 18055659422823681517
15775835 57 18271525423966051881
15881359 60 17609177429039564077
16945 1 18341609295879405582
20511035 2 18336261348810610504
21501502 16 18187938278464764649
2334 1 18051969517645879114
23419403 2 16676908928951819496
241688 4 17549553902852004786
2748010 2 18335696165353168461
430814 3 17027143342684533772
5084963 1 18409449197736148817
81228 2 17261313016873258058

> <PUBCHEM_SHAPE_MULTIPOLES>
308.69
3.76
2.17
1.37
0.74
0.32
0.18
0.45
-1.33
-0.57
0.24
0.05
-0.2
0.3

> <PUBCHEM_SHAPE_SELFOVERLAP>
659.561

> <PUBCHEM_SHAPE_VOLUME>
161.2

> <PUBCHEM_COORDINATE_TYPE>
2
5
10

$$$$
