91704079
  -OEChem-09122004463D

 37 39  0     1  0  0  0  0  0999 V2000
    2.5989   -0.8551    0.9899 O   0  0  0  0  0  0  0  0  0  0  0  0
    4.5164   -0.0533    0.0024 O   0  0  0  0  0  0  0  0  0  0  0  0
   -1.4562    0.6435    0.2960 C   0  0  2  0  0  0  0  0  0  0  0  0
   -2.7340    1.3608   -0.1813 C   0  0  1  0  0  0  0  0  0  0  0  0
   -0.1962    1.1928   -0.3800 C   0  0  0  0  0  0  0  0  0  0  0  0
   -1.7652   -0.8127   -0.0211 C   0  0  0  0  0  0  0  0  0  0  0  0
    1.0680    0.8274    0.3956 C   0  0  1  0  0  0  0  0  0  0  0  0
   -3.8352    0.3844    0.2191 C   0  0  0  0  0  0  0  0  0  0  0  0
   -3.2649   -0.9748   -0.1590 C   0  0  0  0  0  0  0  0  0  0  0  0
    1.1786   -0.6251    0.8367 C   0  0  1  0  0  0  0  0  0  0  0  0
   -0.8783   -1.8061   -0.2465 C   0  0  0  0  0  0  0  0  0  0  0  0
    0.6277   -1.6800   -0.1296 C   0  0  0  0  0  0  0  0  0  0  0  0
   -2.9402    2.7352    0.4424 C   0  0  0  0  0  0  0  0  0  0  0  0
    2.3663    1.0027   -0.3165 C   0  0  0  0  0  0  0  0  0  0  0  0
   -1.3105   -3.1927   -0.6658 C   0  0  0  0  0  0  0  0  0  0  0  0
    3.3171   -0.0002    0.2050 C   0  0  0  0  0  0  0  0  0  0  0  0
    2.7077    1.8534   -1.2872 C   0  0  0  0  0  0  0  0  0  0  0  0
   -1.3795    0.7521    1.3869 H   0  0  0  0  0  0  0  0  0  0  0  0
   -2.7233    1.4665   -1.2754 H   0  0  0  0  0  0  0  0  0  0  0  0
   -0.2479    2.2865   -0.4432 H   0  0  0  0  0  0  0  0  0  0  0  0
   -0.1373    0.8367   -1.4175 H   0  0  0  0  0  0  0  0  0  0  0  0
    1.1133    1.4557    1.2972 H   0  0  0  0  0  0  0  0  0  0  0  0
   -4.7796    0.5881   -0.2958 H   0  0  0  0  0  0  0  0  0  0  0  0
   -4.0264    0.4263    1.2991 H   0  0  0  0  0  0  0  0  0  0  0  0
   -3.5231   -1.2066   -1.1988 H   0  0  0  0  0  0  0  0  0  0  0  0
   -3.6630   -1.7542    0.4979 H   0  0  0  0  0  0  0  0  0  0  0  0
    0.7240   -0.7577    1.8262 H   0  0  0  0  0  0  0  0  0  0  0  0
    1.0255   -2.6472    0.2102 H   0  0  0  0  0  0  0  0  0  0  0  0
    1.0514   -1.5424   -1.1332 H   0  0  0  0  0  0  0  0  0  0  0  0
   -2.1573    3.4332    0.1316 H   0  0  0  0  0  0  0  0  0  0  0  0
   -3.9032    3.1557    0.1338 H   0  0  0  0  0  0  0  0  0  0  0  0
   -2.9311    2.6840    1.5364 H   0  0  0  0  0  0  0  0  0  0  0  0
   -0.8213   -3.4678   -1.6065 H   0  0  0  0  0  0  0  0  0  0  0  0
   -2.3874   -3.2902   -0.8237 H   0  0  0  0  0  0  0  0  0  0  0  0
   -1.0252   -3.9228    0.0991 H   0  0  0  0  0  0  0  0  0  0  0  0
    1.9984    2.5792   -1.6699 H   0  0  0  0  0  0  0  0  0  0  0  0
    3.7007    1.8527   -1.7241 H   0  0  0  0  0  0  0  0  0  0  0  0
  1 10  1  0  0  0  0
  1 16  1  0  0  0  0
  2 16  2  0  0  0  0
  3  4  1  0  0  0  0
  3  5  1  0  0  0  0
  3  6  1  0  0  0  0
  3 18  1  0  0  0  0
  4  8  1  0  0  0  0
  4 13  1  0  0  0  0
  4 19  1  0  0  0  0
  5  7  1  0  0  0  0
  5 20  1  0  0  0  0
  5 21  1  0  0  0  0
  6  9  1  0  0  0  0
  6 11  2  0  0  0  0
  7 10  1  0  0  0  0
  7 14  1  0  0  0  0
  7 22  1  0  0  0  0
  8  9  1  0  0  0  0
  8 23  1  0  0  0  0
  8 24  1  0  0  0  0
  9 25  1  0  0  0  0
  9 26  1  0  0  0  0
 10 12  1  0  0  0  0
 10 27  1  0  0  0  0
 11 12  1  0  0  0  0
 11 15  1  0  0  0  0
 12 28  1  0  0  0  0
 12 29  1  0  0  0  0
 13 30  1  0  0  0  0
 13 31  1  0  0  0  0
 13 32  1  0  0  0  0
 14 16  1  0  0  0  0
 14 17  2  0  0  0  0
 15 33  1  0  0  0  0
 15 34  1  0  0  0  0
 15 35  1  0  0  0  0
 17 36  1  0  0  0  0
 17 37  1  0  0  0  0
M  END
> <PUBCHEM_COMPOUND_CID>
91704079

> <PUBCHEM_CONFORMER_RMSD>
0.6

> <PUBCHEM_CONFORMER_DIVERSEORDER>
2
9
15
3
5
4
16
11
1
10
7
12
14
6
8
13

> <PUBCHEM_MMFF94_PARTIAL_CHARGES>
15
1 -0.43
10 0.28
11 -0.28
12 0.14
14 -0.12
15 0.14
16 0.71
17 -0.3
2 -0.57
3 0.14
36 0.15
37 0.15
6 -0.28
7 0.14
9 0.14

> <PUBCHEM_EFFECTIVE_ROTOR_COUNT>
1.2

> <PUBCHEM_PHARMACOPHORE_FEATURES>
4
1 2 acceptor
5 1 7 10 14 16 rings
5 3 4 6 8 9 rings
7 3 5 6 7 10 11 12 rings

> <PUBCHEM_HEAVY_ATOM_COUNT>
17

> <PUBCHEM_ATOM_DEF_STEREO_COUNT>
0

> <PUBCHEM_ATOM_UDEF_STEREO_COUNT>
4

> <PUBCHEM_BOND_DEF_STEREO_COUNT>
0

> <PUBCHEM_BOND_UDEF_STEREO_COUNT>
0

> <PUBCHEM_ISOTOPIC_ATOM_COUNT>
0

> <PUBCHEM_COMPONENT_COUNT>
1

> <PUBCHEM_CACTVS_TAUTO_COUNT>
1

> <PUBCHEM_CONFORMER_ID>
05774B0F00000002

> <PUBCHEM_MMFF94_ENERGY>
36.9625

> <PUBCHEM_FEATURE_SELFOVERLAP>
20.361

> <PUBCHEM_SHAPE_FINGERPRINT>
10382601 240 17829340089842599337
10465860 228 17838625457192235217
10616163 171 18410576231467430366
10967382 1 18339359665219344643
11132069 177 18411411834555263864
12173636 292 18413384341494471021
12251169 10 18261109655874192137
12491281 212 18334303079788664864
12500047 106 18343575223002191560
12553582 1 17547570838974063174
13140716 1 18123469646672862843
13221675 6 18336264634265530162
13380535 76 18411981334587311359
13538477 17 18264202676619898846
13583140 156 17240199907303276065
14115302 16 18341615940510369064
14289901 80 15285360621647394673
14787075 74 17317898197771164907
15042514 8 18339364196737519675
15196674 1 18338796706491352994
15279307 12 18334856129863645834
15309172 13 18412834572995712499
15442244 35 18336260155020841882
15669948 3 18268430315940021071
15775835 57 18335423464925831304
16752209 62 18341883104766682871
16945 1 18341887549841666835
1813 80 17168702995887980882
19422 9 18259706726276463472
20233049 118 18271802402528780824
20261772 1 18268441303041715107
20510252 161 18202002131542797049
20645476 183 18407479959452352311
21267235 1 18335428979669263603
21501502 16 18266734684790457859
21524375 3 18408041788693265251
21634736 98 18190463964037399324
2334 1 17547005686055021763
23402539 116 18272642463729773061
23419403 2 14305711240429899651
23463225 33 18334573516657096744
23557571 272 17914618499851249218
23559900 14 18131068243506154656
23598291 2 18187366566741032724
2748010 2 16752116516392025149
3091708 16 9126256045050941803
352729 6 18411699915513903255
474 4 17314514936126075828
53812653 8 18410862096163993925
54173680 148 18195244644684623763
58051976 378 18341612581909240901
69090 78 18341327868252823719
6992083 37 18259987080245922972
7364860 26 17839181814339013551
74978 22 18340764965538832848
7832392 63 18408601496120535772
81228 2 17839443828908817283
90525 40 18410572864418240039
9709674 26 18272375303884594614
9981440 41 17251743959209989512

> <PUBCHEM_SHAPE_MULTIPOLES>
338.11
6.41
2.75
0.87
2.26
0.79
0.06
-1.99
-0.09
-1.85
0.51
0.37
-0.08
-0.95

> <PUBCHEM_SHAPE_SELFOVERLAP>
721.071

> <PUBCHEM_SHAPE_VOLUME>
189.8

> <PUBCHEM_COORDINATE_TYPE>
2
5
10

$$$$
