524246
  -OEChem-09122005143D

 47 47  0     1  0  0  0  0  0999 V2000
   -0.5055   -1.9083   -0.3496 O   0  0  0  0  0  0  0  0  0  0  0  0
    1.5408   -2.9066    0.0416 O   0  0  0  0  0  0  0  0  0  0  0  0
   -1.2569    0.2310    0.4066 C   0  0  2  0  0  0  0  0  0  0  0  0
   -0.1007   -0.7662    0.4077 C   0  0  2  0  0  0  0  0  0  0  0  0
   -2.5165   -0.3811    1.0276 C   0  0  0  0  0  0  0  0  0  0  0  0
   -1.5524    0.7218   -1.0197 C   0  0  0  0  0  0  0  0  0  0  0  0
    1.1422   -0.1298   -0.2497 C   0  0  0  0  0  0  0  0  0  0  0  0
   -3.6605    0.6364    1.0770 C   0  0  0  0  0  0  0  0  0  0  0  0
    0.1706   -1.2368    1.8376 C   0  0  0  0  0  0  0  0  0  0  0  0
   -3.8045    1.4491   -0.1854 C   0  0  0  0  0  0  0  0  0  0  0  0
   -2.8503    1.4672   -1.1318 C   0  0  0  0  0  0  0  0  0  0  0  0
    1.6057    1.1782    0.4041 C   0  0  0  0  0  0  0  0  0  0  0  0
   -5.0731    2.2377   -0.3228 C   0  0  0  0  0  0  0  0  0  0  0  0
    2.7697    1.7717   -0.3407 C   0  0  0  0  0  0  0  0  0  0  0  0
    0.4202   -2.9057   -0.4497 C   0  0  0  0  0  0  0  0  0  0  0  0
    4.0808    1.6018   -0.0853 C   0  0  0  0  0  0  0  0  0  0  0  0
   -0.1392   -4.0312   -1.2659 C   0  0  0  0  0  0  0  0  0  0  0  0
    5.2001    2.2252   -0.8703 C   0  0  0  0  0  0  0  0  0  0  0  0
    4.5294    0.7457    1.0687 C   0  0  0  0  0  0  0  0  0  0  0  0
   -1.0047    1.1011    1.0272 H   0  0  0  0  0  0  0  0  0  0  0  0
   -2.3445   -0.7310    2.0506 H   0  0  0  0  0  0  0  0  0  0  0  0
   -2.8449   -1.2519    0.4452 H   0  0  0  0  0  0  0  0  0  0  0  0
   -1.5860   -0.1087   -1.7346 H   0  0  0  0  0  0  0  0  0  0  0  0
   -0.7642    1.4049   -1.3546 H   0  0  0  0  0  0  0  0  0  0  0  0
    2.0064   -0.7986   -0.2206 H   0  0  0  0  0  0  0  0  0  0  0  0
    0.9710    0.0169   -1.3245 H   0  0  0  0  0  0  0  0  0  0  0  0
   -3.4976    1.3258    1.9149 H   0  0  0  0  0  0  0  0  0  0  0  0
   -4.5937    0.0977    1.2811 H   0  0  0  0  0  0  0  0  0  0  0  0
    1.1855   -1.6273    1.9671 H   0  0  0  0  0  0  0  0  0  0  0  0
    0.0864   -0.4113    2.5541 H   0  0  0  0  0  0  0  0  0  0  0  0
   -0.5111   -2.0359    2.1504 H   0  0  0  0  0  0  0  0  0  0  0  0
   -2.9987    2.0489   -2.0379 H   0  0  0  0  0  0  0  0  0  0  0  0
    1.8371    1.0288    1.4629 H   0  0  0  0  0  0  0  0  0  0  0  0
    0.8174    1.9374    0.3815 H   0  0  0  0  0  0  0  0  0  0  0  0
   -5.1023    2.8149   -1.2529 H   0  0  0  0  0  0  0  0  0  0  0  0
   -5.1733    2.9418    0.5096 H   0  0  0  0  0  0  0  0  0  0  0  0
   -5.9392    1.5681   -0.3184 H   0  0  0  0  0  0  0  0  0  0  0  0
    2.4974    2.3938   -1.1922 H   0  0  0  0  0  0  0  0  0  0  0  0
   -0.3771   -3.6765   -2.2719 H   0  0  0  0  0  0  0  0  0  0  0  0
   -1.0303   -4.4347   -0.7786 H   0  0  0  0  0  0  0  0  0  0  0  0
    0.6062   -4.8278   -1.3444 H   0  0  0  0  0  0  0  0  0  0  0  0
    5.8336    1.4507   -1.3140 H   0  0  0  0  0  0  0  0  0  0  0  0
    4.8211    2.8537   -1.6829 H   0  0  0  0  0  0  0  0  0  0  0  0
    5.8174    2.8541   -0.2208 H   0  0  0  0  0  0  0  0  0  0  0  0
    3.7452    0.1229    1.5043 H   0  0  0  0  0  0  0  0  0  0  0  0
    4.9447    1.3755    1.8624 H   0  0  0  0  0  0  0  0  0  0  0  0
    5.3147    0.0571    0.7364 H   0  0  0  0  0  0  0  0  0  0  0  0
  1  4  1  0  0  0  0
  1 15  1  0  0  0  0
  2 15  2  0  0  0  0
  3  4  1  0  0  0  0
  3  5  1  0  0  0  0
  3  6  1  0  0  0  0
  3 20  1  0  0  0  0
  4  7  1  0  0  0  0
  4  9  1  0  0  0  0
  5  8  1  0  0  0  0
  5 21  1  0  0  0  0
  5 22  1  0  0  0  0
  6 11  1  0  0  0  0
  6 23  1  0  0  0  0
  6 24  1  0  0  0  0
  7 12  1  0  0  0  0
  7 25  1  0  0  0  0
  7 26  1  0  0  0  0
  8 10  1  0  0  0  0
  8 27  1  0  0  0  0
  8 28  1  0  0  0  0
  9 29  1  0  0  0  0
  9 30  1  0  0  0  0
  9 31  1  0  0  0  0
 10 11  2  0  0  0  0
 10 13  1  0  0  0  0
 11 32  1  0  0  0  0
 12 14  1  0  0  0  0
 12 33  1  0  0  0  0
 12 34  1  0  0  0  0
 13 35  1  0  0  0  0
 13 36  1  0  0  0  0
 13 37  1  0  0  0  0
 14 16  2  0  0  0  0
 14 38  1  0  0  0  0
 15 17  1  0  0  0  0
 16 18  1  0  0  0  0
 16 19  1  0  0  0  0
 17 39  1  0  0  0  0
 17 40  1  0  0  0  0
 17 41  1  0  0  0  0
 18 42  1  0  0  0  0
 18 43  1  0  0  0  0
 18 44  1  0  0  0  0
 19 45  1  0  0  0  0
 19 46  1  0  0  0  0
 19 47  1  0  0  0  0
M  END
> <PUBCHEM_COMPOUND_CID>
524246

> <PUBCHEM_CONFORMER_RMSD>
0.8

> <PUBCHEM_CONFORMER_DIVERSEORDER>
2
98
68
55
29
92
77
21
93
20
38
53
9
94
49
42
15
26
59
83
30
79
72
58
88
45
4
95
39
31
85
97
22
51
44
80
17
23
87
74
19
33
62
48
24
70
60
40
11
86
78
47
3
56
69
75
50
54
28
14
34
61
8
46
25
57
27
66
18
91
71
7
41
65
16
89
63
43
52
32
64
37
6
13
73
67
96
5
82
84
90
12
76
81
10
35
36
1

> <PUBCHEM_MMFF94_PARTIAL_CHARGES>
17
1 -0.43
10 -0.28
11 -0.29
12 0.14
13 0.14
14 -0.29
15 0.66
16 -0.28
17 0.06
18 0.14
19 0.14
2 -0.57
32 0.15
38 0.15
4 0.28
6 0.14
8 0.14

> <PUBCHEM_EFFECTIVE_ROTOR_COUNT>
6.8

> <PUBCHEM_PHARMACOPHORE_FEATURES>
3
1 2 acceptor
3 16 18 19 hydrophobe
6 3 5 6 8 10 11 rings

> <PUBCHEM_HEAVY_ATOM_COUNT>
19

> <PUBCHEM_ATOM_DEF_STEREO_COUNT>
0

> <PUBCHEM_ATOM_UDEF_STEREO_COUNT>
2

> <PUBCHEM_BOND_DEF_STEREO_COUNT>
0

> <PUBCHEM_BOND_UDEF_STEREO_COUNT>
0

> <PUBCHEM_ISOTOPIC_ATOM_COUNT>
0

> <PUBCHEM_COMPONENT_COUNT>
1

> <PUBCHEM_CACTVS_TAUTO_COUNT>
1

> <PUBCHEM_CONFORMER_ID>
0007FFD600000002

> <PUBCHEM_MMFF94_ENERGY>
37.2302

> <PUBCHEM_FEATURE_SELFOVERLAP>
15.223

> <PUBCHEM_SHAPE_FINGERPRINT>
107951 10 17749683964825509034
11045515 52 11671795866069061722
11833330 49 17619618520316668435
12119455 92 18335415776976712457
121448 382 17916570072502417327
12500047 106 18270401732463696552
12592029 89 18409451371190275386
12730499 353 18339089198681715593
12788726 201 17905315579155806722
13004483 165 17334208426177111806
13544653 18 10231757803279130112
13681431 1 17837490752211948034
14178000 22 18341889744601486634
14178342 30 16660658327967181545
14251751 93 18335414733473622586
14508225 48 17406828961172162895
15042514 8 17834404788214053475
15502722 9 18268431239684939727
15664445 248 17339296518907750590
167882 2 18338239267519315502
17539 30 17840017786494088486
1813 80 17054153558627517703
18222031 100 11097858492756309080
18785283 64 18264209110470482034
18915476 22 18268159673377174691
204376 136 18411139147066017797
20600515 1 16092887840153838926
20645477 56 18197508530831497384
212916 134 18200577181848247496
21452121 103 18189894206576943129
21524375 3 18334291010914686921
2255824 54 18055630612621202375
22907989 373 17835515299526654284
23419403 2 17830499073724579434
23558518 356 17903064878748046168
23559900 14 18122342372545452707
23598288 3 17826531142840053604
298252 57 18410007771239156760
3057174 1 18272936002985067950
3084891 72 18343301466129606976
3729539 64 18053129271245059814
474 4 18411417267620626841
495365 180 18341324483686712744
5104073 3 17897173425502098841
532947 4 18270968917139080926
59755656 520 17844831310892543962
7364860 26 18195244421282442727
81228 2 17545026564877150994
81539 233 18336546027642980976
8272917 22 18198060275151725501
84936 31 18199180681410450215
9862522 239 18261379083620676788

> <PUBCHEM_SHAPE_MULTIPOLES>
379.27
8.74
3.77
1.29
3.53
4.67
-0.24
-10.87
0.32
0.66
1.7
-0.15
0.33
0

> <PUBCHEM_SHAPE_SELFOVERLAP>
753.163

> <PUBCHEM_SHAPE_VOLUME>
224

> <PUBCHEM_COORDINATE_TYPE>
2
5
10

$$$$
