13254166
  -OEChem-08312001493D

 37 38  0     1  0  0  0  0  0999 V2000
    1.2860    0.8650    0.1134 O   0  0  0  0  0  0  0  0  0  0  0  0
   -0.5640   -0.5578    0.1571 O   0  0  0  0  0  0  0  0  0  0  0  0
    3.8264   -2.3349   -0.5460 O   0  0  0  0  0  0  0  0  0  0  0  0
    3.4501    0.1983   -1.6278 O   0  0  0  0  0  0  0  0  0  0  0  0
    1.1762   -2.7723    0.5267 O   0  0  0  0  0  0  0  0  0  0  0  0
    2.1276    3.4111    0.7042 O   0  0  0  0  0  0  0  0  0  0  0  0
    3.0975   -1.3564    0.1900 C   0  0  1  0  0  0  0  0  0  0  0  0
    3.5499    0.0484   -0.2102 C   0  0  2  0  0  0  0  0  0  0  0  0
    1.6026   -1.5455   -0.0657 C   0  0  2  0  0  0  0  0  0  0  0  0
    2.6560    1.0932    0.4666 C   0  0  1  0  0  0  0  0  0  0  0  0
    0.7978   -0.4012    0.5546 C   0  0  1  0  0  0  0  0  0  0  0  0
    3.0041    2.5156    0.0439 C   0  0  0  0  0  0  0  0  0  0  0  0
   -1.3796    0.4710    0.6953 C   0  0  0  0  0  0  0  0  0  0  0  0
   -2.7958    0.2580    0.2474 C   0  0  0  0  0  0  0  0  0  0  0  0
   -3.2375    0.8367   -0.9372 C   0  0  0  0  0  0  0  0  0  0  0  0
   -3.6535   -0.5165    1.0207 C   0  0  0  0  0  0  0  0  0  0  0  0
   -4.5539    0.6386   -1.3538 C   0  0  0  0  0  0  0  0  0  0  0  0
   -4.9698   -0.7145    0.6039 C   0  0  0  0  0  0  0  0  0  0  0  0
   -5.4200   -0.1369   -0.5834 C   0  0  0  0  0  0  0  0  0  0  0  0
    3.3181   -1.5256    1.2514 H   0  0  0  0  0  0  0  0  0  0  0  0
    4.6031    0.1954    0.0514 H   0  0  0  0  0  0  0  0  0  0  0  0
    1.4046   -1.6300   -1.1410 H   0  0  0  0  0  0  0  0  0  0  0  0
    2.7373    1.0202    1.5592 H   0  0  0  0  0  0  0  0  0  0  0  0
    0.8417   -0.4556    1.6509 H   0  0  0  0  0  0  0  0  0  0  0  0
    2.8748    2.6677   -1.0323 H   0  0  0  0  0  0  0  0  0  0  0  0
    4.0331    2.7696    0.3149 H   0  0  0  0  0  0  0  0  0  0  0  0
    3.4958   -3.2087   -0.2760 H   0  0  0  0  0  0  0  0  0  0  0  0
    2.5082    0.2220   -1.8670 H   0  0  0  0  0  0  0  0  0  0  0  0
    0.2195   -2.8530    0.3713 H   0  0  0  0  0  0  0  0  0  0  0  0
   -1.0409    1.4590    0.3605 H   0  0  0  0  0  0  0  0  0  0  0  0
   -1.3261    0.4600    1.7913 H   0  0  0  0  0  0  0  0  0  0  0  0
    1.2185    3.1667    0.4598 H   0  0  0  0  0  0  0  0  0  0  0  0
   -2.5707    1.4407   -1.5463 H   0  0  0  0  0  0  0  0  0  0  0  0
   -3.3127   -0.9729    1.9459 H   0  0  0  0  0  0  0  0  0  0  0  0
   -4.9043    1.0877   -2.2785 H   0  0  0  0  0  0  0  0  0  0  0  0
   -5.6442   -1.3190    1.2034 H   0  0  0  0  0  0  0  0  0  0  0  0
   -6.4449   -0.2915   -0.9079 H   0  0  0  0  0  0  0  0  0  0  0  0
  1 10  1  0  0  0  0
  1 11  1  0  0  0  0
  2 11  1  0  0  0  0
  2 13  1  0  0  0  0
  3  7  1  0  0  0  0
  3 27  1  0  0  0  0
  4  8  1  0  0  0  0
  4 28  1  0  0  0  0
  5  9  1  0  0  0  0
  5 29  1  0  0  0  0
  6 12  1  0  0  0  0
  6 32  1  0  0  0  0
  7  8  1  0  0  0  0
  7  9  1  0  0  0  0
  7 20  1  0  0  0  0
  8 10  1  0  0  0  0
  8 21  1  0  0  0  0
  9 11  1  0  0  0  0
  9 22  1  0  0  0  0
 10 12  1  0  0  0  0
 10 23  1  0  0  0  0
 11 24  1  0  0  0  0
 12 25  1  0  0  0  0
 12 26  1  0  0  0  0
 13 14  1  0  0  0  0
 13 30  1  0  0  0  0
 13 31  1  0  0  0  0
 14 15  2  0  0  0  0
 14 16  1  0  0  0  0
 15 17  1  0  0  0  0
 15 33  1  0  0  0  0
 16 18  2  0  0  0  0
 16 34  1  0  0  0  0
 17 19  2  0  0  0  0
 17 35  1  0  0  0  0
 18 19  1  0  0  0  0
 18 36  1  0  0  0  0
 19 37  1  0  0  0  0
M  END
> <PUBCHEM_COMPOUND_CID>
13254166

> <PUBCHEM_CONFORMER_RMSD>
0.8

> <PUBCHEM_CONFORMER_DIVERSEORDER>
1
15
11
17
6
16
13
9
4
10
7
5
14
2
8
12
3

> <PUBCHEM_MMFF94_PARTIAL_CHARGES>
28
1 -0.56
10 0.28
11 0.56
12 0.28
13 0.42
14 -0.14
15 -0.15
16 -0.15
17 -0.15
18 -0.15
19 -0.15
2 -0.56
27 0.4
28 0.4
29 0.4
3 -0.68
32 0.4
33 0.15
34 0.15
35 0.15
36 0.15
37 0.15
4 -0.68
5 -0.68
6 -0.68
7 0.28
8 0.28
9 0.28

> <PUBCHEM_EFFECTIVE_ROTOR_COUNT>
5.2

> <PUBCHEM_PHARMACOPHORE_FEATURES>
12
1 1 acceptor
1 2 acceptor
1 3 acceptor
1 3 donor
1 4 acceptor
1 4 donor
1 5 acceptor
1 5 donor
1 6 acceptor
1 6 donor
6 1 7 8 9 10 11 rings
6 14 15 16 17 18 19 rings

> <PUBCHEM_HEAVY_ATOM_COUNT>
19

> <PUBCHEM_ATOM_DEF_STEREO_COUNT>
4

> <PUBCHEM_ATOM_UDEF_STEREO_COUNT>
1

> <PUBCHEM_BOND_DEF_STEREO_COUNT>
0

> <PUBCHEM_BOND_UDEF_STEREO_COUNT>
0

> <PUBCHEM_ISOTOPIC_ATOM_COUNT>
0

> <PUBCHEM_COMPONENT_COUNT>
1

> <PUBCHEM_CACTVS_TAUTO_COUNT>
1

> <PUBCHEM_CONFORMER_ID>
00CA3E1600000001

> <PUBCHEM_MMFF94_ENERGY>
51.9458

> <PUBCHEM_FEATURE_SELFOVERLAP>
60.966

> <PUBCHEM_SHAPE_FINGERPRINT>
10366900 7 18187090541919499905
11471102 20 18410573972504036610
11615757 297 18272091582692378203
12236239 1 17418095416451234857
12403259 415 18113902680162028037
12616971 3 17917992776593585975
12730499 353 18335991972593184201
12769317 202 18199179783794505680
13167823 11 18272365378536861815
13955234 65 18341330075908167090
15961568 22 17023187196515802428
17844677 252 18341898481066483953
18186145 218 18343025522669385553
18915474 69 17561075938829373975
200 152 18201716224433922363
20369508 70 18409725136842990818
20645477 56 17822287943381016509
20645477 70 18413106143435323799
21065201 7 16877659059231446547
21639500 275 18412542136877606760
221357 26 18337388249656154805
221490 88 18409452461821577547
22289505 5 18335697209114695620
2255824 54 18344147003355521858
22646028 1 17704068469751566299
22892500 29 18408316683711558828
23402655 69 18410293592759771711
23557571 272 17458346343027801189
23559900 14 17603866672008312243
23596394 208 18261106344765649699
3060560 45 18413108364233933958
312423 11 18059868237697875401
3286 77 18335419028425042308
341906 21 16008738113781345101
42630746 31 18271803562106543048
474 4 18198339748405014816
495365 180 18338506538506272688
5104073 3 18259704489300194569
5281201 14 18409166584793759789
633830 44 18130803269007889529
7471813 234 17989199313728967560
9709674 26 18260831540116055003

> <PUBCHEM_SHAPE_MULTIPOLES>
355.8
10.64
2.47
1.06
10.81
0.73
0.24
-0.19
2.1
-3.92
-0.37
0.47
0.12
1.01

> <PUBCHEM_SHAPE_SELFOVERLAP>
738.989

> <PUBCHEM_SHAPE_VOLUME>
199.8

> <PUBCHEM_COORDINATE_TYPE>
2
5
10

$$$$
