11706085
  -OEChem-08312001243D

 75 77  0     1  0  0  0  0  0999 V2000
   -1.2249    0.8930    0.3173 O   0  0  0  0  0  0  0  0  0  0  0  0
    1.0707    1.3055    0.3782 O   0  0  0  0  0  0  0  0  0  0  0  0
    3.5250    0.1257    0.0033 O   0  0  0  0  0  0  0  0  0  0  0  0
    5.8920    0.1007   -0.0200 O   0  0  0  0  0  0  0  0  0  0  0  0
   -1.6676    3.5892   -0.4198 O   0  0  0  0  0  0  0  0  0  0  0  0
    0.4678    5.3637    0.5661 O   0  0  0  0  0  0  0  0  0  0  0  0
    3.0643    4.3285   -0.1701 O   0  0  0  0  0  0  0  0  0  0  0  0
    6.7392   -2.4503    1.2025 O   0  0  0  0  0  0  0  0  0  0  0  0
    4.0116   -2.8469    0.7899 O   0  0  0  0  0  0  0  0  0  0  0  0
    8.0044   -3.5064   -1.0575 O   0  0  0  0  0  0  0  0  0  0  0  0
   -8.4606   -0.9892    0.7772 O   0  0  0  0  0  0  0  0  0  0  0  0
   -3.3336   -1.2557    0.8710 C   0  0  0  0  0  0  0  0  0  0  0  0
   -1.9158   -1.4412    0.2587 C   0  0  0  0  0  0  0  0  0  0  0  0
   -1.4210   -0.2346   -0.5277 C   0  0  1  0  0  0  0  0  0  0  0  0
   -4.2985   -0.5660   -0.1143 C   0  0  0  0  0  0  0  0  0  0  0  0
   -2.4035    0.1308   -1.6336 C   0  0  0  0  0  0  0  0  0  0  0  0
   -3.8664    0.0307   -1.2522 C   0  0  0  0  0  0  0  0  0  0  0  0
   -0.1760    1.7311   -0.1670 C   0  0  2  0  0  0  0  0  0  0  0  0
   -0.4854    3.1662    0.2591 C   0  0  1  0  0  0  0  0  0  0  0  0
    2.1694    2.0907   -0.0885 C   0  0  1  0  0  0  0  0  0  0  0  0
    0.6654    4.1102   -0.0898 C   0  0  2  0  0  0  0  0  0  0  0  0
    2.0072    3.5413    0.3718 C   0  0  2  0  0  0  0  0  0  0  0  0
   -3.8387   -2.6708    1.2385 C   0  0  0  0  0  0  0  0  0  0  0  0
   -3.2399   -0.4299    2.1741 C   0  0  0  0  0  0  0  0  0  0  0  0
   -5.7628   -0.5891    0.2698 C   0  0  0  0  0  0  0  0  0  0  0  0
    3.4477    1.4641    0.4591 C   0  0  0  0  0  0  0  0  0  0  0  0
    6.2122   -2.2432   -0.1083 C   0  0  1  0  0  0  0  0  0  0  0  0
    4.7240   -1.9541   -0.0440 C   0  0  2  0  0  0  0  0  0  0  0  0
    4.6958   -0.5242    0.4761 C   0  0  2  0  0  0  0  0  0  0  0  0
   -4.7760    0.6403   -2.2914 C   0  0  0  0  0  0  0  0  0  0  0  0
   -6.4678   -1.7899   -0.3348 C   0  0  0  0  0  0  0  0  0  0  0  0
    6.7334   -0.9080   -0.6151 C   0  0  0  0  0  0  0  0  0  0  0  0
    6.5905   -3.4244   -0.9853 C   0  0  0  0  0  0  0  0  0  0  0  0
   -7.9386   -1.8266    0.0429 C   0  0  0  0  0  0  0  0  0  0  0  0
   -8.7437   -2.9610   -0.5362 C   0  0  0  0  0  0  0  0  0  0  0  0
   -1.1981   -1.6751    1.0558 H   0  0  0  0  0  0  0  0  0  0  0  0
   -1.9205   -2.3061   -0.4196 H   0  0  0  0  0  0  0  0  0  0  0  0
   -0.4604   -0.5200   -0.9787 H   0  0  0  0  0  0  0  0  0  0  0  0
   -2.2068    1.1476   -1.9929 H   0  0  0  0  0  0  0  0  0  0  0  0
   -2.2427   -0.5474   -2.4821 H   0  0  0  0  0  0  0  0  0  0  0  0
   -0.1285    1.6868   -1.2641 H   0  0  0  0  0  0  0  0  0  0  0  0
   -0.7005    3.2065    1.3342 H   0  0  0  0  0  0  0  0  0  0  0  0
    2.2046    2.0289   -1.1848 H   0  0  0  0  0  0  0  0  0  0  0  0
    0.6755    4.3189   -1.1669 H   0  0  0  0  0  0  0  0  0  0  0  0
    2.0746    3.6004    1.4658 H   0  0  0  0  0  0  0  0  0  0  0  0
   -3.1075   -3.1793    1.8798 H   0  0  0  0  0  0  0  0  0  0  0  0
   -3.9673   -3.2978    0.3492 H   0  0  0  0  0  0  0  0  0  0  0  0
   -4.7751   -2.6518    1.8052 H   0  0  0  0  0  0  0  0  0  0  0  0
   -3.0530    0.6306    1.9776 H   0  0  0  0  0  0  0  0  0  0  0  0
   -2.4349   -0.7990    2.8199 H   0  0  0  0  0  0  0  0  0  0  0  0
   -4.1638   -0.4858    2.7604 H   0  0  0  0  0  0  0  0  0  0  0  0
   -6.2582    0.3415   -0.0339 H   0  0  0  0  0  0  0  0  0  0  0  0
   -5.8776   -0.5962    1.3594 H   0  0  0  0  0  0  0  0  0  0  0  0
    4.3208    2.0318    0.1196 H   0  0  0  0  0  0  0  0  0  0  0  0
    3.4240    1.4629    1.5556 H   0  0  0  0  0  0  0  0  0  0  0  0
    4.2772   -2.0029   -1.0457 H   0  0  0  0  0  0  0  0  0  0  0  0
    4.7108   -0.5014    1.5732 H   0  0  0  0  0  0  0  0  0  0  0  0
   -4.5467    0.2226   -3.2781 H   0  0  0  0  0  0  0  0  0  0  0  0
   -4.6202    1.7235   -2.3334 H   0  0  0  0  0  0  0  0  0  0  0  0
   -5.8395    0.4663   -2.1202 H   0  0  0  0  0  0  0  0  0  0  0  0
   -6.4149   -1.7547   -1.4290 H   0  0  0  0  0  0  0  0  0  0  0  0
   -6.0458   -2.7428   -0.0152 H   0  0  0  0  0  0  0  0  0  0  0  0
    6.6375   -0.8099   -1.7020 H   0  0  0  0  0  0  0  0  0  0  0  0
    7.7684   -0.7028   -0.3253 H   0  0  0  0  0  0  0  0  0  0  0  0
    6.1935   -3.3177   -1.9999 H   0  0  0  0  0  0  0  0  0  0  0  0
    6.2222   -4.3610   -0.5538 H   0  0  0  0  0  0  0  0  0  0  0  0
   -1.8393    4.5097   -0.1574 H   0  0  0  0  0  0  0  0  0  0  0  0
    1.1334    5.9842    0.2248 H   0  0  0  0  0  0  0  0  0  0  0  0
    3.0127    5.2111    0.2334 H   0  0  0  0  0  0  0  0  0  0  0  0
    7.6992   -2.5829    1.1197 H   0  0  0  0  0  0  0  0  0  0  0  0
    3.0976   -2.5208    0.8521 H   0  0  0  0  0  0  0  0  0  0  0  0
    8.2186   -4.2707   -1.6192 H   0  0  0  0  0  0  0  0  0  0  0  0
   -8.3313   -3.9141   -0.1961 H   0  0  0  0  0  0  0  0  0  0  0  0
   -8.7205   -2.9070   -1.6273 H   0  0  0  0  0  0  0  0  0  0  0  0
   -9.7818   -2.8855   -0.2009 H   0  0  0  0  0  0  0  0  0  0  0  0
  1 14  1  0  0  0  0
  1 18  1  0  0  0  0
  2 18  1  0  0  0  0
  2 20  1  0  0  0  0
  3 26  1  0  0  0  0
  3 29  1  0  0  0  0
  4 29  1  0  0  0  0
  4 32  1  0  0  0  0
  5 19  1  0  0  0  0
  5 67  1  0  0  0  0
  6 21  1  0  0  0  0
  6 68  1  0  0  0  0
  7 22  1  0  0  0  0
  7 69  1  0  0  0  0
  8 27  1  0  0  0  0
  8 70  1  0  0  0  0
  9 28  1  0  0  0  0
  9 71  1  0  0  0  0
 10 33  1  0  0  0  0
 10 72  1  0  0  0  0
 11 34  2  0  0  0  0
 12 13  1  0  0  0  0
 12 15  1  0  0  0  0
 12 23  1  0  0  0  0
 12 24  1  0  0  0  0
 13 14  1  0  0  0  0
 13 36  1  0  0  0  0
 13 37  1  0  0  0  0
 14 16  1  0  0  0  0
 14 38  1  0  0  0  0
 15 17  2  0  0  0  0
 15 25  1  0  0  0  0
 16 17  1  0  0  0  0
 16 39  1  0  0  0  0
 16 40  1  0  0  0  0
 17 30  1  0  0  0  0
 18 19  1  0  0  0  0
 18 41  1  0  0  0  0
 19 21  1  0  0  0  0
 19 42  1  0  0  0  0
 20 22  1  0  0  0  0
 20 26  1  0  0  0  0
 20 43  1  0  0  0  0
 21 22  1  0  0  0  0
 21 44  1  0  0  0  0
 22 45  1  0  0  0  0
 23 46  1  0  0  0  0
 23 47  1  0  0  0  0
 23 48  1  0  0  0  0
 24 49  1  0  0  0  0
 24 50  1  0  0  0  0
 24 51  1  0  0  0  0
 25 31  1  0  0  0  0
 25 52  1  0  0  0  0
 25 53  1  0  0  0  0
 26 54  1  0  0  0  0
 26 55  1  0  0  0  0
 27 28  1  0  0  0  0
 27 32  1  0  0  0  0
 27 33  1  0  0  0  0
 28 29  1  0  0  0  0
 28 56  1  0  0  0  0
 29 57  1  0  0  0  0
 30 58  1  0  0  0  0
 30 59  1  0  0  0  0
 30 60  1  0  0  0  0
 31 34  1  0  0  0  0
 31 61  1  0  0  0  0
 31 62  1  0  0  0  0
 32 63  1  0  0  0  0
 32 64  1  0  0  0  0
 33 65  1  0  0  0  0
 33 66  1  0  0  0  0
 34 35  1  0  0  0  0
 35 73  1  0  0  0  0
 35 74  1  0  0  0  0
 35 75  1  0  0  0  0
M  END
> <PUBCHEM_COMPOUND_CID>
11706085

> <PUBCHEM_CONFORMER_RMSD>
1.2

> <PUBCHEM_CONFORMER_DIVERSEORDER>
1
134
176
23
191
112
200
156
99
39
35
71
106
184
133
131
72
108
69
97
166
152
173
116
40
19
98
126
89
203
179
91
198
143
78
60
186
110
76
148
150
100
201
132
185
121
145
118
16
164
165
22
175
177
2
96
101
88
159
119
66
113
199
139
192
197
56
144
36
38
94
122
130
105
189
68
169
73
20
196
115
137
74
103
92
182
161
51
42
93
65
5
12
125
79
57
180
107
162
24
157
187
202
62
117
136
8
160
109
28
128
87
67
81
75
114
34
21
141
127
151
147
26
195
53
123
37
80
95
149
154
64
188
59
172
178
44
158
82
32
48
183
15
25
11
124
194
190
129
47
31
90
61
167
70
63
146
18
27
174
138
140
30
171
77
9
50
142
86
153
85
29
6
41
13
54
49
84
193
17
3
111
14
168
83
163
10
181
52
170
102
135
43
7
120
104
55
33
58
45
4
46
155

> <PUBCHEM_MMFF94_PARTIAL_CHARGES>
38
1 -0.56
10 -0.68
11 -0.57
12 0.14
14 0.28
15 -0.28
16 0.14
17 -0.28
18 0.56
19 0.28
2 -0.56
20 0.28
21 0.28
22 0.28
25 0.14
26 0.28
27 0.28
28 0.28
29 0.56
3 -0.56
30 0.14
31 0.06
32 0.28
33 0.28
34 0.45
35 0.06
4 -0.56
5 -0.68
6 -0.68
67 0.4
68 0.4
69 0.4
7 -0.68
70 0.4
71 0.4
72 0.4
8 -0.68
9 -0.68

> <PUBCHEM_EFFECTIVE_ROTOR_COUNT>
12

> <PUBCHEM_PHARMACOPHORE_FEATURES>
21
1 1 acceptor
1 10 acceptor
1 10 donor
1 11 acceptor
1 2 acceptor
1 3 acceptor
1 4 acceptor
1 5 acceptor
1 5 donor
1 6 acceptor
1 6 donor
1 7 acceptor
1 7 donor
1 8 acceptor
1 8 donor
1 9 acceptor
1 9 donor
3 12 23 24 hydrophobe
5 4 27 28 29 32 rings
6 12 13 14 15 16 17 rings
6 2 18 19 20 21 22 rings

> <PUBCHEM_HEAVY_ATOM_COUNT>
35

> <PUBCHEM_ATOM_DEF_STEREO_COUNT>
9

> <PUBCHEM_ATOM_UDEF_STEREO_COUNT>
0

> <PUBCHEM_BOND_DEF_STEREO_COUNT>
0

> <PUBCHEM_BOND_UDEF_STEREO_COUNT>
0

> <PUBCHEM_ISOTOPIC_ATOM_COUNT>
0

> <PUBCHEM_COMPONENT_COUNT>
1

> <PUBCHEM_CACTVS_TAUTO_COUNT>
3

> <PUBCHEM_CONFORMER_ID>
00B29EE500000001

> <PUBCHEM_MMFF94_ENERGY>
98.3383

> <PUBCHEM_FEATURE_SELFOVERLAP>
106.704

> <PUBCHEM_SHAPE_FINGERPRINT>
10411042 1 18411700959338532260
10533779 47 18262245534261636795
10622 236 17486186092743017607
117089 54 18410579465714746462
11761917 87 18263095426358387691
11828532 37 18114754848660511915
11991303 11 17755864112999988764
12061779 8 13253076192231559018
12107183 9 18341908368007483425
12166972 35 18201437021436850481
12342043 65 17896613966807969155
12645989 146 18410575132799464343
12760667 363 18340485573795184700
13248334 5 18123752221104172672
13533116 47 18268709579567931889
13617811 41 15574983001696658927
13673619 4 18040995150735025645
13782708 43 18114459067700976167
14040222 275 18268451104046392910
14866123 147 18195811773572802129
15320294 125 17060336344854798791
15351339 4 17822563894180823202
15419008 47 18040713662889107711
16067689 391 18198883861133140701
19301676 85 16397195236847097574
19301679 30 18272657796673310070
19841028 212 18412543232073668850
21130935 74 18196936785265140835
21133410 32 16300109812102339074
21682296 61 18409731777052444751
23559900 14 18335411400589972360
23569943 247 18408601457925598067
25269216 80 14346376635466130763
255183 451 18411140242736541108
3383291 50 18335414673481951923
397638 26 9439113223060723406
437815 12 18335139808559220121
4403749 210 9439103374025395757
46194498 28 17603864559348795916
5309563 4 18411138004968863394
58260988 647 18408887373712888865
613672 6 18337652171407254464
6697151 62 18196909198020409077
70251023 43 18409165519731996144
9555976 147 17417266432788862755

> <PUBCHEM_SHAPE_MULTIPOLES>
655.72
22.43
5.68
1.3
6.25
6.21
0.14
-31.72
2.46
-7.53
-0.18
1.28
-0.35
1.61

> <PUBCHEM_SHAPE_SELFOVERLAP>
1349.22

> <PUBCHEM_SHAPE_VOLUME>
374.6

> <PUBCHEM_COORDINATE_TYPE>
2
5
10

$$$$
