22169421
  -OEChem-09142012153D

 43 46  0     0  0  0  0  0  0999 V2000
   -0.3411   -0.0519    0.4548 N   0  0  0  0  0  0  0  0  0  0  0  0
   -1.3260    0.7505   -0.0081 C   0  0  0  0  0  0  0  0  0  0  0  0
   -2.6618    0.3659   -0.1402 C   0  0  0  0  0  0  0  0  0  0  0  0
   -3.0004   -0.9500    0.2370 C   0  0  0  0  0  0  0  0  0  0  0  0
   -0.8744    2.1258   -0.3853 C   0  0  0  0  0  0  0  0  0  0  0  0
   -0.7020   -1.3044    0.8062 C   0  0  0  0  0  0  0  0  0  0  0  0
    0.3829   -2.1909    1.3209 C   0  0  0  0  0  0  0  0  0  0  0  0
   -1.9953   -1.7966    0.7190 C   0  0  0  0  0  0  0  0  0  0  0  0
    0.6059    2.3612   -0.1745 C   0  0  0  0  0  0  0  0  0  0  0  0
   -3.6559    1.2310   -0.6266 C   0  0  0  0  0  0  0  0  0  0  0  0
    1.6565   -2.1406    0.5021 C   0  0  0  0  0  0  0  0  0  0  0  0
   -4.3344   -1.3732    0.1181 C   0  0  0  0  0  0  0  0  0  0  0  0
   -4.9758    0.7941   -0.7380 C   0  0  0  0  0  0  0  0  0  0  0  0
   -5.3143   -0.5050   -0.3664 C   0  0  0  0  0  0  0  0  0  0  0  0
    1.5089    2.0886   -1.2022 C   0  0  0  0  0  0  0  0  0  0  0  0
    1.0674    2.8512    1.0474 C   0  0  0  0  0  0  0  0  0  0  0  0
    2.6520   -1.2153    0.8168 C   0  0  0  0  0  0  0  0  0  0  0  0
    1.8344   -3.0197   -0.5663 C   0  0  0  0  0  0  0  0  0  0  0  0
    2.8731    2.3057   -1.0081 C   0  0  0  0  0  0  0  0  0  0  0  0
    2.4315    3.0684    1.2414 C   0  0  0  0  0  0  0  0  0  0  0  0
    3.8248   -1.1690    0.0632 C   0  0  0  0  0  0  0  0  0  0  0  0
    3.0073   -2.9734   -1.3198 C   0  0  0  0  0  0  0  0  0  0  0  0
    3.3343    2.7955    0.2136 C   0  0  0  0  0  0  0  0  0  0  0  0
    4.0025   -2.0480   -1.0050 C   0  0  0  0  0  0  0  0  0  0  0  0
   -1.4285    2.8713    0.1998 H   0  0  0  0  0  0  0  0  0  0  0  0
   -1.1064    2.3153   -1.4415 H   0  0  0  0  0  0  0  0  0  0  0  0
    0.0468   -3.2351    1.3715 H   0  0  0  0  0  0  0  0  0  0  0  0
    0.6033   -1.9071    2.3583 H   0  0  0  0  0  0  0  0  0  0  0  0
   -2.2262   -2.8150    1.0190 H   0  0  0  0  0  0  0  0  0  0  0  0
   -3.4349    2.2514   -0.9272 H   0  0  0  0  0  0  0  0  0  0  0  0
   -4.6216   -2.3833    0.4022 H   0  0  0  0  0  0  0  0  0  0  0  0
   -5.7404    1.4673   -1.1147 H   0  0  0  0  0  0  0  0  0  0  0  0
   -6.3426   -0.8437   -0.4538 H   0  0  0  0  0  0  0  0  0  0  0  0
    1.1624    1.7036   -2.1576 H   0  0  0  0  0  0  0  0  0  0  0  0
    0.3744    3.0654    1.8567 H   0  0  0  0  0  0  0  0  0  0  0  0
    2.5260   -0.5250    1.6467 H   0  0  0  0  0  0  0  0  0  0  0  0
    1.0656   -3.7438   -0.8225 H   0  0  0  0  0  0  0  0  0  0  0  0
    3.5762    2.0911   -1.8075 H   0  0  0  0  0  0  0  0  0  0  0  0
    2.7911    3.4484    2.1932 H   0  0  0  0  0  0  0  0  0  0  0  0
    4.6002   -0.4492    0.3086 H   0  0  0  0  0  0  0  0  0  0  0  0
    3.1456   -3.6573   -2.1521 H   0  0  0  0  0  0  0  0  0  0  0  0
    4.3966    2.9628    0.3652 H   0  0  0  0  0  0  0  0  0  0  0  0
    4.9156   -2.0116   -1.5918 H   0  0  0  0  0  0  0  0  0  0  0  0
  1  2  2  0  0  0  0
  1  6  1  0  0  0  0
  2  3  1  0  0  0  0
  2  5  1  0  0  0  0
  3  4  1  0  0  0  0
  3 10  2  0  0  0  0
  4  8  1  0  0  0  0
  4 12  2  0  0  0  0
  5  9  1  0  0  0  0
  5 25  1  0  0  0  0
  5 26  1  0  0  0  0
  6  7  1  0  0  0  0
  6  8  2  0  0  0  0
  7 11  1  0  0  0  0
  7 27  1  0  0  0  0
  7 28  1  0  0  0  0
  8 29  1  0  0  0  0
  9 15  2  0  0  0  0
  9 16  1  0  0  0  0
 10 13  1  0  0  0  0
 10 30  1  0  0  0  0
 11 17  2  0  0  0  0
 11 18  1  0  0  0  0
 12 14  1  0  0  0  0
 12 31  1  0  0  0  0
 13 14  2  0  0  0  0
 13 32  1  0  0  0  0
 14 33  1  0  0  0  0
 15 19  1  0  0  0  0
 15 34  1  0  0  0  0
 16 20  2  0  0  0  0
 16 35  1  0  0  0  0
 17 21  1  0  0  0  0
 17 36  1  0  0  0  0
 18 22  2  0  0  0  0
 18 37  1  0  0  0  0
 19 23  2  0  0  0  0
 19 38  1  0  0  0  0
 20 23  1  0  0  0  0
 20 39  1  0  0  0  0
 21 24  2  0  0  0  0
 21 40  1  0  0  0  0
 22 24  1  0  0  0  0
 22 41  1  0  0  0  0
 23 42  1  0  0  0  0
 24 43  1  0  0  0  0
M  END
> <PUBCHEM_COMPOUND_CID>
22169421

> <PUBCHEM_CONFORMER_RMSD>
0.8

> <PUBCHEM_CONFORMER_DIVERSEORDER>
1
30
31
38
22
27
14
35
16
36
10
29
9
37
41
15
40
13
5
2
20
39
21
32
28
42
44
18
4
19
33
23
43
34
17
3
6
24
11
26
12
25
8
7

> <PUBCHEM_MMFF94_PARTIAL_CHARGES>
37
1 -0.62
10 -0.15
11 -0.14
12 -0.15
13 -0.15
14 -0.15
15 -0.15
16 -0.15
17 -0.15
18 -0.15
19 -0.15
2 0.17
20 -0.15
21 -0.15
22 -0.15
23 -0.15
24 -0.15
29 0.15
30 0.15
31 0.15
32 0.15
33 0.15
34 0.15
35 0.15
36 0.15
37 0.15
38 0.15
39 0.15
40 0.15
41 0.15
42 0.15
43 0.15
5 0.29
6 0.17
7 0.29
8 -0.15
9 -0.14

> <PUBCHEM_EFFECTIVE_ROTOR_COUNT>
4

> <PUBCHEM_PHARMACOPHORE_FEATURES>
5
1 1 acceptor
6 1 2 3 4 6 8 rings
6 11 17 18 21 22 24 rings
6 3 4 10 12 13 14 rings
6 9 15 16 19 20 23 rings

> <PUBCHEM_HEAVY_ATOM_COUNT>
24

> <PUBCHEM_ATOM_DEF_STEREO_COUNT>
0

> <PUBCHEM_ATOM_UDEF_STEREO_COUNT>
0

> <PUBCHEM_BOND_DEF_STEREO_COUNT>
0

> <PUBCHEM_BOND_UDEF_STEREO_COUNT>
0

> <PUBCHEM_ISOTOPIC_ATOM_COUNT>
0

> <PUBCHEM_COMPONENT_COUNT>
1

> <PUBCHEM_CACTVS_TAUTO_COUNT>
1

> <PUBCHEM_CONFORMER_ID>
0152474D00000001

> <PUBCHEM_MMFF94_ENERGY>
70.5275

> <PUBCHEM_FEATURE_SELFOVERLAP>
25.401

> <PUBCHEM_SHAPE_FINGERPRINT>
10006869 2 16823072417244037377
10498660 4 18118403934373556991
1100329 8 17981049609290962265
11370993 70 18122339352793163952
11524674 6 17913763088769963632
11963148 33 17684363241492666291
12166972 35 17459193976119674966
12422481 6 18191841596436179536
12788726 201 17832429695889014210
13140716 1 18334289902844675987
13402501 40 18408038533472142688
13533116 47 18343582962965957377
138480 1 18411137996368106400
14790565 3 17114101067241617637
14931854 50 18262814973224560838
15210252 30 17970638393853113772
15475509 8 17769101142566471117
15536298 74 18408881867227373825
17093844 170 18261954167152589164
17492 54 18042143032764400748
20028762 73 17404307790338643663
20642791 35 18336261233210594385
20645477 70 18409444812748651925
20691752 17 17022613195953736609
20905425 154 18337680809890416532
22182313 1 18042134322312651347
23227448 37 18338794632117718303
23352939 185 18271530779948376499
23557571 272 17980469071562125042
23559900 14 18335420196545701949
23566358 2 18334568049559556517
3298306 158 18266463302802451980
350125 39 18189897509929325701
352729 6 17539977590766744753
463206 1 18269834387988527023
465052 167 13757770639014885079
495365 180 18129092501724000400
5265222 85 17759252082583342164
532947 4 18411699928007973235
57527585 103 17247285074291699402
59755656 215 18261667190000616141
6287921 2 18201712981338345114
6443956 14 18411698764372899648
7364860 26 18412543244857693928
81228 2 17905894669258320362
84936 31 17988063582683772994
9709674 26 18262238940653321835

> <PUBCHEM_SHAPE_MULTIPOLES>
488.93
8.63
4.42
1.18
8.67
0.97
0
-1.66
2.17
-5.37
-0.02
-0.68
-0.03
1.32

> <PUBCHEM_SHAPE_SELFOVERLAP>
1085.581

> <PUBCHEM_SHAPE_VOLUME>
259.5

> <PUBCHEM_COORDINATE_TYPE>
2
5
10

$$$$
