101839172
  -OEChem-09192003243D

 42 43  0     1  0  0  0  0  0999 V2000
   -4.0607    1.1374    0.5148 O   0  0  0  0  0  0  0  0  0  0  0  0
   -4.5717   -1.7685    0.2878 O   0  0  0  0  0  0  0  0  0  0  0  0
   -7.0643   -0.6923    0.2614 O   0  0  0  0  0  0  0  0  0  0  0  0
   -2.0227   -1.1532   -1.4802 O   0  0  0  0  0  0  0  0  0  0  0  0
    0.0268    0.3007   -0.3043 O   0  0  0  0  0  0  0  0  0  0  0  0
   -5.9844    1.5653    1.6983 O   0  0  0  0  0  0  0  0  0  0  0  0
    0.9986    2.3919   -0.4447 O   0  0  0  0  0  0  0  0  0  0  0  0
    8.4939   -1.4618    0.4770 O   0  0  0  0  0  0  0  0  0  0  0  0
   -3.7146    0.3098   -0.6135 C   0  0  2  0  0  0  0  0  0  0  0  0
   -4.8174   -0.7345   -0.6604 C   0  0  2  0  0  0  0  0  0  0  0  0
   -6.0162    0.0911   -0.2416 C   0  0  2  0  0  0  0  0  0  0  0  0
   -2.3109   -0.2369   -0.4238 C   0  0  2  0  0  0  0  0  0  0  0  0
   -5.4001    1.0094    0.7824 C   0  0  0  0  0  0  0  0  0  0  0  0
   -1.2672    0.8737   -0.4591 C   0  0  0  0  0  0  0  0  0  0  0  0
   -5.4440   -2.8714    0.0903 C   0  0  0  0  0  0  0  0  0  0  0  0
    1.0692    1.1800   -0.3160 C   0  0  0  0  0  0  0  0  0  0  0  0
    2.3195    0.4060   -0.1436 C   0  0  0  0  0  0  0  0  0  0  0  0
    3.4962    1.0479   -0.1209 C   0  0  0  0  0  0  0  0  0  0  0  0
    4.8056    0.3899    0.0343 C   0  0  0  0  0  0  0  0  0  0  0  0
    4.8815   -0.8928    0.5771 C   0  0  0  0  0  0  0  0  0  0  0  0
    5.9692    1.0502   -0.3604 C   0  0  0  0  0  0  0  0  0  0  0  0
    6.1208   -1.5151    0.7257 C   0  0  0  0  0  0  0  0  0  0  0  0
    7.2086    0.4280   -0.2118 C   0  0  0  0  0  0  0  0  0  0  0  0
    7.2845   -0.8546    0.3311 C   0  0  0  0  0  0  0  0  0  0  0  0
   -3.7630    0.9394   -1.5122 H   0  0  0  0  0  0  0  0  0  0  0  0
   -4.9089   -1.1579   -1.6674 H   0  0  0  0  0  0  0  0  0  0  0  0
   -6.3798    0.7051   -1.0737 H   0  0  0  0  0  0  0  0  0  0  0  0
   -2.2166   -0.7795    0.5243 H   0  0  0  0  0  0  0  0  0  0  0  0
   -1.3022    1.3907   -1.4259 H   0  0  0  0  0  0  0  0  0  0  0  0
   -1.4444    1.5954    0.3465 H   0  0  0  0  0  0  0  0  0  0  0  0
   -7.7894   -0.0921    0.5051 H   0  0  0  0  0  0  0  0  0  0  0  0
   -1.1150   -1.4758   -1.3467 H   0  0  0  0  0  0  0  0  0  0  0  0
   -5.8849   -2.9152   -0.9110 H   0  0  0  0  0  0  0  0  0  0  0  0
   -6.2272   -2.8704    0.8531 H   0  0  0  0  0  0  0  0  0  0  0  0
   -4.8597   -3.7848    0.2392 H   0  0  0  0  0  0  0  0  0  0  0  0
    2.2252   -0.6705   -0.0616 H   0  0  0  0  0  0  0  0  0  0  0  0
    3.5319    2.1291   -0.2339 H   0  0  0  0  0  0  0  0  0  0  0  0
    4.0050   -1.4367    0.9167 H   0  0  0  0  0  0  0  0  0  0  0  0
    5.9288    2.0497   -0.7864 H   0  0  0  0  0  0  0  0  0  0  0  0
    6.1747   -2.5125    1.1535 H   0  0  0  0  0  0  0  0  0  0  0  0
    8.1078    0.9529   -0.5231 H   0  0  0  0  0  0  0  0  0  0  0  0
    9.1883   -0.8624    0.1536 H   0  0  0  0  0  0  0  0  0  0  0  0
  1  9  1  0  0  0  0
  1 13  1  0  0  0  0
  2 10  1  0  0  0  0
  2 15  1  0  0  0  0
  3 11  1  0  0  0  0
  3 31  1  0  0  0  0
  4 12  1  0  0  0  0
  4 32  1  0  0  0  0
  5 14  1  0  0  0  0
  5 16  1  0  0  0  0
  6 13  2  0  0  0  0
  7 16  2  0  0  0  0
  8 24  1  0  0  0  0
  8 42  1  0  0  0  0
  9 10  1  0  0  0  0
  9 12  1  0  0  0  0
  9 25  1  0  0  0  0
 10 11  1  0  0  0  0
 10 26  1  0  0  0  0
 11 13  1  0  0  0  0
 11 27  1  0  0  0  0
 12 14  1  0  0  0  0
 12 28  1  0  0  0  0
 14 29  1  0  0  0  0
 14 30  1  0  0  0  0
 15 33  1  0  0  0  0
 15 34  1  0  0  0  0
 15 35  1  0  0  0  0
 16 17  1  0  0  0  0
 17 18  2  0  0  0  0
 17 36  1  0  0  0  0
 18 19  1  0  0  0  0
 18 37  1  0  0  0  0
 19 20  2  0  0  0  0
 19 21  1  0  0  0  0
 20 22  1  0  0  0  0
 20 38  1  0  0  0  0
 21 23  2  0  0  0  0
 21 39  1  0  0  0  0
 22 24  2  0  0  0  0
 22 40  1  0  0  0  0
 23 24  1  0  0  0  0
 23 41  1  0  0  0  0
M  END
> <PUBCHEM_COMPOUND_CID>
101839172

> <PUBCHEM_CONFORMER_RMSD>
1

> <PUBCHEM_CONFORMER_DIVERSEORDER>
1
82
85
112
56
5
105
100
108
78
90
60
38
69
93
22
59
29
109
104
16
23
94
55
98
10
70
83
25
65
84
49
24
52
63
27
73
17
39
68
87
37
96
53
57
61
6
77
71
21
45
9
13
40
81
2
74
15
92
20
67
14
97
72
89
99
95
18
76
101
7
46
47
12
35
36
30
102
88
11
3
91
28
54
33
80
42
113
110
86
111
8
103
4
64
62
107
75
31
50
79
58
44
48
19
41
34
51
66
26
106
43
32

> <PUBCHEM_MMFF94_PARTIAL_CHARGES>
33
1 -0.43
10 0.28
11 0.34
12 0.28
13 0.66
14 0.28
15 0.28
16 0.71
17 -0.14
18 -0.18
19 0.03
2 -0.56
20 -0.15
21 -0.15
22 -0.15
23 -0.15
24 0.08
3 -0.68
31 0.4
32 0.4
36 0.15
37 0.15
38 0.15
39 0.15
4 -0.68
40 0.15
41 0.15
42 0.45
5 -0.43
6 -0.57
7 -0.57
8 -0.53
9 0.28

> <PUBCHEM_EFFECTIVE_ROTOR_COUNT>
7.8

> <PUBCHEM_PHARMACOPHORE_FEATURES>
10
1 2 acceptor
1 3 acceptor
1 3 donor
1 4 acceptor
1 4 donor
1 6 acceptor
1 7 acceptor
1 8 donor
5 1 9 10 11 13 rings
6 19 20 21 22 23 24 rings

> <PUBCHEM_HEAVY_ATOM_COUNT>
24

> <PUBCHEM_ATOM_DEF_STEREO_COUNT>
4

> <PUBCHEM_ATOM_UDEF_STEREO_COUNT>
0

> <PUBCHEM_BOND_DEF_STEREO_COUNT>
1

> <PUBCHEM_BOND_UDEF_STEREO_COUNT>
0

> <PUBCHEM_ISOTOPIC_ATOM_COUNT>
0

> <PUBCHEM_COMPONENT_COUNT>
1

> <PUBCHEM_CACTVS_TAUTO_COUNT>
8

> <PUBCHEM_CONFORMER_ID>
0611F14400000001

> <PUBCHEM_MMFF94_ENERGY>
62.363

> <PUBCHEM_FEATURE_SELFOVERLAP>
50.757

> <PUBCHEM_SHAPE_FINGERPRINT>
10 15 17489867172131796792
10076449 9 11963391856863062023
100830 39 18265049141697413637
10087517 78 11095894760915881363
10299344 5 18409168814182187254
11315181 36 18411983594214700297
11524674 6 17418092143834401359
12091667 2 16950561086773792069
12236239 1 18413389852037666876
125118 31 12175626196225458322
12516196 113 18408881850322110008
12592606 108 18409443717785530479
12596602 18 18272932751931883184
13533116 47 18261108540184859362
13668630 136 17603585235670275178
13673619 4 17749387053567687588
13685833 64 18259702298740213716
13885169 127 18187078426059877453
14178184 131 18197498630663796679
14251764 18 18343301474634794644
14528608 73 8862941675820217212
15021287 119 17676211286126521317
15183329 4 18186798076105901698
15348495 7 16486397910880405938
15352257 5 18186238433472749818
15419008 47 15339116814866306754
15461852 350 16988554719999507093
15716309 27 18334575754335051549
17093844 174 17489584563373260921
17780758 139 18343865515879226161
18927931 339 15863788413939547639
21130935 74 18412544336391596314
21150785 3 12179851593519488216
21267235 1 18409448043550359196
21365058 113 16370732542780763060
220451 1 18334580144124021844
22224240 67 16056873637813217500
23035841 295 18407758127836709152
23081809 10 18341613762772286692
23522609 53 18191334682510359236
23559900 14 18263638640609788641
246663 6 17240487995975793089
2838139 119 10375868584781700934
3004659 81 17821725040545465816
33532 11 18259981561861813418
351380 3 18335413565738201654
3663271 9 18341895220711390480
397830 11 16056018299139447386
4073 2 18041845150595874938
465052 167 18341894108984481606
5104073 3 18201161056776989305
559249 180 18411980273946556783
58260988 114 17532107145503110155
6441014 3 17616255119192291603
7226269 152 16917353632106687233
999808 66 17749398100186493763

> <PUBCHEM_SHAPE_MULTIPOLES>
446.95
24.77
1.99
0.93
18.13
0.76
-0.09
8.41
-4.78
-1.33
-0.18
-0.9
-0.09
-1.7

> <PUBCHEM_SHAPE_SELFOVERLAP>
939.258

> <PUBCHEM_SHAPE_VOLUME>
251.1

> <PUBCHEM_COORDINATE_TYPE>
2
5
10

$$$$
