23642716
  -OEChem-09192003423D

 39 42  0     1  0  0  0  0  0999 V2000
    3.0554    0.9977    0.0028 O   0  0  0  0  0  0  0  0  0  0  0  0
   -2.7670    2.1929    0.0162 O   0  0  0  0  0  0  0  0  0  0  0  0
   -2.8991   -1.6560    1.0203 O   0  0  0  0  0  0  0  0  0  0  0  0
   -0.7432   -2.9023    0.1765 O   0  0  0  0  0  0  0  0  0  0  0  0
    1.7761   -3.6271   -0.0417 O   0  0  0  0  0  0  0  0  0  0  0  0
    2.1898    2.1811   -0.0128 C   0  0  0  0  0  0  0  0  0  0  0  0
    0.7934    1.6394   -0.0082 C   0  0  0  0  0  0  0  0  0  0  0  0
    0.8439    0.2635    0.0061 C   0  0  0  0  0  0  0  0  0  0  0  0
   -0.2678   -0.5607    0.0154 C   0  0  0  0  0  0  0  0  0  0  0  0
   -1.5429    0.0435   -0.0057 C   0  0  0  0  0  0  0  0  0  0  0  0
    2.2274   -0.1138    0.0089 C   0  0  0  0  0  0  0  0  0  0  0  0
   -2.8619   -0.7208   -0.0577 C   0  0  2  0  0  0  0  0  0  0  0  0
   -0.4301    2.2693   -0.0087 C   0  0  0  0  0  0  0  0  0  0  0  0
   -1.5880    1.4718   -0.0030 C   0  0  0  0  0  0  0  0  0  0  0  0
    2.4977    2.9710   -1.2843 C   0  0  0  0  0  0  0  0  0  0  0  0
    2.4958    3.0028    1.2387 C   0  0  0  0  0  0  0  0  0  0  0  0
    2.6126   -1.3943    0.0032 C   0  0  0  0  0  0  0  0  0  0  0  0
    0.0760   -2.0050    0.0664 C   0  0  0  0  0  0  0  0  0  0  0  0
    1.5342   -2.4279    0.0024 C   0  0  0  0  0  0  0  0  0  0  0  0
   -4.0566    0.1765    0.1280 C   0  0  0  0  0  0  0  0  0  0  0  0
   -3.0353   -1.4448   -1.4027 C   0  0  0  0  0  0  0  0  0  0  0  0
    4.0314   -1.8621   -0.0072 C   0  0  0  0  0  0  0  0  0  0  0  0
   -3.9419    1.5050    0.1471 C   0  0  0  0  0  0  0  0  0  0  0  0
   -0.4990    3.3525   -0.0101 H   0  0  0  0  0  0  0  0  0  0  0  0
    3.5513    3.2715   -1.3087 H   0  0  0  0  0  0  0  0  0  0  0  0
    2.3284    2.3609   -2.1796 H   0  0  0  0  0  0  0  0  0  0  0  0
    1.8785    3.8709   -1.3643 H   0  0  0  0  0  0  0  0  0  0  0  0
    3.5497    3.3030    1.2576 H   0  0  0  0  0  0  0  0  0  0  0  0
    1.8773    3.9050    1.2946 H   0  0  0  0  0  0  0  0  0  0  0  0
    2.3243    2.4156    2.1487 H   0  0  0  0  0  0  0  0  0  0  0  0
   -5.0403   -0.2725    0.2352 H   0  0  0  0  0  0  0  0  0  0  0  0
   -3.9750   -2.0106   -1.4279 H   0  0  0  0  0  0  0  0  0  0  0  0
   -3.0387   -0.7400   -2.2428 H   0  0  0  0  0  0  0  0  0  0  0  0
   -2.2441   -2.1742   -1.5936 H   0  0  0  0  0  0  0  0  0  0  0  0
    4.2366   -2.4769    0.8751 H   0  0  0  0  0  0  0  0  0  0  0  0
    4.7411   -1.0286   -0.0029 H   0  0  0  0  0  0  0  0  0  0  0  0
    4.2291   -2.4615   -0.9018 H   0  0  0  0  0  0  0  0  0  0  0  0
   -4.7793    2.1782    0.2606 H   0  0  0  0  0  0  0  0  0  0  0  0
   -3.6635   -2.2433    0.8910 H   0  0  0  0  0  0  0  0  0  0  0  0
  1  6  1  0  0  0  0
  1 11  1  0  0  0  0
  2 14  1  0  0  0  0
  2 23  1  0  0  0  0
  3 12  1  0  0  0  0
  3 39  1  0  0  0  0
  4 18  2  0  0  0  0
  5 19  2  0  0  0  0
  6  7  1  0  0  0  0
  6 15  1  0  0  0  0
  6 16  1  0  0  0  0
  7  8  1  0  0  0  0
  7 13  2  0  0  0  0
  8  9  2  0  0  0  0
  8 11  1  0  0  0  0
  9 10  1  0  0  0  0
  9 18  1  0  0  0  0
 10 12  1  0  0  0  0
 10 14  2  0  0  0  0
 11 17  2  0  0  0  0
 12 20  1  0  0  0  0
 12 21  1  0  0  0  0
 13 14  1  0  0  0  0
 13 24  1  0  0  0  0
 15 25  1  0  0  0  0
 15 26  1  0  0  0  0
 15 27  1  0  0  0  0
 16 28  1  0  0  0  0
 16 29  1  0  0  0  0
 16 30  1  0  0  0  0
 17 19  1  0  0  0  0
 17 22  1  0  0  0  0
 18 19  1  0  0  0  0
 20 23  2  0  0  0  0
 20 31  1  0  0  0  0
 21 32  1  0  0  0  0
 21 33  1  0  0  0  0
 21 34  1  0  0  0  0
 22 35  1  0  0  0  0
 22 36  1  0  0  0  0
 22 37  1  0  0  0  0
 23 38  1  0  0  0  0
M  END
> <PUBCHEM_COMPOUND_CID>
23642716

> <PUBCHEM_CONFORMER_RMSD>
0.6

> <PUBCHEM_CONFORMER_DIVERSEORDER>
1
2

> <PUBCHEM_MMFF94_PARTIAL_CHARGES>
24
1 -0.36
10 -0.14
11 0.05
12 0.56
13 -0.15
14 0.08
17 -0.12
18 0.48
19 0.56
2 -0.16
20 -0.29
22 0.14
23 -0.07
24 0.15
3 -0.68
31 0.15
38 0.15
39 0.4
4 -0.57
5 -0.57
6 0.42
7 -0.14
8 0.03
9 0.09

> <PUBCHEM_EFFECTIVE_ROTOR_COUNT>
0.8

> <PUBCHEM_PHARMACOPHORE_FEATURES>
11
1 1 acceptor
1 2 acceptor
1 3 acceptor
1 3 donor
1 4 acceptor
1 5 acceptor
3 6 15 16 hydrophobe
5 1 6 7 8 11 rings
6 2 10 12 14 20 23 rings
6 7 8 9 10 13 14 rings
6 8 9 11 17 18 19 rings

> <PUBCHEM_HEAVY_ATOM_COUNT>
23

> <PUBCHEM_ATOM_DEF_STEREO_COUNT>
0

> <PUBCHEM_ATOM_UDEF_STEREO_COUNT>
1

> <PUBCHEM_BOND_DEF_STEREO_COUNT>
0

> <PUBCHEM_BOND_UDEF_STEREO_COUNT>
0

> <PUBCHEM_ISOTOPIC_ATOM_COUNT>
0

> <PUBCHEM_COMPONENT_COUNT>
1

> <PUBCHEM_CACTVS_TAUTO_COUNT>
1

> <PUBCHEM_CONFORMER_ID>
0168C25C00000001

> <PUBCHEM_MMFF94_ENERGY>
72.2338

> <PUBCHEM_FEATURE_SELFOVERLAP>
56.085

> <PUBCHEM_SHAPE_FINGERPRINT>
10319926 262 17407662383446856624
10411042 1 17834114139466818739
10616163 171 18264775539331348499
10967382 1 18194402190933048858
1100329 8 18340487755374794680
11578080 2 14730506720597979972
11680986 33 18409168830977142624
12173636 292 17905610256344910452
12553582 1 18193551160427735110
12788726 201 17543915603252289874
13027679 85 18123186801469780628
13132413 78 18195809565811178228
13140716 1 18411703170961846961
138480 1 18338798888709305120
14178342 30 18268695152223950744
14223421 5 18408324410389392097
14790565 3 18410303488829132580
14955137 171 17981916075586419363
15042514 8 17544473519556118552
15196674 1 18410575058930204915
15442244 35 18339924796895053929
15536298 74 18343017783317815528
16945 1 17978510059241622977
17492 89 18412260666428628143
19591789 44 18266468783154172334
20028762 73 16831517245870842439
20510252 161 17477493469756681640
20642791 178 18261406524541569828
20739085 24 18190484751647944089
20905425 154 18198068177501225150
21267235 1 18339651018821542999
21501502 16 18412262852476687301
221490 88 18336274491220794786
2255824 54 18335707147890337052
2334 1 18338517546634156429
23366157 5 18113337531290898196
23402539 116 18268983190491496822
23558518 356 18261392294929452091
23559900 14 18410005520507851953
238 59 17756383211505045071
2748010 2 18408322219850757989
3091708 16 9433849898682489034
335352 9 18194402191202217517
34934 24 18049717425716596866
350125 39 18409736136138476945
352729 6 17616532195535616092
5104073 3 18410859867519125377
7364860 26 18413105044013269368
7832392 63 18269270158277113551
81228 2 17403750947284768274
84936 182 18201716305448003353
9709674 26 18410015407949965051
9981440 41 17978780534986469944

> <PUBCHEM_SHAPE_MULTIPOLES>
443.98
6.36
4.06
0.87
2.87
0.52
-0.11
-0.38
-0.05
-2.79
0.04
0.01
-0.26
-0.19

> <PUBCHEM_SHAPE_SELFOVERLAP>
1003.445

> <PUBCHEM_SHAPE_VOLUME>
233.3

> <PUBCHEM_COORDINATE_TYPE>
2
5
10

$$$$
