577536
  -OEChem-09192004023D

 19 20  0     1  0  0  0  0  0999 V2000
    0.8721    1.4712   -0.0846 O   0  0  0  0  0  0  0  0  0  0  0  0
    3.0455    0.7327    0.1353 O   0  0  0  0  0  0  0  0  0  0  0  0
    1.2232   -0.8793    0.3507 C   0  0  2  0  0  0  0  0  0  0  0  0
   -0.2115   -0.5625    0.1948 C   0  0  0  0  0  0  0  0  0  0  0  0
   -0.3339    0.7943   -0.0416 C   0  0  0  0  0  0  0  0  0  0  0  0
    1.8451    0.4959    0.1286 C   0  0  0  0  0  0  0  0  0  0  0  0
    1.7383   -1.8848   -0.6643 C   0  0  0  0  0  0  0  0  0  0  0  0
   -1.3295   -1.3737    0.2680 C   0  0  0  0  0  0  0  0  0  0  0  0
   -1.5638    1.3993   -0.2214 C   0  0  0  0  0  0  0  0  0  0  0  0
   -2.5845   -0.7858    0.0890 C   0  0  0  0  0  0  0  0  0  0  0  0
   -2.7009    0.5926   -0.1546 C   0  0  0  0  0  0  0  0  0  0  0  0
    1.4301   -1.1921    1.3797 H   0  0  0  0  0  0  0  0  0  0  0  0
    1.2443   -2.8551   -0.5471 H   0  0  0  0  0  0  0  0  0  0  0  0
    1.5692   -1.5445   -1.6927 H   0  0  0  0  0  0  0  0  0  0  0  0
    2.8163   -2.0373   -0.5439 H   0  0  0  0  0  0  0  0  0  0  0  0
   -1.2420   -2.4374    0.4606 H   0  0  0  0  0  0  0  0  0  0  0  0
   -1.6488    2.4638   -0.4084 H   0  0  0  0  0  0  0  0  0  0  0  0
   -3.4799   -1.3994    0.1402 H   0  0  0  0  0  0  0  0  0  0  0  0
   -3.6848    1.0330   -0.2909 H   0  0  0  0  0  0  0  0  0  0  0  0
  1  5  1  0  0  0  0
  1  6  1  0  0  0  0
  2  6  2  0  0  0  0
  3  4  1  0  0  0  0
  3  6  1  0  0  0  0
  3  7  1  0  0  0  0
  3 12  1  0  0  0  0
  4  5  1  0  0  0  0
  4  8  2  0  0  0  0
  5  9  2  0  0  0  0
  7 13  1  0  0  0  0
  7 14  1  0  0  0  0
  7 15  1  0  0  0  0
  8 10  1  0  0  0  0
  8 16  1  0  0  0  0
  9 11  1  0  0  0  0
  9 17  1  0  0  0  0
 10 11  2  0  0  0  0
 10 18  1  0  0  0  0
 11 19  1  0  0  0  0
M  END
> <PUBCHEM_COMPOUND_CID>
577536

> <PUBCHEM_CONFORMER_RMSD>
0.4

> <PUBCHEM_CONFORMER_DIVERSEORDER>
1
2

> <PUBCHEM_MMFF94_PARTIAL_CHARGES>
14
1 -0.23
10 -0.15
11 -0.15
16 0.15
17 0.15
18 0.15
19 0.15
2 -0.57
3 0.2
4 -0.14
5 0.08
6 0.66
8 -0.15
9 -0.15

> <PUBCHEM_EFFECTIVE_ROTOR_COUNT>
0.4

> <PUBCHEM_PHARMACOPHORE_FEATURES>
3
1 2 acceptor
5 1 3 4 5 6 rings
6 4 5 8 9 10 11 rings

> <PUBCHEM_HEAVY_ATOM_COUNT>
11

> <PUBCHEM_ATOM_DEF_STEREO_COUNT>
0

> <PUBCHEM_ATOM_UDEF_STEREO_COUNT>
1

> <PUBCHEM_BOND_DEF_STEREO_COUNT>
0

> <PUBCHEM_BOND_UDEF_STEREO_COUNT>
0

> <PUBCHEM_ISOTOPIC_ATOM_COUNT>
0

> <PUBCHEM_COMPONENT_COUNT>
1

> <PUBCHEM_CACTVS_TAUTO_COUNT>
2

> <PUBCHEM_CONFORMER_ID>
0008D00000000001

> <PUBCHEM_MMFF94_ENERGY>
24.7005

> <PUBCHEM_FEATURE_SELFOVERLAP>
15.323

> <PUBCHEM_SHAPE_FINGERPRINT>
12423570 1 14954958850869629214
12524768 44 18410293562605427263
12897270 3 18411418444446615805
12932764 1 16916776384143768665
13380535 21 18339378386844585915
13380535 76 18409724079864440874
14325111 11 18409445881942450312
15219456 202 18341052930263875302
16945 1 18410858806039606161
17844478 74 18113915848621272729
17990270 104 18411981330033777278
19973954 147 18338801117517711433
20201158 50 18410853274158762623
20588541 1 18409732897595531057
20871998 184 18196657521320881119
21040471 1 18335980882987755601
21501502 16 18411699842119319730
23235685 24 18410003360133903769
23402655 69 18267567062801860573
23463225 33 18334007290223818920
23552423 10 18260833656970383695
23559900 14 17620190932922501678
241688 4 18120940499034659016
2748010 2 18337108943400142359
29004967 10 18412829100695758803
369184 2 16298378080666254617
5084963 1 18128822030347623624
528886 8 18411131480549199715

> <PUBCHEM_SHAPE_MULTIPOLES>
214.64
3.8
1.77
0.68
0.02
0.24
0.02
-0.17
0.11
0.27
0.16
0.05
0.1
0.34

> <PUBCHEM_SHAPE_SELFOVERLAP>
468.564

> <PUBCHEM_SHAPE_VOLUME>
118.5

> <PUBCHEM_COORDINATE_TYPE>
2
5
10

$$$$
