11166301
  -OEChem-09182015393D

 60 62  0     1  0  0  0  0  0999 V2000
   -0.6994    1.4046   -0.8033 O   0  0  0  0  0  0  0  0  0  0  0  0
    1.9449    1.3629    0.0648 O   0  0  0  0  0  0  0  0  0  0  0  0
    3.5194    0.1649   -1.2457 O   0  0  0  0  0  0  0  0  0  0  0  0
    0.6747    4.6327    0.2477 O   0  0  0  0  0  0  0  0  0  0  0  0
   -2.8422    0.4878   -0.6952 O   0  0  0  0  0  0  0  0  0  0  0  0
   -1.6759    4.3348    1.9035 O   0  0  0  0  0  0  0  0  0  0  0  0
   -3.7926    2.8989    0.4412 O   0  0  0  0  0  0  0  0  0  0  0  0
    5.0816   -0.1141    1.1505 O   0  0  0  0  0  0  0  0  0  0  0  0
    3.4281   -2.0631    2.2513 O   0  0  0  0  0  0  0  0  0  0  0  0
    2.3074   -3.1375   -0.1436 O   0  0  0  0  0  0  0  0  0  0  0  0
    0.1084    2.5801   -0.8845 C   0  0  1  0  0  0  0  0  0  0  0  0
   -0.0708    3.4251    0.3789 C   0  0  2  0  0  0  0  0  0  0  0  0
   -1.5452    3.7628    0.6012 C   0  0  1  0  0  0  0  0  0  0  0  0
   -2.4199    2.5129    0.5041 C   0  0  2  0  0  0  0  0  0  0  0  0
    3.6689    0.0951    1.1829 C   0  0  1  0  0  0  0  0  0  0  0  0
    3.2918    0.9165   -0.0486 C   0  0  2  0  0  0  0  0  0  0  0  0
    2.9424   -1.2509    1.1849 C   0  0  1  0  0  0  0  0  0  0  0  0
    3.1467   -1.9853   -0.1407 C   0  0  2  0  0  0  0  0  0  0  0  0
   -2.0929    1.7013   -0.7494 C   0  0  1  0  0  0  0  0  0  0  0  0
    1.5555    2.1322   -1.0639 C   0  0  0  0  0  0  0  0  0  0  0  0
    2.7886   -1.0637   -1.3148 C   0  0  2  0  0  0  0  0  0  0  0  0
    3.1152   -1.7013   -2.6625 C   0  0  0  0  0  0  0  0  0  0  0  0
   -2.5912   -0.3247   -1.8312 C   0  0  0  0  0  0  0  0  0  0  0  0
   -3.4180   -1.6028   -1.7438 C   0  0  0  0  0  0  0  0  0  0  0  0
   -3.0628   -2.4346   -0.5354 C   0  0  0  0  0  0  0  0  0  0  0  0
   -2.0672   -3.3934   -0.6393 C   0  0  0  0  0  0  0  0  0  0  0  0
   -3.7380   -2.2245    0.6567 C   0  0  0  0  0  0  0  0  0  0  0  0
   -1.7386   -4.1619    0.4774 C   0  0  0  0  0  0  0  0  0  0  0  0
   -3.4092   -2.9930    1.7733 C   0  0  0  0  0  0  0  0  0  0  0  0
   -2.4096   -3.9618    1.6836 C   0  0  0  0  0  0  0  0  0  0  0  0
   -0.1765    3.1535   -1.7767 H   0  0  0  0  0  0  0  0  0  0  0  0
    0.3094    2.9014    1.2642 H   0  0  0  0  0  0  0  0  0  0  0  0
   -1.8885    4.5254   -0.1087 H   0  0  0  0  0  0  0  0  0  0  0  0
   -2.2994    1.9005    1.4064 H   0  0  0  0  0  0  0  0  0  0  0  0
    3.4416    0.6365    2.1076 H   0  0  0  0  0  0  0  0  0  0  0  0
    3.9484    1.7939   -0.1016 H   0  0  0  0  0  0  0  0  0  0  0  0
    1.8713   -1.0958    1.3654 H   0  0  0  0  0  0  0  0  0  0  0  0
    4.1839   -2.3348   -0.2115 H   0  0  0  0  0  0  0  0  0  0  0  0
   -2.3961    2.2508   -1.6511 H   0  0  0  0  0  0  0  0  0  0  0  0
    2.2176    2.9986   -1.1742 H   0  0  0  0  0  0  0  0  0  0  0  0
    1.6191    1.5223   -1.9719 H   0  0  0  0  0  0  0  0  0  0  0  0
    1.7121   -0.8494   -1.3082 H   0  0  0  0  0  0  0  0  0  0  0  0
    4.1805   -1.9481   -2.7301 H   0  0  0  0  0  0  0  0  0  0  0  0
    2.5317   -2.6098   -2.8358 H   0  0  0  0  0  0  0  0  0  0  0  0
    2.9040   -0.9981   -3.4759 H   0  0  0  0  0  0  0  0  0  0  0  0
    0.3417    5.1080   -0.5326 H   0  0  0  0  0  0  0  0  0  0  0  0
   -1.1001    5.1180    1.9366 H   0  0  0  0  0  0  0  0  0  0  0  0
   -4.3205    2.0853    0.3668 H   0  0  0  0  0  0  0  0  0  0  0  0
    5.3214   -0.4530    0.2717 H   0  0  0  0  0  0  0  0  0  0  0  0
    2.9593   -2.9140    2.2060 H   0  0  0  0  0  0  0  0  0  0  0  0
    2.5551   -3.6836   -0.9082 H   0  0  0  0  0  0  0  0  0  0  0  0
   -2.8698    0.2209   -2.7404 H   0  0  0  0  0  0  0  0  0  0  0  0
   -1.5274   -0.5833   -1.8917 H   0  0  0  0  0  0  0  0  0  0  0  0
   -4.4852   -1.3498   -1.6985 H   0  0  0  0  0  0  0  0  0  0  0  0
   -3.2821   -2.1967   -2.6560 H   0  0  0  0  0  0  0  0  0  0  0  0
   -1.5369   -3.5543   -1.5736 H   0  0  0  0  0  0  0  0  0  0  0  0
   -4.5181   -1.4730    0.7379 H   0  0  0  0  0  0  0  0  0  0  0  0
   -0.9591   -4.9149    0.4080 H   0  0  0  0  0  0  0  0  0  0  0  0
   -3.9313   -2.8371    2.7129 H   0  0  0  0  0  0  0  0  0  0  0  0
   -2.1532   -4.5597    2.5533 H   0  0  0  0  0  0  0  0  0  0  0  0
  1 11  1  0  0  0  0
  1 19  1  0  0  0  0
  2 16  1  0  0  0  0
  2 20  1  0  0  0  0
  3 16  1  0  0  0  0
  3 21  1  0  0  0  0
  4 12  1  0  0  0  0
  4 46  1  0  0  0  0
  5 19  1  0  0  0  0
  5 23  1  0  0  0  0
  6 13  1  0  0  0  0
  6 47  1  0  0  0  0
  7 14  1  0  0  0  0
  7 48  1  0  0  0  0
  8 15  1  0  0  0  0
  8 49  1  0  0  0  0
  9 17  1  0  0  0  0
  9 50  1  0  0  0  0
 10 18  1  0  0  0  0
 10 51  1  0  0  0  0
 11 12  1  0  0  0  0
 11 20  1  0  0  0  0
 11 31  1  0  0  0  0
 12 13  1  0  0  0  0
 12 32  1  0  0  0  0
 13 14  1  0  0  0  0
 13 33  1  0  0  0  0
 14 19  1  0  0  0  0
 14 34  1  0  0  0  0
 15 16  1  0  0  0  0
 15 17  1  0  0  0  0
 15 35  1  0  0  0  0
 16 36  1  0  0  0  0
 17 18  1  0  0  0  0
 17 37  1  0  0  0  0
 18 21  1  0  0  0  0
 18 38  1  0  0  0  0
 19 39  1  0  0  0  0
 20 40  1  0  0  0  0
 20 41  1  0  0  0  0
 21 22  1  0  0  0  0
 21 42  1  0  0  0  0
 22 43  1  0  0  0  0
 22 44  1  0  0  0  0
 22 45  1  0  0  0  0
 23 24  1  0  0  0  0
 23 52  1  0  0  0  0
 23 53  1  0  0  0  0
 24 25  1  0  0  0  0
 24 54  1  0  0  0  0
 24 55  1  0  0  0  0
 25 26  2  0  0  0  0
 25 27  1  0  0  0  0
 26 28  1  0  0  0  0
 26 56  1  0  0  0  0
 27 29  2  0  0  0  0
 27 57  1  0  0  0  0
 28 30  2  0  0  0  0
 28 58  1  0  0  0  0
 29 30  1  0  0  0  0
 29 59  1  0  0  0  0
 30 60  1  0  0  0  0
M  END
> <PUBCHEM_COMPOUND_CID>
11166301

> <PUBCHEM_CONFORMER_RMSD>
1

> <PUBCHEM_CONFORMER_DIVERSEORDER>
1
87
100
49
25
163
51
116
29
91
83
12
146
153
50
138
92
84
30
131
24
82
54
85
47
75
26
118
124
103
67
27
166
35
102
162
8
132
154
61
160
164
56
5
93
73
46
114
36
58
63
65
22
37
44
90
104
147
62
79
66
157
161
113
11
39
142
159
127
13
151
77
89
155
137
9
72
136
52
165
76
107
101
81
148
152
21
123
15
125
70
41
144
98
78
115
53
55
10
139
143
129
109
126
68
2
99
34
57
95
108
74
149
134
16
69
128
141
40
45
28
71
121
105
19
86
96
133
6
120
117
59
158
7
33
17
14
119
32
112
38
23
145
156
42
4
48
18
3
88
64
110
60
122
106
150
43
135
111
140
130
31
97
80
94
20

> <PUBCHEM_MMFF94_PARTIAL_CHARGES>
40
1 -0.56
10 -0.68
11 0.28
12 0.28
13 0.28
14 0.28
15 0.28
16 0.56
17 0.28
18 0.28
19 0.56
2 -0.56
20 0.28
21 0.28
23 0.28
24 0.14
25 -0.14
26 -0.15
27 -0.15
28 -0.15
29 -0.15
3 -0.56
30 -0.15
4 -0.68
46 0.4
47 0.4
48 0.4
49 0.4
5 -0.56
50 0.4
51 0.4
56 0.15
57 0.15
58 0.15
59 0.15
6 -0.68
60 0.15
7 -0.68
8 -0.68
9 -0.68

> <PUBCHEM_EFFECTIVE_ROTOR_COUNT>
9.4

> <PUBCHEM_PHARMACOPHORE_FEATURES>
19
1 1 acceptor
1 10 acceptor
1 10 donor
1 2 acceptor
1 3 acceptor
1 4 acceptor
1 4 donor
1 5 acceptor
1 6 acceptor
1 6 donor
1 7 acceptor
1 7 donor
1 8 acceptor
1 8 donor
1 9 acceptor
1 9 donor
6 1 11 12 13 14 19 rings
6 25 26 27 28 29 30 rings
6 3 15 16 17 18 21 rings

> <PUBCHEM_HEAVY_ATOM_COUNT>
30

> <PUBCHEM_ATOM_DEF_STEREO_COUNT>
10

> <PUBCHEM_ATOM_UDEF_STEREO_COUNT>
0

> <PUBCHEM_BOND_DEF_STEREO_COUNT>
0

> <PUBCHEM_BOND_UDEF_STEREO_COUNT>
0

> <PUBCHEM_ISOTOPIC_ATOM_COUNT>
0

> <PUBCHEM_COMPONENT_COUNT>
1

> <PUBCHEM_CACTVS_TAUTO_COUNT>
1

> <PUBCHEM_CONFORMER_ID>
00AA625D00000001

> <PUBCHEM_MMFF94_ENERGY>
82.1626

> <PUBCHEM_FEATURE_SELFOVERLAP>
96.547

> <PUBCHEM_SHAPE_FINGERPRINT>
10675989 125 17759772898274340573
114674 6 17110157673209419883
12156800 1 15660932830002925187
12160290 23 18338798897209465821
12553582 1 18268998750719679823
12788726 201 18412824681585802935
13122387 1 18408882936352938455
16120349 306 17546993140249932777
20764821 26 18335986363387631107
21315759 227 18042960072218454271
21796203 349 17907036301814919440
35225 105 17700154122267622443
3737641 26 17687478166370238373
445580 102 18119525698152917166
463206 1 18334007319745472504
5265222 85 17329171078511502198
5309563 4 17907017631608005167

> <PUBCHEM_SHAPE_MULTIPOLES>
558.69
8.12
6.82
1.98
0.04
5.5
0.23
-7.34
-1.14
2.08
-2.59
-0.23
-1.13
0.56

> <PUBCHEM_SHAPE_SELFOVERLAP>
1161.726

> <PUBCHEM_SHAPE_VOLUME>
312.9

> <PUBCHEM_COORDINATE_TYPE>
2
5
10

$$$$
