5318597
  -OEChem-09182015293D

 48 51  0     1  0  0  0  0  0999 V2000
   -2.2285   -0.1157    0.9911 O   0  0  0  0  0  0  0  0  0  0  0  0
   -2.2645    0.6254   -2.6033 O   0  0  0  0  0  0  0  0  0  0  0  0
   -2.9900   -2.2189   -2.4644 O   0  0  0  0  0  0  0  0  0  0  0  0
   -4.5053   -2.7775   -0.0774 O   0  0  0  0  0  0  0  0  0  0  0  0
    0.4090   -0.2573   -0.0820 O   0  0  0  0  0  0  0  0  0  0  0  0
   -3.3613   -0.7004    3.4241 O   0  0  0  0  0  0  0  0  0  0  0  0
   -2.4842    3.5138   -0.1082 O   0  0  0  0  0  0  0  0  0  0  0  0
    2.1861    4.2588    0.1898 O   0  0  0  0  0  0  0  0  0  0  0  0
    3.7264    2.1216    0.1975 O   0  0  0  0  0  0  0  0  0  0  0  0
    3.0622   -4.1798   -0.0746 O   0  0  0  0  0  0  0  0  0  0  0  0
    5.3814   -2.6632    0.1161 O   0  0  0  0  0  0  0  0  0  0  0  0
   -2.1267   -0.2031   -1.4490 C   0  0  1  0  0  0  0  0  0  0  0  0
   -2.2010    0.6832   -0.1962 C   0  0  2  0  0  0  0  0  0  0  0  0
   -3.2466   -1.2472   -1.4488 C   0  0  2  0  0  0  0  0  0  0  0  0
   -3.3268   -1.9764   -0.1078 C   0  0  1  0  0  0  0  0  0  0  0  0
   -3.3648   -0.9787    1.0514 C   0  0  1  0  0  0  0  0  0  0  0  0
   -1.0132    1.6198   -0.0930 C   0  0  0  0  0  0  0  0  0  0  0  0
   -3.3346   -1.6823    2.4042 C   0  0  0  0  0  0  0  0  0  0  0  0
    0.2855    1.1095   -0.0376 C   0  0  0  0  0  0  0  0  0  0  0  0
   -1.2236    2.9986   -0.0532 C   0  0  0  0  0  0  0  0  0  0  0  0
    1.3672    1.9846    0.0576 C   0  0  0  0  0  0  0  0  0  0  0  0
   -0.1382    3.8697    0.0420 C   0  0  0  0  0  0  0  0  0  0  0  0
    1.1614    3.3660    0.0978 C   0  0  0  0  0  0  0  0  0  0  0  0
    2.7260    1.4244    0.1146 C   0  0  0  0  0  0  0  0  0  0  0  0
    1.6698   -0.7986   -0.0298 C   0  0  0  0  0  0  0  0  0  0  0  0
    2.8370   -0.0415    0.0659 C   0  0  0  0  0  0  0  0  0  0  0  0
    1.7521   -2.1919   -0.0777 C   0  0  0  0  0  0  0  0  0  0  0  0
    4.0862   -0.6656    0.1143 C   0  0  0  0  0  0  0  0  0  0  0  0
    2.9972   -2.8196   -0.0297 C   0  0  0  0  0  0  0  0  0  0  0  0
    4.1619   -2.0577    0.0662 C   0  0  0  0  0  0  0  0  0  0  0  0
   -1.1839   -0.7378   -1.5707 H   0  0  0  0  0  0  0  0  0  0  0  0
   -3.1313    1.2634   -0.2279 H   0  0  0  0  0  0  0  0  0  0  0  0
   -4.2119   -0.7889   -1.6969 H   0  0  0  0  0  0  0  0  0  0  0  0
   -2.4680   -2.6516   -0.0083 H   0  0  0  0  0  0  0  0  0  0  0  0
   -4.2731   -0.3621    1.0112 H   0  0  0  0  0  0  0  0  0  0  0  0
   -2.4189   -2.2696    2.5299 H   0  0  0  0  0  0  0  0  0  0  0  0
   -4.1973   -2.3412    2.5378 H   0  0  0  0  0  0  0  0  0  0  0  0
   -3.1210    1.0823   -2.5459 H   0  0  0  0  0  0  0  0  0  0  0  0
   -2.9151   -1.7424   -3.3089 H   0  0  0  0  0  0  0  0  0  0  0  0
   -5.2730   -2.1857   -0.1551 H   0  0  0  0  0  0  0  0  0  0  0  0
   -0.2988    4.9449    0.0727 H   0  0  0  0  0  0  0  0  0  0  0  0
   -2.5924   -0.1193    3.2932 H   0  0  0  0  0  0  0  0  0  0  0  0
   -2.4335    4.4842   -0.0692 H   0  0  0  0  0  0  0  0  0  0  0  0
    0.8461   -2.7888   -0.1521 H   0  0  0  0  0  0  0  0  0  0  0  0
    4.9970   -0.0772    0.1895 H   0  0  0  0  0  0  0  0  0  0  0  0
    3.0374    3.7960    0.2216 H   0  0  0  0  0  0  0  0  0  0  0  0
    3.9979   -4.4429   -0.0303 H   0  0  0  0  0  0  0  0  0  0  0  0
    6.0720   -1.9816    0.1819 H   0  0  0  0  0  0  0  0  0  0  0  0
  1 13  1  0  0  0  0
  1 16  1  0  0  0  0
  2 12  1  0  0  0  0
  2 38  1  0  0  0  0
  3 14  1  0  0  0  0
  3 39  1  0  0  0  0
  4 15  1  0  0  0  0
  4 40  1  0  0  0  0
  5 19  1  0  0  0  0
  5 25  1  0  0  0  0
  6 18  1  0  0  0  0
  6 42  1  0  0  0  0
  7 20  1  0  0  0  0
  7 43  1  0  0  0  0
  8 23  1  0  0  0  0
  8 46  1  0  0  0  0
  9 24  2  0  0  0  0
 10 29  1  0  0  0  0
 10 47  1  0  0  0  0
 11 30  1  0  0  0  0
 11 48  1  0  0  0  0
 12 13  1  0  0  0  0
 12 14  1  0  0  0  0
 12 31  1  0  0  0  0
 13 17  1  0  0  0  0
 13 32  1  0  0  0  0
 14 15  1  0  0  0  0
 14 33  1  0  0  0  0
 15 16  1  0  0  0  0
 15 34  1  0  0  0  0
 16 18  1  0  0  0  0
 16 35  1  0  0  0  0
 17 19  1  0  0  0  0
 17 20  2  0  0  0  0
 18 36  1  0  0  0  0
 18 37  1  0  0  0  0
 19 21  2  0  0  0  0
 20 22  1  0  0  0  0
 21 23  1  0  0  0  0
 21 24  1  0  0  0  0
 22 23  2  0  0  0  0
 22 41  1  0  0  0  0
 24 26  1  0  0  0  0
 25 26  1  0  0  0  0
 25 27  2  0  0  0  0
 26 28  2  0  0  0  0
 27 29  1  0  0  0  0
 27 44  1  0  0  0  0
 28 30  1  0  0  0  0
 28 45  1  0  0  0  0
 29 30  2  0  0  0  0
M  END
> <PUBCHEM_COMPOUND_CID>
5318597

> <PUBCHEM_CONFORMER_RMSD>
0.8

> <PUBCHEM_CONFORMER_DIVERSEORDER>
2
1
7
4
6
5
3

> <PUBCHEM_MMFF94_PARTIAL_CHARGES>
41
1 -0.56
10 -0.53
11 -0.53
12 0.28
13 0.42
14 0.28
15 0.28
16 0.28
17 -0.14
18 0.28
19 0.08
2 -0.68
20 0.08
21 0.09
22 -0.15
23 0.08
24 0.4
25 0.08
26 0.09
27 -0.15
28 -0.15
29 0.08
3 -0.68
30 0.08
38 0.4
39 0.4
4 -0.68
40 0.4
41 0.15
42 0.4
43 0.45
44 0.15
45 0.15
46 0.45
47 0.45
48 0.45
5 -0.17
6 -0.68
7 -0.53
8 -0.53
9 -0.57

> <PUBCHEM_EFFECTIVE_ROTOR_COUNT>
3.2

> <PUBCHEM_PHARMACOPHORE_FEATURES>
19
1 1 acceptor
1 10 donor
1 11 donor
1 2 acceptor
1 2 donor
1 3 acceptor
1 3 donor
1 4 acceptor
1 4 donor
1 5 acceptor
1 6 acceptor
1 6 donor
1 7 donor
1 8 donor
1 9 acceptor
6 1 12 13 14 15 16 rings
6 17 19 20 21 22 23 rings
6 25 26 27 28 29 30 rings
6 5 19 21 24 25 26 rings

> <PUBCHEM_HEAVY_ATOM_COUNT>
30

> <PUBCHEM_ATOM_DEF_STEREO_COUNT>
5

> <PUBCHEM_ATOM_UDEF_STEREO_COUNT>
0

> <PUBCHEM_BOND_DEF_STEREO_COUNT>
0

> <PUBCHEM_BOND_UDEF_STEREO_COUNT>
0

> <PUBCHEM_ISOTOPIC_ATOM_COUNT>
0

> <PUBCHEM_COMPONENT_COUNT>
1

> <PUBCHEM_CACTVS_TAUTO_COUNT>
114

> <PUBCHEM_CONFORMER_ID>
005127C500000002

> <PUBCHEM_MMFF94_ENERGY>
93.438

> <PUBCHEM_FEATURE_SELFOVERLAP>
96.511

> <PUBCHEM_SHAPE_FINGERPRINT>
10411042 1 18411135823099278638
10764073 3 17903664903365725121
1100329 8 18195243304575849104
11049842 53 15071391209707666427
11578080 2 17416376879898886721
12107183 9 18342188726624636163
12156800 1 15736921045145092523
12539773 59 17488745713242406327
12553582 1 18411706491040086270
12596599 1 17774733050955001327
12788726 201 17903624194831762936
13009979 54 17560240361395332279
13140716 1 18268993094664904504
1361 2 17762049244142502763
138480 1 14520589364897696076
13911987 19 17902508525764568220
13965767 371 17556622899900287145
14659021 117 17833245546945350186
14790565 3 17833004014948662420
14844126 61 18122893236223643442
15927050 60 15675480150723182180
17974551 9 18048635687301731585
18927931 339 18196091045732404262
19315092 285 16914500476531347703
19319366 153 17464272534101621714
19591789 44 17761215814365221084
19930381 70 18193835066408514003
20028762 73 17552356996289471126
20101258 96 18339648819724096722
20775438 99 17475172134501986157
21133665 82 16610542287173395030
21285901 2 17460857743518311911
21796203 349 18121252919920884818
221490 88 18409728444131312902
23557571 272 17024015146494023037
23559900 14 18338219514563891876
238 59 17687429749082260487
3383291 50 17691117137652391691
3737641 26 18339662095620995926
5309563 4 18410856581120660895
70251023 43 18339065073681888295
9709674 26 17981040809087075742

> <PUBCHEM_SHAPE_MULTIPOLES>
552.82
8.21
5.24
1.68
2.88
2.92
0.5
-7.99
0.95
2.59
0
-3.28
-1.02
0.4

> <PUBCHEM_SHAPE_SELFOVERLAP>
1230.751

> <PUBCHEM_SHAPE_VOLUME>
291.9

> <PUBCHEM_COORDINATE_TYPE>
2
5
10

$$$$
