442664
  -OEChem-09192004483D

 72 76  0     1  0  0  0  0  0999 V2000
   -1.3026   -2.0122   -0.7380 O   0  0  0  0  0  0  0  0  0  0  0  0
    4.2364   -0.4769   -0.7544 O   0  0  0  0  0  0  0  0  0  0  0  0
   -0.5636   -1.3745    2.8000 O   0  0  0  0  0  0  0  0  0  0  0  0
    4.1167    2.4256    1.4886 O   0  0  0  0  0  0  0  0  0  0  0  0
   -3.2586   -2.5452    2.8445 O   0  0  0  0  0  0  0  0  0  0  0  0
    6.4596    0.9147    2.4180 O   0  0  0  0  0  0  0  0  0  0  0  0
   -3.5732   -4.4806    0.7326 O   0  0  0  0  0  0  0  0  0  0  0  0
    7.7664   -0.4109    0.2179 O   0  0  0  0  0  0  0  0  0  0  0  0
   -1.8558    0.7193   -0.0826 O   0  0  0  0  0  0  0  0  0  0  0  0
    2.3095   -1.5319    0.2976 O   0  0  0  0  0  0  0  0  0  0  0  0
    2.2969    3.1182   -0.7347 O   0  0  0  0  0  0  0  0  0  0  0  0
   -1.7032   -3.5857   -2.9534 O   0  0  0  0  0  0  0  0  0  0  0  0
    5.2611   -2.0091   -2.7909 O   0  0  0  0  0  0  0  0  0  0  0  0
   -0.0344    4.2645   -0.9269 O   0  0  0  0  0  0  0  0  0  0  0  0
   -8.1634    1.1552   -0.0208 O   0  0  0  0  0  0  0  0  0  0  0  0
   -0.5174   -1.6773    0.4109 C   0  0  2  0  0  0  0  0  0  0  0  0
    3.8167    0.8003   -0.2637 C   0  0  2  0  0  0  0  0  0  0  0  0
   -1.4038   -1.5478    1.6592 C   0  0  1  0  0  0  0  0  0  0  0  0
    4.4310    1.0839    1.1158 C   0  0  1  0  0  0  0  0  0  0  0  0
   -2.2591   -2.8024    1.8564 C   0  0  2  0  0  0  0  0  0  0  0  0
    5.9529    0.9198    1.0821 C   0  0  2  0  0  0  0  0  0  0  0  0
   -2.9672   -3.2019    0.5621 C   0  0  1  0  0  0  0  0  0  0  0  0
    6.3556   -0.3977    0.4199 C   0  0  1  0  0  0  0  0  0  0  0  0
   -1.9764   -3.2642   -0.6019 C   0  0  1  0  0  0  0  0  0  0  0  0
    5.6513   -0.5654   -0.9278 C   0  0  1  0  0  0  0  0  0  0  0  0
    0.2208   -0.3891    0.1037 C   0  0  0  0  0  0  0  0  0  0  0  0
    2.3011    0.8009   -0.2202 C   0  0  0  0  0  0  0  0  0  0  0  0
    1.6152   -0.3814    0.0620 C   0  0  0  0  0  0  0  0  0  0  0  0
   -0.4868    0.7889   -0.1370 C   0  0  0  0  0  0  0  0  0  0  0  0
    1.5960    1.9805   -0.4619 C   0  0  0  0  0  0  0  0  0  0  0  0
    0.1999    1.9687   -0.4189 C   0  0  0  0  0  0  0  0  0  0  0  0
   -2.6767   -3.5537   -1.9255 C   0  0  0  0  0  0  0  0  0  0  0  0
    5.9518   -1.9215   -1.5578 C   0  0  0  0  0  0  0  0  0  0  0  0
   -0.5711    3.1956   -0.6706 C   0  0  0  0  0  0  0  0  0  0  0  0
   -2.5855    1.8760   -0.3111 C   0  0  0  0  0  0  0  0  0  0  0  0
   -2.0408    3.0690   -0.5983 C   0  0  0  0  0  0  0  0  0  0  0  0
   -4.0481    1.6875   -0.2345 C   0  0  0  0  0  0  0  0  0  0  0  0
   -4.8729    2.7435    0.1606 C   0  0  0  0  0  0  0  0  0  0  0  0
   -4.6135    0.4514   -0.5574 C   0  0  0  0  0  0  0  0  0  0  0  0
   -6.2544    2.5646    0.2325 C   0  0  0  0  0  0  0  0  0  0  0  0
   -5.9950    0.2723   -0.4856 C   0  0  0  0  0  0  0  0  0  0  0  0
   -6.8155    1.3291   -0.0908 C   0  0  0  0  0  0  0  0  0  0  0  0
    0.2005   -2.4902    0.5747 H   0  0  0  0  0  0  0  0  0  0  0  0
    4.1471    1.5509   -0.9939 H   0  0  0  0  0  0  0  0  0  0  0  0
   -2.0792   -0.6907    1.6403 H   0  0  0  0  0  0  0  0  0  0  0  0
    4.0085    0.4260    1.8848 H   0  0  0  0  0  0  0  0  0  0  0  0
   -1.6453   -3.6267    2.2407 H   0  0  0  0  0  0  0  0  0  0  0  0
    6.4312    1.7654    0.5726 H   0  0  0  0  0  0  0  0  0  0  0  0
   -3.7671   -2.4844    0.3435 H   0  0  0  0  0  0  0  0  0  0  0  0
    6.1074   -1.2340    1.0859 H   0  0  0  0  0  0  0  0  0  0  0  0
   -1.2265   -4.0497   -0.4366 H   0  0  0  0  0  0  0  0  0  0  0  0
    5.9680    0.2161   -1.6318 H   0  0  0  0  0  0  0  0  0  0  0  0
   -3.4007   -2.7712   -2.1756 H   0  0  0  0  0  0  0  0  0  0  0  0
   -3.1921   -4.5183   -1.9090 H   0  0  0  0  0  0  0  0  0  0  0  0
    5.5895   -2.7372   -0.9239 H   0  0  0  0  0  0  0  0  0  0  0  0
    7.0208   -2.0656   -1.7410 H   0  0  0  0  0  0  0  0  0  0  0  0
   -1.1386   -1.3422    3.5837 H   0  0  0  0  0  0  0  0  0  0  0  0
    4.4882    3.0201    0.8147 H   0  0  0  0  0  0  0  0  0  0  0  0
   -3.6939   -3.3892    3.0512 H   0  0  0  0  0  0  0  0  0  0  0  0
    6.1762    1.7447    2.8383 H   0  0  0  0  0  0  0  0  0  0  0  0
   -4.2871   -4.3848    1.3851 H   0  0  0  0  0  0  0  0  0  0  0  0
    8.1857   -0.2786    1.0854 H   0  0  0  0  0  0  0  0  0  0  0  0
    3.2345   -1.3397    0.5146 H   0  0  0  0  0  0  0  0  0  0  0  0
    1.6984    3.8674   -0.8743 H   0  0  0  0  0  0  0  0  0  0  0  0
   -2.6136    3.9657   -0.8038 H   0  0  0  0  0  0  0  0  0  0  0  0
   -1.2505   -2.7250   -2.9565 H   0  0  0  0  0  0  0  0  0  0  0  0
    5.6001   -1.3056   -3.3702 H   0  0  0  0  0  0  0  0  0  0  0  0
   -4.4735    3.7142    0.4418 H   0  0  0  0  0  0  0  0  0  0  0  0
   -3.9993   -0.3838   -0.8831 H   0  0  0  0  0  0  0  0  0  0  0  0
   -6.8826    3.3940    0.5462 H   0  0  0  0  0  0  0  0  0  0  0  0
   -6.4262   -0.6917   -0.7415 H   0  0  0  0  0  0  0  0  0  0  0  0
   -8.5740    1.9880    0.2686 H   0  0  0  0  0  0  0  0  0  0  0  0
  1 16  1  0  0  0  0
  1 24  1  0  0  0  0
  2 17  1  0  0  0  0
  2 25  1  0  0  0  0
  3 18  1  0  0  0  0
  3 57  1  0  0  0  0
  4 19  1  0  0  0  0
  4 58  1  0  0  0  0
  5 20  1  0  0  0  0
  5 59  1  0  0  0  0
  6 21  1  0  0  0  0
  6 60  1  0  0  0  0
  7 22  1  0  0  0  0
  7 61  1  0  0  0  0
  8 23  1  0  0  0  0
  8 62  1  0  0  0  0
  9 29  1  0  0  0  0
  9 35  1  0  0  0  0
 10 28  1  0  0  0  0
 10 63  1  0  0  0  0
 11 30  1  0  0  0  0
 11 64  1  0  0  0  0
 12 32  1  0  0  0  0
 12 66  1  0  0  0  0
 13 33  1  0  0  0  0
 13 67  1  0  0  0  0
 14 34  2  0  0  0  0
 15 42  1  0  0  0  0
 15 72  1  0  0  0  0
 16 18  1  0  0  0  0
 16 26  1  0  0  0  0
 16 43  1  0  0  0  0
 17 19  1  0  0  0  0
 17 27  1  0  0  0  0
 17 44  1  0  0  0  0
 18 20  1  0  0  0  0
 18 45  1  0  0  0  0
 19 21  1  0  0  0  0
 19 46  1  0  0  0  0
 20 22  1  0  0  0  0
 20 47  1  0  0  0  0
 21 23  1  0  0  0  0
 21 48  1  0  0  0  0
 22 24  1  0  0  0  0
 22 49  1  0  0  0  0
 23 25  1  0  0  0  0
 23 50  1  0  0  0  0
 24 32  1  0  0  0  0
 24 51  1  0  0  0  0
 25 33  1  0  0  0  0
 25 52  1  0  0  0  0
 26 28  1  0  0  0  0
 26 29  2  0  0  0  0
 27 28  2  0  0  0  0
 27 30  1  0  0  0  0
 29 31  1  0  0  0  0
 30 31  2  0  0  0  0
 31 34  1  0  0  0  0
 32 53  1  0  0  0  0
 32 54  1  0  0  0  0
 33 55  1  0  0  0  0
 33 56  1  0  0  0  0
 34 36  1  0  0  0  0
 35 36  2  0  0  0  0
 35 37  1  0  0  0  0
 36 65  1  0  0  0  0
 37 38  2  0  0  0  0
 37 39  1  0  0  0  0
 38 40  1  0  0  0  0
 38 68  1  0  0  0  0
 39 41  2  0  0  0  0
 39 69  1  0  0  0  0
 40 42  2  0  0  0  0
 40 70  1  0  0  0  0
 41 42  1  0  0  0  0
 41 71  1  0  0  0  0
M  END
> <PUBCHEM_COMPOUND_CID>
442664

> <PUBCHEM_CONFORMER_RMSD>
1

> <PUBCHEM_CONFORMER_DIVERSEORDER>
1
10
7
19
18
11
6
2
13
3
5
16
17
12
9
8
4
14
15

> <PUBCHEM_MMFF94_PARTIAL_CHARGES>
58
1 -0.56
10 -0.53
11 -0.53
12 -0.68
13 -0.68
14 -0.57
15 -0.53
16 0.42
17 0.42
18 0.28
19 0.28
2 -0.56
20 0.28
21 0.28
22 0.28
23 0.28
24 0.28
25 0.28
26 -0.14
27 -0.14
28 0.08
29 0.08
3 -0.68
30 0.08
31 0.09
32 0.28
33 0.28
34 0.47
35 0.05
36 -0.14
37 0.03
38 -0.15
39 -0.15
4 -0.68
40 -0.15
41 -0.15
42 0.08
5 -0.68
57 0.4
58 0.4
59 0.4
6 -0.68
60 0.4
61 0.4
62 0.4
63 0.45
64 0.45
65 0.15
66 0.4
67 0.4
68 0.15
69 0.15
7 -0.68
70 0.15
71 0.15
72 0.45
8 -0.68
9 -0.16

> <PUBCHEM_EFFECTIVE_ROTOR_COUNT>
7.4

> <PUBCHEM_PHARMACOPHORE_FEATURES>
28
1 1 acceptor
1 10 donor
1 11 donor
1 12 acceptor
1 12 donor
1 13 acceptor
1 13 donor
1 14 acceptor
1 15 donor
1 2 acceptor
1 3 acceptor
1 3 donor
1 4 acceptor
1 4 donor
1 5 acceptor
1 5 donor
1 6 acceptor
1 6 donor
1 7 acceptor
1 7 donor
1 8 acceptor
1 8 donor
1 9 acceptor
6 1 16 18 20 22 24 rings
6 2 17 19 21 23 25 rings
6 26 27 28 29 30 31 rings
6 37 38 39 40 41 42 rings
6 9 29 31 34 35 36 rings

> <PUBCHEM_HEAVY_ATOM_COUNT>
42

> <PUBCHEM_ATOM_DEF_STEREO_COUNT>
10

> <PUBCHEM_ATOM_UDEF_STEREO_COUNT>
0

> <PUBCHEM_BOND_DEF_STEREO_COUNT>
0

> <PUBCHEM_BOND_UDEF_STEREO_COUNT>
0

> <PUBCHEM_ISOTOPIC_ATOM_COUNT>
0

> <PUBCHEM_COMPONENT_COUNT>
1

> <PUBCHEM_CACTVS_TAUTO_COUNT>
57

> <PUBCHEM_CONFORMER_ID>
0006C12800000001

> <PUBCHEM_MMFF94_ENERGY>
135.9518

> <PUBCHEM_FEATURE_SELFOVERLAP>
142.194

> <PUBCHEM_SHAPE_FINGERPRINT>
10006869 2 18116421545368664955
10050765 1 18191309484105557524
10119406 146 18263366893438948598
10675989 125 16960397069268769053
10815517 723 18334286574424947901
10864689 126 18264205808073518549
1100329 8 18261109716357655785
11135926 11 18263359206259755389
11578080 2 17487602255345370649
11991303 11 17822019709440514847
12058002 1 17487089745451774637
12422481 6 18126873648662595035
13140716 1 18261670497405489664
13150687 139 18341328899641178087
13617811 41 17967821492355573116
13692114 37 18412539934134247383
14117953 113 18334572413795391061
14295345 954 18129089181608597229
14674994 50 17917428765556837895
14856354 85 16153436017308575561
15131766 46 15070344603592648926
15274700 242 18118380891879275771
15297060 5 17917710193868916499
15361156 5 18335424616763238820
15968369 153 18267304425198034937
16628084 112 17826512167421897086
18681886 176 18412818080569871753
19301679 30 18048882084764232531
19311894 1 18336541733514435735
19319366 153 17531248305402021178
21033648 29 18058711624980890600
21133410 90 17489026080502495377
21781051 124 17823156599952351209
22311459 1 18261393313238088828
23559900 14 18409169926616244396
23569943 247 17767133007662326582
3178227 256 18114474388092252345
335352 9 18334577944763539805
3380486 145 18129668628647252024
3383291 50 18408042935935291571
404807 14 16480808818193143678
4073 2 18411416250425144384
4408954 64 16809866604195389427
5080951 261 18119499207221598118
5171179 24 17840858895704388121
563151 74 17059760222606374120
58260988 647 17344920611721293726
59755656 520 17748823016755275475
6376802 137 17846500366029724273
6669772 16 18262801740320298095

> <PUBCHEM_SHAPE_MULTIPOLES>
776.3
16.62
5.04
1.91
8.54
2.27
-0.28
-4.22
-0.49
-5.73
1
1.13
2.05
2.17

> <PUBCHEM_SHAPE_SELFOVERLAP>
1702.057

> <PUBCHEM_SHAPE_VOLUME>
413.6

> <PUBCHEM_COORDINATE_TYPE>
2
5
10

$$$$
