44445623
  -OEChem-09192003433D

 35 36  0     0  0  0  0  0  0999 V2000
   -3.0788    0.7363    0.0152 O   0  0  0  0  0  0  0  0  0  0  0  0
    1.9844   -3.1565    0.0299 O   0  0  0  0  0  0  0  0  0  0  0  0
    2.2539    1.9727    0.0236 O   0  0  0  0  0  0  0  0  0  0  0  0
    0.4913    3.8954    0.0299 O   0  0  0  0  0  0  0  0  0  0  0  0
    3.5034   -0.5049   -1.2204 O   0  0  0  0  0  0  0  0  0  0  0  0
    3.6810   -0.4734    1.0455 O   0  0  0  0  0  0  0  0  0  0  0  0
   -1.1884   -1.3464    0.0068 C   0  0  0  0  0  0  0  0  0  0  0  0
   -2.6200   -1.7893   -0.0058 C   0  0  0  0  0  0  0  0  0  0  0  0
   -0.7716   -0.0036    0.0078 C   0  0  0  0  0  0  0  0  0  0  0  0
    0.6060    0.2475    0.0165 C   0  0  0  0  0  0  0  0  0  0  0  0
   -0.2600   -2.3920    0.0143 C   0  0  0  0  0  0  0  0  0  0  0  0
   -1.7476    1.1086   -0.0008 C   0  0  0  0  0  0  0  0  0  0  0  0
    1.5414   -0.7952    0.0241 C   0  0  0  0  0  0  0  0  0  0  0  0
   -2.9911   -2.5934    1.2512 C   0  0  0  0  0  0  0  0  0  0  0  0
   -2.9696   -2.5923   -1.2698 C   0  0  0  0  0  0  0  0  0  0  0  0
    1.1034   -2.1163    0.0230 C   0  0  0  0  0  0  0  0  0  0  0  0
   -1.3779    2.4051   -0.0054 C   0  0  0  0  0  0  0  0  0  0  0  0
    1.0794    1.6373    0.0183 C   0  0  0  0  0  0  0  0  0  0  0  0
    0.0724    2.7459    0.0133 C   0  0  0  0  0  0  0  0  0  0  0  0
   -2.2984    3.5937   -0.0511 C   0  0  0  0  0  0  0  0  0  0  0  0
    2.9867   -0.5792    0.0341 C   0  0  0  0  0  0  0  0  0  0  0  0
   -3.4138   -1.0711   -0.0173 H   0  0  0  0  0  0  0  0  0  0  0  0
   -0.5807   -3.4306    0.0129 H   0  0  0  0  0  0  0  0  0  0  0  0
   -2.4441   -3.5391    1.3242 H   0  0  0  0  0  0  0  0  0  0  0  0
   -4.0591   -2.8407    1.2508 H   0  0  0  0  0  0  0  0  0  0  0  0
   -2.7856   -2.0133    2.1580 H   0  0  0  0  0  0  0  0  0  0  0  0
   -2.4213   -3.5379   -1.3339 H   0  0  0  0  0  0  0  0  0  0  0  0
   -2.7481   -2.0117   -2.1725 H   0  0  0  0  0  0  0  0  0  0  0  0
   -4.0375   -2.8398   -1.2881 H   0  0  0  0  0  0  0  0  0  0  0  0
   -2.3347    4.0788    0.9298 H   0  0  0  0  0  0  0  0  0  0  0  0
   -3.3200    3.3453   -0.3478 H   0  0  0  0  0  0  0  0  0  0  0  0
   -1.9435    4.3270   -0.7842 H   0  0  0  0  0  0  0  0  0  0  0  0
   -3.6412    1.5127    0.1560 H   0  0  0  0  0  0  0  0  0  0  0  0
    1.4917   -3.9950    0.0278 H   0  0  0  0  0  0  0  0  0  0  0  0
    4.4734   -0.3593   -1.2082 H   0  0  0  0  0  0  0  0  0  0  0  0
  1 12  1  0  0  0  0
  1 33  1  0  0  0  0
  2 16  1  0  0  0  0
  2 34  1  0  0  0  0
  3 18  2  0  0  0  0
  4 19  2  0  0  0  0
  5 21  1  0  0  0  0
  5 35  1  0  0  0  0
  6 21  2  0  0  0  0
  7  8  1  0  0  0  0
  7  9  1  0  0  0  0
  7 11  2  0  0  0  0
  8 14  1  0  0  0  0
  8 15  1  0  0  0  0
  8 22  1  0  0  0  0
  9 10  2  0  0  0  0
  9 12  1  0  0  0  0
 10 13  1  0  0  0  0
 10 18  1  0  0  0  0
 11 16  1  0  0  0  0
 11 23  1  0  0  0  0
 12 17  2  0  0  0  0
 13 16  2  0  0  0  0
 13 21  1  0  0  0  0
 14 24  1  0  0  0  0
 14 25  1  0  0  0  0
 14 26  1  0  0  0  0
 15 27  1  0  0  0  0
 15 28  1  0  0  0  0
 15 29  1  0  0  0  0
 17 19  1  0  0  0  0
 17 20  1  0  0  0  0
 18 19  1  0  0  0  0
 20 30  1  0  0  0  0
 20 31  1  0  0  0  0
 20 32  1  0  0  0  0
M  END
> <PUBCHEM_COMPOUND_CID>
44445623

> <PUBCHEM_CONFORMER_RMSD>
0.6

> <PUBCHEM_CONFORMER_DIVERSEORDER>
1

> <PUBCHEM_MMFF94_PARTIAL_CHARGES>
23
1 -0.53
10 0.09
11 -0.15
12 0.05
13 0.09
16 0.08
17 -0.12
18 0.48
19 0.56
2 -0.53
20 0.14
21 0.63
23 0.15
3 -0.57
33 0.45
34 0.45
35 0.5
4 -0.57
5 -0.65
6 -0.57
7 -0.14
8 0.14
9 0.03

> <PUBCHEM_EFFECTIVE_ROTOR_COUNT>
2

> <PUBCHEM_PHARMACOPHORE_FEATURES>
10
1 1 donor
1 2 donor
1 3 acceptor
1 4 acceptor
1 5 acceptor
1 6 acceptor
3 5 6 21 anion
3 8 14 15 hydrophobe
6 7 9 10 11 13 16 rings
6 9 10 12 17 18 19 rings

> <PUBCHEM_HEAVY_ATOM_COUNT>
21

> <PUBCHEM_ATOM_DEF_STEREO_COUNT>
0

> <PUBCHEM_ATOM_UDEF_STEREO_COUNT>
0

> <PUBCHEM_BOND_DEF_STEREO_COUNT>
0

> <PUBCHEM_BOND_UDEF_STEREO_COUNT>
0

> <PUBCHEM_ISOTOPIC_ATOM_COUNT>
0

> <PUBCHEM_COMPONENT_COUNT>
1

> <PUBCHEM_CACTVS_TAUTO_COUNT>
350

> <PUBCHEM_CONFORMER_ID>
02A62FB700000001

> <PUBCHEM_MMFF94_ENERGY>
80.8044

> <PUBCHEM_FEATURE_SELFOVERLAP>
50.837

> <PUBCHEM_SHAPE_FINGERPRINT>
10411042 1 18338516464318637866
104564 63 18410019827070223734
10693767 8 17554892444143395814
10967382 1 18266740186300841457
1100329 8 18410009931724153521
11578080 2 17273674603087895875
12553582 1 18338240473851549475
13140716 1 18410575127713173977
138480 1 15384436107072110707
14178342 30 18337940200161187074
14790565 3 17615710852235194533
15042514 8 18264772060466095146
16945 1 18338517439096112424
193761 8 18410573959429165617
19591789 44 17546732551693790343
20739085 24 17976286799828219227
20905425 154 18269281338225100684
21041028 32 18337118976713018131
21524375 3 17547288904704181971
23184049 29 18410291449518473348
2334 1 18194402418582133297
23419403 2 17611704119982608116
23559900 14 16756362349268759092
238 59 16311867675490375821
2748010 2 18339072821359505645
34934 24 18338228280660545955
352729 6 17690281508666932659
58807428 26 16970542803147549017
7364860 26 17764031658900406852
81228 2 18410289173227881339

> <PUBCHEM_SHAPE_MULTIPOLES>
396.95
4.92
4.75
0.85
3.08
2.31
0.03
-1.37
-0.01
-2.67
0.02
0.4
-0.31
0.02

> <PUBCHEM_SHAPE_SELFOVERLAP>
868.476

> <PUBCHEM_SHAPE_VOLUME>
216.2

> <PUBCHEM_COORDINATE_TYPE>
2
5
10

$$$$
