24787302
  -OEChem-09192003083D

 45 47  0     1  0  0  0  0  0999 V2000
    0.0641   -1.2495   -0.5365 O   0  0  0  0  0  0  0  0  0  0  0  0
    0.2755    3.4491    0.4144 O   0  0  0  0  0  0  0  0  0  0  0  0
    2.4000   -2.8886   -0.7634 O   0  0  0  0  0  0  0  0  0  0  0  0
   -5.5633    0.7683   -0.6952 O   0  0  0  0  0  0  0  0  0  0  0  0
   -5.9243   -0.9958    1.4224 O   0  0  0  0  0  0  0  0  0  0  0  0
    6.0210    0.3136    0.9188 O   0  0  0  0  0  0  0  0  0  0  0  0
    0.0176    1.0901    0.1352 C   0  0  1  0  0  0  0  0  0  0  0  0
   -0.7311   -0.0332   -0.6212 C   0  0  2  0  0  0  0  0  0  0  0  0
    1.3993    0.5465    0.0373 C   0  0  0  0  0  0  0  0  0  0  0  0
    1.3402   -0.7938   -0.3193 C   0  0  0  0  0  0  0  0  0  0  0  0
   -0.1850    2.4615   -0.4918 C   0  0  0  0  0  0  0  0  0  0  0  0
   -2.1185   -0.2882   -0.0788 C   0  0  0  0  0  0  0  0  0  0  0  0
    2.6164    1.1496    0.3041 C   0  0  0  0  0  0  0  0  0  0  0  0
    2.4731   -1.5784   -0.4207 C   0  0  0  0  0  0  0  0  0  0  0  0
    3.7774    0.3791    0.1940 C   0  0  0  0  0  0  0  0  0  0  0  0
   -3.2174    0.3625   -0.6396 C   0  0  0  0  0  0  0  0  0  0  0  0
    3.7058   -0.9766   -0.1648 C   0  0  0  0  0  0  0  0  0  0  0  0
   -2.2999   -1.1737    0.9838 C   0  0  0  0  0  0  0  0  0  0  0  0
   -4.4977    0.1278   -0.1382 C   0  0  0  0  0  0  0  0  0  0  0  0
   -3.5801   -1.4085    1.4853 C   0  0  0  0  0  0  0  0  0  0  0  0
    5.0719    0.9841    0.4665 C   0  0  0  0  0  0  0  0  0  0  0  0
   -4.6790   -0.7578    0.9242 C   0  0  0  0  0  0  0  0  0  0  0  0
    5.2971    2.4687    0.2018 C   0  0  0  0  0  0  0  0  0  0  0  0
    3.6287   -3.6140   -0.8410 C   0  0  0  0  0  0  0  0  0  0  0  0
   -5.2920    1.6570   -1.7772 C   0  0  0  0  0  0  0  0  0  0  0  0
   -0.2579    1.1090    1.1984 H   0  0  0  0  0  0  0  0  0  0  0  0
   -0.8018    0.1956   -1.6953 H   0  0  0  0  0  0  0  0  0  0  0  0
    0.3572    2.5670   -1.4378 H   0  0  0  0  0  0  0  0  0  0  0  0
   -1.2463    2.6564   -0.6719 H   0  0  0  0  0  0  0  0  0  0  0  0
    2.6511    2.1886    0.6131 H   0  0  0  0  0  0  0  0  0  0  0  0
   -3.0164    1.0374   -1.4645 H   0  0  0  0  0  0  0  0  0  0  0  0
    4.6425   -1.5208   -0.2342 H   0  0  0  0  0  0  0  0  0  0  0  0
   -1.4580   -1.6833    1.4441 H   0  0  0  0  0  0  0  0  0  0  0  0
    0.1339    4.3137   -0.0072 H   0  0  0  0  0  0  0  0  0  0  0  0
   -3.7070   -2.0988    2.3149 H   0  0  0  0  0  0  0  0  0  0  0  0
    5.0396    3.0427    1.0951 H   0  0  0  0  0  0  0  0  0  0  0  0
    4.7027    2.8058   -0.6517 H   0  0  0  0  0  0  0  0  0  0  0  0
    6.3502    2.6311   -0.0467 H   0  0  0  0  0  0  0  0  0  0  0  0
    4.2800   -3.2158   -1.6263 H   0  0  0  0  0  0  0  0  0  0  0  0
    4.1306   -3.6580    0.1314 H   0  0  0  0  0  0  0  0  0  0  0  0
    3.3795   -4.6427   -1.1211 H   0  0  0  0  0  0  0  0  0  0  0  0
   -5.8564   -1.6344    2.1529 H   0  0  0  0  0  0  0  0  0  0  0  0
   -4.6651    2.4981   -1.4619 H   0  0  0  0  0  0  0  0  0  0  0  0
   -4.8764    1.1268   -2.6409 H   0  0  0  0  0  0  0  0  0  0  0  0
   -6.2512    2.0787   -2.0956 H   0  0  0  0  0  0  0  0  0  0  0  0
  1  8  1  0  0  0  0
  1 10  1  0  0  0  0
  2 11  1  0  0  0  0
  2 34  1  0  0  0  0
  3 14  1  0  0  0  0
  3 24  1  0  0  0  0
  4 19  1  0  0  0  0
  4 25  1  0  0  0  0
  5 22  1  0  0  0  0
  5 42  1  0  0  0  0
  6 21  2  0  0  0  0
  7  8  1  0  0  0  0
  7  9  1  0  0  0  0
  7 11  1  0  0  0  0
  7 26  1  0  0  0  0
  8 12  1  0  0  0  0
  8 27  1  0  0  0  0
  9 10  2  0  0  0  0
  9 13  1  0  0  0  0
 10 14  1  0  0  0  0
 11 28  1  0  0  0  0
 11 29  1  0  0  0  0
 12 16  2  0  0  0  0
 12 18  1  0  0  0  0
 13 15  2  0  0  0  0
 13 30  1  0  0  0  0
 14 17  2  0  0  0  0
 15 17  1  0  0  0  0
 15 21  1  0  0  0  0
 16 19  1  0  0  0  0
 16 31  1  0  0  0  0
 17 32  1  0  0  0  0
 18 20  2  0  0  0  0
 18 33  1  0  0  0  0
 19 22  2  0  0  0  0
 20 22  1  0  0  0  0
 20 35  1  0  0  0  0
 21 23  1  0  0  0  0
 23 36  1  0  0  0  0
 23 37  1  0  0  0  0
 23 38  1  0  0  0  0
 24 39  1  0  0  0  0
 24 40  1  0  0  0  0
 24 41  1  0  0  0  0
 25 43  1  0  0  0  0
 25 44  1  0  0  0  0
 25 45  1  0  0  0  0
M  END
> <PUBCHEM_COMPOUND_CID>
24787302

> <PUBCHEM_CONFORMER_RMSD>
0.8

> <PUBCHEM_CONFORMER_DIVERSEORDER>
2
15
6
14
13
16
7
8
1
9
10
3
12
5
4
11

> <PUBCHEM_MMFF94_PARTIAL_CHARGES>
32
1 -0.36
10 0.08
11 0.28
12 -0.14
13 -0.15
14 0.08
15 0.09
16 -0.15
17 -0.15
18 -0.15
19 0.08
2 -0.68
20 -0.15
21 0.42
22 0.08
23 0.06
24 0.28
25 0.28
3 -0.36
30 0.15
31 0.15
32 0.15
33 0.15
34 0.4
35 0.15
4 -0.36
42 0.45
5 -0.53
6 -0.57
7 0.14
8 0.42
9 -0.14

> <PUBCHEM_EFFECTIVE_ROTOR_COUNT>
5.6

> <PUBCHEM_PHARMACOPHORE_FEATURES>
10
1 1 acceptor
1 2 acceptor
1 2 donor
1 3 acceptor
1 4 acceptor
1 5 donor
1 6 acceptor
5 1 7 8 9 10 rings
6 12 16 18 19 20 22 rings
6 9 10 13 14 15 17 rings

> <PUBCHEM_HEAVY_ATOM_COUNT>
25

> <PUBCHEM_ATOM_DEF_STEREO_COUNT>
2

> <PUBCHEM_ATOM_UDEF_STEREO_COUNT>
0

> <PUBCHEM_BOND_DEF_STEREO_COUNT>
0

> <PUBCHEM_BOND_UDEF_STEREO_COUNT>
0

> <PUBCHEM_ISOTOPIC_ATOM_COUNT>
0

> <PUBCHEM_COMPONENT_COUNT>
1

> <PUBCHEM_CACTVS_TAUTO_COUNT>
6

> <PUBCHEM_CONFORMER_ID>
017A396600000002

> <PUBCHEM_MMFF94_ENERGY>
92.24

> <PUBCHEM_FEATURE_SELFOVERLAP>
50.852

> <PUBCHEM_SHAPE_FINGERPRINT>
10 15 18189329229673252160
10411042 1 17838055906286088894
10835480 77 18336540543307880525
10906281 52 18262534666205082376
11089746 13 16773792623645287944
12236239 1 16917072157198690831
12403259 415 18261681385347583855
12596602 18 17132121281136208059
12788726 201 18336537210234002120
13134695 92 18131346397893331801
13140716 1 17983578790686718536
13402501 40 18334293184236710425
13540713 4 18196368114156376668
13583140 156 18201434843967818583
13631057 29 17630033009015034143
140371 6 18335994115756166484
14386348 63 18334299764232278267
14790565 3 18051414264881143900
15081414 286 18412553101850154448
15375358 24 18335138695735688811
15927050 60 17403464460656892236
1601671 61 18341613762925202160
1813 80 17385733490621174973
18785283 64 18044946915573898733
19784866 170 18411139173294510602
20600515 1 17312828194698608791
20645477 70 18272084946578081239
21033648 29 18341880922960668529
21033650 10 16661499376261682349
21065201 7 17603872174309934827
21267235 1 18410578375657794360
21279426 13 18191300469269552613
21623969 137 18410579512880135706
221490 88 18196375823512169454
22182313 1 18337102359500290076
22224240 67 18201716318997114554
23557571 272 17821728291292501092
23558518 356 17980202985115833416
23559900 14 18042133072023669406
23569914 152 16906373642356039828
239999 70 18260552208423100322
34934 24 18411973672128311062
350125 39 18341897338815725052
4340502 62 17749105604212788682
465052 167 18113613487667059690
5104073 3 18267306438983724971
5283173 99 18042118774151393973
59755656 215 18410856526113683278
9709674 26 18266740186464326462

> <PUBCHEM_SHAPE_MULTIPOLES>
479.27
13.16
3.04
1.14
4.59
0.41
0.01
-1.47
1.52
-3.3
-0.61
1.35
0.17
2.79

> <PUBCHEM_SHAPE_SELFOVERLAP>
1040.615

> <PUBCHEM_SHAPE_VOLUME>
264.1

> <PUBCHEM_COORDINATE_TYPE>
2
5
10

$$$$
