23642717
  -OEChem-09192003433D

 35 36  0     0  0  0  0  0  0999 V2000
    2.7057   -1.3673   -0.2845 O   0  0  0  0  0  0  0  0  0  0  0  0
    3.7085    1.1550   -0.1592 O   0  0  0  0  0  0  0  0  0  0  0  0
    0.5998   -2.8905   -0.2756 O   0  0  0  0  0  0  0  0  0  0  0  0
   -2.0197   -3.2169   -0.1463 O   0  0  0  0  0  0  0  0  0  0  0  0
   -2.8236    1.5287    0.2398 C   0  0  0  0  0  0  0  0  0  0  0  0
   -1.9037    0.3461    0.1023 C   0  0  0  0  0  0  0  0  0  0  0  0
   -0.4377    0.5687    0.0348 C   0  0  0  0  0  0  0  0  0  0  0  0
    0.4483   -0.5146   -0.0942 C   0  0  0  0  0  0  0  0  0  0  0  0
    0.1213    1.8568    0.0962 C   0  0  0  0  0  0  0  0  0  0  0  0
   -2.4206   -0.8916    0.0430 C   0  0  0  0  0  0  0  0  0  0  0  0
    1.8349   -0.3243   -0.1592 C   0  0  0  0  0  0  0  0  0  0  0  0
   -3.1950    2.0653   -1.1368 C   0  0  0  0  0  0  0  0  0  0  0  0
   -4.0672    1.1508    1.0359 C   0  0  0  0  0  0  0  0  0  0  0  0
    1.5048    2.0516    0.0317 C   0  0  0  0  0  0  0  0  0  0  0  0
   -0.0848   -1.8857   -0.1636 C   0  0  0  0  0  0  0  0  0  0  0  0
    2.3602    0.9625   -0.0957 C   0  0  0  0  0  0  0  0  0  0  0  0
   -1.5674   -2.0838   -0.0913 C   0  0  0  0  0  0  0  0  0  0  0  0
    2.0462    3.4422    0.1013 C   0  0  0  0  0  0  0  0  0  0  0  0
    3.1899   -1.9530    0.9213 C   0  0  0  0  0  0  0  0  0  0  0  0
   -2.3584    2.3251    0.8287 H   0  0  0  0  0  0  0  0  0  0  0  0
   -0.5015    2.7420    0.1770 H   0  0  0  0  0  0  0  0  0  0  0  0
   -3.4823   -1.1040    0.0637 H   0  0  0  0  0  0  0  0  0  0  0  0
   -3.8573    2.9331   -1.0441 H   0  0  0  0  0  0  0  0  0  0  0  0
   -2.3107    2.3863   -1.6978 H   0  0  0  0  0  0  0  0  0  0  0  0
   -3.7183    1.3134   -1.7389 H   0  0  0  0  0  0  0  0  0  0  0  0
   -3.8209    0.6361    1.9718 H   0  0  0  0  0  0  0  0  0  0  0  0
   -4.6138    2.0611    1.3125 H   0  0  0  0  0  0  0  0  0  0  0  0
   -4.7757    0.5401    0.4655 H   0  0  0  0  0  0  0  0  0  0  0  0
    2.7012    3.5582    0.9713 H   0  0  0  0  0  0  0  0  0  0  0  0
    2.5986    3.6875   -0.8119 H   0  0  0  0  0  0  0  0  0  0  0  0
    1.2476    4.1856    0.2014 H   0  0  0  0  0  0  0  0  0  0  0  0
    3.9352    2.0958   -0.1022 H   0  0  0  0  0  0  0  0  0  0  0  0
    3.6608   -2.9082    0.6736 H   0  0  0  0  0  0  0  0  0  0  0  0
    2.3807   -2.1358    1.6359 H   0  0  0  0  0  0  0  0  0  0  0  0
    3.9423   -1.3015    1.3766 H   0  0  0  0  0  0  0  0  0  0  0  0
  1 11  1  0  0  0  0
  1 19  1  0  0  0  0
  2 16  1  0  0  0  0
  2 32  1  0  0  0  0
  3 15  2  0  0  0  0
  4 17  2  0  0  0  0
  5  6  1  0  0  0  0
  5 12  1  0  0  0  0
  5 13  1  0  0  0  0
  5 20  1  0  0  0  0
  6  7  1  0  0  0  0
  6 10  2  0  0  0  0
  7  8  2  0  0  0  0
  7  9  1  0  0  0  0
  8 11  1  0  0  0  0
  8 15  1  0  0  0  0
  9 14  2  0  0  0  0
  9 21  1  0  0  0  0
 10 17  1  0  0  0  0
 10 22  1  0  0  0  0
 11 16  2  0  0  0  0
 12 23  1  0  0  0  0
 12 24  1  0  0  0  0
 12 25  1  0  0  0  0
 13 26  1  0  0  0  0
 13 27  1  0  0  0  0
 13 28  1  0  0  0  0
 14 16  1  0  0  0  0
 14 18  1  0  0  0  0
 15 17  1  0  0  0  0
 18 29  1  0  0  0  0
 18 30  1  0  0  0  0
 18 31  1  0  0  0  0
 19 33  1  0  0  0  0
 19 34  1  0  0  0  0
 19 35  1  0  0  0  0
M  END
> <PUBCHEM_COMPOUND_CID>
23642717

> <PUBCHEM_CONFORMER_RMSD>
0.6

> <PUBCHEM_CONFORMER_DIVERSEORDER>
1
2

> <PUBCHEM_MMFF94_PARTIAL_CHARGES>
20
1 -0.36
10 -0.14
11 0.08
14 -0.14
15 0.48
16 0.08
17 0.56
18 0.14
19 0.28
2 -0.53
21 0.15
22 0.15
3 -0.57
32 0.45
4 -0.57
5 0.14
6 -0.17
7 0.03
8 0.09
9 -0.15

> <PUBCHEM_EFFECTIVE_ROTOR_COUNT>
2

> <PUBCHEM_PHARMACOPHORE_FEATURES>
7
1 1 acceptor
1 2 donor
1 3 acceptor
1 4 acceptor
3 5 12 13 hydrophobe
6 6 7 8 10 15 17 rings
6 7 8 9 11 14 16 rings

> <PUBCHEM_HEAVY_ATOM_COUNT>
19

> <PUBCHEM_ATOM_DEF_STEREO_COUNT>
0

> <PUBCHEM_ATOM_UDEF_STEREO_COUNT>
0

> <PUBCHEM_BOND_DEF_STEREO_COUNT>
0

> <PUBCHEM_BOND_UDEF_STEREO_COUNT>
0

> <PUBCHEM_ISOTOPIC_ATOM_COUNT>
0

> <PUBCHEM_COMPONENT_COUNT>
1

> <PUBCHEM_CACTVS_TAUTO_COUNT>
9

> <PUBCHEM_CONFORMER_ID>
0168C25D00000001

> <PUBCHEM_MMFF94_ENERGY>
64.9802

> <PUBCHEM_FEATURE_SELFOVERLAP>
35.563

> <PUBCHEM_SHAPE_FINGERPRINT>
10411042 1 17402618446435652343
10608611 8 18268147745836619276
10693767 8 17553746384129570695
10967382 1 18339364041674935732
1100329 8 18337952290351947202
12403259 226 18262514784948948021
12507560 14 18194677064608173314
12553582 1 18267021644377355286
12730499 353 18117552930519086925
13140716 1 18411417293516940450
13583140 156 17095795538831629585
14022347 108 18050023103229847738
14178342 30 18267287910848484544
14223421 5 18265331896457229419
14790565 3 18052277110825911436
15442244 35 18410853265600593538
16945 1 18410854356358555013
18186145 218 18342743974789292989
18219364 16 18264211314284681001
193761 8 18339360893353124982
19591789 44 18267313019063694679
20028762 73 18201997704033408359
20510252 161 17766283454461608977
20511035 2 18130775793980582758
20600515 1 18128818543277381960
20739085 24 17977411363684436080
20905425 154 18126008414678905494
21501502 16 18339359768156167423
21524375 3 18335143089914260203
22094290 62 18410855425773698193
2334 1 18339360867593825246
23366157 5 18113897225785716164
23402539 116 17982432820392498398
23419403 2 14939076851966913571
23463225 33 18336545997778728506
23558518 356 18047474705532243320
23559900 14 18272378538749004806
238 59 17829571065005580069
25 1 18337672988691861813
2748010 2 18411704296037192670
283562 15 17691405634446645401
335352 9 18267023847299705758
34934 24 18336822014284431704
350125 39 18266746959480182513
43471831 8 17904475556466367728
45790113 53 18335424517578194017
589210 1 18267019638221186247
5939293 188 18340770338632577928
74978 22 18411418418687406973
7832392 63 18412265051526050218
81228 2 17760084416720898305

> <PUBCHEM_SHAPE_MULTIPOLES>
367.53
5.68
3.79
0.79
1.23
0.5
0.03
-1.68
0.7
-0.77
-0.17
0.34
-0.11
-0.18

> <PUBCHEM_SHAPE_SELFOVERLAP>
793.523

> <PUBCHEM_SHAPE_VOLUME>
203.4

> <PUBCHEM_COORDINATE_TYPE>
2
5
10

$$$$
