5366008
  -OEChem-08272014273D

 83 83  0     1  0  0  0  0  0999 V2000
    4.6157    3.3735   -1.2623 O   0  0  0  0  0  0  0  0  0  0  0  0
    2.8311    2.0954   -0.1850 C   0  0  0  0  0  0  0  0  0  0  0  0
    3.4255    0.6774   -0.5164 C   0  0  1  0  0  0  0  0  0  0  0  0
    4.5990    0.2102    0.3959 C   0  0  1  0  0  0  0  0  0  0  0  0
    3.9861    3.1235   -0.0017 C   0  0  1  0  0  0  0  0  0  0  0  0
    5.6544    1.3121    0.5664 C   0  0  0  0  0  0  0  0  0  0  0  0
    5.0566    2.6522    0.9845 C   0  0  0  0  0  0  0  0  0  0  0  0
    2.3686   -0.4260   -0.6770 C   0  0  0  0  0  0  0  0  0  0  0  0
    1.9342    2.5635   -1.3619 C   0  0  0  0  0  0  0  0  0  0  0  0
    1.9350    2.1103    1.0715 C   0  0  0  0  0  0  0  0  0  0  0  0
    4.2062   -0.3819    1.7537 C   0  0  0  0  0  0  0  0  0  0  0  0
    2.9586   -1.6699   -1.3438 C   0  0  0  0  0  0  0  0  0  0  0  0
    1.9260   -2.7577   -1.5327 C   0  0  0  0  0  0  0  0  0  0  0  0
    1.2130   -2.7428   -2.8589 C   0  0  0  0  0  0  0  0  0  0  0  0
    1.6371   -3.7003   -0.6146 C   0  0  0  0  0  0  0  0  0  0  0  0
    0.6344   -4.8152   -0.7362 C   0  0  0  0  0  0  0  0  0  0  0  0
   -0.3872   -4.8335    0.4071 C   0  0  0  0  0  0  0  0  0  0  0  0
   -1.2984   -3.6356    0.3984 C   0  0  0  0  0  0  0  0  0  0  0  0
   -1.4933   -2.7551    1.3999 C   0  0  0  0  0  0  0  0  0  0  0  0
   -2.3686   -1.5254    1.2896 C   0  0  0  0  0  0  0  0  0  0  0  0
   -0.7574   -2.9161    2.7031 C   0  0  0  0  0  0  0  0  0  0  0  0
   -1.6545   -0.2085    1.6286 C   0  0  0  0  0  0  0  0  0  0  0  0
   -2.5659    0.9882    1.6062 C   0  0  0  0  0  0  0  0  0  0  0  0
   -2.7871    1.8383    0.5839 C   0  0  0  0  0  0  0  0  0  0  0  0
   -3.6951    3.0400    0.7779 C   0  0  0  0  0  0  0  0  0  0  0  0
   -4.9370    3.0657   -0.1252 C   0  0  0  0  0  0  0  0  0  0  0  0
   -2.1336    1.7323   -0.7659 C   0  0  0  0  0  0  0  0  0  0  0  0
   -5.8210    1.8636    0.0598 C   0  0  0  0  0  0  0  0  0  0  0  0
   -6.1942    0.9539   -0.8604 C   0  0  0  0  0  0  0  0  0  0  0  0
   -5.7796    0.9490   -2.3039 C   0  0  0  0  0  0  0  0  0  0  0  0
   -7.1087   -0.1810   -0.4807 C   0  0  0  0  0  0  0  0  0  0  0  0
    3.8852    0.7940   -1.5112 H   0  0  0  0  0  0  0  0  0  0  0  0
    5.1266   -0.5960   -0.1306 H   0  0  0  0  0  0  0  0  0  0  0  0
    3.5779    4.0825    0.3406 H   0  0  0  0  0  0  0  0  0  0  0  0
    6.1875    1.4402   -0.3847 H   0  0  0  0  0  0  0  0  0  0  0  0
    6.4131    1.0067    1.2971 H   0  0  0  0  0  0  0  0  0  0  0  0
    5.8681    3.3893    1.0230 H   0  0  0  0  0  0  0  0  0  0  0  0
    4.6461    2.5835    1.9971 H   0  0  0  0  0  0  0  0  0  0  0  0
    1.5487   -0.0728   -1.3116 H   0  0  0  0  0  0  0  0  0  0  0  0
    1.9105   -0.6847    0.2838 H   0  0  0  0  0  0  0  0  0  0  0  0
    1.6610    3.6193   -1.2471 H   0  0  0  0  0  0  0  0  0  0  0  0
    2.4407    2.4571   -2.3274 H   0  0  0  0  0  0  0  0  0  0  0  0
    0.9977    2.0000   -1.4146 H   0  0  0  0  0  0  0  0  0  0  0  0
    1.4712    3.0959    1.2015 H   0  0  0  0  0  0  0  0  0  0  0  0
    1.1202    1.3850    0.9963 H   0  0  0  0  0  0  0  0  0  0  0  0
    2.4821    1.9058    1.9911 H   0  0  0  0  0  0  0  0  0  0  0  0
    5.0990   -0.7572    2.2682 H   0  0  0  0  0  0  0  0  0  0  0  0
    3.5298   -1.2346    1.6522 H   0  0  0  0  0  0  0  0  0  0  0  0
    3.7449    0.3461    2.4202 H   0  0  0  0  0  0  0  0  0  0  0  0
    3.4248   -1.4143   -2.3028 H   0  0  0  0  0  0  0  0  0  0  0  0
    3.7601   -2.0920   -0.7276 H   0  0  0  0  0  0  0  0  0  0  0  0
    5.2987    4.0509   -1.1202 H   0  0  0  0  0  0  0  0  0  0  0  0
    1.8287   -2.2641   -3.6285 H   0  0  0  0  0  0  0  0  0  0  0  0
    0.9980   -3.7445   -3.2405 H   0  0  0  0  0  0  0  0  0  0  0  0
    0.2796   -2.1762   -2.7801 H   0  0  0  0  0  0  0  0  0  0  0  0
    2.1896   -3.6765    0.3238 H   0  0  0  0  0  0  0  0  0  0  0  0
    1.1877   -5.7626   -0.7200 H   0  0  0  0  0  0  0  0  0  0  0  0
    0.0919   -4.7960   -1.6856 H   0  0  0  0  0  0  0  0  0  0  0  0
   -1.0138   -5.7274    0.2964 H   0  0  0  0  0  0  0  0  0  0  0  0
    0.1517   -4.9563    1.3502 H   0  0  0  0  0  0  0  0  0  0  0  0
   -1.8412   -3.4755   -0.5320 H   0  0  0  0  0  0  0  0  0  0  0  0
   -3.2246   -1.6578    1.9646 H   0  0  0  0  0  0  0  0  0  0  0  0
   -2.7883   -1.4535    0.2776 H   0  0  0  0  0  0  0  0  0  0  0  0
   -0.5984   -3.9604    2.9835 H   0  0  0  0  0  0  0  0  0  0  0  0
   -1.3420   -2.4868    3.5251 H   0  0  0  0  0  0  0  0  0  0  0  0
    0.2082   -2.4019    2.6661 H   0  0  0  0  0  0  0  0  0  0  0  0
   -1.2171   -0.2556    2.6335 H   0  0  0  0  0  0  0  0  0  0  0  0
   -0.8040   -0.0695    0.9531 H   0  0  0  0  0  0  0  0  0  0  0  0
   -3.0920    1.1632    2.5437 H   0  0  0  0  0  0  0  0  0  0  0  0
   -3.1089    3.9500    0.5951 H   0  0  0  0  0  0  0  0  0  0  0  0
   -4.0226    3.1075    1.8242 H   0  0  0  0  0  0  0  0  0  0  0  0
   -5.5269    3.9561    0.1268 H   0  0  0  0  0  0  0  0  0  0  0  0
   -4.6289    3.2028   -1.1647 H   0  0  0  0  0  0  0  0  0  0  0  0
   -1.4442    0.8888   -0.8489 H   0  0  0  0  0  0  0  0  0  0  0  0
   -1.5637    2.6425   -0.9798 H   0  0  0  0  0  0  0  0  0  0  0  0
   -2.8838    1.6036   -1.5505 H   0  0  0  0  0  0  0  0  0  0  0  0
   -6.2050    1.7487    1.0731 H   0  0  0  0  0  0  0  0  0  0  0  0
   -5.1653    1.8040   -2.5904 H   0  0  0  0  0  0  0  0  0  0  0  0
   -6.6650    0.9605   -2.9486 H   0  0  0  0  0  0  0  0  0  0  0  0
   -5.2057    0.0429   -2.5254 H   0  0  0  0  0  0  0  0  0  0  0  0
   -7.3919   -0.1538    0.5768 H   0  0  0  0  0  0  0  0  0  0  0  0
   -6.6170   -1.1416   -0.6671 H   0  0  0  0  0  0  0  0  0  0  0  0
   -8.0296   -0.1406   -1.0718 H   0  0  0  0  0  0  0  0  0  0  0  0
  1  5  1  0  0  0  0
  1 52  1  0  0  0  0
  2  3  1  0  0  0  0
  2  5  1  0  0  0  0
  2  9  1  0  0  0  0
  2 10  1  0  0  0  0
  3  4  1  0  0  0  0
  3  8  1  0  0  0  0
  3 32  1  0  0  0  0
  4  6  1  0  0  0  0
  4 11  1  0  0  0  0
  4 33  1  0  0  0  0
  5  7  1  0  0  0  0
  5 34  1  0  0  0  0
  6  7  1  0  0  0  0
  6 35  1  0  0  0  0
  6 36  1  0  0  0  0
  7 37  1  0  0  0  0
  7 38  1  0  0  0  0
  8 12  1  0  0  0  0
  8 39  1  0  0  0  0
  8 40  1  0  0  0  0
  9 41  1  0  0  0  0
  9 42  1  0  0  0  0
  9 43  1  0  0  0  0
 10 44  1  0  0  0  0
 10 45  1  0  0  0  0
 10 46  1  0  0  0  0
 11 47  1  0  0  0  0
 11 48  1  0  0  0  0
 11 49  1  0  0  0  0
 12 13  1  0  0  0  0
 12 50  1  0  0  0  0
 12 51  1  0  0  0  0
 13 14  1  0  0  0  0
 13 15  2  0  0  0  0
 14 53  1  0  0  0  0
 14 54  1  0  0  0  0
 14 55  1  0  0  0  0
 15 16  1  0  0  0  0
 15 56  1  0  0  0  0
 16 17  1  0  0  0  0
 16 57  1  0  0  0  0
 16 58  1  0  0  0  0
 17 18  1  0  0  0  0
 17 59  1  0  0  0  0
 17 60  1  0  0  0  0
 18 19  2  0  0  0  0
 18 61  1  0  0  0  0
 19 20  1  0  0  0  0
 19 21  1  0  0  0  0
 20 22  1  0  0  0  0
 20 62  1  0  0  0  0
 20 63  1  0  0  0  0
 21 64  1  0  0  0  0
 21 65  1  0  0  0  0
 21 66  1  0  0  0  0
 22 23  1  0  0  0  0
 22 67  1  0  0  0  0
 22 68  1  0  0  0  0
 23 24  2  0  0  0  0
 23 69  1  0  0  0  0
 24 25  1  0  0  0  0
 24 27  1  0  0  0  0
 25 26  1  0  0  0  0
 25 70  1  0  0  0  0
 25 71  1  0  0  0  0
 26 28  1  0  0  0  0
 26 72  1  0  0  0  0
 26 73  1  0  0  0  0
 27 74  1  0  0  0  0
 27 75  1  0  0  0  0
 27 76  1  0  0  0  0
 28 29  2  0  0  0  0
 28 77  1  0  0  0  0
 29 30  1  0  0  0  0
 29 31  1  0  0  0  0
 30 78  1  0  0  0  0
 30 79  1  0  0  0  0
 30 80  1  0  0  0  0
 31 81  1  0  0  0  0
 31 82  1  0  0  0  0
 31 83  1  0  0  0  0
M  END
> <PUBCHEM_COMPOUND_CID>
5366008

> <PUBCHEM_CONFORMER_RMSD>
2

> <PUBCHEM_CONFORMER_DIVERSEORDER>
2
83
66
74
30
13
37
22
76
20
10
27
53
18
44
14
54
39
78
84
80
57
52
4
69
40
73
1
16
19
17
24
70
43
60
12
7
56
63
9
59
58
31
33
34
77
32
71
41
38
25
15
51
79
61
45
23
64
46
36
6
85
62
50
35
75
49
5
72
81
47
67
42
8
65
29
55
21
48
26
68
11
82
28
3

> <PUBCHEM_MMFF94_PARTIAL_CHARGES>
27
1 -0.68
12 0.14
13 -0.28
14 0.14
15 -0.29
16 0.14
17 0.14
18 -0.29
19 -0.28
20 0.14
21 0.14
22 0.14
23 -0.29
24 -0.28
25 0.14
26 0.14
27 0.14
28 -0.29
29 -0.28
30 0.14
31 0.14
5 0.28
52 0.4
56 0.15
61 0.15
69 0.15
77 0.15

> <PUBCHEM_EFFECTIVE_ROTOR_COUNT>
13.2

> <PUBCHEM_PHARMACOPHORE_FEATURES>
11
1 1 acceptor
1 1 donor
1 14 hydrophobe
1 21 hydrophobe
1 27 hydrophobe
3 2 9 10 hydrophobe
3 29 30 31 hydrophobe
4 15 16 17 18 hydrophobe
4 19 20 22 23 hydrophobe
4 24 25 26 28 hydrophobe
6 2 3 4 5 6 7 rings

> <PUBCHEM_HEAVY_ATOM_COUNT>
31

> <PUBCHEM_ATOM_DEF_STEREO_COUNT>
0

> <PUBCHEM_ATOM_UDEF_STEREO_COUNT>
3

> <PUBCHEM_BOND_DEF_STEREO_COUNT>
3

> <PUBCHEM_BOND_UDEF_STEREO_COUNT>
0

> <PUBCHEM_ISOTOPIC_ATOM_COUNT>
0

> <PUBCHEM_COMPONENT_COUNT>
1

> <PUBCHEM_CACTVS_TAUTO_COUNT>
1

> <PUBCHEM_CONFORMER_ID>
0051E0F800000002

> <PUBCHEM_MMFF94_ENERGY>
57.0392

> <PUBCHEM_FEATURE_SELFOVERLAP>
55.852

> <PUBCHEM_SHAPE_FINGERPRINT>
11374522 58 9799684901520266425
114674 6 18121227471917609548
1361 2 18411981343288041917
13692114 37 18269259317700563321
13773456 30 18411419522631340536
15274700 34 17825122643218719307
16993438 75 18122904493179503442
21792964 463 17245273263879679660
21792965 158 15838425003799832914
354706 35 18410860992073166469
4366758 6 18340470227803365288
4371632 12 18339371764553655291
5085150 59 18340193172258247346
6036956 94 17613442559472396701
6669772 16 18411700976697626175
9555976 147 13262974945182377093

> <PUBCHEM_SHAPE_MULTIPOLES>
632.1
13.75
6.6
2.14
15.07
6.73
-0.2
-14.68
-2.51
-2.56
-0.42
0.28
1.36
1.56

> <PUBCHEM_SHAPE_SELFOVERLAP>
1227.431

> <PUBCHEM_SHAPE_VOLUME>
382.6

> <PUBCHEM_COORDINATE_TYPE>
2
5
10

$$$$
