577397
  -OEChem-08272013393D

 39 40  0     1  0  0  0  0  0999 V2000
   -2.3893    0.7162    0.0291 C   0  0  0  0  0  0  0  0  0  0  0  0
   -0.9176    0.5338   -0.4387 C   0  0  2  0  0  0  0  0  0  0  0  0
   -0.9151   -0.7751    0.4263 C   0  0  1  0  0  0  0  0  0  0  0  0
   -2.4516   -0.8144    0.1726 C   0  0  0  0  0  0  0  0  0  0  0  0
   -0.0100    1.7005   -0.0516 C   0  0  0  0  0  0  0  0  0  0  0  0
   -3.3031    1.2636   -1.0471 C   0  0  0  0  0  0  0  0  0  0  0  0
   -2.6193    1.4562    1.3347 C   0  0  0  0  0  0  0  0  0  0  0  0
   -0.1385   -1.9540   -0.0635 C   0  0  0  0  0  0  0  0  0  0  0  0
    1.3577    1.6297   -0.7434 C   0  0  0  0  0  0  0  0  0  0  0  0
    1.0818   -1.7662   -0.9270 C   0  0  0  0  0  0  0  0  0  0  0  0
    2.3701   -1.4745   -0.1481 C   0  0  0  0  0  0  0  0  0  0  0  0
    2.4929    1.0912    0.0991 C   0  0  0  0  0  0  0  0  0  0  0  0
    2.3736   -0.2529    0.7791 C   0  0  0  0  0  0  0  0  0  0  0  0
   -0.5407   -3.1780    0.3165 C   0  0  0  0  0  0  0  0  0  0  0  0
    3.6090    1.8242    0.2621 C   0  0  0  0  0  0  0  0  0  0  0  0
   -0.8724    0.3443   -1.5222 H   0  0  0  0  0  0  0  0  0  0  0  0
   -0.6828   -0.5943    1.4852 H   0  0  0  0  0  0  0  0  0  0  0  0
   -2.7502   -1.3457   -0.7408 H   0  0  0  0  0  0  0  0  0  0  0  0
   -3.0556   -1.1964    1.0019 H   0  0  0  0  0  0  0  0  0  0  0  0
    0.1040    1.7875    1.0349 H   0  0  0  0  0  0  0  0  0  0  0  0
   -0.4907    2.6279   -0.3903 H   0  0  0  0  0  0  0  0  0  0  0  0
   -3.0960    2.3220   -1.2403 H   0  0  0  0  0  0  0  0  0  0  0  0
   -3.1838    0.7295   -1.9966 H   0  0  0  0  0  0  0  0  0  0  0  0
   -4.3558    1.1756   -0.7558 H   0  0  0  0  0  0  0  0  0  0  0  0
   -3.6562    1.3377    1.6704 H   0  0  0  0  0  0  0  0  0  0  0  0
   -1.9807    1.0989    2.1489 H   0  0  0  0  0  0  0  0  0  0  0  0
   -2.4365    2.5306    1.2221 H   0  0  0  0  0  0  0  0  0  0  0  0
    1.6086    2.6580   -1.0406 H   0  0  0  0  0  0  0  0  0  0  0  0
    1.3047    1.0770   -1.6861 H   0  0  0  0  0  0  0  0  0  0  0  0
    1.2540   -2.6870   -1.5024 H   0  0  0  0  0  0  0  0  0  0  0  0
    0.9048   -1.0105   -1.6937 H   0  0  0  0  0  0  0  0  0  0  0  0
    3.1979   -1.3884   -0.8639 H   0  0  0  0  0  0  0  0  0  0  0  0
    2.5971   -2.3566    0.4664 H   0  0  0  0  0  0  0  0  0  0  0  0
    3.2340   -0.3819    1.4517 H   0  0  0  0  0  0  0  0  0  0  0  0
    1.5137   -0.2549    1.4525 H   0  0  0  0  0  0  0  0  0  0  0  0
   -1.4050   -3.3249    0.9557 H   0  0  0  0  0  0  0  0  0  0  0  0
   -0.0044   -4.0676    0.0022 H   0  0  0  0  0  0  0  0  0  0  0  0
    3.7247    2.7964   -0.2056 H   0  0  0  0  0  0  0  0  0  0  0  0
    4.4387    1.4703    0.8653 H   0  0  0  0  0  0  0  0  0  0  0  0
  1  2  1  0  0  0  0
  1  4  1  0  0  0  0
  1  6  1  0  0  0  0
  1  7  1  0  0  0  0
  2  3  1  0  0  0  0
  2  5  1  0  0  0  0
  2 16  1  0  0  0  0
  3  4  1  0  0  0  0
  3  8  1  0  0  0  0
  3 17  1  0  0  0  0
  4 18  1  0  0  0  0
  4 19  1  0  0  0  0
  5  9  1  0  0  0  0
  5 20  1  0  0  0  0
  5 21  1  0  0  0  0
  6 22  1  0  0  0  0
  6 23  1  0  0  0  0
  6 24  1  0  0  0  0
  7 25  1  0  0  0  0
  7 26  1  0  0  0  0
  7 27  1  0  0  0  0
  8 10  1  0  0  0  0
  8 14  2  0  0  0  0
  9 12  1  0  0  0  0
  9 28  1  0  0  0  0
  9 29  1  0  0  0  0
 10 11  1  0  0  0  0
 10 30  1  0  0  0  0
 10 31  1  0  0  0  0
 11 13  1  0  0  0  0
 11 32  1  0  0  0  0
 11 33  1  0  0  0  0
 12 13  1  0  0  0  0
 12 15  2  0  0  0  0
 13 34  1  0  0  0  0
 13 35  1  0  0  0  0
 14 36  1  0  0  0  0
 14 37  1  0  0  0  0
 15 38  1  0  0  0  0
 15 39  1  0  0  0  0
M  END
> <PUBCHEM_COMPOUND_CID>
577397

> <PUBCHEM_CONFORMER_RMSD>
0.6

> <PUBCHEM_CONFORMER_DIVERSEORDER>
1
28
22
8
15
29
20
30
23
11
26
19
27
25
7
6
32
24
18
10
3
16
14
12
31
34
4
5
21
2
9
13
17
33

> <PUBCHEM_MMFF94_PARTIAL_CHARGES>
12
10 0.14
12 -0.28
13 0.14
14 -0.3
15 -0.3
3 0.12
36 0.15
37 0.15
38 0.15
39 0.15
8 -0.25
9 0.14

> <PUBCHEM_EFFECTIVE_ROTOR_COUNT>
1.4

> <PUBCHEM_PHARMACOPHORE_FEATURES>
2
3 1 6 7 hydrophobe
4 1 2 3 4 rings

> <PUBCHEM_HEAVY_ATOM_COUNT>
15

> <PUBCHEM_ATOM_DEF_STEREO_COUNT>
0

> <PUBCHEM_ATOM_UDEF_STEREO_COUNT>
2

> <PUBCHEM_BOND_DEF_STEREO_COUNT>
0

> <PUBCHEM_BOND_UDEF_STEREO_COUNT>
0

> <PUBCHEM_ISOTOPIC_ATOM_COUNT>
0

> <PUBCHEM_COMPONENT_COUNT>
1

> <PUBCHEM_CACTVS_TAUTO_COUNT>
1

> <PUBCHEM_CONFORMER_ID>
0008CF7500000001

> <PUBCHEM_MMFF94_ENERGY>
36.8931

> <PUBCHEM_FEATURE_SELFOVERLAP>
10.148

> <PUBCHEM_SHAPE_FINGERPRINT>
10967382 1 18410292510180015260
12382932 28 18408882970928727384
12524768 44 18192716652650734727
13140716 1 18337961086307507659
13380535 76 18412258475889032526
13618510 140 18412262839433542764
13897977 150 18410291367855962053
14250199 8 18128254489169108463
14251717 144 18339912711141679493
14817 1 14758933111595663510
15309172 13 18408608058403497665
15490181 8 18340779224808974807
15775835 57 18335420205225164136
15852999 172 18339624720367271228
15881359 60 17975374050368405740
16945 1 18122346770306763291
18186145 218 18341619165730102125
18219364 16 18262808341510224889
20510252 161 18199473340561010601
20511035 2 18342174514066299702
20645476 183 17896050973714756142
20671657 1 18412548674229411254
20871998 184 17981613980566633422
21041028 32 16536250485116792995
21061003 4 17976551506846469399
21501502 16 18412261761439033938
21524375 3 18342729728514556386
21947302 44 18342739585406491542
2334 1 18410015459098883719
23419403 2 15798158370749872119
2748010 2 18336558152446602887
2897 32 17398673892245437020
3286 77 17345166953528009978
42630746 31 18339638941779565309
474 4 18340768118287609889
7364860 26 18200317589360468998
7832392 63 17479458937149129129
81228 2 17976831104954334747

> <PUBCHEM_SHAPE_MULTIPOLES>
308.69
4.95
2.96
0.98
0.59
1.8
-0.04
-2.9
-0.28
0.45
-0.01
-0.35
-0.2
0.19

> <PUBCHEM_SHAPE_SELFOVERLAP>
624.284

> <PUBCHEM_SHAPE_VOLUME>
182

> <PUBCHEM_COORDINATE_TYPE>
2
5
10

$$$$
