21603525
  -OEChem-08272014213D

 79 83  0     1  0  0  0  0  0999 V2000
   -6.8087    0.7205    0.6705 O   0  0  0  0  0  0  0  0  0  0  0  0
   -0.5105   -0.6712    0.0816 C   0  0  1  0  0  0  0  0  0  0  0  0
    0.9328   -0.4324   -0.6622 C   0  0  1  0  0  0  0  0  0  0  0  0
   -1.3643    0.6543   -0.0341 C   0  0  1  0  0  0  0  0  0  0  0  0
    1.6397    0.8174    0.0025 C   0  0  1  0  0  0  0  0  0  0  0  0
   -2.9010    0.5785    0.3735 C   0  0  2  0  0  0  0  0  0  0  0  0
   -3.5548   -0.6674   -0.3238 C   0  0  1  0  0  0  0  0  0  0  0  0
    3.1294    1.0798   -0.4067 C   0  0  2  0  0  0  0  0  0  0  0  0
   -1.3118   -1.8294   -0.5786 C   0  0  0  0  0  0  0  0  0  0  0  0
   -0.6129    1.8606    0.5714 C   0  0  0  0  0  0  0  0  0  0  0  0
    0.7618    2.0766   -0.0642 C   0  0  0  0  0  0  0  0  0  0  0  0
    1.8872   -1.6624   -0.5042 C   0  0  0  0  0  0  0  0  0  0  0  0
   -2.7537   -1.9592   -0.0814 C   0  0  0  0  0  0  0  0  0  0  0  0
   -3.6117    1.8688   -0.1735 C   0  0  0  0  0  0  0  0  0  0  0  0
   -5.0961   -0.8357   -0.0672 C   0  0  0  0  0  0  0  0  0  0  0  0
   -0.2833   -1.0807    1.5677 C   0  0  0  0  0  0  0  0  0  0  0  0
    3.9149   -0.2176   -0.4104 C   0  0  0  0  0  0  0  0  0  0  0  0
    0.7259   -0.2265   -2.1923 C   0  0  0  0  0  0  0  0  0  0  0  0
    3.3107   -1.4332   -1.0341 C   0  0  0  0  0  0  0  0  0  0  0  0
    3.8746    1.8570    0.7186 C   0  0  0  0  0  0  0  0  0  0  0  0
   -3.1142    0.5811    1.9055 C   0  0  0  0  0  0  0  0  0  0  0  0
    3.3360    1.8573   -1.7214 C   0  0  0  0  0  0  0  0  0  0  0  0
   -5.0589    1.6918   -0.6224 C   0  0  0  0  0  0  0  0  0  0  0  0
    5.0968   -0.0975    0.2173 C   0  0  0  0  0  0  0  0  0  0  0  0
    5.2915    1.2865    0.7563 C   0  0  0  0  0  0  0  0  0  0  0  0
   -5.7428    0.5469    0.0790 C   0  0  0  0  0  0  0  0  0  0  0  0
   -5.7579   -1.4998   -1.2943 C   0  0  0  0  0  0  0  0  0  0  0  0
   -5.4465   -1.6917    1.1647 C   0  0  0  0  0  0  0  0  0  0  0  0
    6.1655   -1.1143    0.4152 C   0  0  0  0  0  0  0  0  0  0  0  0
    7.4653   -0.6680   -0.2554 C   0  0  0  0  0  0  0  0  0  0  0  0
    6.3969   -1.3901    1.9023 C   0  0  0  0  0  0  0  0  0  0  0  0
   -1.4155    0.8619   -1.1108 H   0  0  0  0  0  0  0  0  0  0  0  0
    1.7052    0.5667    1.0687 H   0  0  0  0  0  0  0  0  0  0  0  0
   -3.4522   -0.4681   -1.4034 H   0  0  0  0  0  0  0  0  0  0  0  0
   -0.7985   -2.7851   -0.4198 H   0  0  0  0  0  0  0  0  0  0  0  0
   -1.3772   -1.6914   -1.6610 H   0  0  0  0  0  0  0  0  0  0  0  0
   -0.4833    1.7380    1.6514 H   0  0  0  0  0  0  0  0  0  0  0  0
   -1.1893    2.7820    0.4361 H   0  0  0  0  0  0  0  0  0  0  0  0
    0.6276    2.4034   -1.1010 H   0  0  0  0  0  0  0  0  0  0  0  0
    1.2543    2.9048    0.4592 H   0  0  0  0  0  0  0  0  0  0  0  0
    1.4625   -2.5379   -1.0095 H   0  0  0  0  0  0  0  0  0  0  0  0
    1.9922   -1.9315    0.5515 H   0  0  0  0  0  0  0  0  0  0  0  0
   -3.2180   -2.7886   -0.6282 H   0  0  0  0  0  0  0  0  0  0  0  0
   -2.7690   -2.2475    0.9732 H   0  0  0  0  0  0  0  0  0  0  0  0
   -3.0667    2.2760   -1.0351 H   0  0  0  0  0  0  0  0  0  0  0  0
   -3.5727    2.6616    0.5859 H   0  0  0  0  0  0  0  0  0  0  0  0
    0.2351   -0.3221    2.1561 H   0  0  0  0  0  0  0  0  0  0  0  0
   -1.2083   -1.2921    2.0974 H   0  0  0  0  0  0  0  0  0  0  0  0
    0.2862   -2.0110    1.6478 H   0  0  0  0  0  0  0  0  0  0  0  0
    0.1266    0.6522   -2.4365 H   0  0  0  0  0  0  0  0  0  0  0  0
    1.6624   -0.1176   -2.7344 H   0  0  0  0  0  0  0  0  0  0  0  0
    0.2539   -1.0949   -2.6595 H   0  0  0  0  0  0  0  0  0  0  0  0
    3.3136   -1.3282   -2.1235 H   0  0  0  0  0  0  0  0  0  0  0  0
    3.8985   -2.3311   -0.8190 H   0  0  0  0  0  0  0  0  0  0  0  0
    3.4067    1.6925    1.6986 H   0  0  0  0  0  0  0  0  0  0  0  0
    3.8831    2.9410    0.5566 H   0  0  0  0  0  0  0  0  0  0  0  0
   -2.9420   -0.3912    2.3644 H   0  0  0  0  0  0  0  0  0  0  0  0
   -2.4727    1.3084    2.4100 H   0  0  0  0  0  0  0  0  0  0  0  0
   -4.1387    0.8634    2.1713 H   0  0  0  0  0  0  0  0  0  0  0  0
    2.8284    2.8271   -1.6977 H   0  0  0  0  0  0  0  0  0  0  0  0
    4.3990    2.0675   -1.8953 H   0  0  0  0  0  0  0  0  0  0  0  0
    2.9935    1.3212   -2.6047 H   0  0  0  0  0  0  0  0  0  0  0  0
   -5.1044    1.4966   -1.7000 H   0  0  0  0  0  0  0  0  0  0  0  0
   -5.6205    2.6156   -0.4448 H   0  0  0  0  0  0  0  0  0  0  0  0
    5.6737    1.3091    1.7800 H   0  0  0  0  0  0  0  0  0  0  0  0
    5.9671    1.8614    0.1142 H   0  0  0  0  0  0  0  0  0  0  0  0
   -5.3787   -2.5136   -1.4582 H   0  0  0  0  0  0  0  0  0  0  0  0
   -6.8453   -1.5677   -1.1689 H   0  0  0  0  0  0  0  0  0  0  0  0
   -5.5808   -0.9221   -2.2087 H   0  0  0  0  0  0  0  0  0  0  0  0
   -5.0721   -2.7161    1.0696 H   0  0  0  0  0  0  0  0  0  0  0  0
   -5.0532   -1.2702    2.0921 H   0  0  0  0  0  0  0  0  0  0  0  0
   -6.5330   -1.7680    1.2963 H   0  0  0  0  0  0  0  0  0  0  0  0
    5.8746   -2.0628   -0.0487 H   0  0  0  0  0  0  0  0  0  0  0  0
    7.8821    0.2314    0.2112 H   0  0  0  0  0  0  0  0  0  0  0  0
    7.3083   -0.4572   -1.3192 H   0  0  0  0  0  0  0  0  0  0  0  0
    8.2227   -1.4564   -0.1824 H   0  0  0  0  0  0  0  0  0  0  0  0
    6.8332   -0.5311    2.4228 H   0  0  0  0  0  0  0  0  0  0  0  0
    7.0895   -2.2301    2.0279 H   0  0  0  0  0  0  0  0  0  0  0  0
    5.4607   -1.6560    2.4055 H   0  0  0  0  0  0  0  0  0  0  0  0
  1 26  2  0  0  0  0
  2  3  1  0  0  0  0
  2  4  1  0  0  0  0
  2  9  1  0  0  0  0
  2 16  1  0  0  0  0
  3  5  1  0  0  0  0
  3 12  1  0  0  0  0
  3 18  1  0  0  0  0
  4  6  1  0  0  0  0
  4 10  1  0  0  0  0
  4 32  1  0  0  0  0
  5  8  1  0  0  0  0
  5 11  1  0  0  0  0
  5 33  1  0  0  0  0
  6  7  1  0  0  0  0
  6 14  1  0  0  0  0
  6 21  1  0  0  0  0
  7 13  1  0  0  0  0
  7 15  1  0  0  0  0
  7 34  1  0  0  0  0
  8 17  1  0  0  0  0
  8 20  1  0  0  0  0
  8 22  1  0  0  0  0
  9 13  1  0  0  0  0
  9 35  1  0  0  0  0
  9 36  1  0  0  0  0
 10 11  1  0  0  0  0
 10 37  1  0  0  0  0
 10 38  1  0  0  0  0
 11 39  1  0  0  0  0
 11 40  1  0  0  0  0
 12 19  1  0  0  0  0
 12 41  1  0  0  0  0
 12 42  1  0  0  0  0
 13 43  1  0  0  0  0
 13 44  1  0  0  0  0
 14 23  1  0  0  0  0
 14 45  1  0  0  0  0
 14 46  1  0  0  0  0
 15 26  1  0  0  0  0
 15 27  1  0  0  0  0
 15 28  1  0  0  0  0
 16 47  1  0  0  0  0
 16 48  1  0  0  0  0
 16 49  1  0  0  0  0
 17 19  1  0  0  0  0
 17 24  2  0  0  0  0
 18 50  1  0  0  0  0
 18 51  1  0  0  0  0
 18 52  1  0  0  0  0
 19 53  1  0  0  0  0
 19 54  1  0  0  0  0
 20 25  1  0  0  0  0
 20 55  1  0  0  0  0
 20 56  1  0  0  0  0
 21 57  1  0  0  0  0
 21 58  1  0  0  0  0
 21 59  1  0  0  0  0
 22 60  1  0  0  0  0
 22 61  1  0  0  0  0
 22 62  1  0  0  0  0
 23 26  1  0  0  0  0
 23 63  1  0  0  0  0
 23 64  1  0  0  0  0
 24 25  1  0  0  0  0
 24 29  1  0  0  0  0
 25 65  1  0  0  0  0
 25 66  1  0  0  0  0
 27 67  1  0  0  0  0
 27 68  1  0  0  0  0
 27 69  1  0  0  0  0
 28 70  1  0  0  0  0
 28 71  1  0  0  0  0
 28 72  1  0  0  0  0
 29 30  1  0  0  0  0
 29 31  1  0  0  0  0
 29 73  1  0  0  0  0
 30 74  1  0  0  0  0
 30 75  1  0  0  0  0
 30 76  1  0  0  0  0
 31 77  1  0  0  0  0
 31 78  1  0  0  0  0
 31 79  1  0  0  0  0
M  END
> <PUBCHEM_COMPOUND_CID>
21603525

> <PUBCHEM_CONFORMER_RMSD>
0.8

> <PUBCHEM_CONFORMER_DIVERSEORDER>
1
2

> <PUBCHEM_MMFF94_PARTIAL_CHARGES>
10
1 -0.57
15 0.06
17 -0.28
19 0.14
23 0.06
24 -0.28
25 0.14
26 0.45
29 0.14
8 0.14

> <PUBCHEM_EFFECTIVE_ROTOR_COUNT>
3.2

> <PUBCHEM_PHARMACOPHORE_FEATURES>
8
1 1 acceptor
3 15 27 28 hydrophobe
3 29 30 31 hydrophobe
5 8 17 20 24 25 rings
6 2 3 4 5 10 11 rings
6 2 4 6 7 9 13 rings
6 3 5 8 12 17 19 rings
6 6 7 14 15 23 26 rings

> <PUBCHEM_HEAVY_ATOM_COUNT>
31

> <PUBCHEM_ATOM_DEF_STEREO_COUNT>
7

> <PUBCHEM_ATOM_UDEF_STEREO_COUNT>
0

> <PUBCHEM_BOND_DEF_STEREO_COUNT>
0

> <PUBCHEM_BOND_UDEF_STEREO_COUNT>
0

> <PUBCHEM_ISOTOPIC_ATOM_COUNT>
0

> <PUBCHEM_COMPONENT_COUNT>
1

> <PUBCHEM_CACTVS_TAUTO_COUNT>
2

> <PUBCHEM_CONFORMER_ID>
0149A4C500000001

> <PUBCHEM_MMFF94_ENERGY>
138.0844

> <PUBCHEM_FEATURE_SELFOVERLAP>
40.716

> <PUBCHEM_SHAPE_FINGERPRINT>
10 15 18271516573014238952
10673678 19 10014997912754322962
11315181 36 17917996083206870153
11456790 92 18271531918389238097
11578080 2 12893978851041624425
11646440 116 17346880048800251288
11719270 70 18201435857501219718
11796584 16 15791454837955972824
12107698 1 18333447625999877024
12166972 35 18334858337846510324
12236239 1 18186801391630554786
12403260 363 18410857680674330821
12422481 6 18342733001590586756
12616971 3 17989200486386706844
13224815 77 17704080598311955436
13533116 47 14979687559564301020
13782708 43 17603866723453000467
13811026 1 18343011194869807413
13862211 1 18342173401416425951
13914758 101 17894620427630398741
14251764 18 18409164433589832386
14856354 85 15357704084788338203
15183329 4 18407754833111671810
15196674 1 18413389851705227677
15537594 2 12179847212405245272
1577012 14 18261397775149745637
15788980 27 18187368735293516753
17349148 13 18410858780296371060
17857418 61 18413107272837298448
1813 80 17095521799433761460
18681886 176 18342170090339337354
19377110 9 16845579694688539091
19489759 90 17822010904625396577
20028762 73 18202280312585995158
20511986 3 18201424896253790294
21130935 74 18201718474691460378
21267235 1 18411426119864598478
21792934 111 18272089379669717129
21859007 373 18116140078602574716
22149856 69 17703247173568873067
23402539 116 18201997746554968661
23559900 14 18342457028424881446
23569917 315 18273501177785127566
23569943 247 17097194057608950146
2838139 119 18272081691293492445
3004659 81 18335140895402496564
335352 9 18411982468168306716
3383291 50 18335984267765805851
34797466 226 16343713178341412973
350125 39 18411700985224257372
3680242 22 18408327682943423368
392239 28 18273220789439241377
404807 14 17121153360808371846
4073 2 18187652435068613955
4093350 32 16415206611239699087
4325135 7 18131348614159299175
4340502 62 15051736400126622188
474113 269 17969762117520101866
5104073 3 18340492256479480873
5283173 99 18337388245335040861
559249 180 18408037394751908299
59755656 215 18341052935076041550
59755656 520 17458063776692074067
6086070 43 17896577562222303245
6138700 20 18335983082301096690

> <PUBCHEM_SHAPE_MULTIPOLES>
632.1
16.73
2.24
1.45
4.35
0.3
0.02
-2.94
2.84
-0.31
-0.05
0.41
-0.18
-0.54

> <PUBCHEM_SHAPE_SELFOVERLAP>
1341.385

> <PUBCHEM_SHAPE_VOLUME>
353.7

> <PUBCHEM_COORDINATE_TYPE>
2
5
10

$$$$
