56927990
  -OEChem-08272013483D

 39 40  0     1  0  0  0  0  0999 V2000
   -1.8205   -0.8252   -0.0065 C   0  0  1  0  0  0  0  0  0  0  0  0
   -2.4388    0.2506   -0.8793 C   0  0  1  0  0  0  0  0  0  0  0  0
   -2.9641   -1.1568   -0.9273 C   0  0  0  0  0  0  0  0  0  0  0  0
   -0.4335   -1.3729   -0.3611 C   0  0  1  0  0  0  0  0  0  0  0  0
   -2.0446   -0.4171    1.4349 C   0  0  0  0  0  0  0  0  0  0  0  0
   -2.9967    1.2280    0.0766 C   0  0  0  0  0  0  0  0  0  0  0  0
   -2.7892    0.8929    1.3633 C   0  0  0  0  0  0  0  0  0  0  0  0
    0.6344   -0.2947   -0.0829 C   0  0  0  0  0  0  0  0  0  0  0  0
   -0.1721   -2.6420    0.4109 C   0  0  0  0  0  0  0  0  0  0  0  0
   -3.7088    2.4406   -0.4081 C   0  0  0  0  0  0  0  0  0  0  0  0
    1.9544   -0.4694   -0.8485 C   0  0  0  0  0  0  0  0  0  0  0  0
    2.9311    0.6425   -0.5846 C   0  0  0  0  0  0  0  0  0  0  0  0
    4.1283    0.5757    0.0282 C   0  0  0  0  0  0  0  0  0  0  0  0
    4.7529   -0.6683    0.5929 C   0  0  0  0  0  0  0  0  0  0  0  0
    4.9672    1.8160    0.1916 C   0  0  0  0  0  0  0  0  0  0  0  0
   -1.8784    0.6353   -1.7207 H   0  0  0  0  0  0  0  0  0  0  0  0
   -3.9336   -1.3686   -0.4905 H   0  0  0  0  0  0  0  0  0  0  0  0
   -2.7638   -1.7341   -1.8228 H   0  0  0  0  0  0  0  0  0  0  0  0
   -0.4141   -1.6080   -1.4333 H   0  0  0  0  0  0  0  0  0  0  0  0
   -1.1184   -0.2724    1.9969 H   0  0  0  0  0  0  0  0  0  0  0  0
   -2.6485   -1.1686    1.9545 H   0  0  0  0  0  0  0  0  0  0  0  0
   -3.1122    1.4598    2.2236 H   0  0  0  0  0  0  0  0  0  0  0  0
    0.8582   -0.2544    0.9911 H   0  0  0  0  0  0  0  0  0  0  0  0
    0.2341    0.6946   -0.3411 H   0  0  0  0  0  0  0  0  0  0  0  0
   -0.1248   -2.4692    1.4914 H   0  0  0  0  0  0  0  0  0  0  0  0
   -0.9640   -3.3782    0.2330 H   0  0  0  0  0  0  0  0  0  0  0  0
    0.7757   -3.0990    0.1087 H   0  0  0  0  0  0  0  0  0  0  0  0
   -4.5735    2.1568   -1.0163 H   0  0  0  0  0  0  0  0  0  0  0  0
   -4.0681    3.0574    0.4220 H   0  0  0  0  0  0  0  0  0  0  0  0
   -3.0417    3.0551   -1.0208 H   0  0  0  0  0  0  0  0  0  0  0  0
    2.3808   -1.4493   -0.6213 H   0  0  0  0  0  0  0  0  0  0  0  0
    1.7430   -0.4775   -1.9252 H   0  0  0  0  0  0  0  0  0  0  0  0
    2.6008    1.6145   -0.9503 H   0  0  0  0  0  0  0  0  0  0  0  0
    5.1462    2.0153    1.2533 H   0  0  0  0  0  0  0  0  0  0  0  0
    5.9340    1.6874   -0.3062 H   0  0  0  0  0  0  0  0  0  0  0  0
    4.4897    2.7037   -0.2363 H   0  0  0  0  0  0  0  0  0  0  0  0
    5.6769   -0.9028    0.0541 H   0  0  0  0  0  0  0  0  0  0  0  0
    5.0002   -0.5173    1.6493 H   0  0  0  0  0  0  0  0  0  0  0  0
    4.1065   -1.5464    0.5401 H   0  0  0  0  0  0  0  0  0  0  0  0
  1  2  1  0  0  0  0
  1  3  1  0  0  0  0
  1  4  1  0  0  0  0
  1  5  1  0  0  0  0
  2  3  1  0  0  0  0
  2  6  1  0  0  0  0
  2 16  1  0  0  0  0
  3 17  1  0  0  0  0
  3 18  1  0  0  0  0
  4  8  1  0  0  0  0
  4  9  1  0  0  0  0
  4 19  1  0  0  0  0
  5  7  1  0  0  0  0
  5 20  1  0  0  0  0
  5 21  1  0  0  0  0
  6  7  2  0  0  0  0
  6 10  1  0  0  0  0
  7 22  1  0  0  0  0
  8 11  1  0  0  0  0
  8 23  1  0  0  0  0
  8 24  1  0  0  0  0
  9 25  1  0  0  0  0
  9 26  1  0  0  0  0
  9 27  1  0  0  0  0
 10 28  1  0  0  0  0
 10 29  1  0  0  0  0
 10 30  1  0  0  0  0
 11 12  1  0  0  0  0
 11 31  1  0  0  0  0
 11 32  1  0  0  0  0
 12 13  2  0  0  0  0
 12 33  1  0  0  0  0
 13 14  1  0  0  0  0
 13 15  1  0  0  0  0
 14 37  1  0  0  0  0
 14 38  1  0  0  0  0
 14 39  1  0  0  0  0
 15 34  1  0  0  0  0
 15 35  1  0  0  0  0
 15 36  1  0  0  0  0
M  END
> <PUBCHEM_COMPOUND_CID>
56927990

> <PUBCHEM_CONFORMER_RMSD>
0.6

> <PUBCHEM_CONFORMER_DIVERSEORDER>
3
57
9
7
58
11
43
37
67
54
36
52
51
84
15
26
99
44
41
98
70
56
35
74
96
62
27
86
30
97
45
1
39
92
61
81
48
63
24
4
10
28
91
72
82
76
21
79
88
93
13
40
83
68
8
78
87
50
95
80
59
12
18
14
33
23
25
20
75
17
69
94
85
53
5
60
66
90
22
100
65
38
31
71
42
55
19
77
34
64
47
6
16
49
29
73
46
32
2
89

> <PUBCHEM_MMFF94_PARTIAL_CHARGES>
18
1 -0.19
10 0.14
11 0.14
12 -0.29
13 -0.28
14 0.14
15 0.14
16 0.1
17 0.1
18 0.1
2 -0.06
22 0.15
3 -0.2
33 0.15
4 0.09
5 0.23
6 -0.18
7 -0.29

> <PUBCHEM_EFFECTIVE_ROTOR_COUNT>
4.4

> <PUBCHEM_PHARMACOPHORE_FEATURES>
4
1 9 hydrophobe
3 13 14 15 hydrophobe
4 4 8 11 12 hydrophobe
6 1 2 3 5 6 7 rings

> <PUBCHEM_HEAVY_ATOM_COUNT>
15

> <PUBCHEM_ATOM_DEF_STEREO_COUNT>
3

> <PUBCHEM_ATOM_UDEF_STEREO_COUNT>
0

> <PUBCHEM_BOND_DEF_STEREO_COUNT>
0

> <PUBCHEM_BOND_UDEF_STEREO_COUNT>
0

> <PUBCHEM_ISOTOPIC_ATOM_COUNT>
0

> <PUBCHEM_COMPONENT_COUNT>
1

> <PUBCHEM_CACTVS_TAUTO_COUNT>
1

> <PUBCHEM_CONFORMER_ID>
0364A6F600000003

> <PUBCHEM_MMFF94_ENERGY>
31.1607

> <PUBCHEM_FEATURE_SELFOVERLAP>
20.301

> <PUBCHEM_SHAPE_FINGERPRINT>
10014705 185 18413669101899616885
11127187 94 11815616329251828329
11543360 7 12391509780884245184
12670546 56 18261099790898588208
128620 24 10952045650601020602
13024252 1 13117993436063354967
13675066 3 17821731641625298240
14004511 7 18261110773008813718
14123255 352 18413388731024926404
14123255 52 18338235947182411597
14123260 362 17775297061907587440
14142880 1 18334290968566517925
14251710 61 8718536216553549572
15239191 94 12324241685240482400
15775835 57 18341333301518205085
17834072 32 18412266116525673392
18186145 218 18059027098444033630
18915474 69 10087638213257200928
20112054 13 18260834769414184900
20281475 54 8574717897038855150
20291156 8 8862932875331909900
20300324 65 17917706946071676951
20645477 56 18272942625850654063
20645477 70 16844749585696600150
20871999 31 16773501236295443597
21524375 3 18412547604387013191
21713013 43 11959727148992730784
2306618 200 18271811237207709449
23402539 116 18269547402927764271
23403322 49 9583520901696828468
23557571 272 16988294173580297349
23559900 14 17917436368123666406
23622692 88 8069747442624531095
27216 239 18261117395674414897
2838139 119 18119234087607711653
305870 269 18335140834597942058
3268164 11 17774999141342741141
341906 21 18131059468476629488
4028521 119 18059857242217730328
5706482 22 18334860519563055811
6992083 37 17749673007862660198
90127 26 18335430088530344660

> <PUBCHEM_SHAPE_MULTIPOLES>
308.69
9.29
2.23
1.12
11.89
0.01
-0.22
-5.41
-0.57
-1
-0.03
-0.69
0.03
-0.12

> <PUBCHEM_SHAPE_SELFOVERLAP>
620.859

> <PUBCHEM_SHAPE_VOLUME>
185.3

> <PUBCHEM_COORDINATE_TYPE>
2
5
10

$$$$
