91698330
  -OEChem-08272012433D

 38 38  0     0  0  0  0  0  0999 V2000
   -1.6157    0.9731    1.4031 O   0  0  0  0  0  0  0  0  0  0  0  0
    1.4795    0.9386   -0.5047 C   0  0  0  0  0  0  0  0  0  0  0  0
    1.2166   -0.2427   -1.3979 C   0  0  0  0  0  0  0  0  0  0  0  0
    1.5381   -1.5538   -0.6709 C   0  0  0  0  0  0  0  0  0  0  0  0
    2.8746    1.0093    0.0628 C   0  0  0  0  0  0  0  0  0  0  0  0
    2.8197   -1.5067    0.1285 C   0  0  0  0  0  0  0  0  0  0  0  0
    0.5346    1.8417   -0.2063 C   0  0  0  0  0  0  0  0  0  0  0  0
    3.4181   -0.3422    0.4390 C   0  0  0  0  0  0  0  0  0  0  0  0
   -0.8610    1.7367   -0.7610 C   0  0  0  0  0  0  0  0  0  0  0  0
    3.3801   -2.8289    0.5609 C   0  0  0  0  0  0  0  0  0  0  0  0
    0.8091    2.9912    0.7206 C   0  0  0  0  0  0  0  0  0  0  0  0
   -1.7596    0.9547    0.1835 C   0  0  0  0  0  0  0  0  0  0  0  0
   -2.8820    0.2129   -0.4596 C   0  0  0  0  0  0  0  0  0  0  0  0
   -3.4187   -0.9286    0.0059 C   0  0  0  0  0  0  0  0  0  0  0  0
   -2.9569   -1.6917    1.2158 C   0  0  0  0  0  0  0  0  0  0  0  0
   -4.5764   -1.5636   -0.7195 C   0  0  0  0  0  0  0  0  0  0  0  0
    0.2005   -0.3277   -1.7851 H   0  0  0  0  0  0  0  0  0  0  0  0
    1.8647   -0.1510   -2.2802 H   0  0  0  0  0  0  0  0  0  0  0  0
    1.5997   -2.3539   -1.4188 H   0  0  0  0  0  0  0  0  0  0  0  0
    0.7145   -1.8104    0.0079 H   0  0  0  0  0  0  0  0  0  0  0  0
    2.9264    1.6237    0.9667 H   0  0  0  0  0  0  0  0  0  0  0  0
    3.5441    1.4588   -0.6801 H   0  0  0  0  0  0  0  0  0  0  0  0
    4.3490   -0.3482    1.0005 H   0  0  0  0  0  0  0  0  0  0  0  0
   -0.8929    1.3199   -1.7708 H   0  0  0  0  0  0  0  0  0  0  0  0
   -1.2964    2.7389   -0.8640 H   0  0  0  0  0  0  0  0  0  0  0  0
    3.6204   -3.4438   -0.3125 H   0  0  0  0  0  0  0  0  0  0  0  0
    4.2952   -2.7164    1.1517 H   0  0  0  0  0  0  0  0  0  0  0  0
    2.6506   -3.3666    1.1751 H   0  0  0  0  0  0  0  0  0  0  0  0
    1.8004    3.4281    0.5649 H   0  0  0  0  0  0  0  0  0  0  0  0
    0.0985    3.8078    0.5514 H   0  0  0  0  0  0  0  0  0  0  0  0
    0.7091    2.6767    1.7642 H   0  0  0  0  0  0  0  0  0  0  0  0
   -3.2567    0.6560   -1.3787 H   0  0  0  0  0  0  0  0  0  0  0  0
   -4.2991   -2.5595   -1.0803 H   0  0  0  0  0  0  0  0  0  0  0  0
   -2.9085   -2.7630    0.9904 H   0  0  0  0  0  0  0  0  0  0  0  0
   -1.9571   -1.4075    1.5518 H   0  0  0  0  0  0  0  0  0  0  0  0
   -4.9005   -0.9753   -1.5845 H   0  0  0  0  0  0  0  0  0  0  0  0
   -3.6583   -1.5478    2.0436 H   0  0  0  0  0  0  0  0  0  0  0  0
   -5.4346   -1.6631   -0.0467 H   0  0  0  0  0  0  0  0  0  0  0  0
  1 12  2  0  0  0  0
  2  3  1  0  0  0  0
  2  5  1  0  0  0  0
  2  7  2  0  0  0  0
  3  4  1  0  0  0  0
  3 17  1  0  0  0  0
  3 18  1  0  0  0  0
  4  6  1  0  0  0  0
  4 19  1  0  0  0  0
  4 20  1  0  0  0  0
  5  8  1  0  0  0  0
  5 21  1  0  0  0  0
  5 22  1  0  0  0  0
  6  8  2  0  0  0  0
  6 10  1  0  0  0  0
  7  9  1  0  0  0  0
  7 11  1  0  0  0  0
  8 23  1  0  0  0  0
  9 12  1  0  0  0  0
  9 24  1  0  0  0  0
  9 25  1  0  0  0  0
 10 26  1  0  0  0  0
 10 27  1  0  0  0  0
 10 28  1  0  0  0  0
 11 29  1  0  0  0  0
 11 30  1  0  0  0  0
 11 31  1  0  0  0  0
 12 13  1  0  0  0  0
 13 14  2  0  0  0  0
 13 32  1  0  0  0  0
 14 15  1  0  0  0  0
 14 16  1  0  0  0  0
 15 34  1  0  0  0  0
 15 35  1  0  0  0  0
 15 37  1  0  0  0  0
 16 33  1  0  0  0  0
 16 36  1  0  0  0  0
 16 38  1  0  0  0  0
M  END
> <PUBCHEM_COMPOUND_CID>
91698330

> <PUBCHEM_CONFORMER_RMSD>
0.6

> <PUBCHEM_CONFORMER_DIVERSEORDER>
15
60
56
27
116
86
115
58
64
94
81
92
2
105
113
45
68
72
47
65
124
127
99
7
118
114
84
57
82
107
52
70
104
102
106
53
126
73
32
129
120
30
78
6
18
3
1
17
101
95
5
55
22
42
109
59
39
40
12
93
108
69
103
63
44
110
61
9
117
90
28
14
49
96
10
122
128
34
48
83
29
41
33
20
89
80
85
66
26
97
91
19
16
36
112
21
31
74
62
88
4
51
50
125
11
24
25
98
8
123
100
111
87
38
46
77
119
23
71
43
54
37
121
79
13
35
76
67
75

> <PUBCHEM_MMFF94_PARTIAL_CHARGES>
18
1 -0.57
10 0.14
11 0.14
12 0.49
13 -0.14
14 -0.28
15 0.14
16 0.14
2 -0.28
23 0.15
3 0.14
32 0.15
4 0.14
5 0.28
6 -0.28
7 -0.28
8 -0.29
9 0.2

> <PUBCHEM_EFFECTIVE_ROTOR_COUNT>
3.6

> <PUBCHEM_PHARMACOPHORE_FEATURES>
4
1 1 acceptor
1 11 hydrophobe
3 14 15 16 hydrophobe
6 2 3 4 5 6 8 rings

> <PUBCHEM_HEAVY_ATOM_COUNT>
16

> <PUBCHEM_ATOM_DEF_STEREO_COUNT>
0

> <PUBCHEM_ATOM_UDEF_STEREO_COUNT>
0

> <PUBCHEM_BOND_DEF_STEREO_COUNT>
1

> <PUBCHEM_BOND_UDEF_STEREO_COUNT>
0

> <PUBCHEM_ISOTOPIC_ATOM_COUNT>
0

> <PUBCHEM_COMPONENT_COUNT>
1

> <PUBCHEM_CACTVS_TAUTO_COUNT>
13

> <PUBCHEM_CONFORMER_ID>
0577349A0000000F

> <PUBCHEM_MMFF94_ENERGY>
21.4364

> <PUBCHEM_FEATURE_SELFOVERLAP>
20.297

> <PUBCHEM_SHAPE_FINGERPRINT>
12363563 72 18410297977826779775
12382932 28 18058172721731889064
12400797 245 18342736312641223974
12506688 2 18409732875936240648
12553582 1 18339099136903579679
12596599 1 18058461901911713827
12633257 1 17912930478682329602
12824470 246 18413671292548871681
128993 33 10303809843792462731
14178342 30 17916033360514620369
14251705 54 18408891758252583787
14251757 5 16398055076072119439
14350558 41 18261115218020409877
14787075 74 18335140908413745712
15342168 16 9007067881099448215
15375462 189 18130221678838180087
17834072 14 18334286570113655543
20201158 50 18336549433947789487
20281475 54 18336268963613877997
20291156 8 18410012091802526970
20645477 70 18118395370698814005
20671657 53 18409446994797688693
20681677 274 18194670476735171818
21864079 5 9943518605111533611
2255824 54 18123195859487535077
23184049 29 18338240345054700036
23559900 14 18191856839322195192
257057 1 18338514140577384648
2637199 183 9151176488467436835
33824 294 18196369449253077389
474229 33 18263082270778158880
5262128 65 16298678281890222053
549884 4 12035738634009367935
568465 68 17415824822187904810
58554843 112 18266461099278500589
76465 3 18261946341542574466
81228 2 17696484987288386892
8809292 202 18120092775822851134
9709674 26 18334012809024984407

> <PUBCHEM_SHAPE_MULTIPOLES>
323.4
7.08
3.02
1.12
4.51
0.2
-0.04
-5.58
-0.31
-1.49
-0.62
0.3
-0.05
-0.12

> <PUBCHEM_SHAPE_SELFOVERLAP>
644.152

> <PUBCHEM_SHAPE_VOLUME>
191.1

> <PUBCHEM_COORDINATE_TYPE>
2
5
10

$$$$
