101792719
  -OEChem-08272013063D

 42 43  0     1  0  0  0  0  0999 V2000
   -2.1826   -1.9676    1.3492 O   0  0  0  0  0  0  0  0  0  0  0  0
   -1.3055    2.2252   -1.5080 O   0  0  0  0  0  0  0  0  0  0  0  0
    2.3508    1.5299    1.1729 O   0  0  0  0  0  0  0  0  0  0  0  0
   -1.2062    0.7173    0.4157 C   0  0  2  0  0  0  0  0  0  0  0  0
   -0.8389   -0.6587   -0.2138 C   0  0  2  0  0  0  0  0  0  0  0  0
   -2.1059   -1.5157   -0.0025 C   0  0  2  0  0  0  0  0  0  0  0  0
   -2.7517    0.7502    0.4612 C   0  0  0  0  0  0  0  0  0  0  0  0
   -0.5733    1.9395   -0.3075 C   0  0  1  0  0  0  0  0  0  0  0  0
   -3.2249   -0.5092   -0.2572 C   0  0  0  0  0  0  0  0  0  0  0  0
    0.4290   -1.2706    0.4167 C   0  0  0  0  0  0  0  0  0  0  0  0
    0.8896    1.7269   -0.7267 C   0  0  0  0  0  0  0  0  0  0  0  0
   -2.1872   -2.7236   -0.9276 C   0  0  0  0  0  0  0  0  0  0  0  0
    1.7006   -0.5122    0.1689 C   0  0  0  0  0  0  0  0  0  0  0  0
   -0.6921    3.1903    0.5743 C   0  0  0  0  0  0  0  0  0  0  0  0
    1.7099    0.9682    0.2889 C   0  0  0  0  0  0  0  0  0  0  0  0
    2.8683   -1.0746   -0.1684 C   0  0  0  0  0  0  0  0  0  0  0  0
    4.1029   -0.2567   -0.4078 C   0  0  0  0  0  0  0  0  0  0  0  0
    3.0173   -2.5587   -0.3281 C   0  0  0  0  0  0  0  0  0  0  0  0
   -0.8553    0.7239    1.4580 H   0  0  0  0  0  0  0  0  0  0  0  0
   -0.6845   -0.5333   -1.2947 H   0  0  0  0  0  0  0  0  0  0  0  0
   -3.1980    1.6461    0.0199 H   0  0  0  0  0  0  0  0  0  0  0  0
   -3.0783    0.7199    1.5084 H   0  0  0  0  0  0  0  0  0  0  0  0
   -4.1929   -0.8383    0.1343 H   0  0  0  0  0  0  0  0  0  0  0  0
   -3.3331   -0.3034   -1.3290 H   0  0  0  0  0  0  0  0  0  0  0  0
    0.5037   -2.2941    0.0392 H   0  0  0  0  0  0  0  0  0  0  0  0
    0.3014   -1.3537    1.5038 H   0  0  0  0  0  0  0  0  0  0  0  0
    1.3901    2.6819   -0.9322 H   0  0  0  0  0  0  0  0  0  0  0  0
    0.9413    1.1892   -1.6834 H   0  0  0  0  0  0  0  0  0  0  0  0
   -3.1407   -3.2475   -0.7952 H   0  0  0  0  0  0  0  0  0  0  0  0
   -2.0984   -2.4359   -1.9800 H   0  0  0  0  0  0  0  0  0  0  0  0
   -1.4013   -3.4508   -0.6982 H   0  0  0  0  0  0  0  0  0  0  0  0
   -1.7392    3.4197    0.8000 H   0  0  0  0  0  0  0  0  0  0  0  0
   -0.2929    4.0736    0.0621 H   0  0  0  0  0  0  0  0  0  0  0  0
   -0.1539    3.0704    1.5201 H   0  0  0  0  0  0  0  0  0  0  0  0
   -3.0277   -2.4356    1.4605 H   0  0  0  0  0  0  0  0  0  0  0  0
   -0.8949    2.9953   -1.9371 H   0  0  0  0  0  0  0  0  0  0  0  0
    2.7869   -2.8575   -1.3554 H   0  0  0  0  0  0  0  0  0  0  0  0
    4.7224   -0.2335    0.4946 H   0  0  0  0  0  0  0  0  0  0  0  0
    4.6984   -0.7126   -1.2080 H   0  0  0  0  0  0  0  0  0  0  0  0
    4.0495   -2.8604   -0.1149 H   0  0  0  0  0  0  0  0  0  0  0  0
    2.3964   -3.1320    0.3660 H   0  0  0  0  0  0  0  0  0  0  0  0
    3.9169    0.7687   -0.7383 H   0  0  0  0  0  0  0  0  0  0  0  0
  1  6  1  0  0  0  0
  1 35  1  0  0  0  0
  2  8  1  0  0  0  0
  2 36  1  0  0  0  0
  3 15  2  0  0  0  0
  4  5  1  0  0  0  0
  4  7  1  0  0  0  0
  4  8  1  0  0  0  0
  4 19  1  0  0  0  0
  5  6  1  0  0  0  0
  5 10  1  0  0  0  0
  5 20  1  0  0  0  0
  6  9  1  0  0  0  0
  6 12  1  0  0  0  0
  7  9  1  0  0  0  0
  7 21  1  0  0  0  0
  7 22  1  0  0  0  0
  8 11  1  0  0  0  0
  8 14  1  0  0  0  0
  9 23  1  0  0  0  0
  9 24  1  0  0  0  0
 10 13  1  0  0  0  0
 10 25  1  0  0  0  0
 10 26  1  0  0  0  0
 11 15  1  0  0  0  0
 11 27  1  0  0  0  0
 11 28  1  0  0  0  0
 12 29  1  0  0  0  0
 12 30  1  0  0  0  0
 12 31  1  0  0  0  0
 13 15  1  0  0  0  0
 13 16  2  0  0  0  0
 14 32  1  0  0  0  0
 14 33  1  0  0  0  0
 14 34  1  0  0  0  0
 16 17  1  0  0  0  0
 16 18  1  0  0  0  0
 17 38  1  0  0  0  0
 17 39  1  0  0  0  0
 17 42  1  0  0  0  0
 18 37  1  0  0  0  0
 18 40  1  0  0  0  0
 18 41  1  0  0  0  0
M  END
> <PUBCHEM_COMPOUND_CID>
101792719

> <PUBCHEM_CONFORMER_RMSD>
0.6

> <PUBCHEM_CONFORMER_DIVERSEORDER>
1
4
2
3

> <PUBCHEM_MMFF94_PARTIAL_CHARGES>
14
1 -0.68
10 0.14
11 0.06
13 -0.12
15 0.49
16 -0.28
17 0.14
18 0.14
2 -0.68
3 -0.57
35 0.4
36 0.4
6 0.28
8 0.28

> <PUBCHEM_EFFECTIVE_ROTOR_COUNT>
1.2

> <PUBCHEM_PHARMACOPHORE_FEATURES>
8
1 1 acceptor
1 1 donor
1 2 acceptor
1 2 donor
1 3 acceptor
3 16 17 18 hydrophobe
5 4 5 6 7 9 rings
7 4 5 8 10 11 13 15 rings

> <PUBCHEM_HEAVY_ATOM_COUNT>
18

> <PUBCHEM_ATOM_DEF_STEREO_COUNT>
4

> <PUBCHEM_ATOM_UDEF_STEREO_COUNT>
0

> <PUBCHEM_BOND_DEF_STEREO_COUNT>
0

> <PUBCHEM_BOND_UDEF_STEREO_COUNT>
0

> <PUBCHEM_ISOTOPIC_ATOM_COUNT>
0

> <PUBCHEM_COMPONENT_COUNT>
1

> <PUBCHEM_CACTVS_TAUTO_COUNT>
5

> <PUBCHEM_CONFORMER_ID>
06113BCF00000001

> <PUBCHEM_MMFF94_ENERGY>
63.9059

> <PUBCHEM_FEATURE_SELFOVERLAP>
40.625

> <PUBCHEM_SHAPE_FINGERPRINT>
10967382 1 18411418435893844754
11132069 177 18339352076012249776
11322862 65 18120091684801002893
11578080 2 17488441131220090625
12054548 360 18412548725716044054
12173636 292 17908425758095439812
12382932 28 18338227288364890817
12553582 1 18411419531332363182
13027679 85 18411421726039493957
13140716 1 18409730685550483826
14081887 123 18270102553399475832
14178342 30 18126559265698774755
14181834 199 17468176182378978149
14251745 187 18409449189584200786
14790565 3 17907870504370439696
14817 1 18125185760869373677
15001771 113 18410018766202713041
15536298 74 18200593721513862424
16752209 62 18044922485852010309
16945 1 18269545048947588304
17357779 13 18336813247718143399
17804303 29 18271251512653329870
19591789 44 17619356407184085161
19868273 325 18408324410241841919
20510252 161 18126285246637856592
20559304 39 17977389652734738219
20645477 70 17615112722183403399
21041028 32 18265356051770027545
21501502 16 18338521811926675220
21524375 3 17687463464527995713
22721475 48 18411704249024647854
22802520 49 18410860957829057106
2334 1 18265335199287262018
23388829 49 17909822481327612975
23402539 116 18201430342836733343
23419403 2 17038036144008930709
23557571 272 18199760141940668598
23559900 14 17837486359589824614
238 59 16311023258844249309
257057 1 18339912831131887687
2748010 2 18338230582514856358
3084891 72 17333643882843031832
34934 24 18409442592102996618
352729 6 17690280409018304200
427121 178 16051296755728468177
46194498 28 17325730036513436935
5845 1 18261099820425731061
598444 67 18192436255689729471
6992083 37 18272103711638090459
7364860 26 17980202207583840881
7832392 63 18341895246549616339
81228 2 18334294223550334776
8809292 202 18336550404478705130
9709674 26 18268715996254619694

> <PUBCHEM_SHAPE_MULTIPOLES>
352.82
5.25
3.34
1
3.25
0.51
-0.04
-2.5
-0.2
-0.96
-0.24
-0.26
0.13
0.25

> <PUBCHEM_SHAPE_SELFOVERLAP>
733.298

> <PUBCHEM_SHAPE_VOLUME>
202.5

> <PUBCHEM_COORDINATE_TYPE>
2
5
10

$$$$
