5362915
  -OEChem-08272012043D

 34 33  0     1  0  0  0  0  0999 V2000
   -0.6196    0.8726    0.3751 C   0  0  2  0  0  0  0  0  0  0  0  0
    0.6727    0.4722   -0.3584 C   0  0  0  0  0  0  0  0  0  0  0  0
    1.8641    0.3074    0.2738 C   0  0  0  0  0  0  0  0  0  0  0  0
   -1.6803   -0.2407    0.3235 C   0  0  0  0  0  0  0  0  0  0  0  0
   -1.0731    2.2655   -0.0939 C   0  0  0  0  0  0  0  0  0  0  0  0
    3.1323   -0.1341   -0.4358 C   0  0  0  0  0  0  0  0  0  0  0  0
    0.5167    0.2646   -1.8519 C   0  0  0  0  0  0  0  0  0  0  0  0
    2.0579    0.5052    1.7591 C   0  0  0  0  0  0  0  0  0  0  0  0
   -1.2315   -1.5402    0.9518 C   0  0  0  0  0  0  0  0  0  0  0  0
   -2.9081   -0.0669   -0.2074 C   0  0  0  0  0  0  0  0  0  0  0  0
    3.2946   -1.6479   -0.4489 C   0  0  0  0  0  0  0  0  0  0  0  0
   -4.0257   -1.0577   -0.2870 C   0  0  0  0  0  0  0  0  0  0  0  0
   -0.4212    0.9986    1.4453 H   0  0  0  0  0  0  0  0  0  0  0  0
   -0.2657    2.9966    0.0311 H   0  0  0  0  0  0  0  0  0  0  0  0
   -1.9238    2.6198    0.4994 H   0  0  0  0  0  0  0  0  0  0  0  0
   -1.3674    2.2761   -1.1490 H   0  0  0  0  0  0  0  0  0  0  0  0
    4.0084    0.3186    0.0449 H   0  0  0  0  0  0  0  0  0  0  0  0
    3.1639    0.2479   -1.4621 H   0  0  0  0  0  0  0  0  0  0  0  0
    0.4951    1.2311   -2.3652 H   0  0  0  0  0  0  0  0  0  0  0  0
    1.3114   -0.3375   -2.2975 H   0  0  0  0  0  0  0  0  0  0  0  0
   -0.4133   -0.2641   -2.0825 H   0  0  0  0  0  0  0  0  0  0  0  0
    3.1032    0.7270    2.0002 H   0  0  0  0  0  0  0  0  0  0  0  0
    1.7762   -0.4024    2.3017 H   0  0  0  0  0  0  0  0  0  0  0  0
    1.4861    1.3533    2.1452 H   0  0  0  0  0  0  0  0  0  0  0  0
   -2.0557   -2.2202    1.1777 H   0  0  0  0  0  0  0  0  0  0  0  0
   -0.7296   -1.3467    1.9062 H   0  0  0  0  0  0  0  0  0  0  0  0
   -0.5325   -2.0648    0.2928 H   0  0  0  0  0  0  0  0  0  0  0  0
   -3.1715    0.8987   -0.6305 H   0  0  0  0  0  0  0  0  0  0  0  0
    3.3485   -2.0480    0.5691 H   0  0  0  0  0  0  0  0  0  0  0  0
    4.2180   -1.9235   -0.9683 H   0  0  0  0  0  0  0  0  0  0  0  0
    2.4598   -2.1361   -0.9622 H   0  0  0  0  0  0  0  0  0  0  0  0
   -3.7233   -2.0840   -0.0718 H   0  0  0  0  0  0  0  0  0  0  0  0
   -4.4404   -1.0539   -1.3007 H   0  0  0  0  0  0  0  0  0  0  0  0
   -4.8240   -0.7752    0.4058 H   0  0  0  0  0  0  0  0  0  0  0  0
  1  2  1  0  0  0  0
  1  4  1  0  0  0  0
  1  5  1  0  0  0  0
  1 13  1  0  0  0  0
  2  3  2  0  0  0  0
  2  7  1  0  0  0  0
  3  6  1  0  0  0  0
  3  8  1  0  0  0  0
  4  9  1  0  0  0  0
  4 10  2  0  0  0  0
  5 14  1  0  0  0  0
  5 15  1  0  0  0  0
  5 16  1  0  0  0  0
  6 11  1  0  0  0  0
  6 17  1  0  0  0  0
  6 18  1  0  0  0  0
  7 19  1  0  0  0  0
  7 20  1  0  0  0  0
  7 21  1  0  0  0  0
  8 22  1  0  0  0  0
  8 23  1  0  0  0  0
  8 24  1  0  0  0  0
  9 25  1  0  0  0  0
  9 26  1  0  0  0  0
  9 27  1  0  0  0  0
 10 12  1  0  0  0  0
 10 28  1  0  0  0  0
 11 29  1  0  0  0  0
 11 30  1  0  0  0  0
 11 31  1  0  0  0  0
 12 32  1  0  0  0  0
 12 33  1  0  0  0  0
 12 34  1  0  0  0  0
M  END
> <PUBCHEM_COMPOUND_CID>
5362915

> <PUBCHEM_CONFORMER_RMSD>
0.6

> <PUBCHEM_CONFORMER_DIVERSEORDER>
2
27
29
26
15
20
13
23
16
7
25
22
14
19
28
6
4
1
18
9
17
10
24
21
3
5
12
8
11

> <PUBCHEM_MMFF94_PARTIAL_CHARGES>
11
1 0.28
10 -0.29
12 0.14
2 -0.28
28 0.15
3 -0.28
4 -0.28
6 0.14
7 0.14
8 0.14
9 0.14

> <PUBCHEM_EFFECTIVE_ROTOR_COUNT>
3

> <PUBCHEM_PHARMACOPHORE_FEATURES>
6
1 11 hydrophobe
1 12 hydrophobe
1 5 hydrophobe
1 7 hydrophobe
1 8 hydrophobe
1 9 hydrophobe

> <PUBCHEM_HEAVY_ATOM_COUNT>
12

> <PUBCHEM_ATOM_DEF_STEREO_COUNT>
0

> <PUBCHEM_ATOM_UDEF_STEREO_COUNT>
1

> <PUBCHEM_BOND_DEF_STEREO_COUNT>
2

> <PUBCHEM_BOND_UDEF_STEREO_COUNT>
0

> <PUBCHEM_ISOTOPIC_ATOM_COUNT>
0

> <PUBCHEM_COMPONENT_COUNT>
1

> <PUBCHEM_CACTVS_TAUTO_COUNT>
1

> <PUBCHEM_CONFORMER_ID>
0051D4E300000002

> <PUBCHEM_MMFF94_ENERGY>
17.5759

> <PUBCHEM_FEATURE_SELFOVERLAP>
30.453

> <PUBCHEM_SHAPE_FINGERPRINT>
10219947 1 17417531423010742469
11769659 78 18338235951614528974
12032990 46 18409171043212484011
12251169 10 16774075193643499462
12423570 1 10208241530204511968
12932764 1 17561073713952061332
13380536 243 17095235943147491487
14128692 85 17531820188902787124
14993402 34 17167863062607059999
15207287 21 18060704978667926719
16945 1 17748818627161289017
17841504 4 17775565312885546760
18175812 5 17632292393524016501
18186145 218 17531241781857998277
20201158 50 18410296921190965282
20281407 28 18272375265002736410
20645476 183 16515688874568905491
20671657 53 17530681013331297164
20711983 138 18335140877631783946
20711985 344 18261393278456220929
20820808 20 12035441744469008244
21028194 46 11239735079273183657
21501502 16 18271537385766488768
23402539 116 18343860013925633533
23532345 42 18199742703703371097
23559900 14 18410288104092358144
31174 14 17418083356235984376
3286 77 17346878952982203587
5084963 1 18130790036076545992
528886 8 15357973516280962289
57812782 119 17846493716665650463
7364860 26 18118693355039778396
76465 3 18131060524453359551
8030462 33 15574996118167766228
81228 2 18335421240344275569

> <PUBCHEM_SHAPE_MULTIPOLES>
246.95
5.59
1.69
1.32
1.32
0.27
0.02
-2.79
0.45
0.3
-0.07
-0.65
0.07
0.41

> <PUBCHEM_SHAPE_SELFOVERLAP>
460.157

> <PUBCHEM_SHAPE_VOLUME>
158.7

> <PUBCHEM_COORDINATE_TYPE>
2
5
10

$$$$
