10904292
  -OEChem-08272010543D

 46 47  0     0  0  0  0  0  0999 V2000
   -6.1148   -2.6109    0.1307 O   0  0  0  0  0  0  0  0  0  0  0  0
    6.3617   -2.6121    0.0151 O   0  0  0  0  0  0  0  0  0  0  0  0
   -8.4480   -1.1731    0.5937 O   0  0  0  0  0  0  0  0  0  0  0  0
    8.6872   -1.1472    0.4293 O   0  0  0  0  0  0  0  0  0  0  0  0
   -1.1927    2.9590   -0.5850 O   0  0  0  0  0  0  0  0  0  0  0  0
   -4.8648    0.8075    0.0297 C   0  0  0  0  0  0  0  0  0  0  0  0
    5.0663    0.7950   -0.0718 C   0  0  0  0  0  0  0  0  0  0  0  0
   -4.8845   -0.5771   -0.0156 C   0  0  0  0  0  0  0  0  0  0  0  0
   -6.0919   -1.2495    0.1737 C   0  0  0  0  0  0  0  0  0  0  0  0
    5.1062   -0.5924   -0.1127 C   0  0  0  0  0  0  0  0  0  0  0  0
    6.3243   -1.2509    0.0562 C   0  0  0  0  0  0  0  0  0  0  0  0
   -6.0194    1.5381    0.2590 C   0  0  0  0  0  0  0  0  0  0  0  0
    6.2224    1.5359    0.1351 C   0  0  0  0  0  0  0  0  0  0  0  0
   -7.2630   -0.5279    0.4058 C   0  0  0  0  0  0  0  0  0  0  0  0
    7.4914   -0.5157    0.2645 C   0  0  0  0  0  0  0  0  0  0  0  0
   -7.2267    0.8658    0.4483 C   0  0  0  0  0  0  0  0  0  0  0  0
    7.4404    0.8776    0.3041 C   0  0  0  0  0  0  0  0  0  0  0  0
   -3.5897    1.5181   -0.1712 C   0  0  0  0  0  0  0  0  0  0  0  0
    3.7853    1.4878   -0.2484 C   0  0  0  0  0  0  0  0  0  0  0  0
   -2.3782    0.9629   -0.0206 C   0  0  0  0  0  0  0  0  0  0  0  0
    2.5596    0.9640   -0.0859 C   0  0  0  0  0  0  0  0  0  0  0  0
   -1.1560    1.7784   -0.2614 C   0  0  0  0  0  0  0  0  0  0  0  0
    1.2917    1.6424   -0.2588 C   0  0  0  0  0  0  0  0  0  0  0  0
    0.1151    1.0278   -0.0716 C   0  0  0  0  0  0  0  0  0  0  0  0
   -6.3467   -3.2154   -1.1401 C   0  0  0  0  0  0  0  0  0  0  0  0
    5.1248   -3.2881   -0.2021 C   0  0  0  0  0  0  0  0  0  0  0  0
   -3.9983   -1.1723   -0.2145 H   0  0  0  0  0  0  0  0  0  0  0  0
    4.1902   -1.1355   -0.3044 H   0  0  0  0  0  0  0  0  0  0  0  0
   -6.0070    2.6241    0.2963 H   0  0  0  0  0  0  0  0  0  0  0  0
    6.1999    2.6221    0.1701 H   0  0  0  0  0  0  0  0  0  0  0  0
   -8.1315    1.4401    0.6287 H   0  0  0  0  0  0  0  0  0  0  0  0
    8.3420    1.4624    0.4658 H   0  0  0  0  0  0  0  0  0  0  0  0
   -3.6812    2.5631   -0.4584 H   0  0  0  0  0  0  0  0  0  0  0  0
    3.8635    2.5352   -0.5367 H   0  0  0  0  0  0  0  0  0  0  0  0
   -2.2341   -0.0658    0.2875 H   0  0  0  0  0  0  0  0  0  0  0  0
    2.4582   -0.0722    0.2296 H   0  0  0  0  0  0  0  0  0  0  0  0
    1.3369    2.6879   -0.5515 H   0  0  0  0  0  0  0  0  0  0  0  0
    0.0619   -0.0164    0.2197 H   0  0  0  0  0  0  0  0  0  0  0  0
   -9.1479   -0.5138    0.7396 H   0  0  0  0  0  0  0  0  0  0  0  0
    9.3823   -0.4798    0.5611 H   0  0  0  0  0  0  0  0  0  0  0  0
   -5.5525   -2.9458   -1.8435 H   0  0  0  0  0  0  0  0  0  0  0  0
   -7.3203   -2.9135   -1.5389 H   0  0  0  0  0  0  0  0  0  0  0  0
   -6.3440   -4.3009   -1.0088 H   0  0  0  0  0  0  0  0  0  0  0  0
    4.4146   -3.1057    0.6117 H   0  0  0  0  0  0  0  0  0  0  0  0
    5.3409   -4.3617   -0.1972 H   0  0  0  0  0  0  0  0  0  0  0  0
    4.7044   -3.0558   -1.1866 H   0  0  0  0  0  0  0  0  0  0  0  0
  1  9  1  0  0  0  0
  1 25  1  0  0  0  0
  2 11  1  0  0  0  0
  2 26  1  0  0  0  0
  3 14  1  0  0  0  0
  3 39  1  0  0  0  0
  4 15  1  0  0  0  0
  4 40  1  0  0  0  0
  5 22  2  0  0  0  0
  6  8  2  0  0  0  0
  6 12  1  0  0  0  0
  6 18  1  0  0  0  0
  7 10  2  0  0  0  0
  7 13  1  0  0  0  0
  7 19  1  0  0  0  0
  8  9  1  0  0  0  0
  8 27  1  0  0  0  0
  9 14  2  0  0  0  0
 10 11  1  0  0  0  0
 10 28  1  0  0  0  0
 11 15  2  0  0  0  0
 12 16  2  0  0  0  0
 12 29  1  0  0  0  0
 13 17  2  0  0  0  0
 13 30  1  0  0  0  0
 14 16  1  0  0  0  0
 15 17  1  0  0  0  0
 16 31  1  0  0  0  0
 17 32  1  0  0  0  0
 18 20  2  0  0  0  0
 18 33  1  0  0  0  0
 19 21  2  0  0  0  0
 19 34  1  0  0  0  0
 20 22  1  0  0  0  0
 20 35  1  0  0  0  0
 21 23  1  0  0  0  0
 21 36  1  0  0  0  0
 22 24  1  0  0  0  0
 23 24  2  0  0  0  0
 23 37  1  0  0  0  0
 24 38  1  0  0  0  0
 25 41  1  0  0  0  0
 25 42  1  0  0  0  0
 25 43  1  0  0  0  0
 26 44  1  0  0  0  0
 26 45  1  0  0  0  0
 26 46  1  0  0  0  0
M  END
> <PUBCHEM_COMPOUND_CID>
10904292

> <PUBCHEM_CONFORMER_RMSD>
0.8

> <PUBCHEM_CONFORMER_DIVERSEORDER>
120
123
86
156
2
76
102
7
132
49
150
20
152
9
146
127
3
119
125
12
122
10
155
109
143
110
1
124
151
19
160
8
161
92
154
6
82
142
129
128
15
115
67
103
55
4
105
54
162
167
13
32
141
133
172
5
39
98
166
75
21
77
97
168
153
116
169
73
34
158
36
43
88
90
53
31
148
24
147
121
173
139
65
27
84
56
131
108
101
22
64
164
16
25
72
29
74
99
106
87
50
71
126
83
145
17
59
11
104
58
44
165
95
93
52
68
45
33
37
134
18
100
89
41
91
136
94
57
171
157
40
78
38
26
135
118
81
61
62
14
51
174
117
159
96
107
85
170
79
163
30
23
149
137
63
47
140
113
111
42
138
46
28
112
69
66
48
80
144
60
70
130
35
114

> <PUBCHEM_MMFF94_PARTIAL_CHARGES>
40
1 -0.36
10 -0.15
11 0.08
12 -0.15
13 -0.15
14 0.08
15 0.08
16 -0.15
17 -0.15
18 -0.18
19 -0.18
2 -0.36
20 -0.14
21 -0.15
22 0.54
23 -0.15
24 -0.14
25 0.28
26 0.28
27 0.15
28 0.15
29 0.15
3 -0.53
30 0.15
31 0.15
32 0.15
33 0.15
34 0.15
35 0.15
36 0.15
37 0.15
38 0.15
39 0.45
4 -0.53
40 0.45
5 -0.57
6 0.03
7 0.03
8 -0.15
9 0.08

> <PUBCHEM_EFFECTIVE_ROTOR_COUNT>
7

> <PUBCHEM_PHARMACOPHORE_FEATURES>
7
1 1 acceptor
1 2 acceptor
1 3 donor
1 4 donor
1 5 acceptor
6 6 8 9 12 14 16 rings
6 7 10 11 13 15 17 rings

> <PUBCHEM_HEAVY_ATOM_COUNT>
26

> <PUBCHEM_ATOM_DEF_STEREO_COUNT>
0

> <PUBCHEM_ATOM_UDEF_STEREO_COUNT>
0

> <PUBCHEM_BOND_DEF_STEREO_COUNT>
3

> <PUBCHEM_BOND_UDEF_STEREO_COUNT>
0

> <PUBCHEM_ISOTOPIC_ATOM_COUNT>
0

> <PUBCHEM_COMPONENT_COUNT>
1

> <PUBCHEM_CACTVS_TAUTO_COUNT>
17

> <PUBCHEM_CONFORMER_ID>
00A662E400000078

> <PUBCHEM_MMFF94_ENERGY>
91.4919

> <PUBCHEM_FEATURE_SELFOVERLAP>
35.522

> <PUBCHEM_SHAPE_FINGERPRINT>
10 15 17203891881117074312
10299344 5 18408606967460802745
10625338 86 14836123234739225000
11135926 11 18335133181836464023
11409948 8 18198608967085894922
11524674 6 17131833183709772103
11991303 11 13768221518110995225
125118 31 10231751202378275610
13248334 5 17975978979170116029
1361 4 18411700959280646478
13668630 136 17821728351538256041
13685833 64 18409730647386602448
13885169 127 18335983086886870261
14178184 131 18129941308017094999
14251764 18 18273214213823439364
14344974 204 18058449988216339279
14556957 393 14346080763289539119
15183329 4 15430037655907194928
15352257 5 18410012134767939746
15419008 91 18115848802616671628
15716309 27 18341894108209599389
1768 124 18410856551756944854
18335252 98 18409449198385365472
18603816 31 17774993644971610415
18608769 82 18411415111810541368
19841028 212 18338234835540691650
20165401 70 18410571744039171254
20281389 69 11527952239842505480
20721686 56 18334862723541012707
21102433 48 18129944598901183359
21130935 74 18341333280275659328
21197605 99 18412263926999622910
21585483 132 18264191664714992875
23522609 53 18121251806966257117
33532 11 18335701620298913200
3663271 9 18130792226631453008
3711267 37 10735584861076961010
44389302 135 18340198585030870410
5758199 1 12535632669589186333
5937810 71 12035719891368674839
59682541 35 18060131051584977920
6441014 3 17115229162552306846
68570916 9 18340770467545498293
9831232 110 18336267834664785380
99344 41 18411700963132547530
9962374 69 18260264175289745900
999808 66 17968106360899123515

> <PUBCHEM_SHAPE_MULTIPOLES>
505.72
30.65
3.21
0.72
3.29
2.56
0.05
16.02
-4.26
-0.61
0.63
-0.43
0.11
-0.7

> <PUBCHEM_SHAPE_SELFOVERLAP>
1070.99

> <PUBCHEM_SHAPE_VOLUME>
282.9

> <PUBCHEM_COORDINATE_TYPE>
2
5
10

$$$$
