390474
  -OEChem-08272010423D

 44 45  0     0  0  0  0  0  0999 V2000
    8.1066    1.0923   -0.2812 O   0  0  0  0  0  0  0  0  0  0  0  0
    8.4355   -1.6607   -0.4680 O   0  0  0  0  0  0  0  0  0  0  0  0
   -8.7738    1.3728   -0.0414 O   0  0  0  0  0  0  0  0  0  0  0  0
   -9.1952   -1.3149    0.5255 O   0  0  0  0  0  0  0  0  0  0  0  0
    0.8094    1.6705    0.8450 O   0  0  0  0  0  0  0  0  0  0  0  0
   -1.4437    1.5684   -1.0801 O   0  0  0  0  0  0  0  0  0  0  0  0
    4.6775   -0.0546    0.1459 C   0  0  0  0  0  0  0  0  0  0  0  0
   -0.3558   -0.2747    0.0276 C   0  0  0  0  0  0  0  0  0  0  0  0
   -5.3769    0.0752   -0.2282 C   0  0  0  0  0  0  0  0  0  0  0  0
    5.7648    0.7967    0.0356 C   0  0  0  0  0  0  0  0  0  0  0  0
    7.0349    0.2586   -0.1719 C   0  0  0  0  0  0  0  0  0  0  0  0
    4.8249   -1.4293    0.0547 C   0  0  0  0  0  0  0  0  0  0  0  0
    3.3357    0.5136    0.3660 C   0  0  0  0  0  0  0  0  0  0  0  0
    7.2001   -1.1232   -0.2665 C   0  0  0  0  0  0  0  0  0  0  0  0
    0.8761    0.5424    0.3636 C   0  0  0  0  0  0  0  0  0  0  0  0
    6.0951   -1.9672   -0.1532 C   0  0  0  0  0  0  0  0  0  0  0  0
    2.1863   -0.1289    0.1153 C   0  0  0  0  0  0  0  0  0  0  0  0
   -4.0138    0.5663   -0.4975 C   0  0  0  0  0  0  0  0  0  0  0  0
   -1.5550    0.5224   -0.4459 C   0  0  0  0  0  0  0  0  0  0  0  0
   -6.4379    0.9656   -0.2628 C   0  0  0  0  0  0  0  0  0  0  0  0
   -5.5705   -1.2675    0.0531 C   0  0  0  0  0  0  0  0  0  0  0  0
   -2.8903   -0.0679   -0.1339 C   0  0  0  0  0  0  0  0  0  0  0  0
   -7.7281    0.5005   -0.0087 C   0  0  0  0  0  0  0  0  0  0  0  0
   -7.9397   -0.8484    0.2767 C   0  0  0  0  0  0  0  0  0  0  0  0
   -6.8609   -1.7324    0.3075 C   0  0  0  0  0  0  0  0  0  0  0  0
    8.7949    1.4244    0.9231 C   0  0  0  0  0  0  0  0  0  0  0  0
   -0.6163   -0.8338    0.9333 H   0  0  0  0  0  0  0  0  0  0  0  0
   -0.1219   -0.9900   -0.7689 H   0  0  0  0  0  0  0  0  0  0  0  0
    5.6445    1.8751    0.1060 H   0  0  0  0  0  0  0  0  0  0  0  0
    3.9980   -2.1245    0.1588 H   0  0  0  0  0  0  0  0  0  0  0  0
    3.3202    1.5316    0.7483 H   0  0  0  0  0  0  0  0  0  0  0  0
    6.2185   -3.0447   -0.2208 H   0  0  0  0  0  0  0  0  0  0  0  0
    2.1400   -1.1324   -0.2899 H   0  0  0  0  0  0  0  0  0  0  0  0
   -3.9588    1.5190   -1.0194 H   0  0  0  0  0  0  0  0  0  0  0  0
   -6.2822    2.0190   -0.4829 H   0  0  0  0  0  0  0  0  0  0  0  0
   -4.7649   -1.9947    0.0661 H   0  0  0  0  0  0  0  0  0  0  0  0
   -2.8829   -1.0048    0.4099 H   0  0  0  0  0  0  0  0  0  0  0  0
   -7.0129   -2.7867    0.5234 H   0  0  0  0  0  0  0  0  0  0  0  0
    9.0766   -0.9354   -0.5627 H   0  0  0  0  0  0  0  0  0  0  0  0
    9.1707    0.5232    1.4177 H   0  0  0  0  0  0  0  0  0  0  0  0
    8.1347    1.9760    1.5998 H   0  0  0  0  0  0  0  0  0  0  0  0
    9.6450    2.0628    0.6668 H   0  0  0  0  0  0  0  0  0  0  0  0
   -9.5893    0.8805    0.1572 H   0  0  0  0  0  0  0  0  0  0  0  0
   -9.1488   -2.2702    0.7026 H   0  0  0  0  0  0  0  0  0  0  0  0
  1 11  1  0  0  0  0
  1 26  1  0  0  0  0
  2 14  1  0  0  0  0
  2 39  1  0  0  0  0
  3 23  1  0  0  0  0
  3 43  1  0  0  0  0
  4 24  1  0  0  0  0
  4 44  1  0  0  0  0
  5 15  2  0  0  0  0
  6 19  2  0  0  0  0
  7 10  2  0  0  0  0
  7 12  1  0  0  0  0
  7 13  1  0  0  0  0
  8 15  1  0  0  0  0
  8 19  1  0  0  0  0
  8 27  1  0  0  0  0
  8 28  1  0  0  0  0
  9 18  1  0  0  0  0
  9 20  2  0  0  0  0
  9 21  1  0  0  0  0
 10 11  1  0  0  0  0
 10 29  1  0  0  0  0
 11 14  2  0  0  0  0
 12 16  2  0  0  0  0
 12 30  1  0  0  0  0
 13 17  2  3  0  0  0
 13 31  1  0  0  0  0
 14 16  1  0  0  0  0
 15 17  1  0  0  0  0
 16 32  1  0  0  0  0
 17 33  1  0  0  0  0
 18 22  2  3  0  0  0
 18 34  1  0  0  0  0
 19 22  1  0  0  0  0
 20 23  1  0  0  0  0
 20 35  1  0  0  0  0
 21 25  2  0  0  0  0
 21 36  1  0  0  0  0
 22 37  1  0  0  0  0
 23 24  2  0  0  0  0
 24 25  1  0  0  0  0
 25 38  1  0  0  0  0
 26 40  1  0  0  0  0
 26 41  1  0  0  0  0
 26 42  1  0  0  0  0
M  END
> <PUBCHEM_COMPOUND_CID>
390474

> <PUBCHEM_CONFORMER_RMSD>
1

> <PUBCHEM_CONFORMER_DIVERSEORDER>
1
57
178
83
99
65
84
102
149
46
52
116
67
171
12
47
90
166
173
50
79
179
105
148
4
91
155
98
34
109
58
115
85
181
160
93
165
2
152
87
140
62
167
172
88
77
118
136
75
38
64
156
101
61
145
151
106
6
63
133
7
169
185
142
8
32
95
111
163
89
23
96
40
73
126
154
100
129
60
71
68
3
170
137
120
110
117
132
131
69
124
35
22
177
42
128
10
114
33
138
5
80
144
86
161
18
119
72
158
162
125
26
37
112
130
45
134
27
108
70
121
176
113
19
153
147
183
44
159
21
174
41
107
43
28
182
180
168
59
186
55
17
74
164
104
53
184
92
78
14
20
157
103
16
48
122
81
54
97
30
135
127
66
49
146
150
94
175
39
25
31
82
29
9
141
56
139
76
123
11
143
36
15
51
13
24

> <PUBCHEM_MMFF94_PARTIAL_CHARGES>
39
1 -0.36
10 -0.15
11 0.08
12 -0.15
13 -0.18
14 0.08
15 0.49
16 -0.15
17 -0.14
18 -0.18
19 0.49
2 -0.53
20 -0.15
21 -0.15
22 -0.14
23 0.08
24 0.08
25 -0.15
26 0.28
29 0.15
3 -0.53
30 0.15
31 0.15
32 0.15
33 0.15
34 0.15
35 0.15
36 0.15
37 0.15
38 0.15
39 0.45
4 -0.53
43 0.45
44 0.45
5 -0.57
6 -0.57
7 0.03
8 0.12
9 0.03

> <PUBCHEM_EFFECTIVE_ROTOR_COUNT>
7

> <PUBCHEM_PHARMACOPHORE_FEATURES>
9
1 1 acceptor
1 2 donor
1 3 donor
1 4 donor
1 5 acceptor
1 6 acceptor
1 8 anion
6 7 10 11 12 14 16 rings
6 9 20 21 23 24 25 rings

> <PUBCHEM_HEAVY_ATOM_COUNT>
26

> <PUBCHEM_ATOM_DEF_STEREO_COUNT>
0

> <PUBCHEM_ATOM_UDEF_STEREO_COUNT>
0

> <PUBCHEM_BOND_DEF_STEREO_COUNT>
0

> <PUBCHEM_BOND_UDEF_STEREO_COUNT>
2

> <PUBCHEM_ISOTOPIC_ATOM_COUNT>
0

> <PUBCHEM_COMPONENT_COUNT>
1

> <PUBCHEM_CACTVS_TAUTO_COUNT>
254

> <PUBCHEM_CONFORMER_ID>
0005F54A00000001

> <PUBCHEM_MMFF94_ENERGY>
78.7428

> <PUBCHEM_FEATURE_SELFOVERLAP>
45.677

> <PUBCHEM_SHAPE_FINGERPRINT>
10 15 17704071806603389605
100830 39 18341050710594692601
10299344 5 18342739619634205175
11315181 36 18272373071239825625
11524674 6 17131830984760986751
12082328 90 18411417281069985813
13685833 64 18413671309660116738
13885169 127 18410012109652309169
13968360 50 13262669331650615464
14118638 360 15502646062394597828
14123256 10 15646771189045836685
14150022 121 18131073684871932425
14251764 18 17275106119708169848
14251764 46 18411136943705356552
14933364 13 18410009935797464245
15183329 4 18408604734330796187
15510794 2 18335422366073833554
15716309 27 18343863325255903783
15849732 13 18335138704293851999
1754911 235 9439406809507111131
18335252 98 18409166615164264850
18608769 82 18408319999252569047
19301679 30 17345765062526646110
19841028 212 18262798459234426890
21150785 3 15719392832575369375
21267235 1 18411702079797397885
21362267 20 18341893030827988351
21792961 116 18130503024707759653
232437 2 18408323276993019906
246663 6 18409732859046573719
249057 3 15719399459588529375
28498 318 18201719522557284085
3178227 256 17703790336264647686
33684 2 10953454133285540233
4073 2 18042125516980822170
67123 10 18409167722901888836

> <PUBCHEM_SHAPE_MULTIPOLES>
499.85
34.54
1.7
0.75
7.42
0.37
0.01
4.54
1.94
-0.85
0.04
-0.17
-0.11
1.46

> <PUBCHEM_SHAPE_SELFOVERLAP>
1063.161

> <PUBCHEM_SHAPE_VOLUME>
277.3

> <PUBCHEM_COORDINATE_TYPE>
2
5
10

$$$$
