572946
  -OEChem-08282002183D

 26 26  0     1  0  0  0  0  0999 V2000
    3.0144    0.1924   -0.4936 O   0  0  0  0  0  0  0  0  0  0  0  0
    0.7273    0.0103    0.1721 C   0  0  1  0  0  0  0  0  0  0  0  0
    0.3796    1.4630   -0.2177 C   0  0  0  0  0  0  0  0  0  0  0  0
   -0.6123   -0.6833   -0.0111 C   0  0  0  0  0  0  0  0  0  0  0  0
   -1.1192    1.6151    0.0222 C   0  0  0  0  0  0  0  0  0  0  0  0
   -1.6178    0.2060   -0.0891 C   0  0  0  0  0  0  0  0  0  0  0  0
    1.8278   -0.5329   -0.7466 C   0  0  0  0  0  0  0  0  0  0  0  0
    1.1852   -0.0648    1.6365 C   0  0  0  0  0  0  0  0  0  0  0  0
   -0.7042   -2.1733   -0.0402 C   0  0  0  0  0  0  0  0  0  0  0  0
   -3.0809   -0.0324   -0.2325 C   0  0  0  0  0  0  0  0  0  0  0  0
    0.5825    1.6438   -1.2825 H   0  0  0  0  0  0  0  0  0  0  0  0
    0.9518    2.2093    0.3448 H   0  0  0  0  0  0  0  0  0  0  0  0
   -1.5662    2.2747   -0.7281 H   0  0  0  0  0  0  0  0  0  0  0  0
   -1.3287    2.0164    1.0196 H   0  0  0  0  0  0  0  0  0  0  0  0
    1.5714   -0.4479   -1.8086 H   0  0  0  0  0  0  0  0  0  0  0  0
    2.0364   -1.5877   -0.5387 H   0  0  0  0  0  0  0  0  0  0  0  0
    1.4631   -1.0880    1.9141 H   0  0  0  0  0  0  0  0  0  0  0  0
    2.0518    0.5782    1.8259 H   0  0  0  0  0  0  0  0  0  0  0  0
    0.3928    0.2559    2.3233 H   0  0  0  0  0  0  0  0  0  0  0  0
   -0.2143   -2.5693   -0.9349 H   0  0  0  0  0  0  0  0  0  0  0  0
   -1.7362   -2.5326   -0.0458 H   0  0  0  0  0  0  0  0  0  0  0  0
   -0.2182   -2.6044    0.8406 H   0  0  0  0  0  0  0  0  0  0  0  0
   -3.3342   -1.0924   -0.3079 H   0  0  0  0  0  0  0  0  0  0  0  0
   -3.4559    0.4600   -1.1355 H   0  0  0  0  0  0  0  0  0  0  0  0
   -3.6161    0.3773    0.6302 H   0  0  0  0  0  0  0  0  0  0  0  0
    2.8910    1.0980   -0.8242 H   0  0  0  0  0  0  0  0  0  0  0  0
  1  7  1  0  0  0  0
  1 26  1  0  0  0  0
  2  3  1  0  0  0  0
  2  4  1  0  0  0  0
  2  7  1  0  0  0  0
  2  8  1  0  0  0  0
  3  5  1  0  0  0  0
  3 11  1  0  0  0  0
  3 12  1  0  0  0  0
  4  6  2  0  0  0  0
  4  9  1  0  0  0  0
  5  6  1  0  0  0  0
  5 13  1  0  0  0  0
  5 14  1  0  0  0  0
  6 10  1  0  0  0  0
  7 15  1  0  0  0  0
  7 16  1  0  0  0  0
  8 17  1  0  0  0  0
  8 18  1  0  0  0  0
  8 19  1  0  0  0  0
  9 20  1  0  0  0  0
  9 21  1  0  0  0  0
  9 22  1  0  0  0  0
 10 23  1  0  0  0  0
 10 24  1  0  0  0  0
 10 25  1  0  0  0  0
M  END
> <PUBCHEM_COMPOUND_CID>
572946

> <PUBCHEM_CONFORMER_RMSD>
0.4

> <PUBCHEM_CONFORMER_DIVERSEORDER>
1
4
5
3
2

> <PUBCHEM_MMFF94_PARTIAL_CHARGES>
9
1 -0.68
10 0.14
2 0.14
26 0.4
4 -0.28
5 0.14
6 -0.28
7 0.28
9 0.14

> <PUBCHEM_EFFECTIVE_ROTOR_COUNT>
1.6

> <PUBCHEM_PHARMACOPHORE_FEATURES>
3
1 1 acceptor
1 1 donor
5 2 3 4 5 6 rings

> <PUBCHEM_HEAVY_ATOM_COUNT>
10

> <PUBCHEM_ATOM_DEF_STEREO_COUNT>
0

> <PUBCHEM_ATOM_UDEF_STEREO_COUNT>
1

> <PUBCHEM_BOND_DEF_STEREO_COUNT>
0

> <PUBCHEM_BOND_UDEF_STEREO_COUNT>
0

> <PUBCHEM_ISOTOPIC_ATOM_COUNT>
0

> <PUBCHEM_COMPONENT_COUNT>
1

> <PUBCHEM_CACTVS_TAUTO_COUNT>
1

> <PUBCHEM_CONFORMER_ID>
0008BE1200000001

> <PUBCHEM_MMFF94_ENERGY>
20.7436

> <PUBCHEM_FEATURE_SELFOVERLAP>
15.223

> <PUBCHEM_SHAPE_FINGERPRINT>
12423570 1 10898682914756273168
12716758 59 18410578370761570202
13024252 1 16081950250672965220
14993402 34 18335420179518371781
16714656 1 18410297999158788621
16945 1 18410303526887297532
193761 8 17762059143809439925
21040471 1 18338789027163641779
21293036 1 18335138713168538485
23235685 24 18411135822987956733
23552423 10 17974572385979951503
2748010 2 18194399979182997789
29004967 10 15985100760988077934
369184 2 16298393486919673724
5084963 1 18131632266336268961
528886 8 18411422786869529065
68250623 7 17831033676882842324

> <PUBCHEM_SHAPE_MULTIPOLES>
199.93
3.29
1.67
0.97
0.2
0.35
0.37
-0.07
-0.6
0.47
-0.08
-0.51
0.03
0.02

> <PUBCHEM_SHAPE_SELFOVERLAP>
399.546

> <PUBCHEM_SHAPE_VOLUME>
122.4

> <PUBCHEM_COORDINATE_TYPE>
2
5
10

$$$$
