102165200
  -OEChem-08272012473D

 44 44  0     1  0  0  0  0  0999 V2000
    2.1307   -1.2874   -1.7901 O   0  0  0  0  0  0  0  0  0  0  0  0
    4.3269    0.1365    0.7747 O   0  0  0  0  0  0  0  0  0  0  0  0
   -4.2075   -0.2775   -1.2455 O   0  0  0  0  0  0  0  0  0  0  0  0
    0.7159    0.7657   -0.1155 C   0  0  2  0  0  0  0  0  0  0  0  0
    1.9598    0.9875   -0.9979 C   0  0  0  0  0  0  0  0  0  0  0  0
    0.0681    2.1099    0.2212 C   0  0  2  0  0  0  0  0  0  0  0  0
    2.8375   -0.2663   -1.0880 C   0  0  1  0  0  0  0  0  0  0  0  0
    3.2923   -0.7414    0.3135 C   0  0  2  0  0  0  0  0  0  0  0  0
    1.0347   -0.0036    1.1400 C   0  0  0  0  0  0  0  0  0  0  0  0
    2.1878   -0.6589    1.3375 C   0  0  0  0  0  0  0  0  0  0  0  0
   -1.2228    1.8821    1.0301 C   0  0  0  0  0  0  0  0  0  0  0  0
   -0.1911    2.8968   -1.0664 C   0  0  0  0  0  0  0  0  0  0  0  0
    3.8715   -2.1599    0.2714 C   0  0  0  0  0  0  0  0  0  0  0  0
   -2.2617    1.1045    0.2708 C   0  0  0  0  0  0  0  0  0  0  0  0
   -2.7067   -0.1053    0.6464 C   0  0  0  0  0  0  0  0  0  0  0  0
   -3.7471   -0.9410   -0.0670 C   0  0  0  0  0  0  0  0  0  0  0  0
   -3.1371   -2.2804   -0.4871 C   0  0  0  0  0  0  0  0  0  0  0  0
   -4.9513   -1.1613    0.8518 C   0  0  0  0  0  0  0  0  0  0  0  0
    0.0185    0.1477   -0.6966 H   0  0  0  0  0  0  0  0  0  0  0  0
    1.6475    1.2625   -2.0126 H   0  0  0  0  0  0  0  0  0  0  0  0
    2.5646    1.8146   -0.6033 H   0  0  0  0  0  0  0  0  0  0  0  0
    0.7456    2.7070    0.8473 H   0  0  0  0  0  0  0  0  0  0  0  0
    3.7242   -0.0228   -1.6871 H   0  0  0  0  0  0  0  0  0  0  0  0
    0.2989   -0.0898    1.9312 H   0  0  0  0  0  0  0  0  0  0  0  0
    2.3338   -1.1747    2.2839 H   0  0  0  0  0  0  0  0  0  0  0  0
   -1.6619    2.8646    1.2529 H   0  0  0  0  0  0  0  0  0  0  0  0
   -1.0307    1.4491    2.0161 H   0  0  0  0  0  0  0  0  0  0  0  0
   -0.6798    2.2897   -1.8359 H   0  0  0  0  0  0  0  0  0  0  0  0
    0.7379    3.2956   -1.4870 H   0  0  0  0  0  0  0  0  0  0  0  0
   -0.8328    3.7620   -0.8649 H   0  0  0  0  0  0  0  0  0  0  0  0
    4.6946   -2.2171   -0.4504 H   0  0  0  0  0  0  0  0  0  0  0  0
    4.2954   -2.4456    1.2418 H   0  0  0  0  0  0  0  0  0  0  0  0
    3.1181   -2.9066   -0.0011 H   0  0  0  0  0  0  0  0  0  0  0  0
    1.8976   -0.9355   -2.6660 H   0  0  0  0  0  0  0  0  0  0  0  0
   -2.6722    1.5775   -0.6166 H   0  0  0  0  0  0  0  0  0  0  0  0
    4.6374   -0.1817    1.6399 H   0  0  0  0  0  0  0  0  0  0  0  0
   -2.2870   -0.5479    1.5487 H   0  0  0  0  0  0  0  0  0  0  0  0
   -3.8717   -2.8945   -1.0209 H   0  0  0  0  0  0  0  0  0  0  0  0
   -2.7729   -2.8520    0.3736 H   0  0  0  0  0  0  0  0  0  0  0  0
   -2.3003   -2.1289   -1.1795 H   0  0  0  0  0  0  0  0  0  0  0  0
   -5.7240   -1.7537    0.3480 H   0  0  0  0  0  0  0  0  0  0  0  0
   -4.6714   -1.6783    1.7762 H   0  0  0  0  0  0  0  0  0  0  0  0
   -5.4202   -0.2065    1.1184 H   0  0  0  0  0  0  0  0  0  0  0  0
   -4.8722   -0.8451   -1.6718 H   0  0  0  0  0  0  0  0  0  0  0  0
  1  7  1  0  0  0  0
  1 34  1  0  0  0  0
  2  8  1  0  0  0  0
  2 36  1  0  0  0  0
  3 16  1  0  0  0  0
  3 44  1  0  0  0  0
  4  5  1  0  0  0  0
  4  6  1  0  0  0  0
  4  9  1  0  0  0  0
  4 19  1  0  0  0  0
  5  7  1  0  0  0  0
  5 20  1  0  0  0  0
  5 21  1  0  0  0  0
  6 11  1  0  0  0  0
  6 12  1  0  0  0  0
  6 22  1  0  0  0  0
  7  8  1  0  0  0  0
  7 23  1  0  0  0  0
  8 10  1  0  0  0  0
  8 13  1  0  0  0  0
  9 10  2  0  0  0  0
  9 24  1  0  0  0  0
 10 25  1  0  0  0  0
 11 14  1  0  0  0  0
 11 26  1  0  0  0  0
 11 27  1  0  0  0  0
 12 28  1  0  0  0  0
 12 29  1  0  0  0  0
 12 30  1  0  0  0  0
 13 31  1  0  0  0  0
 13 32  1  0  0  0  0
 13 33  1  0  0  0  0
 14 15  2  0  0  0  0
 14 35  1  0  0  0  0
 15 16  1  0  0  0  0
 15 37  1  0  0  0  0
 16 17  1  0  0  0  0
 16 18  1  0  0  0  0
 17 38  1  0  0  0  0
 17 39  1  0  0  0  0
 17 40  1  0  0  0  0
 18 41  1  0  0  0  0
 18 42  1  0  0  0  0
 18 43  1  0  0  0  0
M  END
> <PUBCHEM_COMPOUND_CID>
102165200

> <PUBCHEM_CONFORMER_RMSD>
0.6

> <PUBCHEM_CONFORMER_DIVERSEORDER>
8
12
149
141
125
72
192
145
87
17
213
120
215
187
139
6
67
207
5
143
11
182
108
195
35
154
196
167
176
169
74
88
53
18
101
153
179
105
16
51
93
78
31
38
80
123
158
34
210
48
208
64
70
171
211
61
3
71
82
102
113
75
163
160
165
29
128
96
32
193
2
172
43
157
199
57
44
59
40
47
60
14
134
147
107
114
174
106
83
121
189
63
65
97
137
19
26
21
159
204
212
15
111
39
58
122
110
99
66
206
155
56
181
23
109
136
150
184
86
185
180
95
49
203
162
46
112
13
103
177
118
41
36
126
91
175
89
202
191
37
201
52
127
188
84
166
20
190
85
205
138
81
197
77
28
198
146
183
194
45
135
100
115
170
68
131
42
54
130
168
7
73
90
144
217
161
173
200
25
129
151
27
24
62
98
209
142
216
104
94
164
124
30
1
119
116
69
156
133
22
92
79
33
152
132
117
178
9
4
214
10
148
50
76
186
140
55

> <PUBCHEM_MMFF94_PARTIAL_CHARGES>
19
1 -0.68
10 -0.29
11 0.14
14 -0.29
15 -0.29
16 0.42
2 -0.68
24 0.15
25 0.15
3 -0.68
34 0.4
35 0.15
36 0.4
37 0.15
4 0.14
44 0.4
7 0.28
8 0.42
9 -0.29

> <PUBCHEM_EFFECTIVE_ROTOR_COUNT>
4.8

> <PUBCHEM_PHARMACOPHORE_FEATURES>
9
1 1 acceptor
1 1 donor
1 12 hydrophobe
1 2 acceptor
1 2 donor
1 3 acceptor
1 3 donor
3 16 17 18 hydrophobe
6 4 5 7 8 9 10 rings

> <PUBCHEM_HEAVY_ATOM_COUNT>
18

> <PUBCHEM_ATOM_DEF_STEREO_COUNT>
4

> <PUBCHEM_ATOM_UDEF_STEREO_COUNT>
0

> <PUBCHEM_BOND_DEF_STEREO_COUNT>
1

> <PUBCHEM_BOND_UDEF_STEREO_COUNT>
0

> <PUBCHEM_ISOTOPIC_ATOM_COUNT>
0

> <PUBCHEM_COMPONENT_COUNT>
1

> <PUBCHEM_CACTVS_TAUTO_COUNT>
1

> <PUBCHEM_CONFORMER_ID>
0616EAD000000008

> <PUBCHEM_MMFF94_ENERGY>
37.5542

> <PUBCHEM_FEATURE_SELFOVERLAP>
45.671

> <PUBCHEM_SHAPE_FINGERPRINT>
10064457 181 16343699992812926838
10366900 7 16773789320715255811
10618630 7 18342738503042837459
11578080 2 18115005455686199692
11725454 13 14419835110196664980
11806522 49 18334856143044063912
12202030 40 17701825388515718332
12363563 72 18409172112427024243
12403259 327 15913055339283417659
12553582 1 18272382996239249013
12633257 1 16343693344187812275
12670545 2 18334007281607796463
12707595 3 18410855507884602441
12892183 10 14549020979040069151
13083527 12 18188199996729641972
13544653 18 18273208703427721873
13931106 250 18117549622518478197
14178342 30 17985840232617567808
1420 369 18411422791069999259
14252887 29 18273220806566388754
14289901 80 16200432463835202475
14787075 74 18334573586168312888
15309172 13 12031785842473740553
15342816 4 18409177609800507942
16752209 62 18337659825065284561
1798214 20 18187642505357328907
1813 80 18337968839055922413
18186145 218 12973604439063084445
18915474 69 18334579044348805890
19862831 5 17530684294849698417
200 152 17603301531737413192
20291156 8 18409450301827606523
20361792 2 18335422378663271121
20388580 30 18335987575037452233
20645477 70 18194963170255935319
20671657 53 18261114092944901313
21250096 35 18411698798837723931
21634736 98 18335148634384781924
21713013 43 17095243670231611147
22112679 90 18263945266319119625
22646028 28 18409167718680859243
23402539 116 18334294228235419296
23419403 2 18122872508611577112
23557571 272 18343022151494754088
23559900 14 18269546157597939528
2637199 183 8718554938289352644
276578 36 10447932767273165068
314173 41 18337683026204369291
339767 52 18337096934645559755
449060 23 18341619187320976745
568465 68 16845283891832700090
57100710 210 18190732051685353098
7808743 9 9366761002001713986
9882013 296 16630521851571979888

> <PUBCHEM_SHAPE_MULTIPOLES>
352.82
8.52
2.56
1.35
4.5
0.9
0.2
-6.22
-0.23
0.4
0.42
-0.36
-0.03
-0.36

> <PUBCHEM_SHAPE_SELFOVERLAP>
702.343

> <PUBCHEM_SHAPE_VOLUME>
208.1

> <PUBCHEM_COORDINATE_TYPE>
2
5
10

$$$$
