85945
  -OEChem-08272010283D

 27 28  0     1  0  0  0  0  0999 V2000
    1.6702   -1.8614    0.1908 O   0  0  0  0  0  0  0  0  0  0  0  0
   -1.3866   -0.1080   -0.3960 C   0  0  0  0  0  0  0  0  0  0  0  0
   -0.8835    1.1994    0.2899 C   0  0  1  0  0  0  0  0  0  0  0  0
   -0.5328   -0.8242    0.6945 C   0  0  2  0  0  0  0  0  0  0  0  0
   -0.9536    0.3744    1.6095 C   0  0  0  0  0  0  0  0  0  0  0  0
    0.5333    1.6012   -0.1575 C   0  0  0  0  0  0  0  0  0  0  0  0
    1.6053    0.5619    0.2490 C   0  0  1  0  0  0  0  0  0  0  0  0
    0.9945   -0.8422    0.3394 C   0  0  0  0  0  0  0  0  0  0  0  0
   -0.9586   -0.3570   -1.8267 C   0  0  0  0  0  0  0  0  0  0  0  0
   -2.8844   -0.3451   -0.2931 C   0  0  0  0  0  0  0  0  0  0  0  0
    2.7963    0.6011   -0.6997 C   0  0  0  0  0  0  0  0  0  0  0  0
   -1.5784    2.0445    0.2360 H   0  0  0  0  0  0  0  0  0  0  0  0
   -0.9031   -1.7993    1.0255 H   0  0  0  0  0  0  0  0  0  0  0  0
   -1.9279    0.2998    2.1004 H   0  0  0  0  0  0  0  0  0  0  0  0
   -0.2340    0.6584    2.3846 H   0  0  0  0  0  0  0  0  0  0  0  0
    0.7951    2.5565    0.3159 H   0  0  0  0  0  0  0  0  0  0  0  0
    0.5470    1.8006   -1.2354 H   0  0  0  0  0  0  0  0  0  0  0  0
    1.9535    0.8011    1.2622 H   0  0  0  0  0  0  0  0  0  0  0  0
   -1.2476   -1.3647   -2.1486 H   0  0  0  0  0  0  0  0  0  0  0  0
    0.1159   -0.2803   -2.0038 H   0  0  0  0  0  0  0  0  0  0  0  0
   -1.4428    0.3544   -2.5057 H   0  0  0  0  0  0  0  0  0  0  0  0
   -3.1343   -1.3741   -0.5774 H   0  0  0  0  0  0  0  0  0  0  0  0
   -3.4273    0.3231   -0.9721 H   0  0  0  0  0  0  0  0  0  0  0  0
   -3.3090   -0.1857    0.7008 H   0  0  0  0  0  0  0  0  0  0  0  0
    3.2184    1.6098   -0.7536 H   0  0  0  0  0  0  0  0  0  0  0  0
    3.5878   -0.0762   -0.3614 H   0  0  0  0  0  0  0  0  0  0  0  0
    2.5120    0.2929   -1.7115 H   0  0  0  0  0  0  0  0  0  0  0  0
  1  8  2  0  0  0  0
  2  3  1  0  0  0  0
  2  4  1  0  0  0  0
  2  9  1  0  0  0  0
  2 10  1  0  0  0  0
  3  5  1  0  0  0  0
  3  6  1  0  0  0  0
  3 12  1  0  0  0  0
  4  5  1  0  0  0  0
  4  8  1  0  0  0  0
  4 13  1  0  0  0  0
  5 14  1  0  0  0  0
  5 15  1  0  0  0  0
  6  7  1  0  0  0  0
  6 16  1  0  0  0  0
  6 17  1  0  0  0  0
  7  8  1  0  0  0  0
  7 11  1  0  0  0  0
  7 18  1  0  0  0  0
  9 19  1  0  0  0  0
  9 20  1  0  0  0  0
  9 21  1  0  0  0  0
 10 22  1  0  0  0  0
 10 23  1  0  0  0  0
 10 24  1  0  0  0  0
 11 25  1  0  0  0  0
 11 26  1  0  0  0  0
 11 27  1  0  0  0  0
M  END
> <PUBCHEM_COMPOUND_CID>
85945

> <PUBCHEM_CONFORMER_RMSD>
0.4

> <PUBCHEM_CONFORMER_DIVERSEORDER>
2
3
1

> <PUBCHEM_MMFF94_PARTIAL_CHARGES>
4
1 -0.57
4 0.05
7 0.06
8 0.46

> <PUBCHEM_EFFECTIVE_ROTOR_COUNT>
0.8

> <PUBCHEM_PHARMACOPHORE_FEATURES>
3
1 1 acceptor
3 2 9 10 hydrophobe
7 2 3 4 5 6 7 8 rings

> <PUBCHEM_HEAVY_ATOM_COUNT>
11

> <PUBCHEM_ATOM_DEF_STEREO_COUNT>
0

> <PUBCHEM_ATOM_UDEF_STEREO_COUNT>
3

> <PUBCHEM_BOND_DEF_STEREO_COUNT>
0

> <PUBCHEM_BOND_UDEF_STEREO_COUNT>
0

> <PUBCHEM_ISOTOPIC_ATOM_COUNT>
0

> <PUBCHEM_COMPONENT_COUNT>
1

> <PUBCHEM_CACTVS_TAUTO_COUNT>
2

> <PUBCHEM_CONFORMER_ID>
00014FB900000002

> <PUBCHEM_MMFF94_ENERGY>
35.9926

> <PUBCHEM_FEATURE_SELFOVERLAP>
15.223

> <PUBCHEM_SHAPE_FINGERPRINT>
12138202 97 17023180599646085595
12423570 1 10905815163201873385
12897270 3 18409164449909962548
13024252 1 18114753736242070696
137420 1 13449187035290386033
13839132 238 15575534887217876150
14128692 85 17773307040308206927
15557651 10 16951390165411241949
16945 1 18339356465526744433
18185500 45 18130212848111177678
23235685 24 18187924031768197420
23402539 116 16009295630231897503
23552423 10 18190459359378907090
241688 4 18047183055878261408
29004967 10 18336256916414858785
369184 2 18335140920718574296
5084963 1 18129956666334224568
528886 8 18336818801095149241
54276843 12 17773609388741592857
68250623 7 18194971746841583625

> <PUBCHEM_SHAPE_MULTIPOLES>
220.51
3.11
1.44
1.3
0.4
0.09
0.17
0.14
0.67
0.49
-0.13
-0.39
0.06
-0.34

> <PUBCHEM_SHAPE_SELFOVERLAP>
457.866

> <PUBCHEM_SHAPE_VOLUME>
128

> <PUBCHEM_COORDINATE_TYPE>
2
5
10

$$$$
