348482
  -OEChem-08272014483D

 62 66  0     1  0  0  0  0  0999 V2000
   -1.4337    1.0582    1.1996 O   0  0  0  0  0  0  0  0  0  0  0  0
   -2.7452    1.2203   -2.4734 O   0  0  0  0  0  0  0  0  0  0  0  0
    6.3654    0.6257   -0.6777 O   0  0  0  0  0  0  0  0  0  0  0  0
   -5.7941   -0.6388    0.4710 O   0  0  0  0  0  0  0  0  0  0  0  0
   -6.1379    1.5949    0.9053 O   0  0  0  0  0  0  0  0  0  0  0  0
   -0.6155    0.3556    0.2481 C   0  0  1  0  0  0  0  0  0  0  0  0
    0.8135    0.3315    0.8632 C   0  0  1  0  0  0  0  0  0  0  0  0
   -1.2110   -1.0582   -0.0206 C   0  0  1  0  0  0  0  0  0  0  0  0
    1.8013   -0.6009    0.1081 C   0  0  1  0  0  0  0  0  0  0  0  0
    3.2468   -0.5980    0.7427 C   0  0  2  0  0  0  0  0  0  0  0  0
    3.7679    0.8711    0.8621 C   0  0  2  0  0  0  0  0  0  0  0  0
   -2.3773   -0.7677   -1.0234 C   0  0  2  0  0  0  0  0  0  0  0  0
   -0.1662   -1.9697   -0.7220 C   0  0  0  0  0  0  0  0  0  0  0  0
    1.1874   -2.0078   -0.0179 C   0  0  0  0  0  0  0  0  0  0  0  0
   -0.7302    1.0882   -1.1092 C   0  0  0  0  0  0  0  0  0  0  0  0
    1.3800    1.7569    1.0221 C   0  0  0  0  0  0  0  0  0  0  0  0
   -1.7828    0.3299   -1.9342 C   0  0  2  0  0  0  0  0  0  0  0  0
    2.7815    1.7702    1.6216 C   0  0  0  0  0  0  0  0  0  0  0  0
    4.2688   -1.4115   -0.1062 C   0  0  0  0  0  0  0  0  0  0  0  0
   -1.6941   -1.7622    1.2643 C   0  0  0  0  0  0  0  0  0  0  0  0
    4.1162    1.4953   -0.5104 C   0  0  0  0  0  0  0  0  0  0  0  0
    3.2414   -1.2553    2.1484 C   0  0  0  0  0  0  0  0  0  0  0  0
    4.5923   -0.7892   -1.4635 C   0  0  0  0  0  0  0  0  0  0  0  0
    5.0916    0.6435   -1.3189 C   0  0  2  0  0  0  0  0  0  0  0  0
   -3.6938   -0.3904   -0.4054 C   0  0  0  0  0  0  0  0  0  0  0  0
   -4.7220   -1.4031   -0.0908 C   0  0  0  0  0  0  0  0  0  0  0  0
   -4.1033    0.8306   -0.0721 C   0  0  0  0  0  0  0  0  0  0  0  0
   -5.4468    0.6811    0.4893 C   0  0  0  0  0  0  0  0  0  0  0  0
    0.6975   -0.0588    1.8837 H   0  0  0  0  0  0  0  0  0  0  0  0
    1.8941   -0.2123   -0.9127 H   0  0  0  0  0  0  0  0  0  0  0  0
    4.6991    0.8582    1.4466 H   0  0  0  0  0  0  0  0  0  0  0  0
   -2.5691   -1.6513   -1.6482 H   0  0  0  0  0  0  0  0  0  0  0  0
    0.0087   -1.6483   -1.7554 H   0  0  0  0  0  0  0  0  0  0  0  0
   -0.5594   -2.9920   -0.7970 H   0  0  0  0  0  0  0  0  0  0  0  0
    1.0767   -2.4762    0.9649 H   0  0  0  0  0  0  0  0  0  0  0  0
    1.8419   -2.6605   -0.6037 H   0  0  0  0  0  0  0  0  0  0  0  0
    0.2150    1.0566   -1.6614 H   0  0  0  0  0  0  0  0  0  0  0  0
   -1.0020    2.1434   -0.9930 H   0  0  0  0  0  0  0  0  0  0  0  0
    0.7354    2.3526    1.6784 H   0  0  0  0  0  0  0  0  0  0  0  0
    1.3948    2.2747    0.0573 H   0  0  0  0  0  0  0  0  0  0  0  0
   -1.2799   -0.1365   -2.7903 H   0  0  0  0  0  0  0  0  0  0  0  0
    3.1553    2.8014    1.6410 H   0  0  0  0  0  0  0  0  0  0  0  0
    2.7259    1.4547    2.6702 H   0  0  0  0  0  0  0  0  0  0  0  0
    3.9281   -2.4414   -0.2552 H   0  0  0  0  0  0  0  0  0  0  0  0
    5.2085   -1.5012    0.4571 H   0  0  0  0  0  0  0  0  0  0  0  0
   -0.8679   -1.9346    1.9615 H   0  0  0  0  0  0  0  0  0  0  0  0
   -2.4389   -1.1797    1.8149 H   0  0  0  0  0  0  0  0  0  0  0  0
   -2.1326   -2.7391    1.0332 H   0  0  0  0  0  0  0  0  0  0  0  0
    3.2128    1.6539   -1.1087 H   0  0  0  0  0  0  0  0  0  0  0  0
    4.5632    2.4829   -0.3393 H   0  0  0  0  0  0  0  0  0  0  0  0
    4.2212   -1.1532    2.6300 H   0  0  0  0  0  0  0  0  0  0  0  0
    2.5059   -0.8123    2.8241 H   0  0  0  0  0  0  0  0  0  0  0  0
    3.0298   -2.3282    2.0885 H   0  0  0  0  0  0  0  0  0  0  0  0
    5.3595   -1.4030   -1.9509 H   0  0  0  0  0  0  0  0  0  0  0  0
    3.7075   -0.8138   -2.1090 H   0  0  0  0  0  0  0  0  0  0  0  0
    5.2327    1.0923   -2.3084 H   0  0  0  0  0  0  0  0  0  0  0  0
   -1.2590    2.0105    1.1237 H   0  0  0  0  0  0  0  0  0  0  0  0
   -3.3613    0.6928   -3.0100 H   0  0  0  0  0  0  0  0  0  0  0  0
   -5.0855   -1.9129   -0.9880 H   0  0  0  0  0  0  0  0  0  0  0  0
   -4.3978   -2.1417    0.6449 H   0  0  0  0  0  0  0  0  0  0  0  0
   -3.5998    1.7773   -0.1591 H   0  0  0  0  0  0  0  0  0  0  0  0
    6.9672    0.1019   -1.2336 H   0  0  0  0  0  0  0  0  0  0  0  0
  1  6  1  0  0  0  0
  1 57  1  0  0  0  0
  2 17  1  0  0  0  0
  2 58  1  0  0  0  0
  3 24  1  0  0  0  0
  3 62  1  0  0  0  0
  4 26  1  0  0  0  0
  4 28  1  0  0  0  0
  5 28  2  0  0  0  0
  6  7  1  0  0  0  0
  6  8  1  0  0  0  0
  6 15  1  0  0  0  0
  7  9  1  0  0  0  0
  7 16  1  0  0  0  0
  7 29  1  0  0  0  0
  8 12  1  0  0  0  0
  8 13  1  0  0  0  0
  8 20  1  0  0  0  0
  9 10  1  0  0  0  0
  9 14  1  0  0  0  0
  9 30  1  0  0  0  0
 10 11  1  0  0  0  0
 10 19  1  0  0  0  0
 10 22  1  0  0  0  0
 11 18  1  0  0  0  0
 11 21  1  0  0  0  0
 11 31  1  0  0  0  0
 12 17  1  0  0  0  0
 12 25  1  0  0  0  0
 12 32  1  0  0  0  0
 13 14  1  0  0  0  0
 13 33  1  0  0  0  0
 13 34  1  0  0  0  0
 14 35  1  0  0  0  0
 14 36  1  0  0  0  0
 15 17  1  0  0  0  0
 15 37  1  0  0  0  0
 15 38  1  0  0  0  0
 16 18  1  0  0  0  0
 16 39  1  0  0  0  0
 16 40  1  0  0  0  0
 17 41  1  0  0  0  0
 18 42  1  0  0  0  0
 18 43  1  0  0  0  0
 19 23  1  0  0  0  0
 19 44  1  0  0  0  0
 19 45  1  0  0  0  0
 20 46  1  0  0  0  0
 20 47  1  0  0  0  0
 20 48  1  0  0  0  0
 21 24  1  0  0  0  0
 21 49  1  0  0  0  0
 21 50  1  0  0  0  0
 22 51  1  0  0  0  0
 22 52  1  0  0  0  0
 22 53  1  0  0  0  0
 23 24  1  0  0  0  0
 23 54  1  0  0  0  0
 23 55  1  0  0  0  0
 24 56  1  0  0  0  0
 25 26  1  0  0  0  0
 25 27  2  0  0  0  0
 26 59  1  0  0  0  0
 26 60  1  0  0  0  0
 27 28  1  0  0  0  0
 27 61  1  0  0  0  0
M  END
> <PUBCHEM_COMPOUND_CID>
348482

> <PUBCHEM_CONFORMER_RMSD>
0.8

> <PUBCHEM_CONFORMER_DIVERSEORDER>
3
1
5
2
4

> <PUBCHEM_MMFF94_PARTIAL_CHARGES>
17
1 -0.68
12 0.14
17 0.28
2 -0.68
24 0.28
25 -0.28
26 0.42
27 -0.14
28 0.71
3 -0.68
4 -0.43
5 -0.57
57 0.4
58 0.4
6 0.28
61 0.15
62 0.4

> <PUBCHEM_EFFECTIVE_ROTOR_COUNT>
3.6

> <PUBCHEM_PHARMACOPHORE_FEATURES>
12
1 1 acceptor
1 1 donor
1 2 acceptor
1 2 donor
1 3 acceptor
1 3 donor
1 5 acceptor
5 4 25 26 27 28 rings
5 6 8 12 15 17 rings
6 10 11 19 21 23 24 rings
6 6 7 8 9 13 14 rings
6 7 9 10 11 16 18 rings

> <PUBCHEM_HEAVY_ATOM_COUNT>
28

> <PUBCHEM_ATOM_DEF_STEREO_COUNT>
9

> <PUBCHEM_ATOM_UDEF_STEREO_COUNT>
0

> <PUBCHEM_BOND_DEF_STEREO_COUNT>
0

> <PUBCHEM_BOND_UDEF_STEREO_COUNT>
0

> <PUBCHEM_ISOTOPIC_ATOM_COUNT>
0

> <PUBCHEM_COMPONENT_COUNT>
1

> <PUBCHEM_CACTVS_TAUTO_COUNT>
1

> <PUBCHEM_CONFORMER_ID>
0005514200000003

> <PUBCHEM_MMFF94_ENERGY>
99.6461

> <PUBCHEM_FEATURE_SELFOVERLAP>
61.138

> <PUBCHEM_SHAPE_FINGERPRINT>
10 15 8718541663732488102
10165383 225 18334300876897755478
10674148 151 17989215820142555168
11405975 8 14117511086351410006
11595378 159 15936397931895358189
11796584 16 14045741547459776068
12011746 2 18272095997607580466
12236239 1 18410015428981222146
12403259 415 18335973220739953325
12403814 3 17894621570213194343
12553582 1 18059844069959040056
12596602 18 14923942344993776509
12788726 201 17988368074374795504
128620 24 16153703219612504846
13140716 1 18198042850163795106
13224815 77 18335692858507652470
13583140 156 15696859540097171907
13675066 3 16988552541912692539
14251758 9 16630807694831195429
14289901 80 17022890229575606123
14787075 74 15430039889522225989
14790565 3 18341900692399667473
14840074 17 17458071494695089775
15183329 4 14979961345879612141
15238133 3 18340761564119777474
15301273 46 17967819336808912929
15475509 8 17488765379649715112
15788980 27 15267340738638645239
1601671 61 18343302552360180539
16945 1 18127384835569664991
17349148 13 10952055584338305739
17818456 19 16128664045692779225
1813 80 17022899064908864341
18186145 218 18272071829879392380
19377110 9 16660357086902095160
19489759 90 11383839259733053287
19862831 5 18201999954215722192
20691752 17 17823960407155179438
20832881 197 17917713478869869530
21279426 13 18131075887688241173
21315764 371 13479134566487373433
22149856 69 12613039323888971845
23522609 53 18189919576563970261
23559900 14 17346313843140299984
3004659 81 18340211804670649086
34797466 226 15213023734750617947
350125 39 18342177739286117072
392239 28 14851900161330434701
4098825 35 18334582292108693766
4325135 7 16877942754284269039
4340502 62 13912326797844529936
460360 51 18045766897728565449
5104073 3 18411973685408761691
542803 24 18335138695751383083
58260988 393 15791728577222128581
59755656 215 16917076507721019581
633830 44 17917417770007679324
6913067 236 8574431993518430155
7226269 152 12247688162271002867

> <PUBCHEM_SHAPE_MULTIPOLES>
546.88
12.47
1.96
1.71
4.31
0.17
-0.28
-2.25
-0.75
-0.25
0.35
-0.6
-0.24
0.02

> <PUBCHEM_SHAPE_SELFOVERLAP>
1185.333

> <PUBCHEM_SHAPE_VOLUME>
296.9

> <PUBCHEM_COORDINATE_TYPE>
2
5
10

$$$$
