557211
  -OEChem-08272014373D

 23 24  0     1  0  0  0  0  0999 V2000
   -0.0005    1.4165    1.1631 O   0  0  0  0  0  0  0  0  0  0  0  0
    0.0007   -2.3511   -0.2794 O   0  0  0  0  0  0  0  0  0  0  0  0
   -1.1320    1.0558    0.3357 C   0  0  2  0  0  0  0  0  0  0  0  0
    1.1314    1.0564    0.3357 C   0  0  1  0  0  0  0  0  0  0  0  0
   -1.3141   -0.4652    0.4980 C   0  0  2  0  0  0  0  0  0  0  0  0
    1.3143   -0.4647    0.4981 C   0  0  1  0  0  0  0  0  0  0  0  0
    0.0003   -1.1986    0.1546 C   0  0  0  0  0  0  0  0  0  0  0  0
   -0.6682    1.4683   -1.0262 C   0  0  0  0  0  0  0  0  0  0  0  0
    0.6675    1.4686   -1.0262 C   0  0  0  0  0  0  0  0  0  0  0  0
   -2.4823   -0.9937   -0.3267 C   0  0  0  0  0  0  0  0  0  0  0  0
    2.4828   -0.9923   -0.3267 C   0  0  0  0  0  0  0  0  0  0  0  0
   -2.0035    1.6247    0.6719 H   0  0  0  0  0  0  0  0  0  0  0  0
    2.0027    1.6257    0.6720 H   0  0  0  0  0  0  0  0  0  0  0  0
   -1.4968   -0.6803    1.5592 H   0  0  0  0  0  0  0  0  0  0  0  0
    1.4972   -0.6798    1.5593 H   0  0  0  0  0  0  0  0  0  0  0  0
   -1.3010    1.6728   -1.8753 H   0  0  0  0  0  0  0  0  0  0  0  0
    1.3002    1.6734   -1.8754 H   0  0  0  0  0  0  0  0  0  0  0  0
   -2.2896   -0.9106   -1.4016 H   0  0  0  0  0  0  0  0  0  0  0  0
   -2.6611   -2.0526   -0.1103 H   0  0  0  0  0  0  0  0  0  0  0  0
   -3.4019   -0.4459   -0.0970 H   0  0  0  0  0  0  0  0  0  0  0  0
    3.4021   -0.4439   -0.0970 H   0  0  0  0  0  0  0  0  0  0  0  0
    2.6624   -2.0511   -0.1104 H   0  0  0  0  0  0  0  0  0  0  0  0
    2.2900   -0.9092   -1.4016 H   0  0  0  0  0  0  0  0  0  0  0  0
  1  3  1  0  0  0  0
  1  4  1  0  0  0  0
  2  7  2  0  0  0  0
  3  5  1  0  0  0  0
  3  8  1  0  0  0  0
  3 12  1  0  0  0  0
  4  6  1  0  0  0  0
  4  9  1  0  0  0  0
  4 13  1  0  0  0  0
  5  7  1  0  0  0  0
  5 10  1  0  0  0  0
  5 14  1  0  0  0  0
  6  7  1  0  0  0  0
  6 11  1  0  0  0  0
  6 15  1  0  0  0  0
  8  9  2  0  0  0  0
  8 16  1  0  0  0  0
  9 17  1  0  0  0  0
 10 18  1  0  0  0  0
 10 19  1  0  0  0  0
 10 20  1  0  0  0  0
 11 21  1  0  0  0  0
 11 22  1  0  0  0  0
 11 23  1  0  0  0  0
M  END
> <PUBCHEM_COMPOUND_CID>
557211

> <PUBCHEM_CONFORMER_RMSD>
0.4

> <PUBCHEM_CONFORMER_DIVERSEORDER>
4
1
2
3

> <PUBCHEM_MMFF94_PARTIAL_CHARGES>
11
1 -0.56
16 0.15
17 0.15
2 -0.57
3 0.42
4 0.42
5 0.06
6 0.06
7 0.45
8 -0.29
9 -0.29

> <PUBCHEM_EFFECTIVE_ROTOR_COUNT>
0.6

> <PUBCHEM_PHARMACOPHORE_FEATURES>
3
1 1 acceptor
1 2 acceptor
8 1 3 4 5 6 7 8 9 rings

> <PUBCHEM_HEAVY_ATOM_COUNT>
11

> <PUBCHEM_ATOM_DEF_STEREO_COUNT>
0

> <PUBCHEM_ATOM_UDEF_STEREO_COUNT>
4

> <PUBCHEM_BOND_DEF_STEREO_COUNT>
0

> <PUBCHEM_BOND_UDEF_STEREO_COUNT>
0

> <PUBCHEM_ISOTOPIC_ATOM_COUNT>
0

> <PUBCHEM_COMPONENT_COUNT>
1

> <PUBCHEM_CACTVS_TAUTO_COUNT>
2

> <PUBCHEM_CONFORMER_ID>
0008809B00000004

> <PUBCHEM_MMFF94_ENERGY>
25.3525

> <PUBCHEM_FEATURE_SELFOVERLAP>
15.223

> <PUBCHEM_SHAPE_FINGERPRINT>
12423570 1 11604266004768451776
13024252 1 15431755007402238464
137420 1 11713730715197149541
14128692 85 18411145752709693518
15557651 10 14216347969036409116
16945 1 18113617889016696019
18185500 45 17904765831435480762
21040471 1 17761772162668753579
241688 4 18334857182056663440
2748010 2 18409158913713013709
5084963 1 18408322189632804770

> <PUBCHEM_SHAPE_MULTIPOLES>
214.64
2.44
2.11
0.99
0
0.27
0.01
0.97
0.24
0
0.34
0
-0.36
0

> <PUBCHEM_SHAPE_SELFOVERLAP>
454.88

> <PUBCHEM_SHAPE_VOLUME>
121.2

> <PUBCHEM_COORDINATE_TYPE>
2
5
10

$$$$
