14287399
  -OEChem-08272012203D

 42 42  0     1  0  0  0  0  0999 V2000
   -1.9287    2.3118   -1.1796 O   0  0  0  0  0  0  0  0  0  0  0  0
   -3.8670    1.6917    0.9946 O   0  0  0  0  0  0  0  0  0  0  0  0
    2.4740   -1.2366    1.2380 O   0  0  0  0  0  0  0  0  0  0  0  0
   -0.5965   -0.8175    0.4408 C   0  0  2  0  0  0  0  0  0  0  0  0
   -0.8192    0.2598   -0.6327 C   0  0  0  0  0  0  0  0  0  0  0  0
   -1.8050    1.3266   -0.1566 C   0  0  2  0  0  0  0  0  0  0  0  0
    0.0980   -2.0340   -0.1717 C   0  0  2  0  0  0  0  0  0  0  0  0
   -3.1805    0.7172    0.1989 C   0  0  1  0  0  0  0  0  0  0  0  0
   -1.8748   -1.2193    1.1303 C   0  0  0  0  0  0  0  0  0  0  0  0
   -3.0269   -0.5426    1.0161 C   0  0  0  0  0  0  0  0  0  0  0  0
    1.3991   -1.6360   -0.8848 C   0  0  0  0  0  0  0  0  0  0  0  0
   -0.8453   -2.7313   -1.1534 C   0  0  0  0  0  0  0  0  0  0  0  0
   -4.0518    0.4289   -1.0305 C   0  0  0  0  0  0  0  0  0  0  0  0
    2.4035   -0.9707    0.0414 C   0  0  0  0  0  0  0  0  0  0  0  0
    3.3519   -0.0205   -0.6072 C   0  0  0  0  0  0  0  0  0  0  0  0
    3.8833    1.0632   -0.0149 C   0  0  0  0  0  0  0  0  0  0  0  0
    4.8404    2.0342   -0.6483 C   0  0  0  0  0  0  0  0  0  0  0  0
    3.5457    1.3752    1.4197 C   0  0  0  0  0  0  0  0  0  0  0  0
    0.0407   -0.3880    1.2242 H   0  0  0  0  0  0  0  0  0  0  0  0
    0.1270    0.7619   -0.8712 H   0  0  0  0  0  0  0  0  0  0  0  0
   -1.1771   -0.1440   -1.5842 H   0  0  0  0  0  0  0  0  0  0  0  0
   -1.3899    1.8440    0.7178 H   0  0  0  0  0  0  0  0  0  0  0  0
    0.3391   -2.7461    0.6296 H   0  0  0  0  0  0  0  0  0  0  0  0
   -1.8505   -2.0960    1.7729 H   0  0  0  0  0  0  0  0  0  0  0  0
   -3.9017   -0.9142    1.5444 H   0  0  0  0  0  0  0  0  0  0  0  0
    1.2052   -0.9937   -1.7505 H   0  0  0  0  0  0  0  0  0  0  0  0
    1.8868   -2.5396   -1.2733 H   0  0  0  0  0  0  0  0  0  0  0  0
   -1.7933   -3.0307   -0.6971 H   0  0  0  0  0  0  0  0  0  0  0  0
   -0.3742   -3.6561   -1.5090 H   0  0  0  0  0  0  0  0  0  0  0  0
   -1.0620   -2.1406   -2.0473 H   0  0  0  0  0  0  0  0  0  0  0  0
   -4.3059    1.3514   -1.5644 H   0  0  0  0  0  0  0  0  0  0  0  0
   -3.5654   -0.2597   -1.7290 H   0  0  0  0  0  0  0  0  0  0  0  0
   -5.0105   -0.0149   -0.7345 H   0  0  0  0  0  0  0  0  0  0  0  0
   -2.1042    1.8619   -2.0231 H   0  0  0  0  0  0  0  0  0  0  0  0
   -4.7468    1.3401    1.2151 H   0  0  0  0  0  0  0  0  0  0  0  0
    3.5735   -0.2206   -1.6521 H   0  0  0  0  0  0  0  0  0  0  0  0
    5.0810    1.7439   -1.6763 H   0  0  0  0  0  0  0  0  0  0  0  0
    4.4050    3.0382   -0.6770 H   0  0  0  0  0  0  0  0  0  0  0  0
    5.7769    2.0715   -0.0827 H   0  0  0  0  0  0  0  0  0  0  0  0
    4.1909    0.8090    2.0988 H   0  0  0  0  0  0  0  0  0  0  0  0
    3.7032    2.4402    1.6268 H   0  0  0  0  0  0  0  0  0  0  0  0
    2.4952    1.1841    1.6594 H   0  0  0  0  0  0  0  0  0  0  0  0
  1  6  1  0  0  0  0
  1 34  1  0  0  0  0
  2  8  1  0  0  0  0
  2 35  1  0  0  0  0
  3 14  2  0  0  0  0
  4  5  1  0  0  0  0
  4  7  1  0  0  0  0
  4  9  1  0  0  0  0
  4 19  1  0  0  0  0
  5  6  1  0  0  0  0
  5 20  1  0  0  0  0
  5 21  1  0  0  0  0
  6  8  1  0  0  0  0
  6 22  1  0  0  0  0
  7 11  1  0  0  0  0
  7 12  1  0  0  0  0
  7 23  1  0  0  0  0
  8 10  1  0  0  0  0
  8 13  1  0  0  0  0
  9 10  2  0  0  0  0
  9 24  1  0  0  0  0
 10 25  1  0  0  0  0
 11 14  1  0  0  0  0
 11 26  1  0  0  0  0
 11 27  1  0  0  0  0
 12 28  1  0  0  0  0
 12 29  1  0  0  0  0
 12 30  1  0  0  0  0
 13 31  1  0  0  0  0
 13 32  1  0  0  0  0
 13 33  1  0  0  0  0
 14 15  1  0  0  0  0
 15 16  2  0  0  0  0
 15 36  1  0  0  0  0
 16 17  1  0  0  0  0
 16 18  1  0  0  0  0
 17 37  1  0  0  0  0
 17 38  1  0  0  0  0
 17 39  1  0  0  0  0
 18 40  1  0  0  0  0
 18 41  1  0  0  0  0
 18 42  1  0  0  0  0
M  END
> <PUBCHEM_COMPOUND_CID>
14287399

> <PUBCHEM_CONFORMER_RMSD>
0.6

> <PUBCHEM_CONFORMER_DIVERSEORDER>
3
37
68
36
72
69
15
46
65
50
19
73
66
54
41
4
45
11
55
64
57
29
21
75
22
44
60
27
7
56
51
14
53
43
31
67
30
23
48
58
39
18
76
13
35
28
1
10
6
70
47
25
62
12
17
34
77
52
9
71
49
59
63
24
74
2
38
61
20
16
5
26
78
8
42
32
40
33

> <PUBCHEM_MMFF94_PARTIAL_CHARGES>
19
1 -0.68
10 -0.29
11 0.06
14 0.49
15 -0.14
16 -0.28
17 0.14
18 0.14
2 -0.68
24 0.15
25 0.15
3 -0.57
34 0.4
35 0.4
36 0.15
4 0.14
6 0.28
8 0.42
9 -0.29

> <PUBCHEM_EFFECTIVE_ROTOR_COUNT>
4.8

> <PUBCHEM_PHARMACOPHORE_FEATURES>
8
1 1 acceptor
1 1 donor
1 12 hydrophobe
1 2 acceptor
1 2 donor
1 3 acceptor
3 16 17 18 hydrophobe
6 4 5 6 8 9 10 rings

> <PUBCHEM_HEAVY_ATOM_COUNT>
18

> <PUBCHEM_ATOM_DEF_STEREO_COUNT>
4

> <PUBCHEM_ATOM_UDEF_STEREO_COUNT>
0

> <PUBCHEM_BOND_DEF_STEREO_COUNT>
0

> <PUBCHEM_BOND_UDEF_STEREO_COUNT>
0

> <PUBCHEM_ISOTOPIC_ATOM_COUNT>
0

> <PUBCHEM_COMPONENT_COUNT>
1

> <PUBCHEM_CACTVS_TAUTO_COUNT>
5

> <PUBCHEM_CONFORMER_ID>
00DA022700000003

> <PUBCHEM_MMFF94_ENERGY>
41.4413

> <PUBCHEM_FEATURE_SELFOVERLAP>
40.598

> <PUBCHEM_SHAPE_FINGERPRINT>
10498660 4 18341047527379620364
10608611 8 18263365780698741543
10618630 7 8502659199099522818
10759866 29 18187086165949491368
10871710 139 17905047302465358260
11132069 177 18186243917982053549
11543360 7 16774074085510165157
11615756 256 18270689653542870560
11759241 127 18341605989139619183
12173636 292 18202559596580173575
122479 349 18409733975738109786
12403260 363 18194387918799071691
12633257 1 18116148874689776442
13083527 12 17682422569267398635
13583140 156 17458615701178992306
14026960 21 18408045099970638630
14123255 52 18341053003626310038
14251764 30 13254220783445436397
14251764 38 17970893475818772492
14341114 328 17023190495662334848
15342168 16 18271254824273822153
15775835 57 18411421747809287834
15885798 251 8214144079358764991
16945 1 17969796176642023975
17492 54 18267561655021102359
17834072 32 18339084920873618492
1798214 55 18342457058484683232
18186145 218 18200593579658570446
20671657 1 18200589203456654490
21524375 3 18413102840758609806
23227448 37 18196374942690303100
23557571 272 18262257589264287931
23559900 14 18114747006081383714
27216 239 18336551628327853458
3524813 1 18340485659811134056
44154327 71 18335423482596590460
458136 41 17916599643410792263
474 4 18270686342296924721
4921388 177 15267061501208144412
633830 44 18130515110903642061
7097593 13 17606384467979621930
7808743 9 18266182914880072748
90316 7 16732983106955693845

> <PUBCHEM_SHAPE_MULTIPOLES>
352.82
8.31
2.59
1.29
5.05
0.47
-0.15
-5.86
-0.19
-0.05
0.6
-0.14
-0.02
0.12

> <PUBCHEM_SHAPE_SELFOVERLAP>
706.622

> <PUBCHEM_SHAPE_VOLUME>
207.1

> <PUBCHEM_COORDINATE_TYPE>
2
5
10

$$$$
