91700388
  -OEChem-08272012173D

 41 42  0     1  0  0  0  0  0999 V2000
    0.7939    0.7009   -0.1012 O   0  0  0  0  0  0  0  0  0  0  0  0
    4.3346   -0.1413    0.0857 O   0  0  0  0  0  0  0  0  0  0  0  0
    0.3952   -0.6167   -0.4832 C   0  0  2  0  0  0  0  0  0  0  0  0
   -1.1317   -0.6523   -0.3266 C   0  0  1  0  0  0  0  0  0  0  0  0
    1.0195   -1.6442    0.4667 C   0  0  0  0  0  0  0  0  0  0  0  0
   -1.5472   -0.3521    1.1171 C   0  0  0  0  0  0  0  0  0  0  0  0
   -1.8020    0.3406   -1.2896 C   0  0  0  0  0  0  0  0  0  0  0  0
    2.1606    0.9244    0.2069 C   0  0  0  0  0  0  0  0  0  0  0  0
    2.5347   -1.6621    0.3806 C   0  0  0  0  0  0  0  0  0  0  0  0
    0.7381   -0.8662   -1.9575 C   0  0  0  0  0  0  0  0  0  0  0  0
   -3.0671   -0.4411    1.2863 C   0  0  0  0  0  0  0  0  0  0  0  0
    3.1145   -0.2819    0.1993 C   0  0  0  0  0  0  0  0  0  0  0  0
   -3.2541    0.5693   -0.9873 C   0  0  0  0  0  0  0  0  0  0  0  0
   -3.8413    0.2075    0.1663 C   0  0  0  0  0  0  0  0  0  0  0  0
    2.6625    1.9709   -0.7956 C   0  0  0  0  0  0  0  0  0  0  0  0
    2.1950    1.5205    1.6188 C   0  0  0  0  0  0  0  0  0  0  0  0
   -5.3051    0.4239    0.4132 C   0  0  0  0  0  0  0  0  0  0  0  0
   -1.4907   -1.6619   -0.5771 H   0  0  0  0  0  0  0  0  0  0  0  0
    0.6291   -2.6514    0.2799 H   0  0  0  0  0  0  0  0  0  0  0  0
    0.8025   -1.3969    1.5104 H   0  0  0  0  0  0  0  0  0  0  0  0
   -1.2171    0.6516    1.4143 H   0  0  0  0  0  0  0  0  0  0  0  0
   -1.1216   -1.0563    1.8361 H   0  0  0  0  0  0  0  0  0  0  0  0
   -1.7492   -0.0457   -2.3142 H   0  0  0  0  0  0  0  0  0  0  0  0
   -1.3047    1.3175   -1.2827 H   0  0  0  0  0  0  0  0  0  0  0  0
    2.8534   -2.2720   -0.4720 H   0  0  0  0  0  0  0  0  0  0  0  0
    2.9563   -2.1040    1.2897 H   0  0  0  0  0  0  0  0  0  0  0  0
    0.4415   -0.0285   -2.5975 H   0  0  0  0  0  0  0  0  0  0  0  0
    0.2749   -1.7863   -2.3295 H   0  0  0  0  0  0  0  0  0  0  0  0
    1.8170   -0.9584   -2.1167 H   0  0  0  0  0  0  0  0  0  0  0  0
   -3.3366    0.0237    2.2425 H   0  0  0  0  0  0  0  0  0  0  0  0
   -3.3654   -1.4954    1.3462 H   0  0  0  0  0  0  0  0  0  0  0  0
   -3.8408    1.0531   -1.7639 H   0  0  0  0  0  0  0  0  0  0  0  0
    2.0007    2.8444   -0.8175 H   0  0  0  0  0  0  0  0  0  0  0  0
    3.2118    1.7900    1.9244 H   0  0  0  0  0  0  0  0  0  0  0  0
    1.8032    0.8055    2.3517 H   0  0  0  0  0  0  0  0  0  0  0  0
    3.6773    2.3122   -0.5644 H   0  0  0  0  0  0  0  0  0  0  0  0
    2.6710    1.5586   -1.8111 H   0  0  0  0  0  0  0  0  0  0  0  0
    1.5621    2.4130    1.6854 H   0  0  0  0  0  0  0  0  0  0  0  0
   -5.8000   -0.5313    0.6165 H   0  0  0  0  0  0  0  0  0  0  0  0
   -5.8058    0.8825   -0.4459 H   0  0  0  0  0  0  0  0  0  0  0  0
   -5.4518    1.0824    1.2754 H   0  0  0  0  0  0  0  0  0  0  0  0
  1  3  1  0  0  0  0
  1  8  1  0  0  0  0
  2 12  2  0  0  0  0
  3  4  1  0  0  0  0
  3  5  1  0  0  0  0
  3 10  1  0  0  0  0
  4  6  1  0  0  0  0
  4  7  1  0  0  0  0
  4 18  1  0  0  0  0
  5  9  1  0  0  0  0
  5 19  1  0  0  0  0
  5 20  1  0  0  0  0
  6 11  1  0  0  0  0
  6 21  1  0  0  0  0
  6 22  1  0  0  0  0
  7 13  1  0  0  0  0
  7 23  1  0  0  0  0
  7 24  1  0  0  0  0
  8 12  1  0  0  0  0
  8 15  1  0  0  0  0
  8 16  1  0  0  0  0
  9 12  1  0  0  0  0
  9 25  1  0  0  0  0
  9 26  1  0  0  0  0
 10 27  1  0  0  0  0
 10 28  1  0  0  0  0
 10 29  1  0  0  0  0
 11 14  1  0  0  0  0
 11 30  1  0  0  0  0
 11 31  1  0  0  0  0
 13 14  2  0  0  0  0
 13 32  1  0  0  0  0
 14 17  1  0  0  0  0
 15 33  1  0  0  0  0
 15 36  1  0  0  0  0
 15 37  1  0  0  0  0
 16 34  1  0  0  0  0
 16 35  1  0  0  0  0
 16 38  1  0  0  0  0
 17 39  1  0  0  0  0
 17 40  1  0  0  0  0
 17 41  1  0  0  0  0
M  END
> <PUBCHEM_COMPOUND_CID>
91700388

> <PUBCHEM_CONFORMER_RMSD>
0.6

> <PUBCHEM_CONFORMER_DIVERSEORDER>
1
8
11
2
9
12
7
4
6
3
10
5

> <PUBCHEM_MMFF94_PARTIAL_CHARGES>
12
1 -0.56
11 0.14
12 0.45
13 -0.29
14 -0.28
17 0.14
2 -0.57
3 0.28
32 0.15
7 0.14
8 0.34
9 0.06

> <PUBCHEM_EFFECTIVE_ROTOR_COUNT>
2.8

> <PUBCHEM_PHARMACOPHORE_FEATURES>
5
1 1 acceptor
1 2 acceptor
3 8 15 16 hydrophobe
6 1 3 5 8 9 12 rings
6 4 6 7 11 13 14 rings

> <PUBCHEM_HEAVY_ATOM_COUNT>
17

> <PUBCHEM_ATOM_DEF_STEREO_COUNT>
2

> <PUBCHEM_ATOM_UDEF_STEREO_COUNT>
0

> <PUBCHEM_BOND_DEF_STEREO_COUNT>
0

> <PUBCHEM_BOND_UDEF_STEREO_COUNT>
0

> <PUBCHEM_ISOTOPIC_ATOM_COUNT>
0

> <PUBCHEM_COMPONENT_COUNT>
1

> <PUBCHEM_CACTVS_TAUTO_COUNT>
2

> <PUBCHEM_CONFORMER_ID>
05773CA400000001

> <PUBCHEM_MMFF94_ENERGY>
45.2322

> <PUBCHEM_FEATURE_SELFOVERLAP>
25.372

> <PUBCHEM_SHAPE_FINGERPRINT>
10366900 7 18040435494894783035
104564 63 18057046813609846872
10498660 4 15195015886361448027
10608611 8 17967527961157281133
11471102 20 18408602543902703890
11615757 297 18131070437443152051
12236239 1 17489867124665493499
12251169 10 18334576845452059895
12500047 106 17822008709691627139
12507560 40 17530679930941685133
12633257 1 17676477376150485065
12670545 47 18040438810572768079
13134695 92 18201431437910903968
13538477 17 17489298720130188063
14115302 16 15554445214783287469
14252887 29 16081092541198048794
14289901 80 18334012822067882131
14993402 34 17561081406428314550
15219456 202 18113052723044779191
15653759 3 17748825206871773257
15775835 57 18059288867878694328
16945 1 18271800212200844042
1813 80 17342957953285365830
18175812 5 17894914057000657511
18186145 218 17561074839122807365
19049666 15 17679008306004567071
192875 21 17418377995134509256
200 152 18342734118382472579
20279233 1 17967257481560572691
20559304 39 17489309641983881090
20645476 183 16702296854627399133
21524375 3 17988926694953488151
21730867 7 18186803569152736659
22854114 111 18272365403689383137
22854114 59 18260830401838535691
22892500 29 18410006637188565433
231179 274 18273494546401944733
23402539 116 15123498207855759036
23557571 272 17385722474605261893
23559900 14 17168422658106821863
296302 2 18113903766582869731
3060560 45 17132119039115540532
474 4 17773301529828639608
69090 78 18186518813501740771
74978 22 17560232656239158188
77492 1 17489300884751318679
8272917 22 18339646646143954590
9981440 41 16337474691589561026
9999458 23 18041000661214943998

> <PUBCHEM_SHAPE_MULTIPOLES>
338.11
7.79
1.55
1.43
6.34
0.15
0.2
1.58
-1.3
-1.56
-0.08
0.15
0.07
0.23

> <PUBCHEM_SHAPE_SELFOVERLAP>
696.159

> <PUBCHEM_SHAPE_VOLUME>
194.4

> <PUBCHEM_COORDINATE_TYPE>
2
5
10

$$$$
