557173
  -OEChem-08272014373D

 32 33  0     1  0  0  0  0  0999 V2000
   -2.1255   -0.0095   -2.1719 O   0  0  0  0  0  0  0  0  0  0  0  0
    3.2443    0.0101    0.8329 O   0  5  0  0  0  0  0  0  0  0  0  0
    2.6793   -0.0154   -1.2966 O   0  0  0  0  0  0  0  0  0  0  0  0
    2.4214    0.0058   -0.0886 N   0  3  0  0  0  0  0  0  0  0  0  0
   -1.1839    1.2634   -0.3534 C   0  0  1  0  0  0  0  0  0  0  0  0
   -1.1787   -1.2678   -0.3461 C   0  0  2  0  0  0  0  0  0  0  0  0
    0.3599    1.3011   -0.2771 C   0  0  2  0  0  0  0  0  0  0  0  0
    0.3652   -1.2987   -0.2695 C   0  0  1  0  0  0  0  0  0  0  0  0
    0.9802    0.0041    0.2908 C   0  0  0  0  0  0  0  0  0  0  0  0
   -1.5642   -0.0051   -1.0809 C   0  0  0  0  0  0  0  0  0  0  0  0
   -1.9543    1.2733    0.9751 C   0  0  0  0  0  0  0  0  0  0  0  0
   -1.9494   -1.2730    0.9821 C   0  0  0  0  0  0  0  0  0  0  0  0
   -1.7964    0.0028    1.8129 C   0  0  0  0  0  0  0  0  0  0  0  0
    0.8460    2.5393    0.4876 C   0  0  0  0  0  0  0  0  0  0  0  0
    0.8563   -2.5304    0.5025 C   0  0  0  0  0  0  0  0  0  0  0  0
   -1.5262    2.1170   -0.9526 H   0  0  0  0  0  0  0  0  0  0  0  0
   -1.5174   -2.1262   -0.9404 H   0  0  0  0  0  0  0  0  0  0  0  0
    0.6942    1.4298   -1.3176 H   0  0  0  0  0  0  0  0  0  0  0  0
    0.6983   -1.4332   -1.3095 H   0  0  0  0  0  0  0  0  0  0  0  0
    0.9617    0.0073    1.3846 H   0  0  0  0  0  0  0  0  0  0  0  0
   -3.0230    1.3851    0.7444 H   0  0  0  0  0  0  0  0  0  0  0  0
   -1.6855    2.1482    1.5767 H   0  0  0  0  0  0  0  0  0  0  0  0
   -1.6775   -2.1434    1.5887 H   0  0  0  0  0  0  0  0  0  0  0  0
   -3.0176   -1.3901    0.7518 H   0  0  0  0  0  0  0  0  0  0  0  0
   -0.8386    0.0061    2.3375 H   0  0  0  0  0  0  0  0  0  0  0  0
   -2.5550    0.0036    2.6056 H   0  0  0  0  0  0  0  0  0  0  0  0
    0.3508    3.4435    0.1178 H   0  0  0  0  0  0  0  0  0  0  0  0
    0.6460    2.4552    1.5606 H   0  0  0  0  0  0  0  0  0  0  0  0
    1.9239    2.6840    0.3611 H   0  0  0  0  0  0  0  0  0  0  0  0
    0.3644   -3.4387    0.1384 H   0  0  0  0  0  0  0  0  0  0  0  0
    1.9346   -2.6718    0.3767 H   0  0  0  0  0  0  0  0  0  0  0  0
    0.6560   -2.4406    1.5750 H   0  0  0  0  0  0  0  0  0  0  0  0
  1 10  2  0  0  0  0
  2  4  1  0  0  0  0
  3  4  2  0  0  0  0
  4  9  1  0  0  0  0
  5  7  1  0  0  0  0
  5 10  1  0  0  0  0
  5 11  1  0  0  0  0
  5 16  1  0  0  0  0
  6  8  1  0  0  0  0
  6 10  1  0  0  0  0
  6 12  1  0  0  0  0
  6 17  1  0  0  0  0
  7  9  1  0  0  0  0
  7 14  1  0  0  0  0
  7 18  1  0  0  0  0
  8  9  1  0  0  0  0
  8 15  1  0  0  0  0
  8 19  1  0  0  0  0
  9 20  1  0  0  0  0
 11 13  1  0  0  0  0
 11 21  1  0  0  0  0
 11 22  1  0  0  0  0
 12 13  1  0  0  0  0
 12 23  1  0  0  0  0
 12 24  1  0  0  0  0
 13 25  1  0  0  0  0
 13 26  1  0  0  0  0
 14 27  1  0  0  0  0
 14 28  1  0  0  0  0
 14 29  1  0  0  0  0
 15 30  1  0  0  0  0
 15 31  1  0  0  0  0
 15 32  1  0  0  0  0
M  CHG  2   2  -1   4   1
M  END
> <PUBCHEM_COMPOUND_CID>
557173

> <PUBCHEM_CONFORMER_RMSD>
0.6

> <PUBCHEM_CONFORMER_DIVERSEORDER>
1
11
2
4
3
5
6
12
10
9
7
8

> <PUBCHEM_MMFF94_PARTIAL_CHARGES>
8
1 -0.57
10 0.45
2 -0.52
3 -0.52
4 0.8
5 0.06
6 0.06
9 0.24

> <PUBCHEM_EFFECTIVE_ROTOR_COUNT>
2.2

> <PUBCHEM_PHARMACOPHORE_FEATURES>
6
1 1 acceptor
1 2 acceptor
1 2 anion
1 3 acceptor
6 5 6 10 11 12 13 rings
6 5 6 7 8 9 10 rings

> <PUBCHEM_HEAVY_ATOM_COUNT>
15

> <PUBCHEM_ATOM_DEF_STEREO_COUNT>
0

> <PUBCHEM_ATOM_UDEF_STEREO_COUNT>
4

> <PUBCHEM_BOND_DEF_STEREO_COUNT>
0

> <PUBCHEM_BOND_UDEF_STEREO_COUNT>
0

> <PUBCHEM_ISOTOPIC_ATOM_COUNT>
0

> <PUBCHEM_COMPONENT_COUNT>
1

> <PUBCHEM_CACTVS_TAUTO_COUNT>
2

> <PUBCHEM_CONFORMER_ID>
0008807500000001

> <PUBCHEM_MMFF94_ENERGY>
36.693

> <PUBCHEM_FEATURE_SELFOVERLAP>
31.934

> <PUBCHEM_SHAPE_FINGERPRINT>
12138202 97 17240749658590328575
12423570 1 13362568136503995279
12491281 212 16271941375932980808
13024252 1 14634866448789931915
13172582 1 18412267250581038864
144361 1 17631727158494824615
14617773 55 17558836328069577481
14817 1 14058430860942540935
15775835 57 18058443206034670728
15852999 172 17678712610180357011
16945 1 18338254712005044521
20511035 2 17474960817836653120
22802520 49 17914917360734410966
23236772 104 17917704716888730657
23419403 2 16692411368419671859
241688 4 17764561258601462923
2748010 2 18119237613332112925
5084963 1 18059295477669670275
53812653 11 18121804955782300311

> <PUBCHEM_SHAPE_MULTIPOLES>
286.1
3.39
2.22
1.48
2.06
0.01
-0.32
0
0.19
0.29
0.48
-0.88
0
0

> <PUBCHEM_SHAPE_SELFOVERLAP>
594.125

> <PUBCHEM_SHAPE_VOLUME>
162.8

> <PUBCHEM_COORDINATE_TYPE>
2
5
10

$$$$
