14287395
  -OEChem-08272012193D

 42 42  0     1  0  0  0  0  0999 V2000
    1.2113   -2.2054   -0.3129 O   0  0  0  0  0  0  0  0  0  0  0  0
    3.8565   -0.2460    1.2671 O   0  0  0  0  0  0  0  0  0  0  0  0
   -2.3958    1.0412   -1.3788 O   0  0  0  0  0  0  0  0  0  0  0  0
    0.6380    0.7409   -0.4402 C   0  0  1  0  0  0  0  0  0  0  0  0
    0.8243   -0.1134    0.8289 C   0  0  0  0  0  0  0  0  0  0  0  0
    1.7927   -1.2811    0.6049 C   0  0  2  0  0  0  0  0  0  0  0  0
   -0.0449    2.0624   -0.0842 C   0  0  1  0  0  0  0  0  0  0  0  0
    3.1776   -0.7854    0.1247 C   0  0  1  0  0  0  0  0  0  0  0  0
    1.9382    0.9880   -1.1598 C   0  0  0  0  0  0  0  0  0  0  0  0
    3.0717    0.3220   -0.8965 C   0  0  0  0  0  0  0  0  0  0  0  0
   -1.3691    1.8268    0.6583 C   0  0  0  0  0  0  0  0  0  0  0  0
    0.8902    2.9163    0.7739 C   0  0  0  0  0  0  0  0  0  0  0  0
    4.0280   -1.9393   -0.4187 C   0  0  0  0  0  0  0  0  0  0  0  0
   -2.3669    1.0161   -0.1516 C   0  0  0  0  0  0  0  0  0  0  0  0
   -3.2695    0.1276    0.6352 C   0  0  0  0  0  0  0  0  0  0  0  0
   -3.7997   -1.0241    0.1875 C   0  0  0  0  0  0  0  0  0  0  0  0
   -4.7110   -1.9351    0.9617 C   0  0  0  0  0  0  0  0  0  0  0  0
   -3.4716   -1.5116   -1.1995 C   0  0  0  0  0  0  0  0  0  0  0  0
    0.0086    0.1807   -1.1429 H   0  0  0  0  0  0  0  0  0  0  0  0
    1.1993    0.4656    1.6773 H   0  0  0  0  0  0  0  0  0  0  0  0
   -0.1430   -0.5357    1.1263 H   0  0  0  0  0  0  0  0  0  0  0  0
    1.8963   -1.8099    1.5615 H   0  0  0  0  0  0  0  0  0  0  0  0
   -0.2535    2.6150   -1.0106 H   0  0  0  0  0  0  0  0  0  0  0  0
    1.9506    1.7428   -1.9423 H   0  0  0  0  0  0  0  0  0  0  0  0
    3.9697    0.5901   -1.4480 H   0  0  0  0  0  0  0  0  0  0  0  0
   -1.8471    2.7951    0.8556 H   0  0  0  0  0  0  0  0  0  0  0  0
   -1.2060    1.3601    1.6356 H   0  0  0  0  0  0  0  0  0  0  0  0
    1.0627    2.5079    1.7731 H   0  0  0  0  0  0  0  0  0  0  0  0
    0.4350    3.9029    0.9267 H   0  0  0  0  0  0  0  0  0  0  0  0
    1.8592    3.1006    0.3013 H   0  0  0  0  0  0  0  0  0  0  0  0
    5.0575   -1.6101   -0.6051 H   0  0  0  0  0  0  0  0  0  0  0  0
    4.0962   -2.7521    0.3137 H   0  0  0  0  0  0  0  0  0  0  0  0
    3.6288   -2.3452   -1.3542 H   0  0  0  0  0  0  0  0  0  0  0  0
    1.7008   -3.0421   -0.2420 H   0  0  0  0  0  0  0  0  0  0  0  0
    3.9853   -0.9653    1.9088 H   0  0  0  0  0  0  0  0  0  0  0  0
   -3.4732    0.4489    1.6530 H   0  0  0  0  0  0  0  0  0  0  0  0
   -4.9305   -1.5294    1.9549 H   0  0  0  0  0  0  0  0  0  0  0  0
   -5.6618   -2.0619    0.4342 H   0  0  0  0  0  0  0  0  0  0  0  0
   -4.2479   -2.9177    1.0964 H   0  0  0  0  0  0  0  0  0  0  0  0
   -3.6912   -2.5816   -1.2936 H   0  0  0  0  0  0  0  0  0  0  0  0
   -4.0771   -0.9895   -1.9472 H   0  0  0  0  0  0  0  0  0  0  0  0
   -2.4081   -1.4095   -1.4382 H   0  0  0  0  0  0  0  0  0  0  0  0
  1  6  1  0  0  0  0
  1 34  1  0  0  0  0
  2  8  1  0  0  0  0
  2 35  1  0  0  0  0
  3 14  2  0  0  0  0
  4  5  1  0  0  0  0
  4  7  1  0  0  0  0
  4  9  1  0  0  0  0
  4 19  1  0  0  0  0
  5  6  1  0  0  0  0
  5 20  1  0  0  0  0
  5 21  1  0  0  0  0
  6  8  1  0  0  0  0
  6 22  1  0  0  0  0
  7 11  1  0  0  0  0
  7 12  1  0  0  0  0
  7 23  1  0  0  0  0
  8 10  1  0  0  0  0
  8 13  1  0  0  0  0
  9 10  2  0  0  0  0
  9 24  1  0  0  0  0
 10 25  1  0  0  0  0
 11 14  1  0  0  0  0
 11 26  1  0  0  0  0
 11 27  1  0  0  0  0
 12 28  1  0  0  0  0
 12 29  1  0  0  0  0
 12 30  1  0  0  0  0
 13 31  1  0  0  0  0
 13 32  1  0  0  0  0
 13 33  1  0  0  0  0
 14 15  1  0  0  0  0
 15 16  2  0  0  0  0
 15 36  1  0  0  0  0
 16 17  1  0  0  0  0
 16 18  1  0  0  0  0
 17 37  1  0  0  0  0
 17 38  1  0  0  0  0
 17 39  1  0  0  0  0
 18 40  1  0  0  0  0
 18 41  1  0  0  0  0
 18 42  1  0  0  0  0
M  END
> <PUBCHEM_COMPOUND_CID>
14287395

> <PUBCHEM_CONFORMER_RMSD>
0.8

> <PUBCHEM_CONFORMER_DIVERSEORDER>
171
140
760
601
664
20
42
812
120
822
797
41
626
136
420
24
680
187
443
791
690
713
835
31
767
761
657
348
769
708
827
350
478
53
782
129
677
647
242
793
283
191
663
333
832
314
21
235
548
465
829
199
147
629
15
47
788
301
412
721
382
290
757
36
834
326
722
70
638
452
799
170
675
545
821
678
605
585
57
693
365
27
101
654
681
91
810
524
602
459
784
765
81
639
502
116
628
666
234
203
744
551
608
51
610
514
38
726
661
310
811
645
253
50
717
351
375
125
836
223
109
19
158
499
623
332
440
472
217
149
696
250
467
264
709
353
423
446
600
103
118
734
323
482
528
814
627
88
724
67
541
228
431
251
534
651
44
214
411
174
52
570
400
356
727
404
383
151
363
466
3
133
673
23
509
268
771
16
59
85
94
641
488
578
277
54
598
180
95
8
159
12
653
304
32
2
274
406
146
322
43
347
183
357
84
97
65
79
804
521
500
495
634
131
279
240
96
463
22
569
823
289
137
718
10
558
275
432
461
763
117
395
83
4
35
281
567
307
106
526
113
130
683
768
48
7
92
1
78
725
320
30
40
186
370
197
182
329
216
14
46
39
260
491
591
632
571
164
66
772
391
193
6
104
45
152
257
124
409
13
386
565

> <PUBCHEM_MMFF94_PARTIAL_CHARGES>
19
1 -0.68
10 -0.29
11 0.06
14 0.49
15 -0.14
16 -0.28
17 0.14
18 0.14
2 -0.68
24 0.15
25 0.15
3 -0.57
34 0.4
35 0.4
36 0.15
4 0.14
6 0.28
8 0.42
9 -0.29

> <PUBCHEM_EFFECTIVE_ROTOR_COUNT>
4.8

> <PUBCHEM_PHARMACOPHORE_FEATURES>
8
1 1 acceptor
1 1 donor
1 12 hydrophobe
1 2 acceptor
1 2 donor
1 3 acceptor
3 16 17 18 hydrophobe
6 4 5 6 8 9 10 rings

> <PUBCHEM_HEAVY_ATOM_COUNT>
18

> <PUBCHEM_ATOM_DEF_STEREO_COUNT>
0

> <PUBCHEM_ATOM_UDEF_STEREO_COUNT>
4

> <PUBCHEM_BOND_DEF_STEREO_COUNT>
0

> <PUBCHEM_BOND_UDEF_STEREO_COUNT>
0

> <PUBCHEM_ISOTOPIC_ATOM_COUNT>
0

> <PUBCHEM_COMPONENT_COUNT>
1

> <PUBCHEM_CACTVS_TAUTO_COUNT>
5

> <PUBCHEM_CONFORMER_ID>
00DA0223000000AB

> <PUBCHEM_MMFF94_ENERGY>
41.1498

> <PUBCHEM_FEATURE_SELFOVERLAP>
40.596

> <PUBCHEM_SHAPE_FINGERPRINT>
10616163 171 18267870488660153191
108231 29 18412544305978574696
11578080 2 18189035582010840196
11725454 13 14998257395470566372
11806522 49 18334859437151961512
12506688 2 18411139121433344573
12553582 1 18342742952908609199
12596599 1 17631179756740149191
12633257 1 17916598656074463015
13533116 47 18053671554169338579
14115302 16 18261675848892432253
14178342 30 18267866081807254672
14251705 54 18410578361955585183
14787075 74 18337105778468506064
15375462 189 18341338893702839493
16945 1 17970632887800323292
18522851 268 17748825198524588317
18915474 69 18334301975955760935
20261772 1 18202004356246529687
20281475 54 18408613564963047161
20291156 8 18411421700290353967
20626108 58 17604133874972215864
20645477 70 18194105529716792911
21634736 98 18335428954247476670
21713013 43 17458343087353257719
21731516 1 18343864446205477261
21864079 5 9222938258137844211
221490 88 18335145322827794691
2255824 54 18194691598920486493
22646028 28 18410857633418673351
231179 274 11167952350494700779
232386 152 18411986840613883877
23402539 116 18115024091970568754
23557571 272 17914613856828487696
23559900 14 18195800774683068752
2871803 45 18040151842565111403
458136 41 17834401489958667001
5493415 88 18411132528553329625
633830 44 13046223801769576820
6786 2 16406178856356155273
83771 10 18410298034046197041

> <PUBCHEM_SHAPE_MULTIPOLES>
352.82
8.03
2.71
1.18
4.01
0.68
0.13
-5.94
-0.47
-0.08
-0.28
0.12
0.02
0.12

> <PUBCHEM_SHAPE_SELFOVERLAP>
706.816

> <PUBCHEM_SHAPE_VOLUME>
206.7

> <PUBCHEM_COORDINATE_TYPE>
2
5
10

$$$$
