543623
  -OEChem-08272010313D

 32 31  0     1  0  0  0  0  0999 V2000
    2.0004   -2.3389    0.2560 O   0  0  0  0  0  0  0  0  0  0  0  0
    2.2959    1.1144   -0.1729 C   0  0  2  0  0  0  0  0  0  0  0  0
    0.7770    1.1183    0.0956 C   0  0  0  0  0  0  0  0  0  0  0  0
   -0.0554    0.6505   -1.1014 C   0  0  0  0  0  0  0  0  0  0  0  0
    2.8561   -0.2524   -0.5952 C   0  0  0  0  0  0  0  0  0  0  0  0
    3.0420    1.6706    1.0450 C   0  0  0  0  0  0  0  0  0  0  0  0
   -1.5274    0.7543   -0.8119 C   0  0  0  0  0  0  0  0  0  0  0  0
   -2.3326   -0.2139   -0.3334 C   0  0  0  0  0  0  0  0  0  0  0  0
   -3.8163   -0.0474   -0.1013 C   0  0  0  0  0  0  0  0  0  0  0  0
    2.6696   -1.3278    0.4457 C   0  0  0  0  0  0  0  0  0  0  0  0
   -1.7810   -1.5812   -0.0272 C   0  0  0  0  0  0  0  0  0  0  0  0
   -4.1285    0.4536    1.3011 C   0  0  0  0  0  0  0  0  0  0  0  0
    2.4856    1.8048   -1.0060 H   0  0  0  0  0  0  0  0  0  0  0  0
    0.5550    0.4891    0.9672 H   0  0  0  0  0  0  0  0  0  0  0  0
    0.4708    2.1375    0.3679 H   0  0  0  0  0  0  0  0  0  0  0  0
    0.2083   -0.3660   -1.4052 H   0  0  0  0  0  0  0  0  0  0  0  0
    0.1648    1.2829   -1.9707 H   0  0  0  0  0  0  0  0  0  0  0  0
    3.9339   -0.1724   -0.7811 H   0  0  0  0  0  0  0  0  0  0  0  0
    2.4062   -0.5899   -1.5344 H   0  0  0  0  0  0  0  0  0  0  0  0
    4.1238    1.6685    0.8760 H   0  0  0  0  0  0  0  0  0  0  0  0
    2.7396    2.7056    1.2388 H   0  0  0  0  0  0  0  0  0  0  0  0
    2.8344    1.0919    1.9506 H   0  0  0  0  0  0  0  0  0  0  0  0
   -1.9697    1.7283   -1.0156 H   0  0  0  0  0  0  0  0  0  0  0  0
   -4.2222    0.6673   -0.8283 H   0  0  0  0  0  0  0  0  0  0  0  0
   -4.3355   -0.9950   -0.2874 H   0  0  0  0  0  0  0  0  0  0  0  0
    3.1901   -1.1714    1.4049 H   0  0  0  0  0  0  0  0  0  0  0  0
   -0.6934   -1.6195    0.0550 H   0  0  0  0  0  0  0  0  0  0  0  0
   -2.1685   -1.9325    0.9357 H   0  0  0  0  0  0  0  0  0  0  0  0
   -2.0942   -2.2929   -0.7980 H   0  0  0  0  0  0  0  0  0  0  0  0
   -3.6578    1.4243    1.4900 H   0  0  0  0  0  0  0  0  0  0  0  0
   -5.2093    0.5725    1.4272 H   0  0  0  0  0  0  0  0  0  0  0  0
   -3.7754   -0.2502    2.0621 H   0  0  0  0  0  0  0  0  0  0  0  0
  1 10  2  0  0  0  0
  2  3  1  0  0  0  0
  2  5  1  0  0  0  0
  2  6  1  0  0  0  0
  2 13  1  0  0  0  0
  3  4  1  0  0  0  0
  3 14  1  0  0  0  0
  3 15  1  0  0  0  0
  4  7  1  0  0  0  0
  4 16  1  0  0  0  0
  4 17  1  0  0  0  0
  5 10  1  0  0  0  0
  5 18  1  0  0  0  0
  5 19  1  0  0  0  0
  6 20  1  0  0  0  0
  6 21  1  0  0  0  0
  6 22  1  0  0  0  0
  7  8  2  3  0  0  0
  7 23  1  0  0  0  0
  8  9  1  0  0  0  0
  8 11  1  0  0  0  0
  9 12  1  0  0  0  0
  9 24  1  0  0  0  0
  9 25  1  0  0  0  0
 10 26  1  0  0  0  0
 11 27  1  0  0  0  0
 11 28  1  0  0  0  0
 11 29  1  0  0  0  0
 12 30  1  0  0  0  0
 12 31  1  0  0  0  0
 12 32  1  0  0  0  0
M  END
> <PUBCHEM_COMPOUND_CID>
543623

> <PUBCHEM_CONFORMER_RMSD>
0.6

> <PUBCHEM_CONFORMER_DIVERSEORDER>
1
232
189
237
55
273
349
239
129
209
146
350
121
352
111
89
323
307
56
23
259
322
290
18
306
304
221
325
41
250
214
332
107
347
57
305
227
70
364
284
180
277
184
155
233
54
327
169
178
166
179
219
46
340
170
76
151
236
37
183
361
205
102
202
344
235
238
258
253
297
176
275
321
11
309
204
345
25
240
248
33
302
303
109
348
171
98
314
339
60
328
367
31
355
208
342
153
262
130
363
241
354
223
272
356
58
182
110
175
319
82
222
30
296
294
254
87
136
362
195
268
138
308
72
300
285
334
329
94
301
317
67
338
245
6
360
118
256
198
75
187
85
351
159
212
103
357
281
92
192
313
186
336
264
39
353
266
26
84
343
215
231
190
282
15
267
265
330
299
40
283
312
29
45
86
287
68
164
359
168
320
142
279
315
292
101
149
185
177
193
59
120
63
335
42
293
148
140
108
211
310
160
298
311
173
137
91
218
90
161
261
158
83
346
269
331
249
365
34
191
270
47
247
79
276
181
318
112
291
128
145
104
115
156
73
242
295
326
337
127
252
19
165
210
147
243
143
220
228
257
50
207
132
61
123
194
113
316
163
139
226
20
125
234
124
44
93
333
10
119
35
126
224
36
157
95
324
260
286
12
172
217
341
100
152
21
28
64
358
280
66
134
246
133
271
116
53
13
80
229
288
199
9
17
7
225
197
97
263
4
141
278
5
203
22
27
2
8
154
230
32
174
48
62
167
81
135
122
162
106
366
51
52
78
3
213
24
206
88
96
251
43
289
200
244
114
38
77
49
144
99
69
131
201
74
274
255
188
14
150
71
196
117
65
16
105
216

> <PUBCHEM_MMFF94_PARTIAL_CHARGES>
10
1 -0.57
10 0.45
11 0.14
23 0.15
26 0.06
4 0.14
5 0.06
7 -0.29
8 -0.28
9 0.14

> <PUBCHEM_EFFECTIVE_ROTOR_COUNT>
6

> <PUBCHEM_PHARMACOPHORE_FEATURES>
5
1 1 acceptor
1 11 hydrophobe
1 12 hydrophobe
1 6 hydrophobe
5 2 3 4 5 7 hydrophobe

> <PUBCHEM_HEAVY_ATOM_COUNT>
12

> <PUBCHEM_ATOM_DEF_STEREO_COUNT>
0

> <PUBCHEM_ATOM_UDEF_STEREO_COUNT>
1

> <PUBCHEM_BOND_DEF_STEREO_COUNT>
0

> <PUBCHEM_BOND_UDEF_STEREO_COUNT>
1

> <PUBCHEM_ISOTOPIC_ATOM_COUNT>
0

> <PUBCHEM_COMPONENT_COUNT>
1

> <PUBCHEM_CACTVS_TAUTO_COUNT>
2

> <PUBCHEM_CONFORMER_ID>
00084B8700000001

> <PUBCHEM_MMFF94_ENERGY>
10.2566

> <PUBCHEM_FEATURE_SELFOVERLAP>
25.376

> <PUBCHEM_SHAPE_FINGERPRINT>
10799339 124 18336551529960629225
10980938 120 18411699893658849398
12382932 28 18337666537344761665
12616999 72 17458642119807868206
12932764 1 18413385440747493253
13296908 3 17676201351703303597
14144814 61 18412825793924440045
14178342 30 18265326398915019003
14251717 144 18409721859688355727
14252887 29 17894352193695256065
14445660 50 18341054132960369117
15375462 189 18335983065126716570
15775835 57 18341051912303885262
17041 50 9583252685732352144
17834069 15 18410858716235839117
18915474 69 12035737552105215201
19107657 162 17458351866055089505
201361 129 18201157758089144344
20201158 50 18334289851516376226
20279233 1 18187631535868384781
20281407 28 18113901571965442421
20645477 70 18337376159133156871
23048698 100 17988927786049267649
23380061 451 18412829062289018492
2748010 2 18042389240947128869
581208 293 18334850671007503556
59345606 63 18341902857358233057
81228 2 17459734952651346773

> <PUBCHEM_SHAPE_MULTIPOLES>
241.09
7.08
1.86
1.07
4.14
0.87
0.1
-0.41
2.14
-1.6
0.36
0.26
-0.28
0.03

> <PUBCHEM_SHAPE_SELFOVERLAP>
443.734

> <PUBCHEM_SHAPE_VOLUME>
153

> <PUBCHEM_COORDINATE_TYPE>
2
5
10

$$$$
