23618937
  -OEChem-08272010303D

 27 28  0     1  0  0  0  0  0999 V2000
   -2.7467    0.3074   -0.3495 O   0  0  0  0  0  0  0  0  0  0  0  0
    0.6296   -0.6980   -0.4412 C   0  0  1  0  0  0  0  0  0  0  0  0
    0.6830    0.7733    0.0771 C   0  0  0  0  0  0  0  0  0  0  0  0
   -0.6460    0.6191    0.8548 C   0  0  2  0  0  0  0  0  0  0  0  0
    0.4758   -1.5144    0.8770 C   0  0  0  0  0  0  0  0  0  0  0  0
   -0.4222   -0.6095    1.7520 C   0  0  0  0  0  0  0  0  0  0  0  0
   -0.7360   -0.7796   -1.1845 C   0  0  0  0  0  0  0  0  0  0  0  0
   -1.5491    0.0924   -0.2505 C   0  0  0  0  0  0  0  0  0  0  0  0
    1.7896   -1.1645   -1.2992 C   0  0  0  0  0  0  0  0  0  0  0  0
    1.8907    1.1075    0.9745 C   0  0  0  0  0  0  0  0  0  0  0  0
    0.6313    1.8662   -1.0105 C   0  0  0  0  0  0  0  0  0  0  0  0
   -1.0326    1.5135    1.3438 H   0  0  0  0  0  0  0  0  0  0  0  0
    1.4391   -1.6928    1.3671 H   0  0  0  0  0  0  0  0  0  0  0  0
    0.0128   -2.4929    0.7077 H   0  0  0  0  0  0  0  0  0  0  0  0
   -1.3584   -1.1165    2.0108 H   0  0  0  0  0  0  0  0  0  0  0  0
    0.0864   -0.3427    2.6839 H   0  0  0  0  0  0  0  0  0  0  0  0
   -1.1375   -1.7954   -1.2194 H   0  0  0  0  0  0  0  0  0  0  0  0
   -0.7039   -0.3412   -2.1847 H   0  0  0  0  0  0  0  0  0  0  0  0
    2.7390   -1.0983   -0.7583 H   0  0  0  0  0  0  0  0  0  0  0  0
    1.6529   -2.2081   -1.6024 H   0  0  0  0  0  0  0  0  0  0  0  0
    1.8793   -0.5631   -2.2094 H   0  0  0  0  0  0  0  0  0  0  0  0
    2.8129    1.1452    0.3836 H   0  0  0  0  0  0  0  0  0  0  0  0
    1.7567    2.0892    1.4438 H   0  0  0  0  0  0  0  0  0  0  0  0
    2.0628    0.3938    1.7831 H   0  0  0  0  0  0  0  0  0  0  0  0
    1.5387    1.8462   -1.6241 H   0  0  0  0  0  0  0  0  0  0  0  0
   -0.2205    1.7821   -1.6903 H   0  0  0  0  0  0  0  0  0  0  0  0
    0.5627    2.8589   -0.5502 H   0  0  0  0  0  0  0  0  0  0  0  0
  1  8  2  0  0  0  0
  2  3  1  0  0  0  0
  2  5  1  0  0  0  0
  2  7  1  0  0  0  0
  2  9  1  0  0  0  0
  3  4  1  0  0  0  0
  3 10  1  0  0  0  0
  3 11  1  0  0  0  0
  4  6  1  0  0  0  0
  4  8  1  0  0  0  0
  4 12  1  0  0  0  0
  5  6  1  0  0  0  0
  5 13  1  0  0  0  0
  5 14  1  0  0  0  0
  6 15  1  0  0  0  0
  6 16  1  0  0  0  0
  7  8  1  0  0  0  0
  7 17  1  0  0  0  0
  7 18  1  0  0  0  0
  9 19  1  0  0  0  0
  9 20  1  0  0  0  0
  9 21  1  0  0  0  0
 10 22  1  0  0  0  0
 10 23  1  0  0  0  0
 10 24  1  0  0  0  0
 11 25  1  0  0  0  0
 11 26  1  0  0  0  0
 11 27  1  0  0  0  0
M  END
> <PUBCHEM_COMPOUND_CID>
23618937

> <PUBCHEM_CONFORMER_RMSD>
0.4

> <PUBCHEM_CONFORMER_DIVERSEORDER>
1

> <PUBCHEM_MMFF94_PARTIAL_CHARGES>
4
1 -0.57
4 0.06
7 0.06
8 0.45

> <PUBCHEM_EFFECTIVE_ROTOR_COUNT>
0.8

> <PUBCHEM_PHARMACOPHORE_FEATURES>
3
1 1 acceptor
3 3 10 11 hydrophobe
7 2 3 4 5 6 7 8 rings

> <PUBCHEM_HEAVY_ATOM_COUNT>
11

> <PUBCHEM_ATOM_DEF_STEREO_COUNT>
1

> <PUBCHEM_ATOM_UDEF_STEREO_COUNT>
1

> <PUBCHEM_BOND_DEF_STEREO_COUNT>
0

> <PUBCHEM_BOND_UDEF_STEREO_COUNT>
0

> <PUBCHEM_ISOTOPIC_ATOM_COUNT>
0

> <PUBCHEM_COMPONENT_COUNT>
1

> <PUBCHEM_CACTVS_TAUTO_COUNT>
2

> <PUBCHEM_CONFORMER_ID>
0168657900000001

> <PUBCHEM_MMFF94_ENERGY>
46.9007

> <PUBCHEM_FEATURE_SELFOVERLAP>
15.223

> <PUBCHEM_SHAPE_FINGERPRINT>
12423570 1 14020408133471687134
13024252 1 14934338558178710852
137420 1 15910558377940147954
14128692 85 17346321449089589807
15557651 10 16950282935574098533
16945 1 17846774109373763126
21040471 1 18057597878998006093
241688 4 18194412090917211616
369184 2 16984899006586700136
5084963 1 18267886031967072553
68250623 7 17465649491826213834

> <PUBCHEM_SHAPE_MULTIPOLES>
220.51
2.21
1.62
1.54
0.76
0.14
-0.28
0.27
0.37
-0.69
0.22
-0.15
-0.21
0.27

> <PUBCHEM_SHAPE_SELFOVERLAP>
469.477

> <PUBCHEM_SHAPE_VOLUME>
131.3

> <PUBCHEM_COORDINATE_TYPE>
2
5
10

$$$$
