68738786
  -OEChem-08272010453D

 40 41  0     0  0  0  0  0  0999 V2000
   -8.1357   -1.1924   -0.1435 O   0  0  0  0  0  0  0  0  0  0  0  0
   -8.4624    1.4666    0.5972 O   0  0  0  0  0  0  0  0  0  0  0  0
   -0.7937   -1.6022   -1.1584 O   0  0  0  0  0  0  0  0  0  0  0  0
    1.4539   -1.8861    0.7570 O   0  0  0  0  0  0  0  0  0  0  0  0
    9.2084    1.2865   -0.2851 O   0  0  0  0  0  0  0  0  0  0  0  0
   -4.6751   -0.0182   -0.2338 C   0  0  0  0  0  0  0  0  0  0  0  0
    0.3539    0.1389    0.0512 C   0  0  0  0  0  0  0  0  0  0  0  0
    5.3776   -0.2386    0.1923 C   0  0  0  0  0  0  0  0  0  0  0  0
   -3.3291   -0.5406   -0.5292 C   0  0  0  0  0  0  0  0  0  0  0  0
   -5.7852   -0.8576   -0.3276 C   0  0  0  0  0  0  0  0  0  0  0  0
   -4.8392    1.3161    0.1387 C   0  0  0  0  0  0  0  0  0  0  0  0
   -0.8702   -0.5904   -0.4662 C   0  0  0  0  0  0  0  0  0  0  0  0
    1.5581   -0.7350    0.3408 C   0  0  0  0  0  0  0  0  0  0  0  0
   -2.1852    0.0259   -0.1198 C   0  0  0  0  0  0  0  0  0  0  0  0
   -7.0592   -0.3630   -0.0486 C   0  0  0  0  0  0  0  0  0  0  0  0
    4.0177   -0.7811    0.3602 C   0  0  0  0  0  0  0  0  0  0  0  0
   -7.2231    0.9711    0.3241 C   0  0  0  0  0  0  0  0  0  0  0  0
   -6.1131    1.8107    0.4177 C   0  0  0  0  0  0  0  0  0  0  0  0
    2.8899   -0.0935    0.1320 C   0  0  0  0  0  0  0  0  0  0  0  0
    5.5858    0.8874   -0.6043 C   0  0  0  0  0  0  0  0  0  0  0  0
    6.4566   -0.8517    0.8290 C   0  0  0  0  0  0  0  0  0  0  0  0
    6.8731    1.4000   -0.7645 C   0  0  0  0  0  0  0  0  0  0  0  0
    7.7440   -0.3392    0.6688 C   0  0  0  0  0  0  0  0  0  0  0  0
    7.9522    0.7866   -0.1279 C   0  0  0  0  0  0  0  0  0  0  0  0
    0.1103    0.6548    0.9868 H   0  0  0  0  0  0  0  0  0  0  0  0
    0.6128    0.8895   -0.7040 H   0  0  0  0  0  0  0  0  0  0  0  0
   -3.3072   -1.4587   -1.1117 H   0  0  0  0  0  0  0  0  0  0  0  0
   -5.6614   -1.8991   -0.6169 H   0  0  0  0  0  0  0  0  0  0  0  0
   -4.0073    2.0110    0.2049 H   0  0  0  0  0  0  0  0  0  0  0  0
   -2.1493    0.9257    0.4824 H   0  0  0  0  0  0  0  0  0  0  0  0
    3.9706   -1.8117    0.7041 H   0  0  0  0  0  0  0  0  0  0  0  0
   -6.2277    2.8533    0.7023 H   0  0  0  0  0  0  0  0  0  0  0  0
    2.8789    0.9420   -0.1861 H   0  0  0  0  0  0  0  0  0  0  0  0
    4.7798    1.3852   -1.1351 H   0  0  0  0  0  0  0  0  0  0  0  0
    6.3128   -1.7294    1.4544 H   0  0  0  0  0  0  0  0  0  0  0  0
    7.0303    2.2745   -1.3900 H   0  0  0  0  0  0  0  0  0  0  0  0
    8.5763   -0.8260    1.1701 H   0  0  0  0  0  0  0  0  0  0  0  0
   -7.8327   -2.0764   -0.4131 H   0  0  0  0  0  0  0  0  0  0  0  0
   -8.3822    2.4058    0.8369 H   0  0  0  0  0  0  0  0  0  0  0  0
    9.8309    0.7399    0.2245 H   0  0  0  0  0  0  0  0  0  0  0  0
  1 15  1  0  0  0  0
  1 38  1  0  0  0  0
  2 17  1  0  0  0  0
  2 39  1  0  0  0  0
  3 12  2  0  0  0  0
  4 13  2  0  0  0  0
  5 24  1  0  0  0  0
  5 40  1  0  0  0  0
  6  9  1  0  0  0  0
  6 10  2  0  0  0  0
  6 11  1  0  0  0  0
  7 12  1  0  0  0  0
  7 13  1  0  0  0  0
  7 25  1  0  0  0  0
  7 26  1  0  0  0  0
  8 16  1  0  0  0  0
  8 20  2  0  0  0  0
  8 21  1  0  0  0  0
  9 14  2  3  0  0  0
  9 27  1  0  0  0  0
 10 15  1  0  0  0  0
 10 28  1  0  0  0  0
 11 18  2  0  0  0  0
 11 29  1  0  0  0  0
 12 14  1  0  0  0  0
 13 19  1  0  0  0  0
 14 30  1  0  0  0  0
 15 17  2  0  0  0  0
 16 19  2  3  0  0  0
 16 31  1  0  0  0  0
 17 18  1  0  0  0  0
 18 32  1  0  0  0  0
 19 33  1  0  0  0  0
 20 22  1  0  0  0  0
 20 34  1  0  0  0  0
 21 23  2  0  0  0  0
 21 35  1  0  0  0  0
 22 24  2  0  0  0  0
 22 36  1  0  0  0  0
 23 24  1  0  0  0  0
 23 37  1  0  0  0  0
M  END
> <PUBCHEM_COMPOUND_CID>
68738786

> <PUBCHEM_CONFORMER_RMSD>
1

> <PUBCHEM_CONFORMER_DIVERSEORDER>
1
36
26
70
10
32
59
62
39
17
28
38
13
16
61
69
18
9
72
60
64
76
40
19
7
48
44
20
47
4
65
22
50
52
37
23
74
66
24
75
2
49
55
27
42
53
68
14
46
34
21
63
41
51
25
31
45
12
73
30
33
67
71
11
5
15
35
54
3
56
43
58
6
29
57
8

> <PUBCHEM_MMFF94_PARTIAL_CHARGES>
38
1 -0.53
10 -0.15
11 -0.15
12 0.49
13 0.49
14 -0.14
15 0.08
16 -0.18
17 0.08
18 -0.15
19 -0.14
2 -0.53
20 -0.15
21 -0.15
22 -0.15
23 -0.15
24 0.08
27 0.15
28 0.15
29 0.15
3 -0.57
30 0.15
31 0.15
32 0.15
33 0.15
34 0.15
35 0.15
36 0.15
37 0.15
38 0.45
39 0.45
4 -0.57
40 0.45
5 -0.53
6 0.03
7 0.12
8 0.03
9 -0.18

> <PUBCHEM_EFFECTIVE_ROTOR_COUNT>
6

> <PUBCHEM_PHARMACOPHORE_FEATURES>
8
1 1 donor
1 2 donor
1 3 acceptor
1 4 acceptor
1 5 donor
1 7 anion
6 6 10 11 15 17 18 rings
6 8 20 21 22 23 24 rings

> <PUBCHEM_HEAVY_ATOM_COUNT>
24

> <PUBCHEM_ATOM_DEF_STEREO_COUNT>
0

> <PUBCHEM_ATOM_UDEF_STEREO_COUNT>
0

> <PUBCHEM_BOND_DEF_STEREO_COUNT>
0

> <PUBCHEM_BOND_UDEF_STEREO_COUNT>
2

> <PUBCHEM_ISOTOPIC_ATOM_COUNT>
0

> <PUBCHEM_COMPONENT_COUNT>
1

> <PUBCHEM_CACTVS_TAUTO_COUNT>
209

> <PUBCHEM_CONFORMER_ID>
0418DEE200000001

> <PUBCHEM_MMFF94_ENERGY>
61.6434

> <PUBCHEM_FEATURE_SELFOVERLAP>
40.601

> <PUBCHEM_SHAPE_FINGERPRINT>
10 15 18040436581326356169
10050765 1 18046904870867442240
10299344 5 18408039610886363770
10369192 42 17988921159157421101
106641 1 18040439893537328267
10670039 82 16056886797550860147
10904742 90 18410291415238304466
11315181 36 18334294271965807371
11638347 137 15285352904398350864
12089408 11 18410571781896681298
14118638 360 16056609702850070266
14251764 18 18408040719220067301
14251764 46 17894348878090993995
14428016 248 18186807998002835276
14617042 71 17895762919724686244
14849402 71 18260552272204441100
14933364 13 18342457036587587089
15183329 4 13614521839825146998
15419008 47 16271922696925273056
15461852 350 17560791148876577885
155225 1 18413108355174910049
15690457 1 8718828678631518736
1577012 14 18341887489538304886
15849732 13 17775566450614381020
16989713 51 17345460665531673455
18006028 8 12468356851504210231
20157964 124 18186237317393039538
20281389 69 18261107470100023764
21095123 145 17704071837496725575
21150785 3 17988926681962948142
21315763 28 18335419058384305088
22224240 67 17095241423441404586
22956985 138 11243618495305821640
249057 3 16200145525660201536
28498 318 11743845754819212864
3092352 35 18409727374632299770
3711267 37 18342187660445066264
397830 11 15141544565338515284
4073 2 18334018297767095811
4339292 15 13407089137131431673
559249 180 8502368932783790681
5758199 1 18187082849433002666
59682541 35 17313108561547558329
6081469 158 16128665137638040212
67123 10 18408040727857578459
9953998 17 17167866370412126347

> <PUBCHEM_SHAPE_MULTIPOLES>
464.56
31.38
1.53
0.82
5.93
0.18
-0.03
10.52
1.99
-0.69
0.02
0.34
-0.06
-1.86

> <PUBCHEM_SHAPE_SELFOVERLAP>
988.895

> <PUBCHEM_SHAPE_VOLUME>
256.8

> <PUBCHEM_COORDINATE_TYPE>
2
5
10

$$$$
