91632878
  -OEChem-08272014463D

 81 85  0     1  0  0  0  0  0999 V2000
   -7.0949    0.4069   -0.4820 O   0  0  0  0  0  0  0  0  0  0  0  0
   -0.4321   -0.5980    0.2302 C   0  0  1  0  0  0  0  0  0  0  0  0
    0.9992   -0.3812   -0.5413 C   0  0  1  0  0  0  0  0  0  0  0  0
   -1.3246    0.6952    0.0198 C   0  0  1  0  0  0  0  0  0  0  0  0
   -2.8525    0.5892    0.4713 C   0  0  2  0  0  0  0  0  0  0  0  0
    1.6805    0.9269    0.0282 C   0  0  1  0  0  0  0  0  0  0  0  0
   -3.4560   -0.6912   -0.2215 C   0  0  1  0  0  0  0  0  0  0  0  0
   -1.1969   -1.8348   -0.3235 C   0  0  0  0  0  0  0  0  0  0  0  0
    3.1648    1.1898   -0.4013 C   0  0  2  0  0  0  0  0  0  0  0  0
   -0.5964    1.9678    0.5111 C   0  0  0  0  0  0  0  0  0  0  0  0
    0.7770    2.1578   -0.1362 C   0  0  0  0  0  0  0  0  0  0  0  0
   -2.6524   -1.9551    0.1427 C   0  0  0  0  0  0  0  0  0  0  0  0
    1.9812   -1.5774   -0.3094 C   0  0  0  0  0  0  0  0  0  0  0  0
   -5.0191   -0.8548   -0.1359 C   0  0  0  0  0  0  0  0  0  0  0  0
   -3.6269    1.8299   -0.0757 C   0  0  0  0  0  0  0  0  0  0  0  0
   -0.1894   -0.8818    1.7440 C   0  0  0  0  0  0  0  0  0  0  0  0
    3.9762   -0.0888   -0.3219 C   0  0  0  0  0  0  0  0  0  0  0  0
    0.7760   -0.2854   -2.0804 C   0  0  0  0  0  0  0  0  0  0  0  0
    3.3956   -1.3534   -0.8642 C   0  0  0  0  0  0  0  0  0  0  0  0
   -3.0033    0.5936    2.0117 C   0  0  0  0  0  0  0  0  0  0  0  0
    3.8960    2.0543    0.6682 C   0  0  0  0  0  0  0  0  0  0  0  0
   -5.6788    0.4553   -0.6557 C   0  0  2  0  0  0  0  0  0  0  0  0
   -5.1473    1.7170    0.0145 C   0  0  0  0  0  0  0  0  0  0  0  0
    3.3549    1.8822   -1.7653 C   0  0  0  0  0  0  0  0  0  0  0  0
    5.1562    0.0955    0.2936 C   0  0  0  0  0  0  0  0  0  0  0  0
    5.3240    1.5155    0.7400 C   0  0  0  0  0  0  0  0  0  0  0  0
   -5.5336   -1.2273    1.2693 C   0  0  0  0  0  0  0  0  0  0  0  0
   -5.4821   -2.0016   -1.0778 C   0  0  0  0  0  0  0  0  0  0  0  0
    6.2452   -0.8848    0.5547 C   0  0  0  0  0  0  0  0  0  0  0  0
    6.8147   -1.4388   -0.7528 C   0  0  0  0  0  0  0  0  0  0  0  0
    5.7447   -2.0223    1.4456 C   0  0  0  0  0  0  0  0  0  0  0  0
   -1.4034    0.8237   -1.0676 H   0  0  0  0  0  0  0  0  0  0  0  0
    1.7492    0.7581    1.1102 H   0  0  0  0  0  0  0  0  0  0  0  0
   -3.2698   -0.5436   -1.2991 H   0  0  0  0  0  0  0  0  0  0  0  0
   -0.6674   -2.7582   -0.0591 H   0  0  0  0  0  0  0  0  0  0  0  0
   -1.2354   -1.8096   -1.4154 H   0  0  0  0  0  0  0  0  0  0  0  0
   -0.4689    1.9557    1.5976 H   0  0  0  0  0  0  0  0  0  0  0  0
   -1.1853    2.8613    0.2825 H   0  0  0  0  0  0  0  0  0  0  0  0
    0.6394    2.4007   -1.1954 H   0  0  0  0  0  0  0  0  0  0  0  0
    1.2517    3.0343    0.3210 H   0  0  0  0  0  0  0  0  0  0  0  0
   -3.0688   -2.8335   -0.3601 H   0  0  0  0  0  0  0  0  0  0  0  0
   -2.7024   -2.1757    1.2118 H   0  0  0  0  0  0  0  0  0  0  0  0
    1.5720   -2.4922   -0.7546 H   0  0  0  0  0  0  0  0  0  0  0  0
    2.0994   -1.7767    0.7600 H   0  0  0  0  0  0  0  0  0  0  0  0
   -3.3617    1.9924   -1.1289 H   0  0  0  0  0  0  0  0  0  0  0  0
   -3.3274    2.7367    0.4627 H   0  0  0  0  0  0  0  0  0  0  0  0
    0.2736   -0.0484    2.2749 H   0  0  0  0  0  0  0  0  0  0  0  0
    0.4377   -1.7639    1.8977 H   0  0  0  0  0  0  0  0  0  0  0  0
   -1.1054   -1.1155    2.2828 H   0  0  0  0  0  0  0  0  0  0  0  0
    0.3363   -1.2004   -2.4860 H   0  0  0  0  0  0  0  0  0  0  0  0
    1.7037   -0.1738   -2.6365 H   0  0  0  0  0  0  0  0  0  0  0  0
    0.1399    0.5499   -2.3775 H   0  0  0  0  0  0  0  0  0  0  0  0
    3.3767   -1.2971   -1.9575 H   0  0  0  0  0  0  0  0  0  0  0  0
    3.9899   -2.2371   -0.6405 H   0  0  0  0  0  0  0  0  0  0  0  0
   -3.0244   -0.4089    2.4414 H   0  0  0  0  0  0  0  0  0  0  0  0
   -3.9244    1.0793    2.3434 H   0  0  0  0  0  0  0  0  0  0  0  0
   -2.2032    1.1482    2.5070 H   0  0  0  0  0  0  0  0  0  0  0  0
    3.4331    1.9465    1.6583 H   0  0  0  0  0  0  0  0  0  0  0  0
    3.8834    3.1251    0.4349 H   0  0  0  0  0  0  0  0  0  0  0  0
   -5.4964    0.5389   -1.7355 H   0  0  0  0  0  0  0  0  0  0  0  0
   -5.4913    1.7695    1.0531 H   0  0  0  0  0  0  0  0  0  0  0  0
   -5.5977    2.5953   -0.4665 H   0  0  0  0  0  0  0  0  0  0  0  0
    2.8321    2.8434   -1.8038 H   0  0  0  0  0  0  0  0  0  0  0  0
    3.0186    1.2834   -2.6100 H   0  0  0  0  0  0  0  0  0  0  0  0
    4.4139    2.0973   -1.9568 H   0  0  0  0  0  0  0  0  0  0  0  0
    5.7096    1.5891    1.7616 H   0  0  0  0  0  0  0  0  0  0  0  0
    5.9967    2.0542    0.0646 H   0  0  0  0  0  0  0  0  0  0  0  0
   -5.1744   -2.9849   -0.7082 H   0  0  0  0  0  0  0  0  0  0  0  0
   -5.4598   -0.4042    1.9805 H   0  0  0  0  0  0  0  0  0  0  0  0
   -4.9917   -2.0837    1.6826 H   0  0  0  0  0  0  0  0  0  0  0  0
   -5.0741   -1.8755   -2.0869 H   0  0  0  0  0  0  0  0  0  0  0  0
   -6.5742   -2.0310   -1.1676 H   0  0  0  0  0  0  0  0  0  0  0  0
   -6.5929   -1.5102    1.2395 H   0  0  0  0  0  0  0  0  0  0  0  0
    7.0598   -0.3766    1.0867 H   0  0  0  0  0  0  0  0  0  0  0  0
   -7.4661    1.2223   -0.8598 H   0  0  0  0  0  0  0  0  0  0  0  0
    6.0954   -2.0380   -1.3177 H   0  0  0  0  0  0  0  0  0  0  0  0
    5.1249   -2.7572    0.9297 H   0  0  0  0  0  0  0  0  0  0  0  0
    5.1822   -1.6400    2.3050 H   0  0  0  0  0  0  0  0  0  0  0  0
    6.6033   -2.5760    1.8446 H   0  0  0  0  0  0  0  0  0  0  0  0
    7.6781   -2.0810   -0.5449 H   0  0  0  0  0  0  0  0  0  0  0  0
    7.1592   -0.6269   -1.4035 H   0  0  0  0  0  0  0  0  0  0  0  0
  1 22  1  0  0  0  0
  1 75  1  0  0  0  0
  2  3  1  0  0  0  0
  2  4  1  0  0  0  0
  2  8  1  0  0  0  0
  2 16  1  0  0  0  0
  3  6  1  0  0  0  0
  3 13  1  0  0  0  0
  3 18  1  0  0  0  0
  4  5  1  0  0  0  0
  4 10  1  0  0  0  0
  4 32  1  0  0  0  0
  5  7  1  0  0  0  0
  5 15  1  0  0  0  0
  5 20  1  0  0  0  0
  6  9  1  0  0  0  0
  6 11  1  0  0  0  0
  6 33  1  0  0  0  0
  7 12  1  0  0  0  0
  7 14  1  0  0  0  0
  7 34  1  0  0  0  0
  8 12  1  0  0  0  0
  8 35  1  0  0  0  0
  8 36  1  0  0  0  0
  9 17  1  0  0  0  0
  9 21  1  0  0  0  0
  9 24  1  0  0  0  0
 10 11  1  0  0  0  0
 10 37  1  0  0  0  0
 10 38  1  0  0  0  0
 11 39  1  0  0  0  0
 11 40  1  0  0  0  0
 12 41  1  0  0  0  0
 12 42  1  0  0  0  0
 13 19  1  0  0  0  0
 13 43  1  0  0  0  0
 13 44  1  0  0  0  0
 14 22  1  0  0  0  0
 14 27  1  0  0  0  0
 14 28  1  0  0  0  0
 15 23  1  0  0  0  0
 15 45  1  0  0  0  0
 15 46  1  0  0  0  0
 16 47  1  0  0  0  0
 16 48  1  0  0  0  0
 16 49  1  0  0  0  0
 17 19  1  0  0  0  0
 17 25  2  0  0  0  0
 18 50  1  0  0  0  0
 18 51  1  0  0  0  0
 18 52  1  0  0  0  0
 19 53  1  0  0  0  0
 19 54  1  0  0  0  0
 20 55  1  0  0  0  0
 20 56  1  0  0  0  0
 20 57  1  0  0  0  0
 21 26  1  0  0  0  0
 21 58  1  0  0  0  0
 21 59  1  0  0  0  0
 22 23  1  0  0  0  0
 22 60  1  0  0  0  0
 23 61  1  0  0  0  0
 23 62  1  0  0  0  0
 24 63  1  0  0  0  0
 24 64  1  0  0  0  0
 24 65  1  0  0  0  0
 25 26  1  0  0  0  0
 25 29  1  0  0  0  0
 26 66  1  0  0  0  0
 26 67  1  0  0  0  0
 27 69  1  0  0  0  0
 27 70  1  0  0  0  0
 27 73  1  0  0  0  0
 28 68  1  0  0  0  0
 28 71  1  0  0  0  0
 28 72  1  0  0  0  0
 29 30  1  0  0  0  0
 29 31  1  0  0  0  0
 29 74  1  0  0  0  0
 30 76  1  0  0  0  0
 30 80  1  0  0  0  0
 30 81  1  0  0  0  0
 31 77  1  0  0  0  0
 31 78  1  0  0  0  0
 31 79  1  0  0  0  0
M  END
> <PUBCHEM_COMPOUND_CID>
91632878

> <PUBCHEM_CONFORMER_RMSD>
0.8

> <PUBCHEM_CONFORMER_DIVERSEORDER>
2
1

> <PUBCHEM_MMFF94_PARTIAL_CHARGES>
9
1 -0.68
17 -0.28
19 0.14
22 0.28
25 -0.28
26 0.14
29 0.14
75 0.4
9 0.14

> <PUBCHEM_EFFECTIVE_ROTOR_COUNT>
3.4

> <PUBCHEM_PHARMACOPHORE_FEATURES>
9
1 1 acceptor
1 1 donor
3 14 27 28 hydrophobe
3 29 30 31 hydrophobe
5 9 17 21 25 26 rings
6 2 3 4 6 10 11 rings
6 2 4 5 7 8 12 rings
6 3 6 9 13 17 19 rings
6 5 7 14 15 22 23 rings

> <PUBCHEM_HEAVY_ATOM_COUNT>
31

> <PUBCHEM_ATOM_DEF_STEREO_COUNT>
8

> <PUBCHEM_ATOM_UDEF_STEREO_COUNT>
0

> <PUBCHEM_BOND_DEF_STEREO_COUNT>
0

> <PUBCHEM_BOND_UDEF_STEREO_COUNT>
0

> <PUBCHEM_ISOTOPIC_ATOM_COUNT>
0

> <PUBCHEM_COMPONENT_COUNT>
1

> <PUBCHEM_CACTVS_TAUTO_COUNT>
1

> <PUBCHEM_CONFORMER_ID>
057634EE00000002

> <PUBCHEM_MMFF94_ENERGY>
142.8733

> <PUBCHEM_FEATURE_SELFOVERLAP>
45.788

> <PUBCHEM_SHAPE_FINGERPRINT>
10 15 18130212827733464200
11315181 36 18060422421396023345
11456790 92 18272095967975593489
11578080 2 16628253662437354912
11719270 70 18131628963580746070
11796584 16 16008754619456637040
12107698 1 18334854983708699480
12166972 35 18409168831167488184
12236239 1 18260827115708662251
12403260 363 18411703205084402981
12422481 6 18202279178608367246
12633257 1 18342748381979399496
13224815 77 17632588157572025884
13533116 47 18408037425549883146
13782708 43 17530684337736490395
13811026 1 18342450426643721477
13862211 1 18341330067297217303
13914758 101 18040709234767333813
14251764 18 18408600379914199162
14341114 176 18409451405945405322
15183329 4 18411138017436644038
15196674 1 18412826901683260476
15420108 30 17615406961465392320
15788980 27 18260833708536267561
17349148 13 18342741835869023792
17857418 61 18412824698338423522
17980427 23 17275117132268425001
1813 80 17095240328810098764
18681886 176 18342734135509620466
19377110 9 16845579694788720387
20028762 73 18201718440732720534
20511986 3 18270667749119866454
21130935 74 18202564007644026922
21267235 1 18411145739956913654
21279426 13 18409725140789850476
21792934 111 18343022177670733577
21859007 373 18115292372306840124
22149856 69 16988299641770588163
23402539 116 18343579651113382909
23559900 14 18342459201689155590
23569917 315 18201726141034530871
23569943 247 17242155860874283066
3004659 81 18334858316503029364
335352 9 18410856555687785564
3383291 50 18261393398831876763
34797466 226 16630533971980634944
350125 39 18409730643154614100
3633792 109 18271803463675684061
3680242 22 18408328778170659376
392239 28 18271814501156046769
4015057 19 18041846228580483609
4017518 198 17846785092566301462
404807 14 17193210963457281382
4073 2 18187086203871052242
4325135 7 18131631175667699119
4340502 62 14836406930541243868
439807 62 18267302209480902087
474113 269 18116695340881137762
5104073 3 18412549820436846024
5283173 99 18337105675194417261
58260988 393 15123517977642925346
59755656 215 18410577245596482326
59755656 520 17240201045522805707
6086070 43 17896296087261273949
6138700 20 18336264557087974674
7495541 125 17560797779272036257
77296 10 18412825810877839258

> <PUBCHEM_SHAPE_MULTIPOLES>
632.1
16.23
2.41
1.4
0.28
0.25
-0.07
-3.56
-0.44
-0.55
0
-0.22
-0.13
-0.47

> <PUBCHEM_SHAPE_SELFOVERLAP>
1335.477

> <PUBCHEM_SHAPE_VOLUME>
351.9

> <PUBCHEM_COORDINATE_TYPE>
2
5
10

$$$$
