517859
  -OEChem-08272014413D

 18 18  0     0  0  0  0  0  0999 V2000
   -0.6319    1.0229   -0.0006 O   0  0  0  0  0  0  0  0  0  0  0  0
    0.8293   -0.6847   -0.0005 C   0  0  0  0  0  0  0  0  0  0  0  0
    0.6836    0.6830   -0.0007 C   0  0  0  0  0  0  0  0  0  0  0  0
   -1.3340   -0.1406   -0.0006 C   0  0  0  0  0  0  0  0  0  0  0  0
   -0.4810   -1.2197   -0.0004 C   0  0  0  0  0  0  0  0  0  0  0  0
    2.0927   -1.4450    0.0008 C   0  0  0  0  0  0  0  0  0  0  0  0
    1.6396    1.8003    0.0007 C   0  0  0  0  0  0  0  0  0  0  0  0
   -2.7982   -0.0162    0.0012 C   0  0  0  0  0  0  0  0  0  0  0  0
   -0.7694   -2.2615    0.0003 H   0  0  0  0  0  0  0  0  0  0  0  0
    2.7052   -1.1758    0.8675 H   0  0  0  0  0  0  0  0  0  0  0  0
    1.9099   -2.5237    0.0421 H   0  0  0  0  0  0  0  0  0  0  0  0
    2.6689   -1.2365   -0.9065 H   0  0  0  0  0  0  0  0  0  0  0  0
    1.3908    2.5221   -0.7836 H   0  0  0  0  0  0  0  0  0  0  0  0
    1.6180    2.3190    0.9640 H   0  0  0  0  0  0  0  0  0  0  0  0
    2.6623    1.4533   -0.1751 H   0  0  0  0  0  0  0  0  0  0  0  0
   -3.1371    0.5249    0.8900 H   0  0  0  0  0  0  0  0  0  0  0  0
   -3.1389    0.5289   -0.8846 H   0  0  0  0  0  0  0  0  0  0  0  0
   -3.2785   -0.9997   -0.0005 H   0  0  0  0  0  0  0  0  0  0  0  0
  1  3  1  0  0  0  0
  1  4  1  0  0  0  0
  2  3  2  0  0  0  0
  2  5  1  0  0  0  0
  2  6  1  0  0  0  0
  3  7  1  0  0  0  0
  4  5  2  0  0  0  0
  4  8  1  0  0  0  0
  5  9  1  0  0  0  0
  6 10  1  0  0  0  0
  6 11  1  0  0  0  0
  6 12  1  0  0  0  0
  7 13  1  0  0  0  0
  7 14  1  0  0  0  0
  7 15  1  0  0  0  0
  8 16  1  0  0  0  0
  8 17  1  0  0  0  0
  8 18  1  0  0  0  0
M  END
> <PUBCHEM_COMPOUND_CID>
517859

> <PUBCHEM_CONFORMER_RMSD>
0.4

> <PUBCHEM_CONFORMER_DIVERSEORDER>
1

> <PUBCHEM_MMFF94_PARTIAL_CHARGES>
9
1 -0.28
2 -0.18
3 -0.04
4 -0.04
5 -0.15
6 0.18
7 0.18
8 0.18
9 0.15

> <PUBCHEM_EFFECTIVE_ROTOR_COUNT>
0

> <PUBCHEM_PHARMACOPHORE_FEATURES>
2
1 1 acceptor
5 1 2 3 4 5 rings

> <PUBCHEM_HEAVY_ATOM_COUNT>
8

> <PUBCHEM_ATOM_DEF_STEREO_COUNT>
0

> <PUBCHEM_ATOM_UDEF_STEREO_COUNT>
0

> <PUBCHEM_BOND_DEF_STEREO_COUNT>
0

> <PUBCHEM_BOND_UDEF_STEREO_COUNT>
0

> <PUBCHEM_ISOTOPIC_ATOM_COUNT>
0

> <PUBCHEM_COMPONENT_COUNT>
1

> <PUBCHEM_CACTVS_TAUTO_COUNT>
1

> <PUBCHEM_CONFORMER_ID>
0007E6E300000001

> <PUBCHEM_MMFF94_ENERGY>
2.8504

> <PUBCHEM_FEATURE_SELFOVERLAP>
10.148

> <PUBCHEM_SHAPE_FINGERPRINT>
21040471 1 18122626312347789125
23552423 10 18335983172194885390
29004967 10 18338799996431254419
5084963 1 18201433641018065187

> <PUBCHEM_SHAPE_MULTIPOLES>
158.77
2.98
1.71
0.6
1.46
0.25
0
-0.11
0
-1.18
0
-0.01
-0.01
0

> <PUBCHEM_SHAPE_SELFOVERLAP>
322.786

> <PUBCHEM_SHAPE_VOLUME>
95.9

> <PUBCHEM_COORDINATE_TYPE>
2
5
10

$$$$
