5365848
  -OEChem-08272012063D

 28 27  0     1  0  0  0  0  0999 V2000
   -0.5230   -0.5223    0.2418 C   0  0  2  0  0  0  0  0  0  0  0  0
    0.5063    0.5099   -0.3042 C   0  0  1  0  0  0  0  0  0  0  0  0
   -0.1224   -1.9665   -0.0917 C   0  0  0  0  0  0  0  0  0  0  0  0
    0.0919    1.9564    0.0052 C   0  0  0  0  0  0  0  0  0  0  0  0
   -1.9068   -0.2775   -0.3202 C   0  0  0  0  0  0  0  0  0  0  0  0
    1.8802    0.2824    0.2889 C   0  0  0  0  0  0  0  0  0  0  0  0
   -2.9806   -0.0014    0.4347 C   0  0  0  0  0  0  0  0  0  0  0  0
    3.0218    0.0017   -0.3585 C   0  0  0  0  0  0  0  0  0  0  0  0
   -4.3455    0.2404   -0.1191 C   0  0  0  0  0  0  0  0  0  0  0  0
    4.3780   -0.2231    0.2231 C   0  0  0  0  0  0  0  0  0  0  0  0
   -0.5576   -0.4360    1.3371 H   0  0  0  0  0  0  0  0  0  0  0  0
    0.5680    0.4068   -1.3964 H   0  0  0  0  0  0  0  0  0  0  0  0
    0.0091   -2.1063   -1.1708 H   0  0  0  0  0  0  0  0  0  0  0  0
   -0.8871   -2.6748    0.2477 H   0  0  0  0  0  0  0  0  0  0  0  0
    0.8143   -2.2449    0.4019 H   0  0  0  0  0  0  0  0  0  0  0  0
   -0.0685    2.1064    1.0790 H   0  0  0  0  0  0  0  0  0  0  0  0
    0.8631    2.6640   -0.3210 H   0  0  0  0  0  0  0  0  0  0  0  0
   -0.8316    2.2271   -0.5166 H   0  0  0  0  0  0  0  0  0  0  0  0
   -2.0160   -0.3330   -1.4012 H   0  0  0  0  0  0  0  0  0  0  0  0
    1.9329    0.3594    1.3748 H   0  0  0  0  0  0  0  0  0  0  0  0
   -2.8772    0.0559    1.5150 H   0  0  0  0  0  0  0  0  0  0  0  0
    2.9754   -0.0768   -1.4434 H   0  0  0  0  0  0  0  0  0  0  0  0
   -4.3698    0.1664   -1.2109 H   0  0  0  0  0  0  0  0  0  0  0  0
   -4.6898    1.2401    0.1627 H   0  0  0  0  0  0  0  0  0  0  0  0
   -5.0480   -0.4930    0.2883 H   0  0  0  0  0  0  0  0  0  0  0  0
    5.0834    0.5115   -0.1765 H   0  0  0  0  0  0  0  0  0  0  0  0
    4.7355   -1.2240   -0.0365 H   0  0  0  0  0  0  0  0  0  0  0  0
    4.3705   -0.1336    1.3138 H   0  0  0  0  0  0  0  0  0  0  0  0
  1  2  1  0  0  0  0
  1  3  1  0  0  0  0
  1  5  1  0  0  0  0
  1 11  1  0  0  0  0
  2  4  1  0  0  0  0
  2  6  1  0  0  0  0
  2 12  1  0  0  0  0
  3 13  1  0  0  0  0
  3 14  1  0  0  0  0
  3 15  1  0  0  0  0
  4 16  1  0  0  0  0
  4 17  1  0  0  0  0
  4 18  1  0  0  0  0
  5  7  2  0  0  0  0
  5 19  1  0  0  0  0
  6  8  2  0  0  0  0
  6 20  1  0  0  0  0
  7  9  1  0  0  0  0
  7 21  1  0  0  0  0
  8 10  1  0  0  0  0
  8 22  1  0  0  0  0
  9 23  1  0  0  0  0
  9 24  1  0  0  0  0
  9 25  1  0  0  0  0
 10 26  1  0  0  0  0
 10 27  1  0  0  0  0
 10 28  1  0  0  0  0
M  END
> <PUBCHEM_COMPOUND_CID>
5365848

> <PUBCHEM_CONFORMER_RMSD>
0.6

> <PUBCHEM_CONFORMER_DIVERSEORDER>
1
22
11
5
21
18
15
10
19
16
9
17
12
23
6
3
20
14
2
7
8
4
13

> <PUBCHEM_MMFF94_PARTIAL_CHARGES>
12
1 0.14
10 0.14
19 0.15
2 0.14
20 0.15
21 0.15
22 0.15
5 -0.29
6 -0.29
7 -0.29
8 -0.29
9 0.14

> <PUBCHEM_EFFECTIVE_ROTOR_COUNT>
3

> <PUBCHEM_PHARMACOPHORE_FEATURES>
5
1 10 hydrophobe
1 3 hydrophobe
1 4 hydrophobe
1 9 hydrophobe
4 1 2 5 6 hydrophobe

> <PUBCHEM_HEAVY_ATOM_COUNT>
10

> <PUBCHEM_ATOM_DEF_STEREO_COUNT>
0

> <PUBCHEM_ATOM_UDEF_STEREO_COUNT>
2

> <PUBCHEM_BOND_DEF_STEREO_COUNT>
2

> <PUBCHEM_BOND_UDEF_STEREO_COUNT>
0

> <PUBCHEM_ISOTOPIC_ATOM_COUNT>
0

> <PUBCHEM_COMPONENT_COUNT>
1

> <PUBCHEM_CACTVS_TAUTO_COUNT>
1

> <PUBCHEM_CONFORMER_ID>
0051E05800000001

> <PUBCHEM_MMFF94_ENERGY>
7.8124

> <PUBCHEM_FEATURE_SELFOVERLAP>
25.802

> <PUBCHEM_SHAPE_FINGERPRINT>
10130415 120 18334294288275511488
10219947 1 18410578383361486053
11062470 55 15267345123552353947
11401426 45 18343014493377992149
12032990 46 18409456889927779723
124424 183 18113054948101595657
12932764 1 16878489250117713248
13690532 89 18410573998099805971
14325111 11 18338518650577563751
14993402 34 18410857676352385605
18342897 14 18335422361398889033
18511873 20 18409449219126550205
193761 8 17689998938135925373
20645476 183 17678198168036125950
20671657 1 18118693359466796509
207724 885 18336267937084811792
23235685 24 18410289216072071963
23402539 116 18201148901634055669
23402655 69 18267852905813136637
265663 24 16917345935340663231
366044 4 18411136943737459843
53655031 270 18337673018487334728

> <PUBCHEM_SHAPE_MULTIPOLES>
205.8
7
1.47
0.69
0.27
0.01
0
-0.02
-0.25
-0.02
0.03
0
0
-0.01

> <PUBCHEM_SHAPE_SELFOVERLAP>
375.005

> <PUBCHEM_SHAPE_VOLUME>
133

> <PUBCHEM_COORDINATE_TYPE>
2
5
10

$$$$
