13030
  -OEChem-08272011213D

 22 22  0     0  0  0  0  0  0999 V2000
   -0.2003   -0.0219    0.4162 C   0  0  0  0  0  0  0  0  0  0  0  0
    2.2610    0.0006   -0.0622 C   0  0  0  0  0  0  0  0  0  0  0  0
    1.2065   -0.0405    0.7856 C   0  0  0  0  0  0  0  0  0  0  0  0
   -0.8719    1.1940    0.2889 C   0  0  0  0  0  0  0  0  0  0  0  0
   -0.8778   -1.2200    0.1893 C   0  0  0  0  0  0  0  0  0  0  0  0
    3.6709   -0.0442    0.4633 C   0  0  0  0  0  0  0  0  0  0  0  0
    2.1580    0.1076   -1.5591 C   0  0  0  0  0  0  0  0  0  0  0  0
   -2.2209    1.2121   -0.0651 C   0  0  0  0  0  0  0  0  0  0  0  0
   -2.2270   -1.2019   -0.1649 C   0  0  0  0  0  0  0  0  0  0  0  0
   -2.8984    0.0142   -0.2920 C   0  0  0  0  0  0  0  0  0  0  0  0
    1.3844   -0.1116    1.8568 H   0  0  0  0  0  0  0  0  0  0  0  0
   -0.3577    2.1363    0.4626 H   0  0  0  0  0  0  0  0  0  0  0  0
   -0.3685   -2.1759    0.2846 H   0  0  0  0  0  0  0  0  0  0  0  0
    4.2130    0.8617    0.1732 H   0  0  0  0  0  0  0  0  0  0  0  0
    3.7045   -0.1166    1.5554 H   0  0  0  0  0  0  0  0  0  0  0  0
    4.1995   -0.9123    0.0562 H   0  0  0  0  0  0  0  0  0  0  0  0
    2.6407   -0.7543   -2.0317 H   0  0  0  0  0  0  0  0  0  0  0  0
    2.6578    1.0176   -1.9069 H   0  0  0  0  0  0  0  0  0  0  0  0
    1.1257    0.1425   -1.9180 H   0  0  0  0  0  0  0  0  0  0  0  0
   -2.7439    2.1588   -0.1642 H   0  0  0  0  0  0  0  0  0  0  0  0
   -2.7547   -2.1345   -0.3416 H   0  0  0  0  0  0  0  0  0  0  0  0
   -3.9488    0.0282   -0.5678 H   0  0  0  0  0  0  0  0  0  0  0  0
  1  3  1  0  0  0  0
  1  4  2  0  0  0  0
  1  5  1  0  0  0  0
  2  3  2  0  0  0  0
  2  6  1  0  0  0  0
  2  7  1  0  0  0  0
  3 11  1  0  0  0  0
  4  8  1  0  0  0  0
  4 12  1  0  0  0  0
  5  9  2  0  0  0  0
  5 13  1  0  0  0  0
  6 14  1  0  0  0  0
  6 15  1  0  0  0  0
  6 16  1  0  0  0  0
  7 17  1  0  0  0  0
  7 18  1  0  0  0  0
  7 19  1  0  0  0  0
  8 10  2  0  0  0  0
  8 20  1  0  0  0  0
  9 10  1  0  0  0  0
  9 21  1  0  0  0  0
 10 22  1  0  0  0  0
M  END
> <PUBCHEM_COMPOUND_CID>
13030

> <PUBCHEM_CONFORMER_RMSD>
0.4

> <PUBCHEM_CONFORMER_DIVERSEORDER>
1
3
2

> <PUBCHEM_MMFF94_PARTIAL_CHARGES>
16
1 0.03
10 -0.15
11 0.15
12 0.15
13 0.15
2 -0.28
20 0.15
21 0.15
22 0.15
3 -0.18
4 -0.15
5 -0.15
6 0.14
7 0.14
8 -0.15
9 -0.15

> <PUBCHEM_EFFECTIVE_ROTOR_COUNT>
1

> <PUBCHEM_PHARMACOPHORE_FEATURES>
2
3 2 6 7 hydrophobe
6 1 4 5 8 9 10 rings

> <PUBCHEM_HEAVY_ATOM_COUNT>
10

> <PUBCHEM_ATOM_DEF_STEREO_COUNT>
0

> <PUBCHEM_ATOM_UDEF_STEREO_COUNT>
0

> <PUBCHEM_BOND_DEF_STEREO_COUNT>
0

> <PUBCHEM_BOND_UDEF_STEREO_COUNT>
0

> <PUBCHEM_ISOTOPIC_ATOM_COUNT>
0

> <PUBCHEM_COMPONENT_COUNT>
1

> <PUBCHEM_CACTVS_TAUTO_COUNT>
1

> <PUBCHEM_CONFORMER_ID>
000032E600000001

> <PUBCHEM_MMFF94_ENERGY>
24.4448

> <PUBCHEM_FEATURE_SELFOVERLAP>
10.148

> <PUBCHEM_SHAPE_FINGERPRINT>
11062470 55 16200432472367114715
12716758 59 18270970033160209750
12897270 3 18342177773503105718
12932764 1 18411706486697328058
13024252 1 17748826323964151531
14325111 11 18410570652462557952
15310529 11 15051736360870529297
15775835 57 18041279876648700516
16945 1 18411704283421290067
20201158 50 17632858620416061470
20279233 1 17561365075790383198
20645464 45 17917708006780899427
20653085 51 16081082688664391207
21040471 1 18267295435625723641
21061003 4 16558754550379230682
23402539 116 18272072886277895012
23552423 10 18117273859842482897
23559900 14 18272082757109682338
2748010 2 18050835917390130563
29004967 10 16343704339414411698
3248919 1 17603871108804338226
369184 2 18413386535921689059
5084963 1 17458057179336833512
6333449 129 18272646848706674721

> <PUBCHEM_SHAPE_MULTIPOLES>
205.8
5.07
1.2
0.98
2.51
0.01
0.31
0
0.34
-0.9
-0.03
0.63
-0.03
-0.08

> <PUBCHEM_SHAPE_SELFOVERLAP>
418.257

> <PUBCHEM_SHAPE_VOLUME>
114.9

> <PUBCHEM_COORDINATE_TYPE>
2
5
10

$$$$
