524129
  -OEChem-08272013573D

 40 41  0     1  0  0  0  0  0999 V2000
   -2.9355    0.2310    1.0100 O   0  0  0  0  0  0  0  0  0  0  0  0
   -2.4295    0.7477   -0.2264 C   0  0  2  0  0  0  0  0  0  0  0  0
   -2.5354   -0.7439    0.0336 C   0  0  1  0  0  0  0  0  0  0  0  0
   -1.4026   -1.6170    0.4658 C   0  0  0  0  0  0  0  0  0  0  0  0
   -1.1694    1.5649   -0.1547 C   0  0  0  0  0  0  0  0  0  0  0  0
   -3.5006    1.3361   -1.0855 C   0  0  0  0  0  0  0  0  0  0  0  0
   -0.4781   -1.9565   -0.7065 C   0  0  0  0  0  0  0  0  0  0  0  0
   -0.2703    1.4092    1.0362 C   0  0  0  0  0  0  0  0  0  0  0  0
    2.1132    1.2103   -0.0195 C   0  0  0  0  0  0  0  0  0  0  0  0
    0.9362   -2.2233   -0.2450 C   0  0  0  0  0  0  0  0  0  0  0  0
    1.0630    1.2438    1.0868 C   0  0  0  0  0  0  0  0  0  0  0  0
    1.9436    0.0153   -1.0023 C   0  0  0  0  0  0  0  0  0  0  0  0
    1.9603   -1.3563   -0.3742 C   0  0  0  0  0  0  0  0  0  0  0  0
    2.0185    2.5409   -0.8089 C   0  0  0  0  0  0  0  0  0  0  0  0
    3.5322    1.1642    0.5892 C   0  0  0  0  0  0  0  0  0  0  0  0
    1.1544   -3.5664    0.4014 C   0  0  0  0  0  0  0  0  0  0  0  0
   -3.3124   -1.3044   -0.4720 H   0  0  0  0  0  0  0  0  0  0  0  0
   -1.8167   -2.5462    0.8775 H   0  0  0  0  0  0  0  0  0  0  0  0
   -0.8486   -1.1572    1.2902 H   0  0  0  0  0  0  0  0  0  0  0  0
   -1.4519    2.6261   -0.1753 H   0  0  0  0  0  0  0  0  0  0  0  0
   -0.6294    1.3848   -1.0856 H   0  0  0  0  0  0  0  0  0  0  0  0
   -3.1551    1.4160   -2.1215 H   0  0  0  0  0  0  0  0  0  0  0  0
   -4.4152    0.7327   -1.0854 H   0  0  0  0  0  0  0  0  0  0  0  0
   -3.7708    2.3384   -0.7364 H   0  0  0  0  0  0  0  0  0  0  0  0
   -0.5055   -1.1610   -1.4561 H   0  0  0  0  0  0  0  0  0  0  0  0
   -0.8636   -2.8393   -1.2331 H   0  0  0  0  0  0  0  0  0  0  0  0
   -0.7819    1.4365    1.9982 H   0  0  0  0  0  0  0  0  0  0  0  0
    1.4695    1.1389    2.0942 H   0  0  0  0  0  0  0  0  0  0  0  0
    2.7662    0.0388   -1.7314 H   0  0  0  0  0  0  0  0  0  0  0  0
    1.0491    0.1565   -1.6122 H   0  0  0  0  0  0  0  0  0  0  0  0
    2.9363   -1.6661   -0.0034 H   0  0  0  0  0  0  0  0  0  0  0  0
    1.0935    2.6321   -1.3837 H   0  0  0  0  0  0  0  0  0  0  0  0
    2.0835    3.4084   -0.1410 H   0  0  0  0  0  0  0  0  0  0  0  0
    2.8418    2.6214   -1.5291 H   0  0  0  0  0  0  0  0  0  0  0  0
    3.7260    2.0477    1.2097 H   0  0  0  0  0  0  0  0  0  0  0  0
    3.6718    0.2862    1.2298 H   0  0  0  0  0  0  0  0  0  0  0  0
    4.3018    1.1349   -0.1907 H   0  0  0  0  0  0  0  0  0  0  0  0
    0.8909   -4.3692   -0.2951 H   0  0  0  0  0  0  0  0  0  0  0  0
    0.5344   -3.6658    1.2980 H   0  0  0  0  0  0  0  0  0  0  0  0
    2.1963   -3.7197    0.7022 H   0  0  0  0  0  0  0  0  0  0  0  0
  1  2  1  0  0  0  0
  1  3  1  0  0  0  0
  2  3  1  0  0  0  0
  2  5  1  0  0  0  0
  2  6  1  0  0  0  0
  3  4  1  0  0  0  0
  3 17  1  0  0  0  0
  4  7  1  0  0  0  0
  4 18  1  0  0  0  0
  4 19  1  0  0  0  0
  5  8  1  0  0  0  0
  5 20  1  0  0  0  0
  5 21  1  0  0  0  0
  6 22  1  0  0  0  0
  6 23  1  0  0  0  0
  6 24  1  0  0  0  0
  7 10  1  0  0  0  0
  7 25  1  0  0  0  0
  7 26  1  0  0  0  0
  8 11  2  3  0  0  0
  8 27  1  0  0  0  0
  9 11  1  0  0  0  0
  9 12  1  0  0  0  0
  9 14  1  0  0  0  0
  9 15  1  0  0  0  0
 10 13  2  3  0  0  0
 10 16  1  0  0  0  0
 11 28  1  0  0  0  0
 12 13  1  0  0  0  0
 12 29  1  0  0  0  0
 12 30  1  0  0  0  0
 13 31  1  0  0  0  0
 14 32  1  0  0  0  0
 14 33  1  0  0  0  0
 14 34  1  0  0  0  0
 15 35  1  0  0  0  0
 15 36  1  0  0  0  0
 15 37  1  0  0  0  0
 16 38  1  0  0  0  0
 16 39  1  0  0  0  0
 16 40  1  0  0  0  0
M  END
> <PUBCHEM_COMPOUND_CID>
524129

> <PUBCHEM_CONFORMER_RMSD>
0.6

> <PUBCHEM_CONFORMER_DIVERSEORDER>
2
1
4
3

> <PUBCHEM_MMFF94_PARTIAL_CHARGES>
18
1 -0.3
10 -0.28
11 -0.29
12 0.14
13 -0.29
16 0.14
17 0.1
2 -0.04
27 0.15
28 0.15
3 -0.05
31 0.15
4 0.09
5 0.23
6 0.09
7 0.14
8 -0.29
9 0.14

> <PUBCHEM_EFFECTIVE_ROTOR_COUNT>
1.2

> <PUBCHEM_PHARMACOPHORE_FEATURES>
2
1 1 acceptor
3 9 14 15 hydrophobe

> <PUBCHEM_HEAVY_ATOM_COUNT>
16

> <PUBCHEM_ATOM_DEF_STEREO_COUNT>
0

> <PUBCHEM_ATOM_UDEF_STEREO_COUNT>
2

> <PUBCHEM_BOND_DEF_STEREO_COUNT>
0

> <PUBCHEM_BOND_UDEF_STEREO_COUNT>
2

> <PUBCHEM_ISOTOPIC_ATOM_COUNT>
0

> <PUBCHEM_COMPONENT_COUNT>
1

> <PUBCHEM_CACTVS_TAUTO_COUNT>
1

> <PUBCHEM_CONFORMER_ID>
0007FF6100000002

> <PUBCHEM_MMFF94_ENERGY>
39.2914

> <PUBCHEM_FEATURE_SELFOVERLAP>
10.148

> <PUBCHEM_SHAPE_FINGERPRINT>
11370993 70 18337098055537156604
12716301 132 17982429784014072912
13140716 1 18340773722940187594
13897977 150 18410575055046811261
1420 336 17475804147460453923
14251711 518 18271525308033849943
14251745 187 17768807915857456074
14386348 128 18269572674261632077
14817 1 10140842953290292858
15775835 57 18272656791492674399
15852999 172 18263346071236400929
16945 1 18337680706473487133
19930374 2 18190435239275238756
20201158 50 18412824651178257245
20645476 183 18043817700120445996
20645477 70 18129937867626360853
21160774 45 17689152730952705805
21524375 3 18198624521863932606
2334 1 18268996573076399294
23419403 2 16831445292414341232
238 59 18268404941711112701
257057 1 17545313077829666762
2748010 2 18340780337158304502
2803657 2 17694236473224201866
2897 32 18340774745179203478
305870 269 18335975437286027714
31174 14 18120120315464578203
353137 74 18272378541999622928
5262128 65 17558284136724520086
66348 1 18196943162331193494
7364860 26 18269553840930629694
81228 2 17332796652935596667
90525 40 18263078979984027117

> <PUBCHEM_SHAPE_MULTIPOLES>
323.4
4.83
3.42
1.08
1.59
2.55
0.03
-2.35
-0.37
-1.55
-0.08
0.05
-0.29
0.28

> <PUBCHEM_SHAPE_SELFOVERLAP>
645.322

> <PUBCHEM_SHAPE_VOLUME>
192.6

> <PUBCHEM_COORDINATE_TYPE>
2
5
10

$$$$
