14191394
  -OEChem-08272013533D

 39 40  0     1  0  0  0  0  0999 V2000
   -0.1297    0.3552   -1.1294 O   0  0  0  0  0  0  0  0  0  0  0  0
    1.8728    1.0376   -2.0437 O   0  0  0  0  0  0  0  0  0  0  0  0
   -0.5147   -0.3810    0.0604 C   0  0  2  0  0  0  0  0  0  0  0  0
   -0.5710   -1.8807   -0.3263 C   0  0  2  0  0  0  0  0  0  0  0  0
   -1.9761   -0.0710    0.4260 C   0  0  2  0  0  0  0  0  0  0  0  0
   -1.8936   -1.9848   -1.1083 C   0  0  0  0  0  0  0  0  0  0  0  0
   -2.7913   -0.8436   -0.6189 C   0  0  0  0  0  0  0  0  0  0  0  0
    0.5120    0.0297    1.1035 C   0  0  0  0  0  0  0  0  0  0  0  0
   -0.5631   -2.8590    0.8490 C   0  0  0  0  0  0  0  0  0  0  0  0
   -2.3277    1.3811    0.4761 C   0  0  0  0  0  0  0  0  0  0  0  0
    1.6929    0.2535    0.2351 C   0  0  0  0  0  0  0  0  0  0  0  0
    1.2153    0.5984   -1.1185 C   0  0  0  0  0  0  0  0  0  0  0  0
   -2.8607    1.8878    1.7834 C   0  0  0  0  0  0  0  0  0  0  0  0
    2.9857    0.1418    0.5429 C   0  0  0  0  0  0  0  0  0  0  0  0
   -2.1748    2.1848   -0.5867 C   0  0  0  0  0  0  0  0  0  0  0  0
    3.4514   -0.2100    1.9291 C   0  0  0  0  0  0  0  0  0  0  0  0
    4.0725    0.3600   -0.4737 C   0  0  0  0  0  0  0  0  0  0  0  0
    0.2532   -2.1512   -0.9983 H   0  0  0  0  0  0  0  0  0  0  0  0
   -2.1869   -0.5184    1.4074 H   0  0  0  0  0  0  0  0  0  0  0  0
   -2.3810   -2.9587   -0.9944 H   0  0  0  0  0  0  0  0  0  0  0  0
   -1.6983   -1.8498   -2.1795 H   0  0  0  0  0  0  0  0  0  0  0  0
   -3.1028   -0.2338   -1.4743 H   0  0  0  0  0  0  0  0  0  0  0  0
   -3.7084   -1.2406   -0.1678 H   0  0  0  0  0  0  0  0  0  0  0  0
    0.6465   -0.7146    1.8889 H   0  0  0  0  0  0  0  0  0  0  0  0
    0.2462    0.9812    1.5779 H   0  0  0  0  0  0  0  0  0  0  0  0
   -0.7261   -3.8827    0.4941 H   0  0  0  0  0  0  0  0  0  0  0  0
    0.4041   -2.8504    1.3607 H   0  0  0  0  0  0  0  0  0  0  0  0
   -1.3424   -2.6355    1.5834 H   0  0  0  0  0  0  0  0  0  0  0  0
   -3.7800    1.3563    2.0505 H   0  0  0  0  0  0  0  0  0  0  0  0
   -2.1253    1.7352    2.5801 H   0  0  0  0  0  0  0  0  0  0  0  0
   -3.0937    2.9572    1.7471 H   0  0  0  0  0  0  0  0  0  0  0  0
   -2.4330    3.2377   -0.5193 H   0  0  0  0  0  0  0  0  0  0  0  0
   -1.8459    1.8455   -1.5602 H   0  0  0  0  0  0  0  0  0  0  0  0
    3.9384   -1.1907    1.9239 H   0  0  0  0  0  0  0  0  0  0  0  0
    4.1770    0.5329    2.2783 H   0  0  0  0  0  0  0  0  0  0  0  0
    2.6478   -0.2380    2.6691 H   0  0  0  0  0  0  0  0  0  0  0  0
    4.1634    1.4210   -0.7271 H   0  0  0  0  0  0  0  0  0  0  0  0
    5.0425    0.0396   -0.0761 H   0  0  0  0  0  0  0  0  0  0  0  0
    3.9082   -0.2318   -1.3797 H   0  0  0  0  0  0  0  0  0  0  0  0
  1  3  1  0  0  0  0
  1 12  1  0  0  0  0
  2 12  2  0  0  0  0
  3  4  1  0  0  0  0
  3  5  1  0  0  0  0
  3  8  1  0  0  0  0
  4  6  1  0  0  0  0
  4  9  1  0  0  0  0
  4 18  1  0  0  0  0
  5  7  1  0  0  0  0
  5 10  1  0  0  0  0
  5 19  1  0  0  0  0
  6  7  1  0  0  0  0
  6 20  1  0  0  0  0
  6 21  1  0  0  0  0
  7 22  1  0  0  0  0
  7 23  1  0  0  0  0
  8 11  1  0  0  0  0
  8 24  1  0  0  0  0
  8 25  1  0  0  0  0
  9 26  1  0  0  0  0
  9 27  1  0  0  0  0
  9 28  1  0  0  0  0
 10 13  1  0  0  0  0
 10 15  2  0  0  0  0
 11 12  1  0  0  0  0
 11 14  2  0  0  0  0
 13 29  1  0  0  0  0
 13 30  1  0  0  0  0
 13 31  1  0  0  0  0
 14 16  1  0  0  0  0
 14 17  1  0  0  0  0
 15 32  1  0  0  0  0
 15 33  1  0  0  0  0
 16 34  1  0  0  0  0
 16 35  1  0  0  0  0
 16 36  1  0  0  0  0
 17 37  1  0  0  0  0
 17 38  1  0  0  0  0
 17 39  1  0  0  0  0
M  END
> <PUBCHEM_COMPOUND_CID>
14191394

> <PUBCHEM_CONFORMER_RMSD>
0.6

> <PUBCHEM_CONFORMER_DIVERSEORDER>
1
2
3
4

> <PUBCHEM_MMFF94_PARTIAL_CHARGES>
15
1 -0.43
10 -0.28
11 -0.12
12 0.71
13 0.14
14 -0.28
15 -0.3
16 0.14
17 0.14
2 -0.57
3 0.28
32 0.15
33 0.15
5 0.14
8 0.14

> <PUBCHEM_EFFECTIVE_ROTOR_COUNT>
2.2

> <PUBCHEM_PHARMACOPHORE_FEATURES>
4
1 2 acceptor
3 14 16 17 hydrophobe
5 1 3 8 11 12 rings
5 3 4 5 6 7 rings

> <PUBCHEM_HEAVY_ATOM_COUNT>
17

> <PUBCHEM_ATOM_DEF_STEREO_COUNT>
3

> <PUBCHEM_ATOM_UDEF_STEREO_COUNT>
0

> <PUBCHEM_BOND_DEF_STEREO_COUNT>
0

> <PUBCHEM_BOND_UDEF_STEREO_COUNT>
0

> <PUBCHEM_ISOTOPIC_ATOM_COUNT>
0

> <PUBCHEM_COMPONENT_COUNT>
1

> <PUBCHEM_CACTVS_TAUTO_COUNT>
1

> <PUBCHEM_CONFORMER_ID>
00D88B2200000001

> <PUBCHEM_MMFF94_ENERGY>
49.845

> <PUBCHEM_FEATURE_SELFOVERLAP>
20.325

> <PUBCHEM_SHAPE_FINGERPRINT>
11578080 2 11238867435792847250
11582403 64 16122125142810585872
11725454 13 16411492435481412064
12138202 97 17775002371063208484
12491281 212 18341896264229928040
12500047 106 18130788928249101798
12592029 89 17532072956730022275
13024252 1 13118267179761335751
13296909 8 18339623603691786856
13464514 151 16843335475407865192
13538477 17 18043258035426778287
13581323 91 18411981394421285474
13583140 156 17130398312572573122
13898156 1 18115594883969542852
14181834 199 17764020264679315847
14289901 80 18059006319634666746
14614273 12 18339354172367740285
15001771 113 17753887521625653042
15279308 16 17060048272634403392
15309172 13 18114464470136442080
15375462 478 17531539697838038825
15775835 57 18341616962638784721
16945 1 17988089996954319303
17357990 137 18188511106426423964
18186145 218 17916309342238949176
19049666 15 17489317351692874366
20510252 161 18270955859921075131
20511035 2 17542514834064951533
20524608 308 17989487432898629223
20711985 344 18054811708075214487
21524375 3 18341339877292574313
22112679 90 18262529198442546661
23402539 116 17987785415216989335
23419403 2 15817549765955137270
23493267 7 17775571922908786912
23557571 272 17703512189608114173
23559900 14 17917715652793357518
25 1 16843898451284129521
2748010 2 18197510523553657623
276578 36 18126301752360465065
305870 269 18194404394393566715
427121 178 17914078429188731201
5706482 22 18340758257010900307
6992083 37 17968085413541779974
7364860 26 17481998834963419259
74978 22 17969221312211706574
77492 1 18113897182434928216
81228 2 18199192956711656227
90525 40 18187364311519296078

> <PUBCHEM_SHAPE_MULTIPOLES>
338.11
5.42
2.33
1.64
4.28
1
-0.07
-1.85
-0.92
-2.39
-0.27
0.59
-0.38
-0.93

> <PUBCHEM_SHAPE_SELFOVERLAP>
707.026

> <PUBCHEM_SHAPE_VOLUME>
196.3

> <PUBCHEM_COORDINATE_TYPE>
2
5
10

$$$$
