102165198
  -OEChem-08272012473D

 38 38  0     1  0  0  0  0  0999 V2000
    1.4224    1.5636   -1.4087 O   0  0  0  0  0  0  0  0  0  0  0  0
   -4.3897   -0.8365   -0.4080 O   0  0  0  0  0  0  0  0  0  0  0  0
    2.1309   -0.5689   -0.4999 C   0  0  2  0  0  0  0  0  0  0  0  0
    0.7118   -1.0800   -0.7319 C   0  0  2  0  0  0  0  0  0  0  0  0
    2.6106   -0.9370    0.9055 C   0  0  0  0  0  0  0  0  0  0  0  0
   -0.1575   -0.7951    0.5075 C   0  0  0  0  0  0  0  0  0  0  0  0
    4.0177   -0.4058    1.1701 C   0  0  0  0  0  0  0  0  0  0  0  0
    2.2106    0.9421   -0.6984 C   0  0  0  0  0  0  0  0  0  0  0  0
    0.7484   -2.5709   -1.0783 C   0  0  0  0  0  0  0  0  0  0  0  0
    4.1700    1.0278    0.7645 C   0  0  0  0  0  0  0  0  0  0  0  0
    3.3396    1.6698   -0.0642 C   0  0  0  0  0  0  0  0  0  0  0  0
   -1.6288   -0.7690    0.1991 C   0  0  0  0  0  0  0  0  0  0  0  0
   -3.9096    0.3722    0.1834 C   0  0  0  0  0  0  0  0  0  0  0  0
   -2.4261    0.2775    0.4665 C   0  0  0  0  0  0  0  0  0  0  0  0
   -4.6739    0.5939    1.4908 C   0  0  0  0  0  0  0  0  0  0  0  0
   -4.1763    1.5163   -0.7979 C   0  0  0  0  0  0  0  0  0  0  0  0
    2.8091   -1.0000   -1.2491 H   0  0  0  0  0  0  0  0  0  0  0  0
    0.2765   -0.5700   -1.6016 H   0  0  0  0  0  0  0  0  0  0  0  0
    2.6122   -2.0226    1.0530 H   0  0  0  0  0  0  0  0  0  0  0  0
    1.9793   -0.5067    1.6908 H   0  0  0  0  0  0  0  0  0  0  0  0
    0.0022   -1.5573    1.2803 H   0  0  0  0  0  0  0  0  0  0  0  0
    0.1044    0.1772    0.9431 H   0  0  0  0  0  0  0  0  0  0  0  0
    4.7573   -1.0064    0.6277 H   0  0  0  0  0  0  0  0  0  0  0  0
    4.2426   -0.5063    2.2382 H   0  0  0  0  0  0  0  0  0  0  0  0
   -0.2528   -2.9362   -1.3300 H   0  0  0  0  0  0  0  0  0  0  0  0
    1.3888   -2.7551   -1.9477 H   0  0  0  0  0  0  0  0  0  0  0  0
    1.1206   -3.1786   -0.2478 H   0  0  0  0  0  0  0  0  0  0  0  0
    5.0107    1.5728    1.1853 H   0  0  0  0  0  0  0  0  0  0  0  0
    3.4799    2.7151   -0.3123 H   0  0  0  0  0  0  0  0  0  0  0  0
   -2.0460   -1.6665   -0.2482 H   0  0  0  0  0  0  0  0  0  0  0  0
   -1.9803    1.1596    0.9243 H   0  0  0  0  0  0  0  0  0  0  0  0
   -5.7533    0.6509    1.3078 H   0  0  0  0  0  0  0  0  0  0  0  0
   -4.3628    1.5153    1.9954 H   0  0  0  0  0  0  0  0  0  0  0  0
   -4.5221   -0.2454    2.1801 H   0  0  0  0  0  0  0  0  0  0  0  0
   -5.2454    1.5925   -1.0282 H   0  0  0  0  0  0  0  0  0  0  0  0
   -3.8414    2.4813   -0.4020 H   0  0  0  0  0  0  0  0  0  0  0  0
   -3.6673    1.3394   -1.7530 H   0  0  0  0  0  0  0  0  0  0  0  0
   -5.3424   -0.7341   -0.5741 H   0  0  0  0  0  0  0  0  0  0  0  0
  1  8  2  0  0  0  0
  2 13  1  0  0  0  0
  2 38  1  0  0  0  0
  3  4  1  0  0  0  0
  3  5  1  0  0  0  0
  3  8  1  0  0  0  0
  3 17  1  0  0  0  0
  4  6  1  0  0  0  0
  4  9  1  0  0  0  0
  4 18  1  0  0  0  0
  5  7  1  0  0  0  0
  5 19  1  0  0  0  0
  5 20  1  0  0  0  0
  6 12  1  0  0  0  0
  6 21  1  0  0  0  0
  6 22  1  0  0  0  0
  7 10  1  0  0  0  0
  7 23  1  0  0  0  0
  7 24  1  0  0  0  0
  8 11  1  0  0  0  0
  9 25  1  0  0  0  0
  9 26  1  0  0  0  0
  9 27  1  0  0  0  0
 10 11  2  0  0  0  0
 10 28  1  0  0  0  0
 11 29  1  0  0  0  0
 12 14  2  0  0  0  0
 12 30  1  0  0  0  0
 13 14  1  0  0  0  0
 13 15  1  0  0  0  0
 13 16  1  0  0  0  0
 14 31  1  0  0  0  0
 15 32  1  0  0  0  0
 15 33  1  0  0  0  0
 15 34  1  0  0  0  0
 16 35  1  0  0  0  0
 16 36  1  0  0  0  0
 16 37  1  0  0  0  0
M  END
> <PUBCHEM_COMPOUND_CID>
102165198

> <PUBCHEM_CONFORMER_RMSD>
0.6

> <PUBCHEM_CONFORMER_DIVERSEORDER>
1
168
167
135
171
82
47
17
129
120
159
124
51
176
130
36
24
44
88
26
41
7
85
39
170
63
148
62
134
4
38
74
163
66
55
97
166
108
92
145
3
37
79
173
35
27
151
133
12
10
20
28
164
87
136
21
77
160
50
65
93
175
76
102
58
117
101
61
110
22
5
107
78
155
149
30
67
18
80
106
81
32
43
86
13
9
161
8
142
14
103
57
6
83
25
2
146
116
152
126
143
96
125
119
131
153
127
73
46
105
31
94
68
19
52
33
157
64
54
15
56
139
115
59
23
137
98
16
169
29
45
141
53
165
69
99
138
49
112
144
75
113
40
123
48
89
95
122
174
11
70
91
154
71
177
60
156
140
104
42
128
34
147
72
114
121
90
109
100
162
150
84
158
172
132
111
118

> <PUBCHEM_MMFF94_PARTIAL_CHARGES>
16
1 -0.57
10 -0.29
11 -0.14
12 -0.29
13 0.42
14 -0.29
2 -0.68
28 0.15
29 0.15
3 0.06
30 0.15
31 0.15
38 0.4
6 0.14
7 0.14
8 0.49

> <PUBCHEM_EFFECTIVE_ROTOR_COUNT>
4.6

> <PUBCHEM_PHARMACOPHORE_FEATURES>
6
1 1 acceptor
1 2 acceptor
1 2 donor
1 9 hydrophobe
3 13 15 16 hydrophobe
6 3 5 7 8 10 11 rings

> <PUBCHEM_HEAVY_ATOM_COUNT>
16

> <PUBCHEM_ATOM_DEF_STEREO_COUNT>
2

> <PUBCHEM_ATOM_UDEF_STEREO_COUNT>
0

> <PUBCHEM_BOND_DEF_STEREO_COUNT>
1

> <PUBCHEM_BOND_UDEF_STEREO_COUNT>
0

> <PUBCHEM_ISOTOPIC_ATOM_COUNT>
0

> <PUBCHEM_COMPONENT_COUNT>
1

> <PUBCHEM_CACTVS_TAUTO_COUNT>
5

> <PUBCHEM_CONFORMER_ID>
0616EACE00000001

> <PUBCHEM_MMFF94_ENERGY>
26.7495

> <PUBCHEM_FEATURE_SELFOVERLAP>
30.446

> <PUBCHEM_SHAPE_FINGERPRINT>
10498660 4 15697723610397198393
11543360 7 13686294690569200187
11715629 250 18339367375054919309
12251169 10 17968095347685207930
12507557 5 18040431096985746733
12616999 72 11815892371021088816
128620 24 16559031601629264337
12892183 10 17313098657321312200
13583140 156 17168135759108506523
13675066 3 17240201019325278891
13922767 16 18259982656529516232
14251764 38 18113612340352382813
14252887 29 12540697037505367950
14366163 111 15410901734305054187
14576447 43 10159709005867000488
15188451 53 15502661572117577601
15239191 94 7853570193306760041
18186145 218 18270692960973539439
18222031 100 12973606668277770235
18915474 69 10087641515596519232
20281475 54 10519990352884416013
20715895 44 18046900481955087821
20871999 31 14261343657590680069
21524375 3 18340205292524334015
21665062 11 18113624507846590516
21713013 43 12247682668828431601
2215653 11 10015579472832374409
23184049 59 18334287669831018174
23402539 116 18334846213084599359
23402655 69 13183028410025649635
235170 7 14549020961850073033
23557571 272 16988006118945849567
23559900 14 18058452014986981062
23590187 173 17703792500553579896
23590187 302 10231755582791373362
23596394 208 11815615225307999011
2838139 119 15625359355995140232
2871803 45 11527954438907725304
3060560 45 13326852232337494472
328317 168 17632291302306820345
3323516 105 10735866292306822301
351380 180 17894343385144463429
42 15 16443064984771190889
474 4 18413112757716354955
633830 44 17560812004398847213
6786 2 12979018520143877206
81539 233 18272087167128874950
83771 10 11314022478855873354
94968 8 9295286131956732868
960060 61 10519702246509933825

> <PUBCHEM_SHAPE_MULTIPOLES>
317.53
9.7
1.92
1.26
7.96
0.53
0.07
-3.97
2.62
-0.85
-0.69
-0.03
-0.1
-0.13

> <PUBCHEM_SHAPE_SELFOVERLAP>
630.276

> <PUBCHEM_SHAPE_VOLUME>
188.3

> <PUBCHEM_COORDINATE_TYPE>
2
5
10

$$$$
