12299867
  -OEChem-08272012293D

 38 38  0     1  0  0  0  0  0999 V2000
    1.2818   -0.9847    0.0774 O   0  0  0  0  0  0  0  0  0  0  0  0
   -1.2310    0.4746   -0.1426 C   0  0  2  0  0  0  0  0  0  0  0  0
   -2.4055    0.9288   -1.0166 C   0  0  0  0  0  0  0  0  0  0  0  0
   -1.7419    0.0080    1.2309 C   0  0  0  0  0  0  0  0  0  0  0  0
   -3.4199   -0.2021   -1.2161 C   0  0  0  0  0  0  0  0  0  0  0  0
   -3.7261   -0.9699    0.0447 C   0  0  0  0  0  0  0  0  0  0  0  0
   -0.2121    1.5637    0.0078 C   0  0  0  0  0  0  0  0  0  0  0  0
   -2.9686   -0.8534    1.1485 C   0  0  0  0  0  0  0  0  0  0  0  0
   -4.9228   -1.8730   -0.0050 C   0  0  0  0  0  0  0  0  0  0  0  0
   -0.7932    2.9543   -0.0344 C   0  0  0  0  0  0  0  0  0  0  0  0
    1.1158    1.4011    0.1556 C   0  0  0  0  0  0  0  0  0  0  0  0
    1.8391    0.0961    0.1992 C   0  0  0  0  0  0  0  0  0  0  0  0
    3.3101    0.2425    0.4078 C   0  0  0  0  0  0  0  0  0  0  0  0
    4.2619   -0.5788   -0.0726 C   0  0  0  0  0  0  0  0  0  0  0  0
    5.7449   -0.4418    0.1306 C   0  0  0  0  0  0  0  0  0  0  0  0
    3.8675   -1.7653   -0.9153 C   0  0  0  0  0  0  0  0  0  0  0  0
   -0.7938   -0.3824   -0.6670 H   0  0  0  0  0  0  0  0  0  0  0  0
   -2.0587    1.2657   -2.0017 H   0  0  0  0  0  0  0  0  0  0  0  0
   -2.9512    1.7632   -0.5576 H   0  0  0  0  0  0  0  0  0  0  0  0
   -1.9753    0.8644    1.8764 H   0  0  0  0  0  0  0  0  0  0  0  0
   -0.9516   -0.5594    1.7377 H   0  0  0  0  0  0  0  0  0  0  0  0
   -3.0359   -0.9060   -1.9652 H   0  0  0  0  0  0  0  0  0  0  0  0
   -4.3426    0.2279   -1.6240 H   0  0  0  0  0  0  0  0  0  0  0  0
   -3.2316   -1.4076    2.0458 H   0  0  0  0  0  0  0  0  0  0  0  0
   -4.8022   -2.6183   -0.7978 H   0  0  0  0  0  0  0  0  0  0  0  0
   -5.8287   -1.2926   -0.2077 H   0  0  0  0  0  0  0  0  0  0  0  0
   -5.0747   -2.4101    0.9371 H   0  0  0  0  0  0  0  0  0  0  0  0
   -1.6018    3.0694    0.6950 H   0  0  0  0  0  0  0  0  0  0  0  0
   -1.1546    3.2153   -1.0337 H   0  0  0  0  0  0  0  0  0  0  0  0
   -0.0417    3.7093    0.2264 H   0  0  0  0  0  0  0  0  0  0  0  0
    1.7418    2.2865    0.2467 H   0  0  0  0  0  0  0  0  0  0  0  0
    3.6227    1.1176    0.9733 H   0  0  0  0  0  0  0  0  0  0  0  0
    5.9816    0.4173    0.7669 H   0  0  0  0  0  0  0  0  0  0  0  0
    6.2530   -0.2984   -0.8282 H   0  0  0  0  0  0  0  0  0  0  0  0
    6.1484   -1.3374    0.6138 H   0  0  0  0  0  0  0  0  0  0  0  0
    3.0103   -1.5634   -1.5643 H   0  0  0  0  0  0  0  0  0  0  0  0
    4.6853   -2.0444   -1.5900 H   0  0  0  0  0  0  0  0  0  0  0  0
    3.6522   -2.6303   -0.2799 H   0  0  0  0  0  0  0  0  0  0  0  0
  1 12  2  0  0  0  0
  2  3  1  0  0  0  0
  2  4  1  0  0  0  0
  2  7  1  0  0  0  0
  2 17  1  0  0  0  0
  3  5  1  0  0  0  0
  3 18  1  0  0  0  0
  3 19  1  0  0  0  0
  4  8  1  0  0  0  0
  4 20  1  0  0  0  0
  4 21  1  0  0  0  0
  5  6  1  0  0  0  0
  5 22  1  0  0  0  0
  5 23  1  0  0  0  0
  6  8  2  0  0  0  0
  6  9  1  0  0  0  0
  7 10  1  0  0  0  0
  7 11  2  0  0  0  0
  8 24  1  0  0  0  0
  9 25  1  0  0  0  0
  9 26  1  0  0  0  0
  9 27  1  0  0  0  0
 10 28  1  0  0  0  0
 10 29  1  0  0  0  0
 10 30  1  0  0  0  0
 11 12  1  0  0  0  0
 11 31  1  0  0  0  0
 12 13  1  0  0  0  0
 13 14  2  0  0  0  0
 13 32  1  0  0  0  0
 14 15  1  0  0  0  0
 14 16  1  0  0  0  0
 15 33  1  0  0  0  0
 15 34  1  0  0  0  0
 15 35  1  0  0  0  0
 16 36  1  0  0  0  0
 16 37  1  0  0  0  0
 16 38  1  0  0  0  0
M  END
> <PUBCHEM_COMPOUND_CID>
12299867

> <PUBCHEM_CONFORMER_RMSD>
0.6

> <PUBCHEM_CONFORMER_DIVERSEORDER>
1
62
23
59
54
21
31
25
56
48
44
32
34
58
45
29
49
60
17
36
5
16
43
35
24
33
57
53
55
26
37
15
8
20
47
42
41
14
50
18
28
30
51
10
22
6
52
27
9
40
3
39
61
2
7
38
12
11
4
13
46
19

> <PUBCHEM_MMFF94_PARTIAL_CHARGES>
18
1 -0.57
10 0.14
11 -0.14
12 0.54
13 -0.14
14 -0.28
15 0.14
16 0.14
2 0.14
24 0.15
31 0.15
32 0.15
4 0.14
5 0.14
6 -0.28
7 -0.28
8 -0.29
9 0.14

> <PUBCHEM_EFFECTIVE_ROTOR_COUNT>
3.8

> <PUBCHEM_PHARMACOPHORE_FEATURES>
4
1 1 acceptor
1 10 hydrophobe
3 14 15 16 hydrophobe
6 2 3 4 5 6 8 rings

> <PUBCHEM_HEAVY_ATOM_COUNT>
16

> <PUBCHEM_ATOM_DEF_STEREO_COUNT>
1

> <PUBCHEM_ATOM_UDEF_STEREO_COUNT>
0

> <PUBCHEM_BOND_DEF_STEREO_COUNT>
1

> <PUBCHEM_BOND_UDEF_STEREO_COUNT>
0

> <PUBCHEM_ISOTOPIC_ATOM_COUNT>
0

> <PUBCHEM_COMPONENT_COUNT>
1

> <PUBCHEM_CACTVS_TAUTO_COUNT>
13

> <PUBCHEM_CONFORMER_ID>
00BBAE5B00000001

> <PUBCHEM_MMFF94_ENERGY>
30.9816

> <PUBCHEM_FEATURE_SELFOVERLAP>
20.297

> <PUBCHEM_SHAPE_FINGERPRINT>
11046707 91 18342176656917116840
11127187 94 17894911823923462689
11543360 7 15936416662500917222
12032990 46 18410574002373661268
12251169 10 13830132810410247179
12363563 72 18409174319744750230
12596602 18 15769771394519351098
12841375 25 18409729590550126733
13288520 33 18411138030326814191
13583140 156 15123224365109845282
13675066 3 11599999964657270132
13740256 8 18337954592216754898
14123255 352 9079113362743889638
14386348 63 18409448089661200474
17870717 6 17968099689834094175
1813 80 18059029348769727892
193927 3 18337120032826579807
19784866 240 18341899636275361135
200 152 18410570690911541627
20112054 13 9655578517161736906
20281475 54 18413114952450099656
20374829 77 18333726927321955955
20388580 30 18187931728186159420
20432913 95 18131635577814297322
20645477 70 18263638635987286429
20671657 53 18411142475892648909
20871999 31 17095515193578835653
21061003 4 18413109485178304009
22926399 37 11819266763780426815
23175994 123 18335422387395630605
23402539 116 18334573516978856568
23402655 69 12540689323517426314
23403322 49 18334854995934250834
23557571 272 18335702715141215716
23559900 14 18260256473896581920
2871803 45 18335981987121593202
3286 77 17775004621863552640
5104073 3 18057599877007183962
5352402 22 17346328063687554302
6430166 295 9799688199638047918
83771 10 18411983584960108025
90316 7 15195571199604554067
9709674 26 18125158234687730262

> <PUBCHEM_SHAPE_MULTIPOLES>
323.4
10.32
2.13
1.02
7.69
1.13
-0.01
-7.11
-0.69
-0.88
-0.19
-0.64
-0.12
0.72

> <PUBCHEM_SHAPE_SELFOVERLAP>
643.893

> <PUBCHEM_SHAPE_VOLUME>
191

> <PUBCHEM_COORDINATE_TYPE>
2
5
10

$$$$
