71561377
  -OEChem-09122003423D

 89 92  0     1  0  0  0  0  0999 V2000
    0.6407    2.3189    1.0108 O   0  0  0  0  0  0  0  0  0  0  0  0
   -0.3756   -1.2157   -3.5979 O   0  0  0  0  0  0  0  0  0  0  0  0
   -7.7066   -1.0644    2.2048 O   0  0  0  0  0  0  0  0  0  0  0  0
   -1.7029    1.6252    2.0168 O   0  0  0  0  0  0  0  0  0  0  0  0
   -2.8355   -1.4408   -2.9524 O   0  0  0  0  0  0  0  0  0  0  0  0
   -0.4399    4.3447    1.2661 O   0  0  0  0  0  0  0  0  0  0  0  0
    6.6133   -0.6763    0.5714 O   0  0  0  0  0  0  0  0  0  0  0  0
    5.2503   -1.8710   -0.8561 O   0  0  0  0  0  0  0  0  0  0  0  0
    0.2289    0.8786   -0.9013 C   0  0  1  0  0  0  0  0  0  0  0  0
   -0.9363    0.4629   -1.8711 C   0  0  2  0  0  0  0  0  0  0  0  0
   -3.5413   -0.4290    1.0296 C   0  0  1  0  0  0  0  0  0  0  0  0
    1.3152    1.4228   -1.8732 C   0  0  2  0  0  0  0  0  0  0  0  0
   -4.5646   -1.1032    0.0405 C   0  0  2  0  0  0  0  0  0  0  0  0
   -2.0496   -0.1895   -1.0724 C   0  0  0  0  0  0  0  0  0  0  0  0
   -2.3776    0.1957    0.1922 C   0  0  0  0  0  0  0  0  0  0  0  0
   -0.3448    1.8952    0.0826 C   0  0  1  0  0  0  0  0  0  0  0  0
   -5.8960   -1.6818    0.6453 C   0  0  0  0  0  0  0  0  0  0  0  0
    1.3195    0.3848   -3.0118 C   0  0  0  0  0  0  0  0  0  0  0  0
   -0.0533   -0.2624   -2.9028 C   0  0  0  0  0  0  0  0  0  0  0  0
   -4.3490    0.6184    1.8505 C   0  0  0  0  0  0  0  0  0  0  0  0
   -3.8258   -2.0578   -0.8936 C   0  0  0  0  0  0  0  0  0  0  0  0
   -1.5059    1.2671    0.8555 C   0  0  0  0  0  0  0  0  0  0  0  0
    2.7187    1.6400   -1.3152 C   0  0  1  0  0  0  0  0  0  0  0  0
   -6.5583   -0.5760    1.5129 C   0  0  2  0  0  0  0  0  0  0  0  0
    0.8234   -0.3378   -0.1031 C   0  0  0  0  0  0  0  0  0  0  0  0
   -2.8872   -1.2411   -1.7405 C   0  0  0  0  0  0  0  0  0  0  0  0
   -1.6066    1.6152   -2.6699 C   0  0  0  0  0  0  0  0  0  0  0  0
   -5.6059    0.0596    2.5156 C   0  0  0  0  0  0  0  0  0  0  0  0
   -2.8521   -1.4153    2.0021 C   0  0  0  0  0  0  0  0  0  0  0  0
   -6.8930   -2.0107   -0.5031 C   0  0  0  0  0  0  0  0  0  0  0  0
   -5.7097   -2.9973    1.4283 C   0  0  0  0  0  0  0  0  0  0  0  0
    3.5182    0.3280   -1.2014 C   0  0  0  0  0  0  0  0  0  0  0  0
    3.4805    2.6344   -2.1966 C   0  0  0  0  0  0  0  0  0  0  0  0
    4.7350    0.4361   -0.2803 C   0  0  0  0  0  0  0  0  0  0  0  0
    0.4727    3.5739    1.5309 C   0  0  0  0  0  0  0  0  0  0  0  0
    5.5348   -0.8472   -0.2497 C   0  0  0  0  0  0  0  0  0  0  0  0
    1.5819    3.8843    2.4898 C   0  0  0  0  0  0  0  0  0  0  0  0
    7.4668   -1.8166    0.7131 C   0  0  0  0  0  0  0  0  0  0  0  0
    8.6102   -1.4614    1.6530 C   0  0  0  0  0  0  0  0  0  0  0  0
    9.5720   -2.6316    1.8378 C   0  0  0  0  0  0  0  0  0  0  0  0
   10.7355   -2.2589    2.7427 C   0  0  0  0  0  0  0  0  0  0  0  0
    0.9618    2.3856   -2.2637 H   0  0  0  0  0  0  0  0  0  0  0  0
   -4.9122   -0.2737   -0.6021 H   0  0  0  0  0  0  0  0  0  0  0  0
   -0.7338    2.7635   -0.4605 H   0  0  0  0  0  0  0  0  0  0  0  0
    2.0428   -0.4265   -2.9445 H   0  0  0  0  0  0  0  0  0  0  0  0
    1.4144    0.8775   -3.9840 H   0  0  0  0  0  0  0  0  0  0  0  0
   -4.6320    1.4563    1.1995 H   0  0  0  0  0  0  0  0  0  0  0  0
   -3.7509    1.0403    2.6625 H   0  0  0  0  0  0  0  0  0  0  0  0
   -4.5157   -2.5566   -1.5800 H   0  0  0  0  0  0  0  0  0  0  0  0
   -3.2627   -2.8395   -0.3778 H   0  0  0  0  0  0  0  0  0  0  0  0
    2.6478    2.0953   -0.3230 H   0  0  0  0  0  0  0  0  0  0  0  0
   -6.9184    0.2191    0.8457 H   0  0  0  0  0  0  0  0  0  0  0  0
    0.0816   -0.7826    0.5690 H   0  0  0  0  0  0  0  0  0  0  0  0
    1.6362   -0.0364    0.5640 H   0  0  0  0  0  0  0  0  0  0  0  0
    1.1213   -1.1685   -0.7485 H   0  0  0  0  0  0  0  0  0  0  0  0
   -0.8979    2.2136   -3.2500 H   0  0  0  0  0  0  0  0  0  0  0  0
   -2.1738    2.2997   -2.0300 H   0  0  0  0  0  0  0  0  0  0  0  0
   -2.3158    1.2091   -3.4029 H   0  0  0  0  0  0  0  0  0  0  0  0
   -5.3474   -0.6561    3.3043 H   0  0  0  0  0  0  0  0  0  0  0  0
   -6.1243    0.8740    3.0385 H   0  0  0  0  0  0  0  0  0  0  0  0
   -3.5395   -1.8652    2.7161 H   0  0  0  0  0  0  0  0  0  0  0  0
   -2.0943   -0.9072    2.6110 H   0  0  0  0  0  0  0  0  0  0  0  0
   -2.3355   -2.2262    1.4796 H   0  0  0  0  0  0  0  0  0  0  0  0
   -7.8870   -2.2561   -0.1114 H   0  0  0  0  0  0  0  0  0  0  0  0
   -6.6756   -3.4844    1.6105 H   0  0  0  0  0  0  0  0  0  0  0  0
   -5.2654   -2.8471    2.4118 H   0  0  0  0  0  0  0  0  0  0  0  0
   -5.0934   -3.7149    0.8782 H   0  0  0  0  0  0  0  0  0  0  0  0
   -6.5692   -2.8731   -1.0941 H   0  0  0  0  0  0  0  0  0  0  0  0
   -7.0110   -1.1598   -1.1834 H   0  0  0  0  0  0  0  0  0  0  0  0
    2.9733   -0.5566   -0.9011 H   0  0  0  0  0  0  0  0  0  0  0  0
    3.9179    0.0768   -2.1951 H   0  0  0  0  0  0  0  0  0  0  0  0
    4.4645    2.8712   -1.7814 H   0  0  0  0  0  0  0  0  0  0  0  0
    2.9340    3.5808   -2.2753 H   0  0  0  0  0  0  0  0  0  0  0  0
    3.6262    2.2467   -3.2106 H   0  0  0  0  0  0  0  0  0  0  0  0
   -8.0996   -0.3181    2.6885 H   0  0  0  0  0  0  0  0  0  0  0  0
    4.4024    0.6546    0.7406 H   0  0  0  0  0  0  0  0  0  0  0  0
    5.4051    1.2330   -0.6168 H   0  0  0  0  0  0  0  0  0  0  0  0
    1.5666    3.1696    3.3164 H   0  0  0  0  0  0  0  0  0  0  0  0
    1.4408    4.8903    2.8950 H   0  0  0  0  0  0  0  0  0  0  0  0
    2.5418    3.8497    1.9684 H   0  0  0  0  0  0  0  0  0  0  0  0
    6.8882   -2.6529    1.1227 H   0  0  0  0  0  0  0  0  0  0  0  0
    7.8605   -2.0967   -0.2710 H   0  0  0  0  0  0  0  0  0  0  0  0
    8.2018   -1.1476    2.6218 H   0  0  0  0  0  0  0  0  0  0  0  0
    9.1451   -0.5889    1.2571 H   0  0  0  0  0  0  0  0  0  0  0  0
    9.9635   -2.9498    0.8646 H   0  0  0  0  0  0  0  0  0  0  0  0
    9.0390   -3.4871    2.2686 H   0  0  0  0  0  0  0  0  0  0  0  0
   10.3812   -1.9639    3.7356 H   0  0  0  0  0  0  0  0  0  0  0  0
   11.4108   -3.1118    2.8625 H   0  0  0  0  0  0  0  0  0  0  0  0
   11.3097   -1.4276    2.3214 H   0  0  0  0  0  0  0  0  0  0  0  0
  1 16  1  0  0  0  0
  1 35  1  0  0  0  0
  2 19  2  0  0  0  0
  3 24  1  0  0  0  0
  3 75  1  0  0  0  0
  4 22  2  0  0  0  0
  5 26  2  0  0  0  0
  6 35  2  0  0  0  0
  7 36  1  0  0  0  0
  7 38  1  0  0  0  0
  8 36  2  0  0  0  0
  9 10  1  0  0  0  0
  9 12  1  0  0  0  0
  9 16  1  0  0  0  0
  9 25  1  0  0  0  0
 10 14  1  0  0  0  0
 10 19  1  0  0  0  0
 10 27  1  0  0  0  0
 11 13  1  0  0  0  0
 11 15  1  0  0  0  0
 11 20  1  0  0  0  0
 11 29  1  0  0  0  0
 12 18  1  0  0  0  0
 12 23  1  0  0  0  0
 12 42  1  0  0  0  0
 13 17  1  0  0  0  0
 13 21  1  0  0  0  0
 13 43  1  0  0  0  0
 14 15  2  0  0  0  0
 14 26  1  0  0  0  0
 15 22  1  0  0  0  0
 16 22  1  0  0  0  0
 16 44  1  0  0  0  0
 17 24  1  0  0  0  0
 17 30  1  0  0  0  0
 17 31  1  0  0  0  0
 18 19  1  0  0  0  0
 18 45  1  0  0  0  0
 18 46  1  0  0  0  0
 20 28  1  0  0  0  0
 20 47  1  0  0  0  0
 20 48  1  0  0  0  0
 21 26  1  0  0  0  0
 21 49  1  0  0  0  0
 21 50  1  0  0  0  0
 23 32  1  0  0  0  0
 23 33  1  0  0  0  0
 23 51  1  0  0  0  0
 24 28  1  0  0  0  0
 24 52  1  0  0  0  0
 25 53  1  0  0  0  0
 25 54  1  0  0  0  0
 25 55  1  0  0  0  0
 27 56  1  0  0  0  0
 27 57  1  0  0  0  0
 27 58  1  0  0  0  0
 28 59  1  0  0  0  0
 28 60  1  0  0  0  0
 29 61  1  0  0  0  0
 29 62  1  0  0  0  0
 29 63  1  0  0  0  0
 30 64  1  0  0  0  0
 30 68  1  0  0  0  0
 30 69  1  0  0  0  0
 31 65  1  0  0  0  0
 31 66  1  0  0  0  0
 31 67  1  0  0  0  0
 32 34  1  0  0  0  0
 32 70  1  0  0  0  0
 32 71  1  0  0  0  0
 33 72  1  0  0  0  0
 33 73  1  0  0  0  0
 33 74  1  0  0  0  0
 34 36  1  0  0  0  0
 34 76  1  0  0  0  0
 34 77  1  0  0  0  0
 35 37  1  0  0  0  0
 37 78  1  0  0  0  0
 37 79  1  0  0  0  0
 37 80  1  0  0  0  0
 38 39  1  0  0  0  0
 38 81  1  0  0  0  0
 38 82  1  0  0  0  0
 39 40  1  0  0  0  0
 39 83  1  0  0  0  0
 39 84  1  0  0  0  0
 40 41  1  0  0  0  0
 40 85  1  0  0  0  0
 40 86  1  0  0  0  0
 41 87  1  0  0  0  0
 41 88  1  0  0  0  0
 41 89  1  0  0  0  0
M  END
> <PUBCHEM_COMPOUND_CID>
71561377

> <PUBCHEM_CONFORMER_RMSD>
1.2

> <PUBCHEM_CONFORMER_DIVERSEORDER>
1
16
7
9
5
14
13
15
10
4
11
6
3
12
2
8

> <PUBCHEM_MMFF94_PARTIAL_CHARGES>
25
1 -0.43
10 0.2
11 0.14
14 -0.12
15 -0.12
16 0.34
18 0.06
19 0.45
2 -0.57
21 0.06
22 0.49
24 0.28
26 0.49
3 -0.68
34 0.06
35 0.66
36 0.66
37 0.06
38 0.28
4 -0.57
5 -0.57
6 -0.57
7 -0.43
75 0.4
8 -0.57

> <PUBCHEM_EFFECTIVE_ROTOR_COUNT>
11.6

> <PUBCHEM_PHARMACOPHORE_FEATURES>
14
1 2 acceptor
1 3 acceptor
1 3 donor
1 33 hydrophobe
1 4 acceptor
1 41 hydrophobe
1 5 acceptor
1 6 acceptor
1 8 acceptor
3 17 30 31 hydrophobe
5 9 10 12 18 19 rings
6 11 13 14 15 21 26 rings
6 11 13 17 20 24 28 rings
6 9 10 14 15 16 22 rings

> <PUBCHEM_HEAVY_ATOM_COUNT>
41

> <PUBCHEM_ATOM_DEF_STEREO_COUNT>
8

> <PUBCHEM_ATOM_UDEF_STEREO_COUNT>
0

> <PUBCHEM_BOND_DEF_STEREO_COUNT>
0

> <PUBCHEM_BOND_UDEF_STEREO_COUNT>
0

> <PUBCHEM_ISOTOPIC_ATOM_COUNT>
0

> <PUBCHEM_COMPONENT_COUNT>
1

> <PUBCHEM_CACTVS_TAUTO_COUNT>
20

> <PUBCHEM_CONFORMER_ID>
0443F0A100000001

> <PUBCHEM_MMFF94_ENERGY>
140.1571

> <PUBCHEM_FEATURE_SELFOVERLAP>
71.153

> <PUBCHEM_SHAPE_FINGERPRINT>
10 15 15913332385895677350
10190206 1 13117996682425569766
10369192 42 14261341471736968228
10674148 151 16370720422593783293
10930396 42 17346589755696694618
11456790 92 18338536200483959729
12035758 1 17418103104648799761
12124843 1 13623540069274004530
12422481 6 17060347322475039628
12608794 3 17418084451521690925
12988421 55 15841258256839906358
13140716 1 17130441296573603333
13782708 43 17676774270133764367
14068700 675 18187651288866285552
14705955 166 17060062497429029378
14747282 305 17097801181855210803
14856354 85 17488437786474320966
15131766 46 11743830332056025862
15324884 4 14492761267229574564
15347590 135 18342172229692779698
15510800 12 17240198829504147482
16067689 68 18261676982389076810
17909252 39 16153695544780825384
17980427 23 16415480471756702653
18393751 57 16630525142091981206
18603816 31 18261391191229287555
19246450 95 17989207001989075987
19315092 285 18186806885553343380
19841028 212 18186808006618955218
2026 5 17167856427658646290
21307412 95 15647061477179446882
21927370 108 18335979767456821076
22223350 30 17974011948551192219
23559900 14 14563388383274141215
23569943 247 17749110002117265195
24771293 8 16128660747485027521
255183 313 16558748988333616852
392239 28 18060409236611302502
44880168 125 17458909370154049123
50009960 94 18199744920086766487
5104073 3 17414739828124674275
513202 73 18113339708865555325
57527358 35 17822016431779692788
58083652 198 18200858661035691240
58260988 647 17386011693059964140
9896288 288 17984993592080423184

> <PUBCHEM_SHAPE_MULTIPOLES>
796.81
21.75
3.74
3.44
51.3
0.39
-1.54
36
-3.66
4.77
-0.9
-2.01
-2.67
-0.39

> <PUBCHEM_SHAPE_SELFOVERLAP>
1678.048

> <PUBCHEM_SHAPE_VOLUME>
440.9

> <PUBCHEM_COORDINATE_TYPE>
2
5
10

$$$$
