91885249
  -OEChem-09112013443D

 83 86  0     1  0  0  0  0  0999 V2000
   -0.3862    2.6114   -0.2023 O   0  0  0  0  0  0  0  0  0  0  0  0
   -0.2201   -3.2845    0.0673 O   0  0  0  0  0  0  0  0  0  0  0  0
    2.2635    2.6387   -0.4586 O   0  0  0  0  0  0  0  0  0  0  0  0
    2.3533   -3.2398    0.2623 O   0  0  0  0  0  0  0  0  0  0  0  0
    7.6919   -0.0618    1.0932 O   0  0  0  0  0  0  0  0  0  0  0  0
   -5.4562    1.2411   -1.3156 O   0  0  0  0  0  0  0  0  0  0  0  0
    0.3458    3.9356    1.5436 O   0  0  0  0  0  0  0  0  0  0  0  0
   -9.2036   -1.1730   -0.6158 O   0  0  0  0  0  0  0  0  0  0  0  0
   -7.2941   -1.9352   -1.5771 O   0  0  0  0  0  0  0  0  0  0  0  0
   -0.3427    0.1841   -0.0718 C   0  0  1  0  0  0  0  0  0  0  0  0
    0.5356   -0.9774    0.5199 C   0  0  2  0  0  0  0  0  0  0  0  0
   -1.7393   -0.0823    0.5599 C   0  0  2  0  0  0  0  0  0  0  0  0
    3.9732    0.3556   -0.9907 C   0  0  1  0  0  0  0  0  0  0  0  0
    1.9147   -0.9227   -0.1014 C   0  0  0  0  0  0  0  0  0  0  0  0
    0.3214    1.5013    0.3257 C   0  0  1  0  0  0  0  0  0  0  0  0
    4.7705   -1.0047   -0.9246 C   0  0  1  0  0  0  0  0  0  0  0  0
    2.5388    0.2436   -0.4103 C   0  0  0  0  0  0  0  0  0  0  0  0
   -1.9099   -1.6063    0.4070 C   0  0  0  0  0  0  0  0  0  0  0  0
   -0.4791   -2.1093    0.2858 C   0  0  0  0  0  0  0  0  0  0  0  0
   -2.9323    0.6718   -0.0197 C   0  0  1  0  0  0  0  0  0  0  0  0
    5.6696   -1.1934    0.3553 C   0  0  0  0  0  0  0  0  0  0  0  0
   -0.4700    0.1197   -1.6366 C   0  0  0  0  0  0  0  0  0  0  0  0
    1.7582    1.5453   -0.2000 C   0  0  0  0  0  0  0  0  0  0  0  0
    3.8404   -2.1753   -1.2414 C   0  0  0  0  0  0  0  0  0  0  0  0
    4.8070    1.4723   -0.2898 C   0  0  0  0  0  0  0  0  0  0  0  0
    0.7557   -0.9577    2.0576 C   0  0  0  0  0  0  0  0  0  0  0  0
    2.6692   -2.1966   -0.3051 C   0  0  0  0  0  0  0  0  0  0  0  0
    3.8181    0.7392   -2.4902 C   0  0  0  0  0  0  0  0  0  0  0  0
    6.3073    1.2335   -0.3423 C   0  0  0  0  0  0  0  0  0  0  0  0
    6.6513   -0.0118    0.4346 C   0  0  0  0  0  0  0  0  0  0  0  0
   -4.2379   -0.0688    0.3095 C   0  0  0  0  0  0  0  0  0  0  0  0
   -2.9590    2.1047    0.5222 C   0  0  0  0  0  0  0  0  0  0  0  0
    6.5224   -2.4765    0.2329 C   0  0  0  0  0  0  0  0  0  0  0  0
    4.9159   -1.2503    1.6929 C   0  0  0  0  0  0  0  0  0  0  0  0
   -5.4770    0.6038   -0.2629 C   0  0  0  0  0  0  0  0  0  0  0  0
   -0.2889    3.7766    0.5096 C   0  0  0  0  0  0  0  0  0  0  0  0
   -6.7546    0.4805    0.5440 C   0  0  0  0  0  0  0  0  0  0  0  0
   -1.0825    4.8559   -0.1623 C   0  0  0  0  0  0  0  0  0  0  0  0
   -7.1950   -0.9807    0.6630 C   0  0  1  0  0  0  0  0  0  0  0  0
   -8.1277   -1.1847    1.8573 C   0  0  0  0  0  0  0  0  0  0  0  0
   -7.8677   -1.4218   -0.6255 C   0  0  0  0  0  0  0  0  0  0  0  0
   -1.6998    0.1343    1.6357 H   0  0  0  0  0  0  0  0  0  0  0  0
    0.3646    1.5784    1.4179 H   0  0  0  0  0  0  0  0  0  0  0  0
    5.4886   -0.9886   -1.7606 H   0  0  0  0  0  0  0  0  0  0  0  0
   -2.4153   -1.8992   -0.5181 H   0  0  0  0  0  0  0  0  0  0  0  0
   -2.3906   -2.0557    1.2800 H   0  0  0  0  0  0  0  0  0  0  0  0
   -2.8792    0.7219   -1.1113 H   0  0  0  0  0  0  0  0  0  0  0  0
   -1.0131   -0.7664   -1.9795 H   0  0  0  0  0  0  0  0  0  0  0  0
    0.4992    0.0949   -2.1427 H   0  0  0  0  0  0  0  0  0  0  0  0
   -0.9905    0.9961   -2.0368 H   0  0  0  0  0  0  0  0  0  0  0  0
    4.3608   -3.1355   -1.1883 H   0  0  0  0  0  0  0  0  0  0  0  0
    3.4471   -2.1086   -2.2624 H   0  0  0  0  0  0  0  0  0  0  0  0
    4.5050    1.5710    0.7607 H   0  0  0  0  0  0  0  0  0  0  0  0
    4.6196    2.4472   -0.7556 H   0  0  0  0  0  0  0  0  0  0  0  0
   -0.1760   -0.9381    2.6306 H   0  0  0  0  0  0  0  0  0  0  0  0
    1.3664   -0.1102    2.3870 H   0  0  0  0  0  0  0  0  0  0  0  0
    1.2798   -1.8670    2.3796 H   0  0  0  0  0  0  0  0  0  0  0  0
    4.7925    0.8004   -2.9880 H   0  0  0  0  0  0  0  0  0  0  0  0
    3.3357    1.7146   -2.6176 H   0  0  0  0  0  0  0  0  0  0  0  0
    3.2116    0.0100   -3.0382 H   0  0  0  0  0  0  0  0  0  0  0  0
    6.8272    2.0819    0.1162 H   0  0  0  0  0  0  0  0  0  0  0  0
    6.6696    1.1269   -1.3693 H   0  0  0  0  0  0  0  0  0  0  0  0
   -4.2653   -1.0809   -0.1023 H   0  0  0  0  0  0  0  0  0  0  0  0
   -4.3516   -0.1384    1.3982 H   0  0  0  0  0  0  0  0  0  0  0  0
   -2.2792    2.2684    1.3610 H   0  0  0  0  0  0  0  0  0  0  0  0
   -2.7722    2.8056   -0.2926 H   0  0  0  0  0  0  0  0  0  0  0  0
   -3.9501    2.3760    0.9040 H   0  0  0  0  0  0  0  0  0  0  0  0
    5.6179   -1.2438    2.5362 H   0  0  0  0  0  0  0  0  0  0  0  0
    7.0800   -2.4918   -0.7104 H   0  0  0  0  0  0  0  0  0  0  0  0
    4.2534   -0.3942    1.8405 H   0  0  0  0  0  0  0  0  0  0  0  0
    5.9100   -3.3819    0.2860 H   0  0  0  0  0  0  0  0  0  0  0  0
    4.3225   -2.1637    1.7882 H   0  0  0  0  0  0  0  0  0  0  0  0
    7.2584   -2.5510    1.0423 H   0  0  0  0  0  0  0  0  0  0  0  0
   -6.5578    0.9189    1.5293 H   0  0  0  0  0  0  0  0  0  0  0  0
   -7.5290    1.0917    0.0655 H   0  0  0  0  0  0  0  0  0  0  0  0
   -1.2835    4.6005   -1.2068 H   0  0  0  0  0  0  0  0  0  0  0  0
   -2.0251    5.0065    0.3682 H   0  0  0  0  0  0  0  0  0  0  0  0
   -0.4991    5.7809   -0.1563 H   0  0  0  0  0  0  0  0  0  0  0  0
   -6.3426   -1.6533    0.8126 H   0  0  0  0  0  0  0  0  0  0  0  0
   -8.9777   -0.4937    1.8342 H   0  0  0  0  0  0  0  0  0  0  0  0
   -8.5242   -2.2058    1.8783 H   0  0  0  0  0  0  0  0  0  0  0  0
   -7.5887   -1.0143    2.7955 H   0  0  0  0  0  0  0  0  0  0  0  0
   -9.6339   -1.4552   -1.4509 H   0  0  0  0  0  0  0  0  0  0  0  0
  1 15  1  0  0  0  0
  1 36  1  0  0  0  0
  2 19  2  0  0  0  0
  3 23  2  0  0  0  0
  4 27  2  0  0  0  0
  5 30  2  0  0  0  0
  6 35  2  0  0  0  0
  7 36  2  0  0  0  0
  8 41  1  0  0  0  0
  8 83  1  0  0  0  0
  9 41  2  0  0  0  0
 10 11  1  0  0  0  0
 10 12  1  0  0  0  0
 10 15  1  0  0  0  0
 10 22  1  0  0  0  0
 11 14  1  0  0  0  0
 11 19  1  0  0  0  0
 11 26  1  0  0  0  0
 12 18  1  0  0  0  0
 12 20  1  0  0  0  0
 12 42  1  0  0  0  0
 13 16  1  0  0  0  0
 13 17  1  0  0  0  0
 13 25  1  0  0  0  0
 13 28  1  0  0  0  0
 14 17  2  0  0  0  0
 14 27  1  0  0  0  0
 15 23  1  0  0  0  0
 15 43  1  0  0  0  0
 16 21  1  0  0  0  0
 16 24  1  0  0  0  0
 16 44  1  0  0  0  0
 17 23  1  0  0  0  0
 18 19  1  0  0  0  0
 18 45  1  0  0  0  0
 18 46  1  0  0  0  0
 20 31  1  0  0  0  0
 20 32  1  0  0  0  0
 20 47  1  0  0  0  0
 21 30  1  0  0  0  0
 21 33  1  0  0  0  0
 21 34  1  0  0  0  0
 22 48  1  0  0  0  0
 22 49  1  0  0  0  0
 22 50  1  0  0  0  0
 24 27  1  0  0  0  0
 24 51  1  0  0  0  0
 24 52  1  0  0  0  0
 25 29  1  0  0  0  0
 25 53  1  0  0  0  0
 25 54  1  0  0  0  0
 26 55  1  0  0  0  0
 26 56  1  0  0  0  0
 26 57  1  0  0  0  0
 28 58  1  0  0  0  0
 28 59  1  0  0  0  0
 28 60  1  0  0  0  0
 29 30  1  0  0  0  0
 29 61  1  0  0  0  0
 29 62  1  0  0  0  0
 31 35  1  0  0  0  0
 31 63  1  0  0  0  0
 31 64  1  0  0  0  0
 32 65  1  0  0  0  0
 32 66  1  0  0  0  0
 32 67  1  0  0  0  0
 33 69  1  0  0  0  0
 33 71  1  0  0  0  0
 33 73  1  0  0  0  0
 34 68  1  0  0  0  0
 34 70  1  0  0  0  0
 34 72  1  0  0  0  0
 35 37  1  0  0  0  0
 36 38  1  0  0  0  0
 37 39  1  0  0  0  0
 37 74  1  0  0  0  0
 37 75  1  0  0  0  0
 38 76  1  0  0  0  0
 38 77  1  0  0  0  0
 38 78  1  0  0  0  0
 39 40  1  0  0  0  0
 39 41  1  0  0  0  0
 39 79  1  0  0  0  0
 40 80  1  0  0  0  0
 40 81  1  0  0  0  0
 40 82  1  0  0  0  0
M  END
> <PUBCHEM_COMPOUND_CID>
91885249

> <PUBCHEM_CONFORMER_RMSD>
1

> <PUBCHEM_CONFORMER_DIVERSEORDER>
24
12
32
8
23
33
22
20
21
25
14
29
16
17
35
13
26
19
27
5
31
2
30
15
28
7
34
1
3
18
11
9
4
10
6

> <PUBCHEM_MMFF94_PARTIAL_CHARGES>
30
1 -0.43
11 0.2
13 0.14
14 -0.12
15 0.34
17 -0.12
18 0.06
19 0.45
2 -0.57
21 0.06
23 0.49
24 0.06
27 0.49
29 0.06
3 -0.57
30 0.45
31 0.06
35 0.45
36 0.66
37 0.06
38 0.06
39 0.06
4 -0.57
41 0.66
5 -0.57
6 -0.57
7 -0.57
8 -0.65
83 0.5
9 -0.57

> <PUBCHEM_EFFECTIVE_ROTOR_COUNT>
9.4

> <PUBCHEM_PHARMACOPHORE_FEATURES>
16
1 2 acceptor
1 3 acceptor
1 32 hydrophobe
1 4 acceptor
1 40 hydrophobe
1 5 acceptor
1 6 acceptor
1 7 acceptor
1 8 acceptor
1 9 acceptor
3 21 33 34 hydrophobe
3 8 9 41 anion
5 10 11 12 18 19 rings
6 10 11 14 15 17 23 rings
6 13 14 16 17 24 27 rings
6 13 16 21 25 29 30 rings

> <PUBCHEM_HEAVY_ATOM_COUNT>
41

> <PUBCHEM_ATOM_DEF_STEREO_COUNT>
6

> <PUBCHEM_ATOM_UDEF_STEREO_COUNT>
2

> <PUBCHEM_BOND_DEF_STEREO_COUNT>
0

> <PUBCHEM_BOND_UDEF_STEREO_COUNT>
0

> <PUBCHEM_ISOTOPIC_ATOM_COUNT>
0

> <PUBCHEM_COMPONENT_COUNT>
1

> <PUBCHEM_CACTVS_TAUTO_COUNT>
288

> <PUBCHEM_CONFORMER_ID>
057A0EC100000018

> <PUBCHEM_MMFF94_ENERGY>
143.2608

> <PUBCHEM_FEATURE_SELFOVERLAP>
81.384

> <PUBCHEM_SHAPE_FINGERPRINT>
10930396 42 18266155354233119344
11578080 2 16843866771837066786
11646440 116 18342179959694447681
11672396 43 18189056391854914674
11828532 37 18261961854769093755
12166972 35 17894918425183163429
12516196 113 18413392016732501267
12522641 24 17274536641621003505
12788726 201 18339656563904195824
13140716 1 18337393867858057906
13560911 43 18040433287572334304
13782708 43 17676767583091113519
13811026 1 18408040702251513058
13835254 42 17987525822777470248
14028597 1 17822565011209533840
14068700 675 18408608028560740636
14394314 77 18341337669706628857
14849402 71 18340494477695698833
15131766 46 15577273400170489870
15183329 4 18412266159944533207
15439362 3 18051128391557742009
17492 89 18051697646475129022
18608769 82 18334298708319313051
18681886 176 18341886420819247235
20028762 73 18342460296410217030
21814621 53 15840723850622312353
22149856 69 18200327519720386291
23569917 315 18339368465619130874
24771293 8 18201727244845347945
24771750 20 18047484597006171469
27425 322 15358834490073643756
3178227 256 18337968869605938659
335352 9 18335988631873713966
3383291 50 18408325492869493987
4093350 32 16988290793515050894
4112364 45 14404893747607046952
6004065 56 18343018929910618256
6086070 43 18264211481930909091
9962374 69 18199743804275737407

> <PUBCHEM_SHAPE_MULTIPOLES>
790.94
20.48
3.9
1.44
31.43
3.77
0.11
-11.07
-0.16
-0.32
-0.46
-0.08
-0.14
-0.6

> <PUBCHEM_SHAPE_SELFOVERLAP>
1692.644

> <PUBCHEM_SHAPE_VOLUME>
432.3

> <PUBCHEM_COORDINATE_TYPE>
2
5
10

$$$$
