20056103
  -OEChem-09122005093D

 74 77  0     1  0  0  0  0  0999 V2000
   -1.7944    2.5917    0.3479 O   0  0  0  0  0  0  0  0  0  0  0  0
    0.7895   -2.6153   -1.2435 O   0  0  0  0  0  0  0  0  0  0  0  0
    7.1472    0.9245    0.1206 O   0  0  0  0  0  0  0  0  0  0  0  0
   -1.0173   -3.3274    0.6582 O   0  0  0  0  0  0  0  0  0  0  0  0
    0.8673    2.8773    0.3470 O   0  0  0  0  0  0  0  0  0  0  0  0
   -7.5160    1.3243   -1.5919 O   0  0  0  0  0  0  0  0  0  0  0  0
   -6.1616   -0.4286   -2.0915 O   0  0  0  0  0  0  0  0  0  0  0  0
   -1.5343    0.1505    0.3579 C   0  0  1  0  0  0  0  0  0  0  0  0
   -0.5377   -0.9264    0.9031 C   0  0  2  0  0  0  0  0  0  0  0  0
    2.8055    0.7679   -0.3575 C   0  0  1  0  0  0  0  0  0  0  0  0
    3.6394   -0.5536   -0.1056 C   0  0  2  0  0  0  0  0  0  0  0  0
   -2.8918   -0.2983    0.9692 C   0  0  2  0  0  0  0  0  0  0  0  0
    0.8096   -0.7251    0.2300 C   0  0  0  0  0  0  0  0  0  0  0  0
    1.3446    0.5234    0.1272 C   0  0  0  0  0  0  0  0  0  0  0  0
    5.1976   -0.4922   -0.3370 C   0  0  0  0  0  0  0  0  0  0  0  0
   -1.0193    1.5095    0.8367 C   0  0  1  0  0  0  0  0  0  0  0  0
    2.9489   -1.7324   -0.7972 C   0  0  0  0  0  0  0  0  0  0  0  0
    1.5498   -1.9634   -0.2246 C   0  0  2  0  0  0  0  0  0  0  0  0
   -2.8961   -1.8228    0.7499 C   0  0  0  0  0  0  0  0  0  0  0  0
    3.5222    1.9031    0.4263 C   0  0  0  0  0  0  0  0  0  0  0  0
   -1.4187   -2.1727    0.7262 C   0  0  0  0  0  0  0  0  0  0  0  0
    0.4472    1.7236    0.4393 C   0  0  0  0  0  0  0  0  0  0  0  0
    5.7669    0.7353    0.4277 C   0  0  2  0  0  0  0  0  0  0  0  0
   -4.1591    0.3486    0.4207 C   0  0  1  0  0  0  0  0  0  0  0  0
   -1.6369    0.1338   -1.2053 C   0  0  0  0  0  0  0  0  0  0  0  0
    5.0137    2.0228    0.1318 C   0  0  0  0  0  0  0  0  0  0  0  0
   -0.2643   -0.9090    2.4360 C   0  0  0  0  0  0  0  0  0  0  0  0
    2.6792    1.1766   -1.8426 C   0  0  0  0  0  0  0  0  0  0  0  0
    5.6158   -0.4734   -1.8222 C   0  0  0  0  0  0  0  0  0  0  0  0
    5.8641   -1.7573    0.2754 C   0  0  0  0  0  0  0  0  0  0  0  0
   -5.3752   -0.5596    0.6903 C   0  0  0  0  0  0  0  0  0  0  0  0
   -4.3360    1.7448    1.0243 C   0  0  0  0  0  0  0  0  0  0  0  0
   -6.7051    0.0443    0.2349 C   0  0  0  0  0  0  0  0  0  0  0  0
   -6.7448    0.2553   -1.2619 C   0  0  0  0  0  0  0  0  0  0  0  0
    3.5442   -0.7490    0.9772 H   0  0  0  0  0  0  0  0  0  0  0  0
   -2.8741   -0.1299    2.0548 H   0  0  0  0  0  0  0  0  0  0  0  0
   -1.0651    1.5736    1.9298 H   0  0  0  0  0  0  0  0  0  0  0  0
    3.5100   -2.6636   -0.6661 H   0  0  0  0  0  0  0  0  0  0  0  0
    2.9035   -1.5866   -1.8825 H   0  0  0  0  0  0  0  0  0  0  0  0
    1.6311   -2.6472    0.6294 H   0  0  0  0  0  0  0  0  0  0  0  0
   -3.3867   -2.3527    1.5709 H   0  0  0  0  0  0  0  0  0  0  0  0
   -3.3068   -2.1258   -0.2178 H   0  0  0  0  0  0  0  0  0  0  0  0
    3.0964    2.8820    0.1885 H   0  0  0  0  0  0  0  0  0  0  0  0
    3.3830    1.7511    1.5051 H   0  0  0  0  0  0  0  0  0  0  0  0
    5.7067    0.5421    1.5071 H   0  0  0  0  0  0  0  0  0  0  0  0
   -4.0936    0.4585   -0.6642 H   0  0  0  0  0  0  0  0  0  0  0  0
   -0.6710    0.2891   -1.6951 H   0  0  0  0  0  0  0  0  0  0  0  0
   -2.2799    0.9389   -1.5754 H   0  0  0  0  0  0  0  0  0  0  0  0
   -2.0308   -0.8107   -1.5925 H   0  0  0  0  0  0  0  0  0  0  0  0
    5.4338    2.8323    0.7431 H   0  0  0  0  0  0  0  0  0  0  0  0
    5.1849    2.3403   -0.9030 H   0  0  0  0  0  0  0  0  0  0  0  0
   -1.1757   -1.0009    3.0354 H   0  0  0  0  0  0  0  0  0  0  0  0
    0.3686   -1.7611    2.7176 H   0  0  0  0  0  0  0  0  0  0  0  0
    0.2592   -0.0069    2.7694 H   0  0  0  0  0  0  0  0  0  0  0  0
    2.2087    0.3985   -2.4521 H   0  0  0  0  0  0  0  0  0  0  0  0
    2.0567    2.0735   -1.9518 H   0  0  0  0  0  0  0  0  0  0  0  0
    3.6344    1.4253   -2.3015 H   0  0  0  0  0  0  0  0  0  0  0  0
    5.4151    0.4805   -2.3089 H   0  0  0  0  0  0  0  0  0  0  0  0
    5.1186   -1.2613   -2.3957 H   0  0  0  0  0  0  0  0  0  0  0  0
    6.6942   -0.6442   -1.9289 H   0  0  0  0  0  0  0  0  0  0  0  0
    5.6153   -2.6645   -0.2839 H   0  0  0  0  0  0  0  0  0  0  0  0
    5.5532   -1.9061    1.3156 H   0  0  0  0  0  0  0  0  0  0  0  0
    6.9573   -1.6759    0.2699 H   0  0  0  0  0  0  0  0  0  0  0  0
   -5.2788   -1.5243    0.1824 H   0  0  0  0  0  0  0  0  0  0  0  0
   -5.4466   -0.7683    1.7656 H   0  0  0  0  0  0  0  0  0  0  0  0
   -5.2881    1.8705    1.5451 H   0  0  0  0  0  0  0  0  0  0  0  0
   -4.3054    2.5077    0.2394 H   0  0  0  0  0  0  0  0  0  0  0  0
   -3.5869    1.9863    1.7832 H   0  0  0  0  0  0  0  0  0  0  0  0
   -1.4783    3.4012    0.7844 H   0  0  0  0  0  0  0  0  0  0  0  0
    1.2361   -3.4539   -1.4511 H   0  0  0  0  0  0  0  0  0  0  0  0
    7.4669    1.6746    0.6504 H   0  0  0  0  0  0  0  0  0  0  0  0
   -6.9307    0.9838    0.7444 H   0  0  0  0  0  0  0  0  0  0  0  0
   -7.5188   -0.6488    0.4797 H   0  0  0  0  0  0  0  0  0  0  0  0
   -7.5428    1.4698   -2.5616 H   0  0  0  0  0  0  0  0  0  0  0  0
  1 16  1  0  0  0  0
  1 69  1  0  0  0  0
  2 18  1  0  0  0  0
  2 70  1  0  0  0  0
  3 23  1  0  0  0  0
  3 71  1  0  0  0  0
  4 21  2  0  0  0  0
  5 22  2  0  0  0  0
  6 34  1  0  0  0  0
  6 74  1  0  0  0  0
  7 34  2  0  0  0  0
  8  9  1  0  0  0  0
  8 12  1  0  0  0  0
  8 16  1  0  0  0  0
  8 25  1  0  0  0  0
  9 13  1  0  0  0  0
  9 21  1  0  0  0  0
  9 27  1  0  0  0  0
 10 11  1  0  0  0  0
 10 14  1  0  0  0  0
 10 20  1  0  0  0  0
 10 28  1  0  0  0  0
 11 15  1  0  0  0  0
 11 17  1  0  0  0  0
 11 35  1  0  0  0  0
 12 19  1  0  0  0  0
 12 24  1  0  0  0  0
 12 36  1  0  0  0  0
 13 14  2  0  0  0  0
 13 18  1  0  0  0  0
 14 22  1  0  0  0  0
 15 23  1  0  0  0  0
 15 29  1  0  0  0  0
 15 30  1  0  0  0  0
 16 22  1  0  0  0  0
 16 37  1  0  0  0  0
 17 18  1  0  0  0  0
 17 38  1  0  0  0  0
 17 39  1  0  0  0  0
 18 40  1  0  0  0  0
 19 21  1  0  0  0  0
 19 41  1  0  0  0  0
 19 42  1  0  0  0  0
 20 26  1  0  0  0  0
 20 43  1  0  0  0  0
 20 44  1  0  0  0  0
 23 26  1  0  0  0  0
 23 45  1  0  0  0  0
 24 31  1  0  0  0  0
 24 32  1  0  0  0  0
 24 46  1  0  0  0  0
 25 47  1  0  0  0  0
 25 48  1  0  0  0  0
 25 49  1  0  0  0  0
 26 50  1  0  0  0  0
 26 51  1  0  0  0  0
 27 52  1  0  0  0  0
 27 53  1  0  0  0  0
 27 54  1  0  0  0  0
 28 55  1  0  0  0  0
 28 56  1  0  0  0  0
 28 57  1  0  0  0  0
 29 58  1  0  0  0  0
 29 59  1  0  0  0  0
 29 60  1  0  0  0  0
 30 61  1  0  0  0  0
 30 62  1  0  0  0  0
 30 63  1  0  0  0  0
 31 33  1  0  0  0  0
 31 64  1  0  0  0  0
 31 65  1  0  0  0  0
 32 66  1  0  0  0  0
 32 67  1  0  0  0  0
 32 68  1  0  0  0  0
 33 34  1  0  0  0  0
 33 72  1  0  0  0  0
 33 73  1  0  0  0  0
M  END
> <PUBCHEM_COMPOUND_CID>
20056103

> <PUBCHEM_CONFORMER_RMSD>
0.8

> <PUBCHEM_CONFORMER_DIVERSEORDER>
1
4
5
3
7
2
6

> <PUBCHEM_MMFF94_PARTIAL_CHARGES>
23
1 -0.68
10 0.14
13 -0.28
14 -0.12
16 0.34
18 0.42
19 0.06
2 -0.68
21 0.45
22 0.49
23 0.28
3 -0.68
33 0.06
34 0.66
4 -0.57
5 -0.57
6 -0.65
69 0.4
7 -0.57
70 0.4
71 0.4
74 0.5
9 0.2

> <PUBCHEM_EFFECTIVE_ROTOR_COUNT>
5.8

> <PUBCHEM_PHARMACOPHORE_FEATURES>
17
1 1 acceptor
1 1 donor
1 2 acceptor
1 2 donor
1 3 acceptor
1 3 donor
1 32 hydrophobe
1 4 acceptor
1 5 acceptor
1 6 acceptor
1 7 acceptor
3 15 29 30 hydrophobe
3 6 7 34 anion
5 8 9 12 19 21 rings
6 10 11 13 14 17 18 rings
6 10 11 15 20 23 26 rings
6 8 9 13 14 16 22 rings

> <PUBCHEM_HEAVY_ATOM_COUNT>
34

> <PUBCHEM_ATOM_DEF_STEREO_COUNT>
9

> <PUBCHEM_ATOM_UDEF_STEREO_COUNT>
0

> <PUBCHEM_BOND_DEF_STEREO_COUNT>
0

> <PUBCHEM_BOND_UDEF_STEREO_COUNT>
0

> <PUBCHEM_ISOTOPIC_ATOM_COUNT>
0

> <PUBCHEM_COMPONENT_COUNT>
1

> <PUBCHEM_CACTVS_TAUTO_COUNT>
10

> <PUBCHEM_CONFORMER_ID>
0132082700000001

> <PUBCHEM_MMFF94_ENERGY>
132.2529

> <PUBCHEM_FEATURE_SELFOVERLAP>
86.436

> <PUBCHEM_SHAPE_FINGERPRINT>
10763959 59 17240485805679713645
10906281 52 18268172931519152824
11115154 58 17346880027784708145
11578080 2 13552626040290114772
12011746 2 18410580586569004067
12236239 1 17132120121362753307
12788726 201 18341614759130619345
12838862 33 18341600552154432528
13140716 1 18052832617167797664
13224815 77 18338248154154375282
13402501 40 18411986866452239880
13533116 47 18411700950922658234
1361 2 18060140924907968902
13782708 43 16845573110646040687
13811026 1 18411418457732509538
14117953 113 18260833691614875108
14790565 3 18195540194295615737
15131766 46 16228041334691116956
15142383 8 16805317799894302052
15183329 4 18411140225097326651
15510800 12 13541883786455198493
17349148 13 18410018719506517152
18608769 82 18261397806438480131
19958102 18 18261114036767389862
20028762 73 17846499205977026222
20511986 3 18270391810746526978
20715895 44 18333450949708159959
21033648 29 15574999523960891796
21279426 13 18409171038669505883
21521239 73 17846495937311533391
21781051 124 17824002188945188859
21859007 373 17676755505331925949
22121540 332 17678713697350415941
23559900 14 18341611581192547121
24771293 8 18130790066431922560
2838139 119 18409448072992982201
3004659 81 18260274057666329832
3009799 131 18409727374157026481
3178227 256 18261972807600109833
335352 9 18410860971230592278
350125 39 18336273353207474568
3633792 109 18411980222554837057
4058900 60 17677051236117150427
4073 2 18115877463502084674
484989 97 18264209296135693179
5104073 3 18338529611424047810
59755656 215 18335420149205706661
6004065 56 18059569247691609209
6081469 158 17749389222879411166

> <PUBCHEM_SHAPE_MULTIPOLES>
658.62
16.05
2.66
1.51
8.75
0.35
-0.35
-3.18
-5.49
-0.83
0.35
1.06
0.14
0.74

> <PUBCHEM_SHAPE_SELFOVERLAP>
1407.363

> <PUBCHEM_SHAPE_VOLUME>
363.3

> <PUBCHEM_COORDINATE_TYPE>
2
5
10

$$$$
