101491698
  -OEChem-09122004043D

 86 89  0     1  0  0  0  0  0999 V2000
    1.2114   -3.1301   -0.7382 O   0  0  0  0  0  0  0  0  0  0  0  0
    7.4700    0.7228    0.1289 O   0  0  0  0  0  0  0  0  0  0  0  0
   -0.7852   -3.2636    1.1169 O   0  0  0  0  0  0  0  0  0  0  0  0
    1.2377    2.6312   -0.6378 O   0  0  0  0  0  0  0  0  0  0  0  0
   -6.1577    0.0708   -2.2889 O   0  0  0  0  0  0  0  0  0  0  0  0
    7.6475    2.1489    1.9377 O   0  0  0  0  0  0  0  0  0  0  0  0
   -8.4275    0.5143    2.5437 O   0  0  0  0  0  0  0  0  0  0  0  0
  -10.1965    0.8412    1.1597 O   0  0  0  0  0  0  0  0  0  0  0  0
   -1.1909   -0.0681   -0.3095 C   0  0  1  0  0  0  0  0  0  0  0  0
   -0.2905   -0.8981    0.6563 C   0  0  2  0  0  0  0  0  0  0  0  0
    3.1902    0.3958   -0.6934 C   0  0  1  0  0  0  0  0  0  0  0  0
    3.9749   -0.7878    0.0048 C   0  0  2  0  0  0  0  0  0  0  0  0
    1.1249   -0.8885    0.1075 C   0  0  0  0  0  0  0  0  0  0  0  0
   -2.6180   -0.3247    0.2412 C   0  0  2  0  0  0  0  0  0  0  0  0
    1.6876    0.2836   -0.2979 C   0  0  0  0  0  0  0  0  0  0  0  0
    5.5457   -0.7790   -0.0961 C   0  0  0  0  0  0  0  0  0  0  0  0
    3.3327   -2.1257   -0.3722 C   0  0  0  0  0  0  0  0  0  0  0  0
   -0.7318    1.3825   -0.2463 C   0  0  0  0  0  0  0  0  0  0  0  0
    1.8829   -2.1965    0.1093 C   0  0  2  0  0  0  0  0  0  0  0  0
    3.8546    1.7189   -0.2186 C   0  0  0  0  0  0  0  0  0  0  0  0
   -2.6317   -1.8421    0.4976 C   0  0  0  0  0  0  0  0  0  0  0  0
   -1.1692   -2.1540    0.7697 C   0  0  0  0  0  0  0  0  0  0  0  0
    6.0626    0.6183    0.3395 C   0  0  2  0  0  0  0  0  0  0  0  0
    0.7821    1.5107   -0.4084 C   0  0  0  0  0  0  0  0  0  0  0  0
    5.3707    1.7617   -0.3867 C   0  0  0  0  0  0  0  0  0  0  0  0
   -3.7803    0.1228   -0.6372 C   0  0  1  0  0  0  0  0  0  0  0  0
   -1.1026   -0.5463   -1.7967 C   0  0  0  0  0  0  0  0  0  0  0  0
   -0.2039   -0.3911    2.1247 C   0  0  0  0  0  0  0  0  0  0  0  0
    3.2012    0.3559   -2.2386 C   0  0  0  0  0  0  0  0  0  0  0  0
    6.0942   -1.1772   -1.4823 C   0  0  0  0  0  0  0  0  0  0  0  0
    6.1371   -1.8125    0.9055 C   0  0  0  0  0  0  0  0  0  0  0  0
   -5.0584   -0.6428   -0.2585 C   0  0  0  0  0  0  0  0  0  0  0  0
   -3.9859    1.6361   -0.5051 C   0  0  0  0  0  0  0  0  0  0  0  0
   -6.2627   -0.2744   -1.1122 C   0  0  0  0  0  0  0  0  0  0  0  0
    8.1397    1.5255    1.0069 C   0  0  0  0  0  0  0  0  0  0  0  0
   -7.6188   -0.3222   -0.4361 C   0  0  0  0  0  0  0  0  0  0  0  0
    9.5989    1.5396    0.6657 C   0  0  0  0  0  0  0  0  0  0  0  0
   -7.9386    1.0045    0.2573 C   0  0  1  0  0  0  0  0  0  0  0  0
   -8.4097    2.0571   -0.7467 C   0  0  0  0  0  0  0  0  0  0  0  0
   -8.9865    0.7824    1.3345 C   0  0  0  0  0  0  0  0  0  0  0  0
    3.7801   -0.6614    1.0845 H   0  0  0  0  0  0  0  0  0  0  0  0
   -2.7251    0.1716    1.2155 H   0  0  0  0  0  0  0  0  0  0  0  0
    3.8635   -2.9714    0.0771 H   0  0  0  0  0  0  0  0  0  0  0  0
    3.3899   -2.3043   -1.4520 H   0  0  0  0  0  0  0  0  0  0  0  0
   -1.0132    1.8626    0.6971 H   0  0  0  0  0  0  0  0  0  0  0  0
   -1.1657    1.9629   -1.0659 H   0  0  0  0  0  0  0  0  0  0  0  0
    1.8726   -2.5961    1.1310 H   0  0  0  0  0  0  0  0  0  0  0  0
    3.6095    1.8962    0.8371 H   0  0  0  0  0  0  0  0  0  0  0  0
    3.4730    2.5758   -0.7820 H   0  0  0  0  0  0  0  0  0  0  0  0
   -2.9304   -2.4300   -0.3752 H   0  0  0  0  0  0  0  0  0  0  0  0
   -3.2344   -2.1017    1.3722 H   0  0  0  0  0  0  0  0  0  0  0  0
    5.8411    0.7196    1.4123 H   0  0  0  0  0  0  0  0  0  0  0  0
    5.6460    1.7657   -1.4475 H   0  0  0  0  0  0  0  0  0  0  0  0
    5.7403    2.7206   -0.0018 H   0  0  0  0  0  0  0  0  0  0  0  0
   -3.5967   -0.0974   -1.6924 H   0  0  0  0  0  0  0  0  0  0  0  0
   -1.4821   -1.5632   -1.9350 H   0  0  0  0  0  0  0  0  0  0  0  0
   -0.0806   -0.5417   -2.1871 H   0  0  0  0  0  0  0  0  0  0  0  0
   -1.6666    0.1160   -2.4624 H   0  0  0  0  0  0  0  0  0  0  0  0
    0.4249   -1.0649    2.7216 H   0  0  0  0  0  0  0  0  0  0  0  0
   -1.1769   -0.3653    2.6265 H   0  0  0  0  0  0  0  0  0  0  0  0
    0.2340    0.6088    2.2087 H   0  0  0  0  0  0  0  0  0  0  0  0
    4.1942    0.4907   -2.6639 H   0  0  0  0  0  0  0  0  0  0  0  0
    2.5890    1.1663   -2.6546 H   0  0  0  0  0  0  0  0  0  0  0  0
    2.7907   -0.5774   -2.6368 H   0  0  0  0  0  0  0  0  0  0  0  0
    7.1756   -1.3567   -1.4398 H   0  0  0  0  0  0  0  0  0  0  0  0
    5.6401   -2.1022   -1.8499 H   0  0  0  0  0  0  0  0  0  0  0  0
    5.7319   -1.6669    1.9131 H   0  0  0  0  0  0  0  0  0  0  0  0
    5.9497   -0.4042   -2.2362 H   0  0  0  0  0  0  0  0  0  0  0  0
    5.9280   -2.8435    0.6037 H   0  0  0  0  0  0  0  0  0  0  0  0
    7.2274   -1.7235    0.9762 H   0  0  0  0  0  0  0  0  0  0  0  0
   -5.3038   -0.4429    0.7916 H   0  0  0  0  0  0  0  0  0  0  0  0
   -4.9571   -1.7251   -0.3806 H   0  0  0  0  0  0  0  0  0  0  0  0
   -4.0668    1.9403    0.5442 H   0  0  0  0  0  0  0  0  0  0  0  0
   -3.1793    2.2037   -0.9669 H   0  0  0  0  0  0  0  0  0  0  0  0
   -4.8996    1.9684   -1.0069 H   0  0  0  0  0  0  0  0  0  0  0  0
    1.6628   -3.9866   -0.6464 H   0  0  0  0  0  0  0  0  0  0  0  0
   -8.3763   -0.5765   -1.1873 H   0  0  0  0  0  0  0  0  0  0  0  0
   -7.6107   -1.1556    0.2771 H   0  0  0  0  0  0  0  0  0  0  0  0
   10.0058    0.5279    0.7377 H   0  0  0  0  0  0  0  0  0  0  0  0
   10.1311    2.1805    1.3745 H   0  0  0  0  0  0  0  0  0  0  0  0
    9.7399    1.9411   -0.3409 H   0  0  0  0  0  0  0  0  0  0  0  0
   -7.0445    1.4079    0.7503 H   0  0  0  0  0  0  0  0  0  0  0  0
   -9.2896    1.7154   -1.3029 H   0  0  0  0  0  0  0  0  0  0  0  0
   -8.6876    2.9836   -0.2319 H   0  0  0  0  0  0  0  0  0  0  0  0
   -7.6225    2.2980   -1.4677 H   0  0  0  0  0  0  0  0  0  0  0  0
   -9.1069    0.3751    3.2374 H   0  0  0  0  0  0  0  0  0  0  0  0
  1 19  1  0  0  0  0
  1 76  1  0  0  0  0
  2 23  1  0  0  0  0
  2 35  1  0  0  0  0
  3 22  2  0  0  0  0
  4 24  2  0  0  0  0
  5 34  2  0  0  0  0
  6 35  2  0  0  0  0
  7 40  1  0  0  0  0
  7 86  1  0  0  0  0
  8 40  2  0  0  0  0
  9 10  1  0  0  0  0
  9 14  1  0  0  0  0
  9 18  1  0  0  0  0
  9 27  1  0  0  0  0
 10 13  1  0  0  0  0
 10 22  1  0  0  0  0
 10 28  1  0  0  0  0
 11 12  1  0  0  0  0
 11 15  1  0  0  0  0
 11 20  1  0  0  0  0
 11 29  1  0  0  0  0
 12 16  1  0  0  0  0
 12 17  1  0  0  0  0
 12 41  1  0  0  0  0
 13 15  2  0  0  0  0
 13 19  1  0  0  0  0
 14 21  1  0  0  0  0
 14 26  1  0  0  0  0
 14 42  1  0  0  0  0
 15 24  1  0  0  0  0
 16 23  1  0  0  0  0
 16 30  1  0  0  0  0
 16 31  1  0  0  0  0
 17 19  1  0  0  0  0
 17 43  1  0  0  0  0
 17 44  1  0  0  0  0
 18 24  1  0  0  0  0
 18 45  1  0  0  0  0
 18 46  1  0  0  0  0
 19 47  1  0  0  0  0
 20 25  1  0  0  0  0
 20 48  1  0  0  0  0
 20 49  1  0  0  0  0
 21 22  1  0  0  0  0
 21 50  1  0  0  0  0
 21 51  1  0  0  0  0
 23 25  1  0  0  0  0
 23 52  1  0  0  0  0
 25 53  1  0  0  0  0
 25 54  1  0  0  0  0
 26 32  1  0  0  0  0
 26 33  1  0  0  0  0
 26 55  1  0  0  0  0
 27 56  1  0  0  0  0
 27 57  1  0  0  0  0
 27 58  1  0  0  0  0
 28 59  1  0  0  0  0
 28 60  1  0  0  0  0
 28 61  1  0  0  0  0
 29 62  1  0  0  0  0
 29 63  1  0  0  0  0
 29 64  1  0  0  0  0
 30 65  1  0  0  0  0
 30 66  1  0  0  0  0
 30 68  1  0  0  0  0
 31 67  1  0  0  0  0
 31 69  1  0  0  0  0
 31 70  1  0  0  0  0
 32 34  1  0  0  0  0
 32 71  1  0  0  0  0
 32 72  1  0  0  0  0
 33 73  1  0  0  0  0
 33 74  1  0  0  0  0
 33 75  1  0  0  0  0
 34 36  1  0  0  0  0
 35 37  1  0  0  0  0
 36 38  1  0  0  0  0
 36 77  1  0  0  0  0
 36 78  1  0  0  0  0
 37 79  1  0  0  0  0
 37 80  1  0  0  0  0
 37 81  1  0  0  0  0
 38 39  1  0  0  0  0
 38 40  1  0  0  0  0
 38 82  1  0  0  0  0
 39 83  1  0  0  0  0
 39 84  1  0  0  0  0
 39 85  1  0  0  0  0
M  END
> <PUBCHEM_COMPOUND_CID>
101491698

> <PUBCHEM_CONFORMER_RMSD>
1

> <PUBCHEM_CONFORMER_DIVERSEORDER>
1
24
23
20
27
26
13
17
18
32
31
25
28
29
21
5
22
15
19
8
11
10
16
4
30
9
12
14
7
2
6
3

> <PUBCHEM_MMFF94_PARTIAL_CHARGES>
27
1 -0.68
10 0.2
11 0.14
13 -0.28
15 -0.12
18 0.06
19 0.42
2 -0.43
21 0.06
22 0.45
23 0.28
24 0.49
3 -0.57
32 0.06
34 0.45
35 0.66
36 0.06
37 0.06
38 0.06
4 -0.57
40 0.66
5 -0.57
6 -0.57
7 -0.65
76 0.4
8 -0.57
86 0.5

> <PUBCHEM_EFFECTIVE_ROTOR_COUNT>
9.8

> <PUBCHEM_PHARMACOPHORE_FEATURES>
16
1 1 acceptor
1 1 donor
1 3 acceptor
1 33 hydrophobe
1 39 hydrophobe
1 4 acceptor
1 5 acceptor
1 6 acceptor
1 7 acceptor
1 8 acceptor
3 16 30 31 hydrophobe
3 7 8 40 anion
5 9 10 14 21 22 rings
6 11 12 13 15 17 19 rings
6 11 12 16 20 23 25 rings
6 9 10 13 15 18 24 rings

> <PUBCHEM_HEAVY_ATOM_COUNT>
40

> <PUBCHEM_ATOM_DEF_STEREO_COUNT>
8

> <PUBCHEM_ATOM_UDEF_STEREO_COUNT>
1

> <PUBCHEM_BOND_DEF_STEREO_COUNT>
0

> <PUBCHEM_BOND_UDEF_STEREO_COUNT>
0

> <PUBCHEM_ISOTOPIC_ATOM_COUNT>
0

> <PUBCHEM_COMPONENT_COUNT>
1

> <PUBCHEM_CACTVS_TAUTO_COUNT>
48

> <PUBCHEM_CONFORMER_ID>
060CA3F200000001

> <PUBCHEM_MMFF94_ENERGY>
135.5189

> <PUBCHEM_FEATURE_SELFOVERLAP>
81.356

> <PUBCHEM_SHAPE_FINGERPRINT>
10533779 47 17603869949078922515
11135926 11 18187357719736540135
11181472 205 16845023311798012211
11456790 92 18261107443950490377
11534866 41 16443346463847840514
12522641 33 17561084696209954726
12539765 74 18060424594802956671
12838862 33 18262220197083453500
13383668 254 17417258761470773003
13560911 43 17240197733480905205
13811026 1 18335137574754271924
14040221 8 14908189629524020507
14117953 113 18408886265922920428
14394314 77 18271238417161082836
14849402 71 18409169939728103413
150020 25 13398628372451398980
15183329 4 18408327670142904463
15198563 99 12967141492746925203
15247644 1 13840264797529594121
15439362 3 17770768311073908968
18608769 82 17967820466464550179
19315958 150 18333731321653826334
19611394 137 16661226840267513977
20156587 128 15913059690370027612
21521721 280 18408324380683635675
21781051 124 17240780487986703779
23559900 14 18337948008200773217
23576562 1 15194415656466839553
24771293 8 18412539929227545437
25269216 80 16630231607274339111
3178227 256 17967256395033956633
335352 9 18333450958656985902
3633792 109 18060423521403536034
4093350 32 17917994957820106134
4149490 64 18334579001595104763
4625314 4 16559029424054822644
57035037 87 17060341833612512649
6004065 56 18270674385076402100
6081469 158 14549025359833007412
6523845 18 13045936932445999236

> <PUBCHEM_SHAPE_MULTIPOLES>
776.23
27.7
2.57
1.61
27.88
0.89
0.11
-16.06
8.75
-2.2
0.27
1.07
-0.1
0.99

> <PUBCHEM_SHAPE_SELFOVERLAP>
1642.443

> <PUBCHEM_SHAPE_VOLUME>
429.7

> <PUBCHEM_COORDINATE_TYPE>
2
5
10

$$$$
