471001
  -OEChem-09122004013D

 87 90  0     1  0  0  0  0  0999 V2000
   -0.0135   -2.8571    1.0120 O   0  0  0  0  0  0  0  0  0  0  0  0
   -0.3023    2.4821    0.8556 O   0  0  0  0  0  0  0  0  0  0  0  0
    2.0717    2.6183   -0.6204 O   0  0  0  0  0  0  0  0  0  0  0  0
    8.1366   -0.2031   -0.9191 O   0  0  0  0  0  0  0  0  0  0  0  0
    2.4838   -2.4335    2.2403 O   0  0  0  0  0  0  0  0  0  0  0  0
   -6.4214    1.0378    0.3451 O   0  0  0  0  0  0  0  0  0  0  0  0
   -0.4087    4.0763   -0.8130 O   0  0  0  0  0  0  0  0  0  0  0  0
   -9.1997   -0.2842   -0.3952 O   0  0  0  0  0  0  0  0  0  0  0  0
   -8.3861   -2.3994   -0.2734 O   0  0  0  0  0  0  0  0  0  0  0  0
   -0.4265    0.0915    0.3168 C   0  0  1  0  0  0  0  0  0  0  0  0
    0.5263   -0.4812    1.4324 C   0  0  1  0  0  0  0  0  0  0  0  0
   -1.8045    0.0082    1.0230 C   0  0  2  0  0  0  0  0  0  0  0  0
   -0.2659   -1.7481    1.8677 C   0  0  1  0  0  0  0  0  0  0  0  0
    3.8055    0.2245   -0.7342 C   0  0  1  0  0  0  0  0  0  0  0  0
    1.9340   -0.5793    0.8593 C   0  0  0  0  0  0  0  0  0  0  0  0
   -1.7578   -1.3496    1.7636 C   0  0  0  0  0  0  0  0  0  0  0  0
    0.0442    1.4892   -0.0959 C   0  0  2  0  0  0  0  0  0  0  0  0
    4.4571   -1.2039   -0.5282 C   0  0  1  0  0  0  0  0  0  0  0  0
    2.4294    0.3205   -0.0218 C   0  0  0  0  0  0  0  0  0  0  0  0
    5.9732   -1.3395   -0.9830 C   0  0  0  0  0  0  0  0  0  0  0  0
   -3.0362    0.1568    0.1367 C   0  0  1  0  0  0  0  0  0  0  0  0
   -0.4637   -0.7676   -0.9946 C   0  0  0  0  0  0  0  0  0  0  0  0
    0.6688    0.4012    2.7119 C   0  0  0  0  0  0  0  0  0  0  0  0
    1.5602    1.5477   -0.2849 C   0  0  0  0  0  0  0  0  0  0  0  0
    4.7607    1.3139   -0.1805 C   0  0  0  0  0  0  0  0  0  0  0  0
    4.2857   -1.6308    0.9387 C   0  0  0  0  0  0  0  0  0  0  0  0
    2.8502   -1.6312    1.3818 C   0  0  0  0  0  0  0  0  0  0  0  0
    6.8091   -0.1734   -0.3947 C   0  0  2  0  0  0  0  0  0  0  0  0
    6.2024    1.1993   -0.6668 C   0  0  0  0  0  0  0  0  0  0  0  0
    3.5386    0.4449   -2.2484 C   0  0  0  0  0  0  0  0  0  0  0  0
   -4.3150    0.0384    0.9809 C   0  0  0  0  0  0  0  0  0  0  0  0
    6.1098   -1.4053   -2.5259 C   0  0  0  0  0  0  0  0  0  0  0  0
    6.5950   -2.6764   -0.4870 C   0  0  0  0  0  0  0  0  0  0  0  0
   -2.9889    1.4965   -0.6061 C   0  0  0  0  0  0  0  0  0  0  0  0
   -5.5934    0.1455    0.1629 C   0  0  0  0  0  0  0  0  0  0  0  0
   -0.5025    3.7431    0.3606 C   0  0  0  0  0  0  0  0  0  0  0  0
   -5.8256   -0.9261   -0.8840 C   0  0  0  0  0  0  0  0  0  0  0  0
   -0.8604    4.6811    1.4733 C   0  0  0  0  0  0  0  0  0  0  0  0
   -7.1756   -0.7370   -1.5803 C   0  0  1  0  0  0  0  0  0  0  0  0
   -7.2040   -1.4386   -2.9385 C   0  0  0  0  0  0  0  0  0  0  0  0
   -8.2909   -1.2514   -0.6867 C   0  0  0  0  0  0  0  0  0  0  0  0
   -1.8692    0.7924    1.7885 H   0  0  0  0  0  0  0  0  0  0  0  0
   -0.0245   -2.0653    2.8883 H   0  0  0  0  0  0  0  0  0  0  0  0
   -2.1857   -1.2294    2.7658 H   0  0  0  0  0  0  0  0  0  0  0  0
   -2.3325   -2.1239    1.2429 H   0  0  0  0  0  0  0  0  0  0  0  0
   -0.3526    1.7425   -1.0832 H   0  0  0  0  0  0  0  0  0  0  0  0
    3.8736   -1.9244   -1.1219 H   0  0  0  0  0  0  0  0  0  0  0  0
   -3.0564   -0.6423   -0.6118 H   0  0  0  0  0  0  0  0  0  0  0  0
    0.5330   -0.9924   -1.3843 H   0  0  0  0  0  0  0  0  0  0  0  0
   -0.9952   -0.2560   -1.8036 H   0  0  0  0  0  0  0  0  0  0  0  0
   -0.9745   -1.7253   -0.8624 H   0  0  0  0  0  0  0  0  0  0  0  0
    1.1794    1.3506    2.5205 H   0  0  0  0  0  0  0  0  0  0  0  0
   -0.2886    0.6318    3.1872 H   0  0  0  0  0  0  0  0  0  0  0  0
    1.2688   -0.1205    3.4689 H   0  0  0  0  0  0  0  0  0  0  0  0
    4.4112    2.3162   -0.4491 H   0  0  0  0  0  0  0  0  0  0  0  0
    4.7618    1.2818    0.9173 H   0  0  0  0  0  0  0  0  0  0  0  0
    4.6229   -2.6640    1.0719 H   0  0  0  0  0  0  0  0  0  0  0  0
    4.8539   -0.9969    1.6269 H   0  0  0  0  0  0  0  0  0  0  0  0
    6.9000   -0.3025    0.6909 H   0  0  0  0  0  0  0  0  0  0  0  0
    6.8095    1.9642   -0.1650 H   0  0  0  0  0  0  0  0  0  0  0  0
    6.2741    1.4487   -1.7314 H   0  0  0  0  0  0  0  0  0  0  0  0
    2.8905    1.3009   -2.4556 H   0  0  0  0  0  0  0  0  0  0  0  0
    3.0520   -0.4300   -2.6953 H   0  0  0  0  0  0  0  0  0  0  0  0
    4.4437    0.6566   -2.8136 H   0  0  0  0  0  0  0  0  0  0  0  0
   -4.3404    0.8287    1.7416 H   0  0  0  0  0  0  0  0  0  0  0  0
   -4.3650   -0.9171    1.5139 H   0  0  0  0  0  0  0  0  0  0  0  0
    5.3271   -2.0326   -2.9660 H   0  0  0  0  0  0  0  0  0  0  0  0
    7.0717   -1.8384   -2.8270 H   0  0  0  0  0  0  0  0  0  0  0  0
    6.0816   -0.4268   -3.0040 H   0  0  0  0  0  0  0  0  0  0  0  0
    5.9718   -3.5294   -0.7778 H   0  0  0  0  0  0  0  0  0  0  0  0
    6.7231   -2.6937    0.6004 H   0  0  0  0  0  0  0  0  0  0  0  0
    7.5937   -2.8404   -0.9093 H   0  0  0  0  0  0  0  0  0  0  0  0
   -0.5574   -3.5992    1.3269 H   0  0  0  0  0  0  0  0  0  0  0  0
   -3.9507    1.7025   -1.0898 H   0  0  0  0  0  0  0  0  0  0  0  0
   -2.8080    2.3318    0.0738 H   0  0  0  0  0  0  0  0  0  0  0  0
   -2.2769    1.5037   -1.4279 H   0  0  0  0  0  0  0  0  0  0  0  0
    8.6346    0.5196   -0.5005 H   0  0  0  0  0  0  0  0  0  0  0  0
   -5.7560   -1.9065   -0.4006 H   0  0  0  0  0  0  0  0  0  0  0  0
   -5.0243   -0.8431   -1.6252 H   0  0  0  0  0  0  0  0  0  0  0  0
   -1.7841    4.3487    1.9536 H   0  0  0  0  0  0  0  0  0  0  0  0
   -1.0195    5.6836    1.0662 H   0  0  0  0  0  0  0  0  0  0  0  0
   -0.0433    4.7239    2.1977 H   0  0  0  0  0  0  0  0  0  0  0  0
   -7.3546    0.3280   -1.7773 H   0  0  0  0  0  0  0  0  0  0  0  0
   -6.4502   -1.0190   -3.6124 H   0  0  0  0  0  0  0  0  0  0  0  0
   -8.1855   -1.3257   -3.4117 H   0  0  0  0  0  0  0  0  0  0  0  0
   -7.0111   -2.5119   -2.8332 H   0  0  0  0  0  0  0  0  0  0  0  0
   -9.9205   -0.6213    0.1784 H   0  0  0  0  0  0  0  0  0  0  0  0
  1 13  1  0  0  0  0
  1 73  1  0  0  0  0
  2 17  1  0  0  0  0
  2 36  1  0  0  0  0
  3 24  2  0  0  0  0
  4 28  1  0  0  0  0
  4 77  1  0  0  0  0
  5 27  2  0  0  0  0
  6 35  2  0  0  0  0
  7 36  2  0  0  0  0
  8 41  1  0  0  0  0
  8 87  1  0  0  0  0
  9 41  2  0  0  0  0
 10 11  1  0  0  0  0
 10 12  1  0  0  0  0
 10 17  1  0  0  0  0
 10 22  1  0  0  0  0
 11 13  1  0  0  0  0
 11 15  1  0  0  0  0
 11 23  1  0  0  0  0
 12 16  1  0  0  0  0
 12 21  1  0  0  0  0
 12 42  1  0  0  0  0
 13 16  1  0  0  0  0
 13 43  1  0  0  0  0
 14 18  1  0  0  0  0
 14 19  1  0  0  0  0
 14 25  1  0  0  0  0
 14 30  1  0  0  0  0
 15 19  2  0  0  0  0
 15 27  1  0  0  0  0
 16 44  1  0  0  0  0
 16 45  1  0  0  0  0
 17 24  1  0  0  0  0
 17 46  1  0  0  0  0
 18 20  1  0  0  0  0
 18 26  1  0  0  0  0
 18 47  1  0  0  0  0
 19 24  1  0  0  0  0
 20 28  1  0  0  0  0
 20 32  1  0  0  0  0
 20 33  1  0  0  0  0
 21 31  1  0  0  0  0
 21 34  1  0  0  0  0
 21 48  1  0  0  0  0
 22 49  1  0  0  0  0
 22 50  1  0  0  0  0
 22 51  1  0  0  0  0
 23 52  1  0  0  0  0
 23 53  1  0  0  0  0
 23 54  1  0  0  0  0
 25 29  1  0  0  0  0
 25 55  1  0  0  0  0
 25 56  1  0  0  0  0
 26 27  1  0  0  0  0
 26 57  1  0  0  0  0
 26 58  1  0  0  0  0
 28 29  1  0  0  0  0
 28 59  1  0  0  0  0
 29 60  1  0  0  0  0
 29 61  1  0  0  0  0
 30 62  1  0  0  0  0
 30 63  1  0  0  0  0
 30 64  1  0  0  0  0
 31 35  1  0  0  0  0
 31 65  1  0  0  0  0
 31 66  1  0  0  0  0
 32 67  1  0  0  0  0
 32 68  1  0  0  0  0
 32 69  1  0  0  0  0
 33 70  1  0  0  0  0
 33 71  1  0  0  0  0
 33 72  1  0  0  0  0
 34 74  1  0  0  0  0
 34 75  1  0  0  0  0
 34 76  1  0  0  0  0
 35 37  1  0  0  0  0
 36 38  1  0  0  0  0
 37 39  1  0  0  0  0
 37 78  1  0  0  0  0
 37 79  1  0  0  0  0
 38 80  1  0  0  0  0
 38 81  1  0  0  0  0
 38 82  1  0  0  0  0
 39 40  1  0  0  0  0
 39 41  1  0  0  0  0
 39 83  1  0  0  0  0
 40 84  1  0  0  0  0
 40 85  1  0  0  0  0
 40 86  1  0  0  0  0
M  END
> <PUBCHEM_COMPOUND_CID>
471001

> <PUBCHEM_CONFORMER_RMSD>
1.2

> <PUBCHEM_CONFORMER_DIVERSEORDER>
8
3
25
24
26
21
20
31
18
29
4
33
32
28
14
19
17
1
30
16
12
34
13
27
7
11
5
22
9
23
15
2
10
6

> <PUBCHEM_MMFF94_PARTIAL_CHARGES>
29
1 -0.68
11 0.14
13 0.28
14 0.14
15 -0.12
17 0.34
19 -0.12
2 -0.43
24 0.49
26 0.06
27 0.49
28 0.28
3 -0.57
31 0.06
35 0.45
36 0.66
37 0.06
38 0.06
39 0.06
4 -0.68
41 0.66
5 -0.57
6 -0.57
7 -0.57
73 0.4
77 0.4
8 -0.65
87 0.5
9 -0.57

> <PUBCHEM_EFFECTIVE_ROTOR_COUNT>
9.8

> <PUBCHEM_PHARMACOPHORE_FEATURES>
18
1 1 acceptor
1 1 donor
1 3 acceptor
1 34 hydrophobe
1 4 acceptor
1 4 donor
1 40 hydrophobe
1 5 acceptor
1 6 acceptor
1 7 acceptor
1 8 acceptor
1 9 acceptor
3 20 32 33 hydrophobe
3 8 9 41 anion
5 10 11 12 13 16 rings
6 10 11 15 17 19 24 rings
6 14 15 18 19 26 27 rings
6 14 18 20 25 28 29 rings

> <PUBCHEM_HEAVY_ATOM_COUNT>
41

> <PUBCHEM_ATOM_DEF_STEREO_COUNT>
7

> <PUBCHEM_ATOM_UDEF_STEREO_COUNT>
3

> <PUBCHEM_BOND_DEF_STEREO_COUNT>
0

> <PUBCHEM_BOND_UDEF_STEREO_COUNT>
0

> <PUBCHEM_ISOTOPIC_ATOM_COUNT>
0

> <PUBCHEM_COMPONENT_COUNT>
1

> <PUBCHEM_CACTVS_TAUTO_COUNT>
12

> <PUBCHEM_CONFORMER_ID>
00072FD900000008

> <PUBCHEM_MMFF94_ENERGY>
151.782

> <PUBCHEM_FEATURE_SELFOVERLAP>
91.532

> <PUBCHEM_SHAPE_FINGERPRINT>
10693767 8 18413384345636567951
11115154 58 18342459240512920185
11456790 92 8790887367670018774
11513181 2 18051700936203877950
11607047 403 17487038218486649193
11607047 74 17342076441739835617
11828532 37 18262809595393073795
12107698 1 18340493275199320692
12166972 35 17917427675115069225
12788726 201 18337957770830353104
12838862 33 17967525805790300656
13540713 4 17826240880507948809
13540713 5 17827074005268244744
13617811 41 18113616790212476076
13690498 29 18409439277311703237
13782708 43 17275104977347284454
13811026 1 18411699893679883386
14068700 675 18411419471234579976
14117953 113 17313111847999620854
14767858 380 18186520986396301291
14931854 50 18040433265806736997
15131766 46 13769646541780350798
15183329 4 18260266343857807931
15198563 99 18189058611709832260
15324884 4 17243872461008953481
15351339 4 18041273271078898160
15439362 3 18050283970753720197
16991971 28 18342459257602806399
16994733 274 14129062538438418319
18681886 176 18201431519894960867
19841028 212 16844741811632533406
20105231 36 18410015477561342763
20775438 99 17765971172212128271
21033648 29 8213857012614008846
21424621 283 11963392933908122213
22121540 332 16443883021486021703
22224240 67 9151175350939510845
23559900 14 18187090597875731976
23576562 1 17169281527354914343
249057 3 18339922714553450727
2747138 104 12967134925345808734
283562 15 18264212421938032824
335352 9 18114187449805727958
3633792 109 17894632530521379788
4066623 53 18261110789909972788
484989 97 17969793058786015467
504579 68 18186800279804185751
5104073 3 12247139475951567943
513532 50 18199737193128806424
57527452 28 16917355839430169054
6004065 56 18341612680350720600
6058803 2 17683799908837535128
6086070 43 18263645220583991771
70251023 43 18272652329380551456

> <PUBCHEM_SHAPE_MULTIPOLES>
790.94
21.07
3.5
2.11
28.42
4.3
0.05
-14.4
13.62
0.02
-0.6
0.08
-0.94
-1.4

> <PUBCHEM_SHAPE_SELFOVERLAP>
1678.703

> <PUBCHEM_SHAPE_VOLUME>
435.9

> <PUBCHEM_COORDINATE_TYPE>
2
5
10

$$$$
