471008
  -OEChem-09122005283D

 79 82  0     1  0  0  0  0  0999 V2000
    7.3754   -0.9419   -1.9529 O   0  0  0  0  0  0  0  0  0  0  0  0
   -8.3271   -1.5874    0.7780 O   0  0  0  0  0  0  0  0  0  0  0  0
   -9.4326    0.1540   -2.0598 O   0  0  0  0  0  0  0  0  0  0  0  0
   -0.5223   -0.0828    0.6797 C   0  0  1  0  0  0  0  0  0  0  0  0
    0.2799    1.0968    0.0359 C   0  0  1  0  0  0  0  0  0  0  0  0
   -1.9823    0.3806    0.4660 C   0  0  2  0  0  0  0  0  0  0  0  0
   -0.4320    2.3093    0.6743 C   0  0  0  0  0  0  0  0  0  0  0  0
   -1.9205    1.9010    0.7510 C   0  0  0  0  0  0  0  0  0  0  0  0
    1.7750    0.8837    0.2569 C   0  0  0  0  0  0  0  0  0  0  0  0
    3.7990   -0.7509    0.2394 C   0  0  2  0  0  0  0  0  0  0  0  0
   -0.1264   -1.3878   -0.0281 C   0  0  0  0  0  0  0  0  0  0  0  0
    2.2646   -0.5112    0.1002 C   0  0  0  0  0  0  0  0  0  0  0  0
    4.5665    0.5362   -0.2426 C   0  0  2  0  0  0  0  0  0  0  0  0
   -3.0568   -0.3291    1.2807 C   0  0  1  0  0  0  0  0  0  0  0  0
   -0.2459   -0.2530    2.2112 C   0  0  0  0  0  0  0  0  0  0  0  0
    0.1097    1.2437   -1.5108 C   0  0  0  0  0  0  0  0  0  0  0  0
    1.3810   -1.5248   -0.0787 C   0  0  0  0  0  0  0  0  0  0  0  0
    6.1256    0.4397   -0.3911 C   0  0  0  0  0  0  0  0  0  0  0  0
    4.1002    1.7733    0.5541 C   0  0  0  0  0  0  0  0  0  0  0  0
    4.2813   -1.9419   -0.6337 C   0  0  0  0  0  0  0  0  0  0  0  0
    2.6091    1.9032    0.5248 C   0  0  0  0  0  0  0  0  0  0  0  0
    4.0204   -1.0950    1.7327 C   0  0  0  0  0  0  0  0  0  0  0  0
    5.7904   -2.1278   -0.6421 C   0  0  0  0  0  0  0  0  0  0  0  0
   -4.4750    0.2016    0.9789 C   0  0  0  0  0  0  0  0  0  0  0  0
    6.4876   -0.8732   -1.1008 C   0  0  0  0  0  0  0  0  0  0  0  0
   -3.0089   -1.8362    1.0026 C   0  0  0  0  0  0  0  0  0  0  0  0
    6.6267    1.6075   -1.2801 C   0  0  0  0  0  0  0  0  0  0  0  0
    6.9191    0.5074    0.9221 C   0  0  0  0  0  0  0  0  0  0  0  0
   -4.9078    0.1119   -0.4913 C   0  0  0  0  0  0  0  0  0  0  0  0
   -6.2683    0.7052   -0.7312 C   0  0  0  0  0  0  0  0  0  0  0  0
   -7.4696    0.0952   -0.6987 C   0  0  0  0  0  0  0  0  0  0  0  0
   -7.5466   -1.3826   -0.3925 C   0  0  0  0  0  0  0  0  0  0  0  0
   -8.7893    0.7755   -0.9540 C   0  0  0  0  0  0  0  0  0  0  0  0
   -2.2146    0.2394   -0.5956 H   0  0  0  0  0  0  0  0  0  0  0  0
   -0.3077    3.2334    0.0984 H   0  0  0  0  0  0  0  0  0  0  0  0
   -0.0532    2.5126    1.6831 H   0  0  0  0  0  0  0  0  0  0  0  0
   -2.5105    2.4499    0.0084 H   0  0  0  0  0  0  0  0  0  0  0  0
   -2.3167    2.1590    1.7395 H   0  0  0  0  0  0  0  0  0  0  0  0
   -0.4922   -2.2666    0.5069 H   0  0  0  0  0  0  0  0  0  0  0  0
   -0.5285   -1.4475   -1.0453 H   0  0  0  0  0  0  0  0  0  0  0  0
    4.2083    0.6944   -1.2760 H   0  0  0  0  0  0  0  0  0  0  0  0
   -2.8945   -0.1759    2.3546 H   0  0  0  0  0  0  0  0  0  0  0  0
   -0.7211   -1.1520    2.6141 H   0  0  0  0  0  0  0  0  0  0  0  0
    0.8192   -0.3470    2.4427 H   0  0  0  0  0  0  0  0  0  0  0  0
   -0.6162    0.5931    2.7989 H   0  0  0  0  0  0  0  0  0  0  0  0
   -0.9265    1.4177   -1.8155 H   0  0  0  0  0  0  0  0  0  0  0  0
    0.4687    0.3701   -2.0645 H   0  0  0  0  0  0  0  0  0  0  0  0
    0.6835    2.1055   -1.8764 H   0  0  0  0  0  0  0  0  0  0  0  0
    1.7296   -2.5463   -0.1926 H   0  0  0  0  0  0  0  0  0  0  0  0
    4.4399    1.7508    1.5942 H   0  0  0  0  0  0  0  0  0  0  0  0
    4.5118    2.6824    0.1041 H   0  0  0  0  0  0  0  0  0  0  0  0
    3.9399   -1.7939   -1.6677 H   0  0  0  0  0  0  0  0  0  0  0  0
    3.8415   -2.8851   -0.2882 H   0  0  0  0  0  0  0  0  0  0  0  0
    2.2191    2.9095    0.6489 H   0  0  0  0  0  0  0  0  0  0  0  0
    3.7499   -0.2685    2.3976 H   0  0  0  0  0  0  0  0  0  0  0  0
    5.0471   -1.3780    1.9603 H   0  0  0  0  0  0  0  0  0  0  0  0
    3.4032   -1.9525    2.0307 H   0  0  0  0  0  0  0  0  0  0  0  0
    6.1787   -2.4108    0.3401 H   0  0  0  0  0  0  0  0  0  0  0  0
    6.0459   -2.9385   -1.3344 H   0  0  0  0  0  0  0  0  0  0  0  0
   -4.5429    1.2470    1.3068 H   0  0  0  0  0  0  0  0  0  0  0  0
   -5.1970   -0.3456    1.6001 H   0  0  0  0  0  0  0  0  0  0  0  0
   -3.9481   -2.3119    1.3105 H   0  0  0  0  0  0  0  0  0  0  0  0
   -2.8692   -2.0640   -0.0589 H   0  0  0  0  0  0  0  0  0  0  0  0
   -2.2368   -2.3364    1.5889 H   0  0  0  0  0  0  0  0  0  0  0  0
    6.4744    2.5809   -0.8040 H   0  0  0  0  0  0  0  0  0  0  0  0
    6.1151    1.6165   -2.2494 H   0  0  0  0  0  0  0  0  0  0  0  0
    7.7008    1.5237   -1.4862 H   0  0  0  0  0  0  0  0  0  0  0  0
    6.7404   -0.3461    1.5755 H   0  0  0  0  0  0  0  0  0  0  0  0
    7.9978    0.5018    0.7199 H   0  0  0  0  0  0  0  0  0  0  0  0
    6.7039    1.4216    1.4837 H   0  0  0  0  0  0  0  0  0  0  0  0
   -4.8511   -0.9165   -0.8591 H   0  0  0  0  0  0  0  0  0  0  0  0
   -4.2169    0.6801   -1.1242 H   0  0  0  0  0  0  0  0  0  0  0  0
   -6.2595    1.7741   -0.9429 H   0  0  0  0  0  0  0  0  0  0  0  0
   -6.5803   -1.8575   -0.2167 H   0  0  0  0  0  0  0  0  0  0  0  0
   -8.0223   -1.9134   -1.2243 H   0  0  0  0  0  0  0  0  0  0  0  0
   -8.6646    1.8391   -1.1822 H   0  0  0  0  0  0  0  0  0  0  0  0
   -9.4439    0.6960   -0.0807 H   0  0  0  0  0  0  0  0  0  0  0  0
   -8.3861   -2.5479    0.9184 H   0  0  0  0  0  0  0  0  0  0  0  0
   -8.8580    0.2660   -2.8365 H   0  0  0  0  0  0  0  0  0  0  0  0
  1 25  2  0  0  0  0
  2 32  1  0  0  0  0
  2 78  1  0  0  0  0
  3 33  1  0  0  0  0
  3 79  1  0  0  0  0
  4  5  1  0  0  0  0
  4  6  1  0  0  0  0
  4 11  1  0  0  0  0
  4 15  1  0  0  0  0
  5  7  1  0  0  0  0
  5  9  1  0  0  0  0
  5 16  1  0  0  0  0
  6  8  1  0  0  0  0
  6 14  1  0  0  0  0
  6 34  1  0  0  0  0
  7  8  1  0  0  0  0
  7 35  1  0  0  0  0
  7 36  1  0  0  0  0
  8 37  1  0  0  0  0
  8 38  1  0  0  0  0
  9 12  1  0  0  0  0
  9 21  2  0  0  0  0
 10 12  1  0  0  0  0
 10 13  1  0  0  0  0
 10 20  1  0  0  0  0
 10 22  1  0  0  0  0
 11 17  1  0  0  0  0
 11 39  1  0  0  0  0
 11 40  1  0  0  0  0
 12 17  2  0  0  0  0
 13 18  1  0  0  0  0
 13 19  1  0  0  0  0
 13 41  1  0  0  0  0
 14 24  1  0  0  0  0
 14 26  1  0  0  0  0
 14 42  1  0  0  0  0
 15 43  1  0  0  0  0
 15 44  1  0  0  0  0
 15 45  1  0  0  0  0
 16 46  1  0  0  0  0
 16 47  1  0  0  0  0
 16 48  1  0  0  0  0
 17 49  1  0  0  0  0
 18 25  1  0  0  0  0
 18 27  1  0  0  0  0
 18 28  1  0  0  0  0
 19 21  1  0  0  0  0
 19 50  1  0  0  0  0
 19 51  1  0  0  0  0
 20 23  1  0  0  0  0
 20 52  1  0  0  0  0
 20 53  1  0  0  0  0
 21 54  1  0  0  0  0
 22 55  1  0  0  0  0
 22 56  1  0  0  0  0
 22 57  1  0  0  0  0
 23 25  1  0  0  0  0
 23 58  1  0  0  0  0
 23 59  1  0  0  0  0
 24 29  1  0  0  0  0
 24 60  1  0  0  0  0
 24 61  1  0  0  0  0
 26 62  1  0  0  0  0
 26 63  1  0  0  0  0
 26 64  1  0  0  0  0
 27 65  1  0  0  0  0
 27 66  1  0  0  0  0
 27 67  1  0  0  0  0
 28 68  1  0  0  0  0
 28 69  1  0  0  0  0
 28 70  1  0  0  0  0
 29 30  1  0  0  0  0
 29 71  1  0  0  0  0
 29 72  1  0  0  0  0
 30 31  2  0  0  0  0
 30 73  1  0  0  0  0
 31 32  1  0  0  0  0
 31 33  1  0  0  0  0
 32 74  1  0  0  0  0
 32 75  1  0  0  0  0
 33 76  1  0  0  0  0
 33 77  1  0  0  0  0
M  END
> <PUBCHEM_COMPOUND_CID>
471008

> <PUBCHEM_CONFORMER_RMSD>
1

> <PUBCHEM_CONFORMER_DIVERSEORDER>
2
7
6
1
4
9
5
3
8

> <PUBCHEM_MMFF94_PARTIAL_CHARGES>
24
1 -0.57
10 0.14
11 0.14
12 -0.14
17 -0.29
18 0.06
19 0.14
2 -0.68
21 -0.29
23 0.06
25 0.45
29 0.14
3 -0.68
30 -0.29
31 -0.28
32 0.42
33 0.42
49 0.15
5 0.14
54 0.15
73 0.15
78 0.4
79 0.4
9 -0.14

> <PUBCHEM_EFFECTIVE_ROTOR_COUNT>
7.6

> <PUBCHEM_PHARMACOPHORE_FEATURES>
12
1 1 acceptor
1 2 acceptor
1 2 donor
1 26 hydrophobe
1 3 acceptor
1 3 donor
3 18 27 28 hydrophobe
4 14 24 29 30 hydrophobe
5 4 5 6 7 8 rings
6 10 13 18 20 23 25 rings
6 4 5 9 11 12 17 rings
6 9 10 12 13 19 21 rings

> <PUBCHEM_HEAVY_ATOM_COUNT>
33

> <PUBCHEM_ATOM_DEF_STEREO_COUNT>
6

> <PUBCHEM_ATOM_UDEF_STEREO_COUNT>
0

> <PUBCHEM_BOND_DEF_STEREO_COUNT>
0

> <PUBCHEM_BOND_UDEF_STEREO_COUNT>
0

> <PUBCHEM_ISOTOPIC_ATOM_COUNT>
0

> <PUBCHEM_COMPONENT_COUNT>
1

> <PUBCHEM_CACTVS_TAUTO_COUNT>
2

> <PUBCHEM_CONFORMER_ID>
00072FE000000002

> <PUBCHEM_MMFF94_ENERGY>
114.2593

> <PUBCHEM_FEATURE_SELFOVERLAP>
60.997

> <PUBCHEM_SHAPE_FINGERPRINT>
10 15 10015579510832705159
10100884 174 9293842469951005253
10299344 5 17418094317577806485
10533779 47 9583247192812475429
10816530 90 16588031238076531884
11135609 127 17458912664536332084
11181472 205 16226321513215337301
11578080 2 13119154554337853236
12011746 2 18335427863515635448
12166972 35 17203610389097372656
12236239 1 16988567879488774688
12516196 113 18273496771021086888
13617811 41 18410011044558896744
13668630 136 18201721751798343503
13692114 37 13973676243607776045
13782708 43 17060060298648424582
13811026 1 18408042931160107283
14040221 8 16733541594917817454
14251764 18 17847065484608813313
150020 25 18334292081347935231
15082195 135 18261965136720849860
15131766 46 16590295244756874324
15183329 4 18410853244784925809
15198563 99 18261395477627917533
15247644 1 16487259850977459278
15461852 350 16443068335705681019
15849732 13 18342737429754746639
16728433 281 17388240262329925093
20028762 73 17989486290538016918
2026 5 17058667166309442846
21150785 3 18259985985419333981
21267235 1 18272656749012382993
221357 26 18342179938900151312
22956985 138 15911104659447345884
23522609 53 17771942439316185456
23559900 14 18337956787314692072
23576562 1 17895760737664164431
249057 3 18412823620955851055
3004659 81 18335419071532899313
3009799 131 18040435486420964377
335352 9 18341617023332569404
3633792 109 18411420588089185217
45266715 3 18260552186278825442
484989 97 18263087764126025907
59755656 215 18334296448585915626
6009941 240 16732988643479508427
6081469 158 17894629219249294102

> <PUBCHEM_SHAPE_MULTIPOLES>
661.52
24.26
2.07
1.52
39.33
0.03
0
-3.76
12.01
-1.42
-0.06
0.04
-0.08
1.04

> <PUBCHEM_SHAPE_SELFOVERLAP>
1391.531

> <PUBCHEM_SHAPE_VOLUME>
372

> <PUBCHEM_COORDINATE_TYPE>
2
5
10

$$$$
