20055990
  -OEChem-09122003543D

 82 85  0     1  0  0  0  0  0999 V2000
   -2.5757   -2.8035    1.2106 O   0  0  0  0  0  0  0  0  0  0  0  0
   -6.9895    2.9208   -0.3754 O   0  0  0  0  0  0  0  0  0  0  0  0
   -1.0821   -4.1549   -0.6296 O   0  0  0  0  0  0  0  0  0  0  0  0
    3.0639   -2.2700    1.3815 O   0  0  0  0  0  0  0  0  0  0  0  0
   -0.4591    2.2867   -0.4705 O   0  0  0  0  0  0  0  0  0  0  0  0
    5.4694   -1.0871    1.4827 O   0  0  0  0  0  0  0  0  0  0  0  0
    5.7578    4.2070   -0.9244 O   0  0  0  0  0  0  0  0  0  0  0  0
    7.6329    2.9895   -0.5339 O   0  0  0  0  0  0  0  0  0  0  0  0
    0.7020   -1.1554   -0.1518 C   0  0  1  0  0  0  0  0  0  0  0  0
   -0.5784   -1.7538   -0.8115 C   0  0  2  0  0  0  0  0  0  0  0  0
   -3.0723    1.1036    0.2968 C   0  0  1  0  0  0  0  0  0  0  0  0
   -4.3395    0.2079   -0.0121 C   0  0  2  0  0  0  0  0  0  0  0  0
    1.8285   -2.0835   -0.6770 C   0  0  2  0  0  0  0  0  0  0  0  0
   -1.7864   -1.0495   -0.2207 C   0  0  0  0  0  0  0  0  0  0  0  0
   -1.8006    0.3090   -0.1254 C   0  0  0  0  0  0  0  0  0  0  0  0
   -5.7576    0.8696    0.1577 C   0  0  0  0  0  0  0  0  0  0  0  0
    0.8167    0.2993   -0.5873 C   0  0  0  0  0  0  0  0  0  0  0  0
   -4.1956   -1.1473    0.6859 C   0  0  0  0  0  0  0  0  0  0  0  0
   -2.9698   -1.9043    0.1728 C   0  0  2  0  0  0  0  0  0  0  0  0
    1.2334   -3.4930   -0.5110 C   0  0  0  0  0  0  0  0  0  0  0  0
   -3.2570    2.4331   -0.4880 C   0  0  0  0  0  0  0  0  0  0  0  0
   -0.2624   -3.2454   -0.6182 C   0  0  0  0  0  0  0  0  0  0  0  0
   -5.7733    2.2146   -0.6171 C   0  0  2  0  0  0  0  0  0  0  0  0
   -0.4962    1.0581   -0.3997 C   0  0  0  0  0  0  0  0  0  0  0  0
    3.1910   -1.9496   -0.0074 C   0  0  1  0  0  0  0  0  0  0  0  0
    0.6661   -1.1980    1.4119 C   0  0  0  0  0  0  0  0  0  0  0  0
   -4.6018    3.1182   -0.2640 C   0  0  0  0  0  0  0  0  0  0  0  0
   -0.6886   -1.6110   -2.3567 C   0  0  0  0  0  0  0  0  0  0  0  0
   -2.8605    1.4307    1.7926 C   0  0  0  0  0  0  0  0  0  0  0  0
   -6.8377   -0.0409   -0.4947 C   0  0  0  0  0  0  0  0  0  0  0  0
   -6.1980    1.0576    1.6246 C   0  0  0  0  0  0  0  0  0  0  0  0
    3.7676   -0.5278   -0.1248 C   0  0  0  0  0  0  0  0  0  0  0  0
    4.1827   -2.9483   -0.6187 C   0  0  0  0  0  0  0  0  0  0  0  0
    5.1282   -0.3748    0.5379 C   0  0  0  0  0  0  0  0  0  0  0  0
    6.0604    0.6833   -0.0180 C   0  0  0  0  0  0  0  0  0  0  0  0
    5.4718    2.0873    0.1398 C   0  0  1  0  0  0  0  0  0  0  0  0
    5.1926    2.4105    1.6079 C   0  0  0  0  0  0  0  0  0  0  0  0
    6.4170    3.1111   -0.4649 C   0  0  0  0  0  0  0  0  0  0  0  0
   -4.2789   -0.0087   -1.0933 H   0  0  0  0  0  0  0  0  0  0  0  0
    1.9721   -1.8923   -1.7494 H   0  0  0  0  0  0  0  0  0  0  0  0
    1.5213    0.8683    0.0172 H   0  0  0  0  0  0  0  0  0  0  0  0
    1.1146    0.3924   -1.6371 H   0  0  0  0  0  0  0  0  0  0  0  0
   -4.1491   -1.0312    1.7747 H   0  0  0  0  0  0  0  0  0  0  0  0
   -5.0666   -1.7877    0.5123 H   0  0  0  0  0  0  0  0  0  0  0  0
   -3.2660   -2.5002   -0.6995 H   0  0  0  0  0  0  0  0  0  0  0  0
    1.5529   -4.1555   -1.3204 H   0  0  0  0  0  0  0  0  0  0  0  0
    1.4407   -3.9529    0.4588 H   0  0  0  0  0  0  0  0  0  0  0  0
   -2.5009    3.1698   -0.2000 H   0  0  0  0  0  0  0  0  0  0  0  0
   -3.1285    2.2471   -1.5627 H   0  0  0  0  0  0  0  0  0  0  0  0
   -5.7390    2.0126   -1.6953 H   0  0  0  0  0  0  0  0  0  0  0  0
    0.6400   -2.2164    1.8115 H   0  0  0  0  0  0  0  0  0  0  0  0
    1.5011   -0.6510    1.8601 H   0  0  0  0  0  0  0  0  0  0  0  0
   -0.2223   -0.7048    1.8198 H   0  0  0  0  0  0  0  0  0  0  0  0
   -4.6519    4.0247   -0.8813 H   0  0  0  0  0  0  0  0  0  0  0  0
   -4.6850    3.4800    0.7671 H   0  0  0  0  0  0  0  0  0  0  0  0
   -1.6054   -2.0958   -2.7176 H   0  0  0  0  0  0  0  0  0  0  0  0
    0.1368   -2.0937   -2.8903 H   0  0  0  0  0  0  0  0  0  0  0  0
   -0.7284   -0.5690   -2.6901 H   0  0  0  0  0  0  0  0  0  0  0  0
   -2.7649    0.5310    2.4087 H   0  0  0  0  0  0  0  0  0  0  0  0
   -3.6586    2.0389    2.2152 H   0  0  0  0  0  0  0  0  0  0  0  0
   -1.9383    2.0071    1.9399 H   0  0  0  0  0  0  0  0  0  0  0  0
   -6.5649   -0.3075   -1.5219 H   0  0  0  0  0  0  0  0  0  0  0  0
   -6.9870   -0.9686    0.0665 H   0  0  0  0  0  0  0  0  0  0  0  0
   -7.8122    0.4596   -0.5353 H   0  0  0  0  0  0  0  0  0  0  0  0
   -6.0569    0.1452    2.2116 H   0  0  0  0  0  0  0  0  0  0  0  0
   -5.6720    1.8687    2.1274 H   0  0  0  0  0  0  0  0  0  0  0  0
   -7.2654    1.3027    1.6886 H   0  0  0  0  0  0  0  0  0  0  0  0
    3.1800    0.1821    0.4488 H   0  0  0  0  0  0  0  0  0  0  0  0
    3.8327   -0.2165   -1.1721 H   0  0  0  0  0  0  0  0  0  0  0  0
    4.3235   -2.7652   -1.6893 H   0  0  0  0  0  0  0  0  0  0  0  0
    5.1660   -2.9243   -0.1395 H   0  0  0  0  0  0  0  0  0  0  0  0
    3.8390   -3.9808   -0.4904 H   0  0  0  0  0  0  0  0  0  0  0  0
   -3.3231   -3.4024    1.3789 H   0  0  0  0  0  0  0  0  0  0  0  0
   -6.9554    3.2950    0.5209 H   0  0  0  0  0  0  0  0  0  0  0  0
    3.9519   -2.3461    1.7681 H   0  0  0  0  0  0  0  0  0  0  0  0
    7.0216    0.6010    0.5048 H   0  0  0  0  0  0  0  0  0  0  0  0
    6.2544    0.4515   -1.0718 H   0  0  0  0  0  0  0  0  0  0  0  0
    4.5308    2.1419   -0.4222 H   0  0  0  0  0  0  0  0  0  0  0  0
    4.4239    1.7569    2.0309 H   0  0  0  0  0  0  0  0  0  0  0  0
    6.1007    2.3120    2.2130 H   0  0  0  0  0  0  0  0  0  0  0  0
    4.8425    3.4432    1.7148 H   0  0  0  0  0  0  0  0  0  0  0  0
    6.3719    4.8676   -1.3100 H   0  0  0  0  0  0  0  0  0  0  0  0
  1 19  1  0  0  0  0
  1 73  1  0  0  0  0
  2 23  1  0  0  0  0
  2 74  1  0  0  0  0
  3 22  2  0  0  0  0
  4 25  1  0  0  0  0
  4 75  1  0  0  0  0
  5 24  2  0  0  0  0
  6 34  2  0  0  0  0
  7 38  1  0  0  0  0
  7 82  1  0  0  0  0
  8 38  2  0  0  0  0
  9 10  1  0  0  0  0
  9 13  1  0  0  0  0
  9 17  1  0  0  0  0
  9 26  1  0  0  0  0
 10 14  1  0  0  0  0
 10 22  1  0  0  0  0
 10 28  1  0  0  0  0
 11 12  1  0  0  0  0
 11 15  1  0  0  0  0
 11 21  1  0  0  0  0
 11 29  1  0  0  0  0
 12 16  1  0  0  0  0
 12 18  1  0  0  0  0
 12 39  1  0  0  0  0
 13 20  1  0  0  0  0
 13 25  1  0  0  0  0
 13 40  1  0  0  0  0
 14 15  2  0  0  0  0
 14 19  1  0  0  0  0
 15 24  1  0  0  0  0
 16 23  1  0  0  0  0
 16 30  1  0  0  0  0
 16 31  1  0  0  0  0
 17 24  1  0  0  0  0
 17 41  1  0  0  0  0
 17 42  1  0  0  0  0
 18 19  1  0  0  0  0
 18 43  1  0  0  0  0
 18 44  1  0  0  0  0
 19 45  1  0  0  0  0
 20 22  1  0  0  0  0
 20 46  1  0  0  0  0
 20 47  1  0  0  0  0
 21 27  1  0  0  0  0
 21 48  1  0  0  0  0
 21 49  1  0  0  0  0
 23 27  1  0  0  0  0
 23 50  1  0  0  0  0
 25 32  1  0  0  0  0
 25 33  1  0  0  0  0
 26 51  1  0  0  0  0
 26 52  1  0  0  0  0
 26 53  1  0  0  0  0
 27 54  1  0  0  0  0
 27 55  1  0  0  0  0
 28 56  1  0  0  0  0
 28 57  1  0  0  0  0
 28 58  1  0  0  0  0
 29 59  1  0  0  0  0
 29 60  1  0  0  0  0
 29 61  1  0  0  0  0
 30 62  1  0  0  0  0
 30 63  1  0  0  0  0
 30 64  1  0  0  0  0
 31 65  1  0  0  0  0
 31 66  1  0  0  0  0
 31 67  1  0  0  0  0
 32 34  1  0  0  0  0
 32 68  1  0  0  0  0
 32 69  1  0  0  0  0
 33 70  1  0  0  0  0
 33 71  1  0  0  0  0
 33 72  1  0  0  0  0
 34 35  1  0  0  0  0
 35 36  1  0  0  0  0
 35 76  1  0  0  0  0
 35 77  1  0  0  0  0
 36 37  1  0  0  0  0
 36 38  1  0  0  0  0
 36 78  1  0  0  0  0
 37 79  1  0  0  0  0
 37 80  1  0  0  0  0
 37 81  1  0  0  0  0
M  END
> <PUBCHEM_COMPOUND_CID>
20055990

> <PUBCHEM_CONFORMER_RMSD>
1

> <PUBCHEM_CONFORMER_DIVERSEORDER>
2
17
23
31
30
10
16
19
34
36
12
4
7
22
5
3
20
1
21
6
26
9
32
13
28
15
37
11
18
25
14
33
8
24
35
29
27

> <PUBCHEM_MMFF94_PARTIAL_CHARGES>
28
1 -0.68
10 0.2
11 0.14
14 -0.28
15 -0.12
17 0.06
19 0.42
2 -0.68
20 0.06
22 0.45
23 0.28
24 0.49
25 0.28
3 -0.57
32 0.06
34 0.45
35 0.06
36 0.06
38 0.66
4 -0.68
5 -0.57
6 -0.57
7 -0.65
73 0.4
74 0.4
75 0.4
8 -0.57
82 0.5

> <PUBCHEM_EFFECTIVE_ROTOR_COUNT>
7.8

> <PUBCHEM_PHARMACOPHORE_FEATURES>
18
1 1 acceptor
1 1 donor
1 2 acceptor
1 2 donor
1 3 acceptor
1 37 hydrophobe
1 4 acceptor
1 4 donor
1 5 acceptor
1 6 acceptor
1 7 acceptor
1 8 acceptor
3 16 30 31 hydrophobe
3 7 8 38 anion
5 9 10 13 20 22 rings
6 11 12 14 15 18 19 rings
6 11 12 16 21 23 27 rings
6 9 10 14 15 17 24 rings

> <PUBCHEM_HEAVY_ATOM_COUNT>
38

> <PUBCHEM_ATOM_DEF_STEREO_COUNT>
7

> <PUBCHEM_ATOM_UDEF_STEREO_COUNT>
2

> <PUBCHEM_BOND_DEF_STEREO_COUNT>
0

> <PUBCHEM_BOND_UDEF_STEREO_COUNT>
0

> <PUBCHEM_ISOTOPIC_ATOM_COUNT>
0

> <PUBCHEM_COMPONENT_COUNT>
1

> <PUBCHEM_CACTVS_TAUTO_COUNT>
12

> <PUBCHEM_CONFORMER_ID>
013207B600000002

> <PUBCHEM_MMFF94_ENERGY>
144.7238

> <PUBCHEM_FEATURE_SELFOVERLAP>
91.515

> <PUBCHEM_SHAPE_FINGERPRINT>
10 15 18259990353232197761
10050765 1 18411419536081472566
10280341 67 18128526267171066144
10673678 19 18341896273152353524
10693767 8 7925333066852750369
10864689 126 18271807960749750880
10906281 52 18059586745852200587
12422481 6 18040150704230018900
12925494 130 18340480166600736000
13911987 19 17418096511905395471
14394314 77 18410860992363596061
1454969 45 18342170090386953143
14790565 3 18411981343092512214
14840074 17 18333730247358517196
15198563 99 17407958156216292662
15510800 12 11530747186306883552
15575132 122 18341615974896422718
15840311 113 18334579027126505221
18393751 57 18408046200047256227
19053607 189 18340475678149090840
20511986 3 17531520972170778179
20691028 202 18412259575712357796
208703 8 9367077636097830380
21033648 29 18201422671566408498
21315764 268 18262514767510453630
21859007 373 17387402446673530869
21987483 16 18186803586971442843
23522609 53 17560254522334764665
23559900 14 17907581328754555911
23569943 247 9007065660369709445
249057 3 18201438027018964238
27425 322 18113052749141981954
3411729 13 18408039602792496208
34797466 226 18131076999836688975
350125 39 18413107294639422977
397830 11 18187939395040315179
4169191 19 18410856560109911709
5104073 3 18047197345820024547
5109719 28 18410583876725307073
5265222 85 18050574238066400068
550186 72 18339077202627444709
6036956 94 17180534097153262812
6201320 77 12678058050190355861
7288768 16 18041839627389771154
7808743 9 18340484586406647186
86090 222 15358819977743194266

> <PUBCHEM_SHAPE_MULTIPOLES>
735.07
17.32
4.88
1.33
6.39
0.22
0.21
18.98
1.19
4.3
-1.04
-0.02
-0.1
-0.3

> <PUBCHEM_SHAPE_SELFOVERLAP>
1567.973

> <PUBCHEM_SHAPE_VOLUME>
405.9

> <PUBCHEM_COORDINATE_TYPE>
2
5
10

$$$$
