122201289
  -OEChem-09122004343D

 80 83  0     1  0  0  0  0  0999 V2000
    0.0838    3.7357    1.0937 O   0  0  0  0  0  0  0  0  0  0  0  0
    1.5906   -1.7551   -2.2241 O   0  0  0  0  0  0  0  0  0  0  0  0
    7.7109   -0.7248   -0.6975 O   0  0  0  0  0  0  0  0  0  0  0  0
   -6.7941    2.0151   -0.4272 O   0  0  0  0  0  0  0  0  0  0  0  0
   -6.2395   -3.4736    1.2491 O   0  0  0  0  0  0  0  0  0  0  0  0
   -6.8663   -1.7546    2.5931 O   0  0  0  0  0  0  0  0  0  0  0  0
   -0.6513    0.5106   -0.5054 C   0  0  1  0  0  0  0  0  0  0  0  0
    0.4192    1.5910   -0.1454 C   0  0  1  0  0  0  0  0  0  0  0  0
   -1.9093    1.3816   -0.7387 C   0  0  2  0  0  0  0  0  0  0  0  0
   -0.3751    2.4047    0.9154 C   0  0  2  0  0  0  0  0  0  0  0  0
    1.7164    0.8752    0.2319 C   0  0  0  0  0  0  0  0  0  0  0  0
    3.5200   -0.9058   -0.1504 C   0  0  2  0  0  0  0  0  0  0  0  0
   -1.8264    2.4414    0.3820 C   0  0  0  0  0  0  0  0  0  0  0  0
   -0.1719   -0.2635   -1.7246 C   0  0  0  0  0  0  0  0  0  0  0  0
    2.1534   -0.2171   -0.4525 C   0  0  0  0  0  0  0  0  0  0  0  0
    4.4547    0.1212    0.6059 C   0  0  1  0  0  0  0  0  0  0  0  0
    2.5008    1.4908    1.3664 C   0  0  0  0  0  0  0  0  0  0  0  0
   -3.2520    0.6614   -0.7718 C   0  0  1  0  0  0  0  0  0  0  0  0
   -0.9284   -0.5150    0.6427 C   0  0  0  0  0  0  0  0  0  0  0  0
    0.8139    2.5524   -1.3110 C   0  0  0  0  0  0  0  0  0  0  0  0
    3.7198    0.6967    1.8219 C   0  0  0  0  0  0  0  0  0  0  0  0
    1.2332   -0.8148   -1.5145 C   0  0  0  0  0  0  0  0  0  0  0  0
    5.9312   -0.3121    0.9043 C   0  0  0  0  0  0  0  0  0  0  0  0
    4.2993   -1.3150   -1.4317 C   0  0  0  0  0  0  0  0  0  0  0  0
    3.1615   -2.1686    0.6651 C   0  0  0  0  0  0  0  0  0  0  0  0
    5.6893   -1.8758   -1.1611 C   0  0  0  0  0  0  0  0  0  0  0  0
   -4.4402    1.6162   -0.5338 C   0  0  0  0  0  0  0  0  0  0  0  0
    6.5392   -0.9191   -0.3673 C   0  0  0  0  0  0  0  0  0  0  0  0
   -3.4300   -0.0454   -2.1204 C   0  0  0  0  0  0  0  0  0  0  0  0
    6.1031   -1.3153    2.0534 C   0  0  0  0  0  0  0  0  0  0  0  0
    6.7711    0.9423    1.2651 C   0  0  0  0  0  0  0  0  0  0  0  0
   -5.8333    0.9736   -0.6274 C   0  0  1  0  0  0  0  0  0  0  0  0
   -6.0536   -0.0743    0.4320 C   0  0  0  0  0  0  0  0  0  0  0  0
   -6.4079   -1.3609    0.2519 C   0  0  0  0  0  0  0  0  0  0  0  0
   -6.6923   -2.0232   -1.0635 C   0  0  0  0  0  0  0  0  0  0  0  0
   -6.5396   -2.1760    1.4943 C   0  0  0  0  0  0  0  0  0  0  0  0
   -1.8038    1.9165   -1.6925 H   0  0  0  0  0  0  0  0  0  0  0  0
   -0.3506    1.9126    1.8942 H   0  0  0  0  0  0  0  0  0  0  0  0
   -2.1104    3.4322    0.0093 H   0  0  0  0  0  0  0  0  0  0  0  0
   -2.4768    2.2075    1.2314 H   0  0  0  0  0  0  0  0  0  0  0  0
   -0.1766    0.3392   -2.6382 H   0  0  0  0  0  0  0  0  0  0  0  0
   -0.7951   -1.1442   -1.8989 H   0  0  0  0  0  0  0  0  0  0  0  0
    4.5665    0.9645   -0.0991 H   0  0  0  0  0  0  0  0  0  0  0  0
    2.8295    2.4899    1.0533 H   0  0  0  0  0  0  0  0  0  0  0  0
    1.8578    1.6277    2.2423 H   0  0  0  0  0  0  0  0  0  0  0  0
   -3.3061   -0.0952    0.0153 H   0  0  0  0  0  0  0  0  0  0  0  0
   -1.4313   -0.0608    1.5024 H   0  0  0  0  0  0  0  0  0  0  0  0
   -0.0162   -0.9811    1.0261 H   0  0  0  0  0  0  0  0  0  0  0  0
   -1.5615   -1.3386    0.2927 H   0  0  0  0  0  0  0  0  0  0  0  0
   -0.0308    3.1394   -1.6837 H   0  0  0  0  0  0  0  0  0  0  0  0
    1.2456    2.0244   -2.1677 H   0  0  0  0  0  0  0  0  0  0  0  0
    1.5720    3.2737   -0.9803 H   0  0  0  0  0  0  0  0  0  0  0  0
    4.3533    1.3706    2.4056 H   0  0  0  0  0  0  0  0  0  0  0  0
    3.4131   -0.0973    2.5109 H   0  0  0  0  0  0  0  0  0  0  0  0
    4.3850   -0.4458   -2.0979 H   0  0  0  0  0  0  0  0  0  0  0  0
    3.7742   -2.0917   -1.9930 H   0  0  0  0  0  0  0  0  0  0  0  0
    2.6562   -1.9274    1.6057 H   0  0  0  0  0  0  0  0  0  0  0  0
    4.0244   -2.7875    0.9031 H   0  0  0  0  0  0  0  0  0  0  0  0
    2.4802   -2.8198    0.1034 H   0  0  0  0  0  0  0  0  0  0  0  0
    6.1872   -2.0634   -2.1198 H   0  0  0  0  0  0  0  0  0  0  0  0
    5.6482   -2.8313   -0.6301 H   0  0  0  0  0  0  0  0  0  0  0  0
   -4.3890    2.4414   -1.2581 H   0  0  0  0  0  0  0  0  0  0  0  0
   -4.3740    2.0983    0.4481 H   0  0  0  0  0  0  0  0  0  0  0  0
   -0.5079    4.1659    1.7343 H   0  0  0  0  0  0  0  0  0  0  0  0
   -3.4047    0.6680   -2.9513 H   0  0  0  0  0  0  0  0  0  0  0  0
   -4.3745   -0.5897   -2.1802 H   0  0  0  0  0  0  0  0  0  0  0  0
   -2.6742   -0.8042   -2.3019 H   0  0  0  0  0  0  0  0  0  0  0  0
    5.5851   -0.9908    2.9608 H   0  0  0  0  0  0  0  0  0  0  0  0
    5.7622   -2.3194    1.8004 H   0  0  0  0  0  0  0  0  0  0  0  0
    7.8356    0.6982    1.3672 H   0  0  0  0  0  0  0  0  0  0  0  0
    7.1641   -1.4280    2.3107 H   0  0  0  0  0  0  0  0  0  0  0  0
    6.6932    1.7097    0.4863 H   0  0  0  0  0  0  0  0  0  0  0  0
    6.4631    1.3871    2.2158 H   0  0  0  0  0  0  0  0  0  0  0  0
   -6.0178    0.5959   -1.6337 H   0  0  0  0  0  0  0  0  0  0  0  0
   -5.8871    0.2852    1.4477 H   0  0  0  0  0  0  0  0  0  0  0  0
   -6.6733    2.6679   -1.1378 H   0  0  0  0  0  0  0  0  0  0  0  0
   -5.8437   -2.6437   -1.3685 H   0  0  0  0  0  0  0  0  0  0  0  0
   -7.5769   -2.6647   -0.9830 H   0  0  0  0  0  0  0  0  0  0  0  0
   -6.9014   -1.3106   -1.8647 H   0  0  0  0  0  0  0  0  0  0  0  0
   -6.3183   -4.0273    2.0551 H   0  0  0  0  0  0  0  0  0  0  0  0
  1 10  1  0  0  0  0
  1 64  1  0  0  0  0
  2 22  2  0  0  0  0
  3 28  2  0  0  0  0
  4 32  1  0  0  0  0
  4 76  1  0  0  0  0
  5 36  1  0  0  0  0
  5 80  1  0  0  0  0
  6 36  2  0  0  0  0
  7  8  1  0  0  0  0
  7  9  1  0  0  0  0
  7 14  1  0  0  0  0
  7 19  1  0  0  0  0
  8 10  1  0  0  0  0
  8 11  1  0  0  0  0
  8 20  1  0  0  0  0
  9 13  1  0  0  0  0
  9 18  1  0  0  0  0
  9 37  1  0  0  0  0
 10 13  1  0  0  0  0
 10 38  1  0  0  0  0
 11 15  2  0  0  0  0
 11 17  1  0  0  0  0
 12 15  1  0  0  0  0
 12 16  1  0  0  0  0
 12 24  1  0  0  0  0
 12 25  1  0  0  0  0
 13 39  1  0  0  0  0
 13 40  1  0  0  0  0
 14 22  1  0  0  0  0
 14 41  1  0  0  0  0
 14 42  1  0  0  0  0
 15 22  1  0  0  0  0
 16 21  1  0  0  0  0
 16 23  1  0  0  0  0
 16 43  1  0  0  0  0
 17 21  1  0  0  0  0
 17 44  1  0  0  0  0
 17 45  1  0  0  0  0
 18 27  1  0  0  0  0
 18 29  1  0  0  0  0
 18 46  1  0  0  0  0
 19 47  1  0  0  0  0
 19 48  1  0  0  0  0
 19 49  1  0  0  0  0
 20 50  1  0  0  0  0
 20 51  1  0  0  0  0
 20 52  1  0  0  0  0
 21 53  1  0  0  0  0
 21 54  1  0  0  0  0
 23 28  1  0  0  0  0
 23 30  1  0  0  0  0
 23 31  1  0  0  0  0
 24 26  1  0  0  0  0
 24 55  1  0  0  0  0
 24 56  1  0  0  0  0
 25 57  1  0  0  0  0
 25 58  1  0  0  0  0
 25 59  1  0  0  0  0
 26 28  1  0  0  0  0
 26 60  1  0  0  0  0
 26 61  1  0  0  0  0
 27 32  1  0  0  0  0
 27 62  1  0  0  0  0
 27 63  1  0  0  0  0
 29 65  1  0  0  0  0
 29 66  1  0  0  0  0
 29 67  1  0  0  0  0
 30 68  1  0  0  0  0
 30 69  1  0  0  0  0
 30 71  1  0  0  0  0
 31 70  1  0  0  0  0
 31 72  1  0  0  0  0
 31 73  1  0  0  0  0
 32 33  1  0  0  0  0
 32 74  1  0  0  0  0
 33 34  2  0  0  0  0
 33 75  1  0  0  0  0
 34 35  1  0  0  0  0
 34 36  1  0  0  0  0
 35 77  1  0  0  0  0
 35 78  1  0  0  0  0
 35 79  1  0  0  0  0
M  END
> <PUBCHEM_COMPOUND_CID>
122201289

> <PUBCHEM_CONFORMER_RMSD>
1

> <PUBCHEM_CONFORMER_DIVERSEORDER>
1
2
5
13
3
4
6
11
18
17
7
15
9
12
19
8
10
14
16

> <PUBCHEM_MMFF94_PARTIAL_CHARGES>
26
1 -0.68
10 0.28
11 -0.28
12 0.14
14 0.06
15 -0.12
17 0.14
2 -0.57
22 0.49
23 0.06
26 0.06
28 0.45
3 -0.57
32 0.42
33 -0.29
34 -0.12
35 0.14
36 0.71
4 -0.68
5 -0.65
6 -0.57
64 0.4
75 0.15
76 0.4
8 0.14
80 0.5

> <PUBCHEM_EFFECTIVE_ROTOR_COUNT>
6.8

> <PUBCHEM_PHARMACOPHORE_FEATURES>
16
1 1 acceptor
1 1 donor
1 2 acceptor
1 29 hydrophobe
1 3 acceptor
1 35 hydrophobe
1 4 acceptor
1 4 donor
1 5 acceptor
1 6 acceptor
3 23 30 31 hydrophobe
3 5 6 36 anion
5 7 8 9 10 13 rings
6 11 12 15 16 17 21 rings
6 12 16 23 24 26 28 rings
6 7 8 11 14 15 22 rings

> <PUBCHEM_HEAVY_ATOM_COUNT>
36

> <PUBCHEM_ATOM_DEF_STEREO_COUNT>
8

> <PUBCHEM_ATOM_UDEF_STEREO_COUNT>
0

> <PUBCHEM_BOND_DEF_STEREO_COUNT>
1

> <PUBCHEM_BOND_UDEF_STEREO_COUNT>
0

> <PUBCHEM_ISOTOPIC_ATOM_COUNT>
0

> <PUBCHEM_COMPONENT_COUNT>
1

> <PUBCHEM_CACTVS_TAUTO_COUNT>
10

> <PUBCHEM_CONFORMER_ID>
0748A4C900000001

> <PUBCHEM_MMFF94_ENERGY>
134.5967

> <PUBCHEM_FEATURE_SELFOVERLAP>
81.35

> <PUBCHEM_SHAPE_FINGERPRINT>
10076449 9 18271813428052376422
10674148 151 13326854449078572258
11115154 58 16008744698156166501
11135609 12 18410856606894992350
11456790 92 16916779640457713978
11578080 2 16444215147223290780
117089 54 18116160046765636595
11796584 16 18040709230788981537
11963148 33 18187076235368710986
12035758 1 18202559596654182362
12166972 35 17966971625406250524
12236239 1 16226328101974783108
12422481 6 17775286071502800613
12522641 126 18118401980269218893
13165053 68 17534076434598675630
13782708 43 17967529099513304139
13811026 1 18343012294866615013
13914758 101 11600007656653605476
13947930 73 18189625011117863059
14068700 675 17968099737194675149
14849402 71 16772943847691973496
14856354 85 18040436560674654173
14955137 171 18272930535834837413
15021287 119 18060134380094812077
15131766 46 12029207561597043034
15183329 4 14345792769000715763
15352257 5 18187080637862546323
15448158 91 18266739259474493007
15510800 12 18262801891240103195
18608769 82 18408041814220846219
19611394 137 18341335569102857554
20105231 36 17917997170551365574
21267235 1 17775283808492833428
21623969 137 18131069337831420919
21781051 124 18271535260169166958
21792965 25 13469031085831823634
22122407 14 13686003371506978435
22149856 69 18059868241681574072
2260408 40 16701758080849792439
23569914 152 11317626661008106745
25222932 49 18336254712896779835
2747138 104 18272371958247385264
2838139 119 10591753282169684659
3178227 256 17988924487682968560
3383291 50 18260831548822651731
350125 39 17703779306989494416
392239 28 16630524059812937337
397830 11 18338794623548376057
404807 78 17895485812101922642
4073 2 18411983525363237833
4340502 62 18114174191104827402
439807 62 17822017540856433787
4461854 278 17988368164590837935
49967989 163 17386872606254073363
5104073 3 17844809187521257817
5381727 24 18040996238406386074
6009941 240 18337670816124355053
6086070 43 8070028835706440221
8863177 126 18336830896335127435
999808 66 18411985762993992719

> <PUBCHEM_SHAPE_MULTIPOLES>
705.65
20.22
3.01
1.93
10.43
0.53
-0.19
-12.75
-5.82
3.28
-0.75
0.19
-0.76
2.83

> <PUBCHEM_SHAPE_SELFOVERLAP>
1495.194

> <PUBCHEM_SHAPE_VOLUME>
389.6

> <PUBCHEM_COORDINATE_TYPE>
2
5
10

$$$$
