73294
  -OEChem-09122006213D

 81 84  0     1  0  0  0  0  0999 V2000
    7.0875   -1.6091    1.6365 O   0  0  0  0  0  0  0  0  0  0  0  0
   -7.3185    0.8949    0.0641 O   0  0  0  0  0  0  0  0  0  0  0  0
   -8.4463   -1.5945    0.2121 O   0  0  0  0  0  0  0  0  0  0  0  0
   -0.6658    0.9630   -0.1843 C   0  0  1  0  0  0  0  0  0  0  0  0
    0.0229   -0.2228   -0.9386 C   0  0  1  0  0  0  0  0  0  0  0  0
   -2.1614    0.6800   -0.4591 C   0  0  2  0  0  0  0  0  0  0  0  0
   -0.7179   -0.1698   -2.2926 C   0  0  0  0  0  0  0  0  0  0  0  0
   -2.1719    0.2133   -1.9351 C   0  0  0  0  0  0  0  0  0  0  0  0
    1.5389   -0.0535   -0.8887 C   0  0  0  0  0  0  0  0  0  0  0  0
    3.6511    0.5280    0.5148 C   0  0  2  0  0  0  0  0  0  0  0  0
   -0.2387    0.9186    1.2909 C   0  0  0  0  0  0  0  0  0  0  0  0
    2.0994    0.4212    0.4037 C   0  0  0  0  0  0  0  0  0  0  0  0
    4.3091   -0.5631   -0.4097 C   0  0  2  0  0  0  0  0  0  0  0  0
   -3.1384    1.8187   -0.1934 C   0  0  1  0  0  0  0  0  0  0  0  0
   -0.2838    2.3667   -0.7626 C   0  0  0  0  0  0  0  0  0  0  0  0
   -0.2530   -1.6378   -0.3349 C   0  0  0  0  0  0  0  0  0  0  0  0
    1.2679    0.8125    1.4015 C   0  0  0  0  0  0  0  0  0  0  0  0
    5.8588   -0.7787   -0.2898 C   0  0  0  0  0  0  0  0  0  0  0  0
    3.8215   -0.4030   -1.8655 C   0  0  0  0  0  0  0  0  0  0  0  0
    2.3264   -0.3652   -1.9325 C   0  0  0  0  0  0  0  0  0  0  0  0
    4.1470    0.2777    1.9656 C   0  0  0  0  0  0  0  0  0  0  0  0
    3.9862    1.9840    0.1087 C   0  0  0  0  0  0  0  0  0  0  0  0
   -4.5711    1.3851   -0.5680 C   0  0  0  0  0  0  0  0  0  0  0  0
    5.6609    0.2316    2.0993 C   0  0  0  0  0  0  0  0  0  0  0  0
    6.2525   -0.8177    1.1941 C   0  0  0  0  0  0  0  0  0  0  0  0
   -3.0341    2.2677    1.2673 C   0  0  0  0  0  0  0  0  0  0  0  0
    6.7280    0.2783   -0.9870 C   0  0  0  0  0  0  0  0  0  0  0  0
    6.2327   -2.1496   -0.9111 C   0  0  0  0  0  0  0  0  0  0  0  0
   -5.0457    0.1239    0.1707 C   0  0  0  0  0  0  0  0  0  0  0  0
   -6.4925   -0.2454   -0.1934 C   0  0  1  0  0  0  0  0  0  0  0  0
   -7.0602   -1.4703    0.5667 C   0  0  0  0  0  0  0  0  0  0  0  0
   -7.0180   -1.3069    2.0887 C   0  0  0  0  0  0  0  0  0  0  0  0
   -6.3732   -2.7778    0.1617 C   0  0  0  0  0  0  0  0  0  0  0  0
   -2.4403   -0.1675    0.1764 H   0  0  0  0  0  0  0  0  0  0  0  0
   -0.6852   -1.1196   -2.8382 H   0  0  0  0  0  0  0  0  0  0  0  0
   -0.2888    0.5906   -2.9561 H   0  0  0  0  0  0  0  0  0  0  0  0
   -2.5141    0.9957   -2.6217 H   0  0  0  0  0  0  0  0  0  0  0  0
   -2.8377   -0.6480   -2.0593 H   0  0  0  0  0  0  0  0  0  0  0  0
   -0.6997    0.0855    1.8327 H   0  0  0  0  0  0  0  0  0  0  0  0
   -0.5194    1.8317    1.8205 H   0  0  0  0  0  0  0  0  0  0  0  0
    3.8777   -1.5161   -0.0536 H   0  0  0  0  0  0  0  0  0  0  0  0
   -2.9094    2.6844   -0.8270 H   0  0  0  0  0  0  0  0  0  0  0  0
   -0.6805    3.1807   -0.1485 H   0  0  0  0  0  0  0  0  0  0  0  0
    0.7973    2.5264   -0.8116 H   0  0  0  0  0  0  0  0  0  0  0  0
   -0.6650    2.5184   -1.7775 H   0  0  0  0  0  0  0  0  0  0  0  0
    0.2460   -2.4107   -0.9342 H   0  0  0  0  0  0  0  0  0  0  0  0
    0.1198   -1.7452    0.6889 H   0  0  0  0  0  0  0  0  0  0  0  0
   -1.3147   -1.9019   -0.3231 H   0  0  0  0  0  0  0  0  0  0  0  0
    1.6684    1.1617    2.3477 H   0  0  0  0  0  0  0  0  0  0  0  0
    4.1495   -1.2590   -2.4639 H   0  0  0  0  0  0  0  0  0  0  0  0
    4.2269    0.4939   -2.3439 H   0  0  0  0  0  0  0  0  0  0  0  0
    1.8861   -0.6949   -2.8694 H   0  0  0  0  0  0  0  0  0  0  0  0
    3.7330   -0.6726    2.3305 H   0  0  0  0  0  0  0  0  0  0  0  0
    3.7864    1.0601    2.6440 H   0  0  0  0  0  0  0  0  0  0  0  0
    3.4409    2.6994    0.7379 H   0  0  0  0  0  0  0  0  0  0  0  0
    5.0400    2.2310    0.2274 H   0  0  0  0  0  0  0  0  0  0  0  0
    3.7096    2.2042   -0.9274 H   0  0  0  0  0  0  0  0  0  0  0  0
   -5.2463    2.2215   -0.3480 H   0  0  0  0  0  0  0  0  0  0  0  0
   -4.6472    1.2194   -1.6492 H   0  0  0  0  0  0  0  0  0  0  0  0
    5.9200   -0.0187    3.1347 H   0  0  0  0  0  0  0  0  0  0  0  0
    6.1264    1.1957    1.8767 H   0  0  0  0  0  0  0  0  0  0  0  0
   -2.2028    2.9565    1.4259 H   0  0  0  0  0  0  0  0  0  0  0  0
   -2.9504    1.4257    1.9615 H   0  0  0  0  0  0  0  0  0  0  0  0
   -3.9312    2.8300    1.5528 H   0  0  0  0  0  0  0  0  0  0  0  0
    6.4949    0.3617   -2.0528 H   0  0  0  0  0  0  0  0  0  0  0  0
    6.6417    1.2677   -0.5390 H   0  0  0  0  0  0  0  0  0  0  0  0
    7.7902    0.0130   -0.9109 H   0  0  0  0  0  0  0  0  0  0  0  0
    6.0532   -2.1743   -1.9901 H   0  0  0  0  0  0  0  0  0  0  0  0
    7.2947   -2.3812   -0.7643 H   0  0  0  0  0  0  0  0  0  0  0  0
    5.6614   -2.9635   -0.4501 H   0  0  0  0  0  0  0  0  0  0  0  0
   -4.4103   -0.7323   -0.0666 H   0  0  0  0  0  0  0  0  0  0  0  0
   -4.9756    0.3126    1.2466 H   0  0  0  0  0  0  0  0  0  0  0  0
   -6.5570   -0.4266   -1.2738 H   0  0  0  0  0  0  0  0  0  0  0  0
   -8.2295    0.6537   -0.1758 H   0  0  0  0  0  0  0  0  0  0  0  0
   -5.9949   -1.3014    2.4760 H   0  0  0  0  0  0  0  0  0  0  0  0
   -7.5160   -0.3825    2.4014 H   0  0  0  0  0  0  0  0  0  0  0  0
   -7.5590   -2.1248    2.5794 H   0  0  0  0  0  0  0  0  0  0  0  0
   -6.8857   -3.6398    0.6046 H   0  0  0  0  0  0  0  0  0  0  0  0
   -6.4141   -2.9195   -0.9242 H   0  0  0  0  0  0  0  0  0  0  0  0
   -5.3252   -2.8052    0.4750 H   0  0  0  0  0  0  0  0  0  0  0  0
   -8.4979   -1.7209   -0.7508 H   0  0  0  0  0  0  0  0  0  0  0  0
  1 25  2  0  0  0  0
  2 30  1  0  0  0  0
  2 74  1  0  0  0  0
  3 31  1  0  0  0  0
  3 81  1  0  0  0  0
  4  5  1  0  0  0  0
  4  6  1  0  0  0  0
  4 11  1  0  0  0  0
  4 15  1  0  0  0  0
  5  7  1  0  0  0  0
  5  9  1  0  0  0  0
  5 16  1  0  0  0  0
  6  8  1  0  0  0  0
  6 14  1  0  0  0  0
  6 34  1  0  0  0  0
  7  8  1  0  0  0  0
  7 35  1  0  0  0  0
  7 36  1  0  0  0  0
  8 37  1  0  0  0  0
  8 38  1  0  0  0  0
  9 12  1  0  0  0  0
  9 20  2  0  0  0  0
 10 12  1  0  0  0  0
 10 13  1  0  0  0  0
 10 21  1  0  0  0  0
 10 22  1  0  0  0  0
 11 17  1  0  0  0  0
 11 39  1  0  0  0  0
 11 40  1  0  0  0  0
 12 17  2  0  0  0  0
 13 18  1  0  0  0  0
 13 19  1  0  0  0  0
 13 41  1  0  0  0  0
 14 23  1  0  0  0  0
 14 26  1  0  0  0  0
 14 42  1  0  0  0  0
 15 43  1  0  0  0  0
 15 44  1  0  0  0  0
 15 45  1  0  0  0  0
 16 46  1  0  0  0  0
 16 47  1  0  0  0  0
 16 48  1  0  0  0  0
 17 49  1  0  0  0  0
 18 25  1  0  0  0  0
 18 27  1  0  0  0  0
 18 28  1  0  0  0  0
 19 20  1  0  0  0  0
 19 50  1  0  0  0  0
 19 51  1  0  0  0  0
 20 52  1  0  0  0  0
 21 24  1  0  0  0  0
 21 53  1  0  0  0  0
 21 54  1  0  0  0  0
 22 55  1  0  0  0  0
 22 56  1  0  0  0  0
 22 57  1  0  0  0  0
 23 29  1  0  0  0  0
 23 58  1  0  0  0  0
 23 59  1  0  0  0  0
 24 25  1  0  0  0  0
 24 60  1  0  0  0  0
 24 61  1  0  0  0  0
 26 62  1  0  0  0  0
 26 63  1  0  0  0  0
 26 64  1  0  0  0  0
 27 65  1  0  0  0  0
 27 66  1  0  0  0  0
 27 67  1  0  0  0  0
 28 68  1  0  0  0  0
 28 69  1  0  0  0  0
 28 70  1  0  0  0  0
 29 30  1  0  0  0  0
 29 71  1  0  0  0  0
 29 72  1  0  0  0  0
 30 31  1  0  0  0  0
 30 73  1  0  0  0  0
 31 32  1  0  0  0  0
 31 33  1  0  0  0  0
 32 75  1  0  0  0  0
 32 76  1  0  0  0  0
 32 77  1  0  0  0  0
 33 78  1  0  0  0  0
 33 79  1  0  0  0  0
 33 80  1  0  0  0  0
M  END
> <PUBCHEM_COMPOUND_CID>
73294

> <PUBCHEM_CONFORMER_RMSD>
0.8

> <PUBCHEM_CONFORMER_DIVERSEORDER>
2
11
3
7
4
5
9
6
8
1
10

> <PUBCHEM_MMFF94_PARTIAL_CHARGES>
20
1 -0.57
10 0.14
11 0.14
12 -0.14
17 -0.29
18 0.06
19 0.14
2 -0.68
20 -0.29
24 0.06
25 0.45
3 -0.68
30 0.28
31 0.28
49 0.15
5 0.14
52 0.15
74 0.4
81 0.4
9 -0.14

> <PUBCHEM_EFFECTIVE_ROTOR_COUNT>
6.6

> <PUBCHEM_PHARMACOPHORE_FEATURES>
12
1 1 acceptor
1 2 acceptor
1 2 donor
1 26 hydrophobe
1 3 acceptor
1 3 donor
3 18 27 28 hydrophobe
3 31 32 33 hydrophobe
5 4 5 6 7 8 rings
6 10 13 18 21 24 25 rings
6 4 5 9 11 12 17 rings
6 9 10 12 13 19 20 rings

> <PUBCHEM_HEAVY_ATOM_COUNT>
33

> <PUBCHEM_ATOM_DEF_STEREO_COUNT>
7

> <PUBCHEM_ATOM_UDEF_STEREO_COUNT>
0

> <PUBCHEM_BOND_DEF_STEREO_COUNT>
0

> <PUBCHEM_BOND_UDEF_STEREO_COUNT>
0

> <PUBCHEM_ISOTOPIC_ATOM_COUNT>
0

> <PUBCHEM_COMPONENT_COUNT>
1

> <PUBCHEM_CACTVS_TAUTO_COUNT>
2

> <PUBCHEM_CONFORMER_ID>
00011E4E00000002

> <PUBCHEM_MMFF94_ENERGY>
126.4497

> <PUBCHEM_FEATURE_SELFOVERLAP>
61.001

> <PUBCHEM_SHAPE_FINGERPRINT>
10 15 17917986204613271225
10066227 112 8502652606340703635
10816530 90 10303805488965208674
10906281 52 14692568870608322388
11135609 12 18131068255552331830
11135926 11 18187921743516187695
11456790 92 15626221287117667522
11646440 116 16988841674721107928
11963148 33 18261386750375638755
12011746 2 13118288044754540916
12035758 1 17560795537256883414
12166972 35 17603587434583320109
12236239 1 17386006131219721500
13782708 43 18335420153548302539
13811026 1 18273492382461088065
14028597 1 15339125606585862691
14068700 675 17385441007902377901
14747282 305 17823984420418065891
14849402 71 15410602735851265859
14931854 50 12829484818559996784
14955137 171 18272650173281101801
15082195 135 12613043781632535062
15183329 4 14851602198580357755
15188451 53 18114178644706000623
15198563 99 13262666003315205519
15238133 3 12607399996704129090
15301273 46 18343579621275659769
15352257 5 18408322181344167771
16994733 274 11815894548506496991
18335252 98 18411985775905002014
18608769 82 18343301483082518894
19611394 137 18201719583151251713
20028762 73 16805316682665028074
20105231 36 17418102009695806350
21150785 3 17022625286117791934
21267235 1 17346605145160536788
21315759 40 17894912889075384808
21424621 283 11887957653118938293
21521239 73 15791730806246552312
21623969 137 17489591160263627655
21781051 124 18202010949137061998
21792934 111 17775004553677189233
22122407 14 13901904574549381907
22149856 69 17202783552479985785
22956985 138 17607798401157436514
23522609 53 15984543454791113113
23559900 14 13840280198675181284
23569914 152 12833088996401542523
23569943 247 17611744510304291082
23576562 1 11819575765587906547
24771293 8 15123212369577417864
255183 313 17203324546566209447
2747138 104 18131635586224936225
3178227 256 17561365092949179371
3383291 50 18201717353573257199
3633792 109 14707204405524248157
392239 28 18202288043837629955
397830 11 18270674389482158705
4340502 62 17918273147257475054
474113 269 11675137269680802424
504579 68 15140681379901303827
5104073 3 16558168506439841446
5385378 56 15769782329500260694
563151 248 17632292402262015151
563151 97 13696133044012263629
58083652 198 16702010964361355673
6081469 158 18334852836636410839
6086070 43 17095795538547248581
6328613 192 11240000066361341299
9896288 288 18200596870273893673
999808 66 18201721739055957255

> <PUBCHEM_SHAPE_MULTIPOLES>
661.52
21.32
2.13
1.95
19.5
0.08
0.18
11.15
8.74
1.67
0.19
-1.16
0.19
1.47

> <PUBCHEM_SHAPE_SELFOVERLAP>
1392.987

> <PUBCHEM_SHAPE_VOLUME>
372.7

> <PUBCHEM_COORDINATE_TYPE>
2
5
10

$$$$
