21633081
  -OEChem-09122004383D

 86 89  0     1  0  0  0  0  0999 V2000
   -0.4009    2.7518   -0.2877 O   0  0  0  0  0  0  0  0  0  0  0  0
   -0.2104   -2.4889    2.4073 O   0  0  0  0  0  0  0  0  0  0  0  0
    2.0628    2.3528   -1.1553 O   0  0  0  0  0  0  0  0  0  0  0  0
    2.3272   -2.6142    2.1024 O   0  0  0  0  0  0  0  0  0  0  0  0
    7.9362   -0.2173   -0.8843 O   0  0  0  0  0  0  0  0  0  0  0  0
   -4.7526    1.9946   -0.8057 O   0  0  0  0  0  0  0  0  0  0  0  0
    0.7332    4.5927    0.5258 O   0  0  0  0  0  0  0  0  0  0  0  0
   -6.3298   -2.8910   -0.9315 O   0  0  0  0  0  0  0  0  0  0  0  0
   -8.3459   -2.0595   -1.6835 O   0  0  0  0  0  0  0  0  0  0  0  0
   -0.3319    0.6015    0.8403 C   0  0  1  0  0  0  0  0  0  0  0  0
    0.6486   -0.2842    1.6916 C   0  0  2  0  0  0  0  0  0  0  0  0
   -1.5609    0.7641    1.7807 C   0  0  2  0  0  0  0  0  0  0  0  0
    3.7040   -0.0540   -0.8783 C   0  0  1  0  0  0  0  0  0  0  0  0
    1.8739   -0.6205    0.8629 C   0  0  0  0  0  0  0  0  0  0  0  0
    0.4107    1.8900    0.4939 C   0  0  1  0  0  0  0  0  0  0  0  0
    4.5299   -1.1828   -0.1571 C   0  0  2  0  0  0  0  0  0  0  0  0
    2.4169    0.2409   -0.0413 C   0  0  0  0  0  0  0  0  0  0  0  0
   -1.7671   -0.6578    2.3380 C   0  0  0  0  0  0  0  0  0  0  0  0
   -0.4022   -1.3065    2.1603 C   0  0  0  0  0  0  0  0  0  0  0  0
   -2.8482    1.3140    1.1735 C   0  0  1  0  0  0  0  0  0  0  0  0
    5.9252   -1.5734   -0.7523 C   0  0  0  0  0  0  0  0  0  0  0  0
   -0.7961   -0.1021   -0.4862 C   0  0  0  0  0  0  0  0  0  0  0  0
    1.6762    1.5573   -0.2988 C   0  0  0  0  0  0  0  0  0  0  0  0
    3.6209   -2.3744    0.1339 C   0  0  0  0  0  0  0  0  0  0  0  0
    4.6681    1.1626   -0.9758 C   0  0  0  0  0  0  0  0  0  0  0  0
    1.1858    0.3547    3.0026 C   0  0  0  0  0  0  0  0  0  0  0  0
    2.5749   -1.9228    1.1168 C   0  0  0  0  0  0  0  0  0  0  0  0
    3.1971   -0.4385   -2.2873 C   0  0  0  0  0  0  0  0  0  0  0  0
    5.9796    0.8566   -1.6881 C   0  0  0  0  0  0  0  0  0  0  0  0
    6.7171   -0.2933   -1.0527 C   0  0  0  0  0  0  0  0  0  0  0  0
   -3.6160    0.2304    0.3986 C   0  0  0  0  0  0  0  0  0  0  0  0
   -3.7395    1.8913    2.2769 C   0  0  0  0  0  0  0  0  0  0  0  0
    5.8780   -2.4280   -2.0267 C   0  0  0  0  0  0  0  0  0  0  0  0
    6.7281   -2.3758    0.3061 C   0  0  0  0  0  0  0  0  0  0  0  0
   -4.6142    0.7882   -0.6054 C   0  0  0  0  0  0  0  0  0  0  0  0
   -0.1324    4.0895   -0.1776 C   0  0  0  0  0  0  0  0  0  0  0  0
   -5.4330   -0.2277   -1.3817 C   0  0  0  0  0  0  0  0  0  0  0  0
   -1.0615    4.8730   -1.0545 C   0  0  0  0  0  0  0  0  0  0  0  0
   -6.7194   -0.5841   -0.6346 C   0  0  1  0  0  0  0  0  0  0  0  0
   -7.7813    0.4977   -0.8291 C   0  0  0  0  0  0  0  0  0  0  0  0
   -7.2569   -1.9113   -1.1440 C   0  0  0  0  0  0  0  0  0  0  0  0
   -6.6943   -4.1957   -1.3921 C   0  0  0  0  0  0  0  0  0  0  0  0
   -1.2700    1.4348    2.5994 H   0  0  0  0  0  0  0  0  0  0  0  0
    0.7146    2.4057    1.4113 H   0  0  0  0  0  0  0  0  0  0  0  0
    4.7784   -0.7479    0.8284 H   0  0  0  0  0  0  0  0  0  0  0  0
   -2.0153   -0.6213    3.4030 H   0  0  0  0  0  0  0  0  0  0  0  0
   -2.4797   -1.3016    1.8246 H   0  0  0  0  0  0  0  0  0  0  0  0
   -2.6078    2.1448    0.5042 H   0  0  0  0  0  0  0  0  0  0  0  0
   -1.1942   -1.1069   -0.3214 H   0  0  0  0  0  0  0  0  0  0  0  0
    0.0424   -0.2650   -1.1722 H   0  0  0  0  0  0  0  0  0  0  0  0
   -1.4903    0.5166   -1.0621 H   0  0  0  0  0  0  0  0  0  0  0  0
    3.1332   -2.7872   -0.7529 H   0  0  0  0  0  0  0  0  0  0  0  0
    4.1707   -3.1919    0.6086 H   0  0  0  0  0  0  0  0  0  0  0  0
    4.2212    1.9944   -1.5250 H   0  0  0  0  0  0  0  0  0  0  0  0
    4.8855    1.5353    0.0344 H   0  0  0  0  0  0  0  0  0  0  0  0
    1.8601    1.1977    2.8172 H   0  0  0  0  0  0  0  0  0  0  0  0
    1.7566   -0.3836    3.5808 H   0  0  0  0  0  0  0  0  0  0  0  0
    0.3953    0.7032    3.6737 H   0  0  0  0  0  0  0  0  0  0  0  0
    2.5962    0.3663   -2.7271 H   0  0  0  0  0  0  0  0  0  0  0  0
    2.5601   -1.3284   -2.2713 H   0  0  0  0  0  0  0  0  0  0  0  0
    4.0001   -0.6208   -2.9988 H   0  0  0  0  0  0  0  0  0  0  0  0
    5.8254    0.6303   -2.7471 H   0  0  0  0  0  0  0  0  0  0  0  0
    6.6219    1.7440   -1.6402 H   0  0  0  0  0  0  0  0  0  0  0  0
   -4.2287   -0.3458    1.1059 H   0  0  0  0  0  0  0  0  0  0  0  0
   -3.0381   -0.4960   -0.1545 H   0  0  0  0  0  0  0  0  0  0  0  0
   -4.0106    1.1309    3.0173 H   0  0  0  0  0  0  0  0  0  0  0  0
   -4.6670    2.3038    1.8669 H   0  0  0  0  0  0  0  0  0  0  0  0
   -3.2274    2.7043    2.8033 H   0  0  0  0  0  0  0  0  0  0  0  0
    5.2074   -3.2858   -1.9192 H   0  0  0  0  0  0  0  0  0  0  0  0
    5.5795   -1.8630   -2.9101 H   0  0  0  0  0  0  0  0  0  0  0  0
    6.8739   -2.8243   -2.2624 H   0  0  0  0  0  0  0  0  0  0  0  0
    7.7551   -2.5678   -0.0279 H   0  0  0  0  0  0  0  0  0  0  0  0
    6.7982   -1.8260    1.2517 H   0  0  0  0  0  0  0  0  0  0  0  0
    6.2812   -3.3531    0.5105 H   0  0  0  0  0  0  0  0  0  0  0  0
   -4.7939   -1.0988   -1.5639 H   0  0  0  0  0  0  0  0  0  0  0  0
   -5.6502    0.1888   -2.3731 H   0  0  0  0  0  0  0  0  0  0  0  0
   -2.0958    4.6951   -0.7494 H   0  0  0  0  0  0  0  0  0  0  0  0
   -0.8458    5.9401   -0.9504 H   0  0  0  0  0  0  0  0  0  0  0  0
   -0.9134    4.5867   -2.0987 H   0  0  0  0  0  0  0  0  0  0  0  0
   -6.5401   -0.6977    0.4415 H   0  0  0  0  0  0  0  0  0  0  0  0
   -7.4477    1.4562   -0.4192 H   0  0  0  0  0  0  0  0  0  0  0  0
   -8.7119    0.2274   -0.3173 H   0  0  0  0  0  0  0  0  0  0  0  0
   -8.0190    0.6451   -1.8887 H   0  0  0  0  0  0  0  0  0  0  0  0
   -7.5944   -4.5421   -0.8754 H   0  0  0  0  0  0  0  0  0  0  0  0
   -6.8496   -4.1851   -2.4751 H   0  0  0  0  0  0  0  0  0  0  0  0
   -5.8727   -4.8793   -1.1621 H   0  0  0  0  0  0  0  0  0  0  0  0
  1 15  1  0  0  0  0
  1 36  1  0  0  0  0
  2 19  2  0  0  0  0
  3 23  2  0  0  0  0
  4 27  2  0  0  0  0
  5 30  2  0  0  0  0
  6 35  2  0  0  0  0
  7 36  2  0  0  0  0
  8 41  1  0  0  0  0
  8 42  1  0  0  0  0
  9 41  2  0  0  0  0
 10 11  1  0  0  0  0
 10 12  1  0  0  0  0
 10 15  1  0  0  0  0
 10 22  1  0  0  0  0
 11 14  1  0  0  0  0
 11 19  1  0  0  0  0
 11 26  1  0  0  0  0
 12 18  1  0  0  0  0
 12 20  1  0  0  0  0
 12 43  1  0  0  0  0
 13 16  1  0  0  0  0
 13 17  1  0  0  0  0
 13 25  1  0  0  0  0
 13 28  1  0  0  0  0
 14 17  2  0  0  0  0
 14 27  1  0  0  0  0
 15 23  1  0  0  0  0
 15 44  1  0  0  0  0
 16 21  1  0  0  0  0
 16 24  1  0  0  0  0
 16 45  1  0  0  0  0
 17 23  1  0  0  0  0
 18 19  1  0  0  0  0
 18 46  1  0  0  0  0
 18 47  1  0  0  0  0
 20 31  1  0  0  0  0
 20 32  1  0  0  0  0
 20 48  1  0  0  0  0
 21 30  1  0  0  0  0
 21 33  1  0  0  0  0
 21 34  1  0  0  0  0
 22 49  1  0  0  0  0
 22 50  1  0  0  0  0
 22 51  1  0  0  0  0
 24 27  1  0  0  0  0
 24 52  1  0  0  0  0
 24 53  1  0  0  0  0
 25 29  1  0  0  0  0
 25 54  1  0  0  0  0
 25 55  1  0  0  0  0
 26 56  1  0  0  0  0
 26 57  1  0  0  0  0
 26 58  1  0  0  0  0
 28 59  1  0  0  0  0
 28 60  1  0  0  0  0
 28 61  1  0  0  0  0
 29 30  1  0  0  0  0
 29 62  1  0  0  0  0
 29 63  1  0  0  0  0
 31 35  1  0  0  0  0
 31 64  1  0  0  0  0
 31 65  1  0  0  0  0
 32 66  1  0  0  0  0
 32 67  1  0  0  0  0
 32 68  1  0  0  0  0
 33 69  1  0  0  0  0
 33 70  1  0  0  0  0
 33 71  1  0  0  0  0
 34 72  1  0  0  0  0
 34 73  1  0  0  0  0
 34 74  1  0  0  0  0
 35 37  1  0  0  0  0
 36 38  1  0  0  0  0
 37 39  1  0  0  0  0
 37 75  1  0  0  0  0
 37 76  1  0  0  0  0
 38 77  1  0  0  0  0
 38 78  1  0  0  0  0
 38 79  1  0  0  0  0
 39 40  1  0  0  0  0
 39 41  1  0  0  0  0
 39 80  1  0  0  0  0
 40 81  1  0  0  0  0
 40 82  1  0  0  0  0
 40 83  1  0  0  0  0
 42 84  1  0  0  0  0
 42 85  1  0  0  0  0
 42 86  1  0  0  0  0
M  END
> <PUBCHEM_COMPOUND_CID>
21633081

> <PUBCHEM_CONFORMER_RMSD>
1.2

> <PUBCHEM_CONFORMER_DIVERSEORDER>
1
21
22
9
20
19
5
12
14
4
11
8
17
6
10
7
13
23
16
18
3
15
2

> <PUBCHEM_MMFF94_PARTIAL_CHARGES>
30
1 -0.43
11 0.2
13 0.14
14 -0.12
15 0.34
17 -0.12
18 0.06
19 0.45
2 -0.57
21 0.06
23 0.49
24 0.06
27 0.49
29 0.06
3 -0.57
30 0.45
31 0.06
35 0.45
36 0.66
37 0.06
38 0.06
39 0.06
4 -0.57
41 0.66
42 0.28
5 -0.57
6 -0.57
7 -0.57
8 -0.43
9 -0.57

> <PUBCHEM_EFFECTIVE_ROTOR_COUNT>
10.4

> <PUBCHEM_PHARMACOPHORE_FEATURES>
14
1 2 acceptor
1 3 acceptor
1 32 hydrophobe
1 4 acceptor
1 40 hydrophobe
1 5 acceptor
1 6 acceptor
1 7 acceptor
1 9 acceptor
3 21 33 34 hydrophobe
5 10 11 12 18 19 rings
6 10 11 14 15 17 23 rings
6 13 14 16 17 24 27 rings
6 13 16 21 25 29 30 rings

> <PUBCHEM_HEAVY_ATOM_COUNT>
42

> <PUBCHEM_ATOM_DEF_STEREO_COUNT>
7

> <PUBCHEM_ATOM_UDEF_STEREO_COUNT>
1

> <PUBCHEM_BOND_DEF_STEREO_COUNT>
0

> <PUBCHEM_BOND_UDEF_STEREO_COUNT>
0

> <PUBCHEM_ISOTOPIC_ATOM_COUNT>
0

> <PUBCHEM_COMPONENT_COUNT>
1

> <PUBCHEM_CACTVS_TAUTO_COUNT>
48

> <PUBCHEM_CONFORMER_ID>
014A183900000001

> <PUBCHEM_MMFF94_ENERGY>
146.9648

> <PUBCHEM_FEATURE_SELFOVERLAP>
71.156

> <PUBCHEM_SHAPE_FINGERPRINT>
10693767 8 18411133640881157550
11115154 58 18341615893651331913
11513181 2 17904487298707124958
11607047 403 17843385539392658104
11607047 74 17628058307912170929
11621639 208 17471007451166591323
117089 54 18127408072303748679
12788726 201 18116435847599672512
131258 43 18059856202941419545
13140716 1 17825985708095899792
13636023 20 18408879646328388128
13782708 43 17561081354778151686
13811026 1 18187085087696155848
13911987 19 17822301157961294737
13947947 63 7853576837916560071
14068700 675 18261951847838497068
14681490 219 18260546684678543309
14931854 50 17894343359475016669
15183329 4 18261110759934215563
15705408 1 18043514213995961749
16112460 7 10663519496741483269
16989378 47 18272079535572922399
1979834 28 11239726335521823761
20775438 99 17905591552411156439
21792965 302 18336260262447531644
23559900 14 18115328738786477584
4353968 344 18190743025754471806
439807 62 18273214227420627911
45266715 3 18264484160535314504
513532 50 18338785823150142728
563151 74 9583248249442455549
57527295 17 18040990692712310353
57527452 28 17203613691737487974
6004065 56 18339360868169234464
6086070 43 16950282952785791705

> <PUBCHEM_SHAPE_MULTIPOLES>
811.52
19.36
4.42
2.39
15.66
2.97
-1.3
-17.18
14.67
3.48
1.25
0.2
-0.71
-2.47

> <PUBCHEM_SHAPE_SELFOVERLAP>
1726.663

> <PUBCHEM_SHAPE_VOLUME>
448

> <PUBCHEM_COORDINATE_TYPE>
2
5
10

$$$$
