21637704
  -OEChem-09122005353D

 96 99  0     1  0  0  0  0  0999 V2000
    0.6062    3.1015   -0.2092 O   0  0  0  0  0  0  0  0  0  0  0  0
   -6.7530    0.0310    0.9770 O   0  0  0  0  0  0  0  0  0  0  0  0
    4.1628   -0.0620    2.5134 O   0  0  0  0  0  0  0  0  0  0  0  0
    2.5330    3.6303   -1.3688 O   0  0  0  0  0  0  0  0  0  0  0  0
   -8.3399   -1.4614    1.7460 O   0  0  0  0  0  0  0  0  0  0  0  0
    6.0413    1.2803    2.5932 O   0  0  0  0  0  0  0  0  0  0  0  0
    7.7228   -0.9623   -3.3201 O   0  0  0  0  0  0  0  0  0  0  0  0
    6.2533   -2.6629   -2.9926 O   0  0  0  0  0  0  0  0  0  0  0  0
    0.5493   -0.5615    0.1563 C   0  0  1  0  0  0  0  0  0  0  0  0
   -0.2645    0.7810    0.1380 C   0  0  1  0  0  0  0  0  0  0  0  0
    1.9072   -0.0957    0.7299 C   0  0  2  0  0  0  0  0  0  0  0  0
    0.7782    1.7275   -0.5234 C   0  0  2  0  0  0  0  0  0  0  0  0
   -3.7287   -0.9923   -0.7371 C   0  0  1  0  0  0  0  0  0  0  0  0
   -1.6182    0.5260   -0.5342 C   0  0  0  0  0  0  0  0  0  0  0  0
    2.1474    1.2603    0.0281 C   0  0  0  0  0  0  0  0  0  0  0  0
   -4.4370    0.3935   -0.9705 C   0  0  2  0  0  0  0  0  0  0  0  0
   -0.2054   -1.5903    1.0133 C   0  0  0  0  0  0  0  0  0  0  0  0
   -2.3032   -0.7413   -0.1568 C   0  0  0  0  0  0  0  0  0  0  0  0
   -5.9693    0.3668   -1.3346 C   0  0  0  0  0  0  0  0  0  0  0  0
    3.0830   -1.0537    0.5832 C   0  0  1  0  0  0  0  0  0  0  0  0
    0.7645   -1.1751   -1.2681 C   0  0  0  0  0  0  0  0  0  0  0  0
   -0.6115    1.3529    1.5526 C   0  0  0  0  0  0  0  0  0  0  0  0
   -1.6555   -1.6693    0.5908 C   0  0  0  0  0  0  0  0  0  0  0  0
   -4.6074   -1.8390    0.2259 C   0  0  0  0  0  0  0  0  0  0  0  0
   -3.5856    1.2855   -1.8976 C   0  0  0  0  0  0  0  0  0  0  0  0
   -2.1818    1.4000   -1.3866 C   0  0  0  0  0  0  0  0  0  0  0  0
   -6.7232   -0.5514   -0.3298 C   0  0  1  0  0  0  0  0  0  0  0  0
   -6.0789   -1.9273   -0.1849 C   0  0  0  0  0  0  0  0  0  0  0  0
   -3.4919   -1.8060   -2.0351 C   0  0  0  0  0  0  0  0  0  0  0  0
    4.3821   -0.4273    1.1505 C   0  0  2  0  0  0  0  0  0  0  0  0
   -6.5463    1.8057   -1.2246 C   0  0  0  0  0  0  0  0  0  0  0  0
   -6.2698   -0.0927   -2.7766 C   0  0  0  0  0  0  0  0  0  0  0  0
    2.7355   -2.3975    1.2384 C   0  0  0  0  0  0  0  0  0  0  0  0
    5.5880   -1.3752    1.0598 C   0  0  0  0  0  0  0  0  0  0  0  0
    1.5620    3.9516   -0.6972 C   0  0  0  0  0  0  0  0  0  0  0  0
    5.9024   -1.7559   -0.3648 C   0  0  0  0  0  0  0  0  0  0  0  0
   -7.4003   -0.6992    1.9292 C   0  0  0  0  0  0  0  0  0  0  0  0
    1.2522    5.3603   -0.2900 C   0  0  0  0  0  0  0  0  0  0  0  0
    5.2063    0.5651    3.1303 C   0  0  0  0  0  0  0  0  0  0  0  0
   -6.7848   -0.4327    3.2694 C   0  0  0  0  0  0  0  0  0  0  0  0
    6.7450   -1.1194   -1.1999 C   0  0  0  0  0  0  0  0  0  0  0  0
    5.1887    0.2500    4.5954 C   0  0  0  0  0  0  0  0  0  0  0  0
    7.5895    0.0683   -0.8445 C   0  0  0  0  0  0  0  0  0  0  0  0
    6.8553   -1.6861   -2.5737 C   0  0  0  0  0  0  0  0  0  0  0  0
    1.7722    0.1015    1.8017 H   0  0  0  0  0  0  0  0  0  0  0  0
    0.7522    1.6167   -1.6154 H   0  0  0  0  0  0  0  0  0  0  0  0
    2.8484    1.1496   -0.8079 H   0  0  0  0  0  0  0  0  0  0  0  0
    2.5880    1.9671    0.7410 H   0  0  0  0  0  0  0  0  0  0  0  0
   -4.4071    0.8901    0.0160 H   0  0  0  0  0  0  0  0  0  0  0  0
    0.1869   -2.6003    0.8879 H   0  0  0  0  0  0  0  0  0  0  0  0
   -0.1520   -1.3604    2.0829 H   0  0  0  0  0  0  0  0  0  0  0  0
    3.2632   -1.2458   -0.4811 H   0  0  0  0  0  0  0  0  0  0  0  0
    1.2329   -2.1625   -1.2210 H   0  0  0  0  0  0  0  0  0  0  0  0
    1.4027   -0.5507   -1.9013 H   0  0  0  0  0  0  0  0  0  0  0  0
   -0.1720   -1.3148   -1.8161 H   0  0  0  0  0  0  0  0  0  0  0  0
   -1.2073    0.6648    2.1604 H   0  0  0  0  0  0  0  0  0  0  0  0
   -1.2022    2.2737    1.4612 H   0  0  0  0  0  0  0  0  0  0  0  0
    0.2778    1.6118    2.1354 H   0  0  0  0  0  0  0  0  0  0  0  0
   -2.1488   -2.5967    0.8640 H   0  0  0  0  0  0  0  0  0  0  0  0
   -4.5414   -1.4262    1.2403 H   0  0  0  0  0  0  0  0  0  0  0  0
   -4.2279   -2.8668    0.2887 H   0  0  0  0  0  0  0  0  0  0  0  0
   -4.0008    2.2984   -1.9215 H   0  0  0  0  0  0  0  0  0  0  0  0
   -3.5682    0.9239   -2.9298 H   0  0  0  0  0  0  0  0  0  0  0  0
   -1.6513    2.3052   -1.6678 H   0  0  0  0  0  0  0  0  0  0  0  0
   -7.7620   -0.6673   -0.6677 H   0  0  0  0  0  0  0  0  0  0  0  0
   -6.1612   -2.4704   -1.1325 H   0  0  0  0  0  0  0  0  0  0  0  0
   -6.5895   -2.5679    0.5401 H   0  0  0  0  0  0  0  0  0  0  0  0
   -4.4117   -2.1661   -2.4924 H   0  0  0  0  0  0  0  0  0  0  0  0
   -2.9438   -1.2378   -2.7932 H   0  0  0  0  0  0  0  0  0  0  0  0
   -2.8971   -2.7056   -1.8294 H   0  0  0  0  0  0  0  0  0  0  0  0
    4.6111    0.4859    0.5859 H   0  0  0  0  0  0  0  0  0  0  0  0
   -7.6412    1.7919   -1.2830 H   0  0  0  0  0  0  0  0  0  0  0  0
   -6.1922    2.4514   -2.0349 H   0  0  0  0  0  0  0  0  0  0  0  0
   -6.2741    2.2800   -0.2754 H   0  0  0  0  0  0  0  0  0  0  0  0
   -7.3325    0.0512   -3.0098 H   0  0  0  0  0  0  0  0  0  0  0  0
   -5.7053    0.4845   -3.5150 H   0  0  0  0  0  0  0  0  0  0  0  0
   -6.0701   -1.1484   -2.9491 H   0  0  0  0  0  0  0  0  0  0  0  0
    2.0952   -3.0037    0.5975 H   0  0  0  0  0  0  0  0  0  0  0  0
    2.2684   -2.2678    2.2198 H   0  0  0  0  0  0  0  0  0  0  0  0
    3.6095   -3.0338    1.3884 H   0  0  0  0  0  0  0  0  0  0  0  0
    5.4547   -2.2762    1.6670 H   0  0  0  0  0  0  0  0  0  0  0  0
    6.4781   -0.9250    1.5109 H   0  0  0  0  0  0  0  0  0  0  0  0
    5.3468   -2.6230   -0.7180 H   0  0  0  0  0  0  0  0  0  0  0  0
    2.0224    6.0297   -0.6837 H   0  0  0  0  0  0  0  0  0  0  0  0
    0.2855    5.6602   -0.7018 H   0  0  0  0  0  0  0  0  0  0  0  0
    1.2473    5.4373    0.8002 H   0  0  0  0  0  0  0  0  0  0  0  0
   -6.8405    0.6347    3.4975 H   0  0  0  0  0  0  0  0  0  0  0  0
   -5.7474   -0.7743    3.2794 H   0  0  0  0  0  0  0  0  0  0  0  0
   -7.3399   -0.9791    4.0374 H   0  0  0  0  0  0  0  0  0  0  0  0
    5.2959   -0.8275    4.7432 H   0  0  0  0  0  0  0  0  0  0  0  0
    4.2577    0.6095    5.0405 H   0  0  0  0  0  0  0  0  0  0  0  0
    6.0269    0.7541    5.0849 H   0  0  0  0  0  0  0  0  0  0  0  0
    7.3868    0.8986   -1.5297 H   0  0  0  0  0  0  0  0  0  0  0  0
    8.6525   -0.1864   -0.9097 H   0  0  0  0  0  0  0  0  0  0  0  0
    7.4048    0.4456    0.1636 H   0  0  0  0  0  0  0  0  0  0  0  0
    7.8089   -1.3173   -4.2305 H   0  0  0  0  0  0  0  0  0  0  0  0
  1 12  1  0  0  0  0
  1 35  1  0  0  0  0
  2 27  1  0  0  0  0
  2 37  1  0  0  0  0
  3 30  1  0  0  0  0
  3 39  1  0  0  0  0
  4 35  2  0  0  0  0
  5 37  2  0  0  0  0
  6 39  2  0  0  0  0
  7 44  1  0  0  0  0
  7 96  1  0  0  0  0
  8 44  2  0  0  0  0
  9 10  1  0  0  0  0
  9 11  1  0  0  0  0
  9 17  1  0  0  0  0
  9 21  1  0  0  0  0
 10 12  1  0  0  0  0
 10 14  1  0  0  0  0
 10 22  1  0  0  0  0
 11 15  1  0  0  0  0
 11 20  1  0  0  0  0
 11 45  1  0  0  0  0
 12 15  1  0  0  0  0
 12 46  1  0  0  0  0
 13 16  1  0  0  0  0
 13 18  1  0  0  0  0
 13 24  1  0  0  0  0
 13 29  1  0  0  0  0
 14 18  1  0  0  0  0
 14 26  2  0  0  0  0
 15 47  1  0  0  0  0
 15 48  1  0  0  0  0
 16 19  1  0  0  0  0
 16 25  1  0  0  0  0
 16 49  1  0  0  0  0
 17 23  1  0  0  0  0
 17 50  1  0  0  0  0
 17 51  1  0  0  0  0
 18 23  2  0  0  0  0
 19 27  1  0  0  0  0
 19 31  1  0  0  0  0
 19 32  1  0  0  0  0
 20 30  1  0  0  0  0
 20 33  1  0  0  0  0
 20 52  1  0  0  0  0
 21 53  1  0  0  0  0
 21 54  1  0  0  0  0
 21 55  1  0  0  0  0
 22 56  1  0  0  0  0
 22 57  1  0  0  0  0
 22 58  1  0  0  0  0
 23 59  1  0  0  0  0
 24 28  1  0  0  0  0
 24 60  1  0  0  0  0
 24 61  1  0  0  0  0
 25 26  1  0  0  0  0
 25 62  1  0  0  0  0
 25 63  1  0  0  0  0
 26 64  1  0  0  0  0
 27 28  1  0  0  0  0
 27 65  1  0  0  0  0
 28 66  1  0  0  0  0
 28 67  1  0  0  0  0
 29 68  1  0  0  0  0
 29 69  1  0  0  0  0
 29 70  1  0  0  0  0
 30 34  1  0  0  0  0
 30 71  1  0  0  0  0
 31 72  1  0  0  0  0
 31 73  1  0  0  0  0
 31 74  1  0  0  0  0
 32 75  1  0  0  0  0
 32 76  1  0  0  0  0
 32 77  1  0  0  0  0
 33 78  1  0  0  0  0
 33 79  1  0  0  0  0
 33 80  1  0  0  0  0
 34 36  1  0  0  0  0
 34 81  1  0  0  0  0
 34 82  1  0  0  0  0
 35 38  1  0  0  0  0
 36 41  2  0  0  0  0
 36 83  1  0  0  0  0
 37 40  1  0  0  0  0
 38 84  1  0  0  0  0
 38 85  1  0  0  0  0
 38 86  1  0  0  0  0
 39 42  1  0  0  0  0
 40 87  1  0  0  0  0
 40 88  1  0  0  0  0
 40 89  1  0  0  0  0
 41 43  1  0  0  0  0
 41 44  1  0  0  0  0
 42 90  1  0  0  0  0
 42 91  1  0  0  0  0
 42 92  1  0  0  0  0
 43 93  1  0  0  0  0
 43 94  1  0  0  0  0
 43 95  1  0  0  0  0
M  END
> <PUBCHEM_COMPOUND_CID>
21637704

> <PUBCHEM_CONFORMER_RMSD>
1.2

> <PUBCHEM_CONFORMER_DIVERSEORDER>
1
3
2
4
8
5
6
7

> <PUBCHEM_MMFF94_PARTIAL_CHARGES>
34
1 -0.43
10 0.14
12 0.28
13 0.14
14 -0.14
17 0.14
18 -0.14
2 -0.43
23 -0.29
25 0.14
26 -0.29
27 0.28
3 -0.43
30 0.28
34 0.14
35 0.66
36 -0.29
37 0.66
38 0.06
39 0.66
4 -0.57
40 0.06
41 -0.12
42 0.06
43 0.14
44 0.71
5 -0.57
59 0.15
6 -0.57
64 0.15
7 -0.65
8 -0.57
83 0.15
96 0.5

> <PUBCHEM_EFFECTIVE_ROTOR_COUNT>
12.8

> <PUBCHEM_PHARMACOPHORE_FEATURES>
13
1 33 hydrophobe
1 4 acceptor
1 43 hydrophobe
1 5 acceptor
1 6 acceptor
1 7 acceptor
1 8 acceptor
3 19 31 32 hydrophobe
3 7 8 44 anion
5 9 10 11 12 15 rings
6 13 14 16 18 25 26 rings
6 13 16 19 24 27 28 rings
6 9 10 14 17 18 23 rings

> <PUBCHEM_HEAVY_ATOM_COUNT>
44

> <PUBCHEM_ATOM_DEF_STEREO_COUNT>
9

> <PUBCHEM_ATOM_UDEF_STEREO_COUNT>
0

> <PUBCHEM_BOND_DEF_STEREO_COUNT>
1

> <PUBCHEM_BOND_UDEF_STEREO_COUNT>
0

> <PUBCHEM_ISOTOPIC_ATOM_COUNT>
0

> <PUBCHEM_COMPONENT_COUNT>
1

> <PUBCHEM_CACTVS_TAUTO_COUNT>
1

> <PUBCHEM_CONFORMER_ID>
014A2A4800000001

> <PUBCHEM_MMFF94_ENERGY>
159.2914

> <PUBCHEM_FEATURE_SELFOVERLAP>
66.125

> <PUBCHEM_SHAPE_FINGERPRINT>
10076449 9 17967829253418946411
10169797 241 17822855393653179417
10190108 129 18130238063986037346
10580692 12 16056602027870346747
11331351 85 17989205932300197376
12373685 5 12535347836586152469
131258 43 18059306426628654028
13383668 262 15647904893056469688
13533116 47 16773789317085069658
13782708 43 17095511908039637203
15021287 119 18337377323660098389
15131766 46 15265626681905446738
15183329 4 17967522467730553223
15361156 5 17822006498353013343
1577012 14 16008744672033076783
15840311 113 17704069612339351329
16994733 274 14851606565913408118
18608769 82 17530690922385741211
20105231 36 18409739447553500735
21049683 271 17895202116236391932
21130935 74 16917059005824656487
21792961 116 17968100781215015826
21814621 53 17346316042000779019
2260408 40 17989214724561943267
23522609 53 16806174224298772333
23559900 14 18263348321962898125
24771293 8 18125135355719094424
24771750 20 17897743173866094652
3178227 256 18114177549637131291
394071 54 18339912827285528304
4093350 32 17346587600403885466
4516262 110 16127507429060557464
5265222 85 16877671183539793995
9831232 110 16917062231893507902

> <PUBCHEM_SHAPE_MULTIPOLES>
858.54
22.48
3.49
3.36
3.37
5.4
-0.84
-10.11
4.11
-0.59
-1.37
-6.15
-1.26
2.21

> <PUBCHEM_SHAPE_SELFOVERLAP>
1805.826

> <PUBCHEM_SHAPE_VOLUME>
477.8

> <PUBCHEM_COORDINATE_TYPE>
2
5
10

$$$$
