475410
  -OEChem-09122006203D

 82 85  0     1  0  0  0  0  0999 V2000
   -1.8265   -2.8319    1.1672 O   0  0  0  0  0  0  0  0  0  0  0  0
   -7.0888    0.4644   -2.2529 O   0  0  0  0  0  0  0  0  0  0  0  0
    7.3860    0.6906    0.6519 O   0  0  0  0  0  0  0  0  0  0  0  0
    7.0169    0.6664   -2.2023 O   0  0  0  0  0  0  0  0  0  0  0  0
    0.7291    0.5844    0.7562 C   0  0  1  0  0  0  0  0  0  0  0  0
    0.0379   -0.7720    0.3670 C   0  0  1  0  0  0  0  0  0  0  0  0
    2.2238    0.1867    0.7574 C   0  0  2  0  0  0  0  0  0  0  0  0
    0.7603   -1.7252    1.3454 C   0  0  0  0  0  0  0  0  0  0  0  0
   -1.4752   -0.6023    0.4049 C   0  0  0  0  0  0  0  0  0  0  0  0
    0.3334    1.6425   -0.2733 C   0  0  0  0  0  0  0  0  0  0  0  0
   -3.5934    0.7920    0.0626 C   0  0  2  0  0  0  0  0  0  0  0  0
    2.2163   -1.2129    1.4124 C   0  0  0  0  0  0  0  0  0  0  0  0
   -2.0548    0.5712    0.0396 C   0  0  0  0  0  0  0  0  0  0  0  0
   -4.2878   -0.5861   -0.2098 C   0  0  2  0  0  0  0  0  0  0  0  0
   -1.1994    1.7837   -0.3616 C   0  0  0  0  0  0  0  0  0  0  0  0
    3.1941    1.1483    1.4332 C   0  0  1  0  0  0  0  0  0  0  0  0
    0.3287    1.1074    2.1745 C   0  0  0  0  0  0  0  0  0  0  0  0
    0.3404   -1.2863   -1.0737 C   0  0  0  0  0  0  0  0  0  0  0  0
   -5.8385   -0.5846   -0.4516 C   0  0  0  0  0  0  0  0  0  0  0  0
   -3.8294   -1.6112    0.8301 C   0  0  0  0  0  0  0  0  0  0  0  0
   -2.3274   -1.7640    0.8163 C   0  0  0  0  0  0  0  0  0  0  0  0
   -4.0543    1.7669   -1.0522 C   0  0  0  0  0  0  0  0  0  0  0  0
   -3.9037    1.4097    1.4457 C   0  0  0  0  0  0  0  0  0  0  0  0
    4.6246    0.5716    1.3928 C   0  0  0  0  0  0  0  0  0  0  0  0
   -5.5644    1.9102   -1.1481 C   0  0  0  0  0  0  0  0  0  0  0  0
   -6.2164    0.5729   -1.3886 C   0  0  0  0  0  0  0  0  0  0  0  0
    3.1081    2.5277    0.7731 C   0  0  0  0  0  0  0  0  0  0  0  0
   -6.2432   -1.9058   -1.1563 C   0  0  0  0  0  0  0  0  0  0  0  0
   -6.6994   -0.4703    0.8155 C   0  0  0  0  0  0  0  0  0  0  0  0
    5.1223    0.2594   -0.0273 C   0  0  0  0  0  0  0  0  0  0  0  0
    6.5666   -0.2662   -0.0277 C   0  0  1  0  0  0  0  0  0  0  0  0
    7.1573   -0.5386   -1.4339 C   0  0  0  0  0  0  0  0  0  0  0  0
    6.4053   -1.6292   -2.2019 C   0  0  0  0  0  0  0  0  0  0  0  0
    8.6519   -0.8695   -1.3847 C   0  0  0  0  0  0  0  0  0  0  0  0
    2.5203    0.0812   -0.2917 H   0  0  0  0  0  0  0  0  0  0  0  0
    0.7413   -2.7717    1.0213 H   0  0  0  0  0  0  0  0  0  0  0  0
    0.3087   -1.6913    2.3441 H   0  0  0  0  0  0  0  0  0  0  0  0
    0.7321    1.3912   -1.2634 H   0  0  0  0  0  0  0  0  0  0  0  0
    0.7221    2.6366   -0.0503 H   0  0  0  0  0  0  0  0  0  0  0  0
    2.5399   -1.1919    2.4590 H   0  0  0  0  0  0  0  0  0  0  0  0
    2.8874   -1.8912    0.8739 H   0  0  0  0  0  0  0  0  0  0  0  0
   -3.8630   -0.9225   -1.1724 H   0  0  0  0  0  0  0  0  0  0  0  0
   -1.4383    2.0759   -1.3906 H   0  0  0  0  0  0  0  0  0  0  0  0
   -1.4865    2.6257    0.2806 H   0  0  0  0  0  0  0  0  0  0  0  0
    2.9473    1.2696    2.4950 H   0  0  0  0  0  0  0  0  0  0  0  0
    0.7168    0.4749    2.9794 H   0  0  0  0  0  0  0  0  0  0  0  0
    0.7057    2.1189    2.3532 H   0  0  0  0  0  0  0  0  0  0  0  0
   -0.7537    1.1585    2.3208 H   0  0  0  0  0  0  0  0  0  0  0  0
   -0.0426   -0.6150   -1.8499 H   0  0  0  0  0  0  0  0  0  0  0  0
    1.4069   -1.4342   -1.2661 H   0  0  0  0  0  0  0  0  0  0  0  0
   -0.1371   -2.2610   -1.2388 H   0  0  0  0  0  0  0  0  0  0  0  0
   -4.2429   -2.5978    0.5991 H   0  0  0  0  0  0  0  0  0  0  0  0
   -4.1410   -1.3515    1.8459 H   0  0  0  0  0  0  0  0  0  0  0  0
   -3.6738    1.4177   -2.0222 H   0  0  0  0  0  0  0  0  0  0  0  0
   -3.6358    2.7681   -0.8916 H   0  0  0  0  0  0  0  0  0  0  0  0
   -3.5875    0.7642    2.2716 H   0  0  0  0  0  0  0  0  0  0  0  0
   -3.3786    2.3637    1.5775 H   0  0  0  0  0  0  0  0  0  0  0  0
   -4.9597    1.6319    1.5894 H   0  0  0  0  0  0  0  0  0  0  0  0
    5.2949    1.2964    1.8714 H   0  0  0  0  0  0  0  0  0  0  0  0
    4.6856   -0.3366    2.0039 H   0  0  0  0  0  0  0  0  0  0  0  0
   -5.8073    2.5695   -1.9895 H   0  0  0  0  0  0  0  0  0  0  0  0
   -5.9972    2.3605   -0.2505 H   0  0  0  0  0  0  0  0  0  0  0  0
    2.2802    3.1189    1.1684 H   0  0  0  0  0  0  0  0  0  0  0  0
    3.0392    2.4703   -0.3176 H   0  0  0  0  0  0  0  0  0  0  0  0
    4.0084    3.1100    1.0039 H   0  0  0  0  0  0  0  0  0  0  0  0
   -5.6844   -2.0450   -2.0890 H   0  0  0  0  0  0  0  0  0  0  0  0
   -7.3083   -1.9123   -1.4182 H   0  0  0  0  0  0  0  0  0  0  0  0
   -6.0716   -2.7805   -0.5219 H   0  0  0  0  0  0  0  0  0  0  0  0
   -7.7640   -0.5680    0.5674 H   0  0  0  0  0  0  0  0  0  0  0  0
   -6.6033    0.4953    1.3117 H   0  0  0  0  0  0  0  0  0  0  0  0
   -6.4662   -1.2557    1.5409 H   0  0  0  0  0  0  0  0  0  0  0  0
    4.4903   -0.4966   -0.4982 H   0  0  0  0  0  0  0  0  0  0  0  0
    5.0631    1.1722   -0.6300 H   0  0  0  0  0  0  0  0  0  0  0  0
    6.6134   -1.1897    0.5620 H   0  0  0  0  0  0  0  0  0  0  0  0
    7.2772    1.5489    0.2088 H   0  0  0  0  0  0  0  0  0  0  0  0
    6.4080   -2.5766   -1.6536 H   0  0  0  0  0  0  0  0  0  0  0  0
    5.3680   -1.3403   -2.4006 H   0  0  0  0  0  0  0  0  0  0  0  0
    6.8609   -1.7982   -3.1847 H   0  0  0  0  0  0  0  0  0  0  0  0
    9.0508   -1.0216   -2.3944 H   0  0  0  0  0  0  0  0  0  0  0  0
    9.2350   -0.0490   -0.9521 H   0  0  0  0  0  0  0  0  0  0  0  0
    8.8389   -1.7754   -0.7992 H   0  0  0  0  0  0  0  0  0  0  0  0
    7.5775    1.3509   -1.7999 H   0  0  0  0  0  0  0  0  0  0  0  0
  1 21  2  0  0  0  0
  2 26  2  0  0  0  0
  3 31  1  0  0  0  0
  3 75  1  0  0  0  0
  4 32  1  0  0  0  0
  4 82  1  0  0  0  0
  5  6  1  0  0  0  0
  5  7  1  0  0  0  0
  5 10  1  0  0  0  0
  5 17  1  0  0  0  0
  6  8  1  0  0  0  0
  6  9  1  0  0  0  0
  6 18  1  0  0  0  0
  7 12  1  0  0  0  0
  7 16  1  0  0  0  0
  7 35  1  0  0  0  0
  8 12  1  0  0  0  0
  8 36  1  0  0  0  0
  8 37  1  0  0  0  0
  9 13  2  0  0  0  0
  9 21  1  0  0  0  0
 10 15  1  0  0  0  0
 10 38  1  0  0  0  0
 10 39  1  0  0  0  0
 11 13  1  0  0  0  0
 11 14  1  0  0  0  0
 11 22  1  0  0  0  0
 11 23  1  0  0  0  0
 12 40  1  0  0  0  0
 12 41  1  0  0  0  0
 13 15  1  0  0  0  0
 14 19  1  0  0  0  0
 14 20  1  0  0  0  0
 14 42  1  0  0  0  0
 15 43  1  0  0  0  0
 15 44  1  0  0  0  0
 16 24  1  0  0  0  0
 16 27  1  0  0  0  0
 16 45  1  0  0  0  0
 17 46  1  0  0  0  0
 17 47  1  0  0  0  0
 17 48  1  0  0  0  0
 18 49  1  0  0  0  0
 18 50  1  0  0  0  0
 18 51  1  0  0  0  0
 19 26  1  0  0  0  0
 19 28  1  0  0  0  0
 19 29  1  0  0  0  0
 20 21  1  0  0  0  0
 20 52  1  0  0  0  0
 20 53  1  0  0  0  0
 22 25  1  0  0  0  0
 22 54  1  0  0  0  0
 22 55  1  0  0  0  0
 23 56  1  0  0  0  0
 23 57  1  0  0  0  0
 23 58  1  0  0  0  0
 24 30  1  0  0  0  0
 24 59  1  0  0  0  0
 24 60  1  0  0  0  0
 25 26  1  0  0  0  0
 25 61  1  0  0  0  0
 25 62  1  0  0  0  0
 27 63  1  0  0  0  0
 27 64  1  0  0  0  0
 27 65  1  0  0  0  0
 28 66  1  0  0  0  0
 28 67  1  0  0  0  0
 28 68  1  0  0  0  0
 29 69  1  0  0  0  0
 29 70  1  0  0  0  0
 29 71  1  0  0  0  0
 30 31  1  0  0  0  0
 30 72  1  0  0  0  0
 30 73  1  0  0  0  0
 31 32  1  0  0  0  0
 31 74  1  0  0  0  0
 32 33  1  0  0  0  0
 32 34  1  0  0  0  0
 33 76  1  0  0  0  0
 33 77  1  0  0  0  0
 33 78  1  0  0  0  0
 34 79  1  0  0  0  0
 34 80  1  0  0  0  0
 34 81  1  0  0  0  0
M  END
> <PUBCHEM_COMPOUND_CID>
475410

> <PUBCHEM_CONFORMER_RMSD>
1

> <PUBCHEM_CONFORMER_DIVERSEORDER>
2
6
5
4
3
1

> <PUBCHEM_MMFF94_PARTIAL_CHARGES>
18
1 -0.57
11 0.14
13 -0.28
15 0.14
19 0.06
2 -0.57
20 0.06
21 0.49
25 0.06
26 0.45
3 -0.68
31 0.28
32 0.28
4 -0.68
6 0.14
75 0.4
82 0.4
9 -0.12

> <PUBCHEM_EFFECTIVE_ROTOR_COUNT>
6.8

> <PUBCHEM_PHARMACOPHORE_FEATURES>
13
1 1 acceptor
1 2 acceptor
1 27 hydrophobe
1 3 acceptor
1 3 donor
1 4 acceptor
1 4 donor
3 19 28 29 hydrophobe
3 32 33 34 hydrophobe
5 5 6 7 8 12 rings
6 11 14 19 22 25 26 rings
6 5 6 9 10 13 15 rings
6 9 11 13 14 20 21 rings

> <PUBCHEM_HEAVY_ATOM_COUNT>
34

> <PUBCHEM_ATOM_DEF_STEREO_COUNT>
7

> <PUBCHEM_ATOM_UDEF_STEREO_COUNT>
0

> <PUBCHEM_BOND_DEF_STEREO_COUNT>
0

> <PUBCHEM_BOND_UDEF_STEREO_COUNT>
0

> <PUBCHEM_ISOTOPIC_ATOM_COUNT>
0

> <PUBCHEM_COMPONENT_COUNT>
1

> <PUBCHEM_CACTVS_TAUTO_COUNT>
10

> <PUBCHEM_CONFORMER_ID>
0007411200000002

> <PUBCHEM_MMFF94_ENERGY>
130.4897

> <PUBCHEM_FEATURE_SELFOVERLAP>
66.069

> <PUBCHEM_SHAPE_FINGERPRINT>
10076449 9 18335707160949182497
10670039 82 18187085022781607932
10906281 52 17458347390503839121
10940486 97 17822859821690932975
11007060 377 18333452057746828681
11578080 2 17097194040154338327
11991303 11 18270680990562725798
12011746 2 18410003351897169929
12166972 35 15338829898002514370
12236239 1 16515394158392130801
12539765 74 16009028341774941226
13533116 47 16128654163837888922
13540713 4 18194963174387522376
13782708 43 17275383226634627086
13914758 101 16415489228656423059
14117953 113 18260255357632314693
14294032 229 17677607562772877636
14840074 17 16225763025674920846
14849402 71 14273747264979397495
14856354 85 17676211298821642035
14931854 50 18411132515678529153
15131766 46 15502667056806788142
15183329 4 18186525397781109212
15198563 99 18200597990965789952
15276724 80 15864061053720287886
15629462 23 17561090159371425441
16994733 274 15574710300821065708
17980427 23 16515686590083699429
18603816 31 15195273262371652133
18681886 176 18338222868917500305
19841028 212 15410346447090208966
19958102 18 18341056229416034606
20105231 36 18335991934445673531
2026 5 16917074321883620126
21267235 1 18336267929106599315
21279426 13 18410009974673664304
21682296 61 17632304453955538630
21792934 111 10159434105809668442
21792961 116 18411143503017534946
22122407 14 14996294591147415172
2215653 11 18202003227186471634
23559900 14 18341888636257409648
23569943 247 17059782091915558006
23576562 1 17605000384360323332
335352 9 18261103097707122461
3383291 50 17846494842353822750
4058900 60 17603585184030746922
4169191 19 14057004909877228455
437815 12 18202566181303517944
445580 37 18113057129602110149
5265222 85 18114749346817253306
58902169 19 16950567701461557382
59755656 215 18409445873779855090
6328613 192 17457782297298556708
6608658 132 17458345187160015940
9953998 17 8214141850059377886

> <PUBCHEM_SHAPE_MULTIPOLES>
676.23
21.3
2.23
1.91
23.26
0.03
0.37
4.29
13.06
-0.61
-0.18
0.53
0.18
2.25

> <PUBCHEM_SHAPE_SELFOVERLAP>
1425.141

> <PUBCHEM_SHAPE_VOLUME>
380.2

> <PUBCHEM_COORDINATE_TYPE>
2
5
10

$$$$
