11203394
  -OEChem-09122003303D

 82 85  0     1  0  0  0  0  0999 V2000
    1.2114   -2.5609   -0.5475 O   0  0  0  0  0  0  0  0  0  0  0  0
   -1.2714    2.8213   -1.6373 O   0  0  0  0  0  0  0  0  0  0  0  0
    0.9912    3.4057   -0.2490 O   0  0  0  0  0  0  0  0  0  0  0  0
   -7.3608   -0.2084    1.3215 O   0  0  0  0  0  0  0  0  0  0  0  0
   -1.3853   -2.6257    0.1000 O   0  0  0  0  0  0  0  0  0  0  0  0
    0.1840   -3.9255    1.0079 O   0  0  0  0  0  0  0  0  0  0  0  0
    6.8222    1.7958    0.6298 O   0  0  0  0  0  0  0  0  0  0  0  0
    7.7476   -0.1232    1.5145 O   0  0  0  0  0  0  0  0  0  0  0  0
    1.1506   -0.1065   -0.5532 C   0  0  1  0  0  0  0  0  0  0  0  0
    0.4016    1.0557    0.1807 C   0  0  2  0  0  0  0  0  0  0  0  0
   -3.2677   -0.3725   -0.1854 C   0  0  1  0  0  0  0  0  0  0  0  0
   -3.9114    1.0164    0.2170 C   0  0  2  0  0  0  0  0  0  0  0  0
    2.6461    0.2363   -0.3004 C   0  0  2  0  0  0  0  0  0  0  0  0
   -1.0800    0.9579   -0.1423 C   0  0  0  0  0  0  0  0  0  0  0  0
   -1.7186   -0.2434   -0.0738 C   0  0  0  0  0  0  0  0  0  0  0  0
   -5.4792    1.0809    0.3688 C   0  0  0  0  0  0  0  0  0  0  0  0
    0.6636   -1.4124    0.0783 C   0  0  1  0  0  0  0  0  0  0  0  0
   -3.3200    2.1255   -0.6573 C   0  0  0  0  0  0  0  0  0  0  0  0
   -1.8104    2.2473   -0.4452 C   0  0  2  0  0  0  0  0  0  0  0  0
    2.7147    1.7524   -0.5629 C   0  0  0  0  0  0  0  0  0  0  0  0
   -3.8587   -1.4349    0.7834 C   0  0  0  0  0  0  0  0  0  0  0  0
    1.3070    2.2228   -0.2423 C   0  0  0  0  0  0  0  0  0  0  0  0
   -0.8675   -1.5096    0.0517 C   0  0  0  0  0  0  0  0  0  0  0  0
   -5.9395   -0.0859    1.2865 C   0  0  2  0  0  0  0  0  0  0  0  0
    3.6894   -0.5198   -1.1161 C   0  0  1  0  0  0  0  0  0  0  0  0
    0.8730   -0.1177   -2.0950 C   0  0  0  0  0  0  0  0  0  0  0  0
    0.5067    1.0799    1.7342 C   0  0  0  0  0  0  0  0  0  0  0  0
   -5.3819   -1.4347    0.8596 C   0  0  0  0  0  0  0  0  0  0  0  0
   -3.5362   -0.8080   -1.6437 C   0  0  0  0  0  0  0  0  0  0  0  0
   -5.8691    2.4107    1.0777 C   0  0  0  0  0  0  0  0  0  0  0  0
   -6.2458    1.0782   -0.9698 C   0  0  0  0  0  0  0  0  0  0  0  0
    5.1013   -0.0026   -0.7774 C   0  0  0  0  0  0  0  0  0  0  0  0
    3.5524   -2.0253   -0.8724 C   0  0  0  0  0  0  0  0  0  0  0  0
    5.4521   -0.1037    0.7082 C   0  0  0  0  0  0  0  0  0  0  0  0
    0.8907   -3.7637    0.0223 C   0  0  0  0  0  0  0  0  0  0  0  0
    6.8139    0.4828    1.0073 C   0  0  0  0  0  0  0  0  0  0  0  0
    1.5353   -4.8811   -0.7407 C   0  0  0  0  0  0  0  0  0  0  0  0
    8.0486    2.4960    0.8623 C   0  0  0  0  0  0  0  0  0  0  0  0
   -3.5419    1.2161    1.2384 H   0  0  0  0  0  0  0  0  0  0  0  0
    2.8314    0.0506    0.7627 H   0  0  0  0  0  0  0  0  0  0  0  0
    0.9678   -1.4458    1.1322 H   0  0  0  0  0  0  0  0  0  0  0  0
   -3.5547    1.9644   -1.7155 H   0  0  0  0  0  0  0  0  0  0  0  0
   -3.7570    3.1021   -0.4244 H   0  0  0  0  0  0  0  0  0  0  0  0
   -1.6331    2.9518    0.3761 H   0  0  0  0  0  0  0  0  0  0  0  0
    3.4270    2.2445    0.1047 H   0  0  0  0  0  0  0  0  0  0  0  0
    2.9368    1.9956   -1.6061 H   0  0  0  0  0  0  0  0  0  0  0  0
   -3.4514   -1.2816    1.7917 H   0  0  0  0  0  0  0  0  0  0  0  0
   -3.5797   -2.4484    0.4816 H   0  0  0  0  0  0  0  0  0  0  0  0
   -5.6112    0.1171    2.3145 H   0  0  0  0  0  0  0  0  0  0  0  0
    3.5515   -0.3367   -2.1888 H   0  0  0  0  0  0  0  0  0  0  0  0
    1.1575    0.8225   -2.5776 H   0  0  0  0  0  0  0  0  0  0  0  0
    1.4183   -0.9222   -2.5978 H   0  0  0  0  0  0  0  0  0  0  0  0
   -0.1817   -0.2836   -2.3342 H   0  0  0  0  0  0  0  0  0  0  0  0
    1.5399    1.1066    2.0950 H   0  0  0  0  0  0  0  0  0  0  0  0
    0.0119    0.2284    2.2131 H   0  0  0  0  0  0  0  0  0  0  0  0
    0.0265    1.9843    2.1314 H   0  0  0  0  0  0  0  0  0  0  0  0
   -5.7007   -2.2005    1.5791 H   0  0  0  0  0  0  0  0  0  0  0  0
   -5.8211   -1.7506   -0.0936 H   0  0  0  0  0  0  0  0  0  0  0  0
   -4.5903   -0.9821   -1.8518 H   0  0  0  0  0  0  0  0  0  0  0  0
   -3.0299   -1.7546   -1.8706 H   0  0  0  0  0  0  0  0  0  0  0  0
   -3.1680   -0.0788   -2.3725 H   0  0  0  0  0  0  0  0  0  0  0  0
   -5.2972    2.5516    2.0016 H   0  0  0  0  0  0  0  0  0  0  0  0
   -5.7018    3.2835    0.4391 H   0  0  0  0  0  0  0  0  0  0  0  0
   -6.9316    2.4182    1.3480 H   0  0  0  0  0  0  0  0  0  0  0  0
   -7.3017    1.3338   -0.8170 H   0  0  0  0  0  0  0  0  0  0  0  0
   -6.2421    0.1055   -1.4608 H   0  0  0  0  0  0  0  0  0  0  0  0
   -5.8455    1.8165   -1.6710 H   0  0  0  0  0  0  0  0  0  0  0  0
    5.8432   -0.5685   -1.3567 H   0  0  0  0  0  0  0  0  0  0  0  0
    5.2044    1.0325   -1.1240 H   0  0  0  0  0  0  0  0  0  0  0  0
    2.9667   -2.4940   -1.6643 H   0  0  0  0  0  0  0  0  0  0  0  0
    3.2978   -2.2785    0.1592 H   0  0  0  0  0  0  0  0  0  0  0  0
    4.5373   -2.4923   -1.0194 H   0  0  0  0  0  0  0  0  0  0  0  0
   -1.3588    2.1683   -2.3531 H   0  0  0  0  0  0  0  0  0  0  0  0
   -7.5824   -0.9072    1.9602 H   0  0  0  0  0  0  0  0  0  0  0  0
    4.7513    0.4298    1.3562 H   0  0  0  0  0  0  0  0  0  0  0  0
    5.4619   -1.1513    1.0286 H   0  0  0  0  0  0  0  0  0  0  0  0
    2.6053   -4.9099   -0.5237 H   0  0  0  0  0  0  0  0  0  0  0  0
    1.3633   -4.7507   -1.8125 H   0  0  0  0  0  0  0  0  0  0  0  0
    1.0836   -5.8307   -0.4398 H   0  0  0  0  0  0  0  0  0  0  0  0
    8.8617    2.0341    0.2944 H   0  0  0  0  0  0  0  0  0  0  0  0
    7.9219    3.5261    0.5191 H   0  0  0  0  0  0  0  0  0  0  0  0
    8.2810    2.5079    1.9314 H   0  0  0  0  0  0  0  0  0  0  0  0
  1 17  1  0  0  0  0
  1 35  1  0  0  0  0
  2 19  1  0  0  0  0
  2 73  1  0  0  0  0
  3 22  2  0  0  0  0
  4 24  1  0  0  0  0
  4 74  1  0  0  0  0
  5 23  2  0  0  0  0
  6 35  2  0  0  0  0
  7 36  1  0  0  0  0
  7 38  1  0  0  0  0
  8 36  2  0  0  0  0
  9 10  1  0  0  0  0
  9 13  1  0  0  0  0
  9 17  1  0  0  0  0
  9 26  1  0  0  0  0
 10 14  1  0  0  0  0
 10 22  1  0  0  0  0
 10 27  1  0  0  0  0
 11 12  1  0  0  0  0
 11 15  1  0  0  0  0
 11 21  1  0  0  0  0
 11 29  1  0  0  0  0
 12 16  1  0  0  0  0
 12 18  1  0  0  0  0
 12 39  1  0  0  0  0
 13 20  1  0  0  0  0
 13 25  1  0  0  0  0
 13 40  1  0  0  0  0
 14 15  2  0  0  0  0
 14 19  1  0  0  0  0
 15 23  1  0  0  0  0
 16 24  1  0  0  0  0
 16 30  1  0  0  0  0
 16 31  1  0  0  0  0
 17 23  1  0  0  0  0
 17 41  1  0  0  0  0
 18 19  1  0  0  0  0
 18 42  1  0  0  0  0
 18 43  1  0  0  0  0
 19 44  1  0  0  0  0
 20 22  1  0  0  0  0
 20 45  1  0  0  0  0
 20 46  1  0  0  0  0
 21 28  1  0  0  0  0
 21 47  1  0  0  0  0
 21 48  1  0  0  0  0
 24 28  1  0  0  0  0
 24 49  1  0  0  0  0
 25 32  1  0  0  0  0
 25 33  1  0  0  0  0
 25 50  1  0  0  0  0
 26 51  1  0  0  0  0
 26 52  1  0  0  0  0
 26 53  1  0  0  0  0
 27 54  1  0  0  0  0
 27 55  1  0  0  0  0
 27 56  1  0  0  0  0
 28 57  1  0  0  0  0
 28 58  1  0  0  0  0
 29 59  1  0  0  0  0
 29 60  1  0  0  0  0
 29 61  1  0  0  0  0
 30 62  1  0  0  0  0
 30 63  1  0  0  0  0
 30 64  1  0  0  0  0
 31 65  1  0  0  0  0
 31 66  1  0  0  0  0
 31 67  1  0  0  0  0
 32 34  1  0  0  0  0
 32 68  1  0  0  0  0
 32 69  1  0  0  0  0
 33 70  1  0  0  0  0
 33 71  1  0  0  0  0
 33 72  1  0  0  0  0
 34 36  1  0  0  0  0
 34 75  1  0  0  0  0
 34 76  1  0  0  0  0
 35 37  1  0  0  0  0
 37 77  1  0  0  0  0
 37 78  1  0  0  0  0
 37 79  1  0  0  0  0
 38 80  1  0  0  0  0
 38 81  1  0  0  0  0
 38 82  1  0  0  0  0
M  END
> <PUBCHEM_COMPOUND_CID>
11203394

> <PUBCHEM_CONFORMER_RMSD>
1

> <PUBCHEM_CONFORMER_DIVERSEORDER>
4
2
3
1

> <PUBCHEM_MMFF94_PARTIAL_CHARGES>
25
1 -0.43
10 0.2
11 0.14
14 -0.28
15 -0.12
17 0.34
19 0.42
2 -0.68
20 0.06
22 0.45
23 0.49
24 0.28
3 -0.57
34 0.06
35 0.66
36 0.66
37 0.06
38 0.28
4 -0.68
5 -0.57
6 -0.57
7 -0.43
73 0.4
74 0.4
8 -0.57

> <PUBCHEM_EFFECTIVE_ROTOR_COUNT>
8.8

> <PUBCHEM_PHARMACOPHORE_FEATURES>
14
1 2 acceptor
1 2 donor
1 3 acceptor
1 33 hydrophobe
1 4 acceptor
1 4 donor
1 5 acceptor
1 6 acceptor
1 8 acceptor
3 16 30 31 hydrophobe
5 9 10 13 20 22 rings
6 11 12 14 15 18 19 rings
6 11 12 16 21 24 28 rings
6 9 10 14 15 17 23 rings

> <PUBCHEM_HEAVY_ATOM_COUNT>
38

> <PUBCHEM_ATOM_DEF_STEREO_COUNT>
9

> <PUBCHEM_ATOM_UDEF_STEREO_COUNT>
0

> <PUBCHEM_BOND_DEF_STEREO_COUNT>
0

> <PUBCHEM_BOND_UDEF_STEREO_COUNT>
0

> <PUBCHEM_ISOTOPIC_ATOM_COUNT>
0

> <PUBCHEM_COMPONENT_COUNT>
1

> <PUBCHEM_CACTVS_TAUTO_COUNT>
4

> <PUBCHEM_CONFORMER_ID>
00AAF34200000004

> <PUBCHEM_MMFF94_ENERGY>
159.0706

> <PUBCHEM_FEATURE_SELFOVERLAP>
71.214

> <PUBCHEM_SHAPE_FINGERPRINT>
10 15 18408603686796722880
10675989 125 16893123410793227189
10906281 52 18341338894167050460
10939801 23 18261955258559390680
1100329 8 18337673147779523506
11135926 11 18338791226260965159
11136131 41 18188486852688861099
11445158 3 17822293538926825772
12035758 1 18410858789028639840
12107698 1 15936414446181846397
12838862 33 18337377280525991029
13140716 1 18265618873524676499
13402501 40 18335428950079103199
13782708 43 12685092592425048432
13811026 1 18409446985738268503
14028597 1 17775013344899809803
14394314 77 18410292497417082624
14466204 15 18409730655527735128
14790565 3 18336842969140413821
15274700 242 18339624695236342854
16728300 4 17315049114320084146
16994733 274 16487256547614650138
17909252 39 17980776938796832838
18393751 57 18335698369256895122
18608769 82 18340488962904540363
19591789 44 18337117873017225175
20028762 73 18270966851001576191
20511986 3 17846211108028635349
21130935 74 18340773645573195603
21521721 280 18272936020470540880
22149856 69 18193863486840296849
23559900 14 18408323272793017657
24771293 8 18271805761283058572
25019877 29 18341894104178123870
3178227 256 18335994137657810089
3383291 50 18261110824480525802
350125 39 18409172129369958309
4093350 32 16845580777426447236
4340502 62 18412265017525202974
5104073 3 18266460910531866794
5265222 85 18193292986133623214
59755656 215 18263371308543633175
6669772 16 18272371954010752430
7226269 152 18131351929557729144

> <PUBCHEM_SHAPE_MULTIPOLES>
735.07
16.69
4.1
1.39
11.46
3.91
0.12
-9.01
-7.53
1.82
0.22
-0.09
-0.13
1.29

> <PUBCHEM_SHAPE_SELFOVERLAP>
1566.659

> <PUBCHEM_SHAPE_VOLUME>
404.3

> <PUBCHEM_COORDINATE_TYPE>
2
5
10

$$$$
