46830516
  -OEChem-09122005383D

 78 81  0     1  0  0  0  0  0999 V2000
    0.2795    0.8454   -2.9086 O   0  0  0  0  0  0  0  0  0  0  0  0
   -7.2748    0.6472    2.1575 O   0  0  0  0  0  0  0  0  0  0  0  0
    8.8341    1.8865    1.4832 O   0  0  0  0  0  0  0  0  0  0  0  0
    9.0675    0.2484   -0.0721 O   0  0  0  0  0  0  0  0  0  0  0  0
    0.5290   -0.9208   -0.4234 C   0  0  1  0  0  0  0  0  0  0  0  0
   -0.0726    0.5276   -0.4869 C   0  0  1  0  0  0  0  0  0  0  0  0
    2.0474   -0.6266   -0.4322 C   0  0  2  0  0  0  0  0  0  0  0  0
    0.7807    1.1658   -1.6158 C   0  0  1  0  0  0  0  0  0  0  0  0
    2.1898    0.5417   -1.4433 C   0  0  0  0  0  0  0  0  0  0  0  0
   -1.5975    0.4581   -0.5809 C   0  0  0  0  0  0  0  0  0  0  0  0
   -3.8160   -0.6715    0.1764 C   0  0  2  0  0  0  0  0  0  0  0  0
   -0.0015   -1.6141    0.8425 C   0  0  0  0  0  0  0  0  0  0  0  0
   -2.2579   -0.6060    0.2217 C   0  0  0  0  0  0  0  0  0  0  0  0
   -4.3831    0.7867    0.0076 C   0  0  2  0  0  0  0  0  0  0  0  0
    2.9728   -1.7965   -0.7468 C   0  0  1  0  0  0  0  0  0  0  0  0
    0.1604   -1.8206   -1.6488 C   0  0  0  0  0  0  0  0  0  0  0  0
    0.2024    1.3917    0.7925 C   0  0  0  0  0  0  0  0  0  0  0  0
   -1.5095   -1.5078    0.9042 C   0  0  0  0  0  0  0  0  0  0  0  0
   -5.9322    0.9874    0.1597 C   0  0  0  0  0  0  0  0  0  0  0  0
   -3.8024    1.4488   -1.2595 C   0  0  0  0  0  0  0  0  0  0  0  0
   -2.3090    1.3530   -1.2888 C   0  0  0  0  0  0  0  0  0  0  0  0
   -4.4134   -1.2629    1.4833 C   0  0  0  0  0  0  0  0  0  0  0  0
   -4.1465   -1.6195   -1.0024 C   0  0  0  0  0  0  0  0  0  0  0  0
    4.4629   -1.3996   -0.7240 C   0  0  0  0  0  0  0  0  0  0  0  0
   -5.9315   -1.2123    1.5460 C   0  0  0  0  0  0  0  0  0  0  0  0
   -6.4305    0.1992    1.3795 C   0  0  0  0  0  0  0  0  0  0  0  0
    2.7327   -2.9346    0.2507 C   0  0  0  0  0  0  0  0  0  0  0  0
   -6.2299    2.4874    0.4165 C   0  0  0  0  0  0  0  0  0  0  0  0
   -6.7738    0.5678   -1.0546 C   0  0  0  0  0  0  0  0  0  0  0  0
    4.9185   -0.8302    0.6226 C   0  0  0  0  0  0  0  0  0  0  0  0
    6.3696   -0.4336    0.5794 C   0  0  0  0  0  0  0  0  0  0  0  0
    6.8805    0.7921    0.8006 C   0  0  0  0  0  0  0  0  0  0  0  0
    6.0944    2.0065    1.1973 C   0  0  0  0  0  0  0  0  0  0  0  0
    8.3599    0.9154    0.6670 C   0  0  0  0  0  0  0  0  0  0  0  0
    2.3026   -0.2508    0.5639 H   0  0  0  0  0  0  0  0  0  0  0  0
    0.8217    2.2585   -1.5458 H   0  0  0  0  0  0  0  0  0  0  0  0
    2.5860    0.2032   -2.4072 H   0  0  0  0  0  0  0  0  0  0  0  0
    2.8857    1.2849   -1.0372 H   0  0  0  0  0  0  0  0  0  0  0  0
    0.2262   -2.6820    0.8488 H   0  0  0  0  0  0  0  0  0  0  0  0
    0.4300   -1.1987    1.7596 H   0  0  0  0  0  0  0  0  0  0  0  0
   -3.9544    1.3447    0.8595 H   0  0  0  0  0  0  0  0  0  0  0  0
    2.7781   -2.1837   -1.7543 H   0  0  0  0  0  0  0  0  0  0  0  0
    0.6929   -1.5327   -2.5599 H   0  0  0  0  0  0  0  0  0  0  0  0
   -0.9064   -1.7906   -1.8894 H   0  0  0  0  0  0  0  0  0  0  0  0
    0.4018   -2.8727   -1.4701 H   0  0  0  0  0  0  0  0  0  0  0  0
   -0.2202    2.3977    0.6682 H   0  0  0  0  0  0  0  0  0  0  0  0
   -0.2502    0.9738    1.6976 H   0  0  0  0  0  0  0  0  0  0  0  0
    1.2672    1.5356    0.9977 H   0  0  0  0  0  0  0  0  0  0  0  0
   -1.9834   -2.2836    1.4966 H   0  0  0  0  0  0  0  0  0  0  0  0
   -4.2073    1.0129   -2.1781 H   0  0  0  0  0  0  0  0  0  0  0  0
   -4.0580    2.5132   -1.2725 H   0  0  0  0  0  0  0  0  0  0  0  0
   -1.8012    2.1227   -1.8631 H   0  0  0  0  0  0  0  0  0  0  0  0
   -4.1199   -2.3122    1.6077 H   0  0  0  0  0  0  0  0  0  0  0  0
   -4.0086   -0.7158    2.3462 H   0  0  0  0  0  0  0  0  0  0  0  0
   -5.2103   -1.8332   -1.0955 H   0  0  0  0  0  0  0  0  0  0  0  0
   -3.6577   -2.5931   -0.8670 H   0  0  0  0  0  0  0  0  0  0  0  0
   -3.8028   -1.2280   -1.9653 H   0  0  0  0  0  0  0  0  0  0  0  0
    4.6575   -0.6644   -1.5151 H   0  0  0  0  0  0  0  0  0  0  0  0
    5.0728   -2.2772   -0.9776 H   0  0  0  0  0  0  0  0  0  0  0  0
   -6.3998   -1.8466    0.7884 H   0  0  0  0  0  0  0  0  0  0  0  0
   -6.2609   -1.5830    2.5237 H   0  0  0  0  0  0  0  0  0  0  0  0
    0.8758    1.2497   -3.5615 H   0  0  0  0  0  0  0  0  0  0  0  0
    3.5819   -3.6290    0.2510 H   0  0  0  0  0  0  0  0  0  0  0  0
    2.6123   -2.5769    1.2781 H   0  0  0  0  0  0  0  0  0  0  0  0
    1.8733   -3.5470   -0.0260 H   0  0  0  0  0  0  0  0  0  0  0  0
   -6.4799    1.1047   -1.9616 H   0  0  0  0  0  0  0  0  0  0  0  0
   -7.8349    0.7882   -0.8814 H   0  0  0  0  0  0  0  0  0  0  0  0
   -6.7264   -0.5013   -1.2597 H   0  0  0  0  0  0  0  0  0  0  0  0
   -5.9706    3.1110   -0.4444 H   0  0  0  0  0  0  0  0  0  0  0  0
   -5.6767    2.8586    1.2870 H   0  0  0  0  0  0  0  0  0  0  0  0
   -7.2946    2.6572    0.6178 H   0  0  0  0  0  0  0  0  0  0  0  0
    4.8119   -1.5894    1.4060 H   0  0  0  0  0  0  0  0  0  0  0  0
    4.3006    0.0143    0.9258 H   0  0  0  0  0  0  0  0  0  0  0  0
    7.0452   -1.2514    0.3308 H   0  0  0  0  0  0  0  0  0  0  0  0
    6.1416    2.1535    2.2809 H   0  0  0  0  0  0  0  0  0  0  0  0
    6.5012    2.9002    0.7108 H   0  0  0  0  0  0  0  0  0  0  0  0
    5.0443    1.9544    0.9000 H   0  0  0  0  0  0  0  0  0  0  0  0
    9.8072    1.9858    1.4089 H   0  0  0  0  0  0  0  0  0  0  0  0
  1  8  1  0  0  0  0
  1 62  1  0  0  0  0
  2 26  2  0  0  0  0
  3 34  1  0  0  0  0
  3 78  1  0  0  0  0
  4 34  2  0  0  0  0
  5  6  1  0  0  0  0
  5  7  1  0  0  0  0
  5 12  1  0  0  0  0
  5 16  1  0  0  0  0
  6  8  1  0  0  0  0
  6 10  1  0  0  0  0
  6 17  1  0  0  0  0
  7  9  1  0  0  0  0
  7 15  1  0  0  0  0
  7 35  1  0  0  0  0
  8  9  1  0  0  0  0
  8 36  1  0  0  0  0
  9 37  1  0  0  0  0
  9 38  1  0  0  0  0
 10 13  1  0  0  0  0
 10 21  2  0  0  0  0
 11 13  1  0  0  0  0
 11 14  1  0  0  0  0
 11 22  1  0  0  0  0
 11 23  1  0  0  0  0
 12 18  1  0  0  0  0
 12 39  1  0  0  0  0
 12 40  1  0  0  0  0
 13 18  2  0  0  0  0
 14 19  1  0  0  0  0
 14 20  1  0  0  0  0
 14 41  1  0  0  0  0
 15 24  1  0  0  0  0
 15 27  1  0  0  0  0
 15 42  1  0  0  0  0
 16 43  1  0  0  0  0
 16 44  1  0  0  0  0
 16 45  1  0  0  0  0
 17 46  1  0  0  0  0
 17 47  1  0  0  0  0
 17 48  1  0  0  0  0
 18 49  1  0  0  0  0
 19 26  1  0  0  0  0
 19 28  1  0  0  0  0
 19 29  1  0  0  0  0
 20 21  1  0  0  0  0
 20 50  1  0  0  0  0
 20 51  1  0  0  0  0
 21 52  1  0  0  0  0
 22 25  1  0  0  0  0
 22 53  1  0  0  0  0
 22 54  1  0  0  0  0
 23 55  1  0  0  0  0
 23 56  1  0  0  0  0
 23 57  1  0  0  0  0
 24 30  1  0  0  0  0
 24 58  1  0  0  0  0
 24 59  1  0  0  0  0
 25 26  1  0  0  0  0
 25 60  1  0  0  0  0
 25 61  1  0  0  0  0
 27 63  1  0  0  0  0
 27 64  1  0  0  0  0
 27 65  1  0  0  0  0
 28 69  1  0  0  0  0
 28 70  1  0  0  0  0
 28 71  1  0  0  0  0
 29 66  1  0  0  0  0
 29 67  1  0  0  0  0
 29 68  1  0  0  0  0
 30 31  1  0  0  0  0
 30 72  1  0  0  0  0
 30 73  1  0  0  0  0
 31 32  2  0  0  0  0
 31 74  1  0  0  0  0
 32 33  1  0  0  0  0
 32 34  1  0  0  0  0
 33 75  1  0  0  0  0
 33 76  1  0  0  0  0
 33 77  1  0  0  0  0
M  END
> <PUBCHEM_COMPOUND_CID>
46830516

> <PUBCHEM_CONFORMER_RMSD>
1

> <PUBCHEM_CONFORMER_DIVERSEORDER>
3
14
10
6
8
12
5
7
1
11
9
4
2
13

> <PUBCHEM_MMFF94_PARTIAL_CHARGES>
26
1 -0.68
10 -0.14
11 0.14
12 0.14
13 -0.14
18 -0.29
19 0.06
2 -0.57
20 0.14
21 -0.29
25 0.06
26 0.45
3 -0.65
30 0.14
31 -0.29
32 -0.12
33 0.14
34 0.71
4 -0.57
49 0.15
52 0.15
6 0.14
62 0.4
74 0.15
78 0.5
8 0.28

> <PUBCHEM_EFFECTIVE_ROTOR_COUNT>
6.6

> <PUBCHEM_PHARMACOPHORE_FEATURES>
14
1 1 acceptor
1 1 donor
1 2 acceptor
1 27 hydrophobe
1 3 acceptor
1 33 hydrophobe
1 4 acceptor
3 19 28 29 hydrophobe
3 3 4 34 anion
4 15 24 30 31 hydrophobe
5 5 6 7 8 9 rings
6 10 11 13 14 20 21 rings
6 11 14 19 22 25 26 rings
6 5 6 10 12 13 18 rings

> <PUBCHEM_HEAVY_ATOM_COUNT>
34

> <PUBCHEM_ATOM_DEF_STEREO_COUNT>
7

> <PUBCHEM_ATOM_UDEF_STEREO_COUNT>
0

> <PUBCHEM_BOND_DEF_STEREO_COUNT>
1

> <PUBCHEM_BOND_UDEF_STEREO_COUNT>
0

> <PUBCHEM_ISOTOPIC_ATOM_COUNT>
0

> <PUBCHEM_COMPONENT_COUNT>
1

> <PUBCHEM_CACTVS_TAUTO_COUNT>
2

> <PUBCHEM_CONFORMER_ID>
02CA93B400000003

> <PUBCHEM_MMFF94_ENERGY>
127.1762

> <PUBCHEM_FEATURE_SELFOVERLAP>
71.205

> <PUBCHEM_SHAPE_FINGERPRINT>
10 15 18335419058690312346
10533779 47 18335989658587780218
10670039 82 13398636039036912954
10930396 42 17023170674747161380
11315181 36 18273210894667988789
12011746 2 11023818449489065679
12035758 1 17967256394411542302
12120059 9 17095512981755782587
12166972 35 13406801029601680534
12838862 33 17676759891374243165
13782708 43 12613043789984585465
13811026 1 18259703376233939479
14251764 18 16153432761802096710
14394314 77 17749105556678166545
14840074 17 16702299035790530352
14849402 71 17989486346541325537
14856354 85 15195276552063704349
15131766 46 17774142644262119560
15183329 4 17603875476944522239
15301273 46 18335143068845891462
15461852 350 17846490461766132407
18393751 57 18114459050779641386
18603816 31 14129351714798354737
19315958 150 18272376325976268207
19841028 212 14779813916177469384
2026 5 11602810286234740536
21033648 29 18408891719508226875
21130935 74 18335143029622084683
21521721 280 18201721725870699874
22224240 67 18409443700858784106
23559900 14 17894635829884126181
23576562 1 14260483881819607496
24771293 8 18408040710598529844
3004659 81 17023482875386969886
3383291 50 16877667880593451338
350125 39 17967827011556775173
397830 11 18411421730328926606
4093350 32 17703797981549112758
4169191 19 18131633370158942089
4339292 15 16226333716167043595
4340502 62 18335140873780077414
4403749 210 18342734144010430015
504579 68 14620795990163085416
5104073 3 18115585924958089442
57527293 21 18201710704964020006
59682541 35 18334296487304029122
9953998 17 18335420179270464857

> <PUBCHEM_SHAPE_MULTIPOLES>
676.23
22.34
2.3
1.76
30.29
0.35
0.35
-10.14
-11.73
0.53
-0.13
-0.98
-0.28
1.81

> <PUBCHEM_SHAPE_SELFOVERLAP>
1432.696

> <PUBCHEM_SHAPE_VOLUME>
375.5

> <PUBCHEM_COORDINATE_TYPE>
2
5
10

$$$$
