119026222
  -OEChem-09122006123D

 77 80  0     1  0  0  0  0  0999 V2000
    1.6208   -2.8771   -0.4214 O   0  0  0  0  0  0  0  0  0  0  0  0
   -0.9312   -2.6115    1.2535 O   0  0  0  0  0  0  0  0  0  0  0  0
   -1.2607    3.0499   -0.1671 O   0  0  0  0  0  0  0  0  0  0  0  0
   -6.9007    1.0387   -0.4316 O   0  0  0  0  0  0  0  0  0  0  0  0
   -7.2167   -1.1391    0.9593 O   0  0  0  0  0  0  0  0  0  0  0  0
    7.7150   -0.3741   -1.5308 O   0  0  0  0  0  0  0  0  0  0  0  0
    7.8075   -0.6348    0.7595 O   0  0  0  0  0  0  0  0  0  0  0  0
    0.7244   -0.5542   -0.2166 C   0  0  1  0  0  0  0  0  0  0  0  0
    1.3827    0.6717    0.5001 C   0  0  1  0  0  0  0  0  0  0  0  0
    2.8904    0.4300    0.2298 C   0  0  2  0  0  0  0  0  0  0  0  0
    1.6227   -1.6887    0.3531 C   0  0  2  0  0  0  0  0  0  0  0  0
   -0.7905   -0.5241    0.0332 C   0  0  0  0  0  0  0  0  0  0  0  0
   -3.0253    0.7403   -0.0044 C   0  0  1  0  0  0  0  0  0  0  0  0
    3.0521   -1.0996    0.3723 C   0  0  0  0  0  0  0  0  0  0  0  0
   -3.6582   -0.6613   -0.3387 C   0  0  1  0  0  0  0  0  0  0  0  0
   -1.4734    0.6531   -0.0150 C   0  0  0  0  0  0  0  0  0  0  0  0
    0.8332    1.9540   -0.1072 C   0  0  0  0  0  0  0  0  0  0  0  0
   -1.5001   -1.8574    0.1859 C   0  0  2  0  0  0  0  0  0  0  0  0
    3.8781    1.2104    1.0891 C   0  0  1  0  0  0  0  0  0  0  0  0
   -2.9948   -1.7625    0.4839 C   0  0  0  0  0  0  0  0  0  0  0  0
    0.8650   -0.5601   -1.7742 C   0  0  0  0  0  0  0  0  0  0  0  0
    1.1188    0.7132    2.0402 C   0  0  0  0  0  0  0  0  0  0  0  0
   -5.2262   -0.7149   -0.2917 C   0  0  2  0  0  0  0  0  0  0  0  0
   -0.6873    1.9614   -0.0995 C   0  0  0  0  0  0  0  0  0  0  0  0
   -3.5502    1.7427   -1.0868 C   0  0  0  0  0  0  0  0  0  0  0  0
   -3.4260    1.2611    1.3964 C   0  0  0  0  0  0  0  0  0  0  0  0
   -4.9155    1.4287   -1.6930 C   0  0  0  0  0  0  0  0  0  0  0  0
   -5.7813    0.6370   -0.7483 C   0  0  0  0  0  0  0  0  0  0  0  0
    5.2835    0.5775    1.0986 C   0  0  0  0  0  0  0  0  0  0  0  0
    3.9688    2.6581    0.5956 C   0  0  0  0  0  0  0  0  0  0  0  0
   -5.8124   -1.0791    1.0857 C   0  0  0  0  0  0  0  0  0  0  0  0
   -5.7401   -1.7640   -1.3018 C   0  0  0  0  0  0  0  0  0  0  0  0
    5.8924    0.4307   -0.2971 C   0  0  0  0  0  0  0  0  0  0  0  0
    7.2388   -0.2570   -0.2556 C   0  0  0  0  0  0  0  0  0  0  0  0
    8.9964   -0.9993   -1.6552 C   0  0  0  0  0  0  0  0  0  0  0  0
    3.0945    0.6758   -0.8210 H   0  0  0  0  0  0  0  0  0  0  0  0
    1.3384   -1.9561    1.3755 H   0  0  0  0  0  0  0  0  0  0  0  0
    3.5028   -1.3964    1.3244 H   0  0  0  0  0  0  0  0  0  0  0  0
    3.6656   -1.5223   -0.4297 H   0  0  0  0  0  0  0  0  0  0  0  0
   -3.3749   -0.8654   -1.3851 H   0  0  0  0  0  0  0  0  0  0  0  0
    1.1708    2.1085   -1.1372 H   0  0  0  0  0  0  0  0  0  0  0  0
    1.1441    2.8271    0.4731 H   0  0  0  0  0  0  0  0  0  0  0  0
   -1.3540   -2.4281   -0.7393 H   0  0  0  0  0  0  0  0  0  0  0  0
    3.5723    1.2316    2.1396 H   0  0  0  0  0  0  0  0  0  0  0  0
   -3.4471   -2.7383    0.2664 H   0  0  0  0  0  0  0  0  0  0  0  0
   -3.1503   -1.6050    1.5583 H   0  0  0  0  0  0  0  0  0  0  0  0
    0.3881    0.3057   -2.2457 H   0  0  0  0  0  0  0  0  0  0  0  0
    0.3856   -1.4484   -2.2045 H   0  0  0  0  0  0  0  0  0  0  0  0
    1.9060   -0.5779   -2.1101 H   0  0  0  0  0  0  0  0  0  0  0  0
    1.6339   -0.0888    2.5782 H   0  0  0  0  0  0  0  0  0  0  0  0
    0.0570    0.6272    2.2899 H   0  0  0  0  0  0  0  0  0  0  0  0
    1.4550    1.6624    2.4733 H   0  0  0  0  0  0  0  0  0  0  0  0
   -2.8400    1.8109   -1.9217 H   0  0  0  0  0  0  0  0  0  0  0  0
   -3.6104    2.7515   -0.6581 H   0  0  0  0  0  0  0  0  0  0  0  0
   -4.4907    1.5011    1.4583 H   0  0  0  0  0  0  0  0  0  0  0  0
   -2.8986    2.1874    1.6524 H   0  0  0  0  0  0  0  0  0  0  0  0
   -3.1915    0.5396    2.1854 H   0  0  0  0  0  0  0  0  0  0  0  0
   -4.8033    0.8463   -2.6147 H   0  0  0  0  0  0  0  0  0  0  0  0
   -5.4277    2.3576   -1.9671 H   0  0  0  0  0  0  0  0  0  0  0  0
    5.2805   -0.3889    1.6139 H   0  0  0  0  0  0  0  0  0  0  0  0
    5.9499    1.2054    1.7067 H   0  0  0  0  0  0  0  0  0  0  0  0
    2.2495   -3.4952   -0.0113 H   0  0  0  0  0  0  0  0  0  0  0  0
    3.1102    3.2447    0.9266 H   0  0  0  0  0  0  0  0  0  0  0  0
    4.8498    3.1588    1.0135 H   0  0  0  0  0  0  0  0  0  0  0  0
    4.0350    2.7280   -0.4950 H   0  0  0  0  0  0  0  0  0  0  0  0
   -5.5684   -0.3580    1.8682 H   0  0  0  0  0  0  0  0  0  0  0  0
   -5.4789   -2.0656    1.4204 H   0  0  0  0  0  0  0  0  0  0  0  0
   -5.4691   -2.7808   -0.9983 H   0  0  0  0  0  0  0  0  0  0  0  0
   -5.3202   -1.5940   -2.3003 H   0  0  0  0  0  0  0  0  0  0  0  0
   -6.8291   -1.7261   -1.4218 H   0  0  0  0  0  0  0  0  0  0  0  0
   -1.3451   -3.4915    1.2469 H   0  0  0  0  0  0  0  0  0  0  0  0
    6.0477    1.4201   -0.7413 H   0  0  0  0  0  0  0  0  0  0  0  0
    5.2559   -0.1531   -0.9645 H   0  0  0  0  0  0  0  0  0  0  0  0
   -7.5585   -0.2295    0.9468 H   0  0  0  0  0  0  0  0  0  0  0  0
    9.2581   -1.0299   -2.7162 H   0  0  0  0  0  0  0  0  0  0  0  0
    8.9564   -2.0240   -1.2737 H   0  0  0  0  0  0  0  0  0  0  0  0
    9.7549   -0.4174   -1.1230 H   0  0  0  0  0  0  0  0  0  0  0  0
  1 11  1  0  0  0  0
  1 62  1  0  0  0  0
  2 18  1  0  0  0  0
  2 71  1  0  0  0  0
  3 24  2  0  0  0  0
  4 28  2  0  0  0  0
  5 31  1  0  0  0  0
  5 74  1  0  0  0  0
  6 34  1  0  0  0  0
  6 35  1  0  0  0  0
  7 34  2  0  0  0  0
  8  9  1  0  0  0  0
  8 11  1  0  0  0  0
  8 12  1  0  0  0  0
  8 21  1  0  0  0  0
  9 10  1  0  0  0  0
  9 17  1  0  0  0  0
  9 22  1  0  0  0  0
 10 14  1  0  0  0  0
 10 19  1  0  0  0  0
 10 36  1  0  0  0  0
 11 14  1  0  0  0  0
 11 37  1  0  0  0  0
 12 16  2  0  0  0  0
 12 18  1  0  0  0  0
 13 15  1  0  0  0  0
 13 16  1  0  0  0  0
 13 25  1  0  0  0  0
 13 26  1  0  0  0  0
 14 38  1  0  0  0  0
 14 39  1  0  0  0  0
 15 20  1  0  0  0  0
 15 23  1  0  0  0  0
 15 40  1  0  0  0  0
 16 24  1  0  0  0  0
 17 24  1  0  0  0  0
 17 41  1  0  0  0  0
 17 42  1  0  0  0  0
 18 20  1  0  0  0  0
 18 43  1  0  0  0  0
 19 29  1  0  0  0  0
 19 30  1  0  0  0  0
 19 44  1  0  0  0  0
 20 45  1  0  0  0  0
 20 46  1  0  0  0  0
 21 47  1  0  0  0  0
 21 48  1  0  0  0  0
 21 49  1  0  0  0  0
 22 50  1  0  0  0  0
 22 51  1  0  0  0  0
 22 52  1  0  0  0  0
 23 28  1  0  0  0  0
 23 31  1  0  0  0  0
 23 32  1  0  0  0  0
 25 27  1  0  0  0  0
 25 53  1  0  0  0  0
 25 54  1  0  0  0  0
 26 55  1  0  0  0  0
 26 56  1  0  0  0  0
 26 57  1  0  0  0  0
 27 28  1  0  0  0  0
 27 58  1  0  0  0  0
 27 59  1  0  0  0  0
 29 33  1  0  0  0  0
 29 60  1  0  0  0  0
 29 61  1  0  0  0  0
 30 63  1  0  0  0  0
 30 64  1  0  0  0  0
 30 65  1  0  0  0  0
 31 66  1  0  0  0  0
 31 67  1  0  0  0  0
 32 68  1  0  0  0  0
 32 69  1  0  0  0  0
 32 70  1  0  0  0  0
 33 34  1  0  0  0  0
 33 72  1  0  0  0  0
 33 73  1  0  0  0  0
 35 75  1  0  0  0  0
 35 76  1  0  0  0  0
 35 77  1  0  0  0  0
M  END
> <PUBCHEM_COMPOUND_CID>
119026222

> <PUBCHEM_CONFORMER_RMSD>
1

> <PUBCHEM_CONFORMER_DIVERSEORDER>
1
4
7
5
3
8
2
6

> <PUBCHEM_MMFF94_PARTIAL_CHARGES>
25
1 -0.68
11 0.28
12 -0.28
13 0.14
16 -0.12
17 0.06
18 0.42
2 -0.68
23 0.06
24 0.49
27 0.06
28 0.45
3 -0.57
31 0.28
33 0.06
34 0.66
35 0.28
4 -0.57
5 -0.68
6 -0.43
62 0.4
7 -0.57
71 0.4
74 0.4
8 0.14

> <PUBCHEM_EFFECTIVE_ROTOR_COUNT>
7.8

> <PUBCHEM_PHARMACOPHORE_FEATURES>
14
1 1 acceptor
1 1 donor
1 2 acceptor
1 2 donor
1 3 acceptor
1 30 hydrophobe
1 4 acceptor
1 5 acceptor
1 5 donor
1 7 acceptor
5 8 9 10 11 14 rings
6 12 13 15 16 18 20 rings
6 13 15 23 25 27 28 rings
6 8 9 12 16 17 24 rings

> <PUBCHEM_HEAVY_ATOM_COUNT>
35

> <PUBCHEM_ATOM_DEF_STEREO_COUNT>
9

> <PUBCHEM_ATOM_UDEF_STEREO_COUNT>
0

> <PUBCHEM_BOND_DEF_STEREO_COUNT>
0

> <PUBCHEM_BOND_UDEF_STEREO_COUNT>
0

> <PUBCHEM_ISOTOPIC_ATOM_COUNT>
0

> <PUBCHEM_COMPONENT_COUNT>
1

> <PUBCHEM_CACTVS_TAUTO_COUNT>
8

> <PUBCHEM_CONFORMER_ID>
0718322E00000001

> <PUBCHEM_MMFF94_ENERGY>
136.2341

> <PUBCHEM_FEATURE_SELFOVERLAP>
71.156

> <PUBCHEM_SHAPE_FINGERPRINT>
10 15 18188197827639211344
10076449 9 18410299124434932344
10675989 125 17037511304213528789
10906281 52 18337121158498343057
11135926 11 18343578517321443655
11578080 2 17388240256863059165
11963148 33 18336254717297807586
12011746 2 18412539916389999176
12166972 35 17967813881446736132
12236239 1 17022614273647682161
13140716 1 17976260463421062923
13224815 77 18343579647366937659
13402501 40 18409162234207991297
13782708 43 17918272082501061910
13811026 1 18409439315069304001
14117953 113 18408599253857899309
14294032 229 18043814191101588980
14856354 85 15936413363866164827
14955137 171 18338237188264884689
15131766 46 14618794995323471224
15183329 4 18408888421948665818
15461852 350 14996285842488936691
15849732 13 15647052676918466610
16087824 20 18336825274635108285
18608769 82 18261678164175158435
18681886 176 18335133228775356808
19611394 137 17750246970375777971
20105231 36 18410863165342474994
21033648 29 18339060684399469961
21150785 3 16298387976502909178
21267235 1 18409733984053562425
21781051 124 18334864943854131114
21792961 116 18340775858504498738
23559900 14 18411692197156732272
23569917 315 18059860626811002175
23569943 247 17274263825451745038
23576562 1 17532378745141764188
249057 3 18408323307131494740
3004659 81 18187077378050946616
335352 9 18408882949189887068
3383291 50 18131066048366961674
350125 39 18410288095381000416
4093350 32 16988851535734034230
484989 97 18337394936972722312
5104073 3 18262233318920576361
5265222 85 18187931737298118766
59755656 215 18410291394190391766
59755656 520 16805599287191861082

> <PUBCHEM_SHAPE_MULTIPOLES>
679.2
19.57
2.51
1.43
23.65
0.21
-0.11
-4.14
-5.4
-0.74
0.07
0.25
-0.02
1.69

> <PUBCHEM_SHAPE_SELFOVERLAP>
1444.453

> <PUBCHEM_SHAPE_VOLUME>
373.3

> <PUBCHEM_COORDINATE_TYPE>
2
5
10

$$$$
