10366713
  -OEChem-09122005013D

 79 82  0     1  0  0  0  0  0999 V2000
    7.5145    1.4710    1.1232 O   0  0  0  0  0  0  0  0  0  0  0  0
    1.8870   -3.0998    0.0366 O   0  0  0  0  0  0  0  0  0  0  0  0
  -10.0963    0.1970    1.2247 O   0  0  0  0  0  0  0  0  0  0  0  0
   -0.8434    0.1207   -0.7007 C   0  0  1  0  0  0  0  0  0  0  0  0
   -0.0684   -0.9730    0.1191 C   0  0  2  0  0  0  0  0  0  0  0  0
   -2.3132   -0.3154   -0.4959 C   0  0  2  0  0  0  0  0  0  0  0  0
    3.4765    0.7520   -0.3102 C   0  0  2  0  0  0  0  0  0  0  0  0
    1.4316   -0.7630   -0.0416 C   0  0  0  0  0  0  0  0  0  0  0  0
   -0.7598   -2.2452   -0.4211 C   0  0  0  0  0  0  0  0  0  0  0  0
    1.9535    0.4872   -0.1452 C   0  0  0  0  0  0  0  0  0  0  0  0
   -0.4831    1.4944   -0.1361 C   0  0  0  0  0  0  0  0  0  0  0  0
    4.2566   -0.4087    0.3992 C   0  0  2  0  0  0  0  0  0  0  0  0
   -2.2434   -1.8551   -0.6051 C   0  0  0  0  0  0  0  0  0  0  0  0
    1.0411    1.7247   -0.1693 C   0  0  0  0  0  0  0  0  0  0  0  0
    5.8171   -0.2388    0.5592 C   0  0  0  0  0  0  0  0  0  0  0  0
   -3.3516    0.2950   -1.4297 C   0  0  1  0  0  0  0  0  0  0  0  0
   -0.5068    0.1151   -2.2277 C   0  0  0  0  0  0  0  0  0  0  0  0
    3.9035    2.0877    0.3523 C   0  0  0  0  0  0  0  0  0  0  0  0
   -0.3070   -0.9467    1.6600 C   0  0  0  0  0  0  0  0  0  0  0  0
    3.8267   -1.7562   -0.1861 C   0  0  0  0  0  0  0  0  0  0  0  0
    2.3365   -1.9571   -0.0464 C   0  0  0  0  0  0  0  0  0  0  0  0
    6.1186    1.1749    1.1379 C   0  0  2  0  0  0  0  0  0  0  0  0
    5.4119    2.2973    0.3881 C   0  0  0  0  0  0  0  0  0  0  0  0
    3.7153    0.8467   -1.8360 C   0  0  0  0  0  0  0  0  0  0  0  0
   -4.7792   -0.2150   -1.1447 C   0  0  0  0  0  0  0  0  0  0  0  0
    6.3371   -1.2858    1.5860 C   0  0  0  0  0  0  0  0  0  0  0  0
    6.6157   -0.4911   -0.7370 C   0  0  0  0  0  0  0  0  0  0  0  0
   -3.3198    1.8231   -1.3153 C   0  0  0  0  0  0  0  0  0  0  0  0
   -5.2763    0.1262    0.2631 C   0  0  0  0  0  0  0  0  0  0  0  0
   -6.6829   -0.3641    0.4740 C   0  0  0  0  0  0  0  0  0  0  0  0
   -7.7595    0.3850    0.7672 C   0  0  0  0  0  0  0  0  0  0  0  0
   -7.8155    1.8735    0.9052 C   0  0  0  0  0  0  0  0  0  0  0  0
   -9.0371   -0.3564    0.9524 C   0  0  0  0  0  0  0  0  0  0  0  0
   -2.5920   -0.0570    0.5321 H   0  0  0  0  0  0  0  0  0  0  0  0
   -0.6748   -3.1031    0.2553 H   0  0  0  0  0  0  0  0  0  0  0  0
   -0.3352   -2.5534   -1.3840 H   0  0  0  0  0  0  0  0  0  0  0  0
   -0.8437    1.5990    0.8941 H   0  0  0  0  0  0  0  0  0  0  0  0
   -0.9308    2.3242   -0.6838 H   0  0  0  0  0  0  0  0  0  0  0  0
    3.8799   -0.4040    1.4376 H   0  0  0  0  0  0  0  0  0  0  0  0
   -2.5978   -2.2258   -1.5735 H   0  0  0  0  0  0  0  0  0  0  0  0
   -2.8640   -2.3185    0.1702 H   0  0  0  0  0  0  0  0  0  0  0  0
    1.2874    2.3789    0.6747 H   0  0  0  0  0  0  0  0  0  0  0  0
    1.2650    2.2905   -1.0823 H   0  0  0  0  0  0  0  0  0  0  0  0
   -3.1372    0.0275   -2.4717 H   0  0  0  0  0  0  0  0  0  0  0  0
   -0.8784   -0.7809   -2.7354 H   0  0  0  0  0  0  0  0  0  0  0  0
   -0.9426    0.9771   -2.7416 H   0  0  0  0  0  0  0  0  0  0  0  0
    0.5673    0.1562   -2.4281 H   0  0  0  0  0  0  0  0  0  0  0  0
    3.5269    2.1256    1.3837 H   0  0  0  0  0  0  0  0  0  0  0  0
    3.4585    2.9419   -0.1733 H   0  0  0  0  0  0  0  0  0  0  0  0
    4.3004   -2.5765    0.3619 H   0  0  0  0  0  0  0  0  0  0  0  0
    4.0907   -1.8658   -1.2416 H   0  0  0  0  0  0  0  0  0  0  0  0
   -1.3590   -1.0588    1.9373 H   0  0  0  0  0  0  0  0  0  0  0  0
    0.0586   -0.0259    2.1272 H   0  0  0  0  0  0  0  0  0  0  0  0
    0.2260   -1.7762    2.1429 H   0  0  0  0  0  0  0  0  0  0  0  0
    5.8022    1.2092    2.1882 H   0  0  0  0  0  0  0  0  0  0  0  0
    5.8157    2.4094   -0.6243 H   0  0  0  0  0  0  0  0  0  0  0  0
    5.6311    3.2520    0.8839 H   0  0  0  0  0  0  0  0  0  0  0  0
    3.4271   -0.0695   -2.3618 H   0  0  0  0  0  0  0  0  0  0  0  0
    3.1241    1.6576   -2.2786 H   0  0  0  0  0  0  0  0  0  0  0  0
    4.7503    1.0625   -2.0952 H   0  0  0  0  0  0  0  0  0  0  0  0
   -4.8250   -1.3000   -1.3010 H   0  0  0  0  0  0  0  0  0  0  0  0
   -5.4640    0.2210   -1.8849 H   0  0  0  0  0  0  0  0  0  0  0  0
    7.3890   -1.1055    1.8369 H   0  0  0  0  0  0  0  0  0  0  0  0
    5.7674   -1.2427    2.5209 H   0  0  0  0  0  0  0  0  0  0  0  0
    6.2754   -2.3074    1.1983 H   0  0  0  0  0  0  0  0  0  0  0  0
    6.3190   -1.4249   -1.2239 H   0  0  0  0  0  0  0  0  0  0  0  0
    6.5166    0.3160   -1.4625 H   0  0  0  0  0  0  0  0  0  0  0  0
    7.6888   -0.5816   -0.5274 H   0  0  0  0  0  0  0  0  0  0  0  0
   -4.2514    2.2554   -1.7013 H   0  0  0  0  0  0  0  0  0  0  0  0
   -3.2099    2.1705   -0.2834 H   0  0  0  0  0  0  0  0  0  0  0  0
   -2.5348    2.2589   -1.9364 H   0  0  0  0  0  0  0  0  0  0  0  0
    7.7890    1.6229    0.2034 H   0  0  0  0  0  0  0  0  0  0  0  0
   -4.6576   -0.3758    1.0150 H   0  0  0  0  0  0  0  0  0  0  0  0
   -5.1901    1.1962    0.4589 H   0  0  0  0  0  0  0  0  0  0  0  0
   -6.7922   -1.4455    0.3994 H   0  0  0  0  0  0  0  0  0  0  0  0
   -6.8971    2.3752    0.5937 H   0  0  0  0  0  0  0  0  0  0  0  0
   -8.0117    2.1482    1.9467 H   0  0  0  0  0  0  0  0  0  0  0  0
   -8.6207    2.2827    0.2852 H   0  0  0  0  0  0  0  0  0  0  0  0
   -8.9846   -1.4518    0.8326 H   0  0  0  0  0  0  0  0  0  0  0  0
  1 22  1  0  0  0  0
  1 72  1  0  0  0  0
  2 21  2  0  0  0  0
  3 33  2  0  0  0  0
  4  5  1  0  0  0  0
  4  6  1  0  0  0  0
  4 11  1  0  0  0  0
  4 17  1  0  0  0  0
  5  8  1  0  0  0  0
  5  9  1  0  0  0  0
  5 19  1  0  0  0  0
  6 13  1  0  0  0  0
  6 16  1  0  0  0  0
  6 34  1  0  0  0  0
  7 10  1  0  0  0  0
  7 12  1  0  0  0  0
  7 18  1  0  0  0  0
  7 24  1  0  0  0  0
  8 10  2  0  0  0  0
  8 21  1  0  0  0  0
  9 13  1  0  0  0  0
  9 35  1  0  0  0  0
  9 36  1  0  0  0  0
 10 14  1  0  0  0  0
 11 14  1  0  0  0  0
 11 37  1  0  0  0  0
 11 38  1  0  0  0  0
 12 15  1  0  0  0  0
 12 20  1  0  0  0  0
 12 39  1  0  0  0  0
 13 40  1  0  0  0  0
 13 41  1  0  0  0  0
 14 42  1  0  0  0  0
 14 43  1  0  0  0  0
 15 22  1  0  0  0  0
 15 26  1  0  0  0  0
 15 27  1  0  0  0  0
 16 25  1  0  0  0  0
 16 28  1  0  0  0  0
 16 44  1  0  0  0  0
 17 45  1  0  0  0  0
 17 46  1  0  0  0  0
 17 47  1  0  0  0  0
 18 23  1  0  0  0  0
 18 48  1  0  0  0  0
 18 49  1  0  0  0  0
 19 52  1  0  0  0  0
 19 53  1  0  0  0  0
 19 54  1  0  0  0  0
 20 21  1  0  0  0  0
 20 50  1  0  0  0  0
 20 51  1  0  0  0  0
 22 23  1  0  0  0  0
 22 55  1  0  0  0  0
 23 56  1  0  0  0  0
 23 57  1  0  0  0  0
 24 58  1  0  0  0  0
 24 59  1  0  0  0  0
 24 60  1  0  0  0  0
 25 29  1  0  0  0  0
 25 61  1  0  0  0  0
 25 62  1  0  0  0  0
 26 63  1  0  0  0  0
 26 64  1  0  0  0  0
 26 65  1  0  0  0  0
 27 66  1  0  0  0  0
 27 67  1  0  0  0  0
 27 68  1  0  0  0  0
 28 69  1  0  0  0  0
 28 70  1  0  0  0  0
 28 71  1  0  0  0  0
 29 30  1  0  0  0  0
 29 73  1  0  0  0  0
 29 74  1  0  0  0  0
 30 31  2  0  0  0  0
 30 75  1  0  0  0  0
 31 32  1  0  0  0  0
 31 33  1  0  0  0  0
 32 76  1  0  0  0  0
 32 77  1  0  0  0  0
 32 78  1  0  0  0  0
 33 79  1  0  0  0  0
M  END
> <PUBCHEM_COMPOUND_CID>
10366713

> <PUBCHEM_CONFORMER_RMSD>
1

> <PUBCHEM_CONFORMER_DIVERSEORDER>
3
5
1
6
4
2

> <PUBCHEM_MMFF94_PARTIAL_CHARGES>
19
1 -0.68
10 -0.28
14 0.14
2 -0.57
20 0.06
21 0.49
22 0.28
29 0.14
3 -0.57
30 -0.29
31 -0.12
32 0.14
33 0.5
5 0.14
7 0.14
72 0.4
75 0.15
79 0.06
8 -0.12

> <PUBCHEM_EFFECTIVE_ROTOR_COUNT>
7

> <PUBCHEM_PHARMACOPHORE_FEATURES>
12
1 1 acceptor
1 1 donor
1 2 acceptor
1 28 hydrophobe
1 3 acceptor
1 32 hydrophobe
3 15 26 27 hydrophobe
4 16 25 29 30 hydrophobe
5 4 5 6 9 13 rings
6 4 5 8 10 11 14 rings
6 7 12 15 18 22 23 rings
6 7 8 10 12 20 21 rings

> <PUBCHEM_HEAVY_ATOM_COUNT>
33

> <PUBCHEM_ATOM_DEF_STEREO_COUNT>
7

> <PUBCHEM_ATOM_UDEF_STEREO_COUNT>
0

> <PUBCHEM_BOND_DEF_STEREO_COUNT>
1

> <PUBCHEM_BOND_UDEF_STEREO_COUNT>
0

> <PUBCHEM_ISOTOPIC_ATOM_COUNT>
0

> <PUBCHEM_COMPONENT_COUNT>
1

> <PUBCHEM_CACTVS_TAUTO_COUNT>
5

> <PUBCHEM_CONFORMER_ID>
009E2EF900000003

> <PUBCHEM_MMFF94_ENERGY>
120.6111

> <PUBCHEM_FEATURE_SELFOVERLAP>
60.997

> <PUBCHEM_SHAPE_FINGERPRINT>
10 15 18260829306500640547
10100884 174 17974287922920430819
11135609 127 15051437362917881712
11181472 205 15625956308687626523
11456790 92 18411975845534698968
11534866 41 17240484702105624003
11578080 2 17558816528080497984
11607047 141 17487355754688855927
11646440 116 18333167271535123852
12236239 1 17561358504743712502
12788726 201 17203613657366992192
13540713 4 17825096022784279703
13692114 37 16588026835545188667
14251764 18 18060134371288586613
14849402 71 18272087249456148249
15198563 99 11887690476099880915
15301273 46 17385436614577640253
15461852 350 15841543095034719253
1577012 14 17703785921576286079
15840311 113 18272375277998733085
18608769 82 18335136506088299361
21033648 29 18268695286386048712
21150785 3 9727632800328492809
21267235 1 18334858282058921158
21521721 280 18411978091723180506
21781051 124 17531259369332623507
21792934 111 18040995121155668181
22149856 69 18335713689579482361
22224240 67 18408041819438921099
22956985 138 14347732186704396865
23559900 14 18340758339422400224
23576562 1 12391210739997962985
24771293 8 18270955855536898229
3009799 131 12319738068506939829
3178227 256 18335420183644806681
335352 9 18410284827649555110
350125 39 18335134311212090974
3633792 109 15410909448003079316
4093350 32 17346321470585713847
4340502 62 18408321090274378838
474113 269 11887410062380778092
5104073 3 18115581527091010545
5385378 56 18410854339247751322
5758199 1 18341894100020383523
59682541 35 18113621201159148505
6009941 240 14764341665654737101
6081469 158 13038914325946572192
70251023 43 17985560948586387910

> <PUBCHEM_SHAPE_MULTIPOLES>
661.52
22.99
2.28
1.46
41.6
0.33
-0.28
-5.94
11.94
-2.06
0.1
0.19
-0.15
0.02

> <PUBCHEM_SHAPE_SELFOVERLAP>
1392.184

> <PUBCHEM_SHAPE_VOLUME>
370.5

> <PUBCHEM_COORDINATE_TYPE>
2
5
10

$$$$
