9985134
  -OEChem-09122005433D

 90 93  0     1  0  0  0  0  0999 V2000
    1.0215    2.7260    0.9385 O   0  0  0  0  0  0  0  0  0  0  0  0
   -6.4027   -0.4133    1.0699 O   0  0  0  0  0  0  0  0  0  0  0  0
    2.0719    3.9792   -0.6934 O   0  0  0  0  0  0  0  0  0  0  0  0
   -8.4385   -1.5036    1.1294 O   0  0  0  0  0  0  0  0  0  0  0  0
   10.0899    0.6705   -0.5400 O   0  0  0  0  0  0  0  0  0  0  0  0
    9.8989   -0.5774    1.3475 O   0  0  0  0  0  0  0  0  0  0  0  0
    0.8730   -0.8182   -0.0467 C   0  0  1  0  0  0  0  0  0  0  0  0
    0.0942    0.4560    0.4378 C   0  0  1  0  0  0  0  0  0  0  0  0
    2.2483   -0.6202    0.6310 C   0  0  2  0  0  0  0  0  0  0  0  0
    1.1545    1.5563    0.1447 C   0  0  2  0  0  0  0  0  0  0  0  0
   -3.4235   -0.8075   -0.9551 C   0  0  1  0  0  0  0  0  0  0  0  0
   -1.2723    0.4901   -0.2555 C   0  0  0  0  0  0  0  0  0  0  0  0
    2.5166    0.8928    0.4637 C   0  0  0  0  0  0  0  0  0  0  0  0
   -4.0978    0.5829   -0.6572 C   0  0  2  0  0  0  0  0  0  0  0  0
    0.1005   -2.0719    0.3933 C   0  0  0  0  0  0  0  0  0  0  0  0
   -1.9862   -0.8134   -0.3501 C   0  0  0  0  0  0  0  0  0  0  0  0
   -5.6338    0.7216   -0.9774 C   0  0  0  0  0  0  0  0  0  0  0  0
    3.3973   -1.4837    0.1251 C   0  0  1  0  0  0  0  0  0  0  0  0
    1.0579   -0.8778   -1.6004 C   0  0  0  0  0  0  0  0  0  0  0  0
   -0.2235    0.4832    1.9697 C   0  0  0  0  0  0  0  0  0  0  0  0
   -4.3142   -1.9275   -0.3478 C   0  0  0  0  0  0  0  0  0  0  0  0
   -1.3553   -1.9624   -0.0017 C   0  0  0  0  0  0  0  0  0  0  0  0
   -3.2328    1.7326   -1.2140 C   0  0  0  0  0  0  0  0  0  0  0  0
   -1.8215    1.6252   -0.7227 C   0  0  0  0  0  0  0  0  0  0  0  0
   -6.4013   -0.4827   -0.3594 C   0  0  1  0  0  0  0  0  0  0  0  0
   -5.7915   -1.8304   -0.7350 C   0  0  0  0  0  0  0  0  0  0  0  0
   -3.2210   -1.0998   -2.4638 C   0  0  0  0  0  0  0  0  0  0  0  0
    4.7810   -0.9031    0.4816 C   0  0  0  0  0  0  0  0  0  0  0  0
   -5.9607    0.8226   -2.4820 C   0  0  0  0  0  0  0  0  0  0  0  0
   -6.1721    2.0343   -0.3428 C   0  0  0  0  0  0  0  0  0  0  0  0
    3.2769   -2.9008    0.6965 C   0  0  0  0  0  0  0  0  0  0  0  0
    5.9461   -1.7759    0.0059 C   0  0  0  0  0  0  0  0  0  0  0  0
    1.5262    3.8777    0.3970 C   0  0  0  0  0  0  0  0  0  0  0  0
   -7.4883   -0.9661    1.6820 C   0  0  0  0  0  0  0  0  0  0  0  0
    7.2682   -1.1785    0.4057 C   0  0  0  0  0  0  0  0  0  0  0  0
    1.3158    5.0234    1.3401 C   0  0  0  0  0  0  0  0  0  0  0  0
   -7.3535   -0.8215    3.1677 C   0  0  0  0  0  0  0  0  0  0  0  0
    8.2589   -0.7831   -0.4156 C   0  0  0  0  0  0  0  0  0  0  0  0
    8.2118   -0.8083   -1.9148 C   0  0  0  0  0  0  0  0  0  0  0  0
    9.4813   -0.2473    0.2483 C   0  0  0  0  0  0  0  0  0  0  0  0
    2.1491   -0.8111    1.7083 H   0  0  0  0  0  0  0  0  0  0  0  0
    1.1089    1.8143   -0.9217 H   0  0  0  0  0  0  0  0  0  0  0  0
    2.9843    1.3094    1.3633 H   0  0  0  0  0  0  0  0  0  0  0  0
    3.1767    1.1090   -0.3831 H   0  0  0  0  0  0  0  0  0  0  0  0
   -4.0451    0.6874    0.4414 H   0  0  0  0  0  0  0  0  0  0  0  0
    0.4819   -2.9602   -0.1187 H   0  0  0  0  0  0  0  0  0  0  0  0
    0.1774   -2.2579    1.4698 H   0  0  0  0  0  0  0  0  0  0  0  0
    3.3782   -1.5603   -0.9660 H   0  0  0  0  0  0  0  0  0  0  0  0
    0.1184   -0.7531   -2.1468 H   0  0  0  0  0  0  0  0  0  0  0  0
    1.7404   -0.1086   -1.9751 H   0  0  0  0  0  0  0  0  0  0  0  0
    1.4599   -1.8488   -1.9122 H   0  0  0  0  0  0  0  0  0  0  0  0
   -0.8297   -0.3670    2.2978 H   0  0  0  0  0  0  0  0  0  0  0  0
   -0.7917    1.3858    2.2294 H   0  0  0  0  0  0  0  0  0  0  0  0
    0.6781    0.4949    2.5896 H   0  0  0  0  0  0  0  0  0  0  0  0
   -3.9610   -2.9174   -0.6627 H   0  0  0  0  0  0  0  0  0  0  0  0
   -4.2348   -1.9064    0.7476 H   0  0  0  0  0  0  0  0  0  0  0  0
   -1.8691   -2.9158   -0.0743 H   0  0  0  0  0  0  0  0  0  0  0  0
   -3.6217    2.6936   -0.8616 H   0  0  0  0  0  0  0  0  0  0  0  0
   -3.2350    1.7697   -2.3072 H   0  0  0  0  0  0  0  0  0  0  0  0
   -1.2709    2.5596   -0.6674 H   0  0  0  0  0  0  0  0  0  0  0  0
   -7.4349   -0.4449   -0.7299 H   0  0  0  0  0  0  0  0  0  0  0  0
   -5.9134   -2.0191   -1.8063 H   0  0  0  0  0  0  0  0  0  0  0  0
   -6.3243   -2.6415   -0.2236 H   0  0  0  0  0  0  0  0  0  0  0  0
   -2.6468   -2.0242   -2.6094 H   0  0  0  0  0  0  0  0  0  0  0  0
   -2.6677   -0.3062   -2.9756 H   0  0  0  0  0  0  0  0  0  0  0  0
   -4.1554   -1.2521   -3.0012 H   0  0  0  0  0  0  0  0  0  0  0  0
    4.8467   -0.7633    1.5692 H   0  0  0  0  0  0  0  0  0  0  0  0
    4.9180    0.0846    0.0297 H   0  0  0  0  0  0  0  0  0  0  0  0
   -5.7954   -0.1055   -3.0261 H   0  0  0  0  0  0  0  0  0  0  0  0
   -5.3843    1.6121   -2.9735 H   0  0  0  0  0  0  0  0  0  0  0  0
   -7.0201    1.0688   -2.6280 H   0  0  0  0  0  0  0  0  0  0  0  0
   -5.8776    2.1268    0.7083 H   0  0  0  0  0  0  0  0  0  0  0  0
   -7.2676    2.0648   -0.3810 H   0  0  0  0  0  0  0  0  0  0  0  0
   -5.8099    2.9223   -0.8711 H   0  0  0  0  0  0  0  0  0  0  0  0
    3.4448   -2.9079    1.7793 H   0  0  0  0  0  0  0  0  0  0  0  0
    4.0006   -3.5811    0.2378 H   0  0  0  0  0  0  0  0  0  0  0  0
    2.3127   -3.3628    0.5089 H   0  0  0  0  0  0  0  0  0  0  0  0
    5.8612   -1.9375   -1.0712 H   0  0  0  0  0  0  0  0  0  0  0  0
    5.9119   -2.7632    0.4777 H   0  0  0  0  0  0  0  0  0  0  0  0
    7.4095   -1.0971    1.4831 H   0  0  0  0  0  0  0  0  0  0  0  0
    1.8382    4.8294    2.2801 H   0  0  0  0  0  0  0  0  0  0  0  0
    0.2465    5.1659    1.5156 H   0  0  0  0  0  0  0  0  0  0  0  0
    1.7217    5.9374    0.8973 H   0  0  0  0  0  0  0  0  0  0  0  0
   -7.3055    0.2373    3.4339 H   0  0  0  0  0  0  0  0  0  0  0  0
   -8.2262   -1.2645    3.6560 H   0  0  0  0  0  0  0  0  0  0  0  0
   -6.4584   -1.3463    3.5109 H   0  0  0  0  0  0  0  0  0  0  0  0
    8.0248    0.1971   -2.3057 H   0  0  0  0  0  0  0  0  0  0  0  0
    9.1677   -1.1616   -2.3174 H   0  0  0  0  0  0  0  0  0  0  0  0
    7.4463   -1.4758   -2.3155 H   0  0  0  0  0  0  0  0  0  0  0  0
   10.8991    1.0347   -0.1220 H   0  0  0  0  0  0  0  0  0  0  0  0
  1 10  1  0  0  0  0
  1 33  1  0  0  0  0
  2 25  1  0  0  0  0
  2 34  1  0  0  0  0
  3 33  2  0  0  0  0
  4 34  2  0  0  0  0
  5 40  1  0  0  0  0
  5 90  1  0  0  0  0
  6 40  2  0  0  0  0
  7  8  1  0  0  0  0
  7  9  1  0  0  0  0
  7 15  1  0  0  0  0
  7 19  1  0  0  0  0
  8 10  1  0  0  0  0
  8 12  1  0  0  0  0
  8 20  1  0  0  0  0
  9 13  1  0  0  0  0
  9 18  1  0  0  0  0
  9 41  1  0  0  0  0
 10 13  1  0  0  0  0
 10 42  1  0  0  0  0
 11 14  1  0  0  0  0
 11 16  1  0  0  0  0
 11 21  1  0  0  0  0
 11 27  1  0  0  0  0
 12 16  1  0  0  0  0
 12 24  2  0  0  0  0
 13 43  1  0  0  0  0
 13 44  1  0  0  0  0
 14 17  1  0  0  0  0
 14 23  1  0  0  0  0
 14 45  1  0  0  0  0
 15 22  1  0  0  0  0
 15 46  1  0  0  0  0
 15 47  1  0  0  0  0
 16 22  2  0  0  0  0
 17 25  1  0  0  0  0
 17 29  1  0  0  0  0
 17 30  1  0  0  0  0
 18 28  1  0  0  0  0
 18 31  1  0  0  0  0
 18 48  1  0  0  0  0
 19 49  1  0  0  0  0
 19 50  1  0  0  0  0
 19 51  1  0  0  0  0
 20 52  1  0  0  0  0
 20 53  1  0  0  0  0
 20 54  1  0  0  0  0
 21 26  1  0  0  0  0
 21 55  1  0  0  0  0
 21 56  1  0  0  0  0
 22 57  1  0  0  0  0
 23 24  1  0  0  0  0
 23 58  1  0  0  0  0
 23 59  1  0  0  0  0
 24 60  1  0  0  0  0
 25 26  1  0  0  0  0
 25 61  1  0  0  0  0
 26 62  1  0  0  0  0
 26 63  1  0  0  0  0
 27 64  1  0  0  0  0
 27 65  1  0  0  0  0
 27 66  1  0  0  0  0
 28 32  1  0  0  0  0
 28 67  1  0  0  0  0
 28 68  1  0  0  0  0
 29 69  1  0  0  0  0
 29 70  1  0  0  0  0
 29 71  1  0  0  0  0
 30 72  1  0  0  0  0
 30 73  1  0  0  0  0
 30 74  1  0  0  0  0
 31 75  1  0  0  0  0
 31 76  1  0  0  0  0
 31 77  1  0  0  0  0
 32 35  1  0  0  0  0
 32 78  1  0  0  0  0
 32 79  1  0  0  0  0
 33 36  1  0  0  0  0
 34 37  1  0  0  0  0
 35 38  2  0  0  0  0
 35 80  1  0  0  0  0
 36 81  1  0  0  0  0
 36 82  1  0  0  0  0
 36 83  1  0  0  0  0
 37 84  1  0  0  0  0
 37 85  1  0  0  0  0
 37 86  1  0  0  0  0
 38 39  1  0  0  0  0
 38 40  1  0  0  0  0
 39 87  1  0  0  0  0
 39 88  1  0  0  0  0
 39 89  1  0  0  0  0
M  END
> <PUBCHEM_COMPOUND_CID>
9985134

> <PUBCHEM_CONFORMER_RMSD>
1.2

> <PUBCHEM_CONFORMER_DIVERSEORDER>
1
7
10
9
3
5
6
4
8
2

> <PUBCHEM_MMFF94_PARTIAL_CHARGES>
29
1 -0.43
10 0.28
11 0.14
12 -0.14
15 0.14
16 -0.14
2 -0.43
22 -0.29
23 0.14
24 -0.29
25 0.28
3 -0.57
32 0.14
33 0.66
34 0.66
35 -0.29
36 0.06
37 0.06
38 -0.12
39 0.14
4 -0.57
40 0.71
5 -0.65
57 0.15
6 -0.57
60 0.15
8 0.14
80 0.15
90 0.5

> <PUBCHEM_EFFECTIVE_ROTOR_COUNT>
10.8

> <PUBCHEM_PHARMACOPHORE_FEATURES>
13
1 3 acceptor
1 31 hydrophobe
1 39 hydrophobe
1 4 acceptor
1 5 acceptor
1 6 acceptor
3 17 29 30 hydrophobe
3 5 6 40 anion
4 18 28 32 35 hydrophobe
5 7 8 9 10 13 rings
6 11 12 14 16 23 24 rings
6 11 14 17 21 25 26 rings
6 7 8 12 15 16 22 rings

> <PUBCHEM_HEAVY_ATOM_COUNT>
40

> <PUBCHEM_ATOM_DEF_STEREO_COUNT>
8

> <PUBCHEM_ATOM_UDEF_STEREO_COUNT>
0

> <PUBCHEM_BOND_DEF_STEREO_COUNT>
1

> <PUBCHEM_BOND_UDEF_STEREO_COUNT>
0

> <PUBCHEM_ISOTOPIC_ATOM_COUNT>
0

> <PUBCHEM_COMPONENT_COUNT>
1

> <PUBCHEM_CACTVS_TAUTO_COUNT>
1

> <PUBCHEM_CONFORMER_ID>
00985C6E00000001

> <PUBCHEM_MMFF94_ENERGY>
138.6956

> <PUBCHEM_FEATURE_SELFOVERLAP>
66.134

> <PUBCHEM_SHAPE_FINGERPRINT>
10076449 9 18409171012952261338
11331351 85 17632578236662127136
11443803 9 13406794463018483144
12082328 90 17458341909962629862
12522641 33 10665224844388464920
12664476 115 18040151817269925071
13782708 43 17676203542543365547
13811026 1 18410284826979583308
14849402 71 18338801229361395809
14856354 85 16773503439402591885
15021287 119 18272650143574448689
15131766 46 12677165165714493866
15198563 99 18271244890421356900
15461852 350 14273456985393777058
15849732 13 17989199357311344614
15980000 95 18343022194761789312
16087824 20 18269834216760125193
17686467 74 17240483628078423556
18335252 98 18113622265652414890
18608769 82 18113340821120225003
18681886 176 18271230694841741010
21049683 271 18333452049695106724
21792961 116 18261112937815158650
21927370 108 18342467997608247856
23559900 14 18340751724434201713
23576562 1 18198325433062194493
24771750 20 18190752027747448940
249057 3 18343014510473654134
3178227 256 18409174311587826411
335352 9 18340476799525159173
335507 130 18260270762952089238
3552219 110 18335989692646545108
4339292 15 17676206914404078435
5028188 123 13901897948031340212
57527306 92 15430314690056300292
6523845 18 10665229289421153094
9962374 69 18340475773144604359

> <PUBCHEM_SHAPE_MULTIPOLES>
787.97
26.02
3.55
1.88
42.2
5.44
0.24
-10.43
2.7
1.31
0.87
-3.32
-0.16
1.42

> <PUBCHEM_SHAPE_SELFOVERLAP>
1653.479

> <PUBCHEM_SHAPE_VOLUME>
440.8

> <PUBCHEM_COORDINATE_TYPE>
2
5
10

$$$$
