10343868
  -OEChem-09122005023D

 77 80  0     1  0  0  0  0  0999 V2000
   -1.9062   -3.0962   -0.0849 O   0  0  0  0  0  0  0  0  0  0  0  0
   -7.0622    1.4876   -1.7158 O   0  0  0  0  0  0  0  0  0  0  0  0
   10.0746    0.2203   -1.2571 O   0  0  0  0  0  0  0  0  0  0  0  0
    0.8331    0.1008    0.7193 C   0  0  1  0  0  0  0  0  0  0  0  0
    0.0523   -0.9696   -0.1254 C   0  0  1  0  0  0  0  0  0  0  0  0
    2.3012   -0.3308    0.4941 C   0  0  2  0  0  0  0  0  0  0  0  0
    0.7453   -2.2565    0.3759 C   0  0  0  0  0  0  0  0  0  0  0  0
   -1.4465   -0.7624    0.0493 C   0  0  0  0  0  0  0  0  0  0  0  0
    0.4708    1.4899    0.1949 C   0  0  0  0  0  0  0  0  0  0  0  0
   -3.4879    0.7462    0.3727 C   0  0  2  0  0  0  0  0  0  0  0  0
    2.2302   -1.8730    0.5621 C   0  0  0  0  0  0  0  0  0  0  0  0
   -1.9664    0.4850    0.1909 C   0  0  0  0  0  0  0  0  0  0  0  0
   -4.2699   -0.3890   -0.3725 C   0  0  2  0  0  0  0  0  0  0  0  0
   -1.0530    1.7203    0.2433 C   0  0  0  0  0  0  0  0  0  0  0  0
    3.3456    0.2532    1.4381 C   0  0  1  0  0  0  0  0  0  0  0  0
    0.5055    0.0535    2.2476 C   0  0  0  0  0  0  0  0  0  0  0  0
    0.2821   -0.9015   -1.6663 C   0  0  0  0  0  0  0  0  0  0  0  0
   -5.8242   -0.2275   -0.5183 C   0  0  0  0  0  0  0  0  0  0  0  0
   -3.8427   -1.7545    0.1710 C   0  0  0  0  0  0  0  0  0  0  0  0
   -3.9227    2.0944   -0.2591 C   0  0  0  0  0  0  0  0  0  0  0  0
   -2.3534   -1.9549    0.0256 C   0  0  0  0  0  0  0  0  0  0  0  0
   -3.7212    0.7960    1.9004 C   0  0  0  0  0  0  0  0  0  0  0  0
   -5.4240    2.3286   -0.2179 C   0  0  0  0  0  0  0  0  0  0  0  0
    4.7709   -0.2503    1.1312 C   0  0  0  0  0  0  0  0  0  0  0  0
   -6.1603    1.2169   -0.9202 C   0  0  0  0  0  0  0  0  0  0  0  0
    3.3147    1.7838    1.3652 C   0  0  0  0  0  0  0  0  0  0  0  0
   -6.3262   -1.1563   -1.6547 C   0  0  0  0  0  0  0  0  0  0  0  0
   -6.6397   -0.5733    0.7366 C   0  0  0  0  0  0  0  0  0  0  0  0
    5.2603    0.1282   -0.2699 C   0  0  0  0  0  0  0  0  0  0  0  0
    6.6650   -0.3575   -0.5021 C   0  0  0  0  0  0  0  0  0  0  0  0
    7.7407    0.3981   -0.7812 C   0  0  0  0  0  0  0  0  0  0  0  0
    7.7977    1.8898   -0.8792 C   0  0  0  0  0  0  0  0  0  0  0  0
    9.0165   -0.3393   -0.9938 C   0  0  0  0  0  0  0  0  0  0  0  0
    2.5743   -0.0450   -0.5280 H   0  0  0  0  0  0  0  0  0  0  0  0
    0.6554   -3.0956   -0.3230 H   0  0  0  0  0  0  0  0  0  0  0  0
    0.3259   -2.5905    1.3325 H   0  0  0  0  0  0  0  0  0  0  0  0
    0.8254    1.6224   -0.8342 H   0  0  0  0  0  0  0  0  0  0  0  0
    0.9224    2.3041    0.7625 H   0  0  0  0  0  0  0  0  0  0  0  0
    2.5897   -2.2700    1.5181 H   0  0  0  0  0  0  0  0  0  0  0  0
    2.8461   -2.3158   -0.2289 H   0  0  0  0  0  0  0  0  0  0  0  0
   -3.8937   -0.3465   -1.4102 H   0  0  0  0  0  0  0  0  0  0  0  0
   -1.3040    2.3966   -0.5819 H   0  0  0  0  0  0  0  0  0  0  0  0
   -1.2713    2.2612    1.1726 H   0  0  0  0  0  0  0  0  0  0  0  0
    3.1370   -0.0423    2.4736 H   0  0  0  0  0  0  0  0  0  0  0  0
    0.8792   -0.8562    2.7285 H   0  0  0  0  0  0  0  0  0  0  0  0
    0.9451    0.9008    2.7822 H   0  0  0  0  0  0  0  0  0  0  0  0
   -0.5675    0.0900    2.4553 H   0  0  0  0  0  0  0  0  0  0  0  0
   -0.0850    0.0322   -2.1062 H   0  0  0  0  0  0  0  0  0  0  0  0
    1.3323   -1.0073   -1.9527 H   0  0  0  0  0  0  0  0  0  0  0  0
   -0.2549   -1.7168   -2.1686 H   0  0  0  0  0  0  0  0  0  0  0  0
   -4.3201   -2.5570   -0.3998 H   0  0  0  0  0  0  0  0  0  0  0  0
   -4.1089   -1.8931    1.2228 H   0  0  0  0  0  0  0  0  0  0  0  0
   -3.5917    2.1298   -1.3063 H   0  0  0  0  0  0  0  0  0  0  0  0
   -3.4415    2.9372    0.2522 H   0  0  0  0  0  0  0  0  0  0  0  0
   -3.4197   -0.1310    2.3991 H   0  0  0  0  0  0  0  0  0  0  0  0
   -3.1372    1.6018    2.3617 H   0  0  0  0  0  0  0  0  0  0  0  0
   -4.7576    0.9910    2.1703 H   0  0  0  0  0  0  0  0  0  0  0  0
   -5.6518    3.2711   -0.7293 H   0  0  0  0  0  0  0  0  0  0  0  0
   -5.8033    2.4164    0.8039 H   0  0  0  0  0  0  0  0  0  0  0  0
    4.8165   -1.3391    1.2580 H   0  0  0  0  0  0  0  0  0  0  0  0
    5.4604    0.1650    1.8790 H   0  0  0  0  0  0  0  0  0  0  0  0
    4.2490    2.2047    1.7571 H   0  0  0  0  0  0  0  0  0  0  0  0
    3.1990    2.1590    0.3437 H   0  0  0  0  0  0  0  0  0  0  0  0
    2.5340    2.2033    2.0025 H   0  0  0  0  0  0  0  0  0  0  0  0
   -7.3970   -1.0153   -1.8461 H   0  0  0  0  0  0  0  0  0  0  0  0
   -6.1881   -2.2144   -1.4133 H   0  0  0  0  0  0  0  0  0  0  0  0
   -5.8039   -0.9492   -2.5959 H   0  0  0  0  0  0  0  0  0  0  0  0
   -6.4727    0.1213    1.5596 H   0  0  0  0  0  0  0  0  0  0  0  0
   -6.4323   -1.5868    1.0931 H   0  0  0  0  0  0  0  0  0  0  0  0
   -7.7150   -0.5217    0.5229 H   0  0  0  0  0  0  0  0  0  0  0  0
    4.6366   -0.3529   -1.0313 H   0  0  0  0  0  0  0  0  0  0  0  0
    5.1741    1.2031   -0.4364 H   0  0  0  0  0  0  0  0  0  0  0  0
    6.7737   -1.4406   -0.4573 H   0  0  0  0  0  0  0  0  0  0  0  0
    8.6068    2.2813   -0.2529 H   0  0  0  0  0  0  0  0  0  0  0  0
    6.8816    2.3837   -0.5493 H   0  0  0  0  0  0  0  0  0  0  0  0
    7.9886    2.1923   -1.9141 H   0  0  0  0  0  0  0  0  0  0  0  0
    8.9635   -1.4375   -0.9034 H   0  0  0  0  0  0  0  0  0  0  0  0
  1 21  2  0  0  0  0
  2 25  2  0  0  0  0
  3 33  2  0  0  0  0
  4  5  1  0  0  0  0
  4  6  1  0  0  0  0
  4  9  1  0  0  0  0
  4 16  1  0  0  0  0
  5  7  1  0  0  0  0
  5  8  1  0  0  0  0
  5 17  1  0  0  0  0
  6 11  1  0  0  0  0
  6 15  1  0  0  0  0
  6 34  1  0  0  0  0
  7 11  1  0  0  0  0
  7 35  1  0  0  0  0
  7 36  1  0  0  0  0
  8 12  2  0  0  0  0
  8 21  1  0  0  0  0
  9 14  1  0  0  0  0
  9 37  1  0  0  0  0
  9 38  1  0  0  0  0
 10 12  1  0  0  0  0
 10 13  1  0  0  0  0
 10 20  1  0  0  0  0
 10 22  1  0  0  0  0
 11 39  1  0  0  0  0
 11 40  1  0  0  0  0
 12 14  1  0  0  0  0
 13 18  1  0  0  0  0
 13 19  1  0  0  0  0
 13 41  1  0  0  0  0
 14 42  1  0  0  0  0
 14 43  1  0  0  0  0
 15 24  1  0  0  0  0
 15 26  1  0  0  0  0
 15 44  1  0  0  0  0
 16 45  1  0  0  0  0
 16 46  1  0  0  0  0
 16 47  1  0  0  0  0
 17 48  1  0  0  0  0
 17 49  1  0  0  0  0
 17 50  1  0  0  0  0
 18 25  1  0  0  0  0
 18 27  1  0  0  0  0
 18 28  1  0  0  0  0
 19 21  1  0  0  0  0
 19 51  1  0  0  0  0
 19 52  1  0  0  0  0
 20 23  1  0  0  0  0
 20 53  1  0  0  0  0
 20 54  1  0  0  0  0
 22 55  1  0  0  0  0
 22 56  1  0  0  0  0
 22 57  1  0  0  0  0
 23 25  1  0  0  0  0
 23 58  1  0  0  0  0
 23 59  1  0  0  0  0
 24 29  1  0  0  0  0
 24 60  1  0  0  0  0
 24 61  1  0  0  0  0
 26 62  1  0  0  0  0
 26 63  1  0  0  0  0
 26 64  1  0  0  0  0
 27 65  1  0  0  0  0
 27 66  1  0  0  0  0
 27 67  1  0  0  0  0
 28 68  1  0  0  0  0
 28 69  1  0  0  0  0
 28 70  1  0  0  0  0
 29 30  1  0  0  0  0
 29 71  1  0  0  0  0
 29 72  1  0  0  0  0
 30 31  2  0  0  0  0
 30 73  1  0  0  0  0
 31 32  1  0  0  0  0
 31 33  1  0  0  0  0
 32 74  1  0  0  0  0
 32 75  1  0  0  0  0
 32 76  1  0  0  0  0
 33 77  1  0  0  0  0
M  END
> <PUBCHEM_COMPOUND_CID>
10343868

> <PUBCHEM_CONFORMER_RMSD>
1

> <PUBCHEM_CONFORMER_DIVERSEORDER>
3
5
1
4
6
2

> <PUBCHEM_MMFF94_PARTIAL_CHARGES>
20
1 -0.57
10 0.14
12 -0.28
14 0.14
18 0.06
19 0.06
2 -0.57
21 0.49
23 0.06
25 0.45
29 0.14
3 -0.57
30 -0.29
31 -0.12
32 0.14
33 0.5
5 0.14
73 0.15
77 0.06
8 -0.12

> <PUBCHEM_EFFECTIVE_ROTOR_COUNT>
6.8

> <PUBCHEM_PHARMACOPHORE_FEATURES>
11
1 1 acceptor
1 2 acceptor
1 26 hydrophobe
1 3 acceptor
1 32 hydrophobe
3 18 27 28 hydrophobe
4 15 24 29 30 hydrophobe
5 4 5 6 7 11 rings
6 10 13 18 20 23 25 rings
6 4 5 8 9 12 14 rings
6 8 10 12 13 19 21 rings

> <PUBCHEM_HEAVY_ATOM_COUNT>
33

> <PUBCHEM_ATOM_DEF_STEREO_COUNT>
6

> <PUBCHEM_ATOM_UDEF_STEREO_COUNT>
0

> <PUBCHEM_BOND_DEF_STEREO_COUNT>
1

> <PUBCHEM_BOND_UDEF_STEREO_COUNT>
0

> <PUBCHEM_ISOTOPIC_ATOM_COUNT>
0

> <PUBCHEM_COMPONENT_COUNT>
1

> <PUBCHEM_CACTVS_TAUTO_COUNT>
10

> <PUBCHEM_CONFORMER_ID>
009DD5BC00000003

> <PUBCHEM_MMFF94_ENERGY>
116.0296

> <PUBCHEM_FEATURE_SELFOVERLAP>
55.923

> <PUBCHEM_SHAPE_FINGERPRINT>
10076449 9 18202567293103409473
10190206 1 18201445740331757312
10533779 47 12324230639313435376
10669705 176 18409169900909328542
10670039 82 17917433086151610448
11007060 377 18337675316621957744
11315181 36 18131637797985121121
11578080 2 17606105191772348501
11991303 11 17417803010704064510
12011746 2 18273206500341516587
12236239 1 17530959164319844707
13540713 4 17843673607496777522
13782708 43 15338830980123457791
13811026 1 18272932748322678568
14294032 229 18188489047986724956
14856354 85 18334577979265748215
150020 25 18202567302875174084
15183329 4 18413392030081594554
15198563 99 17203334351750472672
15276724 80 17530956956896747460
15301273 46 12324238339940935632
15461852 350 18272650177295988055
1577012 14 18040994012289162584
15849732 13 18187087269618780812
16994733 274 17095235908898847924
17980427 23 17603591777485930565
18603816 31 14261342587980203269
18608769 82 18336553823721481683
18681886 176 18341323474396045048
19611394 137 17750813214468934065
19841028 212 13470142748407488060
2026 5 14764357011620716300
20721686 146 17459460062407503829
21150785 3 18342740723941830244
21267235 1 18342740753938153131
21344244 246 15769501937366895054
21792961 116 18131639959277025226
22224240 67 14490191622539279512
23559900 14 18202274831695301355
23576562 1 18189617314240628172
24771293 8 14923663069114193998
249057 3 18341332271153497308
335352 9 18411414021178862319
3383291 50 16486971804547882046
4017518 198 17917711301343414334
4073 2 17968097482801270259
4093350 32 15719382898732518474
437815 12 17561085813349857120
4616759 239 11891330937539792261
5104073 3 18337947871552936003
5265222 85 18340769363954823462
5758199 1 16298385764842684944
59682541 35 11386370352985862332
59755656 215 18343299245573226126
6328613 192 18333732424964653260
9953998 17 12107788518892190260

> <PUBCHEM_SHAPE_MULTIPOLES>
661.52
22.83
2.27
1.5
42.44
0.31
-0.22
-5.88
12.25
-2.03
0.09
0
-0.18
0.06

> <PUBCHEM_SHAPE_SELFOVERLAP>
1397.971

> <PUBCHEM_SHAPE_VOLUME>
369.8

> <PUBCHEM_COORDINATE_TYPE>
2
5
10

$$$$
