131676060
  -OEChem-09112013183D

 80 83  0     1  0  0  0  0  0999 V2000
   -0.6059    2.8310   -0.9814 O   0  0  0  0  0  0  0  0  0  0  0  0
    1.1593   -2.5401    1.0269 O   0  0  0  0  0  0  0  0  0  0  0  0
   -0.2792   -1.5432    3.0610 O   0  0  0  0  0  0  0  0  0  0  0  0
    2.0626    2.6441   -1.3153 O   0  0  0  0  0  0  0  0  0  0  0  0
    7.2599   -0.2875   -2.0132 O   0  0  0  0  0  0  0  0  0  0  0  0
   -4.9218    1.8675   -1.3652 O   0  0  0  0  0  0  0  0  0  0  0  0
   -6.7333   -3.0003   -0.0521 O   0  0  0  0  0  0  0  0  0  0  0  0
   -7.9740   -2.5152   -1.8898 O   0  0  0  0  0  0  0  0  0  0  0  0
   -0.5472    0.9936    0.6137 C   0  0  1  0  0  0  0  0  0  0  0  0
    0.4373    0.3261    1.6315 C   0  0  2  0  0  0  0  0  0  0  0  0
   -1.8008    1.2821    1.4879 C   0  0  2  0  0  0  0  0  0  0  0  0
    3.6141    0.2534   -0.7068 C   0  0  1  0  0  0  0  0  0  0  0  0
    1.6410   -0.1956    0.8650 C   0  0  0  0  0  0  0  0  0  0  0  0
    4.3421   -0.8695    0.1237 C   0  0  1  0  0  0  0  0  0  0  0  0
    2.2477    0.5980   -0.0585 C   0  0  0  0  0  0  0  0  0  0  0  0
    0.1548    2.2332    0.0558 C   0  0  1  0  0  0  0  0  0  0  0  0
   -1.9769   -0.0143    2.2998 C   0  0  0  0  0  0  0  0  0  0  0  0
    2.1783   -1.5596    1.2335 C   0  0  2  0  0  0  0  0  0  0  0  0
   -0.5637   -0.5613    2.3869 C   0  0  0  0  0  0  0  0  0  0  0  0
    3.3865   -2.0241    0.4217 C   0  0  0  0  0  0  0  0  0  0  0  0
    5.7203   -1.3427   -0.4593 C   0  0  0  0  0  0  0  0  0  0  0  0
    1.5414    1.8835   -0.4976 C   0  0  0  0  0  0  0  0  0  0  0  0
   -3.0876    1.6695    0.7672 C   0  0  1  0  0  0  0  0  0  0  0  0
    4.5605    1.4993   -0.7218 C   0  0  0  0  0  0  0  0  0  0  0  0
   -0.9424    0.0376   -0.5628 C   0  0  0  0  0  0  0  0  0  0  0  0
    0.9994    1.2470    2.7544 C   0  0  0  0  0  0  0  0  0  0  0  0
    3.3232   -0.1740   -2.1649 C   0  0  0  0  0  0  0  0  0  0  0  0
    6.0548    1.2119   -0.6044 C   0  0  0  0  0  0  0  0  0  0  0  0
    6.4081   -0.1530   -1.1351 C   0  0  0  0  0  0  0  0  0  0  0  0
    6.6460   -1.7876    0.6940 C   0  0  0  0  0  0  0  0  0  0  0  0
    5.6253   -2.5186   -1.4502 C   0  0  0  0  0  0  0  0  0  0  0  0
   -3.7685    0.4192    0.1881 C   0  0  0  0  0  0  0  0  0  0  0  0
   -4.0231    2.4116    1.7278 C   0  0  0  0  0  0  0  0  0  0  0  0
   -4.7353    0.7254   -0.9463 C   0  0  0  0  0  0  0  0  0  0  0  0
   -5.4945   -0.4491   -1.5315 C   0  0  0  0  0  0  0  0  0  0  0  0
   -6.7850   -0.7173   -0.7529 C   0  0  1  0  0  0  0  0  0  0  0  0
   -7.8864    0.2678   -1.1460 C   0  0  0  0  0  0  0  0  0  0  0  0
   -7.2370   -2.1489   -0.9837 C   0  0  0  0  0  0  0  0  0  0  0  0
   -1.5460    2.0992    2.1759 H   0  0  0  0  0  0  0  0  0  0  0  0
    4.5651   -0.4113    1.1023 H   0  0  0  0  0  0  0  0  0  0  0  0
    0.2888    2.9940    0.8326 H   0  0  0  0  0  0  0  0  0  0  0  0
   -2.5797   -0.8077    1.8594 H   0  0  0  0  0  0  0  0  0  0  0  0
   -2.3449    0.2087    3.3057 H   0  0  0  0  0  0  0  0  0  0  0  0
    2.4382   -1.5551    2.2990 H   0  0  0  0  0  0  0  0  0  0  0  0
    3.8936   -2.8132    0.9909 H   0  0  0  0  0  0  0  0  0  0  0  0
    3.0510   -2.5081   -0.5037 H   0  0  0  0  0  0  0  0  0  0  0  0
   -2.8492    2.3710   -0.0385 H   0  0  0  0  0  0  0  0  0  0  0  0
    4.3036    2.1860    0.0960 H   0  0  0  0  0  0  0  0  0  0  0  0
    4.4093    2.0672   -1.6491 H   0  0  0  0  0  0  0  0  0  0  0  0
   -1.2765   -0.9452   -0.2183 H   0  0  0  0  0  0  0  0  0  0  0  0
   -0.0791   -0.1831   -1.2016 H   0  0  0  0  0  0  0  0  0  0  0  0
   -1.6579    0.4939   -1.2523 H   0  0  0  0  0  0  0  0  0  0  0  0
    0.2142    1.7112    3.3601 H   0  0  0  0  0  0  0  0  0  0  0  0
    1.6382    2.0504    2.3731 H   0  0  0  0  0  0  0  0  0  0  0  0
    1.6127    0.6617    3.4526 H   0  0  0  0  0  0  0  0  0  0  0  0
    4.2393   -0.2976   -2.7486 H   0  0  0  0  0  0  0  0  0  0  0  0
    2.7318    0.5781   -2.6996 H   0  0  0  0  0  0  0  0  0  0  0  0
    2.7559   -1.1088   -2.2141 H   0  0  0  0  0  0  0  0  0  0  0  0
    6.3753    1.2599    0.4426 H   0  0  0  0  0  0  0  0  0  0  0  0
    6.6275    1.9737   -1.1448 H   0  0  0  0  0  0  0  0  0  0  0  0
    5.2404   -3.4243   -0.9694 H   0  0  0  0  0  0  0  0  0  0  0  0
    6.6115   -2.7751   -1.8558 H   0  0  0  0  0  0  0  0  0  0  0  0
    4.9855   -2.2965   -2.3065 H   0  0  0  0  0  0  0  0  0  0  0  0
    6.7974   -0.9833    1.4229 H   0  0  0  0  0  0  0  0  0  0  0  0
    6.2370   -2.6515    1.2281 H   0  0  0  0  0  0  0  0  0  0  0  0
    7.6383   -2.0660    0.3193 H   0  0  0  0  0  0  0  0  0  0  0  0
   -3.1481   -0.3838   -0.1814 H   0  0  0  0  0  0  0  0  0  0  0  0
   -4.3940   -0.0293    0.9727 H   0  0  0  0  0  0  0  0  0  0  0  0
   -4.9506    2.7067    1.2266 H   0  0  0  0  0  0  0  0  0  0  0  0
   -3.5493    3.3248    2.1041 H   0  0  0  0  0  0  0  0  0  0  0  0
   -4.2918    1.7917    2.5897 H   0  0  0  0  0  0  0  0  0  0  0  0
   -0.1692    3.6658   -1.2222 H   0  0  0  0  0  0  0  0  0  0  0  0
    1.4978   -3.3893    1.3587 H   0  0  0  0  0  0  0  0  0  0  0  0
   -5.6986   -0.2419   -2.5889 H   0  0  0  0  0  0  0  0  0  0  0  0
   -4.8326   -1.3233   -1.5193 H   0  0  0  0  0  0  0  0  0  0  0  0
   -6.6197   -0.5985    0.3256 H   0  0  0  0  0  0  0  0  0  0  0  0
   -8.0931    0.2301   -2.2213 H   0  0  0  0  0  0  0  0  0  0  0  0
   -8.8204    0.0300   -0.6249 H   0  0  0  0  0  0  0  0  0  0  0  0
   -7.6105    1.2947   -0.8871 H   0  0  0  0  0  0  0  0  0  0  0  0
   -7.0301   -3.9232   -0.2023 H   0  0  0  0  0  0  0  0  0  0  0  0
  1 16  1  0  0  0  0
  1 72  1  0  0  0  0
  2 18  1  0  0  0  0
  2 73  1  0  0  0  0
  3 19  2  0  0  0  0
  4 22  2  0  0  0  0
  5 29  2  0  0  0  0
  6 34  2  0  0  0  0
  7 38  1  0  0  0  0
  7 80  1  0  0  0  0
  8 38  2  0  0  0  0
  9 10  1  0  0  0  0
  9 11  1  0  0  0  0
  9 16  1  0  0  0  0
  9 25  1  0  0  0  0
 10 13  1  0  0  0  0
 10 19  1  0  0  0  0
 10 26  1  0  0  0  0
 11 17  1  0  0  0  0
 11 23  1  0  0  0  0
 11 39  1  0  0  0  0
 12 14  1  0  0  0  0
 12 15  1  0  0  0  0
 12 24  1  0  0  0  0
 12 27  1  0  0  0  0
 13 15  2  0  0  0  0
 13 18  1  0  0  0  0
 14 20  1  0  0  0  0
 14 21  1  0  0  0  0
 14 40  1  0  0  0  0
 15 22  1  0  0  0  0
 16 22  1  0  0  0  0
 16 41  1  0  0  0  0
 17 19  1  0  0  0  0
 17 42  1  0  0  0  0
 17 43  1  0  0  0  0
 18 20  1  0  0  0  0
 18 44  1  0  0  0  0
 20 45  1  0  0  0  0
 20 46  1  0  0  0  0
 21 29  1  0  0  0  0
 21 30  1  0  0  0  0
 21 31  1  0  0  0  0
 23 32  1  0  0  0  0
 23 33  1  0  0  0  0
 23 47  1  0  0  0  0
 24 28  1  0  0  0  0
 24 48  1  0  0  0  0
 24 49  1  0  0  0  0
 25 50  1  0  0  0  0
 25 51  1  0  0  0  0
 25 52  1  0  0  0  0
 26 53  1  0  0  0  0
 26 54  1  0  0  0  0
 26 55  1  0  0  0  0
 27 56  1  0  0  0  0
 27 57  1  0  0  0  0
 27 58  1  0  0  0  0
 28 29  1  0  0  0  0
 28 59  1  0  0  0  0
 28 60  1  0  0  0  0
 30 64  1  0  0  0  0
 30 65  1  0  0  0  0
 30 66  1  0  0  0  0
 31 61  1  0  0  0  0
 31 62  1  0  0  0  0
 31 63  1  0  0  0  0
 32 34  1  0  0  0  0
 32 67  1  0  0  0  0
 32 68  1  0  0  0  0
 33 69  1  0  0  0  0
 33 70  1  0  0  0  0
 33 71  1  0  0  0  0
 34 35  1  0  0  0  0
 35 36  1  0  0  0  0
 35 74  1  0  0  0  0
 35 75  1  0  0  0  0
 36 37  1  0  0  0  0
 36 38  1  0  0  0  0
 36 76  1  0  0  0  0
 37 77  1  0  0  0  0
 37 78  1  0  0  0  0
 37 79  1  0  0  0  0
M  END
> <PUBCHEM_COMPOUND_CID>
131676060

> <PUBCHEM_CONFORMER_RMSD>
1

> <PUBCHEM_CONFORMER_DIVERSEORDER>
1
14
41
32
18
37
24
4
34
5
36
3
44
28
12
29
49
50
21
7
11
25
33
13
27
20
26
9
2
10
45
38
15
47
8
17
40
43
23
6
42
46
16
19
35
30
39
22
48
31

> <PUBCHEM_MMFF94_PARTIAL_CHARGES>
28
1 -0.68
10 0.2
12 0.14
13 -0.28
15 -0.12
16 0.34
17 0.06
18 0.42
19 0.45
2 -0.68
21 0.06
22 0.49
28 0.06
29 0.45
3 -0.57
32 0.06
34 0.45
35 0.06
36 0.06
38 0.66
4 -0.57
5 -0.57
6 -0.57
7 -0.65
72 0.4
73 0.4
8 -0.57
80 0.5

> <PUBCHEM_EFFECTIVE_ROTOR_COUNT>
7.6

> <PUBCHEM_PHARMACOPHORE_FEATURES>
18
1 1 acceptor
1 1 donor
1 2 acceptor
1 2 donor
1 3 acceptor
1 33 hydrophobe
1 37 hydrophobe
1 4 acceptor
1 5 acceptor
1 6 acceptor
1 7 acceptor
1 8 acceptor
3 21 30 31 hydrophobe
3 7 8 38 anion
5 9 10 11 17 19 rings
6 12 13 14 15 18 20 rings
6 12 14 21 24 28 29 rings
6 9 10 13 15 16 22 rings

> <PUBCHEM_HEAVY_ATOM_COUNT>
38

> <PUBCHEM_ATOM_DEF_STEREO_COUNT>
7

> <PUBCHEM_ATOM_UDEF_STEREO_COUNT>
2

> <PUBCHEM_BOND_DEF_STEREO_COUNT>
0

> <PUBCHEM_BOND_UDEF_STEREO_COUNT>
0

> <PUBCHEM_ISOTOPIC_ATOM_COUNT>
0

> <PUBCHEM_COMPONENT_COUNT>
1

> <PUBCHEM_CACTVS_TAUTO_COUNT>
60

> <PUBCHEM_CONFORMER_ID>
07D9379C00000001

> <PUBCHEM_MMFF94_ENERGY>
137.5136

> <PUBCHEM_FEATURE_SELFOVERLAP>
91.519

> <PUBCHEM_SHAPE_FINGERPRINT>
10 15 7997965800208854381
10076449 9 14189578546641425148
10554248 39 16588307129727846634
10693767 8 18334850589477497626
11115154 58 18342460314270893201
11135609 12 15195291932404602745
12035758 1 13686292465818494748
12166972 35 17989487432904105208
12236239 1 18130230346367273248
13383661 66 18059584533280295319
13673619 4 16845288359105136009
13690498 29 17846213333196539777
13782708 43 17846497006552466446
13811026 1 17967814976952949008
14068700 675 17989205971429312721
14294032 229 17629489597480071185
14931854 50 17603575319160637653
15082195 135 18189059866235420692
15142383 8 12901544655182451932
15183329 4 18187081741573857659
15324884 4 16517673583647499425
15510800 12 17489316290873240151
15721738 202 17203611514352332264
20028762 73 18341049610819125982
20775438 99 17905027498635198807
21033648 29 14057012671415745500
21521239 73 18408603664936666890
21927370 108 15123521285253039866
2260408 40 11815904478365494025
23559900 14 17896340103046407004
23569943 247 18052544262223931210
23576562 1 16371585832523107607
4015057 19 18335151916014947448
439807 62 18060137639895783983
474113 269 16733531717021019154
484989 97 18263650730816373435
504579 68 17894896453032213111
5104073 3 12822748063883021262
513532 50 18188757448671198712
57527295 17 17968653818331027401
6004065 56 18410009983511960112
6009941 240 17130993045115452497
6086070 43 16443065032068994625
9962374 69 16414617385552067045

> <PUBCHEM_SHAPE_MULTIPOLES>
735.07
19.53
2.88
2.34
18.59
0.62
1.19
14.3
-12.22
2.15
-0.24
0.03
-0.1
-1.66

> <PUBCHEM_SHAPE_SELFOVERLAP>
1569.184

> <PUBCHEM_SHAPE_VOLUME>
402.8

> <PUBCHEM_COORDINATE_TYPE>
2
5
10

$$$$
