21633083
  -OEChem-09122003353D

 78 81  0     1  0  0  0  0  0999 V2000
    1.1811    2.5314    0.4065 O   0  0  0  0  0  0  0  0  0  0  0  0
    0.9800   -3.3672    0.5941 O   0  0  0  0  0  0  0  0  0  0  0  0
   -1.4211    2.5657   -0.1774 O   0  0  0  0  0  0  0  0  0  0  0  0
   -1.4145   -3.3542   -0.3797 O   0  0  0  0  0  0  0  0  0  0  0  0
   -7.1418    0.7750   -0.0019 O   0  0  0  0  0  0  0  0  0  0  0  0
    0.1046    3.8845   -1.1256 O   0  0  0  0  0  0  0  0  0  0  0  0
    6.8958   -1.7165   -0.3226 O   0  0  0  0  0  0  0  0  0  0  0  0
    7.8338    0.1882   -1.2246 O   0  0  0  0  0  0  0  0  0  0  0  0
    1.1303    0.1009    0.4705 C   0  0  1  0  0  0  0  0  0  0  0  0
    0.4451   -1.1123   -0.2587 C   0  0  2  0  0  0  0  0  0  0  0  0
    2.6461   -0.2127    0.3121 C   0  0  2  0  0  0  0  0  0  0  0  0
   -3.2586    0.3297    0.0609 C   0  0  1  0  0  0  0  0  0  0  0  0
   -1.0553   -1.0123   -0.0849 C   0  0  0  0  0  0  0  0  0  0  0  0
    0.6448    1.3761   -0.2173 C   0  0  1  0  0  0  0  0  0  0  0  0
   -3.9731   -1.0400   -0.2175 C   0  0  2  0  0  0  0  0  0  0  0  0
   -1.7164    0.1754   -0.0700 C   0  0  0  0  0  0  0  0  0  0  0  0
    2.7301   -1.7169    0.6367 C   0  0  0  0  0  0  0  0  0  0  0  0
    1.3183   -2.2144    0.3643 C   0  0  0  0  0  0  0  0  0  0  0  0
    3.6265    0.5948    1.1574 C   0  0  1  0  0  0  0  0  0  0  0  0
   -5.5275   -1.0387   -0.0254 C   0  0  0  0  0  0  0  0  0  0  0  0
    0.7817    0.1728    2.0009 C   0  0  0  0  0  0  0  0  0  0  0  0
   -0.8825    1.4577   -0.1597 C   0  0  0  0  0  0  0  0  0  0  0  0
   -3.2679   -2.1759    0.5160 C   0  0  0  0  0  0  0  0  0  0  0  0
   -3.8320    1.3587   -0.9668 C   0  0  0  0  0  0  0  0  0  0  0  0
    0.6971   -1.2257   -1.7871 C   0  0  0  0  0  0  0  0  0  0  0  0
   -1.8640   -2.2704   -0.0147 C   0  0  0  0  0  0  0  0  0  0  0  0
   -3.5236    0.8536    1.4944 C   0  0  0  0  0  0  0  0  0  0  0  0
   -5.2644    1.1092   -1.4366 C   0  0  0  0  0  0  0  0  0  0  0  0
   -6.0705    0.3379   -0.4214 C   0  0  0  0  0  0  0  0  0  0  0  0
    5.0646    0.0950    0.9185 C   0  0  0  0  0  0  0  0  0  0  0  0
    3.4744    2.0867    0.8496 C   0  0  0  0  0  0  0  0  0  0  0  0
   -6.1728   -2.0589   -0.9886 C   0  0  0  0  0  0  0  0  0  0  0  0
   -5.9904   -1.3961    1.3994 C   0  0  0  0  0  0  0  0  0  0  0  0
    5.4970    0.1500   -0.5479 C   0  0  0  0  0  0  0  0  0  0  0  0
    0.8294    3.7307   -0.1518 C   0  0  0  0  0  0  0  0  0  0  0  0
    6.8843   -0.4185   -0.7483 C   0  0  0  0  0  0  0  0  0  0  0  0
    1.4652    4.8558    0.6072 C   0  0  0  0  0  0  0  0  0  0  0  0
    8.1463   -2.3992   -0.4601 C   0  0  0  0  0  0  0  0  0  0  0  0
    2.8872   -0.0572   -0.7443 H   0  0  0  0  0  0  0  0  0  0  0  0
    0.9482    1.3909   -1.2707 H   0  0  0  0  0  0  0  0  0  0  0  0
   -3.8018   -1.2325   -1.2912 H   0  0  0  0  0  0  0  0  0  0  0  0
    3.4366   -2.2326   -0.0191 H   0  0  0  0  0  0  0  0  0  0  0  0
    2.9693   -1.9123    1.6865 H   0  0  0  0  0  0  0  0  0  0  0  0
    3.4303    0.4485    2.2267 H   0  0  0  0  0  0  0  0  0  0  0  0
   -0.2913    0.2629    2.1917 H   0  0  0  0  0  0  0  0  0  0  0  0
    1.2451    1.0393    2.4827 H   0  0  0  0  0  0  0  0  0  0  0  0
    1.1147   -0.7150    2.5479 H   0  0  0  0  0  0  0  0  0  0  0  0
   -3.7643   -3.1316    0.3147 H   0  0  0  0  0  0  0  0  0  0  0  0
   -3.2294   -2.0425    1.6010 H   0  0  0  0  0  0  0  0  0  0  0  0
   -3.8029    2.3682   -0.5369 H   0  0  0  0  0  0  0  0  0  0  0  0
   -3.1995    1.3953   -1.8640 H   0  0  0  0  0  0  0  0  0  0  0  0
    0.2581   -2.1522   -2.1792 H   0  0  0  0  0  0  0  0  0  0  0  0
    0.2487   -0.4011   -2.3513 H   0  0  0  0  0  0  0  0  0  0  0  0
    1.7581   -1.2708   -2.0511 H   0  0  0  0  0  0  0  0  0  0  0  0
   -2.9371    1.7525    1.7164 H   0  0  0  0  0  0  0  0  0  0  0  0
   -3.2599    0.1132    2.2565 H   0  0  0  0  0  0  0  0  0  0  0  0
   -4.5676    1.1416    1.6435 H   0  0  0  0  0  0  0  0  0  0  0  0
   -5.2677    0.5381   -2.3720 H   0  0  0  0  0  0  0  0  0  0  0  0
   -5.7609    2.0628   -1.6478 H   0  0  0  0  0  0  0  0  0  0  0  0
    5.7617    0.6962    1.5175 H   0  0  0  0  0  0  0  0  0  0  0  0
    5.1676   -0.9249    1.3076 H   0  0  0  0  0  0  0  0  0  0  0  0
    4.4477    2.5723    1.0172 H   0  0  0  0  0  0  0  0  0  0  0  0
    3.2687    2.2994   -0.2021 H   0  0  0  0  0  0  0  0  0  0  0  0
    2.8623    2.5779    1.6073 H   0  0  0  0  0  0  0  0  0  0  0  0
   -7.2668   -2.0309   -0.9184 H   0  0  0  0  0  0  0  0  0  0  0  0
   -5.8511   -3.0817   -0.7671 H   0  0  0  0  0  0  0  0  0  0  0  0
   -5.9174   -1.8453   -2.0328 H   0  0  0  0  0  0  0  0  0  0  0  0
   -7.0832   -1.3513    1.4822 H   0  0  0  0  0  0  0  0  0  0  0  0
   -5.5945   -0.7150    2.1550 H   0  0  0  0  0  0  0  0  0  0  0  0
   -5.6957   -2.4133    1.6781 H   0  0  0  0  0  0  0  0  0  0  0  0
    4.8443   -0.4212   -1.2136 H   0  0  0  0  0  0  0  0  0  0  0  0
    5.5052    1.1853   -0.9060 H   0  0  0  0  0  0  0  0  0  0  0  0
    0.9872    5.7974    0.3219 H   0  0  0  0  0  0  0  0  0  0  0  0
    1.3159    4.7155    1.6811 H   0  0  0  0  0  0  0  0  0  0  0  0
    2.5297    4.9101    0.3697 H   0  0  0  0  0  0  0  0  0  0  0  0
    8.4390   -2.4448   -1.5134 H   0  0  0  0  0  0  0  0  0  0  0  0
    8.9172   -1.9004    0.1349 H   0  0  0  0  0  0  0  0  0  0  0  0
    8.0196   -3.4188   -0.0866 H   0  0  0  0  0  0  0  0  0  0  0  0
  1 14  1  0  0  0  0
  1 35  1  0  0  0  0
  2 18  2  0  0  0  0
  3 22  2  0  0  0  0
  4 26  2  0  0  0  0
  5 29  2  0  0  0  0
  6 35  2  0  0  0  0
  7 36  1  0  0  0  0
  7 38  1  0  0  0  0
  8 36  2  0  0  0  0
  9 10  1  0  0  0  0
  9 11  1  0  0  0  0
  9 14  1  0  0  0  0
  9 21  1  0  0  0  0
 10 13  1  0  0  0  0
 10 18  1  0  0  0  0
 10 25  1  0  0  0  0
 11 17  1  0  0  0  0
 11 19  1  0  0  0  0
 11 39  1  0  0  0  0
 12 15  1  0  0  0  0
 12 16  1  0  0  0  0
 12 24  1  0  0  0  0
 12 27  1  0  0  0  0
 13 16  2  0  0  0  0
 13 26  1  0  0  0  0
 14 22  1  0  0  0  0
 14 40  1  0  0  0  0
 15 20  1  0  0  0  0
 15 23  1  0  0  0  0
 15 41  1  0  0  0  0
 16 22  1  0  0  0  0
 17 18  1  0  0  0  0
 17 42  1  0  0  0  0
 17 43  1  0  0  0  0
 19 30  1  0  0  0  0
 19 31  1  0  0  0  0
 19 44  1  0  0  0  0
 20 29  1  0  0  0  0
 20 32  1  0  0  0  0
 20 33  1  0  0  0  0
 21 45  1  0  0  0  0
 21 46  1  0  0  0  0
 21 47  1  0  0  0  0
 23 26  1  0  0  0  0
 23 48  1  0  0  0  0
 23 49  1  0  0  0  0
 24 28  1  0  0  0  0
 24 50  1  0  0  0  0
 24 51  1  0  0  0  0
 25 52  1  0  0  0  0
 25 53  1  0  0  0  0
 25 54  1  0  0  0  0
 27 55  1  0  0  0  0
 27 56  1  0  0  0  0
 27 57  1  0  0  0  0
 28 29  1  0  0  0  0
 28 58  1  0  0  0  0
 28 59  1  0  0  0  0
 30 34  1  0  0  0  0
 30 60  1  0  0  0  0
 30 61  1  0  0  0  0
 31 62  1  0  0  0  0
 31 63  1  0  0  0  0
 31 64  1  0  0  0  0
 32 65  1  0  0  0  0
 32 66  1  0  0  0  0
 32 67  1  0  0  0  0
 33 68  1  0  0  0  0
 33 69  1  0  0  0  0
 33 70  1  0  0  0  0
 34 36  1  0  0  0  0
 34 71  1  0  0  0  0
 34 72  1  0  0  0  0
 35 37  1  0  0  0  0
 37 73  1  0  0  0  0
 37 74  1  0  0  0  0
 37 75  1  0  0  0  0
 38 76  1  0  0  0  0
 38 77  1  0  0  0  0
 38 78  1  0  0  0  0
M  END
> <PUBCHEM_COMPOUND_CID>
21633083

> <PUBCHEM_CONFORMER_RMSD>
1

> <PUBCHEM_CONFORMER_DIVERSEORDER>
4
2
3
1

> <PUBCHEM_MMFF94_PARTIAL_CHARGES>
26
1 -0.43
10 0.2
12 0.14
13 -0.12
14 0.34
16 -0.12
17 0.06
18 0.45
2 -0.57
20 0.06
22 0.49
23 0.06
26 0.49
28 0.06
29 0.45
3 -0.57
34 0.06
35 0.66
36 0.66
37 0.06
38 0.28
4 -0.57
5 -0.57
6 -0.57
7 -0.43
8 -0.57

> <PUBCHEM_EFFECTIVE_ROTOR_COUNT>
8.4

> <PUBCHEM_PHARMACOPHORE_FEATURES>
12
1 2 acceptor
1 3 acceptor
1 31 hydrophobe
1 4 acceptor
1 5 acceptor
1 6 acceptor
1 8 acceptor
3 20 32 33 hydrophobe
5 9 10 11 17 18 rings
6 12 13 15 16 23 26 rings
6 12 15 20 24 28 29 rings
6 9 10 13 14 16 22 rings

> <PUBCHEM_HEAVY_ATOM_COUNT>
38

> <PUBCHEM_ATOM_DEF_STEREO_COUNT>
7

> <PUBCHEM_ATOM_UDEF_STEREO_COUNT>
0

> <PUBCHEM_BOND_DEF_STEREO_COUNT>
0

> <PUBCHEM_BOND_UDEF_STEREO_COUNT>
0

> <PUBCHEM_ISOTOPIC_ATOM_COUNT>
0

> <PUBCHEM_COMPONENT_COUNT>
1

> <PUBCHEM_CACTVS_TAUTO_COUNT>
16

> <PUBCHEM_CONFORMER_ID>
014A183B00000004

> <PUBCHEM_MMFF94_ENERGY>
157.6488

> <PUBCHEM_FEATURE_SELFOVERLAP>
61.076

> <PUBCHEM_SHAPE_FINGERPRINT>
10050765 1 18051128391456592647
10076449 9 18341621421505784724
10675989 125 16821059224571096645
1100329 8 18266735968764139867
11578080 2 17025137541385961463
12011746 2 18412258432754665255
12058002 1 17557461844135449138
12166972 35 18201720703652542697
12645989 146 18342173418333045190
12788726 201 18189049811996257096
13140716 1 18193836174794978105
13782708 43 17846776287476349758
13811026 1 18411692218726475117
14020679 6 17749947894544149011
14068700 675 18202563990448132489
14117953 113 18411978049232684069
14790565 3 17903918108271775933
14955137 171 18410858801818790896
15081414 286 18412831274345076771
15183329 4 18272656732065077034
15439362 3 18120937471263011580
15849732 13 18201437008325186044
1601671 61 18409440405964532641
16087824 20 18337390414852934957
16628084 112 18265046921742497670
16994733 274 14851879240671096628
17349148 13 18201717401365848049
18681886 176 18341606066095615371
19319366 153 17822005394183077666
19611394 137 18042701648447747339
21033648 29 17987778805272773249
21267235 1 18410015459299499795
21792961 116 18187925028390631078
22311459 1 18410008840480297587
23559900 14 18341043129254189585
23569917 315 18270965782103871807
23569943 247 18201157637904646846
23576562 1 18115865381605879741
24771293 8 18055616555462417664
24771750 20 18047205321316135820
3178227 256 18336275625519227891
335352 9 18410854382487029279
350125 39 18410009927218007707
4144715 1 18045222901381653131
437815 12 17989491818793487384
5265222 85 18261960764185042886
563151 74 16342276160463976328
57527358 35 15287306628685799932
59755656 215 18409728431252101694
6138700 20 18411138013606088862

> <PUBCHEM_SHAPE_MULTIPOLES>
735.07
16.76
4.09
1.26
13.05
3.55
0.1
-8.24
-3.75
1.59
-0.08
-0.15
0.06
0.97

> <PUBCHEM_SHAPE_SELFOVERLAP>
1580.344

> <PUBCHEM_SHAPE_VOLUME>
400.4

> <PUBCHEM_COORDINATE_TYPE>
2
5
10

$$$$
