21632955
  -OEChem-09122004373D

 84 87  0     1  0  0  0  0  0999 V2000
   -2.3414   -2.5083    1.5175 O   0  0  0  0  0  0  0  0  0  0  0  0
   -8.3073    1.0166   -1.0802 O   0  0  0  0  0  0  0  0  0  0  0  0
   -0.2430   -3.3280   -0.0221 O   0  0  0  0  0  0  0  0  0  0  0  0
   -2.0374    2.8714   -0.5265 O   0  0  0  0  0  0  0  0  0  0  0  0
    5.0951    0.8642    2.4642 O   0  0  0  0  0  0  0  0  0  0  0  0
    7.7852   -0.8865   -1.5445 O   0  0  0  0  0  0  0  0  0  0  0  0
    9.3353    0.7384   -1.0174 O   0  0  0  0  0  0  0  0  0  0  0  0
    0.2507    0.1472    0.2744 C   0  0  1  0  0  0  0  0  0  0  0  0
   -0.6314   -0.9324   -0.4249 C   0  0  2  0  0  0  0  0  0  0  0  0
   -4.1121    0.8522    0.1337 C   0  0  1  0  0  0  0  0  0  0  0  0
   -4.9167   -0.4725   -0.1846 C   0  0  2  0  0  0  0  0  0  0  0  0
   -2.0760   -0.6924   -0.0250 C   0  0  0  0  0  0  0  0  0  0  0  0
    1.6935   -0.3256   -0.0429 C   0  0  2  0  0  0  0  0  0  0  0  0
   -2.5965    0.5648   -0.0833 C   0  0  0  0  0  0  0  0  0  0  0  0
   -6.4879   -0.3802   -0.2152 C   0  0  0  0  0  0  0  0  0  0  0  0
   -0.1205    1.5042   -0.3087 C   0  0  0  0  0  0  0  0  0  0  0  0
   -4.3757   -1.6224    0.6694 C   0  0  0  0  0  0  0  0  0  0  0  0
   -2.9048   -1.8984    0.3549 C   0  0  2  0  0  0  0  0  0  0  0  0
   -4.6707    1.9567   -0.8075 C   0  0  0  0  0  0  0  0  0  0  0  0
    1.6379   -1.8399    0.2265 C   0  0  0  0  0  0  0  0  0  0  0  0
    0.1803   -2.1793   -0.0395 C   0  0  0  0  0  0  0  0  0  0  0  0
   -6.8975    0.8025   -1.1333 C   0  0  2  0  0  0  0  0  0  0  0  0
   -1.6321    1.7268   -0.3232 C   0  0  0  0  0  0  0  0  0  0  0  0
   -6.1894    2.1018   -0.7810 C   0  0  0  0  0  0  0  0  0  0  0  0
    2.8200    0.3562    0.7244 C   0  0  1  0  0  0  0  0  0  0  0  0
    0.0405    0.2049    1.8237 C   0  0  0  0  0  0  0  0  0  0  0  0
   -0.5947   -0.9510   -1.9802 C   0  0  0  0  0  0  0  0  0  0  0  0
   -4.2207    1.3391    1.5967 C   0  0  0  0  0  0  0  0  0  0  0  0
   -7.1436   -0.2678    1.1771 C   0  0  0  0  0  0  0  0  0  0  0  0
   -7.0723   -1.6728   -0.8547 C   0  0  0  0  0  0  0  0  0  0  0  0
    4.1017   -0.4944    0.7260 C   0  0  0  0  0  0  0  0  0  0  0  0
    3.1130    1.7298    0.1121 C   0  0  0  0  0  0  0  0  0  0  0  0
    5.2590    0.1459    1.4784 C   0  0  0  0  0  0  0  0  0  0  0  0
    6.6539   -0.1628    0.9647 C   0  0  0  0  0  0  0  0  0  0  0  0
    7.0818    0.8437   -0.1046 C   0  0  1  0  0  0  0  0  0  0  0  0
    7.5497    2.1517    0.5326 C   0  0  0  0  0  0  0  0  0  0  0  0
    8.2118    0.2589   -0.9359 C   0  0  0  0  0  0  0  0  0  0  0  0
    8.7625   -1.5626   -2.3413 C   0  0  0  0  0  0  0  0  0  0  0  0
   -4.6485   -0.7260   -1.2255 H   0  0  0  0  0  0  0  0  0  0  0  0
    1.8914   -0.1922   -1.1153 H   0  0  0  0  0  0  0  0  0  0  0  0
    0.2883    2.3145    0.3020 H   0  0  0  0  0  0  0  0  0  0  0  0
    0.2499    1.6278   -1.3320 H   0  0  0  0  0  0  0  0  0  0  0  0
   -4.5108   -1.4219    1.7384 H   0  0  0  0  0  0  0  0  0  0  0  0
   -4.9240   -2.5531    0.4907 H   0  0  0  0  0  0  0  0  0  0  0  0
   -2.8526   -2.6220   -0.4681 H   0  0  0  0  0  0  0  0  0  0  0  0
   -4.2774    2.9413   -0.5371 H   0  0  0  0  0  0  0  0  0  0  0  0
   -4.3514    1.7574   -1.8392 H   0  0  0  0  0  0  0  0  0  0  0  0
    1.8540   -2.1043    1.2657 H   0  0  0  0  0  0  0  0  0  0  0  0
    2.2809   -2.3970   -0.4602 H   0  0  0  0  0  0  0  0  0  0  0  0
   -6.6551    0.5485   -2.1739 H   0  0  0  0  0  0  0  0  0  0  0  0
   -6.4864    2.8790   -1.4973 H   0  0  0  0  0  0  0  0  0  0  0  0
   -6.5303    2.4756    0.1911 H   0  0  0  0  0  0  0  0  0  0  0  0
    2.5573    0.5074    1.7751 H   0  0  0  0  0  0  0  0  0  0  0  0
    0.5976    1.0352    2.2709 H   0  0  0  0  0  0  0  0  0  0  0  0
    0.3520   -0.7166    2.3250 H   0  0  0  0  0  0  0  0  0  0  0  0
   -1.0024    0.3742    2.1075 H   0  0  0  0  0  0  0  0  0  0  0  0
    0.4083   -1.1280   -2.3824 H   0  0  0  0  0  0  0  0  0  0  0  0
   -1.2214   -1.7668   -2.3642 H   0  0  0  0  0  0  0  0  0  0  0  0
   -0.9686   -0.0254   -2.4297 H   0  0  0  0  0  0  0  0  0  0  0  0
   -5.2293    1.6407    1.8743 H   0  0  0  0  0  0  0  0  0  0  0  0
   -3.8879    0.5840    2.3159 H   0  0  0  0  0  0  0  0  0  0  0  0
   -3.5917    2.2232    1.7619 H   0  0  0  0  0  0  0  0  0  0  0  0
   -8.2287   -0.4163    1.1134 H   0  0  0  0  0  0  0  0  0  0  0  0
   -6.7665   -1.0279    1.8677 H   0  0  0  0  0  0  0  0  0  0  0  0
   -7.0026    0.7097    1.6371 H   0  0  0  0  0  0  0  0  0  0  0  0
   -8.1492   -1.5782   -1.0363 H   0  0  0  0  0  0  0  0  0  0  0  0
   -6.5969   -1.8896   -1.8179 H   0  0  0  0  0  0  0  0  0  0  0  0
   -6.9407   -2.5468   -0.2092 H   0  0  0  0  0  0  0  0  0  0  0  0
    3.9539   -1.4680    1.2033 H   0  0  0  0  0  0  0  0  0  0  0  0
    4.4185   -0.6725   -0.3089 H   0  0  0  0  0  0  0  0  0  0  0  0
    3.2856    1.6592   -0.9674 H   0  0  0  0  0  0  0  0  0  0  0  0
    4.0004    2.1980    0.5482 H   0  0  0  0  0  0  0  0  0  0  0  0
    2.3047    2.4386    0.2840 H   0  0  0  0  0  0  0  0  0  0  0  0
   -2.8334   -3.3303    1.6848 H   0  0  0  0  0  0  0  0  0  0  0  0
   -8.5196    1.7363   -1.6987 H   0  0  0  0  0  0  0  0  0  0  0  0
    6.6461   -1.1957    0.5985 H   0  0  0  0  0  0  0  0  0  0  0  0
    7.3453   -0.1582    1.8165 H   0  0  0  0  0  0  0  0  0  0  0  0
    6.2570    1.0722   -0.7909 H   0  0  0  0  0  0  0  0  0  0  0  0
    8.3891    1.9898    1.2182 H   0  0  0  0  0  0  0  0  0  0  0  0
    7.8819    2.8616   -0.2332 H   0  0  0  0  0  0  0  0  0  0  0  0
    6.7403    2.6291    1.0937 H   0  0  0  0  0  0  0  0  0  0  0  0
    9.0976   -0.9169   -3.1585 H   0  0  0  0  0  0  0  0  0  0  0  0
    9.6087   -1.8721   -1.7206 H   0  0  0  0  0  0  0  0  0  0  0  0
    8.2955   -2.4544   -2.7678 H   0  0  0  0  0  0  0  0  0  0  0  0
  1 18  1  0  0  0  0
  1 74  1  0  0  0  0
  2 22  1  0  0  0  0
  2 75  1  0  0  0  0
  3 21  2  0  0  0  0
  4 23  2  0  0  0  0
  5 33  2  0  0  0  0
  6 37  1  0  0  0  0
  6 38  1  0  0  0  0
  7 37  2  0  0  0  0
  8  9  1  0  0  0  0
  8 13  1  0  0  0  0
  8 16  1  0  0  0  0
  8 26  1  0  0  0  0
  9 12  1  0  0  0  0
  9 21  1  0  0  0  0
  9 27  1  0  0  0  0
 10 11  1  0  0  0  0
 10 14  1  0  0  0  0
 10 19  1  0  0  0  0
 10 28  1  0  0  0  0
 11 15  1  0  0  0  0
 11 17  1  0  0  0  0
 11 39  1  0  0  0  0
 12 14  2  0  0  0  0
 12 18  1  0  0  0  0
 13 20  1  0  0  0  0
 13 25  1  0  0  0  0
 13 40  1  0  0  0  0
 14 23  1  0  0  0  0
 15 22  1  0  0  0  0
 15 29  1  0  0  0  0
 15 30  1  0  0  0  0
 16 23  1  0  0  0  0
 16 41  1  0  0  0  0
 16 42  1  0  0  0  0
 17 18  1  0  0  0  0
 17 43  1  0  0  0  0
 17 44  1  0  0  0  0
 18 45  1  0  0  0  0
 19 24  1  0  0  0  0
 19 46  1  0  0  0  0
 19 47  1  0  0  0  0
 20 21  1  0  0  0  0
 20 48  1  0  0  0  0
 20 49  1  0  0  0  0
 22 24  1  0  0  0  0
 22 50  1  0  0  0  0
 24 51  1  0  0  0  0
 24 52  1  0  0  0  0
 25 31  1  0  0  0  0
 25 32  1  0  0  0  0
 25 53  1  0  0  0  0
 26 54  1  0  0  0  0
 26 55  1  0  0  0  0
 26 56  1  0  0  0  0
 27 57  1  0  0  0  0
 27 58  1  0  0  0  0
 27 59  1  0  0  0  0
 28 60  1  0  0  0  0
 28 61  1  0  0  0  0
 28 62  1  0  0  0  0
 29 63  1  0  0  0  0
 29 64  1  0  0  0  0
 29 65  1  0  0  0  0
 30 66  1  0  0  0  0
 30 67  1  0  0  0  0
 30 68  1  0  0  0  0
 31 33  1  0  0  0  0
 31 69  1  0  0  0  0
 31 70  1  0  0  0  0
 32 71  1  0  0  0  0
 32 72  1  0  0  0  0
 32 73  1  0  0  0  0
 33 34  1  0  0  0  0
 34 35  1  0  0  0  0
 34 76  1  0  0  0  0
 34 77  1  0  0  0  0
 35 36  1  0  0  0  0
 35 37  1  0  0  0  0
 35 78  1  0  0  0  0
 36 79  1  0  0  0  0
 36 80  1  0  0  0  0
 36 81  1  0  0  0  0
 38 82  1  0  0  0  0
 38 83  1  0  0  0  0
 38 84  1  0  0  0  0
M  END
> <PUBCHEM_COMPOUND_CID>
21632955

> <PUBCHEM_CONFORMER_RMSD>
1

> <PUBCHEM_CONFORMER_DIVERSEORDER>
1
78
74
68
55
13
18
90
89
36
54
11
84
80
62
52
58
60
95
9
17
92
50
56
64
73
94
12
33
85
59
87
38
28
76
40
75
53
83
88
24
43
19
25
45
91
93
27
26
82
35
34
37
10
49
79
31
51
44
16
39
86
46
72
47
15
66
14
22
5
48
20
29
67
70
4
32
77
30
65
71
57
21
42
81
6
69
3
7
61
23
41
2
8
63

> <PUBCHEM_MMFF94_PARTIAL_CHARGES>
25
1 -0.68
10 0.14
12 -0.28
14 -0.12
16 0.06
18 0.42
2 -0.68
20 0.06
21 0.45
22 0.28
23 0.49
3 -0.57
31 0.06
33 0.45
34 0.06
35 0.06
37 0.66
38 0.28
4 -0.57
5 -0.57
6 -0.43
7 -0.57
74 0.4
75 0.4
9 0.2

> <PUBCHEM_EFFECTIVE_ROTOR_COUNT>
8.8

> <PUBCHEM_PHARMACOPHORE_FEATURES>
15
1 1 acceptor
1 1 donor
1 2 acceptor
1 2 donor
1 3 acceptor
1 32 hydrophobe
1 36 hydrophobe
1 4 acceptor
1 5 acceptor
1 7 acceptor
3 15 29 30 hydrophobe
5 8 9 13 20 21 rings
6 10 11 12 14 17 18 rings
6 10 11 15 19 22 24 rings
6 8 9 12 14 16 23 rings

> <PUBCHEM_HEAVY_ATOM_COUNT>
38

> <PUBCHEM_ATOM_DEF_STEREO_COUNT>
8

> <PUBCHEM_ATOM_UDEF_STEREO_COUNT>
1

> <PUBCHEM_BOND_DEF_STEREO_COUNT>
0

> <PUBCHEM_BOND_UDEF_STEREO_COUNT>
0

> <PUBCHEM_ISOTOPIC_ATOM_COUNT>
0

> <PUBCHEM_COMPONENT_COUNT>
1

> <PUBCHEM_CACTVS_TAUTO_COUNT>
12

> <PUBCHEM_CONFORMER_ID>
014A17BB00000001

> <PUBCHEM_MMFF94_ENERGY>
134.8075

> <PUBCHEM_FEATURE_SELFOVERLAP>
76.221

> <PUBCHEM_SHAPE_FINGERPRINT>
10 15 17967812743074005041
10076449 9 18342177782393961265
11007060 377 18261115192171394408
11315181 36 18413387649188955745
11578080 2 16662870450635317135
11578821 258 17022897947690464884
11991303 11 17346027987302593262
12133447 93 18336829680427314772
12236239 1 16950559978840833355
13150687 139 18131911550790449783
13811026 1 18408322206854858876
14117953 113 18335415768624369589
14251764 18 17676483960466971168
14294032 229 18115306653031362517
1454969 45 18335415768381386117
14856354 85 18187651344168279199
150020 25 18341899580614710590
15183329 4 18410856551962510720
15328829 1 17385732413249138878
15392192 104 17167865261572579954
15461852 350 18271522087356770447
15510794 2 18201718458413028050
1577012 14 17894625924861795272
15849732 13 18334575754873362420
15927050 60 18412820313594896966
18608769 82 18412544340644326306
18681886 176 18337100259145588321
19611394 137 17750808821007592537
20105231 36 18409737270242257258
21033648 29 17986370374143912824
21792961 116 18202568350514735698
23559900 14 18265330612689795499
23569943 247 16199595658937066958
23576562 1 18115874173114199756
24771293 8 18409166576562878685
249057 3 18334295400535014516
335352 9 18333725836911959429
350125 39 18335976523828364088
4017518 198 18059859476165688934
4073 2 17821729433474792371
4098825 35 14908188529342517904
5104073 3 18263361387886195275
5265222 85 18266461087121703074
59755656 215 18343865498778504114
59755656 520 15410889682415818669

> <PUBCHEM_SHAPE_MULTIPOLES>
740.94
25.47
2.51
1.6
36.23
0.43
-0.05
-4.17
8.57
-1.23
0.19
1.68
0.17
2.18

> <PUBCHEM_SHAPE_SELFOVERLAP>
1567.149

> <PUBCHEM_SHAPE_VOLUME>
414.3

> <PUBCHEM_COORDINATE_TYPE>
2
5
10

$$$$
