57402629
  -OEChem-09122006343D

 91 95  0     1  0  0  0  0  0999 V2000
    0.2470   -2.9586    0.2492 O   0  0  0  0  0  0  0  0  0  0  0  0
    2.3366   -2.5141   -0.9210 O   0  0  0  0  0  0  0  0  0  0  0  0
    1.9971    3.3165    0.1492 O   0  0  0  0  0  0  0  0  0  0  0  0
    7.9219    1.3348    1.5809 O   0  0  0  0  0  0  0  0  0  0  0  0
   -5.2124    0.9332   -2.2457 O   0  0  0  0  0  0  0  0  0  0  0  0
   -8.1175   -0.6299    1.6899 O   0  0  0  0  0  0  0  0  0  0  0  0
   -9.8525    0.4795    0.6511 O   0  0  0  0  0  0  0  0  0  0  0  0
    0.5560   -0.5257    0.3705 C   0  0  1  0  0  0  0  0  0  0  0  0
   -0.3267    0.6287   -0.1990 C   0  0  1  0  0  0  0  0  0  0  0  0
   -1.7518    0.1175    0.1492 C   0  0  2  0  0  0  0  0  0  0  0  0
   -0.1543   -1.7170   -0.3041 C   0  0  2  0  0  0  0  0  0  0  0  0
    2.0267   -0.2903    0.0749 C   0  0  0  0  0  0  0  0  0  0  0  0
   -1.6533   -1.4198   -0.0701 C   0  0  0  0  0  0  0  0  0  0  0  0
    4.0702    1.2384   -0.1732 C   0  0  2  0  0  0  0  0  0  0  0  0
    2.5504    0.9665    0.0471 C   0  0  0  0  0  0  0  0  0  0  0  0
    0.1110    1.9226    0.4665 C   0  0  0  0  0  0  0  0  0  0  0  0
    4.8856   -0.0589    0.2109 C   0  0  1  0  0  0  0  0  0  0  0  0
    2.8804   -1.5479   -0.0197 C   0  0  2  0  0  0  0  0  0  0  0  0
    4.3010   -1.2741   -0.5165 C   0  0  0  0  0  0  0  0  0  0  0  0
   -2.9157    0.7513   -0.6034 C   0  0  1  0  0  0  0  0  0  0  0  0
    0.4972   -0.6936    1.9276 C   0  0  0  0  0  0  0  0  0  0  0  0
   -0.2093    0.8348   -1.7479 C   0  0  0  0  0  0  0  0  0  0  0  0
    1.5977    2.1539    0.2140 C   0  0  0  0  0  0  0  0  0  0  0  0
    6.4499    0.0184    0.1660 C   0  0  0  0  0  0  0  0  0  0  0  0
    4.6365    2.3671    0.7336 C   0  0  0  0  0  0  0  0  0  0  0  0
    1.4266   -3.4882   -0.3806 C   0  0  0  0  0  0  0  0  0  0  0  0
    4.1879    1.6543   -1.6571 C   0  0  0  0  0  0  0  0  0  0  0  0
    6.1419    2.5656    0.6098 C   0  0  0  0  0  0  0  0  0  0  0  0
    6.9072    1.2970    0.8815 C   0  0  0  0  0  0  0  0  0  0  0  0
   -4.2665    0.1685   -0.1542 C   0  0  0  0  0  0  0  0  0  0  0  0
   -2.9118    2.2686   -0.3906 C   0  0  0  0  0  0  0  0  0  0  0  0
    7.0692   -0.0042   -1.2382 C   0  0  0  0  0  0  0  0  0  0  0  0
    7.0455   -1.1844    0.9459 C   0  0  0  0  0  0  0  0  0  0  0  0
    0.9746   -4.3425   -1.5744 C   0  0  0  0  0  0  0  0  0  0  0  0
    2.1194   -4.4132    0.6258 C   0  0  0  0  0  0  0  0  0  0  0  0
   -5.3896    0.3858   -1.1577 C   0  0  0  0  0  0  0  0  0  0  0  0
   -6.7607   -0.1325   -0.7624 C   0  0  0  0  0  0  0  0  0  0  0  0
   -7.5465    0.9268    0.0128 C   0  0  1  0  0  0  0  0  0  0  0  0
   -8.1535    1.9595   -0.9363 C   0  0  0  0  0  0  0  0  0  0  0  0
   -8.6581    0.2607    0.8070 C   0  0  0  0  0  0  0  0  0  0  0  0
   -9.0579   -1.3550    2.4885 C   0  0  0  0  0  0  0  0  0  0  0  0
   -1.9370    0.2899    1.2184 H   0  0  0  0  0  0  0  0  0  0  0  0
    0.0155   -1.7324   -1.3870 H   0  0  0  0  0  0  0  0  0  0  0  0
   -2.0432   -1.9658    0.7966 H   0  0  0  0  0  0  0  0  0  0  0  0
   -2.2226   -1.7567   -0.9441 H   0  0  0  0  0  0  0  0  0  0  0  0
   -0.0653    1.9302    1.5465 H   0  0  0  0  0  0  0  0  0  0  0  0
   -0.4054    2.7931    0.0565 H   0  0  0  0  0  0  0  0  0  0  0  0
    4.6630   -0.2185    1.2811 H   0  0  0  0  0  0  0  0  0  0  0  0
    2.9688   -1.9698    0.9866 H   0  0  0  0  0  0  0  0  0  0  0  0
    4.8882   -2.1813   -0.3411 H   0  0  0  0  0  0  0  0  0  0  0  0
    4.3134   -1.1410   -1.6044 H   0  0  0  0  0  0  0  0  0  0  0  0
   -2.8118    0.5589   -1.6774 H   0  0  0  0  0  0  0  0  0  0  0  0
   -0.5149   -0.8362    2.3147 H   0  0  0  0  0  0  0  0  0  0  0  0
    0.9249    0.1671    2.4539 H   0  0  0  0  0  0  0  0  0  0  0  0
    1.0701   -1.5691    2.2558 H   0  0  0  0  0  0  0  0  0  0  0  0
   -0.7099    0.0479   -2.3208 H   0  0  0  0  0  0  0  0  0  0  0  0
    0.8301    0.8450   -2.0903 H   0  0  0  0  0  0  0  0  0  0  0  0
   -0.6435    1.7842   -2.0730 H   0  0  0  0  0  0  0  0  0  0  0  0
    4.3867    2.1510    1.7812 H   0  0  0  0  0  0  0  0  0  0  0  0
    4.1922    3.3371    0.4985 H   0  0  0  0  0  0  0  0  0  0  0  0
    5.1960    1.9469   -1.9445 H   0  0  0  0  0  0  0  0  0  0  0  0
    3.5580    2.5259   -1.8736 H   0  0  0  0  0  0  0  0  0  0  0  0
    3.8657    0.8606   -2.3387 H   0  0  0  0  0  0  0  0  0  0  0  0
    6.4589    3.3203    1.3394 H   0  0  0  0  0  0  0  0  0  0  0  0
    6.4245    2.9388   -0.3788 H   0  0  0  0  0  0  0  0  0  0  0  0
   -4.1979   -0.9157   -0.0187 H   0  0  0  0  0  0  0  0  0  0  0  0
   -4.5677    0.6038    0.8056 H   0  0  0  0  0  0  0  0  0  0  0  0
   -2.7352    2.5334    0.6573 H   0  0  0  0  0  0  0  0  0  0  0  0
   -3.8801    2.7033   -0.6646 H   0  0  0  0  0  0  0  0  0  0  0  0
   -2.1847    2.7791   -1.0223 H   0  0  0  0  0  0  0  0  0  0  0  0
    6.9225    0.9268   -1.7860 H   0  0  0  0  0  0  0  0  0  0  0  0
    8.1355   -1.1043    1.0384 H   0  0  0  0  0  0  0  0  0  0  0  0
    6.6422   -1.2363    1.9638 H   0  0  0  0  0  0  0  0  0  0  0  0
    6.8466   -2.1390    0.4501 H   0  0  0  0  0  0  0  0  0  0  0  0
    8.1574   -0.1336   -1.1774 H   0  0  0  0  0  0  0  0  0  0  0  0
    6.6807   -0.8286   -1.8435 H   0  0  0  0  0  0  0  0  0  0  0  0
    1.4843   -5.2705    0.8760 H   0  0  0  0  0  0  0  0  0  0  0  0
    3.0777   -4.7762    0.2403 H   0  0  0  0  0  0  0  0  0  0  0  0
    2.3141   -3.9009    1.5735 H   0  0  0  0  0  0  0  0  0  0  0  0
    1.8270   -4.8404   -2.0498 H   0  0  0  0  0  0  0  0  0  0  0  0
    0.2405   -5.0968   -1.2713 H   0  0  0  0  0  0  0  0  0  0  0  0
    0.5012   -3.7250   -2.3456 H   0  0  0  0  0  0  0  0  0  0  0  0
   -6.6101   -1.0530   -0.1874 H   0  0  0  0  0  0  0  0  0  0  0  0
   -7.2917   -0.4373   -1.6727 H   0  0  0  0  0  0  0  0  0  0  0  0
   -6.9060    1.4553    0.7295 H   0  0  0  0  0  0  0  0  0  0  0  0
   -8.8210    1.4921   -1.6690 H   0  0  0  0  0  0  0  0  0  0  0  0
   -8.7399    2.7012   -0.3823 H   0  0  0  0  0  0  0  0  0  0  0  0
   -7.3737    2.4993   -1.4829 H   0  0  0  0  0  0  0  0  0  0  0  0
   -8.4991   -2.0263    3.1459 H   0  0  0  0  0  0  0  0  0  0  0  0
   -9.7138   -1.9544    1.8500 H   0  0  0  0  0  0  0  0  0  0  0  0
   -9.6423   -0.6655    3.1051 H   0  0  0  0  0  0  0  0  0  0  0  0
  1 11  1  0  0  0  0
  1 26  1  0  0  0  0
  2 18  1  0  0  0  0
  2 26  1  0  0  0  0
  3 23  2  0  0  0  0
  4 29  2  0  0  0  0
  5 36  2  0  0  0  0
  6 40  1  0  0  0  0
  6 41  1  0  0  0  0
  7 40  2  0  0  0  0
  8  9  1  0  0  0  0
  8 11  1  0  0  0  0
  8 12  1  0  0  0  0
  8 21  1  0  0  0  0
  9 10  1  0  0  0  0
  9 16  1  0  0  0  0
  9 22  1  0  0  0  0
 10 13  1  0  0  0  0
 10 20  1  0  0  0  0
 10 42  1  0  0  0  0
 11 13  1  0  0  0  0
 11 43  1  0  0  0  0
 12 15  2  0  0  0  0
 12 18  1  0  0  0  0
 13 44  1  0  0  0  0
 13 45  1  0  0  0  0
 14 15  1  0  0  0  0
 14 17  1  0  0  0  0
 14 25  1  0  0  0  0
 14 27  1  0  0  0  0
 15 23  1  0  0  0  0
 16 23  1  0  0  0  0
 16 46  1  0  0  0  0
 16 47  1  0  0  0  0
 17 19  1  0  0  0  0
 17 24  1  0  0  0  0
 17 48  1  0  0  0  0
 18 19  1  0  0  0  0
 18 49  1  0  0  0  0
 19 50  1  0  0  0  0
 19 51  1  0  0  0  0
 20 30  1  0  0  0  0
 20 31  1  0  0  0  0
 20 52  1  0  0  0  0
 21 53  1  0  0  0  0
 21 54  1  0  0  0  0
 21 55  1  0  0  0  0
 22 56  1  0  0  0  0
 22 57  1  0  0  0  0
 22 58  1  0  0  0  0
 24 29  1  0  0  0  0
 24 32  1  0  0  0  0
 24 33  1  0  0  0  0
 25 28  1  0  0  0  0
 25 59  1  0  0  0  0
 25 60  1  0  0  0  0
 26 34  1  0  0  0  0
 26 35  1  0  0  0  0
 27 61  1  0  0  0  0
 27 62  1  0  0  0  0
 27 63  1  0  0  0  0
 28 29  1  0  0  0  0
 28 64  1  0  0  0  0
 28 65  1  0  0  0  0
 30 36  1  0  0  0  0
 30 66  1  0  0  0  0
 30 67  1  0  0  0  0
 31 68  1  0  0  0  0
 31 69  1  0  0  0  0
 31 70  1  0  0  0  0
 32 71  1  0  0  0  0
 32 75  1  0  0  0  0
 32 76  1  0  0  0  0
 33 72  1  0  0  0  0
 33 73  1  0  0  0  0
 33 74  1  0  0  0  0
 34 80  1  0  0  0  0
 34 81  1  0  0  0  0
 34 82  1  0  0  0  0
 35 77  1  0  0  0  0
 35 78  1  0  0  0  0
 35 79  1  0  0  0  0
 36 37  1  0  0  0  0
 37 38  1  0  0  0  0
 37 83  1  0  0  0  0
 37 84  1  0  0  0  0
 38 39  1  0  0  0  0
 38 40  1  0  0  0  0
 38 85  1  0  0  0  0
 39 86  1  0  0  0  0
 39 87  1  0  0  0  0
 39 88  1  0  0  0  0
 41 89  1  0  0  0  0
 41 90  1  0  0  0  0
 41 91  1  0  0  0  0
M  END
> <PUBCHEM_COMPOUND_CID>
57402629

> <PUBCHEM_CONFORMER_RMSD>
1

> <PUBCHEM_CONFORMER_DIVERSEORDER>
1
25
27
17
61
30
4
58
72
60
50
54
34
66
33
43
18
22
24
71
37
29
67
42
11
44
56
13
21
16
52
10
8
68
35
46
59
12
41
28
7
26
63
23
14
5
49
45
31
9
32
53
39
40
69
3
55
38
19
48
47
57
6
51
64
36
20
2
70
15
62
65

> <PUBCHEM_MMFF94_PARTIAL_CHARGES>
25
1 -0.56
11 0.28
12 -0.28
14 0.14
15 -0.12
16 0.06
18 0.42
2 -0.56
23 0.49
24 0.06
26 0.56
28 0.06
29 0.45
3 -0.57
30 0.06
36 0.45
37 0.06
38 0.06
4 -0.57
40 0.66
41 0.28
5 -0.57
6 -0.43
7 -0.57
8 0.14

> <PUBCHEM_EFFECTIVE_ROTOR_COUNT>
9

> <PUBCHEM_PHARMACOPHORE_FEATURES>
15
1 1 acceptor
1 2 acceptor
1 3 acceptor
1 31 hydrophobe
1 39 hydrophobe
1 4 acceptor
1 5 acceptor
1 7 acceptor
3 24 32 33 hydrophobe
3 26 34 35 hydrophobe
5 8 9 10 11 13 rings
6 12 14 15 17 18 19 rings
6 14 17 24 25 28 29 rings
6 8 9 12 15 16 23 rings
7 1 2 8 11 12 18 26 rings

> <PUBCHEM_HEAVY_ATOM_COUNT>
41

> <PUBCHEM_ATOM_DEF_STEREO_COUNT>
9

> <PUBCHEM_ATOM_UDEF_STEREO_COUNT>
0

> <PUBCHEM_BOND_DEF_STEREO_COUNT>
0

> <PUBCHEM_BOND_UDEF_STEREO_COUNT>
0

> <PUBCHEM_ISOTOPIC_ATOM_COUNT>
0

> <PUBCHEM_COMPONENT_COUNT>
1

> <PUBCHEM_CACTVS_TAUTO_COUNT>
12

> <PUBCHEM_CONFORMER_ID>
036BE50500000001

> <PUBCHEM_MMFF94_ENERGY>
157.7381

> <PUBCHEM_FEATURE_SELFOVERLAP>
76.297

> <PUBCHEM_SHAPE_FINGERPRINT>
10050765 1 18123468272637028517
10190108 129 18412265021535827413
10411042 1 17835519319981052918
11115154 58 16343710940869116064
11135926 11 18411971469522108863
11181472 205 14620529903806348345
11421498 54 17489587810078354274
11456790 92 18411693271178456616
11534866 41 17675927590688908659
11578080 2 17557124406320415328
11828532 37 15864367864682969321
12098696 120 18413105057209401221
12717326 120 16516831315127697443
12730499 353 18408887321867624703
13383668 254 16844733174152451787
13811026 1 18334297552925260721
14028597 1 17703517614436542417
14117953 113 18412265035048035460
14118638 360 17988083275837078753
14675020 138 18271227383922862954
14790565 3 18412824669102360224
14937079 2 18410853304472375968
15328684 2 16988288548112689243
15328829 1 17489316261346116641
15510794 2 18113336415321795537
15890870 6 18408045105173207870
16728300 4 17463098295229646898
18365409 1 18270959175594325335
18608769 82 18187648029355054643
19315958 150 18340201986533802320
19611394 137 17749963275402550705
21033648 29 18197199538447695096
21521721 280 18343298197305560104
21781051 124 17968386731019640952
22149856 69 18336279951084609841
22311459 1 18411697681903880661
23516275 137 16988021439205822831
23559900 14 18269261521045692592
23569917 315 18342176640345000750
24771750 20 17897181318945243797
3178227 256 18410575106291182177
335352 9 18412261736760831382
335507 130 18334017216552785575
3633792 109 18131070433317061360
4073 2 18334016104003515291
4093350 32 17489592229731856551
4112364 45 17168433765435231708
4149490 64 18260827055601012307
4340502 62 18411696595482623670
44426699 60 17676779691163538662
4874694 18 18113051629078501403
6700243 42 16262654656577554942
70251023 43 17843695352652985566

> <PUBCHEM_SHAPE_MULTIPOLES>
802.68
24.64
3.77
1.53
49.93
3.87
0.12
-8.69
8.17
-3.94
-0.42
1.53
0.23
2.32

> <PUBCHEM_SHAPE_SELFOVERLAP>
1708.097

> <PUBCHEM_SHAPE_VOLUME>
445.2

> <PUBCHEM_COORDINATE_TYPE>
2
5
10

$$$$
