11340050
  -OEChem-09122005303D

 69 72  0     1  0  0  0  0  0999 V2000
   -0.9955    2.7293   -1.1433 O   0  0  0  0  0  0  0  0  0  0  0  0
    1.0132    3.3087    0.6101 O   0  0  0  0  0  0  0  0  0  0  0  0
   -0.7138   -2.9055    0.0068 O   0  0  0  0  0  0  0  0  0  0  0  0
   -6.6503   -1.0968    1.3152 O   0  0  0  0  0  0  0  0  0  0  0  0
    8.2106   -0.4733   -0.1554 O   0  0  0  0  0  0  0  0  0  0  0  0
    6.6943   -0.0109    1.4707 O   0  0  0  0  0  0  0  0  0  0  0  0
    1.5680   -0.0728   -0.2123 C   0  0  1  0  0  0  0  0  0  0  0  0
    0.6402    0.8766    0.6051 C   0  0  2  0  0  0  0  0  0  0  0  0
   -2.7899   -0.8211   -0.3805 C   0  0  1  0  0  0  0  0  0  0  0  0
   -3.6240    0.4377    0.0912 C   0  0  1  0  0  0  0  0  0  0  0  0
   -0.7810    0.6930    0.1042 C   0  0  0  0  0  0  0  0  0  0  0  0
   -1.2874   -0.5609   -0.0587 C   0  0  0  0  0  0  0  0  0  0  0  0
    2.9891    0.3554    0.2410 C   0  0  2  0  0  0  0  0  0  0  0  0
    1.1894   -1.5081    0.1277 C   0  0  0  0  0  0  0  0  0  0  0  0
   -3.0538    1.7020   -0.5572 C   0  0  0  0  0  0  0  0  0  0  0  0
   -5.1885    0.3524    0.0244 C   0  0  0  0  0  0  0  0  0  0  0  0
   -1.6074    1.9382   -0.1231 C   0  0  2  0  0  0  0  0  0  0  0  0
    1.4506    2.1752    0.4590 C   0  0  0  0  0  0  0  0  0  0  0  0
   -3.3815   -2.0366    0.3871 C   0  0  0  0  0  0  0  0  0  0  0  0
    2.9222    1.8932    0.1989 C   0  0  0  0  0  0  0  0  0  0  0  0
   -0.3176   -1.7400    0.0274 C   0  0  0  0  0  0  0  0  0  0  0  0
    1.4294    0.1190   -1.7618 C   0  0  0  0  0  0  0  0  0  0  0  0
    0.6055    0.6493    2.1436 C   0  0  0  0  0  0  0  0  0  0  0  0
   -2.8358   -1.0985   -1.8991 C   0  0  0  0  0  0  0  0  0  0  0  0
   -4.8812   -2.2203    0.2039 C   0  0  0  0  0  0  0  0  0  0  0  0
   -5.6440   -0.9891    0.6114 C   0  0  0  0  0  0  0  0  0  0  0  0
    4.1322   -0.2061   -0.5411 C   0  0  0  0  0  0  0  0  0  0  0  0
   -5.7967    0.4972   -1.3778 C   0  0  0  0  0  0  0  0  0  0  0  0
   -5.8014    1.4746    0.9037 C   0  0  0  0  0  0  0  0  0  0  0  0
    4.6974   -1.5000    0.0072 C   0  0  0  0  0  0  0  0  0  0  0  0
    4.5815    0.4283   -1.6355 C   0  0  0  0  0  0  0  0  0  0  0  0
    6.2004   -1.7353   -0.1777 C   0  0  0  0  0  0  0  0  0  0  0  0
    7.0258   -0.6545    0.4848 C   0  0  0  0  0  0  0  0  0  0  0  0
   -3.4083    0.5283    1.1706 H   0  0  0  0  0  0  0  0  0  0  0  0
    3.1364    0.0805    1.2935 H   0  0  0  0  0  0  0  0  0  0  0  0
    1.5011   -1.7791    1.1427 H   0  0  0  0  0  0  0  0  0  0  0  0
    1.6805   -2.2055   -0.5611 H   0  0  0  0  0  0  0  0  0  0  0  0
   -3.6242    2.5947   -0.2803 H   0  0  0  0  0  0  0  0  0  0  0  0
   -3.1323    1.6543   -1.6496 H   0  0  0  0  0  0  0  0  0  0  0  0
   -1.6134    2.5281    0.8011 H   0  0  0  0  0  0  0  0  0  0  0  0
   -3.1592   -1.9342    1.4578 H   0  0  0  0  0  0  0  0  0  0  0  0
   -2.9313   -2.9762    0.0567 H   0  0  0  0  0  0  0  0  0  0  0  0
    3.1634    2.3859   -0.7426 H   0  0  0  0  0  0  0  0  0  0  0  0
    3.5254    2.3284    1.0021 H   0  0  0  0  0  0  0  0  0  0  0  0
    2.0894   -0.5636   -2.3079 H   0  0  0  0  0  0  0  0  0  0  0  0
    0.4215   -0.1028   -2.1262 H   0  0  0  0  0  0  0  0  0  0  0  0
    1.6530    1.1413   -2.0818 H   0  0  0  0  0  0  0  0  0  0  0  0
   -0.0506    1.3895    2.6206 H   0  0  0  0  0  0  0  0  0  0  0  0
    0.2249   -0.3383    2.4236 H   0  0  0  0  0  0  0  0  0  0  0  0
    1.5857    0.7688    2.6169 H   0  0  0  0  0  0  0  0  0  0  0  0
   -2.2106   -1.9624   -2.1579 H   0  0  0  0  0  0  0  0  0  0  0  0
   -3.8337   -1.3380   -2.2625 H   0  0  0  0  0  0  0  0  0  0  0  0
   -2.4608   -0.2557   -2.4887 H   0  0  0  0  0  0  0  0  0  0  0  0
   -5.2155   -3.0560    0.8300 H   0  0  0  0  0  0  0  0  0  0  0  0
   -5.1410   -2.4700   -0.8288 H   0  0  0  0  0  0  0  0  0  0  0  0
   -5.4648    1.4136   -1.8752 H   0  0  0  0  0  0  0  0  0  0  0  0
   -5.5755   -0.3477   -2.0296 H   0  0  0  0  0  0  0  0  0  0  0  0
   -6.8918    0.5414   -1.3194 H   0  0  0  0  0  0  0  0  0  0  0  0
   -5.5941    2.4721    0.5057 H   0  0  0  0  0  0  0  0  0  0  0  0
   -6.8928    1.3851    0.9668 H   0  0  0  0  0  0  0  0  0  0  0  0
   -5.4177    1.4291    1.9295 H   0  0  0  0  0  0  0  0  0  0  0  0
   -0.9236    2.1844   -1.9459 H   0  0  0  0  0  0  0  0  0  0  0  0
    4.1518   -2.3340   -0.4506 H   0  0  0  0  0  0  0  0  0  0  0  0
    4.4947   -1.5613    1.0843 H   0  0  0  0  0  0  0  0  0  0  0  0
    5.4070    0.0152   -2.2070 H   0  0  0  0  0  0  0  0  0  0  0  0
    4.1621    1.3310   -2.0554 H   0  0  0  0  0  0  0  0  0  0  0  0
    6.4472   -1.7825   -1.2439 H   0  0  0  0  0  0  0  0  0  0  0  0
    6.4854   -2.6930    0.2717 H   0  0  0  0  0  0  0  0  0  0  0  0
    8.7513    0.2269    0.2684 H   0  0  0  0  0  0  0  0  0  0  0  0
  1 17  1  0  0  0  0
  1 62  1  0  0  0  0
  2 18  2  0  0  0  0
  3 21  2  0  0  0  0
  4 26  2  0  0  0  0
  5 33  1  0  0  0  0
  5 69  1  0  0  0  0
  6 33  2  0  0  0  0
  7  8  1  0  0  0  0
  7 13  1  0  0  0  0
  7 14  1  0  0  0  0
  7 22  1  0  0  0  0
  8 11  1  0  0  0  0
  8 18  1  0  0  0  0
  8 23  1  0  0  0  0
  9 10  1  0  0  0  0
  9 12  1  0  0  0  0
  9 19  1  0  0  0  0
  9 24  1  0  0  0  0
 10 15  1  0  0  0  0
 10 16  1  0  0  0  0
 10 34  1  0  0  0  0
 11 12  2  0  0  0  0
 11 17  1  0  0  0  0
 12 21  1  0  0  0  0
 13 20  1  0  0  0  0
 13 27  1  0  0  0  0
 13 35  1  0  0  0  0
 14 21  1  0  0  0  0
 14 36  1  0  0  0  0
 14 37  1  0  0  0  0
 15 17  1  0  0  0  0
 15 38  1  0  0  0  0
 15 39  1  0  0  0  0
 16 26  1  0  0  0  0
 16 28  1  0  0  0  0
 16 29  1  0  0  0  0
 17 40  1  0  0  0  0
 18 20  1  0  0  0  0
 19 25  1  0  0  0  0
 19 41  1  0  0  0  0
 19 42  1  0  0  0  0
 20 43  1  0  0  0  0
 20 44  1  0  0  0  0
 22 45  1  0  0  0  0
 22 46  1  0  0  0  0
 22 47  1  0  0  0  0
 23 48  1  0  0  0  0
 23 49  1  0  0  0  0
 23 50  1  0  0  0  0
 24 51  1  0  0  0  0
 24 52  1  0  0  0  0
 24 53  1  0  0  0  0
 25 26  1  0  0  0  0
 25 54  1  0  0  0  0
 25 55  1  0  0  0  0
 27 30  1  0  0  0  0
 27 31  2  0  0  0  0
 28 56  1  0  0  0  0
 28 57  1  0  0  0  0
 28 58  1  0  0  0  0
 29 59  1  0  0  0  0
 29 60  1  0  0  0  0
 29 61  1  0  0  0  0
 30 32  1  0  0  0  0
 30 63  1  0  0  0  0
 30 64  1  0  0  0  0
 31 65  1  0  0  0  0
 31 66  1  0  0  0  0
 32 33  1  0  0  0  0
 32 67  1  0  0  0  0
 32 68  1  0  0  0  0
M  END
> <PUBCHEM_COMPOUND_CID>
11340050

> <PUBCHEM_CONFORMER_RMSD>
0.8

> <PUBCHEM_CONFORMER_DIVERSEORDER>
2
16
8
19
7
15
11
5
9
6
10
13
18
17
3
4
14
1
12

> <PUBCHEM_MMFF94_PARTIAL_CHARGES>
28
1 -0.68
11 -0.28
12 -0.12
13 0.14
14 0.06
16 0.06
17 0.42
18 0.45
2 -0.57
20 0.06
21 0.49
25 0.06
26 0.45
27 -0.28
3 -0.57
30 0.14
31 -0.3
32 0.06
33 0.66
4 -0.57
5 -0.65
6 -0.57
62 0.4
65 0.15
66 0.15
69 0.5
8 0.2
9 0.14

> <PUBCHEM_EFFECTIVE_ROTOR_COUNT>
5.6

> <PUBCHEM_PHARMACOPHORE_FEATURES>
14
1 1 acceptor
1 1 donor
1 2 acceptor
1 3 acceptor
1 31 hydrophobe
1 4 acceptor
1 5 acceptor
1 6 acceptor
3 16 28 29 hydrophobe
3 5 6 33 anion
5 7 8 13 18 20 rings
6 7 8 11 12 14 21 rings
6 9 10 11 12 15 17 rings
6 9 10 16 19 25 26 rings

> <PUBCHEM_HEAVY_ATOM_COUNT>
33

> <PUBCHEM_ATOM_DEF_STEREO_COUNT>
6

> <PUBCHEM_ATOM_UDEF_STEREO_COUNT>
0

> <PUBCHEM_BOND_DEF_STEREO_COUNT>
0

> <PUBCHEM_BOND_UDEF_STEREO_COUNT>
0

> <PUBCHEM_ISOTOPIC_ATOM_COUNT>
0

> <PUBCHEM_COMPONENT_COUNT>
1

> <PUBCHEM_CACTVS_TAUTO_COUNT>
8

> <PUBCHEM_CONFORMER_ID>
00AD091200000002

> <PUBCHEM_MMFF94_ENERGY>
118.3101

> <PUBCHEM_FEATURE_SELFOVERLAP>
71.203

> <PUBCHEM_SHAPE_FINGERPRINT>
10076449 9 18342183259110129684
10906281 52 18129679559776798604
11456790 92 17988378039759024435
11578080 2 16843310453202601794
11646440 116 18131074831078573816
12035758 1 18201716271509738266
12166972 35 17240489125689355636
12236239 1 17458067070630757268
12422481 6 17989484130121240414
12516196 113 18342174467006054826
13140716 1 18194960974773675922
13224815 77 18341889758124627039
13402501 40 18412263930276134230
13533116 47 18129942261911160798
13782708 43 17988364883694330375
13811026 1 18340760528874429042
14028597 1 17845664641943867323
14251764 18 18187367645047057014
14394314 77 18339644438789390088
14790565 3 18337118968128754485
14840074 17 14620794881977302548
14856354 85 18260556645013683767
15021287 119 17458633315014070333
15131766 46 14834397092501109946
15183329 4 18334575733250793614
15196674 1 18339361967538099605
1601671 61 18411986849525409163
16087824 20 18266741269530321285
17492 89 18050005799112807699
19591789 44 18410574032855163735
20691752 17 18263064665211093709
21267235 1 18409172112142187618
21781051 124 18042138672566084459
23522609 53 18120126998028249213
23559900 14 18412256268054374408
3004659 81 18260271850401273534
3178227 256 18338812177464837011
335352 9 18411697686372668213
3383291 50 18408323306504553338
350125 39 18409730642711469744
4093350 32 16630249190907780664
4098825 35 17676489467079431252
5104073 3 18271528697005393233
5265222 85 18341335591305726742
59755656 215 18335980865861036958
59755656 520 16153430558183285163
6081469 158 18113333125097545135
6086070 43 18339623621594109007
7226269 152 17846779576835476491
7495541 125 18411985788162442268

> <PUBCHEM_SHAPE_MULTIPOLES>
643.91
16.33
2.62
1.34
13.7
0.58
-0.16
-5.44
1.92
-0.96
0.16
-0.15
0.16
0.4

> <PUBCHEM_SHAPE_SELFOVERLAP>
1384.705

> <PUBCHEM_SHAPE_VOLUME>
352.9

> <PUBCHEM_COORDINATE_TYPE>
2
5
10

$$$$
