46830517
  -OEChem-09122005243D

 77 80  0     1  0  0  0  0  0999 V2000
    0.8634    2.4411    2.1706 O   0  0  0  0  0  0  0  0  0  0  0  0
   -6.8709   -2.1829    1.0137 O   0  0  0  0  0  0  0  0  0  0  0  0
    7.4020   -2.8052    1.8743 O   0  0  0  0  0  0  0  0  0  0  0  0
    0.8225    0.4668   -0.9490 C   0  0  1  0  0  0  0  0  0  0  0  0
    0.1555    0.7833    0.4365 C   0  0  1  0  0  0  0  0  0  0  0  0
    2.3234    0.6511   -0.6199 C   0  0  2  0  0  0  0  0  0  0  0  0
    0.8902    2.1058    0.7922 C   0  0  2  0  0  0  0  0  0  0  0  0
    2.3436    1.8974    0.2987 C   0  0  0  0  0  0  0  0  0  0  0  0
   -1.3660    0.7749    0.2736 C   0  0  0  0  0  0  0  0  0  0  0  0
   -3.4775   -0.3978   -0.7015 C   0  0  2  0  0  0  0  0  0  0  0  0
    0.4082   -0.9468   -1.3862 C   0  0  0  0  0  0  0  0  0  0  0  0
   -1.9251   -0.3030   -0.5862 C   0  0  0  0  0  0  0  0  0  0  0  0
   -4.1259    0.1255    0.6337 C   0  0  2  0  0  0  0  0  0  0  0  0
    3.2780    0.7719   -1.8014 C   0  0  1  0  0  0  0  0  0  0  0  0
    0.4101    1.4654   -2.0829 C   0  0  0  0  0  0  0  0  0  0  0  0
    0.4476   -0.2699    1.5556 C   0  0  0  0  0  0  0  0  0  0  0  0
   -1.0940   -1.1073   -1.2953 C   0  0  0  0  0  0  0  0  0  0  0  0
   -5.6705   -0.0779    0.8208 C   0  0  0  0  0  0  0  0  0  0  0  0
   -3.6541    1.5637    0.9336 C   0  0  0  0  0  0  0  0  0  0  0  0
   -2.1600    1.6568    0.9053 C   0  0  0  0  0  0  0  0  0  0  0  0
   -3.9549   -1.8609   -0.9141 C   0  0  0  0  0  0  0  0  0  0  0  0
   -3.8420    0.4414   -1.9507 C   0  0  0  0  0  0  0  0  0  0  0  0
    4.7190    0.9928   -1.2967 C   0  0  0  0  0  0  0  0  0  0  0  0
   -5.4666   -2.0237   -0.8939 C   0  0  0  0  0  0  0  0  0  0  0  0
   -6.0507   -1.5032    0.3938 C   0  0  0  0  0  0  0  0  0  0  0  0
    3.1625   -0.4676   -2.6942 C   0  0  0  0  0  0  0  0  0  0  0  0
   -6.5638    0.9055    0.0505 C   0  0  0  0  0  0  0  0  0  0  0  0
   -6.0263    0.0728    2.3228 C   0  0  0  0  0  0  0  0  0  0  0  0
    5.2544   -0.1582   -0.4400 C   0  0  0  0  0  0  0  0  0  0  0  0
    6.6701    0.1044   -0.0040 C   0  0  0  0  0  0  0  0  0  0  0  0
    7.4411   -0.6993    0.7480 C   0  0  0  0  0  0  0  0  0  0  0  0
    8.8416   -0.4400    1.2054 C   0  0  0  0  0  0  0  0  0  0  0  0
    6.8156   -1.9769    1.1869 C   0  0  0  0  0  0  0  0  0  0  0  0
    2.6239   -0.2176   -0.0238 H   0  0  0  0  0  0  0  0  0  0  0  0
    0.4401    2.9495    0.2554 H   0  0  0  0  0  0  0  0  0  0  0  0
    2.6631    2.7988   -0.2374 H   0  0  0  0  0  0  0  0  0  0  0  0
    3.0385    1.7536    1.1340 H   0  0  0  0  0  0  0  0  0  0  0  0
    0.6692   -1.1418   -2.4285 H   0  0  0  0  0  0  0  0  0  0  0  0
    0.8927   -1.7271   -0.7893 H   0  0  0  0  0  0  0  0  0  0  0  0
   -3.6755   -0.5069    1.4201 H   0  0  0  0  0  0  0  0  0  0  0  0
    3.0321    1.6504   -2.4104 H   0  0  0  0  0  0  0  0  0  0  0  0
    0.7944    2.4761   -1.9127 H   0  0  0  0  0  0  0  0  0  0  0  0
   -0.6743    1.5608   -2.1916 H   0  0  0  0  0  0  0  0  0  0  0  0
    0.7838    1.1460   -3.0604 H   0  0  0  0  0  0  0  0  0  0  0  0
   -0.0660    0.0049    2.4861 H   0  0  0  0  0  0  0  0  0  0  0  0
    0.1037   -1.2769    1.2993 H   0  0  0  0  0  0  0  0  0  0  0  0
    1.5111   -0.3428    1.8023 H   0  0  0  0  0  0  0  0  0  0  0  0
   -1.4944   -1.8936   -1.9270 H   0  0  0  0  0  0  0  0  0  0  0  0
   -4.0749    2.2944    0.2361 H   0  0  0  0  0  0  0  0  0  0  0  0
   -3.9764    1.8594    1.9372 H   0  0  0  0  0  0  0  0  0  0  0  0
   -1.7285    2.4485    1.5101 H   0  0  0  0  0  0  0  0  0  0  0  0
   -3.6008   -2.2539   -1.8745 H   0  0  0  0  0  0  0  0  0  0  0  0
   -3.5219   -2.4999   -0.1320 H   0  0  0  0  0  0  0  0  0  0  0  0
   -4.8994    0.3941   -2.2060 H   0  0  0  0  0  0  0  0  0  0  0  0
   -3.3063    0.0753   -2.8362 H   0  0  0  0  0  0  0  0  0  0  0  0
   -3.5757    1.4973   -1.8381 H   0  0  0  0  0  0  0  0  0  0  0  0
    4.7877    1.9355   -0.7402 H   0  0  0  0  0  0  0  0  0  0  0  0
    5.3723    1.1213   -2.1710 H   0  0  0  0  0  0  0  0  0  0  0  0
   -5.9495   -1.5159   -1.7334 H   0  0  0  0  0  0  0  0  0  0  0  0
   -5.7115   -3.0889   -0.9791 H   0  0  0  0  0  0  0  0  0  0  0  0
    1.4040    3.2409    2.2868 H   0  0  0  0  0  0  0  0  0  0  0  0
    4.0512   -0.5547   -3.3311 H   0  0  0  0  0  0  0  0  0  0  0  0
    2.3232   -0.3954   -3.3878 H   0  0  0  0  0  0  0  0  0  0  0  0
    3.0883   -1.3965   -2.1205 H   0  0  0  0  0  0  0  0  0  0  0  0
   -6.3400    1.9463    0.3035 H   0  0  0  0  0  0  0  0  0  0  0  0
   -7.6205    0.7364    0.2943 H   0  0  0  0  0  0  0  0  0  0  0  0
   -6.4926    0.7927   -1.0309 H   0  0  0  0  0  0  0  0  0  0  0  0
   -5.8557    1.0910    2.6854 H   0  0  0  0  0  0  0  0  0  0  0  0
   -5.4373   -0.6142    2.9413 H   0  0  0  0  0  0  0  0  0  0  0  0
   -7.0829   -0.1541    2.5104 H   0  0  0  0  0  0  0  0  0  0  0  0
    4.6425   -0.2680    0.4600 H   0  0  0  0  0  0  0  0  0  0  0  0
    5.2197   -1.0878   -1.0178 H   0  0  0  0  0  0  0  0  0  0  0  0
    7.1098    1.0471   -0.3264 H   0  0  0  0  0  0  0  0  0  0  0  0
    8.8941   -0.4307    2.2988 H   0  0  0  0  0  0  0  0  0  0  0  0
    9.5182   -1.2136    0.8283 H   0  0  0  0  0  0  0  0  0  0  0  0
    9.2066    0.5275    0.8453 H   0  0  0  0  0  0  0  0  0  0  0  0
    5.7815   -2.1741    0.8715 H   0  0  0  0  0  0  0  0  0  0  0  0
  1  7  1  0  0  0  0
  1 61  1  0  0  0  0
  2 25  2  0  0  0  0
  3 33  2  0  0  0  0
  4  5  1  0  0  0  0
  4  6  1  0  0  0  0
  4 11  1  0  0  0  0
  4 15  1  0  0  0  0
  5  7  1  0  0  0  0
  5  9  1  0  0  0  0
  5 16  1  0  0  0  0
  6  8  1  0  0  0  0
  6 14  1  0  0  0  0
  6 34  1  0  0  0  0
  7  8  1  0  0  0  0
  7 35  1  0  0  0  0
  8 36  1  0  0  0  0
  8 37  1  0  0  0  0
  9 12  1  0  0  0  0
  9 20  2  0  0  0  0
 10 12  1  0  0  0  0
 10 13  1  0  0  0  0
 10 21  1  0  0  0  0
 10 22  1  0  0  0  0
 11 17  1  0  0  0  0
 11 38  1  0  0  0  0
 11 39  1  0  0  0  0
 12 17  2  0  0  0  0
 13 18  1  0  0  0  0
 13 19  1  0  0  0  0
 13 40  1  0  0  0  0
 14 23  1  0  0  0  0
 14 26  1  0  0  0  0
 14 41  1  0  0  0  0
 15 42  1  0  0  0  0
 15 43  1  0  0  0  0
 15 44  1  0  0  0  0
 16 45  1  0  0  0  0
 16 46  1  0  0  0  0
 16 47  1  0  0  0  0
 17 48  1  0  0  0  0
 18 25  1  0  0  0  0
 18 27  1  0  0  0  0
 18 28  1  0  0  0  0
 19 20  1  0  0  0  0
 19 49  1  0  0  0  0
 19 50  1  0  0  0  0
 20 51  1  0  0  0  0
 21 24  1  0  0  0  0
 21 52  1  0  0  0  0
 21 53  1  0  0  0  0
 22 54  1  0  0  0  0
 22 55  1  0  0  0  0
 22 56  1  0  0  0  0
 23 29  1  0  0  0  0
 23 57  1  0  0  0  0
 23 58  1  0  0  0  0
 24 25  1  0  0  0  0
 24 59  1  0  0  0  0
 24 60  1  0  0  0  0
 26 62  1  0  0  0  0
 26 63  1  0  0  0  0
 26 64  1  0  0  0  0
 27 65  1  0  0  0  0
 27 66  1  0  0  0  0
 27 67  1  0  0  0  0
 28 68  1  0  0  0  0
 28 69  1  0  0  0  0
 28 70  1  0  0  0  0
 29 30  1  0  0  0  0
 29 71  1  0  0  0  0
 29 72  1  0  0  0  0
 30 31  2  0  0  0  0
 30 73  1  0  0  0  0
 31 32  1  0  0  0  0
 31 33  1  0  0  0  0
 32 74  1  0  0  0  0
 32 75  1  0  0  0  0
 32 76  1  0  0  0  0
 33 77  1  0  0  0  0
M  END
> <PUBCHEM_COMPOUND_CID>
46830517

> <PUBCHEM_CONFORMER_RMSD>
1

> <PUBCHEM_CONFORMER_DIVERSEORDER>
2
13
16
14
11
8
12
17
6
5
1
3
15
10
4
9
7

> <PUBCHEM_MMFF94_PARTIAL_CHARGES>
25
1 -0.68
10 0.14
11 0.14
12 -0.14
17 -0.29
18 0.06
19 0.14
2 -0.57
20 -0.29
24 0.06
25 0.45
29 0.14
3 -0.57
30 -0.29
31 -0.12
32 0.14
33 0.5
48 0.15
5 0.14
51 0.15
61 0.4
7 0.28
73 0.15
77 0.06
9 -0.14

> <PUBCHEM_EFFECTIVE_ROTOR_COUNT>
6.6

> <PUBCHEM_PHARMACOPHORE_FEATURES>
12
1 1 acceptor
1 1 donor
1 2 acceptor
1 26 hydrophobe
1 3 acceptor
1 32 hydrophobe
3 18 27 28 hydrophobe
4 14 23 29 30 hydrophobe
5 4 5 6 7 8 rings
6 10 13 18 21 24 25 rings
6 4 5 9 11 12 17 rings
6 9 10 12 13 19 20 rings

> <PUBCHEM_HEAVY_ATOM_COUNT>
33

> <PUBCHEM_ATOM_DEF_STEREO_COUNT>
7

> <PUBCHEM_ATOM_UDEF_STEREO_COUNT>
0

> <PUBCHEM_BOND_DEF_STEREO_COUNT>
1

> <PUBCHEM_BOND_UDEF_STEREO_COUNT>
0

> <PUBCHEM_ISOTOPIC_ATOM_COUNT>
0

> <PUBCHEM_COMPONENT_COUNT>
1

> <PUBCHEM_CACTVS_TAUTO_COUNT>
2

> <PUBCHEM_CONFORMER_ID>
02CA93B500000002

> <PUBCHEM_MMFF94_ENERGY>
122.3098

> <PUBCHEM_FEATURE_SELFOVERLAP>
60.997

> <PUBCHEM_SHAPE_FINGERPRINT>
10 15 17418372515536785224
10670039 82 12757141364631805910
11991303 11 12901841535574293248
12035758 1 17132116853056138896
12166972 35 17968381233699411924
12236239 1 18260837028846823981
12838862 33 17632293424896663233
13383668 251 15266761309238802211
13533116 47 18040718078717062516
13540713 4 16914832332213211524
13782708 43 17676492769297429722
13811026 1 17561078142036898149
14028597 1 18342460296932125538
14251764 18 18411983598361903444
15131766 46 12102974836255106730
15183329 4 18273221914631119060
15276724 80 12175633845324881394
15629462 23 17022908908721419989
15961568 22 9799421030844778234
16994733 274 11887953237856251646
18393751 57 16630516355137383054
18603816 31 18188208810007964539
19841028 212 17896029950747388650
2026 5 17313098610562528266
20511986 3 15195568970231801077
21033648 29 15626220226181032878
21344244 181 16443070508531670432
21521721 280 13758079584427925614
21682296 61 17022905623134014358
21703447 108 17058106402288451774
21792934 111 17345762871660775844
23522609 53 18121249633823256981
23559900 14 14490768925793473421
23569943 247 17822284631196692002
23576562 1 8213557988105949618
24771293 8 16200148811806308688
3004659 81 18201172034982546692
3383291 50 18343303695191740430
350125 39 17775299295549401281
394071 54 13686299084974891346
4169191 19 11887956553164712187
4340502 62 17418382376623376918
4616759 239 16845858988028338875
5104073 3 17774446117243363753
6086070 43 18268973398224356141

> <PUBCHEM_SHAPE_MULTIPOLES>
661.52
20.64
2.18
2.14
23.85
0.54
0.34
-5.37
14.75
-1.6
0.2
2.48
-0.66
-0.7

> <PUBCHEM_SHAPE_SELFOVERLAP>
1398.452

> <PUBCHEM_SHAPE_VOLUME>
368.7

> <PUBCHEM_COORDINATE_TYPE>
2
5
10

$$$$
