21668663
  -OEChem-09112013383D

 78 81  0     1  0  0  0  0  0999 V2000
   -0.7387   -3.7318    0.9216 O   0  0  0  0  0  0  0  0  0  0  0  0
    1.6482    0.4899   -1.3024 O   0  0  0  0  0  0  0  0  0  0  0  0
   -0.2583    2.2304    0.0508 O   0  0  0  0  0  0  0  0  0  0  0  0
   -2.8943   -3.0003   -0.8260 O   0  0  0  0  0  0  0  0  0  0  0  0
   -6.1794    3.1516    0.5144 O   0  0  0  0  0  0  0  0  0  0  0  0
    4.3237   -0.7710   -1.8095 O   0  0  0  0  0  0  0  0  0  0  0  0
    6.0189    2.6843    1.9396 O   0  0  0  0  0  0  0  0  0  0  0  0
    5.8214    4.0426    0.1325 O   0  0  0  0  0  0  0  0  0  0  0  0
   -0.2557   -1.8383   -0.5943 C   0  0  1  0  0  0  0  0  0  0  0  0
    0.8900   -1.2243    0.2888 C   0  0  1  0  0  0  0  0  0  0  0  0
    2.0831   -2.1491   -0.0725 C   0  0  2  0  0  0  0  0  0  0  0  0
   -0.0828   -3.3532   -0.2832 C   0  0  1  0  0  0  0  0  0  0  0  0
   -2.9105    1.0291    0.2181 C   0  0  2  0  0  0  0  0  0  0  0  0
   -1.5518   -1.1013   -0.2930 C   0  0  0  0  0  0  0  0  0  0  0  0
    1.0593    0.2624   -0.0354 C   0  0  2  0  0  0  0  0  0  0  0  0
    1.4439   -3.5598   -0.1255 C   0  0  0  0  0  0  0  0  0  0  0  0
   -1.6012    0.2315   -0.0408 C   0  0  0  0  0  0  0  0  0  0  0  0
   -4.1641    0.1843   -0.2086 C   0  0  2  0  0  0  0  0  0  0  0  0
   -0.0725   -1.6947   -2.1382 C   0  0  0  0  0  0  0  0  0  0  0  0
    0.6167   -1.3146    1.8336 C   0  0  0  0  0  0  0  0  0  0  0  0
   -5.5528    0.8430    0.0965 C   0  0  0  0  0  0  0  0  0  0  0  0
   -0.2787    0.9991   -0.0013 C   0  0  0  0  0  0  0  0  0  0  0  0
   -4.0511   -1.2524    0.2909 C   0  0  0  0  0  0  0  0  0  0  0  0
   -2.9621    2.3585   -0.6033 C   0  0  0  0  0  0  0  0  0  0  0  0
   -2.8321   -1.8774   -0.3291 C   0  0  0  0  0  0  0  0  0  0  0  0
    3.2817   -2.0756    0.8197 C   0  0  0  0  0  0  0  0  0  0  0  0
   -2.9101    1.3740    1.7273 C   0  0  0  0  0  0  0  0  0  0  0  0
   -4.3537    2.8548   -0.9924 C   0  0  0  0  0  0  0  0  0  0  0  0
   -5.4192    2.3623   -0.0460 C   0  0  0  0  0  0  0  0  0  0  0  0
   -6.5871    0.3929   -0.9580 C   0  0  0  0  0  0  0  0  0  0  0  0
   -6.1278    0.4950    1.4822 C   0  0  0  0  0  0  0  0  0  0  0  0
    3.2337   -3.0123    1.9945 C   0  0  0  0  0  0  0  0  0  0  0  0
    4.2876   -1.2346    0.5216 C   0  0  0  0  0  0  0  0  0  0  0  0
    4.3225   -0.3304   -0.6635 C   0  0  0  0  0  0  0  0  0  0  0  0
    4.4266    1.1536   -0.3554 C   0  0  0  0  0  0  0  0  0  0  0  0
    5.8760    1.6287   -0.2003 C   0  0  1  0  0  0  0  0  0  0  0  0
    6.5475    1.8365   -1.5589 C   0  0  0  0  0  0  0  0  0  0  0  0
    5.9033    2.9167    0.6059 C   0  0  0  0  0  0  0  0  0  0  0  0
    2.3980   -1.9456   -1.0988 H   0  0  0  0  0  0  0  0  0  0  0  0
   -0.4759   -3.9943   -1.0802 H   0  0  0  0  0  0  0  0  0  0  0  0
    1.7006    0.7295    0.7199 H   0  0  0  0  0  0  0  0  0  0  0  0
    1.6301   -4.2205    0.7219 H   0  0  0  0  0  0  0  0  0  0  0  0
    1.8336   -4.0790   -1.0109 H   0  0  0  0  0  0  0  0  0  0  0  0
   -4.0956    0.1176   -1.3087 H   0  0  0  0  0  0  0  0  0  0  0  0
    0.8757   -2.0950   -2.5060 H   0  0  0  0  0  0  0  0  0  0  0  0
   -0.8608   -2.2475   -2.6662 H   0  0  0  0  0  0  0  0  0  0  0  0
   -0.1512   -0.6582   -2.4821 H   0  0  0  0  0  0  0  0  0  0  0  0
   -0.2818   -0.7585    2.1212 H   0  0  0  0  0  0  0  0  0  0  0  0
    1.4338   -0.8588    2.4054 H   0  0  0  0  0  0  0  0  0  0  0  0
    0.4655   -2.3227    2.2131 H   0  0  0  0  0  0  0  0  0  0  0  0
   -3.9723   -1.3313    1.3792 H   0  0  0  0  0  0  0  0  0  0  0  0
   -4.9209   -1.8382   -0.0262 H   0  0  0  0  0  0  0  0  0  0  0  0
   -2.4784    3.1640   -0.0357 H   0  0  0  0  0  0  0  0  0  0  0  0
   -2.3863    2.2549   -1.5328 H   0  0  0  0  0  0  0  0  0  0  0  0
   -3.0036    0.4793    2.3514 H   0  0  0  0  0  0  0  0  0  0  0  0
   -1.9817    1.8727    2.0295 H   0  0  0  0  0  0  0  0  0  0  0  0
   -3.7146    2.0640    1.9953 H   0  0  0  0  0  0  0  0  0  0  0  0
   -4.3672    3.9501   -1.0185 H   0  0  0  0  0  0  0  0  0  0  0  0
   -4.6155    2.5123   -2.0001 H   0  0  0  0  0  0  0  0  0  0  0  0
   -0.5752   -4.6805    1.0586 H   0  0  0  0  0  0  0  0  0  0  0  0
   -6.7616   -0.6872   -0.9164 H   0  0  0  0  0  0  0  0  0  0  0  0
   -7.5512    0.8923   -0.8036 H   0  0  0  0  0  0  0  0  0  0  0  0
   -6.2614    0.6415   -1.9744 H   0  0  0  0  0  0  0  0  0  0  0  0
   -7.0821    1.0077    1.6540 H   0  0  0  0  0  0  0  0  0  0  0  0
   -5.4662    0.7894    2.2991 H   0  0  0  0  0  0  0  0  0  0  0  0
   -6.3255   -0.5776    1.5812 H   0  0  0  0  0  0  0  0  0  0  0  0
    1.7264    1.4515   -1.4231 H   0  0  0  0  0  0  0  0  0  0  0  0
    2.3007   -3.0453    2.5488 H   0  0  0  0  0  0  0  0  0  0  0  0
    3.9961   -2.7154    2.7261 H   0  0  0  0  0  0  0  0  0  0  0  0
    3.5019   -4.0287    1.6855 H   0  0  0  0  0  0  0  0  0  0  0  0
    5.1403   -1.1537    1.1896 H   0  0  0  0  0  0  0  0  0  0  0  0
    3.8639    1.3538    0.5639 H   0  0  0  0  0  0  0  0  0  0  0  0
    3.9219    1.7160   -1.1486 H   0  0  0  0  0  0  0  0  0  0  0  0
    6.4706    0.8852    0.3457 H   0  0  0  0  0  0  0  0  0  0  0  0
    6.6124    0.8953   -2.1139 H   0  0  0  0  0  0  0  0  0  0  0  0
    7.5647    2.2233   -1.4318 H   0  0  0  0  0  0  0  0  0  0  0  0
    5.9968    2.5574   -2.1732 H   0  0  0  0  0  0  0  0  0  0  0  0
    6.0301    3.5181    2.4560 H   0  0  0  0  0  0  0  0  0  0  0  0
  1 12  1  0  0  0  0
  1 60  1  0  0  0  0
  2 15  1  0  0  0  0
  2 67  1  0  0  0  0
  3 22  2  0  0  0  0
  4 25  2  0  0  0  0
  5 29  2  0  0  0  0
  6 34  2  0  0  0  0
  7 38  1  0  0  0  0
  7 78  1  0  0  0  0
  8 38  2  0  0  0  0
  9 10  1  0  0  0  0
  9 12  1  0  0  0  0
  9 14  1  0  0  0  0
  9 19  1  0  0  0  0
 10 11  1  0  0  0  0
 10 15  1  0  0  0  0
 10 20  1  0  0  0  0
 11 16  1  0  0  0  0
 11 26  1  0  0  0  0
 11 39  1  0  0  0  0
 12 16  1  0  0  0  0
 12 40  1  0  0  0  0
 13 17  1  0  0  0  0
 13 18  1  0  0  0  0
 13 24  1  0  0  0  0
 13 27  1  0  0  0  0
 14 17  2  0  0  0  0
 14 25  1  0  0  0  0
 15 22  1  0  0  0  0
 15 41  1  0  0  0  0
 16 42  1  0  0  0  0
 16 43  1  0  0  0  0
 17 22  1  0  0  0  0
 18 21  1  0  0  0  0
 18 23  1  0  0  0  0
 18 44  1  0  0  0  0
 19 45  1  0  0  0  0
 19 46  1  0  0  0  0
 19 47  1  0  0  0  0
 20 48  1  0  0  0  0
 20 49  1  0  0  0  0
 20 50  1  0  0  0  0
 21 29  1  0  0  0  0
 21 30  1  0  0  0  0
 21 31  1  0  0  0  0
 23 25  1  0  0  0  0
 23 51  1  0  0  0  0
 23 52  1  0  0  0  0
 24 28  1  0  0  0  0
 24 53  1  0  0  0  0
 24 54  1  0  0  0  0
 26 32  1  0  0  0  0
 26 33  2  0  0  0  0
 27 55  1  0  0  0  0
 27 56  1  0  0  0  0
 27 57  1  0  0  0  0
 28 29  1  0  0  0  0
 28 58  1  0  0  0  0
 28 59  1  0  0  0  0
 30 61  1  0  0  0  0
 30 62  1  0  0  0  0
 30 63  1  0  0  0  0
 31 64  1  0  0  0  0
 31 65  1  0  0  0  0
 31 66  1  0  0  0  0
 32 68  1  0  0  0  0
 32 69  1  0  0  0  0
 32 70  1  0  0  0  0
 33 34  1  0  0  0  0
 33 71  1  0  0  0  0
 34 35  1  0  0  0  0
 35 36  1  0  0  0  0
 35 72  1  0  0  0  0
 35 73  1  0  0  0  0
 36 37  1  0  0  0  0
 36 38  1  0  0  0  0
 36 74  1  0  0  0  0
 37 75  1  0  0  0  0
 37 76  1  0  0  0  0
 37 77  1  0  0  0  0
M  END
> <PUBCHEM_COMPOUND_CID>
21668663

> <PUBCHEM_CONFORMER_RMSD>
1

> <PUBCHEM_CONFORMER_DIVERSEORDER>
2
7
12
8
4
6
5
3
10
1
11
9

> <PUBCHEM_MMFF94_PARTIAL_CHARGES>
32
1 -0.68
11 0.14
12 0.28
13 0.14
14 -0.12
15 0.34
17 -0.12
2 -0.68
21 0.06
22 0.49
23 0.06
25 0.49
26 -0.28
28 0.06
29 0.45
3 -0.57
32 0.14
33 -0.14
34 0.49
35 0.06
36 0.06
38 0.66
4 -0.57
5 -0.57
6 -0.57
60 0.4
67 0.4
7 -0.65
71 0.15
78 0.5
8 -0.57
9 0.14

> <PUBCHEM_EFFECTIVE_ROTOR_COUNT>
6.6

> <PUBCHEM_PHARMACOPHORE_FEATURES>
18
1 1 acceptor
1 1 donor
1 2 acceptor
1 2 donor
1 3 acceptor
1 32 hydrophobe
1 37 hydrophobe
1 4 acceptor
1 5 acceptor
1 6 acceptor
1 7 acceptor
1 8 acceptor
3 21 30 31 hydrophobe
3 7 8 38 anion
5 9 10 11 12 16 rings
6 13 14 17 18 23 25 rings
6 13 18 21 24 28 29 rings
6 9 10 14 15 17 22 rings

> <PUBCHEM_HEAVY_ATOM_COUNT>
38

> <PUBCHEM_ATOM_DEF_STEREO_COUNT>
7

> <PUBCHEM_ATOM_UDEF_STEREO_COUNT>
1

> <PUBCHEM_BOND_DEF_STEREO_COUNT>
1

> <PUBCHEM_BOND_UDEF_STEREO_COUNT>
0

> <PUBCHEM_ISOTOPIC_ATOM_COUNT>
0

> <PUBCHEM_COMPONENT_COUNT>
1

> <PUBCHEM_CACTVS_TAUTO_COUNT>
192

> <PUBCHEM_CONFORMER_ID>
014AA33700000002

> <PUBCHEM_MMFF94_ENERGY>
150.6889

> <PUBCHEM_FEATURE_SELFOVERLAP>
91.509

> <PUBCHEM_SHAPE_FINGERPRINT>
10411042 1 17402050492239196070
10906281 52 18129954369143659323
11007060 377 18341615957938086977
12422481 6 17458334213808224620
12788726 201 17703515406834278536
13140716 1 18335416812169579243
13383668 362 18261943082295653818
13782708 43 12251893815690551112
14394314 77 18411706465608626705
14739800 52 18408597059429790730
14790565 3 18411419492423897710
14955137 171 17975408024314773274
15400415 2 18337673018909646093
15840311 113 18408887325845853959
15968369 153 17764030568179420534
20511986 3 18187074032207625949
21033648 144 18187357723445477591
21987483 16 18040718069974563803
23559900 14 18052257289019116719
3411729 13 18261112937566666954
34797466 226 18059862739833521645
350125 39 18411420635491879417
4340502 62 17312828164644659922
469060 322 17531237430818835638
5104073 3 18115595829485009561
5265222 85 18048886483475531164
550186 72 18336825385702618021
6036956 94 17036136347421372148
7288768 16 17895191164539226834

> <PUBCHEM_SHAPE_MULTIPOLES>
735.07
15.46
4.63
1.5
2.11
0.21
-0.18
-16.58
-0.55
3.38
-0.55
0.85
0.21
-0.41

> <PUBCHEM_SHAPE_SELFOVERLAP>
1578.061

> <PUBCHEM_SHAPE_VOLUME>
401.5

> <PUBCHEM_COORDINATE_TYPE>
2
5
10

$$$$
