15427808
  -OEChem-09122004293D

 81 84  0     1  0  0  0  0  0999 V2000
   -0.0396   -3.6768    0.1339 O   0  0  0  0  0  0  0  0  0  0  0  0
   -1.7468   -2.0310    2.1480 O   0  0  0  0  0  0  0  0  0  0  0  0
   -1.5823    2.5348   -1.3949 O   0  0  0  0  0  0  0  0  0  0  0  0
   -7.6827    0.8245   -0.8911 O   0  0  0  0  0  0  0  0  0  0  0  0
    6.7195   -1.3930   -1.9327 O   0  0  0  0  0  0  0  0  0  0  0  0
    7.4656    2.2647    2.3762 O   0  0  0  0  0  0  0  0  0  0  0  0
    7.0358    0.0632    2.7267 O   0  0  0  0  0  0  0  0  0  0  0  0
    0.6718   -0.1396   -0.5350 C   0  0  1  0  0  0  0  0  0  0  0  0
   -0.3795   -1.2934   -0.4711 C   0  0  1  0  0  0  0  0  0  0  0  0
    1.9332   -0.8836   -1.0428 C   0  0  2  0  0  0  0  0  0  0  0  0
    0.4589   -2.3583    0.2875 C   0  0  2  0  0  0  0  0  0  0  0  0
   -1.6926   -0.7452    0.1041 C   0  0  0  0  0  0  0  0  0  0  0  0
   -3.5812    0.9909    0.1270 C   0  0  2  0  0  0  0  0  0  0  0  0
    1.8805   -2.2417   -0.3080 C   0  0  0  0  0  0  0  0  0  0  0  0
   -2.1586    0.4813   -0.2650 C   0  0  0  0  0  0  0  0  0  0  0  0
    0.1552    0.9408   -1.4721 C   0  0  0  0  0  0  0  0  0  0  0  0
   -4.4987   -0.2640    0.4172 C   0  0  1  0  0  0  0  0  0  0  0  0
   -2.4965   -1.6845    0.9849 C   0  0  2  0  0  0  0  0  0  0  0  0
    3.2696   -0.1710   -0.8713 C   0  0  1  0  0  0  0  0  0  0  0  0
   -3.8376   -1.1444    1.4787 C   0  0  0  0  0  0  0  0  0  0  0  0
    0.9663    0.5198    0.8512 C   0  0  0  0  0  0  0  0  0  0  0  0
   -0.7852   -1.8927   -1.8589 C   0  0  0  0  0  0  0  0  0  0  0  0
   -1.2368    1.4002   -1.0645 C   0  0  0  0  0  0  0  0  0  0  0  0
   -6.0269   -0.0193    0.6735 C   0  0  0  0  0  0  0  0  0  0  0  0
   -4.2892    1.7743   -1.0156 C   0  0  0  0  0  0  0  0  0  0  0  0
   -3.3592    1.9258    1.3361 C   0  0  0  0  0  0  0  0  0  0  0  0
   -5.7298    2.1581   -0.7093 C   0  0  0  0  0  0  0  0  0  0  0  0
   -6.5665    0.9513   -0.3836 C   0  0  0  0  0  0  0  0  0  0  0  0
    4.4129   -1.0603   -1.4037 C   0  0  0  0  0  0  0  0  0  0  0  0
    3.2272    1.1905   -1.5712 C   0  0  0  0  0  0  0  0  0  0  0  0
   -6.3814    0.5341    2.0612 C   0  0  0  0  0  0  0  0  0  0  0  0
   -6.7952   -1.3576    0.5078 C   0  0  0  0  0  0  0  0  0  0  0  0
    5.8180   -0.4385   -1.3635 C   0  0  1  0  0  0  0  0  0  0  0  0
    6.2750   -0.1454    0.0416 C   0  0  0  0  0  0  0  0  0  0  0  0
    6.6901    1.0348    0.5396 C   0  0  0  0  0  0  0  0  0  0  0  0
    6.8156    2.3205   -0.2226 C   0  0  0  0  0  0  0  0  0  0  0  0
    7.0708    1.0307    1.9820 C   0  0  0  0  0  0  0  0  0  0  0  0
    1.8108   -1.0843   -2.1164 H   0  0  0  0  0  0  0  0  0  0  0  0
    0.5205   -2.1509    1.3606 H   0  0  0  0  0  0  0  0  0  0  0  0
    2.1031   -3.0665   -0.9949 H   0  0  0  0  0  0  0  0  0  0  0  0
    2.6073   -2.2985    0.5109 H   0  0  0  0  0  0  0  0  0  0  0  0
    0.1142    0.6097   -2.5150 H   0  0  0  0  0  0  0  0  0  0  0  0
    0.7676    1.8430   -1.4469 H   0  0  0  0  0  0  0  0  0  0  0  0
   -4.4763   -0.8500   -0.5187 H   0  0  0  0  0  0  0  0  0  0  0  0
   -2.6877   -2.6028    0.4168 H   0  0  0  0  0  0  0  0  0  0  0  0
    3.4696    0.0038    0.1926 H   0  0  0  0  0  0  0  0  0  0  0  0
   -4.4599   -2.0070    1.7391 H   0  0  0  0  0  0  0  0  0  0  0  0
   -3.7117   -0.6011    2.4225 H   0  0  0  0  0  0  0  0  0  0  0  0
    1.4892   -0.1573    1.5340 H   0  0  0  0  0  0  0  0  0  0  0  0
    1.5854    1.4163    0.7603 H   0  0  0  0  0  0  0  0  0  0  0  0
    0.0550    0.8372    1.3673 H   0  0  0  0  0  0  0  0  0  0  0  0
   -1.2529   -1.1542   -2.5187 H   0  0  0  0  0  0  0  0  0  0  0  0
    0.0608   -2.3223   -2.4035 H   0  0  0  0  0  0  0  0  0  0  0  0
   -1.5174   -2.7007   -1.7365 H   0  0  0  0  0  0  0  0  0  0  0  0
   -4.2636    1.1760   -1.9365 H   0  0  0  0  0  0  0  0  0  0  0  0
   -3.7796    2.7157   -1.2349 H   0  0  0  0  0  0  0  0  0  0  0  0
   -2.8885    1.4113    2.1801 H   0  0  0  0  0  0  0  0  0  0  0  0
   -2.6961    2.7587    1.0710 H   0  0  0  0  0  0  0  0  0  0  0  0
   -4.2772    2.3845    1.6990 H   0  0  0  0  0  0  0  0  0  0  0  0
   -6.1610    2.6490   -1.5898 H   0  0  0  0  0  0  0  0  0  0  0  0
   -5.7982    2.8688    0.1193 H   0  0  0  0  0  0  0  0  0  0  0  0
    4.4403   -2.0124   -0.8582 H   0  0  0  0  0  0  0  0  0  0  0  0
    4.1988   -1.3410   -2.4448 H   0  0  0  0  0  0  0  0  0  0  0  0
   -0.8552   -3.7492    0.6557 H   0  0  0  0  0  0  0  0  0  0  0  0
    4.2208    1.6254   -1.6923 H   0  0  0  0  0  0  0  0  0  0  0  0
    2.7902    1.1222   -2.5727 H   0  0  0  0  0  0  0  0  0  0  0  0
    2.6952    1.9380   -0.9832 H   0  0  0  0  0  0  0  0  0  0  0  0
   -6.0441    1.5594    2.2120 H   0  0  0  0  0  0  0  0  0  0  0  0
   -7.4701    0.5628    2.1973 H   0  0  0  0  0  0  0  0  0  0  0  0
   -5.9739   -0.0858    2.8655 H   0  0  0  0  0  0  0  0  0  0  0  0
   -6.5972   -1.8099   -0.4709 H   0  0  0  0  0  0  0  0  0  0  0  0
   -6.5305   -2.0855    1.2801 H   0  0  0  0  0  0  0  0  0  0  0  0
   -7.8798   -1.2099    0.5777 H   0  0  0  0  0  0  0  0  0  0  0  0
   -2.2493   -2.7092    2.6311 H   0  0  0  0  0  0  0  0  0  0  0  0
    5.8720    0.4279   -2.0211 H   0  0  0  0  0  0  0  0  0  0  0  0
    6.2433   -1.0151    0.6976 H   0  0  0  0  0  0  0  0  0  0  0  0
    6.6853   -2.2038   -1.3962 H   0  0  0  0  0  0  0  0  0  0  0  0
    7.8329    2.7182   -0.1380 H   0  0  0  0  0  0  0  0  0  0  0  0
    6.6132    2.2172   -1.2901 H   0  0  0  0  0  0  0  0  0  0  0  0
    6.1162    3.0650    0.1722 H   0  0  0  0  0  0  0  0  0  0  0  0
    7.7188    2.2840    3.3237 H   0  0  0  0  0  0  0  0  0  0  0  0
  1 11  1  0  0  0  0
  1 64  1  0  0  0  0
  2 18  1  0  0  0  0
  2 74  1  0  0  0  0
  3 23  2  0  0  0  0
  4 28  2  0  0  0  0
  5 33  1  0  0  0  0
  5 77  1  0  0  0  0
  6 37  1  0  0  0  0
  6 81  1  0  0  0  0
  7 37  2  0  0  0  0
  8  9  1  0  0  0  0
  8 10  1  0  0  0  0
  8 16  1  0  0  0  0
  8 21  1  0  0  0  0
  9 11  1  0  0  0  0
  9 12  1  0  0  0  0
  9 22  1  0  0  0  0
 10 14  1  0  0  0  0
 10 19  1  0  0  0  0
 10 38  1  0  0  0  0
 11 14  1  0  0  0  0
 11 39  1  0  0  0  0
 12 15  2  0  0  0  0
 12 18  1  0  0  0  0
 13 15  1  0  0  0  0
 13 17  1  0  0  0  0
 13 25  1  0  0  0  0
 13 26  1  0  0  0  0
 14 40  1  0  0  0  0
 14 41  1  0  0  0  0
 15 23  1  0  0  0  0
 16 23  1  0  0  0  0
 16 42  1  0  0  0  0
 16 43  1  0  0  0  0
 17 20  1  0  0  0  0
 17 24  1  0  0  0  0
 17 44  1  0  0  0  0
 18 20  1  0  0  0  0
 18 45  1  0  0  0  0
 19 29  1  0  0  0  0
 19 30  1  0  0  0  0
 19 46  1  0  0  0  0
 20 47  1  0  0  0  0
 20 48  1  0  0  0  0
 21 49  1  0  0  0  0
 21 50  1  0  0  0  0
 21 51  1  0  0  0  0
 22 52  1  0  0  0  0
 22 53  1  0  0  0  0
 22 54  1  0  0  0  0
 24 28  1  0  0  0  0
 24 31  1  0  0  0  0
 24 32  1  0  0  0  0
 25 27  1  0  0  0  0
 25 55  1  0  0  0  0
 25 56  1  0  0  0  0
 26 57  1  0  0  0  0
 26 58  1  0  0  0  0
 26 59  1  0  0  0  0
 27 28  1  0  0  0  0
 27 60  1  0  0  0  0
 27 61  1  0  0  0  0
 29 33  1  0  0  0  0
 29 62  1  0  0  0  0
 29 63  1  0  0  0  0
 30 65  1  0  0  0  0
 30 66  1  0  0  0  0
 30 67  1  0  0  0  0
 31 68  1  0  0  0  0
 31 69  1  0  0  0  0
 31 70  1  0  0  0  0
 32 71  1  0  0  0  0
 32 72  1  0  0  0  0
 32 73  1  0  0  0  0
 33 34  1  0  0  0  0
 33 75  1  0  0  0  0
 34 35  2  0  0  0  0
 34 76  1  0  0  0  0
 35 36  1  0  0  0  0
 35 37  1  0  0  0  0
 36 78  1  0  0  0  0
 36 79  1  0  0  0  0
 36 80  1  0  0  0  0
M  END
> <PUBCHEM_COMPOUND_CID>
15427808

> <PUBCHEM_CONFORMER_RMSD>
1

> <PUBCHEM_CONFORMER_DIVERSEORDER>
1
7
4
2
3
5
6

> <PUBCHEM_MMFF94_PARTIAL_CHARGES>
28
1 -0.68
11 0.28
12 -0.28
13 0.14
15 -0.12
16 0.06
18 0.42
2 -0.68
23 0.49
24 0.06
27 0.06
28 0.45
3 -0.57
33 0.42
34 -0.29
35 -0.12
36 0.14
37 0.71
4 -0.57
5 -0.68
6 -0.65
64 0.4
7 -0.57
74 0.4
76 0.15
77 0.4
81 0.5
9 0.14

> <PUBCHEM_EFFECTIVE_ROTOR_COUNT>
6.8

> <PUBCHEM_PHARMACOPHORE_FEATURES>
18
1 1 acceptor
1 1 donor
1 2 acceptor
1 2 donor
1 3 acceptor
1 30 hydrophobe
1 36 hydrophobe
1 4 acceptor
1 5 acceptor
1 5 donor
1 6 acceptor
1 7 acceptor
3 24 31 32 hydrophobe
3 6 7 37 anion
5 8 9 10 11 14 rings
6 12 13 15 17 18 20 rings
6 13 17 24 25 27 28 rings
6 8 9 12 15 16 23 rings

> <PUBCHEM_HEAVY_ATOM_COUNT>
37

> <PUBCHEM_ATOM_DEF_STEREO_COUNT>
9

> <PUBCHEM_ATOM_UDEF_STEREO_COUNT>
0

> <PUBCHEM_BOND_DEF_STEREO_COUNT>
1

> <PUBCHEM_BOND_UDEF_STEREO_COUNT>
0

> <PUBCHEM_ISOTOPIC_ATOM_COUNT>
0

> <PUBCHEM_COMPONENT_COUNT>
1

> <PUBCHEM_CACTVS_TAUTO_COUNT>
4

> <PUBCHEM_CONFORMER_ID>
00EB68E000000001

> <PUBCHEM_MMFF94_ENERGY>
139.9066

> <PUBCHEM_FEATURE_SELFOVERLAP>
91.5

> <PUBCHEM_SHAPE_FINGERPRINT>
10 15 18333449868110014124
10319688 67 18187641431678730954
10319926 262 18041284352304985162
10554248 39 16343716408984676982
10930396 42 18188191200515326848
11007060 377 17203609306797261815
11136131 41 18041275448955105315
11578080 2 17489018375278677654
11719270 70 18259707774575973206
12035758 1 18335990834495610881
12236239 1 15482394157923090943
12422481 6 17967248672856818806
12539765 74 16271661008904982125
12664476 115 18273217487648867428
12838862 33 18113610172026244621
13383668 254 17489315188010559545
13383668 40 11314569988671027929
13811026 1 18259705618850251469
13914758 101 14562525159324836989
14849402 71 17132112484969417937
15131766 46 16701443711230674160
15183329 4 17531256053812750862
16994733 274 16773798073695016737
18393751 57 18343022207055327590
18681886 176 18260555540863827253
20554085 129 18336818728075456962
21033648 29 18272928371919724470
21130935 74 18201166472520161751
21521721 280 17775288248560940318
21792934 111 18114173086875914454
21859007 373 18187076235384145556
22224240 67 18411981360209279295
23522609 53 14261089686999451826
23559900 14 18334019389410799637
24771293 8 18412550920059775845
3383291 50 18260554450069033539
34797466 226 16773804671218346988
4093350 32 16773803576286698412
4258327 124 16415194650257120972
474113 269 16226033492645131698
5080951 261 18042670866411894135
5085150 59 18113617884980516467
5104073 3 18189058590160070344
5109719 28 18411143562872939360
6081469 158 14273451492441302831

> <PUBCHEM_SHAPE_MULTIPOLES>
720.36
20.89
2.69
2.02
16.35
0.71
-0.86
-9.83
-7
0.23
0.01
2.32
-0.28
2.9

> <PUBCHEM_SHAPE_SELFOVERLAP>
1529.473

> <PUBCHEM_SHAPE_VOLUME>
399

> <PUBCHEM_COORDINATE_TYPE>
2
5
10

$$$$
