71461154
  -OEChem-09122004223D

 80 83  0     1  0  0  0  0  0999 V2000
    8.0108   -0.7068   -0.9955 O   0  0  0  0  0  0  0  0  0  0  0  0
    1.8060    2.9525    0.3654 O   0  0  0  0  0  0  0  0  0  0  0  0
   -9.8855    0.0542   -0.1743 O   0  0  0  0  0  0  0  0  0  0  0  0
   -8.7486    2.0188   -0.2417 O   0  0  0  0  0  0  0  0  0  0  0  0
   -0.5313   -0.6395    0.4300 C   0  0  1  0  0  0  0  0  0  0  0  0
    0.1401    0.6509   -0.1639 C   0  0  2  0  0  0  0  0  0  0  0  0
   -2.0322   -0.3515    0.1918 C   0  0  2  0  0  0  0  0  0  0  0  0
    3.8477   -0.6946    0.2479 C   0  0  2  0  0  0  0  0  0  0  0  0
    1.6446    0.5949    0.0664 C   0  0  0  0  0  0  0  0  0  0  0  0
   -0.7319    1.7344    0.5098 C   0  0  0  0  0  0  0  0  0  0  0  0
    2.3137   -0.5869    0.0197 C   0  0  0  0  0  0  0  0  0  0  0  0
    0.0266   -1.8576   -0.3053 C   0  0  0  0  0  0  0  0  0  0  0  0
    4.5102    0.6450   -0.2274 C   0  0  2  0  0  0  0  0  0  0  0  0
   -2.1620    1.1502    0.5321 C   0  0  0  0  0  0  0  0  0  0  0  0
    1.5640   -1.9109   -0.2017 C   0  0  0  0  0  0  0  0  0  0  0  0
    6.0857    0.6852   -0.3033 C   0  0  0  0  0  0  0  0  0  0  0  0
   -3.0308   -1.2164    0.9518 C   0  0  1  0  0  0  0  0  0  0  0  0
   -0.2749   -0.8315    1.9607 C   0  0  0  0  0  0  0  0  0  0  0  0
    4.4720   -1.8526   -0.5735 C   0  0  0  0  0  0  0  0  0  0  0  0
   -0.0161    0.8363   -1.7044 C   0  0  0  0  0  0  0  0  0  0  0  0
    3.8856    1.8261    0.5196 C   0  0  0  0  0  0  0  0  0  0  0  0
    2.3909    1.8710    0.3093 C   0  0  0  0  0  0  0  0  0  0  0  0
    6.5913   -0.5770   -1.0621 C   0  0  2  0  0  0  0  0  0  0  0  0
    5.9947   -1.8767   -0.5361 C   0  0  0  0  0  0  0  0  0  0  0  0
    4.0197   -0.9957    1.7557 C   0  0  0  0  0  0  0  0  0  0  0  0
   -4.4257   -0.5661    1.0534 C   0  0  0  0  0  0  0  0  0  0  0  0
    6.5204    1.9317   -1.1269 C   0  0  0  0  0  0  0  0  0  0  0  0
    6.7805    0.8257    1.0673 C   0  0  0  0  0  0  0  0  0  0  0  0
   -3.1551   -2.5864    0.2764 C   0  0  0  0  0  0  0  0  0  0  0  0
   -5.0552   -0.2646   -0.3097 C   0  0  0  0  0  0  0  0  0  0  0  0
   -6.3989    0.3943   -0.1515 C   0  0  0  0  0  0  0  0  0  0  0  0
   -7.5847   -0.0709   -0.5870 C   0  0  0  0  0  0  0  0  0  0  0  0
   -7.8071   -1.3856   -1.2739 C   0  0  0  0  0  0  0  0  0  0  0  0
   -8.7644    0.7999   -0.3193 C   0  0  0  0  0  0  0  0  0  0  0  0
   -2.2437   -0.4613   -0.8798 H   0  0  0  0  0  0  0  0  0  0  0  0
   -0.7208    2.6908   -0.0249 H   0  0  0  0  0  0  0  0  0  0  0  0
   -0.3963    1.9364    1.5343 H   0  0  0  0  0  0  0  0  0  0  0  0
   -0.2691   -1.8474   -1.3610 H   0  0  0  0  0  0  0  0  0  0  0  0
   -0.3627   -2.7961    0.0975 H   0  0  0  0  0  0  0  0  0  0  0  0
    4.1894    0.7573   -1.2784 H   0  0  0  0  0  0  0  0  0  0  0  0
   -2.5747    1.3373    1.5281 H   0  0  0  0  0  0  0  0  0  0  0  0
   -2.7882    1.6740   -0.1966 H   0  0  0  0  0  0  0  0  0  0  0  0
    1.9325   -2.3939   -1.1138 H   0  0  0  0  0  0  0  0  0  0  0  0
    1.8101   -2.5816    0.6309 H   0  0  0  0  0  0  0  0  0  0  0  0
   -2.7203   -1.3795    1.9882 H   0  0  0  0  0  0  0  0  0  0  0  0
   -0.6020   -1.8243    2.2910 H   0  0  0  0  0  0  0  0  0  0  0  0
    0.7821   -0.7558    2.2304 H   0  0  0  0  0  0  0  0  0  0  0  0
   -0.8023   -0.0930    2.5730 H   0  0  0  0  0  0  0  0  0  0  0  0
    4.1552   -1.7743   -1.6225 H   0  0  0  0  0  0  0  0  0  0  0  0
    4.1122   -2.8237   -0.2109 H   0  0  0  0  0  0  0  0  0  0  0  0
   -1.0587    0.8672   -2.0333 H   0  0  0  0  0  0  0  0  0  0  0  0
    0.4844    0.0473   -2.2763 H   0  0  0  0  0  0  0  0  0  0  0  0
    0.4326    1.7866   -2.0220 H   0  0  0  0  0  0  0  0  0  0  0  0
    4.2791    2.7709    0.1321 H   0  0  0  0  0  0  0  0  0  0  0  0
    4.0814    1.8014    1.5951 H   0  0  0  0  0  0  0  0  0  0  0  0
    6.3301   -0.4806   -2.1243 H   0  0  0  0  0  0  0  0  0  0  0  0
    6.3529   -2.7132   -1.1504 H   0  0  0  0  0  0  0  0  0  0  0  0
    6.3633   -2.0933    0.4727 H   0  0  0  0  0  0  0  0  0  0  0  0
    5.0586   -1.1340    2.0495 H   0  0  0  0  0  0  0  0  0  0  0  0
    3.5081   -1.9254    2.0334 H   0  0  0  0  0  0  0  0  0  0  0  0
    3.5983   -0.2092    2.3901 H   0  0  0  0  0  0  0  0  0  0  0  0
   -5.0887   -1.2506    1.6018 H   0  0  0  0  0  0  0  0  0  0  0  0
   -4.3963    0.3399    1.6685 H   0  0  0  0  0  0  0  0  0  0  0  0
    7.8468    1.0525    0.9445 H   0  0  0  0  0  0  0  0  0  0  0  0
    7.5979    1.9166   -1.3287 H   0  0  0  0  0  0  0  0  0  0  0  0
    6.3111    2.8670   -0.5984 H   0  0  0  0  0  0  0  0  0  0  0  0
    6.7350   -0.0856    1.6628 H   0  0  0  0  0  0  0  0  0  0  0  0
    6.0083    1.9672   -2.0949 H   0  0  0  0  0  0  0  0  0  0  0  0
    6.3564    1.6424    1.6590 H   0  0  0  0  0  0  0  0  0  0  0  0
   -3.1976   -2.5189   -0.8154 H   0  0  0  0  0  0  0  0  0  0  0  0
   -4.0574   -3.1100    0.6128 H   0  0  0  0  0  0  0  0  0  0  0  0
   -2.3197   -3.2349    0.5468 H   0  0  0  0  0  0  0  0  0  0  0  0
    8.2646   -1.4695   -1.5426 H   0  0  0  0  0  0  0  0  0  0  0  0
   -5.1278   -1.1855   -0.8911 H   0  0  0  0  0  0  0  0  0  0  0  0
   -4.4341    0.4152   -0.8987 H   0  0  0  0  0  0  0  0  0  0  0  0
   -6.3608    1.3605    0.3508 H   0  0  0  0  0  0  0  0  0  0  0  0
   -6.9049   -1.7951   -1.7327 H   0  0  0  0  0  0  0  0  0  0  0  0
   -8.5353   -1.2715   -2.0848 H   0  0  0  0  0  0  0  0  0  0  0  0
   -8.1959   -2.1234   -0.5647 H   0  0  0  0  0  0  0  0  0  0  0  0
  -10.6755    0.6089    0.0006 H   0  0  0  0  0  0  0  0  0  0  0  0
  1 23  1  0  0  0  0
  1 73  1  0  0  0  0
  2 22  2  0  0  0  0
  3 34  1  0  0  0  0
  3 80  1  0  0  0  0
  4 34  2  0  0  0  0
  5  6  1  0  0  0  0
  5  7  1  0  0  0  0
  5 12  1  0  0  0  0
  5 18  1  0  0  0  0
  6  9  1  0  0  0  0
  6 10  1  0  0  0  0
  6 20  1  0  0  0  0
  7 14  1  0  0  0  0
  7 17  1  0  0  0  0
  7 35  1  0  0  0  0
  8 11  1  0  0  0  0
  8 13  1  0  0  0  0
  8 19  1  0  0  0  0
  8 25  1  0  0  0  0
  9 11  2  0  0  0  0
  9 22  1  0  0  0  0
 10 14  1  0  0  0  0
 10 36  1  0  0  0  0
 10 37  1  0  0  0  0
 11 15  1  0  0  0  0
 12 15  1  0  0  0  0
 12 38  1  0  0  0  0
 12 39  1  0  0  0  0
 13 16  1  0  0  0  0
 13 21  1  0  0  0  0
 13 40  1  0  0  0  0
 14 41  1  0  0  0  0
 14 42  1  0  0  0  0
 15 43  1  0  0  0  0
 15 44  1  0  0  0  0
 16 23  1  0  0  0  0
 16 27  1  0  0  0  0
 16 28  1  0  0  0  0
 17 26  1  0  0  0  0
 17 29  1  0  0  0  0
 17 45  1  0  0  0  0
 18 46  1  0  0  0  0
 18 47  1  0  0  0  0
 18 48  1  0  0  0  0
 19 24  1  0  0  0  0
 19 49  1  0  0  0  0
 19 50  1  0  0  0  0
 20 51  1  0  0  0  0
 20 52  1  0  0  0  0
 20 53  1  0  0  0  0
 21 22  1  0  0  0  0
 21 54  1  0  0  0  0
 21 55  1  0  0  0  0
 23 24  1  0  0  0  0
 23 56  1  0  0  0  0
 24 57  1  0  0  0  0
 24 58  1  0  0  0  0
 25 59  1  0  0  0  0
 25 60  1  0  0  0  0
 25 61  1  0  0  0  0
 26 30  1  0  0  0  0
 26 62  1  0  0  0  0
 26 63  1  0  0  0  0
 27 65  1  0  0  0  0
 27 66  1  0  0  0  0
 27 68  1  0  0  0  0
 28 64  1  0  0  0  0
 28 67  1  0  0  0  0
 28 69  1  0  0  0  0
 29 70  1  0  0  0  0
 29 71  1  0  0  0  0
 29 72  1  0  0  0  0
 30 31  1  0  0  0  0
 30 74  1  0  0  0  0
 30 75  1  0  0  0  0
 31 32  2  0  0  0  0
 31 76  1  0  0  0  0
 32 33  1  0  0  0  0
 32 34  1  0  0  0  0
 33 77  1  0  0  0  0
 33 78  1  0  0  0  0
 33 79  1  0  0  0  0
M  END
> <PUBCHEM_COMPOUND_CID>
71461154

> <PUBCHEM_CONFORMER_RMSD>
1

> <PUBCHEM_CONFORMER_DIVERSEORDER>
1
10
8
9
5
3
6
13
4
7
12
14
11
2

> <PUBCHEM_MMFF94_PARTIAL_CHARGES>
20
1 -0.68
11 -0.28
15 0.14
2 -0.57
21 0.06
22 0.49
23 0.28
3 -0.65
30 0.14
31 -0.29
32 -0.12
33 0.14
34 0.71
4 -0.57
6 0.14
73 0.4
76 0.15
8 0.14
80 0.5
9 -0.12

> <PUBCHEM_EFFECTIVE_ROTOR_COUNT>
7

> <PUBCHEM_PHARMACOPHORE_FEATURES>
14
1 1 acceptor
1 1 donor
1 2 acceptor
1 29 hydrophobe
1 3 acceptor
1 33 hydrophobe
1 4 acceptor
3 16 27 28 hydrophobe
3 3 4 34 anion
4 17 26 30 31 hydrophobe
5 5 6 7 10 14 rings
6 5 6 9 11 12 15 rings
6 8 13 16 19 23 24 rings
6 8 9 11 13 21 22 rings

> <PUBCHEM_HEAVY_ATOM_COUNT>
34

> <PUBCHEM_ATOM_DEF_STEREO_COUNT>
7

> <PUBCHEM_ATOM_UDEF_STEREO_COUNT>
0

> <PUBCHEM_BOND_DEF_STEREO_COUNT>
1

> <PUBCHEM_BOND_UDEF_STEREO_COUNT>
0

> <PUBCHEM_ISOTOPIC_ATOM_COUNT>
0

> <PUBCHEM_COMPONENT_COUNT>
1

> <PUBCHEM_CACTVS_TAUTO_COUNT>
5

> <PUBCHEM_CONFORMER_ID>
0442692200000001

> <PUBCHEM_MMFF94_ENERGY>
127.7861

> <PUBCHEM_FEATURE_SELFOVERLAP>
71.204

> <PUBCHEM_SHAPE_FINGERPRINT>
10 15 14345794946833938611
10625338 86 16515678932542009309
11135609 127 17677619833705250612
11135609 187 18047762787119052644
11719270 70 17632576042102586055
12011746 2 18408327696361107442
12166972 35 17489588978114605120
12236239 1 17203615886966415906
12741549 16 18186513307739387044
13692114 37 12751231506512147420
13811026 1 18410575101959350171
14117953 113 18342742909552754623
14170010 4 18411419522757921496
14251764 18 18259700104085616021
14294032 229 16700914687244802881
15064986 266 18337674239514334135
15131766 46 16663195073260036260
15183329 4 18412263930956389137
15247644 1 15913332377564057782
15840311 113 17968100849480435565
15849732 13 18201718462212188695
16087824 20 18336828598675817357
18335252 114 18341890797011178365
21033648 29 18041835241726703176
21267235 1 18340782477164990582
21792934 111 18341041953108078576
21792938 131 18188487944807890858
221357 26 18411983546827706768
23559900 14 18339922731089631488
23576562 1 18189615120123866911
249057 3 18412545431444576855
255183 451 17984709909454502374
3004659 81 18408601470329529217
335352 9 18411704287447407607
350125 39 18409451422967382724
3633792 109 18343587321988368091
4017518 198 17346886645396096518
4073 2 18041283257416009267
4098825 35 18411979131928354765
4325135 7 17988925561382581533
4340502 62 8718829786479724480
439807 62 17894629219877106522
58260988 393 14562518570871366070
59755656 215 18334857207836951598
6009941 240 17313391149400821075
6081469 158 17676205737107902342
6086070 43 17702947066812470851
9663363 56 18343301458419990550

> <PUBCHEM_SHAPE_MULTIPOLES>
676.23
24.66
2.31
1.23
42.75
0.21
-0.16
3.17
7.26
-1.1
0.02
-0.6
-0.16
0.25

> <PUBCHEM_SHAPE_SELFOVERLAP>
1426.238

> <PUBCHEM_SHAPE_VOLUME>
374.9

> <PUBCHEM_COORDINATE_TYPE>
2
5
10

$$$$
