15602271
  -OEChem-09122006103D

 86 89  0     1  0  0  0  0  0999 V2000
    0.4172    3.2204   -0.0742 O   0  0  0  0  0  0  0  0  0  0  0  0
   -2.3895    2.5161    0.8327 O   0  0  0  0  0  0  0  0  0  0  0  0
   -7.1763   -1.4030    1.9145 O   0  0  0  0  0  0  0  0  0  0  0  0
    7.4272   -1.7336    2.1657 O   0  0  0  0  0  0  0  0  0  0  0  0
    9.4904    0.4850    1.8700 O   0  0  0  0  0  0  0  0  0  0  0  0
    0.6931   -0.3750   -0.8579 C   0  0  1  0  0  0  0  0  0  0  0  0
   -0.0737    0.7698   -0.0938 C   0  0  2  0  0  0  0  0  0  0  0  0
    2.1598    0.1156   -0.7680 C   0  0  2  0  0  0  0  0  0  0  0  0
   -1.5819    0.5211   -0.2033 C   0  0  0  0  0  0  0  0  0  0  0  0
    0.5543    2.0057   -0.7933 C   0  0  2  0  0  0  0  0  0  0  0  0
   -3.5761   -1.0700   -0.2459 C   0  0  2  0  0  0  0  0  0  0  0  0
    0.4055   -1.7031   -0.1561 C   0  0  0  0  0  0  0  0  0  0  0  0
   -2.0561   -0.7541   -0.1473 C   0  0  0  0  0  0  0  0  0  0  0  0
    2.0465    1.6428   -0.9865 C   0  0  0  0  0  0  0  0  0  0  0  0
   -4.3928    0.1884    0.2272 C   0  0  1  0  0  0  0  0  0  0  0  0
   -1.1114   -1.9619   -0.0505 C   0  0  0  0  0  0  0  0  0  0  0  0
   -2.4838    1.7292   -0.3562 C   0  0  1  0  0  0  0  0  0  0  0  0
   -3.9639    1.4139   -0.5984 C   0  0  0  0  0  0  0  0  0  0  0  0
    3.1673   -0.5410   -1.7045 C   0  0  1  0  0  0  0  0  0  0  0  0
    0.2864   -0.5207   -2.3606 C   0  0  0  0  0  0  0  0  0  0  0  0
    0.2287    0.8329    1.4381 C   0  0  0  0  0  0  0  0  0  0  0  0
   -5.9451    0.0283    0.3840 C   0  0  0  0  0  0  0  0  0  0  0  0
   -3.9778   -2.2433    0.6834 C   0  0  0  0  0  0  0  0  0  0  0  0
   -3.8215   -1.4732   -1.7196 C   0  0  0  0  0  0  0  0  0  0  0  0
   -5.4733   -2.5194    0.6941 C   0  0  0  0  0  0  0  0  0  0  0  0
   -6.2559   -1.2957    1.1009 C   0  0  0  0  0  0  0  0  0  0  0  0
    4.5976    0.0074   -1.5119 C   0  0  0  0  0  0  0  0  0  0  0  0
    3.1704   -2.0578   -1.4820 C   0  0  0  0  0  0  0  0  0  0  0  0
   -6.7487    0.0663   -0.9238 C   0  0  0  0  0  0  0  0  0  0  0  0
   -6.4804    1.1772    1.2798 C   0  0  0  0  0  0  0  0  0  0  0  0
    5.1647   -0.1283   -0.0919 C   0  0  0  0  0  0  0  0  0  0  0  0
   -3.2138    3.6676    0.7538 C   0  0  0  0  0  0  0  0  0  0  0  0
    6.5311    0.4835    0.0465 C   0  0  0  0  0  0  0  0  0  0  0  0
    7.6827   -0.1065    0.4237 C   0  0  0  0  0  0  0  0  0  0  0  0
    7.6860   -1.5759    0.7768 C   0  0  0  0  0  0  0  0  0  0  0  0
    9.0131    0.5914    0.5344 C   0  0  0  0  0  0  0  0  0  0  0  0
    2.4956   -0.0576    0.2602 H   0  0  0  0  0  0  0  0  0  0  0  0
    0.1025    2.1711   -1.7783 H   0  0  0  0  0  0  0  0  0  0  0  0
    0.8311   -2.5676   -0.6674 H   0  0  0  0  0  0  0  0  0  0  0  0
    0.8467   -1.7183    0.8476 H   0  0  0  0  0  0  0  0  0  0  0  0
    2.3560    1.9384   -1.9957 H   0  0  0  0  0  0  0  0  0  0  0  0
    2.6892    2.1837   -0.2826 H   0  0  0  0  0  0  0  0  0  0  0  0
   -4.0441    0.3795    1.2570 H   0  0  0  0  0  0  0  0  0  0  0  0
   -1.3716   -2.6629   -0.8526 H   0  0  0  0  0  0  0  0  0  0  0  0
   -1.2917   -2.4876    0.8945 H   0  0  0  0  0  0  0  0  0  0  0  0
   -2.1320    2.3299   -1.2037 H   0  0  0  0  0  0  0  0  0  0  0  0
   -4.6369    2.2534   -0.4361 H   0  0  0  0  0  0  0  0  0  0  0  0
   -4.0912    1.1903   -1.6643 H   0  0  0  0  0  0  0  0  0  0  0  0
    2.9048   -0.3518   -2.7525 H   0  0  0  0  0  0  0  0  0  0  0  0
    0.6105    0.3314   -2.9666 H   0  0  0  0  0  0  0  0  0  0  0  0
    0.7182   -1.4163   -2.8160 H   0  0  0  0  0  0  0  0  0  0  0  0
   -0.7942   -0.6050   -2.5039 H   0  0  0  0  0  0  0  0  0  0  0  0
   -0.1153   -0.0587    1.9732 H   0  0  0  0  0  0  0  0  0  0  0  0
    1.2926    0.9561    1.6587 H   0  0  0  0  0  0  0  0  0  0  0  0
   -0.2751    1.6845    1.9086 H   0  0  0  0  0  0  0  0  0  0  0  0
   -3.4718   -3.1696    0.3847 H   0  0  0  0  0  0  0  0  0  0  0  0
   -3.6506   -2.0243    1.7092 H   0  0  0  0  0  0  0  0  0  0  0  0
   -4.8670   -1.6724   -1.9429 H   0  0  0  0  0  0  0  0  0  0  0  0
   -3.2866   -2.3970   -1.9709 H   0  0  0  0  0  0  0  0  0  0  0  0
   -3.4725   -0.7135   -2.4266 H   0  0  0  0  0  0  0  0  0  0  0  0
   -5.8356   -2.8625   -0.2792 H   0  0  0  0  0  0  0  0  0  0  0  0
   -5.6819   -3.3176    1.4160 H   0  0  0  0  0  0  0  0  0  0  0  0
    5.2713   -0.5026   -2.2139 H   0  0  0  0  0  0  0  0  0  0  0  0
    4.6172    1.0648   -1.8059 H   0  0  0  0  0  0  0  0  0  0  0  0
   -0.5299    3.4035    0.0315 H   0  0  0  0  0  0  0  0  0  0  0  0
    2.3599   -2.5542   -2.0175 H   0  0  0  0  0  0  0  0  0  0  0  0
    3.1366   -2.3285   -0.4220 H   0  0  0  0  0  0  0  0  0  0  0  0
    4.0864   -2.5006   -1.8925 H   0  0  0  0  0  0  0  0  0  0  0  0
   -7.8234    0.1387   -0.7131 H   0  0  0  0  0  0  0  0  0  0  0  0
   -6.6362   -0.8390   -1.5211 H   0  0  0  0  0  0  0  0  0  0  0  0
   -6.4855    0.9279   -1.5443 H   0  0  0  0  0  0  0  0  0  0  0  0
   -7.5480    1.0531    1.4987 H   0  0  0  0  0  0  0  0  0  0  0  0
   -5.9595    1.2047    2.2439 H   0  0  0  0  0  0  0  0  0  0  0  0
   -6.3718    2.1566    0.8051 H   0  0  0  0  0  0  0  0  0  0  0  0
    5.1399   -1.1726    0.2250 H   0  0  0  0  0  0  0  0  0  0  0  0
    4.5271    0.4141    0.6150 H   0  0  0  0  0  0  0  0  0  0  0  0
   -3.2641    4.0928   -0.2544 H   0  0  0  0  0  0  0  0  0  0  0  0
   -4.2075    3.4661    1.1632 H   0  0  0  0  0  0  0  0  0  0  0  0
   -2.7670    4.4285    1.4022 H   0  0  0  0  0  0  0  0  0  0  0  0
    6.5726    1.5469   -0.1882 H   0  0  0  0  0  0  0  0  0  0  0  0
    8.6610   -2.0240    0.5532 H   0  0  0  0  0  0  0  0  0  0  0  0
    6.9563   -2.1616    0.2120 H   0  0  0  0  0  0  0  0  0  0  0  0
    8.9311    1.6535    0.2820 H   0  0  0  0  0  0  0  0  0  0  0  0
    9.7411    0.1297   -0.1407 H   0  0  0  0  0  0  0  0  0  0  0  0
    8.1255   -1.2640    2.6532 H   0  0  0  0  0  0  0  0  0  0  0  0
   10.3532    0.9324    1.9008 H   0  0  0  0  0  0  0  0  0  0  0  0
  1 10  1  0  0  0  0
  1 65  1  0  0  0  0
  2 17  1  0  0  0  0
  2 32  1  0  0  0  0
  3 26  2  0  0  0  0
  4 35  1  0  0  0  0
  4 85  1  0  0  0  0
  5 36  1  0  0  0  0
  5 86  1  0  0  0  0
  6  7  1  0  0  0  0
  6  8  1  0  0  0  0
  6 12  1  0  0  0  0
  6 20  1  0  0  0  0
  7  9  1  0  0  0  0
  7 10  1  0  0  0  0
  7 21  1  0  0  0  0
  8 14  1  0  0  0  0
  8 19  1  0  0  0  0
  8 37  1  0  0  0  0
  9 13  2  0  0  0  0
  9 17  1  0  0  0  0
 10 14  1  0  0  0  0
 10 38  1  0  0  0  0
 11 13  1  0  0  0  0
 11 15  1  0  0  0  0
 11 23  1  0  0  0  0
 11 24  1  0  0  0  0
 12 16  1  0  0  0  0
 12 39  1  0  0  0  0
 12 40  1  0  0  0  0
 13 16  1  0  0  0  0
 14 41  1  0  0  0  0
 14 42  1  0  0  0  0
 15 18  1  0  0  0  0
 15 22  1  0  0  0  0
 15 43  1  0  0  0  0
 16 44  1  0  0  0  0
 16 45  1  0  0  0  0
 17 18  1  0  0  0  0
 17 46  1  0  0  0  0
 18 47  1  0  0  0  0
 18 48  1  0  0  0  0
 19 27  1  0  0  0  0
 19 28  1  0  0  0  0
 19 49  1  0  0  0  0
 20 50  1  0  0  0  0
 20 51  1  0  0  0  0
 20 52  1  0  0  0  0
 21 53  1  0  0  0  0
 21 54  1  0  0  0  0
 21 55  1  0  0  0  0
 22 26  1  0  0  0  0
 22 29  1  0  0  0  0
 22 30  1  0  0  0  0
 23 25  1  0  0  0  0
 23 56  1  0  0  0  0
 23 57  1  0  0  0  0
 24 58  1  0  0  0  0
 24 59  1  0  0  0  0
 24 60  1  0  0  0  0
 25 26  1  0  0  0  0
 25 61  1  0  0  0  0
 25 62  1  0  0  0  0
 27 31  1  0  0  0  0
 27 63  1  0  0  0  0
 27 64  1  0  0  0  0
 28 66  1  0  0  0  0
 28 67  1  0  0  0  0
 28 68  1  0  0  0  0
 29 69  1  0  0  0  0
 29 70  1  0  0  0  0
 29 71  1  0  0  0  0
 30 72  1  0  0  0  0
 30 73  1  0  0  0  0
 30 74  1  0  0  0  0
 31 33  1  0  0  0  0
 31 75  1  0  0  0  0
 31 76  1  0  0  0  0
 32 77  1  0  0  0  0
 32 78  1  0  0  0  0
 32 79  1  0  0  0  0
 33 34  2  0  0  0  0
 33 80  1  0  0  0  0
 34 35  1  0  0  0  0
 34 36  1  0  0  0  0
 35 81  1  0  0  0  0
 35 82  1  0  0  0  0
 36 83  1  0  0  0  0
 36 84  1  0  0  0  0
M  END
> <PUBCHEM_COMPOUND_CID>
15602271

> <PUBCHEM_CONFORMER_RMSD>
1

> <PUBCHEM_CONFORMER_DIVERSEORDER>
2
4
11
8
5
9
3
10
7
1
6

> <PUBCHEM_MMFF94_PARTIAL_CHARGES>
25
1 -0.68
10 0.28
11 0.14
13 -0.28
16 0.14
17 0.42
2 -0.56
22 0.06
25 0.06
26 0.45
3 -0.57
31 0.14
32 0.28
33 -0.29
34 -0.28
35 0.42
36 0.42
4 -0.68
5 -0.68
65 0.4
7 0.14
80 0.15
85 0.4
86 0.4
9 -0.28

> <PUBCHEM_EFFECTIVE_ROTOR_COUNT>
9

> <PUBCHEM_PHARMACOPHORE_FEATURES>
15
1 1 acceptor
1 1 donor
1 2 acceptor
1 28 hydrophobe
1 3 acceptor
1 4 acceptor
1 4 donor
1 5 acceptor
1 5 donor
3 22 29 30 hydrophobe
4 19 27 31 33 hydrophobe
5 6 7 8 10 14 rings
6 11 15 22 23 25 26 rings
6 6 7 9 12 13 16 rings
6 9 11 13 15 17 18 rings

> <PUBCHEM_HEAVY_ATOM_COUNT>
36

> <PUBCHEM_ATOM_DEF_STEREO_COUNT>
8

> <PUBCHEM_ATOM_UDEF_STEREO_COUNT>
0

> <PUBCHEM_BOND_DEF_STEREO_COUNT>
0

> <PUBCHEM_BOND_UDEF_STEREO_COUNT>
0

> <PUBCHEM_ISOTOPIC_ATOM_COUNT>
0

> <PUBCHEM_COMPONENT_COUNT>
1

> <PUBCHEM_CACTVS_TAUTO_COUNT>
2

> <PUBCHEM_CONFORMER_ID>
00EE125F00000002

> <PUBCHEM_MMFF94_ENERGY>
137.8678

> <PUBCHEM_FEATURE_SELFOVERLAP>
76.224

> <PUBCHEM_SHAPE_FINGERPRINT>
10 15 18202562891616570678
10290309 65 17916874504048229582
10939801 23 18338236081228413020
11135926 11 18114175324544047167
12035758 1 18130794476919645326
12166972 35 17313391166111308924
12236239 1 17168151165066312447
12838862 33 18340200805111710949
13140716 1 18122914384769092327
13383668 251 16773214301924728025
13540713 4 17843697569066470524
13782708 43 17459196329587582283
13811026 1 18413108389671298495
13914758 101 16660360351261661892
14028597 1 18040996211581242562
14040222 275 14996577153278800982
14394314 77 18334858281689909376
15347590 135 18273220785429539738
16994733 274 14476966666320765002
18393751 57 18059851801580765662
18608769 82 18342740736294125171
19841028 212 17095794422747093930
2026 5 15574984032615054114
21033648 29 17346314856251434683
23559900 14 18410859884799214021
23569943 247 16515673399906778978
23576562 1 10663519509742352298
24771293 8 17989208161577621628
249057 25 17822587044344757124
3383291 50 18187087286329918402
3418910 222 18270975613167857128
350125 39 18339655494288404405
4093350 32 16056610815726596590
4616759 239 18131639971840330691
5104073 3 18128263289836977994
5109719 28 17704070720994931120
5758199 1 15770058333010564614
59682541 35 18131349739424925834
9953998 17 17703507774619169134

> <PUBCHEM_SHAPE_MULTIPOLES>
711.52
22.56
2.79
1.67
41.28
1.43
-0.05
-5.06
12.94
-2.88
0.46
0.95
-0.47
0.02

> <PUBCHEM_SHAPE_SELFOVERLAP>
1488.896

> <PUBCHEM_SHAPE_VOLUME>
400.9

> <PUBCHEM_COORDINATE_TYPE>
2
5
10

$$$$
