11048424
  -OEChem-09122005223D

 78 81  0     1  0  0  0  0  0999 V2000
   -7.5443   -1.1687    1.2136 O   0  0  0  0  0  0  0  0  0  0  0  0
    9.1951    1.0893    0.7056 O   0  0  0  0  0  0  0  0  0  0  0  0
    0.8128   -0.0377   -0.8136 C   0  0  1  0  0  0  0  0  0  0  0  0
    0.0893    0.9977    0.1104 C   0  0  1  0  0  0  0  0  0  0  0  0
    2.2993    0.3123   -0.5690 C   0  0  2  0  0  0  0  0  0  0  0  0
   -3.5157   -0.6269   -0.3408 C   0  0  1  0  0  0  0  0  0  0  0  0
    0.8329    2.2948   -0.2757 C   0  0  0  0  0  0  0  0  0  0  0  0
   -1.4211    0.8945   -0.0841 C   0  0  0  0  0  0  0  0  0  0  0  0
   -4.2084    0.5461    0.4488 C   0  0  2  0  0  0  0  0  0  0  0  0
    2.2974    1.8591   -0.5085 C   0  0  0  0  0  0  0  0  0  0  0  0
   -1.9682   -0.4808   -0.2197 C   0  0  0  0  0  0  0  0  0  0  0  0
    0.3829   -1.4520   -0.3944 C   0  0  0  0  0  0  0  0  0  0  0  0
   -5.7712    0.4593    0.6455 C   0  0  0  0  0  0  0  0  0  0  0  0
    3.3104   -0.2380   -1.5675 C   0  0  1  0  0  0  0  0  0  0  0  0
   -4.0158   -1.9748    0.2472 C   0  0  0  0  0  0  0  0  0  0  0  0
    0.4745    0.1477   -2.3309 C   0  0  0  0  0  0  0  0  0  0  0  0
   -3.7126    1.9141   -0.0681 C   0  0  0  0  0  0  0  0  0  0  0  0
    0.3214    0.7899    1.6422 C   0  0  0  0  0  0  0  0  0  0  0  0
   -1.1264   -1.5408   -0.3088 C   0  0  0  0  0  0  0  0  0  0  0  0
   -2.2165    1.9780   -0.0793 C   0  0  0  0  0  0  0  0  0  0  0  0
   -6.1333   -0.9583    1.1763 C   0  0  2  0  0  0  0  0  0  0  0  0
   -5.5325   -2.0834    0.3435 C   0  0  0  0  0  0  0  0  0  0  0  0
   -3.8030   -0.6114   -1.8632 C   0  0  0  0  0  0  0  0  0  0  0  0
    4.7592    0.1741   -1.2342 C   0  0  0  0  0  0  0  0  0  0  0  0
   -6.2041    1.4916    1.7255 C   0  0  0  0  0  0  0  0  0  0  0  0
   -6.5899    0.8064   -0.6158 C   0  0  0  0  0  0  0  0  0  0  0  0
    3.2107   -1.7666   -1.6206 C   0  0  0  0  0  0  0  0  0  0  0  0
    5.2392   -0.3405    0.1261 C   0  0  0  0  0  0  0  0  0  0  0  0
    6.6661    0.0605    0.3836 C   0  0  0  0  0  0  0  0  0  0  0  0
    7.5724   -0.6161    1.1096 C   0  0  0  0  0  0  0  0  0  0  0  0
    7.3857   -1.9374    1.7860 C   0  0  0  0  0  0  0  0  0  0  0  0
    8.9139    0.0179    1.2303 C   0  0  0  0  0  0  0  0  0  0  0  0
    2.5651   -0.0677    0.4241 H   0  0  0  0  0  0  0  0  0  0  0  0
    0.7724    3.0712    0.4953 H   0  0  0  0  0  0  0  0  0  0  0  0
    0.4277    2.7316   -1.1964 H   0  0  0  0  0  0  0  0  0  0  0  0
   -3.8088    0.4605    1.4755 H   0  0  0  0  0  0  0  0  0  0  0  0
    2.6681    2.3159   -1.4330 H   0  0  0  0  0  0  0  0  0  0  0  0
    2.9386    2.2071    0.3093 H   0  0  0  0  0  0  0  0  0  0  0  0
    0.8172   -1.7512    0.5657 H   0  0  0  0  0  0  0  0  0  0  0  0
    0.6900   -2.2021   -1.1263 H   0  0  0  0  0  0  0  0  0  0  0  0
    3.1088    0.1514   -2.5729 H   0  0  0  0  0  0  0  0  0  0  0  0
   -3.5942   -2.1158    1.2520 H   0  0  0  0  0  0  0  0  0  0  0  0
   -3.6658   -2.8192   -0.3592 H   0  0  0  0  0  0  0  0  0  0  0  0
    0.8619    1.0892   -2.7333 H   0  0  0  0  0  0  0  0  0  0  0  0
    0.8937   -0.6564   -2.9427 H   0  0  0  0  0  0  0  0  0  0  0  0
   -0.6013    0.1467   -2.5296 H   0  0  0  0  0  0  0  0  0  0  0  0
   -4.0632    2.7106    0.5961 H   0  0  0  0  0  0  0  0  0  0  0  0
   -4.0878    2.1447   -1.0694 H   0  0  0  0  0  0  0  0  0  0  0  0
    1.3748    0.8527    1.9307 H   0  0  0  0  0  0  0  0  0  0  0  0
   -0.1982    1.5695    2.2147 H   0  0  0  0  0  0  0  0  0  0  0  0
   -0.0580   -0.1711    2.0048 H   0  0  0  0  0  0  0  0  0  0  0  0
   -1.5181   -2.5482   -0.4083 H   0  0  0  0  0  0  0  0  0  0  0  0
   -1.7850    2.9713    0.0065 H   0  0  0  0  0  0  0  0  0  0  0  0
   -5.7737   -1.0605    2.2081 H   0  0  0  0  0  0  0  0  0  0  0  0
   -5.9845   -2.1175   -0.6541 H   0  0  0  0  0  0  0  0  0  0  0  0
   -5.7952   -3.0464    0.8009 H   0  0  0  0  0  0  0  0  0  0  0  0
   -3.5281    0.3385   -2.3326 H   0  0  0  0  0  0  0  0  0  0  0  0
   -3.2282   -1.3929   -2.3771 H   0  0  0  0  0  0  0  0  0  0  0  0
   -4.8468   -0.8078   -2.1035 H   0  0  0  0  0  0  0  0  0  0  0  0
    4.8499    1.2668   -1.2716 H   0  0  0  0  0  0  0  0  0  0  0  0
    5.4250   -0.2066   -2.0208 H   0  0  0  0  0  0  0  0  0  0  0  0
   -5.6155    1.3780    2.6426 H   0  0  0  0  0  0  0  0  0  0  0  0
   -6.0910    2.5226    1.3754 H   0  0  0  0  0  0  0  0  0  0  0  0
   -7.2585    1.3632    1.9968 H   0  0  0  0  0  0  0  0  0  0  0  0
   -7.6528    0.9302   -0.3740 H   0  0  0  0  0  0  0  0  0  0  0  0
   -6.2680    1.7504   -1.0650 H   0  0  0  0  0  0  0  0  0  0  0  0
   -6.5418    0.0335   -1.3823 H   0  0  0  0  0  0  0  0  0  0  0  0
    4.1185   -2.1957   -2.0620 H   0  0  0  0  0  0  0  0  0  0  0  0
    3.0883   -2.2183   -0.6312 H   0  0  0  0  0  0  0  0  0  0  0  0
    2.4001   -2.0979   -2.2719 H   0  0  0  0  0  0  0  0  0  0  0  0
   -7.8676   -1.2619    0.3019 H   0  0  0  0  0  0  0  0  0  0  0  0
    4.6350    0.0945    0.9286 H   0  0  0  0  0  0  0  0  0  0  0  0
    5.1366   -1.4276    0.1741 H   0  0  0  0  0  0  0  0  0  0  0  0
    6.9343    1.0286   -0.0369 H   0  0  0  0  0  0  0  0  0  0  0  0
    6.3473   -2.2778    1.7787 H   0  0  0  0  0  0  0  0  0  0  0  0
    7.6934   -1.8718    2.8352 H   0  0  0  0  0  0  0  0  0  0  0  0
    7.9969   -2.7022    1.2962 H   0  0  0  0  0  0  0  0  0  0  0  0
    9.6478   -0.5476    1.8282 H   0  0  0  0  0  0  0  0  0  0  0  0
  1 21  1  0  0  0  0
  1 71  1  0  0  0  0
  2 32  2  0  0  0  0
  3  4  1  0  0  0  0
  3  5  1  0  0  0  0
  3 12  1  0  0  0  0
  3 16  1  0  0  0  0
  4  7  1  0  0  0  0
  4  8  1  0  0  0  0
  4 18  1  0  0  0  0
  5 10  1  0  0  0  0
  5 14  1  0  0  0  0
  5 33  1  0  0  0  0
  6  9  1  0  0  0  0
  6 11  1  0  0  0  0
  6 15  1  0  0  0  0
  6 23  1  0  0  0  0
  7 10  1  0  0  0  0
  7 34  1  0  0  0  0
  7 35  1  0  0  0  0
  8 11  1  0  0  0  0
  8 20  2  0  0  0  0
  9 13  1  0  0  0  0
  9 17  1  0  0  0  0
  9 36  1  0  0  0  0
 10 37  1  0  0  0  0
 10 38  1  0  0  0  0
 11 19  2  0  0  0  0
 12 19  1  0  0  0  0
 12 39  1  0  0  0  0
 12 40  1  0  0  0  0
 13 21  1  0  0  0  0
 13 25  1  0  0  0  0
 13 26  1  0  0  0  0
 14 24  1  0  0  0  0
 14 27  1  0  0  0  0
 14 41  1  0  0  0  0
 15 22  1  0  0  0  0
 15 42  1  0  0  0  0
 15 43  1  0  0  0  0
 16 44  1  0  0  0  0
 16 45  1  0  0  0  0
 16 46  1  0  0  0  0
 17 20  1  0  0  0  0
 17 47  1  0  0  0  0
 17 48  1  0  0  0  0
 18 49  1  0  0  0  0
 18 50  1  0  0  0  0
 18 51  1  0  0  0  0
 19 52  1  0  0  0  0
 20 53  1  0  0  0  0
 21 22  1  0  0  0  0
 21 54  1  0  0  0  0
 22 55  1  0  0  0  0
 22 56  1  0  0  0  0
 23 57  1  0  0  0  0
 23 58  1  0  0  0  0
 23 59  1  0  0  0  0
 24 28  1  0  0  0  0
 24 60  1  0  0  0  0
 24 61  1  0  0  0  0
 25 62  1  0  0  0  0
 25 63  1  0  0  0  0
 25 64  1  0  0  0  0
 26 65  1  0  0  0  0
 26 66  1  0  0  0  0
 26 67  1  0  0  0  0
 27 68  1  0  0  0  0
 27 69  1  0  0  0  0
 27 70  1  0  0  0  0
 28 29  1  0  0  0  0
 28 72  1  0  0  0  0
 28 73  1  0  0  0  0
 29 30  2  0  0  0  0
 29 74  1  0  0  0  0
 30 31  1  0  0  0  0
 30 32  1  0  0  0  0
 31 75  1  0  0  0  0
 31 76  1  0  0  0  0
 31 77  1  0  0  0  0
 32 78  1  0  0  0  0
M  END
> <PUBCHEM_COMPOUND_CID>
11048424

> <PUBCHEM_CONFORMER_RMSD>
0.8

> <PUBCHEM_CONFORMER_DIVERSEORDER>
6
5
7
9
8
2
4
3
1

> <PUBCHEM_MMFF94_PARTIAL_CHARGES>
21
1 -0.68
11 -0.14
12 0.14
17 0.14
19 -0.29
2 -0.57
20 -0.29
21 0.28
28 0.14
29 -0.29
30 -0.12
31 0.14
32 0.5
4 0.14
52 0.15
53 0.15
6 0.14
71 0.4
74 0.15
78 0.06
8 -0.14

> <PUBCHEM_EFFECTIVE_ROTOR_COUNT>
6.8

> <PUBCHEM_PHARMACOPHORE_FEATURES>
11
1 1 acceptor
1 1 donor
1 2 acceptor
1 27 hydrophobe
1 31 hydrophobe
3 13 25 26 hydrophobe
4 14 24 28 29 hydrophobe
5 3 4 5 7 10 rings
6 3 4 8 11 12 19 rings
6 6 8 9 11 17 20 rings
6 6 9 13 15 21 22 rings

> <PUBCHEM_HEAVY_ATOM_COUNT>
32

> <PUBCHEM_ATOM_DEF_STEREO_COUNT>
7

> <PUBCHEM_ATOM_UDEF_STEREO_COUNT>
0

> <PUBCHEM_BOND_DEF_STEREO_COUNT>
1

> <PUBCHEM_BOND_UDEF_STEREO_COUNT>
0

> <PUBCHEM_ISOTOPIC_ATOM_COUNT>
0

> <PUBCHEM_COMPONENT_COUNT>
1

> <PUBCHEM_CACTVS_TAUTO_COUNT>
1

> <PUBCHEM_CONFORMER_ID>
00A895E800000006

> <PUBCHEM_MMFF94_ENERGY>
120.8678

> <PUBCHEM_FEATURE_SELFOVERLAP>
55.924

> <PUBCHEM_SHAPE_FINGERPRINT>
10 15 18131068243147334818
10076449 9 11602543108923712334
10670039 82 11674868988030962414
11135926 11 18260259724960082239
11991303 11 12613051503740893712
12035758 1 17917997186849843594
12166972 35 17022907877796926548
12236239 1 17530972397087729437
12838862 33 18342451492502629013
13383668 251 16558167415654824307
13540713 4 17843411678942689172
13782708 43 17167867490634063187
13811026 1 18342738524391073623
14028597 1 18262236625686704744
14251764 18 18259705618797321998
14394314 77 18336264557193801304
14849402 71 18265336286616263948
15183329 4 18335711536993278101
15301273 46 17917999365400452926
16994733 274 14333129646028191234
18335252 114 12175619582439838442
18603816 31 17822291340347337443
19841028 212 17385995110951150658
2026 5 16226321526538122586
21130935 74 17845947216727701839
21150785 3 10519982669019098930
21792934 111 18129383704959489038
22224240 67 16702301252262596470
23522609 53 17898606195767916877
23559900 14 18412830196751384069
23569943 247 17023174977502033242
23576562 1 10879405323331177018
24771293 8 17917993871509975252
249057 25 17458922456639799652
3004659 81 18335436676851902484
3383291 50 18186523224080161842
350125 39 18341061773971036941
4093350 32 15554175783390844996
4340502 62 18343587313641247534
4616759 239 17989491809882066643
504579 68 9799691493909658074
5104073 3 18341341101247731185
5758199 1 15554446297420988494
59682541 35 18131067160689008602
6086070 43 17968921090240962429
9689198 14 13326851158890913530
9953998 17 17989202655392481874

> <PUBCHEM_SHAPE_MULTIPOLES>
646.81
22.59
2.08
1.66
33.19
0.02
-0.22
-3.63
13.03
-1.32
0.19
0.78
-0.26
-0.45

> <PUBCHEM_SHAPE_SELFOVERLAP>
1360.164

> <PUBCHEM_SHAPE_VOLUME>
363.2

> <PUBCHEM_COORDINATE_TYPE>
2
5
10

$$$$
