21632954
  -OEChem-09122004363D

 84 87  0     1  0  0  0  0  0999 V2000
   -0.3824   -3.4255   -0.7352 O   0  0  0  0  0  0  0  0  0  0  0  0
   -2.3453   -2.5510    1.5146 O   0  0  0  0  0  0  0  0  0  0  0  0
   -2.1569    2.9022   -0.3970 O   0  0  0  0  0  0  0  0  0  0  0  0
   -8.1663    0.9382   -1.0480 O   0  0  0  0  0  0  0  0  0  0  0  0
    5.3407    0.5584    0.9208 O   0  0  0  0  0  0  0  0  0  0  0  0
    8.9479    1.0030   -0.2999 O   0  0  0  0  0  0  0  0  0  0  0  0
    8.3378    0.7847    1.9140 O   0  0  0  0  0  0  0  0  0  0  0  0
   -0.8110   -0.9841   -0.5983 C   0  0  1  0  0  0  0  0  0  0  0  0
    0.1720    0.1618   -0.1971 C   0  0  1  0  0  0  0  0  0  0  0  0
    1.5130   -0.3458   -0.7856 C   0  0  2  0  0  0  0  0  0  0  0  0
    0.0229   -2.2084   -0.1310 C   0  0  2  0  0  0  0  0  0  0  0  0
   -2.1974   -0.6850   -0.0119 C   0  0  0  0  0  0  0  0  0  0  0  0
   -4.1807    0.8978    0.3661 C   0  0  2  0  0  0  0  0  0  0  0  0
    1.4797   -1.8673   -0.5190 C   0  0  0  0  0  0  0  0  0  0  0  0
   -2.7028    0.5808   -0.0244 C   0  0  0  0  0  0  0  0  0  0  0  0
   -0.3278    1.4667   -0.7968 C   0  0  0  0  0  0  0  0  0  0  0  0
   -5.0434   -0.4115    0.1602 C   0  0  1  0  0  0  0  0  0  0  0  0
   -3.0149   -1.8779    0.4499 C   0  0  2  0  0  0  0  0  0  0  0  0
    2.7860    0.3160   -0.2714 C   0  0  1  0  0  0  0  0  0  0  0  0
   -4.4220   -1.5616    0.9540 C   0  0  0  0  0  0  0  0  0  0  0  0
   -1.0638   -1.1270   -2.1363 C   0  0  0  0  0  0  0  0  0  0  0  0
    0.3107    0.3588    1.3473 C   0  0  0  0  0  0  0  0  0  0  0  0
   -1.7737    1.7321   -0.4043 C   0  0  0  0  0  0  0  0  0  0  0  0
   -6.5994   -0.3060    0.3298 C   0  0  0  0  0  0  0  0  0  0  0  0
   -4.8363    1.9800   -0.5391 C   0  0  0  0  0  0  0  0  0  0  0  0
   -4.1156    1.4097    1.8217 C   0  0  0  0  0  0  0  0  0  0  0  0
   -6.3175    2.2043   -0.2706 C   0  0  0  0  0  0  0  0  0  0  0  0
   -7.1056    0.9318   -0.4200 C   0  0  0  0  0  0  0  0  0  0  0  0
    4.0403   -0.2651   -0.9461 C   0  0  0  0  0  0  0  0  0  0  0  0
    2.7236    1.8278   -0.5130 C   0  0  0  0  0  0  0  0  0  0  0  0
   -7.2708   -1.5462   -0.3185 C   0  0  0  0  0  0  0  0  0  0  0  0
   -7.1001   -0.2295    1.7793 C   0  0  0  0  0  0  0  0  0  0  0  0
    5.3241   -0.0140   -0.1687 C   0  0  0  0  0  0  0  0  0  0  0  0
    6.6070   -0.5294   -0.7957 C   0  0  0  0  0  0  0  0  0  0  0  0
    7.6429   -0.8751    0.2755 C   0  0  1  0  0  0  0  0  0  0  0  0
    8.6939   -1.8400   -0.2726 C   0  0  0  0  0  0  0  0  0  0  0  0
    8.3287    0.3940    0.7537 C   0  0  0  0  0  0  0  0  0  0  0  0
    9.6625    2.2023    0.0137 C   0  0  0  0  0  0  0  0  0  0  0  0
    1.4965   -0.2019   -1.8752 H   0  0  0  0  0  0  0  0  0  0  0  0
   -0.0296   -2.3451    0.9534 H   0  0  0  0  0  0  0  0  0  0  0  0
    2.1430   -2.1578    0.3043 H   0  0  0  0  0  0  0  0  0  0  0  0
    1.8035   -2.4248   -1.4056 H   0  0  0  0  0  0  0  0  0  0  0  0
    0.2302    2.3296   -0.4296 H   0  0  0  0  0  0  0  0  0  0  0  0
   -0.2619    1.4814   -1.8896 H   0  0  0  0  0  0  0  0  0  0  0  0
   -4.9087   -0.6714   -0.9047 H   0  0  0  0  0  0  0  0  0  0  0  0
   -3.0953   -2.5792   -0.3897 H   0  0  0  0  0  0  0  0  0  0  0  0
    2.8785    0.1473    0.8082 H   0  0  0  0  0  0  0  0  0  0  0  0
   -4.4076   -1.3405    2.0277 H   0  0  0  0  0  0  0  0  0  0  0  0
   -5.0116   -2.4806    0.8704 H   0  0  0  0  0  0  0  0  0  0  0  0
   -0.1513   -1.3357   -2.7026 H   0  0  0  0  0  0  0  0  0  0  0  0
   -1.7534   -1.9549   -2.3436 H   0  0  0  0  0  0  0  0  0  0  0  0
   -1.5191   -0.2329   -2.5754 H   0  0  0  0  0  0  0  0  0  0  0  0
    0.8128   -0.4837    1.8335 H   0  0  0  0  0  0  0  0  0  0  0  0
    0.8826    1.2561    1.5993 H   0  0  0  0  0  0  0  0  0  0  0  0
   -0.6573    0.4716    1.8451 H   0  0  0  0  0  0  0  0  0  0  0  0
   -4.6989    1.7039   -1.5934 H   0  0  0  0  0  0  0  0  0  0  0  0
   -4.3667    2.9573   -0.4037 H   0  0  0  0  0  0  0  0  0  0  0  0
   -3.4831    2.3032    1.8951 H   0  0  0  0  0  0  0  0  0  0  0  0
   -3.6872    0.6696    2.5053 H   0  0  0  0  0  0  0  0  0  0  0  0
   -5.0861    1.7029    2.2181 H   0  0  0  0  0  0  0  0  0  0  0  0
   -6.7023    2.9346   -0.9921 H   0  0  0  0  0  0  0  0  0  0  0  0
   -6.4964    2.6149    0.7273 H   0  0  0  0  0  0  0  0  0  0  0  0
    4.1613    0.1512   -1.9531 H   0  0  0  0  0  0  0  0  0  0  0  0
    3.9626   -1.3530   -1.0418 H   0  0  0  0  0  0  0  0  0  0  0  0
    0.2359   -4.1168   -0.4429 H   0  0  0  0  0  0  0  0  0  0  0  0
    2.1463    2.3477    0.2523 H   0  0  0  0  0  0  0  0  0  0  0  0
    3.7246    2.2717   -0.4557 H   0  0  0  0  0  0  0  0  0  0  0  0
    2.3343    2.0713   -1.5069 H   0  0  0  0  0  0  0  0  0  0  0  0
   -7.0287   -2.4723    0.2109 H   0  0  0  0  0  0  0  0  0  0  0  0
   -8.3644   -1.4607   -0.3121 H   0  0  0  0  0  0  0  0  0  0  0  0
   -6.9658   -1.6605   -1.3651 H   0  0  0  0  0  0  0  0  0  0  0  0
   -6.7251   -1.0590    2.3863 H   0  0  0  0  0  0  0  0  0  0  0  0
   -6.8376    0.7054    2.2739 H   0  0  0  0  0  0  0  0  0  0  0  0
   -8.1961   -0.2778    1.8106 H   0  0  0  0  0  0  0  0  0  0  0  0
   -2.8453   -3.3615    1.7114 H   0  0  0  0  0  0  0  0  0  0  0  0
    6.3510   -1.4395   -1.3515 H   0  0  0  0  0  0  0  0  0  0  0  0
    6.9542    0.2159   -1.5184 H   0  0  0  0  0  0  0  0  0  0  0  0
    7.1629   -1.3427    1.1443 H   0  0  0  0  0  0  0  0  0  0  0  0
    9.1669   -1.4546   -1.1825 H   0  0  0  0  0  0  0  0  0  0  0  0
    9.4858   -2.0127    0.4645 H   0  0  0  0  0  0  0  0  0  0  0  0
    8.2406   -2.8072   -0.5141 H   0  0  0  0  0  0  0  0  0  0  0  0
   10.1065    2.5846   -0.9093 H   0  0  0  0  0  0  0  0  0  0  0  0
   10.4642    1.9899    0.7273 H   0  0  0  0  0  0  0  0  0  0  0  0
    8.9785    2.9570    0.4131 H   0  0  0  0  0  0  0  0  0  0  0  0
  1 11  1  0  0  0  0
  1 65  1  0  0  0  0
  2 18  1  0  0  0  0
  2 75  1  0  0  0  0
  3 23  2  0  0  0  0
  4 28  2  0  0  0  0
  5 33  2  0  0  0  0
  6 37  1  0  0  0  0
  6 38  1  0  0  0  0
  7 37  2  0  0  0  0
  8  9  1  0  0  0  0
  8 11  1  0  0  0  0
  8 12  1  0  0  0  0
  8 21  1  0  0  0  0
  9 10  1  0  0  0  0
  9 16  1  0  0  0  0
  9 22  1  0  0  0  0
 10 14  1  0  0  0  0
 10 19  1  0  0  0  0
 10 39  1  0  0  0  0
 11 14  1  0  0  0  0
 11 40  1  0  0  0  0
 12 15  2  0  0  0  0
 12 18  1  0  0  0  0
 13 15  1  0  0  0  0
 13 17  1  0  0  0  0
 13 25  1  0  0  0  0
 13 26  1  0  0  0  0
 14 41  1  0  0  0  0
 14 42  1  0  0  0  0
 15 23  1  0  0  0  0
 16 23  1  0  0  0  0
 16 43  1  0  0  0  0
 16 44  1  0  0  0  0
 17 20  1  0  0  0  0
 17 24  1  0  0  0  0
 17 45  1  0  0  0  0
 18 20  1  0  0  0  0
 18 46  1  0  0  0  0
 19 29  1  0  0  0  0
 19 30  1  0  0  0  0
 19 47  1  0  0  0  0
 20 48  1  0  0  0  0
 20 49  1  0  0  0  0
 21 50  1  0  0  0  0
 21 51  1  0  0  0  0
 21 52  1  0  0  0  0
 22 53  1  0  0  0  0
 22 54  1  0  0  0  0
 22 55  1  0  0  0  0
 24 28  1  0  0  0  0
 24 31  1  0  0  0  0
 24 32  1  0  0  0  0
 25 27  1  0  0  0  0
 25 56  1  0  0  0  0
 25 57  1  0  0  0  0
 26 58  1  0  0  0  0
 26 59  1  0  0  0  0
 26 60  1  0  0  0  0
 27 28  1  0  0  0  0
 27 61  1  0  0  0  0
 27 62  1  0  0  0  0
 29 33  1  0  0  0  0
 29 63  1  0  0  0  0
 29 64  1  0  0  0  0
 30 66  1  0  0  0  0
 30 67  1  0  0  0  0
 30 68  1  0  0  0  0
 31 69  1  0  0  0  0
 31 70  1  0  0  0  0
 31 71  1  0  0  0  0
 32 72  1  0  0  0  0
 32 73  1  0  0  0  0
 32 74  1  0  0  0  0
 33 34  1  0  0  0  0
 34 35  1  0  0  0  0
 34 76  1  0  0  0  0
 34 77  1  0  0  0  0
 35 36  1  0  0  0  0
 35 37  1  0  0  0  0
 35 78  1  0  0  0  0
 36 79  1  0  0  0  0
 36 80  1  0  0  0  0
 36 81  1  0  0  0  0
 38 82  1  0  0  0  0
 38 83  1  0  0  0  0
 38 84  1  0  0  0  0
M  END
> <PUBCHEM_COMPOUND_CID>
21632954

> <PUBCHEM_CONFORMER_RMSD>
1

> <PUBCHEM_CONFORMER_DIVERSEORDER>
5
48
49
52
9
16
25
50
32
24
7
15
63
23
46
6
37
33
29
13
18
75
53
70
55
27
57
42
19
77
41
38
58
43
62
40
39
76
4
12
56
67
22
51
47
61
30
59
8
72
11
79
35
26
73
10
20
28
45
17
78
34
60
74
54
14
36
21
64
44
65
66
2
68
1
69
71
3
31

> <PUBCHEM_MMFF94_PARTIAL_CHARGES>
26
1 -0.68
11 0.28
12 -0.28
13 0.14
15 -0.12
16 0.06
18 0.42
2 -0.68
23 0.49
24 0.06
27 0.06
28 0.45
29 0.06
3 -0.57
33 0.45
34 0.06
35 0.06
37 0.66
38 0.28
4 -0.57
5 -0.57
6 -0.43
65 0.4
7 -0.57
75 0.4
8 0.14

> <PUBCHEM_EFFECTIVE_ROTOR_COUNT>
8.8

> <PUBCHEM_PHARMACOPHORE_FEATURES>
15
1 1 acceptor
1 1 donor
1 2 acceptor
1 2 donor
1 3 acceptor
1 30 hydrophobe
1 36 hydrophobe
1 4 acceptor
1 5 acceptor
1 7 acceptor
3 24 31 32 hydrophobe
5 8 9 10 11 14 rings
6 12 13 15 17 18 20 rings
6 13 17 24 25 27 28 rings
6 8 9 12 15 16 23 rings

> <PUBCHEM_HEAVY_ATOM_COUNT>
38

> <PUBCHEM_ATOM_DEF_STEREO_COUNT>
8

> <PUBCHEM_ATOM_UDEF_STEREO_COUNT>
1

> <PUBCHEM_BOND_DEF_STEREO_COUNT>
0

> <PUBCHEM_BOND_UDEF_STEREO_COUNT>
0

> <PUBCHEM_ISOTOPIC_ATOM_COUNT>
0

> <PUBCHEM_COMPONENT_COUNT>
1

> <PUBCHEM_CACTVS_TAUTO_COUNT>
12

> <PUBCHEM_CONFORMER_ID>
014A17BA00000005

> <PUBCHEM_MMFF94_ENERGY>
138.4867

> <PUBCHEM_FEATURE_SELFOVERLAP>
76.216

> <PUBCHEM_SHAPE_FINGERPRINT>
10 15 18342455955062787612
10050765 1 18121502616318286844
10076449 9 17704071819883904091
10369192 42 16917069940637097749
11135926 11 18335416847072669415
11136131 41 18116711812012594595
11315181 36 18202285801506245641
12133447 93 18269287776761184916
12236239 1 16877667876962809247
12838862 33 18337941333805712725
13811026 1 18341615893492523966
14251764 18 18333452049842247460
14856354 85 18040442108923431386
15021287 119 17530970206854836332
15198563 99 8934733192445796978
15289351 153 18129659691532764402
15461852 350 17489584597337386916
15510794 2 18342177748846625638
15849732 13 18408604756132654076
18608769 82 18411980269530179230
18681886 176 18410852187795995401
19315958 150 18343586244737794150
19611394 137 17823997799699277683
20721686 56 18262807267710950307
21033648 29 17560220536785870282
23559900 14 18411698799492208945
23569917 315 18341058475120428815
24771293 8 18272939305957537373
249057 3 18261112988885053404
25019877 29 18202568371156350814
335352 9 18408604772726921988
3383291 50 18410576205771551331
4073 2 18259990392683969282
44280117 145 17988077902875300207
5470011 282 10303807697279206962
57527295 17 17773301359153482273
57527452 28 16081094796683874163
6081469 158 9943812179812619874
6691757 9 16343709871359397359

> <PUBCHEM_SHAPE_MULTIPOLES>
740.94
27.08
2.6
1.31
49.95
0.41
-0.27
-6.89
-4.52
-0.87
0.22
-0.49
0.07
1.14

> <PUBCHEM_SHAPE_SELFOVERLAP>
1566.987

> <PUBCHEM_SHAPE_VOLUME>
412.2

> <PUBCHEM_COORDINATE_TYPE>
2
5
10

$$$$
