54754513
  -OEChem-09122004523D

 97100  0     1  0  0  0  0  0999 V2000
    1.1303    0.5943   -2.2196 O   0  0  0  0  0  0  0  0  0  0  0  0
   -0.2018   -4.0176    1.2041 O   0  0  0  0  0  0  0  0  0  0  0  0
   -7.4659    1.8226    0.4540 O   0  0  0  0  0  0  0  0  0  0  0  0
   -1.2585    1.6105   -1.7223 O   0  0  0  0  0  0  0  0  0  0  0  0
   -2.6689   -3.3602    1.2236 O   0  0  0  0  0  0  0  0  0  0  0  0
    5.3339   -0.0271   -0.9146 O   0  0  0  0  0  0  0  0  0  0  0  0
    0.2249    0.8600   -4.3283 O   0  0  0  0  0  0  0  0  0  0  0  0
    3.5853    1.7313    1.5659 O   0  0  0  0  0  0  0  0  0  0  0  0
    5.3806    2.2334    2.9241 O   0  0  0  0  0  0  0  0  0  0  0  0
    0.5896   -1.3192   -0.8244 C   0  0  1  0  0  0  0  0  0  0  0  0
   -0.6111   -2.2840   -0.5108 C   0  0  2  0  0  0  0  0  0  0  0  0
   -3.2677    0.6277    0.1674 C   0  0  1  0  0  0  0  0  0  0  0  0
    1.7130   -2.2953   -1.2781 C   0  0  2  0  0  0  0  0  0  0  0  0
   -4.3489   -0.3577    0.7504 C   0  0  2  0  0  0  0  0  0  0  0  0
   -1.7714   -1.4813    0.0480 C   0  0  0  0  0  0  0  0  0  0  0  0
   -2.0598   -0.2140   -0.3597 C   0  0  0  0  0  0  0  0  0  0  0  0
    0.1081   -0.3299   -1.8828 C   0  0  1  0  0  0  0  0  0  0  0  0
   -5.7211    0.2524    1.2168 C   0  0  0  0  0  0  0  0  0  0  0  0
    1.6245   -3.4363   -0.2467 C   0  0  0  0  0  0  0  0  0  0  0  0
    0.2028   -3.3219    0.2832 C   0  0  0  0  0  0  0  0  0  0  0  0
   -3.9806    1.4553   -0.9419 C   0  0  0  0  0  0  0  0  0  0  0  0
   -3.6974   -1.2979    1.7610 C   0  0  0  0  0  0  0  0  0  0  0  0
   -1.0978    0.4474   -1.3522 C   0  0  0  0  0  0  0  0  0  0  0  0
    3.1325   -1.7438   -1.3751 C   0  0  1  0  0  0  0  0  0  0  0  0
   -6.2840    1.1260    0.0618 C   0  0  2  0  0  0  0  0  0  0  0  0
    1.0837   -0.5269    0.4399 C   0  0  0  0  0  0  0  0  0  0  0  0
   -2.6977   -2.1476    1.0236 C   0  0  0  0  0  0  0  0  0  0  0  0
   -1.1861   -3.0766   -1.7176 C   0  0  0  0  0  0  0  0  0  0  0  0
   -5.2767    2.1255   -0.4887 C   0  0  0  0  0  0  0  0  0  0  0  0
   -2.6591    1.5944    1.2108 C   0  0  0  0  0  0  0  0  0  0  0  0
   -6.7479   -0.8917    1.4575 C   0  0  0  0  0  0  0  0  0  0  0  0
   -5.6422    1.0313    2.5455 C   0  0  0  0  0  0  0  0  0  0  0  0
    3.8011   -1.6567    0.0067 C   0  0  0  0  0  0  0  0  0  0  0  0
    3.9724   -2.6275   -2.3022 C   0  0  0  0  0  0  0  0  0  0  0  0
    4.9836   -0.7002    0.0544 C   0  0  0  0  0  0  0  0  0  0  0  0
    1.0709    1.1183   -3.4827 C   0  0  0  0  0  0  0  0  0  0  0  0
    5.7135   -0.5915    1.3812 C   0  0  0  0  0  0  0  0  0  0  0  0
    2.2068    2.0723   -3.6961 C   0  0  0  0  0  0  0  0  0  0  0  0
    4.7802   -0.0837    2.4821 C   0  0  1  0  0  0  0  0  0  0  0  0
    5.3197   -0.4465    3.8653 C   0  0  0  0  0  0  0  0  0  0  0  0
    4.6397    1.4261    2.3783 C   0  0  0  0  0  0  0  0  0  0  0  0
    3.3534    3.1276    1.3547 C   0  0  0  0  0  0  0  0  0  0  0  0
    2.1527    3.2929    0.4339 C   0  0  0  0  0  0  0  0  0  0  0  0
    1.8571    4.7632    0.1519 C   0  0  0  0  0  0  0  0  0  0  0  0
    0.6842    4.9227   -0.8022 C   0  0  0  0  0  0  0  0  0  0  0  0
    1.4413   -2.6815   -2.2688 H   0  0  0  0  0  0  0  0  0  0  0  0
   -4.6286   -0.9965   -0.1072 H   0  0  0  0  0  0  0  0  0  0  0  0
   -0.2092   -0.8688   -2.7822 H   0  0  0  0  0  0  0  0  0  0  0  0
    2.2798   -3.3861    0.6215 H   0  0  0  0  0  0  0  0  0  0  0  0
    1.7507   -4.4068   -0.7365 H   0  0  0  0  0  0  0  0  0  0  0  0
   -4.1952    0.8078   -1.8025 H   0  0  0  0  0  0  0  0  0  0  0  0
   -3.3450    2.2653   -1.3095 H   0  0  0  0  0  0  0  0  0  0  0  0
   -4.4301   -1.9820    2.1982 H   0  0  0  0  0  0  0  0  0  0  0  0
   -3.1995   -0.7869    2.5887 H   0  0  0  0  0  0  0  0  0  0  0  0
    3.1053   -0.7515   -1.8340 H   0  0  0  0  0  0  0  0  0  0  0  0
   -6.5793    0.4626   -0.7627 H   0  0  0  0  0  0  0  0  0  0  0  0
    1.9332    0.1193    0.2086 H   0  0  0  0  0  0  0  0  0  0  0  0
    0.3189    0.1654    0.8082 H   0  0  0  0  0  0  0  0  0  0  0  0
    1.2854   -1.1708    1.3002 H   0  0  0  0  0  0  0  0  0  0  0  0
   -0.4323   -3.6583   -2.2564 H   0  0  0  0  0  0  0  0  0  0  0  0
   -1.6912   -2.4322   -2.4452 H   0  0  0  0  0  0  0  0  0  0  0  0
   -1.9300   -3.8074   -1.3746 H   0  0  0  0  0  0  0  0  0  0  0  0
   -5.0754    2.9110    0.2483 H   0  0  0  0  0  0  0  0  0  0  0  0
   -5.7223    2.6530   -1.3423 H   0  0  0  0  0  0  0  0  0  0  0  0
   -3.3781    2.3113    1.6028 H   0  0  0  0  0  0  0  0  0  0  0  0
   -1.8576    2.2001    0.7702 H   0  0  0  0  0  0  0  0  0  0  0  0
   -2.2155    1.0673    2.0611 H   0  0  0  0  0  0  0  0  0  0  0  0
   -6.6448    1.2176    2.9500 H   0  0  0  0  0  0  0  0  0  0  0  0
   -5.1816    2.0127    2.4361 H   0  0  0  0  0  0  0  0  0  0  0  0
   -5.0916    0.4761    3.3109 H   0  0  0  0  0  0  0  0  0  0  0  0
   -7.7571   -0.4955    1.6197 H   0  0  0  0  0  0  0  0  0  0  0  0
   -6.5005   -1.4864    2.3424 H   0  0  0  0  0  0  0  0  0  0  0  0
   -6.7973   -1.5693    0.5978 H   0  0  0  0  0  0  0  0  0  0  0  0
    3.1516   -1.4124    0.8251 H   0  0  0  0  0  0  0  0  0  0  0  0
    4.2380   -2.6354    0.2525 H   0  0  0  0  0  0  0  0  0  0  0  0
    4.0325   -3.6575   -1.9343 H   0  0  0  0  0  0  0  0  0  0  0  0
    4.9942   -2.2471   -2.3996 H   0  0  0  0  0  0  0  0  0  0  0  0
    3.5393   -2.6554   -3.3081 H   0  0  0  0  0  0  0  0  0  0  0  0
   -7.7925    2.3101   -0.3214 H   0  0  0  0  0  0  0  0  0  0  0  0
    6.0999   -1.5899    1.6168 H   0  0  0  0  0  0  0  0  0  0  0  0
    6.5774    0.0710    1.2514 H   0  0  0  0  0  0  0  0  0  0  0  0
    2.1347    2.9041   -2.9941 H   0  0  0  0  0  0  0  0  0  0  0  0
    2.1598    2.4698   -4.7140 H   0  0  0  0  0  0  0  0  0  0  0  0
    3.1574    1.5473   -3.5720 H   0  0  0  0  0  0  0  0  0  0  0  0
    3.7758   -0.5104    2.4438 H   0  0  0  0  0  0  0  0  0  0  0  0
    5.3428   -1.5331    3.9994 H   0  0  0  0  0  0  0  0  0  0  0  0
    4.6903   -0.0212    4.6549 H   0  0  0  0  0  0  0  0  0  0  0  0
    6.3365   -0.0653    4.0121 H   0  0  0  0  0  0  0  0  0  0  0  0
    3.1587    3.6120    2.3186 H   0  0  0  0  0  0  0  0  0  0  0  0
    4.2435    3.5753    0.8974 H   0  0  0  0  0  0  0  0  0  0  0  0
    1.2773    2.8083    0.8841 H   0  0  0  0  0  0  0  0  0  0  0  0
    2.3422    2.7557   -0.5030 H   0  0  0  0  0  0  0  0  0  0  0  0
    2.7404    5.2449   -0.2833 H   0  0  0  0  0  0  0  0  0  0  0  0
    1.6325    5.2835    1.0902 H   0  0  0  0  0  0  0  0  0  0  0  0
   -0.2213    4.4659   -0.3896 H   0  0  0  0  0  0  0  0  0  0  0  0
    0.4798    5.9838   -0.9762 H   0  0  0  0  0  0  0  0  0  0  0  0
    0.8927    4.4563   -1.7687 H   0  0  0  0  0  0  0  0  0  0  0  0
  1 17  1  0  0  0  0
  1 36  1  0  0  0  0
  2 20  2  0  0  0  0
  3 25  1  0  0  0  0
  3 79  1  0  0  0  0
  4 23  2  0  0  0  0
  5 27  2  0  0  0  0
  6 35  2  0  0  0  0
  7 36  2  0  0  0  0
  8 41  1  0  0  0  0
  8 42  1  0  0  0  0
  9 41  2  0  0  0  0
 10 11  1  0  0  0  0
 10 13  1  0  0  0  0
 10 17  1  0  0  0  0
 10 26  1  0  0  0  0
 11 15  1  0  0  0  0
 11 20  1  0  0  0  0
 11 28  1  0  0  0  0
 12 14  1  0  0  0  0
 12 16  1  0  0  0  0
 12 21  1  0  0  0  0
 12 30  1  0  0  0  0
 13 19  1  0  0  0  0
 13 24  1  0  0  0  0
 13 46  1  0  0  0  0
 14 18  1  0  0  0  0
 14 22  1  0  0  0  0
 14 47  1  0  0  0  0
 15 16  2  0  0  0  0
 15 27  1  0  0  0  0
 16 23  1  0  0  0  0
 17 23  1  0  0  0  0
 17 48  1  0  0  0  0
 18 25  1  0  0  0  0
 18 31  1  0  0  0  0
 18 32  1  0  0  0  0
 19 20  1  0  0  0  0
 19 49  1  0  0  0  0
 19 50  1  0  0  0  0
 21 29  1  0  0  0  0
 21 51  1  0  0  0  0
 21 52  1  0  0  0  0
 22 27  1  0  0  0  0
 22 53  1  0  0  0  0
 22 54  1  0  0  0  0
 24 33  1  0  0  0  0
 24 34  1  0  0  0  0
 24 55  1  0  0  0  0
 25 29  1  0  0  0  0
 25 56  1  0  0  0  0
 26 57  1  0  0  0  0
 26 58  1  0  0  0  0
 26 59  1  0  0  0  0
 28 60  1  0  0  0  0
 28 61  1  0  0  0  0
 28 62  1  0  0  0  0
 29 63  1  0  0  0  0
 29 64  1  0  0  0  0
 30 65  1  0  0  0  0
 30 66  1  0  0  0  0
 30 67  1  0  0  0  0
 31 71  1  0  0  0  0
 31 72  1  0  0  0  0
 31 73  1  0  0  0  0
 32 68  1  0  0  0  0
 32 69  1  0  0  0  0
 32 70  1  0  0  0  0
 33 35  1  0  0  0  0
 33 74  1  0  0  0  0
 33 75  1  0  0  0  0
 34 76  1  0  0  0  0
 34 77  1  0  0  0  0
 34 78  1  0  0  0  0
 35 37  1  0  0  0  0
 36 38  1  0  0  0  0
 37 39  1  0  0  0  0
 37 80  1  0  0  0  0
 37 81  1  0  0  0  0
 38 82  1  0  0  0  0
 38 83  1  0  0  0  0
 38 84  1  0  0  0  0
 39 40  1  0  0  0  0
 39 41  1  0  0  0  0
 39 85  1  0  0  0  0
 40 86  1  0  0  0  0
 40 87  1  0  0  0  0
 40 88  1  0  0  0  0
 42 43  1  0  0  0  0
 42 89  1  0  0  0  0
 42 90  1  0  0  0  0
 43 44  1  0  0  0  0
 43 91  1  0  0  0  0
 43 92  1  0  0  0  0
 44 45  1  0  0  0  0
 44 93  1  0  0  0  0
 44 94  1  0  0  0  0
 45 95  1  0  0  0  0
 45 96  1  0  0  0  0
 45 97  1  0  0  0  0
M  END
> <PUBCHEM_COMPOUND_CID>
54754513

> <PUBCHEM_CONFORMER_RMSD>
1.2

> <PUBCHEM_CONFORMER_DIVERSEORDER>
1
27
31
28
18
14
2
19
22
17
29
9
26
23
15
24
21
30
11
7
16
3
25
8
10
4
6
20
13
5
12

> <PUBCHEM_MMFF94_PARTIAL_CHARGES>
29
1 -0.43
11 0.2
12 0.14
15 -0.12
16 -0.12
17 0.34
19 0.06
2 -0.57
20 0.45
22 0.06
23 0.49
25 0.28
27 0.49
3 -0.68
33 0.06
35 0.45
36 0.66
37 0.06
38 0.06
39 0.06
4 -0.57
41 0.66
42 0.28
5 -0.57
6 -0.57
7 -0.57
79 0.4
8 -0.43
9 -0.57

> <PUBCHEM_EFFECTIVE_ROTOR_COUNT>
13.6

> <PUBCHEM_PHARMACOPHORE_FEATURES>
16
1 2 acceptor
1 3 acceptor
1 3 donor
1 34 hydrophobe
1 4 acceptor
1 40 hydrophobe
1 45 hydrophobe
1 5 acceptor
1 6 acceptor
1 7 acceptor
1 9 acceptor
3 18 31 32 hydrophobe
5 10 11 13 19 20 rings
6 10 11 15 16 17 23 rings
6 12 14 15 16 22 27 rings
6 12 14 18 21 25 29 rings

> <PUBCHEM_HEAVY_ATOM_COUNT>
45

> <PUBCHEM_ATOM_DEF_STEREO_COUNT>
8

> <PUBCHEM_ATOM_UDEF_STEREO_COUNT>
1

> <PUBCHEM_BOND_DEF_STEREO_COUNT>
0

> <PUBCHEM_BOND_UDEF_STEREO_COUNT>
0

> <PUBCHEM_ISOTOPIC_ATOM_COUNT>
0

> <PUBCHEM_COMPONENT_COUNT>
1

> <PUBCHEM_CACTVS_TAUTO_COUNT>
60

> <PUBCHEM_CONFORMER_ID>
03437CD100000001

> <PUBCHEM_MMFF94_ENERGY>
146.4282

> <PUBCHEM_FEATURE_SELFOVERLAP>
81.306

> <PUBCHEM_SHAPE_FINGERPRINT>
10721379 63 14332311613482078757
11578080 2 17988926712017838803
12107698 1 17202206213811421442
12422481 6 18113612378573785159
12633257 1 18337091454841978226
13383668 262 15650459118849861715
13383668 362 18335713775231045195
13811026 1 18408599293493519995
14705955 166 18116703024640758752
15160629 35 18339928229059726932
15274700 34 18120364617742467363
15475509 35 15141546747181440795
15815584 197 18270677563342197589
19309040 13 17488168495798193232
20764821 26 18269284610779105385
21033648 29 18410290306893798474
22121540 332 18122333593236537925
22122407 14 17346328071976899875
23559900 14 18115041710274381727
3493558 16 18058155284327859868
354706 35 8718259222129874504
392239 28 18342174445019704035

> <PUBCHEM_SHAPE_MULTIPOLES>
873.26
13.83
4.98
3.49
11.49
2.4
1.33
4.39
-11.19
-2.77
0.37
-4.28
1.2
2.01

> <PUBCHEM_SHAPE_SELFOVERLAP>
1835.234

> <PUBCHEM_SHAPE_VOLUME>
486

> <PUBCHEM_COORDINATE_TYPE>
2
5
10

$$$$
