23247894
  -OEChem-09112013433D

 77 80  0     1  0  0  0  0  0999 V2000
    0.1094    3.3697    1.0432 O   0  0  0  0  0  0  0  0  0  0  0  0
    1.7062   -2.1766   -1.8750 O   0  0  0  0  0  0  0  0  0  0  0  0
    2.6528    3.0023    0.8108 O   0  0  0  0  0  0  0  0  0  0  0  0
    7.2209   -2.3798    0.5123 O   0  0  0  0  0  0  0  0  0  0  0  0
   -6.4513    0.2223   -1.8911 O   0  0  0  0  0  0  0  0  0  0  0  0
   -8.8814   -0.6841    2.3299 O   0  0  0  0  0  0  0  0  0  0  0  0
   -7.0608   -2.0253    2.5248 O   0  0  0  0  0  0  0  0  0  0  0  0
   -0.5287    0.3643   -0.5783 C   0  0  1  0  0  0  0  0  0  0  0  0
    0.5272    1.5224   -0.5435 C   0  0  2  0  0  0  0  0  0  0  0  0
   -1.8495    1.1061   -0.9114 C   0  0  2  0  0  0  0  0  0  0  0  0
    3.6572   -0.9053   -0.1177 C   0  0  1  0  0  0  0  0  0  0  0  0
    1.8568    0.9484   -0.1070 C   0  0  0  0  0  0  0  0  0  0  0  0
    4.6196    0.1913    0.4622 C   0  0  2  0  0  0  0  0  0  0  0  0
    2.2856   -0.2803   -0.4996 C   0  0  0  0  0  0  0  0  0  0  0  0
   -0.0886   -0.6536   -1.6205 C   0  0  0  0  0  0  0  0  0  0  0  0
   -1.8048    2.3327    0.0166 C   0  0  0  0  0  0  0  0  0  0  0  0
   -0.3160    2.5083    0.2860 C   0  0  0  0  0  0  0  0  0  0  0  0
    5.9996   -0.3345    0.9833 C   0  0  0  0  0  0  0  0  0  0  0  0
   -3.1393    0.3088   -0.7537 C   0  0  1  0  0  0  0  0  0  0  0  0
   -0.6777   -0.3787    0.7952 C   0  0  0  0  0  0  0  0  0  0  0  0
    3.8871    1.0818    1.4601 C   0  0  0  0  0  0  0  0  0  0  0  0
    1.3393   -1.1175   -1.3636 C   0  0  0  0  0  0  0  0  0  0  0  0
    4.3814   -1.5358   -1.3508 C   0  0  0  0  0  0  0  0  0  0  0  0
    0.7853    2.2538   -1.8877 C   0  0  0  0  0  0  0  0  0  0  0  0
    2.7781    1.7832    0.7247 C   0  0  0  0  0  0  0  0  0  0  0  0
    3.3483   -2.0257    0.9060 C   0  0  0  0  0  0  0  0  0  0  0  0
    5.9087   -1.5452   -1.2978 C   0  0  0  0  0  0  0  0  0  0  0  0
    6.4315   -1.5221    0.1172 C   0  0  0  0  0  0  0  0  0  0  0  0
   -4.3735    1.1615   -1.0910 C   0  0  0  0  0  0  0  0  0  0  0  0
    7.0767    0.7568    0.8002 C   0  0  0  0  0  0  0  0  0  0  0  0
    6.0029   -0.7385    2.4693 C   0  0  0  0  0  0  0  0  0  0  0  0
   -3.1035   -0.9306   -1.6532 C   0  0  0  0  0  0  0  0  0  0  0  0
   -5.6847    0.4036   -0.9454 C   0  0  0  0  0  0  0  0  0  0  0  0
   -6.0300   -0.1031    0.4411 C   0  0  0  0  0  0  0  0  0  0  0  0
   -7.4017   -0.7822    0.4570 C   0  0  1  0  0  0  0  0  0  0  0  0
   -7.4516   -1.9578   -0.5193 C   0  0  0  0  0  0  0  0  0  0  0  0
   -7.7314   -1.2406    1.8670 C   0  0  0  0  0  0  0  0  0  0  0  0
   -1.8099    1.4593   -1.9510 H   0  0  0  0  0  0  0  0  0  0  0  0
    4.8511    0.8439   -0.3980 H   0  0  0  0  0  0  0  0  0  0  0  0
   -0.6770   -1.5699   -1.5842 H   0  0  0  0  0  0  0  0  0  0  0  0
   -0.1412   -0.2577   -2.6398 H   0  0  0  0  0  0  0  0  0  0  0  0
   -2.2009    3.2236   -0.4782 H   0  0  0  0  0  0  0  0  0  0  0  0
   -2.3178    2.1640    0.9681 H   0  0  0  0  0  0  0  0  0  0  0  0
   -3.2460   -0.0258    0.2837 H   0  0  0  0  0  0  0  0  0  0  0  0
   -1.0458    0.2784    1.5894 H   0  0  0  0  0  0  0  0  0  0  0  0
    0.2631   -0.8007    1.1596 H   0  0  0  0  0  0  0  0  0  0  0  0
   -1.3719   -1.2219    0.7223 H   0  0  0  0  0  0  0  0  0  0  0  0
    3.4626    0.5358    2.3078 H   0  0  0  0  0  0  0  0  0  0  0  0
    4.5591    1.8492    1.8597 H   0  0  0  0  0  0  0  0  0  0  0  0
    4.0552   -2.5757   -1.4814 H   0  0  0  0  0  0  0  0  0  0  0  0
    4.0933   -1.0111   -2.2716 H   0  0  0  0  0  0  0  0  0  0  0  0
   -0.1128    2.7186   -2.3065 H   0  0  0  0  0  0  0  0  0  0  0  0
    1.2034    1.5919   -2.6536 H   0  0  0  0  0  0  0  0  0  0  0  0
    1.5029    3.0724   -1.7460 H   0  0  0  0  0  0  0  0  0  0  0  0
    2.5955   -2.7269    0.5272 H   0  0  0  0  0  0  0  0  0  0  0  0
    4.2274   -2.6345    1.1329 H   0  0  0  0  0  0  0  0  0  0  0  0
    2.9573   -1.6243    1.8466 H   0  0  0  0  0  0  0  0  0  0  0  0
    6.2959   -2.4302   -1.8148 H   0  0  0  0  0  0  0  0  0  0  0  0
    6.3159   -0.6718   -1.8200 H   0  0  0  0  0  0  0  0  0  0  0  0
   -4.4415    2.0428   -0.4440 H   0  0  0  0  0  0  0  0  0  0  0  0
   -4.3108    1.5267   -2.1236 H   0  0  0  0  0  0  0  0  0  0  0  0
    7.1591    1.0708   -0.2466 H   0  0  0  0  0  0  0  0  0  0  0  0
    8.0657    0.3894    1.0990 H   0  0  0  0  0  0  0  0  0  0  0  0
    6.8562    1.6455    1.4005 H   0  0  0  0  0  0  0  0  0  0  0  0
    5.7868    0.1143    3.1216 H   0  0  0  0  0  0  0  0  0  0  0  0
    6.9841   -1.1248    2.7712 H   0  0  0  0  0  0  0  0  0  0  0  0
    5.2785   -1.5233    2.6948 H   0  0  0  0  0  0  0  0  0  0  0  0
   -2.5848   -1.7584   -1.1665 H   0  0  0  0  0  0  0  0  0  0  0  0
   -2.6610   -0.7231   -2.6325 H   0  0  0  0  0  0  0  0  0  0  0  0
   -4.1054   -1.3276   -1.8468 H   0  0  0  0  0  0  0  0  0  0  0  0
   -6.0252    0.7479    1.1316 H   0  0  0  0  0  0  0  0  0  0  0  0
   -5.2611   -0.8111    0.7667 H   0  0  0  0  0  0  0  0  0  0  0  0
   -8.1687   -0.0570    0.1538 H   0  0  0  0  0  0  0  0  0  0  0  0
   -6.5043   -2.5079   -0.5410 H   0  0  0  0  0  0  0  0  0  0  0  0
   -8.2270   -2.6723   -0.2171 H   0  0  0  0  0  0  0  0  0  0  0  0
   -7.7044   -1.6565   -1.5387 H   0  0  0  0  0  0  0  0  0  0  0  0
   -9.0934   -0.9862    3.2387 H   0  0  0  0  0  0  0  0  0  0  0  0
  1 17  2  0  0  0  0
  2 22  2  0  0  0  0
  3 25  2  0  0  0  0
  4 28  2  0  0  0  0
  5 33  2  0  0  0  0
  6 37  1  0  0  0  0
  6 77  1  0  0  0  0
  7 37  2  0  0  0  0
  8  9  1  0  0  0  0
  8 10  1  0  0  0  0
  8 15  1  0  0  0  0
  8 20  1  0  0  0  0
  9 12  1  0  0  0  0
  9 17  1  0  0  0  0
  9 24  1  0  0  0  0
 10 16  1  0  0  0  0
 10 19  1  0  0  0  0
 10 38  1  0  0  0  0
 11 13  1  0  0  0  0
 11 14  1  0  0  0  0
 11 23  1  0  0  0  0
 11 26  1  0  0  0  0
 12 14  2  0  0  0  0
 12 25  1  0  0  0  0
 13 18  1  0  0  0  0
 13 21  1  0  0  0  0
 13 39  1  0  0  0  0
 14 22  1  0  0  0  0
 15 22  1  0  0  0  0
 15 40  1  0  0  0  0
 15 41  1  0  0  0  0
 16 17  1  0  0  0  0
 16 42  1  0  0  0  0
 16 43  1  0  0  0  0
 18 28  1  0  0  0  0
 18 30  1  0  0  0  0
 18 31  1  0  0  0  0
 19 29  1  0  0  0  0
 19 32  1  0  0  0  0
 19 44  1  0  0  0  0
 20 45  1  0  0  0  0
 20 46  1  0  0  0  0
 20 47  1  0  0  0  0
 21 25  1  0  0  0  0
 21 48  1  0  0  0  0
 21 49  1  0  0  0  0
 23 27  1  0  0  0  0
 23 50  1  0  0  0  0
 23 51  1  0  0  0  0
 24 52  1  0  0  0  0
 24 53  1  0  0  0  0
 24 54  1  0  0  0  0
 26 55  1  0  0  0  0
 26 56  1  0  0  0  0
 26 57  1  0  0  0  0
 27 28  1  0  0  0  0
 27 58  1  0  0  0  0
 27 59  1  0  0  0  0
 29 33  1  0  0  0  0
 29 60  1  0  0  0  0
 29 61  1  0  0  0  0
 30 62  1  0  0  0  0
 30 63  1  0  0  0  0
 30 64  1  0  0  0  0
 31 65  1  0  0  0  0
 31 66  1  0  0  0  0
 31 67  1  0  0  0  0
 32 68  1  0  0  0  0
 32 69  1  0  0  0  0
 32 70  1  0  0  0  0
 33 34  1  0  0  0  0
 34 35  1  0  0  0  0
 34 71  1  0  0  0  0
 34 72  1  0  0  0  0
 35 36  1  0  0  0  0
 35 37  1  0  0  0  0
 35 73  1  0  0  0  0
 36 74  1  0  0  0  0
 36 75  1  0  0  0  0
 36 76  1  0  0  0  0
M  END
> <PUBCHEM_COMPOUND_CID>
23247894

> <PUBCHEM_CONFORMER_RMSD>
1

> <PUBCHEM_CONFORMER_DIVERSEORDER>
5
21
7
19
4
13
22
15
18
17
6
10
20
8
24
16
23
14
3
9
11
1
25
2
12

> <PUBCHEM_MMFF94_PARTIAL_CHARGES>
26
1 -0.57
11 0.14
12 -0.12
14 -0.12
15 0.06
16 0.06
17 0.45
18 0.06
2 -0.57
21 0.06
22 0.49
25 0.49
27 0.06
28 0.45
29 0.06
3 -0.57
33 0.45
34 0.06
35 0.06
37 0.66
4 -0.57
5 -0.57
6 -0.65
7 -0.57
77 0.5
9 0.2

> <PUBCHEM_EFFECTIVE_ROTOR_COUNT>
7.4

> <PUBCHEM_PHARMACOPHORE_FEATURES>
15
1 1 acceptor
1 2 acceptor
1 3 acceptor
1 32 hydrophobe
1 36 hydrophobe
1 4 acceptor
1 5 acceptor
1 6 acceptor
1 7 acceptor
3 18 30 31 hydrophobe
3 6 7 37 anion
5 8 9 10 16 17 rings
6 11 12 13 14 21 25 rings
6 11 13 18 23 27 28 rings
6 8 9 12 14 15 22 rings

> <PUBCHEM_HEAVY_ATOM_COUNT>
37

> <PUBCHEM_ATOM_DEF_STEREO_COUNT>
7

> <PUBCHEM_ATOM_UDEF_STEREO_COUNT>
0

> <PUBCHEM_BOND_DEF_STEREO_COUNT>
0

> <PUBCHEM_BOND_UDEF_STEREO_COUNT>
0

> <PUBCHEM_ISOTOPIC_ATOM_COUNT>
0

> <PUBCHEM_COMPONENT_COUNT>
1

> <PUBCHEM_CACTVS_TAUTO_COUNT>
48

> <PUBCHEM_CONFORMER_ID>
0162BC1600000005

> <PUBCHEM_MMFF94_ENERGY>
132.4323

> <PUBCHEM_FEATURE_SELFOVERLAP>
76.293

> <PUBCHEM_SHAPE_FINGERPRINT>
10076449 9 18341618097053255540
10190108 129 18060145293253725406
10693767 8 13623792922029271448
11115154 58 15357695263115287125
11135609 12 18334860566664842473
11181472 205 14405198265615952378
11456790 92 16343979204748483170
11578080 2 15792597282045633020
11607047 141 14691750730656236886
11607047 74 16011021928539536437
11646440 116 18343303665104843923
117089 54 17980199687066863878
11963148 33 18261100846865736914
12035758 1 18343013402298192790
12166972 35 17530967981513352292
12236239 1 16056586664925030772
12778500 126 15410895150431464346
13165053 68 16734972265493208150
13673619 4 18113619002278675045
13685833 64 18410007736784569861
13782708 43 17895193346635521491
13811026 1 18261106383119584061
13947930 73 18115034129499472523
14294032 229 12175611872177281721
14849402 71 17560794502128230480
15064981 113 15575809822094421751
15131766 46 12749228270110663554
15352257 5 17603866702511050579
15510800 12 18334019371566454827
15927050 60 17553466378189962428
16994733 274 13830120724246208506
18608769 82 17967534592782159899
20105231 36 18272374161687350030
20982279 24 18263659372132765610
21267235 1 18272086068307869492
21585482 310 18334579048960063327
21781051 124 18260839201963352798
21781055 127 16271663264427735904
21792934 111 18131348584374557345
21927370 108 18271253711587376040
22121540 332 10447380752391064571
22122407 14 14620505791770908123
22149856 69 18131079198844354072
2260408 40 16845024433227568911
23559900 14 18271506676840363384
24771293 8 17417802976602612468
2747138 104 18342460317884546448
3178227 256 18343586247982845174
3383291 50 18408041827791914475
350125 39 18060125549510546236
404807 78 17385734620414495266
4093350 32 15410901747295360558
4149490 64 17749097899716478888
439807 62 17385730210231719515
4461854 278 18060421326211771950
465052 167 18408599254121337556
5104073 3 17987234426262138633
58083652 198 18130776885604545729
6009941 240 18261107414888214165
6058803 2 17342362323136649421
8863177 126 18260834855978467931
9962374 69 18338510976136014863
999808 66 18333450950531267947

> <PUBCHEM_SHAPE_MULTIPOLES>
720.36
21.98
2.73
2.02
29.92
1.26
-0.49
-15.13
-11.05
-1
-0.29
1.53
-0.66
2.33

> <PUBCHEM_SHAPE_SELFOVERLAP>
1542.721

> <PUBCHEM_SHAPE_VOLUME>
396.5

> <PUBCHEM_COORDINATE_TYPE>
2
5
10

$$$$
