46894364
  -OEChem-09122004213D

105108  0     1  0  0  0  0  0999 V2000
   -0.7269    2.5277    0.1526 O   0  0  0  0  0  0  0  0  0  0  0  0
    2.3069    2.3484    0.0022 O   0  0  0  0  0  0  0  0  0  0  0  0
    6.5904   -0.3734   -1.4565 O   0  0  0  0  0  0  0  0  0  0  0  0
   -5.5192   -2.0688    0.6931 O   0  0  0  0  0  0  0  0  0  0  0  0
   -1.4921    3.2263    2.2174 O   0  0  0  0  0  0  0  0  0  0  0  0
    8.5811   -1.4362   -1.9504 O   0  0  0  0  0  0  0  0  0  0  0  0
   -5.0781   -1.3470    2.8428 O   0  0  0  0  0  0  0  0  0  0  0  0
   -9.6003    0.9331   -1.4398 O   0  0  0  0  0  0  0  0  0  0  0  0
   -7.9779    2.5223   -1.4413 O   0  0  0  0  0  0  0  0  0  0  0  0
   -0.6256   -1.1600    0.0990 C   0  0  1  0  0  0  0  0  0  0  0  0
    0.1214    0.2003   -0.1742 C   0  0  2  0  0  0  0  0  0  0  0  0
   -2.0803   -0.8041   -0.2976 C   0  0  2  0  0  0  0  0  0  0  0  0
    3.7114   -1.2843    0.5824 C   0  0  2  0  0  0  0  0  0  0  0  0
    1.5722    0.0784    0.3044 C   0  0  0  0  0  0  0  0  0  0  0  0
   -0.8476    1.1722    0.5524 C   0  0  2  0  0  0  0  0  0  0  0  0
    2.2369   -1.0964    0.1231 C   0  0  0  0  0  0  0  0  0  0  0  0
    4.4145    0.1238    0.6168 C   0  0  2  0  0  0  0  0  0  0  0  0
    0.0304   -2.2527   -0.7465 C   0  0  0  0  0  0  0  0  0  0  0  0
   -2.2652    0.6312    0.2479 C   0  0  0  0  0  0  0  0  0  0  0  0
    1.5480   -2.3294   -0.4822 C   0  0  0  0  0  0  0  0  0  0  0  0
    2.2053    1.2918    0.9597 C   0  0  1  0  0  0  0  0  0  0  0  0
    5.9712    0.1430    0.8525 C   0  0  0  0  0  0  0  0  0  0  0  0
    3.6143    1.0744    1.5233 C   0  0  0  0  0  0  0  0  0  0  0  0
   -3.1760   -1.7571    0.1654 C   0  0  1  0  0  0  0  0  0  0  0  0
   -0.5921   -1.6155    1.5941 C   0  0  0  0  0  0  0  0  0  0  0  0
    0.2102    0.5880   -1.6859 C   0  0  0  0  0  0  0  0  0  0  0  0
    4.5064   -2.1890   -0.3957 C   0  0  0  0  0  0  0  0  0  0  0  0
    6.6532   -0.8682   -0.1143 C   0  0  1  0  0  0  0  0  0  0  0  0
    6.0053   -2.2517   -0.0923 C   0  0  0  0  0  0  0  0  0  0  0  0
    3.6211   -1.9891    1.9587 C   0  0  0  0  0  0  0  0  0  0  0  0
   -4.5878   -1.1183    0.1750 C   0  0  1  0  0  0  0  0  0  0  0  0
    6.5186    1.5639    0.5334 C   0  0  0  0  0  0  0  0  0  0  0  0
    6.3988   -0.1553    2.3038 C   0  0  0  0  0  0  0  0  0  0  0  0
   -3.1722   -3.0118   -0.7197 C   0  0  0  0  0  0  0  0  0  0  0  0
   -5.0356   -0.6693   -1.2245 C   0  0  0  0  0  0  0  0  0  0  0  0
   -1.0848    3.4608    1.0877 C   0  0  0  0  0  0  0  0  0  0  0  0
    2.4522    3.6073    0.6394 C   0  0  0  0  0  0  0  0  0  0  0  0
    7.6258   -0.7390   -2.2644 C   0  0  0  0  0  0  0  0  0  0  0  0
   -6.1595    0.3340   -1.1643 C   0  0  0  0  0  0  0  0  0  0  0  0
   -0.9071    4.8401    0.5290 C   0  0  0  0  0  0  0  0  0  0  0  0
    2.5549    4.6860   -0.4176 C   0  0  0  0  0  0  0  0  0  0  0  0
   -5.6640   -2.0719    2.0501 C   0  0  0  0  0  0  0  0  0  0  0  0
    7.4275   -0.1524   -3.6291 C   0  0  0  0  0  0  0  0  0  0  0  0
   -7.3943    0.1899   -1.6808 C   0  0  0  0  0  0  0  0  0  0  0  0
   -6.6661   -3.1131    2.4476 C   0  0  0  0  0  0  0  0  0  0  0  0
   -7.9115   -1.0390   -2.3682 C   0  0  0  0  0  0  0  0  0  0  0  0
   -8.3137    1.3499   -1.5084 C   0  0  0  0  0  0  0  0  0  0  0  0
   -2.1306   -0.7432   -1.3917 H   0  0  0  0  0  0  0  0  0  0  0  0
   -0.6622    1.0923    1.6316 H   0  0  0  0  0  0  0  0  0  0  0  0
    4.3007    0.5261   -0.4048 H   0  0  0  0  0  0  0  0  0  0  0  0
   -0.3856   -3.2415   -0.5382 H   0  0  0  0  0  0  0  0  0  0  0  0
   -0.1468   -2.0833   -1.8151 H   0  0  0  0  0  0  0  0  0  0  0  0
   -2.7955    1.2665   -0.4698 H   0  0  0  0  0  0  0  0  0  0  0  0
   -2.8196    0.6607    1.1913 H   0  0  0  0  0  0  0  0  0  0  0  0
    2.0370   -2.5897   -1.4283 H   0  0  0  0  0  0  0  0  0  0  0  0
    1.7087   -3.1774    0.1940 H   0  0  0  0  0  0  0  0  0  0  0  0
    1.5614    1.6093    1.7892 H   0  0  0  0  0  0  0  0  0  0  0  0
    3.5288    0.6465    2.5281 H   0  0  0  0  0  0  0  0  0  0  0  0
    4.1665    1.9996    1.6631 H   0  0  0  0  0  0  0  0  0  0  0  0
   -3.0008   -2.0965    1.1904 H   0  0  0  0  0  0  0  0  0  0  0  0
   -0.9550   -2.6448    1.6982 H   0  0  0  0  0  0  0  0  0  0  0  0
    0.4135   -1.6072    2.0226 H   0  0  0  0  0  0  0  0  0  0  0  0
   -1.2103   -0.9867    2.2428 H   0  0  0  0  0  0  0  0  0  0  0  0
    0.6875    1.5664   -1.8137 H   0  0  0  0  0  0  0  0  0  0  0  0
    0.8055   -0.1212   -2.2706 H   0  0  0  0  0  0  0  0  0  0  0  0
   -0.7696    0.6672   -2.1648 H   0  0  0  0  0  0  0  0  0  0  0  0
    4.1191   -3.2156   -0.3750 H   0  0  0  0  0  0  0  0  0  0  0  0
    4.3684   -1.8308   -1.4249 H   0  0  0  0  0  0  0  0  0  0  0  0
    7.7038   -0.9655    0.1921 H   0  0  0  0  0  0  0  0  0  0  0  0
    6.1759   -2.7394    0.8726 H   0  0  0  0  0  0  0  0  0  0  0  0
    6.4729   -2.8954   -0.8472 H   0  0  0  0  0  0  0  0  0  0  0  0
    4.5910   -2.1757    2.4129 H   0  0  0  0  0  0  0  0  0  0  0  0
    3.1488   -2.9747    1.8695 H   0  0  0  0  0  0  0  0  0  0  0  0
    3.0206   -1.4263    2.6806 H   0  0  0  0  0  0  0  0  0  0  0  0
   -4.6041   -0.2371    0.8240 H   0  0  0  0  0  0  0  0  0  0  0  0
    7.4547    0.1032    2.4536 H   0  0  0  0  0  0  0  0  0  0  0  0
    6.3174   -1.2081    2.5711 H   0  0  0  0  0  0  0  0  0  0  0  0
    6.2545    2.2897    1.3094 H   0  0  0  0  0  0  0  0  0  0  0  0
    6.1366    1.9443   -0.4203 H   0  0  0  0  0  0  0  0  0  0  0  0
    5.8238    0.4296    3.0280 H   0  0  0  0  0  0  0  0  0  0  0  0
    7.6134    1.5547    0.4698 H   0  0  0  0  0  0  0  0  0  0  0  0
   -4.0872   -3.6007   -0.5944 H   0  0  0  0  0  0  0  0  0  0  0  0
   -2.3590   -3.6856   -0.4467 H   0  0  0  0  0  0  0  0  0  0  0  0
   -3.0814   -2.7717   -1.7841 H   0  0  0  0  0  0  0  0  0  0  0  0
   -5.3145   -1.5479   -1.8113 H   0  0  0  0  0  0  0  0  0  0  0  0
   -4.2243   -0.1764   -1.7680 H   0  0  0  0  0  0  0  0  0  0  0  0
    1.5996    3.8024    1.2928 H   0  0  0  0  0  0  0  0  0  0  0  0
    3.3547    3.6753    1.2494 H   0  0  0  0  0  0  0  0  0  0  0  0
   -5.8957    1.2679   -0.6694 H   0  0  0  0  0  0  0  0  0  0  0  0
   -0.1405    5.3734    1.0947 H   0  0  0  0  0  0  0  0  0  0  0  0
   -1.8596    5.3729    0.5936 H   0  0  0  0  0  0  0  0  0  0  0  0
   -0.6161    4.8035   -0.5241 H   0  0  0  0  0  0  0  0  0  0  0  0
    3.4513    4.5364   -1.0290 H   0  0  0  0  0  0  0  0  0  0  0  0
    1.7009    4.6480   -1.1005 H   0  0  0  0  0  0  0  0  0  0  0  0
    2.6038    5.6790    0.0379 H   0  0  0  0  0  0  0  0  0  0  0  0
    6.4986   -0.5306   -4.0633 H   0  0  0  0  0  0  0  0  0  0  0  0
    8.2595   -0.4470   -4.2751 H   0  0  0  0  0  0  0  0  0  0  0  0
    7.4064    0.9384   -3.5639 H   0  0  0  0  0  0  0  0  0  0  0  0
   -7.6345   -2.8871    1.9943 H   0  0  0  0  0  0  0  0  0  0  0  0
   -6.7810   -3.1095    3.5353 H   0  0  0  0  0  0  0  0  0  0  0  0
   -6.3163   -4.1009    2.1374 H   0  0  0  0  0  0  0  0  0  0  0  0
   -8.5053   -1.6409   -1.6728 H   0  0  0  0  0  0  0  0  0  0  0  0
   -7.1225   -1.6704   -2.7818 H   0  0  0  0  0  0  0  0  0  0  0  0
   -8.5505   -0.7613   -3.2140 H   0  0  0  0  0  0  0  0  0  0  0  0
  -10.2236    1.6825   -1.3287 H   0  0  0  0  0  0  0  0  0  0  0  0
  1 15  1  0  0  0  0
  1 36  1  0  0  0  0
  2 21  1  0  0  0  0
  2 37  1  0  0  0  0
  3 28  1  0  0  0  0
  3 38  1  0  0  0  0
  4 31  1  0  0  0  0
  4 42  1  0  0  0  0
  5 36  2  0  0  0  0
  6 38  2  0  0  0  0
  7 42  2  0  0  0  0
  8 47  1  0  0  0  0
  8105  1  0  0  0  0
  9 47  2  0  0  0  0
 10 11  1  0  0  0  0
 10 12  1  0  0  0  0
 10 18  1  0  0  0  0
 10 25  1  0  0  0  0
 11 14  1  0  0  0  0
 11 15  1  0  0  0  0
 11 26  1  0  0  0  0
 12 19  1  0  0  0  0
 12 24  1  0  0  0  0
 12 48  1  0  0  0  0
 13 16  1  0  0  0  0
 13 17  1  0  0  0  0
 13 27  1  0  0  0  0
 13 30  1  0  0  0  0
 14 16  2  0  0  0  0
 14 21  1  0  0  0  0
 15 19  1  0  0  0  0
 15 49  1  0  0  0  0
 16 20  1  0  0  0  0
 17 22  1  0  0  0  0
 17 23  1  0  0  0  0
 17 50  1  0  0  0  0
 18 20  1  0  0  0  0
 18 51  1  0  0  0  0
 18 52  1  0  0  0  0
 19 53  1  0  0  0  0
 19 54  1  0  0  0  0
 20 55  1  0  0  0  0
 20 56  1  0  0  0  0
 21 23  1  0  0  0  0
 21 57  1  0  0  0  0
 22 28  1  0  0  0  0
 22 32  1  0  0  0  0
 22 33  1  0  0  0  0
 23 58  1  0  0  0  0
 23 59  1  0  0  0  0
 24 31  1  0  0  0  0
 24 34  1  0  0  0  0
 24 60  1  0  0  0  0
 25 61  1  0  0  0  0
 25 62  1  0  0  0  0
 25 63  1  0  0  0  0
 26 64  1  0  0  0  0
 26 65  1  0  0  0  0
 26 66  1  0  0  0  0
 27 29  1  0  0  0  0
 27 67  1  0  0  0  0
 27 68  1  0  0  0  0
 28 29  1  0  0  0  0
 28 69  1  0  0  0  0
 29 70  1  0  0  0  0
 29 71  1  0  0  0  0
 30 72  1  0  0  0  0
 30 73  1  0  0  0  0
 30 74  1  0  0  0  0
 31 35  1  0  0  0  0
 31 75  1  0  0  0  0
 32 78  1  0  0  0  0
 32 79  1  0  0  0  0
 32 81  1  0  0  0  0
 33 76  1  0  0  0  0
 33 77  1  0  0  0  0
 33 80  1  0  0  0  0
 34 82  1  0  0  0  0
 34 83  1  0  0  0  0
 34 84  1  0  0  0  0
 35 39  1  0  0  0  0
 35 85  1  0  0  0  0
 35 86  1  0  0  0  0
 36 40  1  0  0  0  0
 37 41  1  0  0  0  0
 37 87  1  0  0  0  0
 37 88  1  0  0  0  0
 38 43  1  0  0  0  0
 39 44  2  0  0  0  0
 39 89  1  0  0  0  0
 40 90  1  0  0  0  0
 40 91  1  0  0  0  0
 40 92  1  0  0  0  0
 41 93  1  0  0  0  0
 41 94  1  0  0  0  0
 41 95  1  0  0  0  0
 42 45  1  0  0  0  0
 43 96  1  0  0  0  0
 43 97  1  0  0  0  0
 43 98  1  0  0  0  0
 44 46  1  0  0  0  0
 44 47  1  0  0  0  0
 45 99  1  0  0  0  0
 45100  1  0  0  0  0
 45101  1  0  0  0  0
 46102  1  0  0  0  0
 46103  1  0  0  0  0
 46104  1  0  0  0  0
M  END
> <PUBCHEM_COMPOUND_CID>
46894364

> <PUBCHEM_CONFORMER_RMSD>
1.4

> <PUBCHEM_CONFORMER_DIVERSEORDER>
1
7
9
12
13
5
10
4
11
3
2
8
6

> <PUBCHEM_MMFF94_PARTIAL_CHARGES>
32
1 -0.43
105 0.5
11 0.14
13 0.14
14 -0.28
15 0.28
16 -0.28
2 -0.56
20 0.14
21 0.42
28 0.28
3 -0.43
31 0.28
35 0.14
36 0.66
37 0.28
38 0.66
39 -0.29
4 -0.43
40 0.06
42 0.66
43 0.06
44 -0.12
45 0.06
46 0.14
47 0.71
5 -0.57
6 -0.57
7 -0.57
8 -0.65
89 0.15
9 -0.57

> <PUBCHEM_EFFECTIVE_ROTOR_COUNT>
15.2

> <PUBCHEM_PHARMACOPHORE_FEATURES>
14
1 2 acceptor
1 34 hydrophobe
1 46 hydrophobe
1 5 acceptor
1 6 acceptor
1 7 acceptor
1 8 acceptor
1 9 acceptor
3 22 32 33 hydrophobe
3 8 9 47 anion
5 10 11 12 15 19 rings
6 10 11 14 16 18 20 rings
6 13 14 16 17 21 23 rings
6 13 17 22 27 28 29 rings

> <PUBCHEM_HEAVY_ATOM_COUNT>
47

> <PUBCHEM_ATOM_DEF_STEREO_COUNT>
9

> <PUBCHEM_ATOM_UDEF_STEREO_COUNT>
1

> <PUBCHEM_BOND_DEF_STEREO_COUNT>
1

> <PUBCHEM_BOND_UDEF_STEREO_COUNT>
0

> <PUBCHEM_ISOTOPIC_ATOM_COUNT>
0

> <PUBCHEM_COMPONENT_COUNT>
1

> <PUBCHEM_CACTVS_TAUTO_COUNT>
1

> <PUBCHEM_CONFORMER_ID>
02CB8D1C00000001

> <PUBCHEM_MMFF94_ENERGY>
159.6111

> <PUBCHEM_FEATURE_SELFOVERLAP>
71.201

> <PUBCHEM_SHAPE_FINGERPRINT>
11181472 205 17096362839328387766
11411753 29 18042134322581436171
13782708 43 17823700948650782003
13811026 1 18342168951598081771
14040222 275 18343589550681145908
14068700 675 18271800194657445768
14117953 113 18272645745116345021
15131766 46 14761775482735171274
15198563 99 18341897337898938397
15361156 5 18113335328178566727
23559900 14 18341038726680251824
23576562 1 18267580385083524887
25269216 80 16371012957665396451
3633792 109 17989201530480679135
4073 2 17894907451942570707
6009941 240 17822004316393627747
6081469 158 16415192369618541223

> <PUBCHEM_SHAPE_MULTIPOLES>
914.41
24.03
4.4
2.46
18.44
5.49
0.54
-6.3
13.66
1.3
-1.44
-0.27
-0.77
3.41

> <PUBCHEM_SHAPE_SELFOVERLAP>
1904.361

> <PUBCHEM_SHAPE_VOLUME>
516

> <PUBCHEM_COORDINATE_TYPE>
2
5
10

$$$$
