6449828
  -OEChem-09122005413D

 90 93  0     1  0  0  0  0  0999 V2000
    1.7566    2.2812    0.1577 O   0  0  0  0  0  0  0  0  0  0  0  0
   -7.4856    0.0465    0.4860 O   0  0  0  0  0  0  0  0  0  0  0  0
    2.5666    3.3662   -1.7141 O   0  0  0  0  0  0  0  0  0  0  0  0
   -7.7237   -0.8111    2.6178 O   0  0  0  0  0  0  0  0  0  0  0  0
    9.3960    0.9175    1.8429 O   0  0  0  0  0  0  0  0  0  0  0  0
    9.5358   -0.2104   -0.1231 O   0  0  0  0  0  0  0  0  0  0  0  0
    1.0204   -1.2439   -0.6069 C   0  0  1  0  0  0  0  0  0  0  0  0
    0.5048    0.1227   -0.0314 C   0  0  1  0  0  0  0  0  0  0  0  0
    2.5212   -1.1908   -0.2400 C   0  0  2  0  0  0  0  0  0  0  0  0
    1.5914    1.0856   -0.5902 C   0  0  2  0  0  0  0  0  0  0  0  0
   -3.3462   -0.7553   -0.5888 C   0  0  1  0  0  0  0  0  0  0  0  0
   -0.9657    0.2980   -0.4265 C   0  0  0  0  0  0  0  0  0  0  0  0
    2.9101    0.2768   -0.5304 C   0  0  0  0  0  0  0  0  0  0  0  0
   -3.7878    0.7145   -0.2403 C   0  0  2  0  0  0  0  0  0  0  0  0
    0.2275   -2.3892    0.0425 C   0  0  0  0  0  0  0  0  0  0  0  0
   -1.8210   -0.9141   -0.3050 C   0  0  0  0  0  0  0  0  0  0  0  0
   -5.3343    1.0244   -0.2441 C   0  0  0  0  0  0  0  0  0  0  0  0
    3.4365   -2.1927   -0.9330 C   0  0  1  0  0  0  0  0  0  0  0  0
    0.8638   -1.3605   -2.1604 C   0  0  0  0  0  0  0  0  0  0  0  0
    0.5240    0.2224    1.5300 C   0  0  0  0  0  0  0  0  0  0  0  0
   -4.1963   -1.7345    0.2660 C   0  0  0  0  0  0  0  0  0  0  0  0
   -1.2583   -2.1202   -0.0434 C   0  0  0  0  0  0  0  0  0  0  0  0
   -2.9365    1.7322   -1.0281 C   0  0  0  0  0  0  0  0  0  0  0  0
   -1.4741    1.4757   -0.8292 C   0  0  0  0  0  0  0  0  0  0  0  0
   -6.0668   -0.0665    0.5902 C   0  0  2  0  0  0  0  0  0  0  0  0
   -5.6973   -1.4866    0.1803 C   0  0  0  0  0  0  0  0  0  0  0  0
   -3.5173   -1.1209   -2.0848 C   0  0  0  0  0  0  0  0  0  0  0  0
    4.9189   -1.7678   -0.9001 C   0  0  0  0  0  0  0  0  0  0  0  0
   -5.9523    1.1569   -1.6519 C   0  0  0  0  0  0  0  0  0  0  0  0
   -5.5780    2.3934    0.4530 C   0  0  0  0  0  0  0  0  0  0  0  0
    3.2876   -3.5729   -0.2833 C   0  0  0  0  0  0  0  0  0  0  0  0
    5.4656   -1.5830    0.5185 C   0  0  0  0  0  0  0  0  0  0  0  0
    2.2566    3.3540   -0.5306 C   0  0  0  0  0  0  0  0  0  0  0  0
   -8.1922   -0.3644    1.5796 C   0  0  0  0  0  0  0  0  0  0  0  0
    6.9039   -1.1404    0.4907 C   0  0  0  0  0  0  0  0  0  0  0  0
    2.3755    4.5381    0.3803 C   0  0  0  0  0  0  0  0  0  0  0  0
   -9.6592   -0.1884    1.3284 C   0  0  0  0  0  0  0  0  0  0  0  0
    7.4125   -0.0088    1.0133 C   0  0  0  0  0  0  0  0  0  0  0  0
    6.6409    1.0182    1.7881 C   0  0  0  0  0  0  0  0  0  0  0  0
    8.8761    0.1980    0.8201 C   0  0  0  0  0  0  0  0  0  0  0  0
    2.6169   -1.3420    0.8431 H   0  0  0  0  0  0  0  0  0  0  0  0
    1.3494    1.3221   -1.6350 H   0  0  0  0  0  0  0  0  0  0  0  0
    3.5874    0.6745    0.2308 H   0  0  0  0  0  0  0  0  0  0  0  0
    3.4010    0.3943   -1.5024 H   0  0  0  0  0  0  0  0  0  0  0  0
   -3.4958    0.8471    0.8173 H   0  0  0  0  0  0  0  0  0  0  0  0
    0.4125   -3.3320   -0.4809 H   0  0  0  0  0  0  0  0  0  0  0  0
    0.5090   -2.5494    1.0889 H   0  0  0  0  0  0  0  0  0  0  0  0
    3.1947   -2.2929   -1.9954 H   0  0  0  0  0  0  0  0  0  0  0  0
   -0.1518   -1.1439   -2.5043 H   0  0  0  0  0  0  0  0  0  0  0  0
    1.5286   -0.6825   -2.7047 H   0  0  0  0  0  0  0  0  0  0  0  0
    1.0866   -2.3777   -2.5026 H   0  0  0  0  0  0  0  0  0  0  0  0
   -0.0857   -0.5448    2.0174 H   0  0  0  0  0  0  0  0  0  0  0  0
    0.1229    1.1898    1.8588 H   0  0  0  0  0  0  0  0  0  0  0  0
    1.5327    0.1471    1.9478 H   0  0  0  0  0  0  0  0  0  0  0  0
   -4.0199   -2.7733   -0.0387 H   0  0  0  0  0  0  0  0  0  0  0  0
   -3.8915   -1.6624    1.3192 H   0  0  0  0  0  0  0  0  0  0  0  0
   -1.8753   -3.0093    0.0396 H   0  0  0  0  0  0  0  0  0  0  0  0
   -3.1366    2.7449   -0.6632 H   0  0  0  0  0  0  0  0  0  0  0  0
   -3.1610    1.7291   -2.0987 H   0  0  0  0  0  0  0  0  0  0  0  0
   -0.8261    2.3405   -0.9375 H   0  0  0  0  0  0  0  0  0  0  0  0
   -5.7599    0.0753    1.6368 H   0  0  0  0  0  0  0  0  0  0  0  0
   -6.0749   -1.7081   -0.8244 H   0  0  0  0  0  0  0  0  0  0  0  0
   -6.2073   -2.2074    0.8318 H   0  0  0  0  0  0  0  0  0  0  0  0
   -3.1158   -2.1216   -2.2914 H   0  0  0  0  0  0  0  0  0  0  0  0
   -2.9884   -0.4297   -2.7487 H   0  0  0  0  0  0  0  0  0  0  0  0
   -4.5583   -1.1526   -2.4018 H   0  0  0  0  0  0  0  0  0  0  0  0
    5.0807   -0.8576   -1.4879 H   0  0  0  0  0  0  0  0  0  0  0  0
    5.5132   -2.5383   -1.4117 H   0  0  0  0  0  0  0  0  0  0  0  0
   -6.0314    0.2044   -2.1747 H   0  0  0  0  0  0  0  0  0  0  0  0
   -5.3864    1.8474   -2.2840 H   0  0  0  0  0  0  0  0  0  0  0  0
   -6.9731    1.5547   -1.5948 H   0  0  0  0  0  0  0  0  0  0  0  0
   -5.1002    2.4292    1.4384 H   0  0  0  0  0  0  0  0  0  0  0  0
   -6.6484    2.5769    0.6031 H   0  0  0  0  0  0  0  0  0  0  0  0
   -5.1942    3.2294   -0.1402 H   0  0  0  0  0  0  0  0  0  0  0  0
    3.2963   -3.5262    0.8105 H   0  0  0  0  0  0  0  0  0  0  0  0
    4.0989   -4.2409   -0.5943 H   0  0  0  0  0  0  0  0  0  0  0  0
    2.3628   -4.0606   -0.5958 H   0  0  0  0  0  0  0  0  0  0  0  0
    5.4424   -2.5437    1.0471 H   0  0  0  0  0  0  0  0  0  0  0  0
    4.8493   -0.9078    1.1100 H   0  0  0  0  0  0  0  0  0  0  0  0
    7.5706   -1.8316   -0.0240 H   0  0  0  0  0  0  0  0  0  0  0  0
    3.0628    4.3077    1.1982 H   0  0  0  0  0  0  0  0  0  0  0  0
    1.3898    4.8059    0.7691 H   0  0  0  0  0  0  0  0  0  0  0  0
    2.7726    5.3891   -0.1803 H   0  0  0  0  0  0  0  0  0  0  0  0
   -9.9641   -0.7972    0.4736 H   0  0  0  0  0  0  0  0  0  0  0  0
  -10.2200   -0.5169    2.2082 H   0  0  0  0  0  0  0  0  0  0  0  0
   -9.8801    0.8668    1.1487 H   0  0  0  0  0  0  0  0  0  0  0  0
    6.8195    0.8979    2.8614 H   0  0  0  0  0  0  0  0  0  0  0  0
    6.9562    2.0269    1.4980 H   0  0  0  0  0  0  0  0  0  0  0  0
    5.5642    0.9752    1.6148 H   0  0  0  0  0  0  0  0  0  0  0  0
   10.3594    1.0672    1.7340 H   0  0  0  0  0  0  0  0  0  0  0  0
  1 10  1  0  0  0  0
  1 33  1  0  0  0  0
  2 25  1  0  0  0  0
  2 34  1  0  0  0  0
  3 33  2  0  0  0  0
  4 34  2  0  0  0  0
  5 40  1  0  0  0  0
  5 90  1  0  0  0  0
  6 40  2  0  0  0  0
  7  8  1  0  0  0  0
  7  9  1  0  0  0  0
  7 15  1  0  0  0  0
  7 19  1  0  0  0  0
  8 10  1  0  0  0  0
  8 12  1  0  0  0  0
  8 20  1  0  0  0  0
  9 13  1  0  0  0  0
  9 18  1  0  0  0  0
  9 41  1  0  0  0  0
 10 13  1  0  0  0  0
 10 42  1  0  0  0  0
 11 14  1  0  0  0  0
 11 16  1  0  0  0  0
 11 21  1  0  0  0  0
 11 27  1  0  0  0  0
 12 16  1  0  0  0  0
 12 24  2  0  0  0  0
 13 43  1  0  0  0  0
 13 44  1  0  0  0  0
 14 17  1  0  0  0  0
 14 23  1  0  0  0  0
 14 45  1  0  0  0  0
 15 22  1  0  0  0  0
 15 46  1  0  0  0  0
 15 47  1  0  0  0  0
 16 22  2  0  0  0  0
 17 25  1  0  0  0  0
 17 29  1  0  0  0  0
 17 30  1  0  0  0  0
 18 28  1  0  0  0  0
 18 31  1  0  0  0  0
 18 48  1  0  0  0  0
 19 49  1  0  0  0  0
 19 50  1  0  0  0  0
 19 51  1  0  0  0  0
 20 52  1  0  0  0  0
 20 53  1  0  0  0  0
 20 54  1  0  0  0  0
 21 26  1  0  0  0  0
 21 55  1  0  0  0  0
 21 56  1  0  0  0  0
 22 57  1  0  0  0  0
 23 24  1  0  0  0  0
 23 58  1  0  0  0  0
 23 59  1  0  0  0  0
 24 60  1  0  0  0  0
 25 26  1  0  0  0  0
 25 61  1  0  0  0  0
 26 62  1  0  0  0  0
 26 63  1  0  0  0  0
 27 64  1  0  0  0  0
 27 65  1  0  0  0  0
 27 66  1  0  0  0  0
 28 32  1  0  0  0  0
 28 67  1  0  0  0  0
 28 68  1  0  0  0  0
 29 69  1  0  0  0  0
 29 70  1  0  0  0  0
 29 71  1  0  0  0  0
 30 72  1  0  0  0  0
 30 73  1  0  0  0  0
 30 74  1  0  0  0  0
 31 75  1  0  0  0  0
 31 76  1  0  0  0  0
 31 77  1  0  0  0  0
 32 35  1  0  0  0  0
 32 78  1  0  0  0  0
 32 79  1  0  0  0  0
 33 36  1  0  0  0  0
 34 37  1  0  0  0  0
 35 38  2  0  0  0  0
 35 80  1  0  0  0  0
 36 81  1  0  0  0  0
 36 82  1  0  0  0  0
 36 83  1  0  0  0  0
 37 84  1  0  0  0  0
 37 85  1  0  0  0  0
 37 86  1  0  0  0  0
 38 39  1  0  0  0  0
 38 40  1  0  0  0  0
 39 87  1  0  0  0  0
 39 88  1  0  0  0  0
 39 89  1  0  0  0  0
M  END
> <PUBCHEM_COMPOUND_CID>
6449828

> <PUBCHEM_CONFORMER_RMSD>
1.2

> <PUBCHEM_CONFORMER_DIVERSEORDER>
3
13
4
10
11
12
14
5
6
8
1
9
7
2

> <PUBCHEM_MMFF94_PARTIAL_CHARGES>
29
1 -0.43
10 0.28
11 0.14
12 -0.14
15 0.14
16 -0.14
2 -0.43
22 -0.29
23 0.14
24 -0.29
25 0.28
3 -0.57
32 0.14
33 0.66
34 0.66
35 -0.29
36 0.06
37 0.06
38 -0.12
39 0.14
4 -0.57
40 0.71
5 -0.65
57 0.15
6 -0.57
60 0.15
8 0.14
80 0.15
90 0.5

> <PUBCHEM_EFFECTIVE_ROTOR_COUNT>
10.8

> <PUBCHEM_PHARMACOPHORE_FEATURES>
13
1 3 acceptor
1 31 hydrophobe
1 39 hydrophobe
1 4 acceptor
1 5 acceptor
1 6 acceptor
3 17 29 30 hydrophobe
3 5 6 40 anion
4 18 28 32 35 hydrophobe
5 7 8 9 10 13 rings
6 11 12 14 16 23 24 rings
6 11 14 17 21 25 26 rings
6 7 8 12 15 16 22 rings

> <PUBCHEM_HEAVY_ATOM_COUNT>
40

> <PUBCHEM_ATOM_DEF_STEREO_COUNT>
7

> <PUBCHEM_ATOM_UDEF_STEREO_COUNT>
1

> <PUBCHEM_BOND_DEF_STEREO_COUNT>
1

> <PUBCHEM_BOND_UDEF_STEREO_COUNT>
0

> <PUBCHEM_ISOTOPIC_ATOM_COUNT>
0

> <PUBCHEM_COMPONENT_COUNT>
1

> <PUBCHEM_CACTVS_TAUTO_COUNT>
1

> <PUBCHEM_CONFORMER_ID>
00626AA400000003

> <PUBCHEM_MMFF94_ENERGY>
137.0029

> <PUBCHEM_FEATURE_SELFOVERLAP>
66.132

> <PUBCHEM_SHAPE_FINGERPRINT>
10 15 18410570669969955418
11181472 205 14979689736211243746
11456790 92 18260835911807303945
11534866 41 17822010904552337218
12539765 74 15410896267080737860
12664476 115 18113899360721936333
13383668 362 18263930019163561331
13560911 43 18187365424106249617
13782708 43 17531817844542389747
13811026 1 18409444765308819974
14028597 1 17531517678046881280
14394314 77 18336543807625248728
14849402 71 18336266846522198156
15247644 1 15791735196030515547
15461852 350 16558738044951859191
15840311 113 17561369474116605434
15849732 13 18343295977566986988
16728433 281 12750421119736140547
18365409 1 17131537462132018358
18608769 82 18335139795600997803
19315958 150 17632864096426180398
21130935 74 18192153698593036627
23559900 14 18411692201372350749
24771293 8 18201427121980298916
24771750 20 18116449213595822924
3178227 256 18335426763666657459
350125 39 18409171017126169413
3552219 110 17775007835068594530
4093350 32 16988566775729678574
4339292 15 17095522933711835355
504579 68 8142084247927407267
5104073 3 18338798892967570507
6081469 158 10952052247344110290
6523845 18 16660359303432332699
9663363 56 18113899356738244075
9962374 69 18337385041610938239

> <PUBCHEM_SHAPE_MULTIPOLES>
787.97
25.34
3.44
1.64
7.6
2.62
0.16
-0.11
15.88
3.26
-0.73
-1.09
0.05
1.46

> <PUBCHEM_SHAPE_SELFOVERLAP>
1653.895

> <PUBCHEM_SHAPE_VOLUME>
441

> <PUBCHEM_COORDINATE_TYPE>
2
5
10

$$$$
