21124247
  -OEChem-09122005273D

 81 84  0     1  0  0  0  0  0999 V2000
   -7.6783    0.6666    1.5582 O   0  0  0  0  0  0  0  0  0  0  0  0
    6.7498    2.9556    0.0465 O   0  0  0  0  0  0  0  0  0  0  0  0
    8.9756    1.5242    1.5430 O   0  0  0  0  0  0  0  0  0  0  0  0
    0.5901   -1.0526   -0.4186 C   0  0  1  0  0  0  0  0  0  0  0  0
    0.0353    0.4009   -0.5891 C   0  0  1  0  0  0  0  0  0  0  0  0
    2.1167   -0.8117   -0.4761 C   0  0  2  0  0  0  0  0  0  0  0  0
   -3.7325   -0.5917    0.2218 C   0  0  1  0  0  0  0  0  0  0  0  0
    0.8727    0.8878   -1.7917 C   0  0  0  0  0  0  0  0  0  0  0  0
   -1.4877    0.3633   -0.6821 C   0  0  0  0  0  0  0  0  0  0  0  0
   -4.2525    0.8497   -0.1399 C   0  0  2  0  0  0  0  0  0  0  0  0
    2.2687    0.2575   -1.5851 C   0  0  0  0  0  0  0  0  0  0  0  0
   -2.1734   -0.5844    0.2348 C   0  0  0  0  0  0  0  0  0  0  0  0
    0.0550   -1.6289    0.9014 C   0  0  0  0  0  0  0  0  0  0  0  0
   -5.7992    1.1188    0.0150 C   0  0  0  0  0  0  0  0  0  0  0  0
    2.9989   -2.0324   -0.7083 C   0  0  1  0  0  0  0  0  0  0  0  0
   -4.3192   -0.9910    1.6035 C   0  0  0  0  0  0  0  0  0  0  0  0
    0.1680   -2.0140   -1.5798 C   0  0  0  0  0  0  0  0  0  0  0  0
   -3.6633    1.3155   -1.4892 C   0  0  0  0  0  0  0  0  0  0  0  0
    0.3507    1.3705    0.5957 C   0  0  0  0  0  0  0  0  0  0  0  0
   -1.4463   -1.4497    0.9850 C   0  0  0  0  0  0  0  0  0  0  0  0
   -2.1723    1.1763   -1.5049 C   0  0  0  0  0  0  0  0  0  0  0  0
   -6.2596    0.6151    1.4139 C   0  0  2  0  0  0  0  0  0  0  0  0
   -5.8290   -0.8161    1.7088 C   0  0  0  0  0  0  0  0  0  0  0  0
   -4.1207   -1.6754   -0.8152 C   0  0  0  0  0  0  0  0  0  0  0  0
    4.5019   -1.6797   -0.7333 C   0  0  0  0  0  0  0  0  0  0  0  0
   -6.0550    2.6520   -0.0413 C   0  0  0  0  0  0  0  0  0  0  0  0
   -6.6650    0.5095   -1.1078 C   0  0  0  0  0  0  0  0  0  0  0  0
    2.7404   -3.0756    0.3850 C   0  0  0  0  0  0  0  0  0  0  0  0
    5.0327   -0.9885    0.5305 C   0  0  0  0  0  0  0  0  0  0  0  0
    6.4836   -0.6109    0.4174 C   0  0  0  0  0  0  0  0  0  0  0  0
    7.0407    0.6150    0.4757 C   0  0  0  0  0  0  0  0  0  0  0  0
    6.1583    1.8256    0.6745 C   0  0  0  0  0  0  0  0  0  0  0  0
    8.5150    0.8989    0.3515 C   0  0  0  0  0  0  0  0  0  0  0  0
    2.4040   -0.3598    0.4791 H   0  0  0  0  0  0  0  0  0  0  0  0
    0.9408    1.9798   -1.8546 H   0  0  0  0  0  0  0  0  0  0  0  0
    0.4495    0.5422   -2.7425 H   0  0  0  0  0  0  0  0  0  0  0  0
   -3.7935    1.5069    0.6207 H   0  0  0  0  0  0  0  0  0  0  0  0
    2.9953    1.0190   -1.2801 H   0  0  0  0  0  0  0  0  0  0  0  0
    2.6183   -0.1676   -2.5327 H   0  0  0  0  0  0  0  0  0  0  0  0
    0.2358   -2.7031    0.9784 H   0  0  0  0  0  0  0  0  0  0  0  0
    0.5232   -1.1667    1.7772 H   0  0  0  0  0  0  0  0  0  0  0  0
    2.7761   -2.4934   -1.6783 H   0  0  0  0  0  0  0  0  0  0  0  0
   -4.0950   -2.0396    1.8347 H   0  0  0  0  0  0  0  0  0  0  0  0
   -3.8452   -0.3892    2.3912 H   0  0  0  0  0  0  0  0  0  0  0  0
   -0.9139   -2.0367   -1.7405 H   0  0  0  0  0  0  0  0  0  0  0  0
    0.4637   -3.0482   -1.3811 H   0  0  0  0  0  0  0  0  0  0  0  0
    0.6165   -1.7334   -2.5381 H   0  0  0  0  0  0  0  0  0  0  0  0
   -4.0822    0.7702   -2.3399 H   0  0  0  0  0  0  0  0  0  0  0  0
   -3.8887    2.3753   -1.6461 H   0  0  0  0  0  0  0  0  0  0  0  0
   -0.0927    1.0458    1.5426 H   0  0  0  0  0  0  0  0  0  0  0  0
   -0.0518    2.3704    0.3862 H   0  0  0  0  0  0  0  0  0  0  0  0
    1.4226    1.5053    0.7684 H   0  0  0  0  0  0  0  0  0  0  0  0
   -1.9396   -2.1450    1.6569 H   0  0  0  0  0  0  0  0  0  0  0  0
   -1.6418    1.8477   -2.1743 H   0  0  0  0  0  0  0  0  0  0  0  0
   -5.8415    1.2696    2.1891 H   0  0  0  0  0  0  0  0  0  0  0  0
   -6.3496   -1.5250    1.0551 H   0  0  0  0  0  0  0  0  0  0  0  0
   -6.1517   -1.0847    2.7233 H   0  0  0  0  0  0  0  0  0  0  0  0
   -5.1926   -1.8625   -0.8573 H   0  0  0  0  0  0  0  0  0  0  0  0
   -3.6609   -2.6399   -0.5631 H   0  0  0  0  0  0  0  0  0  0  0  0
   -3.7879   -1.4258   -1.8278 H   0  0  0  0  0  0  0  0  0  0  0  0
    5.0808   -2.5959   -0.9127 H   0  0  0  0  0  0  0  0  0  0  0  0
    4.7010   -1.0348   -1.5990 H   0  0  0  0  0  0  0  0  0  0  0  0
   -7.0958    2.8899    0.2080 H   0  0  0  0  0  0  0  0  0  0  0  0
   -5.8669    3.0624   -1.0385 H   0  0  0  0  0  0  0  0  0  0  0  0
   -5.4186    3.1877    0.6718 H   0  0  0  0  0  0  0  0  0  0  0  0
   -6.7448   -0.5753   -1.0447 H   0  0  0  0  0  0  0  0  0  0  0  0
   -6.2849    0.7647   -2.1012 H   0  0  0  0  0  0  0  0  0  0  0  0
   -7.6918    0.8935   -1.0659 H   0  0  0  0  0  0  0  0  0  0  0  0
    3.5643   -3.7985    0.4258 H   0  0  0  0  0  0  0  0  0  0  0  0
    2.6585   -2.6289    1.3809 H   0  0  0  0  0  0  0  0  0  0  0  0
    1.8529   -3.6754    0.1777 H   0  0  0  0  0  0  0  0  0  0  0  0
   -8.0710   -0.0326    1.0093 H   0  0  0  0  0  0  0  0  0  0  0  0
    4.9449   -1.6770    1.3799 H   0  0  0  0  0  0  0  0  0  0  0  0
    4.4248   -0.1229    0.7911 H   0  0  0  0  0  0  0  0  0  0  0  0
    7.1566   -1.4562    0.2763 H   0  0  0  0  0  0  0  0  0  0  0  0
    6.0572    2.0424    1.7428 H   0  0  0  0  0  0  0  0  0  0  0  0
    5.1674    1.7106    0.2297 H   0  0  0  0  0  0  0  0  0  0  0  0
    8.7438    1.5343   -0.5101 H   0  0  0  0  0  0  0  0  0  0  0  0
    9.0832   -0.0291    0.2293 H   0  0  0  0  0  0  0  0  0  0  0  0
    6.1715    3.7170    0.2239 H   0  0  0  0  0  0  0  0  0  0  0  0
    8.6293    2.4328    1.5534 H   0  0  0  0  0  0  0  0  0  0  0  0
  1 22  1  0  0  0  0
  1 72  1  0  0  0  0
  2 32  1  0  0  0  0
  2 80  1  0  0  0  0
  3 33  1  0  0  0  0
  3 81  1  0  0  0  0
  4  5  1  0  0  0  0
  4  6  1  0  0  0  0
  4 13  1  0  0  0  0
  4 17  1  0  0  0  0
  5  8  1  0  0  0  0
  5  9  1  0  0  0  0
  5 19  1  0  0  0  0
  6 11  1  0  0  0  0
  6 15  1  0  0  0  0
  6 34  1  0  0  0  0
  7 10  1  0  0  0  0
  7 12  1  0  0  0  0
  7 16  1  0  0  0  0
  7 24  1  0  0  0  0
  8 11  1  0  0  0  0
  8 35  1  0  0  0  0
  8 36  1  0  0  0  0
  9 12  1  0  0  0  0
  9 21  2  0  0  0  0
 10 14  1  0  0  0  0
 10 18  1  0  0  0  0
 10 37  1  0  0  0  0
 11 38  1  0  0  0  0
 11 39  1  0  0  0  0
 12 20  2  0  0  0  0
 13 20  1  0  0  0  0
 13 40  1  0  0  0  0
 13 41  1  0  0  0  0
 14 22  1  0  0  0  0
 14 26  1  0  0  0  0
 14 27  1  0  0  0  0
 15 25  1  0  0  0  0
 15 28  1  0  0  0  0
 15 42  1  0  0  0  0
 16 23  1  0  0  0  0
 16 43  1  0  0  0  0
 16 44  1  0  0  0  0
 17 45  1  0  0  0  0
 17 46  1  0  0  0  0
 17 47  1  0  0  0  0
 18 21  1  0  0  0  0
 18 48  1  0  0  0  0
 18 49  1  0  0  0  0
 19 50  1  0  0  0  0
 19 51  1  0  0  0  0
 19 52  1  0  0  0  0
 20 53  1  0  0  0  0
 21 54  1  0  0  0  0
 22 23  1  0  0  0  0
 22 55  1  0  0  0  0
 23 56  1  0  0  0  0
 23 57  1  0  0  0  0
 24 58  1  0  0  0  0
 24 59  1  0  0  0  0
 24 60  1  0  0  0  0
 25 29  1  0  0  0  0
 25 61  1  0  0  0  0
 25 62  1  0  0  0  0
 26 63  1  0  0  0  0
 26 64  1  0  0  0  0
 26 65  1  0  0  0  0
 27 66  1  0  0  0  0
 27 67  1  0  0  0  0
 27 68  1  0  0  0  0
 28 69  1  0  0  0  0
 28 70  1  0  0  0  0
 28 71  1  0  0  0  0
 29 30  1  0  0  0  0
 29 73  1  0  0  0  0
 29 74  1  0  0  0  0
 30 31  2  0  0  0  0
 30 75  1  0  0  0  0
 31 32  1  0  0  0  0
 31 33  1  0  0  0  0
 32 76  1  0  0  0  0
 32 77  1  0  0  0  0
 33 78  1  0  0  0  0
 33 79  1  0  0  0  0
M  END
> <PUBCHEM_COMPOUND_CID>
21124247

> <PUBCHEM_CONFORMER_RMSD>
1

> <PUBCHEM_CONFORMER_DIVERSEORDER>
4
9
8
10
6
1
3
5
7
2

> <PUBCHEM_MMFF94_PARTIAL_CHARGES>
23
1 -0.68
12 -0.14
13 0.14
18 0.14
2 -0.68
20 -0.29
21 -0.29
22 0.28
29 0.14
3 -0.68
30 -0.29
31 -0.28
32 0.42
33 0.42
5 0.14
53 0.15
54 0.15
7 0.14
72 0.4
75 0.15
80 0.4
81 0.4
9 -0.14

> <PUBCHEM_EFFECTIVE_ROTOR_COUNT>
7.8

> <PUBCHEM_PHARMACOPHORE_FEATURES>
13
1 1 acceptor
1 1 donor
1 2 acceptor
1 2 donor
1 28 hydrophobe
1 3 acceptor
1 3 donor
3 14 26 27 hydrophobe
4 15 25 29 30 hydrophobe
5 4 5 6 8 11 rings
6 4 5 9 12 13 20 rings
6 7 10 14 16 22 23 rings
6 7 9 10 12 18 21 rings

> <PUBCHEM_HEAVY_ATOM_COUNT>
33

> <PUBCHEM_ATOM_DEF_STEREO_COUNT>
7

> <PUBCHEM_ATOM_UDEF_STEREO_COUNT>
0

> <PUBCHEM_BOND_DEF_STEREO_COUNT>
0

> <PUBCHEM_BOND_UDEF_STEREO_COUNT>
0

> <PUBCHEM_ISOTOPIC_ATOM_COUNT>
0

> <PUBCHEM_COMPONENT_COUNT>
1

> <PUBCHEM_CACTVS_TAUTO_COUNT>
1

> <PUBCHEM_CONFORMER_ID>
0142549700000004

> <PUBCHEM_MMFF94_ENERGY>
120.0851

> <PUBCHEM_FEATURE_SELFOVERLAP>
66.073

> <PUBCHEM_SHAPE_FINGERPRINT>
10 15 18333731312641872690
10533779 47 18261675866795092594
10693767 8 8935006936876396100
10835480 77 18337387149827859868
10906281 52 17274833440808741495
11315181 36 17703787025388162159
12011746 2 11383823845148227463
12035758 1 17967822642905063211
12236239 1 16200146543979096071
12838862 33 17531240622786612253
13383668 362 17970643002458796777
13782708 43 8358251544856348236
13811026 1 18040997366864128143
14840074 17 17203324485782395740
14849402 71 18131069359359577073
14856354 85 16702294681099829269
15183329 4 12535352294666863598
15198563 99 11455904550332141794
15840311 113 18343308032870384382
16994733 274 17132117918213258224
18603816 31 13984955056014375241
2026 5 11386356029218066536
21130935 74 18188776033200579315
21521721 280 18343023263601373682
21792934 111 17894912910202289260
23559900 14 17895204272599955591
23576562 1 14476375188882853601
24771293 8 18408322198692205652
3004659 81 16950864521818463558
3383291 50 16660369202920396802
34797466 226 18059859420230282614
350125 39 17822303340390159215
394071 54 18272374166039773780
397830 11 18334861631938343426
4093350 32 17703515407044865654
4169191 19 18343303656288543377
4340502 62 18113621158056981546
4403749 210 18413103979188934431
4616759 239 18260551112916121657
504579 68 14620795990078786876
504843 32 17846494880618477054
5104073 3 18042122055469075666
5364581 5 18189056550088099220
57527293 21 18271516499198857598
59682541 35 18260552237965352938
6608658 132 15482683342171205922

> <PUBCHEM_SHAPE_MULTIPOLES>
661.52
22.07
2.53
1.58
24.59
0.04
0.07
-12.72
-9.92
2.06
-0.02
-1.16
-0.01
1.71

> <PUBCHEM_SHAPE_SELFOVERLAP>
1386.027

> <PUBCHEM_SHAPE_VOLUME>
372.7

> <PUBCHEM_COORDINATE_TYPE>
2
5
10

$$$$
