91884885
  -OEChem-09112013393D

 77 80  0     1  0  0  0  0  0999 V2000
   -1.4322    0.5962   -2.7304 O   0  0  0  0  0  0  0  0  0  0  0  0
   -0.2312    2.9837   -2.1808 O   0  0  0  0  0  0  0  0  0  0  0  0
   -1.6618   -0.8541    2.8374 O   0  0  0  0  0  0  0  0  0  0  0  0
   -7.6327   -0.9539    0.7056 O   0  0  0  0  0  0  0  0  0  0  0  0
    5.9772    0.9940    1.2381 O   0  0  0  0  0  0  0  0  0  0  0  0
    8.7015   -1.4332   -1.4089 O   0  0  0  0  0  0  0  0  0  0  0  0
    7.3102   -3.2154   -1.6028 O   0  0  0  0  0  0  0  0  0  0  0  0
   -0.5976    1.7743   -0.0696 C   0  0  2  0  0  0  0  0  0  0  0  0
    0.5615    0.9839    0.6107 C   0  0  1  0  0  0  0  0  0  0  0  0
   -3.4157   -0.9479    0.4456 C   0  0  1  0  0  0  0  0  0  0  0  0
   -4.3543   -0.2763   -0.6365 C   0  0  1  0  0  0  0  0  0  0  0  0
   -1.7254    0.8004   -0.3595 C   0  0  0  0  0  0  0  0  0  0  0  0
   -2.1446   -0.0614    0.6084 C   0  0  0  0  0  0  0  0  0  0  0  0
    1.7096    2.0268    0.6618 C   0  0  2  0  0  0  0  0  0  0  0  0
    0.0685    0.5025    1.9688 C   0  0  0  0  0  0  0  0  0  0  0  0
   -3.5690   -0.0628   -1.9334 C   0  0  0  0  0  0  0  0  0  0  0  0
   -5.7781   -0.8940   -0.8626 C   0  0  0  0  0  0  0  0  0  0  0  0
   -2.3922    0.8876   -1.7133 C   0  0  2  0  0  0  0  0  0  0  0  0
    0.2203    2.5010   -1.1501 C   0  0  0  0  0  0  0  0  0  0  0  0
   -4.2653   -1.0489    1.7435 C   0  0  0  0  0  0  0  0  0  0  0  0
    1.6784    2.6522   -0.7451 C   0  0  0  0  0  0  0  0  0  0  0  0
   -1.2910   -0.1880    1.8708 C   0  0  0  0  0  0  0  0  0  0  0  0
   -1.2137    2.9402    0.7554 C   0  0  0  0  0  0  0  0  0  0  0  0
    1.0205   -0.2649   -0.2175 C   0  0  0  0  0  0  0  0  0  0  0  0
   -2.8860   -2.3483    0.0664 C   0  0  0  0  0  0  0  0  0  0  0  0
   -5.5859   -1.7852    1.5691 C   0  0  0  0  0  0  0  0  0  0  0  0
   -6.4344   -1.1546    0.4986 C   0  0  0  0  0  0  0  0  0  0  0  0
    3.0580    1.5106    1.0476 C   0  0  0  0  0  0  0  0  0  0  0  0
   -5.8092   -2.1987   -1.6712 C   0  0  0  0  0  0  0  0  0  0  0  0
   -6.6672    0.1300   -1.6171 C   0  0  0  0  0  0  0  0  0  0  0  0
    3.3375    1.5602    2.5238 C   0  0  0  0  0  0  0  0  0  0  0  0
    3.8890    1.0379    0.1023 C   0  0  0  0  0  0  0  0  0  0  0  0
    5.2674    0.5269    0.3521 C   0  0  0  0  0  0  0  0  0  0  0  0
    5.7505   -0.5530   -0.6013 C   0  0  0  0  0  0  0  0  0  0  0  0
    6.7940   -1.4817    0.0305 C   0  0  1  0  0  0  0  0  0  0  0  0
    6.1412   -2.5320    0.9302 C   0  0  0  0  0  0  0  0  0  0  0  0
    7.6021   -2.1543   -1.0668 C   0  0  0  0  0  0  0  0  0  0  0  0
   -4.5621    0.7331   -0.2396 H   0  0  0  0  0  0  0  0  0  0  0  0
    1.4530    2.8243    1.3728 H   0  0  0  0  0  0  0  0  0  0  0  0
   -0.0309    1.3293    2.6809 H   0  0  0  0  0  0  0  0  0  0  0  0
    0.7741   -0.2194    2.3969 H   0  0  0  0  0  0  0  0  0  0  0  0
   -4.1937    0.3709   -2.7212 H   0  0  0  0  0  0  0  0  0  0  0  0
   -3.2240   -1.0169   -2.3487 H   0  0  0  0  0  0  0  0  0  0  0  0
   -2.7402    1.9178   -1.8584 H   0  0  0  0  0  0  0  0  0  0  0  0
   -4.4638   -0.0393    2.1281 H   0  0  0  0  0  0  0  0  0  0  0  0
   -3.7326   -1.5903    2.5295 H   0  0  0  0  0  0  0  0  0  0  0  0
    2.2598    2.1768   -1.5339 H   0  0  0  0  0  0  0  0  0  0  0  0
    1.9342    3.7156   -0.6985 H   0  0  0  0  0  0  0  0  0  0  0  0
   -0.4828    3.7124    1.0171 H   0  0  0  0  0  0  0  0  0  0  0  0
   -1.6844    2.6064    1.6858 H   0  0  0  0  0  0  0  0  0  0  0  0
   -1.9918    3.4482    0.1702 H   0  0  0  0  0  0  0  0  0  0  0  0
    1.3536   -0.0027   -1.2264 H   0  0  0  0  0  0  0  0  0  0  0  0
    0.2239   -1.0051   -0.3413 H   0  0  0  0  0  0  0  0  0  0  0  0
    1.8340   -0.7995    0.2849 H   0  0  0  0  0  0  0  0  0  0  0  0
   -2.2186   -2.7379    0.8455 H   0  0  0  0  0  0  0  0  0  0  0  0
   -2.3065   -2.3380   -0.8624 H   0  0  0  0  0  0  0  0  0  0  0  0
   -3.6745   -3.0907   -0.0442 H   0  0  0  0  0  0  0  0  0  0  0  0
   -6.1401   -1.7489    2.5144 H   0  0  0  0  0  0  0  0  0  0  0  0
   -5.4380   -2.8411    1.3251 H   0  0  0  0  0  0  0  0  0  0  0  0
   -6.8444   -2.4966   -1.8809 H   0  0  0  0  0  0  0  0  0  0  0  0
   -7.7023   -0.2229   -1.7031 H   0  0  0  0  0  0  0  0  0  0  0  0
   -6.7004    1.0907   -1.0904 H   0  0  0  0  0  0  0  0  0  0  0  0
   -5.3672   -3.0418   -1.1406 H   0  0  0  0  0  0  0  0  0  0  0  0
   -6.3154    0.3116   -2.6368 H   0  0  0  0  0  0  0  0  0  0  0  0
   -5.3037   -2.0942   -2.6361 H   0  0  0  0  0  0  0  0  0  0  0  0
   -1.8602    0.7494   -3.5901 H   0  0  0  0  0  0  0  0  0  0  0  0
    3.6061    2.5795    2.8194 H   0  0  0  0  0  0  0  0  0  0  0  0
    4.1443    0.8882    2.8266 H   0  0  0  0  0  0  0  0  0  0  0  0
    2.4634    1.2605    3.1078 H   0  0  0  0  0  0  0  0  0  0  0  0
    3.6062    0.9354   -0.9371 H   0  0  0  0  0  0  0  0  0  0  0  0
    4.8955   -1.1394   -0.9593 H   0  0  0  0  0  0  0  0  0  0  0  0
    6.1746   -0.0349   -1.4706 H   0  0  0  0  0  0  0  0  0  0  0  0
    7.5014   -0.9160    0.6500 H   0  0  0  0  0  0  0  0  0  0  0  0
    5.4206   -3.1439    0.3765 H   0  0  0  0  0  0  0  0  0  0  0  0
    6.8962   -3.2089    1.3451 H   0  0  0  0  0  0  0  0  0  0  0  0
    5.6146   -2.0593    1.7656 H   0  0  0  0  0  0  0  0  0  0  0  0
    9.2164   -1.8680   -2.1216 H   0  0  0  0  0  0  0  0  0  0  0  0
  1 18  1  0  0  0  0
  1 66  1  0  0  0  0
  2 19  2  0  0  0  0
  3 22  2  0  0  0  0
  4 27  2  0  0  0  0
  5 33  2  0  0  0  0
  6 37  1  0  0  0  0
  6 77  1  0  0  0  0
  7 37  2  0  0  0  0
  8  9  1  0  0  0  0
  8 12  1  0  0  0  0
  8 19  1  0  0  0  0
  8 23  1  0  0  0  0
  9 14  1  0  0  0  0
  9 15  1  0  0  0  0
  9 24  1  0  0  0  0
 10 11  1  0  0  0  0
 10 13  1  0  0  0  0
 10 20  1  0  0  0  0
 10 25  1  0  0  0  0
 11 16  1  0  0  0  0
 11 17  1  0  0  0  0
 11 38  1  0  0  0  0
 12 13  2  0  0  0  0
 12 18  1  0  0  0  0
 13 22  1  0  0  0  0
 14 21  1  0  0  0  0
 14 28  1  0  0  0  0
 14 39  1  0  0  0  0
 15 22  1  0  0  0  0
 15 40  1  0  0  0  0
 15 41  1  0  0  0  0
 16 18  1  0  0  0  0
 16 42  1  0  0  0  0
 16 43  1  0  0  0  0
 17 27  1  0  0  0  0
 17 29  1  0  0  0  0
 17 30  1  0  0  0  0
 18 44  1  0  0  0  0
 19 21  1  0  0  0  0
 20 26  1  0  0  0  0
 20 45  1  0  0  0  0
 20 46  1  0  0  0  0
 21 47  1  0  0  0  0
 21 48  1  0  0  0  0
 23 49  1  0  0  0  0
 23 50  1  0  0  0  0
 23 51  1  0  0  0  0
 24 52  1  0  0  0  0
 24 53  1  0  0  0  0
 24 54  1  0  0  0  0
 25 55  1  0  0  0  0
 25 56  1  0  0  0  0
 25 57  1  0  0  0  0
 26 27  1  0  0  0  0
 26 58  1  0  0  0  0
 26 59  1  0  0  0  0
 28 31  1  0  0  0  0
 28 32  2  0  0  0  0
 29 60  1  0  0  0  0
 29 63  1  0  0  0  0
 29 65  1  0  0  0  0
 30 61  1  0  0  0  0
 30 62  1  0  0  0  0
 30 64  1  0  0  0  0
 31 67  1  0  0  0  0
 31 68  1  0  0  0  0
 31 69  1  0  0  0  0
 32 33  1  0  0  0  0
 32 70  1  0  0  0  0
 33 34  1  0  0  0  0
 34 35  1  0  0  0  0
 34 71  1  0  0  0  0
 34 72  1  0  0  0  0
 35 36  1  0  0  0  0
 35 37  1  0  0  0  0
 35 73  1  0  0  0  0
 36 74  1  0  0  0  0
 36 75  1  0  0  0  0
 36 76  1  0  0  0  0
M  END
> <PUBCHEM_COMPOUND_CID>
91884885

> <PUBCHEM_CONFORMER_RMSD>
1

> <PUBCHEM_CONFORMER_DIVERSEORDER>
1
22
59
32
48
4
27
51
11
8
23
43
58
19
57
64
29
20
47
54
13
56
26
53
44
46
60
40
55
52
12
62
5
63
9
35
30
61
45
7
34
50
39
41
17
25
10
15
3
18
36
37
21
38
14
42
2
49
24
28
16
31
33
6

> <PUBCHEM_MMFF94_PARTIAL_CHARGES>
30
1 -0.68
10 0.14
12 -0.28
13 -0.12
14 0.14
15 0.06
17 0.06
18 0.42
19 0.45
2 -0.57
21 0.06
22 0.49
26 0.06
27 0.45
28 -0.28
3 -0.57
31 0.14
32 -0.14
33 0.49
34 0.06
35 0.06
37 0.66
4 -0.57
5 -0.57
6 -0.65
66 0.4
7 -0.57
70 0.15
77 0.5
8 0.2

> <PUBCHEM_EFFECTIVE_ROTOR_COUNT>
6.6

> <PUBCHEM_PHARMACOPHORE_FEATURES>
16
1 1 acceptor
1 1 donor
1 2 acceptor
1 3 acceptor
1 31 hydrophobe
1 36 hydrophobe
1 4 acceptor
1 5 acceptor
1 6 acceptor
1 7 acceptor
3 17 29 30 hydrophobe
3 6 7 37 anion
5 8 9 14 19 21 rings
6 10 11 12 13 16 18 rings
6 10 11 17 20 26 27 rings
6 8 9 12 13 15 22 rings

> <PUBCHEM_HEAVY_ATOM_COUNT>
37

> <PUBCHEM_ATOM_DEF_STEREO_COUNT>
5

> <PUBCHEM_ATOM_UDEF_STEREO_COUNT>
2

> <PUBCHEM_BOND_DEF_STEREO_COUNT>
1

> <PUBCHEM_BOND_UDEF_STEREO_COUNT>
0

> <PUBCHEM_ISOTOPIC_ATOM_COUNT>
0

> <PUBCHEM_COMPONENT_COUNT>
1

> <PUBCHEM_CACTVS_TAUTO_COUNT>
192

> <PUBCHEM_CONFORMER_ID>
057A0D5500000001

> <PUBCHEM_MMFF94_ENERGY>
129.2835

> <PUBCHEM_FEATURE_SELFOVERLAP>
81.356

> <PUBCHEM_SHAPE_FINGERPRINT>
10076449 9 17968104117892394922
10319688 67 12967125012671656990
10673678 19 12757150156719686288
10838868 229 15409233702472898286
11273773 42 13334739020363615734
11331351 85 18412821417501348717
11621639 254 13048524126836169546
12133447 93 17603853482954953341
12236239 1 17131270293944161193
12422481 6 16845582997745301612
12760667 363 18343021086052506418
131258 43 18338247033274458932
13533116 47 18059854013135423976
13673619 4 18342176653239652848
13782708 43 18131063844562864092
13811026 1 18341324531727736560
15082195 135 14851606588142650164
15131766 46 16698339874908698825
15183329 4 16081085970383388898
15198563 99 17749665199348885916
15324884 4 17534359013482390784
15475509 8 18113051628034347173
15510800 12 18343027658038817542
15685185 35 12468940718481340574
16994733 274 12107777519375788351
18603816 31 17703782652384182807
19246450 95 16486423066023635849
19315958 150 18200029685266323968
19958102 18 17385716976941680074
20105231 36 17530969099027866731
21130935 74 17916018143693800139
21267235 1 16950840427795081571
21307412 95 18187654617102235698
21682296 61 18411136952580257799
21814621 53 18130780205323628681
22224240 67 11527951157795473049
23559900 14 17459462445682231409
23569917 315 18268997656432570863
23569943 247 18201998794248446655
2838139 119 11602806974756016444
32027 91 18272365429459154578
3383291 50 18411978057876074162
34797466 226 17676486198646495260
350125 39 16733528508311137365
3504750 166 17846781784860265729
4093350 32 18265890444476224968
4340502 62 12391527398381742121
437815 12 18333448767870515909
44880168 125 18340196479430933951
474113 269 17346874529503466597
5104073 3 15841263878134633306
513202 73 18131069311930086049
5265222 85 16226618505708402755
563151 40 17605833617049416429
57816373 69 17917715716906663406
59755656 215 17967523580100845795
6608658 132 14924221578451045326
9896288 288 16055212172627665498

> <PUBCHEM_SHAPE_MULTIPOLES>
720.36
20
3.07
2.3
21.67
0.14
0.16
-20.3
-4.73
3.55
-0.73
-1.05
0.12
2.49

> <PUBCHEM_SHAPE_SELFOVERLAP>
1540.491

> <PUBCHEM_SHAPE_VOLUME>
394.2

> <PUBCHEM_COORDINATE_TYPE>
2
5
10

$$$$
