101600071
  -OEChem-09122003573D

 84 87  0     1  0  0  0  0  0999 V2000
   -0.9257    3.9105    1.2860 O   0  0  0  0  0  0  0  0  0  0  0  0
   -2.8991    2.9202   -0.9133 O   0  0  0  0  0  0  0  0  0  0  0  0
    2.8204    1.9484   -1.6420 O   0  0  0  0  0  0  0  0  0  0  0  0
   -0.9176   -2.4800   -0.2729 O   0  0  0  0  0  0  0  0  0  0  0  0
   -7.4077   -2.7510    0.6628 O   0  0  0  0  0  0  0  0  0  0  0  0
    5.4420    0.2339   -1.7102 O   0  0  0  0  0  0  0  0  0  0  0  0
    7.7888   -3.4292   -0.2205 O   0  0  0  0  0  0  0  0  0  0  0  0
    8.3784   -2.3085    1.6629 O   0  0  0  0  0  0  0  0  0  0  0  0
   -0.6797    1.5262    0.6401 C   0  0  2  0  0  0  0  0  0  0  0  0
    0.5055    0.8296   -0.1018 C   0  0  1  0  0  0  0  0  0  0  0  0
    1.7294    1.6002    0.4561 C   0  0  2  0  0  0  0  0  0  0  0  0
   -3.5052   -1.0697   -0.4105 C   0  0  1  0  0  0  0  0  0  0  0  0
   -2.0035    0.9371    0.1343 C   0  0  0  0  0  0  0  0  0  0  0  0
   -0.3009    3.0110    0.3852 C   0  0  2  0  0  0  0  0  0  0  0  0
   -4.6526   -0.1501    0.1738 C   0  0  2  0  0  0  0  0  0  0  0  0
   -2.1307   -0.4009   -0.0930 C   0  0  0  0  0  0  0  0  0  0  0  0
    1.2357    3.0615    0.5445 C   0  0  0  0  0  0  0  0  0  0  0  0
    0.4876   -0.6538    0.2321 C   0  0  0  0  0  0  0  0  0  0  0  0
   -6.1254   -0.7078    0.1383 C   0  0  0  0  0  0  0  0  0  0  0  0
   -3.1801    1.8913    0.0340 C   0  0  2  0  0  0  0  0  0  0  0  0
   -4.5105    1.2666   -0.3849 C   0  0  0  0  0  0  0  0  0  0  0  0
    3.0385    1.4644   -0.3127 C   0  0  1  0  0  0  0  0  0  0  0  0
   -3.6747   -2.4694    0.2496 C   0  0  0  0  0  0  0  0  0  0  0  0
   -0.7168    1.2926    2.1873 C   0  0  0  0  0  0  0  0  0  0  0  0
    0.4478    0.9782   -1.6566 C   0  0  0  0  0  0  0  0  0  0  0  0
   -0.8735   -1.2679   -0.0604 C   0  0  0  0  0  0  0  0  0  0  0  0
   -6.1267   -2.1305    0.7604 C   0  0  2  0  0  0  0  0  0  0  0  0
   -5.0818   -3.0516    0.1502 C   0  0  0  0  0  0  0  0  0  0  0  0
   -3.5280   -1.2323   -1.9473 C   0  0  0  0  0  0  0  0  0  0  0  0
   -7.0393    0.1770    1.0343 C   0  0  0  0  0  0  0  0  0  0  0  0
   -6.7719   -0.6941   -1.2625 C   0  0  0  0  0  0  0  0  0  0  0  0
    3.4390   -0.0189   -0.4001 C   0  0  0  0  0  0  0  0  0  0  0  0
    4.1312    2.3165    0.3442 C   0  0  0  0  0  0  0  0  0  0  0  0
    4.9138   -0.2363   -0.7021 C   0  0  0  0  0  0  0  0  0  0  0  0
    5.7186   -1.0464    0.2948 C   0  0  0  0  0  0  0  0  0  0  0  0
    7.1948   -1.1182   -0.1037 C   0  0  1  0  0  0  0  0  0  0  0  0
    7.9321    0.1699    0.2635 C   0  0  0  0  0  0  0  0  0  0  0  0
    7.8476   -2.3185    0.5601 C   0  0  0  0  0  0  0  0  0  0  0  0
    1.9228    1.2555    1.4818 H   0  0  0  0  0  0  0  0  0  0  0  0
   -0.5609    3.3285   -0.6290 H   0  0  0  0  0  0  0  0  0  0  0  0
   -4.4294   -0.0664    1.2522 H   0  0  0  0  0  0  0  0  0  0  0  0
    1.5276    3.5086    1.5022 H   0  0  0  0  0  0  0  0  0  0  0  0
    1.6452    3.7046   -0.2424 H   0  0  0  0  0  0  0  0  0  0  0  0
    0.7337   -0.8528    1.2803 H   0  0  0  0  0  0  0  0  0  0  0  0
    1.1918   -1.2211   -0.3790 H   0  0  0  0  0  0  0  0  0  0  0  0
   -3.3135    2.3675    1.0132 H   0  0  0  0  0  0  0  0  0  0  0  0
   -5.3055    1.9273   -0.0236 H   0  0  0  0  0  0  0  0  0  0  0  0
   -4.6158    1.2782   -1.4757 H   0  0  0  0  0  0  0  0  0  0  0  0
   -3.3872   -2.4139    1.3080 H   0  0  0  0  0  0  0  0  0  0  0  0
   -3.0204   -3.2105   -0.2184 H   0  0  0  0  0  0  0  0  0  0  0  0
   -1.5678    1.8161    2.6411 H   0  0  0  0  0  0  0  0  0  0  0  0
    0.1790    1.6592    2.6972 H   0  0  0  0  0  0  0  0  0  0  0  0
   -0.8306    0.2364    2.4534 H   0  0  0  0  0  0  0  0  0  0  0  0
    0.5316    2.0129   -2.0009 H   0  0  0  0  0  0  0  0  0  0  0  0
   -0.5118    0.6306   -2.0555 H   0  0  0  0  0  0  0  0  0  0  0  0
    1.1898    0.3615   -2.1713 H   0  0  0  0  0  0  0  0  0  0  0  0
   -5.9107   -2.0415    1.8338 H   0  0  0  0  0  0  0  0  0  0  0  0
   -5.3368   -3.2871   -0.8892 H   0  0  0  0  0  0  0  0  0  0  0  0
   -5.1053   -4.0188    0.6691 H   0  0  0  0  0  0  0  0  0  0  0  0
   -4.4108   -1.7560   -2.3099 H   0  0  0  0  0  0  0  0  0  0  0  0
   -2.6716   -1.8262   -2.2907 H   0  0  0  0  0  0  0  0  0  0  0  0
   -3.4683   -0.2733   -2.4715 H   0  0  0  0  0  0  0  0  0  0  0  0
   -8.0318   -0.2713    1.1591 H   0  0  0  0  0  0  0  0  0  0  0  0
   -7.1982    1.1711    0.6051 H   0  0  0  0  0  0  0  0  0  0  0  0
   -6.6109    0.3058    2.0346 H   0  0  0  0  0  0  0  0  0  0  0  0
   -7.8476   -0.8998   -1.1980 H   0  0  0  0  0  0  0  0  0  0  0  0
   -6.3634   -1.4541   -1.9274 H   0  0  0  0  0  0  0  0  0  0  0  0
   -6.6690    0.2796   -1.7507 H   0  0  0  0  0  0  0  0  0  0  0  0
    3.2356   -0.5291    0.5483 H   0  0  0  0  0  0  0  0  0  0  0  0
    2.9244   -0.5446   -1.2083 H   0  0  0  0  0  0  0  0  0  0  0  0
   -0.5765    4.7989    1.1008 H   0  0  0  0  0  0  0  0  0  0  0  0
    5.0535    2.3289   -0.2457 H   0  0  0  0  0  0  0  0  0  0  0  0
    4.3661    1.9596    1.3525 H   0  0  0  0  0  0  0  0  0  0  0  0
    3.8400    3.3697    0.4149 H   0  0  0  0  0  0  0  0  0  0  0  0
   -3.6265    3.5644   -0.8730 H   0  0  0  0  0  0  0  0  0  0  0  0
    3.6549    1.8597   -2.1333 H   0  0  0  0  0  0  0  0  0  0  0  0
   -7.3535   -3.6128    1.1098 H   0  0  0  0  0  0  0  0  0  0  0  0
    5.2803   -2.0511    0.3216 H   0  0  0  0  0  0  0  0  0  0  0  0
    5.6040   -0.6002    1.2890 H   0  0  0  0  0  0  0  0  0  0  0  0
    7.3071   -1.2613   -1.1864 H   0  0  0  0  0  0  0  0  0  0  0  0
    7.5268    1.0334   -0.2724 H   0  0  0  0  0  0  0  0  0  0  0  0
    8.9957    0.0889    0.0129 H   0  0  0  0  0  0  0  0  0  0  0  0
    7.8657    0.3764    1.3376 H   0  0  0  0  0  0  0  0  0  0  0  0
    8.2149   -4.2010    0.2098 H   0  0  0  0  0  0  0  0  0  0  0  0
  1 14  1  0  0  0  0
  1 71  1  0  0  0  0
  2 20  1  0  0  0  0
  2 75  1  0  0  0  0
  3 22  1  0  0  0  0
  3 76  1  0  0  0  0
  4 26  2  0  0  0  0
  5 27  1  0  0  0  0
  5 77  1  0  0  0  0
  6 34  2  0  0  0  0
  7 38  1  0  0  0  0
  7 84  1  0  0  0  0
  8 38  2  0  0  0  0
  9 10  1  0  0  0  0
  9 13  1  0  0  0  0
  9 14  1  0  0  0  0
  9 24  1  0  0  0  0
 10 11  1  0  0  0  0
 10 18  1  0  0  0  0
 10 25  1  0  0  0  0
 11 17  1  0  0  0  0
 11 22  1  0  0  0  0
 11 39  1  0  0  0  0
 12 15  1  0  0  0  0
 12 16  1  0  0  0  0
 12 23  1  0  0  0  0
 12 29  1  0  0  0  0
 13 16  2  0  0  0  0
 13 20  1  0  0  0  0
 14 17  1  0  0  0  0
 14 40  1  0  0  0  0
 15 19  1  0  0  0  0
 15 21  1  0  0  0  0
 15 41  1  0  0  0  0
 16 26  1  0  0  0  0
 17 42  1  0  0  0  0
 17 43  1  0  0  0  0
 18 26  1  0  0  0  0
 18 44  1  0  0  0  0
 18 45  1  0  0  0  0
 19 27  1  0  0  0  0
 19 30  1  0  0  0  0
 19 31  1  0  0  0  0
 20 21  1  0  0  0  0
 20 46  1  0  0  0  0
 21 47  1  0  0  0  0
 21 48  1  0  0  0  0
 22 32  1  0  0  0  0
 22 33  1  0  0  0  0
 23 28  1  0  0  0  0
 23 49  1  0  0  0  0
 23 50  1  0  0  0  0
 24 51  1  0  0  0  0
 24 52  1  0  0  0  0
 24 53  1  0  0  0  0
 25 54  1  0  0  0  0
 25 55  1  0  0  0  0
 25 56  1  0  0  0  0
 27 28  1  0  0  0  0
 27 57  1  0  0  0  0
 28 58  1  0  0  0  0
 28 59  1  0  0  0  0
 29 60  1  0  0  0  0
 29 61  1  0  0  0  0
 29 62  1  0  0  0  0
 30 63  1  0  0  0  0
 30 64  1  0  0  0  0
 30 65  1  0  0  0  0
 31 66  1  0  0  0  0
 31 67  1  0  0  0  0
 31 68  1  0  0  0  0
 32 34  1  0  0  0  0
 32 69  1  0  0  0  0
 32 70  1  0  0  0  0
 33 72  1  0  0  0  0
 33 73  1  0  0  0  0
 33 74  1  0  0  0  0
 34 35  1  0  0  0  0
 35 36  1  0  0  0  0
 35 78  1  0  0  0  0
 35 79  1  0  0  0  0
 36 37  1  0  0  0  0
 36 38  1  0  0  0  0
 36 80  1  0  0  0  0
 37 81  1  0  0  0  0
 37 82  1  0  0  0  0
 37 83  1  0  0  0  0
M  END
> <PUBCHEM_COMPOUND_CID>
101600071

> <PUBCHEM_CONFORMER_RMSD>
1

> <PUBCHEM_CONFORMER_DIVERSEORDER>
1
14
50
67
55
15
66
57
38
48
34
6
52
41
17
5
10
36
27
65
64
74
43
72
26
35
40
68
63
60
54
20
75
39
56
18
69
47
12
49
24
62
46
61
71
28
29
53
9
42
51
58
44
73
37
3
32
21
19
59
33
25
30
70
16
7
45
4
31
13
76
22
8
23
2
77
11

> <PUBCHEM_MMFF94_PARTIAL_CHARGES>
28
1 -0.68
12 0.14
13 -0.28
14 0.28
16 -0.12
18 0.06
2 -0.68
20 0.42
22 0.28
26 0.49
27 0.28
3 -0.68
32 0.06
34 0.45
35 0.06
36 0.06
38 0.66
4 -0.57
5 -0.68
6 -0.57
7 -0.65
71 0.4
75 0.4
76 0.4
77 0.4
8 -0.57
84 0.5
9 0.14

> <PUBCHEM_EFFECTIVE_ROTOR_COUNT>
8

> <PUBCHEM_PHARMACOPHORE_FEATURES>
19
1 1 acceptor
1 1 donor
1 2 acceptor
1 2 donor
1 3 acceptor
1 3 donor
1 37 hydrophobe
1 4 acceptor
1 5 acceptor
1 5 donor
1 6 acceptor
1 7 acceptor
1 8 acceptor
3 19 30 31 hydrophobe
3 7 8 38 anion
5 9 10 11 14 17 rings
6 12 13 15 16 20 21 rings
6 12 15 19 23 27 28 rings
6 9 10 13 16 18 26 rings

> <PUBCHEM_HEAVY_ATOM_COUNT>
38

> <PUBCHEM_ATOM_DEF_STEREO_COUNT>
8

> <PUBCHEM_ATOM_UDEF_STEREO_COUNT>
2

> <PUBCHEM_BOND_DEF_STEREO_COUNT>
0

> <PUBCHEM_BOND_UDEF_STEREO_COUNT>
0

> <PUBCHEM_ISOTOPIC_ATOM_COUNT>
0

> <PUBCHEM_COMPONENT_COUNT>
1

> <PUBCHEM_CACTVS_TAUTO_COUNT>
12

> <PUBCHEM_CONFORMER_ID>
060E4B4700000001

> <PUBCHEM_MMFF94_ENERGY>
150.8908

> <PUBCHEM_FEATURE_SELFOVERLAP>
96.578

> <PUBCHEM_SHAPE_FINGERPRINT>
10369192 42 8718828686894393467
10939801 23 18270961354249707486
11135609 99 18412544332307437326
11135926 11 18334854983867305719
11297750 10 18343291574947181256
11456790 92 18200328705675030179
11578080 2 16879329140491179511
117089 54 18044383952767659835
11963148 33 17908419509065697894
12120059 9 18197476597638979143
12166972 35 18113904904654576540
12422481 6 17418100952949091965
12645989 146 18270398433802505543
1361 4 18264490770394757962
13782708 43 18409731798120846229
13811026 1 18340481261389569688
14068700 675 18408888421685532444
14394314 77 18339645512884804416
15183329 4 18333448750748428742
15439362 3 17544753431002073821
15510800 12 18059303067689630078
16728300 4 18339356375470270366
17686467 74 18412818093934665888
17980427 23 12103843475160937569
18393751 57 14764338345787467748
19301679 30 18271532996769082398
19841028 212 18114177507273696410
2026 5 18410572916407221299
208703 8 18408880720693048346
21130935 74 18270119148863126139
21267235 1 18410578396103963208
21639891 77 17988921116039619008
21792934 111 18201995530009465993
22223350 30 17486482982352298707
23522609 53 18049479003751446717
23559900 14 18267861855575577673
23569943 247 18335139765404703075
23576562 1 12902414411292268411
24893992 56 18342746252408856747
3004659 81 18261109707846420240
32027 91 18270395122102560371
335352 9 18412826911016786069
3383291 50 18409165506952894690
350125 39 18410016550484774661
4149490 64 17677618738783579424
439807 62 18335423486458664078
4756088 132 17834107933387555426
5104073 3 18060143162923520920
54039377 194 18408046216562214091
5718773 13 18410011022882905194
57527293 21 17274532260749164060
6138700 20 18409730647006625539
9896288 288 17986679160111237673

> <PUBCHEM_SHAPE_MULTIPOLES>
735.07
21.32
3.83
1.32
26.37
0.47
-0.13
-21.05
2.65
0.7
0.84
-0.03
0.2
-0.67

> <PUBCHEM_SHAPE_SELFOVERLAP>
1560.593

> <PUBCHEM_SHAPE_VOLUME>
403.1

> <PUBCHEM_COORDINATE_TYPE>
2
5
10

$$$$
