11454258
  -OEChem-09122005183D

 70 73  0     1  0  0  0  0  0999 V2000
    3.6178   -0.8044   -2.2535 O   0  0  0  0  0  0  0  0  0  0  0  0
    1.1759    3.0448   -0.5855 O   0  0  0  0  0  0  0  0  0  0  0  0
   -1.0810   -2.9428    0.3485 O   0  0  0  0  0  0  0  0  0  0  0  0
   -1.2783    2.9864    0.1088 O   0  0  0  0  0  0  0  0  0  0  0  0
   -6.8918   -0.5407    1.4906 O   0  0  0  0  0  0  0  0  0  0  0  0
    7.6427    0.1881    2.2922 O   0  0  0  0  0  0  0  0  0  0  0  0
    7.9404    0.5304    0.0655 O   0  0  0  0  0  0  0  0  0  0  0  0
    1.3866   -0.4102   -0.3511 C   0  0  1  0  0  0  0  0  0  0  0  0
    0.6269    0.7985    0.2940 C   0  0  2  0  0  0  0  0  0  0  0  0
    2.8778   -0.0606   -0.1077 C   0  0  2  0  0  0  0  0  0  0  0  0
   -3.0108   -0.7862   -0.1856 C   0  0  1  0  0  0  0  0  0  0  0  0
   -0.8574    0.6356    0.0343 C   0  0  0  0  0  0  0  0  0  0  0  0
   -3.7564    0.5727    0.0895 C   0  0  2  0  0  0  0  0  0  0  0  0
   -1.4782   -0.5767    0.0471 C   0  0  0  0  0  0  0  0  0  0  0  0
    0.9153   -1.6852    0.3289 C   0  0  0  0  0  0  0  0  0  0  0  0
    2.9533    1.4279   -0.4878 C   0  0  0  0  0  0  0  0  0  0  0  0
    1.5174    1.9034   -0.3087 C   0  0  0  0  0  0  0  0  0  0  0  0
    3.9074   -0.9005   -0.8553 C   0  0  2  0  0  0  0  0  0  0  0  0
   -5.3209    0.5860    0.0196 C   0  0  0  0  0  0  0  0  0  0  0  0
    1.1266   -0.5522   -1.8914 C   0  0  0  0  0  0  0  0  0  0  0  0
   -0.5993   -1.8144    0.2485 C   0  0  0  0  0  0  0  0  0  0  0  0
   -3.0888    1.6937   -0.7036 C   0  0  0  0  0  0  0  0  0  0  0  0
   -3.6570   -1.8161    0.7841 C   0  0  0  0  0  0  0  0  0  0  0  0
    0.7806    0.9622    1.8301 C   0  0  0  0  0  0  0  0  0  0  0  0
   -1.6938    1.8630   -0.1660 C   0  0  0  0  0  0  0  0  0  0  0  0
   -3.1289   -1.2975   -1.6398 C   0  0  0  0  0  0  0  0  0  0  0  0
   -5.1697   -1.9361    0.6455 C   0  0  0  0  0  0  0  0  0  0  0  0
   -5.8645   -0.6102    0.8123 C   0  0  0  0  0  0  0  0  0  0  0  0
    5.3244   -0.3301   -0.6062 C   0  0  0  0  0  0  0  0  0  0  0  0
    3.7904   -2.3719   -0.4415 C   0  0  0  0  0  0  0  0  0  0  0  0
   -5.8557    1.8737    0.7012 C   0  0  0  0  0  0  0  0  0  0  0  0
   -5.9132    0.5454   -1.3958 C   0  0  0  0  0  0  0  0  0  0  0  0
    5.8266   -0.3438    0.8399 C   0  0  0  0  0  0  0  0  0  0  0  0
    7.2359    0.1677    0.9987 C   0  0  0  0  0  0  0  0  0  0  0  0
    3.0782   -0.1579    0.9664 H   0  0  0  0  0  0  0  0  0  0  0  0
   -3.5405    0.7878    1.1521 H   0  0  0  0  0  0  0  0  0  0  0  0
    1.2098   -1.7357    1.3821 H   0  0  0  0  0  0  0  0  0  0  0  0
    1.2940   -2.5800   -0.1649 H   0  0  0  0  0  0  0  0  0  0  0  0
    3.2448    1.6047   -1.5269 H   0  0  0  0  0  0  0  0  0  0  0  0
    3.6095    1.9818    0.1893 H   0  0  0  0  0  0  0  0  0  0  0  0
    1.5388    0.2722   -2.4816 H   0  0  0  0  0  0  0  0  0  0  0  0
    1.4767   -1.5122   -2.2848 H   0  0  0  0  0  0  0  0  0  0  0  0
    0.0574   -0.5463   -2.1278 H   0  0  0  0  0  0  0  0  0  0  0  0
   -3.6021    2.6487   -0.5613 H   0  0  0  0  0  0  0  0  0  0  0  0
   -3.0447    1.5097   -1.7802 H   0  0  0  0  0  0  0  0  0  0  0  0
   -3.4100   -1.5451    1.8194 H   0  0  0  0  0  0  0  0  0  0  0  0
   -3.2695   -2.8246    0.6217 H   0  0  0  0  0  0  0  0  0  0  0  0
    1.8190    1.0926    2.1507 H   0  0  0  0  0  0  0  0  0  0  0  0
    0.2516    1.8608    2.1733 H   0  0  0  0  0  0  0  0  0  0  0  0
    0.3654    0.1158    2.3873 H   0  0  0  0  0  0  0  0  0  0  0  0
   -4.1478   -1.5522   -1.9257 H   0  0  0  0  0  0  0  0  0  0  0  0
   -2.7519   -0.5724   -2.3679 H   0  0  0  0  0  0  0  0  0  0  0  0
   -2.5472   -2.2162   -1.7839 H   0  0  0  0  0  0  0  0  0  0  0  0
   -5.5414   -2.6179    1.4196 H   0  0  0  0  0  0  0  0  0  0  0  0
   -5.4580   -2.3620   -0.3200 H   0  0  0  0  0  0  0  0  0  0  0  0
    5.4067    0.6850   -1.0158 H   0  0  0  0  0  0  0  0  0  0  0  0
    6.0311   -0.9061   -1.2217 H   0  0  0  0  0  0  0  0  0  0  0  0
    3.0485   -2.9133   -1.0331 H   0  0  0  0  0  0  0  0  0  0  0  0
    3.6097   -2.5015    0.6297 H   0  0  0  0  0  0  0  0  0  0  0  0
    4.7316   -2.8910   -0.6648 H   0  0  0  0  0  0  0  0  0  0  0  0
   -5.4640    1.9756    1.7199 H   0  0  0  0  0  0  0  0  0  0  0  0
   -5.5946    2.7768    0.1419 H   0  0  0  0  0  0  0  0  0  0  0  0
   -6.9497    1.8632    0.7798 H   0  0  0  0  0  0  0  0  0  0  0  0
   -6.9906    0.7526   -1.3692 H   0  0  0  0  0  0  0  0  0  0  0  0
   -5.4573    1.2938   -2.0511 H   0  0  0  0  0  0  0  0  0  0  0  0
   -5.8218   -0.4320   -1.8700 H   0  0  0  0  0  0  0  0  0  0  0  0
    4.2668   -1.3503   -2.7294 H   0  0  0  0  0  0  0  0  0  0  0  0
    5.8036   -1.3655    1.2331 H   0  0  0  0  0  0  0  0  0  0  0  0
    5.1887    0.2895    1.4645 H   0  0  0  0  0  0  0  0  0  0  0  0
    8.5598    0.5243    2.3824 H   0  0  0  0  0  0  0  0  0  0  0  0
  1 18  1  0  0  0  0
  1 67  1  0  0  0  0
  2 17  2  0  0  0  0
  3 21  2  0  0  0  0
  4 25  2  0  0  0  0
  5 28  2  0  0  0  0
  6 34  1  0  0  0  0
  6 70  1  0  0  0  0
  7 34  2  0  0  0  0
  8  9  1  0  0  0  0
  8 10  1  0  0  0  0
  8 15  1  0  0  0  0
  8 20  1  0  0  0  0
  9 12  1  0  0  0  0
  9 17  1  0  0  0  0
  9 24  1  0  0  0  0
 10 16  1  0  0  0  0
 10 18  1  0  0  0  0
 10 35  1  0  0  0  0
 11 13  1  0  0  0  0
 11 14  1  0  0  0  0
 11 23  1  0  0  0  0
 11 26  1  0  0  0  0
 12 14  2  0  0  0  0
 12 25  1  0  0  0  0
 13 19  1  0  0  0  0
 13 22  1  0  0  0  0
 13 36  1  0  0  0  0
 14 21  1  0  0  0  0
 15 21  1  0  0  0  0
 15 37  1  0  0  0  0
 15 38  1  0  0  0  0
 16 17  1  0  0  0  0
 16 39  1  0  0  0  0
 16 40  1  0  0  0  0
 18 29  1  0  0  0  0
 18 30  1  0  0  0  0
 19 28  1  0  0  0  0
 19 31  1  0  0  0  0
 19 32  1  0  0  0  0
 20 41  1  0  0  0  0
 20 42  1  0  0  0  0
 20 43  1  0  0  0  0
 22 25  1  0  0  0  0
 22 44  1  0  0  0  0
 22 45  1  0  0  0  0
 23 27  1  0  0  0  0
 23 46  1  0  0  0  0
 23 47  1  0  0  0  0
 24 48  1  0  0  0  0
 24 49  1  0  0  0  0
 24 50  1  0  0  0  0
 26 51  1  0  0  0  0
 26 52  1  0  0  0  0
 26 53  1  0  0  0  0
 27 28  1  0  0  0  0
 27 54  1  0  0  0  0
 27 55  1  0  0  0  0
 29 33  1  0  0  0  0
 29 56  1  0  0  0  0
 29 57  1  0  0  0  0
 30 58  1  0  0  0  0
 30 59  1  0  0  0  0
 30 60  1  0  0  0  0
 31 61  1  0  0  0  0
 31 62  1  0  0  0  0
 31 63  1  0  0  0  0
 32 64  1  0  0  0  0
 32 65  1  0  0  0  0
 32 66  1  0  0  0  0
 33 34  1  0  0  0  0
 33 68  1  0  0  0  0
 33 69  1  0  0  0  0
M  END
> <PUBCHEM_COMPOUND_CID>
11454258

> <PUBCHEM_CONFORMER_RMSD>
0.8

> <PUBCHEM_CONFORMER_DIVERSEORDER>
7
11
5
10
8
14
1
6
9
2
3
4
12
13

> <PUBCHEM_MMFF94_PARTIAL_CHARGES>
25
1 -0.68
11 0.14
12 -0.12
14 -0.12
15 0.06
16 0.06
17 0.45
18 0.28
19 0.06
2 -0.57
21 0.49
22 0.06
25 0.49
27 0.06
28 0.45
3 -0.57
33 0.06
34 0.66
4 -0.57
5 -0.57
6 -0.65
67 0.4
7 -0.57
70 0.5
9 0.2

> <PUBCHEM_EFFECTIVE_ROTOR_COUNT>
5.4

> <PUBCHEM_PHARMACOPHORE_FEATURES>
14
1 1 acceptor
1 1 donor
1 2 acceptor
1 3 acceptor
1 4 acceptor
1 5 acceptor
1 6 acceptor
1 7 acceptor
3 19 31 32 hydrophobe
3 6 7 34 anion
5 8 9 10 16 17 rings
6 11 12 13 14 22 25 rings
6 11 13 19 23 27 28 rings
6 8 9 12 14 15 21 rings

> <PUBCHEM_HEAVY_ATOM_COUNT>
34

> <PUBCHEM_ATOM_DEF_STEREO_COUNT>
5

> <PUBCHEM_ATOM_UDEF_STEREO_COUNT>
1

> <PUBCHEM_BOND_DEF_STEREO_COUNT>
0

> <PUBCHEM_BOND_UDEF_STEREO_COUNT>
0

> <PUBCHEM_ISOTOPIC_ATOM_COUNT>
0

> <PUBCHEM_COMPONENT_COUNT>
1

> <PUBCHEM_CACTVS_TAUTO_COUNT>
16

> <PUBCHEM_CONFORMER_ID>
00AEC73200000007

> <PUBCHEM_MMFF94_ENERGY>
134.7053

> <PUBCHEM_FEATURE_SELFOVERLAP>
71.214

> <PUBCHEM_SHAPE_FINGERPRINT>
10 15 18411695518057755408
10290309 65 18268710519812842246
10906281 52 18341347651278273836
11578080 2 17058922467085063714
11646440 116 18343026587911180008
12035758 1 18341617035505477314
12166972 35 17022623096059349156
12236239 1 17094963242582926534
12422481 6 18129088082651000120
12838862 33 18337656539236305837
13140716 1 18192997238458789810
13224815 77 18334576867633557229
13402501 40 18410862053472868311
13811026 1 18410570716681351911
14028597 1 17749101154726910200
14251764 18 17676207992086882838
14394314 77 18339926996166794929
14790565 3 18336840757400924813
14840074 17 13973962099735464144
14849402 71 18115875272921681044
14856354 85 17894638080046777139
15021287 119 16805325500232587535
15131766 46 14835537281663672554
15183329 4 18334862705474173031
15196674 1 18409454717270323037
18608769 82 18408888472797703291
19319366 153 17748828501075656747
19591789 44 18337397131959648523
19841028 212 16878494628372051594
21033648 29 17846484916335566955
21130935 74 18201160949065592402
21267235 1 18337684052263592847
21279426 13 18265339404593118511
23402539 116 18411415124437000215
23559900 14 18410854386439371137
24771293 8 18273209829157858056
3004659 81 18113629984446500694
3178227 256 18261969500295969539
335352 9 18408321107638702077
3383291 50 18408326609634908851
350125 39 18409452474870379861
4093350 32 16988570065558491638
4340502 62 18410854344217730910
5104073 3 18336553823198898225
6086070 43 17605252125911257909
7226269 152 18343580746256151544

> <PUBCHEM_SHAPE_MULTIPOLES>
658.62
16.91
2.53
1.45
13.52
0.36
-0.08
-0.29
5.59
-1.3
-0.03
0.75
-0.15
0.86

> <PUBCHEM_SHAPE_SELFOVERLAP>
1421.498

> <PUBCHEM_SHAPE_VOLUME>
357.7

> <PUBCHEM_COORDINATE_TYPE>
2
5
10

$$$$
