10721020
  -OEChem-09122004333D

 82 85  0     1  0  0  0  0  0999 V2000
    0.7490   -2.8599   -0.4213 O   0  0  0  0  0  0  0  0  0  0  0  0
   -1.3541    2.7857   -0.2649 O   0  0  0  0  0  0  0  0  0  0  0  0
   -8.0154   -0.4736   -0.4007 O   0  0  0  0  0  0  0  0  0  0  0  0
    0.3787    2.6673    1.8260 O   0  0  0  0  0  0  0  0  0  0  0  0
   -1.9212   -2.8942   -0.6085 O   0  0  0  0  0  0  0  0  0  0  0  0
    6.8265   -1.0286    1.8169 O   0  0  0  0  0  0  0  0  0  0  0  0
    6.9932    2.3549   -2.2001 O   0  0  0  0  0  0  0  0  0  0  0  0
    7.0502    0.2255   -2.9855 O   0  0  0  0  0  0  0  0  0  0  0  0
    0.6637   -0.5466    0.3967 C   0  0  1  0  0  0  0  0  0  0  0  0
   -0.2851    0.3723    1.2368 C   0  0  2  0  0  0  0  0  0  0  0  0
   -3.6569   -0.5091   -0.6319 C   0  0  1  0  0  0  0  0  0  0  0  0
   -4.4083    0.7223    0.0194 C   0  0  2  0  0  0  0  0  0  0  0  0
    2.0097   -0.4463    1.1690 C   0  0  2  0  0  0  0  0  0  0  0  0
   -1.5994    0.5241    0.4894 C   0  0  0  0  0  0  0  0  0  0  0  0
   -2.2149   -0.5680   -0.0437 C   0  0  0  0  0  0  0  0  0  0  0  0
   -5.9497    0.8780   -0.2722 C   0  0  0  0  0  0  0  0  0  0  0  0
    0.0247   -1.9367    0.3749 C   0  0  1  0  0  0  0  0  0  0  0  0
   -3.5943    1.9981   -0.2136 C   0  0  0  0  0  0  0  0  0  0  0  0
   -2.2201    1.9029    0.4507 C   0  0  2  0  0  0  0  0  0  0  0  0
    2.1361    1.0583    1.4730 C   0  0  0  0  0  0  0  0  0  0  0  0
   -4.4995   -1.7722   -0.2983 C   0  0  0  0  0  0  0  0  0  0  0  0
    0.6918    1.5246    1.5174 C   0  0  0  0  0  0  0  0  0  0  0  0
   -1.4262   -1.8777   -0.1210 C   0  0  0  0  0  0  0  0  0  0  0  0
   -6.6511   -0.4785    0.0174 C   0  0  2  0  0  0  0  0  0  0  0  0
    3.2589   -0.9840    0.4793 C   0  0  1  0  0  0  0  0  0  0  0  0
    0.8632   -0.0228   -1.0662 C   0  0  0  0  0  0  0  0  0  0  0  0
   -5.9749   -1.6564   -0.6667 C   0  0  0  0  0  0  0  0  0  0  0  0
   -0.6528   -0.1273    2.6651 C   0  0  0  0  0  0  0  0  0  0  0  0
   -3.4689   -0.4124   -2.1628 C   0  0  0  0  0  0  0  0  0  0  0  0
   -6.2778    1.3879   -1.6906 C   0  0  0  0  0  0  0  0  0  0  0  0
   -6.5506    1.9293    0.7057 C   0  0  0  0  0  0  0  0  0  0  0  0
    4.4951   -0.7491    1.3722 C   0  0  0  0  0  0  0  0  0  0  0  0
    3.0684   -2.4647    0.1388 C   0  0  0  0  0  0  0  0  0  0  0  0
    5.8227   -1.3083    0.8361 C   0  0  1  0  0  0  0  0  0  0  0  0
    6.2389   -0.6564   -0.4565 C   0  0  0  0  0  0  0  0  0  0  0  0
    6.4119    0.6578   -0.6936 C   0  0  0  0  0  0  0  0  0  0  0  0
    6.1928    1.7694    0.2891 C   0  0  0  0  0  0  0  0  0  0  0  0
    6.8456    1.0144   -2.0758 C   0  0  0  0  0  0  0  0  0  0  0  0
   -4.3657    0.5388    1.1075 H   0  0  0  0  0  0  0  0  0  0  0  0
    1.9070   -0.9799    2.1240 H   0  0  0  0  0  0  0  0  0  0  0  0
   -0.0012   -2.3631    1.3842 H   0  0  0  0  0  0  0  0  0  0  0  0
   -4.0927    2.8791    0.2040 H   0  0  0  0  0  0  0  0  0  0  0  0
   -3.4977    2.2176   -1.2829 H   0  0  0  0  0  0  0  0  0  0  0  0
   -2.3066    2.2773    1.4776 H   0  0  0  0  0  0  0  0  0  0  0  0
    2.6604    1.6111    0.6881 H   0  0  0  0  0  0  0  0  0  0  0  0
    2.6047    1.2330    2.4455 H   0  0  0  0  0  0  0  0  0  0  0  0
   -4.4165   -1.9986    0.7732 H   0  0  0  0  0  0  0  0  0  0  0  0
   -4.1308   -2.6506   -0.8356 H   0  0  0  0  0  0  0  0  0  0  0  0
   -6.6497   -0.6573    1.1008 H   0  0  0  0  0  0  0  0  0  0  0  0
    3.4354   -0.4384   -0.4551 H   0  0  0  0  0  0  0  0  0  0  0  0
    1.2704    0.9928   -1.0942 H   0  0  0  0  0  0  0  0  0  0  0  0
    1.5422   -0.6633   -1.6369 H   0  0  0  0  0  0  0  0  0  0  0  0
   -0.0690    0.0003   -1.6386 H   0  0  0  0  0  0  0  0  0  0  0  0
   -6.1030   -1.5979   -1.7536 H   0  0  0  0  0  0  0  0  0  0  0  0
   -6.4864   -2.5837   -0.3766 H   0  0  0  0  0  0  0  0  0  0  0  0
   -1.2391    0.6359    3.1941 H   0  0  0  0  0  0  0  0  0  0  0  0
   -1.2590   -1.0391    2.6592 H   0  0  0  0  0  0  0  0  0  0  0  0
    0.2247   -0.3195    3.2909 H   0  0  0  0  0  0  0  0  0  0  0  0
   -4.4094   -0.4095   -2.7107 H   0  0  0  0  0  0  0  0  0  0  0  0
   -2.9070    0.4790   -2.4595 H   0  0  0  0  0  0  0  0  0  0  0  0
   -2.9068   -1.2736   -2.5450 H   0  0  0  0  0  0  0  0  0  0  0  0
   -7.3336    1.6755   -1.7689 H   0  0  0  0  0  0  0  0  0  0  0  0
   -5.6937    2.2759   -1.9504 H   0  0  0  0  0  0  0  0  0  0  0  0
   -6.1151    0.6358   -2.4619 H   0  0  0  0  0  0  0  0  0  0  0  0
   -6.2849    1.7039    1.7446 H   0  0  0  0  0  0  0  0  0  0  0  0
   -6.2092    2.9445    0.4812 H   0  0  0  0  0  0  0  0  0  0  0  0
   -7.6452    1.9455    0.6456 H   0  0  0  0  0  0  0  0  0  0  0  0
    4.5880    0.3043    1.6390 H   0  0  0  0  0  0  0  0  0  0  0  0
    4.3115   -1.2397    2.3401 H   0  0  0  0  0  0  0  0  0  0  0  0
    4.0221   -2.9968    0.1032 H   0  0  0  0  0  0  0  0  0  0  0  0
    2.5065   -3.0091    0.9022 H   0  0  0  0  0  0  0  0  0  0  0  0
    2.7322   -2.5774   -0.8935 H   0  0  0  0  0  0  0  0  0  0  0  0
    0.3401   -3.7345   -0.3032 H   0  0  0  0  0  0  0  0  0  0  0  0
   -1.2144    2.4165   -1.1541 H   0  0  0  0  0  0  0  0  0  0  0  0
   -8.4107   -1.3204   -0.1321 H   0  0  0  0  0  0  0  0  0  0  0  0
    5.8139   -2.3938    0.7186 H   0  0  0  0  0  0  0  0  0  0  0  0
    6.4218   -1.3734   -1.2554 H   0  0  0  0  0  0  0  0  0  0  0  0
    6.5792   -1.4977    2.6321 H   0  0  0  0  0  0  0  0  0  0  0  0
    5.2059    2.2197    0.1449 H   0  0  0  0  0  0  0  0  0  0  0  0
    6.2925    1.4460    1.3272 H   0  0  0  0  0  0  0  0  0  0  0  0
    6.9474    2.5557    0.1772 H   0  0  0  0  0  0  0  0  0  0  0  0
    7.2803    2.6105   -3.1026 H   0  0  0  0  0  0  0  0  0  0  0  0
  1 17  1  0  0  0  0
  1 73  1  0  0  0  0
  2 19  1  0  0  0  0
  2 74  1  0  0  0  0
  3 24  1  0  0  0  0
  3 75  1  0  0  0  0
  4 22  2  0  0  0  0
  5 23  2  0  0  0  0
  6 34  1  0  0  0  0
  6 78  1  0  0  0  0
  7 38  1  0  0  0  0
  7 82  1  0  0  0  0
  8 38  2  0  0  0  0
  9 10  1  0  0  0  0
  9 13  1  0  0  0  0
  9 17  1  0  0  0  0
  9 26  1  0  0  0  0
 10 14  1  0  0  0  0
 10 22  1  0  0  0  0
 10 28  1  0  0  0  0
 11 12  1  0  0  0  0
 11 15  1  0  0  0  0
 11 21  1  0  0  0  0
 11 29  1  0  0  0  0
 12 16  1  0  0  0  0
 12 18  1  0  0  0  0
 12 39  1  0  0  0  0
 13 20  1  0  0  0  0
 13 25  1  0  0  0  0
 13 40  1  0  0  0  0
 14 15  2  0  0  0  0
 14 19  1  0  0  0  0
 15 23  1  0  0  0  0
 16 24  1  0  0  0  0
 16 30  1  0  0  0  0
 16 31  1  0  0  0  0
 17 23  1  0  0  0  0
 17 41  1  0  0  0  0
 18 19  1  0  0  0  0
 18 42  1  0  0  0  0
 18 43  1  0  0  0  0
 19 44  1  0  0  0  0
 20 22  1  0  0  0  0
 20 45  1  0  0  0  0
 20 46  1  0  0  0  0
 21 27  1  0  0  0  0
 21 47  1  0  0  0  0
 21 48  1  0  0  0  0
 24 27  1  0  0  0  0
 24 49  1  0  0  0  0
 25 32  1  0  0  0  0
 25 33  1  0  0  0  0
 25 50  1  0  0  0  0
 26 51  1  0  0  0  0
 26 52  1  0  0  0  0
 26 53  1  0  0  0  0
 27 54  1  0  0  0  0
 27 55  1  0  0  0  0
 28 56  1  0  0  0  0
 28 57  1  0  0  0  0
 28 58  1  0  0  0  0
 29 59  1  0  0  0  0
 29 60  1  0  0  0  0
 29 61  1  0  0  0  0
 30 62  1  0  0  0  0
 30 63  1  0  0  0  0
 30 64  1  0  0  0  0
 31 65  1  0  0  0  0
 31 66  1  0  0  0  0
 31 67  1  0  0  0  0
 32 34  1  0  0  0  0
 32 68  1  0  0  0  0
 32 69  1  0  0  0  0
 33 70  1  0  0  0  0
 33 71  1  0  0  0  0
 33 72  1  0  0  0  0
 34 35  1  0  0  0  0
 34 76  1  0  0  0  0
 35 36  2  0  0  0  0
 35 77  1  0  0  0  0
 36 37  1  0  0  0  0
 36 38  1  0  0  0  0
 37 79  1  0  0  0  0
 37 80  1  0  0  0  0
 37 81  1  0  0  0  0
M  END
> <PUBCHEM_COMPOUND_CID>
10721020

> <PUBCHEM_CONFORMER_RMSD>
1

> <PUBCHEM_CONFORMER_DIVERSEORDER>
4
5
6
3
2
1

> <PUBCHEM_MMFF94_PARTIAL_CHARGES>
29
1 -0.68
10 0.2
11 0.14
14 -0.28
15 -0.12
17 0.34
19 0.42
2 -0.68
20 0.06
22 0.45
23 0.49
24 0.28
3 -0.68
34 0.42
35 -0.29
36 -0.12
37 0.14
38 0.71
4 -0.57
5 -0.57
6 -0.68
7 -0.65
73 0.4
74 0.4
75 0.4
77 0.15
78 0.4
8 -0.57
82 0.5

> <PUBCHEM_EFFECTIVE_ROTOR_COUNT>
6.8

> <PUBCHEM_PHARMACOPHORE_FEATURES>
20
1 1 acceptor
1 1 donor
1 2 acceptor
1 2 donor
1 3 acceptor
1 3 donor
1 33 hydrophobe
1 37 hydrophobe
1 4 acceptor
1 5 acceptor
1 6 acceptor
1 6 donor
1 7 acceptor
1 8 acceptor
3 16 30 31 hydrophobe
3 7 8 38 anion
5 9 10 13 20 22 rings
6 11 12 14 15 18 19 rings
6 11 12 16 21 24 27 rings
6 9 10 14 15 17 23 rings

> <PUBCHEM_HEAVY_ATOM_COUNT>
38

> <PUBCHEM_ATOM_DEF_STEREO_COUNT>
10

> <PUBCHEM_ATOM_UDEF_STEREO_COUNT>
0

> <PUBCHEM_BOND_DEF_STEREO_COUNT>
1

> <PUBCHEM_BOND_UDEF_STEREO_COUNT>
0

> <PUBCHEM_ISOTOPIC_ATOM_COUNT>
0

> <PUBCHEM_COMPONENT_COUNT>
1

> <PUBCHEM_CACTVS_TAUTO_COUNT>
10

> <PUBCHEM_CONFORMER_ID>
00A396FC00000004

> <PUBCHEM_MMFF94_ENERGY>
154.2426

> <PUBCHEM_FEATURE_SELFOVERLAP>
101.664

> <PUBCHEM_SHAPE_FINGERPRINT>
10673678 19 18187654643409479438
10838868 229 9365977029158903276
10906281 52 18341060626877171931
11007060 377 18342176687229808537
11331351 85 15410892959502577617
11578080 2 15069495746124248318
12107698 1 16660641821864310245
12133447 93 17845941715101416113
12236239 1 17894907404201876099
12788726 201 17845650327028242634
13165053 68 17025171871439768939
13782708 43 16916492791811796799
13811026 1 18201710743465075354
14840074 17 18113339699938185772
14849402 71 17894919567549739621
14856354 85 18410856581964329239
15001296 14 18263923397047014956
15082195 135 18341901792844484542
15131766 46 17169280428470689980
15183329 4 18411704292233043564
15276724 80 17822287955638255980
15361156 5 18407758153975784531
15685185 35 17460329965258000932
15840311 113 17530684290713259998
16994733 274 17240197729233098565
18608769 82 18411975893201617403
19319366 153 18260820458726593290
20105231 36 17917716820618930167
21057603 40 16343712023495943006
21267235 1 18343014520071053059
21344244 181 16774083960278640198
21521721 280 16805042908580210568
21796203 349 18193585409367606897
21867126 195 17170979217266047211
23522609 53 18266477441603377280
23559900 14 18058714918492890697
23569943 247 14620249481239070430
23576562 1 18198337562667133453
24771750 20 18125159587439437140
335352 9 18272359876862785255
350125 39 18341607101530958241
4093350 32 17385725781935859806
4098825 35 17967246477374273453
4258327 124 17241343476637074406
504579 68 18187654587838953942
5265222 85 18271243944826515718
59755656 215 17489868215634919630
6081469 158 12175621755371484827
6328613 192 18334294283663844583

> <PUBCHEM_SHAPE_MULTIPOLES>
735.07
20.03
2.69
1.95
10.01
0.05
0.48
-4.04
9.15
-0.25
0.08
2.88
-0.66
-1.99

> <PUBCHEM_SHAPE_SELFOVERLAP>
1566.927

> <PUBCHEM_SHAPE_VOLUME>
404.9

> <PUBCHEM_COORDINATE_TYPE>
2
5
10

$$$$
