46184562
  -OEChem-09122004513D

 93 96  0     1  0  0  0  0  0999 V2000
    2.1818   -3.1474    1.0841 O   0  0  0  0  0  0  0  0  0  0  0  0
    7.4073    2.0853    0.5527 O   0  0  0  0  0  0  0  0  0  0  0  0
   -0.2874   -2.7554    2.1767 O   0  0  0  0  0  0  0  0  0  0  0  0
    1.6132    1.4007   -2.4090 O   0  0  0  0  0  0  0  0  0  0  0  0
   -5.2084    0.0485   -1.5283 O   0  0  0  0  0  0  0  0  0  0  0  0
   -5.2025    2.3555    0.6030 O   0  0  0  0  0  0  0  0  0  0  0  0
   -4.2321    1.0732    2.2564 O   0  0  0  0  0  0  0  0  0  0  0  0
   -0.5141   -1.1875   -0.9696 C   0  0  1  0  0  0  0  0  0  0  0  0
    0.0980   -1.0387    0.4572 C   0  0  2  0  0  0  0  0  0  0  0  0
    3.6857    0.1661   -0.6780 C   0  0  1  0  0  0  0  0  0  0  0  0
    4.3110   -0.1436    0.7420 C   0  0  2  0  0  0  0  0  0  0  0  0
    1.6068   -0.9500    0.3168 C   0  0  0  0  0  0  0  0  0  0  0  0
   -2.0108   -1.4703   -0.6770 C   0  0  2  0  0  0  0  0  0  0  0  0
    2.1545   -0.1120   -0.6066 C   0  0  0  0  0  0  0  0  0  0  0  0
    5.8205    0.2393    0.9717 C   0  0  0  0  0  0  0  0  0  0  0  0
   -0.2438    0.1031   -1.7315 C   0  0  0  0  0  0  0  0  0  0  0  0
    3.9596   -1.5744    1.1594 C   0  0  0  0  0  0  0  0  0  0  0  0
    2.4462   -1.7573    1.2808 C   0  0  2  0  0  0  0  0  0  0  0  0
    4.0279    1.6466   -1.0082 C   0  0  0  0  0  0  0  0  0  0  0  0
   -1.9603   -2.5088    0.4578 C   0  0  0  0  0  0  0  0  0  0  0  0
   -0.6433   -2.1942    1.1482 C   0  0  0  0  0  0  0  0  0  0  0  0
    6.0293    1.7147    0.5368 C   0  0  2  0  0  0  0  0  0  0  0  0
    1.2198    0.5304   -1.6319 C   0  0  0  0  0  0  0  0  0  0  0  0
    5.5043    2.0027   -0.8614 C   0  0  0  0  0  0  0  0  0  0  0  0
   -2.8599   -1.9403   -1.8521 C   0  0  1  0  0  0  0  0  0  0  0  0
    0.1008   -2.3748   -1.7823 C   0  0  0  0  0  0  0  0  0  0  0  0
   -0.3493    0.2086    1.2726 C   0  0  0  0  0  0  0  0  0  0  0  0
    4.2022   -0.7349   -1.8228 C   0  0  0  0  0  0  0  0  0  0  0  0
    6.3265   -0.0025    2.4088 C   0  0  0  0  0  0  0  0  0  0  0  0
    6.7176   -0.6444    0.0560 C   0  0  0  0  0  0  0  0  0  0  0  0
   -4.3170   -2.1987   -1.4321 C   0  0  0  0  0  0  0  0  0  0  0  0
   -2.8233   -0.8972   -2.9738 C   0  0  0  0  0  0  0  0  0  0  0  0
   -5.0164   -0.9713   -0.8665 C   0  0  0  0  0  0  0  0  0  0  0  0
   -5.4979   -1.0681    0.5700 C   0  0  0  0  0  0  0  0  0  0  0  0
   -6.1549    0.2386    1.0190 C   0  0  1  0  0  0  0  0  0  0  0  0
   -7.0698    0.0048    2.2207 C   0  0  0  0  0  0  0  0  0  0  0  0
   -5.0826    1.2486    1.3935 C   0  0  0  0  0  0  0  0  0  0  0  0
   -4.2322    3.3829    0.8289 C   0  0  0  0  0  0  0  0  0  0  0  0
   -3.0310    3.1314   -0.0716 C   0  0  0  0  0  0  0  0  0  0  0  0
   -1.9456    4.1851    0.1295 C   0  0  0  0  0  0  0  0  0  0  0  0
   -0.7302    3.9058   -0.7400 C   0  0  0  0  0  0  0  0  0  0  0  0
    3.7739    0.5099    1.4517 H   0  0  0  0  0  0  0  0  0  0  0  0
   -2.4618   -0.5518   -0.2796 H   0  0  0  0  0  0  0  0  0  0  0  0
   -0.4250   -0.0093   -2.8021 H   0  0  0  0  0  0  0  0  0  0  0  0
   -0.8637    0.9273   -1.3677 H   0  0  0  0  0  0  0  0  0  0  0  0
    4.3832   -2.3188    0.4777 H   0  0  0  0  0  0  0  0  0  0  0  0
    4.3893   -1.8188    2.1371 H   0  0  0  0  0  0  0  0  0  0  0  0
    2.1420   -1.4945    2.3017 H   0  0  0  0  0  0  0  0  0  0  0  0
    3.7685    1.8894   -2.0432 H   0  0  0  0  0  0  0  0  0  0  0  0
    3.4363    2.3128   -0.3661 H   0  0  0  0  0  0  0  0  0  0  0  0
   -2.7782   -2.3879    1.1685 H   0  0  0  0  0  0  0  0  0  0  0  0
   -1.9277   -3.5381    0.0891 H   0  0  0  0  0  0  0  0  0  0  0  0
    5.5156    2.3659    1.2558 H   0  0  0  0  0  0  0  0  0  0  0  0
    6.1116    1.5242   -1.6361 H   0  0  0  0  0  0  0  0  0  0  0  0
    5.6206    3.0763   -1.0642 H   0  0  0  0  0  0  0  0  0  0  0  0
   -2.4844   -2.8903   -2.2507 H   0  0  0  0  0  0  0  0  0  0  0  0
   -0.0408   -3.3380   -1.2821 H   0  0  0  0  0  0  0  0  0  0  0  0
    1.1769   -2.2657   -1.9477 H   0  0  0  0  0  0  0  0  0  0  0  0
   -0.3410   -2.4542   -2.7801 H   0  0  0  0  0  0  0  0  0  0  0  0
    0.0855    0.1756    2.2805 H   0  0  0  0  0  0  0  0  0  0  0  0
   -0.0275    1.1510    0.8241 H   0  0  0  0  0  0  0  0  0  0  0  0
   -1.4330    0.2619    1.4162 H   0  0  0  0  0  0  0  0  0  0  0  0
    5.1881   -0.4587   -2.1922 H   0  0  0  0  0  0  0  0  0  0  0  0
    3.5524   -0.6524   -2.7044 H   0  0  0  0  0  0  0  0  0  0  0  0
    4.2190   -1.7957   -1.5598 H   0  0  0  0  0  0  0  0  0  0  0  0
    7.3402    0.3887    2.5506 H   0  0  0  0  0  0  0  0  0  0  0  0
    6.3569   -1.0666    2.6629 H   0  0  0  0  0  0  0  0  0  0  0  0
    7.7673   -0.5616    0.3690 H   0  0  0  0  0  0  0  0  0  0  0  0
    6.7251   -0.3721   -0.9948 H   0  0  0  0  0  0  0  0  0  0  0  0
    6.4685   -1.7065    0.1358 H   0  0  0  0  0  0  0  0  0  0  0  0
    5.6767    0.5012    3.1326 H   0  0  0  0  0  0  0  0  0  0  0  0
   -4.3648   -3.0078   -0.6948 H   0  0  0  0  0  0  0  0  0  0  0  0
   -4.9102   -2.5423   -2.2885 H   0  0  0  0  0  0  0  0  0  0  0  0
   -1.9531   -1.0394   -3.6181 H   0  0  0  0  0  0  0  0  0  0  0  0
   -3.6839   -1.0207   -3.6428 H   0  0  0  0  0  0  0  0  0  0  0  0
   -2.8458    0.1330   -2.6066 H   0  0  0  0  0  0  0  0  0  0  0  0
    2.6582   -3.6372    1.7762 H   0  0  0  0  0  0  0  0  0  0  0  0
    7.4617    3.0325    0.3395 H   0  0  0  0  0  0  0  0  0  0  0  0
   -4.6555   -1.3241    1.2157 H   0  0  0  0  0  0  0  0  0  0  0  0
   -6.2255   -1.8874    0.6042 H   0  0  0  0  0  0  0  0  0  0  0  0
   -6.7797    0.6547    0.2187 H   0  0  0  0  0  0  0  0  0  0  0  0
   -6.5196   -0.4317    3.0617 H   0  0  0  0  0  0  0  0  0  0  0  0
   -7.5046    0.9490    2.5665 H   0  0  0  0  0  0  0  0  0  0  0  0
   -7.8904   -0.6721    1.9612 H   0  0  0  0  0  0  0  0  0  0  0  0
   -4.7054    4.3361    0.5694 H   0  0  0  0  0  0  0  0  0  0  0  0
   -3.9481    3.4435    1.8862 H   0  0  0  0  0  0  0  0  0  0  0  0
   -2.6238    2.1333    0.1278 H   0  0  0  0  0  0  0  0  0  0  0  0
   -3.3575    3.1145   -1.1190 H   0  0  0  0  0  0  0  0  0  0  0  0
   -1.6367    4.2126    1.1809 H   0  0  0  0  0  0  0  0  0  0  0  0
   -2.3448    5.1756   -0.1180 H   0  0  0  0  0  0  0  0  0  0  0  0
   -1.0084    3.8164   -1.7948 H   0  0  0  0  0  0  0  0  0  0  0  0
   -0.0070    4.7224   -0.6482 H   0  0  0  0  0  0  0  0  0  0  0  0
   -0.2293    2.9867   -0.4334 H   0  0  0  0  0  0  0  0  0  0  0  0
  1 18  1  0  0  0  0
  1 77  1  0  0  0  0
  2 22  1  0  0  0  0
  2 78  1  0  0  0  0
  3 21  2  0  0  0  0
  4 23  2  0  0  0  0
  5 33  2  0  0  0  0
  6 37  1  0  0  0  0
  6 38  1  0  0  0  0
  7 37  2  0  0  0  0
  8  9  1  0  0  0  0
  8 13  1  0  0  0  0
  8 16  1  0  0  0  0
  8 26  1  0  0  0  0
  9 12  1  0  0  0  0
  9 21  1  0  0  0  0
  9 27  1  0  0  0  0
 10 11  1  0  0  0  0
 10 14  1  0  0  0  0
 10 19  1  0  0  0  0
 10 28  1  0  0  0  0
 11 15  1  0  0  0  0
 11 17  1  0  0  0  0
 11 42  1  0  0  0  0
 12 14  2  0  0  0  0
 12 18  1  0  0  0  0
 13 20  1  0  0  0  0
 13 25  1  0  0  0  0
 13 43  1  0  0  0  0
 14 23  1  0  0  0  0
 15 22  1  0  0  0  0
 15 29  1  0  0  0  0
 15 30  1  0  0  0  0
 16 23  1  0  0  0  0
 16 44  1  0  0  0  0
 16 45  1  0  0  0  0
 17 18  1  0  0  0  0
 17 46  1  0  0  0  0
 17 47  1  0  0  0  0
 18 48  1  0  0  0  0
 19 24  1  0  0  0  0
 19 49  1  0  0  0  0
 19 50  1  0  0  0  0
 20 21  1  0  0  0  0
 20 51  1  0  0  0  0
 20 52  1  0  0  0  0
 22 24  1  0  0  0  0
 22 53  1  0  0  0  0
 24 54  1  0  0  0  0
 24 55  1  0  0  0  0
 25 31  1  0  0  0  0
 25 32  1  0  0  0  0
 25 56  1  0  0  0  0
 26 57  1  0  0  0  0
 26 58  1  0  0  0  0
 26 59  1  0  0  0  0
 27 60  1  0  0  0  0
 27 61  1  0  0  0  0
 27 62  1  0  0  0  0
 28 63  1  0  0  0  0
 28 64  1  0  0  0  0
 28 65  1  0  0  0  0
 29 66  1  0  0  0  0
 29 67  1  0  0  0  0
 29 71  1  0  0  0  0
 30 68  1  0  0  0  0
 30 69  1  0  0  0  0
 30 70  1  0  0  0  0
 31 33  1  0  0  0  0
 31 72  1  0  0  0  0
 31 73  1  0  0  0  0
 32 74  1  0  0  0  0
 32 75  1  0  0  0  0
 32 76  1  0  0  0  0
 33 34  1  0  0  0  0
 34 35  1  0  0  0  0
 34 79  1  0  0  0  0
 34 80  1  0  0  0  0
 35 36  1  0  0  0  0
 35 37  1  0  0  0  0
 35 81  1  0  0  0  0
 36 82  1  0  0  0  0
 36 83  1  0  0  0  0
 36 84  1  0  0  0  0
 38 39  1  0  0  0  0
 38 85  1  0  0  0  0
 38 86  1  0  0  0  0
 39 40  1  0  0  0  0
 39 87  1  0  0  0  0
 39 88  1  0  0  0  0
 40 41  1  0  0  0  0
 40 89  1  0  0  0  0
 40 90  1  0  0  0  0
 41 91  1  0  0  0  0
 41 92  1  0  0  0  0
 41 93  1  0  0  0  0
M  END
> <PUBCHEM_COMPOUND_CID>
46184562

> <PUBCHEM_CONFORMER_RMSD>
1.2

> <PUBCHEM_CONFORMER_DIVERSEORDER>
37
63
57
46
43
19
64
53
42
26
6
59
23
70
51
56
62
7
10
36
21
40
49
17
60
69
32
25
12
65
22
13
8
1
48
31
11
4
67
34
35
68
44
20
66
5
27
18
47
24
29
61
45
3
38
28
58
33
2
41
39
16
52
55
71
50
14
15
9
54
30

> <PUBCHEM_MMFF94_PARTIAL_CHARGES>
25
1 -0.68
10 0.14
12 -0.28
14 -0.12
16 0.06
18 0.42
2 -0.68
20 0.06
21 0.45
22 0.28
23 0.49
3 -0.57
31 0.06
33 0.45
34 0.06
35 0.06
37 0.66
38 0.28
4 -0.57
5 -0.57
6 -0.43
7 -0.57
77 0.4
78 0.4
9 0.2

> <PUBCHEM_EFFECTIVE_ROTOR_COUNT>
11.8

> <PUBCHEM_PHARMACOPHORE_FEATURES>
16
1 1 acceptor
1 1 donor
1 2 acceptor
1 2 donor
1 3 acceptor
1 32 hydrophobe
1 36 hydrophobe
1 4 acceptor
1 41 hydrophobe
1 5 acceptor
1 7 acceptor
3 15 29 30 hydrophobe
5 8 9 13 20 21 rings
6 10 11 12 14 17 18 rings
6 10 11 15 19 22 24 rings
6 8 9 12 14 16 23 rings

> <PUBCHEM_HEAVY_ATOM_COUNT>
41

> <PUBCHEM_ATOM_DEF_STEREO_COUNT>
9

> <PUBCHEM_ATOM_UDEF_STEREO_COUNT>
0

> <PUBCHEM_BOND_DEF_STEREO_COUNT>
0

> <PUBCHEM_BOND_UDEF_STEREO_COUNT>
0

> <PUBCHEM_ISOTOPIC_ATOM_COUNT>
0

> <PUBCHEM_COMPONENT_COUNT>
1

> <PUBCHEM_CACTVS_TAUTO_COUNT>
12

> <PUBCHEM_CONFORMER_ID>
02C0B87200000025

> <PUBCHEM_MMFF94_ENERGY>
133.5698

> <PUBCHEM_FEATURE_SELFOVERLAP>
81.297

> <PUBCHEM_SHAPE_FINGERPRINT>
10010297 198 18267018354285252631
10087517 78 18343297093747189973
10816530 145 18188201109162484455
10864689 126 17982739575505288229
10906281 52 18187653548119388126
11115154 58 18052512629821185807
11578080 2 17203337684206198014
11646440 116 17748820843654395316
12035758 1 17023180565244266074
12236239 1 18341887545858390814
12422481 6 18263640662958831262
12788726 201 18410292540577505364
13560911 43 18335979883252139621
13726171 33 17916319255604068937
14028597 1 18113609088734195419
14294032 229 18343584010679950456
14394314 77 18409735032917866929
14395042 24 18058460967080778491
14856354 85 18200308948366915607
15082195 135 17203060681039983184
15183329 4 17846495980092264526
15274700 147 13102158380599636162
15276724 80 18342733022538402684
15604295 49 17630878512620358672
15840311 113 18338802204624621659
15975801 100 18340200800205262425
16112460 7 18114466755465699876
19377110 9 18334852814233230920
22122407 14 18056484074215259888
23559900 14 17459454728437656614
23569914 152 13898295770875195365
23569914 2 16626255669421774896
23569943 247 17387947856038966522
392239 28 18409168831178083285
397830 11 14273737416835405286
4098825 35 17989491805913763102
469060 322 17676206857952156733
4918855 1 18271516576539514656
50677037 204 18413101784144115417
7226269 152 18336258020184491669

> <PUBCHEM_SHAPE_MULTIPOLES>
802.68
16.55
3.88
2.36
6.06
3.34
-0.31
6.05
6.82
-2.98
0.02
-0.92
-0.73
-2.12

> <PUBCHEM_SHAPE_SELFOVERLAP>
1684.675

> <PUBCHEM_SHAPE_VOLUME>
451.2

> <PUBCHEM_COORDINATE_TYPE>
2
5
10

$$$$
