71561376
  -OEChem-09122003403D

 91 94  0     1  0  0  0  0  0999 V2000
   -0.5994   -2.4582    0.4960 O   0  0  0  0  0  0  0  0  0  0  0  0
    1.6029    2.8819   -1.0897 O   0  0  0  0  0  0  0  0  0  0  0  0
    0.5375    1.9087   -3.3931 O   0  0  0  0  0  0  0  0  0  0  0  0
    7.8738    0.4208    2.0151 O   0  0  0  0  0  0  0  0  0  0  0  0
    1.9219   -2.2665    1.3817 O   0  0  0  0  0  0  0  0  0  0  0  0
    0.3642   -4.5331    0.1737 O   0  0  0  0  0  0  0  0  0  0  0  0
   -6.6297    0.4661    0.6794 O   0  0  0  0  0  0  0  0  0  0  0  0
   -5.2652    1.9938   -0.3820 O   0  0  0  0  0  0  0  0  0  0  0  0
   -0.2169   -0.6244   -1.0544 C   0  0  1  0  0  0  0  0  0  0  0  0
    0.9526    0.0207   -1.8707 C   0  0  2  0  0  0  0  0  0  0  0  0
    3.6313    0.1134    1.0370 C   0  0  1  0  0  0  0  0  0  0  0  0
    4.5640    1.1022    0.2263 C   0  0  2  0  0  0  0  0  0  0  0  0
   -1.2847   -0.9054   -2.1493 C   0  0  2  0  0  0  0  0  0  0  0  0
    2.0026    0.5267   -0.8956 C   0  0  0  0  0  0  0  0  0  0  0  0
    2.4159   -0.2610    0.1361 C   0  0  0  0  0  0  0  0  0  0  0  0
    5.9608    1.4735    0.8559 C   0  0  0  0  0  0  0  0  0  0  0  0
    0.3575   -1.8654   -0.3680 C   0  0  1  0  0  0  0  0  0  0  0  0
    3.7455    2.3095   -0.2398 C   0  0  0  0  0  0  0  0  0  0  0  0
    2.6171    1.8795   -1.1782 C   0  0  2  0  0  0  0  0  0  0  0  0
   -1.2846    0.3860   -2.9886 C   0  0  0  0  0  0  0  0  0  0  0  0
    4.5062   -1.1146    1.4150 C   0  0  0  0  0  0  0  0  0  0  0  0
    0.1230    0.9224   -2.7976 C   0  0  0  0  0  0  0  0  0  0  0  0
    1.6088   -1.5228    0.4517 C   0  0  0  0  0  0  0  0  0  0  0  0
    6.6862    0.1620    1.2676 C   0  0  2  0  0  0  0  0  0  0  0  0
   -2.6909   -1.2668   -1.6826 C   0  0  1  0  0  0  0  0  0  0  0  0
   -0.8139    0.3447    0.0211 C   0  0  0  0  0  0  0  0  0  0  0  0
    1.6990   -0.9125   -2.8689 C   0  0  0  0  0  0  0  0  0  0  0  0
    5.8173   -0.7601    2.1086 C   0  0  0  0  0  0  0  0  0  0  0  0
    3.0168    0.7153    2.3210 C   0  0  0  0  0  0  0  0  0  0  0  0
    5.7321    2.3044    2.1522 C   0  0  0  0  0  0  0  0  0  0  0  0
    6.8519    2.3484   -0.0496 C   0  0  0  0  0  0  0  0  0  0  0  0
   -3.5061   -0.0323   -1.2510 C   0  0  0  0  0  0  0  0  0  0  0  0
   -3.4339   -2.0118   -2.7961 C   0  0  0  0  0  0  0  0  0  0  0  0
   -4.7308   -0.3796   -0.4026 C   0  0  0  0  0  0  0  0  0  0  0  0
   -0.4816   -3.8092    0.6816 C   0  0  0  0  0  0  0  0  0  0  0  0
   -5.5448    0.8478   -0.0581 C   0  0  0  0  0  0  0  0  0  0  0  0
   -1.5524   -4.2941    1.6112 C   0  0  0  0  0  0  0  0  0  0  0  0
   -7.4966    1.5264    1.0944 C   0  0  0  0  0  0  0  0  0  0  0  0
   -8.6456    0.9357    1.8993 C   0  0  0  0  0  0  0  0  0  0  0  0
   -9.6218    2.0133    2.3623 C   0  0  0  0  0  0  0  0  0  0  0  0
  -10.7902    1.4145    3.1288 C   0  0  0  0  0  0  0  0  0  0  0  0
    4.8406    0.5605   -0.6953 H   0  0  0  0  0  0  0  0  0  0  0  0
   -0.9158   -1.7324   -2.7700 H   0  0  0  0  0  0  0  0  0  0  0  0
    0.6596   -2.5919   -1.1318 H   0  0  0  0  0  0  0  0  0  0  0  0
    4.3687    3.0198   -0.7943 H   0  0  0  0  0  0  0  0  0  0  0  0
    3.3482    2.8886    0.5999 H   0  0  0  0  0  0  0  0  0  0  0  0
    3.0007    1.8738   -2.2060 H   0  0  0  0  0  0  0  0  0  0  0  0
   -1.9563    1.1822   -2.6685 H   0  0  0  0  0  0  0  0  0  0  0  0
   -1.4536    0.1618   -4.0458 H   0  0  0  0  0  0  0  0  0  0  0  0
    4.7271   -1.7012    0.5131 H   0  0  0  0  0  0  0  0  0  0  0  0
    3.9799   -1.7815    2.1037 H   0  0  0  0  0  0  0  0  0  0  0  0
    6.9921   -0.3663    0.3553 H   0  0  0  0  0  0  0  0  0  0  0  0
   -2.6215   -1.9578   -0.8365 H   0  0  0  0  0  0  0  0  0  0  0  0
   -1.6437   -0.1071    0.5717 H   0  0  0  0  0  0  0  0  0  0  0  0
   -1.0932    1.3175   -0.3934 H   0  0  0  0  0  0  0  0  0  0  0  0
   -0.0804    0.5801    0.8007 H   0  0  0  0  0  0  0  0  0  0  0  0
    1.0315   -1.3828   -3.5980 H   0  0  0  0  0  0  0  0  0  0  0  0
    2.2621   -1.7109   -2.3743 H   0  0  0  0  0  0  0  0  0  0  0  0
    2.4258   -0.3345   -3.4553 H   0  0  0  0  0  0  0  0  0  0  0  0
    5.6448   -0.3582    3.1120 H   0  0  0  0  0  0  0  0  0  0  0  0
    6.3718   -1.6909    2.2914 H   0  0  0  0  0  0  0  0  0  0  0  0
    3.7112    0.7762    3.1567 H   0  0  0  0  0  0  0  0  0  0  0  0
    2.2002    0.0842    2.6954 H   0  0  0  0  0  0  0  0  0  0  0  0
    2.5818    1.7057    2.1643 H   0  0  0  0  0  0  0  0  0  0  0  0
    6.6750    2.7703    2.4692 H   0  0  0  0  0  0  0  0  0  0  0  0
    7.8524    2.4812    0.3771 H   0  0  0  0  0  0  0  0  0  0  0  0
    6.4332    3.3485   -0.1995 H   0  0  0  0  0  0  0  0  0  0  0  0
    6.9741    1.8808   -1.0325 H   0  0  0  0  0  0  0  0  0  0  0  0
    5.4050    1.7355    3.0172 H   0  0  0  0  0  0  0  0  0  0  0  0
    5.0321    3.1301    1.9958 H   0  0  0  0  0  0  0  0  0  0  0  0
   -2.9683    0.7464   -0.7255 H   0  0  0  0  0  0  0  0  0  0  0  0
   -3.8905    0.4649   -2.1540 H   0  0  0  0  0  0  0  0  0  0  0  0
   -4.4177   -2.3566   -2.4646 H   0  0  0  0  0  0  0  0  0  0  0  0
   -2.8750   -2.9014   -3.1075 H   0  0  0  0  0  0  0  0  0  0  0  0
   -3.5774   -1.3803   -3.6795 H   0  0  0  0  0  0  0  0  0  0  0  0
    1.9992    3.7252   -1.3684 H   0  0  0  0  0  0  0  0  0  0  0  0
    8.3119   -0.4316    2.1795 H   0  0  0  0  0  0  0  0  0  0  0  0
   -4.4064   -0.8474    0.5336 H   0  0  0  0  0  0  0  0  0  0  0  0
   -5.3889   -1.0702   -0.9387 H   0  0  0  0  0  0  0  0  0  0  0  0
   -1.4432   -3.8103    2.5850 H   0  0  0  0  0  0  0  0  0  0  0  0
   -1.4551   -5.3752    1.7449 H   0  0  0  0  0  0  0  0  0  0  0  0
   -2.5360   -4.0828    1.1842 H   0  0  0  0  0  0  0  0  0  0  0  0
   -6.9314    2.2362    1.7097 H   0  0  0  0  0  0  0  0  0  0  0  0
   -7.8834    2.0435    0.2085 H   0  0  0  0  0  0  0  0  0  0  0  0
   -8.2436    0.3900    2.7621 H   0  0  0  0  0  0  0  0  0  0  0  0
   -9.1670    0.1878    1.2887 H   0  0  0  0  0  0  0  0  0  0  0  0
  -10.0070    2.5645    1.4965 H   0  0  0  0  0  0  0  0  0  0  0  0
   -9.1024    2.7361    3.0022 H   0  0  0  0  0  0  0  0  0  0  0  0
  -10.4428    0.8806    4.0190 H   0  0  0  0  0  0  0  0  0  0  0  0
  -11.4759    2.2040    3.4521 H   0  0  0  0  0  0  0  0  0  0  0  0
  -11.3512    0.7124    2.5037 H   0  0  0  0  0  0  0  0  0  0  0  0
  1 17  1  0  0  0  0
  1 35  1  0  0  0  0
  2 19  1  0  0  0  0
  2 76  1  0  0  0  0
  3 22  2  0  0  0  0
  4 24  1  0  0  0  0
  4 77  1  0  0  0  0
  5 23  2  0  0  0  0
  6 35  2  0  0  0  0
  7 36  1  0  0  0  0
  7 38  1  0  0  0  0
  8 36  2  0  0  0  0
  9 10  1  0  0  0  0
  9 13  1  0  0  0  0
  9 17  1  0  0  0  0
  9 26  1  0  0  0  0
 10 14  1  0  0  0  0
 10 22  1  0  0  0  0
 10 27  1  0  0  0  0
 11 12  1  0  0  0  0
 11 15  1  0  0  0  0
 11 21  1  0  0  0  0
 11 29  1  0  0  0  0
 12 16  1  0  0  0  0
 12 18  1  0  0  0  0
 12 42  1  0  0  0  0
 13 20  1  0  0  0  0
 13 25  1  0  0  0  0
 13 43  1  0  0  0  0
 14 15  2  0  0  0  0
 14 19  1  0  0  0  0
 15 23  1  0  0  0  0
 16 24  1  0  0  0  0
 16 30  1  0  0  0  0
 16 31  1  0  0  0  0
 17 23  1  0  0  0  0
 17 44  1  0  0  0  0
 18 19  1  0  0  0  0
 18 45  1  0  0  0  0
 18 46  1  0  0  0  0
 19 47  1  0  0  0  0
 20 22  1  0  0  0  0
 20 48  1  0  0  0  0
 20 49  1  0  0  0  0
 21 28  1  0  0  0  0
 21 50  1  0  0  0  0
 21 51  1  0  0  0  0
 24 28  1  0  0  0  0
 24 52  1  0  0  0  0
 25 32  1  0  0  0  0
 25 33  1  0  0  0  0
 25 53  1  0  0  0  0
 26 54  1  0  0  0  0
 26 55  1  0  0  0  0
 26 56  1  0  0  0  0
 27 57  1  0  0  0  0
 27 58  1  0  0  0  0
 27 59  1  0  0  0  0
 28 60  1  0  0  0  0
 28 61  1  0  0  0  0
 29 62  1  0  0  0  0
 29 63  1  0  0  0  0
 29 64  1  0  0  0  0
 30 65  1  0  0  0  0
 30 69  1  0  0  0  0
 30 70  1  0  0  0  0
 31 66  1  0  0  0  0
 31 67  1  0  0  0  0
 31 68  1  0  0  0  0
 32 34  1  0  0  0  0
 32 71  1  0  0  0  0
 32 72  1  0  0  0  0
 33 73  1  0  0  0  0
 33 74  1  0  0  0  0
 33 75  1  0  0  0  0
 34 36  1  0  0  0  0
 34 78  1  0  0  0  0
 34 79  1  0  0  0  0
 35 37  1  0  0  0  0
 37 80  1  0  0  0  0
 37 81  1  0  0  0  0
 37 82  1  0  0  0  0
 38 39  1  0  0  0  0
 38 83  1  0  0  0  0
 38 84  1  0  0  0  0
 39 40  1  0  0  0  0
 39 85  1  0  0  0  0
 39 86  1  0  0  0  0
 40 41  1  0  0  0  0
 40 87  1  0  0  0  0
 40 88  1  0  0  0  0
 41 89  1  0  0  0  0
 41 90  1  0  0  0  0
 41 91  1  0  0  0  0
M  END
> <PUBCHEM_COMPOUND_CID>
71561376

> <PUBCHEM_CONFORMER_RMSD>
1.2

> <PUBCHEM_CONFORMER_DIVERSEORDER>
1
11
10
8
5
6
7
9
2
12
3
13
4

> <PUBCHEM_MMFF94_PARTIAL_CHARGES>
25
1 -0.43
10 0.2
11 0.14
14 -0.28
15 -0.12
17 0.34
19 0.42
2 -0.68
20 0.06
22 0.45
23 0.49
24 0.28
3 -0.57
34 0.06
35 0.66
36 0.66
37 0.06
38 0.28
4 -0.68
5 -0.57
6 -0.57
7 -0.43
76 0.4
77 0.4
8 -0.57

> <PUBCHEM_EFFECTIVE_ROTOR_COUNT>
11.8

> <PUBCHEM_PHARMACOPHORE_FEATURES>
15
1 2 acceptor
1 2 donor
1 3 acceptor
1 33 hydrophobe
1 4 acceptor
1 4 donor
1 41 hydrophobe
1 5 acceptor
1 6 acceptor
1 8 acceptor
3 16 30 31 hydrophobe
5 9 10 13 20 22 rings
6 11 12 14 15 18 19 rings
6 11 12 16 21 24 28 rings
6 9 10 14 15 17 23 rings

> <PUBCHEM_HEAVY_ATOM_COUNT>
41

> <PUBCHEM_ATOM_DEF_STEREO_COUNT>
9

> <PUBCHEM_ATOM_UDEF_STEREO_COUNT>
0

> <PUBCHEM_BOND_DEF_STEREO_COUNT>
0

> <PUBCHEM_BOND_UDEF_STEREO_COUNT>
0

> <PUBCHEM_ISOTOPIC_ATOM_COUNT>
0

> <PUBCHEM_COMPONENT_COUNT>
1

> <PUBCHEM_CACTVS_TAUTO_COUNT>
4

> <PUBCHEM_CONFORMER_ID>
0443F0A000000001

> <PUBCHEM_MMFF94_ENERGY>
142.2049

> <PUBCHEM_FEATURE_SELFOVERLAP>
76.22

> <PUBCHEM_SHAPE_FINGERPRINT>
10190108 129 18335141934568226384
10906281 52 18339640144233232486
11115154 58 17186689141475863375
11607047 141 17915471484446221071
1200032 147 17561369452921428251
12035758 1 17676479549461893550
12047536 79 18120657925759909537
12124843 1 12607392305082834593
12422481 6 17603859005449536519
12758862 65 16081383938035010569
13140716 1 17606661781375219166
13383668 262 14780098642702477042
13782708 43 12035712190407714856
13811026 1 14707205535617611541
13947930 73 15285650923330499665
14395042 70 17845661334808583495
14537116 161 12319173925259460289
14790565 3 17897418680797724948
15347590 135 18411424969589194289
15510800 12 14779268618576479017
15840311 113 17846503582479719391
16112460 7 18188193399295683578
19302320 297 18342183297248890977
1979834 28 17968108482470769839
21133410 38 18410564073359774455
21792965 20 11743560922027734990
21796203 349 17458061581646904509
22122407 14 17629752637849829352
23522609 53 18268428130419476524
3178227 256 17967533462757075648
3918712 181 16988568936626152457
4112364 45 18129945555976769679
50009960 94 15575573499865229619
5104073 3 17753024363029222112

> <PUBCHEM_SHAPE_MULTIPOLES>
796.81
21.94
3.67
3.31
51.31
2.35
-1.17
-28.58
20.03
2.34
2.09
0.63
0.88
-3.17

> <PUBCHEM_SHAPE_SELFOVERLAP>
1673.311

> <PUBCHEM_SHAPE_VOLUME>
443

> <PUBCHEM_COORDINATE_TYPE>
2
5
10

$$$$
