44566900
  -OEChem-09122003253D

 75 78  0     1  0  0  0  0  0999 V2000
    1.1164   -3.0521    0.0097 O   0  0  0  0  0  0  0  0  0  0  0  0
    1.1993    2.7824   -0.8375 O   0  0  0  0  0  0  0  0  0  0  0  0
   -7.4687   -0.2322    0.9562 O   0  0  0  0  0  0  0  0  0  0  0  0
   -1.5125   -2.9443    0.2623 O   0  0  0  0  0  0  0  0  0  0  0  0
   -1.2144    2.9888   -0.0309 O   0  0  0  0  0  0  0  0  0  0  0  0
    7.5079    0.7818    1.4445 O   0  0  0  0  0  0  0  0  0  0  0  0
    7.5900    0.5821   -0.8524 O   0  0  0  0  0  0  0  0  0  0  0  0
    1.1674   -0.6468   -0.3254 C   0  0  1  0  0  0  0  0  0  0  0  0
    0.4967    0.6636    0.2260 C   0  0  2  0  0  0  0  0  0  0  0  0
   -3.2633   -0.6387   -0.1769 C   0  0  1  0  0  0  0  0  0  0  0  0
    2.6841   -0.3863   -0.0963 C   0  0  2  0  0  0  0  0  0  0  0  0
   -3.8900    0.7787    0.1025 C   0  0  2  0  0  0  0  0  0  0  0  0
   -0.9996    0.6073   -0.0206 C   0  0  0  0  0  0  0  0  0  0  0  0
   -1.7165   -0.5495    0.0353 C   0  0  0  0  0  0  0  0  0  0  0  0
   -5.4575    0.9033    0.0858 C   0  0  0  0  0  0  0  0  0  0  0  0
    0.5743   -1.8185    0.4533 C   0  0  1  0  0  0  0  0  0  0  0  0
    2.8646    1.0707   -0.5634 C   0  0  0  0  0  0  0  0  0  0  0  0
    1.4628    1.6519   -0.4524 C   0  0  0  0  0  0  0  0  0  0  0  0
   -3.9685   -1.6299    0.7944 C   0  0  0  0  0  0  0  0  0  0  0  0
   -3.1618    1.8359   -0.7230 C   0  0  0  0  0  0  0  0  0  0  0  0
   -0.9425   -1.8531    0.2582 C   0  0  0  0  0  0  0  0  0  0  0  0
    3.6743   -1.3178   -0.7891 C   0  0  1  0  0  0  0  0  0  0  0  0
   -6.0438   -0.1929    1.0180 C   0  0  2  0  0  0  0  0  0  0  0  0
    0.9145   -0.8635   -1.8614 C   0  0  0  0  0  0  0  0  0  0  0  0
   -1.7368    1.8962   -0.2424 C   0  0  0  0  0  0  0  0  0  0  0  0
    0.6660    0.9317    1.7473 C   0  0  0  0  0  0  0  0  0  0  0  0
   -5.4947   -1.5844    0.7375 C   0  0  0  0  0  0  0  0  0  0  0  0
   -3.4414   -1.1380   -1.6303 C   0  0  0  0  0  0  0  0  0  0  0  0
   -5.8800    2.2760    0.6839 C   0  0  0  0  0  0  0  0  0  0  0  0
   -6.0759    0.8530   -1.3261 C   0  0  0  0  0  0  0  0  0  0  0  0
    5.0746   -0.6912   -0.9306 C   0  0  0  0  0  0  0  0  0  0  0  0
    3.7746   -2.6370   -0.0171 C   0  0  0  0  0  0  0  0  0  0  0  0
    5.6874   -0.2652    0.4049 C   0  0  0  0  0  0  0  0  0  0  0  0
    7.0281    0.4099    0.2205 C   0  0  0  0  0  0  0  0  0  0  0  0
    8.7848    1.4283    1.4355 C   0  0  0  0  0  0  0  0  0  0  0  0
    2.8860   -0.4173    0.9821 H   0  0  0  0  0  0  0  0  0  0  0  0
   -3.6253    0.9932    1.1541 H   0  0  0  0  0  0  0  0  0  0  0  0
    0.7823   -1.7469    1.5254 H   0  0  0  0  0  0  0  0  0  0  0  0
    3.5332    1.6483    0.0776 H   0  0  0  0  0  0  0  0  0  0  0  0
    3.1610    1.1564   -1.6129 H   0  0  0  0  0  0  0  0  0  0  0  0
   -3.6982   -2.6666    0.5767 H   0  0  0  0  0  0  0  0  0  0  0  0
   -3.6434   -1.4291    1.8240 H   0  0  0  0  0  0  0  0  0  0  0  0
   -3.1745    1.6479   -1.7993 H   0  0  0  0  0  0  0  0  0  0  0  0
   -3.5897    2.8297   -0.5639 H   0  0  0  0  0  0  0  0  0  0  0  0
    3.3625   -1.5460   -1.8127 H   0  0  0  0  0  0  0  0  0  0  0  0
   -5.7895    0.0622    2.0559 H   0  0  0  0  0  0  0  0  0  0  0  0
    1.2823   -1.8385   -2.1979 H   0  0  0  0  0  0  0  0  0  0  0  0
   -0.1460   -0.8370   -2.1273 H   0  0  0  0  0  0  0  0  0  0  0  0
    1.3996   -0.1019   -2.4801 H   0  0  0  0  0  0  0  0  0  0  0  0
    0.2522    1.9136    2.0114 H   0  0  0  0  0  0  0  0  0  0  0  0
    0.1454    0.1930    2.3660 H   0  0  0  0  0  0  0  0  0  0  0  0
    1.7107    0.9586    2.0716 H   0  0  0  0  0  0  0  0  0  0  0  0
   -5.8998   -2.2873    1.4772 H   0  0  0  0  0  0  0  0  0  0  0  0
   -5.8626   -1.9536   -0.2264 H   0  0  0  0  0  0  0  0  0  0  0  0
   -4.4793   -1.3342   -1.8927 H   0  0  0  0  0  0  0  0  0  0  0  0
   -2.9181   -2.0887   -1.7899 H   0  0  0  0  0  0  0  0  0  0  0  0
   -3.0379   -0.4361   -2.3665 H   0  0  0  0  0  0  0  0  0  0  0  0
   -5.4001    2.4525    1.6530 H   0  0  0  0  0  0  0  0  0  0  0  0
   -5.6221    3.1093    0.0227 H   0  0  0  0  0  0  0  0  0  0  0  0
   -6.9637    2.3268    0.8419 H   0  0  0  0  0  0  0  0  0  0  0  0
   -5.5461    1.5061   -2.0262 H   0  0  0  0  0  0  0  0  0  0  0  0
   -6.0975   -0.1527   -1.7450 H   0  0  0  0  0  0  0  0  0  0  0  0
   -7.1200    1.1893   -1.3083 H   0  0  0  0  0  0  0  0  0  0  0  0
    5.0560    0.1577   -1.6234 H   0  0  0  0  0  0  0  0  0  0  0  0
    5.7434   -1.4196   -1.4104 H   0  0  0  0  0  0  0  0  0  0  0  0
    4.8105   -2.9933    0.0370 H   0  0  0  0  0  0  0  0  0  0  0  0
    3.2527   -3.4355   -0.5513 H   0  0  0  0  0  0  0  0  0  0  0  0
    3.4126   -2.5761    1.0135 H   0  0  0  0  0  0  0  0  0  0  0  0
    0.7713   -3.7505    0.5918 H   0  0  0  0  0  0  0  0  0  0  0  0
   -7.7736   -0.9013    1.5925 H   0  0  0  0  0  0  0  0  0  0  0  0
    5.0501    0.4338    0.9493 H   0  0  0  0  0  0  0  0  0  0  0  0
    5.8513   -1.1435    1.0389 H   0  0  0  0  0  0  0  0  0  0  0  0
    9.5460    0.7575    1.0258 H   0  0  0  0  0  0  0  0  0  0  0  0
    8.7353    2.3563    0.8579 H   0  0  0  0  0  0  0  0  0  0  0  0
    9.0501    1.6712    2.4679 H   0  0  0  0  0  0  0  0  0  0  0  0
  1 16  1  0  0  0  0
  1 69  1  0  0  0  0
  2 18  2  0  0  0  0
  3 23  1  0  0  0  0
  3 70  1  0  0  0  0
  4 21  2  0  0  0  0
  5 25  2  0  0  0  0
  6 34  1  0  0  0  0
  6 35  1  0  0  0  0
  7 34  2  0  0  0  0
  8  9  1  0  0  0  0
  8 11  1  0  0  0  0
  8 16  1  0  0  0  0
  8 24  1  0  0  0  0
  9 13  1  0  0  0  0
  9 18  1  0  0  0  0
  9 26  1  0  0  0  0
 10 12  1  0  0  0  0
 10 14  1  0  0  0  0
 10 19  1  0  0  0  0
 10 28  1  0  0  0  0
 11 17  1  0  0  0  0
 11 22  1  0  0  0  0
 11 36  1  0  0  0  0
 12 15  1  0  0  0  0
 12 20  1  0  0  0  0
 12 37  1  0  0  0  0
 13 14  2  0  0  0  0
 13 25  1  0  0  0  0
 14 21  1  0  0  0  0
 15 23  1  0  0  0  0
 15 29  1  0  0  0  0
 15 30  1  0  0  0  0
 16 21  1  0  0  0  0
 16 38  1  0  0  0  0
 17 18  1  0  0  0  0
 17 39  1  0  0  0  0
 17 40  1  0  0  0  0
 19 27  1  0  0  0  0
 19 41  1  0  0  0  0
 19 42  1  0  0  0  0
 20 25  1  0  0  0  0
 20 43  1  0  0  0  0
 20 44  1  0  0  0  0
 22 31  1  0  0  0  0
 22 32  1  0  0  0  0
 22 45  1  0  0  0  0
 23 27  1  0  0  0  0
 23 46  1  0  0  0  0
 24 47  1  0  0  0  0
 24 48  1  0  0  0  0
 24 49  1  0  0  0  0
 26 50  1  0  0  0  0
 26 51  1  0  0  0  0
 26 52  1  0  0  0  0
 27 53  1  0  0  0  0
 27 54  1  0  0  0  0
 28 55  1  0  0  0  0
 28 56  1  0  0  0  0
 28 57  1  0  0  0  0
 29 58  1  0  0  0  0
 29 59  1  0  0  0  0
 29 60  1  0  0  0  0
 30 61  1  0  0  0  0
 30 62  1  0  0  0  0
 30 63  1  0  0  0  0
 31 33  1  0  0  0  0
 31 64  1  0  0  0  0
 31 65  1  0  0  0  0
 32 66  1  0  0  0  0
 32 67  1  0  0  0  0
 32 68  1  0  0  0  0
 33 34  1  0  0  0  0
 33 71  1  0  0  0  0
 33 72  1  0  0  0  0
 35 73  1  0  0  0  0
 35 74  1  0  0  0  0
 35 75  1  0  0  0  0
M  END
> <PUBCHEM_COMPOUND_CID>
44566900

> <PUBCHEM_CONFORMER_RMSD>
1

> <PUBCHEM_CONFORMER_DIVERSEORDER>
3
5
2
6
7
1
8
4

> <PUBCHEM_MMFF94_PARTIAL_CHARGES>
23
1 -0.68
10 0.14
13 -0.12
14 -0.12
16 0.34
17 0.06
18 0.45
2 -0.57
20 0.06
21 0.49
23 0.28
25 0.49
3 -0.68
33 0.06
34 0.66
35 0.28
4 -0.57
5 -0.57
6 -0.43
69 0.4
7 -0.57
70 0.4
9 0.2

> <PUBCHEM_EFFECTIVE_ROTOR_COUNT>
6.6

> <PUBCHEM_PHARMACOPHORE_FEATURES>
14
1 1 acceptor
1 1 donor
1 2 acceptor
1 3 acceptor
1 3 donor
1 32 hydrophobe
1 4 acceptor
1 5 acceptor
1 7 acceptor
3 15 29 30 hydrophobe
5 8 9 11 17 18 rings
6 10 12 13 14 20 25 rings
6 10 12 15 19 23 27 rings
6 8 9 13 14 16 21 rings

> <PUBCHEM_HEAVY_ATOM_COUNT>
35

> <PUBCHEM_ATOM_DEF_STEREO_COUNT>
8

> <PUBCHEM_ATOM_UDEF_STEREO_COUNT>
0

> <PUBCHEM_BOND_DEF_STEREO_COUNT>
0

> <PUBCHEM_BOND_UDEF_STEREO_COUNT>
0

> <PUBCHEM_ISOTOPIC_ATOM_COUNT>
0

> <PUBCHEM_COMPONENT_COUNT>
1

> <PUBCHEM_CACTVS_TAUTO_COUNT>
40

> <PUBCHEM_CONFORMER_ID>
02A8097400000003

> <PUBCHEM_MMFF94_ENERGY>
135.3752

> <PUBCHEM_FEATURE_SELFOVERLAP>
71.161

> <PUBCHEM_SHAPE_FINGERPRINT>
10 15 18408321108224108528
10290309 65 18337388219301720590
10906281 52 18340222824896977398
10930396 42 17822555210727894200
11135926 11 18336259072383173983
11578080 2 17202189918811054370
12035758 1 18409176527447682978
12107698 1 15502378928255654359
12838862 33 18336251380402818629
13140716 1 18264492973491324395
13224815 77 18334014982905852357
13402501 40 18411421704332055151
13811026 1 18409166588935915118
14028597 1 17385996244453069336
14251764 18 18040435507901205502
14394314 77 18341055095181412553
14790565 3 18336839649214966461
14849402 71 18262806292843187868
15021287 119 17022908964581751821
15183329 4 18261115162043319412
15274700 242 18267001930710231502
18608769 82 18409450318955059547
18681886 176 18336543906071886617
19591789 44 18336834177742843459
21033648 29 17845919836880285050
21130935 74 18340492153432621907
21267235 1 18336559261386798803
21521721 280 18060701680512617450
21703447 108 18120653535860806154
22311459 1 18408325501374447238
23559900 14 18410290332700544785
24771293 8 18342454855250921212
24771750 20 17899151669673282916
3178227 256 18261971695071704521
335352 9 18408325510154117383
3383291 50 18187931723923315250
34797466 226 17346602955017353236
350125 39 18409733932793717945
4093350 32 17275110492385706566
4340502 62 18409167693375421870
437795 51 17632290199233526784
4616759 239 18343300366369703075
5104073 3 18266458711793668810
5265222 85 18268155438855886486
59755656 215 18410012109108821534
7226269 152 18202847647151762736

> <PUBCHEM_SHAPE_MULTIPOLES>
679.2
18.72
2.78
1.27
21.14
0.32
0.07
-5.55
-5.32
-0.54
-0.05
0.18
-0.08
1.16

> <PUBCHEM_SHAPE_SELFOVERLAP>
1451.43

> <PUBCHEM_SHAPE_VOLUME>
371.6

> <PUBCHEM_COORDINATE_TYPE>
2
5
10

$$$$
