71582788
  -OEChem-09122003413D

 85 88  0     1  0  0  0  0  0999 V2000
    0.7573    2.5492    1.1715 O   0  0  0  0  0  0  0  0  0  0  0  0
   -0.9566    2.4387   -1.3651 O   0  0  0  0  0  0  0  0  0  0  0  0
   -2.2442   -3.1327   -0.2342 O   0  0  0  0  0  0  0  0  0  0  0  0
   -7.2518    0.2622    1.1031 O   0  0  0  0  0  0  0  0  0  0  0  0
    6.1275    0.0165   -0.1488 O   0  0  0  0  0  0  0  0  0  0  0  0
    6.1155   -1.8169   -1.5491 O   0  0  0  0  0  0  0  0  0  0  0  0
    0.6302   -0.9883    0.2021 C   0  0  1  0  0  0  0  0  0  0  0  0
   -0.1437    0.2998    0.6345 C   0  0  1  0  0  0  0  0  0  0  0  0
    1.9405   -0.8657    1.0217 C   0  0  2  0  0  0  0  0  0  0  0  0
    0.9903    1.3466    0.4573 C   0  0  2  0  0  0  0  0  0  0  0  0
   -1.4545    0.3875   -0.1605 C   0  0  0  0  0  0  0  0  0  0  0  0
   -3.6307   -0.6882   -0.9865 C   0  0  2  0  0  0  0  0  0  0  0  0
    2.2653    0.6438    0.9758 C   0  0  0  0  0  0  0  0  0  0  0  0
   -2.2019   -0.7272   -0.3883 C   0  0  0  0  0  0  0  0  0  0  0  0
   -0.2127   -2.2082    0.5428 C   0  0  0  0  0  0  0  0  0  0  0  0
   -4.2628    0.7597   -0.9576 C   0  0  2  0  0  0  0  0  0  0  0  0
   -1.9328    1.7703   -0.5617 C   0  0  2  0  0  0  0  0  0  0  0  0
    3.1123   -1.7356    0.5825 C   0  0  1  0  0  0  0  0  0  0  0  0
   -3.2221    1.8020   -1.3726 C   0  0  0  0  0  0  0  0  0  0  0  0
    0.9607   -1.0381   -1.3247 C   0  0  0  0  0  0  0  0  0  0  0  0
   -0.5935    0.3234    2.1330 C   0  0  0  0  0  0  0  0  0  0  0  0
   -1.6101   -2.0934   -0.0454 C   0  0  0  0  0  0  0  0  0  0  0  0
   -5.1035    1.0995    0.3269 C   0  0  0  0  0  0  0  0  0  0  0  0
   -4.6059   -1.6714   -0.2623 C   0  0  0  0  0  0  0  0  0  0  0  0
   -3.5045   -1.1405   -2.4670 C   0  0  0  0  0  0  0  0  0  0  0  0
   -6.0627   -1.2377   -0.3110 C   0  0  0  0  0  0  0  0  0  0  0  0
   -6.2332    0.0602    0.4397 C   0  0  0  0  0  0  0  0  0  0  0  0
    4.3586   -1.5421    1.4689 C   0  0  0  0  0  0  0  0  0  0  0  0
    2.6989   -3.2112    0.5909 C   0  0  0  0  0  0  0  0  0  0  0  0
   -4.3369    1.0798    1.6560 C   0  0  0  0  0  0  0  0  0  0  0  0
   -5.7766    2.4828    0.1845 C   0  0  0  0  0  0  0  0  0  0  0  0
    5.6467   -2.0596    0.8259 C   0  0  0  0  0  0  0  0  0  0  0  0
    5.9841   -1.3098   -0.4437 C   0  0  0  0  0  0  0  0  0  0  0  0
    6.4617    0.8610   -1.2550 C   0  0  0  0  0  0  0  0  0  0  0  0
    6.5837    2.2951   -0.7595 C   0  0  0  0  0  0  0  0  0  0  0  0
    5.2840    2.7856   -0.1282 C   0  0  0  0  0  0  0  0  0  0  0  0
    5.4232    4.2030    0.4039 C   0  0  0  0  0  0  0  0  0  0  0  0
    1.7273   -1.1240    2.0685 H   0  0  0  0  0  0  0  0  0  0  0  0
    1.1387    1.6107   -0.5942 H   0  0  0  0  0  0  0  0  0  0  0  0
    2.5655    1.0132    1.9629 H   0  0  0  0  0  0  0  0  0  0  0  0
    3.0854    0.8561    0.2827 H   0  0  0  0  0  0  0  0  0  0  0  0
   -0.3096   -2.3627    1.6225 H   0  0  0  0  0  0  0  0  0  0  0  0
    0.1979   -3.1265    0.1202 H   0  0  0  0  0  0  0  0  0  0  0  0
   -5.0032    0.7863   -1.7745 H   0  0  0  0  0  0  0  0  0  0  0  0
   -2.0539    2.3716    0.3441 H   0  0  0  0  0  0  0  0  0  0  0  0
    3.3890   -1.4701   -0.4437 H   0  0  0  0  0  0  0  0  0  0  0  0
   -3.6346    2.8167   -1.3627 H   0  0  0  0  0  0  0  0  0  0  0  0
   -2.9759    1.6456   -2.4328 H   0  0  0  0  0  0  0  0  0  0  0  0
    0.2449    0.2583    2.8327 H   0  0  0  0  0  0  0  0  0  0  0  0
   -1.2837   -0.4898    2.3809 H   0  0  0  0  0  0  0  0  0  0  0  0
   -1.1201    1.2569    2.3674 H   0  0  0  0  0  0  0  0  0  0  0  0
    1.6942   -0.2807   -1.6193 H   0  0  0  0  0  0  0  0  0  0  0  0
    0.0782   -0.8746   -1.9507 H   0  0  0  0  0  0  0  0  0  0  0  0
    1.3666   -2.0065   -1.6293 H   0  0  0  0  0  0  0  0  0  0  0  0
   -4.3177   -1.7887    0.7902 H   0  0  0  0  0  0  0  0  0  0  0  0
   -4.5502   -2.6712   -0.7098 H   0  0  0  0  0  0  0  0  0  0  0  0
   -4.4719   -1.0962   -2.9799 H   0  0  0  0  0  0  0  0  0  0  0  0
   -3.1465   -2.1732   -2.5478 H   0  0  0  0  0  0  0  0  0  0  0  0
   -2.8014   -0.5163   -3.0290 H   0  0  0  0  0  0  0  0  0  0  0  0
   -6.6855   -1.9998    0.1706 H   0  0  0  0  0  0  0  0  0  0  0  0
   -6.4170   -1.1085   -1.3383 H   0  0  0  0  0  0  0  0  0  0  0  0
    4.4956   -0.4837    1.7153 H   0  0  0  0  0  0  0  0  0  0  0  0
    4.2101   -2.0552    2.4277 H   0  0  0  0  0  0  0  0  0  0  0  0
    1.5449    3.1094    1.0644 H   0  0  0  0  0  0  0  0  0  0  0  0
    2.1435   -3.4905   -0.3050 H   0  0  0  0  0  0  0  0  0  0  0  0
    3.5701   -3.8736    0.5866 H   0  0  0  0  0  0  0  0  0  0  0  0
    2.1215   -3.4702    1.4844 H   0  0  0  0  0  0  0  0  0  0  0  0
   -5.0255    1.1860    2.5038 H   0  0  0  0  0  0  0  0  0  0  0  0
   -3.7977    0.1444    1.8194 H   0  0  0  0  0  0  0  0  0  0  0  0
   -6.3399    2.5539   -0.7529 H   0  0  0  0  0  0  0  0  0  0  0  0
   -6.4845    2.6735    0.9999 H   0  0  0  0  0  0  0  0  0  0  0  0
   -5.0452    3.2967    0.2102 H   0  0  0  0  0  0  0  0  0  0  0  0
   -3.6259    1.9056    1.7298 H   0  0  0  0  0  0  0  0  0  0  0  0
   -1.2606    3.3528   -1.4989 H   0  0  0  0  0  0  0  0  0  0  0  0
    5.5847   -3.1258    0.5900 H   0  0  0  0  0  0  0  0  0  0  0  0
    6.4887   -1.9431    1.5182 H   0  0  0  0  0  0  0  0  0  0  0  0
    5.6793    0.7893   -2.0195 H   0  0  0  0  0  0  0  0  0  0  0  0
    7.4169    0.5379   -1.6841 H   0  0  0  0  0  0  0  0  0  0  0  0
    6.8673    2.9468   -1.5936 H   0  0  0  0  0  0  0  0  0  0  0  0
    7.3832    2.3482   -0.0103 H   0  0  0  0  0  0  0  0  0  0  0  0
    5.0002    2.1366    0.7071 H   0  0  0  0  0  0  0  0  0  0  0  0
    4.4724    2.7509   -0.8639 H   0  0  0  0  0  0  0  0  0  0  0  0
    5.6793    4.9001   -0.4002 H   0  0  0  0  0  0  0  0  0  0  0  0
    4.4809    4.5331    0.8525 H   0  0  0  0  0  0  0  0  0  0  0  0
    6.2026    4.2604    1.1704 H   0  0  0  0  0  0  0  0  0  0  0  0
  1 10  1  0  0  0  0
  1 64  1  0  0  0  0
  2 17  1  0  0  0  0
  2 74  1  0  0  0  0
  3 22  2  0  0  0  0
  4 27  2  0  0  0  0
  5 33  1  0  0  0  0
  5 34  1  0  0  0  0
  6 33  2  0  0  0  0
  7  8  1  0  0  0  0
  7  9  1  0  0  0  0
  7 15  1  0  0  0  0
  7 20  1  0  0  0  0
  8 10  1  0  0  0  0
  8 11  1  0  0  0  0
  8 21  1  0  0  0  0
  9 13  1  0  0  0  0
  9 18  1  0  0  0  0
  9 38  1  0  0  0  0
 10 13  1  0  0  0  0
 10 39  1  0  0  0  0
 11 14  2  0  0  0  0
 11 17  1  0  0  0  0
 12 14  1  0  0  0  0
 12 16  1  0  0  0  0
 12 24  1  0  0  0  0
 12 25  1  0  0  0  0
 13 40  1  0  0  0  0
 13 41  1  0  0  0  0
 14 22  1  0  0  0  0
 15 22  1  0  0  0  0
 15 42  1  0  0  0  0
 15 43  1  0  0  0  0
 16 19  1  0  0  0  0
 16 23  1  0  0  0  0
 16 44  1  0  0  0  0
 17 19  1  0  0  0  0
 17 45  1  0  0  0  0
 18 28  1  0  0  0  0
 18 29  1  0  0  0  0
 18 46  1  0  0  0  0
 19 47  1  0  0  0  0
 19 48  1  0  0  0  0
 20 52  1  0  0  0  0
 20 53  1  0  0  0  0
 20 54  1  0  0  0  0
 21 49  1  0  0  0  0
 21 50  1  0  0  0  0
 21 51  1  0  0  0  0
 23 27  1  0  0  0  0
 23 30  1  0  0  0  0
 23 31  1  0  0  0  0
 24 26  1  0  0  0  0
 24 55  1  0  0  0  0
 24 56  1  0  0  0  0
 25 57  1  0  0  0  0
 25 58  1  0  0  0  0
 25 59  1  0  0  0  0
 26 27  1  0  0  0  0
 26 60  1  0  0  0  0
 26 61  1  0  0  0  0
 28 32  1  0  0  0  0
 28 62  1  0  0  0  0
 28 63  1  0  0  0  0
 29 65  1  0  0  0  0
 29 66  1  0  0  0  0
 29 67  1  0  0  0  0
 30 68  1  0  0  0  0
 30 69  1  0  0  0  0
 30 73  1  0  0  0  0
 31 70  1  0  0  0  0
 31 71  1  0  0  0  0
 31 72  1  0  0  0  0
 32 33  1  0  0  0  0
 32 75  1  0  0  0  0
 32 76  1  0  0  0  0
 34 35  1  0  0  0  0
 34 77  1  0  0  0  0
 34 78  1  0  0  0  0
 35 36  1  0  0  0  0
 35 79  1  0  0  0  0
 35 80  1  0  0  0  0
 36 37  1  0  0  0  0
 36 81  1  0  0  0  0
 36 82  1  0  0  0  0
 37 83  1  0  0  0  0
 37 84  1  0  0  0  0
 37 85  1  0  0  0  0
M  END
> <PUBCHEM_COMPOUND_CID>
71582788

> <PUBCHEM_CONFORMER_RMSD>
1

> <PUBCHEM_CONFORMER_DIVERSEORDER>
5
18
32
9
11
29
58
10
57
43
24
17
64
61
56
54
53
63
38
42
21
60
48
33
35
36
44
28
37
45
19
31
51
49
40
62
8
13
2
16
30
41
47
34
7
12
50
52
27
14
4
26
59
23
3
15
39
22
6
1
55
25
20
46

> <PUBCHEM_MMFF94_PARTIAL_CHARGES>
22
1 -0.68
10 0.28
11 -0.28
12 0.14
14 -0.12
15 0.06
17 0.42
2 -0.68
22 0.49
23 0.06
26 0.06
27 0.45
3 -0.57
32 0.06
33 0.66
34 0.28
4 -0.57
5 -0.43
6 -0.57
64 0.4
74 0.4
8 0.14

> <PUBCHEM_EFFECTIVE_ROTOR_COUNT>
9.8

> <PUBCHEM_PHARMACOPHORE_FEATURES>
14
1 1 acceptor
1 1 donor
1 2 acceptor
1 2 donor
1 29 hydrophobe
1 3 acceptor
1 37 hydrophobe
1 4 acceptor
1 6 acceptor
3 23 30 31 hydrophobe
5 7 8 9 10 13 rings
6 11 12 14 16 17 19 rings
6 12 16 23 24 26 27 rings
6 7 8 11 14 15 22 rings

> <PUBCHEM_HEAVY_ATOM_COUNT>
37

> <PUBCHEM_ATOM_DEF_STEREO_COUNT>
7

> <PUBCHEM_ATOM_UDEF_STEREO_COUNT>
1

> <PUBCHEM_BOND_DEF_STEREO_COUNT>
0

> <PUBCHEM_BOND_UDEF_STEREO_COUNT>
0

> <PUBCHEM_ISOTOPIC_ATOM_COUNT>
0

> <PUBCHEM_COMPONENT_COUNT>
1

> <PUBCHEM_CACTVS_TAUTO_COUNT>
4

> <PUBCHEM_CONFORMER_ID>
0444444400000005

> <PUBCHEM_MMFF94_ENERGY>
126.2602

> <PUBCHEM_FEATURE_SELFOVERLAP>
71.156

> <PUBCHEM_SHAPE_FINGERPRINT>
10638233 991 18410291423764480824
10675989 125 15886564418508885069
10838868 160 18195240247361234584
10906281 52 18202011992497791771
11007060 377 18261111902690909507
11135609 187 18126849524464543064
11456790 92 17821999867160774912
11497681 19 18267860774024528231
12236239 1 17386006100870197935
12788726 201 17703515402154299873
131258 43 17768800215714928711
13782708 43 16951682481207720402
14394314 77 18335425655523605445
14790565 3 18410575041718784873
14849402 71 18410296951582953193
14856354 85 17561360695282359901
15001296 14 18335980965298938064
15064981 113 16988557954052086053
15183329 4 18272938236763595916
15276724 80 18334573521068193564
15361156 5 18412542150432798655
15685185 35 17242473826668210532
16110190 28 18411978053300622247
16112460 7 18410578387593462176
18608769 82 18333735745180634379
19319366 153 17968370174449067474
21521721 280 18259989270731959154
21781055 127 16486433018396485465
21859007 373 13182476420918627483
23522609 53 18270698501128281008
23559900 14 18272073999397169954
23569914 2 16736874304635284188
24771293 8 17986650736777133520
34797466 226 18413394224652036766
350125 39 18409727322960180385
4093350 32 17203610415516080520
4098825 35 18342460360797283325
437795 51 18259993690564276760
44317340 157 18412825789983089148
5265222 85 18271807964121350647
6328613 192 18412265038361697089

> <PUBCHEM_SHAPE_MULTIPOLES>
726.23
17.49
3.67
1.56
8.4
1.46
-0.17
4.84
-1.8
4.53
0.1
-0.34
-0.02
-1.02

> <PUBCHEM_SHAPE_SELFOVERLAP>
1526.505

> <PUBCHEM_SHAPE_VOLUME>
405

> <PUBCHEM_COORDINATE_TYPE>
2
5
10

$$$$
