15602283
  -OEChem-09122004353D

 79 82  0     1  0  0  0  0  0999 V2000
   -1.0030   -2.7988   -0.6148 O   0  0  0  0  0  0  0  0  0  0  0  0
    2.0605    2.8388    0.8888 O   0  0  0  0  0  0  0  0  0  0  0  0
    7.3773   -0.5730    1.8590 O   0  0  0  0  0  0  0  0  0  0  0  0
   -8.6725   -2.1224    0.7085 O   0  0  0  0  0  0  0  0  0  0  0  0
   -9.1409    0.0996    0.7040 O   0  0  0  0  0  0  0  0  0  0  0  0
   -0.5989    0.8525   -0.5584 C   0  0  1  0  0  0  0  0  0  0  0  0
   -0.0241   -0.5448   -0.1581 C   0  0  1  0  0  0  0  0  0  0  0  0
   -2.1234    0.6058   -0.4541 C   0  0  2  0  0  0  0  0  0  0  0  0
   -0.8966   -1.4576   -1.0659 C   0  0  2  0  0  0  0  0  0  0  0  0
    1.4954   -0.5046   -0.3232 C   0  0  0  0  0  0  0  0  0  0  0  0
    3.7820    0.6156   -0.0269 C   0  0  2  0  0  0  0  0  0  0  0  0
   -2.3007   -0.8090   -1.0478 C   0  0  0  0  0  0  0  0  0  0  0  0
   -0.0510    1.8983    0.4018 C   0  0  0  0  0  0  0  0  0  0  0  0
    2.2239    0.5859    0.0410 C   0  0  0  0  0  0  0  0  0  0  0  0
    4.3223   -0.8704   -0.0377 C   0  0  1  0  0  0  0  0  0  0  0  0
    2.1317   -1.7655   -0.8581 C   0  0  0  0  0  0  0  0  0  0  0  0
   -3.0366    1.6379   -1.1049 C   0  0  1  0  0  0  0  0  0  0  0  0
   -0.2371    1.2937   -2.0148 C   0  0  0  0  0  0  0  0  0  0  0  0
    3.6261   -1.6700   -1.1449 C   0  0  0  0  0  0  0  0  0  0  0  0
   -0.2570   -0.9603    1.3291 C   0  0  0  0  0  0  0  0  0  0  0  0
    1.4700    1.8409    0.4751 C   0  0  0  0  0  0  0  0  0  0  0  0
    5.8735   -1.0880    0.0213 C   0  0  0  0  0  0  0  0  0  0  0  0
    4.4392    1.2903    1.2098 C   0  0  0  0  0  0  0  0  0  0  0  0
    4.1127    1.4283   -1.2991 C   0  0  0  0  0  0  0  0  0  0  0  0
    5.9606    1.2192    1.2207 C   0  0  0  0  0  0  0  0  0  0  0  0
    6.4600   -0.1982    1.1255 C   0  0  0  0  0  0  0  0  0  0  0  0
   -4.5112    1.2128   -0.9482 C   0  0  0  0  0  0  0  0  0  0  0  0
   -2.7668    3.0232   -0.5103 C   0  0  0  0  0  0  0  0  0  0  0  0
    6.1704   -2.5614    0.4085 C   0  0  0  0  0  0  0  0  0  0  0  0
    6.6280   -0.8045   -1.2850 C   0  0  0  0  0  0  0  0  0  0  0  0
   -4.9509    1.0451    0.5092 C   0  0  0  0  0  0  0  0  0  0  0  0
   -6.3880    0.6066    0.5938 C   0  0  0  0  0  0  0  0  0  0  0  0
   -6.8475   -0.6584    0.6268 C   0  0  0  0  0  0  0  0  0  0  0  0
   -5.9983   -1.8949    0.6449 C   0  0  0  0  0  0  0  0  0  0  0  0
   -8.3290   -0.8126    0.6846 C   0  0  0  0  0  0  0  0  0  0  0  0
   -2.3574    0.5623    0.6147 H   0  0  0  0  0  0  0  0  0  0  0  0
   -0.5243   -1.4845   -2.0961 H   0  0  0  0  0  0  0  0  0  0  0  0
   -3.0085   -1.3970   -0.4567 H   0  0  0  0  0  0  0  0  0  0  0  0
   -2.6839   -0.7783   -2.0746 H   0  0  0  0  0  0  0  0  0  0  0  0
   -0.4455    1.7834    1.4168 H   0  0  0  0  0  0  0  0  0  0  0  0
   -0.2803    2.9144    0.0758 H   0  0  0  0  0  0  0  0  0  0  0  0
    3.9607   -1.3030    0.9123 H   0  0  0  0  0  0  0  0  0  0  0  0
    1.9713   -2.5671   -0.1263 H   0  0  0  0  0  0  0  0  0  0  0  0
    1.6432   -2.0738   -1.7883 H   0  0  0  0  0  0  0  0  0  0  0  0
   -2.8514    1.6946   -2.1846 H   0  0  0  0  0  0  0  0  0  0  0  0
    0.8385    1.2653   -2.2118 H   0  0  0  0  0  0  0  0  0  0  0  0
   -0.7087    0.6614   -2.7737 H   0  0  0  0  0  0  0  0  0  0  0  0
   -0.5512    2.3215   -2.2193 H   0  0  0  0  0  0  0  0  0  0  0  0
    4.0131   -2.6901   -1.2225 H   0  0  0  0  0  0  0  0  0  0  0  0
    3.7902   -1.2123   -2.1261 H   0  0  0  0  0  0  0  0  0  0  0  0
    0.2028   -0.2661    2.0403 H   0  0  0  0  0  0  0  0  0  0  0  0
   -1.3169   -1.0379    1.5896 H   0  0  0  0  0  0  0  0  0  0  0  0
    0.1850   -1.9441    1.5320 H   0  0  0  0  0  0  0  0  0  0  0  0
    4.0503    0.8262    2.1263 H   0  0  0  0  0  0  0  0  0  0  0  0
    4.1951    2.3538    1.2669 H   0  0  0  0  0  0  0  0  0  0  0  0
    5.1799    1.5809   -1.4479 H   0  0  0  0  0  0  0  0  0  0  0  0
    3.7142    0.9626   -2.2061 H   0  0  0  0  0  0  0  0  0  0  0  0
    3.6775    2.4340   -1.2480 H   0  0  0  0  0  0  0  0  0  0  0  0
    6.3275    1.6505    2.1597 H   0  0  0  0  0  0  0  0  0  0  0  0
    6.4028    1.8019    0.4074 H   0  0  0  0  0  0  0  0  0  0  0  0
   -5.1467    1.9682   -1.4302 H   0  0  0  0  0  0  0  0  0  0  0  0
   -4.6938    0.2830   -1.5008 H   0  0  0  0  0  0  0  0  0  0  0  0
   -0.1210   -3.2017   -0.6631 H   0  0  0  0  0  0  0  0  0  0  0  0
   -1.9144    3.5145   -0.9820 H   0  0  0  0  0  0  0  0  0  0  0  0
   -3.6189    3.6857   -0.7057 H   0  0  0  0  0  0  0  0  0  0  0  0
   -2.6290    2.9968    0.5751 H   0  0  0  0  0  0  0  0  0  0  0  0
    5.8669   -3.2639   -0.3730 H   0  0  0  0  0  0  0  0  0  0  0  0
    5.6580   -2.8390    1.3369 H   0  0  0  0  0  0  0  0  0  0  0  0
    7.2422   -2.7258    0.5743 H   0  0  0  0  0  0  0  0  0  0  0  0
    6.6927    0.2578   -1.5207 H   0  0  0  0  0  0  0  0  0  0  0  0
    6.1790   -1.3229   -2.1375 H   0  0  0  0  0  0  0  0  0  0  0  0
    7.6681   -1.1468   -1.2109 H   0  0  0  0  0  0  0  0  0  0  0  0
   -4.3300    0.3318    1.0543 H   0  0  0  0  0  0  0  0  0  0  0  0
   -4.8555    1.9958    1.0470 H   0  0  0  0  0  0  0  0  0  0  0  0
   -7.0940    1.4357    0.5875 H   0  0  0  0  0  0  0  0  0  0  0  0
   -6.1793   -2.4931   -0.2543 H   0  0  0  0  0  0  0  0  0  0  0  0
   -4.9295   -1.6828    0.6842 H   0  0  0  0  0  0  0  0  0  0  0  0
   -6.2297   -2.5062    1.5239 H   0  0  0  0  0  0  0  0  0  0  0  0
   -9.6449   -2.2464    0.7447 H   0  0  0  0  0  0  0  0  0  0  0  0
  1  9  1  0  0  0  0
  1 63  1  0  0  0  0
  2 21  2  0  0  0  0
  3 26  2  0  0  0  0
  4 35  1  0  0  0  0
  4 79  1  0  0  0  0
  5 35  2  0  0  0  0
  6  7  1  0  0  0  0
  6  8  1  0  0  0  0
  6 13  1  0  0  0  0
  6 18  1  0  0  0  0
  7  9  1  0  0  0  0
  7 10  1  0  0  0  0
  7 20  1  0  0  0  0
  8 12  1  0  0  0  0
  8 17  1  0  0  0  0
  8 36  1  0  0  0  0
  9 12  1  0  0  0  0
  9 37  1  0  0  0  0
 10 14  2  0  0  0  0
 10 16  1  0  0  0  0
 11 14  1  0  0  0  0
 11 15  1  0  0  0  0
 11 23  1  0  0  0  0
 11 24  1  0  0  0  0
 12 38  1  0  0  0  0
 12 39  1  0  0  0  0
 13 21  1  0  0  0  0
 13 40  1  0  0  0  0
 13 41  1  0  0  0  0
 14 21  1  0  0  0  0
 15 19  1  0  0  0  0
 15 22  1  0  0  0  0
 15 42  1  0  0  0  0
 16 19  1  0  0  0  0
 16 43  1  0  0  0  0
 16 44  1  0  0  0  0
 17 27  1  0  0  0  0
 17 28  1  0  0  0  0
 17 45  1  0  0  0  0
 18 46  1  0  0  0  0
 18 47  1  0  0  0  0
 18 48  1  0  0  0  0
 19 49  1  0  0  0  0
 19 50  1  0  0  0  0
 20 51  1  0  0  0  0
 20 52  1  0  0  0  0
 20 53  1  0  0  0  0
 22 26  1  0  0  0  0
 22 29  1  0  0  0  0
 22 30  1  0  0  0  0
 23 25  1  0  0  0  0
 23 54  1  0  0  0  0
 23 55  1  0  0  0  0
 24 56  1  0  0  0  0
 24 57  1  0  0  0  0
 24 58  1  0  0  0  0
 25 26  1  0  0  0  0
 25 59  1  0  0  0  0
 25 60  1  0  0  0  0
 27 31  1  0  0  0  0
 27 61  1  0  0  0  0
 27 62  1  0  0  0  0
 28 64  1  0  0  0  0
 28 65  1  0  0  0  0
 28 66  1  0  0  0  0
 29 67  1  0  0  0  0
 29 68  1  0  0  0  0
 29 69  1  0  0  0  0
 30 70  1  0  0  0  0
 30 71  1  0  0  0  0
 30 72  1  0  0  0  0
 31 32  1  0  0  0  0
 31 73  1  0  0  0  0
 31 74  1  0  0  0  0
 32 33  2  0  0  0  0
 32 75  1  0  0  0  0
 33 34  1  0  0  0  0
 33 35  1  0  0  0  0
 34 76  1  0  0  0  0
 34 77  1  0  0  0  0
 34 78  1  0  0  0  0
M  END
> <PUBCHEM_COMPOUND_CID>
15602283

> <PUBCHEM_CONFORMER_RMSD>
1

> <PUBCHEM_CONFORMER_DIVERSEORDER>
6
1
4
5
2
3

> <PUBCHEM_MMFF94_PARTIAL_CHARGES>
24
1 -0.68
10 -0.28
11 0.14
13 0.06
14 -0.12
16 0.14
2 -0.57
21 0.49
22 0.06
25 0.06
26 0.45
3 -0.57
31 0.14
32 -0.29
33 -0.12
34 0.14
35 0.71
4 -0.65
5 -0.57
63 0.4
7 0.14
75 0.15
79 0.5
9 0.28

> <PUBCHEM_EFFECTIVE_ROTOR_COUNT>
6.8

> <PUBCHEM_PHARMACOPHORE_FEATURES>
15
1 1 acceptor
1 1 donor
1 2 acceptor
1 28 hydrophobe
1 3 acceptor
1 34 hydrophobe
1 4 acceptor
1 5 acceptor
3 22 29 30 hydrophobe
3 4 5 35 anion
4 17 27 31 32 hydrophobe
5 6 7 8 9 12 rings
6 10 11 14 15 16 19 rings
6 11 15 22 23 25 26 rings
6 6 7 10 13 14 21 rings

> <PUBCHEM_HEAVY_ATOM_COUNT>
35

> <PUBCHEM_ATOM_DEF_STEREO_COUNT>
7

> <PUBCHEM_ATOM_UDEF_STEREO_COUNT>
0

> <PUBCHEM_BOND_DEF_STEREO_COUNT>
1

> <PUBCHEM_BOND_UDEF_STEREO_COUNT>
0

> <PUBCHEM_ISOTOPIC_ATOM_COUNT>
0

> <PUBCHEM_COMPONENT_COUNT>
1

> <PUBCHEM_CACTVS_TAUTO_COUNT>
10

> <PUBCHEM_CONFORMER_ID>
00EE126B00000006

> <PUBCHEM_MMFF94_ENERGY>
130.0187

> <PUBCHEM_FEATURE_SELFOVERLAP>
76.279

> <PUBCHEM_SHAPE_FINGERPRINT>
10 15 18410852187790538872
10076449 9 18341343218930014260
10190108 129 17967253096641790603
11456790 92 17846210017428715882
11578080 2 16915361428511082834
11646440 116 17989203733455946064
12035758 1 18271233976449624984
12166972 35 17967538960626925636
12236239 1 14996568348268256900
13692114 37 17967533493023139178
13782708 43 18114180808905359090
13811026 1 18408600349781200549
14028597 1 17346604028326894707
14068700 675 17603588534938869189
14849402 71 17846211228261970193
14955137 171 18408606989378984933
15064981 113 13984927551439417491
15183329 4 18059849545973725620
15301273 46 18333728005828382069
15840311 113 16415478259357590665
18335252 98 18335421266567116554
18608769 82 18410292527534159215
20105231 36 17988651761739867494
21130935 74 18265049133534097570
21267235 1 18343024354986848932
21424621 283 12823025214096651157
21781051 124 18261682540113433779
21792934 111 18413103949023423209
22149856 69 18201173061453057689
23559900 14 18272641343566325728
23569943 247 17537994763465322986
2747138 104 18409169913620416897
3178227 256 18343302569940956913
3383291 50 18410290306968021899
350125 39 18341052995036544557
392239 28 18130798884495211625
4093350 32 16128658535829720708
4340502 62 18202846547761564574
504579 68 13551191082936486849
5104073 3 18270397161842936601
6081469 158 18040151834592011119
6086070 43 15213288712625895245
9896288 288 18197783207186481161

> <PUBCHEM_SHAPE_MULTIPOLES>
690.94
21.82
2.66
1.41
28.69
0.19
0.11
-9.32
-8.85
0.32
0.11
-1.07
0.13
1.48

> <PUBCHEM_SHAPE_SELFOVERLAP>
1464.418

> <PUBCHEM_SHAPE_VOLUME>
384

> <PUBCHEM_COORDINATE_TYPE>
2
5
10

$$$$
