139585728
  -OEChem-09122005163D

 73 76  0     1  0  0  0  0  0999 V2000
   -1.2249    0.5888    1.1536 O   0  0  0  0  0  0  0  0  0  0  0  0
   -3.6994    0.9745    1.5122 O   0  0  0  0  0  0  0  0  0  0  0  0
   -0.1401    3.9382    0.0469 O   0  0  0  0  0  0  0  0  0  0  0  0
    0.2962   -2.4675   -0.4980 O   0  0  0  0  0  0  0  0  0  0  0  0
    2.2377    3.1421   -0.5107 O   0  0  0  0  0  0  0  0  0  0  0  0
    6.6471   -1.9721   -0.9648 O   0  0  0  0  0  0  0  0  0  0  0  0
   -2.0334   -1.5752    1.1613 O   0  0  0  0  0  0  0  0  0  0  0  0
   -7.2597   -2.7295   -0.3960 O   0  0  0  0  0  0  0  0  0  0  0  0
   -5.1369   -3.0796   -1.1272 O   0  0  0  0  0  0  0  0  0  0  0  0
   -1.3420    0.7017   -0.2835 C   0  0  2  0  0  0  0  0  0  0  0  0
   -0.2095    1.6203   -0.8137 C   0  0  2  0  0  0  0  0  0  0  0  0
    2.7076   -0.9316    0.1893 C   0  0  1  0  0  0  0  0  0  0  0  0
   -2.6409    1.4648   -0.5876 C   0  0  2  0  0  0  0  0  0  0  0  0
    3.8546    0.1213   -0.0447 C   0  0  2  0  0  0  0  0  0  0  0  0
    1.1200    1.0347   -0.3746 C   0  0  0  0  0  0  0  0  0  0  0  0
    1.3446   -0.3028   -0.2536 C   0  0  0  0  0  0  0  0  0  0  0  0
   -1.2052   -0.6854   -0.8630 C   0  0  0  0  0  0  0  0  0  0  0  0
   -2.2967    2.8896   -0.1236 C   0  0  0  0  0  0  0  0  0  0  0  0
    5.3317   -0.3187    0.2339 C   0  0  0  0  0  0  0  0  0  0  0  0
   -0.7798    2.9376   -0.2474 C   0  0  0  0  0  0  0  0  0  0  0  0
   -3.8957    0.9342    0.0963 C   0  0  1  0  0  0  0  0  0  0  0  0
    3.4702    1.4508    0.5998 C   0  0  0  0  0  0  0  0  0  0  0  0
    3.1208   -2.1826   -0.6377 C   0  0  0  0  0  0  0  0  0  0  0  0
    0.1704   -1.2435   -0.5325 C   0  0  0  0  0  0  0  0  0  0  0  0
    2.2616    1.9748   -0.1263 C   0  0  0  0  0  0  0  0  0  0  0  0
   -0.1613    1.7977   -2.3485 C   0  0  0  0  0  0  0  0  0  0  0  0
    2.4994   -1.3320    1.6678 C   0  0  0  0  0  0  0  0  0  0  0  0
    4.5012   -2.7282   -0.2934 C   0  0  0  0  0  0  0  0  0  0  0  0
    5.5768   -1.6822   -0.4259 C   0  0  0  0  0  0  0  0  0  0  0  0
   -4.2349   -0.5189   -0.3123 C   0  0  0  0  0  0  0  0  0  0  0  0
    5.7169   -0.4162    1.7165 C   0  0  0  0  0  0  0  0  0  0  0  0
    6.3041    0.6955   -0.4250 C   0  0  0  0  0  0  0  0  0  0  0  0
   -5.0931    1.8402   -0.2243 C   0  0  0  0  0  0  0  0  0  0  0  0
   -1.8478   -0.4888    1.6928 C   0  0  0  0  0  0  0  0  0  0  0  0
   -5.6920   -0.9511   -0.1306 C   0  0  0  0  0  0  0  0  0  0  0  0
   -2.2932   -0.1473    3.0824 C   0  0  0  0  0  0  0  0  0  0  0  0
   -5.9743   -2.3533   -0.6077 C   0  0  0  0  0  0  0  0  0  0  0  0
   -2.8200    1.4730   -1.6704 H   0  0  0  0  0  0  0  0  0  0  0  0
    3.8364    0.3008   -1.1354 H   0  0  0  0  0  0  0  0  0  0  0  0
   -1.1878   -0.5788   -1.9584 H   0  0  0  0  0  0  0  0  0  0  0  0
   -1.9755   -1.4456   -0.7986 H   0  0  0  0  0  0  0  0  0  0  0  0
   -2.5568    3.0914    0.9194 H   0  0  0  0  0  0  0  0  0  0  0  0
   -2.7419    3.6419   -0.7807 H   0  0  0  0  0  0  0  0  0  0  0  0
    4.2596    2.1984    0.4833 H   0  0  0  0  0  0  0  0  0  0  0  0
    3.2508    1.3786    1.6681 H   0  0  0  0  0  0  0  0  0  0  0  0
    3.0861   -1.9382   -1.7080 H   0  0  0  0  0  0  0  0  0  0  0  0
    2.4327   -3.0167   -0.4827 H   0  0  0  0  0  0  0  0  0  0  0  0
    0.5722    2.5677   -2.6201 H   0  0  0  0  0  0  0  0  0  0  0  0
   -1.1126    2.1317   -2.7734 H   0  0  0  0  0  0  0  0  0  0  0  0
    0.1359    0.8823   -2.8710 H   0  0  0  0  0  0  0  0  0  0  0  0
    3.3545   -1.8491    2.0990 H   0  0  0  0  0  0  0  0  0  0  0  0
    1.6554   -2.0247    1.7739 H   0  0  0  0  0  0  0  0  0  0  0  0
    2.2767   -0.4703    2.3050 H   0  0  0  0  0  0  0  0  0  0  0  0
    4.7361   -3.5508   -0.9794 H   0  0  0  0  0  0  0  0  0  0  0  0
    4.5361   -3.1381    0.7202 H   0  0  0  0  0  0  0  0  0  0  0  0
   -3.7307   -1.2782    0.2464 H   0  0  0  0  0  0  0  0  0  0  0  0
   -3.9959   -0.6534   -1.3752 H   0  0  0  0  0  0  0  0  0  0  0  0
    5.4322    0.4820    2.2726 H   0  0  0  0  0  0  0  0  0  0  0  0
    5.2845   -1.2841    2.2150 H   0  0  0  0  0  0  0  0  0  0  0  0
    7.3455    0.3576   -0.3567 H   0  0  0  0  0  0  0  0  0  0  0  0
    6.0804    0.8256   -1.4901 H   0  0  0  0  0  0  0  0  0  0  0  0
    6.2658    1.6774    0.0557 H   0  0  0  0  0  0  0  0  0  0  0  0
    6.8026   -0.5333    1.8260 H   0  0  0  0  0  0  0  0  0  0  0  0
   -5.9787    1.5837    0.3678 H   0  0  0  0  0  0  0  0  0  0  0  0
   -5.3490    1.8134   -1.2888 H   0  0  0  0  0  0  0  0  0  0  0  0
   -4.8906    2.8828    0.0449 H   0  0  0  0  0  0  0  0  0  0  0  0
   -4.5532    0.7793    1.9359 H   0  0  0  0  0  0  0  0  0  0  0  0
   -6.3604   -0.3101   -0.7146 H   0  0  0  0  0  0  0  0  0  0  0  0
   -5.9680   -0.8918    0.9281 H   0  0  0  0  0  0  0  0  0  0  0  0
   -1.5998   -0.6356    3.7759 H   0  0  0  0  0  0  0  0  0  0  0  0
   -3.2956   -0.5367    3.2813 H   0  0  0  0  0  0  0  0  0  0  0  0
   -2.2478    0.9245    3.2993 H   0  0  0  0  0  0  0  0  0  0  0  0
   -7.4300   -3.6436   -0.7087 H   0  0  0  0  0  0  0  0  0  0  0  0
  1 10  1  0  0  0  0
  1 34  1  0  0  0  0
  2 21  1  0  0  0  0
  2 67  1  0  0  0  0
  3 20  2  0  0  0  0
  4 24  2  0  0  0  0
  5 25  2  0  0  0  0
  6 29  2  0  0  0  0
  7 34  2  0  0  0  0
  8 37  1  0  0  0  0
  8 73  1  0  0  0  0
  9 37  2  0  0  0  0
 10 11  1  0  0  0  0
 10 13  1  0  0  0  0
 10 17  1  0  0  0  0
 11 15  1  0  0  0  0
 11 20  1  0  0  0  0
 11 26  1  0  0  0  0
 12 14  1  0  0  0  0
 12 16  1  0  0  0  0
 12 23  1  0  0  0  0
 12 27  1  0  0  0  0
 13 18  1  0  0  0  0
 13 21  1  0  0  0  0
 13 38  1  0  0  0  0
 14 19  1  0  0  0  0
 14 22  1  0  0  0  0
 14 39  1  0  0  0  0
 15 16  2  0  0  0  0
 15 25  1  0  0  0  0
 16 24  1  0  0  0  0
 17 24  1  0  0  0  0
 17 40  1  0  0  0  0
 17 41  1  0  0  0  0
 18 20  1  0  0  0  0
 18 42  1  0  0  0  0
 18 43  1  0  0  0  0
 19 29  1  0  0  0  0
 19 31  1  0  0  0  0
 19 32  1  0  0  0  0
 21 30  1  0  0  0  0
 21 33  1  0  0  0  0
 22 25  1  0  0  0  0
 22 44  1  0  0  0  0
 22 45  1  0  0  0  0
 23 28  1  0  0  0  0
 23 46  1  0  0  0  0
 23 47  1  0  0  0  0
 26 48  1  0  0  0  0
 26 49  1  0  0  0  0
 26 50  1  0  0  0  0
 27 51  1  0  0  0  0
 27 52  1  0  0  0  0
 27 53  1  0  0  0  0
 28 29  1  0  0  0  0
 28 54  1  0  0  0  0
 28 55  1  0  0  0  0
 30 35  1  0  0  0  0
 30 56  1  0  0  0  0
 30 57  1  0  0  0  0
 31 58  1  0  0  0  0
 31 59  1  0  0  0  0
 31 63  1  0  0  0  0
 32 60  1  0  0  0  0
 32 61  1  0  0  0  0
 32 62  1  0  0  0  0
 33 64  1  0  0  0  0
 33 65  1  0  0  0  0
 33 66  1  0  0  0  0
 34 36  1  0  0  0  0
 35 37  1  0  0  0  0
 35 68  1  0  0  0  0
 35 69  1  0  0  0  0
 36 70  1  0  0  0  0
 36 71  1  0  0  0  0
 36 72  1  0  0  0  0
M  END
> <PUBCHEM_COMPOUND_CID>
139585728

> <PUBCHEM_CONFORMER_RMSD>
1

> <PUBCHEM_CONFORMER_DIVERSEORDER>
1
10
6
5
3
7
9
4
8

> <PUBCHEM_MMFF94_PARTIAL_CHARGES>
30
1 -0.43
10 0.28
11 0.2
12 0.14
15 -0.12
16 -0.12
17 0.06
18 0.06
19 0.06
2 -0.68
20 0.45
21 0.28
22 0.06
24 0.49
25 0.49
28 0.06
29 0.45
3 -0.57
34 0.66
35 0.06
36 0.06
37 0.66
4 -0.57
5 -0.57
6 -0.57
67 0.4
7 -0.57
73 0.5
8 -0.65
9 -0.57

> <PUBCHEM_EFFECTIVE_ROTOR_COUNT>
7.4

> <PUBCHEM_PHARMACOPHORE_FEATURES>
15
1 2 acceptor
1 2 donor
1 3 acceptor
1 4 acceptor
1 5 acceptor
1 6 acceptor
1 7 acceptor
1 8 acceptor
1 9 acceptor
3 19 31 32 hydrophobe
3 8 9 37 anion
5 10 11 13 18 20 rings
6 10 11 15 16 17 24 rings
6 12 14 15 16 22 25 rings
6 12 14 19 23 28 29 rings

> <PUBCHEM_HEAVY_ATOM_COUNT>
37

> <PUBCHEM_ATOM_DEF_STEREO_COUNT>
5

> <PUBCHEM_ATOM_UDEF_STEREO_COUNT>
1

> <PUBCHEM_BOND_DEF_STEREO_COUNT>
0

> <PUBCHEM_BOND_UDEF_STEREO_COUNT>
0

> <PUBCHEM_ISOTOPIC_ATOM_COUNT>
0

> <PUBCHEM_COMPONENT_COUNT>
1

> <PUBCHEM_CACTVS_TAUTO_COUNT>
-1

> <PUBCHEM_CONFORMER_ID>
0851E8C000000001

> <PUBCHEM_MMFF94_ENERGY>
177.4413

> <PUBCHEM_FEATURE_SELFOVERLAP>
76.295

> <PUBCHEM_SHAPE_FINGERPRINT>
10366900 7 17821450140625700074
10906281 52 18190760638550475061
10930396 42 17897417679970326128
11578080 2 16700029777757817594
11607047 403 16334382925280389059
11963148 33 18337665322476776318
12011746 2 18261394378036264596
12107698 1 18333725836416197568
12166972 35 18202003260865819456
12236239 1 17131546146460567136
12422481 6 17418374701063489551
12596602 18 17561082497318418114
12645989 146 18339366262643195486
12788726 201 18044936766386875968
13140716 1 18335423508097355728
13224815 77 18114464445194904160
13402501 40 18264209123787842236
1361 2 18337668732205393059
13782708 43 17988642944061329422
13811026 1 18410846634149963679
14068700 675 18410291406373446160
15082195 135 17751367406594181301
15361156 5 18115322097854584172
15927050 60 17476639149190179876
17349148 13 18259988201733287029
1813 80 17676210139554889148
18393751 57 18053638525764753088
18608769 82 18341609296697128710
20028762 73 18342454871893207879
20721686 56 18335706053206426440
20775438 99 17762037136740718511
21033648 29 17987219059439236488
21033650 10 16443329959369917165
21267235 1 18410577314146946047
23522609 53 18121250673358362364
23559900 14 18409442570591685153
23569914 152 12327285030014792362
249057 3 18408037400133546277
3380486 145 18337689528917043001
3383291 50 18260544554148100187
350125 39 18343300396418577294
392239 28 18336830796928452656
4015057 19 18114186392764277249
439807 62 18124592253342895447
4461854 278 17987528159646556511
463206 1 18192712465453747203
5104073 3 18130499730726371858
57527295 17 17676759882541585419
6004065 56 18336543940357739403
70251023 43 18408319995094570042
77296 10 18342173406017224863

> <PUBCHEM_SHAPE_MULTIPOLES>
708.62
14.19
3.62
1.56
0.74
0.89
0.92
-10.44
-1.18
-2.04
-1.02
-0.44
-0.16
-0.36

> <PUBCHEM_SHAPE_SELFOVERLAP>
1542.755

> <PUBCHEM_SHAPE_VOLUME>
377.2

> <PUBCHEM_COORDINATE_TYPE>
2
5
10

$$$$
