101600073
  -OEChem-09122004133D

 86 89  0     1  0  0  0  0  0999 V2000
    0.6240   -2.5217   -0.3580 O   0  0  0  0  0  0  0  0  0  0  0  0
   -2.3396   -2.2901   -0.9305 O   0  0  0  0  0  0  0  0  0  0  0  0
   -7.7636    0.8370   -1.4921 O   0  0  0  0  0  0  0  0  0  0  0  0
    1.0937   -3.7219    1.5593 O   0  0  0  0  0  0  0  0  0  0  0  0
    9.7873    0.5102   -0.1796 O   0  0  0  0  0  0  0  0  0  0  0  0
    8.6723   -1.4553   -0.4034 O   0  0  0  0  0  0  0  0  0  0  0  0
    0.4219    1.0637    0.4310 C   0  0  1  0  0  0  0  0  0  0  0  0
   -0.2345   -0.1966   -0.2473 C   0  0  2  0  0  0  0  0  0  0  0  0
    1.9288    0.8019    0.1866 C   0  0  2  0  0  0  0  0  0  0  0  0
   -1.7439   -0.1796    0.0167 C   0  0  0  0  0  0  0  0  0  0  0  0
    0.6434   -1.3108    0.3801 C   0  0  2  0  0  0  0  0  0  0  0  0
   -3.9435    1.0890    0.2675 C   0  0  2  0  0  0  0  0  0  0  0  0
   -0.1372    2.3202   -0.2378 C   0  0  0  0  0  0  0  0  0  0  0  0
   -2.4114    1.0071    0.0102 C   0  0  0  0  0  0  0  0  0  0  0  0
    2.0733   -0.7216    0.4094 C   0  0  0  0  0  0  0  0  0  0  0  0
   -4.6024   -0.2864   -0.1173 C   0  0  1  0  0  0  0  0  0  0  0  0
   -1.6785    2.3429   -0.1849 C   0  0  0  0  0  0  0  0  0  0  0  0
   -2.4294   -1.5087    0.2624 C   0  0  1  0  0  0  0  0  0  0  0  0
    2.9157    1.6160    1.0153 C   0  0  1  0  0  0  0  0  0  0  0  0
    0.1554    1.1686    1.9677 C   0  0  0  0  0  0  0  0  0  0  0  0
   -3.9072   -1.4190    0.6585 C   0  0  0  0  0  0  0  0  0  0  0  0
   -0.0808   -0.2442   -1.8025 C   0  0  0  0  0  0  0  0  0  0  0  0
   -6.1685   -0.3674   -0.1097 C   0  0  0  0  0  0  0  0  0  0  0  0
   -4.6145    2.1718   -0.6150 C   0  0  0  0  0  0  0  0  0  0  0  0
   -4.0937    1.4738    1.7588 C   0  0  0  0  0  0  0  0  0  0  0  0
   -6.1273    2.2178   -0.4666 C   0  0  0  0  0  0  0  0  0  0  0  0
   -6.7534    0.8831   -0.7864 C   0  0  0  0  0  0  0  0  0  0  0  0
    4.3173    0.9748    1.0716 C   0  0  0  0  0  0  0  0  0  0  0  0
    3.0269    3.0355    0.4486 C   0  0  0  0  0  0  0  0  0  0  0  0
   -6.6115   -1.5969   -0.9471 C   0  0  0  0  0  0  0  0  0  0  0  0
   -6.8159   -0.5102    1.2756 C   0  0  0  0  0  0  0  0  0  0  0  0
    4.9541    0.7868   -0.3084 C   0  0  0  0  0  0  0  0  0  0  0  0
    0.8662   -3.6623    0.3585 C   0  0  0  0  0  0  0  0  0  0  0  0
    6.3045    0.1319   -0.1966 C   0  0  0  0  0  0  0  0  0  0  0  0
    0.8146   -4.8560   -0.5461 C   0  0  0  0  0  0  0  0  0  0  0  0
    7.4863    0.6422   -0.5901 C   0  0  0  0  0  0  0  0  0  0  0  0
    7.6964    2.0087   -1.1722 C   0  0  0  0  0  0  0  0  0  0  0  0
    8.6749   -0.2340   -0.3862 C   0  0  0  0  0  0  0  0  0  0  0  0
    2.1480    0.9937   -0.8717 H   0  0  0  0  0  0  0  0  0  0  0  0
    0.3020   -1.4913    1.4077 H   0  0  0  0  0  0  0  0  0  0  0  0
    0.1935    2.3903   -1.2808 H   0  0  0  0  0  0  0  0  0  0  0  0
    0.2236    3.2348    0.2404 H   0  0  0  0  0  0  0  0  0  0  0  0
    2.7066   -1.1850   -0.3538 H   0  0  0  0  0  0  0  0  0  0  0  0
    2.4981   -0.9710    1.3869 H   0  0  0  0  0  0  0  0  0  0  0  0
   -4.3360   -0.4371   -1.1781 H   0  0  0  0  0  0  0  0  0  0  0  0
   -2.0333    2.8195   -1.1063 H   0  0  0  0  0  0  0  0  0  0  0  0
   -1.9580    3.0102    0.6391 H   0  0  0  0  0  0  0  0  0  0  0  0
   -1.9052   -2.0566    1.0525 H   0  0  0  0  0  0  0  0  0  0  0  0
    2.6006    1.6943    2.0602 H   0  0  0  0  0  0  0  0  0  0  0  0
    0.6851    0.4021    2.5425 H   0  0  0  0  0  0  0  0  0  0  0  0
   -0.9023    1.0741    2.2273 H   0  0  0  0  0  0  0  0  0  0  0  0
    0.4751    2.1434    2.3542 H   0  0  0  0  0  0  0  0  0  0  0  0
   -4.3866   -2.3822    0.4593 H   0  0  0  0  0  0  0  0  0  0  0  0
   -3.9899   -1.2522    1.7376 H   0  0  0  0  0  0  0  0  0  0  0  0
    0.9619   -0.2149   -2.1308 H   0  0  0  0  0  0  0  0  0  0  0  0
   -0.6030    0.5793   -2.3012 H   0  0  0  0  0  0  0  0  0  0  0  0
   -0.5011   -1.1668   -2.2182 H   0  0  0  0  0  0  0  0  0  0  0  0
   -4.3670    1.9879   -1.6697 H   0  0  0  0  0  0  0  0  0  0  0  0
   -4.2274    3.1689   -0.3720 H   0  0  0  0  0  0  0  0  0  0  0  0
   -5.1296    1.5382    2.0842 H   0  0  0  0  0  0  0  0  0  0  0  0
   -3.6618    2.4614    1.9594 H   0  0  0  0  0  0  0  0  0  0  0  0
   -3.5825    0.7707    2.4245 H   0  0  0  0  0  0  0  0  0  0  0  0
   -6.5296    2.9624   -1.1634 H   0  0  0  0  0  0  0  0  0  0  0  0
   -6.4341    2.5193    0.5389 H   0  0  0  0  0  0  0  0  0  0  0  0
    4.9710    1.6227    1.6731 H   0  0  0  0  0  0  0  0  0  0  0  0
    4.2978    0.0243    1.6155 H   0  0  0  0  0  0  0  0  0  0  0  0
    3.0802    3.0527   -0.6447 H   0  0  0  0  0  0  0  0  0  0  0  0
    3.9184    3.5438    0.8337 H   0  0  0  0  0  0  0  0  0  0  0  0
    2.1790    3.6492    0.7590 H   0  0  0  0  0  0  0  0  0  0  0  0
   -6.3733   -1.3271    1.8532 H   0  0  0  0  0  0  0  0  0  0  0  0
   -6.7627    0.4028    1.8690 H   0  0  0  0  0  0  0  0  0  0  0  0
   -7.8872   -0.7286    1.1791 H   0  0  0  0  0  0  0  0  0  0  0  0
   -7.7031   -1.6478   -1.0413 H   0  0  0  0  0  0  0  0  0  0  0  0
   -6.2063   -1.5506   -1.9646 H   0  0  0  0  0  0  0  0  0  0  0  0
   -6.2921   -2.5408   -0.4957 H   0  0  0  0  0  0  0  0  0  0  0  0
   -2.6516   -3.1867   -0.7199 H   0  0  0  0  0  0  0  0  0  0  0  0
    4.3422    0.1475   -0.9502 H   0  0  0  0  0  0  0  0  0  0  0  0
    5.0182    1.7504   -0.8168 H   0  0  0  0  0  0  0  0  0  0  0  0
    6.2755   -0.8706    0.2291 H   0  0  0  0  0  0  0  0  0  0  0  0
    1.5830   -4.7685   -1.3182 H   0  0  0  0  0  0  0  0  0  0  0  0
   -0.1778   -4.9349   -0.9972 H   0  0  0  0  0  0  0  0  0  0  0  0
    1.0061   -5.7617    0.0364 H   0  0  0  0  0  0  0  0  0  0  0  0
    8.0754    2.6932   -0.4065 H   0  0  0  0  0  0  0  0  0  0  0  0
    8.4280    1.9655   -1.9869 H   0  0  0  0  0  0  0  0  0  0  0  0
    6.7911    2.4430   -1.6010 H   0  0  0  0  0  0  0  0  0  0  0  0
   10.5827   -0.0479   -0.0452 H   0  0  0  0  0  0  0  0  0  0  0  0
  1 11  1  0  0  0  0
  1 33  1  0  0  0  0
  2 18  1  0  0  0  0
  2 76  1  0  0  0  0
  3 27  2  0  0  0  0
  4 33  2  0  0  0  0
  5 38  1  0  0  0  0
  5 86  1  0  0  0  0
  6 38  2  0  0  0  0
  7  8  1  0  0  0  0
  7  9  1  0  0  0  0
  7 13  1  0  0  0  0
  7 20  1  0  0  0  0
  8 10  1  0  0  0  0
  8 11  1  0  0  0  0
  8 22  1  0  0  0  0
  9 15  1  0  0  0  0
  9 19  1  0  0  0  0
  9 39  1  0  0  0  0
 10 14  2  0  0  0  0
 10 18  1  0  0  0  0
 11 15  1  0  0  0  0
 11 40  1  0  0  0  0
 12 14  1  0  0  0  0
 12 16  1  0  0  0  0
 12 24  1  0  0  0  0
 12 25  1  0  0  0  0
 13 17  1  0  0  0  0
 13 41  1  0  0  0  0
 13 42  1  0  0  0  0
 14 17  1  0  0  0  0
 15 43  1  0  0  0  0
 15 44  1  0  0  0  0
 16 21  1  0  0  0  0
 16 23  1  0  0  0  0
 16 45  1  0  0  0  0
 17 46  1  0  0  0  0
 17 47  1  0  0  0  0
 18 21  1  0  0  0  0
 18 48  1  0  0  0  0
 19 28  1  0  0  0  0
 19 29  1  0  0  0  0
 19 49  1  0  0  0  0
 20 50  1  0  0  0  0
 20 51  1  0  0  0  0
 20 52  1  0  0  0  0
 21 53  1  0  0  0  0
 21 54  1  0  0  0  0
 22 55  1  0  0  0  0
 22 56  1  0  0  0  0
 22 57  1  0  0  0  0
 23 27  1  0  0  0  0
 23 30  1  0  0  0  0
 23 31  1  0  0  0  0
 24 26  1  0  0  0  0
 24 58  1  0  0  0  0
 24 59  1  0  0  0  0
 25 60  1  0  0  0  0
 25 61  1  0  0  0  0
 25 62  1  0  0  0  0
 26 27  1  0  0  0  0
 26 63  1  0  0  0  0
 26 64  1  0  0  0  0
 28 32  1  0  0  0  0
 28 65  1  0  0  0  0
 28 66  1  0  0  0  0
 29 67  1  0  0  0  0
 29 68  1  0  0  0  0
 29 69  1  0  0  0  0
 30 73  1  0  0  0  0
 30 74  1  0  0  0  0
 30 75  1  0  0  0  0
 31 70  1  0  0  0  0
 31 71  1  0  0  0  0
 31 72  1  0  0  0  0
 32 34  1  0  0  0  0
 32 77  1  0  0  0  0
 32 78  1  0  0  0  0
 33 35  1  0  0  0  0
 34 36  2  0  0  0  0
 34 79  1  0  0  0  0
 35 80  1  0  0  0  0
 35 81  1  0  0  0  0
 35 82  1  0  0  0  0
 36 37  1  0  0  0  0
 36 38  1  0  0  0  0
 37 83  1  0  0  0  0
 37 84  1  0  0  0  0
 37 85  1  0  0  0  0
M  END
> <PUBCHEM_COMPOUND_CID>
101600073

> <PUBCHEM_CONFORMER_RMSD>
1

> <PUBCHEM_CONFORMER_DIVERSEORDER>
1
12
13
16
19
14
15
5
10
17
11
7
2
4
8
9
3
6
18

> <PUBCHEM_MMFF94_PARTIAL_CHARGES>
26
1 -0.43
10 -0.28
11 0.28
12 0.14
14 -0.28
17 0.14
18 0.42
2 -0.68
23 0.06
26 0.06
27 0.45
3 -0.57
32 0.14
33 0.66
34 -0.29
35 0.06
36 -0.12
37 0.14
38 0.71
4 -0.57
5 -0.65
6 -0.57
76 0.4
79 0.15
8 0.14
86 0.5

> <PUBCHEM_EFFECTIVE_ROTOR_COUNT>
9

> <PUBCHEM_PHARMACOPHORE_FEATURES>
15
1 2 acceptor
1 2 donor
1 29 hydrophobe
1 3 acceptor
1 37 hydrophobe
1 4 acceptor
1 5 acceptor
1 6 acceptor
3 23 30 31 hydrophobe
3 5 6 38 anion
4 19 28 32 34 hydrophobe
5 7 8 9 11 15 rings
6 10 12 14 16 18 21 rings
6 12 16 23 24 26 27 rings
6 7 8 10 13 14 17 rings

> <PUBCHEM_HEAVY_ATOM_COUNT>
38

> <PUBCHEM_ATOM_DEF_STEREO_COUNT>
8

> <PUBCHEM_ATOM_UDEF_STEREO_COUNT>
0

> <PUBCHEM_BOND_DEF_STEREO_COUNT>
1

> <PUBCHEM_BOND_UDEF_STEREO_COUNT>
0

> <PUBCHEM_ISOTOPIC_ATOM_COUNT>
0

> <PUBCHEM_COMPONENT_COUNT>
1

> <PUBCHEM_CACTVS_TAUTO_COUNT>
4

> <PUBCHEM_CONFORMER_ID>
060E4B4900000001

> <PUBCHEM_MMFF94_ENERGY>
133.8751

> <PUBCHEM_FEATURE_SELFOVERLAP>
76.282

> <PUBCHEM_SHAPE_FINGERPRINT>
10076449 9 18202286917717889513
10165383 225 18408039593796425412
10670039 82 18060139803916463921
10674148 151 18408881863739359672
11007060 377 18272943721526484864
11062273 19 18122341273129108358
11135926 11 18410293584528487797
11136131 41 18189330169749422338
11578080 2 17461145574577018421
13811026 1 18202286871206128294
1454969 45 18408318878313330670
14790565 3 18265330801678893061
14856354 85 16588027948126086763
15131766 46 15287919319467613926
15183329 4 18410012135443218728
15849732 13 18040437711541331660
15927050 60 18340761628497878991
16628084 112 18263077718308244354
18608769 82 18411982481654503956
18681886 176 18335978765696012200
19611394 137 17750531739582063057
21133665 82 18409171026761095678
21267235 1 18410014372878508793
21360443 120 18261111855567899978
21792961 116 18343587317920299480
23559900 14 18195518191747499819
23569917 315 18342181123757958367
23576562 1 18042973270985544228
249057 3 18409731798759591260
335352 9 18413106173885216908
3383291 50 17132117961563942254
350125 39 18408882940874466604
4017518 198 18202283610862474422
4093350 32 14418121899239719392
44802255 64 16226033510669441683
484989 97 18270120248189897171
4874694 18 18343020013771788598
5104073 3 18264773169664722041
5265222 85 18336830913214407108
59755656 215 18413107242867538068
6371380 46 18342454876925821792
6523845 18 18408877447859306084
6669772 16 18201444640762321886
6679774 75 18188471516204588682
99344 41 18335985290367889646

> <PUBCHEM_SHAPE_MULTIPOLES>
746.81
22.38
3.73
1.27
34.02
4.37
-0.2
-5.84
6.39
0.43
-0.1
-0.7
-0.12
0.05

> <PUBCHEM_SHAPE_SELFOVERLAP>
1572.231

> <PUBCHEM_SHAPE_VOLUME>
414.8

> <PUBCHEM_COORDINATE_TYPE>
2
5
10

$$$$
