102011670
  -OEChem-09122006183D

 77 80  0     1  0  0  0  0  0999 V2000
    7.7576    0.5597    0.7923 O   0  0  0  0  0  0  0  0  0  0  0  0
   -4.9122    0.2350    1.5032 O   0  0  0  0  0  0  0  0  0  0  0  0
   -9.9454   -0.8543   -1.0209 O   0  0  0  0  0  0  0  0  0  0  0  0
   -0.5844    0.5006    0.1207 C   0  0  1  0  0  0  0  0  0  0  0  0
    0.2145   -0.6935    0.7410 C   0  0  1  0  0  0  0  0  0  0  0  0
   -1.9937    0.2752    0.7169 C   0  0  2  0  0  0  0  0  0  0  0  0
   -0.7555   -1.8624    0.4629 C   0  0  0  0  0  0  0  0  0  0  0  0
    3.7641    0.6054   -0.5055 C   0  0  2  0  0  0  0  0  0  0  0  0
    1.6288   -0.7198    0.1677 C   0  0  0  0  0  0  0  0  0  0  0  0
   -2.1665   -1.2618    0.6554 C   0  0  0  0  0  0  0  0  0  0  0  0
    0.1072    1.8129    0.5212 C   0  0  0  0  0  0  0  0  0  0  0  0
    2.2898    0.6013    0.0022 C   0  0  0  0  0  0  0  0  0  0  0  0
    4.4801   -0.7082   -0.0156 C   0  0  2  0  0  0  0  0  0  0  0  0
   -0.6622    0.4452   -1.4419 C   0  0  0  0  0  0  0  0  0  0  0  0
   -3.1471    1.0255    0.0625 C   0  0  2  0  0  0  0  0  0  0  0  0
    0.4008   -0.6281    2.2915 C   0  0  0  0  0  0  0  0  0  0  0  0
    1.5890    1.7428    0.2175 C   0  0  0  0  0  0  0  0  0  0  0  0
    6.0311   -0.8137   -0.2289 C   0  0  0  0  0  0  0  0  0  0  0  0
    3.7075   -1.9555   -0.4953 C   0  0  0  0  0  0  0  0  0  0  0  0
    4.5657    1.8145    0.0505 C   0  0  0  0  0  0  0  0  0  0  0  0
    2.2604   -1.8709   -0.1206 C   0  0  0  0  0  0  0  0  0  0  0  0
    3.6610    0.7305   -2.0454 C   0  0  0  0  0  0  0  0  0  0  0  0
    6.0446    1.7867   -0.3018 C   0  0  0  0  0  0  0  0  0  0  0  0
    6.6908    0.5125    0.1768 C   0  0  0  0  0  0  0  0  0  0  0  0
   -3.2020    2.4727    0.5394 C   0  0  0  0  0  0  0  0  0  0  0  0
    6.4794   -1.1521   -1.6584 C   0  0  0  0  0  0  0  0  0  0  0  0
    6.5987   -1.9224    0.6949 C   0  0  0  0  0  0  0  0  0  0  0  0
   -4.4822    0.3416    0.3545 C   0  0  0  0  0  0  0  0  0  0  0  0
   -5.2444   -0.1804   -0.8575 C   0  0  0  0  0  0  0  0  0  0  0  0
   -6.5309   -0.8349   -0.4556 C   0  0  0  0  0  0  0  0  0  0  0  0
   -7.7386   -0.2495   -0.3377 C   0  0  0  0  0  0  0  0  0  0  0  0
   -9.0031   -0.9751    0.0362 C   0  0  0  0  0  0  0  0  0  0  0  0
   -7.9030    1.2205   -0.6221 C   0  0  0  0  0  0  0  0  0  0  0  0
   -1.9844    0.5529    1.7795 H   0  0  0  0  0  0  0  0  0  0  0  0
   -0.5990   -2.7193    1.1278 H   0  0  0  0  0  0  0  0  0  0  0  0
   -0.6501   -2.2345   -0.5635 H   0  0  0  0  0  0  0  0  0  0  0  0
   -2.7928   -1.5966   -0.1764 H   0  0  0  0  0  0  0  0  0  0  0  0
   -2.6194   -1.6335    1.5817 H   0  0  0  0  0  0  0  0  0  0  0  0
   -0.0362    2.0510    1.5808 H   0  0  0  0  0  0  0  0  0  0  0  0
   -0.3046    2.6526   -0.0476 H   0  0  0  0  0  0  0  0  0  0  0  0
    4.3615   -0.6879    1.0829 H   0  0  0  0  0  0  0  0  0  0  0  0
   -1.2820   -0.3817   -1.8033 H   0  0  0  0  0  0  0  0  0  0  0  0
    0.3177    0.3279   -1.9137 H   0  0  0  0  0  0  0  0  0  0  0  0
   -1.0838    1.3719   -1.8482 H   0  0  0  0  0  0  0  0  0  0  0  0
   -3.0567    1.0377   -1.0271 H   0  0  0  0  0  0  0  0  0  0  0  0
   -0.5462   -0.6138    2.8387 H   0  0  0  0  0  0  0  0  0  0  0  0
    0.9760    0.2454    2.6156 H   0  0  0  0  0  0  0  0  0  0  0  0
    0.9452   -1.5129    2.6470 H   0  0  0  0  0  0  0  0  0  0  0  0
    2.0624    2.7119    0.0973 H   0  0  0  0  0  0  0  0  0  0  0  0
    4.1130   -2.8517   -0.0150 H   0  0  0  0  0  0  0  0  0  0  0  0
    3.7920   -2.1074   -1.5758 H   0  0  0  0  0  0  0  0  0  0  0  0
    4.4655    1.8426    1.1444 H   0  0  0  0  0  0  0  0  0  0  0  0
    4.1611    2.7607   -0.3280 H   0  0  0  0  0  0  0  0  0  0  0  0
    1.7455   -2.8203   -0.0036 H   0  0  0  0  0  0  0  0  0  0  0  0
    4.6289    0.8359   -2.5331 H   0  0  0  0  0  0  0  0  0  0  0  0
    3.0882    1.6238   -2.3262 H   0  0  0  0  0  0  0  0  0  0  0  0
    3.1518   -0.1243   -2.5020 H   0  0  0  0  0  0  0  0  0  0  0  0
    6.5433    2.6321    0.1864 H   0  0  0  0  0  0  0  0  0  0  0  0
    6.2169    1.8902   -1.3766 H   0  0  0  0  0  0  0  0  0  0  0  0
   -3.1650    2.5440    1.6319 H   0  0  0  0  0  0  0  0  0  0  0  0
   -2.3878    3.0693    0.1251 H   0  0  0  0  0  0  0  0  0  0  0  0
   -4.1380    2.9463    0.2202 H   0  0  0  0  0  0  0  0  0  0  0  0
    7.5695   -1.2717   -1.7009 H   0  0  0  0  0  0  0  0  0  0  0  0
    7.6936   -1.9657    0.6452 H   0  0  0  0  0  0  0  0  0  0  0  0
    6.2435   -0.3690   -2.3783 H   0  0  0  0  0  0  0  0  0  0  0  0
    6.3334   -1.7405    1.7428 H   0  0  0  0  0  0  0  0  0  0  0  0
    6.2333   -2.9157    0.4172 H   0  0  0  0  0  0  0  0  0  0  0  0
    6.0408   -2.0895   -2.0137 H   0  0  0  0  0  0  0  0  0  0  0  0
   -5.4083    0.6444   -1.5576 H   0  0  0  0  0  0  0  0  0  0  0  0
   -4.6233   -0.9186   -1.3754 H   0  0  0  0  0  0  0  0  0  0  0  0
   -6.4591   -1.9006   -0.2441 H   0  0  0  0  0  0  0  0  0  0  0  0
   -9.4329   -0.5444    0.9464 H   0  0  0  0  0  0  0  0  0  0  0  0
   -8.8184   -2.0399    0.2121 H   0  0  0  0  0  0  0  0  0  0  0  0
   -6.9689    1.7869   -0.5943 H   0  0  0  0  0  0  0  0  0  0  0  0
   -8.3662    1.3682   -1.6029 H   0  0  0  0  0  0  0  0  0  0  0  0
   -8.5533    1.6755    0.1337 H   0  0  0  0  0  0  0  0  0  0  0  0
  -10.7508   -1.3212   -0.7398 H   0  0  0  0  0  0  0  0  0  0  0  0
  1 24  2  0  0  0  0
  2 28  2  0  0  0  0
  3 32  1  0  0  0  0
  3 77  1  0  0  0  0
  4  5  1  0  0  0  0
  4  6  1  0  0  0  0
  4 11  1  0  0  0  0
  4 14  1  0  0  0  0
  5  7  1  0  0  0  0
  5  9  1  0  0  0  0
  5 16  1  0  0  0  0
  6 10  1  0  0  0  0
  6 15  1  0  0  0  0
  6 34  1  0  0  0  0
  7 10  1  0  0  0  0
  7 35  1  0  0  0  0
  7 36  1  0  0  0  0
  8 12  1  0  0  0  0
  8 13  1  0  0  0  0
  8 20  1  0  0  0  0
  8 22  1  0  0  0  0
  9 12  1  0  0  0  0
  9 21  2  0  0  0  0
 10 37  1  0  0  0  0
 10 38  1  0  0  0  0
 11 17  1  0  0  0  0
 11 39  1  0  0  0  0
 11 40  1  0  0  0  0
 12 17  2  0  0  0  0
 13 18  1  0  0  0  0
 13 19  1  0  0  0  0
 13 41  1  0  0  0  0
 14 42  1  0  0  0  0
 14 43  1  0  0  0  0
 14 44  1  0  0  0  0
 15 25  1  0  0  0  0
 15 28  1  0  0  0  0
 15 45  1  0  0  0  0
 16 46  1  0  0  0  0
 16 47  1  0  0  0  0
 16 48  1  0  0  0  0
 17 49  1  0  0  0  0
 18 24  1  0  0  0  0
 18 26  1  0  0  0  0
 18 27  1  0  0  0  0
 19 21  1  0  0  0  0
 19 50  1  0  0  0  0
 19 51  1  0  0  0  0
 20 23  1  0  0  0  0
 20 52  1  0  0  0  0
 20 53  1  0  0  0  0
 21 54  1  0  0  0  0
 22 55  1  0  0  0  0
 22 56  1  0  0  0  0
 22 57  1  0  0  0  0
 23 24  1  0  0  0  0
 23 58  1  0  0  0  0
 23 59  1  0  0  0  0
 25 60  1  0  0  0  0
 25 61  1  0  0  0  0
 25 62  1  0  0  0  0
 26 63  1  0  0  0  0
 26 65  1  0  0  0  0
 26 68  1  0  0  0  0
 27 64  1  0  0  0  0
 27 66  1  0  0  0  0
 27 67  1  0  0  0  0
 28 29  1  0  0  0  0
 29 30  1  0  0  0  0
 29 69  1  0  0  0  0
 29 70  1  0  0  0  0
 30 31  2  0  0  0  0
 30 71  1  0  0  0  0
 31 32  1  0  0  0  0
 31 33  1  0  0  0  0
 32 72  1  0  0  0  0
 32 73  1  0  0  0  0
 33 74  1  0  0  0  0
 33 75  1  0  0  0  0
 33 76  1  0  0  0  0
M  END
> <PUBCHEM_COMPOUND_CID>
102011670

> <PUBCHEM_CONFORMER_RMSD>
1

> <PUBCHEM_CONFORMER_DIVERSEORDER>
1
17
16
15
18
9
13
14
19
2
4
10
8
11
12
6
7
3
5

> <PUBCHEM_MMFF94_PARTIAL_CHARGES>
25
1 -0.57
11 0.14
12 -0.14
15 0.06
17 -0.29
18 0.06
19 0.14
2 -0.57
21 -0.29
23 0.06
24 0.45
28 0.45
29 0.2
3 -0.68
30 -0.29
31 -0.28
32 0.42
33 0.14
49 0.15
5 0.14
54 0.15
71 0.15
77 0.4
8 0.14
9 -0.14

> <PUBCHEM_EFFECTIVE_ROTOR_COUNT>
6.6

> <PUBCHEM_PHARMACOPHORE_FEATURES>
11
1 1 acceptor
1 2 acceptor
1 25 hydrophobe
1 3 acceptor
1 3 donor
1 33 hydrophobe
3 18 26 27 hydrophobe
5 4 5 6 7 10 rings
6 4 5 9 11 12 17 rings
6 8 13 18 20 23 24 rings
6 8 9 12 13 19 21 rings

> <PUBCHEM_HEAVY_ATOM_COUNT>
33

> <PUBCHEM_ATOM_DEF_STEREO_COUNT>
6

> <PUBCHEM_ATOM_UDEF_STEREO_COUNT>
0

> <PUBCHEM_BOND_DEF_STEREO_COUNT>
1

> <PUBCHEM_BOND_UDEF_STEREO_COUNT>
0

> <PUBCHEM_ISOTOPIC_ATOM_COUNT>
0

> <PUBCHEM_COMPONENT_COUNT>
1

> <PUBCHEM_CACTVS_TAUTO_COUNT>
10

> <PUBCHEM_CONFORMER_ID>
0614931600000001

> <PUBCHEM_MMFF94_ENERGY>
113.4977

> <PUBCHEM_FEATURE_SELFOVERLAP>
55.916

> <PUBCHEM_SHAPE_FINGERPRINT>
10050765 1 18122061997301500025
10299344 5 17846781815278451647
106641 1 16845569829306740042
11135609 127 18041845150649350380
11578080 2 16771806991534275706
11719270 70 18342736304252333710
11991303 11 17168152294638281307
12082328 90 18413105040562321221
12166972 35 18408610253759890484
12236239 1 17418098689601358250
12516196 113 17775286054175524112
13811026 1 18260268564587579787
14251764 18 17775007890470782001
14856354 85 15841551895042835293
15131766 46 15576994115711320774
15183329 4 18411424998767318906
15439362 3 18049439537307630124
15849732 13 17918273155826213285
18335252 114 16877944953402438117
18335252 98 15339125632355049524
18608769 82 18334858364090859915
18681886 176 18411974776673228761
20771845 140 16916780756880055742
20771845 171 14924223786185814314
21033648 29 12974177358020754580
21150785 3 18201719565929060459
21267235 1 18272654527965723261
22149856 69 17417823789919268123
23559900 14 18339637970753193625
23569917 315 18339647741340431922
23569943 247 17409950037425839254
23576562 1 17459486617852678015
249057 3 18342174501344934735
3178227 256 14764629733643539079
335352 9 18409173208345389334
34797466 226 15698001860307448768
3633792 109 18410576150231862337
4073 2 18041565844208948859
4098825 35 18336824200423259653
4325135 7 18342175570406435591
474113 269 17096074780979352026
5283156 175 18201720648234334885
59520757 100 16298676096116327195
59755656 215 18187085036119826226
6004065 56 18342457071248382744
6081469 158 17313099739758572583
9962374 69 15913033366647397765

> <PUBCHEM_SHAPE_MULTIPOLES>
661.52
24.12
2.04
1.3
37.48
0.24
0.04
-3.69
5.63
-1.42
-0.15
-0.42
-0.1
-0.19

> <PUBCHEM_SHAPE_SELFOVERLAP>
1399.229

> <PUBCHEM_SHAPE_VOLUME>
367.7

> <PUBCHEM_COORDINATE_TYPE>
2
5
10

$$$$
