46184564
  -OEChem-09122003383D

 83 86  0     1  0  0  0  0  0999 V2000
   -2.0875    2.4229   -1.5596 O   0  0  0  0  0  0  0  0  0  0  0  0
    0.2827    2.8410   -0.2778 O   0  0  0  0  0  0  0  0  0  0  0  0
   -2.3665   -3.0509    0.1949 O   0  0  0  0  0  0  0  0  0  0  0  0
   -7.6264   -0.2139    2.3166 O   0  0  0  0  0  0  0  0  0  0  0  0
    6.9522   -0.1000    0.4221 O   0  0  0  0  0  0  0  0  0  0  0  0
    6.3585    1.1067   -1.4524 O   0  0  0  0  0  0  0  0  0  0  0  0
    0.2008   -0.6478   -0.7553 C   0  0  1  0  0  0  0  0  0  0  0  0
   -0.4147    0.5103    0.0882 C   0  0  2  0  0  0  0  0  0  0  0  0
    1.7266   -0.4102   -0.6091 C   0  0  2  0  0  0  0  0  0  0  0  0
   -4.1703   -0.7096   -0.0623 C   0  0  1  0  0  0  0  0  0  0  0  0
   -1.9170    0.5069   -0.1288 C   0  0  0  0  0  0  0  0  0  0  0  0
   -4.7157    0.7035    0.3949 C   0  0  1  0  0  0  0  0  0  0  0  0
   -2.6129   -0.6610   -0.0457 C   0  0  0  0  0  0  0  0  0  0  0  0
   -0.3000   -1.9644   -0.1770 C   0  0  0  0  0  0  0  0  0  0  0  0
    1.8705    1.1080   -0.8155 C   0  0  0  0  0  0  0  0  0  0  0  0
   -2.5922    1.8400   -0.3569 C   0  0  2  0  0  0  0  0  0  0  0  0
    0.5248    1.6432   -0.3542 C   0  0  0  0  0  0  0  0  0  0  0  0
   -4.1142    1.7961   -0.4931 C   0  0  0  0  0  0  0  0  0  0  0  0
   -6.2599    0.8603    0.6190 C   0  0  0  0  0  0  0  0  0  0  0  0
    2.6342   -1.2078   -1.5379 C   0  0  1  0  0  0  0  0  0  0  0  0
   -4.7635   -1.7401    0.9390 C   0  0  0  0  0  0  0  0  0  0  0  0
   -1.8163   -1.9651    0.0106 C   0  0  0  0  0  0  0  0  0  0  0  0
   -0.2025   -0.5903   -2.2660 C   0  0  0  0  0  0  0  0  0  0  0  0
   -0.1865    0.4399    1.6258 C   0  0  0  0  0  0  0  0  0  0  0  0
   -4.5475   -1.1160   -1.5038 C   0  0  0  0  0  0  0  0  0  0  0  0
   -6.2810   -1.7005    1.0496 C   0  0  0  0  0  0  0  0  0  0  0  0
   -6.7724   -0.3321    1.4358 C   0  0  0  0  0  0  0  0  0  0  0  0
    4.0272   -0.5676   -1.6980 C   0  0  0  0  0  0  0  0  0  0  0  0
   -7.1033    0.9682   -0.6594 C   0  0  0  0  0  0  0  0  0  0  0  0
   -6.5301    2.1419    1.4511 C   0  0  0  0  0  0  0  0  0  0  0  0
    2.7832   -2.6413   -1.0176 C   0  0  0  0  0  0  0  0  0  0  0  0
    4.7650   -0.3802   -0.3711 C   0  0  0  0  0  0  0  0  0  0  0  0
    6.0958    0.3135   -0.5589 C   0  0  0  0  0  0  0  0  0  0  0  0
    8.2664    0.4645    0.3710 C   0  0  0  0  0  0  0  0  0  0  0  0
    9.0873   -0.0956    1.5240 C   0  0  0  0  0  0  0  0  0  0  0  0
   10.5013    0.4782    1.5401 C   0  0  0  0  0  0  0  0  0  0  0  0
   11.3039   -0.0508    2.7178 C   0  0  0  0  0  0  0  0  0  0  0  0
    2.0183   -0.6320    0.4261 H   0  0  0  0  0  0  0  0  0  0  0  0
   -4.2839    0.8590    1.3994 H   0  0  0  0  0  0  0  0  0  0  0  0
   -0.0809   -2.7943   -0.8554 H   0  0  0  0  0  0  0  0  0  0  0  0
    0.1603   -2.1904    0.7909 H   0  0  0  0  0  0  0  0  0  0  0  0
    2.6536    1.5525   -0.1988 H   0  0  0  0  0  0  0  0  0  0  0  0
    1.9973    1.3917   -1.8643 H   0  0  0  0  0  0  0  0  0  0  0  0
   -2.3331    2.5030    0.4779 H   0  0  0  0  0  0  0  0  0  0  0  0
   -4.4054    1.6589   -1.5411 H   0  0  0  0  0  0  0  0  0  0  0  0
   -4.4925    2.7893   -0.2296 H   0  0  0  0  0  0  0  0  0  0  0  0
    2.2312   -1.2593   -2.5533 H   0  0  0  0  0  0  0  0  0  0  0  0
   -4.5200   -2.7656    0.6494 H   0  0  0  0  0  0  0  0  0  0  0  0
   -4.3255   -1.5756    1.9328 H   0  0  0  0  0  0  0  0  0  0  0  0
    0.1828    0.3011   -2.7704 H   0  0  0  0  0  0  0  0  0  0  0  0
   -1.2857   -0.5887   -2.4194 H   0  0  0  0  0  0  0  0  0  0  0  0
    0.1633   -1.4681   -2.8094 H   0  0  0  0  0  0  0  0  0  0  0  0
    0.8731    0.4468    1.9023 H   0  0  0  0  0  0  0  0  0  0  0  0
   -0.6305    1.3171    2.1149 H   0  0  0  0  0  0  0  0  0  0  0  0
   -0.6395   -0.4434    2.0873 H   0  0  0  0  0  0  0  0  0  0  0  0
   -4.1807   -0.4020   -2.2482 H   0  0  0  0  0  0  0  0  0  0  0  0
   -4.1100   -2.0883   -1.7630 H   0  0  0  0  0  0  0  0  0  0  0  0
   -5.6202   -1.2267   -1.6525 H   0  0  0  0  0  0  0  0  0  0  0  0
   -6.7684   -2.0000    0.1174 H   0  0  0  0  0  0  0  0  0  0  0  0
   -6.5993   -2.4117    1.8210 H   0  0  0  0  0  0  0  0  0  0  0  0
    3.9489    0.3908   -2.2243 H   0  0  0  0  0  0  0  0  0  0  0  0
    4.6409   -1.1965   -2.3577 H   0  0  0  0  0  0  0  0  0  0  0  0
   -7.5901    2.2319    1.7183 H   0  0  0  0  0  0  0  0  0  0  0  0
   -6.7511    1.7700   -1.3155 H   0  0  0  0  0  0  0  0  0  0  0  0
   -8.1493    1.1904   -0.4125 H   0  0  0  0  0  0  0  0  0  0  0  0
   -7.1318    0.0418   -1.2328 H   0  0  0  0  0  0  0  0  0  0  0  0
   -6.2692    3.0529    0.9047 H   0  0  0  0  0  0  0  0  0  0  0  0
   -5.9641    2.1322    2.3898 H   0  0  0  0  0  0  0  0  0  0  0  0
    3.6188   -3.1501   -1.5121 H   0  0  0  0  0  0  0  0  0  0  0  0
    1.8990   -3.2414   -1.2370 H   0  0  0  0  0  0  0  0  0  0  0  0
    2.9646   -2.6799    0.0614 H   0  0  0  0  0  0  0  0  0  0  0  0
   -2.4665    3.3154   -1.6343 H   0  0  0  0  0  0  0  0  0  0  0  0
    4.2048    0.2033    0.3613 H   0  0  0  0  0  0  0  0  0  0  0  0
    4.9597   -1.3663    0.0667 H   0  0  0  0  0  0  0  0  0  0  0  0
    8.1938    1.5552    0.4547 H   0  0  0  0  0  0  0  0  0  0  0  0
    8.7347    0.2053   -0.5857 H   0  0  0  0  0  0  0  0  0  0  0  0
    8.5775    0.1241    2.4704 H   0  0  0  0  0  0  0  0  0  0  0  0
    9.1214   -1.1898    1.4495 H   0  0  0  0  0  0  0  0  0  0  0  0
   10.4591    1.5721    1.5985 H   0  0  0  0  0  0  0  0  0  0  0  0
   11.0173    0.2227    0.6073 H   0  0  0  0  0  0  0  0  0  0  0  0
   11.3916   -1.1411    2.6745 H   0  0  0  0  0  0  0  0  0  0  0  0
   12.3135    0.3719    2.7089 H   0  0  0  0  0  0  0  0  0  0  0  0
   10.8312    0.2187    3.6677 H   0  0  0  0  0  0  0  0  0  0  0  0
  1 16  1  0  0  0  0
  1 72  1  0  0  0  0
  2 17  2  0  0  0  0
  3 22  2  0  0  0  0
  4 27  2  0  0  0  0
  5 33  1  0  0  0  0
  5 34  1  0  0  0  0
  6 33  2  0  0  0  0
  7  8  1  0  0  0  0
  7  9  1  0  0  0  0
  7 14  1  0  0  0  0
  7 23  1  0  0  0  0
  8 11  1  0  0  0  0
  8 17  1  0  0  0  0
  8 24  1  0  0  0  0
  9 15  1  0  0  0  0
  9 20  1  0  0  0  0
  9 38  1  0  0  0  0
 10 12  1  0  0  0  0
 10 13  1  0  0  0  0
 10 21  1  0  0  0  0
 10 25  1  0  0  0  0
 11 13  2  0  0  0  0
 11 16  1  0  0  0  0
 12 18  1  0  0  0  0
 12 19  1  0  0  0  0
 12 39  1  0  0  0  0
 13 22  1  0  0  0  0
 14 22  1  0  0  0  0
 14 40  1  0  0  0  0
 14 41  1  0  0  0  0
 15 17  1  0  0  0  0
 15 42  1  0  0  0  0
 15 43  1  0  0  0  0
 16 18  1  0  0  0  0
 16 44  1  0  0  0  0
 18 45  1  0  0  0  0
 18 46  1  0  0  0  0
 19 27  1  0  0  0  0
 19 29  1  0  0  0  0
 19 30  1  0  0  0  0
 20 28  1  0  0  0  0
 20 31  1  0  0  0  0
 20 47  1  0  0  0  0
 21 26  1  0  0  0  0
 21 48  1  0  0  0  0
 21 49  1  0  0  0  0
 23 50  1  0  0  0  0
 23 51  1  0  0  0  0
 23 52  1  0  0  0  0
 24 53  1  0  0  0  0
 24 54  1  0  0  0  0
 24 55  1  0  0  0  0
 25 56  1  0  0  0  0
 25 57  1  0  0  0  0
 25 58  1  0  0  0  0
 26 27  1  0  0  0  0
 26 59  1  0  0  0  0
 26 60  1  0  0  0  0
 28 32  1  0  0  0  0
 28 61  1  0  0  0  0
 28 62  1  0  0  0  0
 29 64  1  0  0  0  0
 29 65  1  0  0  0  0
 29 66  1  0  0  0  0
 30 63  1  0  0  0  0
 30 67  1  0  0  0  0
 30 68  1  0  0  0  0
 31 69  1  0  0  0  0
 31 70  1  0  0  0  0
 31 71  1  0  0  0  0
 32 33  1  0  0  0  0
 32 73  1  0  0  0  0
 32 74  1  0  0  0  0
 34 35  1  0  0  0  0
 34 75  1  0  0  0  0
 34 76  1  0  0  0  0
 35 36  1  0  0  0  0
 35 77  1  0  0  0  0
 35 78  1  0  0  0  0
 36 37  1  0  0  0  0
 36 79  1  0  0  0  0
 36 80  1  0  0  0  0
 37 81  1  0  0  0  0
 37 82  1  0  0  0  0
 37 83  1  0  0  0  0
M  END
> <PUBCHEM_COMPOUND_CID>
46184564

> <PUBCHEM_CONFORMER_RMSD>
1

> <PUBCHEM_CONFORMER_DIVERSEORDER>
3
17
31
45
12
1
34
28
44
47
43
5
37
23
18
10
29
42
27
33
14
26
4
25
21
35
32
8
11
6
22
39
13
24
16
46
30
20
41
2
15
19
7
38
36
9
40

> <PUBCHEM_MMFF94_PARTIAL_CHARGES>
22
1 -0.68
10 0.14
11 -0.28
13 -0.12
14 0.06
15 0.06
16 0.42
17 0.45
19 0.06
2 -0.57
22 0.49
26 0.06
27 0.45
3 -0.57
32 0.06
33 0.66
34 0.28
4 -0.57
5 -0.43
6 -0.57
72 0.4
8 0.2

> <PUBCHEM_EFFECTIVE_ROTOR_COUNT>
9.6

> <PUBCHEM_PHARMACOPHORE_FEATURES>
13
1 1 acceptor
1 1 donor
1 2 acceptor
1 3 acceptor
1 31 hydrophobe
1 37 hydrophobe
1 4 acceptor
1 6 acceptor
3 19 29 30 hydrophobe
5 7 8 9 15 17 rings
6 10 11 12 13 16 18 rings
6 10 12 19 21 26 27 rings
6 7 8 11 13 14 22 rings

> <PUBCHEM_HEAVY_ATOM_COUNT>
37

> <PUBCHEM_ATOM_DEF_STEREO_COUNT>
7

> <PUBCHEM_ATOM_UDEF_STEREO_COUNT>
0

> <PUBCHEM_BOND_DEF_STEREO_COUNT>
0

> <PUBCHEM_BOND_UDEF_STEREO_COUNT>
0

> <PUBCHEM_ISOTOPIC_ATOM_COUNT>
0

> <PUBCHEM_COMPONENT_COUNT>
1

> <PUBCHEM_CACTVS_TAUTO_COUNT>
8

> <PUBCHEM_CONFORMER_ID>
02C0B87400000003

> <PUBCHEM_MMFF94_ENERGY>
120.6434

> <PUBCHEM_FEATURE_SELFOVERLAP>
66.07

> <PUBCHEM_SHAPE_FINGERPRINT>
10 15 18335426794253395164
10533779 47 18272089346033314730
10906281 52 18270422536662695791
10930396 42 18409157815024604824
11135926 11 18334850615479676566
11456790 92 18334859429174327312
11578080 2 17202480181470142067
12035758 1 18340782493643109803
12236239 1 16950295013718402255
12741549 16 17676488350177568389
12838862 33 18413100645697505860
13811026 1 18410576201470802605
14028597 1 17894630318882300024
15247644 1 15357990001441527817
15274700 242 18114173129520353514
1754911 235 12679462006960013360
18608769 82 18337681892586418635
2026 5 15286185196504522426
21033648 29 17632569474918105522
21130935 74 18199480887167352167
23559900 14 18343304799023988033
23576562 1 10663515116238507418
24771293 8 18060700585079776484
3178227 256 18189919603134815505
3383291 50 18114188561374901714
350125 39 18410304596867177189
4093350 32 16916800521659597286
44280117 145 17130696361659423942
4516262 110 14117796930581147296
4616759 239 18343027696239602779
5104073 3 18267029357816911186
9953998 17 18202560705235721194

> <PUBCHEM_SHAPE_MULTIPOLES>
726.23
27.16
2.36
1.88
72.85
0.37
-0.45
-7.05
-21.4
-2.55
0.31
1.6
-0.06
1.22

> <PUBCHEM_SHAPE_SELFOVERLAP>
1530.848

> <PUBCHEM_SHAPE_VOLUME>
407.1

> <PUBCHEM_COORDINATE_TYPE>
2
5
10

$$$$
