475412
  -OEChem-09122004083D

 80 83  0     1  0  0  0  0  0999 V2000
   -0.3509   -3.2443    0.6823 O   0  0  0  0  0  0  0  0  0  0  0  0
    2.1027    2.8682    0.4685 O   0  0  0  0  0  0  0  0  0  0  0  0
    7.9245    0.3106    1.1121 O   0  0  0  0  0  0  0  0  0  0  0  0
   -5.5196    1.4571   -1.5687 O   0  0  0  0  0  0  0  0  0  0  0  0
   -7.1926   -2.0894   -0.4467 O   0  0  0  0  0  0  0  0  0  0  0  0
   -8.5772   -0.4887   -1.2663 O   0  0  0  0  0  0  0  0  0  0  0  0
   -0.4501    0.3537   -0.0543 C   0  0  1  0  0  0  0  0  0  0  0  0
    0.3671   -0.8570    0.5022 C   0  0  1  0  0  0  0  0  0  0  0  0
   -1.8910   -0.0190    0.3707 C   0  0  2  0  0  0  0  0  0  0  0  0
   -0.5018   -2.0294   -0.0352 C   0  0  2  0  0  0  0  0  0  0  0  0
    1.8222   -0.6984    0.0603 C   0  0  0  0  0  0  0  0  0  0  0  0
    3.9505    0.6871   -0.2883 C   0  0  2  0  0  0  0  0  0  0  0  0
   -1.9618   -1.5395    0.1088 C   0  0  0  0  0  0  0  0  0  0  0  0
    0.0911    1.6335    0.5663 C   0  0  0  0  0  0  0  0  0  0  0  0
    2.4411    0.5137    0.0649 C   0  0  0  0  0  0  0  0  0  0  0  0
    4.6822   -0.7025   -0.1042 C   0  0  1  0  0  0  0  0  0  0  0  0
    2.5352   -1.9737   -0.3225 C   0  0  0  0  0  0  0  0  0  0  0  0
   -3.0278    0.7482   -0.2941 C   0  0  1  0  0  0  0  0  0  0  0  0
    3.9391   -1.7905   -0.8880 C   0  0  0  0  0  0  0  0  0  0  0  0
   -0.3836    0.5026   -1.6099 C   0  0  0  0  0  0  0  0  0  0  0  0
    0.4279   -0.9609    2.0592 C   0  0  0  0  0  0  0  0  0  0  0  0
    1.5982    1.7493    0.3729 C   0  0  0  0  0  0  0  0  0  0  0  0
    6.2386   -0.7423   -0.2853 C   0  0  0  0  0  0  0  0  0  0  0  0
    4.6928    1.6779    0.6518 C   0  0  0  0  0  0  0  0  0  0  0  0
    3.9641    1.2333   -1.7339 C   0  0  0  0  0  0  0  0  0  0  0  0
    6.1924    1.7669    0.4010 C   0  0  0  0  0  0  0  0  0  0  0  0
    6.8614    0.4213    0.4976 C   0  0  0  0  0  0  0  0  0  0  0  0
   -4.3996    0.2831    0.2221 C   0  0  0  0  0  0  0  0  0  0  0  0
   -2.8630    2.2510   -0.0463 C   0  0  0  0  0  0  0  0  0  0  0  0
    6.7924   -2.0581    0.3238 C   0  0  0  0  0  0  0  0  0  0  0  0
    6.7344   -0.6739   -1.7365 C   0  0  0  0  0  0  0  0  0  0  0  0
   -5.5642    1.0245   -0.4173 C   0  0  0  0  0  0  0  0  0  0  0  0
   -6.7925    1.2393    0.4448 C   0  0  0  0  0  0  0  0  0  0  0  0
   -7.4280   -0.0943    0.8458 C   0  0  1  0  0  0  0  0  0  0  0  0
   -8.6485    0.1184    1.7419 C   0  0  0  0  0  0  0  0  0  0  0  0
   -7.8060   -0.8779   -0.3993 C   0  0  0  0  0  0  0  0  0  0  0  0
   -1.9894    0.1361    1.4541 H   0  0  0  0  0  0  0  0  0  0  0  0
   -0.2862   -2.2434   -1.0873 H   0  0  0  0  0  0  0  0  0  0  0  0
   -2.4999   -2.0456    0.9185 H   0  0  0  0  0  0  0  0  0  0  0  0
   -2.4997   -1.7665   -0.8196 H   0  0  0  0  0  0  0  0  0  0  0  0
   -0.1211    1.7005    1.6384 H   0  0  0  0  0  0  0  0  0  0  0  0
   -0.3224    2.5269    0.0955 H   0  0  0  0  0  0  0  0  0  0  0  0
    4.5358   -0.9531    0.9617 H   0  0  0  0  0  0  0  0  0  0  0  0
    2.5958   -2.6128    0.5675 H   0  0  0  0  0  0  0  0  0  0  0  0
    1.9542   -2.5238   -1.0701 H   0  0  0  0  0  0  0  0  0  0  0  0
   -3.0201    0.5828   -1.3787 H   0  0  0  0  0  0  0  0  0  0  0  0
    4.4461   -2.7580   -0.8321 H   0  0  0  0  0  0  0  0  0  0  0  0
    3.8841   -1.5427   -1.9533 H   0  0  0  0  0  0  0  0  0  0  0  0
    0.6420    0.5427   -1.9885 H   0  0  0  0  0  0  0  0  0  0  0  0
   -0.8747   -0.3251   -2.1314 H   0  0  0  0  0  0  0  0  0  0  0  0
   -0.8645    1.4231   -1.9533 H   0  0  0  0  0  0  0  0  0  0  0  0
    0.9072   -0.0910    2.5209 H   0  0  0  0  0  0  0  0  0  0  0  0
   -0.5583   -1.0657    2.5210 H   0  0  0  0  0  0  0  0  0  0  0  0
    1.0172   -1.8328    2.3703 H   0  0  0  0  0  0  0  0  0  0  0  0
    4.5189    1.3868    1.6966 H   0  0  0  0  0  0  0  0  0  0  0  0
    4.3163    2.6978    0.5420 H   0  0  0  0  0  0  0  0  0  0  0  0
    4.9638    1.4582   -2.1003 H   0  0  0  0  0  0  0  0  0  0  0  0
    3.4975    0.5434   -2.4441 H   0  0  0  0  0  0  0  0  0  0  0  0
    3.4076    2.1762   -1.8037 H   0  0  0  0  0  0  0  0  0  0  0  0
    6.6379    2.4270    1.1547 H   0  0  0  0  0  0  0  0  0  0  0  0
    6.4181    2.2010   -0.5773 H   0  0  0  0  0  0  0  0  0  0  0  0
   -4.5549   -0.7828    0.0269 H   0  0  0  0  0  0  0  0  0  0  0  0
   -4.4461    0.4370    1.3070 H   0  0  0  0  0  0  0  0  0  0  0  0
   -0.7458   -3.1457    1.5642 H   0  0  0  0  0  0  0  0  0  0  0  0
   -2.1503    2.7003   -0.7395 H   0  0  0  0  0  0  0  0  0  0  0  0
   -2.5629    2.4645    0.9850 H   0  0  0  0  0  0  0  0  0  0  0  0
   -3.7897    2.8082   -0.2144 H   0  0  0  0  0  0  0  0  0  0  0  0
    6.4739   -2.1783    1.3657 H   0  0  0  0  0  0  0  0  0  0  0  0
    6.4708   -2.9409   -0.2363 H   0  0  0  0  0  0  0  0  0  0  0  0
    7.8892   -2.0721    0.3219 H   0  0  0  0  0  0  0  0  0  0  0  0
    6.2340   -1.4082   -2.3748 H   0  0  0  0  0  0  0  0  0  0  0  0
    6.6146    0.3128   -2.1842 H   0  0  0  0  0  0  0  0  0  0  0  0
    7.8105   -0.8837   -1.7860 H   0  0  0  0  0  0  0  0  0  0  0  0
   -6.4955    1.8179    1.3267 H   0  0  0  0  0  0  0  0  0  0  0  0
   -7.5030    1.8532   -0.1223 H   0  0  0  0  0  0  0  0  0  0  0  0
   -6.7004   -0.6880    1.4134 H   0  0  0  0  0  0  0  0  0  0  0  0
   -9.4170    0.7101    1.2325 H   0  0  0  0  0  0  0  0  0  0  0  0
   -9.0997   -0.8419    2.0141 H   0  0  0  0  0  0  0  0  0  0  0  0
   -8.3695    0.6391    2.6636 H   0  0  0  0  0  0  0  0  0  0  0  0
   -7.4417   -2.5938   -1.2502 H   0  0  0  0  0  0  0  0  0  0  0  0
  1 10  1  0  0  0  0
  1 64  1  0  0  0  0
  2 22  2  0  0  0  0
  3 27  2  0  0  0  0
  4 32  2  0  0  0  0
  5 36  1  0  0  0  0
  5 80  1  0  0  0  0
  6 36  2  0  0  0  0
  7  8  1  0  0  0  0
  7  9  1  0  0  0  0
  7 14  1  0  0  0  0
  7 20  1  0  0  0  0
  8 10  1  0  0  0  0
  8 11  1  0  0  0  0
  8 21  1  0  0  0  0
  9 13  1  0  0  0  0
  9 18  1  0  0  0  0
  9 37  1  0  0  0  0
 10 13  1  0  0  0  0
 10 38  1  0  0  0  0
 11 15  2  0  0  0  0
 11 17  1  0  0  0  0
 12 15  1  0  0  0  0
 12 16  1  0  0  0  0
 12 24  1  0  0  0  0
 12 25  1  0  0  0  0
 13 39  1  0  0  0  0
 13 40  1  0  0  0  0
 14 22  1  0  0  0  0
 14 41  1  0  0  0  0
 14 42  1  0  0  0  0
 15 22  1  0  0  0  0
 16 19  1  0  0  0  0
 16 23  1  0  0  0  0
 16 43  1  0  0  0  0
 17 19  1  0  0  0  0
 17 44  1  0  0  0  0
 17 45  1  0  0  0  0
 18 28  1  0  0  0  0
 18 29  1  0  0  0  0
 18 46  1  0  0  0  0
 19 47  1  0  0  0  0
 19 48  1  0  0  0  0
 20 49  1  0  0  0  0
 20 50  1  0  0  0  0
 20 51  1  0  0  0  0
 21 52  1  0  0  0  0
 21 53  1  0  0  0  0
 21 54  1  0  0  0  0
 23 27  1  0  0  0  0
 23 30  1  0  0  0  0
 23 31  1  0  0  0  0
 24 26  1  0  0  0  0
 24 55  1  0  0  0  0
 24 56  1  0  0  0  0
 25 57  1  0  0  0  0
 25 58  1  0  0  0  0
 25 59  1  0  0  0  0
 26 27  1  0  0  0  0
 26 60  1  0  0  0  0
 26 61  1  0  0  0  0
 28 32  1  0  0  0  0
 28 62  1  0  0  0  0
 28 63  1  0  0  0  0
 29 65  1  0  0  0  0
 29 66  1  0  0  0  0
 29 67  1  0  0  0  0
 30 68  1  0  0  0  0
 30 69  1  0  0  0  0
 30 70  1  0  0  0  0
 31 71  1  0  0  0  0
 31 72  1  0  0  0  0
 31 73  1  0  0  0  0
 32 33  1  0  0  0  0
 33 34  1  0  0  0  0
 33 74  1  0  0  0  0
 33 75  1  0  0  0  0
 34 35  1  0  0  0  0
 34 36  1  0  0  0  0
 34 76  1  0  0  0  0
 35 77  1  0  0  0  0
 35 78  1  0  0  0  0
 35 79  1  0  0  0  0
M  END
> <PUBCHEM_COMPOUND_CID>
475412

> <PUBCHEM_CONFORMER_RMSD>
1

> <PUBCHEM_CONFORMER_DIVERSEORDER>
2
8
16
13
9
3
18
7
11
15
6
17
5
12
14
1
4
10

> <PUBCHEM_MMFF94_PARTIAL_CHARGES>
24
1 -0.68
10 0.28
11 -0.28
12 0.14
14 0.06
15 -0.12
17 0.14
2 -0.57
22 0.49
23 0.06
26 0.06
27 0.45
28 0.06
3 -0.57
32 0.45
33 0.06
34 0.06
36 0.66
4 -0.57
5 -0.65
6 -0.57
64 0.4
8 0.14
80 0.5

> <PUBCHEM_EFFECTIVE_ROTOR_COUNT>
7.8

> <PUBCHEM_PHARMACOPHORE_FEATURES>
15
1 1 acceptor
1 1 donor
1 2 acceptor
1 29 hydrophobe
1 3 acceptor
1 35 hydrophobe
1 4 acceptor
1 5 acceptor
1 6 acceptor
3 23 30 31 hydrophobe
3 5 6 36 anion
5 7 8 9 10 13 rings
6 11 12 15 16 17 19 rings
6 12 16 23 24 26 27 rings
6 7 8 11 14 15 22 rings

> <PUBCHEM_HEAVY_ATOM_COUNT>
36

> <PUBCHEM_ATOM_DEF_STEREO_COUNT>
8

> <PUBCHEM_ATOM_UDEF_STEREO_COUNT>
0

> <PUBCHEM_BOND_DEF_STEREO_COUNT>
0

> <PUBCHEM_BOND_UDEF_STEREO_COUNT>
0

> <PUBCHEM_ISOTOPIC_ATOM_COUNT>
0

> <PUBCHEM_COMPONENT_COUNT>
1

> <PUBCHEM_CACTVS_TAUTO_COUNT>
30

> <PUBCHEM_CONFORMER_ID>
0007411400000002

> <PUBCHEM_MMFF94_ENERGY>
130.8089

> <PUBCHEM_FEATURE_SELFOVERLAP>
76.275

> <PUBCHEM_SHAPE_FINGERPRINT>
10 15 18040437723809106752
10299344 5 17703790323733030927
11135926 11 18408319974537793855
11456790 92 18341328903714690784
11578080 2 16700591614876489168
11991303 11 17386010628214511059
12236239 1 16988843852607032620
13811026 1 18411134731797244585
14170010 4 18411981369015692968
14251764 18 18410857659415167997
14849402 71 18272373113652201657
15183329 4 18343310248952176425
15301273 46 7997972370780764852
15849732 13 17894912940588573447
18608769 82 18411135862033084971
18681886 176 18410848876587031497
19611394 137 17605010259418694593
21033648 29 18129084780358901816
21267235 1 18343025450150859124
21521721 280 18343304768895783955
21781051 124 17968392220040508555
22149856 69 18059021587784864721
23559900 14 18271518792932380904
23569917 315 18337398153614115946
23569943 247 17767981835345627462
24771750 20 18193002732091727228
249057 3 18412545435280588990
25019877 29 18343303660915795015
27425 322 16806173310177606100
3178227 256 18409174302997612537
335352 9 18410577293056945668
335507 130 18334020493370122309
3383291 50 18410294717988826499
4073 2 18260833760086853827
4093350 32 16988566779671139796
4258327 124 17532390810222031980
4340502 62 18410013230042460310
4625314 4 18335699473385185405
484989 97 18336833099637701563
59755656 215 18335139773735309958
6004065 56 18201717371137806744

> <PUBCHEM_SHAPE_MULTIPOLES>
705.65
23.85
2.45
1.31
29.66
0.37
-0.1
1.5
0.31
-1.04
0.15
0.21
-0.02
0.44

> <PUBCHEM_SHAPE_SELFOVERLAP>
1495.209

> <PUBCHEM_SHAPE_VOLUME>
392.4

> <PUBCHEM_COORDINATE_TYPE>
2
5
10

$$$$
