20055994
  -OEChem-09122004093D

 82 85  0     1  0  0  0  0  0999 V2000
    0.3063   -3.2367   -0.6412 O   0  0  0  0  0  0  0  0  0  0  0  0
   -2.1075    2.8607   -0.5155 O   0  0  0  0  0  0  0  0  0  0  0  0
   -8.2410    0.4784   -0.4801 O   0  0  0  0  0  0  0  0  0  0  0  0
    5.5276    1.4546    1.5813 O   0  0  0  0  0  0  0  0  0  0  0  0
    7.1996   -2.0909    0.4545 O   0  0  0  0  0  0  0  0  0  0  0  0
    8.5835   -0.4945    1.2836 O   0  0  0  0  0  0  0  0  0  0  0  0
   -0.3518   -0.8487   -0.5067 C   0  0  2  0  0  0  0  0  0  0  0  0
    0.4610    0.3656    0.0446 C   0  0  1  0  0  0  0  0  0  0  0  0
    1.9037   -0.0107   -0.3748 C   0  0  2  0  0  0  0  0  0  0  0  0
   -3.9430    0.6708    0.2655 C   0  0  1  0  0  0  0  0  0  0  0  0
   -1.8080   -0.6993   -0.0742 C   0  0  0  0  0  0  0  0  0  0  0  0
    0.5103   -2.0139    0.0481 C   0  0  2  0  0  0  0  0  0  0  0  0
   -4.6649   -0.7199    0.0439 C   0  0  2  0  0  0  0  0  0  0  0  0
   -2.4321    0.5095   -0.0832 C   0  0  0  0  0  0  0  0  0  0  0  0
    1.9710   -1.5344   -0.1173 C   0  0  0  0  0  0  0  0  0  0  0  0
   -0.0851    1.6394   -0.5841 C   0  0  0  0  0  0  0  0  0  0  0  0
   -6.2311   -0.7554    0.1880 C   0  0  0  0  0  0  0  0  0  0  0  0
   -2.5124   -1.9833    0.2977 C   0  0  0  0  0  0  0  0  0  0  0  0
   -3.9353   -1.8215    0.8220 C   0  0  0  0  0  0  0  0  0  0  0  0
    3.0392    0.7528    0.2961 C   0  0  1  0  0  0  0  0  0  0  0  0
   -4.6794    1.7028   -0.6350 C   0  0  0  0  0  0  0  0  0  0  0  0
   -0.4031   -0.9646   -2.0639 C   0  0  0  0  0  0  0  0  0  0  0  0
    0.3908    0.5256    1.5989 C   0  0  0  0  0  0  0  0  0  0  0  0
   -1.5953    1.7471   -0.4003 C   0  0  0  0  0  0  0  0  0  0  0  0
   -6.8341    0.3715   -0.6939 C   0  0  2  0  0  0  0  0  0  0  0  0
   -6.1949    1.7307   -0.4504 C   0  0  0  0  0  0  0  0  0  0  0  0
   -3.9592    1.1768    1.7268 C   0  0  0  0  0  0  0  0  0  0  0  0
   -6.7752   -2.1033   -0.3681 C   0  0  0  0  0  0  0  0  0  0  0  0
   -6.7349   -0.6682    1.6435 C   0  0  0  0  0  0  0  0  0  0  0  0
    4.4121    0.2873   -0.2168 C   0  0  0  0  0  0  0  0  0  0  0  0
    2.8774    2.2566    0.0522 C   0  0  0  0  0  0  0  0  0  0  0  0
    5.5756    1.0253    0.4287 C   0  0  0  0  0  0  0  0  0  0  0  0
    6.8071    1.2409   -0.4286 C   0  0  0  0  0  0  0  0  0  0  0  0
    7.4422   -0.0923   -0.8313 C   0  0  1  0  0  0  0  0  0  0  0  0
    8.6660    0.1213   -1.7227 C   0  0  0  0  0  0  0  0  0  0  0  0
    7.8149   -0.8801    0.4127 C   0  0  0  0  0  0  0  0  0  0  0  0
    2.0070    0.1469   -1.4575 H   0  0  0  0  0  0  0  0  0  0  0  0
    0.2997   -2.1972    1.1077 H   0  0  0  0  0  0  0  0  0  0  0  0
   -4.4975   -0.9572   -1.0219 H   0  0  0  0  0  0  0  0  0  0  0  0
    2.4782   -2.0450   -0.9441 H   0  0  0  0  0  0  0  0  0  0  0  0
    2.5265   -1.7722    0.7975 H   0  0  0  0  0  0  0  0  0  0  0  0
    0.3231    2.5372   -0.1164 H   0  0  0  0  0  0  0  0  0  0  0  0
    0.1327    1.7022   -1.6555 H   0  0  0  0  0  0  0  0  0  0  0  0
   -1.9437   -2.5215    1.0634 H   0  0  0  0  0  0  0  0  0  0  0  0
   -2.5416   -2.6273   -0.5904 H   0  0  0  0  0  0  0  0  0  0  0  0
   -3.9132   -1.6009    1.8942 H   0  0  0  0  0  0  0  0  0  0  0  0
   -4.4329   -2.7908    0.7263 H   0  0  0  0  0  0  0  0  0  0  0  0
    3.0273    0.5842    1.3800 H   0  0  0  0  0  0  0  0  0  0  0  0
   -4.3398    2.7223   -0.4307 H   0  0  0  0  0  0  0  0  0  0  0  0
   -4.4531    1.4981   -1.6899 H   0  0  0  0  0  0  0  0  0  0  0  0
   -0.8730   -0.0962   -2.5374 H   0  0  0  0  0  0  0  0  0  0  0  0
    0.5860   -1.0848   -2.5156 H   0  0  0  0  0  0  0  0  0  0  0  0
   -0.9929   -1.8375   -2.3714 H   0  0  0  0  0  0  0  0  0  0  0  0
    0.8591    1.4543    1.9370 H   0  0  0  0  0  0  0  0  0  0  0  0
    0.8920   -0.2916    2.1275 H   0  0  0  0  0  0  0  0  0  0  0  0
   -0.6359    0.5548    1.9754 H   0  0  0  0  0  0  0  0  0  0  0  0
   -6.6983    0.1146   -1.7523 H   0  0  0  0  0  0  0  0  0  0  0  0
   -6.6292    2.4585   -1.1483 H   0  0  0  0  0  0  0  0  0  0  0  0
   -6.4565    2.1111    0.5436 H   0  0  0  0  0  0  0  0  0  0  0  0
   -4.9588    1.4067    2.0908 H   0  0  0  0  0  0  0  0  0  0  0  0
   -3.5071    0.4625    2.4221 H   0  0  0  0  0  0  0  0  0  0  0  0
   -3.3893    2.1094    1.8255 H   0  0  0  0  0  0  0  0  0  0  0  0
   -7.8693   -2.0956   -0.4366 H   0  0  0  0  0  0  0  0  0  0  0  0
   -6.3868   -2.3044   -1.3728 H   0  0  0  0  0  0  0  0  0  0  0  0
   -6.5093   -2.9497    0.2727 H   0  0  0  0  0  0  0  0  0  0  0  0
   -7.7924   -0.9516    1.7133 H   0  0  0  0  0  0  0  0  0  0  0  0
   -6.1881   -1.3483    2.3035 H   0  0  0  0  0  0  0  0  0  0  0  0
   -6.6665    0.3367    2.0595 H   0  0  0  0  0  0  0  0  0  0  0  0
    4.4625    0.4446   -1.3011 H   0  0  0  0  0  0  0  0  0  0  0  0
    4.5653   -0.7795   -0.0247 H   0  0  0  0  0  0  0  0  0  0  0  0
    0.9320   -3.8852   -0.2760 H   0  0  0  0  0  0  0  0  0  0  0  0
    2.1548    2.7044    0.7356 H   0  0  0  0  0  0  0  0  0  0  0  0
    2.5900    2.4729   -0.9822 H   0  0  0  0  0  0  0  0  0  0  0  0
    3.8018    2.8132    0.2343 H   0  0  0  0  0  0  0  0  0  0  0  0
   -8.3902    0.8975    0.3839 H   0  0  0  0  0  0  0  0  0  0  0  0
    7.5165    1.8522    0.1427 H   0  0  0  0  0  0  0  0  0  0  0  0
    6.5140    1.8226   -1.3098 H   0  0  0  0  0  0  0  0  0  0  0  0
    6.7159   -0.6833   -1.4031 H   0  0  0  0  0  0  0  0  0  0  0  0
    9.4335    0.7105   -1.2089 H   0  0  0  0  0  0  0  0  0  0  0  0
    9.1166   -0.8387   -1.9962 H   0  0  0  0  0  0  0  0  0  0  0  0
    8.3908    0.6451   -2.6437 H   0  0  0  0  0  0  0  0  0  0  0  0
    7.4454   -2.5980    1.2575 H   0  0  0  0  0  0  0  0  0  0  0  0
  1 12  1  0  0  0  0
  1 71  1  0  0  0  0
  2 24  2  0  0  0  0
  3 25  1  0  0  0  0
  3 75  1  0  0  0  0
  4 32  2  0  0  0  0
  5 36  1  0  0  0  0
  5 82  1  0  0  0  0
  6 36  2  0  0  0  0
  7  8  1  0  0  0  0
  7 11  1  0  0  0  0
  7 12  1  0  0  0  0
  7 22  1  0  0  0  0
  8  9  1  0  0  0  0
  8 16  1  0  0  0  0
  8 23  1  0  0  0  0
  9 15  1  0  0  0  0
  9 20  1  0  0  0  0
  9 37  1  0  0  0  0
 10 13  1  0  0  0  0
 10 14  1  0  0  0  0
 10 21  1  0  0  0  0
 10 27  1  0  0  0  0
 11 14  2  0  0  0  0
 11 18  1  0  0  0  0
 12 15  1  0  0  0  0
 12 38  1  0  0  0  0
 13 17  1  0  0  0  0
 13 19  1  0  0  0  0
 13 39  1  0  0  0  0
 14 24  1  0  0  0  0
 15 40  1  0  0  0  0
 15 41  1  0  0  0  0
 16 24  1  0  0  0  0
 16 42  1  0  0  0  0
 16 43  1  0  0  0  0
 17 25  1  0  0  0  0
 17 28  1  0  0  0  0
 17 29  1  0  0  0  0
 18 19  1  0  0  0  0
 18 44  1  0  0  0  0
 18 45  1  0  0  0  0
 19 46  1  0  0  0  0
 19 47  1  0  0  0  0
 20 30  1  0  0  0  0
 20 31  1  0  0  0  0
 20 48  1  0  0  0  0
 21 26  1  0  0  0  0
 21 49  1  0  0  0  0
 21 50  1  0  0  0  0
 22 51  1  0  0  0  0
 22 52  1  0  0  0  0
 22 53  1  0  0  0  0
 23 54  1  0  0  0  0
 23 55  1  0  0  0  0
 23 56  1  0  0  0  0
 25 26  1  0  0  0  0
 25 57  1  0  0  0  0
 26 58  1  0  0  0  0
 26 59  1  0  0  0  0
 27 60  1  0  0  0  0
 27 61  1  0  0  0  0
 27 62  1  0  0  0  0
 28 63  1  0  0  0  0
 28 64  1  0  0  0  0
 28 65  1  0  0  0  0
 29 66  1  0  0  0  0
 29 67  1  0  0  0  0
 29 68  1  0  0  0  0
 30 32  1  0  0  0  0
 30 69  1  0  0  0  0
 30 70  1  0  0  0  0
 31 72  1  0  0  0  0
 31 73  1  0  0  0  0
 31 74  1  0  0  0  0
 32 33  1  0  0  0  0
 33 34  1  0  0  0  0
 33 76  1  0  0  0  0
 33 77  1  0  0  0  0
 34 35  1  0  0  0  0
 34 36  1  0  0  0  0
 34 78  1  0  0  0  0
 35 79  1  0  0  0  0
 35 80  1  0  0  0  0
 35 81  1  0  0  0  0
M  END
> <PUBCHEM_COMPOUND_CID>
20055994

> <PUBCHEM_CONFORMER_RMSD>
1

> <PUBCHEM_CONFORMER_DIVERSEORDER>
2
19
17
8
4
22
23
16
24
25
15
21
13
11
14
20
3
18
7
10
5
12
6
9
1

> <PUBCHEM_MMFF94_PARTIAL_CHARGES>
23
1 -0.68
10 0.14
11 -0.28
12 0.28
14 -0.12
16 0.06
18 0.14
2 -0.57
24 0.49
25 0.28
3 -0.68
30 0.06
32 0.45
33 0.06
34 0.06
36 0.66
4 -0.57
5 -0.65
6 -0.57
7 0.14
71 0.4
75 0.4
82 0.5

> <PUBCHEM_EFFECTIVE_ROTOR_COUNT>
8

> <PUBCHEM_PHARMACOPHORE_FEATURES>
16
1 1 acceptor
1 1 donor
1 2 acceptor
1 3 acceptor
1 3 donor
1 31 hydrophobe
1 35 hydrophobe
1 4 acceptor
1 5 acceptor
1 6 acceptor
3 17 28 29 hydrophobe
3 5 6 36 anion
5 7 8 9 12 15 rings
6 10 11 13 14 18 19 rings
6 10 13 17 21 25 26 rings
6 7 8 11 14 16 24 rings

> <PUBCHEM_HEAVY_ATOM_COUNT>
36

> <PUBCHEM_ATOM_DEF_STEREO_COUNT>
8

> <PUBCHEM_ATOM_UDEF_STEREO_COUNT>
1

> <PUBCHEM_BOND_DEF_STEREO_COUNT>
0

> <PUBCHEM_BOND_UDEF_STEREO_COUNT>
0

> <PUBCHEM_ISOTOPIC_ATOM_COUNT>
0

> <PUBCHEM_COMPONENT_COUNT>
1

> <PUBCHEM_CACTVS_TAUTO_COUNT>
15

> <PUBCHEM_CONFORMER_ID>
013207BA00000002

> <PUBCHEM_MMFF94_ENERGY>
133.8701

> <PUBCHEM_FEATURE_SELFOVERLAP>
81.35

> <PUBCHEM_SHAPE_FINGERPRINT>
10 15 18186240640637079136
10050765 1 18120934997170925238
10299344 5 17748544840719227154
11135926 11 18411132524964978135
11181472 205 16153975838514695492
11315181 36 18343306981146943033
11524674 6 17418374714075102238
11578080 2 16589971747144639455
11719270 70 18343582924332708270
12236239 1 17022901281090870017
13782708 43 17916864763352259398
13811026 1 18410854364916789060
14117953 113 18408322194276322077
14251764 18 18408887334821130778
14294032 229 17968658203129173085
1454969 45 18409727365625205175
14856354 85 18260835933329664926
15131766 46 17697869629691238704
15183329 4 18412268320645021896
15301273 46 17458344139372130518
15461852 350 18340486759649634327
15849732 13 18333733537561701980
16087824 20 18262234423102646493
18608769 82 18410572903278641590
18681886 176 18338231665063321753
19611394 137 17896896524253367721
20721686 56 18335706000881212291
21267235 1 18334581282453905049
21781051 124 18261124010119353018
21792961 116 18202007599484238980
23559900 14 18340481262365762817
23569917 315 18341901834851120671
249057 3 18201438108396093060
3178227 256 18340777004300391992
335352 9 18410012156374580524
3383291 50 17917712422429818558
350125 39 18410011022861819212
4073 2 17822578312850135658
4197921 191 18334018285841620356
4339292 15 12895057541232951989
44802255 64 15285626721644129715
4625314 4 18408320016954625917
5104073 3 18335144133981626011
5265222 85 18267875063596564518
59755656 215 18411984642001994022
6081469 158 17894625946299455469
6669772 16 17703515410987061806
9896288 288 17987243239625564809

> <PUBCHEM_SHAPE_MULTIPOLES>
705.65
23.97
2.45
1.29
28.92
0.4
-0.11
1.4
0
-1.08
0.17
0.4
-0.03
0.4

> <PUBCHEM_SHAPE_SELFOVERLAP>
1490.076

> <PUBCHEM_SHAPE_VOLUME>
392.6

> <PUBCHEM_COORDINATE_TYPE>
2
5
10

$$$$
