15427809
  -OEChem-09122004303D

 81 84  0     1  0  0  0  0  0999 V2000
    0.0253   -3.6018    1.1589 O   0  0  0  0  0  0  0  0  0  0  0  0
   -2.9494   -2.7566    0.9205 O   0  0  0  0  0  0  0  0  0  0  0  0
   -1.6954    1.5936   -2.4654 O   0  0  0  0  0  0  0  0  0  0  0  0
   -7.1515    2.2867   -0.0180 O   0  0  0  0  0  0  0  0  0  0  0  0
    6.8306   -1.7530   -1.1677 O   0  0  0  0  0  0  0  0  0  0  0  0
    7.1996    3.1277    1.7555 O   0  0  0  0  0  0  0  0  0  0  0  0
    6.8110    1.1383    2.7782 O   0  0  0  0  0  0  0  0  0  0  0  0
    0.6729   -0.4051   -0.5566 C   0  0  1  0  0  0  0  0  0  0  0  0
   -0.3491   -1.5373   -0.1992 C   0  0  1  0  0  0  0  0  0  0  0  0
    1.9851   -1.2109   -0.7336 C   0  0  2  0  0  0  0  0  0  0  0  0
    0.4619   -2.2773    0.9007 C   0  0  2  0  0  0  0  0  0  0  0  0
   -1.6888   -0.8829    0.1449 C   0  0  0  0  0  0  0  0  0  0  0  0
   -3.5422    0.8247   -0.3307 C   0  0  2  0  0  0  0  0  0  0  0  0
    1.9248   -2.2618    0.3988 C   0  0  0  0  0  0  0  0  0  0  0  0
   -2.1571    0.1699   -0.5776 C   0  0  0  0  0  0  0  0  0  0  0  0
    0.1868    0.3139   -1.8084 C   0  0  0  0  0  0  0  0  0  0  0  0
   -4.4341   -0.0892    0.5907 C   0  0  1  0  0  0  0  0  0  0  0  0
   -2.4596   -1.4728    1.3060 C   0  0  1  0  0  0  0  0  0  0  0  0
    3.2872   -0.4188   -0.7349 C   0  0  1  0  0  0  0  0  0  0  0  0
   -3.6289   -0.6137    1.7861 C   0  0  0  0  0  0  0  0  0  0  0  0
    0.8623    0.6626    0.5707 C   0  0  0  0  0  0  0  0  0  0  0  0
   -0.6551   -2.5309   -1.3653 C   0  0  0  0  0  0  0  0  0  0  0  0
   -1.2655    0.7558   -1.6710 C   0  0  0  0  0  0  0  0  0  0  0  0
   -5.8223    0.5213    0.9889 C   0  0  0  0  0  0  0  0  0  0  0  0
   -4.3317    1.0299   -1.6635 C   0  0  0  0  0  0  0  0  0  0  0  0
   -3.2585    2.2105    0.2997 C   0  0  0  0  0  0  0  0  0  0  0  0
   -5.8552    0.9973   -1.5511 C   0  0  0  0  0  0  0  0  0  0  0  0
   -6.3345    1.3792   -0.1728 C   0  0  0  0  0  0  0  0  0  0  0  0
    4.4867   -1.3771   -0.8921 C   0  0  0  0  0  0  0  0  0  0  0  0
    3.2506    0.6415   -1.8395 C   0  0  0  0  0  0  0  0  0  0  0  0
   -5.8039    1.3515    2.2860 C   0  0  0  0  0  0  0  0  0  0  0  0
   -6.8528   -0.6124    1.1832 C   0  0  0  0  0  0  0  0  0  0  0  0
    5.8682   -0.7098   -0.9847 C   0  0  1  0  0  0  0  0  0  0  0  0
    6.2272    0.0411    0.2707 C   0  0  0  0  0  0  0  0  0  0  0  0
    6.5765    1.3370    0.3799 C   0  0  0  0  0  0  0  0  0  0  0  0
    6.7133    2.3134   -0.7505 C   0  0  0  0  0  0  0  0  0  0  0  0
    6.8655    1.8153    1.7630 C   0  0  0  0  0  0  0  0  0  0  0  0
    1.9377   -1.7509   -1.6894 H   0  0  0  0  0  0  0  0  0  0  0  0
    0.4060   -1.7368    1.8525 H   0  0  0  0  0  0  0  0  0  0  0  0
    2.2383   -3.2463    0.0328 H   0  0  0  0  0  0  0  0  0  0  0  0
    2.5804   -2.0040    1.2389 H   0  0  0  0  0  0  0  0  0  0  0  0
    0.2659   -0.3140   -2.7022 H   0  0  0  0  0  0  0  0  0  0  0  0
    0.7414    1.2330   -2.0036 H   0  0  0  0  0  0  0  0  0  0  0  0
   -4.6643   -0.9768   -0.0225 H   0  0  0  0  0  0  0  0  0  0  0  0
   -1.8065   -1.6147    2.1734 H   0  0  0  0  0  0  0  0  0  0  0  0
    3.4150    0.0978    0.2236 H   0  0  0  0  0  0  0  0  0  0  0  0
   -4.2703   -1.2228    2.4336 H   0  0  0  0  0  0  0  0  0  0  0  0
   -3.2484    0.2167    2.3914 H   0  0  0  0  0  0  0  0  0  0  0  0
    1.4821    1.5020    0.2433 H   0  0  0  0  0  0  0  0  0  0  0  0
   -0.0830    1.1033    0.9003 H   0  0  0  0  0  0  0  0  0  0  0  0
    1.3397    0.2480    1.4642 H   0  0  0  0  0  0  0  0  0  0  0  0
   -1.1217   -2.0426   -2.2273 H   0  0  0  0  0  0  0  0  0  0  0  0
    0.2393   -3.0446   -1.7295 H   0  0  0  0  0  0  0  0  0  0  0  0
   -1.3476   -3.3182   -1.0478 H   0  0  0  0  0  0  0  0  0  0  0  0
   -4.0454    0.2652   -2.3982 H   0  0  0  0  0  0  0  0  0  0  0  0
   -4.0595    1.9943   -2.1116 H   0  0  0  0  0  0  0  0  0  0  0  0
   -2.5584    2.7978   -0.3060 H   0  0  0  0  0  0  0  0  0  0  0  0
   -4.1604    2.8231    0.3791 H   0  0  0  0  0  0  0  0  0  0  0  0
   -2.8135    2.1241    1.2961 H   0  0  0  0  0  0  0  0  0  0  0  0
   -6.2346   -0.0070   -1.7718 H   0  0  0  0  0  0  0  0  0  0  0  0
   -6.2998    1.6717   -2.2913 H   0  0  0  0  0  0  0  0  0  0  0  0
    4.5062   -2.0999   -0.0661 H   0  0  0  0  0  0  0  0  0  0  0  0
    4.3466   -1.9881   -1.7952 H   0  0  0  0  0  0  0  0  0  0  0  0
    0.6373   -3.9898    1.8074 H   0  0  0  0  0  0  0  0  0  0  0  0
    4.2366    1.0622   -2.0441 H   0  0  0  0  0  0  0  0  0  0  0  0
    2.8791    0.2341   -2.7853 H   0  0  0  0  0  0  0  0  0  0  0  0
    2.6589    1.5107   -1.5529 H   0  0  0  0  0  0  0  0  0  0  0  0
   -6.7917    1.7802    2.4946 H   0  0  0  0  0  0  0  0  0  0  0  0
   -5.5375    0.7403    3.1548 H   0  0  0  0  0  0  0  0  0  0  0  0
   -5.1058    2.1895    2.2409 H   0  0  0  0  0  0  0  0  0  0  0  0
   -6.9515   -1.2270    0.2811 H   0  0  0  0  0  0  0  0  0  0  0  0
   -6.5742   -1.2734    2.0104 H   0  0  0  0  0  0  0  0  0  0  0  0
   -7.8487   -0.2078    1.4007 H   0  0  0  0  0  0  0  0  0  0  0  0
   -2.2203   -3.3919    1.0210 H   0  0  0  0  0  0  0  0  0  0  0  0
    5.9387   -0.0995   -1.8838 H   0  0  0  0  0  0  0  0  0  0  0  0
    6.1789   -0.5716    1.1707 H   0  0  0  0  0  0  0  0  0  0  0  0
    6.7855   -2.3488   -0.4001 H   0  0  0  0  0  0  0  0  0  0  0  0
    7.7115    2.7648   -0.7481 H   0  0  0  0  0  0  0  0  0  0  0  0
    6.5816    1.8625   -1.7356 H   0  0  0  0  0  0  0  0  0  0  0  0
    5.9695    3.1114   -0.6541 H   0  0  0  0  0  0  0  0  0  0  0  0
    7.3919    3.4628    2.6572 H   0  0  0  0  0  0  0  0  0  0  0  0
  1 11  1  0  0  0  0
  1 64  1  0  0  0  0
  2 18  1  0  0  0  0
  2 74  1  0  0  0  0
  3 23  2  0  0  0  0
  4 28  2  0  0  0  0
  5 33  1  0  0  0  0
  5 77  1  0  0  0  0
  6 37  1  0  0  0  0
  6 81  1  0  0  0  0
  7 37  2  0  0  0  0
  8  9  1  0  0  0  0
  8 10  1  0  0  0  0
  8 16  1  0  0  0  0
  8 21  1  0  0  0  0
  9 11  1  0  0  0  0
  9 12  1  0  0  0  0
  9 22  1  0  0  0  0
 10 14  1  0  0  0  0
 10 19  1  0  0  0  0
 10 38  1  0  0  0  0
 11 14  1  0  0  0  0
 11 39  1  0  0  0  0
 12 15  2  0  0  0  0
 12 18  1  0  0  0  0
 13 15  1  0  0  0  0
 13 17  1  0  0  0  0
 13 25  1  0  0  0  0
 13 26  1  0  0  0  0
 14 40  1  0  0  0  0
 14 41  1  0  0  0  0
 15 23  1  0  0  0  0
 16 23  1  0  0  0  0
 16 42  1  0  0  0  0
 16 43  1  0  0  0  0
 17 20  1  0  0  0  0
 17 24  1  0  0  0  0
 17 44  1  0  0  0  0
 18 20  1  0  0  0  0
 18 45  1  0  0  0  0
 19 29  1  0  0  0  0
 19 30  1  0  0  0  0
 19 46  1  0  0  0  0
 20 47  1  0  0  0  0
 20 48  1  0  0  0  0
 21 49  1  0  0  0  0
 21 50  1  0  0  0  0
 21 51  1  0  0  0  0
 22 52  1  0  0  0  0
 22 53  1  0  0  0  0
 22 54  1  0  0  0  0
 24 28  1  0  0  0  0
 24 31  1  0  0  0  0
 24 32  1  0  0  0  0
 25 27  1  0  0  0  0
 25 55  1  0  0  0  0
 25 56  1  0  0  0  0
 26 57  1  0  0  0  0
 26 58  1  0  0  0  0
 26 59  1  0  0  0  0
 27 28  1  0  0  0  0
 27 60  1  0  0  0  0
 27 61  1  0  0  0  0
 29 33  1  0  0  0  0
 29 62  1  0  0  0  0
 29 63  1  0  0  0  0
 30 65  1  0  0  0  0
 30 66  1  0  0  0  0
 30 67  1  0  0  0  0
 31 68  1  0  0  0  0
 31 69  1  0  0  0  0
 31 70  1  0  0  0  0
 32 71  1  0  0  0  0
 32 72  1  0  0  0  0
 32 73  1  0  0  0  0
 33 34  1  0  0  0  0
 33 75  1  0  0  0  0
 34 35  2  0  0  0  0
 34 76  1  0  0  0  0
 35 36  1  0  0  0  0
 35 37  1  0  0  0  0
 36 78  1  0  0  0  0
 36 79  1  0  0  0  0
 36 80  1  0  0  0  0
M  END
> <PUBCHEM_COMPOUND_CID>
15427809

> <PUBCHEM_CONFORMER_RMSD>
1

> <PUBCHEM_CONFORMER_DIVERSEORDER>
1
3
6
5
4
2

> <PUBCHEM_MMFF94_PARTIAL_CHARGES>
28
1 -0.68
11 0.28
12 -0.28
13 0.14
15 -0.12
16 0.06
18 0.42
2 -0.68
23 0.49
24 0.06
27 0.06
28 0.45
3 -0.57
33 0.42
34 -0.29
35 -0.12
36 0.14
37 0.71
4 -0.57
5 -0.68
6 -0.65
64 0.4
7 -0.57
74 0.4
76 0.15
77 0.4
81 0.5
9 0.14

> <PUBCHEM_EFFECTIVE_ROTOR_COUNT>
6.8

> <PUBCHEM_PHARMACOPHORE_FEATURES>
18
1 1 acceptor
1 1 donor
1 2 acceptor
1 2 donor
1 3 acceptor
1 30 hydrophobe
1 36 hydrophobe
1 4 acceptor
1 5 acceptor
1 5 donor
1 6 acceptor
1 7 acceptor
3 24 31 32 hydrophobe
3 6 7 37 anion
5 8 9 10 11 14 rings
6 12 13 15 17 18 20 rings
6 13 17 24 25 27 28 rings
6 8 9 12 15 16 23 rings

> <PUBCHEM_HEAVY_ATOM_COUNT>
37

> <PUBCHEM_ATOM_DEF_STEREO_COUNT>
9

> <PUBCHEM_ATOM_UDEF_STEREO_COUNT>
0

> <PUBCHEM_BOND_DEF_STEREO_COUNT>
1

> <PUBCHEM_BOND_UDEF_STEREO_COUNT>
0

> <PUBCHEM_ISOTOPIC_ATOM_COUNT>
0

> <PUBCHEM_COMPONENT_COUNT>
1

> <PUBCHEM_CACTVS_TAUTO_COUNT>
4

> <PUBCHEM_CONFORMER_ID>
00EB68E100000001

> <PUBCHEM_MMFF94_ENERGY>
139.0453

> <PUBCHEM_FEATURE_SELFOVERLAP>
91.506

> <PUBCHEM_SHAPE_FINGERPRINT>
10 15 17749111114808842476
10074138 170 17749953396355557258
10319926 262 17603591854220140088
10554248 39 16988855951793767046
10930396 42 17968923301484955360
11007060 377 18201433705548264671
11456790 92 18340761551994602472
11578080 2 18130784620692809866
12035758 1 18113903766440613925
12236239 1 16486693567601751487
12373685 5 16588289567922720443
12422481 6 17749105595891794774
12539765 74 17131846330182704335
12664476 115 18410575068601840812
12838862 33 17749098973426803445
13383668 254 18059864944460539657
13782708 43 11097845307660007432
13811026 1 17822012030138865589
14849402 71 17775004630496211665
15082195 135 13183020757480494576
15131766 46 17273964921940696080
15352257 5 12035450541000179376
16994733 274 17489584549955823857
18393751 57 18413673504367773999
18603816 31 13407079253309474681
2026 5 8069487915095136312
20691028 202 18131073740410425928
21033648 29 18335139795215427690
21130935 74 18409454656677343523
21424621 283 18059862744181229856
21521721 280 18272653432865334562
22122407 14 17489038101762262466
22224240 67 18333734606908305415
23522609 53 16056334859397947291
23559900 14 18113344081321636237
249057 25 16056328232901959514
255183 313 18187920711716487958
2838139 119 17775290426451965024
3383291 50 17531540866438454931
350125 39 17968106295430323335
397830 11 18340209703856465914
4093350 32 17632301155747625414
4173938 188 18340485664971037331
4258327 124 16558468690051383260
4340502 62 18187369792003346854
4403749 210 18409447003905042503
474113 269 14996270436098198803
504579 68 15123516917508741156
5104073 3 17386577993203901516
513202 73 12685080480316684310
58902169 19 16487253266861249572
6608658 132 15123524622411117218

> <PUBCHEM_SHAPE_MULTIPOLES>
720.36
20.22
2.91
2.11
17.33
0.84
-0.31
-14.47
-7.06
1.83
-0.78
0.44
-0.75
2.84

> <PUBCHEM_SHAPE_SELFOVERLAP>
1530.373

> <PUBCHEM_SHAPE_VOLUME>
399.3

> <PUBCHEM_COORDINATE_TYPE>
2
5
10

$$$$
