71457627
  -OEChem-09112013313D

 79 82  0     1  0  0  0  0  0999 V2000
   -1.5193    0.6585   -2.7713 O   0  0  0  0  0  0  0  0  0  0  0  0
   -7.7453   -1.6073    0.4928 O   0  0  0  0  0  0  0  0  0  0  0  0
   -0.1784    3.0418   -2.0470 O   0  0  0  0  0  0  0  0  0  0  0  0
   -1.6518   -1.0496    2.7469 O   0  0  0  0  0  0  0  0  0  0  0  0
    6.0011    0.9241    1.3003 O   0  0  0  0  0  0  0  0  0  0  0  0
    8.7383   -1.3378   -1.4764 O   0  0  0  0  0  0  0  0  0  0  0  0
    7.3560   -3.1133   -1.7703 O   0  0  0  0  0  0  0  0  0  0  0  0
   -3.4271   -0.9502    0.3680 C   0  0  1  0  0  0  0  0  0  0  0  0
   -0.5719    1.7524    0.0081 C   0  0  2  0  0  0  0  0  0  0  0  0
   -4.3837   -0.1437   -0.6017 C   0  0  2  0  0  0  0  0  0  0  0  0
    0.5808    0.9262    0.6558 C   0  0  1  0  0  0  0  0  0  0  0  0
   -1.7042    0.8018   -0.3434 C   0  0  0  0  0  0  0  0  0  0  0  0
   -5.8525   -0.6842   -0.8017 C   0  0  0  0  0  0  0  0  0  0  0  0
   -2.1319   -0.1088    0.5749 C   0  0  0  0  0  0  0  0  0  0  0  0
   -3.6508    0.1537   -1.9133 C   0  0  0  0  0  0  0  0  0  0  0  0
    1.7277    1.9666    0.7798 C   0  0  2  0  0  0  0  0  0  0  0  0
   -2.3890    0.9874   -1.6834 C   0  0  2  0  0  0  0  0  0  0  0  0
   -4.2172   -1.1975    1.6835 C   0  0  0  0  0  0  0  0  0  0  0  0
    0.0742    0.3685    1.9787 C   0  0  0  0  0  0  0  0  0  0  0  0
   -6.4824   -0.9507    0.5932 C   0  0  2  0  0  0  0  0  0  0  0  0
    0.2586    2.5307   -1.0238 C   0  0  0  0  0  0  0  0  0  0  0  0
    1.7082    2.6723   -0.5889 C   0  0  0  0  0  0  0  0  0  0  0  0
   -5.5997   -1.8077    1.4854 C   0  0  0  0  0  0  0  0  0  0  0  0
   -1.2809   -0.3192    1.8277 C   0  0  0  0  0  0  0  0  0  0  0  0
   -2.9395   -2.3085   -0.1842 C   0  0  0  0  0  0  0  0  0  0  0  0
   -1.1913    2.8755    0.8887 C   0  0  0  0  0  0  0  0  0  0  0  0
    1.0501   -0.2732   -0.2371 C   0  0  0  0  0  0  0  0  0  0  0  0
   -5.9500   -1.9300   -1.7069 C   0  0  0  0  0  0  0  0  0  0  0  0
   -6.7107    0.4130   -1.4964 C   0  0  0  0  0  0  0  0  0  0  0  0
    3.0793    1.4360    1.1372 C   0  0  0  0  0  0  0  0  0  0  0  0
    3.3581    1.4046    2.6139 C   0  0  0  0  0  0  0  0  0  0  0  0
    3.9130    1.0210    0.1674 C   0  0  0  0  0  0  0  0  0  0  0  0
    5.2938    0.5036    0.3892 C   0  0  0  0  0  0  0  0  0  0  0  0
    5.7827   -0.5189   -0.6227 C   0  0  0  0  0  0  0  0  0  0  0  0
    6.8306   -1.4761   -0.0432 C   0  0  1  0  0  0  0  0  0  0  0  0
    6.1828   -2.5784    0.7962 C   0  0  0  0  0  0  0  0  0  0  0  0
    7.6424   -2.0825   -1.1758 C   0  0  0  0  0  0  0  0  0  0  0  0
   -4.5275    0.8353   -0.1117 H   0  0  0  0  0  0  0  0  0  0  0  0
   -3.4089   -0.7741   -2.4448 H   0  0  0  0  0  0  0  0  0  0  0  0
   -4.2847    0.7133   -2.6093 H   0  0  0  0  0  0  0  0  0  0  0  0
    1.4642    2.7198    1.5350 H   0  0  0  0  0  0  0  0  0  0  0  0
   -2.6593    2.0466   -1.7779 H   0  0  0  0  0  0  0  0  0  0  0  0
   -4.3221   -0.2534    2.2345 H   0  0  0  0  0  0  0  0  0  0  0  0
   -3.6826   -1.8927    2.3382 H   0  0  0  0  0  0  0  0  0  0  0  0
   -0.0354    1.1538    2.7350 H   0  0  0  0  0  0  0  0  0  0  0  0
    0.7786   -0.3732    2.3739 H   0  0  0  0  0  0  0  0  0  0  0  0
   -6.6608    0.0095    1.0952 H   0  0  0  0  0  0  0  0  0  0  0  0
    2.3047    2.2534   -1.3979 H   0  0  0  0  0  0  0  0  0  0  0  0
    1.9502    3.7341   -0.4763 H   0  0  0  0  0  0  0  0  0  0  0  0
   -5.5249   -2.8279    1.0920 H   0  0  0  0  0  0  0  0  0  0  0  0
   -6.0804   -1.9227    2.4659 H   0  0  0  0  0  0  0  0  0  0  0  0
   -2.4001   -2.2074   -1.1315 H   0  0  0  0  0  0  0  0  0  0  0  0
   -2.2449   -2.7873    0.5180 H   0  0  0  0  0  0  0  0  0  0  0  0
   -3.7469   -3.0230   -0.3368 H   0  0  0  0  0  0  0  0  0  0  0  0
   -0.4611    3.6314    1.1959 H   0  0  0  0  0  0  0  0  0  0  0  0
   -1.6694    2.4941    1.7967 H   0  0  0  0  0  0  0  0  0  0  0  0
   -1.9638    3.4159    0.3257 H   0  0  0  0  0  0  0  0  0  0  0  0
    1.3930    0.0459   -1.2260 H   0  0  0  0  0  0  0  0  0  0  0  0
    0.2544   -1.0045   -0.4108 H   0  0  0  0  0  0  0  0  0  0  0  0
    1.8590   -0.8348    0.2428 H   0  0  0  0  0  0  0  0  0  0  0  0
   -5.4335   -1.7834   -2.6603 H   0  0  0  0  0  0  0  0  0  0  0  0
   -5.5495   -2.8287   -1.2391 H   0  0  0  0  0  0  0  0  0  0  0  0
   -6.6307    1.3716   -0.9719 H   0  0  0  0  0  0  0  0  0  0  0  0
   -6.4147    0.5710   -2.5380 H   0  0  0  0  0  0  0  0  0  0  0  0
   -7.7715    0.1362   -1.5100 H   0  0  0  0  0  0  0  0  0  0  0  0
   -6.9952   -2.1555   -1.9519 H   0  0  0  0  0  0  0  0  0  0  0  0
   -1.9669    0.9190   -3.5945 H   0  0  0  0  0  0  0  0  0  0  0  0
   -8.1121   -1.6831    1.3902 H   0  0  0  0  0  0  0  0  0  0  0  0
    3.6147    2.4083    2.9679 H   0  0  0  0  0  0  0  0  0  0  0  0
    4.1719    0.7254    2.8795 H   0  0  0  0  0  0  0  0  0  0  0  0
    2.4859    1.0617    3.1770 H   0  0  0  0  0  0  0  0  0  0  0  0
    3.6314    0.9713   -0.8760 H   0  0  0  0  0  0  0  0  0  0  0  0
    4.9308   -1.0887   -1.0134 H   0  0  0  0  0  0  0  0  0  0  0  0
    6.2045    0.0492   -1.4614 H   0  0  0  0  0  0  0  0  0  0  0  0
    7.5349   -0.9424    0.6074 H   0  0  0  0  0  0  0  0  0  0  0  0
    5.4654   -3.1620    0.2087 H   0  0  0  0  0  0  0  0  0  0  0  0
    6.9409   -3.2735    1.1731 H   0  0  0  0  0  0  0  0  0  0  0  0
    5.6535   -2.1556    1.6563 H   0  0  0  0  0  0  0  0  0  0  0  0
    9.2556   -1.7297   -2.2120 H   0  0  0  0  0  0  0  0  0  0  0  0
  1 17  1  0  0  0  0
  1 67  1  0  0  0  0
  2 20  1  0  0  0  0
  2 68  1  0  0  0  0
  3 21  2  0  0  0  0
  4 24  2  0  0  0  0
  5 33  2  0  0  0  0
  6 37  1  0  0  0  0
  6 79  1  0  0  0  0
  7 37  2  0  0  0  0
  8 10  1  0  0  0  0
  8 14  1  0  0  0  0
  8 18  1  0  0  0  0
  8 25  1  0  0  0  0
  9 11  1  0  0  0  0
  9 12  1  0  0  0  0
  9 21  1  0  0  0  0
  9 26  1  0  0  0  0
 10 13  1  0  0  0  0
 10 15  1  0  0  0  0
 10 38  1  0  0  0  0
 11 16  1  0  0  0  0
 11 19  1  0  0  0  0
 11 27  1  0  0  0  0
 12 14  2  0  0  0  0
 12 17  1  0  0  0  0
 13 20  1  0  0  0  0
 13 28  1  0  0  0  0
 13 29  1  0  0  0  0
 14 24  1  0  0  0  0
 15 17  1  0  0  0  0
 15 39  1  0  0  0  0
 15 40  1  0  0  0  0
 16 22  1  0  0  0  0
 16 30  1  0  0  0  0
 16 41  1  0  0  0  0
 17 42  1  0  0  0  0
 18 23  1  0  0  0  0
 18 43  1  0  0  0  0
 18 44  1  0  0  0  0
 19 24  1  0  0  0  0
 19 45  1  0  0  0  0
 19 46  1  0  0  0  0
 20 23  1  0  0  0  0
 20 47  1  0  0  0  0
 21 22  1  0  0  0  0
 22 48  1  0  0  0  0
 22 49  1  0  0  0  0
 23 50  1  0  0  0  0
 23 51  1  0  0  0  0
 25 52  1  0  0  0  0
 25 53  1  0  0  0  0
 25 54  1  0  0  0  0
 26 55  1  0  0  0  0
 26 56  1  0  0  0  0
 26 57  1  0  0  0  0
 27 58  1  0  0  0  0
 27 59  1  0  0  0  0
 27 60  1  0  0  0  0
 28 61  1  0  0  0  0
 28 62  1  0  0  0  0
 28 66  1  0  0  0  0
 29 63  1  0  0  0  0
 29 64  1  0  0  0  0
 29 65  1  0  0  0  0
 30 31  1  0  0  0  0
 30 32  2  0  0  0  0
 31 69  1  0  0  0  0
 31 70  1  0  0  0  0
 31 71  1  0  0  0  0
 32 33  1  0  0  0  0
 32 72  1  0  0  0  0
 33 34  1  0  0  0  0
 34 35  1  0  0  0  0
 34 73  1  0  0  0  0
 34 74  1  0  0  0  0
 35 36  1  0  0  0  0
 35 37  1  0  0  0  0
 35 75  1  0  0  0  0
 36 76  1  0  0  0  0
 36 77  1  0  0  0  0
 36 78  1  0  0  0  0
M  END
> <PUBCHEM_COMPOUND_CID>
71457627

> <PUBCHEM_CONFORMER_RMSD>
1

> <PUBCHEM_CONFORMER_DIVERSEORDER>
1
16
24
32
14
23
29
33
30
11
20
31
9
28
26
7
27
19
5
17
8
25
10
21
3
22
4
6
12
13
15
18
2

> <PUBCHEM_MMFF94_PARTIAL_CHARGES>
29
1 -0.68
12 -0.28
14 -0.12
16 0.14
17 0.42
19 0.06
2 -0.68
20 0.28
21 0.45
22 0.06
24 0.49
3 -0.57
30 -0.28
31 0.14
32 -0.14
33 0.49
34 0.06
35 0.06
37 0.66
4 -0.57
5 -0.57
6 -0.65
67 0.4
68 0.4
7 -0.57
72 0.15
79 0.5
8 0.14
9 0.2

> <PUBCHEM_EFFECTIVE_ROTOR_COUNT>
6.8

> <PUBCHEM_PHARMACOPHORE_FEATURES>
17
1 1 acceptor
1 1 donor
1 2 acceptor
1 2 donor
1 3 acceptor
1 31 hydrophobe
1 36 hydrophobe
1 4 acceptor
1 5 acceptor
1 6 acceptor
1 7 acceptor
3 13 28 29 hydrophobe
3 6 7 37 anion
5 9 11 16 21 22 rings
6 8 10 12 14 15 17 rings
6 8 10 13 18 20 23 rings
6 9 11 12 14 19 24 rings

> <PUBCHEM_HEAVY_ATOM_COUNT>
37

> <PUBCHEM_ATOM_DEF_STEREO_COUNT>
7

> <PUBCHEM_ATOM_UDEF_STEREO_COUNT>
1

> <PUBCHEM_BOND_DEF_STEREO_COUNT>
1

> <PUBCHEM_BOND_UDEF_STEREO_COUNT>
0

> <PUBCHEM_ISOTOPIC_ATOM_COUNT>
0

> <PUBCHEM_COMPONENT_COUNT>
1

> <PUBCHEM_CACTVS_TAUTO_COUNT>
38

> <PUBCHEM_CONFORMER_ID>
04425B5B00000001

> <PUBCHEM_MMFF94_ENERGY>
134.0764

> <PUBCHEM_FEATURE_SELFOVERLAP>
86.427

> <PUBCHEM_SHAPE_FINGERPRINT>
10076449 9 18113626685173151626
10319688 67 12751231506564127812
10673678 19 12901547919299678864
10838868 229 15193906449090644708
11273773 42 13695591040044626318
117089 54 17699580152362582910
12133447 93 17677038072095350309
12236239 1 16916504886708649441
12760667 363 18272089387684482592
131258 43 18338811082713140724
13533116 47 17988921215213541888
13673619 4 18343021078190890344
13782708 43 18271803493777215882
13811026 1 18341043056740567464
15082195 135 14996283630934167788
15131766 46 16627124498092741232
15183329 4 16298385751926212114
15198563 99 17822568317923584036
15475509 8 18113896048622065033
15510800 12 18272661112836916958
15685185 35 12902131807198075782
16994733 274 12324231776445157823
18603816 31 17632568383754170639
19246450 95 16343152302851557707
19315958 150 18129378362358075768
19958102 18 17458337520911956282
20105231 36 17676210191305597475
21130935 74 17844803875100750139
21267235 1 17168420580497457851
21307412 95 18260838106783706914
21682296 61 18411418427578041447
21814621 53 18060126670333279601
23559900 14 17604986099468414209
23569917 315 18269279135688437543
23569943 247 18131348570767430383
2838139 119 11819262331421461604
32027 91 18201714106556174626
3383291 50 18412259532794736514
34797466 226 17822007662110120308
350125 39 16878488117011614897
4093350 32 18267296719858687064
4340502 62 12247412210316429313
437815 12 18334294292296444905
44880168 125 18341321275515350799
474113 269 17203603762010079813
5104073 3 15625652946420438450
513202 73 18060419088433290881
5265222 85 16660934394788814642
54039377 194 17845943940611361526
563151 40 17825104814224352345
57816373 69 17846784018501664358
59755656 215 18040144124086926787
6608658 132 15140958410035062030
9896288 288 15983717528569565122

> <PUBCHEM_SHAPE_MULTIPOLES>
720.36
20.28
3.02
2.28
21.48
0.21
0.14
-20.16
-5.59
3.2
-0.66
-0.68
0.07
2.86

> <PUBCHEM_SHAPE_SELFOVERLAP>
1533.823

> <PUBCHEM_SHAPE_VOLUME>
395.1

> <PUBCHEM_COORDINATE_TYPE>
2
5
10

$$$$
