11443981
  -OEChem-09122005173D

 78 81  0     1  0  0  0  0  0999 V2000
   -1.4815   -2.3783    0.2584 O   0  0  0  0  0  0  0  0  0  0  0  0
   -3.5463   -0.1858    2.3028 O   0  0  0  0  0  0  0  0  0  0  0  0
   -0.9398    3.4837    0.5978 O   0  0  0  0  0  0  0  0  0  0  0  0
    7.3440   -0.5687   -0.8934 O   0  0  0  0  0  0  0  0  0  0  0  0
    1.1415   -2.5715   -0.0049 O   0  0  0  0  0  0  0  0  0  0  0  0
    1.4737    3.3628   -0.2251 O   0  0  0  0  0  0  0  0  0  0  0  0
   -0.8017   -3.7851   -1.4434 O   0  0  0  0  0  0  0  0  0  0  0  0
   -7.4878    0.8379   -2.3083 O   0  0  0  0  0  0  0  0  0  0  0  0
   -7.7818    1.2791   -0.0986 O   0  0  0  0  0  0  0  0  0  0  0  0
   -1.2750    0.0388    0.3849 C   0  0  1  0  0  0  0  0  0  0  0  0
   -0.4755    1.2185   -0.2785 C   0  0  2  0  0  0  0  0  0  0  0  0
    3.1298   -0.4353    0.2310 C   0  0  1  0  0  0  0  0  0  0  0  0
   -2.7581    0.4381    0.1359 C   0  0  2  0  0  0  0  0  0  0  0  0
    3.8998    0.8775   -0.1715 C   0  0  2  0  0  0  0  0  0  0  0  0
    1.0090    1.0255   -0.0297 C   0  0  0  0  0  0  0  0  0  0  0  0
    1.5991   -0.2013    0.0138 C   0  0  0  0  0  0  0  0  0  0  0  0
   -0.8169   -1.2516   -0.2904 C   0  0  1  0  0  0  0  0  0  0  0  0
    5.4710    0.8349   -0.1666 C   0  0  0  0  0  0  0  0  0  0  0  0
   -2.7790    1.9406    0.4761 C   0  0  0  0  0  0  0  0  0  0  0  0
   -1.3250    2.3583    0.3130 C   0  0  0  0  0  0  0  0  0  0  0  0
    3.7169   -1.5747   -0.6518 C   0  0  0  0  0  0  0  0  0  0  0  0
    3.2964    2.0735    0.5598 C   0  0  0  0  0  0  0  0  0  0  0  0
   -3.8340   -0.3204    0.9076 C   0  0  2  0  0  0  0  0  0  0  0  0
    0.6897   -1.4298   -0.0947 C   0  0  0  0  0  0  0  0  0  0  0  0
   -1.0305   -0.0708    1.9336 C   0  0  0  0  0  0  0  0  0  0  0  0
    5.9324   -0.3906   -1.0013 C   0  0  2  0  0  0  0  0  0  0  0  0
    1.8802    2.2430    0.0787 C   0  0  0  0  0  0  0  0  0  0  0  0
   -0.6312    1.3716   -1.8172 C   0  0  0  0  0  0  0  0  0  0  0  0
    5.2399   -1.6857   -0.6015 C   0  0  0  0  0  0  0  0  0  0  0  0
    3.2696   -0.8240    1.7220 C   0  0  0  0  0  0  0  0  0  0  0  0
    6.0973    0.8323    1.2429 C   0  0  0  0  0  0  0  0  0  0  0  0
    6.0307    2.1013   -0.8767 C   0  0  0  0  0  0  0  0  0  0  0  0
   -5.2179    0.3119    0.6267 C   0  0  0  0  0  0  0  0  0  0  0  0
   -3.7890   -1.8098    0.5494 C   0  0  0  0  0  0  0  0  0  0  0  0
   -5.7108    0.2692   -0.8219 C   0  0  0  0  0  0  0  0  0  0  0  0
   -1.1555   -3.5902   -0.2884 C   0  0  0  0  0  0  0  0  0  0  0  0
   -7.0909    0.8457   -1.0116 C   0  0  0  0  0  0  0  0  0  0  0  0
   -1.2928   -4.6707    0.7411 C   0  0  0  0  0  0  0  0  0  0  0  0
   -2.9624    0.3157   -0.9346 H   0  0  0  0  0  0  0  0  0  0  0  0
    3.6487    1.0274   -1.2375 H   0  0  0  0  0  0  0  0  0  0  0  0
   -1.0250   -1.2274   -1.3659 H   0  0  0  0  0  0  0  0  0  0  0  0
   -3.4005    2.5018   -0.2275 H   0  0  0  0  0  0  0  0  0  0  0  0
   -3.0804    2.1587    1.5046 H   0  0  0  0  0  0  0  0  0  0  0  0
    3.3413   -2.5546   -0.3454 H   0  0  0  0  0  0  0  0  0  0  0  0
    3.4041   -1.4296   -1.6945 H   0  0  0  0  0  0  0  0  0  0  0  0
    3.3011    1.9790    1.6485 H   0  0  0  0  0  0  0  0  0  0  0  0
    3.8248    2.9989    0.3139 H   0  0  0  0  0  0  0  0  0  0  0  0
    0.0368   -0.1087    2.1754 H   0  0  0  0  0  0  0  0  0  0  0  0
   -1.4041    0.7916    2.4944 H   0  0  0  0  0  0  0  0  0  0  0  0
   -1.4330   -0.9947    2.3603 H   0  0  0  0  0  0  0  0  0  0  0  0
    5.7176   -0.2013   -2.0616 H   0  0  0  0  0  0  0  0  0  0  0  0
   -1.6711    1.4720   -2.1422 H   0  0  0  0  0  0  0  0  0  0  0  0
   -0.1893    0.5366   -2.3713 H   0  0  0  0  0  0  0  0  0  0  0  0
   -0.1267    2.2828   -2.1638 H   0  0  0  0  0  0  0  0  0  0  0  0
    5.5613   -2.4878   -1.2788 H   0  0  0  0  0  0  0  0  0  0  0  0
    5.5758   -2.0103    0.3900 H   0  0  0  0  0  0  0  0  0  0  0  0
    2.6522   -1.6979    1.9634 H   0  0  0  0  0  0  0  0  0  0  0  0
    4.2841   -1.1033    1.9999 H   0  0  0  0  0  0  0  0  0  0  0  0
    2.9478   -0.0233    2.3950 H   0  0  0  0  0  0  0  0  0  0  0  0
    5.6387    1.5841    1.8924 H   0  0  0  0  0  0  0  0  0  0  0  0
    6.0274   -0.1358    1.7384 H   0  0  0  0  0  0  0  0  0  0  0  0
    7.1681    1.0665    1.1979 H   0  0  0  0  0  0  0  0  0  0  0  0
    5.8713    3.0082   -0.2851 H   0  0  0  0  0  0  0  0  0  0  0  0
    7.1115    2.0227   -1.0422 H   0  0  0  0  0  0  0  0  0  0  0  0
    5.5607    2.2487   -1.8555 H   0  0  0  0  0  0  0  0  0  0  0  0
   -5.9573   -0.2037    1.2574 H   0  0  0  0  0  0  0  0  0  0  0  0
   -5.2534    1.3442    0.9985 H   0  0  0  0  0  0  0  0  0  0  0  0
   -3.2763   -2.4069    1.3066 H   0  0  0  0  0  0  0  0  0  0  0  0
   -3.5452   -2.0055   -0.4981 H   0  0  0  0  0  0  0  0  0  0  0  0
   -4.8117   -2.2075    0.6421 H   0  0  0  0  0  0  0  0  0  0  0  0
   -4.2309   -0.6697    2.7956 H   0  0  0  0  0  0  0  0  0  0  0  0
    7.5906   -1.3187   -1.4610 H   0  0  0  0  0  0  0  0  0  0  0  0
   -5.0380    0.8463   -1.4639 H   0  0  0  0  0  0  0  0  0  0  0  0
   -5.7370   -0.7657   -1.1786 H   0  0  0  0  0  0  0  0  0  0  0  0
   -2.3485   -4.8274    0.9741 H   0  0  0  0  0  0  0  0  0  0  0  0
   -0.7363   -4.4000    1.6422 H   0  0  0  0  0  0  0  0  0  0  0  0
   -0.8732   -5.6008    0.3475 H   0  0  0  0  0  0  0  0  0  0  0  0
   -8.3858    1.2170   -2.4188 H   0  0  0  0  0  0  0  0  0  0  0  0
  1 17  1  0  0  0  0
  1 36  1  0  0  0  0
  2 23  1  0  0  0  0
  2 71  1  0  0  0  0
  3 20  2  0  0  0  0
  4 26  1  0  0  0  0
  4 72  1  0  0  0  0
  5 24  2  0  0  0  0
  6 27  2  0  0  0  0
  7 36  2  0  0  0  0
  8 37  1  0  0  0  0
  8 78  1  0  0  0  0
  9 37  2  0  0  0  0
 10 11  1  0  0  0  0
 10 13  1  0  0  0  0
 10 17  1  0  0  0  0
 10 25  1  0  0  0  0
 11 15  1  0  0  0  0
 11 20  1  0  0  0  0
 11 28  1  0  0  0  0
 12 14  1  0  0  0  0
 12 16  1  0  0  0  0
 12 21  1  0  0  0  0
 12 30  1  0  0  0  0
 13 19  1  0  0  0  0
 13 23  1  0  0  0  0
 13 39  1  0  0  0  0
 14 18  1  0  0  0  0
 14 22  1  0  0  0  0
 14 40  1  0  0  0  0
 15 16  2  0  0  0  0
 15 27  1  0  0  0  0
 16 24  1  0  0  0  0
 17 24  1  0  0  0  0
 17 41  1  0  0  0  0
 18 26  1  0  0  0  0
 18 31  1  0  0  0  0
 18 32  1  0  0  0  0
 19 20  1  0  0  0  0
 19 42  1  0  0  0  0
 19 43  1  0  0  0  0
 21 29  1  0  0  0  0
 21 44  1  0  0  0  0
 21 45  1  0  0  0  0
 22 27  1  0  0  0  0
 22 46  1  0  0  0  0
 22 47  1  0  0  0  0
 23 33  1  0  0  0  0
 23 34  1  0  0  0  0
 25 48  1  0  0  0  0
 25 49  1  0  0  0  0
 25 50  1  0  0  0  0
 26 29  1  0  0  0  0
 26 51  1  0  0  0  0
 28 52  1  0  0  0  0
 28 53  1  0  0  0  0
 28 54  1  0  0  0  0
 29 55  1  0  0  0  0
 29 56  1  0  0  0  0
 30 57  1  0  0  0  0
 30 58  1  0  0  0  0
 30 59  1  0  0  0  0
 31 60  1  0  0  0  0
 31 61  1  0  0  0  0
 31 62  1  0  0  0  0
 32 63  1  0  0  0  0
 32 64  1  0  0  0  0
 32 65  1  0  0  0  0
 33 35  1  0  0  0  0
 33 66  1  0  0  0  0
 33 67  1  0  0  0  0
 34 68  1  0  0  0  0
 34 69  1  0  0  0  0
 34 70  1  0  0  0  0
 35 37  1  0  0  0  0
 35 73  1  0  0  0  0
 35 74  1  0  0  0  0
 36 38  1  0  0  0  0
 38 75  1  0  0  0  0
 38 76  1  0  0  0  0
 38 77  1  0  0  0  0
M  END
> <PUBCHEM_COMPOUND_CID>
11443981

> <PUBCHEM_CONFORMER_RMSD>
1

> <PUBCHEM_CONFORMER_DIVERSEORDER>
3
2
1
4

> <PUBCHEM_MMFF94_PARTIAL_CHARGES>
28
1 -0.43
11 0.2
12 0.14
15 -0.12
16 -0.12
17 0.34
19 0.06
2 -0.68
20 0.45
22 0.06
23 0.28
24 0.49
26 0.28
27 0.49
3 -0.57
35 0.06
36 0.66
37 0.66
38 0.06
4 -0.68
5 -0.57
6 -0.57
7 -0.57
71 0.4
72 0.4
78 0.5
8 -0.65
9 -0.57

> <PUBCHEM_EFFECTIVE_ROTOR_COUNT>
7.6

> <PUBCHEM_PHARMACOPHORE_FEATURES>
16
1 2 acceptor
1 2 donor
1 3 acceptor
1 4 acceptor
1 4 donor
1 5 acceptor
1 6 acceptor
1 7 acceptor
1 8 acceptor
1 9 acceptor
3 18 31 32 hydrophobe
3 8 9 37 anion
5 10 11 13 19 20 rings
6 10 11 15 16 17 24 rings
6 12 14 15 16 22 27 rings
6 12 14 18 21 26 29 rings

> <PUBCHEM_HEAVY_ATOM_COUNT>
38

> <PUBCHEM_ATOM_DEF_STEREO_COUNT>
7

> <PUBCHEM_ATOM_UDEF_STEREO_COUNT>
1

> <PUBCHEM_BOND_DEF_STEREO_COUNT>
0

> <PUBCHEM_BOND_UDEF_STEREO_COUNT>
0

> <PUBCHEM_ISOTOPIC_ATOM_COUNT>
0

> <PUBCHEM_COMPONENT_COUNT>
1

> <PUBCHEM_CACTVS_TAUTO_COUNT>
8

> <PUBCHEM_CONFORMER_ID>
00AE9F0D00000003

> <PUBCHEM_MMFF94_ENERGY>
165.7837

> <PUBCHEM_FEATURE_SELFOVERLAP>
81.37

> <PUBCHEM_SHAPE_FINGERPRINT>
10006869 2 18263916657510273514
1100329 8 18266462186047716456
11135926 11 18412543185809599551
12011746 2 18408888425262717620
12107698 1 15841552967961727305
12236239 1 17275107219088195048
12422481 6 17979104843925653747
12788726 201 18341892952747268320
12838862 33 18338501015637525520
13140716 1 18195247947666870890
13402501 40 18411706478434434390
1361 2 18411135801571253011
13782708 43 16917083130876997724
13811026 1 18411698807032454795
13911987 19 18409445878285539989
14068700 675 17846776278380292601
14117953 113 18410576171611993973
14790565 3 18339655438337908296
14840074 17 18334304174962990735
15131766 46 16445055234642149132
15183329 4 18410004421914128437
15439362 3 18126837429736858937
15849732 13 18187368744204997391
16728300 4 17317858297319413218
18681886 176 18412820305103961705
19319366 153 17894348865670965986
19591789 44 18267029362581279194
20028762 73 18130501942745364095
20511986 3 17967807297155953688
21033648 29 18271800194989833872
21859007 373 18114728378829586789
22121540 332 17532630383386949125
23559900 14 18340767160146237425
23569917 315 18272378602720879495
23569943 247 14690358711019479436
23576562 1 18115873082266177973
283562 15 18270122284242350441
3178227 256 18337121115875510361
335352 9 18411140242245612476
350125 39 18410015446335638856
3633792 109 18271806792180620337
4017518 198 17989212547045894902
484989 97 18337953523804249771
563151 97 18267587910530903873
59755656 215 18409448055237996357
6004065 56 18272082834076318989
6009941 240 17313388945586583003
70251023 43 17334491004554800526

> <PUBCHEM_SHAPE_MULTIPOLES>
729.2
15.64
3.88
1.41
5.44
3.17
0.08
-5.24
-4.91
0.67
-0.16
0.89
0.01
0.83

> <PUBCHEM_SHAPE_SELFOVERLAP>
1569.887

> <PUBCHEM_SHAPE_VOLUME>
394.9

> <PUBCHEM_COORDINATE_TYPE>
2
5
10

$$$$
