71665526
  -OEChem-09122003373D

 77 80  0     1  0  0  0  0  0999 V2000
   -1.1839   -1.9745    2.0366 O   0  0  0  0  0  0  0  0  0  0  0  0
    1.1033   -2.5972    0.6887 O   0  0  0  0  0  0  0  0  0  0  0  0
   -1.8481    2.9594   -0.8501 O   0  0  0  0  0  0  0  0  0  0  0  0
   -7.1096   -0.4344   -1.8585 O   0  0  0  0  0  0  0  0  0  0  0  0
    7.0251   -0.8554   -1.0175 O   0  0  0  0  0  0  0  0  0  0  0  0
    7.5726    0.4349    0.8148 O   0  0  0  0  0  0  0  0  0  0  0  0
    0.8922    0.9062    0.3922 C   0  0  1  0  0  0  0  0  0  0  0  0
    0.2719   -0.4286   -0.1227 C   0  0  2  0  0  0  0  0  0  0  0  0
    2.4127    0.6875    0.1776 C   0  0  2  0  0  0  0  0  0  0  0  0
   -3.5159    0.6818    0.0624 C   0  0  1  0  0  0  0  0  0  0  0  0
   -1.2090   -0.4216    0.2104 C   0  0  0  0  0  0  0  0  0  0  0  0
   -4.0260   -0.8132   -0.0266 C   0  0  1  0  0  0  0  0  0  0  0  0
   -1.9634    0.6771   -0.0705 C   0  0  0  0  0  0  0  0  0  0  0  0
    0.2889    2.0452   -0.4186 C   0  0  0  0  0  0  0  0  0  0  0  0
    2.6428   -0.7416    0.7004 C   0  0  0  0  0  0  0  0  0  0  0  0
   -1.8021   -1.6898    0.7805 C   0  0  2  0  0  0  0  0  0  0  0  0
    1.2937   -1.4059    0.4797 C   0  0  0  0  0  0  0  0  0  0  0  0
   -3.3104   -1.6619    1.0277 C   0  0  0  0  0  0  0  0  0  0  0  0
   -5.5735   -1.0619   -0.0837 C   0  0  0  0  0  0  0  0  0  0  0  0
    3.3472    1.6987    0.8308 C   0  0  1  0  0  0  0  0  0  0  0  0
   -4.2287    1.4450   -1.0892 C   0  0  0  0  0  0  0  0  0  0  0  0
   -1.2354    1.9589   -0.4771 C   0  0  0  0  0  0  0  0  0  0  0  0
    0.6036    1.1750    1.9063 C   0  0  0  0  0  0  0  0  0  0  0  0
    0.3835   -0.6961   -1.6515 C   0  0  0  0  0  0  0  0  0  0  0  0
   -3.8055    1.3880    1.4050 C   0  0  0  0  0  0  0  0  0  0  0  0
   -5.7466    1.3366   -1.0639 C   0  0  0  0  0  0  0  0  0  0  0  0
   -6.1999   -0.0974   -1.0981 C   0  0  0  0  0  0  0  0  0  0  0  0
    4.7768    1.1521    1.0133 C   0  0  0  0  0  0  0  0  0  0  0  0
   -5.8430   -2.5043   -0.5886 C   0  0  0  0  0  0  0  0  0  0  0  0
   -6.3151   -0.9071    1.2516 C   0  0  0  0  0  0  0  0  0  0  0  0
    3.3900    2.9839   -0.0025 C   0  0  0  0  0  0  0  0  0  0  0  0
    5.4236    0.6955   -0.2956 C   0  0  0  0  0  0  0  0  0  0  0  0
    6.7958    0.1011   -0.0693 C   0  0  0  0  0  0  0  0  0  0  0  0
    8.2976   -1.5061   -0.9416 C   0  0  0  0  0  0  0  0  0  0  0  0
    8.3950   -2.5301   -2.0522 C   0  0  0  0  0  0  0  0  0  0  0  0
    2.6162    0.6819   -0.9015 H   0  0  0  0  0  0  0  0  0  0  0  0
   -3.6620   -1.1759   -1.0042 H   0  0  0  0  0  0  0  0  0  0  0  0
    0.6661    2.0634   -1.4468 H   0  0  0  0  0  0  0  0  0  0  0  0
    0.5174    3.0116    0.0405 H   0  0  0  0  0  0  0  0  0  0  0  0
    2.8592   -0.7799    1.7719 H   0  0  0  0  0  0  0  0  0  0  0  0
    3.3977   -1.2909    0.1354 H   0  0  0  0  0  0  0  0  0  0  0  0
   -1.5737   -2.5142    0.0936 H   0  0  0  0  0  0  0  0  0  0  0  0
   -3.6597   -2.6997    1.0210 H   0  0  0  0  0  0  0  0  0  0  0  0
   -3.5303   -1.3032    2.0401 H   0  0  0  0  0  0  0  0  0  0  0  0
    3.0174    1.9632    1.8395 H   0  0  0  0  0  0  0  0  0  0  0  0
   -3.8573    1.0761   -2.0548 H   0  0  0  0  0  0  0  0  0  0  0  0
   -4.0133    2.5160   -1.0531 H   0  0  0  0  0  0  0  0  0  0  0  0
    1.0663    0.4305    2.5612 H   0  0  0  0  0  0  0  0  0  0  0  0
   -0.4642    1.1755    2.1443 H   0  0  0  0  0  0  0  0  0  0  0  0
    0.9663    2.1624    2.2116 H   0  0  0  0  0  0  0  0  0  0  0  0
    1.4191   -0.7332   -2.0053 H   0  0  0  0  0  0  0  0  0  0  0  0
   -0.1429    0.0483   -2.2574 H   0  0  0  0  0  0  0  0  0  0  0  0
   -0.0535   -1.6730   -1.8978 H   0  0  0  0  0  0  0  0  0  0  0  0
   -4.8685    1.4971    1.6129 H   0  0  0  0  0  0  0  0  0  0  0  0
   -3.3965    2.4063    1.4073 H   0  0  0  0  0  0  0  0  0  0  0  0
   -3.3519    0.8692    2.2557 H   0  0  0  0  0  0  0  0  0  0  0  0
   -6.1537    1.8482   -1.9442 H   0  0  0  0  0  0  0  0  0  0  0  0
   -6.1781    1.8218   -0.1837 H   0  0  0  0  0  0  0  0  0  0  0  0
    5.4020    1.9340    1.4659 H   0  0  0  0  0  0  0  0  0  0  0  0
    4.7903    0.3313    1.7401 H   0  0  0  0  0  0  0  0  0  0  0  0
   -5.5002   -3.2623    0.1216 H   0  0  0  0  0  0  0  0  0  0  0  0
   -6.9143   -2.6830   -0.7419 H   0  0  0  0  0  0  0  0  0  0  0  0
   -5.3483   -2.6872   -1.5495 H   0  0  0  0  0  0  0  0  0  0  0  0
   -7.3647   -1.2098    1.1460 H   0  0  0  0  0  0  0  0  0  0  0  0
   -5.8784   -1.5315    2.0370 H   0  0  0  0  0  0  0  0  0  0  0  0
   -6.3452    0.1226    1.6076 H   0  0  0  0  0  0  0  0  0  0  0  0
    3.4949    2.7858   -1.0742 H   0  0  0  0  0  0  0  0  0  0  0  0
    2.4954    3.5898    0.1474 H   0  0  0  0  0  0  0  0  0  0  0  0
    4.2325    3.6163    0.3007 H   0  0  0  0  0  0  0  0  0  0  0  0
   -1.5139   -2.8387    2.3365 H   0  0  0  0  0  0  0  0  0  0  0  0
    5.5572    1.5426   -0.9773 H   0  0  0  0  0  0  0  0  0  0  0  0
    4.8134   -0.0466   -0.8136 H   0  0  0  0  0  0  0  0  0  0  0  0
    8.3960   -2.0032    0.0299 H   0  0  0  0  0  0  0  0  0  0  0  0
    9.0949   -0.7627   -1.0525 H   0  0  0  0  0  0  0  0  0  0  0  0
    7.5927   -3.2702   -1.9653 H   0  0  0  0  0  0  0  0  0  0  0  0
    8.2802   -2.0503   -3.0298 H   0  0  0  0  0  0  0  0  0  0  0  0
    9.3578   -3.0478   -2.0237 H   0  0  0  0  0  0  0  0  0  0  0  0
  1 16  1  0  0  0  0
  1 70  1  0  0  0  0
  2 17  2  0  0  0  0
  3 22  2  0  0  0  0
  4 27  2  0  0  0  0
  5 33  1  0  0  0  0
  5 34  1  0  0  0  0
  6 33  2  0  0  0  0
  7  8  1  0  0  0  0
  7  9  1  0  0  0  0
  7 14  1  0  0  0  0
  7 23  1  0  0  0  0
  8 11  1  0  0  0  0
  8 17  1  0  0  0  0
  8 24  1  0  0  0  0
  9 15  1  0  0  0  0
  9 20  1  0  0  0  0
  9 36  1  0  0  0  0
 10 12  1  0  0  0  0
 10 13  1  0  0  0  0
 10 21  1  0  0  0  0
 10 25  1  0  0  0  0
 11 13  2  0  0  0  0
 11 16  1  0  0  0  0
 12 18  1  0  0  0  0
 12 19  1  0  0  0  0
 12 37  1  0  0  0  0
 13 22  1  0  0  0  0
 14 22  1  0  0  0  0
 14 38  1  0  0  0  0
 14 39  1  0  0  0  0
 15 17  1  0  0  0  0
 15 40  1  0  0  0  0
 15 41  1  0  0  0  0
 16 18  1  0  0  0  0
 16 42  1  0  0  0  0
 18 43  1  0  0  0  0
 18 44  1  0  0  0  0
 19 27  1  0  0  0  0
 19 29  1  0  0  0  0
 19 30  1  0  0  0  0
 20 28  1  0  0  0  0
 20 31  1  0  0  0  0
 20 45  1  0  0  0  0
 21 26  1  0  0  0  0
 21 46  1  0  0  0  0
 21 47  1  0  0  0  0
 23 48  1  0  0  0  0
 23 49  1  0  0  0  0
 23 50  1  0  0  0  0
 24 51  1  0  0  0  0
 24 52  1  0  0  0  0
 24 53  1  0  0  0  0
 25 54  1  0  0  0  0
 25 55  1  0  0  0  0
 25 56  1  0  0  0  0
 26 27  1  0  0  0  0
 26 57  1  0  0  0  0
 26 58  1  0  0  0  0
 28 32  1  0  0  0  0
 28 59  1  0  0  0  0
 28 60  1  0  0  0  0
 29 61  1  0  0  0  0
 29 62  1  0  0  0  0
 29 63  1  0  0  0  0
 30 64  1  0  0  0  0
 30 65  1  0  0  0  0
 30 66  1  0  0  0  0
 31 67  1  0  0  0  0
 31 68  1  0  0  0  0
 31 69  1  0  0  0  0
 32 33  1  0  0  0  0
 32 71  1  0  0  0  0
 32 72  1  0  0  0  0
 34 35  1  0  0  0  0
 34 73  1  0  0  0  0
 34 74  1  0  0  0  0
 35 75  1  0  0  0  0
 35 76  1  0  0  0  0
 35 77  1  0  0  0  0
M  END
> <PUBCHEM_COMPOUND_CID>
71665526

> <PUBCHEM_CONFORMER_RMSD>
1

> <PUBCHEM_CONFORMER_DIVERSEORDER>
2
6
11
5
17
10
8
15
16
7
1
18
9
4
13
14
12
3

> <PUBCHEM_MMFF94_PARTIAL_CHARGES>
22
1 -0.68
10 0.14
11 -0.28
13 -0.12
14 0.06
15 0.06
16 0.42
17 0.45
19 0.06
2 -0.57
22 0.49
26 0.06
27 0.45
3 -0.57
32 0.06
33 0.66
34 0.28
4 -0.57
5 -0.43
6 -0.57
70 0.4
8 0.2

> <PUBCHEM_EFFECTIVE_ROTOR_COUNT>
7.6

> <PUBCHEM_PHARMACOPHORE_FEATURES>
12
1 1 acceptor
1 1 donor
1 2 acceptor
1 3 acceptor
1 31 hydrophobe
1 4 acceptor
1 6 acceptor
3 19 29 30 hydrophobe
5 7 8 9 15 17 rings
6 10 11 12 13 16 18 rings
6 10 12 19 21 26 27 rings
6 7 8 11 13 14 22 rings

> <PUBCHEM_HEAVY_ATOM_COUNT>
35

> <PUBCHEM_ATOM_DEF_STEREO_COUNT>
7

> <PUBCHEM_ATOM_UDEF_STEREO_COUNT>
0

> <PUBCHEM_BOND_DEF_STEREO_COUNT>
0

> <PUBCHEM_BOND_UDEF_STEREO_COUNT>
0

> <PUBCHEM_ISOTOPIC_ATOM_COUNT>
0

> <PUBCHEM_COMPONENT_COUNT>
1

> <PUBCHEM_CACTVS_TAUTO_COUNT>
8

> <PUBCHEM_CONFORMER_ID>
0445877600000002

> <PUBCHEM_MMFF94_ENERGY>
121.2764

> <PUBCHEM_FEATURE_SELFOVERLAP>
60.995

> <PUBCHEM_SHAPE_FINGERPRINT>
10906281 52 18188220896034813785
11007060 377 18260269637580577992
11135926 11 18408601444781719767
11578080 2 17024853867406951349
11963148 33 18261661670826086955
12011746 2 18334852844308499481
12166972 35 18334857276673284869
12236239 1 15051737529444635817
13782708 43 18131071575567267934
13811026 1 18335696169573931845
14028597 1 14189302530383811350
14117953 113 18040426694617908405
14294032 229 17605551055013659084
14856354 85 15647059291183875219
15021287 119 14692568857849807169
15183329 4 18259988154878855098
15198563 99 18113611249293618125
15629462 23 17916874508453895064
18681886 176 18262227936620256888
2026 5 18060421283378156702
21130935 74 17916586582246134898
21267235 1 18334298699248953697
21279426 13 18408605868708375640
21682296 61 18202291282037249118
21781051 124 18041575727413889666
23559900 14 18334851740359635648
23569917 315 18342744065232351455
23569943 247 17984991389037253594
23576562 1 17241619488072383196
3004659 81 17894904170023281088
335352 9 18261106404657977660
3383291 50 18413386549482435058
350125 39 18333724711245685120
437815 12 18342178865111088440
59755656 215 18334009480583501070

> <PUBCHEM_SHAPE_MULTIPOLES>
685.07
20.17
2.77
1.54
27.11
0.14
-0.02
-9.77
-8.06
1.11
-0.29
-0.31
-0.35
2.5

> <PUBCHEM_SHAPE_SELFOVERLAP>
1454.908

> <PUBCHEM_SHAPE_VOLUME>
378.2

> <PUBCHEM_COORDINATE_TYPE>
2
5
10

$$$$
