129822087
  -OEChem-09122003473D

 73 76  0     1  0  0  0  0  0999 V2000
    1.3257    3.1646    0.2381 O   0  0  0  0  0  0  0  0  0  0  0  0
   -1.4960    2.1280   -1.7327 O   0  0  0  0  0  0  0  0  0  0  0  0
   -0.9152   -3.0041    0.3552 O   0  0  0  0  0  0  0  0  0  0  0  0
   -6.3747    0.1890    1.9764 O   0  0  0  0  0  0  0  0  0  0  0  0
    8.1540   -0.7522    0.8355 O   0  0  0  0  0  0  0  0  0  0  0  0
    7.4372    1.3496    1.3107 O   0  0  0  0  0  0  0  0  0  0  0  0
    0.7062    0.7588    0.1470 C   0  0  1  0  0  0  0  0  0  0  0  0
    1.4817   -0.4239   -0.5177 C   0  0  1  0  0  0  0  0  0  0  0  0
    2.9530   -0.0060   -0.2779 C   0  0  2  0  0  0  0  0  0  0  0  0
    1.4587    1.9572   -0.4950 C   0  0  2  0  0  0  0  0  0  0  0  0
   -0.7885    0.5609   -0.0987 C   0  0  0  0  0  0  0  0  0  0  0  0
   -2.8862   -0.9150   -0.2904 C   0  0  2  0  0  0  0  0  0  0  0  0
    2.9414    1.5183   -0.5331 C   0  0  0  0  0  0  0  0  0  0  0  0
   -1.3680   -0.6645   -0.0508 C   0  0  0  0  0  0  0  0  0  0  0  0
   -3.7263    0.4101   -0.5767 C   0  0  2  0  0  0  0  0  0  0  0  0
    1.0616   -1.7208    0.1580 C   0  0  0  0  0  0  0  0  0  0  0  0
   -1.5939    1.8006   -0.3483 C   0  0  2  0  0  0  0  0  0  0  0  0
    4.0187   -0.7328   -1.0895 C   0  0  1  0  0  0  0  0  0  0  0  0
   -3.0528    1.6542    0.0479 C   0  0  0  0  0  0  0  0  0  0  0  0
    0.8456    0.8589    1.6995 C   0  0  0  0  0  0  0  0  0  0  0  0
    1.2230   -0.5710   -2.0533 C   0  0  0  0  0  0  0  0  0  0  0  0
   -0.4544   -1.8767    0.1665 C   0  0  0  0  0  0  0  0  0  0  0  0
   -5.2518    0.3358   -0.1649 C   0  0  0  0  0  0  0  0  0  0  0  0
   -3.5184   -1.6987    0.9022 C   0  0  0  0  0  0  0  0  0  0  0  0
   -2.9550   -1.7924   -1.5752 C   0  0  0  0  0  0  0  0  0  0  0  0
   -4.2230   -0.8267    1.9274 C   0  0  0  0  0  0  0  0  0  0  0  0
   -5.3761   -0.0783    1.3050 C   0  0  0  0  0  0  0  0  0  0  0  0
    5.4442   -0.2384   -0.7734 C   0  0  0  0  0  0  0  0  0  0  0  0
    3.9292   -2.2417   -0.8364 C   0  0  0  0  0  0  0  0  0  0  0  0
   -6.0536   -0.6763   -1.0041 C   0  0  0  0  0  0  0  0  0  0  0  0
   -5.9549    1.7023   -0.3456 C   0  0  0  0  0  0  0  0  0  0  0  0
    5.8162   -0.3641    0.7053 C   0  0  0  0  0  0  0  0  0  0  0  0
    7.1921    0.1952    0.9892 C   0  0  0  0  0  0  0  0  0  0  0  0
    3.1613   -0.1723    0.7848 H   0  0  0  0  0  0  0  0  0  0  0  0
    1.1039    2.1528   -1.5125 H   0  0  0  0  0  0  0  0  0  0  0  0
    3.5441    2.0416    0.2180 H   0  0  0  0  0  0  0  0  0  0  0  0
    3.3594    1.7723   -1.5143 H   0  0  0  0  0  0  0  0  0  0  0  0
   -3.7086    0.5833   -1.6636 H   0  0  0  0  0  0  0  0  0  0  0  0
    1.4161   -1.7872    1.1919 H   0  0  0  0  0  0  0  0  0  0  0  0
    1.4335   -2.5997   -0.3720 H   0  0  0  0  0  0  0  0  0  0  0  0
   -1.1860    2.6417    0.2218 H   0  0  0  0  0  0  0  0  0  0  0  0
    3.8700   -0.5614   -2.1627 H   0  0  0  0  0  0  0  0  0  0  0  0
   -3.1291    1.6338    1.1397 H   0  0  0  0  0  0  0  0  0  0  0  0
   -3.5675    2.5606   -0.2893 H   0  0  0  0  0  0  0  0  0  0  0  0
    0.2633    1.7038    2.0890 H   0  0  0  0  0  0  0  0  0  0  0  0
    1.8776    1.0178    2.0263 H   0  0  0  0  0  0  0  0  0  0  0  0
    0.4740   -0.0322    2.2162 H   0  0  0  0  0  0  0  0  0  0  0  0
    0.1595   -0.6341   -2.2999 H   0  0  0  0  0  0  0  0  0  0  0  0
    1.6780   -1.4791   -2.4594 H   0  0  0  0  0  0  0  0  0  0  0  0
    1.6252    0.2688   -2.6286 H   0  0  0  0  0  0  0  0  0  0  0  0
   -2.7779   -2.2832    1.4536 H   0  0  0  0  0  0  0  0  0  0  0  0
   -4.2334   -2.4394    0.5237 H   0  0  0  0  0  0  0  0  0  0  0  0
   -3.9757   -1.9397   -1.9308 H   0  0  0  0  0  0  0  0  0  0  0  0
   -2.5436   -2.7949   -1.4229 H   0  0  0  0  0  0  0  0  0  0  0  0
   -2.3984   -1.3282   -2.3988 H   0  0  0  0  0  0  0  0  0  0  0  0
   -3.5334   -0.1174    2.3925 H   0  0  0  0  0  0  0  0  0  0  0  0
   -4.6261   -1.4658    2.7216 H   0  0  0  0  0  0  0  0  0  0  0  0
    5.5518    0.8084   -1.0837 H   0  0  0  0  0  0  0  0  0  0  0  0
    6.1707   -0.7959   -1.3790 H   0  0  0  0  0  0  0  0  0  0  0  0
    1.8779    3.8345   -0.2000 H   0  0  0  0  0  0  0  0  0  0  0  0
    3.7627   -2.4835    0.2180 H   0  0  0  0  0  0  0  0  0  0  0  0
    4.8636   -2.7344   -1.1321 H   0  0  0  0  0  0  0  0  0  0  0  0
    3.1605   -2.7149   -1.4492 H   0  0  0  0  0  0  0  0  0  0  0  0
   -5.9149   -0.4976   -2.0757 H   0  0  0  0  0  0  0  0  0  0  0  0
   -7.1281   -0.5985   -0.7956 H   0  0  0  0  0  0  0  0  0  0  0  0
   -5.7943   -1.7141   -0.7854 H   0  0  0  0  0  0  0  0  0  0  0  0
   -5.7706    2.1114   -1.3450 H   0  0  0  0  0  0  0  0  0  0  0  0
   -5.6292    2.4345    0.4013 H   0  0  0  0  0  0  0  0  0  0  0  0
   -7.0414    1.6152   -0.2220 H   0  0  0  0  0  0  0  0  0  0  0  0
   -1.9786    2.9602   -1.8738 H   0  0  0  0  0  0  0  0  0  0  0  0
    5.1331    0.1944    1.3526 H   0  0  0  0  0  0  0  0  0  0  0  0
    5.7868   -1.4050    1.0456 H   0  0  0  0  0  0  0  0  0  0  0  0
    9.0501   -0.3953    1.0143 H   0  0  0  0  0  0  0  0  0  0  0  0
  1 10  1  0  0  0  0
  1 60  1  0  0  0  0
  2 17  1  0  0  0  0
  2 70  1  0  0  0  0
  3 22  2  0  0  0  0
  4 27  2  0  0  0  0
  5 33  1  0  0  0  0
  5 73  1  0  0  0  0
  6 33  2  0  0  0  0
  7  8  1  0  0  0  0
  7 10  1  0  0  0  0
  7 11  1  0  0  0  0
  7 20  1  0  0  0  0
  8  9  1  0  0  0  0
  8 16  1  0  0  0  0
  8 21  1  0  0  0  0
  9 13  1  0  0  0  0
  9 18  1  0  0  0  0
  9 34  1  0  0  0  0
 10 13  1  0  0  0  0
 10 35  1  0  0  0  0
 11 14  2  0  0  0  0
 11 17  1  0  0  0  0
 12 14  1  0  0  0  0
 12 15  1  0  0  0  0
 12 24  1  0  0  0  0
 12 25  1  0  0  0  0
 13 36  1  0  0  0  0
 13 37  1  0  0  0  0
 14 22  1  0  0  0  0
 15 19  1  0  0  0  0
 15 23  1  0  0  0  0
 15 38  1  0  0  0  0
 16 22  1  0  0  0  0
 16 39  1  0  0  0  0
 16 40  1  0  0  0  0
 17 19  1  0  0  0  0
 17 41  1  0  0  0  0
 18 28  1  0  0  0  0
 18 29  1  0  0  0  0
 18 42  1  0  0  0  0
 19 43  1  0  0  0  0
 19 44  1  0  0  0  0
 20 45  1  0  0  0  0
 20 46  1  0  0  0  0
 20 47  1  0  0  0  0
 21 48  1  0  0  0  0
 21 49  1  0  0  0  0
 21 50  1  0  0  0  0
 23 27  1  0  0  0  0
 23 30  1  0  0  0  0
 23 31  1  0  0  0  0
 24 26  1  0  0  0  0
 24 51  1  0  0  0  0
 24 52  1  0  0  0  0
 25 53  1  0  0  0  0
 25 54  1  0  0  0  0
 25 55  1  0  0  0  0
 26 27  1  0  0  0  0
 26 56  1  0  0  0  0
 26 57  1  0  0  0  0
 28 32  1  0  0  0  0
 28 58  1  0  0  0  0
 28 59  1  0  0  0  0
 29 61  1  0  0  0  0
 29 62  1  0  0  0  0
 29 63  1  0  0  0  0
 30 64  1  0  0  0  0
 30 65  1  0  0  0  0
 30 66  1  0  0  0  0
 31 67  1  0  0  0  0
 31 68  1  0  0  0  0
 31 69  1  0  0  0  0
 32 33  1  0  0  0  0
 32 71  1  0  0  0  0
 32 72  1  0  0  0  0
M  END
> <PUBCHEM_COMPOUND_CID>
129822087

> <PUBCHEM_CONFORMER_RMSD>
0.8

> <PUBCHEM_CONFORMER_DIVERSEORDER>
6
34
44
8
20
40
24
31
11
42
22
21
2
16
37
41
3
30
32
39
38
1
27
18
45
7
43
23
26
17
14
35
19
4
25
29
15
9
33
5
10
36
28
13
12

> <PUBCHEM_MMFF94_PARTIAL_CHARGES>
22
1 -0.68
10 0.28
11 -0.28
12 0.14
14 -0.12
16 0.06
17 0.42
2 -0.68
22 0.49
23 0.06
26 0.06
27 0.45
3 -0.57
32 0.06
33 0.66
4 -0.57
5 -0.65
6 -0.57
60 0.4
7 0.14
70 0.4
73 0.5

> <PUBCHEM_EFFECTIVE_ROTOR_COUNT>
5.8

> <PUBCHEM_PHARMACOPHORE_FEATURES>
15
1 1 acceptor
1 1 donor
1 2 acceptor
1 2 donor
1 29 hydrophobe
1 3 acceptor
1 4 acceptor
1 5 acceptor
1 6 acceptor
3 23 30 31 hydrophobe
3 5 6 33 anion
5 7 8 9 10 13 rings
6 11 12 14 15 17 19 rings
6 12 15 23 24 26 27 rings
6 7 8 11 14 16 22 rings

> <PUBCHEM_HEAVY_ATOM_COUNT>
33

> <PUBCHEM_ATOM_DEF_STEREO_COUNT>
5

> <PUBCHEM_ATOM_UDEF_STEREO_COUNT>
3

> <PUBCHEM_BOND_DEF_STEREO_COUNT>
0

> <PUBCHEM_BOND_UDEF_STEREO_COUNT>
0

> <PUBCHEM_ISOTOPIC_ATOM_COUNT>
0

> <PUBCHEM_COMPONENT_COUNT>
1

> <PUBCHEM_CACTVS_TAUTO_COUNT>
4

> <PUBCHEM_CONFORMER_ID>
07BCED8700000006

> <PUBCHEM_MMFF94_ENERGY>
126.9337

> <PUBCHEM_FEATURE_SELFOVERLAP>
76.317

> <PUBCHEM_SHAPE_FINGERPRINT>
10 15 18408602578869058400
10906281 52 18200330904112410646
11315181 36 16988559122097729193
11578080 2 17058920259540484226
11646440 116 18341901783606093680
12035758 1 18411425024610807186
12236239 1 16660651760181223396
12422481 6 18339071722407417432
12516196 113 17704353264669379544
12596602 18 15913331277435438567
12633257 1 18341899631341869445
12838862 33 18336812122843276629
13140716 1 18192437586945241395
13224815 77 18410014377563573639
13402501 40 18335146366953292607
13782708 43 17023197079266880331
13811026 1 18343299301081032910
14394314 77 18337669715732012721
14849402 71 17274536645837115984
14856354 85 15213022661167082507
15131766 46 14906746057283623290
15183329 4 18408046221146987820
2026 5 12325058558715879040
20511986 3 17632289069108728686
20691752 17 18188201113288705143
21033648 29 18408879642804027921
21033650 10 14547645485830655731
21130935 74 17846783979262149942
21859007 373 17968641740598408300
22122407 14 16056602109912413930
23402539 116 18410290336979616767
23559900 14 18342451599222586280
23569943 247 17771358478087658174
24771293 8 18202564003834142000
3004659 81 18114191830719778134
3178227 256 18261406545889455217
335352 9 18408321103027119845
3383291 50 18260834812290746027
350125 39 18335706022308517565
4093350 32 16702029638931626534
4169191 19 18059575849415351424
4340502 62 18409730643386923870
5104073 3 18267591388573140754
59755656 215 18336551521275853238
6086070 43 17896580938683483919
7226269 152 18202283606387398664

> <PUBCHEM_SHAPE_MULTIPOLES>
643.91
16.45
2.41
1.53
16.9
0.2
0.16
0.49
5.66
-0.18
-0.27
-0.63
-0.11
0.81

> <PUBCHEM_SHAPE_SELFOVERLAP>
1372.348

> <PUBCHEM_SHAPE_VOLUME>
352.7

> <PUBCHEM_COORDINATE_TYPE>
2
5
10

$$$$
