10346401
  -OEChem-09112013343D

 79 82  0     1  0  0  0  0  0999 V2000
    8.1879    0.8103    0.3244 O   0  0  0  0  0  0  0  0  0  0  0  0
   -0.2953   -3.1224   -0.1038 O   0  0  0  0  0  0  0  0  0  0  0  0
    1.9673    2.9153    0.4337 O   0  0  0  0  0  0  0  0  0  0  0  0
    2.2116   -3.0153    0.3194 O   0  0  0  0  0  0  0  0  0  0  0  0
   -5.5434    1.5627   -1.5397 O   0  0  0  0  0  0  0  0  0  0  0  0
   -7.2830   -1.9975   -0.5733 O   0  0  0  0  0  0  0  0  0  0  0  0
   -8.6291   -0.3549   -1.3741 O   0  0  0  0  0  0  0  0  0  0  0  0
   -0.5263    0.3372    0.0335 C   0  0  1  0  0  0  0  0  0  0  0  0
    0.3119   -0.8406    0.6374 C   0  0  2  0  0  0  0  0  0  0  0  0
    3.8542    0.7680   -0.2781 C   0  0  1  0  0  0  0  0  0  0  0  0
    4.6469   -0.5675   -0.0158 C   0  0  2  0  0  0  0  0  0  0  0  0
   -1.9804   -0.0191    0.4386 C   0  0  2  0  0  0  0  0  0  0  0  0
    1.7600   -0.6710    0.2206 C   0  0  0  0  0  0  0  0  0  0  0  0
    2.3597    0.5489    0.1287 C   0  0  0  0  0  0  0  0  0  0  0  0
    6.2042   -0.5496   -0.2305 C   0  0  0  0  0  0  0  0  0  0  0  0
   -0.0079    1.6398    0.6203 C   0  0  0  0  0  0  0  0  0  0  0  0
   -2.0736   -1.5201    0.1183 C   0  0  0  0  0  0  0  0  0  0  0  0
    4.5757    1.8780    0.5405 C   0  0  0  0  0  0  0  0  0  0  0  0
   -0.6210   -1.9749    0.1666 C   0  0  0  0  0  0  0  0  0  0  0  0
    3.9289   -1.7350   -0.6879 C   0  0  0  0  0  0  0  0  0  0  0  0
    6.7916    0.6467    0.5680 C   0  0  2  0  0  0  0  0  0  0  0  0
    1.4903    1.7812    0.3930 C   0  0  0  0  0  0  0  0  0  0  0  0
   -3.0918    0.7838   -0.2283 C   0  0  1  0  0  0  0  0  0  0  0  0
   -0.4255    0.4296   -1.5290 C   0  0  0  0  0  0  0  0  0  0  0  0
    2.5891   -1.8965   -0.0219 C   0  0  0  0  0  0  0  0  0  0  0  0
    6.0813    1.9644    0.2942 C   0  0  0  0  0  0  0  0  0  0  0  0
    0.3183   -0.9524    2.1858 C   0  0  0  0  0  0  0  0  0  0  0  0
    3.7991    1.1973   -1.7635 C   0  0  0  0  0  0  0  0  0  0  0  0
    6.6318   -0.5227   -1.7119 C   0  0  0  0  0  0  0  0  0  0  0  0
    6.8311   -1.8418    0.3679 C   0  0  0  0  0  0  0  0  0  0  0  0
   -4.4808    0.3188    0.2388 C   0  0  0  0  0  0  0  0  0  0  0  0
   -2.9153    2.2752    0.0733 C   0  0  0  0  0  0  0  0  0  0  0  0
   -5.6210    1.0942   -0.4043 C   0  0  0  0  0  0  0  0  0  0  0  0
   -6.8677    1.2960    0.4345 C   0  0  0  0  0  0  0  0  0  0  0  0
   -7.5277   -0.0420    0.7767 C   0  0  1  0  0  0  0  0  0  0  0  0
   -8.7672    0.1565    1.6496 C   0  0  0  0  0  0  0  0  0  0  0  0
   -7.8838   -0.7808   -0.5017 C   0  0  0  0  0  0  0  0  0  0  0  0
    4.5382   -0.7420    1.0704 H   0  0  0  0  0  0  0  0  0  0  0  0
   -2.0920    0.1089    1.5240 H   0  0  0  0  0  0  0  0  0  0  0  0
   -0.4350    2.5155    0.1326 H   0  0  0  0  0  0  0  0  0  0  0  0
   -0.2019    1.7247    1.6944 H   0  0  0  0  0  0  0  0  0  0  0  0
   -2.6565   -2.0553    0.8728 H   0  0  0  0  0  0  0  0  0  0  0  0
   -2.4710   -1.7168   -0.8818 H   0  0  0  0  0  0  0  0  0  0  0  0
    4.1847    2.8699    0.2980 H   0  0  0  0  0  0  0  0  0  0  0  0
    4.3975    1.7188    1.6122 H   0  0  0  0  0  0  0  0  0  0  0  0
    3.7869   -1.6103   -1.7642 H   0  0  0  0  0  0  0  0  0  0  0  0
    4.4669   -2.6755   -0.5410 H   0  0  0  0  0  0  0  0  0  0  0  0
    6.6871    0.4443    1.6431 H   0  0  0  0  0  0  0  0  0  0  0  0
   -3.0622    0.6523   -1.3169 H   0  0  0  0  0  0  0  0  0  0  0  0
   -0.8405   -0.4515   -2.0285 H   0  0  0  0  0  0  0  0  0  0  0  0
   -0.9596    1.3038   -1.9145 H   0  0  0  0  0  0  0  0  0  0  0  0
    0.6027    0.5277   -1.8882 H   0  0  0  0  0  0  0  0  0  0  0  0
    6.5075    2.7417    0.9420 H   0  0  0  0  0  0  0  0  0  0  0  0
    6.2924    2.3074   -0.7250 H   0  0  0  0  0  0  0  0  0  0  0  0
    0.7801   -0.0845    2.6684 H   0  0  0  0  0  0  0  0  0  0  0  0
    0.8881   -1.8355    2.5028 H   0  0  0  0  0  0  0  0  0  0  0  0
   -0.6808   -1.0770    2.6151 H   0  0  0  0  0  0  0  0  0  0  0  0
    3.3881    0.4166   -2.4107 H   0  0  0  0  0  0  0  0  0  0  0  0
    3.1589    2.0788   -1.8949 H   0  0  0  0  0  0  0  0  0  0  0  0
    4.7696    1.4843   -2.1644 H   0  0  0  0  0  0  0  0  0  0  0  0
    7.6992   -0.7536   -1.8157 H   0  0  0  0  0  0  0  0  0  0  0  0
    6.4949    0.4533   -2.1765 H   0  0  0  0  0  0  0  0  0  0  0  0
    6.0895   -1.2652   -2.3053 H   0  0  0  0  0  0  0  0  0  0  0  0
    6.5388   -2.7358   -0.1914 H   0  0  0  0  0  0  0  0  0  0  0  0
    7.9258   -1.8159    0.3433 H   0  0  0  0  0  0  0  0  0  0  0  0
    6.5283   -1.9837    1.4113 H   0  0  0  0  0  0  0  0  0  0  0  0
   -4.5524    0.4371    1.3268 H   0  0  0  0  0  0  0  0  0  0  0  0
   -4.6424   -0.7381    0.0036 H   0  0  0  0  0  0  0  0  0  0  0  0
   -2.2344    2.7447   -0.6396 H   0  0  0  0  0  0  0  0  0  0  0  0
   -3.8469    2.8390   -0.0375 H   0  0  0  0  0  0  0  0  0  0  0  0
   -2.5787    2.4545    1.0994 H   0  0  0  0  0  0  0  0  0  0  0  0
    8.6596    0.0991    0.7883 H   0  0  0  0  0  0  0  0  0  0  0  0
   -7.5572    1.9361   -0.1296 H   0  0  0  0  0  0  0  0  0  0  0  0
   -6.5860    1.8426    1.3414 H   0  0  0  0  0  0  0  0  0  0  0  0
   -6.8209   -0.6622    1.3422 H   0  0  0  0  0  0  0  0  0  0  0  0
   -9.5164    0.7734    1.1412 H   0  0  0  0  0  0  0  0  0  0  0  0
   -9.2356   -0.8066    1.8797 H   0  0  0  0  0  0  0  0  0  0  0  0
   -8.5051    0.6441    2.5940 H   0  0  0  0  0  0  0  0  0  0  0  0
   -7.5180   -2.4730   -1.3985 H   0  0  0  0  0  0  0  0  0  0  0  0
  1 21  1  0  0  0  0
  1 72  1  0  0  0  0
  2 19  2  0  0  0  0
  3 22  2  0  0  0  0
  4 25  2  0  0  0  0
  5 33  2  0  0  0  0
  6 37  1  0  0  0  0
  6 79  1  0  0  0  0
  7 37  2  0  0  0  0
  8  9  1  0  0  0  0
  8 12  1  0  0  0  0
  8 16  1  0  0  0  0
  8 24  1  0  0  0  0
  9 13  1  0  0  0  0
  9 19  1  0  0  0  0
  9 27  1  0  0  0  0
 10 11  1  0  0  0  0
 10 14  1  0  0  0  0
 10 18  1  0  0  0  0
 10 28  1  0  0  0  0
 11 15  1  0  0  0  0
 11 20  1  0  0  0  0
 11 38  1  0  0  0  0
 12 17  1  0  0  0  0
 12 23  1  0  0  0  0
 12 39  1  0  0  0  0
 13 14  2  0  0  0  0
 13 25  1  0  0  0  0
 14 22  1  0  0  0  0
 15 21  1  0  0  0  0
 15 29  1  0  0  0  0
 15 30  1  0  0  0  0
 16 22  1  0  0  0  0
 16 40  1  0  0  0  0
 16 41  1  0  0  0  0
 17 19  1  0  0  0  0
 17 42  1  0  0  0  0
 17 43  1  0  0  0  0
 18 26  1  0  0  0  0
 18 44  1  0  0  0  0
 18 45  1  0  0  0  0
 20 25  1  0  0  0  0
 20 46  1  0  0  0  0
 20 47  1  0  0  0  0
 21 26  1  0  0  0  0
 21 48  1  0  0  0  0
 23 31  1  0  0  0  0
 23 32  1  0  0  0  0
 23 49  1  0  0  0  0
 24 50  1  0  0  0  0
 24 51  1  0  0  0  0
 24 52  1  0  0  0  0
 26 53  1  0  0  0  0
 26 54  1  0  0  0  0
 27 55  1  0  0  0  0
 27 56  1  0  0  0  0
 27 57  1  0  0  0  0
 28 58  1  0  0  0  0
 28 59  1  0  0  0  0
 28 60  1  0  0  0  0
 29 61  1  0  0  0  0
 29 62  1  0  0  0  0
 29 63  1  0  0  0  0
 30 64  1  0  0  0  0
 30 65  1  0  0  0  0
 30 66  1  0  0  0  0
 31 33  1  0  0  0  0
 31 67  1  0  0  0  0
 31 68  1  0  0  0  0
 32 69  1  0  0  0  0
 32 70  1  0  0  0  0
 32 71  1  0  0  0  0
 33 34  1  0  0  0  0
 34 35  1  0  0  0  0
 34 73  1  0  0  0  0
 34 74  1  0  0  0  0
 35 36  1  0  0  0  0
 35 37  1  0  0  0  0
 35 75  1  0  0  0  0
 36 76  1  0  0  0  0
 36 77  1  0  0  0  0
 36 78  1  0  0  0  0
M  END
> <PUBCHEM_COMPOUND_CID>
10346401

> <PUBCHEM_CONFORMER_RMSD>
1

> <PUBCHEM_CONFORMER_DIVERSEORDER>
20
3
53
28
5
27
30
25
17
36
33
34
31
12
6
39
45
19
52
29
8
47
43
2
16
49
4
38
1
7
35
41
15
51
14
23
21
48
50
13
37
32
46
10
26
40
44
9
22
18
11
24
42

> <PUBCHEM_MMFF94_PARTIAL_CHARGES>
25
1 -0.68
10 0.14
13 -0.12
14 -0.12
16 0.06
17 0.06
19 0.45
2 -0.57
20 0.06
21 0.28
22 0.49
25 0.49
3 -0.57
31 0.06
33 0.45
34 0.06
35 0.06
37 0.66
4 -0.57
5 -0.57
6 -0.65
7 -0.57
72 0.4
79 0.5
9 0.2

> <PUBCHEM_EFFECTIVE_ROTOR_COUNT>
7.6

> <PUBCHEM_PHARMACOPHORE_FEATURES>
16
1 1 acceptor
1 1 donor
1 2 acceptor
1 3 acceptor
1 32 hydrophobe
1 36 hydrophobe
1 4 acceptor
1 5 acceptor
1 6 acceptor
1 7 acceptor
3 15 29 30 hydrophobe
3 6 7 37 anion
5 8 9 12 17 19 rings
6 10 11 13 14 20 25 rings
6 10 11 15 18 21 26 rings
6 8 9 13 14 16 22 rings

> <PUBCHEM_HEAVY_ATOM_COUNT>
37

> <PUBCHEM_ATOM_DEF_STEREO_COUNT>
6

> <PUBCHEM_ATOM_UDEF_STEREO_COUNT>
2

> <PUBCHEM_BOND_DEF_STEREO_COUNT>
0

> <PUBCHEM_BOND_UDEF_STEREO_COUNT>
0

> <PUBCHEM_ISOTOPIC_ATOM_COUNT>
0

> <PUBCHEM_COMPONENT_COUNT>
1

> <PUBCHEM_CACTVS_TAUTO_COUNT>
24

> <PUBCHEM_CONFORMER_ID>
009DDFA100000014

> <PUBCHEM_MMFF94_ENERGY>
134.2668

> <PUBCHEM_FEATURE_SELFOVERLAP>
81.364

> <PUBCHEM_SHAPE_FINGERPRINT>
10299344 5 17846498136962237197
11135926 11 18410290299379971823
11456790 92 18340767048925227920
11497681 19 18269827774957573575
11578080 2 16700310139878764000
12838862 33 18339345419303590248
13811026 1 18407758131625274305
14117953 113 18410300216422528804
14251764 18 18409731759561124829
14394314 77 18199756856043833113
14849402 71 18343304799288265425
15131766 46 15070904293750457590
15183329 4 18342173358793722505
15849732 13 18113900472385295133
16090146 7 17274835656975651023
18365409 1 18341050838489027462
18608769 82 18409167740540733075
18681886 176 18341041987151403177
19611394 137 17750250256447934505
21033648 29 18339631365752719648
21267235 1 18342181020841357236
21521721 280 18343023298256141211
21781051 124 18041295347189232603
22149856 69 18335999571377242529
23516275 137 17274003297236648671
23559900 14 18342450487026627424
23569917 315 18340493261851117382
23569943 247 17554345626530736438
24771293 8 18333454222811376141
24771750 20 18192439777795839860
249057 3 18412826914562699503
25019877 29 18343303660936770607
27425 322 16878794949475234696
3178227 256 18410018736459741265
335352 9 18411141342553649742
335507 130 18260554424952954485
350125 39 18409166601688525785
3552219 110 17632025195583374073
4073 2 18188494686940810779
4093350 32 17131837542695583340
4258327 124 17459208411435795668
4340502 62 18410576180011679926
484989 97 18338239379341485131
59755656 215 18335421248701477580
6004065 56 18272367594634744840

> <PUBCHEM_SHAPE_MULTIPOLES>
720.36
23.63
2.58
1.27
31.17
0.55
-0.11
-0.71
-1.18
-1.47
0.13
0.48
-0.04
0.16

> <PUBCHEM_SHAPE_SELFOVERLAP>
1535.01

> <PUBCHEM_SHAPE_VOLUME>
396

> <PUBCHEM_COORDINATE_TYPE>
2
5
10

$$$$
