11813266
  -OEChem-09122004243D

 79 82  0     1  0  0  0  0  0999 V2000
    1.6010    1.8365    2.1821 O   0  0  0  0  0  0  0  0  0  0  0  0
    0.0456    3.4678    0.6478 O   0  0  0  0  0  0  0  0  0  0  0  0
    1.6309   -2.3090   -1.8136 O   0  0  0  0  0  0  0  0  0  0  0  0
    7.6968   -0.7902   -0.7498 O   0  0  0  0  0  0  0  0  0  0  0  0
   -6.7568    1.5205   -1.7125 O   0  0  0  0  0  0  0  0  0  0  0  0
   -7.3253   -2.5148    2.2746 O   0  0  0  0  0  0  0  0  0  0  0  0
   -6.9116   -0.3467    2.8064 O   0  0  0  0  0  0  0  0  0  0  0  0
   -0.6601    0.2425   -0.5813 C   0  0  1  0  0  0  0  0  0  0  0  0
    0.4252    1.3622   -0.5668 C   0  0  2  0  0  0  0  0  0  0  0  0
   -1.9396    1.0054   -1.0136 C   0  0  2  0  0  0  0  0  0  0  0  0
    3.5477   -0.9862    0.0253 C   0  0  1  0  0  0  0  0  0  0  0  0
    1.6942    0.7821    0.0309 C   0  0  0  0  0  0  0  0  0  0  0  0
    4.4594    0.2273    0.4717 C   0  0  1  0  0  0  0  0  0  0  0  0
    2.1582   -0.4238   -0.4001 C   0  0  0  0  0  0  0  0  0  0  0  0
   -0.2022   -0.8395   -1.5500 C   0  0  0  0  0  0  0  0  0  0  0  0
   -1.8941    2.2861   -0.1613 C   0  0  0  0  0  0  0  0  0  0  0  0
    2.4370    1.6232    1.0436 C   0  0  2  0  0  0  0  0  0  0  0  0
   -0.4062    2.4822    0.0786 C   0  0  0  0  0  0  0  0  0  0  0  0
    3.7460    1.0292    1.5637 C   0  0  0  0  0  0  0  0  0  0  0  0
    5.9667   -0.0629    0.7932 C   0  0  0  0  0  0  0  0  0  0  0  0
   -3.2611    0.2606   -0.8666 C   0  0  1  0  0  0  0  0  0  0  0  0
    4.3085   -1.6866   -1.1354 C   0  0  0  0  0  0  0  0  0  0  0  0
    1.2421   -1.2647   -1.2903 C   0  0  0  0  0  0  0  0  0  0  0  0
   -0.8837   -0.4160    0.8203 C   0  0  0  0  0  0  0  0  0  0  0  0
    0.8159    1.9616   -1.9484 C   0  0  0  0  0  0  0  0  0  0  0  0
    3.2449   -2.0144    1.1375 C   0  0  0  0  0  0  0  0  0  0  0  0
    5.7274   -2.1120   -0.7847 C   0  0  0  0  0  0  0  0  0  0  0  0
    6.5548   -0.9471   -0.3133 C   0  0  0  0  0  0  0  0  0  0  0  0
   -4.4311    1.1765   -1.2837 C   0  0  0  0  0  0  0  0  0  0  0  0
    6.2332   -0.7400    2.1451 C   0  0  0  0  0  0  0  0  0  0  0  0
    6.7582    1.2719    0.7892 C   0  0  0  0  0  0  0  0  0  0  0  0
   -3.2240   -1.0328   -1.6856 C   0  0  0  0  0  0  0  0  0  0  0  0
   -5.8267    0.5328   -1.2573 C   0  0  1  0  0  0  0  0  0  0  0  0
   -6.2365    0.1098    0.1291 C   0  0  0  0  0  0  0  0  0  0  0  0
   -6.6217   -1.1158    0.5323 C   0  0  0  0  0  0  0  0  0  0  0  0
   -6.7551   -2.3307   -0.3370 C   0  0  0  0  0  0  0  0  0  0  0  0
   -6.9578   -1.2450    1.9800 C   0  0  0  0  0  0  0  0  0  0  0  0
   -1.8401    1.2948   -2.0691 H   0  0  0  0  0  0  0  0  0  0  0  0
    4.4982    0.8887   -0.4119 H   0  0  0  0  0  0  0  0  0  0  0  0
   -0.2722   -0.5140   -2.5936 H   0  0  0  0  0  0  0  0  0  0  0  0
   -0.7764   -1.7605   -1.4430 H   0  0  0  0  0  0  0  0  0  0  0  0
   -2.3964    2.1753    0.8040 H   0  0  0  0  0  0  0  0  0  0  0  0
   -2.2951    3.1445   -0.7072 H   0  0  0  0  0  0  0  0  0  0  0  0
    2.6495    2.5990    0.5892 H   0  0  0  0  0  0  0  0  0  0  0  0
    4.3593    1.8613    1.9245 H   0  0  0  0  0  0  0  0  0  0  0  0
    3.5655    0.4135    2.4526 H   0  0  0  0  0  0  0  0  0  0  0  0
   -3.4299   -0.0069    0.1831 H   0  0  0  0  0  0  0  0  0  0  0  0
    4.3378   -1.0186   -2.0068 H   0  0  0  0  0  0  0  0  0  0  0  0
    3.8010   -2.6014   -1.4521 H   0  0  0  0  0  0  0  0  0  0  0  0
   -1.2040    0.3101    1.5741 H   0  0  0  0  0  0  0  0  0  0  0  0
   -1.6402   -1.2056    0.7818 H   0  0  0  0  0  0  0  0  0  0  0  0
    0.0175   -0.8955    1.2141 H   0  0  0  0  0  0  0  0  0  0  0  0
    1.5553    2.7630   -1.8181 H   0  0  0  0  0  0  0  0  0  0  0  0
    1.2618    1.2260   -2.6254 H   0  0  0  0  0  0  0  0  0  0  0  0
   -0.0313    2.4169   -2.4720 H   0  0  0  0  0  0  0  0  0  0  0  0
    2.7391   -1.5626    1.9969 H   0  0  0  0  0  0  0  0  0  0  0  0
    2.5822   -2.8068    0.7674 H   0  0  0  0  0  0  0  0  0  0  0  0
    4.1339   -2.5227    1.5067 H   0  0  0  0  0  0  0  0  0  0  0  0
    6.2026   -2.5334   -1.6784 H   0  0  0  0  0  0  0  0  0  0  0  0
    5.7442   -2.8900   -0.0161 H   0  0  0  0  0  0  0  0  0  0  0  0
   -4.4562    2.0733   -0.6507 H   0  0  0  0  0  0  0  0  0  0  0  0
   -4.2478    1.5538   -2.2997 H   0  0  0  0  0  0  0  0  0  0  0  0
    5.7857   -0.1858    2.9756 H   0  0  0  0  0  0  0  0  0  0  0  0
    5.8768   -1.7691    2.1861 H   0  0  0  0  0  0  0  0  0  0  0  0
    7.3117   -0.7974    2.3404 H   0  0  0  0  0  0  0  0  0  0  0  0
    6.4582    1.9334    1.6070 H   0  0  0  0  0  0  0  0  0  0  0  0
    7.8353    1.1009    0.9062 H   0  0  0  0  0  0  0  0  0  0  0  0
    6.6215    1.8115   -0.1552 H   0  0  0  0  0  0  0  0  0  0  0  0
   -4.2177   -1.4478   -1.8611 H   0  0  0  0  0  0  0  0  0  0  0  0
   -2.7687   -0.8871   -2.6701 H   0  0  0  0  0  0  0  0  0  0  0  0
   -2.7104   -1.8290   -1.1451 H   0  0  0  0  0  0  0  0  0  0  0  0
    2.0639    2.4536    2.7743 H   0  0  0  0  0  0  0  0  0  0  0  0
   -5.8932   -0.2779   -1.9818 H   0  0  0  0  0  0  0  0  0  0  0  0
   -6.1968    0.9197    0.8572 H   0  0  0  0  0  0  0  0  0  0  0  0
   -6.5101    1.7610   -2.6219 H   0  0  0  0  0  0  0  0  0  0  0  0
   -7.7649   -2.7482   -0.2592 H   0  0  0  0  0  0  0  0  0  0  0  0
   -6.5849   -2.1318   -1.3966 H   0  0  0  0  0  0  0  0  0  0  0  0
   -6.0362   -3.0975   -0.0293 H   0  0  0  0  0  0  0  0  0  0  0  0
   -7.5489   -2.6215    3.2237 H   0  0  0  0  0  0  0  0  0  0  0  0
  1 17  1  0  0  0  0
  1 72  1  0  0  0  0
  2 18  2  0  0  0  0
  3 23  2  0  0  0  0
  4 28  2  0  0  0  0
  5 33  1  0  0  0  0
  5 75  1  0  0  0  0
  6 37  1  0  0  0  0
  6 79  1  0  0  0  0
  7 37  2  0  0  0  0
  8  9  1  0  0  0  0
  8 10  1  0  0  0  0
  8 15  1  0  0  0  0
  8 24  1  0  0  0  0
  9 12  1  0  0  0  0
  9 18  1  0  0  0  0
  9 25  1  0  0  0  0
 10 16  1  0  0  0  0
 10 21  1  0  0  0  0
 10 38  1  0  0  0  0
 11 13  1  0  0  0  0
 11 14  1  0  0  0  0
 11 22  1  0  0  0  0
 11 26  1  0  0  0  0
 12 14  2  0  0  0  0
 12 17  1  0  0  0  0
 13 19  1  0  0  0  0
 13 20  1  0  0  0  0
 13 39  1  0  0  0  0
 14 23  1  0  0  0  0
 15 23  1  0  0  0  0
 15 40  1  0  0  0  0
 15 41  1  0  0  0  0
 16 18  1  0  0  0  0
 16 42  1  0  0  0  0
 16 43  1  0  0  0  0
 17 19  1  0  0  0  0
 17 44  1  0  0  0  0
 19 45  1  0  0  0  0
 19 46  1  0  0  0  0
 20 28  1  0  0  0  0
 20 30  1  0  0  0  0
 20 31  1  0  0  0  0
 21 29  1  0  0  0  0
 21 32  1  0  0  0  0
 21 47  1  0  0  0  0
 22 27  1  0  0  0  0
 22 48  1  0  0  0  0
 22 49  1  0  0  0  0
 24 50  1  0  0  0  0
 24 51  1  0  0  0  0
 24 52  1  0  0  0  0
 25 53  1  0  0  0  0
 25 54  1  0  0  0  0
 25 55  1  0  0  0  0
 26 56  1  0  0  0  0
 26 57  1  0  0  0  0
 26 58  1  0  0  0  0
 27 28  1  0  0  0  0
 27 59  1  0  0  0  0
 27 60  1  0  0  0  0
 29 33  1  0  0  0  0
 29 61  1  0  0  0  0
 29 62  1  0  0  0  0
 30 63  1  0  0  0  0
 30 64  1  0  0  0  0
 30 65  1  0  0  0  0
 31 66  1  0  0  0  0
 31 67  1  0  0  0  0
 31 68  1  0  0  0  0
 32 69  1  0  0  0  0
 32 70  1  0  0  0  0
 32 71  1  0  0  0  0
 33 34  1  0  0  0  0
 33 73  1  0  0  0  0
 34 35  2  0  0  0  0
 34 74  1  0  0  0  0
 35 36  1  0  0  0  0
 35 37  1  0  0  0  0
 36 76  1  0  0  0  0
 36 77  1  0  0  0  0
 36 78  1  0  0  0  0
M  END
> <PUBCHEM_COMPOUND_CID>
11813266

> <PUBCHEM_CONFORMER_RMSD>
1

> <PUBCHEM_CONFORMER_DIVERSEORDER>
1
4
5
2
6
3

> <PUBCHEM_MMFF94_PARTIAL_CHARGES>
28
1 -0.68
11 0.14
12 -0.28
14 -0.12
15 0.06
16 0.06
17 0.42
18 0.45
2 -0.57
20 0.06
23 0.49
27 0.06
28 0.45
3 -0.57
33 0.42
34 -0.29
35 -0.12
36 0.14
37 0.71
4 -0.57
5 -0.68
6 -0.65
7 -0.57
72 0.4
74 0.15
75 0.4
79 0.5
9 0.2

> <PUBCHEM_EFFECTIVE_ROTOR_COUNT>
6.6

> <PUBCHEM_PHARMACOPHORE_FEATURES>
17
1 1 acceptor
1 1 donor
1 2 acceptor
1 3 acceptor
1 32 hydrophobe
1 36 hydrophobe
1 4 acceptor
1 5 acceptor
1 5 donor
1 6 acceptor
1 7 acceptor
3 20 30 31 hydrophobe
3 6 7 37 anion
5 8 9 10 16 18 rings
6 11 12 13 14 17 19 rings
6 11 13 20 22 27 28 rings
6 8 9 12 14 15 23 rings

> <PUBCHEM_HEAVY_ATOM_COUNT>
37

> <PUBCHEM_ATOM_DEF_STEREO_COUNT>
8

> <PUBCHEM_ATOM_UDEF_STEREO_COUNT>
0

> <PUBCHEM_BOND_DEF_STEREO_COUNT>
1

> <PUBCHEM_BOND_UDEF_STEREO_COUNT>
0

> <PUBCHEM_ISOTOPIC_ATOM_COUNT>
0

> <PUBCHEM_COMPONENT_COUNT>
1

> <PUBCHEM_CACTVS_TAUTO_COUNT>
8

> <PUBCHEM_CONFORMER_ID>
00B4419200000001

> <PUBCHEM_MMFF94_ENERGY>
131.9013

> <PUBCHEM_FEATURE_SELFOVERLAP>
86.431

> <PUBCHEM_SHAPE_FINGERPRINT>
10076449 9 18412270540842407750
11115154 58 15357691973280958725
11135609 12 18334297616616488523
11181472 205 13758089501971856466
11456790 92 17703784783310174522
11578080 2 15552159408263058858
11646440 116 18342460343881112729
11796584 16 17458615684795844369
11963148 33 18261100864082503458
12035758 1 18271518767019905210
12120059 9 18190718908827575311
12236239 1 15719388383200189076
12422481 6 17917713483570992677
13165053 68 16880214452998239982
13673619 4 17967816072428143877
13782708 43 18337103480027850418
13811026 1 18410287016916856694
13947930 73 17969514873649102771
14294032 229 13686294669247805929
14849402 71 17560516330007653289
14856354 85 17240482482202967549
14955137 171 18341327868554010997
15021287 119 18271804662187701325
15131766 46 12748943500883493962
15183329 4 17418085525241817909
15510800 12 18041563659130943683
17980427 23 16056878052844944705
18608769 82 18335699463845990059
19611394 137 18408889563413175171
20105231 36 18272374166013991806
21267235 1 17988359279209784838
21781051 124 18337401508352118470
21792965 25 14618853049753156850
22122407 14 14907609177231117251
22149856 69 18272661120788353016
2260408 40 17346333565688210495
23522609 53 16629965558918692456
23559900 14 18129361817611502452
23569914 152 7777919387217253585
249057 25 15769201865245790233
25222932 49 18187634830161502995
2747138 104 18413109442107279232
2838139 119 12031779263184937611
3178227 256 18273496792706666386
3383291 50 18040719212246194179
350125 39 18059844078681090372
397830 11 18188207718837714305
404807 78 17604159211042785554
4073 2 18338516327412044725
4093350 32 15410903946466361054
4340502 62 17749380435138946626
5104073 3 18129377094709421723
5381727 24 17603865599527238602
6009941 240 18187922834300724573
8863177 126 18260833752219384611
999808 66 18409171004705451807

> <PUBCHEM_SHAPE_MULTIPOLES>
720.36
20.56
2.69
2.09
15.51
0.59
-0.81
-10.78
-7.24
0.9
-0.12
1.84
-0.43
3.11

> <PUBCHEM_SHAPE_SELFOVERLAP>
1536.082

> <PUBCHEM_SHAPE_VOLUME>
398.7

> <PUBCHEM_COORDINATE_TYPE>
2
5
10

$$$$
