3001811
  -OEChem-09122006253D

 82 85  0     1  0  0  0  0  0999 V2000
    7.2394    2.4798    0.0777 O   0  0  0  0  0  0  0  0  0  0  0  0
   -7.0919   -0.9966   -0.6434 O   0  0  0  0  0  0  0  0  0  0  0  0
   -8.2745    0.8407    1.1729 O   0  0  0  0  0  0  0  0  0  0  0  0
   -7.7466    3.1488   -0.2984 O   0  0  0  0  0  0  0  0  0  0  0  0
   -0.3950   -0.8959   -0.5247 C   0  0  1  0  0  0  0  0  0  0  0  0
    0.3221   -0.6843    0.8502 C   0  0  1  0  0  0  0  0  0  0  0  0
   -1.8769   -0.9889   -0.0918 C   0  0  2  0  0  0  0  0  0  0  0  0
   -0.3500   -1.7873    1.6966 C   0  0  0  0  0  0  0  0  0  0  0  0
   -1.8172   -1.8211    1.2122 C   0  0  0  0  0  0  0  0  0  0  0  0
    1.8348   -0.6898    0.6482 C   0  0  0  0  0  0  0  0  0  0  0  0
    3.8786    0.1032   -0.7530 C   0  0  2  0  0  0  0  0  0  0  0  0
   -0.0422    0.2812   -1.4470 C   0  0  0  0  0  0  0  0  0  0  0  0
    2.3337    0.0202   -0.5589 C   0  0  0  0  0  0  0  0  0  0  0  0
    4.5741    0.1223    0.6591 C   0  0  2  0  0  0  0  0  0  0  0  0
   -2.8579   -1.5571   -1.1099 C   0  0  1  0  0  0  0  0  0  0  0  0
    0.0252   -2.2228   -1.2415 C   0  0  0  0  0  0  0  0  0  0  0  0
    0.0065    0.6738    1.5567 C   0  0  0  0  0  0  0  0  0  0  0  0
    1.4563    0.4984   -1.4764 C   0  0  0  0  0  0  0  0  0  0  0  0
    6.1143    0.4186    0.7067 C   0  0  0  0  0  0  0  0  0  0  0  0
    4.1607   -1.1167    1.4816 C   0  0  0  0  0  0  0  0  0  0  0  0
    2.6711   -1.2563    1.5351 C   0  0  0  0  0  0  0  0  0  0  0  0
    4.2999    1.3966   -1.5034 C   0  0  0  0  0  0  0  0  0  0  0  0
    4.2438   -1.1270   -1.6193 C   0  0  0  0  0  0  0  0  0  0  0  0
   -4.3040   -1.6120   -0.5754 C   0  0  0  0  0  0  0  0  0  0  0  0
    5.8049    1.5934   -1.5937 C   0  0  0  0  0  0  0  0  0  0  0  0
    6.4332    1.5977   -0.2241 C   0  0  0  0  0  0  0  0  0  0  0  0
   -2.8164   -0.7244   -2.3959 C   0  0  0  0  0  0  0  0  0  0  0  0
    7.0245   -0.7559    0.3189 C   0  0  0  0  0  0  0  0  0  0  0  0
    6.5090    0.8372    2.1468 C   0  0  0  0  0  0  0  0  0  0  0  0
   -4.8685   -0.2309   -0.2065 C   0  0  0  0  0  0  0  0  0  0  0  0
   -6.3048   -0.3211    0.3423 C   0  0  1  0  0  0  0  0  0  0  0  0
   -6.9492    1.0546    0.6728 C   0  0  1  0  0  0  0  0  0  0  0  0
   -7.0636    1.9333   -0.5890 C   0  0  0  0  0  0  0  0  0  0  0  0
   -6.1732    1.7882    1.7745 C   0  0  0  0  0  0  0  0  0  0  0  0
   -2.2020    0.0255    0.1641 H   0  0  0  0  0  0  0  0  0  0  0  0
   -0.2969   -1.5951    2.7742 H   0  0  0  0  0  0  0  0  0  0  0  0
    0.1167   -2.7649    1.5266 H   0  0  0  0  0  0  0  0  0  0  0  0
   -2.1243   -2.8620    1.0603 H   0  0  0  0  0  0  0  0  0  0  0  0
   -2.4838   -1.3896    1.9675 H   0  0  0  0  0  0  0  0  0  0  0  0
   -0.5357    1.2105   -1.1423 H   0  0  0  0  0  0  0  0  0  0  0  0
   -0.3415    0.0901   -2.4798 H   0  0  0  0  0  0  0  0  0  0  0  0
    4.1188    0.9877    1.1738 H   0  0  0  0  0  0  0  0  0  0  0  0
   -2.5907   -2.5900   -1.3652 H   0  0  0  0  0  0  0  0  0  0  0  0
   -0.3945   -2.2918   -2.2493 H   0  0  0  0  0  0  0  0  0  0  0  0
    1.1087   -2.3166   -1.3603 H   0  0  0  0  0  0  0  0  0  0  0  0
   -0.3041   -3.1139   -0.6975 H   0  0  0  0  0  0  0  0  0  0  0  0
    0.5283    0.7310    2.5211 H   0  0  0  0  0  0  0  0  0  0  0  0
    0.3284    1.5430    0.9738 H   0  0  0  0  0  0  0  0  0  0  0  0
   -1.0564    0.8073    1.7785 H   0  0  0  0  0  0  0  0  0  0  0  0
    1.8117    1.0167   -2.3611 H   0  0  0  0  0  0  0  0  0  0  0  0
    4.5119   -1.0124    2.5132 H   0  0  0  0  0  0  0  0  0  0  0  0
    4.5957   -2.0410    1.0890 H   0  0  0  0  0  0  0  0  0  0  0  0
    2.2756   -1.7816    2.3999 H   0  0  0  0  0  0  0  0  0  0  0  0
    3.8614    2.2677   -0.9970 H   0  0  0  0  0  0  0  0  0  0  0  0
    3.9117    1.3994   -2.5289 H   0  0  0  0  0  0  0  0  0  0  0  0
    3.6729   -1.1267   -2.5569 H   0  0  0  0  0  0  0  0  0  0  0  0
    5.2921   -1.1493   -1.9130 H   0  0  0  0  0  0  0  0  0  0  0  0
    4.0207   -2.0740   -1.1173 H   0  0  0  0  0  0  0  0  0  0  0  0
   -4.3552   -2.2705    0.2995 H   0  0  0  0  0  0  0  0  0  0  0  0
   -4.9297   -2.0801   -1.3451 H   0  0  0  0  0  0  0  0  0  0  0  0
    6.0102    2.5585   -2.0716 H   0  0  0  0  0  0  0  0  0  0  0  0
    6.2878    0.8248   -2.2034 H   0  0  0  0  0  0  0  0  0  0  0  0
   -2.7669    0.3516   -2.2016 H   0  0  0  0  0  0  0  0  0  0  0  0
   -1.9857   -1.0145   -3.0415 H   0  0  0  0  0  0  0  0  0  0  0  0
   -3.7155   -0.9028   -2.9985 H   0  0  0  0  0  0  0  0  0  0  0  0
    6.9231   -1.0505   -0.7253 H   0  0  0  0  0  0  0  0  0  0  0  0
    6.8455   -1.6363    0.9436 H   0  0  0  0  0  0  0  0  0  0  0  0
    8.0798   -0.4822    0.4456 H   0  0  0  0  0  0  0  0  0  0  0  0
    7.5608    1.1436    2.2023 H   0  0  0  0  0  0  0  0  0  0  0  0
    6.3835    0.0184    2.8616 H   0  0  0  0  0  0  0  0  0  0  0  0
    5.9097    1.6878    2.4915 H   0  0  0  0  0  0  0  0  0  0  0  0
   -4.8588    0.3940   -1.1039 H   0  0  0  0  0  0  0  0  0  0  0  0
   -4.2399    0.2474    0.5477 H   0  0  0  0  0  0  0  0  0  0  0  0
   -6.3261   -0.9453    1.2448 H   0  0  0  0  0  0  0  0  0  0  0  0
   -6.9411   -1.9514   -0.5402 H   0  0  0  0  0  0  0  0  0  0  0  0
   -7.6437    1.4242   -1.3656 H   0  0  0  0  0  0  0  0  0  0  0  0
   -6.0818    2.1967   -0.9922 H   0  0  0  0  0  0  0  0  0  0  0  0
   -6.0508    1.1445    2.6532 H   0  0  0  0  0  0  0  0  0  0  0  0
   -6.7168    2.6749    2.1208 H   0  0  0  0  0  0  0  0  0  0  0  0
   -5.1829    2.1100    1.4388 H   0  0  0  0  0  0  0  0  0  0  0  0
   -8.6834    1.7107    1.3212 H   0  0  0  0  0  0  0  0  0  0  0  0
   -7.7926    3.6556   -1.1270 H   0  0  0  0  0  0  0  0  0  0  0  0
  1 26  2  0  0  0  0
  2 31  1  0  0  0  0
  2 75  1  0  0  0  0
  3 32  1  0  0  0  0
  3 81  1  0  0  0  0
  4 33  1  0  0  0  0
  4 82  1  0  0  0  0
  5  6  1  0  0  0  0
  5  7  1  0  0  0  0
  5 12  1  0  0  0  0
  5 16  1  0  0  0  0
  6  8  1  0  0  0  0
  6 10  1  0  0  0  0
  6 17  1  0  0  0  0
  7  9  1  0  0  0  0
  7 15  1  0  0  0  0
  7 35  1  0  0  0  0
  8  9  1  0  0  0  0
  8 36  1  0  0  0  0
  8 37  1  0  0  0  0
  9 38  1  0  0  0  0
  9 39  1  0  0  0  0
 10 13  1  0  0  0  0
 10 21  2  0  0  0  0
 11 13  1  0  0  0  0
 11 14  1  0  0  0  0
 11 22  1  0  0  0  0
 11 23  1  0  0  0  0
 12 18  1  0  0  0  0
 12 40  1  0  0  0  0
 12 41  1  0  0  0  0
 13 18  2  0  0  0  0
 14 19  1  0  0  0  0
 14 20  1  0  0  0  0
 14 42  1  0  0  0  0
 15 24  1  0  0  0  0
 15 27  1  0  0  0  0
 15 43  1  0  0  0  0
 16 44  1  0  0  0  0
 16 45  1  0  0  0  0
 16 46  1  0  0  0  0
 17 47  1  0  0  0  0
 17 48  1  0  0  0  0
 17 49  1  0  0  0  0
 18 50  1  0  0  0  0
 19 26  1  0  0  0  0
 19 28  1  0  0  0  0
 19 29  1  0  0  0  0
 20 21  1  0  0  0  0
 20 51  1  0  0  0  0
 20 52  1  0  0  0  0
 21 53  1  0  0  0  0
 22 25  1  0  0  0  0
 22 54  1  0  0  0  0
 22 55  1  0  0  0  0
 23 56  1  0  0  0  0
 23 57  1  0  0  0  0
 23 58  1  0  0  0  0
 24 30  1  0  0  0  0
 24 59  1  0  0  0  0
 24 60  1  0  0  0  0
 25 26  1  0  0  0  0
 25 61  1  0  0  0  0
 25 62  1  0  0  0  0
 27 63  1  0  0  0  0
 27 64  1  0  0  0  0
 27 65  1  0  0  0  0
 28 66  1  0  0  0  0
 28 67  1  0  0  0  0
 28 68  1  0  0  0  0
 29 69  1  0  0  0  0
 29 70  1  0  0  0  0
 29 71  1  0  0  0  0
 30 31  1  0  0  0  0
 30 72  1  0  0  0  0
 30 73  1  0  0  0  0
 31 32  1  0  0  0  0
 31 74  1  0  0  0  0
 32 33  1  0  0  0  0
 32 34  1  0  0  0  0
 33 76  1  0  0  0  0
 33 77  1  0  0  0  0
 34 78  1  0  0  0  0
 34 79  1  0  0  0  0
 34 80  1  0  0  0  0
M  END
> <PUBCHEM_COMPOUND_CID>
3001811

> <PUBCHEM_CONFORMER_RMSD>
1

> <PUBCHEM_CONFORMER_DIVERSEORDER>
2
9
10
4
8
1
3
5
6
7

> <PUBCHEM_MMFF94_PARTIAL_CHARGES>
23
1 -0.57
10 -0.14
11 0.14
12 0.14
13 -0.14
18 -0.29
19 0.06
2 -0.68
20 0.14
21 -0.29
25 0.06
26 0.45
3 -0.68
31 0.28
32 0.28
33 0.28
4 -0.68
50 0.15
53 0.15
6 0.14
75 0.4
81 0.4
82 0.4

> <PUBCHEM_EFFECTIVE_ROTOR_COUNT>
7.6

> <PUBCHEM_PHARMACOPHORE_FEATURES>
13
1 1 acceptor
1 2 acceptor
1 2 donor
1 27 hydrophobe
1 3 acceptor
1 3 donor
1 4 acceptor
1 4 donor
3 19 28 29 hydrophobe
5 5 6 7 8 9 rings
6 10 11 13 14 20 21 rings
6 11 14 19 22 25 26 rings
6 5 6 10 12 13 18 rings

> <PUBCHEM_HEAVY_ATOM_COUNT>
34

> <PUBCHEM_ATOM_DEF_STEREO_COUNT>
8

> <PUBCHEM_ATOM_UDEF_STEREO_COUNT>
0

> <PUBCHEM_BOND_DEF_STEREO_COUNT>
0

> <PUBCHEM_BOND_UDEF_STEREO_COUNT>
0

> <PUBCHEM_ISOTOPIC_ATOM_COUNT>
0

> <PUBCHEM_COMPONENT_COUNT>
1

> <PUBCHEM_CACTVS_TAUTO_COUNT>
2

> <PUBCHEM_CONFORMER_ID>
002DCDD300000002

> <PUBCHEM_MMFF94_ENERGY>
130.5884

> <PUBCHEM_FEATURE_SELFOVERLAP>
66.08

> <PUBCHEM_SHAPE_FINGERPRINT>
10 15 15430036599392420870
10554248 39 18057875862704687879
10693767 8 12463580547476678844
10816530 90 17988922305798105752
10906281 52 17895202138033026598
11181472 205 18201449043335420904
11456790 92 17967245408508237632
11475781 23 18060144227721585884
11578080 2 17899699252301926336
11646440 116 16732980942466158916
12011746 2 15051739728636787038
12035758 1 15864069888056532371
12120059 9 14261344744317321950
12236239 1 18337668715473851646
12539765 74 18411987944389330758
13782708 43 11674870096000194344
14028597 1 17967245373641850209
14251764 18 18260266390907133063
14394314 77 18187082832923618205
14849402 71 17895198865241768709
14856354 85 18337109064345600839
14955137 171 14056722369923169495
15082195 135 17417824954288149312
15183329 4 18334857229744467455
15198563 99 15266797545482195361
15461852 350 17917419961569979647
1577012 14 18409728452958695751
15840311 113 18187365364287274829
16728433 281 17346050977898986761
16994733 274 18413385449484991049
18608769 82 13839985525596012880
19611394 137 14490478599290001109
20028762 73 11024115330150087812
20105231 36 15791732980054230610
20511986 3 17561359599871027206
21033648 29 17988066894383230714
21130935 74 18040433317326077746
21267235 1 16588017992729686258
21424621 283 18410856564262032211
21521239 73 12535627171893325588
21756936 100 18335701668103105775
21781055 127 17894923889066833390
21792934 111 15791721997854496343
22122407 14 18261968439249727761
22149856 69 16660647298026954509
2215653 11 14476965605489800710
23522609 53 17459209501993349485
23559900 14 17240757454794396684
23569914 152 14544553482797617021
23576562 1 15840691015924661465
24771293 8 18113900502291849724
2747138 104 14273453677967857143
3009799 131 16200435779650402391
3178227 256 15936411143256925741
335352 9 13614249218063410284
3383291 50 12035454939279260481
3633792 109 17775015552967056830
392239 28 14923953353743743573
397830 11 13623821582503883591
4093350 32 18411140221409514494
4340502 62 16226045604637568138
439807 62 11383529207052089085
474113 269 16127823946733653190
5104073 3 17024027245353534008
5385378 56 17748822990838032474
563151 248 15719395061784638347
563151 97 14620256113085656471
58083652 198 16877935075389334925
59755656 215 15626227909423818562
6009941 240 17846778529059193471
6328613 192 18412262848361048761

> <PUBCHEM_SHAPE_MULTIPOLES>
676.23
22.46
2.25
1.98
21.3
0.83
0.02
15.74
-4.1
1.71
0.04
-0.75
-0.11
-1.58

> <PUBCHEM_SHAPE_SELFOVERLAP>
1423.101

> <PUBCHEM_SHAPE_VOLUME>
380.4

> <PUBCHEM_COORDINATE_TYPE>
2
5
10

$$$$
