471007
  -OEChem-09122005283D

 80 83  0     1  0  0  0  0  0999 V2000
    0.2279    3.4400    0.2200 O   0  0  0  0  0  0  0  0  0  0  0  0
   -7.3550   -1.2925    1.8843 O   0  0  0  0  0  0  0  0  0  0  0  0
    8.2896   -1.6404   -0.8470 O   0  0  0  0  0  0  0  0  0  0  0  0
    9.3559   -0.1396    2.1393 O   0  0  0  0  0  0  0  0  0  0  0  0
    0.4900   -0.1133   -0.7463 C   0  0  1  0  0  0  0  0  0  0  0  0
   -0.3207    1.0102   -0.0095 C   0  0  1  0  0  0  0  0  0  0  0  0
    1.9485    0.3294   -0.4777 C   0  0  2  0  0  0  0  0  0  0  0  0
    0.4019    2.2697   -0.5632 C   0  0  2  0  0  0  0  0  0  0  0  0
    1.8960    1.8685   -0.6387 C   0  0  0  0  0  0  0  0  0  0  0  0
   -1.8148    0.8090   -0.2715 C   0  0  0  0  0  0  0  0  0  0  0  0
   -3.8293   -0.8174   -0.4641 C   0  0  2  0  0  0  0  0  0  0  0  0
    0.0922   -1.4763   -0.1588 C   0  0  0  0  0  0  0  0  0  0  0  0
   -2.3007   -0.6057   -0.2441 C   0  0  0  0  0  0  0  0  0  0  0  0
   -4.5683    0.4044    0.2006 C   0  0  2  0  0  0  0  0  0  0  0  0
    3.0332   -0.3179   -1.3299 C   0  0  1  0  0  0  0  0  0  0  0  0
    0.2349   -0.1570   -2.2909 C   0  0  0  0  0  0  0  0  0  0  0  0
   -0.1821    0.9964    1.5487 C   0  0  0  0  0  0  0  0  0  0  0  0
   -1.4144   -1.6264   -0.1467 C   0  0  0  0  0  0  0  0  0  0  0  0
   -6.0991    0.2265    0.4627 C   0  0  0  0  0  0  0  0  0  0  0  0
   -4.1520    1.7193   -0.4814 C   0  0  0  0  0  0  0  0  0  0  0  0
   -2.6547    1.8457   -0.4608 C   0  0  0  0  0  0  0  0  0  0  0  0
   -4.4338   -2.1424    0.1044 C   0  0  0  0  0  0  0  0  0  0  0  0
   -3.9838   -0.8839   -2.0104 C   0  0  0  0  0  0  0  0  0  0  0  0
    4.4484    0.1792   -0.9638 C   0  0  0  0  0  0  0  0  0  0  0  0
   -5.1067   -1.9745    1.4588 C   0  0  0  0  0  0  0  0  0  0  0  0
   -6.2904   -1.0401    1.3173 C   0  0  0  0  0  0  0  0  0  0  0  0
    2.9748   -1.8421   -1.1753 C   0  0  0  0  0  0  0  0  0  0  0  0
   -6.9566    0.0840   -0.7991 C   0  0  0  0  0  0  0  0  0  0  0  0
   -6.6429    1.4161    1.2843 C   0  0  0  0  0  0  0  0  0  0  0  0
    4.8569   -0.0311    0.5010 C   0  0  0  0  0  0  0  0  0  0  0  0
    6.2157    0.5339    0.8097 C   0  0  0  0  0  0  0  0  0  0  0  0
    7.4150   -0.0779    0.7470 C   0  0  0  0  0  0  0  0  0  0  0  0
    7.4911   -1.5266    0.3236 C   0  0  0  0  0  0  0  0  0  0  0  0
    8.7330    0.5726    1.0774 C   0  0  0  0  0  0  0  0  0  0  0  0
    2.1643    0.1046    0.5728 H   0  0  0  0  0  0  0  0  0  0  0  0
    0.0366    2.5084   -1.5693 H   0  0  0  0  0  0  0  0  0  0  0  0
    2.3023    2.1936   -1.6036 H   0  0  0  0  0  0  0  0  0  0  0  0
    2.4890    2.3593    0.1416 H   0  0  0  0  0  0  0  0  0  0  0  0
    0.4693   -2.3045   -0.7622 H   0  0  0  0  0  0  0  0  0  0  0  0
    0.4802   -1.6242    0.8547 H   0  0  0  0  0  0  0  0  0  0  0  0
   -4.1446    0.4805    1.2194 H   0  0  0  0  0  0  0  0  0  0  0  0
    2.8886   -0.0779   -2.3904 H   0  0  0  0  0  0  0  0  0  0  0  0
    0.7034   -1.0288   -2.7567 H   0  0  0  0  0  0  0  0  0  0  0  0
    0.6276    0.7253   -2.8062 H   0  0  0  0  0  0  0  0  0  0  0  0
   -0.8275   -0.2151   -2.5444 H   0  0  0  0  0  0  0  0  0  0  0  0
    0.8454    1.1643    1.8851 H   0  0  0  0  0  0  0  0  0  0  0  0
   -0.5240    0.0608    2.0025 H   0  0  0  0  0  0  0  0  0  0  0  0
   -0.7866    1.7960    1.9962 H   0  0  0  0  0  0  0  0  0  0  0  0
   -1.7477   -2.6577   -0.1516 H   0  0  0  0  0  0  0  0  0  0  0  0
   -4.5263    1.7998   -1.5063 H   0  0  0  0  0  0  0  0  0  0  0  0
   -4.5529    2.5733    0.0741 H   0  0  0  0  0  0  0  0  0  0  0  0
   -2.2725    2.8612   -0.4995 H   0  0  0  0  0  0  0  0  0  0  0  0
   -5.1950   -2.5212   -0.5921 H   0  0  0  0  0  0  0  0  0  0  0  0
   -3.7017   -2.9488    0.1769 H   0  0  0  0  0  0  0  0  0  0  0  0
   -3.5375   -0.0258   -2.5243 H   0  0  0  0  0  0  0  0  0  0  0  0
   -5.0257   -0.9382   -2.3283 H   0  0  0  0  0  0  0  0  0  0  0  0
   -3.4875   -1.7787   -2.4082 H   0  0  0  0  0  0  0  0  0  0  0  0
    5.1784   -0.3195   -1.6157 H   0  0  0  0  0  0  0  0  0  0  0  0
    4.5256    1.2474   -1.2048 H   0  0  0  0  0  0  0  0  0  0  0  0
   -4.4188   -1.5853    2.2156 H   0  0  0  0  0  0  0  0  0  0  0  0
   -5.4756   -2.9463    1.8054 H   0  0  0  0  0  0  0  0  0  0  0  0
    0.7719    4.1408   -0.1778 H   0  0  0  0  0  0  0  0  0  0  0  0
    2.2168   -2.2900   -1.8194 H   0  0  0  0  0  0  0  0  0  0  0  0
    2.8123   -2.1551   -0.1392 H   0  0  0  0  0  0  0  0  0  0  0  0
    3.9197   -2.2952   -1.4997 H   0  0  0  0  0  0  0  0  0  0  0  0
   -6.7175    0.8510   -1.5417 H   0  0  0  0  0  0  0  0  0  0  0  0
   -8.0228    0.1833   -0.5605 H   0  0  0  0  0  0  0  0  0  0  0  0
   -6.8516   -0.9015   -1.2607 H   0  0  0  0  0  0  0  0  0  0  0  0
   -6.0420    1.5832    2.1855 H   0  0  0  0  0  0  0  0  0  0  0  0
   -7.6729    1.2401    1.6169 H   0  0  0  0  0  0  0  0  0  0  0  0
   -6.6537    2.3415    0.6996 H   0  0  0  0  0  0  0  0  0  0  0  0
    4.1582    0.4878    1.1668 H   0  0  0  0  0  0  0  0  0  0  0  0
    4.7902   -1.0854    0.7836 H   0  0  0  0  0  0  0  0  0  0  0  0
    6.2076    1.5821    1.1069 H   0  0  0  0  0  0  0  0  0  0  0  0
    6.5258   -1.9806    0.0947 H   0  0  0  0  0  0  0  0  0  0  0  0
    7.9510   -2.1252    1.1173 H   0  0  0  0  0  0  0  0  0  0  0  0
    8.6089    1.6149    1.3889 H   0  0  0  0  0  0  0  0  0  0  0  0
    9.4013    0.5606    0.2110 H   0  0  0  0  0  0  0  0  0  0  0  0
    8.3470   -2.5866   -1.0636 H   0  0  0  0  0  0  0  0  0  0  0  0
    8.7692   -0.0877    2.9134 H   0  0  0  0  0  0  0  0  0  0  0  0
  1  8  1  0  0  0  0
  1 62  1  0  0  0  0
  2 26  2  0  0  0  0
  3 33  1  0  0  0  0
  3 79  1  0  0  0  0
  4 34  1  0  0  0  0
  4 80  1  0  0  0  0
  5  6  1  0  0  0  0
  5  7  1  0  0  0  0
  5 12  1  0  0  0  0
  5 16  1  0  0  0  0
  6  8  1  0  0  0  0
  6 10  1  0  0  0  0
  6 17  1  0  0  0  0
  7  9  1  0  0  0  0
  7 15  1  0  0  0  0
  7 35  1  0  0  0  0
  8  9  1  0  0  0  0
  8 36  1  0  0  0  0
  9 37  1  0  0  0  0
  9 38  1  0  0  0  0
 10 13  1  0  0  0  0
 10 21  2  0  0  0  0
 11 13  1  0  0  0  0
 11 14  1  0  0  0  0
 11 22  1  0  0  0  0
 11 23  1  0  0  0  0
 12 18  1  0  0  0  0
 12 39  1  0  0  0  0
 12 40  1  0  0  0  0
 13 18  2  0  0  0  0
 14 19  1  0  0  0  0
 14 20  1  0  0  0  0
 14 41  1  0  0  0  0
 15 24  1  0  0  0  0
 15 27  1  0  0  0  0
 15 42  1  0  0  0  0
 16 43  1  0  0  0  0
 16 44  1  0  0  0  0
 16 45  1  0  0  0  0
 17 46  1  0  0  0  0
 17 47  1  0  0  0  0
 17 48  1  0  0  0  0
 18 49  1  0  0  0  0
 19 26  1  0  0  0  0
 19 28  1  0  0  0  0
 19 29  1  0  0  0  0
 20 21  1  0  0  0  0
 20 50  1  0  0  0  0
 20 51  1  0  0  0  0
 21 52  1  0  0  0  0
 22 25  1  0  0  0  0
 22 53  1  0  0  0  0
 22 54  1  0  0  0  0
 23 55  1  0  0  0  0
 23 56  1  0  0  0  0
 23 57  1  0  0  0  0
 24 30  1  0  0  0  0
 24 58  1  0  0  0  0
 24 59  1  0  0  0  0
 25 26  1  0  0  0  0
 25 60  1  0  0  0  0
 25 61  1  0  0  0  0
 27 63  1  0  0  0  0
 27 64  1  0  0  0  0
 27 65  1  0  0  0  0
 28 66  1  0  0  0  0
 28 67  1  0  0  0  0
 28 68  1  0  0  0  0
 29 69  1  0  0  0  0
 29 70  1  0  0  0  0
 29 71  1  0  0  0  0
 30 31  1  0  0  0  0
 30 72  1  0  0  0  0
 30 73  1  0  0  0  0
 31 32  2  0  0  0  0
 31 74  1  0  0  0  0
 32 33  1  0  0  0  0
 32 34  1  0  0  0  0
 33 75  1  0  0  0  0
 33 76  1  0  0  0  0
 34 77  1  0  0  0  0
 34 78  1  0  0  0  0
M  END
> <PUBCHEM_COMPOUND_CID>
471007

> <PUBCHEM_CONFORMER_RMSD>
1

> <PUBCHEM_CONFORMER_DIVERSEORDER>
2
8
5
3
10
9
6
1
7
4

> <PUBCHEM_MMFF94_PARTIAL_CHARGES>
27
1 -0.68
10 -0.14
11 0.14
12 0.14
13 -0.14
18 -0.29
19 0.06
2 -0.57
20 0.14
21 -0.29
25 0.06
26 0.45
3 -0.68
30 0.14
31 -0.29
32 -0.28
33 0.42
34 0.42
4 -0.68
49 0.15
52 0.15
6 0.14
62 0.4
74 0.15
79 0.4
8 0.28
80 0.4

> <PUBCHEM_EFFECTIVE_ROTOR_COUNT>
7.6

> <PUBCHEM_PHARMACOPHORE_FEATURES>
14
1 1 acceptor
1 1 donor
1 2 acceptor
1 27 hydrophobe
1 3 acceptor
1 3 donor
1 4 acceptor
1 4 donor
3 19 28 29 hydrophobe
4 15 24 30 31 hydrophobe
5 5 6 7 8 9 rings
6 10 11 13 14 20 21 rings
6 11 14 19 22 25 26 rings
6 5 6 10 12 13 18 rings

> <PUBCHEM_HEAVY_ATOM_COUNT>
34

> <PUBCHEM_ATOM_DEF_STEREO_COUNT>
7

> <PUBCHEM_ATOM_UDEF_STEREO_COUNT>
0

> <PUBCHEM_BOND_DEF_STEREO_COUNT>
0

> <PUBCHEM_BOND_UDEF_STEREO_COUNT>
0

> <PUBCHEM_ISOTOPIC_ATOM_COUNT>
0

> <PUBCHEM_COMPONENT_COUNT>
1

> <PUBCHEM_CACTVS_TAUTO_COUNT>
2

> <PUBCHEM_CONFORMER_ID>
00072FDF00000002

> <PUBCHEM_MMFF94_ENERGY>
125.8835

> <PUBCHEM_FEATURE_SELFOVERLAP>
71.154

> <PUBCHEM_SHAPE_FINGERPRINT>
10 15 18131350817398283470
10076449 9 15285359518473750510
10533779 47 18130797716222590970
10670039 82 10809332339244476734
11135926 11 18334851697542305823
11578080 2 12462475516894496659
11646440 116 18272096001923861392
12035758 1 18272938244925924781
12082328 90 14201392764141832742
12166972 35 17022907878013080900
12236239 1 17023189348879290717
12741549 16 17749107795005429869
13540713 4 17913777120232545212
13782708 43 17458911560101741987
13811026 1 18410009948608246806
14028597 1 18041276569787640448
14251764 18 18342176674308080092
14394314 77 18410855434390045857
14856354 85 18041003964272011531
15183329 4 13912320188116760104
15301273 46 18202569462847981270
16994733 274 14045748097179725218
18603816 31 17530965843326897579
19315958 150 17131843035932667263
19841028 212 17241035493639626554
2026 5 15213845023519829992
21033648 29 17274528914980092634
21150785 3 10953460730365694066
21267235 1 18334019389162542006
21792934 111 18412542111261179968
22224240 67 17560796646049633470
23522609 53 17679900147733181781
23559900 14 18339357594924243485
23576562 1 10591458621495877578
24771293 8 17846499244388962700
2747138 104 18411985746024996760
3383291 50 18186522133100413866
392239 28 17131833196452294000
4093350 32 16271939172794086950
4616759 239 18202285801300706571
5104073 3 18199476467286801874
5758199 1 15698281114432301750
59682541 35 18131348635439054234
6009941 240 18186799137216096141
9953998 17 17917708019850553930

> <PUBCHEM_SHAPE_MULTIPOLES>
676.23
23.33
2.26
1.63
38.42
0.7
0.01
-6.33
12.34
-1.17
0.03
-0.11
-0.31
1.06

> <PUBCHEM_SHAPE_SELFOVERLAP>
1423.285

> <PUBCHEM_SHAPE_VOLUME>
378.5

> <PUBCHEM_COORDINATE_TYPE>
2
5
10

$$$$
