11271456
  -OEChem-09122003333D

 76 79  0     1  0  0  0  0  0999 V2000
    0.7555   -3.4645   -0.7722 O   0  0  0  0  0  0  0  0  0  0  0  0
   -1.1095   -2.5200    1.5319 O   0  0  0  0  0  0  0  0  0  0  0  0
   -1.0193    2.8686   -0.5614 O   0  0  0  0  0  0  0  0  0  0  0  0
   -7.0462    0.8773   -0.8848 O   0  0  0  0  0  0  0  0  0  0  0  0
    7.5776    1.2709    0.8905 O   0  0  0  0  0  0  0  0  0  0  0  0
    6.4431   -0.6978    1.2889 O   0  0  0  0  0  0  0  0  0  0  0  0
    0.3268   -1.0206   -0.6957 C   0  0  1  0  0  0  0  0  0  0  0  0
    1.3234    0.1390   -0.3750 C   0  0  1  0  0  0  0  0  0  0  0  0
    2.6387   -0.3858   -1.0050 C   0  0  2  0  0  0  0  0  0  0  0  0
    1.1836   -2.2280   -0.2259 C   0  0  2  0  0  0  0  0  0  0  0  0
   -1.0335   -0.7043   -0.0591 C   0  0  0  0  0  0  0  0  0  0  0  0
   -3.0025    0.8875    0.3540 C   0  0  2  0  0  0  0  0  0  0  0  0
    2.6210   -1.8979   -0.6882 C   0  0  0  0  0  0  0  0  0  0  0  0
   -1.5422    0.5598   -0.0904 C   0  0  0  0  0  0  0  0  0  0  0  0
    0.7944    1.4232   -0.9942 C   0  0  0  0  0  0  0  0  0  0  0  0
   -3.8699   -0.4288    0.2285 C   0  0  1  0  0  0  0  0  0  0  0  0
   -1.8269   -1.8825    0.4764 C   0  0  2  0  0  0  0  0  0  0  0  0
    3.9312    0.2939   -0.5686 C   0  0  1  0  0  0  0  0  0  0  0  0
   -3.2114   -1.5518    1.0311 C   0  0  0  0  0  0  0  0  0  0  0  0
    0.0074   -1.2134   -2.2157 C   0  0  0  0  0  0  0  0  0  0  0  0
    1.5289    0.3861    1.1546 C   0  0  0  0  0  0  0  0  0  0  0  0
   -0.6336    1.6994   -0.5476 C   0  0  0  0  0  0  0  0  0  0  0  0
   -5.4172   -0.3198    0.4625 C   0  0  0  0  0  0  0  0  0  0  0  0
   -3.6998    1.9391   -0.5562 C   0  0  0  0  0  0  0  0  0  0  0  0
   -2.8752    1.4465    1.7881 C   0  0  0  0  0  0  0  0  0  0  0  0
   -5.1685    2.1701   -0.2304 C   0  0  0  0  0  0  0  0  0  0  0  0
   -5.9590    0.8925   -0.3040 C   0  0  0  0  0  0  0  0  0  0  0  0
    5.1384   -0.3719   -1.2588 C   0  0  0  0  0  0  0  0  0  0  0  0
    3.8568    1.7957   -0.8601 C   0  0  0  0  0  0  0  0  0  0  0  0
   -5.8544   -0.1970    1.9293 C   0  0  0  0  0  0  0  0  0  0  0  0
   -6.1131   -1.5811   -0.1153 C   0  0  0  0  0  0  0  0  0  0  0  0
    6.4767    0.2936   -0.9327 C   0  0  0  0  0  0  0  0  0  0  0  0
    6.8112    0.1959    0.5392 C   0  0  0  0  0  0  0  0  0  0  0  0
    7.9677    1.3262    2.2665 C   0  0  0  0  0  0  0  0  0  0  0  0
    2.5708   -0.2765   -2.0966 H   0  0  0  0  0  0  0  0  0  0  0  0
    1.1910   -2.3329    0.8636 H   0  0  0  0  0  0  0  0  0  0  0  0
    2.9113   -2.4848   -1.5673 H   0  0  0  0  0  0  0  0  0  0  0  0
    3.3152   -2.1605    0.1188 H   0  0  0  0  0  0  0  0  0  0  0  0
    0.8117    1.4009   -2.0888 H   0  0  0  0  0  0  0  0  0  0  0  0
    1.3592    2.3025   -0.6840 H   0  0  0  0  0  0  0  0  0  0  0  0
   -3.7812   -0.7229   -0.8323 H   0  0  0  0  0  0  0  0  0  0  0  0
   -1.9504   -2.6071   -0.3375 H   0  0  0  0  0  0  0  0  0  0  0  0
    4.0667    0.1727    0.5120 H   0  0  0  0  0  0  0  0  0  0  0  0
   -3.8017   -2.4736    1.0037 H   0  0  0  0  0  0  0  0  0  0  0  0
   -3.1504   -1.2957    2.0954 H   0  0  0  0  0  0  0  0  0  0  0  0
   -0.4680   -0.3343   -2.6635 H   0  0  0  0  0  0  0  0  0  0  0  0
    0.8946   -1.4407   -2.8141 H   0  0  0  0  0  0  0  0  0  0  0  0
   -0.6894   -2.0477   -2.3657 H   0  0  0  0  0  0  0  0  0  0  0  0
    2.0545   -0.4395    1.6451 H   0  0  0  0  0  0  0  0  0  0  0  0
    2.1081    1.2919    1.3536 H   0  0  0  0  0  0  0  0  0  0  0  0
    0.5831    0.5127    1.6903 H   0  0  0  0  0  0  0  0  0  0  0  0
   -3.6080    1.6290   -1.6060 H   0  0  0  0  0  0  0  0  0  0  0  0
   -3.2274    2.9208   -0.4731 H   0  0  0  0  0  0  0  0  0  0  0  0
   -2.4153    0.7295    2.4758 H   0  0  0  0  0  0  0  0  0  0  0  0
   -2.2425    2.3426    1.8048 H   0  0  0  0  0  0  0  0  0  0  0  0
   -3.8282    1.7510    2.2169 H   0  0  0  0  0  0  0  0  0  0  0  0
   -5.5863    2.8762   -0.9577 H   0  0  0  0  0  0  0  0  0  0  0  0
   -5.3047    2.6127    0.7605 H   0  0  0  0  0  0  0  0  0  0  0  0
    5.2009   -1.4308   -0.9829 H   0  0  0  0  0  0  0  0  0  0  0  0
    4.9997   -0.3411   -2.3471 H   0  0  0  0  0  0  0  0  0  0  0  0
   -0.0764   -3.7104   -0.3361 H   0  0  0  0  0  0  0  0  0  0  0  0
    3.2420    2.3234   -0.1319 H   0  0  0  0  0  0  0  0  0  0  0  0
    3.4929    1.9985   -1.8725 H   0  0  0  0  0  0  0  0  0  0  0  0
    4.8251    2.2907   -0.7634 H   0  0  0  0  0  0  0  0  0  0  0  0
   -5.4509   -1.0059    2.5458 H   0  0  0  0  0  0  0  0  0  0  0  0
   -6.9478   -0.2457    2.0102 H   0  0  0  0  0  0  0  0  0  0  0  0
   -5.5730    0.7539    2.3815 H   0  0  0  0  0  0  0  0  0  0  0  0
   -7.2056   -1.4968   -0.0638 H   0  0  0  0  0  0  0  0  0  0  0  0
   -5.8456   -2.4893    0.4326 H   0  0  0  0  0  0  0  0  0  0  0  0
   -5.8538   -1.7289   -1.1701 H   0  0  0  0  0  0  0  0  0  0  0  0
   -1.5983   -3.3245    1.7762 H   0  0  0  0  0  0  0  0  0  0  0  0
    6.5155    1.3305   -1.2740 H   0  0  0  0  0  0  0  0  0  0  0  0
    7.2739   -0.2356   -1.4691 H   0  0  0  0  0  0  0  0  0  0  0  0
    8.5705    2.2264    2.4130 H   0  0  0  0  0  0  0  0  0  0  0  0
    8.5733    0.4520    2.5238 H   0  0  0  0  0  0  0  0  0  0  0  0
    7.0835    1.3872    2.9082 H   0  0  0  0  0  0  0  0  0  0  0  0
  1 10  1  0  0  0  0
  1 61  1  0  0  0  0
  2 17  1  0  0  0  0
  2 71  1  0  0  0  0
  3 22  2  0  0  0  0
  4 27  2  0  0  0  0
  5 33  1  0  0  0  0
  5 34  1  0  0  0  0
  6 33  2  0  0  0  0
  7  8  1  0  0  0  0
  7 10  1  0  0  0  0
  7 11  1  0  0  0  0
  7 20  1  0  0  0  0
  8  9  1  0  0  0  0
  8 15  1  0  0  0  0
  8 21  1  0  0  0  0
  9 13  1  0  0  0  0
  9 18  1  0  0  0  0
  9 35  1  0  0  0  0
 10 13  1  0  0  0  0
 10 36  1  0  0  0  0
 11 14  2  0  0  0  0
 11 17  1  0  0  0  0
 12 14  1  0  0  0  0
 12 16  1  0  0  0  0
 12 24  1  0  0  0  0
 12 25  1  0  0  0  0
 13 37  1  0  0  0  0
 13 38  1  0  0  0  0
 14 22  1  0  0  0  0
 15 22  1  0  0  0  0
 15 39  1  0  0  0  0
 15 40  1  0  0  0  0
 16 19  1  0  0  0  0
 16 23  1  0  0  0  0
 16 41  1  0  0  0  0
 17 19  1  0  0  0  0
 17 42  1  0  0  0  0
 18 28  1  0  0  0  0
 18 29  1  0  0  0  0
 18 43  1  0  0  0  0
 19 44  1  0  0  0  0
 19 45  1  0  0  0  0
 20 46  1  0  0  0  0
 20 47  1  0  0  0  0
 20 48  1  0  0  0  0
 21 49  1  0  0  0  0
 21 50  1  0  0  0  0
 21 51  1  0  0  0  0
 23 27  1  0  0  0  0
 23 30  1  0  0  0  0
 23 31  1  0  0  0  0
 24 26  1  0  0  0  0
 24 52  1  0  0  0  0
 24 53  1  0  0  0  0
 25 54  1  0  0  0  0
 25 55  1  0  0  0  0
 25 56  1  0  0  0  0
 26 27  1  0  0  0  0
 26 57  1  0  0  0  0
 26 58  1  0  0  0  0
 28 32  1  0  0  0  0
 28 59  1  0  0  0  0
 28 60  1  0  0  0  0
 29 62  1  0  0  0  0
 29 63  1  0  0  0  0
 29 64  1  0  0  0  0
 30 65  1  0  0  0  0
 30 66  1  0  0  0  0
 30 67  1  0  0  0  0
 31 68  1  0  0  0  0
 31 69  1  0  0  0  0
 31 70  1  0  0  0  0
 32 33  1  0  0  0  0
 32 72  1  0  0  0  0
 32 73  1  0  0  0  0
 34 74  1  0  0  0  0
 34 75  1  0  0  0  0
 34 76  1  0  0  0  0
M  END
> <PUBCHEM_COMPOUND_CID>
11271456

> <PUBCHEM_CONFORMER_RMSD>
1

> <PUBCHEM_CONFORMER_DIVERSEORDER>
1
4
2
3

> <PUBCHEM_MMFF94_PARTIAL_CHARGES>
22
1 -0.68
10 0.28
11 -0.28
12 0.14
14 -0.12
15 0.06
17 0.42
2 -0.68
22 0.49
23 0.06
26 0.06
27 0.45
3 -0.57
32 0.06
33 0.66
34 0.28
4 -0.57
5 -0.43
6 -0.57
61 0.4
7 0.14
71 0.4

> <PUBCHEM_EFFECTIVE_ROTOR_COUNT>
6.8

> <PUBCHEM_PHARMACOPHORE_FEATURES>
13
1 1 acceptor
1 1 donor
1 2 acceptor
1 2 donor
1 29 hydrophobe
1 3 acceptor
1 4 acceptor
1 6 acceptor
3 23 30 31 hydrophobe
5 7 8 9 10 13 rings
6 11 12 14 16 17 19 rings
6 12 16 23 24 26 27 rings
6 7 8 11 14 15 22 rings

> <PUBCHEM_HEAVY_ATOM_COUNT>
34

> <PUBCHEM_ATOM_DEF_STEREO_COUNT>
8

> <PUBCHEM_ATOM_UDEF_STEREO_COUNT>
0

> <PUBCHEM_BOND_DEF_STEREO_COUNT>
0

> <PUBCHEM_BOND_UDEF_STEREO_COUNT>
0

> <PUBCHEM_ISOTOPIC_ATOM_COUNT>
0

> <PUBCHEM_COMPONENT_COUNT>
1

> <PUBCHEM_CACTVS_TAUTO_COUNT>
4

> <PUBCHEM_CONFORMER_ID>
00ABFD2000000001

> <PUBCHEM_MMFF94_ENERGY>
131.2828

> <PUBCHEM_FEATURE_SELFOVERLAP>
66.064

> <PUBCHEM_SHAPE_FINGERPRINT>
10 15 18412258463785112376
10675989 125 16818258768444712133
10906281 52 18191050987124096727
10930396 42 18189314901704888728
11136131 41 18262795159929760642
11331351 85 13118001097905801134
11578080 2 14187915969069841649
11719270 70 18409731734029159350
12011746 2 18411144627697274535
12035758 1 18339090366295473027
12107698 1 17458344143846920620
12236239 1 16805611381719136343
12422481 6 18187083919676028518
12838862 33 18334284354506889829
13224815 77 18270128920546453907
13383668 254 16988851601186945651
13402501 40 18410017632331308125
13782708 43 17773612528590008246
13811026 1 18335139756909135239
13914758 101 16153421718861008277
14849402 71 16773794844011810680
15183329 4 18260272945143069804
15510800 12 12974147547312506648
16994733 274 15985107388165054762
17349148 13 18335427872232047173
18603816 31 15357976819416892648
18608769 82 18262248806820935523
18681886 176 18410294752185014581
20511986 3 18335977580258469623
20554085 129 18342444929380897802
21033648 29 18272652346101309488
21130935 74 18272093755846388974
21150785 3 14836402545247817172
21521721 280 17489590060942001174
21859007 373 18334846200358817284
22224240 67 18272649056504526662
23559900 14 18411420626933944153
23569917 315 18411992351195198662
24771293 8 18272936028966101224
3178227 256 18340779211861061969
3383291 50 18187089498216762571
34797466 226 16272215176283317884
350125 39 18411421717633980964
392239 28 18410304609430234809
4093350 32 17273990050807570151
4340502 62 18342461422303130022
5104073 3 18263654961115891571
513202 73 15285625565790991950
59755656 215 18335709307863293894
6371009 1 18410858767501555820

> <PUBCHEM_SHAPE_MULTIPOLES>
664.49
18.05
2.6
1.6
17.9
0.71
-0.48
-6.21
-6.15
-0.98
0.21
1.16
-0.06
1.5

> <PUBCHEM_SHAPE_SELFOVERLAP>
1411.072

> <PUBCHEM_SHAPE_VOLUME>
368.4

> <PUBCHEM_COORDINATE_TYPE>
2
5
10

$$$$
