21632956
  -OEChem-09122004003D

 83 86  0     1  0  0  0  0  0999 V2000
    0.3422    3.1503    0.7544 O   0  0  0  0  0  0  0  0  0  0  0  0
   -1.8980    2.6377   -1.3545 O   0  0  0  0  0  0  0  0  0  0  0  0
   -8.1329   -0.7177    0.8438 O   0  0  0  0  0  0  0  0  0  0  0  0
   -2.0091   -2.9590    0.1229 O   0  0  0  0  0  0  0  0  0  0  0  0
    5.6354   -1.3708   -1.6168 O   0  0  0  0  0  0  0  0  0  0  0  0
    7.2725    2.0721   -0.1671 O   0  0  0  0  0  0  0  0  0  0  0  0
    8.6803    0.5440   -1.0805 O   0  0  0  0  0  0  0  0  0  0  0  0
   -0.3095    0.7735    0.4581 C   0  0  2  0  0  0  0  0  0  0  0  0
    0.5258   -0.4044   -0.1380 C   0  0  1  0  0  0  0  0  0  0  0  0
    1.9570   -0.0589    0.3469 C   0  0  2  0  0  0  0  0  0  0  0  0
   -3.9060   -0.7411   -0.3150 C   0  0  1  0  0  0  0  0  0  0  0  0
   -1.7664    0.6391   -0.0050 C   0  0  0  0  0  0  0  0  0  0  0  0
    0.5784    1.9667    0.0102 C   0  0  2  0  0  0  0  0  0  0  0  0
   -4.6284    0.6058    0.0939 C   0  0  2  0  0  0  0  0  0  0  0  0
   -2.3766   -0.5791   -0.0451 C   0  0  0  0  0  0  0  0  0  0  0  0
    2.0309    1.4782    0.2121 C   0  0  0  0  0  0  0  0  0  0  0  0
   -0.0239   -1.7159    0.4005 C   0  0  0  0  0  0  0  0  0  0  0  0
   -6.2036    0.6225    0.0851 C   0  0  0  0  0  0  0  0  0  0  0  0
   -2.5159    1.9301   -0.2808 C   0  0  2  0  0  0  0  0  0  0  0  0
   -3.9905    1.7782   -0.6530 C   0  0  0  0  0  0  0  0  0  0  0  0
   -4.5628   -1.8745    0.5262 C   0  0  0  0  0  0  0  0  0  0  0  0
    3.1114   -0.7691   -0.3502 C   0  0  1  0  0  0  0  0  0  0  0  0
   -0.3986    0.7934    2.0206 C   0  0  0  0  0  0  0  0  0  0  0  0
    0.4948   -0.4695   -1.6993 C   0  0  0  0  0  0  0  0  0  0  0  0
   -1.5214   -1.8289    0.1559 C   0  0  0  0  0  0  0  0  0  0  0  0
   -6.7122   -0.5985    0.8987 C   0  0  2  0  0  0  0  0  0  0  0  0
   -6.0867   -1.9129    0.4589 C   0  0  0  0  0  0  0  0  0  0  0  0
   -4.0127   -1.1016   -1.8141 C   0  0  0  0  0  0  0  0  0  0  0  0
   -6.8267    0.6705   -1.3255 C   0  0  0  0  0  0  0  0  0  0  0  0
   -6.7150    1.8968    0.8168 C   0  0  0  0  0  0  0  0  0  0  0  0
    4.4691   -0.3476    0.2361 C   0  0  0  0  0  0  0  0  0  0  0  0
    2.9436   -2.2872   -0.2301 C   0  0  0  0  0  0  0  0  0  0  0  0
    5.6507   -1.0341   -0.4330 C   0  0  0  0  0  0  0  0  0  0  0  0
    6.8579   -1.3187    0.4388 C   0  0  0  0  0  0  0  0  0  0  0  0
    7.4804   -0.0223    0.9631 C   0  0  1  0  0  0  0  0  0  0  0  0
    8.6790   -0.3075    1.8687 C   0  0  0  0  0  0  0  0  0  0  0  0
    7.8873    0.8607   -0.2039 C   0  0  0  0  0  0  0  0  0  0  0  0
    2.0317   -0.2996    1.4167 H   0  0  0  0  0  0  0  0  0  0  0  0
    0.4322    2.2071   -1.0473 H   0  0  0  0  0  0  0  0  0  0  0  0
   -4.3700    0.7565    1.1569 H   0  0  0  0  0  0  0  0  0  0  0  0
    2.6310    1.7887   -0.6513 H   0  0  0  0  0  0  0  0  0  0  0  0
    2.4926    1.9242    1.1007 H   0  0  0  0  0  0  0  0  0  0  0  0
    0.4118   -2.5825   -0.0995 H   0  0  0  0  0  0  0  0  0  0  0  0
    0.1561   -1.8377    1.4737 H   0  0  0  0  0  0  0  0  0  0  0  0
   -2.4473    2.5588    0.6155 H   0  0  0  0  0  0  0  0  0  0  0  0
   -4.1057    1.6709   -1.7375 H   0  0  0  0  0  0  0  0  0  0  0  0
   -4.4827    2.7271   -0.4156 H   0  0  0  0  0  0  0  0  0  0  0  0
   -4.2326   -2.8611    0.1884 H   0  0  0  0  0  0  0  0  0  0  0  0
   -4.2560   -1.7778    1.5763 H   0  0  0  0  0  0  0  0  0  0  0  0
    3.1291   -0.5159   -1.4175 H   0  0  0  0  0  0  0  0  0  0  0  0
   -0.9921    1.6488    2.3670 H   0  0  0  0  0  0  0  0  0  0  0  0
    0.5791    0.8796    2.5039 H   0  0  0  0  0  0  0  0  0  0  0  0
   -0.8831   -0.1001    2.4286 H   0  0  0  0  0  0  0  0  0  0  0  0
    0.9616   -1.3804   -2.0840 H   0  0  0  0  0  0  0  0  0  0  0  0
   -0.5233   -0.4631   -2.1002 H   0  0  0  0  0  0  0  0  0  0  0  0
    1.0167    0.3733   -2.1636 H   0  0  0  0  0  0  0  0  0  0  0  0
   -6.4586   -0.4424    1.9562 H   0  0  0  0  0  0  0  0  0  0  0  0
   -6.4522   -2.7214    1.1056 H   0  0  0  0  0  0  0  0  0  0  0  0
   -6.4286   -2.1842   -0.5462 H   0  0  0  0  0  0  0  0  0  0  0  0
   -3.6150   -0.3160   -2.4640 H   0  0  0  0  0  0  0  0  0  0  0  0
   -5.0321   -1.3132   -2.1324 H   0  0  0  0  0  0  0  0  0  0  0  0
   -3.4391   -2.0096   -2.0399 H   0  0  0  0  0  0  0  0  0  0  0  0
   -6.7339   -0.2717   -1.8642 H   0  0  0  0  0  0  0  0  0  0  0  0
   -7.9022    0.8794   -1.2704 H   0  0  0  0  0  0  0  0  0  0  0  0
   -6.3864    1.4614   -1.9401 H   0  0  0  0  0  0  0  0  0  0  0  0
   -7.8004    1.8627    0.9679 H   0  0  0  0  0  0  0  0  0  0  0  0
   -6.5082    2.8088    0.2483 H   0  0  0  0  0  0  0  0  0  0  0  0
   -6.2510    2.0018    1.8038 H   0  0  0  0  0  0  0  0  0  0  0  0
    4.6272    0.7307    0.1337 H   0  0  0  0  0  0  0  0  0  0  0  0
    4.4893   -0.5905    1.3054 H   0  0  0  0  0  0  0  0  0  0  0  0
    0.9869    3.8151    0.4581 H   0  0  0  0  0  0  0  0  0  0  0  0
    2.6336   -2.5842    0.7774 H   0  0  0  0  0  0  0  0  0  0  0  0
    3.8731   -2.8282   -0.4330 H   0  0  0  0  0  0  0  0  0  0  0  0
    2.2396   -2.6812   -0.9639 H   0  0  0  0  0  0  0  0  0  0  0  0
   -2.3394    3.5009   -1.4311 H   0  0  0  0  0  0  0  0  0  0  0  0
   -8.3885   -1.4673    1.4079 H   0  0  0  0  0  0  0  0  0  0  0  0
    7.5835   -1.8839   -0.1589 H   0  0  0  0  0  0  0  0  0  0  0  0
    6.5406   -1.9676    1.2627 H   0  0  0  0  0  0  0  0  0  0  0  0
    6.7379    0.5228    1.5594 H   0  0  0  0  0  0  0  0  0  0  0  0
    8.3785   -0.9019    2.7375 H   0  0  0  0  0  0  0  0  0  0  0  0
    9.1212    0.6273    2.2296 H   0  0  0  0  0  0  0  0  0  0  0  0
    9.4610   -0.8554    1.3317 H   0  0  0  0  0  0  0  0  0  0  0  0
    7.5403    2.6405   -0.9203 H   0  0  0  0  0  0  0  0  0  0  0  0
  1 13  1  0  0  0  0
  1 71  1  0  0  0  0
  2 19  1  0  0  0  0
  2 75  1  0  0  0  0
  3 26  1  0  0  0  0
  3 76  1  0  0  0  0
  4 25  2  0  0  0  0
  5 33  2  0  0  0  0
  6 37  1  0  0  0  0
  6 83  1  0  0  0  0
  7 37  2  0  0  0  0
  8  9  1  0  0  0  0
  8 12  1  0  0  0  0
  8 13  1  0  0  0  0
  8 23  1  0  0  0  0
  9 10  1  0  0  0  0
  9 17  1  0  0  0  0
  9 24  1  0  0  0  0
 10 16  1  0  0  0  0
 10 22  1  0  0  0  0
 10 38  1  0  0  0  0
 11 14  1  0  0  0  0
 11 15  1  0  0  0  0
 11 21  1  0  0  0  0
 11 28  1  0  0  0  0
 12 15  2  0  0  0  0
 12 19  1  0  0  0  0
 13 16  1  0  0  0  0
 13 39  1  0  0  0  0
 14 18  1  0  0  0  0
 14 20  1  0  0  0  0
 14 40  1  0  0  0  0
 15 25  1  0  0  0  0
 16 41  1  0  0  0  0
 16 42  1  0  0  0  0
 17 25  1  0  0  0  0
 17 43  1  0  0  0  0
 17 44  1  0  0  0  0
 18 26  1  0  0  0  0
 18 29  1  0  0  0  0
 18 30  1  0  0  0  0
 19 20  1  0  0  0  0
 19 45  1  0  0  0  0
 20 46  1  0  0  0  0
 20 47  1  0  0  0  0
 21 27  1  0  0  0  0
 21 48  1  0  0  0  0
 21 49  1  0  0  0  0
 22 31  1  0  0  0  0
 22 32  1  0  0  0  0
 22 50  1  0  0  0  0
 23 51  1  0  0  0  0
 23 52  1  0  0  0  0
 23 53  1  0  0  0  0
 24 54  1  0  0  0  0
 24 55  1  0  0  0  0
 24 56  1  0  0  0  0
 26 27  1  0  0  0  0
 26 57  1  0  0  0  0
 27 58  1  0  0  0  0
 27 59  1  0  0  0  0
 28 60  1  0  0  0  0
 28 61  1  0  0  0  0
 28 62  1  0  0  0  0
 29 63  1  0  0  0  0
 29 64  1  0  0  0  0
 29 65  1  0  0  0  0
 30 66  1  0  0  0  0
 30 67  1  0  0  0  0
 30 68  1  0  0  0  0
 31 33  1  0  0  0  0
 31 69  1  0  0  0  0
 31 70  1  0  0  0  0
 32 72  1  0  0  0  0
 32 73  1  0  0  0  0
 32 74  1  0  0  0  0
 33 34  1  0  0  0  0
 34 35  1  0  0  0  0
 34 77  1  0  0  0  0
 34 78  1  0  0  0  0
 35 36  1  0  0  0  0
 35 37  1  0  0  0  0
 35 79  1  0  0  0  0
 36 80  1  0  0  0  0
 36 81  1  0  0  0  0
 36 82  1  0  0  0  0
M  END
> <PUBCHEM_COMPOUND_CID>
21632956

> <PUBCHEM_CONFORMER_RMSD>
1

> <PUBCHEM_CONFORMER_DIVERSEORDER>
2
15
20
23
16
10
17
19
12
9
13
4
8
14
22
1
21
6
7
18
11
5
3

> <PUBCHEM_MMFF94_PARTIAL_CHARGES>
25
1 -0.68
11 0.14
12 -0.28
13 0.28
15 -0.12
17 0.06
19 0.42
2 -0.68
25 0.49
26 0.28
3 -0.68
31 0.06
33 0.45
34 0.06
35 0.06
37 0.66
4 -0.57
5 -0.57
6 -0.65
7 -0.57
71 0.4
75 0.4
76 0.4
8 0.14
83 0.5

> <PUBCHEM_EFFECTIVE_ROTOR_COUNT>
8

> <PUBCHEM_PHARMACOPHORE_FEATURES>
18
1 1 acceptor
1 1 donor
1 2 acceptor
1 2 donor
1 3 acceptor
1 3 donor
1 32 hydrophobe
1 36 hydrophobe
1 4 acceptor
1 5 acceptor
1 6 acceptor
1 7 acceptor
3 18 29 30 hydrophobe
3 6 7 37 anion
5 8 9 10 13 16 rings
6 11 12 14 15 19 20 rings
6 11 14 18 21 26 27 rings
6 8 9 12 15 17 25 rings

> <PUBCHEM_HEAVY_ATOM_COUNT>
37

> <PUBCHEM_ATOM_DEF_STEREO_COUNT>
9

> <PUBCHEM_ATOM_UDEF_STEREO_COUNT>
1

> <PUBCHEM_BOND_DEF_STEREO_COUNT>
0

> <PUBCHEM_BOND_UDEF_STEREO_COUNT>
0

> <PUBCHEM_ISOTOPIC_ATOM_COUNT>
0

> <PUBCHEM_COMPONENT_COUNT>
1

> <PUBCHEM_CACTVS_TAUTO_COUNT>
6

> <PUBCHEM_CONFORMER_ID>
014A17BC00000002

> <PUBCHEM_MMFF94_ENERGY>
139.2191

> <PUBCHEM_FEATURE_SELFOVERLAP>
91.5

> <PUBCHEM_SHAPE_FINGERPRINT>
10 15 18261111885684905370
10050765 1 18122907800262136378
10076449 9 18413393145876611064
10290309 65 18199182897629964678
11007060 377 18409738334976753097
11135926 11 18336535054445470166
11181472 205 14763802835990015962
11315181 36 18272933817685093817
11578080 2 16986856068211243747
12236239 1 17167866340083766831
12516196 113 18342740715314991794
12664476 115 18409446991167476561
12838862 33 18339908360139504186
13383668 251 17559369530863352849
13726171 33 18116994373879541169
13811026 1 18411134753261492589
14251764 18 18413387635707629770
14394314 77 18337112272163892377
14840074 17 16558747884532069222
14856354 85 16630803331497935485
15064986 266 18129672880918303180
15082195 135 18337411378893392222
15131766 46 13684572911933709506
15183329 4 18335413560873788474
15274700 242 18041545958584312434
15301273 46 13254799036266982208
15361156 5 18342735260363771205
15461852 350 8574422132711563601
15849732 13 17917993884368068620
16087824 20 18338516319213013257
18335252 98 18412830175281893854
18608769 82 18408323302420003939
21267235 1 18411143519379511955
23559900 14 18341043116242667616
24771750 20 18122351430943242884
249057 3 18410574010921372085
3178227 256 18335713736686667651
335352 9 18411697695352901909
3383291 50 18335702766797595915
34797466 226 18131077030908840334
350125 39 18409731742476383061
4073 2 18261397758386991114
4093350 32 16845296008215010750
5265222 85 18342457071142725286
6201320 215 15720495578234340892

> <PUBCHEM_SHAPE_MULTIPOLES>
720.36
23.63
2.56
1.32
31.13
0.43
-0.07
0.04
2.97
-1.3
-0.02
0.31
0.02
0.43

> <PUBCHEM_SHAPE_SELFOVERLAP>
1522.873

> <PUBCHEM_SHAPE_VOLUME>
399.1

> <PUBCHEM_COORDINATE_TYPE>
2
5
10

$$$$
