21632959
  -OEChem-09122004383D

 80 83  0     1  0  0  0  0  0999 V2000
    0.3155   -1.2309   -2.9278 O   0  0  0  0  0  0  0  0  0  0  0  0
   -2.1141    2.3161    1.9035 O   0  0  0  0  0  0  0  0  0  0  0  0
   -2.2634   -1.1877   -2.8536 O   0  0  0  0  0  0  0  0  0  0  0  0
   -7.4134   -0.5245    1.9381 O   0  0  0  0  0  0  0  0  0  0  0  0
    6.2670    2.6933    0.2621 O   0  0  0  0  0  0  0  0  0  0  0  0
    5.5545   -2.3172    1.6188 O   0  0  0  0  0  0  0  0  0  0  0  0
    7.6168   -2.6115    0.6280 O   0  0  0  0  0  0  0  0  0  0  0  0
    0.4851    0.8727   -0.1684 C   0  0  1  0  0  0  0  0  0  0  0  0
   -0.4289    0.5664   -1.4046 C   0  0  2  0  0  0  0  0  0  0  0  0
    1.8504    1.2150   -0.8200 C   0  0  2  0  0  0  0  0  0  0  0  0
   -3.7675    0.2128    0.7402 C   0  0  1  0  0  0  0  0  0  0  0  0
   -1.7761    0.0965   -0.9024 C   0  0  0  0  0  0  0  0  0  0  0  0
   -4.5531   -0.6121   -0.3402 C   0  0  2  0  0  0  0  0  0  0  0  0
   -2.3687    0.6253    0.2007 C   0  0  0  0  0  0  0  0  0  0  0  0
   -0.1461    2.0085    0.6238 C   0  0  0  0  0  0  0  0  0  0  0  0
    2.0157    0.1147   -1.8830 C   0  0  0  0  0  0  0  0  0  0  0  0
    0.5815   -0.3172   -2.1593 C   0  0  0  0  0  0  0  0  0  0  0  0
   -5.9382   -1.1771    0.1231 C   0  0  0  0  0  0  0  0  0  0  0  0
    3.0514    1.3002    0.1151 C   0  0  1  0  0  0  0  0  0  0  0  0
    0.6571   -0.3546    0.7933 C   0  0  0  0  0  0  0  0  0  0  0  0
   -3.6499   -1.6576   -0.9855 C   0  0  0  0  0  0  0  0  0  0  0  0
   -1.5924    1.6898    0.9798 C   0  0  0  0  0  0  0  0  0  0  0  0
   -4.6518    1.4521    1.0937 C   0  0  0  0  0  0  0  0  0  0  0  0
   -0.7080    1.7563   -2.3610 C   0  0  0  0  0  0  0  0  0  0  0  0
   -2.5305   -0.9334   -1.6818 C   0  0  0  0  0  0  0  0  0  0  0  0
   -3.5066   -0.5989    2.0332 C   0  0  0  0  0  0  0  0  0  0  0  0
   -6.1618    1.2571    0.9611 C   0  0  0  0  0  0  0  0  0  0  0  0
   -6.5665   -0.1886    1.1106 C   0  0  0  0  0  0  0  0  0  0  0  0
    4.3289    1.5987   -0.6867 C   0  0  0  0  0  0  0  0  0  0  0  0
   -5.8705   -2.5800    0.7544 C   0  0  0  0  0  0  0  0  0  0  0  0
   -6.8977   -1.2610   -1.0840 C   0  0  0  0  0  0  0  0  0  0  0  0
    2.8049    2.3709    1.1836 C   0  0  0  0  0  0  0  0  0  0  0  0
    5.5886    1.6711    0.1638 C   0  0  0  0  0  0  0  0  0  0  0  0
    5.9688    0.4102    0.9192 C   0  0  0  0  0  0  0  0  0  0  0  0
    6.1823   -0.7624   -0.0396 C   0  0  1  0  0  0  0  0  0  0  0  0
    7.2879   -0.4495   -1.0471 C   0  0  0  0  0  0  0  0  0  0  0  0
    6.5593   -2.0062    0.7481 C   0  0  0  0  0  0  0  0  0  0  0  0
    5.7896   -3.4574    2.4506 C   0  0  0  0  0  0  0  0  0  0  0  0
    1.7684    2.1818   -1.3355 H   0  0  0  0  0  0  0  0  0  0  0  0
   -4.7768    0.1156   -1.1401 H   0  0  0  0  0  0  0  0  0  0  0  0
    0.3378    2.1642    1.5877 H   0  0  0  0  0  0  0  0  0  0  0  0
   -0.1294    2.9580    0.0791 H   0  0  0  0  0  0  0  0  0  0  0  0
    2.5788   -0.7489   -1.5168 H   0  0  0  0  0  0  0  0  0  0  0  0
    2.4666    0.5058   -2.7991 H   0  0  0  0  0  0  0  0  0  0  0  0
    3.2006    0.3413    0.6230 H   0  0  0  0  0  0  0  0  0  0  0  0
    1.1585   -1.1989    0.3097 H   0  0  0  0  0  0  0  0  0  0  0  0
   -0.2935   -0.7401    1.1723 H   0  0  0  0  0  0  0  0  0  0  0  0
    1.2442   -0.0911    1.6789 H   0  0  0  0  0  0  0  0  0  0  0  0
   -3.2242   -2.3707   -0.2734 H   0  0  0  0  0  0  0  0  0  0  0  0
   -4.1987   -2.2287   -1.7424 H   0  0  0  0  0  0  0  0  0  0  0  0
   -4.4550    1.7662    2.1269 H   0  0  0  0  0  0  0  0  0  0  0  0
   -4.3797    2.3076    0.4610 H   0  0  0  0  0  0  0  0  0  0  0  0
   -1.3166    1.4273   -3.2131 H   0  0  0  0  0  0  0  0  0  0  0  0
    0.2009    2.1839   -2.7959 H   0  0  0  0  0  0  0  0  0  0  0  0
   -1.2555    2.5693   -1.8726 H   0  0  0  0  0  0  0  0  0  0  0  0
   -4.4278   -0.8146    2.5808 H   0  0  0  0  0  0  0  0  0  0  0  0
   -2.8689   -0.0505    2.7364 H   0  0  0  0  0  0  0  0  0  0  0  0
   -3.0010   -1.5475    1.8258 H   0  0  0  0  0  0  0  0  0  0  0  0
   -6.5084    1.6026   -0.0195 H   0  0  0  0  0  0  0  0  0  0  0  0
   -6.6846    1.8610    1.7110 H   0  0  0  0  0  0  0  0  0  0  0  0
    4.4993    0.8696   -1.4834 H   0  0  0  0  0  0  0  0  0  0  0  0
    4.2256    2.5705   -1.1877 H   0  0  0  0  0  0  0  0  0  0  0  0
   -5.2228   -2.6168    1.6323 H   0  0  0  0  0  0  0  0  0  0  0  0
   -6.8620   -2.9123    1.0853 H   0  0  0  0  0  0  0  0  0  0  0  0
   -5.5101   -3.3286    0.0408 H   0  0  0  0  0  0  0  0  0  0  0  0
   -7.8952   -1.5940   -0.7731 H   0  0  0  0  0  0  0  0  0  0  0  0
   -7.0261   -0.2851   -1.5660 H   0  0  0  0  0  0  0  0  0  0  0  0
   -6.5331   -1.9633   -1.8408 H   0  0  0  0  0  0  0  0  0  0  0  0
    2.2444    1.9684    2.0292 H   0  0  0  0  0  0  0  0  0  0  0  0
    3.7452    2.7162    1.6268 H   0  0  0  0  0  0  0  0  0  0  0  0
    2.3100    3.2597    0.7805 H   0  0  0  0  0  0  0  0  0  0  0  0
    5.1963    0.2021    1.6662 H   0  0  0  0  0  0  0  0  0  0  0  0
    6.8895    0.6118    1.4817 H   0  0  0  0  0  0  0  0  0  0  0  0
    5.2683   -1.0077   -0.5923 H   0  0  0  0  0  0  0  0  0  0  0  0
    8.2268   -0.1895   -0.5449 H   0  0  0  0  0  0  0  0  0  0  0  0
    7.4877   -1.3161   -1.6877 H   0  0  0  0  0  0  0  0  0  0  0  0
    7.0140    0.3805   -1.7056 H   0  0  0  0  0  0  0  0  0  0  0  0
    6.6675   -3.2907    3.0821 H   0  0  0  0  0  0  0  0  0  0  0  0
    4.9161   -3.5952    3.0933 H   0  0  0  0  0  0  0  0  0  0  0  0
    5.9189   -4.3539    1.8368 H   0  0  0  0  0  0  0  0  0  0  0  0
  1 17  2  0  0  0  0
  2 22  2  0  0  0  0
  3 25  2  0  0  0  0
  4 28  2  0  0  0  0
  5 33  2  0  0  0  0
  6 37  1  0  0  0  0
  6 38  1  0  0  0  0
  7 37  2  0  0  0  0
  8  9  1  0  0  0  0
  8 10  1  0  0  0  0
  8 15  1  0  0  0  0
  8 20  1  0  0  0  0
  9 12  1  0  0  0  0
  9 17  1  0  0  0  0
  9 24  1  0  0  0  0
 10 16  1  0  0  0  0
 10 19  1  0  0  0  0
 10 39  1  0  0  0  0
 11 13  1  0  0  0  0
 11 14  1  0  0  0  0
 11 23  1  0  0  0  0
 11 26  1  0  0  0  0
 12 14  2  0  0  0  0
 12 25  1  0  0  0  0
 13 18  1  0  0  0  0
 13 21  1  0  0  0  0
 13 40  1  0  0  0  0
 14 22  1  0  0  0  0
 15 22  1  0  0  0  0
 15 41  1  0  0  0  0
 15 42  1  0  0  0  0
 16 17  1  0  0  0  0
 16 43  1  0  0  0  0
 16 44  1  0  0  0  0
 18 28  1  0  0  0  0
 18 30  1  0  0  0  0
 18 31  1  0  0  0  0
 19 29  1  0  0  0  0
 19 32  1  0  0  0  0
 19 45  1  0  0  0  0
 20 46  1  0  0  0  0
 20 47  1  0  0  0  0
 20 48  1  0  0  0  0
 21 25  1  0  0  0  0
 21 49  1  0  0  0  0
 21 50  1  0  0  0  0
 23 27  1  0  0  0  0
 23 51  1  0  0  0  0
 23 52  1  0  0  0  0
 24 53  1  0  0  0  0
 24 54  1  0  0  0  0
 24 55  1  0  0  0  0
 26 56  1  0  0  0  0
 26 57  1  0  0  0  0
 26 58  1  0  0  0  0
 27 28  1  0  0  0  0
 27 59  1  0  0  0  0
 27 60  1  0  0  0  0
 29 33  1  0  0  0  0
 29 61  1  0  0  0  0
 29 62  1  0  0  0  0
 30 63  1  0  0  0  0
 30 64  1  0  0  0  0
 30 65  1  0  0  0  0
 31 66  1  0  0  0  0
 31 67  1  0  0  0  0
 31 68  1  0  0  0  0
 32 69  1  0  0  0  0
 32 70  1  0  0  0  0
 32 71  1  0  0  0  0
 33 34  1  0  0  0  0
 34 35  1  0  0  0  0
 34 72  1  0  0  0  0
 34 73  1  0  0  0  0
 35 36  1  0  0  0  0
 35 37  1  0  0  0  0
 35 74  1  0  0  0  0
 36 75  1  0  0  0  0
 36 76  1  0  0  0  0
 36 77  1  0  0  0  0
 38 78  1  0  0  0  0
 38 79  1  0  0  0  0
 38 80  1  0  0  0  0
M  END
> <PUBCHEM_COMPOUND_CID>
21632959

> <PUBCHEM_CONFORMER_RMSD>
1

> <PUBCHEM_CONFORMER_DIVERSEORDER>
5
38
28
34
44
16
46
33
29
42
40
30
25
18
1
11
41
45
43
10
17
47
36
39
35
27
37
22
6
8
19
26
31
20
2
21
32
14
3
24
12
13
23
4
9
7
15

> <PUBCHEM_MMFF94_PARTIAL_CHARGES>
26
1 -0.57
11 0.14
12 -0.12
14 -0.12
15 0.06
16 0.06
17 0.45
18 0.06
2 -0.57
21 0.06
22 0.49
25 0.49
27 0.06
28 0.45
29 0.06
3 -0.57
33 0.45
34 0.06
35 0.06
37 0.66
38 0.28
4 -0.57
5 -0.57
6 -0.43
7 -0.57
9 0.2

> <PUBCHEM_EFFECTIVE_ROTOR_COUNT>
8.4

> <PUBCHEM_PHARMACOPHORE_FEATURES>
13
1 1 acceptor
1 2 acceptor
1 3 acceptor
1 32 hydrophobe
1 36 hydrophobe
1 4 acceptor
1 5 acceptor
1 7 acceptor
3 18 30 31 hydrophobe
5 8 9 10 16 17 rings
6 11 12 13 14 21 25 rings
6 11 13 18 23 27 28 rings
6 8 9 12 14 15 22 rings

> <PUBCHEM_HEAVY_ATOM_COUNT>
38

> <PUBCHEM_ATOM_DEF_STEREO_COUNT>
6

> <PUBCHEM_ATOM_UDEF_STEREO_COUNT>
1

> <PUBCHEM_BOND_DEF_STEREO_COUNT>
0

> <PUBCHEM_BOND_UDEF_STEREO_COUNT>
0

> <PUBCHEM_ISOTOPIC_ATOM_COUNT>
0

> <PUBCHEM_COMPONENT_COUNT>
1

> <PUBCHEM_CACTVS_TAUTO_COUNT>
48

> <PUBCHEM_CONFORMER_ID>
014A17BF00000005

> <PUBCHEM_MMFF94_ENERGY>
132.8903

> <PUBCHEM_FEATURE_SELFOVERLAP>
66.083

> <PUBCHEM_SHAPE_FINGERPRINT>
10 15 17703515483737357708
10319926 262 16702014318182147942
10673678 19 8646763409581835992
10838868 229 17700704952145731598
11331351 85 17821447963236050365
11578080 2 18189329066327617853
117089 54 17980485564854467142
11719270 70 17418099810250277828
12035758 1 16056881346783680129
12236239 1 18412547643010122193
12373685 5 18059850611790032375
12422481 6 17418374679989423132
12838862 33 17060621063128195401
13383668 40 17677605372671540759
13533116 47 18408040728469657872
13782708 43 17822283549154660554
15131766 46 18052820544364031444
15352257 5 17894349982114282986
15361156 5 11963390769830050217
15475509 35 18261106362552154770
16728300 4 18197491836309324950
21033648 29 15051724318774053588
21057603 40 17312823758483591922
21792934 111 17560532707350584529
21987483 16 17843112873398684603
23569943 247 17968931968887143730
23576562 1 12613617799842895123
24771750 20 12253345192492946678
2838139 119 12319736960126237986
350125 39 17274829094175698609
392239 28 16128103355377224825
4073 2 18122343738577031792
4340502 62 16988854872971160996
474113 269 18271231760399806239
504579 68 11819271132178768488
5080951 261 15482372228200250333
5104073 3 17202757253994344360
513202 73 18113892715384351125
5265222 85 12324535263029248009
54039377 194 18264489495860589974
59755656 215 16443059504350769000
6081469 158 18335134302717485221
6700243 42 15286190659160519126
86090 222 17313104134190611978
9831232 110 17530682100464678170
9896288 288 17701266827929489128

> <PUBCHEM_SHAPE_MULTIPOLES>
740.94
20.48
2.84
2.34
11.92
1.36
1.02
11.75
-7.73
4.32
-1.44
-0.93
0.43
-2.24

> <PUBCHEM_SHAPE_SELFOVERLAP>
1580.799

> <PUBCHEM_SHAPE_VOLUME>
409.8

> <PUBCHEM_COORDINATE_TYPE>
2
5
10

$$$$
