11203160
  -OEChem-09122005153D

 79 82  0     1  0  0  0  0  0999 V2000
    1.4624   -2.3804   -0.5777 O   0  0  0  0  0  0  0  0  0  0  0  0
   -1.1806    2.9347   -1.4806 O   0  0  0  0  0  0  0  0  0  0  0  0
    1.0689    3.5527   -0.1323 O   0  0  0  0  0  0  0  0  0  0  0  0
   -6.2367   -1.3427   -0.1597 O   0  0  0  0  0  0  0  0  0  0  0  0
   -1.1129   -2.5560    0.1771 O   0  0  0  0  0  0  0  0  0  0  0  0
    0.9852   -3.8889    1.1059 O   0  0  0  0  0  0  0  0  0  0  0  0
    7.3429    0.6972    2.2745 O   0  0  0  0  0  0  0  0  0  0  0  0
    7.7169    1.3585    0.1346 O   0  0  0  0  0  0  0  0  0  0  0  0
    1.3326    0.0484   -0.4928 C   0  0  1  0  0  0  0  0  0  0  0  0
    0.5595    1.1793    0.2649 C   0  0  2  0  0  0  0  0  0  0  0  0
   -3.0504   -0.3890   -0.0242 C   0  0  1  0  0  0  0  0  0  0  0  0
   -3.7769    0.9692    0.2842 C   0  0  2  0  0  0  0  0  0  0  0  0
    2.8208    0.4391   -0.2653 C   0  0  2  0  0  0  0  0  0  0  0  0
   -0.9227    1.0380   -0.0355 C   0  0  0  0  0  0  0  0  0  0  0  0
   -1.5119   -0.1860    0.0355 C   0  0  0  0  0  0  0  0  0  0  0  0
   -5.3561    0.9236    0.3105 C   0  0  0  0  0  0  0  0  0  0  0  0
    0.9062   -1.2834    0.1287 C   0  0  1  0  0  0  0  0  0  0  0  0
   -3.2047    2.0922   -0.5830 C   0  0  0  0  0  0  0  0  0  0  0  0
   -1.7121    2.2969   -0.3174 C   0  0  2  0  0  0  0  0  0  0  0  0
    2.8339    1.9588   -0.5141 C   0  0  0  0  0  0  0  0  0  0  0  0
   -3.5274   -1.4282    1.0439 C   0  0  0  0  0  0  0  0  0  0  0  0
    1.4199    2.3798   -0.1562 C   0  0  0  0  0  0  0  0  0  0  0  0
   -0.6204   -1.4271    0.1282 C   0  0  0  0  0  0  0  0  0  0  0  0
   -5.8717   -0.4351    0.8768 C   0  0  2  0  0  0  0  0  0  0  0  0
    3.8726   -0.2739   -1.1084 C   0  0  1  0  0  0  0  0  0  0  0  0
    1.0289    0.0328   -2.0297 C   0  0  0  0  0  0  0  0  0  0  0  0
    0.6905    1.1849    1.8166 C   0  0  0  0  0  0  0  0  0  0  0  0
   -4.8349   -1.0980    1.7745 C   0  0  0  0  0  0  0  0  0  0  0  0
   -3.3358   -0.9206   -1.4488 C   0  0  0  0  0  0  0  0  0  0  0  0
   -6.0091    1.2424   -1.0517 C   0  0  0  0  0  0  0  0  0  0  0  0
   -5.8360    2.0348    1.2896 C   0  0  0  0  0  0  0  0  0  0  0  0
    5.2730    0.2871   -0.7917 C   0  0  0  0  0  0  0  0  0  0  0  0
    3.7903   -1.7854   -0.8770 C   0  0  0  0  0  0  0  0  0  0  0  0
    5.6556    0.1844    0.6861 C   0  0  0  0  0  0  0  0  0  0  0  0
    1.1840   -3.6217   -0.0715 C   0  0  0  0  0  0  0  0  0  0  0  0
    7.0020    0.8139    0.9643 C   0  0  0  0  0  0  0  0  0  0  0  0
    1.1541   -4.6322   -1.1780 C   0  0  0  0  0  0  0  0  0  0  0  0
   -3.4761    1.2248    1.3148 H   0  0  0  0  0  0  0  0  0  0  0  0
    3.0320    0.2493    0.7924 H   0  0  0  0  0  0  0  0  0  0  0  0
    1.2453   -1.3419    1.1702 H   0  0  0  0  0  0  0  0  0  0  0  0
   -3.3831    1.8970   -1.6472 H   0  0  0  0  0  0  0  0  0  0  0  0
   -3.7106    3.0443   -0.3831 H   0  0  0  0  0  0  0  0  0  0  0  0
   -1.5942    2.9851    0.5276 H   0  0  0  0  0  0  0  0  0  0  0  0
    3.5450    2.4685    0.1415 H   0  0  0  0  0  0  0  0  0  0  0  0
    3.0230    2.2185   -1.5598 H   0  0  0  0  0  0  0  0  0  0  0  0
   -3.6427   -2.4139    0.5740 H   0  0  0  0  0  0  0  0  0  0  0  0
   -2.7689   -1.5543    1.8276 H   0  0  0  0  0  0  0  0  0  0  0  0
   -6.7874   -0.2700    1.4575 H   0  0  0  0  0  0  0  0  0  0  0  0
    3.7084   -0.0850   -2.1763 H   0  0  0  0  0  0  0  0  0  0  0  0
    1.2609    0.9899   -2.5076 H   0  0  0  0  0  0  0  0  0  0  0  0
    1.6011   -0.7393   -2.5527 H   0  0  0  0  0  0  0  0  0  0  0  0
   -0.0216   -0.1778   -2.2519 H   0  0  0  0  0  0  0  0  0  0  0  0
    0.1779    2.0611    2.2360 H   0  0  0  0  0  0  0  0  0  0  0  0
    0.2433    0.3047    2.2900 H   0  0  0  0  0  0  0  0  0  0  0  0
    1.7280    1.2522    2.1599 H   0  0  0  0  0  0  0  0  0  0  0  0
   -4.6189   -0.4479    2.6312 H   0  0  0  0  0  0  0  0  0  0  0  0
   -5.2386   -2.0302    2.1889 H   0  0  0  0  0  0  0  0  0  0  0  0
   -3.0194   -0.2136   -2.2231 H   0  0  0  0  0  0  0  0  0  0  0  0
   -2.8001   -1.8566   -1.6459 H   0  0  0  0  0  0  0  0  0  0  0  0
   -4.3880   -1.1428   -1.6174 H   0  0  0  0  0  0  0  0  0  0  0  0
   -5.8120    2.2737   -1.3647 H   0  0  0  0  0  0  0  0  0  0  0  0
   -5.6568    0.5879   -1.8514 H   0  0  0  0  0  0  0  0  0  0  0  0
   -7.0989    1.1342   -0.9941 H   0  0  0  0  0  0  0  0  0  0  0  0
   -6.9304    2.0597    1.3507 H   0  0  0  0  0  0  0  0  0  0  0  0
   -5.5086    3.0292    0.9697 H   0  0  0  0  0  0  0  0  0  0  0  0
   -5.4548    1.8691    2.3035 H   0  0  0  0  0  0  0  0  0  0  0  0
    5.3400    1.3324   -1.1184 H   0  0  0  0  0  0  0  0  0  0  0  0
    6.0192   -0.2480   -1.3942 H   0  0  0  0  0  0  0  0  0  0  0  0
    3.2271   -2.2747   -1.6732 H   0  0  0  0  0  0  0  0  0  0  0  0
    4.7928   -2.2136   -1.0239 H   0  0  0  0  0  0  0  0  0  0  0  0
    3.5430   -2.0598    0.1510 H   0  0  0  0  0  0  0  0  0  0  0  0
   -1.2030    2.2952   -2.2134 H   0  0  0  0  0  0  0  0  0  0  0  0
   -6.5616   -2.1571    0.2607 H   0  0  0  0  0  0  0  0  0  0  0  0
    5.7014   -0.8648    0.9952 H   0  0  0  0  0  0  0  0  0  0  0  0
    4.9474    0.7188    1.3243 H   0  0  0  0  0  0  0  0  0  0  0  0
    2.1509   -4.7332   -1.6138 H   0  0  0  0  0  0  0  0  0  0  0  0
    0.4303   -4.3282   -1.9386 H   0  0  0  0  0  0  0  0  0  0  0  0
    0.8451   -5.6011   -0.7757 H   0  0  0  0  0  0  0  0  0  0  0  0
    8.2174    1.1005    2.4617 H   0  0  0  0  0  0  0  0  0  0  0  0
  1 17  1  0  0  0  0
  1 35  1  0  0  0  0
  2 19  1  0  0  0  0
  2 72  1  0  0  0  0
  3 22  2  0  0  0  0
  4 24  1  0  0  0  0
  4 73  1  0  0  0  0
  5 23  2  0  0  0  0
  6 35  2  0  0  0  0
  7 36  1  0  0  0  0
  7 79  1  0  0  0  0
  8 36  2  0  0  0  0
  9 10  1  0  0  0  0
  9 13  1  0  0  0  0
  9 17  1  0  0  0  0
  9 26  1  0  0  0  0
 10 14  1  0  0  0  0
 10 22  1  0  0  0  0
 10 27  1  0  0  0  0
 11 12  1  0  0  0  0
 11 15  1  0  0  0  0
 11 21  1  0  0  0  0
 11 29  1  0  0  0  0
 12 16  1  0  0  0  0
 12 18  1  0  0  0  0
 12 38  1  0  0  0  0
 13 20  1  0  0  0  0
 13 25  1  0  0  0  0
 13 39  1  0  0  0  0
 14 15  2  0  0  0  0
 14 19  1  0  0  0  0
 15 23  1  0  0  0  0
 16 24  1  0  0  0  0
 16 30  1  0  0  0  0
 16 31  1  0  0  0  0
 17 23  1  0  0  0  0
 17 40  1  0  0  0  0
 18 19  1  0  0  0  0
 18 41  1  0  0  0  0
 18 42  1  0  0  0  0
 19 43  1  0  0  0  0
 20 22  1  0  0  0  0
 20 44  1  0  0  0  0
 20 45  1  0  0  0  0
 21 28  1  0  0  0  0
 21 46  1  0  0  0  0
 21 47  1  0  0  0  0
 24 28  1  0  0  0  0
 24 48  1  0  0  0  0
 25 32  1  0  0  0  0
 25 33  1  0  0  0  0
 25 49  1  0  0  0  0
 26 50  1  0  0  0  0
 26 51  1  0  0  0  0
 26 52  1  0  0  0  0
 27 53  1  0  0  0  0
 27 54  1  0  0  0  0
 27 55  1  0  0  0  0
 28 56  1  0  0  0  0
 28 57  1  0  0  0  0
 29 58  1  0  0  0  0
 29 59  1  0  0  0  0
 29 60  1  0  0  0  0
 30 61  1  0  0  0  0
 30 62  1  0  0  0  0
 30 63  1  0  0  0  0
 31 64  1  0  0  0  0
 31 65  1  0  0  0  0
 31 66  1  0  0  0  0
 32 34  1  0  0  0  0
 32 67  1  0  0  0  0
 32 68  1  0  0  0  0
 33 69  1  0  0  0  0
 33 70  1  0  0  0  0
 33 71  1  0  0  0  0
 34 36  1  0  0  0  0
 34 74  1  0  0  0  0
 34 75  1  0  0  0  0
 35 37  1  0  0  0  0
 37 76  1  0  0  0  0
 37 77  1  0  0  0  0
 37 78  1  0  0  0  0
M  END
> <PUBCHEM_COMPOUND_CID>
11203160

> <PUBCHEM_CONFORMER_RMSD>
1

> <PUBCHEM_CONFORMER_DIVERSEORDER>
2
1

> <PUBCHEM_MMFF94_PARTIAL_CHARGES>
25
1 -0.43
10 0.2
11 0.14
14 -0.28
15 -0.12
17 0.34
19 0.42
2 -0.68
20 0.06
22 0.45
23 0.49
24 0.28
3 -0.57
34 0.06
35 0.66
36 0.66
37 0.06
4 -0.68
5 -0.57
6 -0.57
7 -0.65
72 0.4
73 0.4
79 0.5
8 -0.57

> <PUBCHEM_EFFECTIVE_ROTOR_COUNT>
7.8

> <PUBCHEM_PHARMACOPHORE_FEATURES>
16
1 2 acceptor
1 2 donor
1 3 acceptor
1 33 hydrophobe
1 4 acceptor
1 4 donor
1 5 acceptor
1 6 acceptor
1 7 acceptor
1 8 acceptor
3 16 30 31 hydrophobe
3 7 8 36 anion
5 9 10 13 20 22 rings
6 11 12 14 15 18 19 rings
6 11 12 16 21 24 28 rings
6 9 10 14 15 17 23 rings

> <PUBCHEM_HEAVY_ATOM_COUNT>
37

> <PUBCHEM_ATOM_DEF_STEREO_COUNT>
9

> <PUBCHEM_ATOM_UDEF_STEREO_COUNT>
0

> <PUBCHEM_BOND_DEF_STEREO_COUNT>
0

> <PUBCHEM_BOND_UDEF_STEREO_COUNT>
0

> <PUBCHEM_ISOTOPIC_ATOM_COUNT>
0

> <PUBCHEM_COMPONENT_COUNT>
1

> <PUBCHEM_CACTVS_TAUTO_COUNT>
4

> <PUBCHEM_CONFORMER_ID>
00AAF25800000002

> <PUBCHEM_MMFF94_ENERGY>
156.6184

> <PUBCHEM_FEATURE_SELFOVERLAP>
81.366

> <PUBCHEM_SHAPE_FINGERPRINT>
10 15 18408602600370535024
10675989 125 17037240810629527837
10906281 52 18188793680898658688
10930396 42 18196346270275158480
10939801 23 18261110838014007176
1100329 8 18266461091168406050
11112241 14 16987699355649937752
11135926 11 18338232670074677981
11136131 41 18262231106359492706
11445158 3 17822576121957664980
11719270 70 18410292497738504374
12035758 1 18340490057925749432
12107698 1 16081089294271527540
12838862 33 18338219506295827805
13140716 1 18193280912453286363
13224815 77 18410014343267216781
13402501 40 18408891728108191157
13583140 156 18409454674742649967
13811026 1 18410292497327171135
14028597 1 17703240532847502331
14394314 77 18411702049754200432
14466204 15 18409450284531874760
14790565 3 18337404828061450037
16728300 4 17678434417381542130
16994733 274 16128656336564054354
17909252 39 17981905046464500294
18681886 176 18337667628361894448
19591789 44 18265624345534440711
20028762 73 18271810171977251183
20511986 3 17846493691054199757
21033648 29 18058997489350952200
21130935 74 18201443536475535134
21421861 104 18043534915041885171
23559900 14 18408603661063972137
24771293 8 18272932743542862848
255183 313 18341037602053220662
3178227 256 18336560398957007769
335352 9 18409167739955456733
3383291 50 18335703892115775266
350125 39 18409171034443552108
3680242 22 18262242118760244666
38695281 34 18343586235024753279
4093350 32 16917076521049000836
4340502 62 18412545388769028630
5104073 3 18266743480862440040
5265222 85 18265065789622779052
59755656 215 18187932733466910935
6086070 43 17677873773762417365
7226269 152 18130791187396846048

> <PUBCHEM_SHAPE_MULTIPOLES>
714.49
14.93
3.91
1.47
8.46
3.48
-0.22
-5.49
-5.15
0.94
0.55
0.33
-0.03
1.14

> <PUBCHEM_SHAPE_SELFOVERLAP>
1528.191

> <PUBCHEM_SHAPE_VOLUME>
391

> <PUBCHEM_COORDINATE_TYPE>
2
5
10

$$$$
