101491701
  -OEChem-09122004053D

 86 89  0     1  0  0  0  0  0999 V2000
    1.8549    1.7700    2.6834 O   0  0  0  0  0  0  0  0  0  0  0  0
   -6.8964   -0.8640    0.0464 O   0  0  0  0  0  0  0  0  0  0  0  0
   -0.9411   -0.9948   -2.6220 O   0  0  0  0  0  0  0  0  0  0  0  0
   -0.7846    2.1918    2.4127 O   0  0  0  0  0  0  0  0  0  0  0  0
    5.9753   -0.9984   -1.5930 O   0  0  0  0  0  0  0  0  0  0  0  0
   -6.8069   -3.1645    0.2379 O   0  0  0  0  0  0  0  0  0  0  0  0
    5.4088   -3.5362    0.2084 O   0  0  0  0  0  0  0  0  0  0  0  0
    4.5957   -2.3072    1.9346 O   0  0  0  0  0  0  0  0  0  0  0  0
    1.5765    0.9560   -0.8941 C   0  0  1  0  0  0  0  0  0  0  0  0
    0.9519    0.8279    0.5376 C   0  0  1  0  0  0  0  0  0  0  0  0
    3.0928    0.9496   -0.5850 C   0  0  2  0  0  0  0  0  0  0  0  0
   -2.7987    0.3849   -0.7895 C   0  0  1  0  0  0  0  0  0  0  0  0
    1.7846    1.9235    1.2727 C   0  0  2  0  0  0  0  0  0  0  0  0
   -0.5677    0.9312    0.3926 C   0  0  0  0  0  0  0  0  0  0  0  0
   -3.4273    0.6291    0.6330 C   0  0  2  0  0  0  0  0  0  0  0  0
    3.2059    1.8426    0.6662 C   0  0  0  0  0  0  0  0  0  0  0  0
   -1.2447    0.3485   -0.6351 C   0  0  0  0  0  0  0  0  0  0  0  0
    1.1009   -0.2126   -1.7426 C   0  0  0  0  0  0  0  0  0  0  0  0
   -4.9942    0.5361    0.7740 C   0  0  0  0  0  0  0  0  0  0  0  0
    4.0290    1.3848   -1.7062 C   0  0  1  0  0  0  0  0  0  0  0  0
    1.1990    2.2812   -1.6358 C   0  0  0  0  0  0  0  0  0  0  0  0
   -3.4067   -0.9424   -1.3252 C   0  0  0  0  0  0  0  0  0  0  0  0
    1.1876   -0.5422    1.2449 C   0  0  0  0  0  0  0  0  0  0  0  0
   -2.8193    1.8836    1.2556 C   0  0  0  0  0  0  0  0  0  0  0  0
   -0.4164   -0.3325   -1.7267 C   0  0  0  0  0  0  0  0  0  0  0  0
   -1.3362    1.6926    1.4335 C   0  0  0  0  0  0  0  0  0  0  0  0
   -5.4736   -0.7938    0.1290 C   0  0  2  0  0  0  0  0  0  0  0  0
   -4.9302   -1.0028   -1.2753 C   0  0  0  0  0  0  0  0  0  0  0  0
   -3.0708    1.5094   -1.8156 C   0  0  0  0  0  0  0  0  0  0  0  0
   -5.7502    1.7488    0.1931 C   0  0  0  0  0  0  0  0  0  0  0  0
   -5.3731    0.4827    2.2827 C   0  0  0  0  0  0  0  0  0  0  0  0
    5.4890    1.3405   -1.2269 C   0  0  0  0  0  0  0  0  0  0  0  0
    3.8262    0.4922   -2.9357 C   0  0  0  0  0  0  0  0  0  0  0  0
    5.9498   -0.0487   -0.8106 C   0  0  0  0  0  0  0  0  0  0  0  0
   -7.4301   -2.1188    0.1147 C   0  0  0  0  0  0  0  0  0  0  0  0
    6.3563   -0.2268    0.6391 C   0  0  0  0  0  0  0  0  0  0  0  0
    6.7283   -1.6820    0.9347 C   0  0  1  0  0  0  0  0  0  0  0  0
   -8.9234   -2.0386    0.0152 C   0  0  0  0  0  0  0  0  0  0  0  0
    7.6122   -1.7884    2.1778 C   0  0  0  0  0  0  0  0  0  0  0  0
    5.4669   -2.5121    1.0997 C   0  0  0  0  0  0  0  0  0  0  0  0
    3.3710   -0.0714   -0.2930 H   0  0  0  0  0  0  0  0  0  0  0  0
    1.3630    2.9173    1.0798 H   0  0  0  0  0  0  0  0  0  0  0  0
   -3.0589   -0.2137    1.2454 H   0  0  0  0  0  0  0  0  0  0  0  0
    3.9193    1.4413    1.3894 H   0  0  0  0  0  0  0  0  0  0  0  0
    3.5389    2.8569    0.4158 H   0  0  0  0  0  0  0  0  0  0  0  0
    1.5214   -1.1681   -1.4118 H   0  0  0  0  0  0  0  0  0  0  0  0
    1.3585   -0.0866   -2.7957 H   0  0  0  0  0  0  0  0  0  0  0  0
    3.8317    2.4227   -2.0002 H   0  0  0  0  0  0  0  0  0  0  0  0
    1.6200    3.1679   -1.1517 H   0  0  0  0  0  0  0  0  0  0  0  0
    0.1190    2.4430   -1.6953 H   0  0  0  0  0  0  0  0  0  0  0  0
    1.5590    2.2839   -2.6692 H   0  0  0  0  0  0  0  0  0  0  0  0
   -2.9971   -1.7908   -0.7610 H   0  0  0  0  0  0  0  0  0  0  0  0
   -3.1456   -1.1018   -2.3755 H   0  0  0  0  0  0  0  0  0  0  0  0
    0.7123   -0.5506    2.2342 H   0  0  0  0  0  0  0  0  0  0  0  0
    2.2478   -0.7556    1.4084 H   0  0  0  0  0  0  0  0  0  0  0  0
    0.7656   -1.3881    0.6925 H   0  0  0  0  0  0  0  0  0  0  0  0
   -3.2286    2.0582    2.2550 H   0  0  0  0  0  0  0  0  0  0  0  0
   -2.9932    2.7896    0.6694 H   0  0  0  0  0  0  0  0  0  0  0  0
   -5.0980   -1.6101    0.7635 H   0  0  0  0  0  0  0  0  0  0  0  0
   -5.3713   -0.2784   -1.9697 H   0  0  0  0  0  0  0  0  0  0  0  0
   -5.2517   -1.9801   -1.6575 H   0  0  0  0  0  0  0  0  0  0  0  0
   -4.1243    1.6123   -2.0701 H   0  0  0  0  0  0  0  0  0  0  0  0
   -2.5562    1.3068   -2.7635 H   0  0  0  0  0  0  0  0  0  0  0  0
   -2.7143    2.4856   -1.4722 H   0  0  0  0  0  0  0  0  0  0  0  0
   -6.8021    1.7404    0.5047 H   0  0  0  0  0  0  0  0  0  0  0  0
   -5.3284    2.6965    0.5414 H   0  0  0  0  0  0  0  0  0  0  0  0
   -4.8000   -0.2880    2.8101 H   0  0  0  0  0  0  0  0  0  0  0  0
   -5.1992    1.4389    2.7859 H   0  0  0  0  0  0  0  0  0  0  0  0
   -6.4355    0.2472    2.4158 H   0  0  0  0  0  0  0  0  0  0  0  0
   -5.7616    1.7616   -0.8964 H   0  0  0  0  0  0  0  0  0  0  0  0
    5.6542    2.0369   -0.3979 H   0  0  0  0  0  0  0  0  0  0  0  0
    6.1609    1.6715   -2.0286 H   0  0  0  0  0  0  0  0  0  0  0  0
    2.4296    2.4757    3.0258 H   0  0  0  0  0  0  0  0  0  0  0  0
    3.6717   -0.5607   -2.6823 H   0  0  0  0  0  0  0  0  0  0  0  0
    2.9996    0.8449   -3.5559 H   0  0  0  0  0  0  0  0  0  0  0  0
    4.7054    0.5417   -3.5897 H   0  0  0  0  0  0  0  0  0  0  0  0
    7.2213    0.4254    0.8063 H   0  0  0  0  0  0  0  0  0  0  0  0
    5.5441    0.1012    1.2890 H   0  0  0  0  0  0  0  0  0  0  0  0
    7.3103   -2.1007    0.1035 H   0  0  0  0  0  0  0  0  0  0  0  0
   -9.3184   -1.4462    0.8443 H   0  0  0  0  0  0  0  0  0  0  0  0
   -9.3456   -3.0458    0.0743 H   0  0  0  0  0  0  0  0  0  0  0  0
   -9.2074   -1.5973   -0.9435 H   0  0  0  0  0  0  0  0  0  0  0  0
    7.1093   -1.3715    3.0573 H   0  0  0  0  0  0  0  0  0  0  0  0
    7.8455   -2.8358    2.3981 H   0  0  0  0  0  0  0  0  0  0  0  0
    8.5555   -1.2513    2.0352 H   0  0  0  0  0  0  0  0  0  0  0  0
    4.5941   -4.0712    0.3198 H   0  0  0  0  0  0  0  0  0  0  0  0
  1 13  1  0  0  0  0
  1 73  1  0  0  0  0
  2 27  1  0  0  0  0
  2 35  1  0  0  0  0
  3 25  2  0  0  0  0
  4 26  2  0  0  0  0
  5 34  2  0  0  0  0
  6 35  2  0  0  0  0
  7 40  1  0  0  0  0
  7 86  1  0  0  0  0
  8 40  2  0  0  0  0
  9 10  1  0  0  0  0
  9 11  1  0  0  0  0
  9 18  1  0  0  0  0
  9 21  1  0  0  0  0
 10 13  1  0  0  0  0
 10 14  1  0  0  0  0
 10 23  1  0  0  0  0
 11 16  1  0  0  0  0
 11 20  1  0  0  0  0
 11 41  1  0  0  0  0
 12 15  1  0  0  0  0
 12 17  1  0  0  0  0
 12 22  1  0  0  0  0
 12 29  1  0  0  0  0
 13 16  1  0  0  0  0
 13 42  1  0  0  0  0
 14 17  2  0  0  0  0
 14 26  1  0  0  0  0
 15 19  1  0  0  0  0
 15 24  1  0  0  0  0
 15 43  1  0  0  0  0
 16 44  1  0  0  0  0
 16 45  1  0  0  0  0
 17 25  1  0  0  0  0
 18 25  1  0  0  0  0
 18 46  1  0  0  0  0
 18 47  1  0  0  0  0
 19 27  1  0  0  0  0
 19 30  1  0  0  0  0
 19 31  1  0  0  0  0
 20 32  1  0  0  0  0
 20 33  1  0  0  0  0
 20 48  1  0  0  0  0
 21 49  1  0  0  0  0
 21 50  1  0  0  0  0
 21 51  1  0  0  0  0
 22 28  1  0  0  0  0
 22 52  1  0  0  0  0
 22 53  1  0  0  0  0
 23 54  1  0  0  0  0
 23 55  1  0  0  0  0
 23 56  1  0  0  0  0
 24 26  1  0  0  0  0
 24 57  1  0  0  0  0
 24 58  1  0  0  0  0
 27 28  1  0  0  0  0
 27 59  1  0  0  0  0
 28 60  1  0  0  0  0
 28 61  1  0  0  0  0
 29 62  1  0  0  0  0
 29 63  1  0  0  0  0
 29 64  1  0  0  0  0
 30 65  1  0  0  0  0
 30 66  1  0  0  0  0
 30 70  1  0  0  0  0
 31 67  1  0  0  0  0
 31 68  1  0  0  0  0
 31 69  1  0  0  0  0
 32 34  1  0  0  0  0
 32 71  1  0  0  0  0
 32 72  1  0  0  0  0
 33 74  1  0  0  0  0
 33 75  1  0  0  0  0
 33 76  1  0  0  0  0
 34 36  1  0  0  0  0
 35 38  1  0  0  0  0
 36 37  1  0  0  0  0
 36 77  1  0  0  0  0
 36 78  1  0  0  0  0
 37 39  1  0  0  0  0
 37 40  1  0  0  0  0
 37 79  1  0  0  0  0
 38 80  1  0  0  0  0
 38 81  1  0  0  0  0
 38 82  1  0  0  0  0
 39 83  1  0  0  0  0
 39 84  1  0  0  0  0
 39 85  1  0  0  0  0
M  END
> <PUBCHEM_COMPOUND_CID>
101491701

> <PUBCHEM_CONFORMER_RMSD>
1

> <PUBCHEM_CONFORMER_DIVERSEORDER>
13
8
30
12
26
28
20
29
11
9
24
25
14
19
21
15
27
23
7
5
18
17
1
2
31
6
22
10
16
4
3

> <PUBCHEM_MMFF94_PARTIAL_CHARGES>
27
1 -0.68
10 0.14
12 0.14
13 0.28
14 -0.12
17 -0.12
18 0.06
2 -0.43
24 0.06
25 0.49
26 0.49
27 0.28
3 -0.57
32 0.06
34 0.45
35 0.66
36 0.06
37 0.06
38 0.06
4 -0.57
40 0.66
5 -0.57
6 -0.57
7 -0.65
73 0.4
8 -0.57
86 0.5

> <PUBCHEM_EFFECTIVE_ROTOR_COUNT>
9.8

> <PUBCHEM_PHARMACOPHORE_FEATURES>
16
1 1 acceptor
1 1 donor
1 3 acceptor
1 33 hydrophobe
1 39 hydrophobe
1 4 acceptor
1 5 acceptor
1 6 acceptor
1 7 acceptor
1 8 acceptor
3 19 30 31 hydrophobe
3 7 8 40 anion
5 9 10 11 13 16 rings
6 12 14 15 17 24 26 rings
6 12 15 19 22 27 28 rings
6 9 10 14 17 18 25 rings

> <PUBCHEM_HEAVY_ATOM_COUNT>
40

> <PUBCHEM_ATOM_DEF_STEREO_COUNT>
8

> <PUBCHEM_ATOM_UDEF_STEREO_COUNT>
1

> <PUBCHEM_BOND_DEF_STEREO_COUNT>
0

> <PUBCHEM_BOND_UDEF_STEREO_COUNT>
0

> <PUBCHEM_ISOTOPIC_ATOM_COUNT>
0

> <PUBCHEM_COMPONENT_COUNT>
1

> <PUBCHEM_CACTVS_TAUTO_COUNT>
120

> <PUBCHEM_CONFORMER_ID>
060CA3F50000000D

> <PUBCHEM_MMFF94_ENERGY>
142.3772

> <PUBCHEM_FEATURE_SELFOVERLAP>
81.357

> <PUBCHEM_SHAPE_FINGERPRINT>
10 15 17346318244964865337
10319926 262 17203609276769167297
11646440 116 15985114015162286057
12011746 2 14634868677799246741
12013929 112 11026068016136074986
12035758 1 16630524046453333456
12166972 35 18339087093805570581
12236239 1 18411144636055646100
12422481 6 15697707152162004576
12539765 74 10087648112698551304
13383668 362 15266203925842733487
13533116 47 18260553312456353684
13560911 43 17988645228698886753
13617811 41 12829203365084834774
13726171 33 14905892844909166546
13782708 43 18333733515633106383
13811026 1 17203334377413838757
14117953 113 13334731367296578695
14347332 77 18187081711451383068
15183329 4 17967256403449837302
15352257 5 17967814963504096842
15475509 35 18412818101891415842
16728300 4 18199742544885150582
16994733 274 10592036960338413766
19958102 18 16877947130745310586
2026 5 17749944462718301010
20567600 247 18113335289339004034
21033648 29 15841552946597698641
21057603 130 18187643567084734834
21267235 1 17202782482595870109
21315759 40 18261398870714260253
21521239 73 17312820489706633938
21792934 111 16702310049088776705
22122407 14 10807932695491999150
23522609 53 18193025705402554333
23559900 14 14418416671867649805
23569914 152 16303967843158491935
23569943 247 17750224812381385986
23576562 1 12541276532111209147
3004659 81 17917722326872472564
3178227 256 17203057369382327287
3383291 50 17489872661311414055
397830 11 13829840370128861710
4112364 45 11527950066973993907
4169191 19 13038895647197092674
439807 62 18410013260687687851
504579 68 15719387352534547479
5104073 3 16772382036295151327
57828716 16 18410857642546769209
59755656 215 14201392802643642116
6081469 158 18187361052541120887
6086070 43 18129080300123215853

> <PUBCHEM_SHAPE_MULTIPOLES>
776.23
20.77
2.83
2.47
10
1.94
0.16
18.35
1.37
-1.61
0.46
-1.18
-0.75
-2.91

> <PUBCHEM_SHAPE_SELFOVERLAP>
1643.981

> <PUBCHEM_SHAPE_VOLUME>
426.2

> <PUBCHEM_COORDINATE_TYPE>
2
5
10

$$$$
