23247891
  -OEChem-09122005103D

 75 78  0     1  0  0  0  0  0999 V2000
   -1.7785    2.3210    0.1886 O   0  0  0  0  0  0  0  0  0  0  0  0
   -0.8889   -3.4117    1.2414 O   0  0  0  0  0  0  0  0  0  0  0  0
    0.7771    2.5641   -0.4368 O   0  0  0  0  0  0  0  0  0  0  0  0
    1.6478   -3.0740    1.2387 O   0  0  0  0  0  0  0  0  0  0  0  0
    6.9692    0.9000   -0.1812 O   0  0  0  0  0  0  0  0  0  0  0  0
   -1.0499    3.9636    1.6404 O   0  0  0  0  0  0  0  0  0  0  0  0
   -6.9171   -0.3890   -3.1385 O   0  0  0  0  0  0  0  0  0  0  0  0
   -5.6106   -2.1352   -2.5057 O   0  0  0  0  0  0  0  0  0  0  0  0
   -1.4243   -0.0393    0.6405 C   0  0  1  0  0  0  0  0  0  0  0  0
   -0.3739   -0.9949    1.3143 C   0  0  2  0  0  0  0  0  0  0  0  0
   -2.7324   -0.3511    1.4231 C   0  0  2  0  0  0  0  0  0  0  0  0
    2.7859    0.4487   -0.6664 C   0  0  1  0  0  0  0  0  0  0  0  0
    0.9522   -0.8814    0.5866 C   0  0  0  0  0  0  0  0  0  0  0  0
   -0.8928    1.3853    0.7819 C   0  0  1  0  0  0  0  0  0  0  0  0
    3.7370   -0.7176   -0.2064 C   0  0  2  0  0  0  0  0  0  0  0  0
    1.4057    0.2848    0.0493 C   0  0  0  0  0  0  0  0  0  0  0  0
   -2.7306   -1.8897    1.5111 C   0  0  0  0  0  0  0  0  0  0  0  0
   -1.2638   -2.2507    1.3273 C   0  0  0  0  0  0  0  0  0  0  0  0
   -4.0444    0.1697    0.8437 C   0  0  1  0  0  0  0  0  0  0  0  0
    5.2212   -0.7028   -0.7069 C   0  0  0  0  0  0  0  0  0  0  0  0
   -1.6535   -0.3585   -0.8813 C   0  0  0  0  0  0  0  0  0  0  0  0
    0.4693    1.4969    0.0944 C   0  0  0  0  0  0  0  0  0  0  0  0
    3.0297   -2.0576   -0.3931 C   0  0  0  0  0  0  0  0  0  0  0  0
    3.5279    1.7605   -0.2819 C   0  0  0  0  0  0  0  0  0  0  0  0
   -0.0605   -0.7214    2.8118 C   0  0  0  0  0  0  0  0  0  0  0  0
    1.8474   -2.0847    0.5372 C   0  0  0  0  0  0  0  0  0  0  0  0
    2.4656    0.4490   -2.1788 C   0  0  0  0  0  0  0  0  0  0  0  0
    4.9243    1.8789   -0.8794 C   0  0  0  0  0  0  0  0  0  0  0  0
    5.7989    0.7067   -0.5180 C   0  0  0  0  0  0  0  0  0  0  0  0
   -4.4875   -0.7153   -0.3376 C   0  0  0  0  0  0  0  0  0  0  0  0
   -5.1073    0.2415    1.9432 C   0  0  0  0  0  0  0  0  0  0  0  0
    6.0665   -1.6692    0.1650 C   0  0  0  0  0  0  0  0  0  0  0  0
    5.4235   -1.1207   -2.1701 C   0  0  0  0  0  0  0  0  0  0  0  0
   -5.5392   -0.0593   -1.2344 C   0  0  0  0  0  0  0  0  0  0  0  0
   -1.7568    3.5837    0.7168 C   0  0  0  0  0  0  0  0  0  0  0  0
   -6.0006   -0.9887   -2.3342 C   0  0  0  0  0  0  0  0  0  0  0  0
   -2.7368    4.4584   -0.0047 C   0  0  0  0  0  0  0  0  0  0  0  0
   -2.6272    0.0689    2.4316 H   0  0  0  0  0  0  0  0  0  0  0  0
   -0.7560    1.6310    1.8406 H   0  0  0  0  0  0  0  0  0  0  0  0
    3.8281   -0.5767    0.8863 H   0  0  0  0  0  0  0  0  0  0  0  0
   -3.0626   -2.2178    2.5008 H   0  0  0  0  0  0  0  0  0  0  0  0
   -3.2719   -2.4472    0.7490 H   0  0  0  0  0  0  0  0  0  0  0  0
   -3.9026    1.1921    0.4813 H   0  0  0  0  0  0  0  0  0  0  0  0
   -0.7464   -0.1728   -1.4676 H   0  0  0  0  0  0  0  0  0  0  0  0
   -2.3905    0.3053   -1.3422 H   0  0  0  0  0  0  0  0  0  0  0  0
   -1.8595   -1.4151   -1.0734 H   0  0  0  0  0  0  0  0  0  0  0  0
    2.6923   -2.2421   -1.4163 H   0  0  0  0  0  0  0  0  0  0  0  0
    3.6747   -2.8945   -0.1113 H   0  0  0  0  0  0  0  0  0  0  0  0
    2.9872    2.6484   -0.6171 H   0  0  0  0  0  0  0  0  0  0  0  0
    3.5974    1.8307    0.8122 H   0  0  0  0  0  0  0  0  0  0  0  0
    0.4688    0.2248    2.9674 H   0  0  0  0  0  0  0  0  0  0  0  0
    0.5834   -1.5125    3.2176 H   0  0  0  0  0  0  0  0  0  0  0  0
   -0.9496   -0.7131    3.4492 H   0  0  0  0  0  0  0  0  0  0  0  0
    1.7698    1.2558   -2.4379 H   0  0  0  0  0  0  0  0  0  0  0  0
    1.9941   -0.4839   -2.5039 H   0  0  0  0  0  0  0  0  0  0  0  0
    3.3412    0.6111   -2.8043 H   0  0  0  0  0  0  0  0  0  0  0  0
    4.8952    1.9704   -1.9690 H   0  0  0  0  0  0  0  0  0  0  0  0
    5.3963    2.7904   -0.4938 H   0  0  0  0  0  0  0  0  0  0  0  0
   -3.7426   -1.1452   -0.9874 H   0  0  0  0  0  0  0  0  0  0  0  0
   -4.9991   -1.5939    0.0852 H   0  0  0  0  0  0  0  0  0  0  0  0
   -6.0437    0.6603    1.5624 H   0  0  0  0  0  0  0  0  0  0  0  0
   -4.7759    0.8862    2.7645 H   0  0  0  0  0  0  0  0  0  0  0  0
   -5.3257   -0.7483    2.3579 H   0  0  0  0  0  0  0  0  0  0  0  0
    5.7822   -2.7152    0.0173 H   0  0  0  0  0  0  0  0  0  0  0  0
    7.1341   -1.6007   -0.0769 H   0  0  0  0  0  0  0  0  0  0  0  0
    5.9655   -1.4334    1.2307 H   0  0  0  0  0  0  0  0  0  0  0  0
    4.9064   -2.0564   -2.4034 H   0  0  0  0  0  0  0  0  0  0  0  0
    5.1010   -0.3595   -2.8811 H   0  0  0  0  0  0  0  0  0  0  0  0
    6.4886   -1.2790   -2.3824 H   0  0  0  0  0  0  0  0  0  0  0  0
   -5.1127    0.8345   -1.7029 H   0  0  0  0  0  0  0  0  0  0  0  0
   -6.4200    0.2272   -0.6513 H   0  0  0  0  0  0  0  0  0  0  0  0
   -2.4620    4.5288   -1.0601 H   0  0  0  0  0  0  0  0  0  0  0  0
   -2.7162    5.4620    0.4297 H   0  0  0  0  0  0  0  0  0  0  0  0
   -3.7453    4.0519    0.1046 H   0  0  0  0  0  0  0  0  0  0  0  0
   -7.2185   -0.9853   -3.8568 H   0  0  0  0  0  0  0  0  0  0  0  0
  1 14  1  0  0  0  0
  1 35  1  0  0  0  0
  2 18  2  0  0  0  0
  3 22  2  0  0  0  0
  4 26  2  0  0  0  0
  5 29  2  0  0  0  0
  6 35  2  0  0  0  0
  7 36  1  0  0  0  0
  7 75  1  0  0  0  0
  8 36  2  0  0  0  0
  9 10  1  0  0  0  0
  9 11  1  0  0  0  0
  9 14  1  0  0  0  0
  9 21  1  0  0  0  0
 10 13  1  0  0  0  0
 10 18  1  0  0  0  0
 10 25  1  0  0  0  0
 11 17  1  0  0  0  0
 11 19  1  0  0  0  0
 11 38  1  0  0  0  0
 12 15  1  0  0  0  0
 12 16  1  0  0  0  0
 12 24  1  0  0  0  0
 12 27  1  0  0  0  0
 13 16  2  0  0  0  0
 13 26  1  0  0  0  0
 14 22  1  0  0  0  0
 14 39  1  0  0  0  0
 15 20  1  0  0  0  0
 15 23  1  0  0  0  0
 15 40  1  0  0  0  0
 16 22  1  0  0  0  0
 17 18  1  0  0  0  0
 17 41  1  0  0  0  0
 17 42  1  0  0  0  0
 19 30  1  0  0  0  0
 19 31  1  0  0  0  0
 19 43  1  0  0  0  0
 20 29  1  0  0  0  0
 20 32  1  0  0  0  0
 20 33  1  0  0  0  0
 21 44  1  0  0  0  0
 21 45  1  0  0  0  0
 21 46  1  0  0  0  0
 23 26  1  0  0  0  0
 23 47  1  0  0  0  0
 23 48  1  0  0  0  0
 24 28  1  0  0  0  0
 24 49  1  0  0  0  0
 24 50  1  0  0  0  0
 25 51  1  0  0  0  0
 25 52  1  0  0  0  0
 25 53  1  0  0  0  0
 27 54  1  0  0  0  0
 27 55  1  0  0  0  0
 27 56  1  0  0  0  0
 28 29  1  0  0  0  0
 28 57  1  0  0  0  0
 28 58  1  0  0  0  0
 30 34  1  0  0  0  0
 30 59  1  0  0  0  0
 30 60  1  0  0  0  0
 31 61  1  0  0  0  0
 31 62  1  0  0  0  0
 31 63  1  0  0  0  0
 32 64  1  0  0  0  0
 32 65  1  0  0  0  0
 32 66  1  0  0  0  0
 33 67  1  0  0  0  0
 33 68  1  0  0  0  0
 33 69  1  0  0  0  0
 34 36  1  0  0  0  0
 34 70  1  0  0  0  0
 34 71  1  0  0  0  0
 35 37  1  0  0  0  0
 37 72  1  0  0  0  0
 37 73  1  0  0  0  0
 37 74  1  0  0  0  0
M  END
> <PUBCHEM_COMPOUND_CID>
23247891

> <PUBCHEM_CONFORMER_RMSD>
1

> <PUBCHEM_CONFORMER_DIVERSEORDER>
1
2
3

> <PUBCHEM_MMFF94_PARTIAL_CHARGES>
26
1 -0.43
10 0.2
12 0.14
13 -0.12
14 0.34
16 -0.12
17 0.06
18 0.45
2 -0.57
20 0.06
22 0.49
23 0.06
26 0.49
28 0.06
29 0.45
3 -0.57
34 0.06
35 0.66
36 0.66
37 0.06
4 -0.57
5 -0.57
6 -0.57
7 -0.65
75 0.5
8 -0.57

> <PUBCHEM_EFFECTIVE_ROTOR_COUNT>
7.4

> <PUBCHEM_PHARMACOPHORE_FEATURES>
14
1 2 acceptor
1 3 acceptor
1 31 hydrophobe
1 4 acceptor
1 5 acceptor
1 6 acceptor
1 7 acceptor
1 8 acceptor
3 20 32 33 hydrophobe
3 7 8 36 anion
5 9 10 11 17 18 rings
6 12 13 15 16 23 26 rings
6 12 15 20 24 28 29 rings
6 9 10 13 14 16 22 rings

> <PUBCHEM_HEAVY_ATOM_COUNT>
37

> <PUBCHEM_ATOM_DEF_STEREO_COUNT>
7

> <PUBCHEM_ATOM_UDEF_STEREO_COUNT>
0

> <PUBCHEM_BOND_DEF_STEREO_COUNT>
0

> <PUBCHEM_BOND_UDEF_STEREO_COUNT>
0

> <PUBCHEM_ISOTOPIC_ATOM_COUNT>
0

> <PUBCHEM_COMPONENT_COUNT>
1

> <PUBCHEM_CACTVS_TAUTO_COUNT>
16

> <PUBCHEM_CONFORMER_ID>
0162BC1300000001

> <PUBCHEM_MMFF94_ENERGY>
139.6728

> <PUBCHEM_FEATURE_SELFOVERLAP>
71.213

> <PUBCHEM_SHAPE_FINGERPRINT>
11115154 58 18060132159876587033
11297750 10 17464832546714475739
11513181 2 18126571111008269287
1200032 147 15503203476932013749
12107698 1 18342740693808825428
12236239 1 17703799102182265466
12293681 160 18261385663858584955
12788726 201 18410007702588440249
13140716 1 18046368571170424920
13540713 5 17974282127826613731
13782708 43 16988563493857946630
13811026 1 18335701714878013978
13911987 19 18260261958685714039
140371 6 18115891705202356320
14068700 675 18341603811206565036
14681490 219 18411131438169544381
14790565 3 18118980091435738513
14931854 50 18261376833780507421
15361156 5 18056508130163437652
17349148 13 18114474400544098040
19958102 18 18040434369518510166
20715895 44 17749103404809653446
20775438 99 17407365480693774167
21033648 29 16370723768236286382
21859007 373 17023449933013923716
23559900 14 18264220256612287240
23569914 152 17399778420458923423
3380486 145 17902261079538859211
350125 39 18190196606312508480
4015057 19 18268997659887982273
4353968 344 18341328886998986326
463206 1 18339931527167004387
513532 50 18056172890891402641
5171179 24 18059283353579387945
57527295 17 18262502738013750663
6004065 56 18198617937509872865
6371009 1 18334290951418160416
7226269 152 18187372076962839208

> <PUBCHEM_SHAPE_MULTIPOLES>
714.49
14.04
3.76
2.25
2.44
3.28
-1.02
-2.41
-9.96
-1.57
1.29
-3.7
-0.95
-1.47

> <PUBCHEM_SHAPE_SELFOVERLAP>
1532.491

> <PUBCHEM_SHAPE_VOLUME>
390.7

> <PUBCHEM_COORDINATE_TYPE>
2
5
10

$$$$
