129865509
  -OEChem-09122005203D

 71 74  0     1  0  0  0  0  0999 V2000
    6.3923   -0.5830   -0.6645 O   0  0  0  0  0  0  0  0  0  0  0  0
   -1.3315    2.7919    0.8829 O   0  0  0  0  0  0  0  0  0  0  0  0
    1.4205   -2.9393   -0.3476 O   0  0  0  0  0  0  0  0  0  0  0  0
    1.1594    2.9178    0.5407 O   0  0  0  0  0  0  0  0  0  0  0  0
   -7.4731    0.8039   -1.9585 O   0  0  0  0  0  0  0  0  0  0  0  0
   -7.7067    0.6026    0.2914 O   0  0  0  0  0  0  0  0  0  0  0  0
   -1.2813   -0.6462    0.4079 C   0  0  1  0  0  0  0  0  0  0  0  0
   -0.5316    0.6476   -0.0663 C   0  0  2  0  0  0  0  0  0  0  0  0
    3.0713   -0.7763    0.8265 C   0  0  1  0  0  0  0  0  0  0  0  0
    3.8636    0.5664    0.6280 C   0  0  1  0  0  0  0  0  0  0  0  0
   -2.7558   -0.3658    0.0165 C   0  0  2  0  0  0  0  0  0  0  0  0
    0.9248    0.5468    0.3555 C   0  0  0  0  0  0  0  0  0  0  0  0
    1.6063   -0.6332    0.3477 C   0  0  0  0  0  0  0  0  0  0  0  0
    4.4087    0.8376   -0.8432 C   0  0  0  0  0  0  0  0  0  0  0  0
   -0.6628   -1.8423   -0.2952 C   0  0  0  0  0  0  0  0  0  0  0  0
   -2.9700    1.0826    0.4825 C   0  0  0  0  0  0  0  0  0  0  0  0
    3.9512   -1.9106    0.2278 C   0  0  0  0  0  0  0  0  0  0  0  0
   -1.5582    1.6530    0.4988 C   0  0  0  0  0  0  0  0  0  0  0  0
    3.0707    1.7257    1.2306 C   0  0  0  0  0  0  0  0  0  0  0  0
    5.1613   -0.4166   -1.3743 C   0  0  2  0  0  0  0  0  0  0  0  0
   -3.8061   -1.3159    0.5812 C   0  0  1  0  0  0  0  0  0  0  0  0
    0.8460   -1.8789   -0.1023 C   0  0  0  0  0  0  0  0  0  0  0  0
   -1.1863   -0.8850    1.9546 C   0  0  0  0  0  0  0  0  0  0  0  0
    1.6661    1.8077    0.6968 C   0  0  0  0  0  0  0  0  0  0  0  0
    4.3352   -1.6925   -1.2287 C   0  0  0  0  0  0  0  0  0  0  0  0
   -0.5264    0.9106   -1.5961 C   0  0  0  0  0  0  0  0  0  0  0  0
    2.9624   -1.1108    2.3440 C   0  0  0  0  0  0  0  0  0  0  0  0
    3.3243    1.2096   -1.8776 C   0  0  0  0  0  0  0  0  0  0  0  0
    5.4073    2.0261   -0.8129 C   0  0  0  0  0  0  0  0  0  0  0  0
   -5.2179   -0.6977    0.5936 C   0  0  0  0  0  0  0  0  0  0  0  0
   -3.8205   -2.6174   -0.2274 C   0  0  0  0  0  0  0  0  0  0  0  0
   -5.6933   -0.2418   -0.7874 C   0  0  0  0  0  0  0  0  0  0  0  0
   -7.0497    0.4235   -0.7247 C   0  0  0  0  0  0  0  0  0  0  0  0
    4.7684    0.4825    1.2508 H   0  0  0  0  0  0  0  0  0  0  0  0
   -2.8390   -0.3800   -1.0781 H   0  0  0  0  0  0  0  0  0  0  0  0
   -0.8723   -1.8487   -1.3699 H   0  0  0  0  0  0  0  0  0  0  0  0
   -1.0367   -2.7790    0.1264 H   0  0  0  0  0  0  0  0  0  0  0  0
   -3.3607    1.1570    1.5015 H   0  0  0  0  0  0  0  0  0  0  0  0
   -3.5773    1.6701   -0.2086 H   0  0  0  0  0  0  0  0  0  0  0  0
    4.8788   -1.9801    0.8155 H   0  0  0  0  0  0  0  0  0  0  0  0
    3.5040   -2.8996    0.3551 H   0  0  0  0  0  0  0  0  0  0  0  0
    3.5696    2.6807    1.0417 H   0  0  0  0  0  0  0  0  0  0  0  0
    3.0034    1.6366    2.3207 H   0  0  0  0  0  0  0  0  0  0  0  0
    5.4282   -0.2774   -2.4291 H   0  0  0  0  0  0  0  0  0  0  0  0
   -3.6020   -1.5723    1.6249 H   0  0  0  0  0  0  0  0  0  0  0  0
   -1.7286   -0.1309    2.5332 H   0  0  0  0  0  0  0  0  0  0  0  0
   -0.1593   -0.8748    2.3282 H   0  0  0  0  0  0  0  0  0  0  0  0
   -1.5896   -1.8660    2.2294 H   0  0  0  0  0  0  0  0  0  0  0  0
    4.9330   -2.5515   -1.5574 H   0  0  0  0  0  0  0  0  0  0  0  0
    3.4452   -1.6622   -1.8648 H   0  0  0  0  0  0  0  0  0  0  0  0
   -1.5293    1.0230   -2.0201 H   0  0  0  0  0  0  0  0  0  0  0  0
   -0.0170    0.1203   -2.1572 H   0  0  0  0  0  0  0  0  0  0  0  0
   -0.0054    1.8504   -1.8203 H   0  0  0  0  0  0  0  0  0  0  0  0
    2.5326   -2.1088    2.4959 H   0  0  0  0  0  0  0  0  0  0  0  0
    2.3263   -0.4058    2.8898 H   0  0  0  0  0  0  0  0  0  0  0  0
    3.9475   -1.1018    2.8248 H   0  0  0  0  0  0  0  0  0  0  0  0
    5.9408    2.1129   -1.7670 H   0  0  0  0  0  0  0  0  0  0  0  0
    2.5664    0.4330   -1.9937 H   0  0  0  0  0  0  0  0  0  0  0  0
    4.9003    2.9818   -0.6458 H   0  0  0  0  0  0  0  0  0  0  0  0
    6.1573    1.9062   -0.0237 H   0  0  0  0  0  0  0  0  0  0  0  0
    2.8249    2.1502   -1.6284 H   0  0  0  0  0  0  0  0  0  0  0  0
    3.7720    1.3572   -2.8685 H   0  0  0  0  0  0  0  0  0  0  0  0
   -5.2690    0.1368    1.3024 H   0  0  0  0  0  0  0  0  0  0  0  0
   -5.9292   -1.4374    0.9864 H   0  0  0  0  0  0  0  0  0  0  0  0
   -3.7614   -2.4431   -1.3067 H   0  0  0  0  0  0  0  0  0  0  0  0
   -4.7387   -3.1848   -0.0355 H   0  0  0  0  0  0  0  0  0  0  0  0
   -3.0027   -3.2791    0.0600 H   0  0  0  0  0  0  0  0  0  0  0  0
    6.8492   -1.3522   -1.0455 H   0  0  0  0  0  0  0  0  0  0  0  0
   -5.0092    0.4708   -1.2512 H   0  0  0  0  0  0  0  0  0  0  0  0
   -5.7905   -1.1087   -1.4502 H   0  0  0  0  0  0  0  0  0  0  0  0
   -8.3545    1.2334   -1.9259 H   0  0  0  0  0  0  0  0  0  0  0  0
  1 20  1  0  0  0  0
  1 68  1  0  0  0  0
  2 18  2  0  0  0  0
  3 22  2  0  0  0  0
  4 24  2  0  0  0  0
  5 33  1  0  0  0  0
  5 71  1  0  0  0  0
  6 33  2  0  0  0  0
  7  8  1  0  0  0  0
  7 11  1  0  0  0  0
  7 15  1  0  0  0  0
  7 23  1  0  0  0  0
  8 12  1  0  0  0  0
  8 18  1  0  0  0  0
  8 26  1  0  0  0  0
  9 10  1  0  0  0  0
  9 13  1  0  0  0  0
  9 17  1  0  0  0  0
  9 27  1  0  0  0  0
 10 14  1  0  0  0  0
 10 19  1  0  0  0  0
 10 34  1  0  0  0  0
 11 16  1  0  0  0  0
 11 21  1  0  0  0  0
 11 35  1  0  0  0  0
 12 13  2  0  0  0  0
 12 24  1  0  0  0  0
 13 22  1  0  0  0  0
 14 20  1  0  0  0  0
 14 28  1  0  0  0  0
 14 29  1  0  0  0  0
 15 22  1  0  0  0  0
 15 36  1  0  0  0  0
 15 37  1  0  0  0  0
 16 18  1  0  0  0  0
 16 38  1  0  0  0  0
 16 39  1  0  0  0  0
 17 25  1  0  0  0  0
 17 40  1  0  0  0  0
 17 41  1  0  0  0  0
 19 24  1  0  0  0  0
 19 42  1  0  0  0  0
 19 43  1  0  0  0  0
 20 25  1  0  0  0  0
 20 44  1  0  0  0  0
 21 30  1  0  0  0  0
 21 31  1  0  0  0  0
 21 45  1  0  0  0  0
 23 46  1  0  0  0  0
 23 47  1  0  0  0  0
 23 48  1  0  0  0  0
 25 49  1  0  0  0  0
 25 50  1  0  0  0  0
 26 51  1  0  0  0  0
 26 52  1  0  0  0  0
 26 53  1  0  0  0  0
 27 54  1  0  0  0  0
 27 55  1  0  0  0  0
 27 56  1  0  0  0  0
 28 58  1  0  0  0  0
 28 61  1  0  0  0  0
 28 62  1  0  0  0  0
 29 57  1  0  0  0  0
 29 59  1  0  0  0  0
 29 60  1  0  0  0  0
 30 32  1  0  0  0  0
 30 63  1  0  0  0  0
 30 64  1  0  0  0  0
 31 65  1  0  0  0  0
 31 66  1  0  0  0  0
 31 67  1  0  0  0  0
 32 33  1  0  0  0  0
 32 69  1  0  0  0  0
 32 70  1  0  0  0  0
M  END
> <PUBCHEM_COMPOUND_CID>
129865509

> <PUBCHEM_CONFORMER_RMSD>
0.8

> <PUBCHEM_CONFORMER_DIVERSEORDER>
1
16
13
18
21
19
20
5
10
6
17
12
14
11
22
4
9
15
7
3
2
8

> <PUBCHEM_MMFF94_PARTIAL_CHARGES>
21
1 -0.68
12 -0.12
13 -0.12
15 0.06
16 0.06
18 0.45
19 0.06
2 -0.57
20 0.28
22 0.49
24 0.49
3 -0.57
32 0.06
33 0.66
4 -0.57
5 -0.65
6 -0.57
68 0.4
71 0.5
8 0.2
9 0.14

> <PUBCHEM_EFFECTIVE_ROTOR_COUNT>
5.6

> <PUBCHEM_PHARMACOPHORE_FEATURES>
14
1 1 acceptor
1 1 donor
1 2 acceptor
1 3 acceptor
1 31 hydrophobe
1 4 acceptor
1 5 acceptor
1 6 acceptor
3 14 28 29 hydrophobe
3 5 6 33 anion
5 7 8 11 16 18 rings
6 7 8 12 13 15 22 rings
6 9 10 12 13 19 24 rings
6 9 10 14 17 20 25 rings

> <PUBCHEM_HEAVY_ATOM_COUNT>
33

> <PUBCHEM_ATOM_DEF_STEREO_COUNT>
6

> <PUBCHEM_ATOM_UDEF_STEREO_COUNT>
1

> <PUBCHEM_BOND_DEF_STEREO_COUNT>
0

> <PUBCHEM_BOND_UDEF_STEREO_COUNT>
0

> <PUBCHEM_ISOTOPIC_ATOM_COUNT>
0

> <PUBCHEM_COMPONENT_COUNT>
1

> <PUBCHEM_CACTVS_TAUTO_COUNT>
20

> <PUBCHEM_CONFORMER_ID>
07BD972500000001

> <PUBCHEM_MMFF94_ENERGY>
124.512

> <PUBCHEM_FEATURE_SELFOVERLAP>
71.248

> <PUBCHEM_SHAPE_FINGERPRINT>
10693767 8 17917426493208162167
10906281 52 18341344314479178739
11135609 187 18046635770109237036
11578080 2 17387123166139920863
12011746 2 18410578391793236547
12107698 1 17489873721577375144
12236239 1 18113901601681975727
12788726 201 18409448042775166177
12838862 33 18341319077098554968
13140716 1 18196643206194974954
13224815 77 18260269659524743322
13533116 47 18343580711727841583
13782708 43 12247684881179564157
13811026 1 18412543244858051307
14790565 3 18341063968272102800
14840074 17 18060419119146473663
14931854 50 18338535105114532540
15082195 135 18336269023902156540
15183329 4 18342452639474733101
15439362 3 17755872166575573236
15664445 248 17750238165709288340
18222031 100 17775282776967680105
19319366 153 18259983790902802746
19591789 44 18342183245734864218
20511986 3 18187075196038391503
21033648 29 18188205523998377307
21279426 13 18411416241840503959
21424621 283 16081365203735512861
221357 26 18273218573478774256
2215653 11 18272369780551013143
22393880 68 18340483495216078023
23559900 14 18342173418765139393
23569914 152 17478322038168412247
255183 451 17841436929810293742
3004659 81 18261109664448276538
335352 9 18413388748426062495
350125 39 18410294705377886374
4340502 62 16225763042928461466
58260988 393 14996271514045235276
59755656 215 18411418389065773711
6086070 43 18131068290228594507
6328613 192 18334016099307634389

> <PUBCHEM_SHAPE_MULTIPOLES>
643.91
14.88
2.63
1.56
20.88
0.02
0.06
-1.41
-5.98
-1.07
0.15
-0.67
-0.1
0.23

> <PUBCHEM_SHAPE_SELFOVERLAP>
1381.2

> <PUBCHEM_SHAPE_VOLUME>
349.6

> <PUBCHEM_COORDINATE_TYPE>
2
5
10

$$$$
