10601916
  -OEChem-09122004143D

 79 82  0     1  0  0  0  0  0999 V2000
    7.8214   -1.5522   -0.1908 O   0  0  0  0  0  0  0  0  0  0  0  0
   -0.0711    3.2645    1.2649 O   0  0  0  0  0  0  0  0  0  0  0  0
    1.5126   -2.1393   -1.9210 O   0  0  0  0  0  0  0  0  0  0  0  0
    2.4404    2.8926    1.0900 O   0  0  0  0  0  0  0  0  0  0  0  0
   -6.8334    1.6200   -1.4314 O   0  0  0  0  0  0  0  0  0  0  0  0
   -7.2206   -2.8840    2.0424 O   0  0  0  0  0  0  0  0  0  0  0  0
   -6.8493   -0.7863    2.8278 O   0  0  0  0  0  0  0  0  0  0  0  0
   -0.6858    0.3804   -0.5637 C   0  0  1  0  0  0  0  0  0  0  0  0
    0.3811    1.5201   -0.4313 C   0  0  2  0  0  0  0  0  0  0  0  0
    3.4864   -0.9703   -0.0728 C   0  0  1  0  0  0  0  0  0  0  0  0
    4.4669    0.1561    0.4276 C   0  0  2  0  0  0  0  0  0  0  0  0
   -1.9915    1.1534   -0.8844 C   0  0  2  0  0  0  0  0  0  0  0  0
    1.7014    0.9044   -0.0102 C   0  0  0  0  0  0  0  0  0  0  0  0
    2.1249   -0.3077   -0.4657 C   0  0  0  0  0  0  0  0  0  0  0  0
    5.9479   -0.2554    0.7580 C   0  0  0  0  0  0  0  0  0  0  0  0
   -0.2307   -0.5725   -1.6566 C   0  0  0  0  0  0  0  0  0  0  0  0
   -1.9602    2.3208    0.1162 C   0  0  0  0  0  0  0  0  0  0  0  0
    4.2037   -1.6883   -1.2528 C   0  0  0  0  0  0  0  0  0  0  0  0
   -0.4783    2.4599    0.4386 C   0  0  0  0  0  0  0  0  0  0  0  0
    3.7860    0.9909    1.5091 C   0  0  0  0  0  0  0  0  0  0  0  0
   -3.2916    0.3608   -0.8064 C   0  0  1  0  0  0  0  0  0  0  0  0
    6.5204   -1.0320   -0.4597 C   0  0  2  0  0  0  0  0  0  0  0  0
    1.1753   -1.0857   -1.3808 C   0  0  0  0  0  0  0  0  0  0  0  0
   -0.8760   -0.4442    0.7570 C   0  0  0  0  0  0  0  0  0  0  0  0
    2.6147    1.6944    0.8784 C   0  0  0  0  0  0  0  0  0  0  0  0
    5.6202   -2.1639   -0.9334 C   0  0  0  0  0  0  0  0  0  0  0  0
    0.6757    2.3347   -1.7196 C   0  0  0  0  0  0  0  0  0  0  0  0
    3.1173   -2.0203    1.0020 C   0  0  0  0  0  0  0  0  0  0  0  0
    6.0992   -1.0471    2.0727 C   0  0  0  0  0  0  0  0  0  0  0  0
    6.8212    1.0208    0.9293 C   0  0  0  0  0  0  0  0  0  0  0  0
   -4.4916    1.2891   -1.0882 C   0  0  0  0  0  0  0  0  0  0  0  0
   -3.2390   -0.8215   -1.7781 C   0  0  0  0  0  0  0  0  0  0  0  0
   -5.8701    0.6097   -1.1165 C   0  0  1  0  0  0  0  0  0  0  0  0
   -6.2409    0.0103    0.2149 C   0  0  0  0  0  0  0  0  0  0  0  0
   -6.5874   -1.2651    0.4722 C   0  0  0  0  0  0  0  0  0  0  0  0
   -6.7087   -2.3685   -0.5366 C   0  0  0  0  0  0  0  0  0  0  0  0
   -6.8905   -1.5784    1.8989 C   0  0  0  0  0  0  0  0  0  0  0  0
    4.5741    0.8313   -0.4410 H   0  0  0  0  0  0  0  0  0  0  0  0
   -1.9211    1.5676   -1.8995 H   0  0  0  0  0  0  0  0  0  0  0  0
   -0.2389   -0.1099   -2.6489 H   0  0  0  0  0  0  0  0  0  0  0  0
   -0.8355   -1.4767   -1.7048 H   0  0  0  0  0  0  0  0  0  0  0  0
   -2.5004    2.1024    1.0423 H   0  0  0  0  0  0  0  0  0  0  0  0
   -2.3293    3.2463   -0.3340 H   0  0  0  0  0  0  0  0  0  0  0  0
    4.2393   -1.0194   -2.1229 H   0  0  0  0  0  0  0  0  0  0  0  0
    3.6600   -2.5845   -1.5641 H   0  0  0  0  0  0  0  0  0  0  0  0
    4.4524    1.7693    1.8912 H   0  0  0  0  0  0  0  0  0  0  0  0
    3.4413    0.4109    2.3688 H   0  0  0  0  0  0  0  0  0  0  0  0
   -3.4322   -0.0381    0.2050 H   0  0  0  0  0  0  0  0  0  0  0  0
    6.6425   -0.3328   -1.2974 H   0  0  0  0  0  0  0  0  0  0  0  0
    0.0532   -0.8898    1.1227 H   0  0  0  0  0  0  0  0  0  0  0  0
   -1.5692   -1.2790    0.6132 H   0  0  0  0  0  0  0  0  0  0  0  0
   -1.2662    0.1646    1.5786 H   0  0  0  0  0  0  0  0  0  0  0  0
    5.6003   -2.9749   -0.1965 H   0  0  0  0  0  0  0  0  0  0  0  0
    6.0589   -2.6168   -1.8322 H   0  0  0  0  0  0  0  0  0  0  0  0
   -0.2090    2.8325   -2.1290 H   0  0  0  0  0  0  0  0  0  0  0  0
    1.1084    1.7202   -2.5162 H   0  0  0  0  0  0  0  0  0  0  0  0
    1.3945    3.1370   -1.5084 H   0  0  0  0  0  0  0  0  0  0  0  0
    2.3687   -2.7267    0.6215 H   0  0  0  0  0  0  0  0  0  0  0  0
    3.9618   -2.6337    1.3114 H   0  0  0  0  0  0  0  0  0  0  0  0
    2.6876   -1.5670    1.9006 H   0  0  0  0  0  0  0  0  0  0  0  0
    5.7797   -2.0852    1.9837 H   0  0  0  0  0  0  0  0  0  0  0  0
    7.1483   -1.0835    2.3914 H   0  0  0  0  0  0  0  0  0  0  0  0
    5.5393   -0.5855    2.8916 H   0  0  0  0  0  0  0  0  0  0  0  0
    6.6962    1.7049    0.0826 H   0  0  0  0  0  0  0  0  0  0  0  0
    6.5746    1.5677    1.8448 H   0  0  0  0  0  0  0  0  0  0  0  0
    7.8866    0.7707    0.9928 H   0  0  0  0  0  0  0  0  0  0  0  0
   -4.3384    1.7908   -2.0542 H   0  0  0  0  0  0  0  0  0  0  0  0
   -4.5253    2.1027   -0.3516 H   0  0  0  0  0  0  0  0  0  0  0  0
   -4.2276   -1.2178   -2.0139 H   0  0  0  0  0  0  0  0  0  0  0  0
   -2.7284   -1.6758   -1.3303 H   0  0  0  0  0  0  0  0  0  0  0  0
   -2.7786   -0.5549   -2.7344 H   0  0  0  0  0  0  0  0  0  0  0  0
    7.7304   -2.2919    0.4331 H   0  0  0  0  0  0  0  0  0  0  0  0
   -5.9332   -0.1081   -1.9332 H   0  0  0  0  0  0  0  0  0  0  0  0
   -6.2061    0.7264    1.0357 H   0  0  0  0  0  0  0  0  0  0  0  0
   -6.6112    1.9761   -2.3087 H   0  0  0  0  0  0  0  0  0  0  0  0
   -5.9671   -3.1489   -0.3353 H   0  0  0  0  0  0  0  0  0  0  0  0
   -6.5618   -2.0384   -1.5664 H   0  0  0  0  0  0  0  0  0  0  0  0
   -7.7072   -2.8173   -0.4949 H   0  0  0  0  0  0  0  0  0  0  0  0
   -7.4219   -3.1113    2.9752 H   0  0  0  0  0  0  0  0  0  0  0  0
  1 22  1  0  0  0  0
  1 72  1  0  0  0  0
  2 19  2  0  0  0  0
  3 23  2  0  0  0  0
  4 25  2  0  0  0  0
  5 33  1  0  0  0  0
  5 75  1  0  0  0  0
  6 37  1  0  0  0  0
  6 79  1  0  0  0  0
  7 37  2  0  0  0  0
  8  9  1  0  0  0  0
  8 12  1  0  0  0  0
  8 16  1  0  0  0  0
  8 24  1  0  0  0  0
  9 13  1  0  0  0  0
  9 19  1  0  0  0  0
  9 27  1  0  0  0  0
 10 11  1  0  0  0  0
 10 14  1  0  0  0  0
 10 18  1  0  0  0  0
 10 28  1  0  0  0  0
 11 15  1  0  0  0  0
 11 20  1  0  0  0  0
 11 38  1  0  0  0  0
 12 17  1  0  0  0  0
 12 21  1  0  0  0  0
 12 39  1  0  0  0  0
 13 14  2  0  0  0  0
 13 25  1  0  0  0  0
 14 23  1  0  0  0  0
 15 22  1  0  0  0  0
 15 29  1  0  0  0  0
 15 30  1  0  0  0  0
 16 23  1  0  0  0  0
 16 40  1  0  0  0  0
 16 41  1  0  0  0  0
 17 19  1  0  0  0  0
 17 42  1  0  0  0  0
 17 43  1  0  0  0  0
 18 26  1  0  0  0  0
 18 44  1  0  0  0  0
 18 45  1  0  0  0  0
 20 25  1  0  0  0  0
 20 46  1  0  0  0  0
 20 47  1  0  0  0  0
 21 31  1  0  0  0  0
 21 32  1  0  0  0  0
 21 48  1  0  0  0  0
 22 26  1  0  0  0  0
 22 49  1  0  0  0  0
 24 50  1  0  0  0  0
 24 51  1  0  0  0  0
 24 52  1  0  0  0  0
 26 53  1  0  0  0  0
 26 54  1  0  0  0  0
 27 55  1  0  0  0  0
 27 56  1  0  0  0  0
 27 57  1  0  0  0  0
 28 58  1  0  0  0  0
 28 59  1  0  0  0  0
 28 60  1  0  0  0  0
 29 61  1  0  0  0  0
 29 62  1  0  0  0  0
 29 63  1  0  0  0  0
 30 64  1  0  0  0  0
 30 65  1  0  0  0  0
 30 66  1  0  0  0  0
 31 33  1  0  0  0  0
 31 67  1  0  0  0  0
 31 68  1  0  0  0  0
 32 69  1  0  0  0  0
 32 70  1  0  0  0  0
 32 71  1  0  0  0  0
 33 34  1  0  0  0  0
 33 73  1  0  0  0  0
 34 35  2  0  0  0  0
 34 74  1  0  0  0  0
 35 36  1  0  0  0  0
 35 37  1  0  0  0  0
 36 76  1  0  0  0  0
 36 77  1  0  0  0  0
 36 78  1  0  0  0  0
M  END
> <PUBCHEM_COMPOUND_CID>
10601916

> <PUBCHEM_CONFORMER_RMSD>
1

> <PUBCHEM_CONFORMER_DIVERSEORDER>
1
2
3

> <PUBCHEM_MMFF94_PARTIAL_CHARGES>
27
1 -0.68
10 0.14
13 -0.12
14 -0.12
16 0.06
17 0.06
19 0.45
2 -0.57
20 0.06
22 0.28
23 0.49
25 0.49
3 -0.57
33 0.42
34 -0.29
35 -0.12
36 0.14
37 0.71
4 -0.57
5 -0.68
6 -0.65
7 -0.57
72 0.4
74 0.15
75 0.4
79 0.5
9 0.2

> <PUBCHEM_EFFECTIVE_ROTOR_COUNT>
6.6

> <PUBCHEM_PHARMACOPHORE_FEATURES>
17
1 1 acceptor
1 1 donor
1 2 acceptor
1 3 acceptor
1 32 hydrophobe
1 36 hydrophobe
1 4 acceptor
1 5 acceptor
1 5 donor
1 6 acceptor
1 7 acceptor
3 15 29 30 hydrophobe
3 6 7 37 anion
5 8 9 12 17 19 rings
6 10 11 13 14 20 25 rings
6 10 11 15 18 22 26 rings
6 8 9 13 14 16 23 rings

> <PUBCHEM_HEAVY_ATOM_COUNT>
37

> <PUBCHEM_ATOM_DEF_STEREO_COUNT>
8

> <PUBCHEM_ATOM_UDEF_STEREO_COUNT>
0

> <PUBCHEM_BOND_DEF_STEREO_COUNT>
1

> <PUBCHEM_BOND_UDEF_STEREO_COUNT>
0

> <PUBCHEM_ISOTOPIC_ATOM_COUNT>
0

> <PUBCHEM_COMPONENT_COUNT>
1

> <PUBCHEM_CACTVS_TAUTO_COUNT>
8

> <PUBCHEM_CONFORMER_ID>
00A1C5BC00000001

> <PUBCHEM_MMFF94_ENERGY>
137.7582

> <PUBCHEM_FEATURE_SELFOVERLAP>
86.439

> <PUBCHEM_SHAPE_FINGERPRINT>
10076449 9 18412833482327246270
11115154 58 15574429912924463173
11135609 12 18335703891919829273
11456790 92 17561078065387370834
11578080 2 15792880947376640780
11646440 116 18272653450060800851
117089 54 17840311013013823110
11963148 33 17968087608134003746
12035758 1 18201146716028594658
12120059 9 18190158162065756611
12166972 35 17603307063381192205
12422481 6 18060421313916836253
13165053 68 17097792411072496358
13782708 43 18113336444822278627
13811026 1 18408880741592423454
13947930 73 18042698367546439395
14294032 229 13326850020102510417
14849402 71 17417524842862850816
14856354 85 17313104125690087847
14955137 171 18343580759299873877
15021287 119 18272929458229972101
15131766 46 13036609831812201034
15352257 5 17821727226309617899
15927050 60 17554029323779864124
18608769 82 18261111889331441875
19611394 137 18411421734407642450
20105231 36 18202005421941822950
21267235 1 18059572444006698270
21781051 124 18410303523041035366
22122407 14 14332835071385429675
22149856 69 18131358479578040952
22223350 30 17344043419900357491
2260408 40 16988578874510081015
23522609 53 16128374947075492576
23559900 14 18129924772044604768
25222932 49 18260537944198530251
25269216 80 16371012923463471475
2747138 104 18343021069205108992
2838139 119 10735865171784406227
3178227 256 18272934942344007066
3383291 50 18186803621331408403
350125 39 18060408123909252868
392239 28 18201719574592913047
397830 11 18262516013240931865
404807 78 17531539762320844330
4073 2 18337954489860375813
4093350 32 15123517995265841358
484989 97 18334864926041115922
5104073 3 17987515905449407642
58083652 198 17561072619126070809
6009941 240 18261107427741266125
6086070 43 8069740750854357573
8863177 126 18262241127039621363
999808 66 18409733954606151599

> <PUBCHEM_SHAPE_MULTIPOLES>
720.36
20.51
2.95
1.96
14.74
0.73
-0.56
-13.19
-7.31
1.04
-0.44
1.69
-0.62
3.2

> <PUBCHEM_SHAPE_SELFOVERLAP>
1535.723

> <PUBCHEM_SHAPE_VOLUME>
395.9

> <PUBCHEM_COORDINATE_TYPE>
2
5
10

$$$$
