11191849
  -OEChem-09122005193D

 80 83  0     1  0  0  0  0  0999 V2000
    1.3628   -2.3721   -0.4775 O   0  0  0  0  0  0  0  0  0  0  0  0
   -1.2628    2.9473   -1.4058 O   0  0  0  0  0  0  0  0  0  0  0  0
    3.4928   -0.0336   -2.3163 O   0  0  0  0  0  0  0  0  0  0  0  0
    0.9524    3.5572    0.0018 O   0  0  0  0  0  0  0  0  0  0  0  0
   -6.3454   -1.3440   -0.2409 O   0  0  0  0  0  0  0  0  0  0  0  0
   -1.2301   -2.5554    0.2125 O   0  0  0  0  0  0  0  0  0  0  0  0
    0.8460   -3.8934    1.1826 O   0  0  0  0  0  0  0  0  0  0  0  0
    7.4490    0.6811    2.3404 O   0  0  0  0  0  0  0  0  0  0  0  0
    7.7360    1.2670    0.1636 O   0  0  0  0  0  0  0  0  0  0  0  0
    1.2284    0.0559   -0.3780 C   0  0  1  0  0  0  0  0  0  0  0  0
    0.4358    1.1805    0.3689 C   0  0  2  0  0  0  0  0  0  0  0  0
   -3.1643   -0.3887   -0.0202 C   0  0  1  0  0  0  0  0  0  0  0  0
   -3.8996    0.9666    0.2802 C   0  0  2  0  0  0  0  0  0  0  0  0
    2.7102    0.4461   -0.1111 C   0  0  2  0  0  0  0  0  0  0  0  0
   -1.0384    1.0402    0.0312 C   0  0  0  0  0  0  0  0  0  0  0  0
   -1.6279   -0.1848    0.0787 C   0  0  0  0  0  0  0  0  0  0  0  0
   -5.4789    0.9195    0.2675 C   0  0  0  0  0  0  0  0  0  0  0  0
    0.7883   -1.2808    0.2231 C   0  0  1  0  0  0  0  0  0  0  0  0
   -3.3074    2.0965   -0.5643 C   0  0  0  0  0  0  0  0  0  0  0  0
   -1.8220    2.3005   -0.2607 C   0  0  2  0  0  0  0  0  0  0  0  0
    2.7278    1.9677   -0.3483 C   0  0  0  0  0  0  0  0  0  0  0  0
    1.3051    2.3849   -0.0221 C   0  0  0  0  0  0  0  0  0  0  0  0
   -3.6663   -1.4362    1.0281 C   0  0  0  0  0  0  0  0  0  0  0  0
   -0.7377   -1.4258    0.1841 C   0  0  0  0  0  0  0  0  0  0  0  0
    3.7831   -0.2597   -0.9334 C   0  0  2  0  0  0  0  0  0  0  0  0
   -6.0068   -0.4438    0.8109 C   0  0  2  0  0  0  0  0  0  0  0  0
    0.9626    0.0514   -1.9219 C   0  0  0  0  0  0  0  0  0  0  0  0
    0.5287    1.1748    1.9234 C   0  0  0  0  0  0  0  0  0  0  0  0
   -4.9916   -1.1124    1.7288 C   0  0  0  0  0  0  0  0  0  0  0  0
   -3.4142   -0.9100   -1.4553 C   0  0  0  0  0  0  0  0  0  0  0  0
   -5.9837    2.0230    1.2427 C   0  0  0  0  0  0  0  0  0  0  0  0
   -6.0986    1.2479   -1.1079 C   0  0  0  0  0  0  0  0  0  0  0  0
    5.1687    0.3516   -0.6153 C   0  0  0  0  0  0  0  0  0  0  0  0
    3.7387   -1.7700   -0.6747 C   0  0  0  0  0  0  0  0  0  0  0  0
    5.6665    0.2131    0.8259 C   0  0  0  0  0  0  0  0  0  0  0  0
    1.0733   -3.6173    0.0125 C   0  0  0  0  0  0  0  0  0  0  0  0
    7.0478    0.7748    1.0484 C   0  0  0  0  0  0  0  0  0  0  0  0
    1.0716   -4.6196   -1.1018 C   0  0  0  0  0  0  0  0  0  0  0  0
   -3.6243    1.2149    1.3198 H   0  0  0  0  0  0  0  0  0  0  0  0
    2.9178    0.2582    0.9496 H   0  0  0  0  0  0  0  0  0  0  0  0
    1.1024   -1.3464    1.2719 H   0  0  0  0  0  0  0  0  0  0  0  0
   -3.8190    3.0467   -0.3698 H   0  0  0  0  0  0  0  0  0  0  0  0
   -3.4595    1.9089   -1.6340 H   0  0  0  0  0  0  0  0  0  0  0  0
   -1.7255    2.9824    0.5920 H   0  0  0  0  0  0  0  0  0  0  0  0
    3.4175    2.4702    0.3359 H   0  0  0  0  0  0  0  0  0  0  0  0
    2.9420    2.2551   -1.3813 H   0  0  0  0  0  0  0  0  0  0  0  0
   -3.7690   -2.4185    0.5483 H   0  0  0  0  0  0  0  0  0  0  0  0
   -2.9271   -1.5674    1.8293 H   0  0  0  0  0  0  0  0  0  0  0  0
   -6.9366   -0.2838    1.3701 H   0  0  0  0  0  0  0  0  0  0  0  0
    1.2949    0.9687   -2.4178 H   0  0  0  0  0  0  0  0  0  0  0  0
    1.3936   -0.8188   -2.4255 H   0  0  0  0  0  0  0  0  0  0  0  0
   -0.1058   -0.0211   -2.1514 H   0  0  0  0  0  0  0  0  0  0  0  0
    1.5579    1.2354    2.2918 H   0  0  0  0  0  0  0  0  0  0  0  0
    0.0674    0.2925    2.3791 H   0  0  0  0  0  0  0  0  0  0  0  0
    0.0090    2.0496    2.3367 H   0  0  0  0  0  0  0  0  0  0  0  0
   -4.7973   -0.4685    2.5954 H   0  0  0  0  0  0  0  0  0  0  0  0
   -5.4044   -2.0480    2.1264 H   0  0  0  0  0  0  0  0  0  0  0  0
   -4.4616   -1.1318   -1.6513 H   0  0  0  0  0  0  0  0  0  0  0  0
   -2.8727   -1.8440   -1.6461 H   0  0  0  0  0  0  0  0  0  0  0  0
   -3.0797   -0.1969   -2.2163 H   0  0  0  0  0  0  0  0  0  0  0  0
   -5.6273    1.8502    2.2644 H   0  0  0  0  0  0  0  0  0  0  0  0
   -5.6497    3.0201    0.9383 H   0  0  0  0  0  0  0  0  0  0  0  0
   -7.0795    2.0465    1.2771 H   0  0  0  0  0  0  0  0  0  0  0  0
   -5.8949    2.2815   -1.4084 H   0  0  0  0  0  0  0  0  0  0  0  0
   -5.7261    0.5996   -1.9036 H   0  0  0  0  0  0  0  0  0  0  0  0
   -7.1894    1.1383   -1.0778 H   0  0  0  0  0  0  0  0  0  0  0  0
    5.9055   -0.1223   -1.2808 H   0  0  0  0  0  0  0  0  0  0  0  0
    5.2031    1.4058   -0.9195 H   0  0  0  0  0  0  0  0  0  0  0  0
    3.4721   -2.0339    0.3518 H   0  0  0  0  0  0  0  0  0  0  0  0
    3.2182   -2.3132   -1.4658 H   0  0  0  0  0  0  0  0  0  0  0  0
    4.7596   -2.1658   -0.7850 H   0  0  0  0  0  0  0  0  0  0  0  0
   -1.2702    2.3147   -2.1448 H   0  0  0  0  0  0  0  0  0  0  0  0
    4.1759   -0.4849   -2.8412 H   0  0  0  0  0  0  0  0  0  0  0  0
   -6.6796   -2.1618    0.1654 H   0  0  0  0  0  0  0  0  0  0  0  0
    4.9963    0.7470    1.5069 H   0  0  0  0  0  0  0  0  0  0  0  0
    5.6926   -0.8431    1.1134 H   0  0  0  0  0  0  0  0  0  0  0  0
    2.0793   -4.7184   -1.5121 H   0  0  0  0  0  0  0  0  0  0  0  0
    0.3682   -4.3094   -1.8788 H   0  0  0  0  0  0  0  0  0  0  0  0
    0.7514   -5.5911   -0.7149 H   0  0  0  0  0  0  0  0  0  0  0  0
    8.3477    1.0514    2.4726 H   0  0  0  0  0  0  0  0  0  0  0  0
  1 18  1  0  0  0  0
  1 36  1  0  0  0  0
  2 20  1  0  0  0  0
  2 72  1  0  0  0  0
  3 25  1  0  0  0  0
  3 73  1  0  0  0  0
  4 22  2  0  0  0  0
  5 26  1  0  0  0  0
  5 74  1  0  0  0  0
  6 24  2  0  0  0  0
  7 36  2  0  0  0  0
  8 37  1  0  0  0  0
  8 80  1  0  0  0  0
  9 37  2  0  0  0  0
 10 11  1  0  0  0  0
 10 14  1  0  0  0  0
 10 18  1  0  0  0  0
 10 27  1  0  0  0  0
 11 15  1  0  0  0  0
 11 22  1  0  0  0  0
 11 28  1  0  0  0  0
 12 13  1  0  0  0  0
 12 16  1  0  0  0  0
 12 23  1  0  0  0  0
 12 30  1  0  0  0  0
 13 17  1  0  0  0  0
 13 19  1  0  0  0  0
 13 39  1  0  0  0  0
 14 21  1  0  0  0  0
 14 25  1  0  0  0  0
 14 40  1  0  0  0  0
 15 16  2  0  0  0  0
 15 20  1  0  0  0  0
 16 24  1  0  0  0  0
 17 26  1  0  0  0  0
 17 31  1  0  0  0  0
 17 32  1  0  0  0  0
 18 24  1  0  0  0  0
 18 41  1  0  0  0  0
 19 20  1  0  0  0  0
 19 42  1  0  0  0  0
 19 43  1  0  0  0  0
 20 44  1  0  0  0  0
 21 22  1  0  0  0  0
 21 45  1  0  0  0  0
 21 46  1  0  0  0  0
 23 29  1  0  0  0  0
 23 47  1  0  0  0  0
 23 48  1  0  0  0  0
 25 33  1  0  0  0  0
 25 34  1  0  0  0  0
 26 29  1  0  0  0  0
 26 49  1  0  0  0  0
 27 50  1  0  0  0  0
 27 51  1  0  0  0  0
 27 52  1  0  0  0  0
 28 53  1  0  0  0  0
 28 54  1  0  0  0  0
 28 55  1  0  0  0  0
 29 56  1  0  0  0  0
 29 57  1  0  0  0  0
 30 58  1  0  0  0  0
 30 59  1  0  0  0  0
 30 60  1  0  0  0  0
 31 61  1  0  0  0  0
 31 62  1  0  0  0  0
 31 63  1  0  0  0  0
 32 64  1  0  0  0  0
 32 65  1  0  0  0  0
 32 66  1  0  0  0  0
 33 35  1  0  0  0  0
 33 67  1  0  0  0  0
 33 68  1  0  0  0  0
 34 69  1  0  0  0  0
 34 70  1  0  0  0  0
 34 71  1  0  0  0  0
 35 37  1  0  0  0  0
 35 75  1  0  0  0  0
 35 76  1  0  0  0  0
 36 38  1  0  0  0  0
 38 77  1  0  0  0  0
 38 78  1  0  0  0  0
 38 79  1  0  0  0  0
M  END
> <PUBCHEM_COMPOUND_CID>
11191849

> <PUBCHEM_CONFORMER_RMSD>
1

> <PUBCHEM_CONFORMER_DIVERSEORDER>
1
2
3
4

> <PUBCHEM_MMFF94_PARTIAL_CHARGES>
28
1 -0.43
11 0.2
12 0.14
15 -0.28
16 -0.12
18 0.34
2 -0.68
20 0.42
21 0.06
22 0.45
24 0.49
25 0.28
26 0.28
3 -0.68
35 0.06
36 0.66
37 0.66
38 0.06
4 -0.57
5 -0.68
6 -0.57
7 -0.57
72 0.4
73 0.4
74 0.4
8 -0.65
80 0.5
9 -0.57

> <PUBCHEM_EFFECTIVE_ROTOR_COUNT>
7.8

> <PUBCHEM_PHARMACOPHORE_FEATURES>
17
1 2 acceptor
1 2 donor
1 3 acceptor
1 3 donor
1 4 acceptor
1 5 acceptor
1 5 donor
1 6 acceptor
1 7 acceptor
1 8 acceptor
1 9 acceptor
3 17 31 32 hydrophobe
3 8 9 37 anion
5 10 11 14 21 22 rings
6 10 11 15 16 18 24 rings
6 12 13 15 16 19 20 rings
6 12 13 17 23 26 29 rings

> <PUBCHEM_HEAVY_ATOM_COUNT>
38

> <PUBCHEM_ATOM_DEF_STEREO_COUNT>
8

> <PUBCHEM_ATOM_UDEF_STEREO_COUNT>
1

> <PUBCHEM_BOND_DEF_STEREO_COUNT>
0

> <PUBCHEM_BOND_UDEF_STEREO_COUNT>
0

> <PUBCHEM_ISOTOPIC_ATOM_COUNT>
0

> <PUBCHEM_COMPONENT_COUNT>
1

> <PUBCHEM_CACTVS_TAUTO_COUNT>
4

> <PUBCHEM_CONFORMER_ID>
00AAC62900000001

> <PUBCHEM_MMFF94_ENERGY>
167.9901

> <PUBCHEM_FEATURE_SELFOVERLAP>
86.443

> <PUBCHEM_SHAPE_FINGERPRINT>
10 15 18408884075341964504
10906281 52 18189355531308823249
10930396 42 18268122389315270248
10939801 23 18261110837998150488
1100329 8 18266741466570237466
11135926 11 18410008793673553013
11136131 41 18261949627008687050
11445158 3 17822577221448187212
11719270 70 18410292493427777750
12035758 1 18341334482808408656
12107698 1 15936411147699671580
12166972 35 16370727058545446836
12236239 1 14045745906503518716
12838862 33 18338499881750367613
13140716 1 18193562387503869563
13224815 77 18410856573490185477
13402501 40 18408328778497687141
13811026 1 18410572868497293222
14028597 1 17775297027447655539
14394314 77 18411702045475050929
14466204 15 18409449184983265296
14790565 3 18337404828156395509
15274700 242 18269252639660012198
1601671 61 18337117787075551233
16728300 4 17678433313596013618
16994733 274 16200150980580028194
17909252 39 17982468000697045166
19591789 44 18337681939630423379
20028762 73 18272091647043645591
20511986 3 17846774066556212357
21033648 29 18058716010047632264
21130935 74 18201723911903701230
21421861 104 18042971960867362635
22149856 69 18193863482529622305
23559900 14 18408884040860984609
24771293 8 18273214214119137224
3178227 256 18336559299471734289
3298306 158 18408892819399636807
3383291 50 18335702792619984770
350125 39 18409451401065479716
38695281 34 18343867710101697175
4093350 32 16917076520954055212
4340502 62 18412545388742635358
463206 1 18410862027445037151
469060 322 18264510445529262681
5104073 3 18266182738184585848
5265222 85 18265064694358613252
57527358 35 14708354614830278979
59755656 215 18188214204196178983
6086070 43 17750494313490460789
7226269 152 18202284731959129920

> <PUBCHEM_SHAPE_MULTIPOLES>
729.2
15.17
3.83
1.53
7.64
3.39
-0.08
-5.39
-4.98
0.57
0.35
0.64
-0.04
1.12

> <PUBCHEM_SHAPE_SELFOVERLAP>
1564.636

> <PUBCHEM_SHAPE_VOLUME>
397.6

> <PUBCHEM_COORDINATE_TYPE>
2
5
10

$$$$
