102004760
  -OEChem-09112013283D

 80 83  0     1  0  0  0  0  0999 V2000
   -0.2569   -3.3506    0.0745 O   0  0  0  0  0  0  0  0  0  0  0  0
   -0.9563    2.4624    0.7706 O   0  0  0  0  0  0  0  0  0  0  0  0
    7.9957    0.3270   -0.8849 O   0  0  0  0  0  0  0  0  0  0  0  0
    2.3486   -2.9748   -0.1625 O   0  0  0  0  0  0  0  0  0  0  0  0
    1.4303    2.9000   -0.0243 O   0  0  0  0  0  0  0  0  0  0  0  0
   -4.4951   -1.3149   -1.5059 O   0  0  0  0  0  0  0  0  0  0  0  0
   -7.7160    1.7227    1.5109 O   0  0  0  0  0  0  0  0  0  0  0  0
   -8.7128    1.8545   -0.5239 O   0  0  0  0  0  0  0  0  0  0  0  0
   -0.5618   -0.9563    0.3472 C   0  0  1  0  0  0  0  0  0  0  0  0
   -0.0263    0.4029   -0.2331 C   0  0  2  0  0  0  0  0  0  0  0  0
    3.8450   -0.4886    0.2292 C   0  0  1  0  0  0  0  0  0  0  0  0
   -2.0951   -0.8615    0.1009 C   0  0  2  0  0  0  0  0  0  0  0  0
    4.3231    0.9792   -0.0822 C   0  0  2  0  0  0  0  0  0  0  0  0
    1.4653    0.5096    0.0252 C   0  0  0  0  0  0  0  0  0  0  0  0
    2.2995   -0.5670    0.0041 C   0  0  0  0  0  0  0  0  0  0  0  0
    5.8688    1.2673   -0.0579 C   0  0  0  0  0  0  0  0  0  0  0  0
    0.1577   -2.0785   -0.3969 C   0  0  1  0  0  0  0  0  0  0  0  0
   -2.4312    0.5798    0.5291 C   0  0  0  0  0  0  0  0  0  0  0  0
   -1.0966    1.3014    0.4130 C   0  0  0  0  0  0  0  0  0  0  0  0
    4.6591   -1.4245   -0.7113 C   0  0  0  0  0  0  0  0  0  0  0  0
    3.4805    1.9746    0.7107 C   0  0  0  0  0  0  0  0  0  0  0  0
    1.6679   -1.9494   -0.1905 C   0  0  0  0  0  0  0  0  0  0  0  0
   -2.9894   -1.8740    0.8106 C   0  0  1  0  0  0  0  0  0  0  0  0
    6.5751    0.2156   -0.9575 C   0  0  2  0  0  0  0  0  0  0  0  0
   -0.3025   -1.1070    1.8900 C   0  0  0  0  0  0  0  0  0  0  0  0
    2.0617    1.8736    0.2189 C   0  0  0  0  0  0  0  0  0  0  0  0
    6.1716   -1.2183   -0.6450 C   0  0  0  0  0  0  0  0  0  0  0  0
   -0.2081    0.6140   -1.7620 C   0  0  0  0  0  0  0  0  0  0  0  0
    4.0603   -0.9302    1.6963 C   0  0  0  0  0  0  0  0  0  0  0  0
    6.1514    2.6615   -0.6882 C   0  0  0  0  0  0  0  0  0  0  0  0
    6.4755    1.3172    1.3591 C   0  0  0  0  0  0  0  0  0  0  0  0
   -4.4248   -1.3349    0.9098 C   0  0  0  0  0  0  0  0  0  0  0  0
   -2.9531   -3.2142    0.0690 C   0  0  0  0  0  0  0  0  0  0  0  0
   -5.0715   -1.0806   -0.4439 C   0  0  0  0  0  0  0  0  0  0  0  0
   -6.4676   -0.4896   -0.4331 C   0  0  0  0  0  0  0  0  0  0  0  0
   -6.4210    1.0395   -0.3766 C   0  0  1  0  0  0  0  0  0  0  0  0
   -6.1136    1.6375   -1.7498 C   0  0  0  0  0  0  0  0  0  0  0  0
   -7.7373    1.5747    0.1603 C   0  0  0  0  0  0  0  0  0  0  0  0
   -2.2562   -0.9379   -0.9793 H   0  0  0  0  0  0  0  0  0  0  0  0
    4.0475    1.1386   -1.1407 H   0  0  0  0  0  0  0  0  0  0  0  0
   -0.0462   -2.0561   -1.4719 H   0  0  0  0  0  0  0  0  0  0  0  0
   -2.7379    0.6670    1.5755 H   0  0  0  0  0  0  0  0  0  0  0  0
   -3.1570    1.0516   -0.1373 H   0  0  0  0  0  0  0  0  0  0  0  0
    4.3247   -1.2845   -1.7479 H   0  0  0  0  0  0  0  0  0  0  0  0
    4.4964   -2.4780   -0.4689 H   0  0  0  0  0  0  0  0  0  0  0  0
    3.8040    3.0035    0.5291 H   0  0  0  0  0  0  0  0  0  0  0  0
    3.5025    1.8159    1.7916 H   0  0  0  0  0  0  0  0  0  0  0  0
    6.3055    0.4169   -2.0034 H   0  0  0  0  0  0  0  0  0  0  0  0
   -2.6722   -2.0435    1.8438 H   0  0  0  0  0  0  0  0  0  0  0  0
    0.7473   -0.9660    2.1622 H   0  0  0  0  0  0  0  0  0  0  0  0
   -0.5726   -2.1057    2.2491 H   0  0  0  0  0  0  0  0  0  0  0  0
   -0.8684   -0.3836    2.4853 H   0  0  0  0  0  0  0  0  0  0  0  0
    6.5668   -1.5229    0.3306 H   0  0  0  0  0  0  0  0  0  0  0  0
    6.6549   -1.8932   -1.3636 H   0  0  0  0  0  0  0  0  0  0  0  0
   -1.2476    0.5326   -2.0936 H   0  0  0  0  0  0  0  0  0  0  0  0
    0.3868   -0.0861   -2.3580 H   0  0  0  0  0  0  0  0  0  0  0  0
    0.1113    1.6242   -2.0493 H   0  0  0  0  0  0  0  0  0  0  0  0
    5.1105   -1.0101    1.9709 H   0  0  0  0  0  0  0  0  0  0  0  0
    3.6377   -1.9262    1.8767 H   0  0  0  0  0  0  0  0  0  0  0  0
    3.5787   -0.2563    2.4113 H   0  0  0  0  0  0  0  0  0  0  0  0
    7.2253    2.8214   -0.8400 H   0  0  0  0  0  0  0  0  0  0  0  0
    7.4789    1.7603    1.3398 H   0  0  0  0  0  0  0  0  0  0  0  0
    6.5980    0.3300    1.8039 H   0  0  0  0  0  0  0  0  0  0  0  0
    5.8738    1.9285    2.0385 H   0  0  0  0  0  0  0  0  0  0  0  0
    5.8016    3.4794   -0.0505 H   0  0  0  0  0  0  0  0  0  0  0  0
    5.6650    2.7626   -1.6649 H   0  0  0  0  0  0  0  0  0  0  0  0
   -5.0437   -2.0907    1.4115 H   0  0  0  0  0  0  0  0  0  0  0  0
   -4.5029   -0.4347    1.5240 H   0  0  0  0  0  0  0  0  0  0  0  0
   -2.5603   -3.1508   -0.9501 H   0  0  0  0  0  0  0  0  0  0  0  0
   -2.3781   -3.9499    0.6388 H   0  0  0  0  0  0  0  0  0  0  0  0
   -3.9547   -3.6551   -0.0057 H   0  0  0  0  0  0  0  0  0  0  0  0
    0.1646   -4.0234   -0.4872 H   0  0  0  0  0  0  0  0  0  0  0  0
    8.3748   -0.3221   -1.5016 H   0  0  0  0  0  0  0  0  0  0  0  0
   -7.0057   -0.8441   -1.3204 H   0  0  0  0  0  0  0  0  0  0  0  0
   -7.0022   -0.9043    0.4301 H   0  0  0  0  0  0  0  0  0  0  0  0
   -5.6313    1.3783    0.3059 H   0  0  0  0  0  0  0  0  0  0  0  0
   -6.1380    2.7320   -1.7078 H   0  0  0  0  0  0  0  0  0  0  0  0
   -5.1207    1.3379   -2.0994 H   0  0  0  0  0  0  0  0  0  0  0  0
   -6.8490    1.3223   -2.4983 H   0  0  0  0  0  0  0  0  0  0  0  0
   -8.5663    2.0719    1.8535 H   0  0  0  0  0  0  0  0  0  0  0  0
  1 17  1  0  0  0  0
  1 72  1  0  0  0  0
  2 19  2  0  0  0  0
  3 24  1  0  0  0  0
  3 73  1  0  0  0  0
  4 22  2  0  0  0  0
  5 26  2  0  0  0  0
  6 34  2  0  0  0  0
  7 38  1  0  0  0  0
  7 80  1  0  0  0  0
  8 38  2  0  0  0  0
  9 10  1  0  0  0  0
  9 12  1  0  0  0  0
  9 17  1  0  0  0  0
  9 25  1  0  0  0  0
 10 14  1  0  0  0  0
 10 19  1  0  0  0  0
 10 28  1  0  0  0  0
 11 13  1  0  0  0  0
 11 15  1  0  0  0  0
 11 20  1  0  0  0  0
 11 29  1  0  0  0  0
 12 18  1  0  0  0  0
 12 23  1  0  0  0  0
 12 39  1  0  0  0  0
 13 16  1  0  0  0  0
 13 21  1  0  0  0  0
 13 40  1  0  0  0  0
 14 15  2  0  0  0  0
 14 26  1  0  0  0  0
 15 22  1  0  0  0  0
 16 24  1  0  0  0  0
 16 30  1  0  0  0  0
 16 31  1  0  0  0  0
 17 22  1  0  0  0  0
 17 41  1  0  0  0  0
 18 19  1  0  0  0  0
 18 42  1  0  0  0  0
 18 43  1  0  0  0  0
 20 27  1  0  0  0  0
 20 44  1  0  0  0  0
 20 45  1  0  0  0  0
 21 26  1  0  0  0  0
 21 46  1  0  0  0  0
 21 47  1  0  0  0  0
 23 32  1  0  0  0  0
 23 33  1  0  0  0  0
 23 49  1  0  0  0  0
 24 27  1  0  0  0  0
 24 48  1  0  0  0  0
 25 50  1  0  0  0  0
 25 51  1  0  0  0  0
 25 52  1  0  0  0  0
 27 53  1  0  0  0  0
 27 54  1  0  0  0  0
 28 55  1  0  0  0  0
 28 56  1  0  0  0  0
 28 57  1  0  0  0  0
 29 58  1  0  0  0  0
 29 59  1  0  0  0  0
 29 60  1  0  0  0  0
 30 61  1  0  0  0  0
 30 65  1  0  0  0  0
 30 66  1  0  0  0  0
 31 62  1  0  0  0  0
 31 63  1  0  0  0  0
 31 64  1  0  0  0  0
 32 34  1  0  0  0  0
 32 67  1  0  0  0  0
 32 68  1  0  0  0  0
 33 69  1  0  0  0  0
 33 70  1  0  0  0  0
 33 71  1  0  0  0  0
 34 35  1  0  0  0  0
 35 36  1  0  0  0  0
 35 74  1  0  0  0  0
 35 75  1  0  0  0  0
 36 37  1  0  0  0  0
 36 38  1  0  0  0  0
 36 76  1  0  0  0  0
 37 77  1  0  0  0  0
 37 78  1  0  0  0  0
 37 79  1  0  0  0  0
M  END
> <PUBCHEM_COMPOUND_CID>
102004760

> <PUBCHEM_CONFORMER_RMSD>
1

> <PUBCHEM_CONFORMER_DIVERSEORDER>
27
12
88
15
107
17
83
37
25
2
31
111
52
42
78
51
7
84
41
89
35
34
60
105
69
26
22
87
14
108
16
48
100
18
47
93
92
29
6
61
50
59
73
104
45
5
46
113
98
1
72
39
63
91
38
62
96
85
65
79
80
8
97
94
68
55
28
49
70
43
64
58
13
56
71
76
11
101
90
4
3
19
77
40
53
33
75
95
112
9
32
21
10
110
67
57
30
81
99
102
24
20
74
106
86
103
23
36
109
82
44
66
54

> <PUBCHEM_MMFF94_PARTIAL_CHARGES>
27
1 -0.68
10 0.2
11 0.14
14 -0.12
15 -0.12
17 0.34
18 0.06
19 0.45
2 -0.57
21 0.06
22 0.49
24 0.28
26 0.49
3 -0.68
32 0.06
34 0.45
35 0.06
36 0.06
38 0.66
4 -0.57
5 -0.57
6 -0.57
7 -0.65
72 0.4
73 0.4
8 -0.57
80 0.5

> <PUBCHEM_EFFECTIVE_ROTOR_COUNT>
7.6

> <PUBCHEM_PHARMACOPHORE_FEATURES>
18
1 1 acceptor
1 1 donor
1 2 acceptor
1 3 acceptor
1 3 donor
1 33 hydrophobe
1 37 hydrophobe
1 4 acceptor
1 5 acceptor
1 6 acceptor
1 7 acceptor
1 8 acceptor
3 16 30 31 hydrophobe
3 7 8 38 anion
5 9 10 12 18 19 rings
6 11 13 14 15 21 26 rings
6 11 13 16 20 24 27 rings
6 9 10 14 15 17 22 rings

> <PUBCHEM_HEAVY_ATOM_COUNT>
38

> <PUBCHEM_ATOM_DEF_STEREO_COUNT>
8

> <PUBCHEM_ATOM_UDEF_STEREO_COUNT>
1

> <PUBCHEM_BOND_DEF_STEREO_COUNT>
0

> <PUBCHEM_BOND_UDEF_STEREO_COUNT>
0

> <PUBCHEM_ISOTOPIC_ATOM_COUNT>
0

> <PUBCHEM_COMPONENT_COUNT>
1

> <PUBCHEM_CACTVS_TAUTO_COUNT>
72

> <PUBCHEM_CONFORMER_ID>
061478180000001B

> <PUBCHEM_MMFF94_ENERGY>
140.2754

> <PUBCHEM_FEATURE_SELFOVERLAP>
91.523

> <PUBCHEM_SHAPE_FINGERPRINT>
10 15 17821449033141309321
10006869 2 18339635642817823154
10906281 52 18335710463288610971
11135609 187 18339924939151363576
11135926 11 18413103940744686269
12011746 2 18410577318637065974
12107698 1 15482680095581929994
12788726 201 18343300349073736800
12838862 33 18340753919494981360
13811026 1 18412824702643966314
14294032 229 17822289020753839484
14394314 77 18270688546491783177
14400156 260 18261954037913089777
15064981 113 16987994991429904325
15183329 4 18412540995117873977
15276724 80 18268147561875621445
15439362 3 17975136758338610460
15840311 113 18410577250054583989
16087824 20 18338237064444231365
16112460 7 18268999696356413561
20715895 44 18411697678030835203
21033648 29 18337099176686982280
21279426 13 18411420617800495919
21298829 104 18413671305750414329
21792934 111 18341322315640650346
23559900 14 18340483481877177448
23576562 1 18191866944974321583
24771293 8 18199452441725376088
249057 3 18412263939441127261
335352 9 18411419514489545701
350125 39 18409729564616799164
3633792 109 18059860562717599736
4073 2 18187650240878681667
4093350 32 17561367249202103839
4112364 45 16009325304577612926
4144715 1 18044942522090867417
4169191 19 18408885127461154885
504579 68 16343986901265832887
58260988 393 14923933531973794700
59755656 215 18410291406457855422
6009941 240 17895199917698056187
6086070 43 17417807387734219601
6328613 192 18410013256165867113
7226269 152 18411136923058890185

> <PUBCHEM_SHAPE_MULTIPOLES>
735.07
20.53
3.16
1.29
15.96
0.71
0.08
-11.55
-2.9
0.72
0.04
0.21
-0.11
0.42

> <PUBCHEM_SHAPE_SELFOVERLAP>
1570.68

> <PUBCHEM_SHAPE_VOLUME>
399.6

> <PUBCHEM_COORDINATE_TYPE>
2
5
10

$$$$
