14109405
  -OEChem-09112012342D

 79 82  0     1  0  0  0  0  0999 V2000
    7.4149   -3.4751    0.0000 O   0  0  0  0  0  0  0  0  0  0  0  0
    8.6500   -2.6989    0.0000 O   0  0  0  0  0  0  0  0  0  0  0  0
    4.7950    0.0564    0.0000 O   0  0  0  0  0  0  0  0  0  0  0  0
    2.0000   -3.4959    0.0000 O   0  0  0  0  0  0  0  0  0  0  0  0
    9.2713    2.7127    0.0000 O   0  0  0  0  0  0  0  0  0  0  0  0
   12.5175    4.2819    0.0000 O   0  0  0  0  0  0  0  0  0  0  0  0
   12.8747    2.5870    0.0000 O   0  0  0  0  0  0  0  0  0  0  0  0
    7.3931   -0.4436    0.0000 C   0  0  3  0  0  0  0  0  0  0  0  0
    7.3931   -1.4436    0.0000 C   0  0  3  0  0  0  0  0  0  0  0  0
    4.7510   -1.9504    0.0000 C   0  0  3  0  0  0  0  0  0  0  0  0
    8.3393   -0.1389    0.0000 C   0  0  3  0  0  0  0  0  0  0  0  0
    6.5271   -1.9436    0.0000 C   0  0  0  0  0  0  0  0  0  0  0  0
    4.7430   -2.9920    0.0000 C   0  0  3  0  0  0  0  0  0  0  0  0
    5.6610   -1.4436    0.0000 C   0  0  0  0  0  0  0  0  0  0  0  0
    6.5271    0.0564    0.0000 C   0  0  0  0  0  0  0  0  0  0  0  0
    8.9229   -0.9436    0.0000 C   0  0  0  0  0  0  0  0  0  0  0  0
    6.5431   -2.9851    0.0000 C   0  0  3  0  0  0  0  0  0  0  0  0
    8.3393   -1.7483    0.0000 C   0  0  0  0  0  0  0  0  0  0  0  0
    5.6451   -3.5129    0.0000 C   0  0  0  0  0  0  0  0  0  0  0  0
    3.8076   -3.5418    0.0000 C   0  0  0  0  0  0  0  0  0  0  0  0
    3.8242   -1.3864    0.0000 C   0  0  0  0  0  0  0  0  0  0  0  0
    5.6610   -0.4436    0.0000 C   0  0  0  0  0  0  0  0  0  0  0  0
    8.6500    0.8116    0.0000 C   0  0  3  0  0  0  0  0  0  0  0  0
    7.3931    0.5564    0.0000 C   0  0  0  0  0  0  0  0  0  0  0  0
    7.3931   -2.4436    0.0000 C   0  0  0  0  0  0  0  0  0  0  0  0
    4.7587   -0.9505    0.0000 C   0  0  0  0  0  0  0  0  0  0  0  0
    2.8763   -1.9143    0.0000 C   0  0  0  0  0  0  0  0  0  0  0  0
    2.8680   -2.9993    0.0000 C   0  0  0  0  0  0  0  0  0  0  0  0
    3.3109   -4.4097    0.0000 C   0  0  0  0  0  0  0  0  0  0  0  0
    4.3109   -4.4059    0.0000 C   0  0  0  0  0  0  0  0  0  0  0  0
    9.6285    1.0179    0.0000 C   0  0  0  0  0  0  0  0  0  0  0  0
    7.9821    1.5560    0.0000 C   0  0  0  0  0  0  0  0  0  0  0  0
    9.9391    1.9684    0.0000 C   0  0  0  0  0  0  0  0  0  0  0  0
   10.9176    2.1746    0.0000 C   0  0  0  0  0  0  0  0  0  0  0  0
   11.2283    3.1251    0.0000 C   0  0  3  0  0  0  0  0  0  0  0  0
   10.5605    3.8694    0.0000 C   0  0  0  0  0  0  0  0  0  0  0  0
   12.2068    3.3314    0.0000 C   0  0  0  0  0  0  0  0  0  0  0  0
    8.9518   -0.0427    0.0000 H   0  0  0  0  0  0  0  0  0  0  0  0
    4.7454   -3.6120    0.0000 H   0  0  0  0  0  0  0  0  0  0  0  0
    6.9256    0.5313    0.0000 H   0  0  0  0  0  0  0  0  0  0  0  0
    6.1285    0.5313    0.0000 H   0  0  0  0  0  0  0  0  0  0  0  0
    9.3838   -1.3583    0.0000 H   0  0  0  0  0  0  0  0  0  0  0  0
    9.3838   -0.5289    0.0000 H   0  0  0  0  0  0  0  0  0  0  0  0
    6.5491   -3.6051    0.0000 H   0  0  0  0  0  0  0  0  0  0  0  0
    5.2478   -3.9888    0.0000 H   0  0  0  0  0  0  0  0  0  0  0  0
    6.0460   -3.9858    0.0000 H   0  0  0  0  0  0  0  0  0  0  0  0
    4.2324   -0.9197    0.0000 H   0  0  0  0  0  0  0  0  0  0  0  0
    3.4343   -0.9043    0.0000 H   0  0  0  0  0  0  0  0  0  0  0  0
    8.0433    0.6838    0.0000 H   0  0  0  0  0  0  0  0  0  0  0  0
    8.0131    0.5564    0.0000 H   0  0  0  0  0  0  0  0  0  0  0  0
    7.3931    1.1764    0.0000 H   0  0  0  0  0  0  0  0  0  0  0  0
    6.7731    0.5564    0.0000 H   0  0  0  0  0  0  0  0  0  0  0  0
    6.7731   -2.4436    0.0000 H   0  0  0  0  0  0  0  0  0  0  0  0
    7.3931   -3.0636    0.0000 H   0  0  0  0  0  0  0  0  0  0  0  0
    8.0131   -2.4436    0.0000 H   0  0  0  0  0  0  0  0  0  0  0  0
    5.3787   -0.9553    0.0000 H   0  0  0  0  0  0  0  0  0  0  0  0
    4.7635   -0.3305    0.0000 H   0  0  0  0  0  0  0  0  0  0  0  0
    4.1388   -0.9457    0.0000 H   0  0  0  0  0  0  0  0  0  0  0  0
    2.6718   -1.3290    0.0000 H   0  0  0  0  0  0  0  0  0  0  0  0
    2.2647   -2.0157    0.0000 H   0  0  0  0  0  0  0  0  0  0  0  0
    2.7728   -4.1018    0.0000 H   0  0  0  0  0  0  0  0  0  0  0  0
    3.0030   -4.9478    0.0000 H   0  0  0  0  0  0  0  0  0  0  0  0
    3.8490   -4.7176    0.0000 H   0  0  0  0  0  0  0  0  0  0  0  0
    3.7752   -4.7179    0.0000 H   0  0  0  0  0  0  0  0  0  0  0  0
    4.6230   -4.9416    0.0000 H   0  0  0  0  0  0  0  0  0  0  0  0
    4.8466   -4.0938    0.0000 H   0  0  0  0  0  0  0  0  0  0  0  0
    9.6490    0.3982    0.0000 H   0  0  0  0  0  0  0  0  0  0  0  0
   10.2423    0.9305    0.0000 H   0  0  0  0  0  0  0  0  0  0  0  0
    8.4436    1.9700    0.0000 H   0  0  0  0  0  0  0  0  0  0  0  0
    7.5681    2.0174    0.0000 H   0  0  0  0  0  0  0  0  0  0  0  0
    7.5207    1.1419    0.0000 H   0  0  0  0  0  0  0  0  0  0  0  0
    7.4220   -4.0950    0.0000 H   0  0  0  0  0  0  0  0  0  0  0  0
   10.9382    1.5550    0.0000 H   0  0  0  0  0  0  0  0  0  0  0  0
   11.5315    2.0873    0.0000 H   0  0  0  0  0  0  0  0  0  0  0  0
   11.4209    3.7144    0.0000 H   0  0  0  0  0  0  0  0  0  0  0  0
   11.0219    4.2835    0.0000 H   0  0  0  0  0  0  0  0  0  0  0  0
   10.1464    4.3309    0.0000 H   0  0  0  0  0  0  0  0  0  0  0  0
   10.0990    3.4554    0.0000 H   0  0  0  0  0  0  0  0  0  0  0  0
   13.1241    4.4097    0.0000 H   0  0  0  0  0  0  0  0  0  0  0  0
  1 17  1  0  0  0  0
  1 72  1  0  0  0  0
  2 18  2  0  0  0  0
  3 22  2  0  0  0  0
  4 28  2  0  0  0  0
  5 33  2  0  0  0  0
  6 37  1  0  0  0  0
  6 79  1  0  0  0  0
  7 37  2  0  0  0  0
  8  9  1  0  0  0  0
  8 11  1  0  0  0  0
  8 15  1  0  0  0  0
  8 24  1  0  0  0  0
  9 12  1  0  0  0  0
  9 18  1  0  0  0  0
  9 25  1  0  0  0  0
 10 13  1  0  0  0  0
 10 14  1  0  0  0  0
 10 21  1  0  0  0  0
 10 26  1  0  0  0  0
 11 16  1  0  0  0  0
 11 23  1  0  0  0  0
 11 38  1  0  0  0  0
 12 14  2  0  0  0  0
 12 17  1  0  0  0  0
 13 19  1  0  0  0  0
 13 20  1  0  0  0  0
 13 39  1  0  0  0  0
 14 22  1  0  0  0  0
 15 22  1  0  0  0  0
 15 40  1  0  0  0  0
 15 41  1  0  0  0  0
 16 18  1  0  0  0  0
 16 42  1  0  0  0  0
 16 43  1  0  0  0  0
 17 19  1  0  0  0  0
 17 44  1  0  0  0  0
 19 45  1  0  0  0  0
 19 46  1  0  0  0  0
 20 28  1  0  0  0  0
 20 29  1  0  0  0  0
 20 30  1  0  0  0  0
 21 27  1  0  0  0  0
 21 47  1  0  0  0  0
 21 48  1  0  0  0  0
 23 31  1  0  0  0  0
 23 32  1  0  0  0  0
 23 49  1  0  0  0  0
 24 50  1  0  0  0  0
 24 51  1  0  0  0  0
 24 52  1  0  0  0  0
 25 53  1  0  0  0  0
 25 54  1  0  0  0  0
 25 55  1  0  0  0  0
 26 56  1  0  0  0  0
 26 57  1  0  0  0  0
 26 58  1  0  0  0  0
 27 28  1  0  0  0  0
 27 59  1  0  0  0  0
 27 60  1  0  0  0  0
 29 61  1  0  0  0  0
 29 62  1  0  0  0  0
 29 63  1  0  0  0  0
 30 64  1  0  0  0  0
 30 65  1  0  0  0  0
 30 66  1  0  0  0  0
 31 33  1  0  0  0  0
 31 67  1  0  0  0  0
 31 68  1  0  0  0  0
 32 69  1  0  0  0  0
 32 70  1  0  0  0  0
 32 71  1  0  0  0  0
 33 34  1  0  0  0  0
 34 35  1  0  0  0  0
 34 73  1  0  0  0  0
 34 74  1  0  0  0  0
 35 36  1  0  0  0  0
 35 37  1  0  0  0  0
 35 75  1  0  0  0  0
 36 76  1  0  0  0  0
 36 77  1  0  0  0  0
 36 78  1  0  0  0  0
M  END
> <PUBCHEM_COMPOUND_CID>
14109405

> <PUBCHEM_COMPOUND_CANONICALIZED>
1

> <PUBCHEM_CACTVS_COMPLEXITY>
1120

> <PUBCHEM_CACTVS_HBOND_ACCEPTOR>
7

> <PUBCHEM_CACTVS_HBOND_DONOR>
2

> <PUBCHEM_CACTVS_ROTATABLE_BOND>
6

> <PUBCHEM_CACTVS_SUBSKEYS>
AAADcfB4OAAAAAAAAAAAAAAAAAAAAYAAAAAwQIAAAAAAAEDAAAAAGgAACAAADxSggAICCAAAAgCIAoDQCAAAAAAgAAAACAEAAEgAFBIAAAAAUAAEgAAIEQOLzvDvgAAAAAAAAAAAAAQAACAAAQAACAAAAA==

> <PUBCHEM_IUPAC_OPENEYE_NAME>
6-(7-hydroxy-4,4,10,13,14-pentamethyl-3,11,15-trioxo-1,2,5,6,7,12,16,17-octahydrocyclopenta[a]phenanthren-17-yl)-2-methyl-4-oxo-heptanoic acid

> <PUBCHEM_IUPAC_CAS_NAME>
6-(7-hydroxy-4,4,10,13,14-pentamethyl-3,11,15-trioxo-1,2,5,6,7,12,16,17-octahydrocyclopenta[a]phenanthren-17-yl)-2-methyl-4-oxoheptanoic acid

> <PUBCHEM_IUPAC_NAME_MARKUP>
6-(7-hydroxy-4,4,10,13,14-pentamethyl-3,11,15-trioxo-1,2,5,6,7,12,16,17-octahydrocyclopenta[a]phenanthren-17-yl)-2-methyl-4-oxoheptanoic acid

> <PUBCHEM_IUPAC_NAME>
6-(7-hydroxy-4,4,10,13,14-pentamethyl-3,11,15-trioxo-1,2,5,6,7,12,16,17-octahydrocyclopenta[a]phenanthren-17-yl)-2-methyl-4-oxoheptanoic acid

> <PUBCHEM_IUPAC_SYSTEMATIC_NAME>
2-methyl-4-oxidanylidene-6-[4,4,10,13,14-pentamethyl-7-oxidanyl-3,11,15-tris(oxidanylidene)-1,2,5,6,7,12,16,17-octahydrocyclopenta[a]phenanthren-17-yl]heptanoic acid

> <PUBCHEM_IUPAC_TRADITIONAL_NAME>
6-(7-hydroxy-3,11,15-triketo-4,4,10,13,14-pentamethyl-1,2,5,6,7,12,16,17-octahydrocyclopenta[a]phenanthren-17-yl)-4-keto-2-methyl-enanthic acid

> <PUBCHEM_IUPAC_INCHI>
InChI=1S/C30H42O7/c1-15(10-17(31)11-16(2)26(36)37)18-12-23(35)30(7)25-19(32)13-21-27(3,4)22(34)8-9-28(21,5)24(25)20(33)14-29(18,30)6/h15-16,18-19,21,32H,8-14H2,1-7H3,(H,36,37)

> <PUBCHEM_IUPAC_INCHIKEY>
YTVGSCZIHGRVAV-UHFFFAOYSA-N

> <PUBCHEM_XLOGP3_AA>
1.9

> <PUBCHEM_EXACT_MASS>
514.293054

> <PUBCHEM_MOLECULAR_FORMULA>
C30H42O7

> <PUBCHEM_MOLECULAR_WEIGHT>
514.6

> <PUBCHEM_OPENEYE_CAN_SMILES>
CC(CC(=O)CC(C)C(=O)O)C1CC(=O)C2(C1(CC(=O)C3=C2C(CC4C3(CCC(=O)C4(C)C)C)O)C)C

> <PUBCHEM_OPENEYE_ISO_SMILES>
CC(CC(=O)CC(C)C(=O)O)C1CC(=O)C2(C1(CC(=O)C3=C2C(CC4C3(CCC(=O)C4(C)C)C)O)C)C

> <PUBCHEM_CACTVS_TPSA>
126

> <PUBCHEM_MONOISOTOPIC_WEIGHT>
514.293054

> <PUBCHEM_TOTAL_CHARGE>
0

> <PUBCHEM_HEAVY_ATOM_COUNT>
37

> <PUBCHEM_ATOM_DEF_STEREO_COUNT>
0

> <PUBCHEM_ATOM_UDEF_STEREO_COUNT>
8

> <PUBCHEM_BOND_DEF_STEREO_COUNT>
0

> <PUBCHEM_BOND_UDEF_STEREO_COUNT>
0

> <PUBCHEM_ISOTOPIC_ATOM_COUNT>
0

> <PUBCHEM_COMPONENT_COUNT>
1

> <PUBCHEM_CACTVS_TAUTO_COUNT>
-1

> <PUBCHEM_COORDINATE_TYPE>
1
5
255

> <PUBCHEM_BONDANNOTATIONS>
17  1  3
10  26  3
11  16  3
13  19  3
23  32  3
35  36  3
8  24  3
9  25  3

$$$$
