131751706
  -OEChem-09122003562D

 80 83  0     1  0  0  0  0  0999 V2000
    7.4149   -3.7058    0.0000 O   0  0  0  0  0  0  0  0  0  0  0  0
    9.6005    0.2703    0.0000 O   0  0  0  0  0  0  0  0  0  0  0  0
    8.6500   -2.9296    0.0000 O   0  0  0  0  0  0  0  0  0  0  0  0
    4.7950   -0.1743    0.0000 O   0  0  0  0  0  0  0  0  0  0  0  0
    2.0000   -3.7267    0.0000 O   0  0  0  0  0  0  0  0  0  0  0  0
   10.6070    0.9934    0.0000 O   0  0  0  0  0  0  0  0  0  0  0  0
   12.5175    4.0511    0.0000 O   0  0  0  0  0  0  0  0  0  0  0  0
   10.8711    4.5892    0.0000 O   0  0  0  0  0  0  0  0  0  0  0  0
    7.3931   -0.6743    0.0000 C   0  0  3  0  0  0  0  0  0  0  0  0
    7.3931   -1.6743    0.0000 C   0  0  3  0  0  0  0  0  0  0  0  0
    8.3393   -0.3696    0.0000 C   0  0  3  0  0  0  0  0  0  0  0  0
    4.7510   -2.1812    0.0000 C   0  0  3  0  0  0  0  0  0  0  0  0
    6.5271   -2.1743    0.0000 C   0  0  0  0  0  0  0  0  0  0  0  0
    4.7430   -3.2228    0.0000 C   0  0  3  0  0  0  0  0  0  0  0  0
    5.6610   -1.6743    0.0000 C   0  0  0  0  0  0  0  0  0  0  0  0
    6.5271   -0.1743    0.0000 C   0  0  0  0  0  0  0  0  0  0  0  0
    8.9229   -1.1743    0.0000 C   0  0  0  0  0  0  0  0  0  0  0  0
    8.3393   -1.9791    0.0000 C   0  0  0  0  0  0  0  0  0  0  0  0
    6.5431   -3.2158    0.0000 C   0  0  3  0  0  0  0  0  0  0  0  0
    5.6451   -3.7436    0.0000 C   0  0  0  0  0  0  0  0  0  0  0  0
    3.8076   -3.7725    0.0000 C   0  0  0  0  0  0  0  0  0  0  0  0
    8.6500    0.5809    0.0000 C   0  0  3  0  0  0  0  0  0  0  0  0
    5.6610   -0.6743    0.0000 C   0  0  0  0  0  0  0  0  0  0  0  0
    3.8242   -1.6171    0.0000 C   0  0  0  0  0  0  0  0  0  0  0  0
    7.3931    0.3257    0.0000 C   0  0  0  0  0  0  0  0  0  0  0  0
    7.3931   -2.6743    0.0000 C   0  0  0  0  0  0  0  0  0  0  0  0
    4.7587   -1.1812    0.0000 C   0  0  0  0  0  0  0  0  0  0  0  0
    2.8763   -2.1450    0.0000 C   0  0  0  0  0  0  0  0  0  0  0  0
    2.8680   -3.2300    0.0000 C   0  0  0  0  0  0  0  0  0  0  0  0
    8.9606    1.5314    0.0000 C   0  0  0  0  0  0  0  0  0  0  0  0
    3.3109   -4.6405    0.0000 C   0  0  0  0  0  0  0  0  0  0  0  0
    4.3109   -4.6366    0.0000 C   0  0  0  0  0  0  0  0  0  0  0  0
    7.6994    0.8916    0.0000 C   0  0  0  0  0  0  0  0  0  0  0  0
    9.9391    1.7376    0.0000 C   0  0  0  0  0  0  0  0  0  0  0  0
   10.2498    2.6882    0.0000 C   0  0  0  0  0  0  0  0  0  0  0  0
   11.2283    2.8944    0.0000 C   0  0  3  0  0  0  0  0  0  0  0  0
   11.8961    2.1501    0.0000 C   0  0  0  0  0  0  0  0  0  0  0  0
   11.5390    3.8449    0.0000 C   0  0  0  0  0  0  0  0  0  0  0  0
    8.9518   -0.2734    0.0000 H   0  0  0  0  0  0  0  0  0  0  0  0
    4.7454   -3.8428    0.0000 H   0  0  0  0  0  0  0  0  0  0  0  0
    6.9256    0.3006    0.0000 H   0  0  0  0  0  0  0  0  0  0  0  0
    6.1285    0.3006    0.0000 H   0  0  0  0  0  0  0  0  0  0  0  0
    9.3838   -1.5891    0.0000 H   0  0  0  0  0  0  0  0  0  0  0  0
    9.3838   -0.7596    0.0000 H   0  0  0  0  0  0  0  0  0  0  0  0
    6.5491   -3.8358    0.0000 H   0  0  0  0  0  0  0  0  0  0  0  0
    5.2478   -4.2196    0.0000 H   0  0  0  0  0  0  0  0  0  0  0  0
    6.0460   -4.2165    0.0000 H   0  0  0  0  0  0  0  0  0  0  0  0
    4.2324   -1.1504    0.0000 H   0  0  0  0  0  0  0  0  0  0  0  0
    3.4343   -1.1351    0.0000 H   0  0  0  0  0  0  0  0  0  0  0  0
    8.0131    0.3257    0.0000 H   0  0  0  0  0  0  0  0  0  0  0  0
    7.3931    0.9457    0.0000 H   0  0  0  0  0  0  0  0  0  0  0  0
    6.7731    0.3257    0.0000 H   0  0  0  0  0  0  0  0  0  0  0  0
    6.7731   -2.6743    0.0000 H   0  0  0  0  0  0  0  0  0  0  0  0
    7.3931   -3.2943    0.0000 H   0  0  0  0  0  0  0  0  0  0  0  0
    8.0131   -2.6743    0.0000 H   0  0  0  0  0  0  0  0  0  0  0  0
    5.3787   -1.1860    0.0000 H   0  0  0  0  0  0  0  0  0  0  0  0
    4.7635   -0.5612    0.0000 H   0  0  0  0  0  0  0  0  0  0  0  0
    4.1388   -1.1764    0.0000 H   0  0  0  0  0  0  0  0  0  0  0  0
    2.6718   -1.5598    0.0000 H   0  0  0  0  0  0  0  0  0  0  0  0
    2.2647   -2.2464    0.0000 H   0  0  0  0  0  0  0  0  0  0  0  0
    8.9401    2.1511    0.0000 H   0  0  0  0  0  0  0  0  0  0  0  0
    8.3468    1.6188    0.0000 H   0  0  0  0  0  0  0  0  0  0  0  0
    2.7728   -4.3325    0.0000 H   0  0  0  0  0  0  0  0  0  0  0  0
    3.0030   -5.1786    0.0000 H   0  0  0  0  0  0  0  0  0  0  0  0
    3.8490   -4.9484    0.0000 H   0  0  0  0  0  0  0  0  0  0  0  0
    3.7752   -4.9487    0.0000 H   0  0  0  0  0  0  0  0  0  0  0  0
    4.6230   -5.1723    0.0000 H   0  0  0  0  0  0  0  0  0  0  0  0
    4.8466   -4.3245    0.0000 H   0  0  0  0  0  0  0  0  0  0  0  0
    7.8921    1.4809    0.0000 H   0  0  0  0  0  0  0  0  0  0  0  0
    7.1101    1.0842    0.0000 H   0  0  0  0  0  0  0  0  0  0  0  0
    7.5068    0.3023    0.0000 H   0  0  0  0  0  0  0  0  0  0  0  0
    7.4220   -4.3258    0.0000 H   0  0  0  0  0  0  0  0  0  0  0  0
   10.0620    0.6843    0.0000 H   0  0  0  0  0  0  0  0  0  0  0  0
   10.2292    3.3078    0.0000 H   0  0  0  0  0  0  0  0  0  0  0  0
    9.6360    2.7755    0.0000 H   0  0  0  0  0  0  0  0  0  0  0  0
   11.0357    2.3051    0.0000 H   0  0  0  0  0  0  0  0  0  0  0  0
   11.4347    1.7360    0.0000 H   0  0  0  0  0  0  0  0  0  0  0  0
   12.3102    1.6886    0.0000 H   0  0  0  0  0  0  0  0  0  0  0  0
   12.3576    2.5642    0.0000 H   0  0  0  0  0  0  0  0  0  0  0  0
   12.7101    4.6405    0.0000 H   0  0  0  0  0  0  0  0  0  0  0  0
  1 19  1  0  0  0  0
  1 72  1  0  0  0  0
  2 22  1  0  0  0  0
  2 73  1  0  0  0  0
  3 18  2  0  0  0  0
  4 23  2  0  0  0  0
  5 29  2  0  0  0  0
  6 34  2  0  0  0  0
  7 38  1  0  0  0  0
  7 80  1  0  0  0  0
  8 38  2  0  0  0  0
  9 10  1  0  0  0  0
  9 11  1  0  0  0  0
  9 16  1  0  0  0  0
  9 25  1  0  0  0  0
 10 13  1  0  0  0  0
 10 18  1  0  0  0  0
 10 26  1  0  0  0  0
 11 17  1  0  0  0  0
 11 22  1  0  0  0  0
 11 39  1  0  0  0  0
 12 14  1  0  0  0  0
 12 15  1  0  0  0  0
 12 24  1  0  0  0  0
 12 27  1  0  0  0  0
 13 15  2  0  0  0  0
 13 19  1  0  0  0  0
 14 20  1  0  0  0  0
 14 21  1  0  0  0  0
 14 40  1  0  0  0  0
 15 23  1  0  0  0  0
 16 23  1  0  0  0  0
 16 41  1  0  0  0  0
 16 42  1  0  0  0  0
 17 18  1  0  0  0  0
 17 43  1  0  0  0  0
 17 44  1  0  0  0  0
 19 20  1  0  0  0  0
 19 45  1  0  0  0  0
 20 46  1  0  0  0  0
 20 47  1  0  0  0  0
 21 29  1  0  0  0  0
 21 31  1  0  0  0  0
 21 32  1  0  0  0  0
 22 30  1  0  0  0  0
 22 33  1  0  0  0  0
 24 28  1  0  0  0  0
 24 48  1  0  0  0  0
 24 49  1  0  0  0  0
 25 50  1  0  0  0  0
 25 51  1  0  0  0  0
 25 52  1  0  0  0  0
 26 53  1  0  0  0  0
 26 54  1  0  0  0  0
 26 55  1  0  0  0  0
 27 56  1  0  0  0  0
 27 57  1  0  0  0  0
 27 58  1  0  0  0  0
 28 29  1  0  0  0  0
 28 59  1  0  0  0  0
 28 60  1  0  0  0  0
 30 34  1  0  0  0  0
 30 61  1  0  0  0  0
 30 62  1  0  0  0  0
 31 63  1  0  0  0  0
 31 64  1  0  0  0  0
 31 65  1  0  0  0  0
 32 66  1  0  0  0  0
 32 67  1  0  0  0  0
 32 68  1  0  0  0  0
 33 69  1  0  0  0  0
 33 70  1  0  0  0  0
 33 71  1  0  0  0  0
 34 35  1  0  0  0  0
 35 36  1  0  0  0  0
 35 74  1  0  0  0  0
 35 75  1  0  0  0  0
 36 37  1  0  0  0  0
 36 38  1  0  0  0  0
 36 76  1  0  0  0  0
 37 77  1  0  0  0  0
 37 78  1  0  0  0  0
 37 79  1  0  0  0  0
M  END
> <PUBCHEM_COMPOUND_CID>
131751706

> <PUBCHEM_COMPOUND_CANONICALIZED>
1

> <PUBCHEM_CACTVS_COMPLEXITY>
1160

> <PUBCHEM_CACTVS_HBOND_ACCEPTOR>
8

> <PUBCHEM_CACTVS_HBOND_DONOR>
3

> <PUBCHEM_CACTVS_ROTATABLE_BOND>
6

> <PUBCHEM_CACTVS_SUBSKEYS>
AAADcfB4PAAAAAAAAAAAAAAAAAAAAYAAAAAwQIAAAAAAAEDAAAAAGgAACAAAD1SggAICCAAAAgCIAoDQCAAAAAAgAAAACAEAAEgAFBYAAAAAUAAEoAAIEQOLzvDvgAAAAAAAAAAAAAQAACAAAQAACAAAAA==

> <PUBCHEM_IUPAC_OPENEYE_NAME>
6-hydroxy-6-(7-hydroxy-4,4,10,13,14-pentamethyl-3,11,15-trioxo-1,2,5,6,7,12,16,17-octahydrocyclopenta[a]phenanthren-17-yl)-2-methyl-4-oxo-heptanoic acid

> <PUBCHEM_IUPAC_CAS_NAME>
6-hydroxy-6-(7-hydroxy-4,4,10,13,14-pentamethyl-3,11,15-trioxo-1,2,5,6,7,12,16,17-octahydrocyclopenta[a]phenanthren-17-yl)-2-methyl-4-oxoheptanoic acid

> <PUBCHEM_IUPAC_NAME_MARKUP>
6-hydroxy-6-(7-hydroxy-4,4,10,13,14-pentamethyl-3,11,15-trioxo-1,2,5,6,7,12,16,17-octahydrocyclopenta[a]phenanthren-17-yl)-2-methyl-4-oxoheptanoic acid

> <PUBCHEM_IUPAC_NAME>
6-hydroxy-6-(7-hydroxy-4,4,10,13,14-pentamethyl-3,11,15-trioxo-1,2,5,6,7,12,16,17-octahydrocyclopenta[a]phenanthren-17-yl)-2-methyl-4-oxoheptanoic acid

> <PUBCHEM_IUPAC_SYSTEMATIC_NAME>
2-methyl-6-oxidanyl-4-oxidanylidene-6-[4,4,10,13,14-pentamethyl-7-oxidanyl-3,11,15-tris(oxidanylidene)-1,2,5,6,7,12,16,17-octahydrocyclopenta[a]phenanthren-17-yl]heptanoic acid

> <PUBCHEM_IUPAC_TRADITIONAL_NAME>
6-hydroxy-6-(7-hydroxy-3,11,15-triketo-4,4,10,13,14-pentamethyl-1,2,5,6,7,12,16,17-octahydrocyclopenta[a]phenanthren-17-yl)-4-keto-2-methyl-enanthic acid

> <PUBCHEM_IUPAC_INCHI>
InChI=1S/C30H42O8/c1-15(25(36)37)10-16(31)13-29(6,38)20-12-22(35)30(7)24-17(32)11-19-26(2,3)21(34)8-9-27(19,4)23(24)18(33)14-28(20,30)5/h15,17,19-20,32,38H,8-14H2,1-7H3,(H,36,37)

> <PUBCHEM_IUPAC_INCHIKEY>
XXHBQOHASACCAP-UHFFFAOYSA-N

> <PUBCHEM_XLOGP3_AA>
0.7

> <PUBCHEM_EXACT_MASS>
530.287968

> <PUBCHEM_MOLECULAR_FORMULA>
C30H42O8

> <PUBCHEM_MOLECULAR_WEIGHT>
530.6

> <PUBCHEM_OPENEYE_CAN_SMILES>
CC(CC(=O)CC(C)(C1CC(=O)C2(C1(CC(=O)C3=C2C(CC4C3(CCC(=O)C4(C)C)C)O)C)C)O)C(=O)O

> <PUBCHEM_OPENEYE_ISO_SMILES>
CC(CC(=O)CC(C)(C1CC(=O)C2(C1(CC(=O)C3=C2C(CC4C3(CCC(=O)C4(C)C)C)O)C)C)O)C(=O)O

> <PUBCHEM_CACTVS_TPSA>
146

> <PUBCHEM_MONOISOTOPIC_WEIGHT>
530.287968

> <PUBCHEM_TOTAL_CHARGE>
0

> <PUBCHEM_HEAVY_ATOM_COUNT>
38

> <PUBCHEM_ATOM_DEF_STEREO_COUNT>
0

> <PUBCHEM_ATOM_UDEF_STEREO_COUNT>
8

> <PUBCHEM_BOND_DEF_STEREO_COUNT>
0

> <PUBCHEM_BOND_UDEF_STEREO_COUNT>
0

> <PUBCHEM_ISOTOPIC_ATOM_COUNT>
0

> <PUBCHEM_COMPONENT_COUNT>
1

> <PUBCHEM_CACTVS_TAUTO_COUNT>
-1

> <PUBCHEM_COORDINATE_TYPE>
1
5
255

> <PUBCHEM_BONDANNOTATIONS>
19  1  3
10  26  3
11  17  3
12  27  3
14  20  3
22  2  3
36  37  3
9  25  3

$$$$
