14137634
  -OEChem-09122005392D

 85 88  0     1  0  0  0  0  0999 V2000
   10.3820   -2.6989    0.0000 O   0  0  0  0  0  0  0  0  0  0  0  0
    3.7320   -3.4959    0.0000 O   0  0  0  0  0  0  0  0  0  0  0  0
    2.8718   -1.9926    0.0000 O   0  0  0  0  0  0  0  0  0  0  0  0
   14.2495    4.2819    0.0000 O   0  0  0  0  0  0  0  0  0  0  0  0
   14.6067    2.5870    0.0000 O   0  0  0  0  0  0  0  0  0  0  0  0
    9.1251   -0.4436    0.0000 C   0  0  3  0  0  0  0  0  0  0  0  0
    9.1251   -1.4436    0.0000 C   0  0  3  0  0  0  0  0  0  0  0  0
   10.0713   -0.1389    0.0000 C   0  0  3  0  0  0  0  0  0  0  0  0
    6.4831   -1.9504    0.0000 C   0  0  3  0  0  0  0  0  0  0  0  0
   10.0713   -1.7483    0.0000 C   0  0  3  0  0  0  0  0  0  0  0  0
    8.2591   -1.9436    0.0000 C   0  0  0  0  0  0  0  0  0  0  0  0
    6.4750   -2.9920    0.0000 C   0  0  3  0  0  0  0  0  0  0  0  0
   10.6550   -0.9436    0.0000 C   0  0  0  0  0  0  0  0  0  0  0  0
    7.3931   -1.4436    0.0000 C   0  0  0  0  0  0  0  0  0  0  0  0
    8.2591    0.0564    0.0000 C   0  0  0  0  0  0  0  0  0  0  0  0
    5.5396   -3.5418    0.0000 C   0  0  0  0  0  0  0  0  0  0  0  0
   10.3820    0.8116    0.0000 C   0  0  3  0  0  0  0  0  0  0  0  0
    9.1251    0.5564    0.0000 C   0  0  0  0  0  0  0  0  0  0  0  0
    9.1251   -2.4436    0.0000 C   0  0  0  0  0  0  0  0  0  0  0  0
    5.5562   -1.3864    0.0000 C   0  0  0  0  0  0  0  0  0  0  0  0
    7.3771   -3.5129    0.0000 C   0  0  0  0  0  0  0  0  0  0  0  0
    7.3931   -0.4436    0.0000 C   0  0  0  0  0  0  0  0  0  0  0  0
    8.2752   -2.9851    0.0000 C   0  0  0  0  0  0  0  0  0  0  0  0
    4.6000   -2.9993    0.0000 C   0  0  3  0  0  0  0  0  0  0  0  0
    4.6084   -1.9143    0.0000 C   0  0  0  0  0  0  0  0  0  0  0  0
    6.4908   -0.9505    0.0000 C   0  0  0  0  0  0  0  0  0  0  0  0
   11.3605    1.0179    0.0000 C   0  0  0  0  0  0  0  0  0  0  0  0
    5.0430   -4.4097    0.0000 C   0  0  0  0  0  0  0  0  0  0  0  0
    6.0430   -4.4059    0.0000 C   0  0  0  0  0  0  0  0  0  0  0  0
    9.7142    1.5560    0.0000 C   0  0  0  0  0  0  0  0  0  0  0  0
   11.6712    1.9684    0.0000 C   0  0  0  0  0  0  0  0  0  0  0  0
    2.8680   -2.9926    0.0000 C   0  0  0  0  0  0  0  0  0  0  0  0
   12.6497    2.1746    0.0000 C   0  0  0  0  0  0  0  0  0  0  0  0
    2.0000   -3.4893    0.0000 C   0  0  0  0  0  0  0  0  0  0  0  0
   12.9603    3.1251    0.0000 C   0  0  0  0  0  0  0  0  0  0  0  0
   12.2925    3.8694    0.0000 C   0  0  0  0  0  0  0  0  0  0  0  0
   13.9388    3.3314    0.0000 C   0  0  0  0  0  0  0  0  0  0  0  0
   10.6838   -0.0427    0.0000 H   0  0  0  0  0  0  0  0  0  0  0  0
    9.6339   -2.1877    0.0000 H   0  0  0  0  0  0  0  0  0  0  0  0
    6.4774   -3.6120    0.0000 H   0  0  0  0  0  0  0  0  0  0  0  0
   11.1158   -1.3583    0.0000 H   0  0  0  0  0  0  0  0  0  0  0  0
   11.1158   -0.5289    0.0000 H   0  0  0  0  0  0  0  0  0  0  0  0
    8.6576    0.5313    0.0000 H   0  0  0  0  0  0  0  0  0  0  0  0
    7.8606    0.5313    0.0000 H   0  0  0  0  0  0  0  0  0  0  0  0
   10.5746    1.4010    0.0000 H   0  0  0  0  0  0  0  0  0  0  0  0
    9.7451    0.5564    0.0000 H   0  0  0  0  0  0  0  0  0  0  0  0
    9.1251    1.1764    0.0000 H   0  0  0  0  0  0  0  0  0  0  0  0
    8.5051    0.5564    0.0000 H   0  0  0  0  0  0  0  0  0  0  0  0
    8.5051   -2.4436    0.0000 H   0  0  0  0  0  0  0  0  0  0  0  0
    9.1251   -3.0636    0.0000 H   0  0  0  0  0  0  0  0  0  0  0  0
    9.7451   -2.4436    0.0000 H   0  0  0  0  0  0  0  0  0  0  0  0
    5.9644   -0.9197    0.0000 H   0  0  0  0  0  0  0  0  0  0  0  0
    5.1663   -0.9043    0.0000 H   0  0  0  0  0  0  0  0  0  0  0  0
    6.9798   -3.9888    0.0000 H   0  0  0  0  0  0  0  0  0  0  0  0
    7.7781   -3.9858    0.0000 H   0  0  0  0  0  0  0  0  0  0  0  0
    6.8561   -0.1336    0.0000 H   0  0  0  0  0  0  0  0  0  0  0  0
    8.8156   -3.2889    0.0000 H   0  0  0  0  0  0  0  0  0  0  0  0
    4.5988   -3.6193    0.0000 H   0  0  0  0  0  0  0  0  0  0  0  0
    4.4038   -1.3290    0.0000 H   0  0  0  0  0  0  0  0  0  0  0  0
    3.9967   -2.0157    0.0000 H   0  0  0  0  0  0  0  0  0  0  0  0
    7.1108   -0.9553    0.0000 H   0  0  0  0  0  0  0  0  0  0  0  0
    6.4956   -0.3305    0.0000 H   0  0  0  0  0  0  0  0  0  0  0  0
    5.8708   -0.9457    0.0000 H   0  0  0  0  0  0  0  0  0  0  0  0
   11.3811    0.3982    0.0000 H   0  0  0  0  0  0  0  0  0  0  0  0
   11.9743    0.9305    0.0000 H   0  0  0  0  0  0  0  0  0  0  0  0
    4.5048   -4.1018    0.0000 H   0  0  0  0  0  0  0  0  0  0  0  0
    4.7350   -4.9478    0.0000 H   0  0  0  0  0  0  0  0  0  0  0  0
    5.5811   -4.7176    0.0000 H   0  0  0  0  0  0  0  0  0  0  0  0
    5.5072   -4.7179    0.0000 H   0  0  0  0  0  0  0  0  0  0  0  0
    6.3550   -4.9416    0.0000 H   0  0  0  0  0  0  0  0  0  0  0  0
    6.5787   -4.0938    0.0000 H   0  0  0  0  0  0  0  0  0  0  0  0
   10.9887   -2.8267    0.0000 H   0  0  0  0  0  0  0  0  0  0  0  0
   10.1756    1.9700    0.0000 H   0  0  0  0  0  0  0  0  0  0  0  0
    9.3001    2.0174    0.0000 H   0  0  0  0  0  0  0  0  0  0  0  0
    9.2527    1.1419    0.0000 H   0  0  0  0  0  0  0  0  0  0  0  0
   11.6506    2.5880    0.0000 H   0  0  0  0  0  0  0  0  0  0  0  0
   11.0574    2.0557    0.0000 H   0  0  0  0  0  0  0  0  0  0  0  0
   13.0637    1.7131    0.0000 H   0  0  0  0  0  0  0  0  0  0  0  0
    1.6921   -2.9511    0.0000 H   0  0  0  0  0  0  0  0  0  0  0  0
    1.4619   -3.7972    0.0000 H   0  0  0  0  0  0  0  0  0  0  0  0
    2.3079   -4.0274    0.0000 H   0  0  0  0  0  0  0  0  0  0  0  0
   12.7540    4.2835    0.0000 H   0  0  0  0  0  0  0  0  0  0  0  0
   11.8784    4.3309    0.0000 H   0  0  0  0  0  0  0  0  0  0  0  0
   11.8310    3.4554    0.0000 H   0  0  0  0  0  0  0  0  0  0  0  0
   14.8562    4.4097    0.0000 H   0  0  0  0  0  0  0  0  0  0  0  0
  1 10  1  0  0  0  0
  1 72  1  0  0  0  0
  2 24  1  0  0  0  0
  2 32  1  0  0  0  0
  3 32  2  0  0  0  0
  4 37  1  0  0  0  0
  4 85  1  0  0  0  0
  5 37  2  0  0  0  0
  6  7  1  0  0  0  0
  6  8  1  0  0  0  0
  6 15  1  0  0  0  0
  6 18  1  0  0  0  0
  7 10  1  0  0  0  0
  7 11  1  0  0  0  0
  7 19  1  0  0  0  0
  8 13  1  0  0  0  0
  8 17  1  0  0  0  0
  8 38  1  0  0  0  0
  9 12  1  0  0  0  0
  9 14  1  0  0  0  0
  9 20  1  0  0  0  0
  9 26  1  0  0  0  0
 10 13  1  0  0  0  0
 10 39  1  0  0  0  0
 11 14  1  0  0  0  0
 11 23  2  0  0  0  0
 12 16  1  0  0  0  0
 12 21  1  0  0  0  0
 12 40  1  0  0  0  0
 13 41  1  0  0  0  0
 13 42  1  0  0  0  0
 14 22  2  0  0  0  0
 15 22  1  0  0  0  0
 15 43  1  0  0  0  0
 15 44  1  0  0  0  0
 16 24  1  0  0  0  0
 16 28  1  0  0  0  0
 16 29  1  0  0  0  0
 17 27  1  0  0  0  0
 17 30  1  0  0  0  0
 17 45  1  0  0  0  0
 18 46  1  0  0  0  0
 18 47  1  0  0  0  0
 18 48  1  0  0  0  0
 19 49  1  0  0  0  0
 19 50  1  0  0  0  0
 19 51  1  0  0  0  0
 20 25  1  0  0  0  0
 20 52  1  0  0  0  0
 20 53  1  0  0  0  0
 21 23  1  0  0  0  0
 21 54  1  0  0  0  0
 21 55  1  0  0  0  0
 22 56  1  0  0  0  0
 23 57  1  0  0  0  0
 24 25  1  0  0  0  0
 24 58  1  0  0  0  0
 25 59  1  0  0  0  0
 25 60  1  0  0  0  0
 26 61  1  0  0  0  0
 26 62  1  0  0  0  0
 26 63  1  0  0  0  0
 27 31  1  0  0  0  0
 27 64  1  0  0  0  0
 27 65  1  0  0  0  0
 28 66  1  0  0  0  0
 28 67  1  0  0  0  0
 28 68  1  0  0  0  0
 29 69  1  0  0  0  0
 29 70  1  0  0  0  0
 29 71  1  0  0  0  0
 30 73  1  0  0  0  0
 30 74  1  0  0  0  0
 30 75  1  0  0  0  0
 31 33  1  0  0  0  0
 31 76  1  0  0  0  0
 31 77  1  0  0  0  0
 32 34  1  0  0  0  0
 33 35  2  0  0  0  0
 33 78  1  0  0  0  0
 34 79  1  0  0  0  0
 34 80  1  0  0  0  0
 34 81  1  0  0  0  0
 35 36  1  0  0  0  0
 35 37  1  0  0  0  0
 36 82  1  0  0  0  0
 36 83  1  0  0  0  0
 36 84  1  0  0  0  0
M  END
> <PUBCHEM_COMPOUND_CID>
14137634

> <PUBCHEM_COMPOUND_CANONICALIZED>
1

> <PUBCHEM_CACTVS_COMPLEXITY>
1050

> <PUBCHEM_CACTVS_HBOND_ACCEPTOR>
5

> <PUBCHEM_CACTVS_HBOND_DONOR>
2

> <PUBCHEM_CACTVS_ROTATABLE_BOND>
7

> <PUBCHEM_CACTVS_SUBSKEYS>
AAADcfB8OAAAAAAAAAAAAAAAAAAAAYAAAAAwQIAAAAAAAECAAAAAGgAACAAADxSggAICCAAABgCIAiDSCAAAAAAgAAAACAEAAEgIFAIAAQACUAAEwAAIkYOAwPAPgAAAAAAAAABAAAYAADAAAYAADAAAAA==

> <PUBCHEM_IUPAC_OPENEYE_NAME>
(E)-6-(3-acetoxy-15-hydroxy-4,4,10,13,14-pentamethyl-2,3,5,6,12,15,16,17-octahydro-1H-cyclopenta[a]phenanthren-17-yl)-2-methyl-hept-2-enoic acid

> <PUBCHEM_IUPAC_CAS_NAME>
(E)-6-(3-acetyloxy-15-hydroxy-4,4,10,13,14-pentamethyl-2,3,5,6,12,15,16,17-octahydro-1H-cyclopenta[a]phenanthren-17-yl)-2-methyl-2-heptenoic acid

> <PUBCHEM_IUPAC_NAME_MARKUP>
(<I>E</I>)-6-(3-acetyloxy-15-hydroxy-4,4,10,13,14-pentamethyl-2,3,5,6,12,15,16,17-octahydro-1<I>H</I>-cyclopenta[a]phenanthren-17-yl)-2-methylhept-2-enoic acid

> <PUBCHEM_IUPAC_NAME>
(E)-6-(3-acetyloxy-15-hydroxy-4,4,10,13,14-pentamethyl-2,3,5,6,12,15,16,17-octahydro-1H-cyclopenta[a]phenanthren-17-yl)-2-methylhept-2-enoic acid

> <PUBCHEM_IUPAC_SYSTEMATIC_NAME>
(E)-6-(3-acetyloxy-4,4,10,13,14-pentamethyl-15-oxidanyl-2,3,5,6,12,15,16,17-octahydro-1H-cyclopenta[a]phenanthren-17-yl)-2-methyl-hept-2-enoic acid

> <PUBCHEM_IUPAC_TRADITIONAL_NAME>
(E)-6-(3-acetoxy-15-hydroxy-4,4,10,13,14-pentamethyl-2,3,5,6,12,15,16,17-octahydro-1H-cyclopenta[a]phenanthren-17-yl)-2-methyl-hept-2-enoic acid

> <PUBCHEM_IUPAC_INCHI>
InChI=1S/C32H48O5/c1-19(10-9-11-20(2)28(35)36)24-18-26(34)32(8)23-12-13-25-29(4,5)27(37-21(3)33)15-16-30(25,6)22(23)14-17-31(24,32)7/h11-12,14,19,24-27,34H,9-10,13,15-18H2,1-8H3,(H,35,36)/b20-11+

> <PUBCHEM_IUPAC_INCHIKEY>
NXZJPJLQVAKBTH-RGVLZGJSSA-N

> <PUBCHEM_XLOGP3_AA>
6.5

> <PUBCHEM_EXACT_MASS>
512.350175

> <PUBCHEM_MOLECULAR_FORMULA>
C32H48O5

> <PUBCHEM_MOLECULAR_WEIGHT>
512.7

> <PUBCHEM_OPENEYE_CAN_SMILES>
CC(CCC=C(C)C(=O)O)C1CC(C2(C1(CC=C3C2=CCC4C3(CCC(C4(C)C)OC(=O)C)C)C)C)O

> <PUBCHEM_OPENEYE_ISO_SMILES>
CC(CC/C=C(\C)/C(=O)O)C1CC(C2(C1(CC=C3C2=CCC4C3(CCC(C4(C)C)OC(=O)C)C)C)C)O

> <PUBCHEM_CACTVS_TPSA>
83.8

> <PUBCHEM_MONOISOTOPIC_WEIGHT>
512.350175

> <PUBCHEM_TOTAL_CHARGE>
0

> <PUBCHEM_HEAVY_ATOM_COUNT>
37

> <PUBCHEM_ATOM_DEF_STEREO_COUNT>
0

> <PUBCHEM_ATOM_UDEF_STEREO_COUNT>
8

> <PUBCHEM_BOND_DEF_STEREO_COUNT>
1

> <PUBCHEM_BOND_UDEF_STEREO_COUNT>
0

> <PUBCHEM_ISOTOPIC_ATOM_COUNT>
0

> <PUBCHEM_COMPONENT_COUNT>
1

> <PUBCHEM_CACTVS_TAUTO_COUNT>
-1

> <PUBCHEM_COORDINATE_TYPE>
1
5
255

> <PUBCHEM_BONDANNOTATIONS>
10  1  3
12  21  3
17  30  3
24  2  3
6  18  3
7  19  3
8  13  3
9  26  3

$$$$
