14109411
  -OEChem-09122006072D

 61 64  0     1  0  0  0  0  0999 V2000
    7.4149   -2.0482    0.0000 O   0  0  0  0  0  0  0  0  0  0  0  0
    8.6500   -1.2720    0.0000 O   0  0  0  0  0  0  0  0  0  0  0  0
    4.7950    1.4833    0.0000 O   0  0  0  0  0  0  0  0  0  0  0  0
    2.0000   -2.0690    0.0000 O   0  0  0  0  0  0  0  0  0  0  0  0
    7.9821    2.9828    0.0000 O   0  0  0  0  0  0  0  0  0  0  0  0
    7.3931   -0.0167    0.0000 C   0  0  3  0  0  0  0  0  0  0  0  0
    7.3931    0.9833    0.0000 C   0  0  3  0  0  0  0  0  0  0  0  0
    4.7510   -0.5236    0.0000 C   0  0  3  0  0  0  0  0  0  0  0  0
    4.7430   -1.5652    0.0000 C   0  0  3  0  0  0  0  0  0  0  0  0
    6.5271   -0.5167    0.0000 C   0  0  0  0  0  0  0  0  0  0  0  0
    5.6610   -0.0167    0.0000 C   0  0  0  0  0  0  0  0  0  0  0  0
    8.3393    1.2880    0.0000 C   0  0  3  0  0  0  0  0  0  0  0  0
    3.8076   -2.1149    0.0000 C   0  0  0  0  0  0  0  0  0  0  0  0
    5.6451   -2.0860    0.0000 C   0  0  0  0  0  0  0  0  0  0  0  0
    6.5431   -1.5582    0.0000 C   0  0  3  0  0  0  0  0  0  0  0  0
    6.5271    1.4833    0.0000 C   0  0  0  0  0  0  0  0  0  0  0  0
    3.8242    0.0405    0.0000 C   0  0  0  0  0  0  0  0  0  0  0  0
    8.3393   -0.3215    0.0000 C   0  0  0  0  0  0  0  0  0  0  0  0
    8.9229    0.4833    0.0000 C   0  0  0  0  0  0  0  0  0  0  0  0
    5.6610    0.9833    0.0000 C   0  0  0  0  0  0  0  0  0  0  0  0
    7.3931   -1.0167    0.0000 C   0  0  0  0  0  0  0  0  0  0  0  0
    7.3931    1.9833    0.0000 C   0  0  0  0  0  0  0  0  0  0  0  0
    4.7587    0.4764    0.0000 C   0  0  0  0  0  0  0  0  0  0  0  0
    2.8763   -0.4874    0.0000 C   0  0  0  0  0  0  0  0  0  0  0  0
    2.8680   -1.5724    0.0000 C   0  0  0  0  0  0  0  0  0  0  0  0
    3.3109   -2.9828    0.0000 C   0  0  0  0  0  0  0  0  0  0  0  0
    4.3109   -2.9790    0.0000 C   0  0  0  0  0  0  0  0  0  0  0  0
    8.6500    2.2385    0.0000 C   0  0  0  0  0  0  0  0  0  0  0  0
    9.6285    2.4448    0.0000 C   0  0  0  0  0  0  0  0  0  0  0  0
    4.7454   -2.1852    0.0000 H   0  0  0  0  0  0  0  0  0  0  0  0
    7.9018    1.7274    0.0000 H   0  0  0  0  0  0  0  0  0  0  0  0
    5.2478   -2.5620    0.0000 H   0  0  0  0  0  0  0  0  0  0  0  0
    6.0460   -2.5589    0.0000 H   0  0  0  0  0  0  0  0  0  0  0  0
    6.5491   -2.1782    0.0000 H   0  0  0  0  0  0  0  0  0  0  0  0
    6.9256    1.9582    0.0000 H   0  0  0  0  0  0  0  0  0  0  0  0
    6.1285    1.9582    0.0000 H   0  0  0  0  0  0  0  0  0  0  0  0
    4.2324    0.5072    0.0000 H   0  0  0  0  0  0  0  0  0  0  0  0
    3.4343    0.5226    0.0000 H   0  0  0  0  0  0  0  0  0  0  0  0
    9.3838    0.0686    0.0000 H   0  0  0  0  0  0  0  0  0  0  0  0
    9.3838    0.8980    0.0000 H   0  0  0  0  0  0  0  0  0  0  0  0
    6.7731   -1.0167    0.0000 H   0  0  0  0  0  0  0  0  0  0  0  0
    7.3931   -1.6367    0.0000 H   0  0  0  0  0  0  0  0  0  0  0  0
    8.0131   -1.0167    0.0000 H   0  0  0  0  0  0  0  0  0  0  0  0
    8.0131    1.9833    0.0000 H   0  0  0  0  0  0  0  0  0  0  0  0
    7.3931    2.6033    0.0000 H   0  0  0  0  0  0  0  0  0  0  0  0
    6.7731    1.9833    0.0000 H   0  0  0  0  0  0  0  0  0  0  0  0
    5.3787    0.4716    0.0000 H   0  0  0  0  0  0  0  0  0  0  0  0
    4.7635    1.0964    0.0000 H   0  0  0  0  0  0  0  0  0  0  0  0
    4.1388    0.4812    0.0000 H   0  0  0  0  0  0  0  0  0  0  0  0
    2.6718    0.0979    0.0000 H   0  0  0  0  0  0  0  0  0  0  0  0
    2.2647   -0.5888    0.0000 H   0  0  0  0  0  0  0  0  0  0  0  0
    2.7728   -2.6749    0.0000 H   0  0  0  0  0  0  0  0  0  0  0  0
    3.0030   -3.5210    0.0000 H   0  0  0  0  0  0  0  0  0  0  0  0
    3.8490   -3.2908    0.0000 H   0  0  0  0  0  0  0  0  0  0  0  0
    3.7752   -3.2910    0.0000 H   0  0  0  0  0  0  0  0  0  0  0  0
    4.6230   -3.5147    0.0000 H   0  0  0  0  0  0  0  0  0  0  0  0
    4.8466   -2.6669    0.0000 H   0  0  0  0  0  0  0  0  0  0  0  0
    7.4220   -2.6681    0.0000 H   0  0  0  0  0  0  0  0  0  0  0  0
    9.7563    1.8381    0.0000 H   0  0  0  0  0  0  0  0  0  0  0  0
   10.2351    2.5726    0.0000 H   0  0  0  0  0  0  0  0  0  0  0  0
    9.5006    3.0514    0.0000 H   0  0  0  0  0  0  0  0  0  0  0  0
  1 15  1  0  0  0  0
  1 58  1  0  0  0  0
  2 18  2  0  0  0  0
  3 20  2  0  0  0  0
  4 25  2  0  0  0  0
  5 28  2  0  0  0  0
  6  7  1  0  0  0  0
  6 10  1  0  0  0  0
  6 18  1  0  0  0  0
  6 21  1  0  0  0  0
  7 12  1  0  0  0  0
  7 16  1  0  0  0  0
  7 22  1  0  0  0  0
  8  9  1  0  0  0  0
  8 11  1  0  0  0  0
  8 17  1  0  0  0  0
  8 23  1  0  0  0  0
  9 13  1  0  0  0  0
  9 14  1  0  0  0  0
  9 30  1  0  0  0  0
 10 11  2  0  0  0  0
 10 15  1  0  0  0  0
 11 20  1  0  0  0  0
 12 19  1  0  0  0  0
 12 28  1  0  0  0  0
 12 31  1  0  0  0  0
 13 25  1  0  0  0  0
 13 26  1  0  0  0  0
 13 27  1  0  0  0  0
 14 15  1  0  0  0  0
 14 32  1  0  0  0  0
 14 33  1  0  0  0  0
 15 34  1  0  0  0  0
 16 20  1  0  0  0  0
 16 35  1  0  0  0  0
 16 36  1  0  0  0  0
 17 24  1  0  0  0  0
 17 37  1  0  0  0  0
 17 38  1  0  0  0  0
 18 19  1  0  0  0  0
 19 39  1  0  0  0  0
 19 40  1  0  0  0  0
 21 41  1  0  0  0  0
 21 42  1  0  0  0  0
 21 43  1  0  0  0  0
 22 44  1  0  0  0  0
 22 45  1  0  0  0  0
 22 46  1  0  0  0  0
 23 47  1  0  0  0  0
 23 48  1  0  0  0  0
 23 49  1  0  0  0  0
 24 25  1  0  0  0  0
 24 50  1  0  0  0  0
 24 51  1  0  0  0  0
 26 52  1  0  0  0  0
 26 53  1  0  0  0  0
 26 54  1  0  0  0  0
 27 55  1  0  0  0  0
 27 56  1  0  0  0  0
 27 57  1  0  0  0  0
 28 29  1  0  0  0  0
 29 59  1  0  0  0  0
 29 60  1  0  0  0  0
 29 61  1  0  0  0  0
M  END
> <PUBCHEM_COMPOUND_CID>
14109411

> <PUBCHEM_COMPOUND_CANONICALIZED>
1

> <PUBCHEM_CACTVS_COMPLEXITY>
895

> <PUBCHEM_CACTVS_HBOND_ACCEPTOR>
5

> <PUBCHEM_CACTVS_HBOND_DONOR>
1

> <PUBCHEM_CACTVS_ROTATABLE_BOND>
1

> <PUBCHEM_CACTVS_SUBSKEYS>
AAADcfB4OAAAAAAAAAAAAAAAAAAAAYAAAAAwQIAAAAAAAEDAAAAAGgAACAAADxSggAICAAAAAgCIAoBQAAAAAAAgAAAACAEAAEgAFBIAAAAAUAAEgAAIEQOLzvDvgAAAAAAAAAAAAAQAACAAAQAACAAAAA==

> <PUBCHEM_IUPAC_OPENEYE_NAME>
17-acetyl-7-hydroxy-4,4,10,13,14-pentamethyl-1,2,5,6,7,12,16,17-octahydrocyclopenta[a]phenanthrene-3,11,15-trione

> <PUBCHEM_IUPAC_CAS_NAME>
17-acetyl-7-hydroxy-4,4,10,13,14-pentamethyl-1,2,5,6,7,12,16,17-octahydrocyclopenta[a]phenanthrene-3,11,15-trione

> <PUBCHEM_IUPAC_NAME_MARKUP>
17-acetyl-7-hydroxy-4,4,10,13,14-pentamethyl-1,2,5,6,7,12,16,17-octahydrocyclopenta[a]phenanthrene-3,11,15-trione

> <PUBCHEM_IUPAC_NAME>
17-acetyl-7-hydroxy-4,4,10,13,14-pentamethyl-1,2,5,6,7,12,16,17-octahydrocyclopenta[a]phenanthrene-3,11,15-trione

> <PUBCHEM_IUPAC_SYSTEMATIC_NAME>
17-ethanoyl-4,4,10,13,14-pentamethyl-7-oxidanyl-1,2,5,6,7,12,16,17-octahydrocyclopenta[a]phenanthrene-3,11,15-trione

> <PUBCHEM_IUPAC_TRADITIONAL_NAME>
17-acetyl-7-hydroxy-4,4,10,13,14-pentamethyl-1,2,5,6,7,12,16,17-octahydrocyclopenta[a]phenanthrene-3,11,15-trione

> <PUBCHEM_IUPAC_INCHI>
InChI=1S/C24H32O5/c1-12(25)13-9-18(29)24(6)20-14(26)10-16-21(2,3)17(28)7-8-22(16,4)19(20)15(27)11-23(13,24)5/h13-14,16,26H,7-11H2,1-6H3

> <PUBCHEM_IUPAC_INCHIKEY>
AJULRUMEMZKBQI-UHFFFAOYSA-N

> <PUBCHEM_XLOGP3_AA>
0.9

> <PUBCHEM_EXACT_MASS>
400.224974

> <PUBCHEM_MOLECULAR_FORMULA>
C24H32O5

> <PUBCHEM_MOLECULAR_WEIGHT>
400.5

> <PUBCHEM_OPENEYE_CAN_SMILES>
CC(=O)C1CC(=O)C2(C1(CC(=O)C3=C2C(CC4C3(CCC(=O)C4(C)C)C)O)C)C

> <PUBCHEM_OPENEYE_ISO_SMILES>
CC(=O)C1CC(=O)C2(C1(CC(=O)C3=C2C(CC4C3(CCC(=O)C4(C)C)C)O)C)C

> <PUBCHEM_CACTVS_TPSA>
88.5

> <PUBCHEM_MONOISOTOPIC_WEIGHT>
400.224974

> <PUBCHEM_TOTAL_CHARGE>
0

> <PUBCHEM_HEAVY_ATOM_COUNT>
29

> <PUBCHEM_ATOM_DEF_STEREO_COUNT>
0

> <PUBCHEM_ATOM_UDEF_STEREO_COUNT>
6

> <PUBCHEM_BOND_DEF_STEREO_COUNT>
0

> <PUBCHEM_BOND_UDEF_STEREO_COUNT>
0

> <PUBCHEM_ISOTOPIC_ATOM_COUNT>
0

> <PUBCHEM_COMPONENT_COUNT>
1

> <PUBCHEM_CACTVS_TAUTO_COUNT>
-1

> <PUBCHEM_COORDINATE_TYPE>
1
5
255

> <PUBCHEM_BONDANNOTATIONS>
15  1  3
12  28  3
6  21  3
7  22  3
8  23  3
9  14  3

$$$$
