131751893
  -OEChem-09122003212D

 75 78  0     1  0  0  0  0  0999 V2000
    9.1857   -2.1205    0.0000 O   0  0  0  0  0  0  0  0  0  0  0  0
    7.9506   -2.8967    0.0000 O   0  0  0  0  0  0  0  0  0  0  0  0
    2.5357   -2.9176    0.0000 O   0  0  0  0  0  0  0  0  0  0  0  0
    5.3307    0.6348    0.0000 O   0  0  0  0  0  0  0  0  0  0  0  0
   11.7640    3.7035    0.0000 O   0  0  0  0  0  0  0  0  0  0  0  0
   12.1212    2.0087    0.0000 O   0  0  0  0  0  0  0  0  0  0  0  0
    7.9288   -0.8652    0.0000 C   0  0  3  0  0  0  0  0  0  0  0  0
    7.9288    0.1348    0.0000 C   0  0  3  0  0  0  0  0  0  0  0  0
    8.8750    0.4395    0.0000 C   0  0  3  0  0  0  0  0  0  0  0  0
    5.2868   -1.3721    0.0000 C   0  0  3  0  0  0  0  0  0  0  0  0
    7.0628   -1.3652    0.0000 C   0  0  0  0  0  0  0  0  0  0  0  0
    8.8750   -1.1700    0.0000 C   0  0  3  0  0  0  0  0  0  0  0  0
    5.2787   -2.4137    0.0000 C   0  0  3  0  0  0  0  0  0  0  0  0
    6.1968   -0.8652    0.0000 C   0  0  0  0  0  0  0  0  0  0  0  0
    9.4586   -0.3652    0.0000 C   0  0  0  0  0  0  0  0  0  0  0  0
    7.0628    0.6348    0.0000 C   0  0  0  0  0  0  0  0  0  0  0  0
    4.3433   -2.9634    0.0000 C   0  0  0  0  0  0  0  0  0  0  0  0
    7.0789   -2.4067    0.0000 C   0  0  3  0  0  0  0  0  0  0  0  0
    6.1808   -2.9345    0.0000 C   0  0  0  0  0  0  0  0  0  0  0  0
    9.1857    1.3900    0.0000 C   0  0  3  0  0  0  0  0  0  0  0  0
    4.3599   -0.8080    0.0000 C   0  0  0  0  0  0  0  0  0  0  0  0
    7.9288   -1.8652    0.0000 C   0  0  0  0  0  0  0  0  0  0  0  0
    7.9288    1.1348    0.0000 C   0  0  0  0  0  0  0  0  0  0  0  0
    6.1968    0.1348    0.0000 C   0  0  0  0  0  0  0  0  0  0  0  0
    3.4037   -2.4209    0.0000 C   0  0  3  0  0  0  0  0  0  0  0  0
    3.4120   -1.3360    0.0000 C   0  0  0  0  0  0  0  0  0  0  0  0
    5.2945   -0.3721    0.0000 C   0  0  0  0  0  0  0  0  0  0  0  0
    3.8467   -3.8314    0.0000 C   0  0  0  0  0  0  0  0  0  0  0  0
    4.8466   -3.8275    0.0000 C   0  0  0  0  0  0  0  0  0  0  0  0
   10.1642    1.5962    0.0000 C   0  0  0  0  0  0  0  0  0  0  0  0
    8.5179    2.1343    0.0000 C   0  0  0  0  0  0  0  0  0  0  0  0
   10.4749    2.5468    0.0000 C   0  0  0  0  0  0  0  0  0  0  0  0
   11.4534    2.7530    0.0000 C   0  0  0  0  0  0  0  0  0  0  0  0
    9.4875    0.5357    0.0000 H   0  0  0  0  0  0  0  0  0  0  0  0
    9.4875   -1.2662    0.0000 H   0  0  0  0  0  0  0  0  0  0  0  0
    5.2811   -3.0337    0.0000 H   0  0  0  0  0  0  0  0  0  0  0  0
    9.9195   -0.7800    0.0000 H   0  0  0  0  0  0  0  0  0  0  0  0
    9.9195    0.0495    0.0000 H   0  0  0  0  0  0  0  0  0  0  0  0
    7.4613    1.1097    0.0000 H   0  0  0  0  0  0  0  0  0  0  0  0
    6.6643    1.1097    0.0000 H   0  0  0  0  0  0  0  0  0  0  0  0
    7.6116   -2.0895    0.0000 H   0  0  0  0  0  0  0  0  0  0  0  0
    5.7835   -3.4105    0.0000 H   0  0  0  0  0  0  0  0  0  0  0  0
    6.5818   -3.4074    0.0000 H   0  0  0  0  0  0  0  0  0  0  0  0
    9.3783    1.9793    0.0000 H   0  0  0  0  0  0  0  0  0  0  0  0
    4.7681   -0.3413    0.0000 H   0  0  0  0  0  0  0  0  0  0  0  0
    3.9700   -0.3260    0.0000 H   0  0  0  0  0  0  0  0  0  0  0  0
    7.3088   -1.8652    0.0000 H   0  0  0  0  0  0  0  0  0  0  0  0
    7.9288   -2.4852    0.0000 H   0  0  0  0  0  0  0  0  0  0  0  0
    8.5488   -1.8652    0.0000 H   0  0  0  0  0  0  0  0  0  0  0  0
    8.5488    1.1348    0.0000 H   0  0  0  0  0  0  0  0  0  0  0  0
    7.9288    1.7548    0.0000 H   0  0  0  0  0  0  0  0  0  0  0  0
    7.3088    1.1348    0.0000 H   0  0  0  0  0  0  0  0  0  0  0  0
    3.4025   -3.0409    0.0000 H   0  0  0  0  0  0  0  0  0  0  0  0
    3.2075   -0.7507    0.0000 H   0  0  0  0  0  0  0  0  0  0  0  0
    2.8004   -1.4373    0.0000 H   0  0  0  0  0  0  0  0  0  0  0  0
    5.9145   -0.3769    0.0000 H   0  0  0  0  0  0  0  0  0  0  0  0
    5.2993    0.2479    0.0000 H   0  0  0  0  0  0  0  0  0  0  0  0
    4.6745   -0.3673    0.0000 H   0  0  0  0  0  0  0  0  0  0  0  0
    3.3085   -3.5234    0.0000 H   0  0  0  0  0  0  0  0  0  0  0  0
    3.5387   -4.3695    0.0000 H   0  0  0  0  0  0  0  0  0  0  0  0
    4.3848   -4.1393    0.0000 H   0  0  0  0  0  0  0  0  0  0  0  0
    4.3109   -4.1396    0.0000 H   0  0  0  0  0  0  0  0  0  0  0  0
    5.1587   -4.3632    0.0000 H   0  0  0  0  0  0  0  0  0  0  0  0
    5.3824   -3.5154    0.0000 H   0  0  0  0  0  0  0  0  0  0  0  0
   10.1848    0.9766    0.0000 H   0  0  0  0  0  0  0  0  0  0  0  0
   10.7780    1.5089    0.0000 H   0  0  0  0  0  0  0  0  0  0  0  0
    9.7924   -2.2483    0.0000 H   0  0  0  0  0  0  0  0  0  0  0  0
    8.9793    2.5484    0.0000 H   0  0  0  0  0  0  0  0  0  0  0  0
    8.1038    2.5958    0.0000 H   0  0  0  0  0  0  0  0  0  0  0  0
    8.0564    1.7203    0.0000 H   0  0  0  0  0  0  0  0  0  0  0  0
    7.9578   -3.5166    0.0000 H   0  0  0  0  0  0  0  0  0  0  0  0
    2.0000   -2.6055    0.0000 H   0  0  0  0  0  0  0  0  0  0  0  0
   10.4543    3.1664    0.0000 H   0  0  0  0  0  0  0  0  0  0  0  0
    9.8611    2.6341    0.0000 H   0  0  0  0  0  0  0  0  0  0  0  0
   12.3707    3.8314    0.0000 H   0  0  0  0  0  0  0  0  0  0  0  0
  1 12  1  0  0  0  0
  1 67  1  0  0  0  0
  2 18  1  0  0  0  0
  2 71  1  0  0  0  0
  3 25  1  0  0  0  0
  3 72  1  0  0  0  0
  4 24  2  0  0  0  0
  5 33  1  0  0  0  0
  5 75  1  0  0  0  0
  6 33  2  0  0  0  0
  7  8  1  0  0  0  0
  7 11  1  0  0  0  0
  7 12  1  0  0  0  0
  7 22  1  0  0  0  0
  8  9  1  0  0  0  0
  8 16  1  0  0  0  0
  8 23  1  0  0  0  0
  9 15  1  0  0  0  0
  9 20  1  0  0  0  0
  9 34  1  0  0  0  0
 10 13  1  0  0  0  0
 10 14  1  0  0  0  0
 10 21  1  0  0  0  0
 10 27  1  0  0  0  0
 11 14  2  0  0  0  0
 11 18  1  0  0  0  0
 12 15  1  0  0  0  0
 12 35  1  0  0  0  0
 13 17  1  0  0  0  0
 13 19  1  0  0  0  0
 13 36  1  0  0  0  0
 14 24  1  0  0  0  0
 15 37  1  0  0  0  0
 15 38  1  0  0  0  0
 16 24  1  0  0  0  0
 16 39  1  0  0  0  0
 16 40  1  0  0  0  0
 17 25  1  0  0  0  0
 17 28  1  0  0  0  0
 17 29  1  0  0  0  0
 18 19  1  0  0  0  0
 18 41  1  0  0  0  0
 19 42  1  0  0  0  0
 19 43  1  0  0  0  0
 20 30  1  0  0  0  0
 20 31  1  0  0  0  0
 20 44  1  0  0  0  0
 21 26  1  0  0  0  0
 21 45  1  0  0  0  0
 21 46  1  0  0  0  0
 22 47  1  0  0  0  0
 22 48  1  0  0  0  0
 22 49  1  0  0  0  0
 23 50  1  0  0  0  0
 23 51  1  0  0  0  0
 23 52  1  0  0  0  0
 25 26  1  0  0  0  0
 25 53  1  0  0  0  0
 26 54  1  0  0  0  0
 26 55  1  0  0  0  0
 27 56  1  0  0  0  0
 27 57  1  0  0  0  0
 27 58  1  0  0  0  0
 28 59  1  0  0  0  0
 28 60  1  0  0  0  0
 28 61  1  0  0  0  0
 29 62  1  0  0  0  0
 29 63  1  0  0  0  0
 29 64  1  0  0  0  0
 30 32  1  0  0  0  0
 30 65  1  0  0  0  0
 30 66  1  0  0  0  0
 31 68  1  0  0  0  0
 31 69  1  0  0  0  0
 31 70  1  0  0  0  0
 32 33  1  0  0  0  0
 32 73  1  0  0  0  0
 32 74  1  0  0  0  0
M  END
> <PUBCHEM_COMPOUND_CID>
131751893

> <PUBCHEM_COMPOUND_CANONICALIZED>
1

> <PUBCHEM_CACTVS_COMPLEXITY>
891

> <PUBCHEM_CACTVS_HBOND_ACCEPTOR>
6

> <PUBCHEM_CACTVS_HBOND_DONOR>
4

> <PUBCHEM_CACTVS_ROTATABLE_BOND>
4

> <PUBCHEM_CACTVS_SUBSKEYS>
AAADcfB4OAAAAAAAAAAAAAAAAAAAAYAAAAAwQIAAAAAAAEDAAAAAGgAACAAADxSggAICCAAAAgCIAoDQCAAAAAAgAAAACAEAAEgAFBIAAAAAUAAEwAAIEQPI7PTPgAAAAAAAAABAAAYAADAAAYAADAAAAA==

> <PUBCHEM_IUPAC_OPENEYE_NAME>
4-(3,7,15-trihydroxy-4,4,10,13,14-pentamethyl-11-oxo-1,2,3,5,6,7,12,15,16,17-decahydrocyclopenta[a]phenanthren-17-yl)pentanoic acid

> <PUBCHEM_IUPAC_CAS_NAME>
4-(3,7,15-trihydroxy-4,4,10,13,14-pentamethyl-11-oxo-1,2,3,5,6,7,12,15,16,17-decahydrocyclopenta[a]phenanthren-17-yl)pentanoic acid

> <PUBCHEM_IUPAC_NAME_MARKUP>
4-(3,7,15-trihydroxy-4,4,10,13,14-pentamethyl-11-oxo-1,2,3,5,6,7,12,15,16,17-decahydrocyclopenta[a]phenanthren-17-yl)pentanoic acid

> <PUBCHEM_IUPAC_NAME>
4-(3,7,15-trihydroxy-4,4,10,13,14-pentamethyl-11-oxo-1,2,3,5,6,7,12,15,16,17-decahydrocyclopenta[a]phenanthren-17-yl)pentanoic acid

> <PUBCHEM_IUPAC_SYSTEMATIC_NAME>
4-[4,4,10,13,14-pentamethyl-3,7,15-tris(oxidanyl)-11-oxidanylidene-1,2,3,5,6,7,12,15,16,17-decahydrocyclopenta[a]phenanthren-17-yl]pentanoic acid

> <PUBCHEM_IUPAC_TRADITIONAL_NAME>
4-(3,7,15-trihydroxy-11-keto-4,4,10,13,14-pentamethyl-1,2,3,5,6,7,12,15,16,17-decahydrocyclopenta[a]phenanthren-17-yl)valeric acid

> <PUBCHEM_IUPAC_INCHI>
InChI=1S/C27H42O6/c1-14(7-8-21(32)33)15-11-20(31)27(6)23-16(28)12-18-24(2,3)19(30)9-10-25(18,4)22(23)17(29)13-26(15,27)5/h14-16,18-20,28,30-31H,7-13H2,1-6H3,(H,32,33)

> <PUBCHEM_IUPAC_INCHIKEY>
DPRVTGUHOBXEIW-UHFFFAOYSA-N

> <PUBCHEM_XLOGP3_AA>
2.7

> <PUBCHEM_EXACT_MASS>
462.298139

> <PUBCHEM_MOLECULAR_FORMULA>
C27H42O6

> <PUBCHEM_MOLECULAR_WEIGHT>
462.6

> <PUBCHEM_OPENEYE_CAN_SMILES>
CC(CCC(=O)O)C1CC(C2(C1(CC(=O)C3=C2C(CC4C3(CCC(C4(C)C)O)C)O)C)C)O

> <PUBCHEM_OPENEYE_ISO_SMILES>
CC(CCC(=O)O)C1CC(C2(C1(CC(=O)C3=C2C(CC4C3(CCC(C4(C)C)O)C)O)C)C)O

> <PUBCHEM_CACTVS_TPSA>
115

> <PUBCHEM_MONOISOTOPIC_WEIGHT>
462.298139

> <PUBCHEM_TOTAL_CHARGE>
0

> <PUBCHEM_HEAVY_ATOM_COUNT>
33

> <PUBCHEM_ATOM_DEF_STEREO_COUNT>
0

> <PUBCHEM_ATOM_UDEF_STEREO_COUNT>
9

> <PUBCHEM_BOND_DEF_STEREO_COUNT>
0

> <PUBCHEM_BOND_UDEF_STEREO_COUNT>
0

> <PUBCHEM_ISOTOPIC_ATOM_COUNT>
0

> <PUBCHEM_COMPONENT_COUNT>
1

> <PUBCHEM_CACTVS_TAUTO_COUNT>
-1

> <PUBCHEM_COORDINATE_TYPE>
1
5
255

> <PUBCHEM_BONDANNOTATIONS>
12  1  3
10  27  3
13  19  3
18  2  3
20  31  3
25  3  3
7  22  3
8  23  3
9  15  3

$$$$
