131751879
  -OEChem-09122003202D

 70 73  0     1  0  0  0  0  0999 V2000
    6.5271    1.6348    0.0000 O   0  0  0  0  0  0  0  0  0  0  0  0
    8.6500   -2.1205    0.0000 O   0  0  0  0  0  0  0  0  0  0  0  0
    4.7950    0.6348    0.0000 O   0  0  0  0  0  0  0  0  0  0  0  0
    7.4149   -2.8967    0.0000 O   0  0  0  0  0  0  0  0  0  0  0  0
    2.0000   -2.9176    0.0000 O   0  0  0  0  0  0  0  0  0  0  0  0
   11.2283    3.7035    0.0000 O   0  0  0  0  0  0  0  0  0  0  0  0
   11.5855    2.0087    0.0000 O   0  0  0  0  0  0  0  0  0  0  0  0
    7.3931    0.1348    0.0000 C   0  0  3  0  0  0  0  0  0  0  0  0
    7.3931   -0.8652    0.0000 C   0  0  3  0  0  0  0  0  0  0  0  0
    8.3393    0.4395    0.0000 C   0  0  3  0  0  0  0  0  0  0  0  0
    4.7510   -1.3721    0.0000 C   0  0  3  0  0  0  0  0  0  0  0  0
    6.5271   -1.3652    0.0000 C   0  0  0  0  0  0  0  0  0  0  0  0
    4.7430   -2.4137    0.0000 C   0  0  3  0  0  0  0  0  0  0  0  0
    6.5271    0.6348    0.0000 C   0  0  3  0  0  0  0  0  0  0  0  0
    5.6610   -0.8652    0.0000 C   0  0  0  0  0  0  0  0  0  0  0  0
    8.9229   -0.3652    0.0000 C   0  0  0  0  0  0  0  0  0  0  0  0
    8.3393   -1.1700    0.0000 C   0  0  0  0  0  0  0  0  0  0  0  0
    8.6500    1.3900    0.0000 C   0  0  3  0  0  0  0  0  0  0  0  0
    3.8076   -2.9634    0.0000 C   0  0  0  0  0  0  0  0  0  0  0  0
    7.3931    1.1348    0.0000 C   0  0  0  0  0  0  0  0  0  0  0  0
    5.6610    0.1348    0.0000 C   0  0  0  0  0  0  0  0  0  0  0  0
    5.6451   -2.9345    0.0000 C   0  0  0  0  0  0  0  0  0  0  0  0
    3.8242   -0.8080    0.0000 C   0  0  0  0  0  0  0  0  0  0  0  0
    7.3931   -1.8652    0.0000 C   0  0  0  0  0  0  0  0  0  0  0  0
    6.5431   -2.4067    0.0000 C   0  0  0  0  0  0  0  0  0  0  0  0
    4.7587   -0.3721    0.0000 C   0  0  0  0  0  0  0  0  0  0  0  0
    2.8763   -1.3360    0.0000 C   0  0  0  0  0  0  0  0  0  0  0  0
    2.8680   -2.4209    0.0000 C   0  0  0  0  0  0  0  0  0  0  0  0
    9.6285    1.5962    0.0000 C   0  0  0  0  0  0  0  0  0  0  0  0
    7.9821    2.1343    0.0000 C   0  0  0  0  0  0  0  0  0  0  0  0
    3.3109   -3.8314    0.0000 C   0  0  0  0  0  0  0  0  0  0  0  0
    4.3109   -3.8275    0.0000 C   0  0  0  0  0  0  0  0  0  0  0  0
    9.9391    2.5468    0.0000 C   0  0  0  0  0  0  0  0  0  0  0  0
   10.9176    2.7530    0.0000 C   0  0  0  0  0  0  0  0  0  0  0  0
    8.9518    0.5357    0.0000 H   0  0  0  0  0  0  0  0  0  0  0  0
    4.7454   -3.0337    0.0000 H   0  0  0  0  0  0  0  0  0  0  0  0
    5.9901    0.9448    0.0000 H   0  0  0  0  0  0  0  0  0  0  0  0
    9.3838   -0.7800    0.0000 H   0  0  0  0  0  0  0  0  0  0  0  0
    9.3838    0.0495    0.0000 H   0  0  0  0  0  0  0  0  0  0  0  0
    8.0433    1.2622    0.0000 H   0  0  0  0  0  0  0  0  0  0  0  0
    8.0131    1.1348    0.0000 H   0  0  0  0  0  0  0  0  0  0  0  0
    7.3931    1.7548    0.0000 H   0  0  0  0  0  0  0  0  0  0  0  0
    6.7731    1.1348    0.0000 H   0  0  0  0  0  0  0  0  0  0  0  0
    5.2478   -3.4105    0.0000 H   0  0  0  0  0  0  0  0  0  0  0  0
    6.0460   -3.4074    0.0000 H   0  0  0  0  0  0  0  0  0  0  0  0
    4.2324   -0.3413    0.0000 H   0  0  0  0  0  0  0  0  0  0  0  0
    3.4343   -0.3260    0.0000 H   0  0  0  0  0  0  0  0  0  0  0  0
    6.7731   -1.8652    0.0000 H   0  0  0  0  0  0  0  0  0  0  0  0
    7.3931   -2.4852    0.0000 H   0  0  0  0  0  0  0  0  0  0  0  0
    8.0131   -1.8652    0.0000 H   0  0  0  0  0  0  0  0  0  0  0  0
    5.3787   -0.3769    0.0000 H   0  0  0  0  0  0  0  0  0  0  0  0
    4.7635    0.2479    0.0000 H   0  0  0  0  0  0  0  0  0  0  0  0
    4.1388   -0.3673    0.0000 H   0  0  0  0  0  0  0  0  0  0  0  0
    2.6718   -0.7507    0.0000 H   0  0  0  0  0  0  0  0  0  0  0  0
    2.2647   -1.4373    0.0000 H   0  0  0  0  0  0  0  0  0  0  0  0
    9.6490    0.9766    0.0000 H   0  0  0  0  0  0  0  0  0  0  0  0
   10.2423    1.5089    0.0000 H   0  0  0  0  0  0  0  0  0  0  0  0
    8.4436    2.5484    0.0000 H   0  0  0  0  0  0  0  0  0  0  0  0
    7.5681    2.5958    0.0000 H   0  0  0  0  0  0  0  0  0  0  0  0
    7.5207    1.7203    0.0000 H   0  0  0  0  0  0  0  0  0  0  0  0
    2.7728   -3.5234    0.0000 H   0  0  0  0  0  0  0  0  0  0  0  0
    3.0030   -4.3695    0.0000 H   0  0  0  0  0  0  0  0  0  0  0  0
    3.8490   -4.1393    0.0000 H   0  0  0  0  0  0  0  0  0  0  0  0
    3.7752   -4.1396    0.0000 H   0  0  0  0  0  0  0  0  0  0  0  0
    4.6230   -4.3632    0.0000 H   0  0  0  0  0  0  0  0  0  0  0  0
    4.8466   -3.5154    0.0000 H   0  0  0  0  0  0  0  0  0  0  0  0
    5.9901    1.9448    0.0000 H   0  0  0  0  0  0  0  0  0  0  0  0
    9.9186    3.1664    0.0000 H   0  0  0  0  0  0  0  0  0  0  0  0
    9.3253    2.6341    0.0000 H   0  0  0  0  0  0  0  0  0  0  0  0
   11.8350    3.8314    0.0000 H   0  0  0  0  0  0  0  0  0  0  0  0
  1 14  1  0  0  0  0
  1 67  1  0  0  0  0
  2 17  2  0  0  0  0
  3 21  2  0  0  0  0
  4 25  2  0  0  0  0
  5 28  2  0  0  0  0
  6 34  1  0  0  0  0
  6 70  1  0  0  0  0
  7 34  2  0  0  0  0
  8  9  1  0  0  0  0
  8 10  1  0  0  0  0
  8 14  1  0  0  0  0
  8 20  1  0  0  0  0
  9 12  1  0  0  0  0
  9 17  1  0  0  0  0
  9 24  1  0  0  0  0
 10 16  1  0  0  0  0
 10 18  1  0  0  0  0
 10 35  1  0  0  0  0
 11 13  1  0  0  0  0
 11 15  1  0  0  0  0
 11 23  1  0  0  0  0
 11 26  1  0  0  0  0
 12 15  2  0  0  0  0
 12 25  1  0  0  0  0
 13 19  1  0  0  0  0
 13 22  1  0  0  0  0
 13 36  1  0  0  0  0
 14 21  1  0  0  0  0
 14 37  1  0  0  0  0
 15 21  1  0  0  0  0
 16 17  1  0  0  0  0
 16 38  1  0  0  0  0
 16 39  1  0  0  0  0
 18 29  1  0  0  0  0
 18 30  1  0  0  0  0
 18 40  1  0  0  0  0
 19 28  1  0  0  0  0
 19 31  1  0  0  0  0
 19 32  1  0  0  0  0
 20 41  1  0  0  0  0
 20 42  1  0  0  0  0
 20 43  1  0  0  0  0
 22 25  1  0  0  0  0
 22 44  1  0  0  0  0
 22 45  1  0  0  0  0
 23 27  1  0  0  0  0
 23 46  1  0  0  0  0
 23 47  1  0  0  0  0
 24 48  1  0  0  0  0
 24 49  1  0  0  0  0
 24 50  1  0  0  0  0
 26 51  1  0  0  0  0
 26 52  1  0  0  0  0
 26 53  1  0  0  0  0
 27 28  1  0  0  0  0
 27 54  1  0  0  0  0
 27 55  1  0  0  0  0
 29 33  1  0  0  0  0
 29 56  1  0  0  0  0
 29 57  1  0  0  0  0
 30 58  1  0  0  0  0
 30 59  1  0  0  0  0
 30 60  1  0  0  0  0
 31 61  1  0  0  0  0
 31 62  1  0  0  0  0
 31 63  1  0  0  0  0
 32 64  1  0  0  0  0
 32 65  1  0  0  0  0
 32 66  1  0  0  0  0
 33 34  1  0  0  0  0
 33 68  1  0  0  0  0
 33 69  1  0  0  0  0
M  END
> <PUBCHEM_COMPOUND_CID>
131751879

> <PUBCHEM_COMPOUND_CANONICALIZED>
1

> <PUBCHEM_CACTVS_COMPLEXITY>
1050

> <PUBCHEM_CACTVS_HBOND_ACCEPTOR>
7

> <PUBCHEM_CACTVS_HBOND_DONOR>
2

> <PUBCHEM_CACTVS_ROTATABLE_BOND>
4

> <PUBCHEM_CACTVS_SUBSKEYS>
AAADcfB4OAAAAAAAAAAAAAAAAAAAAYAAAAAwQIAAAAAAAEDAAAAAGgAACAAADxSggAICCAAAAgCIAoDQCAIAAAAgAAAACAFAAEgAEBIAAAAAQAAEwAAIAQOLzvDvgAAAAAAAAAAAAAQAACAAAQAACAAAAA==

> <PUBCHEM_IUPAC_OPENEYE_NAME>
4-(12-hydroxy-4,4,10,13,14-pentamethyl-3,7,11,15-tetraoxo-2,5,6,12,16,17-hexahydro-1H-cyclopenta[a]phenanthren-17-yl)pentanoic acid

> <PUBCHEM_IUPAC_CAS_NAME>
4-(12-hydroxy-4,4,10,13,14-pentamethyl-3,7,11,15-tetraoxo-2,5,6,12,16,17-hexahydro-1H-cyclopenta[a]phenanthren-17-yl)pentanoic acid

> <PUBCHEM_IUPAC_NAME_MARKUP>
4-(12-hydroxy-4,4,10,13,14-pentamethyl-3,7,11,15-tetraoxo-2,5,6,12,16,17-hexahydro-1<I>H</I>-cyclopenta[a]phenanthren-17-yl)pentanoic acid

> <PUBCHEM_IUPAC_NAME>
4-(12-hydroxy-4,4,10,13,14-pentamethyl-3,7,11,15-tetraoxo-2,5,6,12,16,17-hexahydro-1H-cyclopenta[a]phenanthren-17-yl)pentanoic acid

> <PUBCHEM_IUPAC_SYSTEMATIC_NAME>
4-[4,4,10,13,14-pentamethyl-12-oxidanyl-3,7,11,15-tetrakis(oxidanylidene)-2,5,6,12,16,17-hexahydro-1H-cyclopenta[a]phenanthren-17-yl]pentanoic acid

> <PUBCHEM_IUPAC_TRADITIONAL_NAME>
4-(12-hydroxy-3,7,11,15-tetraketo-4,4,10,13,14-pentamethyl-2,5,6,12,16,17-hexahydro-1H-cyclopenta[a]phenanthren-17-yl)valeric acid

> <PUBCHEM_IUPAC_INCHI>
InChI=1S/C27H36O7/c1-13(7-8-19(31)32)14-11-18(30)27(6)20-15(28)12-16-24(2,3)17(29)9-10-25(16,4)21(20)22(33)23(34)26(14,27)5/h13-14,16,23,34H,7-12H2,1-6H3,(H,31,32)

> <PUBCHEM_IUPAC_INCHIKEY>
NCGJGPSWDDQPKM-UHFFFAOYSA-N

> <PUBCHEM_XLOGP3_AA>
1.9

> <PUBCHEM_EXACT_MASS>
472.246104

> <PUBCHEM_MOLECULAR_FORMULA>
C27H36O7

> <PUBCHEM_MOLECULAR_WEIGHT>
472.6

> <PUBCHEM_OPENEYE_CAN_SMILES>
CC(CCC(=O)O)C1CC(=O)C2(C1(C(C(=O)C3=C2C(=O)CC4C3(CCC(=O)C4(C)C)C)O)C)C

> <PUBCHEM_OPENEYE_ISO_SMILES>
CC(CCC(=O)O)C1CC(=O)C2(C1(C(C(=O)C3=C2C(=O)CC4C3(CCC(=O)C4(C)C)C)O)C)C

> <PUBCHEM_CACTVS_TPSA>
126

> <PUBCHEM_MONOISOTOPIC_WEIGHT>
472.246104

> <PUBCHEM_TOTAL_CHARGE>
0

> <PUBCHEM_HEAVY_ATOM_COUNT>
34

> <PUBCHEM_ATOM_DEF_STEREO_COUNT>
0

> <PUBCHEM_ATOM_UDEF_STEREO_COUNT>
7

> <PUBCHEM_BOND_DEF_STEREO_COUNT>
0

> <PUBCHEM_BOND_UDEF_STEREO_COUNT>
0

> <PUBCHEM_ISOTOPIC_ATOM_COUNT>
0

> <PUBCHEM_COMPONENT_COUNT>
1

> <PUBCHEM_CACTVS_TAUTO_COUNT>
-1

> <PUBCHEM_COORDINATE_TYPE>
1
5
255

> <PUBCHEM_BONDANNOTATIONS>
14  1  3
10  16  3
11  26  3
13  22  3
18  30  3
8  20  3
9  24  3

$$$$
