15602280
  -OEChem-09122006092D

 82 85  0     1  0  0  0  0  0999 V2000
    2.5357   -3.9318    0.0000 O   0  0  0  0  0  0  0  0  0  0  0  0
    7.9506   -3.9109    0.0000 O   0  0  0  0  0  0  0  0  0  0  0  0
   13.0532    3.8460    0.0000 O   0  0  0  0  0  0  0  0  0  0  0  0
   11.4069    4.3841    0.0000 O   0  0  0  0  0  0  0  0  0  0  0  0
    7.9288   -0.8795    0.0000 C   0  0  3  0  0  0  0  0  0  0  0  0
    7.9288   -1.8794    0.0000 C   0  0  3  0  0  0  0  0  0  0  0  0
    8.8750   -0.5747    0.0000 C   0  0  3  0  0  0  0  0  0  0  0  0
    5.2868   -2.3863    0.0000 C   0  0  3  0  0  0  0  0  0  0  0  0
    7.0628   -2.3794    0.0000 C   0  0  0  0  0  0  0  0  0  0  0  0
    8.8750   -2.1842    0.0000 C   0  0  0  0  0  0  0  0  0  0  0  0
    7.0628   -0.3795    0.0000 C   0  0  0  0  0  0  0  0  0  0  0  0
    6.1968   -1.8794    0.0000 C   0  0  0  0  0  0  0  0  0  0  0  0
    5.2787   -3.4279    0.0000 C   0  0  3  0  0  0  0  0  0  0  0  0
    9.4586   -1.3794    0.0000 C   0  0  0  0  0  0  0  0  0  0  0  0
    6.1968   -0.8795    0.0000 C   0  0  0  0  0  0  0  0  0  0  0  0
    4.3433   -3.9776    0.0000 C   0  0  0  0  0  0  0  0  0  0  0  0
    9.1857    0.3758    0.0000 C   0  0  3  0  0  0  0  0  0  0  0  0
    7.9288    0.1205    0.0000 C   0  0  0  0  0  0  0  0  0  0  0  0
    4.3599   -1.8222    0.0000 C   0  0  0  0  0  0  0  0  0  0  0  0
    7.9288   -2.8794    0.0000 C   0  0  0  0  0  0  0  0  0  0  0  0
    6.1808   -3.9487    0.0000 C   0  0  0  0  0  0  0  0  0  0  0  0
    7.0789   -3.4210    0.0000 C   0  0  0  0  0  0  0  0  0  0  0  0
    3.4037   -3.4351    0.0000 C   0  0  3  0  0  0  0  0  0  0  0  0
    3.4120   -2.3502    0.0000 C   0  0  0  0  0  0  0  0  0  0  0  0
    5.2945   -1.3863    0.0000 C   0  0  0  0  0  0  0  0  0  0  0  0
   10.1642    0.5820    0.0000 C   0  0  0  0  0  0  0  0  0  0  0  0
    3.8467   -4.8456    0.0000 C   0  0  0  0  0  0  0  0  0  0  0  0
    4.8466   -4.8417    0.0000 C   0  0  0  0  0  0  0  0  0  0  0  0
    8.5179    1.1201    0.0000 C   0  0  0  0  0  0  0  0  0  0  0  0
   10.4749    1.5325    0.0000 C   0  0  0  0  0  0  0  0  0  0  0  0
   11.4534    1.7388    0.0000 C   0  0  0  0  0  0  0  0  0  0  0  0
   11.7640    2.6893    0.0000 C   0  0  0  0  0  0  0  0  0  0  0  0
   12.7425    2.8955    0.0000 C   0  0  0  0  0  0  0  0  0  0  0  0
   11.0962    3.4336    0.0000 C   0  0  0  0  0  0  0  0  0  0  0  0
    9.4875   -0.4785    0.0000 H   0  0  0  0  0  0  0  0  0  0  0  0
    8.6240   -2.7511    0.0000 H   0  0  0  0  0  0  0  0  0  0  0  0
    9.4124   -2.4934    0.0000 H   0  0  0  0  0  0  0  0  0  0  0  0
    7.4613    0.0955    0.0000 H   0  0  0  0  0  0  0  0  0  0  0  0
    6.6643    0.0955    0.0000 H   0  0  0  0  0  0  0  0  0  0  0  0
    5.2811   -4.0479    0.0000 H   0  0  0  0  0  0  0  0  0  0  0  0
    9.9195   -1.7942    0.0000 H   0  0  0  0  0  0  0  0  0  0  0  0
    9.9195   -0.9647    0.0000 H   0  0  0  0  0  0  0  0  0  0  0  0
    5.9847   -0.2968    0.0000 H   0  0  0  0  0  0  0  0  0  0  0  0
    5.5862   -0.9871    0.0000 H   0  0  0  0  0  0  0  0  0  0  0  0
    9.3783    0.9651    0.0000 H   0  0  0  0  0  0  0  0  0  0  0  0
    8.5488    0.1205    0.0000 H   0  0  0  0  0  0  0  0  0  0  0  0
    7.9288    0.7405    0.0000 H   0  0  0  0  0  0  0  0  0  0  0  0
    7.3088    0.1205    0.0000 H   0  0  0  0  0  0  0  0  0  0  0  0
    4.7681   -1.3556    0.0000 H   0  0  0  0  0  0  0  0  0  0  0  0
    3.9700   -1.3402    0.0000 H   0  0  0  0  0  0  0  0  0  0  0  0
    7.3088   -2.8794    0.0000 H   0  0  0  0  0  0  0  0  0  0  0  0
    7.9288   -3.4994    0.0000 H   0  0  0  0  0  0  0  0  0  0  0  0
    8.5488   -2.8794    0.0000 H   0  0  0  0  0  0  0  0  0  0  0  0
    5.7835   -4.4247    0.0000 H   0  0  0  0  0  0  0  0  0  0  0  0
    6.5818   -4.4216    0.0000 H   0  0  0  0  0  0  0  0  0  0  0  0
    3.4025   -4.0551    0.0000 H   0  0  0  0  0  0  0  0  0  0  0  0
    3.2075   -1.7649    0.0000 H   0  0  0  0  0  0  0  0  0  0  0  0
    2.8004   -2.4515    0.0000 H   0  0  0  0  0  0  0  0  0  0  0  0
    5.9145   -1.3911    0.0000 H   0  0  0  0  0  0  0  0  0  0  0  0
    5.2993   -0.7663    0.0000 H   0  0  0  0  0  0  0  0  0  0  0  0
    4.6745   -1.3816    0.0000 H   0  0  0  0  0  0  0  0  0  0  0  0
   10.1848   -0.0376    0.0000 H   0  0  0  0  0  0  0  0  0  0  0  0
   10.7780    0.4947    0.0000 H   0  0  0  0  0  0  0  0  0  0  0  0
    3.3085   -4.5376    0.0000 H   0  0  0  0  0  0  0  0  0  0  0  0
    3.5387   -5.3837    0.0000 H   0  0  0  0  0  0  0  0  0  0  0  0
    4.3848   -5.1535    0.0000 H   0  0  0  0  0  0  0  0  0  0  0  0
    4.3109   -5.1538    0.0000 H   0  0  0  0  0  0  0  0  0  0  0  0
    5.1587   -5.3774    0.0000 H   0  0  0  0  0  0  0  0  0  0  0  0
    5.3824   -4.5296    0.0000 H   0  0  0  0  0  0  0  0  0  0  0  0
    8.9793    1.5342    0.0000 H   0  0  0  0  0  0  0  0  0  0  0  0
    8.1038    1.5816    0.0000 H   0  0  0  0  0  0  0  0  0  0  0  0
    8.0564    0.7060    0.0000 H   0  0  0  0  0  0  0  0  0  0  0  0
    2.0000   -3.6197    0.0000 H   0  0  0  0  0  0  0  0  0  0  0  0
   10.4543    2.1522    0.0000 H   0  0  0  0  0  0  0  0  0  0  0  0
    9.8611    1.6199    0.0000 H   0  0  0  0  0  0  0  0  0  0  0  0
   11.8674    1.2773    0.0000 H   0  0  0  0  0  0  0  0  0  0  0  0
   12.7631    2.2758    0.0000 H   0  0  0  0  0  0  0  0  0  0  0  0
   13.3564    2.8082    0.0000 H   0  0  0  0  0  0  0  0  0  0  0  0
   10.5493    3.7256    0.0000 H   0  0  0  0  0  0  0  0  0  0  0  0
   10.7136    2.9457    0.0000 H   0  0  0  0  0  0  0  0  0  0  0  0
   13.6599    3.9739    0.0000 H   0  0  0  0  0  0  0  0  0  0  0  0
   10.9928    4.8456    0.0000 H   0  0  0  0  0  0  0  0  0  0  0  0
  1 23  1  0  0  0  0
  1 73  1  0  0  0  0
  2 22  2  0  0  0  0
  3 33  1  0  0  0  0
  3 81  1  0  0  0  0
  4 34  1  0  0  0  0
  4 82  1  0  0  0  0
  5  6  1  0  0  0  0
  5  7  1  0  0  0  0
  5 11  1  0  0  0  0
  5 18  1  0  0  0  0
  6  9  1  0  0  0  0
  6 10  1  0  0  0  0
  6 20  1  0  0  0  0
  7 14  1  0  0  0  0
  7 17  1  0  0  0  0
  7 35  1  0  0  0  0
  8 12  1  0  0  0  0
  8 13  1  0  0  0  0
  8 19  1  0  0  0  0
  8 25  1  0  0  0  0
  9 12  2  0  0  0  0
  9 22  1  0  0  0  0
 10 14  1  0  0  0  0
 10 36  1  0  0  0  0
 10 37  1  0  0  0  0
 11 15  1  0  0  0  0
 11 38  1  0  0  0  0
 11 39  1  0  0  0  0
 12 15  1  0  0  0  0
 13 16  1  0  0  0  0
 13 21  1  0  0  0  0
 13 40  1  0  0  0  0
 14 41  1  0  0  0  0
 14 42  1  0  0  0  0
 15 43  1  0  0  0  0
 15 44  1  0  0  0  0
 16 23  1  0  0  0  0
 16 27  1  0  0  0  0
 16 28  1  0  0  0  0
 17 26  1  0  0  0  0
 17 29  1  0  0  0  0
 17 45  1  0  0  0  0
 18 46  1  0  0  0  0
 18 47  1  0  0  0  0
 18 48  1  0  0  0  0
 19 24  1  0  0  0  0
 19 49  1  0  0  0  0
 19 50  1  0  0  0  0
 20 51  1  0  0  0  0
 20 52  1  0  0  0  0
 20 53  1  0  0  0  0
 21 22  1  0  0  0  0
 21 54  1  0  0  0  0
 21 55  1  0  0  0  0
 23 24  1  0  0  0  0
 23 56  1  0  0  0  0
 24 57  1  0  0  0  0
 24 58  1  0  0  0  0
 25 59  1  0  0  0  0
 25 60  1  0  0  0  0
 25 61  1  0  0  0  0
 26 30  1  0  0  0  0
 26 62  1  0  0  0  0
 26 63  1  0  0  0  0
 27 64  1  0  0  0  0
 27 65  1  0  0  0  0
 27 66  1  0  0  0  0
 28 67  1  0  0  0  0
 28 68  1  0  0  0  0
 28 69  1  0  0  0  0
 29 70  1  0  0  0  0
 29 71  1  0  0  0  0
 29 72  1  0  0  0  0
 30 31  1  0  0  0  0
 30 74  1  0  0  0  0
 30 75  1  0  0  0  0
 31 32  2  0  0  0  0
 31 76  1  0  0  0  0
 32 33  1  0  0  0  0
 32 34  1  0  0  0  0
 33 77  1  0  0  0  0
 33 78  1  0  0  0  0
 34 79  1  0  0  0  0
 34 80  1  0  0  0  0
M  END
> <PUBCHEM_COMPOUND_CID>
15602280

> <PUBCHEM_COMPOUND_CANONICALIZED>
1

> <PUBCHEM_CACTVS_COMPLEXITY>
878

> <PUBCHEM_CACTVS_HBOND_ACCEPTOR>
4

> <PUBCHEM_CACTVS_HBOND_DONOR>
3

> <PUBCHEM_CACTVS_ROTATABLE_BOND>
6

> <PUBCHEM_CACTVS_SUBSKEYS>
AAADcfB4OAAAAAAAAAAAAAAAAAAAAYAAAAAwQIAAAAAAAEDAAAAAGgAACAAADxSggAICAAAAAgCIAqBSAAAAAAAgAAAACAEAAEgAFBIAAQAAUAAFgAAIEQOIzPDPgAAAAAAAAABAAAYAADAAAQAACAAAAA==

> <PUBCHEM_IUPAC_OPENEYE_NAME>
3-hydroxy-17-[6-hydroxy-5-(hydroxymethyl)-1-methyl-hex-4-enyl]-4,4,10,13,14-pentamethyl-1,2,3,5,6,11,12,15,16,17-decahydrocyclopenta[a]phenanthren-7-one

> <PUBCHEM_IUPAC_CAS_NAME>
3-hydroxy-17-[7-hydroxy-6-(hydroxymethyl)hept-5-en-2-yl]-4,4,10,13,14-pentamethyl-1,2,3,5,6,11,12,15,16,17-decahydrocyclopenta[a]phenanthren-7-one

> <PUBCHEM_IUPAC_NAME_MARKUP>
3-hydroxy-17-[7-hydroxy-6-(hydroxymethyl)hept-5-en-2-yl]-4,4,10,13,14-pentamethyl-1,2,3,5,6,11,12,15,16,17-decahydrocyclopenta[a]phenanthren-7-one

> <PUBCHEM_IUPAC_NAME>
3-hydroxy-17-[7-hydroxy-6-(hydroxymethyl)hept-5-en-2-yl]-4,4,10,13,14-pentamethyl-1,2,3,5,6,11,12,15,16,17-decahydrocyclopenta[a]phenanthren-7-one

> <PUBCHEM_IUPAC_SYSTEMATIC_NAME>
17-[6-(hydroxymethyl)-7-oxidanyl-hept-5-en-2-yl]-4,4,10,13,14-pentamethyl-3-oxidanyl-1,2,3,5,6,11,12,15,16,17-decahydrocyclopenta[a]phenanthren-7-one

> <PUBCHEM_IUPAC_TRADITIONAL_NAME>
3-hydroxy-17-(6-hydroxy-1-methyl-5-methylol-hex-4-enyl)-4,4,10,13,14-pentamethyl-1,2,3,5,6,11,12,15,16,17-decahydrocyclopenta[a]phenanthren-7-one

> <PUBCHEM_IUPAC_INCHI>
InChI=1S/C30H48O4/c1-19(8-7-9-20(17-31)18-32)21-10-15-30(6)26-22(11-14-29(21,30)5)28(4)13-12-25(34)27(2,3)24(28)16-23(26)33/h9,19,21,24-25,31-32,34H,7-8,10-18H2,1-6H3

> <PUBCHEM_IUPAC_INCHIKEY>
SFOQBXHAGFVBPZ-UHFFFAOYSA-N

> <PUBCHEM_XLOGP3_AA>
5.5

> <PUBCHEM_EXACT_MASS>
472.35526

> <PUBCHEM_MOLECULAR_FORMULA>
C30H48O4

> <PUBCHEM_MOLECULAR_WEIGHT>
472.7

> <PUBCHEM_OPENEYE_CAN_SMILES>
CC(CCC=C(CO)CO)C1CCC2(C1(CCC3=C2C(=O)CC4C3(CCC(C4(C)C)O)C)C)C

> <PUBCHEM_OPENEYE_ISO_SMILES>
CC(CCC=C(CO)CO)C1CCC2(C1(CCC3=C2C(=O)CC4C3(CCC(C4(C)C)O)C)C)C

> <PUBCHEM_CACTVS_TPSA>
77.8

> <PUBCHEM_MONOISOTOPIC_WEIGHT>
472.35526

> <PUBCHEM_TOTAL_CHARGE>
0

> <PUBCHEM_HEAVY_ATOM_COUNT>
34

> <PUBCHEM_ATOM_DEF_STEREO_COUNT>
0

> <PUBCHEM_ATOM_UDEF_STEREO_COUNT>
7

> <PUBCHEM_BOND_DEF_STEREO_COUNT>
0

> <PUBCHEM_BOND_UDEF_STEREO_COUNT>
0

> <PUBCHEM_ISOTOPIC_ATOM_COUNT>
0

> <PUBCHEM_COMPONENT_COUNT>
1

> <PUBCHEM_CACTVS_TAUTO_COUNT>
-1

> <PUBCHEM_COORDINATE_TYPE>
1
5
255

> <PUBCHEM_BONDANNOTATIONS>
23  1  3
13  21  3
17  29  3
5  18  3
6  20  3
7  14  3
8  25  3

$$$$
