14015436
  -OEChem-09122006162D

 79 83  0     1  0  0  0  0  0999 V2000
   11.8682    2.0053    0.0000 O   0  0  0  0  0  0  0  0  0  0  0  0
    2.0000   -3.3546    0.0000 O   0  0  0  0  0  0  0  0  0  0  0  0
   12.9511    4.1405    0.0000 O   0  0  0  0  0  0  0  0  0  0  0  0
    7.3931   -0.3023    0.0000 C   0  0  3  0  0  0  0  0  0  0  0  0
    7.3931   -1.3023    0.0000 C   0  0  3  0  0  0  0  0  0  0  0  0
    8.3393    0.0025    0.0000 C   0  0  3  0  0  0  0  0  0  0  0  0
    8.3393   -1.6070    0.0000 C   0  0  0  0  0  0  0  0  0  0  0  0
    8.9229   -0.8023    0.0000 C   0  0  0  0  0  0  0  0  0  0  0  0
    6.5271   -1.8023    0.0000 C   0  0  0  0  0  0  0  0  0  0  0  0
    4.7510   -1.8091    0.0000 C   0  0  3  0  0  0  0  0  0  0  0  0
    6.5271    0.1977    0.0000 C   0  0  0  0  0  0  0  0  0  0  0  0
    5.6610   -1.3023    0.0000 C   0  0  0  0  0  0  0  0  0  0  0  0
    4.7430   -2.8507    0.0000 C   0  0  3  0  0  0  0  0  0  0  0  0
    8.6500    0.9530    0.0000 C   0  0  3  0  0  0  0  0  0  0  0  0
    7.3931    0.6977    0.0000 C   0  0  0  0  0  0  0  0  0  0  0  0
    7.3931   -2.3023    0.0000 C   0  0  0  0  0  0  0  0  0  0  0  0
    5.6610   -0.3023    0.0000 C   0  0  0  0  0  0  0  0  0  0  0  0
    3.8076   -3.4004    0.0000 C   0  0  0  0  0  0  0  0  0  0  0  0
    5.6451   -3.3715    0.0000 C   0  0  0  0  0  0  0  0  0  0  0  0
    6.5431   -2.8438    0.0000 C   0  0  0  0  0  0  0  0  0  0  0  0
    3.8242   -1.2450    0.0000 C   0  0  0  0  0  0  0  0  0  0  0  0
    9.6285    1.1592    0.0000 C   0  0  0  0  0  0  0  0  0  0  0  0
    4.7587   -0.8091    0.0000 C   0  0  0  0  0  0  0  0  0  0  0  0
    2.8763   -1.7730    0.0000 C   0  0  0  0  0  0  0  0  0  0  0  0
    7.9821    1.6973    0.0000 C   0  0  0  0  0  0  0  0  0  0  0  0
    2.8680   -2.8579    0.0000 C   0  0  0  0  0  0  0  0  0  0  0  0
    9.9391    2.1097    0.0000 C   0  0  0  0  0  0  0  0  0  0  0  0
   10.9176    2.3159    0.0000 C   0  0  3  0  0  0  0  0  0  0  0  0
    3.3109   -4.2684    0.0000 C   0  0  0  0  0  0  0  0  0  0  0  0
    4.3109   -4.2645    0.0000 C   0  0  0  0  0  0  0  0  0  0  0  0
   11.6619    2.9838    0.0000 C   0  0  3  0  0  0  0  0  0  0  0  0
   12.6404    3.1900    0.0000 C   0  0  0  0  0  0  0  0  0  0  0  0
   10.9941    3.7281    0.0000 C   0  0  0  0  0  0  0  0  0  0  0  0
    8.9518    0.0987    0.0000 H   0  0  0  0  0  0  0  0  0  0  0  0
    8.0883   -2.1739    0.0000 H   0  0  0  0  0  0  0  0  0  0  0  0
    8.8767   -1.9162    0.0000 H   0  0  0  0  0  0  0  0  0  0  0  0
    9.3838   -1.2170    0.0000 H   0  0  0  0  0  0  0  0  0  0  0  0
    9.3838   -0.3875    0.0000 H   0  0  0  0  0  0  0  0  0  0  0  0
    6.9256    0.6727    0.0000 H   0  0  0  0  0  0  0  0  0  0  0  0
    6.1285    0.6727    0.0000 H   0  0  0  0  0  0  0  0  0  0  0  0
    4.7454   -3.4707    0.0000 H   0  0  0  0  0  0  0  0  0  0  0  0
    8.0433    0.8251    0.0000 H   0  0  0  0  0  0  0  0  0  0  0  0
    8.0131    0.6977    0.0000 H   0  0  0  0  0  0  0  0  0  0  0  0
    7.3931    1.3177    0.0000 H   0  0  0  0  0  0  0  0  0  0  0  0
    6.7731    0.6977    0.0000 H   0  0  0  0  0  0  0  0  0  0  0  0
    6.7731   -2.3023    0.0000 H   0  0  0  0  0  0  0  0  0  0  0  0
    7.3931   -2.9223    0.0000 H   0  0  0  0  0  0  0  0  0  0  0  0
    8.0131   -2.3023    0.0000 H   0  0  0  0  0  0  0  0  0  0  0  0
    5.1241    0.0077    0.0000 H   0  0  0  0  0  0  0  0  0  0  0  0
    5.2478   -3.8475    0.0000 H   0  0  0  0  0  0  0  0  0  0  0  0
    6.0460   -3.8444    0.0000 H   0  0  0  0  0  0  0  0  0  0  0  0
    7.0836   -3.1475    0.0000 H   0  0  0  0  0  0  0  0  0  0  0  0
    4.2324   -0.7784    0.0000 H   0  0  0  0  0  0  0  0  0  0  0  0
    3.4343   -0.7630    0.0000 H   0  0  0  0  0  0  0  0  0  0  0  0
    9.6490    0.5395    0.0000 H   0  0  0  0  0  0  0  0  0  0  0  0
   10.2423    1.0719    0.0000 H   0  0  0  0  0  0  0  0  0  0  0  0
    5.3787   -0.8139    0.0000 H   0  0  0  0  0  0  0  0  0  0  0  0
    4.7635   -0.1892    0.0000 H   0  0  0  0  0  0  0  0  0  0  0  0
    4.1388   -0.8044    0.0000 H   0  0  0  0  0  0  0  0  0  0  0  0
    2.6718   -1.1877    0.0000 H   0  0  0  0  0  0  0  0  0  0  0  0
    2.2647   -1.8744    0.0000 H   0  0  0  0  0  0  0  0  0  0  0  0
    8.4436    2.1114    0.0000 H   0  0  0  0  0  0  0  0  0  0  0  0
    7.5681    2.1588    0.0000 H   0  0  0  0  0  0  0  0  0  0  0  0
    7.5207    1.2832    0.0000 H   0  0  0  0  0  0  0  0  0  0  0  0
    9.9186    2.7294    0.0000 H   0  0  0  0  0  0  0  0  0  0  0  0
    9.3253    2.1971    0.0000 H   0  0  0  0  0  0  0  0  0  0  0  0
   10.8841    1.6968    0.0000 H   0  0  0  0  0  0  0  0  0  0  0  0
    2.7728   -3.9604    0.0000 H   0  0  0  0  0  0  0  0  0  0  0  0
    3.0030   -4.8065    0.0000 H   0  0  0  0  0  0  0  0  0  0  0  0
    3.8490   -4.5763    0.0000 H   0  0  0  0  0  0  0  0  0  0  0  0
    3.7752   -4.5766    0.0000 H   0  0  0  0  0  0  0  0  0  0  0  0
    4.6230   -4.8003    0.0000 H   0  0  0  0  0  0  0  0  0  0  0  0
    4.8466   -3.9525    0.0000 H   0  0  0  0  0  0  0  0  0  0  0  0
   12.6610    2.5704    0.0000 H   0  0  0  0  0  0  0  0  0  0  0  0
   13.2543    3.1027    0.0000 H   0  0  0  0  0  0  0  0  0  0  0  0
   11.4556    4.1422    0.0000 H   0  0  0  0  0  0  0  0  0  0  0  0
   10.5800    4.1896    0.0000 H   0  0  0  0  0  0  0  0  0  0  0  0
   10.5326    3.3140    0.0000 H   0  0  0  0  0  0  0  0  0  0  0  0
   13.5578    4.2684    0.0000 H   0  0  0  0  0  0  0  0  0  0  0  0
  1 28  1  0  0  0  0
  1 31  1  0  0  0  0
  2 26  2  0  0  0  0
  3 32  1  0  0  0  0
  3 79  1  0  0  0  0
  4  5  1  0  0  0  0
  4  6  1  0  0  0  0
  4 11  1  0  0  0  0
  4 15  1  0  0  0  0
  5  7  1  0  0  0  0
  5  9  1  0  0  0  0
  5 16  1  0  0  0  0
  6  8  1  0  0  0  0
  6 14  1  0  0  0  0
  6 34  1  0  0  0  0
  7  8  1  0  0  0  0
  7 35  1  0  0  0  0
  7 36  1  0  0  0  0
  8 37  1  0  0  0  0
  8 38  1  0  0  0  0
  9 12  1  0  0  0  0
  9 20  2  0  0  0  0
 10 12  1  0  0  0  0
 10 13  1  0  0  0  0
 10 21  1  0  0  0  0
 10 23  1  0  0  0  0
 11 17  1  0  0  0  0
 11 39  1  0  0  0  0
 11 40  1  0  0  0  0
 12 17  2  0  0  0  0
 13 18  1  0  0  0  0
 13 19  1  0  0  0  0
 13 41  1  0  0  0  0
 14 22  1  0  0  0  0
 14 25  1  0  0  0  0
 14 42  1  0  0  0  0
 15 43  1  0  0  0  0
 15 44  1  0  0  0  0
 15 45  1  0  0  0  0
 16 46  1  0  0  0  0
 16 47  1  0  0  0  0
 16 48  1  0  0  0  0
 17 49  1  0  0  0  0
 18 26  1  0  0  0  0
 18 29  1  0  0  0  0
 18 30  1  0  0  0  0
 19 20  1  0  0  0  0
 19 50  1  0  0  0  0
 19 51  1  0  0  0  0
 20 52  1  0  0  0  0
 21 24  1  0  0  0  0
 21 53  1  0  0  0  0
 21 54  1  0  0  0  0
 22 27  1  0  0  0  0
 22 55  1  0  0  0  0
 22 56  1  0  0  0  0
 23 57  1  0  0  0  0
 23 58  1  0  0  0  0
 23 59  1  0  0  0  0
 24 26  1  0  0  0  0
 24 60  1  0  0  0  0
 24 61  1  0  0  0  0
 25 62  1  0  0  0  0
 25 63  1  0  0  0  0
 25 64  1  0  0  0  0
 27 28  1  0  0  0  0
 27 65  1  0  0  0  0
 27 66  1  0  0  0  0
 28 31  1  0  0  0  0
 28 67  1  0  0  0  0
 29 68  1  0  0  0  0
 29 69  1  0  0  0  0
 29 70  1  0  0  0  0
 30 71  1  0  0  0  0
 30 72  1  0  0  0  0
 30 73  1  0  0  0  0
 31 32  1  0  0  0  0
 31 33  1  0  0  0  0
 32 74  1  0  0  0  0
 32 75  1  0  0  0  0
 33 76  1  0  0  0  0
 33 77  1  0  0  0  0
 33 78  1  0  0  0  0
M  END
> <PUBCHEM_COMPOUND_CID>
14015436

> <PUBCHEM_COMPOUND_CANONICALIZED>
1

> <PUBCHEM_CACTVS_COMPLEXITY>
914

> <PUBCHEM_CACTVS_HBOND_ACCEPTOR>
3

> <PUBCHEM_CACTVS_HBOND_DONOR>
1

> <PUBCHEM_CACTVS_ROTATABLE_BOND>
5

> <PUBCHEM_CACTVS_SUBSKEYS>
AAADcfB4MAAAAAAAAAAAAAAAEgAAAYAAAAAwQIAAAAAAAECAAAAAGgAACAAAD1SggAICAAAABgCIAqBSAAAAAAAgAAAACAEAAAgJEBIAAAACQAAFgAALgAOIyPCPgAAAAAAAAAAAAAQAACAAAQAACAAAAA==

> <PUBCHEM_IUPAC_OPENEYE_NAME>
17-[3-[3-(hydroxymethyl)-3-methyl-oxiran-2-yl]-1-methyl-propyl]-4,4,10,13,14-pentamethyl-1,2,5,6,12,15,16,17-octahydrocyclopenta[a]phenanthren-3-one

> <PUBCHEM_IUPAC_CAS_NAME>
17-[4-[3-(hydroxymethyl)-3-methyl-2-oxiranyl]butan-2-yl]-4,4,10,13,14-pentamethyl-1,2,5,6,12,15,16,17-octahydrocyclopenta[a]phenanthren-3-one

> <PUBCHEM_IUPAC_NAME_MARKUP>
17-[4-[3-(hydroxymethyl)-3-methyloxiran-2-yl]butan-2-yl]-4,4,10,13,14-pentamethyl-1,2,5,6,12,15,16,17-octahydrocyclopenta[a]phenanthren-3-one

> <PUBCHEM_IUPAC_NAME>
17-[4-[3-(hydroxymethyl)-3-methyloxiran-2-yl]butan-2-yl]-4,4,10,13,14-pentamethyl-1,2,5,6,12,15,16,17-octahydrocyclopenta[a]phenanthren-3-one

> <PUBCHEM_IUPAC_SYSTEMATIC_NAME>
17-[4-[3-(hydroxymethyl)-3-methyl-oxiran-2-yl]butan-2-yl]-4,4,10,13,14-pentamethyl-1,2,5,6,12,15,16,17-octahydrocyclopenta[a]phenanthren-3-one

> <PUBCHEM_IUPAC_TRADITIONAL_NAME>
4,4,10,13,14-pentamethyl-17-[1-methyl-3-(3-methyl-3-methylol-oxiran-2-yl)propyl]-1,2,5,6,12,15,16,17-octahydrocyclopenta[a]phenanthren-3-one

> <PUBCHEM_IUPAC_INCHI>
InChI=1S/C30H46O3/c1-19(8-11-25-30(7,18-31)33-25)20-12-16-29(6)22-9-10-23-26(2,3)24(32)14-15-27(23,4)21(22)13-17-28(20,29)5/h9,13,19-20,23,25,31H,8,10-12,14-18H2,1-7H3

> <PUBCHEM_IUPAC_INCHIKEY>
XOBQAKLXNUVCPN-UHFFFAOYSA-N

> <PUBCHEM_XLOGP3_AA>
5.8

> <PUBCHEM_EXACT_MASS>
454.344695

> <PUBCHEM_MOLECULAR_FORMULA>
C30H46O3

> <PUBCHEM_MOLECULAR_WEIGHT>
454.7

> <PUBCHEM_OPENEYE_CAN_SMILES>
CC(CCC1C(O1)(C)CO)C2CCC3(C2(CC=C4C3=CCC5C4(CCC(=O)C5(C)C)C)C)C

> <PUBCHEM_OPENEYE_ISO_SMILES>
CC(CCC1C(O1)(C)CO)C2CCC3(C2(CC=C4C3=CCC5C4(CCC(=O)C5(C)C)C)C)C

> <PUBCHEM_CACTVS_TPSA>
49.8

> <PUBCHEM_MONOISOTOPIC_WEIGHT>
454.344695

> <PUBCHEM_TOTAL_CHARGE>
0

> <PUBCHEM_HEAVY_ATOM_COUNT>
33

> <PUBCHEM_ATOM_DEF_STEREO_COUNT>
0

> <PUBCHEM_ATOM_UDEF_STEREO_COUNT>
8

> <PUBCHEM_BOND_DEF_STEREO_COUNT>
0

> <PUBCHEM_BOND_UDEF_STEREO_COUNT>
0

> <PUBCHEM_ISOTOPIC_ATOM_COUNT>
0

> <PUBCHEM_COMPONENT_COUNT>
1

> <PUBCHEM_CACTVS_TAUTO_COUNT>
-1

> <PUBCHEM_COORDINATE_TYPE>
1
5
255

> <PUBCHEM_BONDANNOTATIONS>
10  23  3
13  19  3
14  25  3
28  27  3
31  33  3
4  15  3
5  16  3
6  8  3

$$$$
