15602268
  -OEChem-09122006242D

 88 91  0     1  0  0  0  0  0999 V2000
    7.4149   -3.6732    0.0000 O   0  0  0  0  0  0  0  0  0  0  0  0
    2.0000   -3.6940    0.0000 O   0  0  0  0  0  0  0  0  0  0  0  0
   11.5855    1.2322    0.0000 O   0  0  0  0  0  0  0  0  0  0  0  0
   12.1788    2.6164    0.0000 O   0  0  0  0  0  0  0  0  0  0  0  0
   12.5175    4.0838    0.0000 O   0  0  0  0  0  0  0  0  0  0  0  0
    7.3931   -0.6417    0.0000 C   0  0  3  0  0  0  0  0  0  0  0  0
    7.3931   -1.6417    0.0000 C   0  0  3  0  0  0  0  0  0  0  0  0
    8.3393   -0.3370    0.0000 C   0  0  3  0  0  0  0  0  0  0  0  0
    6.5271   -2.1417    0.0000 C   0  0  0  0  0  0  0  0  0  0  0  0
    4.7510   -2.1486    0.0000 C   0  0  3  0  0  0  0  0  0  0  0  0
    8.3393   -1.9464    0.0000 C   0  0  0  0  0  0  0  0  0  0  0  0
    5.6610   -1.6417    0.0000 C   0  0  0  0  0  0  0  0  0  0  0  0
    6.5271   -0.1417    0.0000 C   0  0  0  0  0  0  0  0  0  0  0  0
    8.9229   -1.1417    0.0000 C   0  0  0  0  0  0  0  0  0  0  0  0
    4.7430   -3.1902    0.0000 C   0  0  3  0  0  0  0  0  0  0  0  0
    5.6610   -0.6417    0.0000 C   0  0  0  0  0  0  0  0  0  0  0  0
    6.5431   -3.1832    0.0000 C   0  0  3  0  0  0  0  0  0  0  0  0
    8.6500    0.6136    0.0000 C   0  0  3  0  0  0  0  0  0  0  0  0
    5.6451   -3.7110    0.0000 C   0  0  0  0  0  0  0  0  0  0  0  0
    7.3931    0.3583    0.0000 C   0  0  0  0  0  0  0  0  0  0  0  0
    7.3931   -2.6417    0.0000 C   0  0  0  0  0  0  0  0  0  0  0  0
    3.8076   -3.7399    0.0000 C   0  0  0  0  0  0  0  0  0  0  0  0
    3.8242   -1.5845    0.0000 C   0  0  0  0  0  0  0  0  0  0  0  0
    4.7587   -1.1486    0.0000 C   0  0  0  0  0  0  0  0  0  0  0  0
    2.8763   -2.1124    0.0000 C   0  0  0  0  0  0  0  0  0  0  0  0
    2.8680   -3.1974    0.0000 C   0  0  0  0  0  0  0  0  0  0  0  0
    9.6285    0.8198    0.0000 C   0  0  0  0  0  0  0  0  0  0  0  0
    7.9821    1.3578    0.0000 C   0  0  0  0  0  0  0  0  0  0  0  0
    3.3109   -4.6078    0.0000 C   0  0  0  0  0  0  0  0  0  0  0  0
    4.3109   -4.6040    0.0000 C   0  0  0  0  0  0  0  0  0  0  0  0
    9.9391    1.7703    0.0000 C   0  0  0  0  0  0  0  0  0  0  0  0
    7.4264   -4.6731    0.0000 C   0  0  0  0  0  0  0  0  0  0  0  0
   10.9176    1.9765    0.0000 C   0  0  3  0  0  0  0  0  0  0  0  0
   11.2283    2.9270    0.0000 C   0  0  3  0  0  0  0  0  0  0  0  0
   11.5390    3.8776    0.0000 C   0  0  0  0  0  0  0  0  0  0  0  0
   10.2778    3.2377    0.0000 C   0  0  0  0  0  0  0  0  0  0  0  0
    8.9518   -0.2408    0.0000 H   0  0  0  0  0  0  0  0  0  0  0  0
    8.0883   -2.5133    0.0000 H   0  0  0  0  0  0  0  0  0  0  0  0
    8.8767   -2.2557    0.0000 H   0  0  0  0  0  0  0  0  0  0  0  0
    6.9256    0.3332    0.0000 H   0  0  0  0  0  0  0  0  0  0  0  0
    6.1285    0.3332    0.0000 H   0  0  0  0  0  0  0  0  0  0  0  0
    9.3838   -1.5564    0.0000 H   0  0  0  0  0  0  0  0  0  0  0  0
    9.3838   -0.7270    0.0000 H   0  0  0  0  0  0  0  0  0  0  0  0
    4.7454   -3.8101    0.0000 H   0  0  0  0  0  0  0  0  0  0  0  0
    5.4490   -0.0591    0.0000 H   0  0  0  0  0  0  0  0  0  0  0  0
    5.0504   -0.7494    0.0000 H   0  0  0  0  0  0  0  0  0  0  0  0
    6.5491   -3.8032    0.0000 H   0  0  0  0  0  0  0  0  0  0  0  0
    8.0433    0.4857    0.0000 H   0  0  0  0  0  0  0  0  0  0  0  0
    5.2478   -4.1869    0.0000 H   0  0  0  0  0  0  0  0  0  0  0  0
    6.0460   -4.1838    0.0000 H   0  0  0  0  0  0  0  0  0  0  0  0
    8.0131    0.3583    0.0000 H   0  0  0  0  0  0  0  0  0  0  0  0
    7.3931    0.9783    0.0000 H   0  0  0  0  0  0  0  0  0  0  0  0
    6.7731    0.3583    0.0000 H   0  0  0  0  0  0  0  0  0  0  0  0
    6.7731   -2.6417    0.0000 H   0  0  0  0  0  0  0  0  0  0  0  0
    7.3931   -3.2617    0.0000 H   0  0  0  0  0  0  0  0  0  0  0  0
    8.0131   -2.6417    0.0000 H   0  0  0  0  0  0  0  0  0  0  0  0
    4.2324   -1.1178    0.0000 H   0  0  0  0  0  0  0  0  0  0  0  0
    3.4343   -1.1024    0.0000 H   0  0  0  0  0  0  0  0  0  0  0  0
    5.3787   -1.1534    0.0000 H   0  0  0  0  0  0  0  0  0  0  0  0
    4.7635   -0.5286    0.0000 H   0  0  0  0  0  0  0  0  0  0  0  0
    4.1388   -1.1438    0.0000 H   0  0  0  0  0  0  0  0  0  0  0  0
    2.6718   -1.5271    0.0000 H   0  0  0  0  0  0  0  0  0  0  0  0
    2.2647   -2.2138    0.0000 H   0  0  0  0  0  0  0  0  0  0  0  0
    9.6490    0.2001    0.0000 H   0  0  0  0  0  0  0  0  0  0  0  0
   10.2423    0.7324    0.0000 H   0  0  0  0  0  0  0  0  0  0  0  0
    8.4436    1.7719    0.0000 H   0  0  0  0  0  0  0  0  0  0  0  0
    7.5681    1.8193    0.0000 H   0  0  0  0  0  0  0  0  0  0  0  0
    7.5207    0.9438    0.0000 H   0  0  0  0  0  0  0  0  0  0  0  0
    2.7728   -4.2999    0.0000 H   0  0  0  0  0  0  0  0  0  0  0  0
    3.0030   -5.1459    0.0000 H   0  0  0  0  0  0  0  0  0  0  0  0
    3.8490   -4.9157    0.0000 H   0  0  0  0  0  0  0  0  0  0  0  0
    3.7752   -4.9160    0.0000 H   0  0  0  0  0  0  0  0  0  0  0  0
    4.6230   -5.1397    0.0000 H   0  0  0  0  0  0  0  0  0  0  0  0
    4.8466   -4.2919    0.0000 H   0  0  0  0  0  0  0  0  0  0  0  0
    9.9186    2.3899    0.0000 H   0  0  0  0  0  0  0  0  0  0  0  0
    9.3253    1.8576    0.0000 H   0  0  0  0  0  0  0  0  0  0  0  0
    6.8065   -4.6803    0.0000 H   0  0  0  0  0  0  0  0  0  0  0  0
    7.4336   -5.2930    0.0000 H   0  0  0  0  0  0  0  0  0  0  0  0
    8.0464   -4.6659    0.0000 H   0  0  0  0  0  0  0  0  0  0  0  0
   10.7250    1.3872    0.0000 H   0  0  0  0  0  0  0  0  0  0  0  0
   12.1922    1.3601    0.0000 H   0  0  0  0  0  0  0  0  0  0  0  0
   11.5184    4.4972    0.0000 H   0  0  0  0  0  0  0  0  0  0  0  0
   10.9251    3.9649    0.0000 H   0  0  0  0  0  0  0  0  0  0  0  0
   10.4704    3.8270    0.0000 H   0  0  0  0  0  0  0  0  0  0  0  0
    9.6885    3.4303    0.0000 H   0  0  0  0  0  0  0  0  0  0  0  0
   10.0852    2.6484    0.0000 H   0  0  0  0  0  0  0  0  0  0  0  0
   12.6403    3.0304    0.0000 H   0  0  0  0  0  0  0  0  0  0  0  0
   12.7101    4.6731    0.0000 H   0  0  0  0  0  0  0  0  0  0  0  0
  1 17  1  0  0  0  0
  1 32  1  0  0  0  0
  2 26  2  0  0  0  0
  3 33  1  0  0  0  0
  3 81  1  0  0  0  0
  4 34  1  0  0  0  0
  4 87  1  0  0  0  0
  5 35  1  0  0  0  0
  5 88  1  0  0  0  0
  6  7  1  0  0  0  0
  6  8  1  0  0  0  0
  6 13  1  0  0  0  0
  6 20  1  0  0  0  0
  7  9  1  0  0  0  0
  7 11  1  0  0  0  0
  7 21  1  0  0  0  0
  8 14  1  0  0  0  0
  8 18  1  0  0  0  0
  8 37  1  0  0  0  0
  9 12  2  0  0  0  0
  9 17  1  0  0  0  0
 10 12  1  0  0  0  0
 10 15  1  0  0  0  0
 10 23  1  0  0  0  0
 10 24  1  0  0  0  0
 11 14  1  0  0  0  0
 11 38  1  0  0  0  0
 11 39  1  0  0  0  0
 12 16  1  0  0  0  0
 13 16  1  0  0  0  0
 13 40  1  0  0  0  0
 13 41  1  0  0  0  0
 14 42  1  0  0  0  0
 14 43  1  0  0  0  0
 15 19  1  0  0  0  0
 15 22  1  0  0  0  0
 15 44  1  0  0  0  0
 16 45  1  0  0  0  0
 16 46  1  0  0  0  0
 17 19  1  0  0  0  0
 17 47  1  0  0  0  0
 18 27  1  0  0  0  0
 18 28  1  0  0  0  0
 18 48  1  0  0  0  0
 19 49  1  0  0  0  0
 19 50  1  0  0  0  0
 20 51  1  0  0  0  0
 20 52  1  0  0  0  0
 20 53  1  0  0  0  0
 21 54  1  0  0  0  0
 21 55  1  0  0  0  0
 21 56  1  0  0  0  0
 22 26  1  0  0  0  0
 22 29  1  0  0  0  0
 22 30  1  0  0  0  0
 23 25  1  0  0  0  0
 23 57  1  0  0  0  0
 23 58  1  0  0  0  0
 24 59  1  0  0  0  0
 24 60  1  0  0  0  0
 24 61  1  0  0  0  0
 25 26  1  0  0  0  0
 25 62  1  0  0  0  0
 25 63  1  0  0  0  0
 27 31  1  0  0  0  0
 27 64  1  0  0  0  0
 27 65  1  0  0  0  0
 28 66  1  0  0  0  0
 28 67  1  0  0  0  0
 28 68  1  0  0  0  0
 29 69  1  0  0  0  0
 29 70  1  0  0  0  0
 29 71  1  0  0  0  0
 30 72  1  0  0  0  0
 30 73  1  0  0  0  0
 30 74  1  0  0  0  0
 31 33  1  0  0  0  0
 31 75  1  0  0  0  0
 31 76  1  0  0  0  0
 32 77  1  0  0  0  0
 32 78  1  0  0  0  0
 32 79  1  0  0  0  0
 33 34  1  0  0  0  0
 33 80  1  0  0  0  0
 34 35  1  0  0  0  0
 34 36  1  0  0  0  0
 35 82  1  0  0  0  0
 35 83  1  0  0  0  0
 36 84  1  0  0  0  0
 36 85  1  0  0  0  0
 36 86  1  0  0  0  0
M  END
> <PUBCHEM_COMPOUND_CID>
15602268

> <PUBCHEM_COMPOUND_CANONICALIZED>
1

> <PUBCHEM_CACTVS_COMPLEXITY>
909

> <PUBCHEM_CACTVS_HBOND_ACCEPTOR>
5

> <PUBCHEM_CACTVS_HBOND_DONOR>
3

> <PUBCHEM_CACTVS_ROTATABLE_BOND>
7

> <PUBCHEM_CACTVS_SUBSKEYS>
AAADcfB4OAAAAAAAAAAAAAAAAAAAAYAAAAAwQIAAAAAAAEDAAAAAGgAACAAAD1SggAICAAAABgCIAoBQAAAAAAAgAAAACAEAAAgBFBIAIAAAUAAFgAAJIAOIzPDPgAAAAAAAAAAAAAQAACAAAQAACAAAAA==

> <PUBCHEM_IUPAC_OPENEYE_NAME>
7-methoxy-4,4,10,13,14-pentamethyl-17-(4,5,6-trihydroxy-1,5-dimethyl-hexyl)-1,2,5,6,7,11,12,15,16,17-decahydrocyclopenta[a]phenanthren-3-one

> <PUBCHEM_IUPAC_CAS_NAME>
7-methoxy-4,4,10,13,14-pentamethyl-17-(5,6,7-trihydroxy-6-methylheptan-2-yl)-1,2,5,6,7,11,12,15,16,17-decahydrocyclopenta[a]phenanthren-3-one

> <PUBCHEM_IUPAC_NAME_MARKUP>
7-methoxy-4,4,10,13,14-pentamethyl-17-(5,6,7-trihydroxy-6-methylheptan-2-yl)-1,2,5,6,7,11,12,15,16,17-decahydrocyclopenta[a]phenanthren-3-one

> <PUBCHEM_IUPAC_NAME>
7-methoxy-4,4,10,13,14-pentamethyl-17-(5,6,7-trihydroxy-6-methylheptan-2-yl)-1,2,5,6,7,11,12,15,16,17-decahydrocyclopenta[a]phenanthren-3-one

> <PUBCHEM_IUPAC_SYSTEMATIC_NAME>
7-methoxy-4,4,10,13,14-pentamethyl-17-[6-methyl-5,6,7-tris(oxidanyl)heptan-2-yl]-1,2,5,6,7,11,12,15,16,17-decahydrocyclopenta[a]phenanthren-3-one

> <PUBCHEM_IUPAC_TRADITIONAL_NAME>
7-methoxy-4,4,10,13,14-pentamethyl-17-(4,5,6-trihydroxy-1,5-dimethyl-hexyl)-1,2,5,6,7,11,12,15,16,17-decahydrocyclopenta[a]phenanthren-3-one

> <PUBCHEM_IUPAC_INCHI>
InChI=1S/C31H52O5/c1-19(9-10-25(34)31(7,35)18-32)20-11-16-30(6)26-21(12-15-29(20,30)5)28(4)14-13-24(33)27(2,3)23(28)17-22(26)36-8/h19-20,22-23,25,32,34-35H,9-18H2,1-8H3

> <PUBCHEM_IUPAC_INCHIKEY>
YOMOWVJLKFVSNZ-UHFFFAOYSA-N

> <PUBCHEM_XLOGP3_AA>
4.3

> <PUBCHEM_EXACT_MASS>
504.381475

> <PUBCHEM_MOLECULAR_FORMULA>
C31H52O5

> <PUBCHEM_MOLECULAR_WEIGHT>
504.7

> <PUBCHEM_OPENEYE_CAN_SMILES>
CC(CCC(C(C)(CO)O)O)C1CCC2(C1(CCC3=C2C(CC4C3(CCC(=O)C4(C)C)C)OC)C)C

> <PUBCHEM_OPENEYE_ISO_SMILES>
CC(CCC(C(C)(CO)O)O)C1CCC2(C1(CCC3=C2C(CC4C3(CCC(=O)C4(C)C)C)OC)C)C

> <PUBCHEM_CACTVS_TPSA>
87

> <PUBCHEM_MONOISOTOPIC_WEIGHT>
504.381475

> <PUBCHEM_TOTAL_CHARGE>
0

> <PUBCHEM_HEAVY_ATOM_COUNT>
36

> <PUBCHEM_ATOM_DEF_STEREO_COUNT>
0

> <PUBCHEM_ATOM_UDEF_STEREO_COUNT>
9

> <PUBCHEM_BOND_DEF_STEREO_COUNT>
0

> <PUBCHEM_BOND_UDEF_STEREO_COUNT>
0

> <PUBCHEM_ISOTOPIC_ATOM_COUNT>
0

> <PUBCHEM_COMPONENT_COUNT>
1

> <PUBCHEM_CACTVS_TAUTO_COUNT>
-1

> <PUBCHEM_COORDINATE_TYPE>
1
5
255

> <PUBCHEM_BONDANNOTATIONS>
17  1  3
10  24  3
15  19  3
18  28  3
33  3  3
34  4  3
6  20  3
7  21  3
8  14  3

$$$$
