131751896
  -OEChem-09122004182D

 97100  0     1  0  0  0  0  0999 V2000
   10.3820   -3.3711    0.0000 O   0  0  0  0  0  0  0  0  0  0  0  0
    9.1469   -4.1473    0.0000 O   0  0  0  0  0  0  0  0  0  0  0  0
    3.7320   -4.1682    0.0000 O   0  0  0  0  0  0  0  0  0  0  0  0
   12.0284   -0.3987    0.0000 O   0  0  0  0  0  0  0  0  0  0  0  0
    2.8718   -2.6649    0.0000 O   0  0  0  0  0  0  0  0  0  0  0  0
   13.3175    0.7581    0.0000 O   0  0  0  0  0  0  0  0  0  0  0  0
   10.9568    4.6858    0.0000 O   0  0  0  0  0  0  0  0  0  0  0  0
    9.6676    3.5290    0.0000 O   0  0  0  0  0  0  0  0  0  0  0  0
    9.1251   -1.1158    0.0000 C   0  0  3  0  0  0  0  0  0  0  0  0
    9.1251   -2.1158    0.0000 C   0  0  3  0  0  0  0  0  0  0  0  0
   10.0713   -0.8111    0.0000 C   0  0  3  0  0  0  0  0  0  0  0  0
    6.4831   -2.6227    0.0000 C   0  0  3  0  0  0  0  0  0  0  0  0
    8.2591   -2.6158    0.0000 C   0  0  0  0  0  0  0  0  0  0  0  0
   10.0713   -2.4206    0.0000 C   0  0  3  0  0  0  0  0  0  0  0  0
    6.4750   -3.6643    0.0000 C   0  0  3  0  0  0  0  0  0  0  0  0
    7.3931   -2.1158    0.0000 C   0  0  0  0  0  0  0  0  0  0  0  0
    8.2591   -0.6159    0.0000 C   0  0  0  0  0  0  0  0  0  0  0  0
   10.6550   -1.6158    0.0000 C   0  0  0  0  0  0  0  0  0  0  0  0
    7.3931   -1.1158    0.0000 C   0  0  0  0  0  0  0  0  0  0  0  0
    8.2752   -3.6574    0.0000 C   0  0  3  0  0  0  0  0  0  0  0  0
    5.5396   -4.2140    0.0000 C   0  0  0  0  0  0  0  0  0  0  0  0
    7.3771   -4.1851    0.0000 C   0  0  0  0  0  0  0  0  0  0  0  0
   10.3820    0.1394    0.0000 C   0  0  3  0  0  0  0  0  0  0  0  0
    5.5562   -2.0586    0.0000 C   0  0  0  0  0  0  0  0  0  0  0  0
    9.1251   -0.1159    0.0000 C   0  0  0  0  0  0  0  0  0  0  0  0
    9.1251   -3.1158    0.0000 C   0  0  0  0  0  0  0  0  0  0  0  0
    4.6000   -3.6715    0.0000 C   0  0  3  0  0  0  0  0  0  0  0  0
    4.6084   -2.5866    0.0000 C   0  0  0  0  0  0  0  0  0  0  0  0
    6.4908   -1.6227    0.0000 C   0  0  0  0  0  0  0  0  0  0  0  0
   11.3605    0.3456    0.0000 C   0  0  3  0  0  0  0  0  0  0  0  0
    5.0430   -5.0820    0.0000 C   0  0  0  0  0  0  0  0  0  0  0  0
    6.0430   -5.0781    0.0000 C   0  0  0  0  0  0  0  0  0  0  0  0
    9.7142    0.8837    0.0000 C   0  0  0  0  0  0  0  0  0  0  0  0
   11.6712    1.2961    0.0000 C   0  0  0  0  0  0  0  0  0  0  0  0
    9.1585   -5.1472    0.0000 C   0  0  0  0  0  0  0  0  0  0  0  0
    2.8680   -3.6648    0.0000 C   0  0  0  0  0  0  0  0  0  0  0  0
   11.0033    2.0404    0.0000 C   0  0  0  0  0  0  0  0  0  0  0  0
   13.0069   -0.1925    0.0000 C   0  0  0  0  0  0  0  0  0  0  0  0
    2.0000   -4.1615    0.0000 C   0  0  0  0  0  0  0  0  0  0  0  0
   11.3140    2.9910    0.0000 C   0  0  0  0  0  0  0  0  0  0  0  0
   13.6747   -0.9368    0.0000 C   0  0  0  0  0  0  0  0  0  0  0  0
   12.2925    3.1972    0.0000 C   0  0  0  0  0  0  0  0  0  0  0  0
   10.6461    3.7353    0.0000 C   0  0  0  0  0  0  0  0  0  0  0  0
   10.6838   -0.7149    0.0000 H   0  0  0  0  0  0  0  0  0  0  0  0
    9.6339   -2.8599    0.0000 H   0  0  0  0  0  0  0  0  0  0  0  0
    6.4774   -4.2843    0.0000 H   0  0  0  0  0  0  0  0  0  0  0  0
    8.6576   -0.1409    0.0000 H   0  0  0  0  0  0  0  0  0  0  0  0
    7.8606   -0.1409    0.0000 H   0  0  0  0  0  0  0  0  0  0  0  0
   11.1158   -2.0306    0.0000 H   0  0  0  0  0  0  0  0  0  0  0  0
   11.1158   -1.2011    0.0000 H   0  0  0  0  0  0  0  0  0  0  0  0
    7.1810   -0.5332    0.0000 H   0  0  0  0  0  0  0  0  0  0  0  0
    6.7825   -1.2235    0.0000 H   0  0  0  0  0  0  0  0  0  0  0  0
    8.8079   -3.3402    0.0000 H   0  0  0  0  0  0  0  0  0  0  0  0
    6.9798   -4.6611    0.0000 H   0  0  0  0  0  0  0  0  0  0  0  0
    7.7781   -4.6580    0.0000 H   0  0  0  0  0  0  0  0  0  0  0  0
   10.5746    0.7287    0.0000 H   0  0  0  0  0  0  0  0  0  0  0  0
    5.9644   -1.5920    0.0000 H   0  0  0  0  0  0  0  0  0  0  0  0
    5.1663   -1.5766    0.0000 H   0  0  0  0  0  0  0  0  0  0  0  0
    9.7451   -0.1159    0.0000 H   0  0  0  0  0  0  0  0  0  0  0  0
    9.1251    0.5041    0.0000 H   0  0  0  0  0  0  0  0  0  0  0  0
    8.5051   -0.1159    0.0000 H   0  0  0  0  0  0  0  0  0  0  0  0
    8.5051   -3.1158    0.0000 H   0  0  0  0  0  0  0  0  0  0  0  0
    9.1251   -3.7358    0.0000 H   0  0  0  0  0  0  0  0  0  0  0  0
    9.7451   -3.1158    0.0000 H   0  0  0  0  0  0  0  0  0  0  0  0
    4.0648   -3.3584    0.0000 H   0  0  0  0  0  0  0  0  0  0  0  0
    4.4038   -2.0013    0.0000 H   0  0  0  0  0  0  0  0  0  0  0  0
    3.9967   -2.6880    0.0000 H   0  0  0  0  0  0  0  0  0  0  0  0
    7.1108   -1.6275    0.0000 H   0  0  0  0  0  0  0  0  0  0  0  0
    6.4956   -1.0028    0.0000 H   0  0  0  0  0  0  0  0  0  0  0  0
    5.8708   -1.6180    0.0000 H   0  0  0  0  0  0  0  0  0  0  0  0
   11.1679   -0.2437    0.0000 H   0  0  0  0  0  0  0  0  0  0  0  0
    4.5048   -4.7740    0.0000 H   0  0  0  0  0  0  0  0  0  0  0  0
    4.7350   -5.6201    0.0000 H   0  0  0  0  0  0  0  0  0  0  0  0
    5.5811   -5.3899    0.0000 H   0  0  0  0  0  0  0  0  0  0  0  0
    5.5072   -5.3902    0.0000 H   0  0  0  0  0  0  0  0  0  0  0  0
    6.3550   -5.6138    0.0000 H   0  0  0  0  0  0  0  0  0  0  0  0
    6.5787   -4.7660    0.0000 H   0  0  0  0  0  0  0  0  0  0  0  0
   10.9887   -3.4990    0.0000 H   0  0  0  0  0  0  0  0  0  0  0  0
   10.1756    1.2978    0.0000 H   0  0  0  0  0  0  0  0  0  0  0  0
    9.3001    1.3452    0.0000 H   0  0  0  0  0  0  0  0  0  0  0  0
    9.2527    0.4696    0.0000 H   0  0  0  0  0  0  0  0  0  0  0  0
   12.2181    1.0041    0.0000 H   0  0  0  0  0  0  0  0  0  0  0  0
   12.0537    1.7840    0.0000 H   0  0  0  0  0  0  0  0  0  0  0  0
    8.5385   -5.1544    0.0000 H   0  0  0  0  0  0  0  0  0  0  0  0
    9.1656   -5.7672    0.0000 H   0  0  0  0  0  0  0  0  0  0  0  0
    9.7784   -5.1401    0.0000 H   0  0  0  0  0  0  0  0  0  0  0  0
   10.3967    1.9126    0.0000 H   0  0  0  0  0  0  0  0  0  0  0  0
    1.6921   -3.6234    0.0000 H   0  0  0  0  0  0  0  0  0  0  0  0
    1.4619   -4.4694    0.0000 H   0  0  0  0  0  0  0  0  0  0  0  0
    2.3079   -4.6996    0.0000 H   0  0  0  0  0  0  0  0  0  0  0  0
   13.2132   -1.3508    0.0000 H   0  0  0  0  0  0  0  0  0  0  0  0
   14.0888   -1.3982    0.0000 H   0  0  0  0  0  0  0  0  0  0  0  0
   14.1362   -0.5227    0.0000 H   0  0  0  0  0  0  0  0  0  0  0  0
   12.4204    2.5905    0.0000 H   0  0  0  0  0  0  0  0  0  0  0  0
   12.8992    3.3250    0.0000 H   0  0  0  0  0  0  0  0  0  0  0  0
   12.1646    3.8038    0.0000 H   0  0  0  0  0  0  0  0  0  0  0  0
   10.5427    5.1472    0.0000 H   0  0  0  0  0  0  0  0  0  0  0  0
  1 14  1  0  0  0  0
  1 78  1  0  0  0  0
  2 20  1  0  0  0  0
  2 35  1  0  0  0  0
  3 27  1  0  0  0  0
  3 36  1  0  0  0  0
  4 30  1  0  0  0  0
  4 38  1  0  0  0  0
  5 36  2  0  0  0  0
  6 38  2  0  0  0  0
  7 43  1  0  0  0  0
  7 97  1  0  0  0  0
  8 43  2  0  0  0  0
  9 10  1  0  0  0  0
  9 11  1  0  0  0  0
  9 17  1  0  0  0  0
  9 25  1  0  0  0  0
 10 13  1  0  0  0  0
 10 14  1  0  0  0  0
 10 26  1  0  0  0  0
 11 18  1  0  0  0  0
 11 23  1  0  0  0  0
 11 44  1  0  0  0  0
 12 15  1  0  0  0  0
 12 16  1  0  0  0  0
 12 24  1  0  0  0  0
 12 29  1  0  0  0  0
 13 16  2  0  0  0  0
 13 20  1  0  0  0  0
 14 18  1  0  0  0  0
 14 45  1  0  0  0  0
 15 21  1  0  0  0  0
 15 22  1  0  0  0  0
 15 46  1  0  0  0  0
 16 19  1  0  0  0  0
 17 19  1  0  0  0  0
 17 47  1  0  0  0  0
 17 48  1  0  0  0  0
 18 49  1  0  0  0  0
 18 50  1  0  0  0  0
 19 51  1  0  0  0  0
 19 52  1  0  0  0  0
 20 22  1  0  0  0  0
 20 53  1  0  0  0  0
 21 27  1  0  0  0  0
 21 31  1  0  0  0  0
 21 32  1  0  0  0  0
 22 54  1  0  0  0  0
 22 55  1  0  0  0  0
 23 30  1  0  0  0  0
 23 33  1  0  0  0  0
 23 56  1  0  0  0  0
 24 28  1  0  0  0  0
 24 57  1  0  0  0  0
 24 58  1  0  0  0  0
 25 59  1  0  0  0  0
 25 60  1  0  0  0  0
 25 61  1  0  0  0  0
 26 62  1  0  0  0  0
 26 63  1  0  0  0  0
 26 64  1  0  0  0  0
 27 28  1  0  0  0  0
 27 65  1  0  0  0  0
 28 66  1  0  0  0  0
 28 67  1  0  0  0  0
 29 68  1  0  0  0  0
 29 69  1  0  0  0  0
 29 70  1  0  0  0  0
 30 34  1  0  0  0  0
 30 71  1  0  0  0  0
 31 72  1  0  0  0  0
 31 73  1  0  0  0  0
 31 74  1  0  0  0  0
 32 75  1  0  0  0  0
 32 76  1  0  0  0  0
 32 77  1  0  0  0  0
 33 79  1  0  0  0  0
 33 80  1  0  0  0  0
 33 81  1  0  0  0  0
 34 37  1  0  0  0  0
 34 82  1  0  0  0  0
 34 83  1  0  0  0  0
 35 84  1  0  0  0  0
 35 85  1  0  0  0  0
 35 86  1  0  0  0  0
 36 39  1  0  0  0  0
 37 40  2  0  0  0  0
 37 87  1  0  0  0  0
 38 41  1  0  0  0  0
 39 88  1  0  0  0  0
 39 89  1  0  0  0  0
 39 90  1  0  0  0  0
 40 42  1  0  0  0  0
 40 43  1  0  0  0  0
 41 91  1  0  0  0  0
 41 92  1  0  0  0  0
 41 93  1  0  0  0  0
 42 94  1  0  0  0  0
 42 95  1  0  0  0  0
 42 96  1  0  0  0  0
M  END
> <PUBCHEM_COMPOUND_CID>
131751896

> <PUBCHEM_COMPOUND_CANONICALIZED>
1

> <PUBCHEM_CACTVS_COMPLEXITY>
1200

> <PUBCHEM_CACTVS_HBOND_ACCEPTOR>
8

> <PUBCHEM_CACTVS_HBOND_DONOR>
2

> <PUBCHEM_CACTVS_ROTATABLE_BOND>
10

> <PUBCHEM_CACTVS_SUBSKEYS>
AAADcfB8PAAAAAAAAAAAAAAAAAAAAYAAAAAwQIAAAAAAAEDAAAAAGgAACAAADxSggAICCAAABgCIAiDSCAAAAAAgAAAACAEAAEgAFAIAIQACUAAEwAAIMYPA4PwPgAAAAAAAAABAAAYAADAAAYAADAAAAA==

> <PUBCHEM_IUPAC_OPENEYE_NAME>
(E)-5-acetoxy-6-(3-acetoxy-15-hydroxy-7-methoxy-4,4,10,13,14-pentamethyl-2,3,5,6,7,11,12,15,16,17-decahydro-1H-cyclopenta[a]phenanthren-17-yl)-2-methyl-hept-2-enoic acid

> <PUBCHEM_IUPAC_CAS_NAME>
(E)-5-acetyloxy-6-(3-acetyloxy-15-hydroxy-7-methoxy-4,4,10,13,14-pentamethyl-2,3,5,6,7,11,12,15,16,17-decahydro-1H-cyclopenta[a]phenanthren-17-yl)-2-methyl-2-heptenoic acid

> <PUBCHEM_IUPAC_NAME_MARKUP>
(<I>E</I>)-5-acetyloxy-6-(3-acetyloxy-15-hydroxy-7-methoxy-4,4,10,13,14-pentamethyl-2,3,5,6,7,11,12,15,16,17-decahydro-1<I>H</I>-cyclopenta[a]phenanthren-17-yl)-2-methylhept-2-enoic acid

> <PUBCHEM_IUPAC_NAME>
(E)-5-acetyloxy-6-(3-acetyloxy-15-hydroxy-7-methoxy-4,4,10,13,14-pentamethyl-2,3,5,6,7,11,12,15,16,17-decahydro-1H-cyclopenta[a]phenanthren-17-yl)-2-methylhept-2-enoic acid

> <PUBCHEM_IUPAC_SYSTEMATIC_NAME>
(E)-5-acetyloxy-6-(3-acetyloxy-7-methoxy-4,4,10,13,14-pentamethyl-15-oxidanyl-2,3,5,6,7,11,12,15,16,17-decahydro-1H-cyclopenta[a]phenanthren-17-yl)-2-methyl-hept-2-enoic acid

> <PUBCHEM_IUPAC_TRADITIONAL_NAME>
(E)-5-acetoxy-6-(3-acetoxy-15-hydroxy-7-methoxy-4,4,10,13,14-pentamethyl-2,3,5,6,7,11,12,15,16,17-decahydro-1H-cyclopenta[a]phenanthren-17-yl)-2-methyl-hept-2-enoic acid

> <PUBCHEM_IUPAC_INCHI>
InChI=1S/C35H54O8/c1-19(31(39)40)11-12-25(42-21(3)36)20(2)24-17-28(38)35(9)30-23(13-16-34(24,35)8)33(7)15-14-29(43-22(4)37)32(5,6)27(33)18-26(30)41-10/h11,20,24-29,38H,12-18H2,1-10H3,(H,39,40)/b19-11+

> <PUBCHEM_IUPAC_INCHIKEY>
SSISLAMFCZQHEH-YBFXNURJSA-N

> <PUBCHEM_XLOGP3_AA>
5.5

> <PUBCHEM_EXACT_MASS>
602.381869

> <PUBCHEM_MOLECULAR_FORMULA>
C35H54O8

> <PUBCHEM_MOLECULAR_WEIGHT>
602.8

> <PUBCHEM_OPENEYE_CAN_SMILES>
CC(C1CC(C2(C1(CCC3=C2C(CC4C3(CCC(C4(C)C)OC(=O)C)C)OC)C)C)O)C(CC=C(C)C(=O)O)OC(=O)C

> <PUBCHEM_OPENEYE_ISO_SMILES>
CC(C1CC(C2(C1(CCC3=C2C(CC4C3(CCC(C4(C)C)OC(=O)C)C)OC)C)C)O)C(C/C=C(\C)/C(=O)O)OC(=O)C

> <PUBCHEM_CACTVS_TPSA>
119

> <PUBCHEM_MONOISOTOPIC_WEIGHT>
602.381869

> <PUBCHEM_TOTAL_CHARGE>
0

> <PUBCHEM_HEAVY_ATOM_COUNT>
43

> <PUBCHEM_ATOM_DEF_STEREO_COUNT>
0

> <PUBCHEM_ATOM_UDEF_STEREO_COUNT>
10

> <PUBCHEM_BOND_DEF_STEREO_COUNT>
1

> <PUBCHEM_BOND_UDEF_STEREO_COUNT>
0

> <PUBCHEM_ISOTOPIC_ATOM_COUNT>
0

> <PUBCHEM_COMPONENT_COUNT>
1

> <PUBCHEM_CACTVS_TAUTO_COUNT>
-1

> <PUBCHEM_COORDINATE_TYPE>
1
5
255

> <PUBCHEM_BONDANNOTATIONS>
14  1  3
10  26  3
11  18  3
12  29  3
15  22  3
20  2  3
23  33  3
27  3  3
30  34  3
9  25  3

$$$$
