78384958
  -OEChem-09122006152D

 79 84  0     1  0  0  0  0  0999 V2000
    2.5793   -2.4441    0.0000 O   0  0  0  0  0  0  0  0  0  0  0  0
    3.5245    1.9592    0.0000 O   0  0  0  0  0  0  0  0  0  0  0  0
    5.7152   -1.7569    0.0000 O   0  0  0  0  0  0  0  0  0  0  0  0
    7.0049   -1.0754    0.0000 O   0  0  0  0  0  0  0  0  0  0  0  0
    5.2565    2.9592    0.0000 O   0  0  0  0  0  0  0  0  0  0  0  0
    9.7304    3.6036    0.0000 O   0  0  0  0  0  0  0  0  0  0  0  0
    2.4846   -4.2236    0.0000 O   0  0  0  0  0  0  0  0  0  0  0  0
    4.3905    0.4592    0.0000 C   0  0  3  0  0  0  0  0  0  0  0  0
    3.6535   -0.2079    0.0000 C   0  0  3  0  0  0  0  0  0  0  0  0
    4.0586   -1.1157    0.0000 C   0  0  3  0  0  0  0  0  0  0  0  0
    5.2565   -0.0408    0.0000 C   0  0  3  0  0  0  0  0  0  0  0  0
    3.3231   -1.7756    0.0000 C   0  0  3  0  0  0  0  0  0  0  0  0
    2.6711   -0.3146    0.0000 C   0  0  3  0  0  0  0  0  0  0  0  0
    5.0473   -1.0126    0.0000 C   0  0  0  0  0  0  0  0  0  0  0  0
    2.4673   -1.2815    0.0000 C   0  0  0  0  0  0  0  0  0  0  0  0
    6.1225    0.4592    0.0000 C   0  0  0  0  0  0  0  0  0  0  0  0
    4.3905    1.4592    0.0000 C   0  0  3  0  0  0  0  0  0  0  0  0
    7.0165    1.9939    0.0000 C   0  0  3  0  0  0  0  0  0  0  0  0
    6.1225    1.4592    0.0000 C   0  0  0  0  0  0  0  0  0  0  0  0
    7.9226    1.4800    0.0000 C   0  0  3  0  0  0  0  0  0  0  0  0
    3.5245    0.9592    0.0000 C   0  0  0  0  0  0  0  0  0  0  0  0
    4.1887   -2.2764    0.0000 C   0  0  0  0  0  0  0  0  0  0  0  0
    6.1225   -0.5408    0.0000 C   0  0  0  0  0  0  0  0  0  0  0  0
    7.0165   -0.0754    0.0000 C   0  0  3  0  0  0  0  0  0  0  0  0
    5.2565    1.9592    0.0000 C   0  0  0  0  0  0  0  0  0  0  0  0
    7.9226    0.4384    0.0000 C   0  0  0  0  0  0  0  0  0  0  0  0
    8.8663    2.0153    0.0000 C   0  0  0  0  0  0  0  0  0  0  0  0
    2.0000    0.4268    0.0000 C   0  0  0  0  0  0  0  0  0  0  0  0
    6.9914    3.0786    0.0000 C   0  0  0  0  0  0  0  0  0  0  0  0
    3.9799   -3.2543    0.0000 C   0  0  3  0  0  0  0  0  0  0  0  0
    8.8663    3.1003    0.0000 C   0  0  3  0  0  0  0  0  0  0  0  0
    6.1466    2.4872    0.0000 C   0  0  0  0  0  0  0  0  0  0  0  0
    7.9226    3.6355    0.0000 C   0  0  0  0  0  0  0  0  0  0  0  0
    2.9853   -3.3580    0.0000 C   0  0  0  0  0  0  0  0  0  0  0  0
    9.8663    2.0114    0.0000 C   0  0  0  0  0  0  0  0  0  0  0  0
    9.3630    1.1473    0.0000 C   0  0  0  0  0  0  0  0  0  0  0  0
    4.6484   -3.9981    0.0000 C   0  0  0  0  0  0  0  0  0  0  0  0
    3.3996    0.3578    0.0000 H   0  0  0  0  0  0  0  0  0  0  0  0
    4.3100   -1.6824    0.0000 H   0  0  0  0  0  0  0  0  0  0  0  0
    2.0725   -0.4763    0.0000 H   0  0  0  0  0  0  0  0  0  0  0  0
    1.8774   -1.0906    0.0000 H   0  0  0  0  0  0  0  0  0  0  0  0
    2.2154   -1.8481    0.0000 H   0  0  0  0  0  0  0  0  0  0  0  0
    4.3905    2.0792    0.0000 H   0  0  0  0  0  0  0  0  0  0  0  0
    8.4583    1.1680    0.0000 H   0  0  0  0  0  0  0  0  0  0  0  0
    3.8345    1.4962    0.0000 H   0  0  0  0  0  0  0  0  0  0  0  0
    2.9875    1.2692    0.0000 H   0  0  0  0  0  0  0  0  0  0  0  0
    3.2145    0.4223    0.0000 H   0  0  0  0  0  0  0  0  0  0  0  0
    4.7782   -2.4685    0.0000 H   0  0  0  0  0  0  0  0  0  0  0  0
    4.4413   -1.7102    0.0000 H   0  0  0  0  0  0  0  0  0  0  0  0
    5.8125   -1.0777    0.0000 H   0  0  0  0  0  0  0  0  0  0  0  0
    6.6595   -0.8508    0.0000 H   0  0  0  0  0  0  0  0  0  0  0  0
    6.4325   -0.0038    0.0000 H   0  0  0  0  0  0  0  0  0  0  0  0
    7.5504   -0.3906    0.0000 H   0  0  0  0  0  0  0  0  0  0  0  0
    8.1316   -0.1453    0.0000 H   0  0  0  0  0  0  0  0  0  0  0  0
    8.5334    0.5445    0.0000 H   0  0  0  0  0  0  0  0  0  0  0  0
    2.4597    0.8429    0.0000 H   0  0  0  0  0  0  0  0  0  0  0  0
    1.5839    0.8865    0.0000 H   0  0  0  0  0  0  0  0  0  0  0  0
    1.5403    0.0108    0.0000 H   0  0  0  0  0  0  0  0  0  0  0  0
    6.7689    3.6573    0.0000 H   0  0  0  0  0  0  0  0  0  0  0  0
    6.3832    2.9584    0.0000 H   0  0  0  0  0  0  0  0  0  0  0  0
    4.5789   -3.0944    0.0000 H   0  0  0  0  0  0  0  0  0  0  0  0
    9.4039    2.7913    0.0000 H   0  0  0  0  0  0  0  0  0  0  0  0
    6.4525    3.0265    0.0000 H   0  0  0  0  0  0  0  0  0  0  0  0
    5.6073    2.7930    0.0000 H   0  0  0  0  0  0  0  0  0  0  0  0
    5.8408    1.9479    0.0000 H   0  0  0  0  0  0  0  0  0  0  0  0
    8.3162    4.1145    0.0000 H   0  0  0  0  0  0  0  0  0  0  0  0
    7.5180    4.1053    0.0000 H   0  0  0  0  0  0  0  0  0  0  0  0
    3.5245    2.5792    0.0000 H   0  0  0  0  0  0  0  0  0  0  0  0
    9.8639    1.3914    0.0000 H   0  0  0  0  0  0  0  0  0  0  0  0
   10.4863    2.0090    0.0000 H   0  0  0  0  0  0  0  0  0  0  0  0
    9.8687    2.6314    0.0000 H   0  0  0  0  0  0  0  0  0  0  0  0
    8.8249    0.8394    0.0000 H   0  0  0  0  0  0  0  0  0  0  0  0
    9.6709    0.6092    0.0000 H   0  0  0  0  0  0  0  0  0  0  0  0
    9.9011    1.4552    0.0000 H   0  0  0  0  0  0  0  0  0  0  0  0
    7.5382   -1.3916    0.0000 H   0  0  0  0  0  0  0  0  0  0  0  0
    4.1873   -4.4125    0.0000 H   0  0  0  0  0  0  0  0  0  0  0  0
    5.0629   -4.4592    0.0000 H   0  0  0  0  0  0  0  0  0  0  0  0
    5.1095   -3.5836    0.0000 H   0  0  0  0  0  0  0  0  0  0  0  0
    9.7280    4.2236    0.0000 H   0  0  0  0  0  0  0  0  0  0  0  0
  1 12  1  0  0  0  0
  1 34  1  0  0  0  0
  2 17  1  0  0  0  0
  2 68  1  0  0  0  0
  3 14  2  0  0  0  0
  4 24  1  0  0  0  0
  4 75  1  0  0  0  0
  5 25  2  0  0  0  0
  6 31  1  0  0  0  0
  6 79  1  0  0  0  0
  7 34  2  0  0  0  0
  8  9  1  0  0  0  0
  8 11  1  0  0  0  0
  8 17  1  0  0  0  0
  8 21  1  0  0  0  0
  9 10  1  0  0  0  0
  9 13  1  0  0  0  0
  9 38  1  0  0  0  0
 10 12  1  0  0  0  0
 10 14  1  0  0  0  0
 10 39  1  0  0  0  0
 11 14  1  0  0  0  0
 11 16  1  0  0  0  0
 11 23  1  0  0  0  0
 12 15  1  0  0  0  0
 12 22  1  0  0  0  0
 13 15  1  0  0  0  0
 13 28  1  0  0  0  0
 13 40  1  0  0  0  0
 15 41  1  0  0  0  0
 15 42  1  0  0  0  0
 16 19  2  0  0  0  0
 16 24  1  0  0  0  0
 17 25  1  0  0  0  0
 17 43  1  0  0  0  0
 18 19  1  0  0  0  0
 18 20  1  0  0  0  0
 18 29  1  0  0  0  0
 18 32  1  0  0  0  0
 19 25  1  0  0  0  0
 20 26  1  0  0  0  0
 20 27  1  0  0  0  0
 20 44  1  0  0  0  0
 21 45  1  0  0  0  0
 21 46  1  0  0  0  0
 21 47  1  0  0  0  0
 22 30  1  0  0  0  0
 22 48  1  0  0  0  0
 22 49  1  0  0  0  0
 23 50  1  0  0  0  0
 23 51  1  0  0  0  0
 23 52  1  0  0  0  0
 24 26  1  0  0  0  0
 24 53  1  0  0  0  0
 26 54  1  0  0  0  0
 26 55  1  0  0  0  0
 27 31  1  0  0  0  0
 27 35  1  0  0  0  0
 27 36  1  0  0  0  0
 28 56  1  0  0  0  0
 28 57  1  0  0  0  0
 28 58  1  0  0  0  0
 29 33  1  0  0  0  0
 29 59  1  0  0  0  0
 29 60  1  0  0  0  0
 30 34  1  0  0  0  0
 30 37  1  0  0  0  0
 30 61  1  0  0  0  0
 31 33  1  0  0  0  0
 31 62  1  0  0  0  0
 32 63  1  0  0  0  0
 32 64  1  0  0  0  0
 32 65  1  0  0  0  0
 33 66  1  0  0  0  0
 33 67  1  0  0  0  0
 35 69  1  0  0  0  0
 35 70  1  0  0  0  0
 35 71  1  0  0  0  0
 36 72  1  0  0  0  0
 36 73  1  0  0  0  0
 36 74  1  0  0  0  0
 37 76  1  0  0  0  0
 37 77  1  0  0  0  0
 37 78  1  0  0  0  0
M  END
> <PUBCHEM_COMPOUND_CID>
78384958

> <PUBCHEM_COMPOUND_CANONICALIZED>
1

> <PUBCHEM_CACTVS_COMPLEXITY>
1150

> <PUBCHEM_CACTVS_HBOND_ACCEPTOR>
7

> <PUBCHEM_CACTVS_HBOND_DONOR>
3

> <PUBCHEM_CACTVS_ROTATABLE_BOND>
0

> <PUBCHEM_CACTVS_SUBSKEYS>
AAADcfB4OAAAAAAAAAAAAAAAAAAAAaMEAAAwQIAAAAAYAEDAAAAAGgAACAAAD1SggAICCAAABgCIAoDQCAIAAAAgAAAACAFAAEgAFBYAAAACUAAE4AAIEQOK7vzvgAAAAAAAAABAAAYAADAAAYAADAAAAA==

> <PUBCHEM_IUPAC_OPENEYE_NAME>
10,16,20-trihydroxy-2,3',7,9,13,17,17-heptamethyl-spiro[pentacyclo[10.8.0.02,9.04,8.013,18]icos-1(12)-ene-5,5'-tetrahydrofuran]-2',3,11-trione

> <PUBCHEM_IUPAC_CAS_NAME>
10',16',20'-trihydroxy-2',3,7',9',13',17',17'-heptamethylspiro[oxolane-5,5'-pentacyclo[10.8.0.02,9.04,8.013,18]eicos-1(12)-ene]-2,3',11'-trione

> <PUBCHEM_IUPAC_NAME_MARKUP>
10&apos;,16&apos;,20&apos;-trihydroxy-2&apos;,3,7&apos;,9&apos;,13&apos;,17&apos;,17&apos;-heptamethylspiro[oxolane-5,5&apos;-pentacyclo[10.8.0.0<SUP>2,9</SUP>.0<SUP>4,8</SUP>.0<SUP>13,18</SUP>]icos-1(12)-ene]-2,3&apos;,11&apos;-trione

> <PUBCHEM_IUPAC_NAME>
10',16',20'-trihydroxy-2',3,7',9',13',17',17'-heptamethylspiro[oxolane-5,5'-pentacyclo[10.8.0.02,9.04,8.013,18]icos-1(12)-ene]-2,3',11'-trione

> <PUBCHEM_IUPAC_SYSTEMATIC_NAME>
2',3,7',9',13',17',17'-heptamethyl-10',16',20'-tris(oxidanyl)spiro[oxolane-5,5'-pentacyclo[10.8.0.02,9.04,8.013,18]icos-1(12)-ene]-2,3',11'-trione

> <PUBCHEM_IUPAC_TRADITIONAL_NAME>
10,16,20-trihydroxy-2,3',7,9,13,17,17-heptamethyl-spiro[pentacyclo[10.8.0.02,9.04,8.013,18]eicos-1(12)-ene-5,5'-tetrahydrofuran]-2',3,11-trione

> <PUBCHEM_IUPAC_INCHI>
InChI=1S/C30H42O7/c1-13-11-30(12-14(2)25(36)37-30)21-18(13)28(6)24(35)22(33)20-19(29(28,7)23(21)34)15(31)10-16-26(3,4)17(32)8-9-27(16,20)5/h13-18,21,24,31-32,35H,8-12H2,1-7H3

> <PUBCHEM_IUPAC_INCHIKEY>
FLFQDUNKJSXJOT-UHFFFAOYSA-N

> <PUBCHEM_XLOGP3_AA>
2.6

> <PUBCHEM_EXACT_MASS>
514.293054

> <PUBCHEM_MOLECULAR_FORMULA>
C30H42O7

> <PUBCHEM_MOLECULAR_WEIGHT>
514.6

> <PUBCHEM_OPENEYE_CAN_SMILES>
CC1CC2(CC(C(=O)O2)C)C3C1C4(C(C(=O)C5=C(C4(C3=O)C)C(CC6C5(CCC(C6(C)C)O)C)O)O)C

> <PUBCHEM_OPENEYE_ISO_SMILES>
CC1CC2(CC(C(=O)O2)C)C3C1C4(C(C(=O)C5=C(C4(C3=O)C)C(CC6C5(CCC(C6(C)C)O)C)O)O)C

> <PUBCHEM_CACTVS_TPSA>
121

> <PUBCHEM_MONOISOTOPIC_WEIGHT>
514.293054

> <PUBCHEM_TOTAL_CHARGE>
0

> <PUBCHEM_HEAVY_ATOM_COUNT>
37

> <PUBCHEM_ATOM_DEF_STEREO_COUNT>
0

> <PUBCHEM_ATOM_UDEF_STEREO_COUNT>
12

> <PUBCHEM_BOND_DEF_STEREO_COUNT>
0

> <PUBCHEM_BOND_UDEF_STEREO_COUNT>
0

> <PUBCHEM_ISOTOPIC_ATOM_COUNT>
0

> <PUBCHEM_COMPONENT_COUNT>
1

> <PUBCHEM_CACTVS_TAUTO_COUNT>
-1

> <PUBCHEM_COORDINATE_TYPE>
1
5
255

> <PUBCHEM_BONDANNOTATIONS>
10  14  3
11  23  3
12  15  3
13  28  3
18  32  3
17  2  3
20  26  3
30  37  3
24  4  3
31  6  3
8  21  3
9  13  3

$$$$
