14325145
  -OEChem-09122005422D

 80 83  0     1  0  0  0  0  0999 V2000
    9.1857   -2.6989    0.0000 O   0  0  0  0  0  0  0  0  0  0  0  0
    2.5357   -3.4959    0.0000 O   0  0  0  0  0  0  0  0  0  0  0  0
   13.0532    4.2819    0.0000 O   0  0  0  0  0  0  0  0  0  0  0  0
   13.4104    2.5870    0.0000 O   0  0  0  0  0  0  0  0  0  0  0  0
    7.9288   -0.4436    0.0000 C   0  0  3  0  0  0  0  0  0  0  0  0
    7.9288   -1.4436    0.0000 C   0  0  3  0  0  0  0  0  0  0  0  0
    8.8750   -0.1389    0.0000 C   0  0  3  0  0  0  0  0  0  0  0  0
    8.8750   -1.7483    0.0000 C   0  0  3  0  0  0  0  0  0  0  0  0
    5.2868   -1.9504    0.0000 C   0  0  3  0  0  0  0  0  0  0  0  0
    7.0628   -1.9436    0.0000 C   0  0  0  0  0  0  0  0  0  0  0  0
    9.4586   -0.9436    0.0000 C   0  0  0  0  0  0  0  0  0  0  0  0
    5.2787   -2.9920    0.0000 C   0  0  3  0  0  0  0  0  0  0  0  0
    6.1968   -1.4436    0.0000 C   0  0  0  0  0  0  0  0  0  0  0  0
    7.0628    0.0564    0.0000 C   0  0  0  0  0  0  0  0  0  0  0  0
    4.3433   -3.5418    0.0000 C   0  0  0  0  0  0  0  0  0  0  0  0
    9.1857    0.8116    0.0000 C   0  0  3  0  0  0  0  0  0  0  0  0
    7.9288    0.5564    0.0000 C   0  0  0  0  0  0  0  0  0  0  0  0
    7.9288   -2.4436    0.0000 C   0  0  0  0  0  0  0  0  0  0  0  0
    4.3599   -1.3864    0.0000 C   0  0  0  0  0  0  0  0  0  0  0  0
    6.1808   -3.5129    0.0000 C   0  0  0  0  0  0  0  0  0  0  0  0
    6.1968   -0.4436    0.0000 C   0  0  0  0  0  0  0  0  0  0  0  0
    7.0789   -2.9851    0.0000 C   0  0  0  0  0  0  0  0  0  0  0  0
    3.4037   -2.9993    0.0000 C   0  0  3  0  0  0  0  0  0  0  0  0
    3.4120   -1.9143    0.0000 C   0  0  0  0  0  0  0  0  0  0  0  0
    5.2945   -0.9505    0.0000 C   0  0  0  0  0  0  0  0  0  0  0  0
   10.1642    1.0179    0.0000 C   0  0  0  0  0  0  0  0  0  0  0  0
    3.8467   -4.4097    0.0000 C   0  0  0  0  0  0  0  0  0  0  0  0
    4.8466   -4.4059    0.0000 C   0  0  0  0  0  0  0  0  0  0  0  0
    8.5179    1.5560    0.0000 C   0  0  0  0  0  0  0  0  0  0  0  0
   10.4749    1.9684    0.0000 C   0  0  0  0  0  0  0  0  0  0  0  0
   11.4534    2.1746    0.0000 C   0  0  0  0  0  0  0  0  0  0  0  0
   11.7640    3.1251    0.0000 C   0  0  0  0  0  0  0  0  0  0  0  0
   11.0962    3.8694    0.0000 C   0  0  0  0  0  0  0  0  0  0  0  0
   12.7425    3.3314    0.0000 C   0  0  0  0  0  0  0  0  0  0  0  0
    9.4875   -0.0427    0.0000 H   0  0  0  0  0  0  0  0  0  0  0  0
    9.4875   -1.8445    0.0000 H   0  0  0  0  0  0  0  0  0  0  0  0
    9.9195   -1.3583    0.0000 H   0  0  0  0  0  0  0  0  0  0  0  0
    9.9195   -0.5289    0.0000 H   0  0  0  0  0  0  0  0  0  0  0  0
    5.2811   -3.6120    0.0000 H   0  0  0  0  0  0  0  0  0  0  0  0
    7.4613    0.5313    0.0000 H   0  0  0  0  0  0  0  0  0  0  0  0
    6.6643    0.5313    0.0000 H   0  0  0  0  0  0  0  0  0  0  0  0
    9.3783    1.4010    0.0000 H   0  0  0  0  0  0  0  0  0  0  0  0
    8.5488    0.5564    0.0000 H   0  0  0  0  0  0  0  0  0  0  0  0
    7.9288    1.1764    0.0000 H   0  0  0  0  0  0  0  0  0  0  0  0
    7.3088    0.5564    0.0000 H   0  0  0  0  0  0  0  0  0  0  0  0
    7.3088   -2.4436    0.0000 H   0  0  0  0  0  0  0  0  0  0  0  0
    7.9288   -3.0636    0.0000 H   0  0  0  0  0  0  0  0  0  0  0  0
    8.5488   -2.4436    0.0000 H   0  0  0  0  0  0  0  0  0  0  0  0
    4.7681   -0.9197    0.0000 H   0  0  0  0  0  0  0  0  0  0  0  0
    3.9700   -0.9043    0.0000 H   0  0  0  0  0  0  0  0  0  0  0  0
    5.7835   -3.9888    0.0000 H   0  0  0  0  0  0  0  0  0  0  0  0
    6.5818   -3.9858    0.0000 H   0  0  0  0  0  0  0  0  0  0  0  0
    5.6598   -0.1336    0.0000 H   0  0  0  0  0  0  0  0  0  0  0  0
    7.6193   -3.2889    0.0000 H   0  0  0  0  0  0  0  0  0  0  0  0
    3.4025   -3.6193    0.0000 H   0  0  0  0  0  0  0  0  0  0  0  0
    3.2075   -1.3290    0.0000 H   0  0  0  0  0  0  0  0  0  0  0  0
    2.8004   -2.0157    0.0000 H   0  0  0  0  0  0  0  0  0  0  0  0
    5.9145   -0.9553    0.0000 H   0  0  0  0  0  0  0  0  0  0  0  0
    5.2993   -0.3305    0.0000 H   0  0  0  0  0  0  0  0  0  0  0  0
    4.6745   -0.9457    0.0000 H   0  0  0  0  0  0  0  0  0  0  0  0
   10.1848    0.3982    0.0000 H   0  0  0  0  0  0  0  0  0  0  0  0
   10.7780    0.9305    0.0000 H   0  0  0  0  0  0  0  0  0  0  0  0
    3.3085   -4.1018    0.0000 H   0  0  0  0  0  0  0  0  0  0  0  0
    3.5387   -4.9478    0.0000 H   0  0  0  0  0  0  0  0  0  0  0  0
    4.3848   -4.7176    0.0000 H   0  0  0  0  0  0  0  0  0  0  0  0
    4.3109   -4.7179    0.0000 H   0  0  0  0  0  0  0  0  0  0  0  0
    5.1587   -4.9416    0.0000 H   0  0  0  0  0  0  0  0  0  0  0  0
    5.3824   -4.0938    0.0000 H   0  0  0  0  0  0  0  0  0  0  0  0
    9.7924   -2.8267    0.0000 H   0  0  0  0  0  0  0  0  0  0  0  0
    8.9793    1.9700    0.0000 H   0  0  0  0  0  0  0  0  0  0  0  0
    8.1038    2.0174    0.0000 H   0  0  0  0  0  0  0  0  0  0  0  0
    8.0564    1.1419    0.0000 H   0  0  0  0  0  0  0  0  0  0  0  0
   10.4543    2.5880    0.0000 H   0  0  0  0  0  0  0  0  0  0  0  0
    9.8611    2.0557    0.0000 H   0  0  0  0  0  0  0  0  0  0  0  0
    2.0000   -3.1839    0.0000 H   0  0  0  0  0  0  0  0  0  0  0  0
   11.8674    1.7131    0.0000 H   0  0  0  0  0  0  0  0  0  0  0  0
   11.5577    4.2835    0.0000 H   0  0  0  0  0  0  0  0  0  0  0  0
   10.6821    4.3309    0.0000 H   0  0  0  0  0  0  0  0  0  0  0  0
   10.6347    3.4554    0.0000 H   0  0  0  0  0  0  0  0  0  0  0  0
   13.6599    4.4097    0.0000 H   0  0  0  0  0  0  0  0  0  0  0  0
  1  8  1  0  0  0  0
  1 69  1  0  0  0  0
  2 23  1  0  0  0  0
  2 75  1  0  0  0  0
  3 34  1  0  0  0  0
  3 80  1  0  0  0  0
  4 34  2  0  0  0  0
  5  6  1  0  0  0  0
  5  7  1  0  0  0  0
  5 14  1  0  0  0  0
  5 17  1  0  0  0  0
  6  8  1  0  0  0  0
  6 10  1  0  0  0  0
  6 18  1  0  0  0  0
  7 11  1  0  0  0  0
  7 16  1  0  0  0  0
  7 35  1  0  0  0  0
  8 11  1  0  0  0  0
  8 36  1  0  0  0  0
  9 12  1  0  0  0  0
  9 13  1  0  0  0  0
  9 19  1  0  0  0  0
  9 25  1  0  0  0  0
 10 13  1  0  0  0  0
 10 22  2  0  0  0  0
 11 37  1  0  0  0  0
 11 38  1  0  0  0  0
 12 15  1  0  0  0  0
 12 20  1  0  0  0  0
 12 39  1  0  0  0  0
 13 21  2  0  0  0  0
 14 21  1  0  0  0  0
 14 40  1  0  0  0  0
 14 41  1  0  0  0  0
 15 23  1  0  0  0  0
 15 27  1  0  0  0  0
 15 28  1  0  0  0  0
 16 26  1  0  0  0  0
 16 29  1  0  0  0  0
 16 42  1  0  0  0  0
 17 43  1  0  0  0  0
 17 44  1  0  0  0  0
 17 45  1  0  0  0  0
 18 46  1  0  0  0  0
 18 47  1  0  0  0  0
 18 48  1  0  0  0  0
 19 24  1  0  0  0  0
 19 49  1  0  0  0  0
 19 50  1  0  0  0  0
 20 22  1  0  0  0  0
 20 51  1  0  0  0  0
 20 52  1  0  0  0  0
 21 53  1  0  0  0  0
 22 54  1  0  0  0  0
 23 24  1  0  0  0  0
 23 55  1  0  0  0  0
 24 56  1  0  0  0  0
 24 57  1  0  0  0  0
 25 58  1  0  0  0  0
 25 59  1  0  0  0  0
 25 60  1  0  0  0  0
 26 30  1  0  0  0  0
 26 61  1  0  0  0  0
 26 62  1  0  0  0  0
 27 63  1  0  0  0  0
 27 64  1  0  0  0  0
 27 65  1  0  0  0  0
 28 66  1  0  0  0  0
 28 67  1  0  0  0  0
 28 68  1  0  0  0  0
 29 70  1  0  0  0  0
 29 71  1  0  0  0  0
 29 72  1  0  0  0  0
 30 31  1  0  0  0  0
 30 73  1  0  0  0  0
 30 74  1  0  0  0  0
 31 32  2  0  0  0  0
 31 76  1  0  0  0  0
 32 33  1  0  0  0  0
 32 34  1  0  0  0  0
 33 77  1  0  0  0  0
 33 78  1  0  0  0  0
 33 79  1  0  0  0  0
M  END
> <PUBCHEM_COMPOUND_CID>
14325145

> <PUBCHEM_COMPOUND_CANONICALIZED>
1

> <PUBCHEM_CACTVS_COMPLEXITY>
942

> <PUBCHEM_CACTVS_HBOND_ACCEPTOR>
4

> <PUBCHEM_CACTVS_HBOND_DONOR>
3

> <PUBCHEM_CACTVS_ROTATABLE_BOND>
5

> <PUBCHEM_CACTVS_SUBSKEYS>
AAADcfB4OAAAAAAAAAAAAAAAAAAAAYAAAAAwQIAAAAAAAECAAAAAGgAACAAADxSggAICCAAAAgCIAiDSCAAAAAAgAAAACAEAAEgIFAIAAQAAUAAEwAAIkYOAwPAPgAAAAAAAAABAAAYAADAAAYAADAAAAA==

> <PUBCHEM_IUPAC_OPENEYE_NAME>
(E)-6-(3,15-dihydroxy-4,4,10,13,14-pentamethyl-2,3,5,6,12,15,16,17-octahydro-1H-cyclopenta[a]phenanthren-17-yl)-2-methyl-hept-2-enoic acid

> <PUBCHEM_IUPAC_CAS_NAME>
(E)-6-(3,15-dihydroxy-4,4,10,13,14-pentamethyl-2,3,5,6,12,15,16,17-octahydro-1H-cyclopenta[a]phenanthren-17-yl)-2-methyl-2-heptenoic acid

> <PUBCHEM_IUPAC_NAME_MARKUP>
(<I>E</I>)-6-(3,15-dihydroxy-4,4,10,13,14-pentamethyl-2,3,5,6,12,15,16,17-octahydro-1<I>H</I>-cyclopenta[a]phenanthren-17-yl)-2-methylhept-2-enoic acid

> <PUBCHEM_IUPAC_NAME>
(E)-6-(3,15-dihydroxy-4,4,10,13,14-pentamethyl-2,3,5,6,12,15,16,17-octahydro-1H-cyclopenta[a]phenanthren-17-yl)-2-methylhept-2-enoic acid

> <PUBCHEM_IUPAC_SYSTEMATIC_NAME>
(E)-2-methyl-6-[4,4,10,13,14-pentamethyl-3,15-bis(oxidanyl)-2,3,5,6,12,15,16,17-octahydro-1H-cyclopenta[a]phenanthren-17-yl]hept-2-enoic acid

> <PUBCHEM_IUPAC_TRADITIONAL_NAME>
(E)-6-(3,15-dihydroxy-4,4,10,13,14-pentamethyl-2,3,5,6,12,15,16,17-octahydro-1H-cyclopenta[a]phenanthren-17-yl)-2-methyl-hept-2-enoic acid

> <PUBCHEM_IUPAC_INCHI>
InChI=1S/C30H46O4/c1-18(9-8-10-19(2)26(33)34)22-17-25(32)30(7)21-11-12-23-27(3,4)24(31)14-15-28(23,5)20(21)13-16-29(22,30)6/h10-11,13,18,22-25,31-32H,8-9,12,14-17H2,1-7H3,(H,33,34)/b19-10+

> <PUBCHEM_IUPAC_INCHIKEY>
VFCVARJMDQZNKD-VXLYETTFSA-N

> <PUBCHEM_XLOGP3_AA>
6

> <PUBCHEM_EXACT_MASS>
470.33961

> <PUBCHEM_MOLECULAR_FORMULA>
C30H46O4

> <PUBCHEM_MOLECULAR_WEIGHT>
470.7

> <PUBCHEM_OPENEYE_CAN_SMILES>
CC(CCC=C(C)C(=O)O)C1CC(C2(C1(CC=C3C2=CCC4C3(CCC(C4(C)C)O)C)C)C)O

> <PUBCHEM_OPENEYE_ISO_SMILES>
CC(CC/C=C(\C)/C(=O)O)C1CC(C2(C1(CC=C3C2=CCC4C3(CCC(C4(C)C)O)C)C)C)O

> <PUBCHEM_CACTVS_TPSA>
77.8

> <PUBCHEM_MONOISOTOPIC_WEIGHT>
470.33961

> <PUBCHEM_TOTAL_CHARGE>
0

> <PUBCHEM_HEAVY_ATOM_COUNT>
34

> <PUBCHEM_ATOM_DEF_STEREO_COUNT>
0

> <PUBCHEM_ATOM_UDEF_STEREO_COUNT>
8

> <PUBCHEM_BOND_DEF_STEREO_COUNT>
1

> <PUBCHEM_BOND_UDEF_STEREO_COUNT>
0

> <PUBCHEM_ISOTOPIC_ATOM_COUNT>
0

> <PUBCHEM_COMPONENT_COUNT>
1

> <PUBCHEM_CACTVS_TAUTO_COUNT>
-1

> <PUBCHEM_COORDINATE_TYPE>
1
5
255

> <PUBCHEM_BONDANNOTATIONS>
8  1  3
12  20  3
16  29  3
23  2  3
5  17  3
6  18  3
7  11  3
9  25  3

$$$$
