169202
  -OEChem-09132011123D

 29 29  0     1  0  0  0  0  0999 V2000
   -3.1271   -1.6201    0.4526 O   0  0  0  0  0  0  0  0  0  0  0  0
   -0.3280    0.7312   -0.3795 C   0  0  2  0  0  0  0  0  0  0  0  0
    1.1864    0.7076   -0.0851 C   0  0  1  0  0  0  0  0  0  0  0  0
   -0.4540    1.7728    0.7516 C   0  0  0  0  0  0  0  0  0  0  0  0
    0.8378    1.1723    1.3444 C   0  0  0  0  0  0  0  0  0  0  0  0
   -1.0215   -0.5841   -0.0780 C   0  0  0  0  0  0  0  0  0  0  0  0
   -0.7674    1.2457   -1.7318 C   0  0  0  0  0  0  0  0  0  0  0  0
    1.8569   -0.6160   -0.1600 C   0  0  0  0  0  0  0  0  0  0  0  0
   -2.5160   -0.3753    0.1399 C   0  0  0  0  0  0  0  0  0  0  0  0
    2.3271   -1.2499    1.1106 C   0  0  0  0  0  0  0  0  0  0  0  0
    2.0058   -1.1844   -1.3647 C   0  0  0  0  0  0  0  0  0  0  0  0
    1.7531    1.4755   -0.6324 H   0  0  0  0  0  0  0  0  0  0  0  0
   -1.3162    1.7484    1.4196 H   0  0  0  0  0  0  0  0  0  0  0  0
   -0.3250    2.8121    0.4208 H   0  0  0  0  0  0  0  0  0  0  0  0
    1.5262    1.9031    1.7802 H   0  0  0  0  0  0  0  0  0  0  0  0
    0.6203    0.4161    2.1058 H   0  0  0  0  0  0  0  0  0  0  0  0
   -0.6325   -1.0716    0.8234 H   0  0  0  0  0  0  0  0  0  0  0  0
   -0.8786   -1.3128   -0.8863 H   0  0  0  0  0  0  0  0  0  0  0  0
   -0.6264    0.4939   -2.5157 H   0  0  0  0  0  0  0  0  0  0  0  0
   -1.8174    1.5541   -1.7401 H   0  0  0  0  0  0  0  0  0  0  0  0
   -0.1843    2.1263   -2.0263 H   0  0  0  0  0  0  0  0  0  0  0  0
   -2.7432    0.3094    0.9592 H   0  0  0  0  0  0  0  0  0  0  0  0
   -3.0091    0.0029   -0.7591 H   0  0  0  0  0  0  0  0  0  0  0  0
    2.9445   -0.5560    1.6905 H   0  0  0  0  0  0  0  0  0  0  0  0
    1.4895   -1.5891    1.7265 H   0  0  0  0  0  0  0  0  0  0  0  0
    2.9483   -2.1298    0.9074 H   0  0  0  0  0  0  0  0  0  0  0  0
    2.4851   -2.1519   -1.4721 H   0  0  0  0  0  0  0  0  0  0  0  0
    1.6594   -0.7003   -2.2716 H   0  0  0  0  0  0  0  0  0  0  0  0
   -2.7257   -1.9458    1.2763 H   0  0  0  0  0  0  0  0  0  0  0  0
  1  9  1  0  0  0  0
  1 29  1  0  0  0  0
  2  3  1  0  0  0  0
  2  4  1  0  0  0  0
  2  6  1  0  0  0  0
  2  7  1  0  0  0  0
  3  5  1  0  0  0  0
  3  8  1  0  0  0  0
  3 12  1  0  0  0  0
  4  5  1  0  0  0  0
  4 13  1  0  0  0  0
  4 14  1  0  0  0  0
  5 15  1  0  0  0  0
  5 16  1  0  0  0  0
  6  9  1  0  0  0  0
  6 17  1  0  0  0  0
  6 18  1  0  0  0  0
  7 19  1  0  0  0  0
  7 20  1  0  0  0  0
  7 21  1  0  0  0  0
  8 10  1  0  0  0  0
  8 11  2  0  0  0  0
  9 22  1  0  0  0  0
  9 23  1  0  0  0  0
 10 24  1  0  0  0  0
 10 25  1  0  0  0  0
 10 26  1  0  0  0  0
 11 27  1  0  0  0  0
 11 28  1  0  0  0  0
M  END
> <PUBCHEM_COMPOUND_CID>
169202

> <PUBCHEM_CONFORMER_RMSD>
0.6

> <PUBCHEM_CONFORMER_DIVERSEORDER>
1
2
4
6
3
5

> <PUBCHEM_MMFF94_PARTIAL_CHARGES>
9
1 -0.68
10 0.14
11 -0.3
27 0.15
28 0.15
29 0.4
3 0.12
8 -0.25
9 0.28

> <PUBCHEM_EFFECTIVE_ROTOR_COUNT>
3.8

> <PUBCHEM_PHARMACOPHORE_FEATURES>
3
1 1 acceptor
1 1 donor
4 2 3 4 5 rings

> <PUBCHEM_HEAVY_ATOM_COUNT>
11

> <PUBCHEM_ATOM_DEF_STEREO_COUNT>
2

> <PUBCHEM_ATOM_UDEF_STEREO_COUNT>
0

> <PUBCHEM_BOND_DEF_STEREO_COUNT>
0

> <PUBCHEM_BOND_UDEF_STEREO_COUNT>
0

> <PUBCHEM_ISOTOPIC_ATOM_COUNT>
0

> <PUBCHEM_COMPONENT_COUNT>
1

> <PUBCHEM_CACTVS_TAUTO_COUNT>
1

> <PUBCHEM_CONFORMER_ID>
000294F200000001

> <PUBCHEM_MMFF94_ENERGY>
29.6502

> <PUBCHEM_FEATURE_SELFOVERLAP>
15.223

> <PUBCHEM_SHAPE_FINGERPRINT>
12423570 1 13859073747381184496
13024252 1 14637161047989859500
14128692 85 18263100905791768111
16945 1 18122634850843136785
20653091 64 18269848668923409409
20711978 78 17917421068553118556
20711983 138 17843126904719087398
20871998 22 18201729439510494630
21061003 4 17917136239555077106
2748010 2 17487614118134842276
29004967 10 17917983949992661504
369184 2 17902783073142925128
528862 383 18057313097023156128
59915604 170 16081951354342423780
68250623 7 17700167402327678432

> <PUBCHEM_SHAPE_MULTIPOLES>
220.51
3.44
1.79
1.43
0.93
0.11
0.38
-2.43
-0.5
0.46
-0.29
-0.33
0.22
0.51

> <PUBCHEM_SHAPE_SELFOVERLAP>
436.461

> <PUBCHEM_SHAPE_VOLUME>
134.4

> <PUBCHEM_COORDINATE_TYPE>
2
5
10

$$$$
