12309744
  -OEChem-09132011383D

 39 40  0     1  0  0  0  0  0999 V2000
    0.7980    0.2648    0.6463 C   0  0  1  0  0  0  0  0  0  0  0  0
    1.5709    1.2116   -0.3438 C   0  0  2  0  0  0  0  0  0  0  0  0
   -0.7201    0.6438    0.7099 C   0  0  0  0  0  0  0  0  0  0  0  0
    0.9293   -1.1891    0.1762 C   0  0  0  0  0  0  0  0  0  0  0  0
   -1.5722   -0.1343   -0.3065 C   0  0  1  0  0  0  0  0  0  0  0  0
   -0.1882   -2.1098    0.5875 C   0  0  0  0  0  0  0  0  0  0  0  0
    2.9883    0.6801   -0.6361 C   0  0  0  0  0  0  0  0  0  0  0  0
   -1.5157   -1.6498   -0.0267 C   0  0  0  0  0  0  0  0  0  0  0  0
    1.3719    0.3667    2.0793 C   0  0  0  0  0  0  0  0  0  0  0  0
    2.9742   -0.7338   -1.2083 C   0  0  0  0  0  0  0  0  0  0  0  0
    1.9068   -1.6136   -0.6424 C   0  0  0  0  0  0  0  0  0  0  0  0
    1.6870    2.6714    0.1190 C   0  0  0  0  0  0  0  0  0  0  0  0
   -2.9859    0.3608   -0.3158 C   0  0  0  0  0  0  0  0  0  0  0  0
   -3.4728    0.9475   -1.6074 C   0  0  0  0  0  0  0  0  0  0  0  0
   -3.7713    0.2836    0.7688 C   0  0  0  0  0  0  0  0  0  0  0  0
    1.0229    1.2248   -1.2972 H   0  0  0  0  0  0  0  0  0  0  0  0
   -0.8597    1.7200    0.5633 H   0  0  0  0  0  0  0  0  0  0  0  0
   -1.0988    0.4394    1.7216 H   0  0  0  0  0  0  0  0  0  0  0  0
   -1.1376    0.0364   -1.3016 H   0  0  0  0  0  0  0  0  0  0  0  0
    0.0048   -3.1498    0.2983 H   0  0  0  0  0  0  0  0  0  0  0  0
   -0.2681   -2.1133    1.6813 H   0  0  0  0  0  0  0  0  0  0  0  0
    3.5937    0.6943    0.2785 H   0  0  0  0  0  0  0  0  0  0  0  0
    3.5021    1.3414   -1.3453 H   0  0  0  0  0  0  0  0  0  0  0  0
   -1.6726   -2.1781   -0.9774 H   0  0  0  0  0  0  0  0  0  0  0  0
   -2.3241   -1.9909    0.6310 H   0  0  0  0  0  0  0  0  0  0  0  0
    1.2290    1.3685    2.4981 H   0  0  0  0  0  0  0  0  0  0  0  0
    0.8755   -0.3329    2.7624 H   0  0  0  0  0  0  0  0  0  0  0  0
    2.4411    0.1346    2.1137 H   0  0  0  0  0  0  0  0  0  0  0  0
    3.9544   -1.1978   -1.0501 H   0  0  0  0  0  0  0  0  0  0  0  0
    2.8226   -0.6791   -2.2934 H   0  0  0  0  0  0  0  0  0  0  0  0
    1.9170   -2.6491   -0.9734 H   0  0  0  0  0  0  0  0  0  0  0  0
    2.1500    3.2799   -0.6663 H   0  0  0  0  0  0  0  0  0  0  0  0
    0.7133    3.1174    0.3347 H   0  0  0  0  0  0  0  0  0  0  0  0
    2.3131    2.7667    1.0118 H   0  0  0  0  0  0  0  0  0  0  0  0
   -4.5116    1.2878   -1.5399 H   0  0  0  0  0  0  0  0  0  0  0  0
   -2.8585    1.8089   -1.8892 H   0  0  0  0  0  0  0  0  0  0  0  0
   -3.4184    0.2025   -2.4080 H   0  0  0  0  0  0  0  0  0  0  0  0
   -4.7939    0.6463    0.7465 H   0  0  0  0  0  0  0  0  0  0  0  0
   -3.4224   -0.1384    1.7050 H   0  0  0  0  0  0  0  0  0  0  0  0
  1  2  1  0  0  0  0
  1  3  1  0  0  0  0
  1  4  1  0  0  0  0
  1  9  1  0  0  0  0
  2  7  1  0  0  0  0
  2 12  1  0  0  0  0
  2 16  1  0  0  0  0
  3  5  1  0  0  0  0
  3 17  1  0  0  0  0
  3 18  1  0  0  0  0
  4  6  1  0  0  0  0
  4 11  2  0  0  0  0
  5  8  1  0  0  0  0
  5 13  1  0  0  0  0
  5 19  1  0  0  0  0
  6  8  1  0  0  0  0
  6 20  1  0  0  0  0
  6 21  1  0  0  0  0
  7 10  1  0  0  0  0
  7 22  1  0  0  0  0
  7 23  1  0  0  0  0
  8 24  1  0  0  0  0
  8 25  1  0  0  0  0
  9 26  1  0  0  0  0
  9 27  1  0  0  0  0
  9 28  1  0  0  0  0
 10 11  1  0  0  0  0
 10 29  1  0  0  0  0
 10 30  1  0  0  0  0
 11 31  1  0  0  0  0
 12 32  1  0  0  0  0
 12 33  1  0  0  0  0
 12 34  1  0  0  0  0
 13 14  1  0  0  0  0
 13 15  2  0  0  0  0
 14 35  1  0  0  0  0
 14 36  1  0  0  0  0
 14 37  1  0  0  0  0
 15 38  1  0  0  0  0
 15 39  1  0  0  0  0
M  END
> <PUBCHEM_COMPOUND_CID>
12309744

> <PUBCHEM_CONFORMER_RMSD>
0.6

> <PUBCHEM_CONFORMER_DIVERSEORDER>
1
2
3
4
5

> <PUBCHEM_MMFF94_PARTIAL_CHARGES>
12
1 0.14
10 0.14
11 -0.29
13 -0.28
14 0.14
15 -0.3
31 0.15
38 0.15
39 0.15
4 -0.28
5 0.14
6 0.14

> <PUBCHEM_EFFECTIVE_ROTOR_COUNT>
2.4

> <PUBCHEM_PHARMACOPHORE_FEATURES>
2
6 1 2 4 7 10 11 rings
6 1 3 4 5 6 8 rings

> <PUBCHEM_HEAVY_ATOM_COUNT>
15

> <PUBCHEM_ATOM_DEF_STEREO_COUNT>
3

> <PUBCHEM_ATOM_UDEF_STEREO_COUNT>
0

> <PUBCHEM_BOND_DEF_STEREO_COUNT>
0

> <PUBCHEM_BOND_UDEF_STEREO_COUNT>
0

> <PUBCHEM_ISOTOPIC_ATOM_COUNT>
0

> <PUBCHEM_COMPONENT_COUNT>
1

> <PUBCHEM_CACTVS_TAUTO_COUNT>
1

> <PUBCHEM_CONFORMER_ID>
00BBD4F000000001

> <PUBCHEM_MMFF94_ENERGY>
36.7012

> <PUBCHEM_FEATURE_SELFOVERLAP>
10.185

> <PUBCHEM_SHAPE_FINGERPRINT>
12423570 1 10613554235310806714
12654215 9 18189042101796503517
12725867 57 18124011469666077258
12932764 1 17821725044423688833
13134695 92 17489584537397839272
13296908 3 10879989173091065885
13380535 21 18267316485155069579
13380536 305 18410015424723243203
13897977 150 18340491174200475653
14289901 80 15864075364662152201
14350558 41 12895347811341990797
14614273 12 17907300210058754633
14648413 74 18266748063344734880
15219456 202 18269003153018901410
15279308 100 18334290955280539733
15775835 57 17748824141788481724
15852999 172 17985240071099129554
16945 1 18342750589175903338
18186145 218 18413110545881952983
18981168 100 18263350529549435407
20233049 118 18040989592883911604
20820808 20 18409174298454686042
21501502 16 18267586994879995366
21524375 3 17976249454744968088
21947302 44 18341612671897689180
22802520 49 18268722773158637350
230 275 18340188735678206483
231179 274 17894623747313200885
23402539 116 18057047904636755822
23493267 7 17313671447282107521
23526113 38 18337124379418373283
238 59 18120621744237652989
25 1 18336554840926525926
2748010 2 18124321759488725376
276578 36 16153710907646169346
3060560 45 18335129878357507295
353137 74 18339086981856150600
528886 8 18410017649711481266
5337951 7 18202004334665710754
549884 4 18343017778975213215
74978 22 18341893004555530367
81228 2 17612035176014694107

> <PUBCHEM_SHAPE_MULTIPOLES>
308.69
5.33
2.12
1.38
3.83
0.15
-0.25
1.26
1.76
-0.98
0.02
-0.05
0.17
0.58

> <PUBCHEM_SHAPE_SELFOVERLAP>
630.018

> <PUBCHEM_SHAPE_VOLUME>
178.5

> <PUBCHEM_COORDINATE_TYPE>
2
5
10

$$$$
