578868
  -OEChem-09132010413D

 19 19  0     0  0  0  0  0  0999 V2000
   -0.0002    0.9911    0.5362 O   0  0  0  0  0  0  0  0  0  0  0  0
    1.2067    0.5312    0.0354 C   0  0  0  0  0  0  0  0  0  0  0  0
   -1.2068    0.5310    0.0353 C   0  0  0  0  0  0  0  0  0  0  0  0
    1.5153   -0.7582   -0.1906 C   0  0  0  0  0  0  0  0  0  0  0  0
   -1.5151   -0.7586   -0.1909 C   0  0  0  0  0  0  0  0  0  0  0  0
    0.6694   -1.8964    0.0698 C   0  0  0  0  0  0  0  0  0  0  0  0
   -0.6690   -1.8966    0.0696 C   0  0  0  0  0  0  0  0  0  0  0  0
    2.2043    1.6285   -0.1826 C   0  0  0  0  0  0  0  0  0  0  0  0
   -2.2048    1.6281   -0.1823 C   0  0  0  0  0  0  0  0  0  0  0  0
    2.5092   -1.0108   -0.5540 H   0  0  0  0  0  0  0  0  0  0  0  0
   -2.5088   -1.0114   -0.5544 H   0  0  0  0  0  0  0  0  0  0  0  0
    1.1900   -2.8339    0.2499 H   0  0  0  0  0  0  0  0  0  0  0  0
   -1.1893   -2.8342    0.2495 H   0  0  0  0  0  0  0  0  0  0  0  0
    2.3845    2.1668    0.7537 H   0  0  0  0  0  0  0  0  0  0  0  0
    1.8241    2.3405   -0.9223 H   0  0  0  0  0  0  0  0  0  0  0  0
    3.1667    1.2515   -0.5437 H   0  0  0  0  0  0  0  0  0  0  0  0
   -2.3850    2.1661    0.7541 H   0  0  0  0  0  0  0  0  0  0  0  0
   -3.1671    1.2509   -0.5432 H   0  0  0  0  0  0  0  0  0  0  0  0
   -1.8248    2.3403   -0.9219 H   0  0  0  0  0  0  0  0  0  0  0  0
  1  2  1  0  0  0  0
  1  3  1  0  0  0  0
  2  4  2  0  0  0  0
  2  8  1  0  0  0  0
  3  5  2  0  0  0  0
  3  9  1  0  0  0  0
  4  6  1  0  0  0  0
  4 10  1  0  0  0  0
  5  7  1  0  0  0  0
  5 11  1  0  0  0  0
  6  7  2  0  0  0  0
  6 12  1  0  0  0  0
  7 13  1  0  0  0  0
  8 14  1  0  0  0  0
  8 15  1  0  0  0  0
  8 16  1  0  0  0  0
  9 17  1  0  0  0  0
  9 18  1  0  0  0  0
  9 19  1  0  0  0  0
M  END
> <PUBCHEM_COMPOUND_CID>
578868

> <PUBCHEM_CONFORMER_RMSD>
0.4

> <PUBCHEM_CONFORMER_DIVERSEORDER>
1

> <PUBCHEM_MMFF94_PARTIAL_CHARGES>
13
1 -0.15
10 0.15
11 0.15
12 0.15
13 0.15
2 -0.06
3 -0.06
4 -0.15
5 -0.15
6 -0.15
7 -0.15
8 0.14
9 0.14

> <PUBCHEM_EFFECTIVE_ROTOR_COUNT>
0.2

> <PUBCHEM_PHARMACOPHORE_FEATURES>
2
1 1 acceptor
7 1 2 3 4 5 6 7 rings

> <PUBCHEM_HEAVY_ATOM_COUNT>
9

> <PUBCHEM_ATOM_DEF_STEREO_COUNT>
0

> <PUBCHEM_ATOM_UDEF_STEREO_COUNT>
0

> <PUBCHEM_BOND_DEF_STEREO_COUNT>
0

> <PUBCHEM_BOND_UDEF_STEREO_COUNT>
0

> <PUBCHEM_ISOTOPIC_ATOM_COUNT>
0

> <PUBCHEM_COMPONENT_COUNT>
1

> <PUBCHEM_CACTVS_TAUTO_COUNT>
1

> <PUBCHEM_CONFORMER_ID>
0008D53400000001

> <PUBCHEM_MMFF94_ENERGY>
23.9237

> <PUBCHEM_FEATURE_SELFOVERLAP>
10.148

> <PUBCHEM_SHAPE_FINGERPRINT>
16714656 1 17834400398846329086
16945 1 18410011035198309183
18185500 45 17691685589062838383
193761 8 18410575088958474947
21040471 1 18411416228354345264
21922407 69 15285649836086561975
23552423 10 18338231553488695231
241688 4 16898774883141696858
2748010 2 18410859862474928070
29004967 10 17686910414432039395
5084963 1 18273495675788458978
66348 1 17763184639683362560

> <PUBCHEM_SHAPE_MULTIPOLES>
179.35
2.69
2.32
0.65
0
0.42
0
-1.46
-0.24
0
-0.01
0
-0.02
0

> <PUBCHEM_SHAPE_SELFOVERLAP>
359.97

> <PUBCHEM_SHAPE_VOLUME>
104.8

> <PUBCHEM_COORDINATE_TYPE>
2
5
10

$$$$
