102510584
  -OEChem-08262005393D

 82 84  0     1  0  0  0  0  0999 V2000
   -2.7652   -0.3704    1.2180 O   0  0  0  0  0  0  0  0  0  0  0  0
   -7.0967   -3.1428    0.6410 O   0  0  0  0  0  0  0  0  0  0  0  0
   -3.6834   -1.1595   -3.8564 O   0  0  0  0  0  0  0  0  0  0  0  0
   -2.5806    1.7796    2.0347 O   0  0  0  0  0  0  0  0  0  0  0  0
    3.7986    1.1018    0.3496 O   0  0  0  0  0  0  0  0  0  0  0  0
    4.4093   -1.1340    0.6188 O   0  0  0  0  0  0  0  0  0  0  0  0
    2.1499    1.7690   -1.1628 O   0  0  0  0  0  0  0  0  0  0  0  0
    5.7946    1.3850   -1.6363 O   0  0  0  0  0  0  0  0  0  0  0  0
    8.0181   -0.5068   -1.2385 O   0  0  0  0  0  0  0  0  0  0  0  0
    7.0127   -3.1984   -0.9221 O   0  0  0  0  0  0  0  0  0  0  0  0
    3.4292   -3.6129    1.2898 O   0  0  0  0  0  0  0  0  0  0  0  0
   -1.7363    3.8100   -0.1637 O   0  0  0  0  0  0  0  0  0  0  0  0
   -2.0849    2.1971   -1.7875 O   0  0  0  0  0  0  0  0  0  0  0  0
   -5.5035   -0.9971   -0.5583 C   0  0  1  0  0  0  0  0  0  0  0  0
   -4.9398   -2.2360    0.1588 C   0  0  1  0  0  0  0  0  0  0  0  0
   -4.7683   -1.7268    1.5996 C   0  0  2  0  0  0  0  0  0  0  0  0
   -4.8011    0.2032    0.1018 C   0  0  0  0  0  0  0  0  0  0  0  0
   -4.1775   -0.3239    1.3991 C   0  0  2  0  0  0  0  0  0  0  0  0
   -5.3064   -1.0269   -2.0678 C   0  0  2  0  0  0  0  0  0  0  0  0
   -5.8486   -3.4540    0.0481 C   0  0  0  0  0  0  0  0  0  0  0  0
   -3.9344   -2.6499    2.4778 C   0  0  0  0  0  0  0  0  0  0  0  0
   -3.8241   -1.1533   -2.4418 C   0  0  0  0  0  0  0  0  0  0  0  0
   -5.9077    0.2225   -2.7140 C   0  0  0  0  0  0  0  0  0  0  0  0
   -2.0819    0.7595    1.5796 C   0  0  0  0  0  0  0  0  0  0  0  0
   -0.6074    0.5485    1.3276 C   0  0  0  0  0  0  0  0  0  0  0  0
    0.1092    1.8548    0.9697 C   0  0  1  0  0  0  0  0  0  0  0  0
    1.6000    1.7414    1.2460 C   0  0  0  0  0  0  0  0  0  0  0  0
    5.8473    0.3650   -0.6390 C   0  0  1  0  0  0  0  0  0  0  0  0
    4.4144   -0.0238   -0.2757 C   0  0  2  0  0  0  0  0  0  0  0  0
    6.6287   -0.8329   -1.1792 C   0  0  2  0  0  0  0  0  0  0  0  0
    6.4676   -2.0530   -0.2723 C   0  0  1  0  0  0  0  0  0  0  0  0
    2.3937    1.1288    0.1031 C   0  0  2  0  0  0  0  0  0  0  0  0
    4.9911   -2.3046    0.0424 C   0  0  1  0  0  0  0  0  0  0  0  0
   -0.1139    2.2182   -0.4716 C   0  0  0  0  0  0  0  0  0  0  0  0
    0.8601    2.1747   -1.3891 C   0  0  0  0  0  0  0  0  0  0  0  0
    2.1227    2.1740    2.4049 C   0  0  0  0  0  0  0  0  0  0  0  0
    4.8126   -3.4455    1.0394 C   0  0  0  0  0  0  0  0  0  0  0  0
   -1.4220    2.7157   -0.9026 C   0  0  0  0  0  0  0  0  0  0  0  0
    1.3205    2.7877    3.4987 C   0  0  0  0  0  0  0  0  0  0  0  0
   -2.9964    4.4161   -0.4699 C   0  0  0  0  0  0  0  0  0  0  0  0
   -6.5784   -0.9064   -0.3488 H   0  0  0  0  0  0  0  0  0  0  0  0
   -3.9515   -2.5159   -0.2165 H   0  0  0  0  0  0  0  0  0  0  0  0
   -5.7540   -1.6051    2.0692 H   0  0  0  0  0  0  0  0  0  0  0  0
   -4.0664    0.7140   -0.5221 H   0  0  0  0  0  0  0  0  0  0  0  0
   -5.5653    0.9517    0.3479 H   0  0  0  0  0  0  0  0  0  0  0  0
   -4.4383    0.3043    2.2595 H   0  0  0  0  0  0  0  0  0  0  0  0
   -5.8417   -1.8875   -2.4887 H   0  0  0  0  0  0  0  0  0  0  0  0
   -6.0121   -3.7334   -0.9970 H   0  0  0  0  0  0  0  0  0  0  0  0
   -5.4185   -4.3139    0.5707 H   0  0  0  0  0  0  0  0  0  0  0  0
   -4.4545   -3.5966    2.6542 H   0  0  0  0  0  0  0  0  0  0  0  0
   -3.7477   -2.1862    3.4520 H   0  0  0  0  0  0  0  0  0  0  0  0
   -2.9663   -2.8805    2.0212 H   0  0  0  0  0  0  0  0  0  0  0  0
   -3.2098   -0.3351   -2.0623 H   0  0  0  0  0  0  0  0  0  0  0  0
   -3.3961   -2.0960   -2.0957 H   0  0  0  0  0  0  0  0  0  0  0  0
   -5.3508    1.1303   -2.4600 H   0  0  0  0  0  0  0  0  0  0  0  0
   -6.9472    0.3626   -2.3978 H   0  0  0  0  0  0  0  0  0  0  0  0
   -5.9134    0.1349   -3.8058 H   0  0  0  0  0  0  0  0  0  0  0  0
   -7.6575   -3.9329    0.5597 H   0  0  0  0  0  0  0  0  0  0  0  0
   -0.1997    0.1094    2.2465 H   0  0  0  0  0  0  0  0  0  0  0  0
   -0.4810   -0.1901    0.5252 H   0  0  0  0  0  0  0  0  0  0  0  0
   -2.7344   -1.2460   -4.0503 H   0  0  0  0  0  0  0  0  0  0  0  0
   -0.2990    2.6806    1.5633 H   0  0  0  0  0  0  0  0  0  0  0  0
    6.3589    0.7976    0.2289 H   0  0  0  0  0  0  0  0  0  0  0  0
    6.3261   -1.0670   -2.2067 H   0  0  0  0  0  0  0  0  0  0  0  0
    3.8686   -0.2856   -1.1938 H   0  0  0  0  0  0  0  0  0  0  0  0
    7.0354   -1.9013    0.6539 H   0  0  0  0  0  0  0  0  0  0  0  0
    2.0332    0.0925    0.0150 H   0  0  0  0  0  0  0  0  0  0  0  0
    4.4316   -2.5600   -0.8679 H   0  0  0  0  0  0  0  0  0  0  0  0
    0.7447    2.4881   -2.4182 H   0  0  0  0  0  0  0  0  0  0  0  0
    5.2977   -3.2099    1.9925 H   0  0  0  0  0  0  0  0  0  0  0  0
    5.2157   -4.3854    0.6507 H   0  0  0  0  0  0  0  0  0  0  0  0
    3.1932    2.1052    2.5763 H   0  0  0  0  0  0  0  0  0  0  0  0
    5.3426    1.0211   -2.4166 H   0  0  0  0  0  0  0  0  0  0  0  0
    8.3133   -0.2764   -0.3411 H   0  0  0  0  0  0  0  0  0  0  0  0
    6.5066   -3.3498   -1.7385 H   0  0  0  0  0  0  0  0  0  0  0  0
    1.2233    3.8667    3.3459 H   0  0  0  0  0  0  0  0  0  0  0  0
    1.8384    2.6339    4.4520 H   0  0  0  0  0  0  0  0  0  0  0  0
    0.3294    2.3412    3.6166 H   0  0  0  0  0  0  0  0  0  0  0  0
    3.3391   -4.3399    1.9292 H   0  0  0  0  0  0  0  0  0  0  0  0
   -3.1340    5.2705    0.1979 H   0  0  0  0  0  0  0  0  0  0  0  0
   -3.8098    3.7036   -0.3012 H   0  0  0  0  0  0  0  0  0  0  0  0
   -3.0030    4.7724   -1.5043 H   0  0  0  0  0  0  0  0  0  0  0  0
  1 18  1  0  0  0  0
  1 24  1  0  0  0  0
  2 20  1  0  0  0  0
  2 58  1  0  0  0  0
  3 22  1  0  0  0  0
  3 61  1  0  0  0  0
  4 24  2  0  0  0  0
  5 29  1  0  0  0  0
  5 32  1  0  0  0  0
  6 29  1  0  0  0  0
  6 33  1  0  0  0  0
  7 32  1  0  0  0  0
  7 35  1  0  0  0  0
  8 28  1  0  0  0  0
  8 73  1  0  0  0  0
  9 30  1  0  0  0  0
  9 74  1  0  0  0  0
 10 31  1  0  0  0  0
 10 75  1  0  0  0  0
 11 37  1  0  0  0  0
 11 79  1  0  0  0  0
 12 38  1  0  0  0  0
 12 40  1  0  0  0  0
 13 38  2  0  0  0  0
 14 15  1  0  0  0  0
 14 17  1  0  0  0  0
 14 19  1  0  0  0  0
 14 41  1  0  0  0  0
 15 16  1  0  0  0  0
 15 20  1  0  0  0  0
 15 42  1  0  0  0  0
 16 18  1  0  0  0  0
 16 21  1  0  0  0  0
 16 43  1  0  0  0  0
 17 18  1  0  0  0  0
 17 44  1  0  0  0  0
 17 45  1  0  0  0  0
 18 46  1  0  0  0  0
 19 22  1  0  0  0  0
 19 23  1  0  0  0  0
 19 47  1  0  0  0  0
 20 48  1  0  0  0  0
 20 49  1  0  0  0  0
 21 50  1  0  0  0  0
 21 51  1  0  0  0  0
 21 52  1  0  0  0  0
 22 53  1  0  0  0  0
 22 54  1  0  0  0  0
 23 55  1  0  0  0  0
 23 56  1  0  0  0  0
 23 57  1  0  0  0  0
 24 25  1  0  0  0  0
 25 26  1  0  0  0  0
 25 59  1  0  0  0  0
 25 60  1  0  0  0  0
 26 27  1  0  0  0  0
 26 34  1  0  0  0  0
 26 62  1  0  0  0  0
 27 32  1  0  0  0  0
 27 36  2  0  0  0  0
 28 29  1  0  0  0  0
 28 30  1  0  0  0  0
 28 63  1  0  0  0  0
 29 65  1  0  0  0  0
 30 31  1  0  0  0  0
 30 64  1  0  0  0  0
 31 33  1  0  0  0  0
 31 66  1  0  0  0  0
 32 67  1  0  0  0  0
 33 37  1  0  0  0  0
 33 68  1  0  0  0  0
 34 35  2  0  0  0  0
 34 38  1  0  0  0  0
 35 69  1  0  0  0  0
 36 39  1  0  0  0  0
 36 72  1  0  0  0  0
 37 70  1  0  0  0  0
 37 71  1  0  0  0  0
 39 76  1  0  0  0  0
 39 77  1  0  0  0  0
 39 78  1  0  0  0  0
 40 80  1  0  0  0  0
 40 81  1  0  0  0  0
 40 82  1  0  0  0  0
M  END
> <PUBCHEM_COMPOUND_CID>
102510584

> <PUBCHEM_CONFORMER_RMSD>
1.4

> <PUBCHEM_CONFORMER_DIVERSEORDER>
1
11
3
2
12
7
4
9
13
8
5
10
6

> <PUBCHEM_MMFF94_PARTIAL_CHARGES>
41
1 -0.43
10 -0.68
11 -0.68
12 -0.43
13 -0.57
18 0.28
2 -0.68
20 0.28
22 0.28
24 0.66
25 0.06
26 0.28
27 -0.28
28 0.28
29 0.56
3 -0.68
30 0.28
31 0.28
32 0.7
33 0.28
34 -0.12
35 -0.07
36 -0.29
37 0.28
38 0.71
39 0.14
4 -0.57
40 0.28
5 -0.56
58 0.4
6 -0.56
61 0.4
69 0.15
7 -0.36
72 0.15
73 0.4
74 0.4
75 0.4
79 0.4
8 -0.68
9 -0.68

> <PUBCHEM_EFFECTIVE_ROTOR_COUNT>
14.8

> <PUBCHEM_PHARMACOPHORE_FEATURES>
22
1 10 acceptor
1 10 donor
1 11 acceptor
1 11 donor
1 13 acceptor
1 2 acceptor
1 2 donor
1 23 hydrophobe
1 3 acceptor
1 3 donor
1 39 hydrophobe
1 4 acceptor
1 5 acceptor
1 6 acceptor
1 7 acceptor
1 8 acceptor
1 8 donor
1 9 acceptor
1 9 donor
5 14 15 16 17 18 rings
6 6 28 29 30 31 33 rings
6 7 26 27 32 34 35 rings

> <PUBCHEM_HEAVY_ATOM_COUNT>
40

> <PUBCHEM_ATOM_DEF_STEREO_COUNT>
12

> <PUBCHEM_ATOM_UDEF_STEREO_COUNT>
0

> <PUBCHEM_BOND_DEF_STEREO_COUNT>
1

> <PUBCHEM_BOND_UDEF_STEREO_COUNT>
0

> <PUBCHEM_ISOTOPIC_ATOM_COUNT>
0

> <PUBCHEM_COMPONENT_COUNT>
1

> <PUBCHEM_CACTVS_TAUTO_COUNT>
2

> <PUBCHEM_CONFORMER_ID>
061C2FF800000001

> <PUBCHEM_MMFF94_ENERGY>
105.1125

> <PUBCHEM_FEATURE_SELFOVERLAP>
111.768

> <PUBCHEM_SHAPE_FINGERPRINT>
10622 236 18120931712339336330
11497681 19 18340219514273907190
11578080 2 11675164679397304689
117089 54 18188780577550252083
12373685 5 17749943342363871032
12633257 1 16701752656232536633
13383661 66 17895762923185651283
13782708 43 18272369776340760136
14340393 91 18261111867962341061
15163728 17 12179849368468278512
15183329 4 15285351855598018766
19315092 285 17917436487670283051
208703 8 18059578030952957727
21033650 10 16443060600021304425
21792965 68 13912620359845584246
23569914 152 17318983088865983134
244849 19 18129639959857492848
2838139 119 8646479688147182202
32027 91 18200869677484127707
392239 28 11599711874945639936
46194498 28 17241893292095045415
513202 73 18342455933166328837
7970288 3 18264774444653122091

> <PUBCHEM_SHAPE_MULTIPOLES>
746.88
18.93
4.9
2.87
16.1
0.19
-0.23
-20.47
-7.48
-0.65
1.21
-2.96
0.49
1.24

> <PUBCHEM_SHAPE_SELFOVERLAP>
1541.43

> <PUBCHEM_SHAPE_VOLUME>
424.5

> <PUBCHEM_COORDINATE_TYPE>
2
5
10

$$$$
