24121278
  -OEChem-08262005503D

 52 53  0     1  0  0  0  0  0999 V2000
   -2.5171    0.7904   -0.0428 O   0  0  0  0  0  0  0  0  0  0  0  0
   -0.9947   -0.6641    0.9625 O   0  0  0  0  0  0  0  0  0  0  0  0
   -5.6384   -1.7851    0.6580 O   0  0  0  0  0  0  0  0  0  0  0  0
   -5.9347    0.3393   -1.2798 O   0  0  0  0  0  0  0  0  0  0  0  0
   -2.8627   -2.7724    0.6901 O   0  0  0  0  0  0  0  0  0  0  0  0
    0.5866   -1.8543   -0.2761 O   0  0  0  0  0  0  0  0  0  0  0  0
   -2.6976    3.0452   -1.6046 O   0  0  0  0  0  0  0  0  0  0  0  0
    5.1342   -0.8987   -0.1761 O   0  0  0  0  0  0  0  0  0  0  0  0
    2.4836    3.6976   -0.4015 O   0  0  0  0  0  0  0  0  0  0  0  0
    4.3910   -2.1486   -1.9775 O   0  0  0  0  0  0  0  0  0  0  0  0
    3.6813    2.6931    1.2530 O   0  0  0  0  0  0  0  0  0  0  0  0
   -4.5522   -1.2359   -0.0896 C   0  0  1  0  0  0  0  0  0  0  0  0
   -4.8570    0.2390   -0.3525 C   0  0  1  0  0  0  0  0  0  0  0  0
   -3.2548   -1.4000    0.7025 C   0  0  2  0  0  0  0  0  0  0  0  0
   -3.6301    0.9539   -0.9235 C   0  0  1  0  0  0  0  0  0  0  0  0
   -2.1229   -0.5730    0.0930 C   0  0  1  0  0  0  0  0  0  0  0  0
    0.2291   -0.5578    0.2371 C   0  0  2  0  0  0  0  0  0  0  0  0
   -3.8731    2.4511   -1.0847 C   0  0  0  0  0  0  0  0  0  0  0  0
    2.6781    0.1447    0.3146 C   0  0  1  0  0  0  0  0  0  0  0  0
    1.3427    0.0955    1.0398 C   0  0  0  0  0  0  0  0  0  0  0  0
    2.8710   -1.1162   -0.4804 C   0  0  0  0  0  0  0  0  0  0  0  0
    2.7594    1.3828   -0.5843 C   0  0  0  0  0  0  0  0  0  0  0  0
    1.8834   -1.9933   -0.6988 C   0  0  0  0  0  0  0  0  0  0  0  0
    1.2139    0.5836    2.2842 C   0  0  0  0  0  0  0  0  0  0  0  0
    4.2014   -1.4622   -0.9853 C   0  0  0  0  0  0  0  0  0  0  0  0
    3.0454    2.6243    0.2120 C   0  0  0  0  0  0  0  0  0  0  0  0
   -0.0609    0.5687    3.0531 C   0  0  0  0  0  0  0  0  0  0  0  0
    6.4952   -1.1477   -0.5423 C   0  0  0  0  0  0  0  0  0  0  0  0
   -4.5119   -1.8001   -1.0286 H   0  0  0  0  0  0  0  0  0  0  0  0
   -5.1808    0.7200    0.5785 H   0  0  0  0  0  0  0  0  0  0  0  0
   -3.4081   -1.1243    1.7527 H   0  0  0  0  0  0  0  0  0  0  0  0
   -3.3587    0.5471   -1.9073 H   0  0  0  0  0  0  0  0  0  0  0  0
   -1.8677   -0.9848   -0.8941 H   0  0  0  0  0  0  0  0  0  0  0  0
    0.0621    0.0959   -0.6317 H   0  0  0  0  0  0  0  0  0  0  0  0
   -4.0825    2.9187   -0.1167 H   0  0  0  0  0  0  0  0  0  0  0  0
   -4.7014    2.6522   -1.7707 H   0  0  0  0  0  0  0  0  0  0  0  0
    3.4620    0.1885    1.0825 H   0  0  0  0  0  0  0  0  0  0  0  0
   -5.6890   -1.3151    1.5077 H   0  0  0  0  0  0  0  0  0  0  0  0
   -5.6524   -0.0726   -2.1142 H   0  0  0  0  0  0  0  0  0  0  0  0
   -2.7201   -3.0372   -0.2347 H   0  0  0  0  0  0  0  0  0  0  0  0
    1.8298    1.5186   -1.1504 H   0  0  0  0  0  0  0  0  0  0  0  0
    3.5738    1.2940   -1.3137 H   0  0  0  0  0  0  0  0  0  0  0  0
    1.9998   -2.9392   -1.2111 H   0  0  0  0  0  0  0  0  0  0  0  0
    2.0744    1.0193    2.7847 H   0  0  0  0  0  0  0  0  0  0  0  0
   -2.8729    3.9974   -1.6948 H   0  0  0  0  0  0  0  0  0  0  0  0
   -0.8510    1.1394    2.5564 H   0  0  0  0  0  0  0  0  0  0  0  0
    0.1070    1.0671    4.0156 H   0  0  0  0  0  0  0  0  0  0  0  0
   -0.3854   -0.4481    3.2931 H   0  0  0  0  0  0  0  0  0  0  0  0
    2.6497    4.5290    0.0919 H   0  0  0  0  0  0  0  0  0  0  0  0
    6.7047   -2.2212   -0.5139 H   0  0  0  0  0  0  0  0  0  0  0  0
    6.7000   -0.7398   -1.5368 H   0  0  0  0  0  0  0  0  0  0  0  0
    7.1398   -0.6444    0.1832 H   0  0  0  0  0  0  0  0  0  0  0  0
  1 15  1  0  0  0  0
  1 16  1  0  0  0  0
  2 16  1  0  0  0  0
  2 17  1  0  0  0  0
  3 12  1  0  0  0  0
  3 38  1  0  0  0  0
  4 13  1  0  0  0  0
  4 39  1  0  0  0  0
  5 14  1  0  0  0  0
  5 40  1  0  0  0  0
  6 17  1  0  0  0  0
  6 23  1  0  0  0  0
  7 18  1  0  0  0  0
  7 45  1  0  0  0  0
  8 25  1  0  0  0  0
  8 28  1  0  0  0  0
  9 26  1  0  0  0  0
  9 49  1  0  0  0  0
 10 25  2  0  0  0  0
 11 26  2  0  0  0  0
 12 13  1  0  0  0  0
 12 14  1  0  0  0  0
 12 29  1  0  0  0  0
 13 15  1  0  0  0  0
 13 30  1  0  0  0  0
 14 16  1  0  0  0  0
 14 31  1  0  0  0  0
 15 18  1  0  0  0  0
 15 32  1  0  0  0  0
 16 33  1  0  0  0  0
 17 20  1  0  0  0  0
 17 34  1  0  0  0  0
 18 35  1  0  0  0  0
 18 36  1  0  0  0  0
 19 20  1  0  0  0  0
 19 21  1  0  0  0  0
 19 22  1  0  0  0  0
 19 37  1  0  0  0  0
 20 24  2  0  0  0  0
 21 23  2  0  0  0  0
 21 25  1  0  0  0  0
 22 26  1  0  0  0  0
 22 41  1  0  0  0  0
 22 42  1  0  0  0  0
 23 43  1  0  0  0  0
 24 27  1  0  0  0  0
 24 44  1  0  0  0  0
 27 46  1  0  0  0  0
 27 47  1  0  0  0  0
 27 48  1  0  0  0  0
 28 50  1  0  0  0  0
 28 51  1  0  0  0  0
 28 52  1  0  0  0  0
M  END
> <PUBCHEM_COMPOUND_CID>
24121278

> <PUBCHEM_CONFORMER_RMSD>
1

> <PUBCHEM_CONFORMER_DIVERSEORDER>
4
47
65
17
42
44
54
59
38
2
23
39
13
18
26
63
45
19
50
46
56
41
27
12
29
40
11
22
9
55
62
33
66
10
15
36
57
34
31
30
6
49
24
35
61
43
64
58
14
53
32
7
60
48
52
37
21
28
8
20
5
51
16
3
67
25
1

> <PUBCHEM_MMFF94_PARTIAL_CHARGES>
35
1 -0.56
10 -0.57
11 -0.57
12 0.28
13 0.28
14 0.28
15 0.28
16 0.56
17 0.7
18 0.28
19 0.28
2 -0.56
20 -0.28
21 -0.12
22 0.06
23 -0.07
24 -0.29
25 0.71
26 0.66
27 0.14
28 0.28
3 -0.68
38 0.4
39 0.4
4 -0.68
40 0.4
43 0.15
44 0.15
45 0.4
49 0.5
5 -0.68
6 -0.36
7 -0.68
8 -0.43
9 -0.65

> <PUBCHEM_EFFECTIVE_ROTOR_COUNT>
8.8

> <PUBCHEM_PHARMACOPHORE_FEATURES>
18
1 1 acceptor
1 10 acceptor
1 11 acceptor
1 2 acceptor
1 27 hydrophobe
1 3 acceptor
1 3 donor
1 4 acceptor
1 4 donor
1 5 acceptor
1 5 donor
1 6 acceptor
1 7 acceptor
1 7 donor
1 9 acceptor
3 9 11 26 anion
6 1 12 13 14 15 16 rings
6 6 17 19 20 21 23 rings

> <PUBCHEM_HEAVY_ATOM_COUNT>
28

> <PUBCHEM_ATOM_DEF_STEREO_COUNT>
7

> <PUBCHEM_ATOM_UDEF_STEREO_COUNT>
0

> <PUBCHEM_BOND_DEF_STEREO_COUNT>
1

> <PUBCHEM_BOND_UDEF_STEREO_COUNT>
0

> <PUBCHEM_ISOTOPIC_ATOM_COUNT>
0

> <PUBCHEM_COMPONENT_COUNT>
1

> <PUBCHEM_CACTVS_TAUTO_COUNT>
1

> <PUBCHEM_CONFORMER_ID>
01700FBE00000004

> <PUBCHEM_MMFF94_ENERGY>
69.4133

> <PUBCHEM_FEATURE_SELFOVERLAP>
91.518

> <PUBCHEM_SHAPE_FINGERPRINT>
10498660 4 18113606890438913653
10670039 82 17968373451471235853
12166972 35 18131353007810525266
12236239 1 14908177555870167419
13134695 92 17203318988593496328
13911987 19 17775294893234050078
14251757 17 18338515244484011664
15183329 4 18187928322604192834
15961568 22 17896881160554859572
17844677 252 18410580595633614451
17909252 39 18413113853265883332
17980427 23 17489320633596670984
1813 80 15123514717683548217
18769570 83 17604433982049890996
21033650 10 17316787386279436702
21709351 56 18413666911376573598
221357 26 18411134702044022093
22393880 68 18334572421461626206
23557571 272 18041844038056894065
23559900 14 18410851058172019643
44802255 64 17327202321612404044
46194498 28 18412265047041211860
508706 21 18114733854997135973
5281201 14 18412547608591978461
6669772 16 16914795189272544248
6823239 73 18335696135336012900
7471813 234 17203327776149188568
7495541 125 18335423465300553150
9709674 26 18336264638913853933

> <PUBCHEM_SHAPE_MULTIPOLES>
511.66
12.55
3.22
1.75
2.61
2.31
-1.14
-3.11
4.89
-1.02
0.81
-0.17
0.47
2.87

> <PUBCHEM_SHAPE_SELFOVERLAP>
1058.519

> <PUBCHEM_SHAPE_VOLUME>
286.6

> <PUBCHEM_COORDINATE_TYPE>
2
5
10

$$$$
