93473214
  -OEChem-08262005323D

 76 79  0     1  0  0  0  0  0999 V2000
   -2.8404    1.4220   -0.1160 O   0  0  0  0  0  0  0  0  0  0  0  0
   -2.8137   -1.4748   -0.8390 O   0  0  0  0  0  0  0  0  0  0  0  0
   -7.5805   -1.1062    3.2256 O   0  0  0  0  0  0  0  0  0  0  0  0
    3.1828    0.3905    1.1517 O   0  0  0  0  0  0  0  0  0  0  0  0
    1.7751    1.8919    0.0451 O   0  0  0  0  0  0  0  0  0  0  0  0
   -1.9322    2.7517   -1.7674 O   0  0  0  0  0  0  0  0  0  0  0  0
    4.6853   -1.0106    0.0455 O   0  0  0  0  0  0  0  0  0  0  0  0
   -1.8907   -1.0932   -2.9199 O   0  0  0  0  0  0  0  0  0  0  0  0
    5.2104    2.3520    1.3749 O   0  0  0  0  0  0  0  0  0  0  0  0
    7.9019    1.1537    1.4008 O   0  0  0  0  0  0  0  0  0  0  0  0
    8.2245   -0.6584   -0.8282 O   0  0  0  0  0  0  0  0  0  0  0  0
    4.8496   -3.0001   -1.8440 O   0  0  0  0  0  0  0  0  0  0  0  0
   -5.1370   -0.2155    0.4956 C   0  0  1  0  0  0  0  0  0  0  0  0
   -5.0709   -0.4864   -1.0287 C   0  0  1  0  0  0  0  0  0  0  0  0
   -4.6210    0.8526   -1.6770 C   0  0  2  0  0  0  0  0  0  0  0  0
   -5.1124    1.3092    0.6308 C   0  0  0  0  0  0  0  0  0  0  0  0
   -4.1915    1.7453   -0.5032 C   0  0  1  0  0  0  0  0  0  0  0  0
   -6.3622   -0.8354    1.1536 C   0  0  2  0  0  0  0  0  0  0  0  0
   -4.1407   -1.6633   -1.3705 C   0  0  0  0  0  0  0  0  0  0  0  0
   -5.7703    1.4909   -2.4616 C   0  0  0  0  0  0  0  0  0  0  0  0
   -6.4348   -0.4947    2.6473 C   0  0  0  0  0  0  0  0  0  0  0  0
   -6.3679   -2.3527    0.9588 C   0  0  0  0  0  0  0  0  0  0  0  0
   -1.8293    1.9470   -0.8538 C   0  0  0  0  0  0  0  0  0  0  0  0
   -0.4574   -0.0363    0.1599 C   0  0  1  0  0  0  0  0  0  0  0  0
   -0.5463    1.3744   -0.3807 C   0  0  0  0  0  0  0  0  0  0  0  0
   -1.7981   -1.2020   -1.7037 C   0  0  0  0  0  0  0  0  0  0  0  0
   -0.4834   -1.0941   -0.9624 C   0  0  0  0  0  0  0  0  0  0  0  0
    0.8291   -0.1767    0.9636 C   0  0  0  0  0  0  0  0  0  0  0  0
    2.0260    0.5046    0.3258 C   0  0  2  0  0  0  0  0  0  0  0  0
    0.5122    2.1988   -0.3920 C   0  0  0  0  0  0  0  0  0  0  0  0
    4.3765    0.3427    0.3706 C   0  0  2  0  0  0  0  0  0  0  0  0
    5.5031    0.9667    1.1940 C   0  0  1  0  0  0  0  0  0  0  0  0
    6.8525    0.8208    0.4905 C   0  0  2  0  0  0  0  0  0  0  0  0
    7.0765   -0.6148    0.0152 C   0  0  1  0  0  0  0  0  0  0  0  0
    5.8598   -1.1265   -0.7596 C   0  0  1  0  0  0  0  0  0  0  0  0
    0.8506   -0.8243    2.1397 C   0  0  0  0  0  0  0  0  0  0  0  0
    6.0114   -2.5950   -1.1432 C   0  0  0  0  0  0  0  0  0  0  0  0
   -0.3466   -1.4540    2.7618 C   0  0  0  0  0  0  0  0  0  0  0  0
   -4.2382   -0.6100    0.9890 H   0  0  0  0  0  0  0  0  0  0  0  0
   -6.0657   -0.7458   -1.4136 H   0  0  0  0  0  0  0  0  0  0  0  0
   -3.7964    0.6938   -2.3781 H   0  0  0  0  0  0  0  0  0  0  0  0
   -6.1126    1.7382    0.5017 H   0  0  0  0  0  0  0  0  0  0  0  0
   -4.7217    1.6142    1.6074 H   0  0  0  0  0  0  0  0  0  0  0  0
   -4.2759    2.8196   -0.7002 H   0  0  0  0  0  0  0  0  0  0  0  0
   -7.2765   -0.4507    0.6812 H   0  0  0  0  0  0  0  0  0  0  0  0
   -4.5070   -2.6002   -0.9464 H   0  0  0  0  0  0  0  0  0  0  0  0
   -4.1152   -1.8113   -2.4566 H   0  0  0  0  0  0  0  0  0  0  0  0
   -6.6517    1.6618   -1.8352 H   0  0  0  0  0  0  0  0  0  0  0  0
   -6.0698    0.8455   -3.2943 H   0  0  0  0  0  0  0  0  0  0  0  0
   -5.4608    2.4543   -2.8803 H   0  0  0  0  0  0  0  0  0  0  0  0
   -5.5466   -0.8574    3.1760 H   0  0  0  0  0  0  0  0  0  0  0  0
   -6.5216    0.5841    2.8066 H   0  0  0  0  0  0  0  0  0  0  0  0
   -5.4334   -2.8056    1.3069 H   0  0  0  0  0  0  0  0  0  0  0  0
   -7.1871   -2.8259    1.5109 H   0  0  0  0  0  0  0  0  0  0  0  0
   -6.5260   -2.6247   -0.0885 H   0  0  0  0  0  0  0  0  0  0  0  0
   -1.3198   -0.1842    0.8175 H   0  0  0  0  0  0  0  0  0  0  0  0
   -0.2619   -2.0927   -0.5640 H   0  0  0  0  0  0  0  0  0  0  0  0
    0.2917   -0.8809   -1.7103 H   0  0  0  0  0  0  0  0  0  0  0  0
   -7.5845   -0.8704    4.1689 H   0  0  0  0  0  0  0  0  0  0  0  0
    2.2129   -0.0039   -0.6309 H   0  0  0  0  0  0  0  0  0  0  0  0
    4.2404    0.9240   -0.5529 H   0  0  0  0  0  0  0  0  0  0  0  0
    0.4812    3.2316   -0.7137 H   0  0  0  0  0  0  0  0  0  0  0  0
    5.5407    0.5183    2.1939 H   0  0  0  0  0  0  0  0  0  0  0  0
    6.9376    1.5265   -0.3442 H   0  0  0  0  0  0  0  0  0  0  0  0
    7.2798   -1.2611    0.8779 H   0  0  0  0  0  0  0  0  0  0  0  0
    5.7083   -0.5495   -1.6821 H   0  0  0  0  0  0  0  0  0  0  0  0
    1.7723   -0.8905    2.7106 H   0  0  0  0  0  0  0  0  0  0  0  0
    6.0987   -3.2242   -0.2511 H   0  0  0  0  0  0  0  0  0  0  0  0
    6.8827   -2.7547   -1.7854 H   0  0  0  0  0  0  0  0  0  0  0  0
    5.1717    2.7694    0.4974 H   0  0  0  0  0  0  0  0  0  0  0  0
    7.8421    0.5538    2.1638 H   0  0  0  0  0  0  0  0  0  0  0  0
    8.0489   -0.0987   -1.6038 H   0  0  0  0  0  0  0  0  0  0  0  0
   -0.9224   -0.7154    3.3273 H   0  0  0  0  0  0  0  0  0  0  0  0
   -0.0208   -2.2285    3.4651 H   0  0  0  0  0  0  0  0  0  0  0  0
   -0.9953   -1.9539    2.0369 H   0  0  0  0  0  0  0  0  0  0  0  0
    4.9655   -3.9377   -2.0744 H   0  0  0  0  0  0  0  0  0  0  0  0
  1 17  1  0  0  0  0
  1 23  1  0  0  0  0
  2 19  1  0  0  0  0
  2 26  1  0  0  0  0
  3 21  1  0  0  0  0
  3 59  1  0  0  0  0
  4 29  1  0  0  0  0
  4 31  1  0  0  0  0
  5 29  1  0  0  0  0
  5 30  1  0  0  0  0
  6 23  2  0  0  0  0
  7 31  1  0  0  0  0
  7 35  1  0  0  0  0
  8 26  2  0  0  0  0
  9 32  1  0  0  0  0
  9 70  1  0  0  0  0
 10 33  1  0  0  0  0
 10 71  1  0  0  0  0
 11 34  1  0  0  0  0
 11 72  1  0  0  0  0
 12 37  1  0  0  0  0
 12 76  1  0  0  0  0
 13 14  1  0  0  0  0
 13 16  1  0  0  0  0
 13 18  1  0  0  0  0
 13 39  1  0  0  0  0
 14 15  1  0  0  0  0
 14 19  1  0  0  0  0
 14 40  1  0  0  0  0
 15 17  1  0  0  0  0
 15 20  1  0  0  0  0
 15 41  1  0  0  0  0
 16 17  1  0  0  0  0
 16 42  1  0  0  0  0
 16 43  1  0  0  0  0
 17 44  1  0  0  0  0
 18 21  1  0  0  0  0
 18 22  1  0  0  0  0
 18 45  1  0  0  0  0
 19 46  1  0  0  0  0
 19 47  1  0  0  0  0
 20 48  1  0  0  0  0
 20 49  1  0  0  0  0
 20 50  1  0  0  0  0
 21 51  1  0  0  0  0
 21 52  1  0  0  0  0
 22 53  1  0  0  0  0
 22 54  1  0  0  0  0
 22 55  1  0  0  0  0
 23 25  1  0  0  0  0
 24 25  1  0  0  0  0
 24 27  1  0  0  0  0
 24 28  1  0  0  0  0
 24 56  1  0  0  0  0
 25 30  2  0  0  0  0
 26 27  1  0  0  0  0
 27 57  1  0  0  0  0
 27 58  1  0  0  0  0
 28 29  1  0  0  0  0
 28 36  2  0  0  0  0
 29 60  1  0  0  0  0
 30 62  1  0  0  0  0
 31 32  1  0  0  0  0
 31 61  1  0  0  0  0
 32 33  1  0  0  0  0
 32 63  1  0  0  0  0
 33 34  1  0  0  0  0
 33 64  1  0  0  0  0
 34 35  1  0  0  0  0
 34 65  1  0  0  0  0
 35 37  1  0  0  0  0
 35 66  1  0  0  0  0
 36 38  1  0  0  0  0
 36 67  1  0  0  0  0
 37 68  1  0  0  0  0
 37 69  1  0  0  0  0
 38 73  1  0  0  0  0
 38 74  1  0  0  0  0
 38 75  1  0  0  0  0
M  END
> <PUBCHEM_COMPOUND_CID>
93473214

> <PUBCHEM_CONFORMER_RMSD>
1

> <PUBCHEM_CONFORMER_DIVERSEORDER>
1
45
8
6
22
31
11
41
7
10
28
44
33
15
17
38
13
2
46
14
21
18
35
39
5
3
25
23
40
47
29
30
36
37
32
19
12
27
16
24
48
20
9
4
42
34
43
26

> <PUBCHEM_MMFF94_PARTIAL_CHARGES>
38
1 -0.43
10 -0.68
11 -0.68
12 -0.68
17 0.28
19 0.28
2 -0.43
21 0.28
23 0.71
24 0.28
25 -0.12
26 0.66
27 0.06
28 -0.28
29 0.7
3 -0.68
30 -0.07
31 0.56
32 0.28
33 0.28
34 0.28
35 0.28
36 -0.29
37 0.28
38 0.14
4 -0.56
5 -0.36
59 0.4
6 -0.57
62 0.15
67 0.15
7 -0.56
70 0.4
71 0.4
72 0.4
76 0.4
8 -0.57
9 -0.68

> <PUBCHEM_EFFECTIVE_ROTOR_COUNT>
8

> <PUBCHEM_PHARMACOPHORE_FEATURES>
20
1 10 acceptor
1 10 donor
1 11 acceptor
1 11 donor
1 12 acceptor
1 12 donor
1 22 hydrophobe
1 3 acceptor
1 3 donor
1 38 hydrophobe
1 4 acceptor
1 5 acceptor
1 6 acceptor
1 7 acceptor
1 8 acceptor
1 9 acceptor
1 9 donor
5 13 14 15 16 17 rings
6 5 24 25 28 29 30 rings
6 7 31 32 33 34 35 rings

> <PUBCHEM_HEAVY_ATOM_COUNT>
38

> <PUBCHEM_ATOM_DEF_STEREO_COUNT>
12

> <PUBCHEM_ATOM_UDEF_STEREO_COUNT>
0

> <PUBCHEM_BOND_DEF_STEREO_COUNT>
1

> <PUBCHEM_BOND_UDEF_STEREO_COUNT>
0

> <PUBCHEM_ISOTOPIC_ATOM_COUNT>
0

> <PUBCHEM_COMPONENT_COUNT>
1

> <PUBCHEM_CACTVS_TAUTO_COUNT>
2

> <PUBCHEM_CONFORMER_ID>
059249BE00000001

> <PUBCHEM_MMFF94_ENERGY>
104.5786

> <PUBCHEM_FEATURE_SELFOVERLAP>
101.612

> <PUBCHEM_SHAPE_FINGERPRINT>
11991303 11 15140973863105918642
12422481 6 18131070420210522791
13782708 43 18336827473024789242
14068700 675 16443639003688790267
14294032 229 16370438947844185190
14747282 305 17988928830338965343
14856354 85 16660364779647627007
14955137 171 18411704292048764973
15021287 119 18412259566821723501
15183329 4 17917703596102875934
15352257 5 18202560666575682710
15361156 5 18409167749130810932
18608769 82 18113901580629249802
20105231 36 18409737252851313394
23522609 53 16629971052134482536
23559900 14 17774139327503005104
23569917 315 16660358148481932690
24771750 20 17972890438940092556
2747138 104 18113902679824821225
335507 130 18410857690028974780
3383291 50 18040720306877012971
404807 14 17125659211351429606
4073 2 18340763836743357122
4098825 35 18131063849427400690
4938544 92 17240755143880614677
6086070 43 15912744108931581529
9896288 288 18335421202211835305
999808 66 18408608063056966131

> <PUBCHEM_SHAPE_MULTIPOLES>
711.59
21.74
2.61
2.48
21.47
0.24
-1.15
-6.87
1.74
-4.48
0.57
0.84
-0.93
3.76

> <PUBCHEM_SHAPE_SELFOVERLAP>
1491.048

> <PUBCHEM_SHAPE_VOLUME>
395.9

> <PUBCHEM_COORDINATE_TYPE>
2
5
10

$$$$
