10674051
  -OEChem-08262005483D

 76 79  0     1  0  0  0  0  0999 V2000
    3.0675    3.5705   -0.9818 O   0  0  0  0  0  0  0  0  0  0  0  0
    2.9363   -0.5073    1.3127 O   0  0  0  0  0  0  0  0  0  0  0  0
    2.4904   -0.7026   -1.8848 O   0  0  0  0  0  0  0  0  0  0  0  0
   -3.3549   -1.3269    0.1405 O   0  0  0  0  0  0  0  0  0  0  0  0
   -3.6179    0.9630    0.5029 O   0  0  0  0  0  0  0  0  0  0  0  0
   -1.5831   -0.8409   -1.3044 O   0  0  0  0  0  0  0  0  0  0  0  0
    3.0102   -2.7401    1.8939 O   0  0  0  0  0  0  0  0  0  0  0  0
    2.5832   -2.9699   -1.4450 O   0  0  0  0  0  0  0  0  0  0  0  0
   -5.9107   -1.4063   -1.0719 O   0  0  0  0  0  0  0  0  0  0  0  0
   -7.6802    0.7151   -0.0477 O   0  0  0  0  0  0  0  0  0  0  0  0
   -6.3647    3.2853   -0.1866 O   0  0  0  0  0  0  0  0  0  0  0  0
   -2.2307    3.3265    0.7160 O   0  0  0  0  0  0  0  0  0  0  0  0
    4.0612    1.3892   -0.6349 C   0  0  1  0  0  0  0  0  0  0  0  0
    4.8020    0.9038    0.6361 C   0  0  1  0  0  0  0  0  0  0  0  0
    4.4918    2.0494    1.6239 C   0  0  2  0  0  0  0  0  0  0  0  0
    4.2864    2.9215   -0.6358 C   0  0  2  0  0  0  0  0  0  0  0  0
    4.7144    3.3059    0.7805 C   0  0  0  0  0  0  0  0  0  0  0  0
    4.4478    0.7483   -1.9991 C   0  0  2  0  0  0  0  0  0  0  0  0
    4.3650   -0.4649    1.1706 C   0  0  0  0  0  0  0  0  0  0  0  0
    5.3546    2.0461    2.8786 C   0  0  0  0  0  0  0  0  0  0  0  0
    3.8881   -0.6699   -2.2139 C   0  0  0  0  0  0  0  0  0  0  0  0
    5.9550    0.7315   -2.2752 C   0  0  0  0  0  0  0  0  0  0  0  0
    2.3935   -1.7136    1.6410 C   0  0  0  0  0  0  0  0  0  0  0  0
    0.2847   -2.3714    0.3943 C   0  0  2  0  0  0  0  0  0  0  0  0
    0.8846   -1.6224    1.6009 C   0  0  0  0  0  0  0  0  0  0  0  0
    1.9956   -1.8986   -1.4699 C   0  0  0  0  0  0  0  0  0  0  0  0
    0.6360   -1.7066   -0.9167 C   0  0  0  0  0  0  0  0  0  0  0  0
   -1.2295   -2.4373    0.5261 C   0  0  0  0  0  0  0  0  0  0  0  0
   -5.5310   -0.3807   -0.1545 C   0  0  1  0  0  0  0  0  0  0  0  0
   -4.0270   -0.1455   -0.2949 C   0  0  2  0  0  0  0  0  0  0  0  0
   -6.3234    0.8908   -0.4583 C   0  0  2  0  0  0  0  0  0  0  0  0
   -1.9393   -1.1838    0.0462 C   0  0  2  0  0  0  0  0  0  0  0  0
   -5.7529    2.0920    0.2958 C   0  0  1  0  0  0  0  0  0  0  0  0
   -4.2377    2.1858    0.1009 C   0  0  1  0  0  0  0  0  0  0  0  0
   -0.2705   -1.0412   -1.6474 C   0  0  0  0  0  0  0  0  0  0  0  0
   -3.6291    3.3067    0.9377 C   0  0  0  0  0  0  0  0  0  0  0  0
   -1.8422   -3.5352    0.9971 C   0  0  0  0  0  0  0  0  0  0  0  0
   -1.1236   -4.7665    1.4269 C   0  0  0  0  0  0  0  0  0  0  0  0
    2.9829    1.2326   -0.4938 H   0  0  0  0  0  0  0  0  0  0  0  0
    5.8847    0.8768    0.4603 H   0  0  0  0  0  0  0  0  0  0  0  0
    3.4361    2.0123    1.9248 H   0  0  0  0  0  0  0  0  0  0  0  0
    5.0448    3.2529   -1.3508 H   0  0  0  0  0  0  0  0  0  0  0  0
    4.1587    4.1613    1.1786 H   0  0  0  0  0  0  0  0  0  0  0  0
    5.7799    3.5674    0.7746 H   0  0  0  0  0  0  0  0  0  0  0  0
    3.9798    1.3766   -2.7704 H   0  0  0  0  0  0  0  0  0  0  0  0
    4.6888   -1.2576    0.4910 H   0  0  0  0  0  0  0  0  0  0  0  0
    4.8212   -0.6598    2.1471 H   0  0  0  0  0  0  0  0  0  0  0  0
    6.4212    2.0260    2.6309 H   0  0  0  0  0  0  0  0  0  0  0  0
    5.1644    2.9426    3.4781 H   0  0  0  0  0  0  0  0  0  0  0  0
    5.1367    1.1765    3.5058 H   0  0  0  0  0  0  0  0  0  0  0  0
    3.9865   -0.9482   -3.2699 H   0  0  0  0  0  0  0  0  0  0  0  0
    4.4507   -1.4005   -1.6251 H   0  0  0  0  0  0  0  0  0  0  0  0
    6.1501    0.3972   -3.3003 H   0  0  0  0  0  0  0  0  0  0  0  0
    6.4034    1.7225   -2.1664 H   0  0  0  0  0  0  0  0  0  0  0  0
    6.4794    0.0450   -1.6027 H   0  0  0  0  0  0  0  0  0  0  0  0
    2.8273    3.2832   -1.8790 H   0  0  0  0  0  0  0  0  0  0  0  0
    0.7103   -3.3808    0.3534 H   0  0  0  0  0  0  0  0  0  0  0  0
    0.5187   -2.0410    2.5471 H   0  0  0  0  0  0  0  0  0  0  0  0
    0.5878   -0.5655    1.6053 H   0  0  0  0  0  0  0  0  0  0  0  0
   -5.7728   -0.7484    0.8498 H   0  0  0  0  0  0  0  0  0  0  0  0
   -3.7836    0.0400   -1.3493 H   0  0  0  0  0  0  0  0  0  0  0  0
   -6.3491    1.0806   -1.5385 H   0  0  0  0  0  0  0  0  0  0  0  0
   -5.9999    2.0043    1.3610 H   0  0  0  0  0  0  0  0  0  0  0  0
   -1.6275   -0.3590    0.7002 H   0  0  0  0  0  0  0  0  0  0  0  0
   -3.9861    2.3739   -0.9518 H   0  0  0  0  0  0  0  0  0  0  0  0
   -0.0783   -0.6181   -2.6244 H   0  0  0  0  0  0  0  0  0  0  0  0
   -3.7953    3.1436    2.0078 H   0  0  0  0  0  0  0  0  0  0  0  0
   -4.0355    4.2841    0.6626 H   0  0  0  0  0  0  0  0  0  0  0  0
   -2.9261   -3.5730    1.0573 H   0  0  0  0  0  0  0  0  0  0  0  0
   -5.7073   -1.0974   -1.9713 H   0  0  0  0  0  0  0  0  0  0  0  0
   -8.1525    1.5430   -0.2413 H   0  0  0  0  0  0  0  0  0  0  0  0
   -6.1449    3.3755   -1.1296 H   0  0  0  0  0  0  0  0  0  0  0  0
   -1.7483   -5.3163    2.1396 H   0  0  0  0  0  0  0  0  0  0  0  0
   -0.1822   -4.5598    1.9436 H   0  0  0  0  0  0  0  0  0  0  0  0
   -0.9400   -5.4241    0.5721 H   0  0  0  0  0  0  0  0  0  0  0  0
   -1.8818    2.4516    0.9581 H   0  0  0  0  0  0  0  0  0  0  0  0
  1 16  1  0  0  0  0
  1 56  1  0  0  0  0
  2 19  1  0  0  0  0
  2 23  1  0  0  0  0
  3 21  1  0  0  0  0
  3 26  1  0  0  0  0
  4 30  1  0  0  0  0
  4 32  1  0  0  0  0
  5 30  1  0  0  0  0
  5 34  1  0  0  0  0
  6 32  1  0  0  0  0
  6 35  1  0  0  0  0
  7 23  2  0  0  0  0
  8 26  2  0  0  0  0
  9 29  1  0  0  0  0
  9 70  1  0  0  0  0
 10 31  1  0  0  0  0
 10 71  1  0  0  0  0
 11 33  1  0  0  0  0
 11 72  1  0  0  0  0
 12 36  1  0  0  0  0
 12 76  1  0  0  0  0
 13 14  1  0  0  0  0
 13 16  1  0  0  0  0
 13 18  1  0  0  0  0
 13 39  1  0  0  0  0
 14 15  1  0  0  0  0
 14 19  1  0  0  0  0
 14 40  1  0  0  0  0
 15 17  1  0  0  0  0
 15 20  1  0  0  0  0
 15 41  1  0  0  0  0
 16 17  1  0  0  0  0
 16 42  1  0  0  0  0
 17 43  1  0  0  0  0
 17 44  1  0  0  0  0
 18 21  1  0  0  0  0
 18 22  1  0  0  0  0
 18 45  1  0  0  0  0
 19 46  1  0  0  0  0
 19 47  1  0  0  0  0
 20 48  1  0  0  0  0
 20 49  1  0  0  0  0
 20 50  1  0  0  0  0
 21 51  1  0  0  0  0
 21 52  1  0  0  0  0
 22 53  1  0  0  0  0
 22 54  1  0  0  0  0
 22 55  1  0  0  0  0
 23 25  1  0  0  0  0
 24 25  1  0  0  0  0
 24 27  1  0  0  0  0
 24 28  1  0  0  0  0
 24 57  1  0  0  0  0
 25 58  1  0  0  0  0
 25 59  1  0  0  0  0
 26 27  1  0  0  0  0
 27 35  2  0  0  0  0
 28 32  1  0  0  0  0
 28 37  2  0  0  0  0
 29 30  1  0  0  0  0
 29 31  1  0  0  0  0
 29 60  1  0  0  0  0
 30 61  1  0  0  0  0
 31 33  1  0  0  0  0
 31 62  1  0  0  0  0
 32 64  1  0  0  0  0
 33 34  1  0  0  0  0
 33 63  1  0  0  0  0
 34 36  1  0  0  0  0
 34 65  1  0  0  0  0
 35 66  1  0  0  0  0
 36 67  1  0  0  0  0
 36 68  1  0  0  0  0
 37 38  1  0  0  0  0
 37 69  1  0  0  0  0
 38 73  1  0  0  0  0
 38 74  1  0  0  0  0
 38 75  1  0  0  0  0
M  END
> <PUBCHEM_COMPOUND_CID>
10674051

> <PUBCHEM_CONFORMER_RMSD>
1

> <PUBCHEM_CONFORMER_DIVERSEORDER>
2
43
72
16
36
49
31
89
96
88
80
33
85
53
44
95
51
64
83
19
78
65
11
94
98
25
58
1
60
71
76
63
30
92
54
8
23
79
52
17
61
81
55
50
46
38
7
35
91
39
73
18
69
42
10
68
56
66
26
29
48
6
27
87
32
59
101
5
90
3
47
86
82
45
75
13
62
12
77
28
4
57
41
14
74
34
21
100
22
84
15
9
40
97
99
37
24
70
67
93
20

> <PUBCHEM_MMFF94_PARTIAL_CHARGES>
38
1 -0.68
10 -0.68
11 -0.68
12 -0.68
16 0.28
19 0.28
2 -0.43
21 0.28
23 0.66
24 0.28
25 0.06
26 0.71
27 -0.12
28 -0.28
29 0.28
3 -0.43
30 0.56
31 0.28
32 0.7
33 0.28
34 0.28
35 -0.07
36 0.28
37 -0.29
38 0.14
4 -0.56
5 -0.56
56 0.4
6 -0.36
66 0.15
69 0.15
7 -0.57
70 0.4
71 0.4
72 0.4
76 0.4
8 -0.57
9 -0.68

> <PUBCHEM_EFFECTIVE_ROTOR_COUNT>
6.4

> <PUBCHEM_PHARMACOPHORE_FEATURES>
19
1 1 acceptor
1 1 donor
1 10 acceptor
1 10 donor
1 11 acceptor
1 11 donor
1 12 acceptor
1 12 donor
1 38 hydrophobe
1 4 acceptor
1 5 acceptor
1 6 acceptor
1 7 acceptor
1 8 acceptor
1 9 acceptor
1 9 donor
5 13 14 15 16 17 rings
6 5 29 30 31 33 34 rings
6 6 24 27 28 32 35 rings

> <PUBCHEM_HEAVY_ATOM_COUNT>
38

> <PUBCHEM_ATOM_DEF_STEREO_COUNT>
12

> <PUBCHEM_ATOM_UDEF_STEREO_COUNT>
0

> <PUBCHEM_BOND_DEF_STEREO_COUNT>
1

> <PUBCHEM_BOND_UDEF_STEREO_COUNT>
0

> <PUBCHEM_ISOTOPIC_ATOM_COUNT>
0

> <PUBCHEM_COMPONENT_COUNT>
1

> <PUBCHEM_CACTVS_TAUTO_COUNT>
1

> <PUBCHEM_CONFORMER_ID>
00A2DF8300000002

> <PUBCHEM_MMFF94_ENERGY>
104.2768

> <PUBCHEM_FEATURE_SELFOVERLAP>
96.537

> <PUBCHEM_SHAPE_FINGERPRINT>
10928967 22 9150631113816142724
12047536 79 14562524072692999199
12422481 6 16226312781336152822
12633257 1 17604976178594412274
14739800 52 18410567379555183707
15001296 14 18189051065515452809
15082195 135 17917435263710266951
15183329 4 11600005466373193777
15968369 153 17987233528846491277
15975801 100 17969793982040882756
16708801 149 18408604794508415069
19053607 189 18342175604740871836
20775530 9 8683621766274937936
23559900 14 18057044605833373463
245318 6 17895485807358055341
2838139 119 18343857823112686263
34797466 226 17632580427348240319
376196 1 18340775853582239191
3918712 181 18335422382827091381
4066623 53 16343707608533533672
44317340 157 17632304471066972775
508180 173 17979939124084626026
513532 50 18272933796088847100
5951187 136 18412265069138838844
9849439 229 18335137571055709099

> <PUBCHEM_SHAPE_MULTIPOLES>
711.59
16.13
5.09
2.18
16.63
0.33
-0.01
-15.07
-1.14
1.4
2.02
-4.33
0.39
0.57

> <PUBCHEM_SHAPE_SELFOVERLAP>
1487.978

> <PUBCHEM_SHAPE_VOLUME>
397.3

> <PUBCHEM_COORDINATE_TYPE>
2
5
10

$$$$
