102510590
  -OEChem-08262005423D

 82 84  0     1  0  0  0  0  0999 V2000
    4.6742    2.6324    2.4007 O   0  0  0  0  0  0  0  0  0  0  0  0
    2.8163   -0.3154   -0.7785 O   0  0  0  0  0  0  0  0  0  0  0  0
    7.4933    3.0302   -1.8856 O   0  0  0  0  0  0  0  0  0  0  0  0
   -4.4490    1.4050   -0.3187 O   0  0  0  0  0  0  0  0  0  0  0  0
   -3.3570   -0.0137    1.1776 O   0  0  0  0  0  0  0  0  0  0  0  0
    2.1331   -1.3528   -2.7229 O   0  0  0  0  0  0  0  0  0  0  0  0
   -2.5496   -2.1103    0.5423 O   0  0  0  0  0  0  0  0  0  0  0  0
   -8.0701    0.7559    1.5071 O   0  0  0  0  0  0  0  0  0  0  0  0
   -5.8511   -1.1437    1.8921 O   0  0  0  0  0  0  0  0  0  0  0  0
   -7.9826    1.8891   -1.1508 O   0  0  0  0  0  0  0  0  0  0  0  0
   -4.1384    2.7476   -2.6971 O   0  0  0  0  0  0  0  0  0  0  0  0
    0.3967   -4.1066   -1.5010 O   0  0  0  0  0  0  0  0  0  0  0  0
    1.7716   -3.6889    0.3142 O   0  0  0  0  0  0  0  0  0  0  0  0
    4.8244    1.4680    0.2726 C   0  0  1  0  0  0  0  0  0  0  0  0
    5.0522   -0.0286    0.0125 C   0  0  1  0  0  0  0  0  0  0  0  0
    4.7486   -0.6339    1.3915 C   0  0  2  0  0  0  0  0  0  0  0  0
    5.4429    1.6954    1.6604 C   0  0  2  0  0  0  0  0  0  0  0  0
    5.4322    0.3346    2.3650 C   0  0  0  0  0  0  0  0  0  0  0  0
    5.4410    2.3722   -0.7879 C   0  0  2  0  0  0  0  0  0  0  0  0
    4.1697   -0.5865   -1.0969 C   0  0  0  0  0  0  0  0  0  0  0  0
    5.2330   -2.0664    1.5610 C   0  0  0  0  0  0  0  0  0  0  0  0
    6.9550    2.1573   -0.9012 C   0  0  0  0  0  0  0  0  0  0  0  0
    5.1377    3.8400   -0.4841 C   0  0  0  0  0  0  0  0  0  0  0  0
    1.8841   -0.7564   -1.6843 C   0  0  0  0  0  0  0  0  0  0  0  0
    0.5005   -0.3911   -1.1999 C   0  0  0  0  0  0  0  0  0  0  0  0
    0.1731   -1.0368    0.1506 C   0  0  1  0  0  0  0  0  0  0  0  0
   -7.0254    0.4967    0.5679 C   0  0  2  0  0  0  0  0  0  0  0  0
   -5.7376    0.1588    1.3195 C   0  0  2  0  0  0  0  0  0  0  0  0
   -6.8491    1.7432   -0.2993 C   0  0  1  0  0  0  0  0  0  0  0  0
   -4.5291    0.1668    0.3834 C   0  0  1  0  0  0  0  0  0  0  0  0
   -5.5844    1.6355   -1.1546 C   0  0  1  0  0  0  0  0  0  0  0  0
   -0.9324   -0.2690    0.8579 C   0  0  0  0  0  0  0  0  0  0  0  0
   -2.3345   -0.6902    0.4480 C   0  0  2  0  0  0  0  0  0  0  0  0
   -0.2352   -2.4731   -0.0201 C   0  0  0  0  0  0  0  0  0  0  0  0
   -5.3240    2.9161   -1.9414 C   0  0  0  0  0  0  0  0  0  0  0  0
   -1.4863   -2.9008    0.1901 C   0  0  0  0  0  0  0  0  0  0  0  0
   -0.6443    0.6755    1.7679 C   0  0  0  0  0  0  0  0  0  0  0  0
    0.7724   -3.4812   -0.3565 C   0  0  0  0  0  0  0  0  0  0  0  0
    0.7411    1.0526    2.1620 C   0  0  0  0  0  0  0  0  0  0  0  0
    1.2874   -5.1273   -1.9634 C   0  0  0  0  0  0  0  0  0  0  0  0
    3.7489    1.6860    0.3280 H   0  0  0  0  0  0  0  0  0  0  0  0
    6.0960   -0.2516   -0.2298 H   0  0  0  0  0  0  0  0  0  0  0  0
    3.6689   -0.6087    1.5901 H   0  0  0  0  0  0  0  0  0  0  0  0
    6.4649    2.0735    1.6569 H   0  0  0  0  0  0  0  0  0  0  0  0
    4.9181    0.3525    3.3319 H   0  0  0  0  0  0  0  0  0  0  0  0
    6.4671    0.0177    2.5452 H   0  0  0  0  0  0  0  0  0  0  0  0
    4.9869    2.1543   -1.7627 H   0  0  0  0  0  0  0  0  0  0  0  0
    4.4241   -0.1179   -2.0542 H   0  0  0  0  0  0  0  0  0  0  0  0
    4.3162   -1.6683   -1.1930 H   0  0  0  0  0  0  0  0  0  0  0  0
    4.6972   -2.7446    0.8899 H   0  0  0  0  0  0  0  0  0  0  0  0
    5.0638   -2.4102    2.5868 H   0  0  0  0  0  0  0  0  0  0  0  0
    6.3034   -2.1556    1.3479 H   0  0  0  0  0  0  0  0  0  0  0  0
    7.5008    2.3675    0.0192 H   0  0  0  0  0  0  0  0  0  0  0  0
    7.1975    1.1439   -1.2277 H   0  0  0  0  0  0  0  0  0  0  0  0
    5.6779    4.1990    0.3979 H   0  0  0  0  0  0  0  0  0  0  0  0
    4.0662    3.9925   -0.3155 H   0  0  0  0  0  0  0  0  0  0  0  0
    5.4241    4.4800   -1.3259 H   0  0  0  0  0  0  0  0  0  0  0  0
    5.0725    2.7066    3.2847 H   0  0  0  0  0  0  0  0  0  0  0  0
    8.4483    2.8536   -1.9355 H   0  0  0  0  0  0  0  0  0  0  0  0
    0.4649    0.7047   -1.1470 H   0  0  0  0  0  0  0  0  0  0  0  0
   -0.2197   -0.6870   -1.9735 H   0  0  0  0  0  0  0  0  0  0  0  0
    1.0629   -1.0594    0.7910 H   0  0  0  0  0  0  0  0  0  0  0  0
   -7.3619   -0.3547   -0.0353 H   0  0  0  0  0  0  0  0  0  0  0  0
   -5.5834    0.8572    2.1505 H   0  0  0  0  0  0  0  0  0  0  0  0
   -6.8036    2.6335    0.3399 H   0  0  0  0  0  0  0  0  0  0  0  0
   -4.6245   -0.6606   -0.3347 H   0  0  0  0  0  0  0  0  0  0  0  0
   -5.6628    0.8073   -1.8721 H   0  0  0  0  0  0  0  0  0  0  0  0
   -2.4252   -0.4203   -0.6152 H   0  0  0  0  0  0  0  0  0  0  0  0
   -5.1709    3.7645   -1.2661 H   0  0  0  0  0  0  0  0  0  0  0  0
   -6.1475    3.1420   -2.6255 H   0  0  0  0  0  0  0  0  0  0  0  0
   -1.7984   -3.9356    0.1387 H   0  0  0  0  0  0  0  0  0  0  0  0
   -1.4472    1.1989    2.2792 H   0  0  0  0  0  0  0  0  0  0  0  0
   -7.7928    1.4982    2.0707 H   0  0  0  0  0  0  0  0  0  0  0  0
   -5.9880   -1.7802    1.1697 H   0  0  0  0  0  0  0  0  0  0  0  0
   -8.0241    1.1103   -1.7318 H   0  0  0  0  0  0  0  0  0  0  0  0
    1.1078    0.3988    2.9589 H   0  0  0  0  0  0  0  0  0  0  0  0
    0.7381    2.0774    2.5497 H   0  0  0  0  0  0  0  0  0  0  0  0
    1.4454    1.0463    1.3267 H   0  0  0  0  0  0  0  0  0  0  0  0
   -3.9895    3.5748   -3.1860 H   0  0  0  0  0  0  0  0  0  0  0  0
    0.8757   -5.5457   -2.8857 H   0  0  0  0  0  0  0  0  0  0  0  0
    1.3668   -5.9257   -1.2195 H   0  0  0  0  0  0  0  0  0  0  0  0
    2.2716   -4.7006   -2.1795 H   0  0  0  0  0  0  0  0  0  0  0  0
  1 17  1  0  0  0  0
  1 58  1  0  0  0  0
  2 20  1  0  0  0  0
  2 24  1  0  0  0  0
  3 22  1  0  0  0  0
  3 59  1  0  0  0  0
  4 30  1  0  0  0  0
  4 31  1  0  0  0  0
  5 30  1  0  0  0  0
  5 33  1  0  0  0  0
  6 24  2  0  0  0  0
  7 33  1  0  0  0  0
  7 36  1  0  0  0  0
  8 27  1  0  0  0  0
  8 73  1  0  0  0  0
  9 28  1  0  0  0  0
  9 74  1  0  0  0  0
 10 29  1  0  0  0  0
 10 75  1  0  0  0  0
 11 35  1  0  0  0  0
 11 79  1  0  0  0  0
 12 38  1  0  0  0  0
 12 40  1  0  0  0  0
 13 38  2  0  0  0  0
 14 15  1  0  0  0  0
 14 17  1  0  0  0  0
 14 19  1  0  0  0  0
 14 41  1  0  0  0  0
 15 16  1  0  0  0  0
 15 20  1  0  0  0  0
 15 42  1  0  0  0  0
 16 18  1  0  0  0  0
 16 21  1  0  0  0  0
 16 43  1  0  0  0  0
 17 18  1  0  0  0  0
 17 44  1  0  0  0  0
 18 45  1  0  0  0  0
 18 46  1  0  0  0  0
 19 22  1  0  0  0  0
 19 23  1  0  0  0  0
 19 47  1  0  0  0  0
 20 48  1  0  0  0  0
 20 49  1  0  0  0  0
 21 50  1  0  0  0  0
 21 51  1  0  0  0  0
 21 52  1  0  0  0  0
 22 53  1  0  0  0  0
 22 54  1  0  0  0  0
 23 55  1  0  0  0  0
 23 56  1  0  0  0  0
 23 57  1  0  0  0  0
 24 25  1  0  0  0  0
 25 26  1  0  0  0  0
 25 60  1  0  0  0  0
 25 61  1  0  0  0  0
 26 32  1  0  0  0  0
 26 34  1  0  0  0  0
 26 62  1  0  0  0  0
 27 28  1  0  0  0  0
 27 29  1  0  0  0  0
 27 63  1  0  0  0  0
 28 30  1  0  0  0  0
 28 64  1  0  0  0  0
 29 31  1  0  0  0  0
 29 65  1  0  0  0  0
 30 66  1  0  0  0  0
 31 35  1  0  0  0  0
 31 67  1  0  0  0  0
 32 33  1  0  0  0  0
 32 37  2  0  0  0  0
 33 68  1  0  0  0  0
 34 36  2  0  0  0  0
 34 38  1  0  0  0  0
 35 69  1  0  0  0  0
 35 70  1  0  0  0  0
 36 71  1  0  0  0  0
 37 39  1  0  0  0  0
 37 72  1  0  0  0  0
 39 76  1  0  0  0  0
 39 77  1  0  0  0  0
 39 78  1  0  0  0  0
 40 80  1  0  0  0  0
 40 81  1  0  0  0  0
 40 82  1  0  0  0  0
M  END
> <PUBCHEM_COMPOUND_CID>
102510590

> <PUBCHEM_CONFORMER_RMSD>
1.4

> <PUBCHEM_CONFORMER_DIVERSEORDER>
1
27
40
12
7
32
22
30
25
13
31
19
38
26
17
3
29
4
28
35
23
37
21
18
15
2
11
6
24
16
36
44
42
33
43
5
8
34
14
10
41
20
9
39

> <PUBCHEM_MMFF94_PARTIAL_CHARGES>
41
1 -0.68
10 -0.68
11 -0.68
12 -0.43
13 -0.57
17 0.28
2 -0.43
20 0.28
22 0.28
24 0.66
25 0.06
26 0.28
27 0.28
28 0.28
29 0.28
3 -0.68
30 0.56
31 0.28
32 -0.28
33 0.7
34 -0.12
35 0.28
36 -0.07
37 -0.29
38 0.71
39 0.14
4 -0.56
40 0.28
5 -0.56
58 0.4
59 0.4
6 -0.57
7 -0.36
71 0.15
72 0.15
73 0.4
74 0.4
75 0.4
79 0.4
8 -0.68
9 -0.68

> <PUBCHEM_EFFECTIVE_ROTOR_COUNT>
14.8

> <PUBCHEM_PHARMACOPHORE_FEATURES>
22
1 1 acceptor
1 1 donor
1 10 acceptor
1 10 donor
1 11 acceptor
1 11 donor
1 13 acceptor
1 23 hydrophobe
1 3 acceptor
1 3 donor
1 39 hydrophobe
1 4 acceptor
1 5 acceptor
1 6 acceptor
1 7 acceptor
1 8 acceptor
1 8 donor
1 9 acceptor
1 9 donor
5 14 15 16 17 18 rings
6 4 27 28 29 30 31 rings
6 7 26 32 33 34 36 rings

> <PUBCHEM_HEAVY_ATOM_COUNT>
40

> <PUBCHEM_ATOM_DEF_STEREO_COUNT>
12

> <PUBCHEM_ATOM_UDEF_STEREO_COUNT>
0

> <PUBCHEM_BOND_DEF_STEREO_COUNT>
1

> <PUBCHEM_BOND_UDEF_STEREO_COUNT>
0

> <PUBCHEM_ISOTOPIC_ATOM_COUNT>
0

> <PUBCHEM_COMPONENT_COUNT>
1

> <PUBCHEM_CACTVS_TAUTO_COUNT>
2

> <PUBCHEM_CONFORMER_ID>
061C2FFE00000001

> <PUBCHEM_MMFF94_ENERGY>
104.7515

> <PUBCHEM_FEATURE_SELFOVERLAP>
111.768

> <PUBCHEM_SHAPE_FINGERPRINT>
10 15 18113905987276270665
10369192 42 18336550499321537221
10939801 23 17822579412235520244
11991303 11 18268989954595216671
12422481 6 17749385923373915078
13911987 19 18272941535129596585
14040221 97 18337688506682995971
14117953 113 18341332219861809700
14294032 229 18340208621488264943
15183329 4 18131634499725187841
15781502 589 18187081729121881860
15840311 113 17749385932222110849
16096371 109 18336830771122362731
20715895 44 18411135818603396688
21033648 29 18341327907477390972
23559900 14 17988938764640141782
27425 322 18041555970474157394
354706 132 17835236028702453960
4112364 45 18187640297823253714
5109719 28 18335994116267402033
5219985 13 18411418453321913318
7918774 8 9151169887208250093

> <PUBCHEM_SHAPE_MULTIPOLES>
746.88
20.6
4.86
2.4
18.75
4.08
-0.18
-22.04
1.06
-4.06
-3.08
-0.95
-0.56
1.65

> <PUBCHEM_SHAPE_SELFOVERLAP>
1540.102

> <PUBCHEM_SHAPE_VOLUME>
425.7

> <PUBCHEM_COORDINATE_TYPE>
2
5
10

$$$$
