102510589
  -OEChem-08262005422D

152157  0     1  0  0  0  0  0999 V2000
   11.1911    0.4398    0.0000 O   0  0  0  0  0  0  0  0  0  0  0  0
    7.6001   -0.9601    0.0000 O   0  0  0  0  0  0  0  0  0  0  0  0
    9.2373   -4.4080    0.0000 O   0  0  0  0  0  0  0  0  0  0  0  0
    7.5053   -4.4080    0.0000 O   0  0  0  0  0  0  0  0  0  0  0  0
   12.5924   -0.5783    0.0000 O   0  0  0  0  0  0  0  0  0  0  0  0
    9.2373   -6.4080    0.0000 O   0  0  0  0  0  0  0  0  0  0  0  0
    6.4412   -2.2473    0.0000 O   0  0  0  0  0  0  0  0  0  0  0  0
    7.5053   -7.4080    0.0000 O   0  0  0  0  0  0  0  0  0  0  0  0
    5.7732   -6.4080    0.0000 O   0  0  0  0  0  0  0  0  0  0  0  0
   15.2605    2.8219    0.0000 O   0  0  0  0  0  0  0  0  0  0  0  0
   14.2920    4.2578    0.0000 O   0  0  0  0  0  0  0  0  0  0  0  0
    5.7732   -3.4080    0.0000 O   0  0  0  0  0  0  0  0  0  0  0  0
    4.4975    2.0488    0.0000 O   0  0  0  0  0  0  0  0  0  0  0  0
    6.0268    2.8620    0.0000 O   0  0  0  0  0  0  0  0  0  0  0  0
   16.0198    4.3787    0.0000 O   0  0  0  0  0  0  0  0  0  0  0  0
   15.4698   -0.1708    0.0000 O   0  0  0  0  0  0  0  0  0  0  0  0
    4.5580    3.7798    0.0000 O   0  0  0  0  0  0  0  0  0  0  0  0
   13.7421   -0.2916    0.0000 O   0  0  0  0  0  0  0  0  0  0  0  0
    2.9078   -0.4953    0.0000 O   0  0  0  0  0  0  0  0  0  0  0  0
   14.1525    6.2530    0.0000 O   0  0  0  0  0  0  0  0  0  0  0  0
    4.3766   -1.4132    0.0000 O   0  0  0  0  0  0  0  0  0  0  0  0
   15.8106    7.3713    0.0000 O   0  0  0  0  0  0  0  0  0  0  0  0
   17.6081    6.4946    0.0000 O   0  0  0  0  0  0  0  0  0  0  0  0
    7.0867    4.5581    0.0000 O   0  0  0  0  0  0  0  0  0  0  0  0
    6.1477    6.3240    0.0000 O   0  0  0  0  0  0  0  0  0  0  0  0
    4.1489    6.3938    0.0000 O   0  0  0  0  0  0  0  0  0  0  0  0
   18.5767    5.0587    0.0000 O   0  0  0  0  0  0  0  0  0  0  0  0
    2.6196    5.5806    0.0000 O   0  0  0  0  0  0  0  0  0  0  0  0
   10.1033   -1.9080    0.0000 C   0  0  1  0  0  0  0  0  0  0  0  0
    9.2943   -1.3202    0.0000 C   0  0  1  0  0  0  0  0  0  0  0  0
    9.6033   -0.3692    0.0000 C   0  0  2  0  0  0  0  0  0  0  0  0
   10.9124   -1.3202    0.0000 C   0  0  0  0  0  0  0  0  0  0  0  0
   10.6033   -0.3692    0.0000 C   0  0  2  0  0  0  0  0  0  0  0  0
   10.1033   -2.9080    0.0000 C   0  0  2  0  0  0  0  0  0  0  0  0
    8.3433   -1.6293    0.0000 C   0  0  0  0  0  0  0  0  0  0  0  0
    9.0156    0.4398    0.0000 C   0  0  0  0  0  0  0  0  0  0  0  0
    9.2373   -3.4080    0.0000 C   0  0  0  0  0  0  0  0  0  0  0  0
   10.9694   -3.4080    0.0000 C   0  0  0  0  0  0  0  0  0  0  0  0
   12.1856    0.3353    0.0000 C   0  0  0  0  0  0  0  0  0  0  0  0
    8.3713   -4.9080    0.0000 C   0  0  2  0  0  0  0  0  0  0  0  0
   12.7734    1.1443    0.0000 C   0  0  0  0  0  0  0  0  0  0  0  0
    6.6491   -1.2692    0.0000 C   0  0  0  0  0  0  0  0  0  0  0  0
    8.3713   -5.9080    0.0000 C   0  0  1  0  0  0  0  0  0  0  0  0
    7.5053   -6.4080    0.0000 C   0  0  2  0  0  0  0  0  0  0  0  0
   13.6025    1.7035    0.0000 C   0  0  1  0  0  0  0  0  0  0  0  0
    6.6392   -4.9080    0.0000 C   0  0  1  0  0  0  0  0  0  0  0  0
    6.6392   -5.9080    0.0000 C   0  0  1  0  0  0  0  0  0  0  0  0
    5.9059   -0.6000    0.0000 C   0  0  0  0  0  0  0  0  0  0  0  0
    5.4364    0.2829    0.0000 C   0  0  1  0  0  0  0  0  0  0  0  0
   13.5327    2.7011    0.0000 C   0  0  0  0  0  0  0  0  0  0  0  0
   14.5013    1.2651    0.0000 C   0  0  0  0  0  0  0  0  0  0  0  0
    5.7732   -4.4080    0.0000 C   0  0  0  0  0  0  0  0  0  0  0  0
   14.3618    3.2603    0.0000 C   0  0  1  0  0  0  0  0  0  0  0  0
    5.9664    1.1310    0.0000 C   0  0  0  0  0  0  0  0  0  0  0  0
    4.4371    0.3178    0.0000 C   0  0  0  0  0  0  0  0  0  0  0  0
   15.3303    1.8243    0.0000 C   0  0  0  0  0  0  0  0  0  0  0  0
   12.6339    3.1394    0.0000 C   0  0  0  0  0  0  0  0  0  0  0  0
    5.4969    2.0139    0.0000 C   0  0  1  0  0  0  0  0  0  0  0  0
   14.5710    0.2676    0.0000 C   0  0  0  0  0  0  0  0  0  0  0  0
    3.9676    1.2008    0.0000 C   0  0  0  0  0  0  0  0  0  0  0  0
    6.9658    1.0961    0.0000 C   0  0  0  0  0  0  0  0  0  0  0  0
   15.1210    4.8170    0.0000 C   0  0  2  0  0  0  0  0  0  0  0  0
    3.9071   -0.5302    0.0000 C   0  0  0  0  0  0  0  0  0  0  0  0
   15.0513    5.8146    0.0000 C   0  0  1  0  0  0  0  0  0  0  0  0
   11.8049    2.5802    0.0000 C   0  0  0  0  0  0  0  0  0  0  0  0
    5.5573    3.7449    0.0000 C   0  0  2  0  0  0  0  0  0  0  0  0
   15.8803    6.3738    0.0000 C   0  0  2  0  0  0  0  0  0  0  0  0
   16.7791    5.9354    0.0000 C   0  0  1  0  0  0  0  0  0  0  0  0
   16.8489    4.9378    0.0000 C   0  0  1  0  0  0  0  0  0  0  0  0
    6.0873    4.5930    0.0000 C   0  0  1  0  0  0  0  0  0  0  0  0
    5.6178    5.4759    0.0000 C   0  0  2  0  0  0  0  0  0  0  0  0
    7.4352    0.2131    0.0000 C   0  0  0  0  0  0  0  0  0  0  0  0
    4.6184    5.5108    0.0000 C   0  0  1  0  0  0  0  0  0  0  0  0
    4.0885    4.6628    0.0000 C   0  0  1  0  0  0  0  0  0  0  0  0
   17.7477    4.4995    0.0000 C   0  0  0  0  0  0  0  0  0  0  0  0
    3.0891    4.6977    0.0000 C   0  0  0  0  0  0  0  0  0  0  0  0
   15.5396   -1.1684    0.0000 C   0  0  0  0  0  0  0  0  0  0  0  0
    2.3778   -1.3434    0.0000 C   0  0  0  0  0  0  0  0  0  0  0  0
   10.8607   -2.2939    0.0000 H   0  0  0  0  0  0  0  0  0  0  0  0
    9.1973   -1.9326    0.0000 H   0  0  0  0  0  0  0  0  0  0  0  0
    9.8848    0.1832    0.0000 H   0  0  0  0  0  0  0  0  0  0  0  0
   11.2224   -1.8572    0.0000 H   0  0  0  0  0  0  0  0  0  0  0  0
   11.4788   -1.0681    0.0000 H   0  0  0  0  0  0  0  0  0  0  0  0
   11.2157   -0.4662    0.0000 H   0  0  0  0  0  0  0  0  0  0  0  0
   10.6403   -2.5980    0.0000 H   0  0  0  0  0  0  0  0  0  0  0  0
    7.8547   -2.0110    0.0000 H   0  0  0  0  0  0  0  0  0  0  0  0
    8.6343   -2.1767    0.0000 H   0  0  0  0  0  0  0  0  0  0  0  0
    9.5172    0.8042    0.0000 H   0  0  0  0  0  0  0  0  0  0  0  0
    8.6511    0.9414    0.0000 H   0  0  0  0  0  0  0  0  0  0  0  0
    8.5140    0.0754    0.0000 H   0  0  0  0  0  0  0  0  0  0  0  0
    9.0253   -2.8254    0.0000 H   0  0  0  0  0  0  0  0  0  0  0  0
    8.6267   -3.5157    0.0000 H   0  0  0  0  0  0  0  0  0  0  0  0
   10.6594   -3.9450    0.0000 H   0  0  0  0  0  0  0  0  0  0  0  0
   11.5063   -3.7180    0.0000 H   0  0  0  0  0  0  0  0  0  0  0  0
   11.2794   -2.8711    0.0000 H   0  0  0  0  0  0  0  0  0  0  0  0
    8.3713   -4.2880    0.0000 H   0  0  0  0  0  0  0  0  0  0  0  0
   12.6587    1.7536    0.0000 H   0  0  0  0  0  0  0  0  0  0  0  0
   13.2041    0.6983    0.0000 H   0  0  0  0  0  0  0  0  0  0  0  0
    8.3713   -6.5280    0.0000 H   0  0  0  0  0  0  0  0  0  0  0  0
    6.9683   -6.7180    0.0000 H   0  0  0  0  0  0  0  0  0  0  0  0
   13.6457    1.0850    0.0000 H   0  0  0  0  0  0  0  0  0  0  0  0
    6.6392   -4.2880    0.0000 H   0  0  0  0  0  0  0  0  0  0  0  0
    6.6392   -6.5280    0.0000 H   0  0  0  0  0  0  0  0  0  0  0  0
    5.2880   -0.6505    0.0000 H   0  0  0  0  0  0  0  0  0  0  0  0
    6.3945   -0.2183    0.0000 H   0  0  0  0  0  0  0  0  0  0  0  0
    6.0561    0.2613    0.0000 H   0  0  0  0  0  0  0  0  0  0  0  0
    5.1626   -4.3004    0.0000 H   0  0  0  0  0  0  0  0  0  0  0  0
    5.5612   -4.9906    0.0000 H   0  0  0  0  0  0  0  0  0  0  0  0
    9.7742   -6.0980    0.0000 H   0  0  0  0  0  0  0  0  0  0  0  0
   13.8045    3.5320    0.0000 H   0  0  0  0  0  0  0  0  0  0  0  0
    6.9683   -7.7180    0.0000 H   0  0  0  0  0  0  0  0  0  0  0  0
    5.2363   -6.0980    0.0000 H   0  0  0  0  0  0  0  0  0  0  0  0
   15.8876    1.5525    0.0000 H   0  0  0  0  0  0  0  0  0  0  0  0
   12.5907    3.7579    0.0000 H   0  0  0  0  0  0  0  0  0  0  0  0
    6.1165    1.9923    0.0000 H   0  0  0  0  0  0  0  0  0  0  0  0
    3.3480    1.2224    0.0000 H   0  0  0  0  0  0  0  0  0  0  0  0
    7.2943    1.6219    0.0000 H   0  0  0  0  0  0  0  0  0  0  0  0
   15.1643    4.1985    0.0000 H   0  0  0  0  0  0  0  0  0  0  0  0
    5.2363   -3.0980    0.0000 H   0  0  0  0  0  0  0  0  0  0  0  0
   14.5373    5.4679    0.0000 H   0  0  0  0  0  0  0  0  0  0  0  0
   11.4582    3.0942    0.0000 H   0  0  0  0  0  0  0  0  0  0  0  0
   11.2909    2.2336    0.0000 H   0  0  0  0  0  0  0  0  0  0  0  0
   12.1516    2.0662    0.0000 H   0  0  0  0  0  0  0  0  0  0  0  0
    6.1770    3.7233    0.0000 H   0  0  0  0  0  0  0  0  0  0  0  0
   15.3231    6.6456    0.0000 H   0  0  0  0  0  0  0  0  0  0  0  0
   16.7359    6.5539    0.0000 H   0  0  0  0  0  0  0  0  0  0  0  0
   16.8921    4.3194    0.0000 H   0  0  0  0  0  0  0  0  0  0  0  0
    6.4158    5.1188    0.0000 H   0  0  0  0  0  0  0  0  0  0  0  0
    5.3267    6.0233    0.0000 H   0  0  0  0  0  0  0  0  0  0  0  0
    6.8878   -0.0779    0.0000 H   0  0  0  0  0  0  0  0  0  0  0  0
    7.7263   -0.3343    0.0000 H   0  0  0  0  0  0  0  0  0  0  0  0
    7.9827    0.5042    0.0000 H   0  0  0  0  0  0  0  0  0  0  0  0
    3.9988    5.5324    0.0000 H   0  0  0  0  0  0  0  0  0  0  0  0
    3.7599    4.1370    0.0000 H   0  0  0  0  0  0  0  0  0  0  0  0
   17.3832    3.9979    0.0000 H   0  0  0  0  0  0  0  0  0  0  0  0
   18.1784    4.0535    0.0000 H   0  0  0  0  0  0  0  0  0  0  0  0
   14.1092    6.8714    0.0000 H   0  0  0  0  0  0  0  0  0  0  0  0
    2.4994    4.5061    0.0000 H   0  0  0  0  0  0  0  0  0  0  0  0
    3.1754    4.0837    0.0000 H   0  0  0  0  0  0  0  0  0  0  0  0
   14.9211   -1.2116    0.0000 H   0  0  0  0  0  0  0  0  0  0  0  0
   15.5828   -1.7869    0.0000 H   0  0  0  0  0  0  0  0  0  0  0  0
   16.1581   -1.1251    0.0000 H   0  0  0  0  0  0  0  0  0  0  0  0
   16.3246    7.7180    0.0000 H   0  0  0  0  0  0  0  0  0  0  0  0
   17.5649    7.1131    0.0000 H   0  0  0  0  0  0  0  0  0  0  0  0
    7.4152    5.0838    0.0000 H   0  0  0  0  0  0  0  0  0  0  0  0
    5.8566    6.8714    0.0000 H   0  0  0  0  0  0  0  0  0  0  0  0
    4.4775    6.9196    0.0000 H   0  0  0  0  0  0  0  0  0  0  0  0
    1.8520   -1.0148    0.0000 H   0  0  0  0  0  0  0  0  0  0  0  0
    2.0493   -1.8692    0.0000 H   0  0  0  0  0  0  0  0  0  0  0  0
    2.9036   -1.6719    0.0000 H   0  0  0  0  0  0  0  0  0  0  0  0
   19.1340    4.7869    0.0000 H   0  0  0  0  0  0  0  0  0  0  0  0
    2.0000    5.6022    0.0000 H   0  0  0  0  0  0  0  0  0  0  0  0
 33  1  1  1  0  0  0
  1 39  1  0  0  0  0
  2 35  1  0  0  0  0
  2 42  1  0  0  0  0
  3 37  1  0  0  0  0
 40  3  1  1  0  0  0
  4 40  1  0  0  0  0
  4 46  1  0  0  0  0
  5 39  2  0  0  0  0
 43  6  1  6  0  0  0
  6109  1  0  0  0  0
  7 42  2  0  0  0  0
 44  8  1  1  0  0  0
  8111  1  0  0  0  0
 47  9  1  6  0  0  0
  9112  1  0  0  0  0
 10 53  1  0  0  0  0
 10 56  1  0  0  0  0
 53 11  1  6  0  0  0
 62 11  1  1  0  0  0
 12 52  1  0  0  0  0
 12119  1  0  0  0  0
 13 58  1  0  0  0  0
 13 60  1  0  0  0  0
 58 14  1  1  0  0  0
 66 14  1  6  0  0  0
 15 62  1  0  0  0  0
 15 69  1  0  0  0  0
 16 59  1  0  0  0  0
 16 77  1  0  0  0  0
 17 66  1  0  0  0  0
 17 74  1  0  0  0  0
 18 59  2  0  0  0  0
 19 63  1  0  0  0  0
 19 78  1  0  0  0  0
 64 20  1  6  0  0  0
 20137  1  0  0  0  0
 21 63  2  0  0  0  0
 67 22  1  1  0  0  0
 22143  1  0  0  0  0
 68 23  1  6  0  0  0
 23144  1  0  0  0  0
 70 24  1  1  0  0  0
 24145  1  0  0  0  0
 71 25  1  6  0  0  0
 25146  1  0  0  0  0
 73 26  1  1  0  0  0
 26147  1  0  0  0  0
 27 75  1  0  0  0  0
 27151  1  0  0  0  0
 28 76  1  0  0  0  0
 28152  1  0  0  0  0
 29 30  1  0  0  0  0
 29 32  1  0  0  0  0
 29 34  1  0  0  0  0
 29 79  1  6  0  0  0
 30 31  1  0  0  0  0
 30 35  1  6  0  0  0
 30 80  1  0  0  0  0
 31 33  1  0  0  0  0
 31 36  1  1  0  0  0
 31 81  1  0  0  0  0
 32 33  1  0  0  0  0
 32 82  1  0  0  0  0
 32 83  1  0  0  0  0
 33 84  1  0  0  0  0
 34 37  1  0  0  0  0
 34 38  1  1  0  0  0
 34 85  1  0  0  0  0
 35 86  1  0  0  0  0
 35 87  1  0  0  0  0
 36 88  1  0  0  0  0
 36 89  1  0  0  0  0
 36 90  1  0  0  0  0
 37 91  1  0  0  0  0
 37 92  1  0  0  0  0
 38 93  1  0  0  0  0
 38 94  1  0  0  0  0
 38 95  1  0  0  0  0
 39 41  1  0  0  0  0
 40 43  1  0  0  0  0
 40 96  1  0  0  0  0
 45 41  1  1  0  0  0
 41 97  1  0  0  0  0
 41 98  1  0  0  0  0
 42 48  1  0  0  0  0
 43 44  1  0  0  0  0
 43 99  1  0  0  0  0
 44 47  1  0  0  0  0
 44100  1  0  0  0  0
 45 50  1  0  0  0  0
 45 51  1  0  0  0  0
 45101  1  0  0  0  0
 46 47  1  0  0  0  0
 46 52  1  1  0  0  0
 46102  1  0  0  0  0
 47103  1  0  0  0  0
 49 48  1  6  0  0  0
 48104  1  0  0  0  0
 48105  1  0  0  0  0
 49 54  1  0  0  0  0
 49 55  1  0  0  0  0
 49106  1  0  0  0  0
 50 53  1  0  0  0  0
 50 57  2  0  0  0  0
 51 56  2  0  0  0  0
 51 59  1  0  0  0  0
 52107  1  0  0  0  0
 52108  1  0  0  0  0
 53110  1  0  0  0  0
 54 58  1  0  0  0  0
 54 61  2  0  0  0  0
 55 60  2  0  0  0  0
 55 63  1  0  0  0  0
 56113  1  0  0  0  0
 57 65  1  0  0  0  0
 57114  1  0  0  0  0
 58115  1  0  0  0  0
 60116  1  0  0  0  0
 61 72  1  0  0  0  0
 61117  1  0  0  0  0
 62 64  1  0  0  0  0
 62118  1  0  0  0  0
 64 67  1  0  0  0  0
 64120  1  0  0  0  0
 65121  1  0  0  0  0
 65122  1  0  0  0  0
 65123  1  0  0  0  0
 66 70  1  0  0  0  0
 66124  1  0  0  0  0
 67 68  1  0  0  0  0
 67125  1  0  0  0  0
 68 69  1  0  0  0  0
 68126  1  0  0  0  0
 69 75  1  1  0  0  0
 69127  1  0  0  0  0
 70 71  1  0  0  0  0
 70128  1  0  0  0  0
 71 73  1  0  0  0  0
 71129  1  0  0  0  0
 72130  1  0  0  0  0
 72131  1  0  0  0  0
 72132  1  0  0  0  0
 73 74  1  0  0  0  0
 73133  1  0  0  0  0
 74 76  1  6  0  0  0
 74134  1  0  0  0  0
 75135  1  0  0  0  0
 75136  1  0  0  0  0
 76138  1  0  0  0  0
 76139  1  0  0  0  0
 77140  1  0  0  0  0
 77141  1  0  0  0  0
 77142  1  0  0  0  0
 78148  1  0  0  0  0
 78149  1  0  0  0  0
 78150  1  0  0  0  0
M  END
> <PUBCHEM_COMPOUND_CID>
102510589

> <PUBCHEM_COMPOUND_CANONICALIZED>
1

> <PUBCHEM_CACTVS_COMPLEXITY>
2170

> <PUBCHEM_CACTVS_HBOND_ACCEPTOR>
28

> <PUBCHEM_CACTVS_HBOND_DONOR>
12

> <PUBCHEM_CACTVS_ROTATABLE_BOND>
24

> <PUBCHEM_CACTVS_SUBSKEYS>
AAADcfB8PgAAAAAAAAAAAAAAAAAAAYAAAAAkSJECAAAAAAAAAAAAGgAACAAADRSwgAMCCAAABgCIAiDSCAAACAAgIAAACAEAAEgRFBIAIQAiUAAFgAAPIIPI5vwOgAAAAAAAAAAAAAAAAAAAAYAADAAAAA==

> <PUBCHEM_IUPAC_OPENEYE_NAME>
methyl (4S,5E,6S)-5-ethylidene-4-[2-[[(1S,2R,3S,5S)-3-[2-[(2S,3E,4S)-3-ethylidene-5-methoxycarbonyl-2-[(2R,3R,4S,5S,6R)-3,4,5-trihydroxy-6-(hydroxymethyl)tetrahydropyran-2-yl]oxy-4H-pyran-4-yl]acetyl]oxy-2-methyl-5-[(1R)-1-methyl-2-[(2R,3R,4S,5S,6R)-3,4,5-trihydroxy-6-(hydroxymethyl)tetrahydropyran-2-yl]oxy-ethyl]cyclopentyl]methoxy]-2-oxo-ethyl]-6-[(2R,3R,4S,5S,6R)-3,4,5-trihydroxy-6-(hydroxymethyl)tetrahydropyran-2-yl]oxy-4H-pyran-3-carboxylate

> <PUBCHEM_IUPAC_CAS_NAME>
(4S,5E,6S)-5-ethylidene-4-[2-[[(1S,2R,3S,5S)-3-[2-[(2S,3E,4S)-3-ethylidene-5-methoxycarbonyl-2-[[(2R,3R,4S,5S,6R)-3,4,5-trihydroxy-6-(hydroxymethyl)-2-oxanyl]oxy]-4H-pyran-4-yl]-1-oxoethoxy]-2-methyl-5-[(2R)-1-[[(2R,3R,4S,5S,6R)-3,4,5-trihydroxy-6-(hydroxymethyl)-2-oxanyl]oxy]propan-2-yl]cyclopentyl]methoxy]-2-oxoethyl]-6-[[(2R,3R,4S,5S,6R)-3,4,5-trihydroxy-6-(hydroxymethyl)-2-oxanyl]oxy]-4H-pyran-3-carboxylic acid methyl ester

> <PUBCHEM_IUPAC_NAME_MARKUP>
methyl (4<I>S</I>,5<I>E</I>,6<I>S</I>)-5-ethylidene-4-[2-[[(1<I>S</I>,2<I>R</I>,3<I>S</I>,5<I>S</I>)-3-[2-[(2<I>S</I>,3<I>E</I>,4<I>S</I>)-3-ethylidene-5-methoxycarbonyl-2-[(2<I>R</I>,3<I>R</I>,4<I>S</I>,5<I>S</I>,6<I>R</I>)-3,4,5-trihydroxy-6-(hydroxymethyl)oxan-2-yl]oxy-4<I>H</I>-pyran-4-yl]acetyl]oxy-2-methyl-5-[(2<I>R</I>)-1-[(2<I>R</I>,3<I>R</I>,4<I>S</I>,5<I>S</I>,6<I>R</I>)-3,4,5-trihydroxy-6-(hydroxymethyl)oxan-2-yl]oxypropan-2-yl]cyclopentyl]methoxy]-2-oxoethyl]-6-[(2<I>R</I>,3<I>R</I>,4<I>S</I>,5<I>S</I>,6<I>R</I>)-3,4,5-trihydroxy-6-(hydroxymethyl)oxan-2-yl]oxy-4<I>H</I>-pyran-3-carboxylate

> <PUBCHEM_IUPAC_NAME>
methyl (4S,5E,6S)-5-ethylidene-4-[2-[[(1S,2R,3S,5S)-3-[2-[(2S,3E,4S)-3-ethylidene-5-methoxycarbonyl-2-[(2R,3R,4S,5S,6R)-3,4,5-trihydroxy-6-(hydroxymethyl)oxan-2-yl]oxy-4H-pyran-4-yl]acetyl]oxy-2-methyl-5-[(2R)-1-[(2R,3R,4S,5S,6R)-3,4,5-trihydroxy-6-(hydroxymethyl)oxan-2-yl]oxypropan-2-yl]cyclopentyl]methoxy]-2-oxoethyl]-6-[(2R,3R,4S,5S,6R)-3,4,5-trihydroxy-6-(hydroxymethyl)oxan-2-yl]oxy-4H-pyran-3-carboxylate

> <PUBCHEM_IUPAC_SYSTEMATIC_NAME>
methyl (4S,5E,6S)-5-ethylidene-4-[2-[[(1S,2R,3S,5S)-3-[2-[(2S,3E,4S)-3-ethylidene-2-[(2R,3R,4S,5S,6R)-6-(hydroxymethyl)-3,4,5-tris(oxidanyl)oxan-2-yl]oxy-5-methoxycarbonyl-4H-pyran-4-yl]ethanoyloxy]-5-[(2R)-1-[(2R,3R,4S,5S,6R)-6-(hydroxymethyl)-3,4,5-tris(oxidanyl)oxan-2-yl]oxypropan-2-yl]-2-methyl-cyclopentyl]methoxy]-2-oxidanylidene-ethyl]-6-[(2R,3R,4S,5S,6R)-6-(hydroxymethyl)-3,4,5-tris(oxidanyl)oxan-2-yl]oxy-4H-pyran-3-carboxylate

> <PUBCHEM_IUPAC_TRADITIONAL_NAME>
(4S,5E,6S)-4-[2-[[(1S,2R,3S,5S)-3-[2-[(2S,3E,4S)-5-carbomethoxy-3-ethylidene-2-[(2R,3R,4S,5S,6R)-3,4,5-trihydroxy-6-methylol-tetrahydropyran-2-yl]oxy-4H-pyran-4-yl]acetyl]oxy-2-methyl-5-[(1R)-1-methyl-2-[(2R,3R,4S,5S,6R)-3,4,5-trihydroxy-6-methylol-tetrahydropyran-2-yl]oxy-ethyl]cyclopentyl]methoxy]-2-keto-ethyl]-5-ethylidene-6-[(2R,3R,4S,5S,6R)-3,4,5-trihydroxy-6-methylol-tetrahydropyran-2-yl]oxy-4H-pyran-3-carboxylic acid methyl ester

> <PUBCHEM_IUPAC_INCHI>
InChI=1S/C50H74O28/c1-7-21-24(27(44(65)67-5)17-71-46(21)77-49-42(63)39(60)36(57)31(13-52)75-49)10-33(54)69-16-26-20(4)29(9-23(26)19(3)15-70-48-41(62)38(59)35(56)30(12-51)74-48)73-34(55)11-25-22(8-2)47(72-18-28(25)45(66)68-6)78-50-43(64)40(61)37(58)32(14-53)76-50/h7-8,17-20,23-26,29-32,35-43,46-53,56-64H,9-16H2,1-6H3/b21-7+,22-8+/t19-,20+,23-,24-,25-,26+,29-,30+,31+,32+,35+,36+,37+,38-,39-,40-,41+,42+,43+,46-,47-,48+,49-,50-/m0/s1

> <PUBCHEM_IUPAC_INCHIKEY>
IVSNJPCWTDNKHQ-UKPWFQCWSA-N

> <PUBCHEM_XLOGP3_AA>
-3.6

> <PUBCHEM_EXACT_MASS>
1122.436662

> <PUBCHEM_MOLECULAR_FORMULA>
C50H74O28

> <PUBCHEM_MOLECULAR_WEIGHT>
1123.1

> <PUBCHEM_OPENEYE_CAN_SMILES>
CC=C1C(C(=COC1OC2C(C(C(C(O2)CO)O)O)O)C(=O)OC)CC(=O)OCC3C(C(CC3C(C)COC4C(C(C(C(O4)CO)O)O)O)OC(=O)CC5C(=COC(C5=CC)OC6C(C(C(C(O6)CO)O)O)O)C(=O)OC)C

> <PUBCHEM_OPENEYE_ISO_SMILES>
C/C=C/1\[C@@H](C(=CO[C@H]1O[C@H]2[C@@H]([C@H]([C@@H]([C@H](O2)CO)O)O)O)C(=O)OC)CC(=O)OC[C@@H]3[C@H]([C@H](C[C@H]3[C@@H](C)CO[C@H]4[C@@H]([C@H]([C@@H]([C@H](O4)CO)O)O)O)OC(=O)C[C@@H]\5C(=CO[C@H](/C5=C/C)O[C@H]6[C@@H]([C@H]([C@@H]([C@H](O6)CO)O)O)O)C(=O)OC)C

> <PUBCHEM_CACTVS_TPSA>
422

> <PUBCHEM_MONOISOTOPIC_WEIGHT>
1122.436662

> <PUBCHEM_TOTAL_CHARGE>
0

> <PUBCHEM_HEAVY_ATOM_COUNT>
78

> <PUBCHEM_ATOM_DEF_STEREO_COUNT>
24

> <PUBCHEM_ATOM_UDEF_STEREO_COUNT>
0

> <PUBCHEM_BOND_DEF_STEREO_COUNT>
2

> <PUBCHEM_BOND_UDEF_STEREO_COUNT>
0

> <PUBCHEM_ISOTOPIC_ATOM_COUNT>
0

> <PUBCHEM_COMPONENT_COUNT>
1

> <PUBCHEM_CACTVS_TAUTO_COUNT>
-1

> <PUBCHEM_COORDINATE_TYPE>
1
5
255

> <PUBCHEM_BONDANNOTATIONS>
33  1  5
53  11  6
62  11  5
58  14  5
66  14  6
64  20  6
67  22  5
68  23  6
70  24  5
71  25  6
73  26  5
29  79  6
40  3  5
30  35  6
31  36  5
34  38  5
45  41  5
46  52  5
49  48  6
43  6  6
69  75  5
74  76  6
44  8  5
47  9  6

$$$$
