11803920
  -OEChem-08262005472D

125130  0     1  0  0  0  0  0999 V2000
   10.2267    1.8510    0.0000 O   0  0  0  0  0  0  0  0  0  0  0  0
   14.3628    3.4079    0.0000 O   0  0  0  0  0  0  0  0  0  0  0  0
   13.5468    0.3969    0.0000 O   0  0  0  0  0  0  0  0  0  0  0  0
    8.8999    2.9643    0.0000 O   0  0  0  0  0  0  0  0  0  0  0  0
   15.0339    1.6224    0.0000 O   0  0  0  0  0  0  0  0  0  0  0  0
   16.3559   -0.7885    0.0000 O   0  0  0  0  0  0  0  0  0  0  0  0
   14.1929    2.0039    0.0000 O   0  0  0  0  0  0  0  0  0  0  0  0
   18.1048   -0.5152    0.0000 O   0  0  0  0  0  0  0  0  0  0  0  0
    6.0010   -0.2414    0.0000 O   0  0  0  0  0  0  0  0  0  0  0  0
    6.8671   -1.7414    0.0000 O   0  0  0  0  0  0  0  0  0  0  0  0
   17.4650   -2.1247    0.0000 O   0  0  0  0  0  0  0  0  0  0  0  0
    5.1350   -1.7414    0.0000 O   0  0  0  0  0  0  0  0  0  0  0  0
    6.0010    2.7586    0.0000 O   0  0  0  0  0  0  0  0  0  0  0  0
   19.9634   -1.2540    0.0000 O   0  0  0  0  0  0  0  0  0  0  0  0
    6.8671   -3.7414    0.0000 O   0  0  0  0  0  0  0  0  0  0  0  0
   20.2528   -3.2330    0.0000 O   0  0  0  0  0  0  0  0  0  0  0  0
   18.6837   -4.4731    0.0000 O   0  0  0  0  0  0  0  0  0  0  0  0
    7.2091    3.1983    0.0000 O   0  0  0  0  0  0  0  0  0  0  0  0
    5.1350   -4.7414    0.0000 O   0  0  0  0  0  0  0  0  0  0  0  0
    3.4030   -3.7414    0.0000 O   0  0  0  0  0  0  0  0  0  0  0  0
   16.9698   -4.7237    0.0000 O   0  0  0  0  0  0  0  0  0  0  0  0
    2.5369   -2.2414    0.0000 O   0  0  0  0  0  0  0  0  0  0  0  0
   11.8611    2.5468    0.0000 C   0  0  1  0  0  0  0  0  0  0  0  0
   12.2341    3.4747    0.0000 C   0  0  1  0  0  0  0  0  0  0  0  0
   11.4698    4.1103    0.0000 C   0  0  2  0  0  0  0  0  0  0  0  0
   10.8695    2.6170    0.0000 C   0  0  2  0  0  0  0  0  0  0  0  0
   10.6282    3.5814    0.0000 C   0  0  0  0  0  0  0  0  0  0  0  0
   12.4781    1.7599    0.0000 C   0  0  2  0  0  0  0  0  0  0  0  0
   13.2241    3.6156    0.0000 C   0  0  0  0  0  0  0  0  0  0  0  0
   11.5361    5.1081    0.0000 C   0  0  0  0  0  0  0  0  0  0  0  0
   12.6190    0.7699    0.0000 C   0  0  0  0  0  0  0  0  0  0  0  0
   13.3979    2.1522    0.0000 C   0  0  0  0  0  0  0  0  0  0  0  0
    9.2419    2.0246    0.0000 C   0  0  0  0  0  0  0  0  0  0  0  0
   14.9798    2.6209    0.0000 C   0  0  0  0  0  0  0  0  0  0  0  0
    8.5991    1.2586    0.0000 C   0  0  0  0  0  0  0  0  0  0  0  0
   15.9077    2.2479    0.0000 C   0  0  0  0  0  0  0  0  0  0  0  0
   16.0486    1.2579    0.0000 C   0  0  2  0  0  0  0  0  0  0  0  0
   14.3338    1.0139    0.0000 C   0  0  0  0  0  0  0  0  0  0  0  0
    7.7331    0.7586    0.0000 C   0  0  1  0  0  0  0  0  0  0  0  0
   15.2616    0.6409    0.0000 C   0  0  0  0  0  0  0  0  0  0  0  0
   17.0209    0.8843    0.0000 C   0  0  0  0  0  0  0  0  0  0  0  0
    7.7331   -0.2414    0.0000 C   0  0  0  0  0  0  0  0  0  0  0  0
    6.8671    1.2586    0.0000 C   0  0  0  0  0  0  0  0  0  0  0  0
   17.1756   -0.1458    0.0000 C   0  0  1  0  0  0  0  0  0  0  0  0
   15.3924   -0.3925    0.0000 C   0  0  0  0  0  0  0  0  0  0  0  0
    6.8671   -0.7414    0.0000 C   0  0  1  0  0  0  0  0  0  0  0  0
   17.8006    1.5104    0.0000 C   0  0  0  0  0  0  0  0  0  0  0  0
    6.0010    0.7586    0.0000 C   0  0  0  0  0  0  0  0  0  0  0  0
    8.5991   -0.7414    0.0000 C   0  0  0  0  0  0  0  0  0  0  0  0
   18.2495   -1.5046    0.0000 C   0  0  2  0  0  0  0  0  0  0  0  0
    6.0010   -2.2414    0.0000 C   0  0  2  0  0  0  0  0  0  0  0  0
    6.8671    2.2586    0.0000 C   0  0  0  0  0  0  0  0  0  0  0  0
   19.1788   -1.8741    0.0000 C   0  0  1  0  0  0  0  0  0  0  0  0
    6.0010   -3.2414    0.0000 C   0  0  1  0  0  0  0  0  0  0  0  0
   19.3235   -2.8636    0.0000 C   0  0  2  0  0  0  0  0  0  0  0  0
   18.5389   -3.4836    0.0000 C   0  0  1  0  0  0  0  0  0  0  0  0
    5.1350   -3.7414    0.0000 C   0  0  2  0  0  0  0  0  0  0  0  0
   17.6097   -3.1142    0.0000 C   0  0  1  0  0  0  0  0  0  0  0  0
    4.2690   -3.2414    0.0000 C   0  0  1  0  0  0  0  0  0  0  0  0
    4.2690   -2.2414    0.0000 C   0  0  1  0  0  0  0  0  0  0  0  0
   17.6483    2.4987    0.0000 C   0  0  0  0  0  0  0  0  0  0  0  0
    9.4651   -0.2414    0.0000 C   0  0  0  0  0  0  0  0  0  0  0  0
   16.8251   -3.7342    0.0000 C   0  0  0  0  0  0  0  0  0  0  0  0
    3.4030   -1.7414    0.0000 C   0  0  0  0  0  0  0  0  0  0  0  0
    6.0010    3.7586    0.0000 C   0  0  0  0  0  0  0  0  0  0  0  0
   11.4624    1.7962    0.0000 H   0  0  0  0  0  0  0  0  0  0  0  0
   12.4659    4.2924    0.0000 H   0  0  0  0  0  0  0  0  0  0  0  0
   12.0396    4.3548    0.0000 H   0  0  0  0  0  0  0  0  0  0  0  0
   10.2653    2.7562    0.0000 H   0  0  0  0  0  0  0  0  0  0  0  0
   10.3553    4.1381    0.0000 H   0  0  0  0  0  0  0  0  0  0  0  0
   10.0459    3.3685    0.0000 H   0  0  0  0  0  0  0  0  0  0  0  0
   12.6323    2.3604    0.0000 H   0  0  0  0  0  0  0  0  0  0  0  0
   13.5725    4.1284    0.0000 H   0  0  0  0  0  0  0  0  0  0  0  0
   13.2120    2.9957    0.0000 H   0  0  0  0  0  0  0  0  0  0  0  0
   12.1548    5.0670    0.0000 H   0  0  0  0  0  0  0  0  0  0  0  0
   11.5772    5.7268    0.0000 H   0  0  0  0  0  0  0  0  0  0  0  0
   10.9175    5.1492    0.0000 H   0  0  0  0  0  0  0  0  0  0  0  0
   11.9993    0.7904    0.0000 H   0  0  0  0  0  0  0  0  0  0  0  0
   12.4911    0.1632    0.0000 H   0  0  0  0  0  0  0  0  0  0  0  0
   13.6412    1.5819    0.0000 H   0  0  0  0  0  0  0  0  0  0  0  0
   13.9682    2.3954    0.0000 H   0  0  0  0  0  0  0  0  0  0  0  0
   13.1547    2.7225    0.0000 H   0  0  0  0  0  0  0  0  0  0  0  0
    8.6711    0.6428    0.0000 H   0  0  0  0  0  0  0  0  0  0  0  0
    8.2006    1.7335    0.0000 H   0  0  0  0  0  0  0  0  0  0  0  0
   16.5273    2.2274    0.0000 H   0  0  0  0  0  0  0  0  0  0  0  0
   16.0355    2.8546    0.0000 H   0  0  0  0  0  0  0  0  0  0  0  0
   16.7134    1.7875    0.0000 H   0  0  0  0  0  0  0  0  0  0  0  0
    8.2700    0.4486    0.0000 H   0  0  0  0  0  0  0  0  0  0  0  0
   17.6613    0.2396    0.0000 H   0  0  0  0  0  0  0  0  0  0  0  0
   14.9001   -0.7694    0.0000 H   0  0  0  0  0  0  0  0  0  0  0  0
    7.4040   -1.0514    0.0000 H   0  0  0  0  0  0  0  0  0  0  0  0
   18.3785    1.2858    0.0000 H   0  0  0  0  0  0  0  0  0  0  0  0
    5.4641    1.0686    0.0000 H   0  0  0  0  0  0  0  0  0  0  0  0
    8.5991   -1.3614    0.0000 H   0  0  0  0  0  0  0  0  0  0  0  0
   18.7360   -1.1202    0.0000 H   0  0  0  0  0  0  0  0  0  0  0  0
    6.0010   -1.6214    0.0000 H   0  0  0  0  0  0  0  0  0  0  0  0
   19.7549   -2.1031    0.0000 H   0  0  0  0  0  0  0  0  0  0  0  0
    6.0010   -3.8614    0.0000 H   0  0  0  0  0  0  0  0  0  0  0  0
   19.4132   -3.4770    0.0000 H   0  0  0  0  0  0  0  0  0  0  0  0
   18.0525   -3.8680    0.0000 H   0  0  0  0  0  0  0  0  0  0  0  0
    4.5981   -4.0514    0.0000 H   0  0  0  0  0  0  0  0  0  0  0  0
   17.0335   -2.8851    0.0000 H   0  0  0  0  0  0  0  0  0  0  0  0
    4.2690   -3.8614    0.0000 H   0  0  0  0  0  0  0  0  0  0  0  0
    4.2690   -1.6214    0.0000 H   0  0  0  0  0  0  0  0  0  0  0  0
   18.2611    2.5932    0.0000 H   0  0  0  0  0  0  0  0  0  0  0  0
   17.5539    3.1115    0.0000 H   0  0  0  0  0  0  0  0  0  0  0  0
   17.0356    2.4043    0.0000 H   0  0  0  0  0  0  0  0  0  0  0  0
    9.7751   -0.7783    0.0000 H   0  0  0  0  0  0  0  0  0  0  0  0
   10.0021    0.0686    0.0000 H   0  0  0  0  0  0  0  0  0  0  0  0
    9.1551    0.2955    0.0000 H   0  0  0  0  0  0  0  0  0  0  0  0
   16.5310   -3.1884    0.0000 H   0  0  0  0  0  0  0  0  0  0  0  0
   16.2366   -3.9291    0.0000 H   0  0  0  0  0  0  0  0  0  0  0  0
    3.8015   -1.2665    0.0000 H   0  0  0  0  0  0  0  0  0  0  0  0
    3.0044   -1.2665    0.0000 H   0  0  0  0  0  0  0  0  0  0  0  0
   20.5395   -1.4831    0.0000 H   0  0  0  0  0  0  0  0  0  0  0  0
    7.4040   -3.4314    0.0000 H   0  0  0  0  0  0  0  0  0  0  0  0
   20.3425   -3.8464    0.0000 H   0  0  0  0  0  0  0  0  0  0  0  0
   19.2598   -4.7021    0.0000 H   0  0  0  0  0  0  0  0  0  0  0  0
    5.6720   -5.0514    0.0000 H   0  0  0  0  0  0  0  0  0  0  0  0
    3.4030   -4.3614    0.0000 H   0  0  0  0  0  0  0  0  0  0  0  0
    6.6210    3.7586    0.0000 H   0  0  0  0  0  0  0  0  0  0  0  0
    6.0010    4.3786    0.0000 H   0  0  0  0  0  0  0  0  0  0  0  0
    5.3810    3.7586    0.0000 H   0  0  0  0  0  0  0  0  0  0  0  0
   16.4834   -5.1081    0.0000 H   0  0  0  0  0  0  0  0  0  0  0  0
    2.0000   -1.9314    0.0000 H   0  0  0  0  0  0  0  0  0  0  0  0
 26  1  1  1  0  0  0
  1 33  1  0  0  0  0
  2 29  1  0  0  0  0
  2 34  1  0  0  0  0
  3 31  1  0  0  0  0
  3 38  1  0  0  0  0
  4 33  2  0  0  0  0
  5 34  2  0  0  0  0
  6 44  1  0  0  0  0
  6 45  1  0  0  0  0
  7 38  2  0  0  0  0
 44  8  1  6  0  0  0
 50  8  1  1  0  0  0
  9 46  1  0  0  0  0
  9 48  1  0  0  0  0
 46 10  1  6  0  0  0
 51 10  1  1  0  0  0
 11 50  1  0  0  0  0
 11 58  1  0  0  0  0
 12 51  1  0  0  0  0
 12 60  1  0  0  0  0
 13 52  1  0  0  0  0
 13 65  1  0  0  0  0
 53 14  1  6  0  0  0
 14115  1  0  0  0  0
 54 15  1  6  0  0  0
 15116  1  0  0  0  0
 55 16  1  1  0  0  0
 16117  1  0  0  0  0
 56 17  1  6  0  0  0
 17118  1  0  0  0  0
 18 52  2  0  0  0  0
 57 19  1  1  0  0  0
 19119  1  0  0  0  0
 59 20  1  6  0  0  0
 20120  1  0  0  0  0
 21 63  1  0  0  0  0
 21124  1  0  0  0  0
 22 64  1  0  0  0  0
 22125  1  0  0  0  0
 23 24  1  0  0  0  0
 23 26  1  0  0  0  0
 23 28  1  0  0  0  0
 23 66  1  1  0  0  0
 24 25  1  0  0  0  0
 24 29  1  0  0  0  0
 24 67  1  6  0  0  0
 25 27  1  0  0  0  0
 25 30  1  6  0  0  0
 25 68  1  0  0  0  0
 26 27  1  0  0  0  0
 26 69  1  0  0  0  0
 27 70  1  0  0  0  0
 27 71  1  0  0  0  0
 28 31  1  0  0  0  0
 28 32  1  1  0  0  0
 28 72  1  0  0  0  0
 29 73  1  0  0  0  0
 29 74  1  0  0  0  0
 30 75  1  0  0  0  0
 30 76  1  0  0  0  0
 30 77  1  0  0  0  0
 31 78  1  0  0  0  0
 31 79  1  0  0  0  0
 32 80  1  0  0  0  0
 32 81  1  0  0  0  0
 32 82  1  0  0  0  0
 33 35  1  0  0  0  0
 34 36  1  0  0  0  0
 39 35  1  1  0  0  0
 35 83  1  0  0  0  0
 35 84  1  0  0  0  0
 36 37  1  0  0  0  0
 36 85  1  0  0  0  0
 36 86  1  0  0  0  0
 37 40  1  0  0  0  0
 37 41  1  0  0  0  0
 37 87  1  6  0  0  0
 38 40  1  0  0  0  0
 39 42  1  0  0  0  0
 39 43  1  0  0  0  0
 39 88  1  0  0  0  0
 40 45  2  0  0  0  0
 41 44  1  0  0  0  0
 41 47  2  0  0  0  0
 42 46  1  0  0  0  0
 42 49  2  0  0  0  0
 43 48  2  0  0  0  0
 43 52  1  0  0  0  0
 44 89  1  0  0  0  0
 45 90  1  0  0  0  0
 46 91  1  0  0  0  0
 47 61  1  0  0  0  0
 47 92  1  0  0  0  0
 48 93  1  0  0  0  0
 49 62  1  0  0  0  0
 49 94  1  0  0  0  0
 50 53  1  0  0  0  0
 50 95  1  0  0  0  0
 51 54  1  0  0  0  0
 51 96  1  0  0  0  0
 53 55  1  0  0  0  0
 53 97  1  0  0  0  0
 54 57  1  0  0  0  0
 54 98  1  0  0  0  0
 55 56  1  0  0  0  0
 55 99  1  0  0  0  0
 56 58  1  0  0  0  0
 56100  1  0  0  0  0
 57 59  1  0  0  0  0
 57101  1  0  0  0  0
 58 63  1  1  0  0  0
 58102  1  0  0  0  0
 59 60  1  0  0  0  0
 59103  1  0  0  0  0
 60 64  1  1  0  0  0
 60104  1  0  0  0  0
 61105  1  0  0  0  0
 61106  1  0  0  0  0
 61107  1  0  0  0  0
 62108  1  0  0  0  0
 62109  1  0  0  0  0
 62110  1  0  0  0  0
 63111  1  0  0  0  0
 63112  1  0  0  0  0
 64113  1  0  0  0  0
 64114  1  0  0  0  0
 65121  1  0  0  0  0
 65122  1  0  0  0  0
 65123  1  0  0  0  0
M  END
> <PUBCHEM_COMPOUND_CID>
11803920

> <PUBCHEM_COMPOUND_CANONICALIZED>
1

> <PUBCHEM_CACTVS_COMPLEXITY>
1850

> <PUBCHEM_CACTVS_HBOND_ACCEPTOR>
22

> <PUBCHEM_CACTVS_HBOND_DONOR>
8

> <PUBCHEM_CACTVS_ROTATABLE_BOND>
12

> <PUBCHEM_CACTVS_SUBSKEYS>
AAADcfB8PgAAAAAAAAAAAAAAAAAAAYAAAAAkSIEAAAAAAAAAAAAAGgAACAAADRSwgAMCCAAABgCIAiDSCAAACAAgIAAACAEAAEgRFBIAIQAiUAAFgAAPIIPI5vwOgAAAAAAAAAAAAAAAAAAAAYAADAAAAA==

> <PUBCHEM_IUPAC_OPENEYE_NAME>
methyl (4S,5E,6S)-5-ethylidene-4-[2-[[(5R,6S,7S,9S,10R,15S,16E,17S)-16-ethylidene-5,9-dimethyl-2,13-dioxo-17-[(2S,3R,4S,5S,6R)-3,4,5-trihydroxy-6-(hydroxymethyl)tetrahydropyran-2-yl]oxy-3,12,18-trioxatricyclo[13.4.0.06,10]nonadec-1(19)-en-7-yl]oxy]-2-oxo-ethyl]-6-[(2S,3R,4S,5S,6R)-3,4,5-trihydroxy-6-(hydroxymethyl)tetrahydropyran-2-yl]oxy-4H-pyran-3-carboxylate

> <PUBCHEM_IUPAC_CAS_NAME>
(4S,5E,6S)-5-ethylidene-4-[2-[[(5R,6S,7S,9S,10R,15S,16E,17S)-16-ethylidene-5,9-dimethyl-2,13-dioxo-17-[[(2S,3R,4S,5S,6R)-3,4,5-trihydroxy-6-(hydroxymethyl)-2-oxanyl]oxy]-3,12,18-trioxatricyclo[13.4.0.06,10]nonadec-1(19)-en-7-yl]oxy]-2-oxoethyl]-6-[[(2S,3R,4S,5S,6R)-3,4,5-trihydroxy-6-(hydroxymethyl)-2-oxanyl]oxy]-4H-pyran-3-carboxylic acid methyl ester

> <PUBCHEM_IUPAC_NAME_MARKUP>
methyl (4<I>S</I>,5<I>E</I>,6<I>S</I>)-5-ethylidene-4-[2-[[(5<I>R</I>,6<I>S</I>,7<I>S</I>,9<I>S</I>,10<I>R</I>,15<I>S</I>,16<I>E</I>,17<I>S</I>)-16-ethylidene-5,9-dimethyl-2,13-dioxo-17-[(2<I>S</I>,3<I>R</I>,4<I>S</I>,5<I>S</I>,6<I>R</I>)-3,4,5-trihydroxy-6-(hydroxymethyl)oxan-2-yl]oxy-3,12,18-trioxatricyclo[13.4.0.0<SUP>6,10</SUP>]nonadec-1(19)-en-7-yl]oxy]-2-oxoethyl]-6-[(2<I>S</I>,3<I>R</I>,4<I>S</I>,5<I>S</I>,6<I>R</I>)-3,4,5-trihydroxy-6-(hydroxymethyl)oxan-2-yl]oxy-4<I>H</I>-pyran-3-carboxylate

> <PUBCHEM_IUPAC_NAME>
methyl (4S,5E,6S)-5-ethylidene-4-[2-[[(5R,6S,7S,9S,10R,15S,16E,17S)-16-ethylidene-5,9-dimethyl-2,13-dioxo-17-[(2S,3R,4S,5S,6R)-3,4,5-trihydroxy-6-(hydroxymethyl)oxan-2-yl]oxy-3,12,18-trioxatricyclo[13.4.0.06,10]nonadec-1(19)-en-7-yl]oxy]-2-oxoethyl]-6-[(2S,3R,4S,5S,6R)-3,4,5-trihydroxy-6-(hydroxymethyl)oxan-2-yl]oxy-4H-pyran-3-carboxylate

> <PUBCHEM_IUPAC_SYSTEMATIC_NAME>
methyl (4S,5E,6S)-5-ethylidene-4-[2-[[(5R,6S,7S,9S,10R,15S,16E,17S)-16-ethylidene-17-[(2S,3R,4S,5S,6R)-6-(hydroxymethyl)-3,4,5-tris(oxidanyl)oxan-2-yl]oxy-5,9-dimethyl-2,13-bis(oxidanylidene)-3,12,18-trioxatricyclo[13.4.0.06,10]nonadec-1(19)-en-7-yl]oxy]-2-oxidanylidene-ethyl]-6-[(2S,3R,4S,5S,6R)-6-(hydroxymethyl)-3,4,5-tris(oxidanyl)oxan-2-yl]oxy-4H-pyran-3-carboxylate

> <PUBCHEM_IUPAC_TRADITIONAL_NAME>
(4S,5E,6S)-5-ethylidene-4-[2-[[(5R,6S,7S,9S,10R,15S,16E,17S)-16-ethylidene-2,13-diketo-5,9-dimethyl-17-[(2S,3R,4S,5S,6R)-3,4,5-trihydroxy-6-methylol-tetrahydropyran-2-yl]oxy-3,12,18-trioxatricyclo[13.4.0.06,10]nonadec-1(19)-en-7-yl]oxy]-2-keto-ethyl]-6-[(2S,3R,4S,5S,6R)-3,4,5-trihydroxy-6-methylol-tetrahydropyran-2-yl]oxy-4H-pyran-3-carboxylic acid methyl ester

> <PUBCHEM_IUPAC_INCHI>
InChI=1S/C43H60O22/c1-6-19-21-9-29(46)57-14-23-17(3)8-26(31(23)18(4)13-58-39(55)25(21)16-60-40(19)64-42-36(52)34(50)32(48)27(11-44)62-42)61-30(47)10-22-20(7-2)41(59-15-24(22)38(54)56-5)65-43-37(53)35(51)33(49)28(12-45)63-43/h6-7,15-18,21-23,26-28,31-37,40-45,48-53H,8-14H2,1-5H3/b19-6+,20-7+/t17-,18-,21-,22-,23+,26-,27+,28+,31-,32+,33+,34-,35-,36+,37+,40-,41-,42-,43-/m0/s1

> <PUBCHEM_IUPAC_INCHIKEY>
MTAJKOPZPBBTGY-GKGRVPSRSA-N

> <PUBCHEM_XLOGP3_AA>
-1.5

> <PUBCHEM_EXACT_MASS>
928.357624

> <PUBCHEM_MOLECULAR_FORMULA>
C43H60O22

> <PUBCHEM_MOLECULAR_WEIGHT>
928.9

> <PUBCHEM_OPENEYE_CAN_SMILES>
CC=C1C2CC(=O)OCC3C(CC(C3C(COC(=O)C2=COC1OC4C(C(C(C(O4)CO)O)O)O)C)OC(=O)CC5C(=COC(C5=CC)OC6C(C(C(C(O6)CO)O)O)O)C(=O)OC)C

> <PUBCHEM_OPENEYE_ISO_SMILES>
C/C=C/1\[C@@H]2CC(=O)OC[C@@H]3[C@H](C[C@@H]([C@H]3[C@H](COC(=O)C2=CO[C@H]1O[C@H]4[C@@H]([C@H]([C@@H]([C@H](O4)CO)O)O)O)C)OC(=O)C[C@@H]\5C(=CO[C@H](/C5=C/C)O[C@H]6[C@@H]([C@H]([C@@H]([C@H](O6)CO)O)O)O)C(=O)OC)C

> <PUBCHEM_CACTVS_TPSA>
322

> <PUBCHEM_MONOISOTOPIC_WEIGHT>
928.357624

> <PUBCHEM_TOTAL_CHARGE>
0

> <PUBCHEM_HEAVY_ATOM_COUNT>
65

> <PUBCHEM_ATOM_DEF_STEREO_COUNT>
19

> <PUBCHEM_ATOM_UDEF_STEREO_COUNT>
0

> <PUBCHEM_BOND_DEF_STEREO_COUNT>
2

> <PUBCHEM_BOND_UDEF_STEREO_COUNT>
0

> <PUBCHEM_ISOTOPIC_ATOM_COUNT>
0

> <PUBCHEM_COMPONENT_COUNT>
1

> <PUBCHEM_CACTVS_TAUTO_COUNT>
-1

> <PUBCHEM_COORDINATE_TYPE>
1
5
255

> <PUBCHEM_BONDANNOTATIONS>
26  1  5
46  10  6
51  10  5
53  14  6
54  15  6
55  16  5
56  17  6
57  19  5
59  20  6
23  66  5
24  67  6
25  30  6
28  32  5
39  35  5
37  87  6
58  63  5
60  64  5
44  8  6
50  8  5

$$$$
