10677378
  -OEChem-08262005442D

131135  0     1  0  0  0  0  0999 V2000
   14.8396    3.1545    0.0000 O   0  0  0  0  0  0  0  0  0  0  0  0
   11.1888    4.3903    0.0000 O   0  0  0  0  0  0  0  0  0  0  0  0
   10.2267    0.6967    0.0000 O   0  0  0  0  0  0  0  0  0  0  0  0
   15.2586    1.4739    0.0000 O   0  0  0  0  0  0  0  0  0  0  0  0
    8.8999    1.8100    0.0000 O   0  0  0  0  0  0  0  0  0  0  0  0
   19.4881    2.3635    0.0000 O   0  0  0  0  0  0  0  0  0  0  0  0
   19.6691    4.0861    0.0000 O   0  0  0  0  0  0  0  0  0  0  0  0
   21.0704    3.0680    0.0000 O   0  0  0  0  0  0  0  0  0  0  0  0
    6.8671   -2.8957    0.0000 O   0  0  0  0  0  0  0  0  0  0  0  0
    6.0010   -1.3957    0.0000 O   0  0  0  0  0  0  0  0  0  0  0  0
    5.1350   -2.8957    0.0000 O   0  0  0  0  0  0  0  0  0  0  0  0
   17.7247   -0.0636    0.0000 O   0  0  0  0  0  0  0  0  0  0  0  0
   20.8447    5.7041    0.0000 O   0  0  0  0  0  0  0  0  0  0  0  0
   16.3236    0.9545    0.0000 O   0  0  0  0  0  0  0  0  0  0  0  0
   22.8337    5.4950    0.0000 O   0  0  0  0  0  0  0  0  0  0  0  0
   23.6472    3.6680    0.0000 O   0  0  0  0  0  0  0  0  0  0  0  0
    6.8671   -4.8957    0.0000 O   0  0  0  0  0  0  0  0  0  0  0  0
    5.1350   -5.8957    0.0000 O   0  0  0  0  0  0  0  0  0  0  0  0
    3.4030   -4.8957    0.0000 O   0  0  0  0  0  0  0  0  0  0  0  0
    6.0010    1.6043    0.0000 O   0  0  0  0  0  0  0  0  0  0  0  0
   23.4662    1.9454    0.0000 O   0  0  0  0  0  0  0  0  0  0  0  0
    7.2091    2.0440    0.0000 O   0  0  0  0  0  0  0  0  0  0  0  0
    2.5369   -3.3957    0.0000 O   0  0  0  0  0  0  0  0  0  0  0  0
   12.4971    2.0551    0.0000 C   0  0  1  0  0  0  0  0  0  0  0  0
   12.2552    3.0255    0.0000 C   0  0  1  0  0  0  0  0  0  0  0  0
   13.1032    3.5554    0.0000 C   0  0  2  0  0  0  0  0  0  0  0  0
   13.4947    1.9854    0.0000 C   0  0  0  0  0  0  0  0  0  0  0  0
   13.8693    2.9126    0.0000 C   0  0  2  0  0  0  0  0  0  0  0  0
   11.8543    1.2891    0.0000 C   0  0  2  0  0  0  0  0  0  0  0  0
   11.3280    3.4000    0.0000 C   0  0  0  0  0  0  0  0  0  0  0  0
   13.1730    4.5529    0.0000 C   0  0  0  0  0  0  0  0  0  0  0  0
   10.8695    1.4628    0.0000 C   0  0  0  0  0  0  0  0  0  0  0  0
   12.1963    0.3494    0.0000 C   0  0  0  0  0  0  0  0  0  0  0  0
   15.5342    2.4352    0.0000 C   0  0  0  0  0  0  0  0  0  0  0  0
   16.5045    2.6771    0.0000 C   0  0  0  0  0  0  0  0  0  0  0  0
   17.4990    2.5726    0.0000 C   0  0  1  0  0  0  0  0  0  0  0  0
    9.2419    0.8704    0.0000 C   0  0  0  0  0  0  0  0  0  0  0  0
    8.5991    0.1043    0.0000 C   0  0  0  0  0  0  0  0  0  0  0  0
   18.0868    3.3816    0.0000 C   0  0  0  0  0  0  0  0  0  0  0  0
   17.9058    1.6590    0.0000 C   0  0  0  0  0  0  0  0  0  0  0  0
    7.7331   -0.3957    0.0000 C   0  0  1  0  0  0  0  0  0  0  0  0
   19.0813    3.2770    0.0000 C   0  0  1  0  0  0  0  0  0  0  0  0
   18.9003    1.5545    0.0000 C   0  0  0  0  0  0  0  0  0  0  0  0
    7.7331   -1.3957    0.0000 C   0  0  0  0  0  0  0  0  0  0  0  0
   17.6801    4.2951    0.0000 C   0  0  0  0  0  0  0  0  0  0  0  0
    6.8671    0.1043    0.0000 C   0  0  0  0  0  0  0  0  0  0  0  0
   20.6636    3.9815    0.0000 C   0  0  2  0  0  0  0  0  0  0  0  0
   17.3180    0.8500    0.0000 C   0  0  0  0  0  0  0  0  0  0  0  0
    6.8671   -1.8957    0.0000 C   0  0  2  0  0  0  0  0  0  0  0  0
   21.2514    4.7906    0.0000 C   0  0  1  0  0  0  0  0  0  0  0  0
   22.2460    4.6860    0.0000 C   0  0  2  0  0  0  0  0  0  0  0  0
   22.6527    3.7725    0.0000 C   0  0  1  0  0  0  0  0  0  0  0  0
   22.0649    2.9635    0.0000 C   0  0  1  0  0  0  0  0  0  0  0  0
    6.0010   -3.3957    0.0000 C   0  0  2  0  0  0  0  0  0  0  0  0
    6.0010   -4.3957    0.0000 C   0  0  1  0  0  0  0  0  0  0  0  0
    5.1350   -4.8957    0.0000 C   0  0  2  0  0  0  0  0  0  0  0  0
    6.0010   -0.3957    0.0000 C   0  0  0  0  0  0  0  0  0  0  0  0
   16.6856    4.3996    0.0000 C   0  0  0  0  0  0  0  0  0  0  0  0
    4.2690   -4.3957    0.0000 C   0  0  1  0  0  0  0  0  0  0  0  0
    8.5991   -1.8957    0.0000 C   0  0  0  0  0  0  0  0  0  0  0  0
    4.2690   -3.3957    0.0000 C   0  0  1  0  0  0  0  0  0  0  0  0
    6.8671    1.1043    0.0000 C   0  0  0  0  0  0  0  0  0  0  0  0
   22.4716    2.0499    0.0000 C   0  0  0  0  0  0  0  0  0  0  0  0
    3.4030   -2.8957    0.0000 C   0  0  0  0  0  0  0  0  0  0  0  0
    9.4651   -1.3957    0.0000 C   0  0  0  0  0  0  0  0  0  0  0  0
   18.7192   -0.1681    0.0000 C   0  0  0  0  0  0  0  0  0  0  0  0
    6.0010    2.6043    0.0000 C   0  0  0  0  0  0  0  0  0  0  0  0
   13.0435    2.7063    0.0000 H   0  0  0  0  0  0  0  0  0  0  0  0
   11.7873    2.6187    0.0000 H   0  0  0  0  0  0  0  0  0  0  0  0
   12.5718    3.8747    0.0000 H   0  0  0  0  0  0  0  0  0  0  0  0
   13.3870    1.3748    0.0000 H   0  0  0  0  0  0  0  0  0  0  0  0
   14.0906    1.8145    0.0000 H   0  0  0  0  0  0  0  0  0  0  0  0
   14.2760    2.4447    0.0000 H   0  0  0  0  0  0  0  0  0  0  0  0
   12.4649    1.1814    0.0000 H   0  0  0  0  0  0  0  0  0  0  0  0
   10.7084    3.4217    0.0000 H   0  0  0  0  0  0  0  0  0  0  0  0
   11.1991    2.7936    0.0000 H   0  0  0  0  0  0  0  0  0  0  0  0
   13.7915    4.5097    0.0000 H   0  0  0  0  0  0  0  0  0  0  0  0
   13.2162    5.1714    0.0000 H   0  0  0  0  0  0  0  0  0  0  0  0
   12.5545    4.5962    0.0000 H   0  0  0  0  0  0  0  0  0  0  0  0
   11.0815    2.0454    0.0000 H   0  0  0  0  0  0  0  0  0  0  0  0
   10.3326    1.7728    0.0000 H   0  0  0  0  0  0  0  0  0  0  0  0
   11.6137    0.1374    0.0000 H   0  0  0  0  0  0  0  0  0  0  0  0
   12.4084   -0.2332    0.0000 H   0  0  0  0  0  0  0  0  0  0  0  0
   12.7789    0.5615    0.0000 H   0  0  0  0  0  0  0  0  0  0  0  0
   10.6140    4.6226    0.0000 H   0  0  0  0  0  0  0  0  0  0  0  0
   16.8082    3.2176    0.0000 H   0  0  0  0  0  0  0  0  0  0  0  0
   16.5478    2.0586    0.0000 H   0  0  0  0  0  0  0  0  0  0  0  0
   17.1346    2.0710    0.0000 H   0  0  0  0  0  0  0  0  0  0  0  0
    8.6711   -0.5115    0.0000 H   0  0  0  0  0  0  0  0  0  0  0  0
    8.2006    0.5793    0.0000 H   0  0  0  0  0  0  0  0  0  0  0  0
    8.2700   -0.7057    0.0000 H   0  0  0  0  0  0  0  0  0  0  0  0
   18.8292    3.8434    0.0000 H   0  0  0  0  0  0  0  0  0  0  0  0
   19.1525    0.9881    0.0000 H   0  0  0  0  0  0  0  0  0  0  0  0
   18.0445    4.7967    0.0000 H   0  0  0  0  0  0  0  0  0  0  0  0
   20.4115    4.5479    0.0000 H   0  0  0  0  0  0  0  0  0  0  0  0
    7.4040   -2.2057    0.0000 H   0  0  0  0  0  0  0  0  0  0  0  0
   21.6159    5.2921    0.0000 H   0  0  0  0  0  0  0  0  0  0  0  0
   22.8626    4.6212    0.0000 H   0  0  0  0  0  0  0  0  0  0  0  0
   22.9049    3.2061    0.0000 H   0  0  0  0  0  0  0  0  0  0  0  0
   21.7005    2.4619    0.0000 H   0  0  0  0  0  0  0  0  0  0  0  0
    6.0010   -2.7757    0.0000 H   0  0  0  0  0  0  0  0  0  0  0  0
    6.0010   -5.0157    0.0000 H   0  0  0  0  0  0  0  0  0  0  0  0
    4.5981   -5.2057    0.0000 H   0  0  0  0  0  0  0  0  0  0  0  0
    5.4641   -0.0857    0.0000 H   0  0  0  0  0  0  0  0  0  0  0  0
    4.2690   -5.0157    0.0000 H   0  0  0  0  0  0  0  0  0  0  0  0
   16.7504    5.0162    0.0000 H   0  0  0  0  0  0  0  0  0  0  0  0
   16.0690    4.4644    0.0000 H   0  0  0  0  0  0  0  0  0  0  0  0
   16.6208    3.7830    0.0000 H   0  0  0  0  0  0  0  0  0  0  0  0
    4.2690   -2.7757    0.0000 H   0  0  0  0  0  0  0  0  0  0  0  0
    8.5991   -2.5157    0.0000 H   0  0  0  0  0  0  0  0  0  0  0  0
   21.8701    1.8999    0.0000 H   0  0  0  0  0  0  0  0  0  0  0  0
   22.5149    1.4314    0.0000 H   0  0  0  0  0  0  0  0  0  0  0  0
    3.8015   -2.4207    0.0000 H   0  0  0  0  0  0  0  0  0  0  0  0
    3.0044   -2.4207    0.0000 H   0  0  0  0  0  0  0  0  0  0  0  0
   21.2091    6.2057    0.0000 H   0  0  0  0  0  0  0  0  0  0  0  0
    9.7751   -1.9326    0.0000 H   0  0  0  0  0  0  0  0  0  0  0  0
   10.0021   -1.0857    0.0000 H   0  0  0  0  0  0  0  0  0  0  0  0
    9.1551   -0.8587    0.0000 H   0  0  0  0  0  0  0  0  0  0  0  0
   23.4503    5.4302    0.0000 H   0  0  0  0  0  0  0  0  0  0  0  0
   24.0116    4.1695    0.0000 H   0  0  0  0  0  0  0  0  0  0  0  0
    7.4040   -4.5857    0.0000 H   0  0  0  0  0  0  0  0  0  0  0  0
    5.6720   -6.2057    0.0000 H   0  0  0  0  0  0  0  0  0  0  0  0
    3.4030   -5.5157    0.0000 H   0  0  0  0  0  0  0  0  0  0  0  0
   18.6544   -0.7847    0.0000 H   0  0  0  0  0  0  0  0  0  0  0  0
   19.3358   -0.2329    0.0000 H   0  0  0  0  0  0  0  0  0  0  0  0
   18.7841    0.4485    0.0000 H   0  0  0  0  0  0  0  0  0  0  0  0
   23.7183    1.3790    0.0000 H   0  0  0  0  0  0  0  0  0  0  0  0
    2.0000   -3.0857    0.0000 H   0  0  0  0  0  0  0  0  0  0  0  0
    6.6210    2.6043    0.0000 H   0  0  0  0  0  0  0  0  0  0  0  0
    6.0010    3.2243    0.0000 H   0  0  0  0  0  0  0  0  0  0  0  0
    5.3810    2.6043    0.0000 H   0  0  0  0  0  0  0  0  0  0  0  0
 28  1  1  1  0  0  0
  1 34  1  0  0  0  0
  2 30  1  0  0  0  0
  2 85  1  0  0  0  0
  3 32  1  0  0  0  0
  3 37  1  0  0  0  0
  4 34  2  0  0  0  0
  5 37  2  0  0  0  0
  6 42  1  0  0  0  0
  6 43  1  0  0  0  0
 42  7  1  6  0  0  0
 47  7  1  1  0  0  0
  8 47  1  0  0  0  0
  8 53  1  0  0  0  0
 49  9  1  6  0  0  0
 54  9  1  1  0  0  0
 10 49  1  0  0  0  0
 10 57  1  0  0  0  0
 11 54  1  0  0  0  0
 11 61  1  0  0  0  0
 12 48  1  0  0  0  0
 12 66  1  0  0  0  0
 50 13  1  6  0  0  0
 13115  1  0  0  0  0
 14 48  2  0  0  0  0
 51 15  1  1  0  0  0
 15119  1  0  0  0  0
 52 16  1  6  0  0  0
 16120  1  0  0  0  0
 55 17  1  6  0  0  0
 17121  1  0  0  0  0
 56 18  1  1  0  0  0
 18122  1  0  0  0  0
 59 19  1  6  0  0  0
 19123  1  0  0  0  0
 20 62  1  0  0  0  0
 20 67  1  0  0  0  0
 21 63  1  0  0  0  0
 21127  1  0  0  0  0
 22 62  2  0  0  0  0
 23 64  1  0  0  0  0
 23128  1  0  0  0  0
 24 25  1  0  0  0  0
 24 27  1  0  0  0  0
 24 29  1  0  0  0  0
 24 68  1  6  0  0  0
 25 26  1  0  0  0  0
 25 30  1  6  0  0  0
 25 69  1  0  0  0  0
 26 28  1  0  0  0  0
 26 31  1  1  0  0  0
 26 70  1  0  0  0  0
 27 28  1  0  0  0  0
 27 71  1  0  0  0  0
 27 72  1  0  0  0  0
 28 73  1  0  0  0  0
 29 32  1  0  0  0  0
 29 33  1  1  0  0  0
 29 74  1  0  0  0  0
 30 75  1  0  0  0  0
 30 76  1  0  0  0  0
 31 77  1  0  0  0  0
 31 78  1  0  0  0  0
 31 79  1  0  0  0  0
 32 80  1  0  0  0  0
 32 81  1  0  0  0  0
 33 82  1  0  0  0  0
 33 83  1  0  0  0  0
 33 84  1  0  0  0  0
 34 35  1  0  0  0  0
 36 35  1  1  0  0  0
 35 86  1  0  0  0  0
 35 87  1  0  0  0  0
 36 39  1  0  0  0  0
 36 40  1  0  0  0  0
 36 88  1  0  0  0  0
 37 38  1  0  0  0  0
 41 38  1  1  0  0  0
 38 89  1  0  0  0  0
 38 90  1  0  0  0  0
 39 42  1  0  0  0  0
 39 45  2  0  0  0  0
 40 43  2  0  0  0  0
 40 48  1  0  0  0  0
 41 44  1  0  0  0  0
 41 46  1  0  0  0  0
 41 91  1  0  0  0  0
 42 92  1  0  0  0  0
 43 93  1  0  0  0  0
 44 49  1  0  0  0  0
 44 60  2  0  0  0  0
 45 58  1  0  0  0  0
 45 94  1  0  0  0  0
 46 57  2  0  0  0  0
 46 62  1  0  0  0  0
 47 50  1  0  0  0  0
 47 95  1  0  0  0  0
 49 96  1  0  0  0  0
 50 51  1  0  0  0  0
 50 97  1  0  0  0  0
 51 52  1  0  0  0  0
 51 98  1  0  0  0  0
 52 53  1  0  0  0  0
 52 99  1  0  0  0  0
 53 63  1  1  0  0  0
 53100  1  0  0  0  0
 54 55  1  0  0  0  0
 54101  1  0  0  0  0
 55 56  1  0  0  0  0
 55102  1  0  0  0  0
 56 59  1  0  0  0  0
 56103  1  0  0  0  0
 57104  1  0  0  0  0
 58106  1  0  0  0  0
 58107  1  0  0  0  0
 58108  1  0  0  0  0
 59 61  1  0  0  0  0
 59105  1  0  0  0  0
 60 65  1  0  0  0  0
 60110  1  0  0  0  0
 61 64  1  1  0  0  0
 61109  1  0  0  0  0
 63111  1  0  0  0  0
 63112  1  0  0  0  0
 64113  1  0  0  0  0
 64114  1  0  0  0  0
 65116  1  0  0  0  0
 65117  1  0  0  0  0
 65118  1  0  0  0  0
 66124  1  0  0  0  0
 66125  1  0  0  0  0
 66126  1  0  0  0  0
 67129  1  0  0  0  0
 67130  1  0  0  0  0
 67131  1  0  0  0  0
M  END
> <PUBCHEM_COMPOUND_CID>
10677378

> <PUBCHEM_COMPOUND_CANONICALIZED>
1

> <PUBCHEM_CACTVS_COMPLEXITY>
1850

> <PUBCHEM_CACTVS_HBOND_ACCEPTOR>
23

> <PUBCHEM_CACTVS_HBOND_DONOR>
9

> <PUBCHEM_CACTVS_ROTATABLE_BOND>
21

> <PUBCHEM_CACTVS_SUBSKEYS>
AAADcfB8PgAAAAAAAAAAAAAAAAAAAYAAAAAkSIEAAAAAAAAAAAAAGgAACAAADRSwgAMCCAAABgCIAiDSCAAACAAgIAAACAEAAEgRFBIAIQAiUAAFgAAPIIPI5vwOgAAAAAAAAAAAAAAAAAAAAYAADAAAAA==

> <PUBCHEM_IUPAC_OPENEYE_NAME>
methyl (4S,5E,6S)-5-ethylidene-4-[2-[(2R)-2-[(1S,2S,3R,4S)-4-[2-[(2S,3E,4S)-3-ethylidene-5-methoxycarbonyl-2-[(2S,3R,4S,5S,6R)-3,4,5-trihydroxy-6-(hydroxymethyl)tetrahydropyran-2-yl]oxy-4H-pyran-4-yl]acetyl]oxy-2-(hydroxymethyl)-3-methyl-cyclopentyl]propoxy]-2-oxo-ethyl]-6-[(2S,3R,4S,5S,6R)-3,4,5-trihydroxy-6-(hydroxymethyl)tetrahydropyran-2-yl]oxy-4H-pyran-3-carboxylate

> <PUBCHEM_IUPAC_CAS_NAME>
(4S,5E,6S)-5-ethylidene-4-[2-[(2R)-2-[(1S,2S,3R,4S)-4-[2-[(2S,3E,4S)-3-ethylidene-5-methoxycarbonyl-2-[[(2S,3R,4S,5S,6R)-3,4,5-trihydroxy-6-(hydroxymethyl)-2-oxanyl]oxy]-4H-pyran-4-yl]-1-oxoethoxy]-2-(hydroxymethyl)-3-methylcyclopentyl]propoxy]-2-oxoethyl]-6-[[(2S,3R,4S,5S,6R)-3,4,5-trihydroxy-6-(hydroxymethyl)-2-oxanyl]oxy]-4H-pyran-3-carboxylic acid methyl ester

> <PUBCHEM_IUPAC_NAME_MARKUP>
methyl (4<I>S</I>,5<I>E</I>,6<I>S</I>)-5-ethylidene-4-[2-[(2<I>R</I>)-2-[(1<I>S</I>,2<I>S</I>,3<I>R</I>,4<I>S</I>)-4-[2-[(2<I>S</I>,3<I>E</I>,4<I>S</I>)-3-ethylidene-5-methoxycarbonyl-2-[(2<I>S</I>,3<I>R</I>,4<I>S</I>,5<I>S</I>,6<I>R</I>)-3,4,5-trihydroxy-6-(hydroxymethyl)oxan-2-yl]oxy-4<I>H</I>-pyran-4-yl]acetyl]oxy-2-(hydroxymethyl)-3-methylcyclopentyl]propoxy]-2-oxoethyl]-6-[(2<I>S</I>,3<I>R</I>,4<I>S</I>,5<I>S</I>,6<I>R</I>)-3,4,5-trihydroxy-6-(hydroxymethyl)oxan-2-yl]oxy-4<I>H</I>-pyran-3-carboxylate

> <PUBCHEM_IUPAC_NAME>
methyl (4S,5E,6S)-5-ethylidene-4-[2-[(2R)-2-[(1S,2S,3R,4S)-4-[2-[(2S,3E,4S)-3-ethylidene-5-methoxycarbonyl-2-[(2S,3R,4S,5S,6R)-3,4,5-trihydroxy-6-(hydroxymethyl)oxan-2-yl]oxy-4H-pyran-4-yl]acetyl]oxy-2-(hydroxymethyl)-3-methylcyclopentyl]propoxy]-2-oxoethyl]-6-[(2S,3R,4S,5S,6R)-3,4,5-trihydroxy-6-(hydroxymethyl)oxan-2-yl]oxy-4H-pyran-3-carboxylate

> <PUBCHEM_IUPAC_SYSTEMATIC_NAME>
methyl (4S,5E,6S)-5-ethylidene-4-[2-[(2R)-2-[(1S,2S,3R,4S)-4-[2-[(2S,3E,4S)-3-ethylidene-2-[(2S,3R,4S,5S,6R)-6-(hydroxymethyl)-3,4,5-tris(oxidanyl)oxan-2-yl]oxy-5-methoxycarbonyl-4H-pyran-4-yl]ethanoyloxy]-2-(hydroxymethyl)-3-methyl-cyclopentyl]propoxy]-2-oxidanylidene-ethyl]-6-[(2S,3R,4S,5S,6R)-6-(hydroxymethyl)-3,4,5-tris(oxidanyl)oxan-2-yl]oxy-4H-pyran-3-carboxylate

> <PUBCHEM_IUPAC_TRADITIONAL_NAME>
(4S,5E,6S)-4-[2-[(2R)-2-[(1S,2S,3R,4S)-4-[2-[(2S,3E,4S)-5-carbomethoxy-3-ethylidene-2-[(2S,3R,4S,5S,6R)-3,4,5-trihydroxy-6-methylol-tetrahydropyran-2-yl]oxy-4H-pyran-4-yl]acetyl]oxy-3-methyl-2-methylol-cyclopentyl]propoxy]-2-keto-ethyl]-5-ethylidene-6-[(2S,3R,4S,5S,6R)-3,4,5-trihydroxy-6-methylol-tetrahydropyran-2-yl]oxy-4H-pyran-3-carboxylic acid methyl ester

> <PUBCHEM_IUPAC_INCHI>
InChI=1S/C44H64O23/c1-7-20-23(26(39(56)58-5)16-61-41(20)66-43-37(54)35(52)33(50)29(13-46)64-43)10-31(48)60-15-18(3)22-9-28(19(4)25(22)12-45)63-32(49)11-24-21(8-2)42(62-17-27(24)40(57)59-6)67-44-38(55)36(53)34(51)30(14-47)65-44/h7-8,16-19,22-25,28-30,33-38,41-47,50-55H,9-15H2,1-6H3/b20-7+,21-8+/t18-,19+,22-,23-,24-,25+,28-,29+,30+,33+,34+,35-,36-,37+,38+,41-,42-,43-,44-/m0/s1

> <PUBCHEM_IUPAC_INCHIKEY>
SKFVPIWEXLCZFS-GMAOUTJVSA-N

> <PUBCHEM_XLOGP3_AA>
-2

> <PUBCHEM_EXACT_MASS>
960.383838

> <PUBCHEM_MOLECULAR_FORMULA>
C44H64O23

> <PUBCHEM_MOLECULAR_WEIGHT>
961

> <PUBCHEM_OPENEYE_CAN_SMILES>
CC=C1C(C(=COC1OC2C(C(C(C(O2)CO)O)O)O)C(=O)OC)CC(=O)OCC(C)C3CC(C(C3CO)C)OC(=O)CC4C(=COC(C4=CC)OC5C(C(C(C(O5)CO)O)O)O)C(=O)OC

> <PUBCHEM_OPENEYE_ISO_SMILES>
C/C=C/1\[C@@H](C(=CO[C@H]1O[C@H]2[C@@H]([C@H]([C@@H]([C@H](O2)CO)O)O)O)C(=O)OC)CC(=O)OC[C@H](C)[C@@H]3C[C@@H]([C@@H]([C@H]3CO)C)OC(=O)C[C@@H]\4C(=CO[C@H](/C4=C/C)O[C@H]5[C@@H]([C@H]([C@@H]([C@H](O5)CO)O)O)O)C(=O)OC

> <PUBCHEM_CACTVS_TPSA>
343

> <PUBCHEM_MONOISOTOPIC_WEIGHT>
960.383838

> <PUBCHEM_TOTAL_CHARGE>
0

> <PUBCHEM_HEAVY_ATOM_COUNT>
67

> <PUBCHEM_ATOM_DEF_STEREO_COUNT>
19

> <PUBCHEM_ATOM_UDEF_STEREO_COUNT>
0

> <PUBCHEM_BOND_DEF_STEREO_COUNT>
2

> <PUBCHEM_BOND_UDEF_STEREO_COUNT>
0

> <PUBCHEM_ISOTOPIC_ATOM_COUNT>
0

> <PUBCHEM_COMPONENT_COUNT>
1

> <PUBCHEM_CACTVS_TAUTO_COUNT>
-1

> <PUBCHEM_COORDINATE_TYPE>
1
5
255

> <PUBCHEM_BONDANNOTATIONS>
28  1  5
50  13  6
51  15  5
52  16  6
55  17  6
56  18  5
59  19  6
24  68  6
25  30  6
26  31  5
29  33  5
36  35  5
41  38  5
53  63  5
61  64  5
42  7  6
47  7  5
49  9  6
54  9  5

$$$$
