74193152
  -OEChem-08262005292D

125130  0     1  0  0  0  0  0999 V2000
    6.0890    1.4644    0.0000 O   0  0  0  0  0  0  0  0  0  0  0  0
    2.2495    1.4501    0.0000 O   0  0  0  0  0  0  0  0  0  0  0  0
    4.2752   -2.8066    0.0000 O   0  0  0  0  0  0  0  0  0  0  0  0
    6.2000    3.4038    0.0000 O   0  0  0  0  0  0  0  0  0  0  0  0
    5.0124    5.1061    0.0000 O   0  0  0  0  0  0  0  0  0  0  0  0
    2.1343    3.1783    0.0000 O   0  0  0  0  0  0  0  0  0  0  0  0
    3.4581    5.8704    0.0000 O   0  0  0  0  0  0  0  0  0  0  0  0
    4.5760   -4.5123    0.0000 O   0  0  0  0  0  0  0  0  0  0  0  0
    4.8971    6.8344    0.0000 O   0  0  0  0  0  0  0  0  0  0  0  0
    7.4116   -6.6651    0.0000 O   0  0  0  0  0  0  0  0  0  0  0  0
    8.2776   -5.1651    0.0000 O   0  0  0  0  0  0  0  0  0  0  0  0
    5.6796   -6.6651    0.0000 O   0  0  0  0  0  0  0  0  0  0  0  0
    2.3450    7.5321    0.0000 O   0  0  0  0  0  0  0  0  0  0  0  0
    3.2276    9.3269    0.0000 O   0  0  0  0  0  0  0  0  0  0  0  0
    5.2231    9.4599    0.0000 O   0  0  0  0  0  0  0  0  0  0  0  0
    7.4116   -8.6651    0.0000 O   0  0  0  0  0  0  0  0  0  0  0  0
    5.6796   -9.6651    0.0000 O   0  0  0  0  0  0  0  0  0  0  0  0
    3.9475   -8.6651    0.0000 O   0  0  0  0  0  0  0  0  0  0  0  0
    6.7774    8.6956    0.0000 O   0  0  0  0  0  0  0  0  0  0  0  0
    8.2776   -2.1651    0.0000 O   0  0  0  0  0  0  0  0  0  0  0  0
    6.5456   -2.1651    0.0000 O   0  0  0  0  0  0  0  0  0  0  0  0
    3.0815   -7.1651    0.0000 O   0  0  0  0  0  0  0  0  0  0  0  0
    4.3165   -0.1612    0.0000 C   0  0  3  0  0  0  0  0  0  0  0  0
    3.8038    0.6858    0.0000 C   0  0  3  0  0  0  0  0  0  0  0  0
    4.7012    0.2445    0.0000 C   0  0  3  0  0  0  0  0  0  0  0  0
    5.2536    0.1581    0.0000 C   0  0  0  0  0  0  0  0  0  0  0  0
    5.1425    1.1419    0.0000 C   0  0  3  0  0  0  0  0  0  0  0  0
    3.9744   -1.1009    0.0000 C   0  0  3  0  0  0  0  0  0  0  0  0
    2.8060    0.6193    0.0000 C   0  0  0  0  0  0  0  0  0  0  0  0
    5.0237   -0.7020    0.0000 C   0  0  0  0  0  0  0  0  0  0  0  0
    4.6172   -1.8669    0.0000 C   0  0  0  0  0  0  0  0  0  0  0  0
    2.9896   -1.2745    0.0000 C   0  0  0  0  0  0  0  0  0  0  0  0
    5.6841    2.5471    0.0000 C   0  0  0  0  0  0  0  0  0  0  0  0
    4.1298    3.3114    0.0000 C   0  0  3  0  0  0  0  0  0  0  0  0
    5.1276    3.3779    0.0000 C   0  0  0  0  0  0  0  0  0  0  0  0
    2.6908    2.3475    0.0000 C   0  0  0  0  0  0  0  0  0  0  0  0
    3.6886    2.4140    0.0000 C   0  0  0  0  0  0  0  0  0  0  0  0
    3.5733    4.1422    0.0000 C   0  0  0  0  0  0  0  0  0  0  0  0
    4.9180   -3.5726    0.0000 C   0  0  0  0  0  0  0  0  0  0  0  0
    5.5689    4.2753    0.0000 C   0  0  0  0  0  0  0  0  0  0  0  0
    4.0146    5.0396    0.0000 C   0  0  3  0  0  0  0  0  0  0  0  0
    5.9028   -3.3990    0.0000 C   0  0  0  0  0  0  0  0  0  0  0  0
    6.5456   -4.1651    0.0000 C   0  0  3  0  0  0  0  0  0  0  0  0
    2.5755    4.0757    0.0000 C   0  0  0  0  0  0  0  0  0  0  0  0
    3.8993    6.7678    0.0000 C   0  0  3  0  0  0  0  0  0  0  0  0
    3.3428    7.5986    0.0000 C   0  0  3  0  0  0  0  0  0  0  0  0
    6.5456   -5.1651    0.0000 C   0  0  0  0  0  0  0  0  0  0  0  0
    3.7841    8.4960    0.0000 C   0  0  3  0  0  0  0  0  0  0  0  0
    7.4116   -3.6651    0.0000 C   0  0  0  0  0  0  0  0  0  0  0  0
    4.7819    8.5626    0.0000 C   0  0  3  0  0  0  0  0  0  0  0  0
    5.3384    7.7317    0.0000 C   0  0  3  0  0  0  0  0  0  0  0  0
    2.0190    4.9065    0.0000 C   0  0  0  0  0  0  0  0  0  0  0  0
    7.4116   -5.6651    0.0000 C   0  0  3  0  0  0  0  0  0  0  0  0
    6.5456   -7.1651    0.0000 C   0  0  3  0  0  0  0  0  0  0  0  0
    6.5456   -8.1651    0.0000 C   0  0  3  0  0  0  0  0  0  0  0  0
    5.6796   -8.6651    0.0000 C   0  0  3  0  0  0  0  0  0  0  0  0
    4.8135   -8.1651    0.0000 C   0  0  3  0  0  0  0  0  0  0  0  0
    4.8135   -7.1651    0.0000 C   0  0  3  0  0  0  0  0  0  0  0  0
    8.2776   -4.1651    0.0000 C   0  0  0  0  0  0  0  0  0  0  0  0
    5.6796   -5.6651    0.0000 C   0  0  0  0  0  0  0  0  0  0  0  0
    6.3362    7.7983    0.0000 C   0  0  0  0  0  0  0  0  0  0  0  0
    7.4116   -2.6651    0.0000 C   0  0  0  0  0  0  0  0  0  0  0  0
    3.9475   -6.6651    0.0000 C   0  0  0  0  0  0  0  0  0  0  0  0
    4.6948   -5.4914    0.0000 C   0  0  0  0  0  0  0  0  0  0  0  0
    8.2776   -1.1651    0.0000 C   0  0  0  0  0  0  0  0  0  0  0  0
    4.7503   -0.6041    0.0000 H   0  0  0  0  0  0  0  0  0  0  0  0
    3.9241    1.2940    0.0000 H   0  0  0  0  0  0  0  0  0  0  0  0
    4.2355   -0.1648    0.0000 H   0  0  0  0  0  0  0  0  0  0  0  0
    5.4108   -0.4416    0.0000 H   0  0  0  0  0  0  0  0  0  0  0  0
    5.8631    0.2718    0.0000 H   0  0  0  0  0  0  0  0  0  0  0  0
    4.7331    1.6076    0.0000 H   0  0  0  0  0  0  0  0  0  0  0  0
    3.5759   -0.6259    0.0000 H   0  0  0  0  0  0  0  0  0  0  0  0
    2.2388    0.3689    0.0000 H   0  0  0  0  0  0  0  0  0  0  0  0
    2.9541    0.0172    0.0000 H   0  0  0  0  0  0  0  0  0  0  0  0
    4.4368   -0.9020    0.0000 H   0  0  0  0  0  0  0  0  0  0  0  0
    5.2237   -1.2889    0.0000 H   0  0  0  0  0  0  0  0  0  0  0  0
    5.6106   -0.5021    0.0000 H   0  0  0  0  0  0  0  0  0  0  0  0
    5.1542   -2.1769    0.0000 H   0  0  0  0  0  0  0  0  0  0  0  0
    5.0158   -1.3920    0.0000 H   0  0  0  0  0  0  0  0  0  0  0  0
    2.8820   -0.6639    0.0000 H   0  0  0  0  0  0  0  0  0  0  0  0
    2.3791   -1.3822    0.0000 H   0  0  0  0  0  0  0  0  0  0  0  0
    3.0973   -1.8851    0.0000 H   0  0  0  0  0  0  0  0  0  0  0  0
    3.5112    3.2701    0.0000 H   0  0  0  0  0  0  0  0  0  0  0  0
    3.6218    1.7976    0.0000 H   0  0  0  0  0  0  0  0  0  0  0  0
    4.2840    2.2412    0.0000 H   0  0  0  0  0  0  0  0  0  0  0  0
    6.1875    4.3166    0.0000 H   0  0  0  0  0  0  0  0  0  0  0  0
    3.3960    4.9983    0.0000 H   0  0  0  0  0  0  0  0  0  0  0  0
    6.4398   -3.0890    0.0000 H   0  0  0  0  0  0  0  0  0  0  0  0
    5.6908   -2.8164    0.0000 H   0  0  0  0  0  0  0  0  0  0  0  0
    5.9630   -4.3771    0.0000 H   0  0  0  0  0  0  0  0  0  0  0  0
    2.3020    3.5193    0.0000 H   0  0  0  0  0  0  0  0  0  0  0  0
    3.2807    6.7266    0.0000 H   0  0  0  0  0  0  0  0  0  0  0  0
    2.9978    8.1138    0.0000 H   0  0  0  0  0  0  0  0  0  0  0  0
    3.1655    8.4548    0.0000 H   0  0  0  0  0  0  0  0  0  0  0  0
    4.4368    9.0777    0.0000 H   0  0  0  0  0  0  0  0  0  0  0  0
    5.6834    7.2166    0.0000 H   0  0  0  0  0  0  0  0  0  0  0  0
    2.5341    5.2516    0.0000 H   0  0  0  0  0  0  0  0  0  0  0  0
    1.6740    5.4216    0.0000 H   0  0  0  0  0  0  0  0  0  0  0  0
    1.5039    4.5615    0.0000 H   0  0  0  0  0  0  0  0  0  0  0  0
    6.8747   -5.9751    0.0000 H   0  0  0  0  0  0  0  0  0  0  0  0
    6.5456   -6.5451    0.0000 H   0  0  0  0  0  0  0  0  0  0  0  0
    6.5456   -8.7851    0.0000 H   0  0  0  0  0  0  0  0  0  0  0  0
    5.1426   -8.9751    0.0000 H   0  0  0  0  0  0  0  0  0  0  0  0
    4.2766   -7.8551    0.0000 H   0  0  0  0  0  0  0  0  0  0  0  0
    4.8135   -6.5451    0.0000 H   0  0  0  0  0  0  0  0  0  0  0  0
    8.8146   -3.8551    0.0000 H   0  0  0  0  0  0  0  0  0  0  0  0
    5.7872   -6.2756    0.0000 H   0  0  0  0  0  0  0  0  0  0  0  0
    6.2694    7.1819    0.0000 H   0  0  0  0  0  0  0  0  0  0  0  0
    6.9316    7.6254    0.0000 H   0  0  0  0  0  0  0  0  0  0  0  0
    2.0000    8.0472    0.0000 H   0  0  0  0  0  0  0  0  0  0  0  0
    3.5012    9.8832    0.0000 H   0  0  0  0  0  0  0  0  0  0  0  0
    4.8781    9.9751    0.0000 H   0  0  0  0  0  0  0  0  0  0  0  0
    4.3460   -6.1901    0.0000 H   0  0  0  0  0  0  0  0  0  0  0  0
    3.5490   -6.1901    0.0000 H   0  0  0  0  0  0  0  0  0  0  0  0
    4.8024   -4.8808    0.0000 H   0  0  0  0  0  0  0  0  0  0  0  0
    4.0842   -5.3838    0.0000 H   0  0  0  0  0  0  0  0  0  0  0  0
    4.5871   -6.1020    0.0000 H   0  0  0  0  0  0  0  0  0  0  0  0
    7.9486   -8.3551    0.0000 H   0  0  0  0  0  0  0  0  0  0  0  0
    6.2165   -9.9751    0.0000 H   0  0  0  0  0  0  0  0  0  0  0  0
    3.9475   -9.2851    0.0000 H   0  0  0  0  0  0  0  0  0  0  0  0
    7.3961    8.7369    0.0000 H   0  0  0  0  0  0  0  0  0  0  0  0
    2.5446   -6.8551    0.0000 H   0  0  0  0  0  0  0  0  0  0  0  0
    8.8976   -1.1651    0.0000 H   0  0  0  0  0  0  0  0  0  0  0  0
    8.2776   -0.5451    0.0000 H   0  0  0  0  0  0  0  0  0  0  0  0
    7.6576   -1.1651    0.0000 H   0  0  0  0  0  0  0  0  0  0  0  0
  1 27  1  0  0  0  0
  1 33  1  0  0  0  0
  2 29  1  0  0  0  0
  2 36  1  0  0  0  0
  3 31  1  0  0  0  0
  3 39  1  0  0  0  0
  4 33  2  0  0  0  0
  5 40  1  0  0  0  0
  5 41  1  0  0  0  0
  6 36  2  0  0  0  0
  7 41  1  0  0  0  0
  7 45  1  0  0  0  0
  8 39  2  0  0  0  0
  9 45  1  0  0  0  0
  9 51  1  0  0  0  0
 10 53  1  0  0  0  0
 10 54  1  0  0  0  0
 11 53  1  0  0  0  0
 11 59  1  0  0  0  0
 12 54  1  0  0  0  0
 12 58  1  0  0  0  0
 13 46  1  0  0  0  0
 13110  1  0  0  0  0
 14 48  1  0  0  0  0
 14111  1  0  0  0  0
 15 50  1  0  0  0  0
 15112  1  0  0  0  0
 16 55  1  0  0  0  0
 16118  1  0  0  0  0
 17 56  1  0  0  0  0
 17119  1  0  0  0  0
 18 57  1  0  0  0  0
 18120  1  0  0  0  0
 19 61  1  0  0  0  0
 19121  1  0  0  0  0
 20 62  1  0  0  0  0
 20 65  1  0  0  0  0
 21 62  2  0  0  0  0
 22 63  1  0  0  0  0
 22122  1  0  0  0  0
 23 24  1  0  0  0  0
 23 26  1  0  0  0  0
 23 28  1  0  0  0  0
 23 66  1  0  0  0  0
 24 25  1  0  0  0  0
 24 29  1  0  0  0  0
 24 67  1  0  0  0  0
 25 27  1  0  0  0  0
 25 30  1  0  0  0  0
 25 68  1  0  0  0  0
 26 27  1  0  0  0  0
 26 69  1  0  0  0  0
 26 70  1  0  0  0  0
 27 71  1  0  0  0  0
 28 31  1  0  0  0  0
 28 32  1  0  0  0  0
 28 72  1  0  0  0  0
 29 73  1  0  0  0  0
 29 74  1  0  0  0  0
 30 75  1  0  0  0  0
 30 76  1  0  0  0  0
 30 77  1  0  0  0  0
 31 78  1  0  0  0  0
 31 79  1  0  0  0  0
 32 80  1  0  0  0  0
 32 81  1  0  0  0  0
 32 82  1  0  0  0  0
 33 35  1  0  0  0  0
 34 35  1  0  0  0  0
 34 37  1  0  0  0  0
 34 38  1  0  0  0  0
 34 83  1  0  0  0  0
 35 40  2  0  0  0  0
 36 37  1  0  0  0  0
 37 84  1  0  0  0  0
 37 85  1  0  0  0  0
 38 41  1  0  0  0  0
 38 44  2  3  0  0  0
 39 42  1  0  0  0  0
 40 86  1  0  0  0  0
 41 87  1  0  0  0  0
 42 43  1  0  0  0  0
 42 88  1  0  0  0  0
 42 89  1  0  0  0  0
 43 47  1  0  0  0  0
 43 49  1  0  0  0  0
 43 90  1  0  0  0  0
 44 52  1  0  0  0  0
 44 91  1  0  0  0  0
 45 46  1  0  0  0  0
 45 92  1  0  0  0  0
 46 48  1  0  0  0  0
 46 93  1  0  0  0  0
 47 53  1  0  0  0  0
 47 60  2  3  0  0  0
 48 50  1  0  0  0  0
 48 94  1  0  0  0  0
 49 59  2  0  0  0  0
 49 62  1  0  0  0  0
 50 51  1  0  0  0  0
 50 95  1  0  0  0  0
 51 61  1  0  0  0  0
 51 96  1  0  0  0  0
 52 97  1  0  0  0  0
 52 98  1  0  0  0  0
 52 99  1  0  0  0  0
 53100  1  0  0  0  0
 54 55  1  0  0  0  0
 54101  1  0  0  0  0
 55 56  1  0  0  0  0
 55102  1  0  0  0  0
 56 57  1  0  0  0  0
 56103  1  0  0  0  0
 57 58  1  0  0  0  0
 57104  1  0  0  0  0
 58 63  1  0  0  0  0
 58105  1  0  0  0  0
 59106  1  0  0  0  0
 60 64  1  0  0  0  0
 60107  1  0  0  0  0
 61108  1  0  0  0  0
 61109  1  0  0  0  0
 63113  1  0  0  0  0
 63114  1  0  0  0  0
 64115  1  0  0  0  0
 64116  1  0  0  0  0
 64117  1  0  0  0  0
 65123  1  0  0  0  0
 65124  1  0  0  0  0
 65125  1  0  0  0  0
M  END
> <PUBCHEM_COMPOUND_CID>
74193152

> <PUBCHEM_COMPOUND_CANONICALIZED>
1

> <PUBCHEM_CACTVS_COMPLEXITY>
1850

> <PUBCHEM_CACTVS_HBOND_ACCEPTOR>
22

> <PUBCHEM_CACTVS_HBOND_DONOR>
8

> <PUBCHEM_CACTVS_ROTATABLE_BOND>
14

> <PUBCHEM_CACTVS_SUBSKEYS>
AAADcfB8PgAAAAAAAAAAAAAAAAAAAYAAAAAkSIEAAAAAAAAAAAAAGgAACAAADRSwgAMCCAAABgCIAiDSCAAACAAgIAAACAEAAEgRFBIAIQAiUAAFgAAPIIPI5vwOgAAAAAAAAAAAAAAAAAAAAYAADAAAAA==

> <PUBCHEM_IUPAC_OPENEYE_NAME>
methyl 5-ethylidene-4-[2-[2-[8-ethylidene-17-methyl-3,11-dioxo-7-[3,4,5-trihydroxy-6-(hydroxymethyl)tetrahydropyran-2-yl]oxy-2,6,12-trioxatricyclo[12.2.1.04,9]heptadec-4-en-15-yl]propoxy]-2-oxo-ethyl]-6-[3,4,5-trihydroxy-6-(hydroxymethyl)tetrahydropyran-2-yl]oxy-4H-pyran-3-carboxylate

> <PUBCHEM_IUPAC_CAS_NAME>
5-ethylidene-4-[2-[2-[8-ethylidene-17-methyl-3,11-dioxo-7-[[3,4,5-trihydroxy-6-(hydroxymethyl)-2-oxanyl]oxy]-2,6,12-trioxatricyclo[12.2.1.04,9]heptadec-4-en-15-yl]propoxy]-2-oxoethyl]-6-[[3,4,5-trihydroxy-6-(hydroxymethyl)-2-oxanyl]oxy]-4H-pyran-3-carboxylic acid methyl ester

> <PUBCHEM_IUPAC_NAME_MARKUP>
methyl 5-ethylidene-4-[2-[2-[8-ethylidene-17-methyl-3,11-dioxo-7-[3,4,5-trihydroxy-6-(hydroxymethyl)oxan-2-yl]oxy-2,6,12-trioxatricyclo[12.2.1.0<SUP>4,9</SUP>]heptadec-4-en-15-yl]propoxy]-2-oxoethyl]-6-[3,4,5-trihydroxy-6-(hydroxymethyl)oxan-2-yl]oxy-4<I>H</I>-pyran-3-carboxylate

> <PUBCHEM_IUPAC_NAME>
methyl 5-ethylidene-4-[2-[2-[8-ethylidene-17-methyl-3,11-dioxo-7-[3,4,5-trihydroxy-6-(hydroxymethyl)oxan-2-yl]oxy-2,6,12-trioxatricyclo[12.2.1.04,9]heptadec-4-en-15-yl]propoxy]-2-oxoethyl]-6-[3,4,5-trihydroxy-6-(hydroxymethyl)oxan-2-yl]oxy-4H-pyran-3-carboxylate

> <PUBCHEM_IUPAC_SYSTEMATIC_NAME>
methyl 5-ethylidene-4-[2-[2-[8-ethylidene-7-[6-(hydroxymethyl)-3,4,5-tris(oxidanyl)oxan-2-yl]oxy-17-methyl-3,11-bis(oxidanylidene)-2,6,12-trioxatricyclo[12.2.1.04,9]heptadec-4-en-15-yl]propoxy]-2-oxidanylidene-ethyl]-6-[6-(hydroxymethyl)-3,4,5-tris(oxidanyl)oxan-2-yl]oxy-4H-pyran-3-carboxylate

> <PUBCHEM_IUPAC_TRADITIONAL_NAME>
5-ethylidene-4-[2-[2-[8-ethylidene-3,11-diketo-17-methyl-7-(3,4,5-trihydroxy-6-methylol-tetrahydropyran-2-yl)oxy-2,6,12-trioxatricyclo[12.2.1.04,9]heptadec-4-en-15-yl]propoxy]-2-keto-ethyl]-6-(3,4,5-trihydroxy-6-methylol-tetrahydropyran-2-yl)oxy-4H-pyran-3-carboxylic acid methyl ester

> <PUBCHEM_IUPAC_INCHI>
InChI=1S/C43H60O22/c1-6-19-22(25(38(54)56-5)15-59-40(19)64-42-36(52)34(50)32(48)28(11-44)62-42)9-30(46)57-13-17(3)21-8-27-18(4)24(21)14-58-31(47)10-23-20(7-2)41(60-16-26(23)39(55)61-27)65-43-37(53)35(51)33(49)29(12-45)63-43/h6-7,15-18,21-24,27-29,32-37,40-45,48-53H,8-14H2,1-5H3

> <PUBCHEM_IUPAC_INCHIKEY>
GZBCQRQJJVIXDD-UHFFFAOYSA-N

> <PUBCHEM_XLOGP3_AA>
-1.5

> <PUBCHEM_EXACT_MASS>
928.357624

> <PUBCHEM_MOLECULAR_FORMULA>
C43H60O22

> <PUBCHEM_MOLECULAR_WEIGHT>
928.9

> <PUBCHEM_OPENEYE_CAN_SMILES>
CC=C1C2CC(=O)OCC3C(C(CC3C(C)COC(=O)CC4C(=COC(C4=CC)OC5C(C(C(C(O5)CO)O)O)O)C(=O)OC)OC(=O)C2=COC1OC6C(C(C(C(O6)CO)O)O)O)C

> <PUBCHEM_OPENEYE_ISO_SMILES>
CC=C1C2CC(=O)OCC3C(C(CC3C(C)COC(=O)CC4C(=COC(C4=CC)OC5C(C(C(C(O5)CO)O)O)O)C(=O)OC)OC(=O)C2=COC1OC6C(C(C(C(O6)CO)O)O)O)C

> <PUBCHEM_CACTVS_TPSA>
322

> <PUBCHEM_MONOISOTOPIC_WEIGHT>
928.357624

> <PUBCHEM_TOTAL_CHARGE>
0

> <PUBCHEM_HEAVY_ATOM_COUNT>
65

> <PUBCHEM_ATOM_DEF_STEREO_COUNT>
0

> <PUBCHEM_ATOM_UDEF_STEREO_COUNT>
19

> <PUBCHEM_BOND_DEF_STEREO_COUNT>
0

> <PUBCHEM_BOND_UDEF_STEREO_COUNT>
2

> <PUBCHEM_ISOTOPIC_ATOM_COUNT>
0

> <PUBCHEM_COMPONENT_COUNT>
1

> <PUBCHEM_CACTVS_TAUTO_COUNT>
-1

> <PUBCHEM_COORDINATE_TYPE>
1
5
255

> <PUBCHEM_BONDANNOTATIONS>
53  10  3
54  10  3
46  13  3
48  14  3
50  15  3
55  16  3
56  17  3
57  18  3
23  26  3
24  29  3
25  30  3
27  26  3
28  32  3
34  37  3
38  44  1
43  42  3
47  60  1
51  61  3
58  63  3
41  7  3
45  7  3

$$$$
