102510585
  -OEChem-08262005292D

128132  0     1  0  0  0  0  0999 V2000
   13.9776    1.1237    0.0000 O   0  0  0  0  0  0  0  0  0  0  0  0
   10.2267    2.0102    0.0000 O   0  0  0  0  0  0  0  0  0  0  0  0
   13.0833    5.8935    0.0000 O   0  0  0  0  0  0  0  0  0  0  0  0
   15.2235    2.3268    0.0000 O   0  0  0  0  0  0  0  0  0  0  0  0
    8.8999    3.1236    0.0000 O   0  0  0  0  0  0  0  0  0  0  0  0
   18.3389   -0.6689    0.0000 O   0  0  0  0  0  0  0  0  0  0  0  0
   17.5797   -2.2256    0.0000 O   0  0  0  0  0  0  0  0  0  0  0  0
    6.8671   -1.5822    0.0000 O   0  0  0  0  0  0  0  0  0  0  0  0
    6.0010   -0.0822    0.0000 O   0  0  0  0  0  0  0  0  0  0  0  0
   18.5482   -3.6616    0.0000 O   0  0  0  0  0  0  0  0  0  0  0  0
    5.1350   -1.5822    0.0000 O   0  0  0  0  0  0  0  0  0  0  0  0
   18.1297    2.3238    0.0000 O   0  0  0  0  0  0  0  0  0  0  0  0
   19.2377   -1.1072    0.0000 O   0  0  0  0  0  0  0  0  0  0  0  0
   21.0353   -1.9840    0.0000 O   0  0  0  0  0  0  0  0  0  0  0  0
   16.4018    2.2030    0.0000 O   0  0  0  0  0  0  0  0  0  0  0  0
   21.1748   -3.9791    0.0000 O   0  0  0  0  0  0  0  0  0  0  0  0
    6.8671   -3.5822    0.0000 O   0  0  0  0  0  0  0  0  0  0  0  0
    5.1350   -4.5822    0.0000 O   0  0  0  0  0  0  0  0  0  0  0  0
    3.4030   -3.5822    0.0000 O   0  0  0  0  0  0  0  0  0  0  0  0
    6.0010    2.9178    0.0000 O   0  0  0  0  0  0  0  0  0  0  0  0
    7.2091    3.3575    0.0000 O   0  0  0  0  0  0  0  0  0  0  0  0
   18.6877   -5.6567    0.0000 O   0  0  0  0  0  0  0  0  0  0  0  0
    2.5369   -2.0822    0.0000 O   0  0  0  0  0  0  0  0  0  0  0  0
   12.5736    3.2973    0.0000 C   0  0  1  0  0  0  0  0  0  0  0  0
   11.8543    2.6026    0.0000 C   0  0  1  0  0  0  0  0  0  0  0  0
   12.2927    1.7038    0.0000 C   0  0  2  0  0  0  0  0  0  0  0  0
   13.4566    2.8278    0.0000 C   0  0  0  0  0  0  0  0  0  0  0  0
   13.2829    1.8430    0.0000 C   0  0  2  0  0  0  0  0  0  0  0  0
   12.4345    4.2875    0.0000 C   0  0  2  0  0  0  0  0  0  0  0  0
   10.8695    2.7763    0.0000 C   0  0  0  0  0  0  0  0  0  0  0  0
   11.8232    0.8209    0.0000 C   0  0  0  0  0  0  0  0  0  0  0  0
   13.2225    4.9032    0.0000 C   0  0  0  0  0  0  0  0  0  0  0  0
   11.5073    4.6621    0.0000 C   0  0  0  0  0  0  0  0  0  0  0  0
   14.9479    1.3656    0.0000 C   0  0  0  0  0  0  0  0  0  0  0  0
   15.6426    0.6462    0.0000 C   0  0  0  0  0  0  0  0  0  0  0  0
    9.2419    2.1839    0.0000 C   0  0  0  0  0  0  0  0  0  0  0  0
   16.5413    0.2079    0.0000 C   0  0  1  0  0  0  0  0  0  0  0  0
    8.5991    1.4178    0.0000 C   0  0  0  0  0  0  0  0  0  0  0  0
    7.7331    0.9178    0.0000 C   0  0  1  0  0  0  0  0  0  0  0  0
   16.6111   -0.7897    0.0000 C   0  0  0  0  0  0  0  0  0  0  0  0
   17.3704    0.7671    0.0000 C   0  0  0  0  0  0  0  0  0  0  0  0
   17.5099   -1.2281    0.0000 C   0  0  1  0  0  0  0  0  0  0  0  0
    7.7331   -0.0822    0.0000 C   0  0  0  0  0  0  0  0  0  0  0  0
    6.8671    1.4178    0.0000 C   0  0  0  0  0  0  0  0  0  0  0  0
    6.8671   -0.5822    0.0000 C   0  0  2  0  0  0  0  0  0  0  0  0
   18.2692    0.3287    0.0000 C   0  0  0  0  0  0  0  0  0  0  0  0
   15.7821   -1.3489    0.0000 C   0  0  0  0  0  0  0  0  0  0  0  0
   18.4785   -2.6640    0.0000 C   0  0  2  0  0  0  0  0  0  0  0  0
   17.3006    1.7646    0.0000 C   0  0  0  0  0  0  0  0  0  0  0  0
   19.3075   -2.1048    0.0000 C   0  0  1  0  0  0  0  0  0  0  0  0
    6.0010    0.9178    0.0000 C   0  0  0  0  0  0  0  0  0  0  0  0
   20.2063   -2.5432    0.0000 C   0  0  2  0  0  0  0  0  0  0  0  0
    6.0010   -2.0822    0.0000 C   0  0  2  0  0  0  0  0  0  0  0  0
    8.5991   -0.5822    0.0000 C   0  0  0  0  0  0  0  0  0  0  0  0
   20.2760   -3.5407    0.0000 C   0  0  1  0  0  0  0  0  0  0  0  0
   19.4470   -4.0999    0.0000 C   0  0  1  0  0  0  0  0  0  0  0  0
    6.0010   -3.0822    0.0000 C   0  0  1  0  0  0  0  0  0  0  0  0
    5.1350   -3.5822    0.0000 C   0  0  2  0  0  0  0  0  0  0  0  0
    4.2690   -3.0822    0.0000 C   0  0  1  0  0  0  0  0  0  0  0  0
    4.2690   -2.0822    0.0000 C   0  0  1  0  0  0  0  0  0  0  0  0
    6.8671    2.4178    0.0000 C   0  0  0  0  0  0  0  0  0  0  0  0
   14.8833   -0.9105    0.0000 C   0  0  0  0  0  0  0  0  0  0  0  0
   19.5168   -5.0975    0.0000 C   0  0  0  0  0  0  0  0  0  0  0  0
    9.4651   -0.0822    0.0000 C   0  0  0  0  0  0  0  0  0  0  0  0
    3.4030   -1.5822    0.0000 C   0  0  0  0  0  0  0  0  0  0  0  0
    6.0010    3.9178    0.0000 C   0  0  0  0  0  0  0  0  0  0  0  0
   13.2699    3.7848    0.0000 H   0  0  0  0  0  0  0  0  0  0  0  0
   11.4812    2.1075    0.0000 H   0  0  0  0  0  0  0  0  0  0  0  0
   12.6483    1.1960    0.0000 H   0  0  0  0  0  0  0  0  0  0  0  0
   14.0526    2.6569    0.0000 H   0  0  0  0  0  0  0  0  0  0  0  0
   13.6888    3.4027    0.0000 H   0  0  0  0  0  0  0  0  0  0  0  0
   13.8759    2.0243    0.0000 H   0  0  0  0  0  0  0  0  0  0  0  0
   12.3482    4.9015    0.0000 H   0  0  0  0  0  0  0  0  0  0  0  0
   11.0815    3.3589    0.0000 H   0  0  0  0  0  0  0  0  0  0  0  0
   10.3326    3.0863    0.0000 H   0  0  0  0  0  0  0  0  0  0  0  0
   11.2758    1.1120    0.0000 H   0  0  0  0  0  0  0  0  0  0  0  0
   11.5321    0.2734    0.0000 H   0  0  0  0  0  0  0  0  0  0  0  0
   12.3706    0.5298    0.0000 H   0  0  0  0  0  0  0  0  0  0  0  0
   13.5136    4.3558    0.0000 H   0  0  0  0  0  0  0  0  0  0  0  0
   13.8121    5.0948    0.0000 H   0  0  0  0  0  0  0  0  0  0  0  0
   11.7395    5.2370    0.0000 H   0  0  0  0  0  0  0  0  0  0  0  0
   10.9324    4.8944    0.0000 H   0  0  0  0  0  0  0  0  0  0  0  0
   11.2750    4.0873    0.0000 H   0  0  0  0  0  0  0  0  0  0  0  0
   13.5719    6.2752    0.0000 H   0  0  0  0  0  0  0  0  0  0  0  0
   15.0625    0.4274    0.0000 H   0  0  0  0  0  0  0  0  0  0  0  0
   16.0070    1.1478    0.0000 H   0  0  0  0  0  0  0  0  0  0  0  0
   16.0273   -0.1388    0.0000 H   0  0  0  0  0  0  0  0  0  0  0  0
    8.6711    0.8020    0.0000 H   0  0  0  0  0  0  0  0  0  0  0  0
    8.2006    1.8928    0.0000 H   0  0  0  0  0  0  0  0  0  0  0  0
    8.2700    0.6078    0.0000 H   0  0  0  0  0  0  0  0  0  0  0  0
   16.9959   -1.5748    0.0000 H   0  0  0  0  0  0  0  0  0  0  0  0
    7.4040   -0.8922    0.0000 H   0  0  0  0  0  0  0  0  0  0  0  0
   18.7832    0.6754    0.0000 H   0  0  0  0  0  0  0  0  0  0  0  0
   15.8253   -1.9674    0.0000 H   0  0  0  0  0  0  0  0  0  0  0  0
   17.9644   -3.0107    0.0000 H   0  0  0  0  0  0  0  0  0  0  0  0
   19.8215   -1.7581    0.0000 H   0  0  0  0  0  0  0  0  0  0  0  0
   20.7635   -2.8150    0.0000 H   0  0  0  0  0  0  0  0  0  0  0  0
    6.5380   -2.3922    0.0000 H   0  0  0  0  0  0  0  0  0  0  0  0
    5.4641    1.2278    0.0000 H   0  0  0  0  0  0  0  0  0  0  0  0
   20.3193   -4.1592    0.0000 H   0  0  0  0  0  0  0  0  0  0  0  0
    8.5991   -1.2022    0.0000 H   0  0  0  0  0  0  0  0  0  0  0  0
   18.9330   -4.4466    0.0000 H   0  0  0  0  0  0  0  0  0  0  0  0
    6.0010   -3.7022    0.0000 H   0  0  0  0  0  0  0  0  0  0  0  0
    4.5981   -3.8922    0.0000 H   0  0  0  0  0  0  0  0  0  0  0  0
    4.2690   -3.7022    0.0000 H   0  0  0  0  0  0  0  0  0  0  0  0
    4.2690   -1.4622    0.0000 H   0  0  0  0  0  0  0  0  0  0  0  0
   15.1551   -0.3533    0.0000 H   0  0  0  0  0  0  0  0  0  0  0  0
   14.3260   -0.6387    0.0000 H   0  0  0  0  0  0  0  0  0  0  0  0
   14.6115   -1.4678    0.0000 H   0  0  0  0  0  0  0  0  0  0  0  0
   19.7689   -5.6639    0.0000 H   0  0  0  0  0  0  0  0  0  0  0  0
   20.1183   -4.9475    0.0000 H   0  0  0  0  0  0  0  0  0  0  0  0
    9.7751   -0.6191    0.0000 H   0  0  0  0  0  0  0  0  0  0  0  0
   10.0021    0.2278    0.0000 H   0  0  0  0  0  0  0  0  0  0  0  0
    9.1551    0.4548    0.0000 H   0  0  0  0  0  0  0  0  0  0  0  0
    3.8015   -1.1072    0.0000 H   0  0  0  0  0  0  0  0  0  0  0  0
    3.0044   -1.1072    0.0000 H   0  0  0  0  0  0  0  0  0  0  0  0
   19.7517   -0.7605    0.0000 H   0  0  0  0  0  0  0  0  0  0  0  0
   18.0864    2.9423    0.0000 H   0  0  0  0  0  0  0  0  0  0  0  0
   21.5926   -2.2558    0.0000 H   0  0  0  0  0  0  0  0  0  0  0  0
   21.2181   -4.5976    0.0000 H   0  0  0  0  0  0  0  0  0  0  0  0
    7.4040   -3.2722    0.0000 H   0  0  0  0  0  0  0  0  0  0  0  0
    5.6720   -4.8922    0.0000 H   0  0  0  0  0  0  0  0  0  0  0  0
    3.4030   -4.2022    0.0000 H   0  0  0  0  0  0  0  0  0  0  0  0
   18.7310   -6.2752    0.0000 H   0  0  0  0  0  0  0  0  0  0  0  0
    2.0000   -1.7722    0.0000 H   0  0  0  0  0  0  0  0  0  0  0  0
    6.6210    3.9178    0.0000 H   0  0  0  0  0  0  0  0  0  0  0  0
    6.0010    4.5378    0.0000 H   0  0  0  0  0  0  0  0  0  0  0  0
    5.3810    3.9178    0.0000 H   0  0  0  0  0  0  0  0  0  0  0  0
 28  1  1  6  0  0  0
  1 34  1  0  0  0  0
  2 30  1  0  0  0  0
  2 36  1  0  0  0  0
  3 32  1  0  0  0  0
  3 84  1  0  0  0  0
  4 34  2  0  0  0  0
  5 36  2  0  0  0  0
  6 42  1  0  0  0  0
  6 46  1  0  0  0  0
 42  7  1  1  0  0  0
 48  7  1  1  0  0  0
 45  8  1  6  0  0  0
 53  8  1  1  0  0  0
  9 45  1  0  0  0  0
  9 51  1  0  0  0  0
 10 48  1  0  0  0  0
 10 56  1  0  0  0  0
 11 53  1  0  0  0  0
 11 60  1  0  0  0  0
 12 49  1  0  0  0  0
 12118  1  0  0  0  0
 50 13  1  6  0  0  0
 13117  1  0  0  0  0
 52 14  1  1  0  0  0
 14119  1  0  0  0  0
 15 49  2  0  0  0  0
 55 16  1  6  0  0  0
 16120  1  0  0  0  0
 57 17  1  6  0  0  0
 17121  1  0  0  0  0
 58 18  1  1  0  0  0
 18122  1  0  0  0  0
 59 19  1  6  0  0  0
 19123  1  0  0  0  0
 20 61  1  0  0  0  0
 20 66  1  0  0  0  0
 21 61  2  0  0  0  0
 22 63  1  0  0  0  0
 22124  1  0  0  0  0
 23 65  1  0  0  0  0
 23125  1  0  0  0  0
 24 25  1  0  0  0  0
 24 27  1  0  0  0  0
 24 29  1  0  0  0  0
 24 67  1  1  0  0  0
 25 26  1  0  0  0  0
 25 30  1  1  0  0  0
 25 68  1  0  0  0  0
 26 28  1  0  0  0  0
 26 31  1  6  0  0  0
 26 69  1  0  0  0  0
 27 28  1  0  0  0  0
 27 70  1  0  0  0  0
 27 71  1  0  0  0  0
 28 72  1  0  0  0  0
 29 32  1  0  0  0  0
 29 33  1  1  0  0  0
 29 73  1  0  0  0  0
 30 74  1  0  0  0  0
 30 75  1  0  0  0  0
 31 76  1  0  0  0  0
 31 77  1  0  0  0  0
 31 78  1  0  0  0  0
 32 79  1  0  0  0  0
 32 80  1  0  0  0  0
 33 81  1  0  0  0  0
 33 82  1  0  0  0  0
 33 83  1  0  0  0  0
 34 35  1  0  0  0  0
 37 35  1  6  0  0  0
 35 85  1  0  0  0  0
 35 86  1  0  0  0  0
 36 38  1  0  0  0  0
 37 40  1  0  0  0  0
 37 41  1  0  0  0  0
 37 87  1  0  0  0  0
 39 38  1  1  0  0  0
 38 88  1  0  0  0  0
 38 89  1  0  0  0  0
 39 43  1  0  0  0  0
 39 44  1  0  0  0  0
 39 90  1  0  0  0  0
 40 42  1  0  0  0  0
 40 47  2  0  0  0  0
 41 46  2  0  0  0  0
 41 49  1  0  0  0  0
 42 91  1  0  0  0  0
 43 45  1  0  0  0  0
 43 54  2  0  0  0  0
 44 51  2  0  0  0  0
 44 61  1  0  0  0  0
 45 92  1  0  0  0  0
 46 93  1  0  0  0  0
 47 62  1  0  0  0  0
 47 94  1  0  0  0  0
 48 50  1  0  0  0  0
 48 95  1  0  0  0  0
 50 52  1  0  0  0  0
 50 96  1  0  0  0  0
 51 99  1  0  0  0  0
 52 55  1  0  0  0  0
 52 97  1  0  0  0  0
 53 57  1  0  0  0  0
 53 98  1  0  0  0  0
 54 64  1  0  0  0  0
 54101  1  0  0  0  0
 55 56  1  0  0  0  0
 55100  1  0  0  0  0
 56 63  1  1  0  0  0
 56102  1  0  0  0  0
 57 58  1  0  0  0  0
 57103  1  0  0  0  0
 58 59  1  0  0  0  0
 58104  1  0  0  0  0
 59 60  1  0  0  0  0
 59105  1  0  0  0  0
 60 65  1  1  0  0  0
 60106  1  0  0  0  0
 62107  1  0  0  0  0
 62108  1  0  0  0  0
 62109  1  0  0  0  0
 63110  1  0  0  0  0
 63111  1  0  0  0  0
 64112  1  0  0  0  0
 64113  1  0  0  0  0
 64114  1  0  0  0  0
 65115  1  0  0  0  0
 65116  1  0  0  0  0
 66126  1  0  0  0  0
 66127  1  0  0  0  0
 66128  1  0  0  0  0
M  END
> <PUBCHEM_COMPOUND_CID>
102510585

> <PUBCHEM_COMPOUND_CANONICALIZED>
1

> <PUBCHEM_CACTVS_COMPLEXITY>
1830

> <PUBCHEM_CACTVS_HBOND_ACCEPTOR>
23

> <PUBCHEM_CACTVS_HBOND_DONOR>
10

> <PUBCHEM_CACTVS_ROTATABLE_BOND>
20

> <PUBCHEM_CACTVS_SUBSKEYS>
AAADcfB8PgAAAAAAAAAAAAAAAAAAAYAAAAAkSIEAAAAAAAAAAAAAGgAACAAADRSwgAMCCAAABgCIAiDSCAAACAAgIAAACAEAAEgRFBIAIQAiUAAFgAAPMIPI5vwOgAAAAAAAAAAAAAAAAAAAAYAADAAAAA==

> <PUBCHEM_IUPAC_OPENEYE_NAME>
(4S,5E,6S)-5-ethylidene-4-[2-[(1S,2R,3S,4S)-3-[[2-[(2S,3E,4S)-3-ethylidene-5-methoxycarbonyl-2-[(2S,3R,4S,5S,6R)-3,4,5-trihydroxy-6-(hydroxymethyl)tetrahydropyran-2-yl]oxy-4H-pyran-4-yl]acetyl]oxymethyl]-4-[(1R)-2-hydroxy-1-methyl-ethyl]-2-methyl-cyclopentoxy]-2-oxo-ethyl]-6-[(2S,3R,4S,5S,6R)-3,4,5-trihydroxy-6-(hydroxymethyl)tetrahydropyran-2-yl]oxy-4H-pyran-3-carboxylic acid

> <PUBCHEM_IUPAC_CAS_NAME>
(4S,5E,6S)-5-ethylidene-4-[2-[(1S,2R,3S,4S)-3-[[2-[(2S,3E,4S)-3-ethylidene-5-methoxycarbonyl-2-[[(2S,3R,4S,5S,6R)-3,4,5-trihydroxy-6-(hydroxymethyl)-2-oxanyl]oxy]-4H-pyran-4-yl]-1-oxoethoxy]methyl]-4-[(2R)-1-hydroxypropan-2-yl]-2-methylcyclopentyl]oxy-2-oxoethyl]-6-[[(2S,3R,4S,5S,6R)-3,4,5-trihydroxy-6-(hydroxymethyl)-2-oxanyl]oxy]-4H-pyran-3-carboxylic acid

> <PUBCHEM_IUPAC_NAME_MARKUP>
(4<I>S</I>,5<I>E</I>,6<I>S</I>)-5-ethylidene-4-[2-[(1<I>S</I>,2<I>R</I>,3<I>S</I>,4<I>S</I>)-3-[[2-[(2<I>S</I>,3<I>E</I>,4<I>S</I>)-3-ethylidene-5-methoxycarbonyl-2-[(2<I>S</I>,3<I>R</I>,4<I>S</I>,5<I>S</I>,6<I>R</I>)-3,4,5-trihydroxy-6-(hydroxymethyl)oxan-2-yl]oxy-4<I>H</I>-pyran-4-yl]acetyl]oxymethyl]-4-[(2<I>R</I>)-1-hydroxypropan-2-yl]-2-methylcyclopentyl]oxy-2-oxoethyl]-6-[(2<I>S</I>,3<I>R</I>,4<I>S</I>,5<I>S</I>,6<I>R</I>)-3,4,5-trihydroxy-6-(hydroxymethyl)oxan-2-yl]oxy-4<I>H</I>-pyran-3-carboxylic acid

> <PUBCHEM_IUPAC_NAME>
(4S,5E,6S)-5-ethylidene-4-[2-[(1S,2R,3S,4S)-3-[[2-[(2S,3E,4S)-3-ethylidene-5-methoxycarbonyl-2-[(2S,3R,4S,5S,6R)-3,4,5-trihydroxy-6-(hydroxymethyl)oxan-2-yl]oxy-4H-pyran-4-yl]acetyl]oxymethyl]-4-[(2R)-1-hydroxypropan-2-yl]-2-methylcyclopentyl]oxy-2-oxoethyl]-6-[(2S,3R,4S,5S,6R)-3,4,5-trihydroxy-6-(hydroxymethyl)oxan-2-yl]oxy-4H-pyran-3-carboxylic acid

> <PUBCHEM_IUPAC_SYSTEMATIC_NAME>
(4S,5E,6S)-5-ethylidene-4-[2-[(1S,2R,3S,4S)-3-[2-[(2S,3E,4S)-3-ethylidene-2-[(2S,3R,4S,5S,6R)-6-(hydroxymethyl)-3,4,5-tris(oxidanyl)oxan-2-yl]oxy-5-methoxycarbonyl-4H-pyran-4-yl]ethanoyloxymethyl]-2-methyl-4-[(2R)-1-oxidanylpropan-2-yl]cyclopentyl]oxy-2-oxidanylidene-ethyl]-6-[(2S,3R,4S,5S,6R)-6-(hydroxymethyl)-3,4,5-tris(oxidanyl)oxan-2-yl]oxy-4H-pyran-3-carboxylic acid

> <PUBCHEM_IUPAC_TRADITIONAL_NAME>
(4S,5E,6S)-4-[2-[(1S,2R,3S,4S)-3-[[2-[(2S,3E,4S)-5-carbomethoxy-3-ethylidene-2-[(2S,3R,4S,5S,6R)-3,4,5-trihydroxy-6-methylol-tetrahydropyran-2-yl]oxy-4H-pyran-4-yl]acetyl]oxymethyl]-4-[(1R)-2-hydroxy-1-methyl-ethyl]-2-methyl-cyclopentoxy]-2-keto-ethyl]-5-ethylidene-6-[(2S,3R,4S,5S,6R)-3,4,5-trihydroxy-6-methylol-tetrahydropyran-2-yl]oxy-4H-pyran-3-carboxylic acid

> <PUBCHEM_IUPAC_INCHI>
InChI=1S/C43H62O23/c1-6-19-22(25(38(55)56)15-60-40(19)65-42-36(53)34(51)32(49)28(12-45)63-42)10-31(48)62-27-8-21(17(3)11-44)24(18(27)4)14-59-30(47)9-23-20(7-2)41(61-16-26(23)39(57)58-5)66-43-37(54)35(52)33(50)29(13-46)64-43/h6-7,15-18,21-24,27-29,32-37,40-46,49-54H,8-14H2,1-5H3,(H,55,56)/b19-6+,20-7+/t17-,18+,21-,22-,23-,24+,27-,28+,29+,32+,33+,34-,35-,36+,37+,40-,41-,42-,43-/m0/s1

> <PUBCHEM_IUPAC_INCHIKEY>
GCVHEYYKXYZLNQ-BGSHFNPISA-N

> <PUBCHEM_XLOGP3_AA>
-2.3

> <PUBCHEM_EXACT_MASS>
946.368188

> <PUBCHEM_MOLECULAR_FORMULA>
C43H62O23

> <PUBCHEM_MOLECULAR_WEIGHT>
946.9

> <PUBCHEM_OPENEYE_CAN_SMILES>
CC=C1C(C(=COC1OC2C(C(C(C(O2)CO)O)O)O)C(=O)OC)CC(=O)OCC3C(C(CC3C(C)CO)OC(=O)CC4C(=COC(C4=CC)OC5C(C(C(C(O5)CO)O)O)O)C(=O)O)C

> <PUBCHEM_OPENEYE_ISO_SMILES>
C/C=C/1\[C@@H](C(=CO[C@H]1O[C@H]2[C@@H]([C@H]([C@@H]([C@H](O2)CO)O)O)O)C(=O)OC)CC(=O)OC[C@@H]3[C@H]([C@H](C[C@H]3[C@@H](C)CO)OC(=O)C[C@@H]\4C(=CO[C@H](/C4=C/C)O[C@H]5[C@@H]([C@H]([C@@H]([C@H](O5)CO)O)O)O)C(=O)O)C

> <PUBCHEM_CACTVS_TPSA>
354

> <PUBCHEM_MONOISOTOPIC_WEIGHT>
946.368188

> <PUBCHEM_TOTAL_CHARGE>
0

> <PUBCHEM_HEAVY_ATOM_COUNT>
66

> <PUBCHEM_ATOM_DEF_STEREO_COUNT>
19

> <PUBCHEM_ATOM_UDEF_STEREO_COUNT>
0

> <PUBCHEM_BOND_DEF_STEREO_COUNT>
2

> <PUBCHEM_BOND_UDEF_STEREO_COUNT>
0

> <PUBCHEM_ISOTOPIC_ATOM_COUNT>
0

> <PUBCHEM_COMPONENT_COUNT>
1

> <PUBCHEM_CACTVS_TAUTO_COUNT>
-1

> <PUBCHEM_COORDINATE_TYPE>
1
5
255

> <PUBCHEM_BONDANNOTATIONS>
28  1  6
50  13  6
52  14  5
55  16  6
57  17  6
58  18  5
59  19  6
24  67  5
25  30  5
26  31  6
29  33  5
37  35  6
39  38  5
56  63  5
60  65  5
42  7  5
48  7  5
45  8  6
53  8  5

$$$$
