89488
  -OEChem-09042011303D

 27 27  0     1  0  0  0  0  0999 V2000
    3.9383    0.5977   -0.2249 O   0  0  0  0  0  0  0  0  0  0  0  0
   -1.1096   -0.0021   -0.1731 C   0  0  1  0  0  0  0  0  0  0  0  0
   -2.5769    0.0624    0.2444 C   0  0  0  0  0  0  0  0  0  0  0  0
   -0.3162    1.1741    0.4113 C   0  0  0  0  0  0  0  0  0  0  0  0
   -0.4806   -1.3418    0.2509 C   0  0  0  0  0  0  0  0  0  0  0  0
    1.1443    1.1419   -0.0516 C   0  0  0  0  0  0  0  0  0  0  0  0
    1.0183   -1.3528    0.1531 C   0  0  0  0  0  0  0  0  0  0  0  0
    1.7392   -0.2322    0.0042 C   0  0  0  0  0  0  0  0  0  0  0  0
   -3.1877    1.4062   -0.1466 C   0  0  0  0  0  0  0  0  0  0  0  0
   -3.3641   -1.0873   -0.3807 C   0  0  0  0  0  0  0  0  0  0  0  0
    3.1951   -0.3660   -0.0870 C   0  0  0  0  0  0  0  0  0  0  0  0
   -1.0497    0.0682   -1.2696 H   0  0  0  0  0  0  0  0  0  0  0  0
   -2.6576   -0.0331    1.3353 H   0  0  0  0  0  0  0  0  0  0  0  0
   -0.3541    1.1406    1.5082 H   0  0  0  0  0  0  0  0  0  0  0  0
   -0.7257    2.1415    0.1051 H   0  0  0  0  0  0  0  0  0  0  0  0
   -0.8567   -2.1454   -0.3927 H   0  0  0  0  0  0  0  0  0  0  0  0
   -0.7563   -1.5927    1.2826 H   0  0  0  0  0  0  0  0  0  0  0  0
    1.7197    1.8355    0.5730 H   0  0  0  0  0  0  0  0  0  0  0  0
    1.2064    1.5084   -1.0840 H   0  0  0  0  0  0  0  0  0  0  0  0
    1.5003   -2.3249    0.2141 H   0  0  0  0  0  0  0  0  0  0  0  0
   -2.9891    1.6510   -1.1955 H   0  0  0  0  0  0  0  0  0  0  0  0
   -4.2754    1.3884   -0.0125 H   0  0  0  0  0  0  0  0  0  0  0  0
   -2.8185    2.2225    0.4813 H   0  0  0  0  0  0  0  0  0  0  0  0
   -3.2427   -1.1113   -1.4690 H   0  0  0  0  0  0  0  0  0  0  0  0
   -4.4341   -0.9827   -0.1684 H   0  0  0  0  0  0  0  0  0  0  0  0
   -3.0607   -2.0579    0.0231 H   0  0  0  0  0  0  0  0  0  0  0  0
    3.5981   -1.3911   -0.0273 H   0  0  0  0  0  0  0  0  0  0  0  0
  1 11  2  0  0  0  0
  2  3  1  0  0  0  0
  2  4  1  0  0  0  0
  2  5  1  0  0  0  0
  2 12  1  0  0  0  0
  3  9  1  0  0  0  0
  3 10  1  0  0  0  0
  3 13  1  0  0  0  0
  4  6  1  0  0  0  0
  4 14  1  0  0  0  0
  4 15  1  0  0  0  0
  5  7  1  0  0  0  0
  5 16  1  0  0  0  0
  5 17  1  0  0  0  0
  6  8  1  0  0  0  0
  6 18  1  0  0  0  0
  6 19  1  0  0  0  0
  7  8  2  0  0  0  0
  7 20  1  0  0  0  0
  8 11  1  0  0  0  0
  9 21  1  0  0  0  0
  9 22  1  0  0  0  0
  9 23  1  0  0  0  0
 10 24  1  0  0  0  0
 10 25  1  0  0  0  0
 10 26  1  0  0  0  0
 11 27  1  0  0  0  0
M  END
> <PUBCHEM_COMPOUND_CID>
89488

> <PUBCHEM_CONFORMER_RMSD>
0.6

> <PUBCHEM_CONFORMER_DIVERSEORDER>
1
3
4
2

> <PUBCHEM_MMFF94_PARTIAL_CHARGES>
8
1 -0.57
11 0.5
20 0.15
27 0.06
5 0.14
6 0.14
7 -0.29
8 -0.12

> <PUBCHEM_EFFECTIVE_ROTOR_COUNT>
2.8

> <PUBCHEM_PHARMACOPHORE_FEATURES>
3
1 1 acceptor
3 3 9 10 hydrophobe
6 2 4 5 6 7 8 rings

> <PUBCHEM_HEAVY_ATOM_COUNT>
11

> <PUBCHEM_ATOM_DEF_STEREO_COUNT>
0

> <PUBCHEM_ATOM_UDEF_STEREO_COUNT>
1

> <PUBCHEM_BOND_DEF_STEREO_COUNT>
0

> <PUBCHEM_BOND_UDEF_STEREO_COUNT>
0

> <PUBCHEM_ISOTOPIC_ATOM_COUNT>
0

> <PUBCHEM_COMPONENT_COUNT>
1

> <PUBCHEM_CACTVS_TAUTO_COUNT>
1

> <PUBCHEM_CONFORMER_ID>
00015D9000000001

> <PUBCHEM_MMFF94_ENERGY>
11.5266

> <PUBCHEM_FEATURE_SELFOVERLAP>
15.223

> <PUBCHEM_SHAPE_FINGERPRINT>
10219947 1 17675926490933972238
11062470 55 18259987058902727572
11132069 177 18341045238045903128
11401426 45 18412255130114738160
12032990 46 18412833498816389102
12897270 3 18341330007130602419
12932764 1 17131821067185224319
14325111 11 18409167696920997512
14993402 34 18259705622722998254
15775835 57 18336548226951105629
16945 1 18335423495011694947
18186145 218 18336548231209195332
193761 8 17618223248724431514
20201158 50 18409449189178070531
21293036 1 18411138060560442358
23235685 24 18409444778314982448
23402539 116 18342168952151982862
23402655 69 18268414743291004421
23463225 33 18262796259825425346
23552423 10 18335138678877449531
23559900 14 18272089379975489842
2748010 2 17905890636130983203
3248919 1 16950573172384377963
3312278 4 18341896264441047865
5084963 1 18272088339928714193
528886 8 18410569557224817977
53812653 166 18413384319760963856
63268167 104 18340488855044678105

> <PUBCHEM_SHAPE_MULTIPOLES>
220.51
5.86
1.53
0.66
1.05
0.01
-0.01
-0.51
0.73
-0.55
-0.03
-0.08
0.01
-0.13

> <PUBCHEM_SHAPE_SELFOVERLAP>
435.32

> <PUBCHEM_SHAPE_VOLUME>
130.7

> <PUBCHEM_COORDINATE_TYPE>
2
5
10

$$$$
