137941
  -OEChem-09042010583D

 22 21  0     0  0  0  0  0  0999 V2000
   -1.0435    0.8912   -0.6044 O   0  0  0  0  0  0  0  0  0  0  0  0
   -0.2742   -0.9367    0.7553 O   0  0  0  0  0  0  0  0  0  0  0  0
    0.0517    0.0153   -0.2722 C   0  0  0  0  0  0  0  0  0  0  0  0
    1.2608    0.8381    0.2379 C   0  0  0  0  0  0  0  0  0  0  0  0
    0.4197   -0.6988   -1.5824 C   0  0  0  0  0  0  0  0  0  0  0  0
    2.5144    0.0203    0.5281 C   0  0  0  0  0  0  0  0  0  0  0  0
   -1.5603    1.6672    0.4674 C   0  0  0  0  0  0  0  0  0  0  0  0
   -1.3687   -1.7966    0.4703 C   0  0  0  0  0  0  0  0  0  0  0  0
    0.9898    1.3364    1.1767 H   0  0  0  0  0  0  0  0  0  0  0  0
    1.4970    1.6376   -0.4751 H   0  0  0  0  0  0  0  0  0  0  0  0
    0.8481    0.0033   -2.3063 H   0  0  0  0  0  0  0  0  0  0  0  0
    1.1219   -1.5217   -1.4168 H   0  0  0  0  0  0  0  0  0  0  0  0
   -0.4708   -1.1232   -2.0607 H   0  0  0  0  0  0  0  0  0  0  0  0
    2.3125   -0.7834    1.2426 H   0  0  0  0  0  0  0  0  0  0  0  0
    3.2878    0.6647    0.9590 H   0  0  0  0  0  0  0  0  0  0  0  0
    2.9259   -0.4202   -0.3846 H   0  0  0  0  0  0  0  0  0  0  0  0
   -2.5045    2.1099    0.1380 H   0  0  0  0  0  0  0  0  0  0  0  0
   -0.8782    2.4851    0.7141 H   0  0  0  0  0  0  0  0  0  0  0  0
   -1.7580    1.0563    1.3523 H   0  0  0  0  0  0  0  0  0  0  0  0
   -2.2555   -1.2327    0.1683 H   0  0  0  0  0  0  0  0  0  0  0  0
   -1.6087   -2.3509    1.3820 H   0  0  0  0  0  0  0  0  0  0  0  0
   -1.0995   -2.5225   -0.3016 H   0  0  0  0  0  0  0  0  0  0  0  0
  1  3  1  0  0  0  0
  1  7  1  0  0  0  0
  2  3  1  0  0  0  0
  2  8  1  0  0  0  0
  3  4  1  0  0  0  0
  3  5  1  0  0  0  0
  4  6  1  0  0  0  0
  4  9  1  0  0  0  0
  4 10  1  0  0  0  0
  5 11  1  0  0  0  0
  5 12  1  0  0  0  0
  5 13  1  0  0  0  0
  6 14  1  0  0  0  0
  6 15  1  0  0  0  0
  6 16  1  0  0  0  0
  7 17  1  0  0  0  0
  7 18  1  0  0  0  0
  7 19  1  0  0  0  0
  8 20  1  0  0  0  0
  8 21  1  0  0  0  0
  8 22  1  0  0  0  0
M  END
> <PUBCHEM_COMPOUND_CID>
137941

> <PUBCHEM_CONFORMER_RMSD>
0.6

> <PUBCHEM_CONFORMER_DIVERSEORDER>
1
9
4
2
7
6
3
5
8

> <PUBCHEM_MMFF94_PARTIAL_CHARGES>
5
1 -0.56
2 -0.56
3 0.56
7 0.28
8 0.28

> <PUBCHEM_EFFECTIVE_ROTOR_COUNT>
3

> <PUBCHEM_PHARMACOPHORE_FEATURES>
3
1 1 acceptor
1 2 acceptor
1 6 hydrophobe

> <PUBCHEM_HEAVY_ATOM_COUNT>
8

> <PUBCHEM_ATOM_DEF_STEREO_COUNT>
0

> <PUBCHEM_ATOM_UDEF_STEREO_COUNT>
0

> <PUBCHEM_BOND_DEF_STEREO_COUNT>
0

> <PUBCHEM_BOND_UDEF_STEREO_COUNT>
0

> <PUBCHEM_ISOTOPIC_ATOM_COUNT>
0

> <PUBCHEM_COMPONENT_COUNT>
1

> <PUBCHEM_CACTVS_TAUTO_COUNT>
1

> <PUBCHEM_CONFORMER_ID>
00021AD500000001

> <PUBCHEM_MMFF94_ENERGY>
21.9886

> <PUBCHEM_FEATURE_SELFOVERLAP>
15.254

> <PUBCHEM_SHAPE_FINGERPRINT>
137420 1 14882600024958008444
20653085 51 16988559074521182616
21040471 1 18191598462004590052
21930827 45 18196401163170174372
24536 1 18045472426587011864
29004967 10 17613427166092914050
5084963 1 18268127795718752196
5943 1 14659680922742408430
68250623 7 17985529083733083583

> <PUBCHEM_SHAPE_MULTIPOLES>
152.9
2.37
1.73
1.13
1.24
0.07
-0.39
0.27
0.69
-1.17
0.24
0.07
-0.33
0.26

> <PUBCHEM_SHAPE_SELFOVERLAP>
273.25

> <PUBCHEM_SHAPE_VOLUME>
100.8

> <PUBCHEM_COORDINATE_TYPE>
2
5
10

$$$$
