16212927
  -OEChem-09042011423D

 39 42  0     1  0  0  0  0  0999 V2000
    1.4744    0.0177    0.8567 C   0  0  2  0  0  0  0  0  0  0  0  0
    0.3132    0.9624    0.9202 C   0  0  1  0  0  0  0  0  0  0  0  0
    1.6778    1.4814    0.6202 C   0  0  2  0  0  0  0  0  0  0  0  0
    1.4209   -0.6926   -0.4926 C   0  0  2  0  0  0  0  0  0  0  0  0
    0.8183    0.5417   -1.2671 C   0  0  1  0  0  0  0  0  0  0  0  0
   -0.4490    0.8644   -0.3951 C   0  0  1  0  0  0  0  0  0  0  0  0
    1.7573    1.7255   -0.8677 C   0  0  0  0  0  0  0  0  0  0  0  0
   -1.4895   -0.2580   -0.4408 C   0  0  1  0  0  0  0  0  0  0  0  0
    0.4587   -1.8935   -0.5001 C   0  0  0  0  0  0  0  0  0  0  0  0
    1.9925   -0.6436    2.0711 C   0  0  0  0  0  0  0  0  0  0  0  0
   -0.9271   -1.5898    0.0672 C   0  0  0  0  0  0  0  0  0  0  0  0
    2.8027   -1.1300   -0.9779 C   0  0  0  0  0  0  0  0  0  0  0  0
   -2.7485    0.1202    0.3401 C   0  0  0  0  0  0  0  0  0  0  0  0
   -3.8093   -0.9691    0.2052 C   0  0  0  0  0  0  0  0  0  0  0  0
   -3.2922    1.4634   -0.1392 C   0  0  0  0  0  0  0  0  0  0  0  0
   -0.2055    1.2118    1.8254 H   0  0  0  0  0  0  0  0  0  0  0  0
    2.2122    2.1231    1.2930 H   0  0  0  0  0  0  0  0  0  0  0  0
    0.6431    0.4082   -2.3357 H   0  0  0  0  0  0  0  0  0  0  0  0
   -0.8453    1.8358   -0.7041 H   0  0  0  0  0  0  0  0  0  0  0  0
    2.7720    1.6311   -1.2600 H   0  0  0  0  0  0  0  0  0  0  0  0
    1.3428    2.6996   -1.1455 H   0  0  0  0  0  0  0  0  0  0  0  0
   -1.7640   -0.3971   -1.4968 H   0  0  0  0  0  0  0  0  0  0  0  0
    0.8860   -2.7289    0.0687 H   0  0  0  0  0  0  0  0  0  0  0  0
    0.3446   -2.2464   -1.5336 H   0  0  0  0  0  0  0  0  0  0  0  0
    1.4339   -1.5586    2.2902 H   0  0  0  0  0  0  0  0  0  0  0  0
    3.0465   -0.9113    1.9480 H   0  0  0  0  0  0  0  0  0  0  0  0
    1.9182    0.0065    2.9497 H   0  0  0  0  0  0  0  0  0  0  0  0
   -1.5870   -2.4210   -0.2062 H   0  0  0  0  0  0  0  0  0  0  0  0
   -0.8744   -1.5873    1.1633 H   0  0  0  0  0  0  0  0  0  0  0  0
    3.5661   -0.3572   -0.8492 H   0  0  0  0  0  0  0  0  0  0  0  0
    3.1544   -2.0032   -0.4164 H   0  0  0  0  0  0  0  0  0  0  0  0
    2.7722   -1.4042   -2.0378 H   0  0  0  0  0  0  0  0  0  0  0  0
   -2.5137    0.2203    1.4078 H   0  0  0  0  0  0  0  0  0  0  0  0
   -4.0128   -1.2045   -0.8450 H   0  0  0  0  0  0  0  0  0  0  0  0
   -3.5180   -1.8908    0.7178 H   0  0  0  0  0  0  0  0  0  0  0  0
   -4.7527   -0.6477    0.6611 H   0  0  0  0  0  0  0  0  0  0  0  0
   -3.3679    1.5049   -1.2311 H   0  0  0  0  0  0  0  0  0  0  0  0
   -2.6787    2.3012    0.2056 H   0  0  0  0  0  0  0  0  0  0  0  0
   -4.2952    1.6397    0.2664 H   0  0  0  0  0  0  0  0  0  0  0  0
  1  2  1  0  0  0  0
  1  3  1  0  0  0  0
  1  4  1  0  0  0  0
  1 10  1  0  0  0  0
  2  3  1  0  0  0  0
  2  6  1  0  0  0  0
  2 16  1  0  0  0  0
  3  7  1  0  0  0  0
  3 17  1  0  0  0  0
  4  5  1  0  0  0  0
  4  9  1  0  0  0  0
  4 12  1  0  0  0  0
  5  6  1  0  0  0  0
  5  7  1  0  0  0  0
  5 18  1  0  0  0  0
  6  8  1  0  0  0  0
  6 19  1  0  0  0  0
  7 20  1  0  0  0  0
  7 21  1  0  0  0  0
  8 11  1  0  0  0  0
  8 13  1  0  0  0  0
  8 22  1  0  0  0  0
  9 11  1  0  0  0  0
  9 23  1  0  0  0  0
  9 24  1  0  0  0  0
 10 25  1  0  0  0  0
 10 26  1  0  0  0  0
 10 27  1  0  0  0  0
 11 28  1  0  0  0  0
 11 29  1  0  0  0  0
 12 30  1  0  0  0  0
 12 31  1  0  0  0  0
 12 32  1  0  0  0  0
 13 14  1  0  0  0  0
 13 15  1  0  0  0  0
 13 33  1  0  0  0  0
 14 34  1  0  0  0  0
 14 35  1  0  0  0  0
 14 36  1  0  0  0  0
 15 37  1  0  0  0  0
 15 38  1  0  0  0  0
 15 39  1  0  0  0  0
M  END
> <PUBCHEM_COMPOUND_CID>
16212927

> <PUBCHEM_CONFORMER_RMSD>
0.6

> <PUBCHEM_CONFORMER_DIVERSEORDER>
1
2

> <PUBCHEM_MMFF94_PARTIAL_CHARGES>
9
1 -0.19
10 0.09
16 0.1
17 0.1
2 -0.19
3 -0.19
4 0.09
6 0.09
7 0.09

> <PUBCHEM_EFFECTIVE_ROTOR_COUNT>
1.8

> <PUBCHEM_PHARMACOPHORE_FEATURES>
3
3 13 14 15 hydrophobe
7 1 2 3 4 5 6 7 rings
8 1 2 4 5 6 8 9 11 rings

> <PUBCHEM_HEAVY_ATOM_COUNT>
15

> <PUBCHEM_ATOM_DEF_STEREO_COUNT>
7

> <PUBCHEM_ATOM_UDEF_STEREO_COUNT>
0

> <PUBCHEM_BOND_DEF_STEREO_COUNT>
0

> <PUBCHEM_BOND_UDEF_STEREO_COUNT>
0

> <PUBCHEM_ISOTOPIC_ATOM_COUNT>
0

> <PUBCHEM_COMPONENT_COUNT>
1

> <PUBCHEM_CACTVS_TAUTO_COUNT>
1

> <PUBCHEM_CONFORMER_ID>
00F763BF00000001

> <PUBCHEM_MMFF94_ENERGY>
68.282

> <PUBCHEM_FEATURE_SELFOVERLAP>
17.36

> <PUBCHEM_SHAPE_FINGERPRINT>
10863032 1 18270130118246315182
10948715 1 18191028000454230340
11680611 10 18117820299804903715
12423570 1 9923097556353909568
12654215 9 18199463281832012053
12725867 57 18059575720238823212
12932764 1 17458063742553374589
13024252 1 15795441611373592006
13134695 92 16773229570475501224
13538477 17 17971186178087433291
13571099 22 17988642935249211877
13571099 52 17417226832256171043
144361 1 18263096469190784322
14817 1 8786446384349282536
15775835 57 18059019500752167367
16945 1 18337942381640478790
17990270 104 18408608045708285311
20511035 2 18130786806245451830
21501502 16 18199186376463270631
21524375 3 17827364589591749060
22344851 341 18116155652506910730
230 275 17561078129141447001
23419403 2 17122234215060322458
23559900 14 18201166443293680446
2748010 2 18412825802445673165
5084963 1 18202571665649180799
528886 8 18410583876740760926
5337951 7 17560809861004548582
53812653 166 18200029525835406283
7364860 26 18271529796496018700

> <PUBCHEM_SHAPE_MULTIPOLES>
308.69
4.56
1.86
1.32
4.61
0.04
0.44
0.15
0.18
-0.18
-0.23
-1.03
0.06
0.09

> <PUBCHEM_SHAPE_SELFOVERLAP>
680.016

> <PUBCHEM_SHAPE_VOLUME>
171.5

> <PUBCHEM_COORDINATE_TYPE>
2
5
10

$$$$
