10155076
  -OEChem-09042004443D

 43 44  0     1  0  0  0  0  0999 V2000
    1.4698    0.3694    0.6110 O   0  0  0  0  0  0  0  0  0  0  0  0
    3.8500   -1.4793   -2.5063 O   0  0  0  0  0  0  0  0  0  0  0  0
    2.7074   -1.9923    1.6693 O   0  0  0  0  0  0  0  0  0  0  0  0
    4.3273   -3.1694   -0.2516 O   0  0  0  0  0  0  0  0  0  0  0  0
    3.7291    2.8017   -0.3974 O   0  0  0  0  0  0  0  0  0  0  0  0
    2.0938    2.9140    1.1866 O   0  0  0  0  0  0  0  0  0  0  0  0
    0.7004    1.6148   -1.1765 O   0  0  0  0  0  0  0  0  0  0  0  0
   -6.5243   -0.0797   -1.7095 O   0  0  0  0  0  0  0  0  0  0  0  0
   -7.0747   -1.0423    0.8393 O   0  0  0  0  0  0  0  0  0  0  0  0
    2.8073    0.7654    0.3326 C   0  0  0  0  0  0  0  0  0  0  0  0
    3.2052    0.3272   -1.0784 C   0  0  0  0  0  0  0  0  0  0  0  0
    3.7458    0.1814    1.3986 C   0  0  0  0  0  0  0  0  0  0  0  0
    3.3424   -1.1918   -1.2033 C   0  0  2  0  0  0  0  0  0  0  0  0
    3.9135   -1.3375    1.2742 C   0  0  2  0  0  0  0  0  0  0  0  0
    4.3041   -1.7466   -0.1499 C   0  0  0  0  0  0  0  0  0  0  0  0
    2.8134    2.2627    0.4441 C   0  0  0  0  0  0  0  0  0  0  0  0
    0.5164    0.8706   -0.2263 C   0  0  0  0  0  0  0  0  0  0  0  0
   -0.7978    0.3542    0.2184 C   0  0  0  0  0  0  0  0  0  0  0  0
   -1.9048    0.6966   -0.4560 C   0  0  0  0  0  0  0  0  0  0  0  0
   -3.2648    0.2403   -0.1188 C   0  0  0  0  0  0  0  0  0  0  0  0
   -4.2580    0.2973   -1.0829 C   0  0  0  0  0  0  0  0  0  0  0  0
   -3.5236   -0.2366    1.1559 C   0  0  0  0  0  0  0  0  0  0  0  0
   -5.5453   -0.1346   -0.7637 C   0  0  0  0  0  0  0  0  0  0  0  0
   -4.8109   -0.6684    1.4753 C   0  0  0  0  0  0  0  0  0  0  0  0
   -5.8217   -0.6173    0.5153 C   0  0  0  0  0  0  0  0  0  0  0  0
    4.1913    0.7412   -1.3373 H   0  0  0  0  0  0  0  0  0  0  0  0
    2.5599    0.6853   -1.8837 H   0  0  0  0  0  0  0  0  0  0  0  0
    3.3484    0.4108    2.3961 H   0  0  0  0  0  0  0  0  0  0  0  0
    4.7335    0.6539    1.3216 H   0  0  0  0  0  0  0  0  0  0  0  0
    2.3656   -1.6833   -1.1291 H   0  0  0  0  0  0  0  0  0  0  0  0
    4.6818   -1.6807    1.9758 H   0  0  0  0  0  0  0  0  0  0  0  0
    5.3203   -1.3969   -0.3717 H   0  0  0  0  0  0  0  0  0  0  0  0
    3.2061   -1.1437   -3.1532 H   0  0  0  0  0  0  0  0  0  0  0  0
    1.9835   -1.6680    1.1085 H   0  0  0  0  0  0  0  0  0  0  0  0
    4.9481   -3.5004    0.4197 H   0  0  0  0  0  0  0  0  0  0  0  0
    3.7475    3.7808   -0.3405 H   0  0  0  0  0  0  0  0  0  0  0  0
   -0.7994   -0.3107    1.0742 H   0  0  0  0  0  0  0  0  0  0  0  0
   -1.8346    1.3471   -1.3250 H   0  0  0  0  0  0  0  0  0  0  0  0
   -4.0438    0.6723   -2.0809 H   0  0  0  0  0  0  0  0  0  0  0  0
   -2.7743   -0.2742    1.9402 H   0  0  0  0  0  0  0  0  0  0  0  0
   -5.0216   -1.0392    2.4748 H   0  0  0  0  0  0  0  0  0  0  0  0
   -6.1510    0.2809   -2.5321 H   0  0  0  0  0  0  0  0  0  0  0  0
   -7.6451   -0.9364    0.0582 H   0  0  0  0  0  0  0  0  0  0  0  0
  1 10  1  0  0  0  0
  1 17  1  0  0  0  0
  2 13  1  0  0  0  0
  2 33  1  0  0  0  0
  3 14  1  0  0  0  0
  3 34  1  0  0  0  0
  4 15  1  0  0  0  0
  4 35  1  0  0  0  0
  5 16  1  0  0  0  0
  5 36  1  0  0  0  0
  6 16  2  0  0  0  0
  7 17  2  0  0  0  0
  8 23  1  0  0  0  0
  8 42  1  0  0  0  0
  9 25  1  0  0  0  0
  9 43  1  0  0  0  0
 10 11  1  0  0  0  0
 10 12  1  0  0  0  0
 10 16  1  0  0  0  0
 11 13  1  0  0  0  0
 11 26  1  0  0  0  0
 11 27  1  0  0  0  0
 12 14  1  0  0  0  0
 12 28  1  0  0  0  0
 12 29  1  0  0  0  0
 13 15  1  0  0  0  0
 13 30  1  0  0  0  0
 14 15  1  0  0  0  0
 14 31  1  0  0  0  0
 15 32  1  0  0  0  0
 17 18  1  0  0  0  0
 18 19  2  0  0  0  0
 18 37  1  0  0  0  0
 19 20  1  0  0  0  0
 19 38  1  0  0  0  0
 20 21  2  0  0  0  0
 20 22  1  0  0  0  0
 21 23  1  0  0  0  0
 21 39  1  0  0  0  0
 22 24  2  0  0  0  0
 22 40  1  0  0  0  0
 23 25  2  0  0  0  0
 24 25  1  0  0  0  0
 24 41  1  0  0  0  0
M  END
> <PUBCHEM_COMPOUND_CID>
10155076

> <PUBCHEM_CONFORMER_RMSD>
0.8

> <PUBCHEM_CONFORMER_DIVERSEORDER>
1
34
41
80
107
116
57
131
43
84
22
95
32
96
122
124
54
50
88
28
3
90
11
126
112
10
17
56
120
129
7
109
33
26
68
53
36
119
130
97
40
81
145
35
143
100
115
59
89
147
93
82
37
137
13
47
85
111
73
46
72
140
136
20
74
5
141
123
9
113
63
29
25
127
49
144
98
103
149
108
139
38
150
146
58
66
152
12
142
134
14
118
44
64
102
6
61
76
70
128
2
135
106
71
62
138
21
30
121
99
125
114
78
148
19
104
79
39
4
52
23
55
51
27
42
24
132
87
133
48
8
86
117
83
75
67
65
151
31
94
15
77
16
69
105
110
91
101
92
45
18
60

> <PUBCHEM_MMFF94_PARTIAL_CHARGES>
34
1 -0.43
10 0.34
13 0.28
14 0.28
15 0.28
16 0.66
17 0.71
18 -0.14
19 -0.18
2 -0.68
20 0.03
21 -0.15
22 -0.15
23 0.08
24 -0.15
25 0.08
3 -0.68
33 0.4
34 0.4
35 0.4
36 0.5
37 0.15
38 0.15
39 0.15
4 -0.68
40 0.15
41 0.15
42 0.45
43 0.45
5 -0.65
6 -0.57
7 -0.57
8 -0.53
9 -0.53

> <PUBCHEM_EFFECTIVE_ROTOR_COUNT>
6.2

> <PUBCHEM_PHARMACOPHORE_FEATURES>
14
1 2 acceptor
1 2 donor
1 3 acceptor
1 3 donor
1 4 acceptor
1 4 donor
1 5 acceptor
1 6 acceptor
1 7 acceptor
1 8 donor
1 9 donor
3 5 6 16 anion
6 10 11 12 13 14 15 rings
6 20 21 22 23 24 25 rings

> <PUBCHEM_HEAVY_ATOM_COUNT>
25

> <PUBCHEM_ATOM_DEF_STEREO_COUNT>
2

> <PUBCHEM_ATOM_UDEF_STEREO_COUNT>
0

> <PUBCHEM_BOND_DEF_STEREO_COUNT>
1

> <PUBCHEM_BOND_UDEF_STEREO_COUNT>
0

> <PUBCHEM_ISOTOPIC_ATOM_COUNT>
0

> <PUBCHEM_COMPONENT_COUNT>
1

> <PUBCHEM_CACTVS_TAUTO_COUNT>
10

> <PUBCHEM_CONFORMER_ID>
009AF44400000001

> <PUBCHEM_MMFF94_ENERGY>
73.476

> <PUBCHEM_FEATURE_SELFOVERLAP>
71.125

> <PUBCHEM_SHAPE_FINGERPRINT>
10554248 39 13624347102477080155
10912923 1 17418095464302646833
11059845 2 15406987326702410002
11595378 159 15554449570017334667
12596602 18 15769770256437407259
12616971 3 17917989491001646469
12730499 353 18336833116527485216
13533116 47 18413109485267767201
13782708 43 17968099785383736683
13911852 28 18126564514128347822
13914758 101 18131065988764602389
13955234 65 18270959150219783152
13965767 371 11311190064452982378
14211702 104 18200028581776863551
14366163 111 13912327862722073807
14528608 73 13334741241025016843
14910302 57 17240194439825933879
15183329 4 16878223074537295359
15250474 111 17560507525830916895
15664445 248 16805895086238042420
15788980 27 18130787850402363909
17349148 13 17775290460832789175
17844677 252 18333170561944231245
17857418 61 17775280560970296847
1813 80 18130230354719792068
19377110 9 16630517475522460325
20369508 70 18334289851721780016
20645477 70 18410008844886132148
21033650 10 15647612233858248109
220451 1 18059861722654253045
22061861 79 18333728014360262063
2215653 11 17968088712588515703
22224240 67 18130493246016604536
2303208 19 17968101941209009443
23081809 10 17561085835046057233
23559900 14 17676487259091726749
239999 70 18408044035182681112
29717793 49 18342451530998754485
3004659 81 16515399647101969602
312423 11 18342185440131096777
3298306 158 17749100063911133971
345986 75 17846216592575084026
34797466 226 17095816507104373693
44317340 157 8718831994457080065
465052 167 18412547582986062398
5104073 3 18411698764647499281
59682541 52 17968640646046054351
7970288 3 18196935470356938374
8509985 295 15195565680197259298
8988823 20 18342450478357441269
960060 61 17167869646707554734
9841814 1 18412543193924780448

> <PUBCHEM_SHAPE_MULTIPOLES>
461.66
15.24
2.39
1.64
25.08
0.36
0.34
-6.24
0.65
-4.94
-0.24
-0.41
-0.46
1.11

> <PUBCHEM_SHAPE_SELFOVERLAP>
986.599

> <PUBCHEM_SHAPE_VOLUME>
252.5

> <PUBCHEM_COORDINATE_TYPE>
2
5
10

$$$$
