44154753
  -OEChem-09042009443D

 42 44  0     0  0  0  0  0  0999 V2000
   -0.5079   -0.0075    1.1741 O   0  0  0  0  0  0  0  0  0  0  0  0
    0.1401    1.5484   -0.4393 O   0  0  0  0  0  0  0  0  0  0  0  0
   -5.7597    1.3980    0.2575 O   0  0  0  0  0  0  0  0  0  0  0  0
   -3.8548   -1.2116   -2.2520 O   0  0  0  0  0  0  0  0  0  0  0  0
   -5.8601   -0.9285   -1.2198 O   0  0  0  0  0  0  0  0  0  0  0  0
    1.8460    0.2208    0.7101 C   0  0  0  0  0  0  0  0  0  0  0  0
    2.0658   -1.2751    0.5294 C   0  0  0  0  0  0  0  0  0  0  0  0
    2.9190    1.0441    0.0096 C   0  0  0  0  0  0  0  0  0  0  0  0
    0.4290    0.6784    0.3728 C   0  0  0  0  0  0  0  0  0  0  0  0
    2.9938   -1.9454    1.3262 C   0  0  0  0  0  0  0  0  0  0  0  0
    3.3866    0.6572   -1.2463 C   0  0  0  0  0  0  0  0  0  0  0  0
    1.3387   -1.9751   -0.4334 C   0  0  0  0  0  0  0  0  0  0  0  0
    3.4342    2.1852    0.6244 C   0  0  0  0  0  0  0  0  0  0  0  0
    3.1950   -3.3157    1.1602 C   0  0  0  0  0  0  0  0  0  0  0  0
    4.3695    1.4114   -1.8875 C   0  0  0  0  0  0  0  0  0  0  0  0
    1.5398   -3.3455   -0.5993 C   0  0  0  0  0  0  0  0  0  0  0  0
    4.4169    2.9395   -0.0167 C   0  0  0  0  0  0  0  0  0  0  0  0
   -1.8048    0.3354    0.9440 C   0  0  0  0  0  0  0  0  0  0  0  0
    2.4680   -4.0157    0.1975 C   0  0  0  0  0  0  0  0  0  0  0  0
    4.8845    2.5524   -1.2727 C   0  0  0  0  0  0  0  0  0  0  0  0
   -2.5507   -0.3558   -0.0107 C   0  0  0  0  0  0  0  0  0  0  0  0
   -2.3881    1.3785    1.6635 C   0  0  0  0  0  0  0  0  0  0  0  0
   -3.8797   -0.0041   -0.2460 C   0  0  0  0  0  0  0  0  0  0  0  0
   -4.4630    1.0388    0.4735 C   0  0  0  0  0  0  0  0  0  0  0  0
   -3.7172    1.7302    1.4283 C   0  0  0  0  0  0  0  0  0  0  0  0
   -4.6409   -0.7382   -1.2473 C   0  0  0  0  0  0  0  0  0  0  0  0
    1.9429    0.4220    1.7886 H   0  0  0  0  0  0  0  0  0  0  0  0
    3.5671   -1.4114    2.0793 H   0  0  0  0  0  0  0  0  0  0  0  0
    2.9961   -0.2110   -1.7667 H   0  0  0  0  0  0  0  0  0  0  0  0
    0.6217   -1.4782   -1.0804 H   0  0  0  0  0  0  0  0  0  0  0  0
    3.0774    2.4995    1.6015 H   0  0  0  0  0  0  0  0  0  0  0  0
    3.9180   -3.8376    1.7803 H   0  0  0  0  0  0  0  0  0  0  0  0
    4.7303    1.1133   -2.8676 H   0  0  0  0  0  0  0  0  0  0  0  0
    0.9765   -3.8900   -1.3516 H   0  0  0  0  0  0  0  0  0  0  0  0
    4.8175    3.8286    0.4614 H   0  0  0  0  0  0  0  0  0  0  0  0
    2.6253   -5.0824    0.0675 H   0  0  0  0  0  0  0  0  0  0  0  0
    5.6487    3.1404   -1.7724 H   0  0  0  0  0  0  0  0  0  0  0  0
   -2.0784   -1.1739   -0.5492 H   0  0  0  0  0  0  0  0  0  0  0  0
   -1.8125    1.9207    2.4089 H   0  0  0  0  0  0  0  0  0  0  0  0
   -4.1585    2.5450    1.9960 H   0  0  0  0  0  0  0  0  0  0  0  0
   -5.9869    2.1378    0.8466 H   0  0  0  0  0  0  0  0  0  0  0  0
   -4.3754   -1.7047   -2.9215 H   0  0  0  0  0  0  0  0  0  0  0  0
  1  9  1  0  0  0  0
  1 18  1  0  0  0  0
  2  9  2  0  0  0  0
  3 24  1  0  0  0  0
  3 41  1  0  0  0  0
  4 26  1  0  0  0  0
  4 42  1  0  0  0  0
  5 26  2  0  0  0  0
  6  7  1  0  0  0  0
  6  8  1  0  0  0  0
  6  9  1  0  0  0  0
  6 27  1  0  0  0  0
  7 10  2  0  0  0  0
  7 12  1  0  0  0  0
  8 11  2  0  0  0  0
  8 13  1  0  0  0  0
 10 14  1  0  0  0  0
 10 28  1  0  0  0  0
 11 15  1  0  0  0  0
 11 29  1  0  0  0  0
 12 16  2  0  0  0  0
 12 30  1  0  0  0  0
 13 17  2  0  0  0  0
 13 31  1  0  0  0  0
 14 19  2  0  0  0  0
 14 32  1  0  0  0  0
 15 20  2  0  0  0  0
 15 33  1  0  0  0  0
 16 19  1  0  0  0  0
 16 34  1  0  0  0  0
 17 20  1  0  0  0  0
 17 35  1  0  0  0  0
 18 21  2  0  0  0  0
 18 22  1  0  0  0  0
 19 36  1  0  0  0  0
 20 37  1  0  0  0  0
 21 23  1  0  0  0  0
 21 38  1  0  0  0  0
 22 25  2  0  0  0  0
 22 39  1  0  0  0  0
 23 24  2  0  0  0  0
 23 26  1  0  0  0  0
 24 25  1  0  0  0  0
 25 40  1  0  0  0  0
M  END
> <PUBCHEM_COMPOUND_CID>
44154753

> <PUBCHEM_CONFORMER_RMSD>
0.8

> <PUBCHEM_CONFORMER_DIVERSEORDER>
1
174
160
63
28
172
164
133
121
60
138
94
126
146
34
47
101
61
54
148
68
90
175
125
71
147
170
41
108
145
59
158
80
169
144
98
183
66
102
111
143
109
130
52
131
135
3
116
27
57
64
139
156
87
88
181
2
177
13
179
100
35
142
50
25
72
30
38
127
21
184
180
44
173
79
119
137
67
42
7
62
5
55
134
124
171
99
141
26
178
155
91
106
149
78
97
122
74
123
96
48
18
70
151
140
45
118
176
168
159
129
8
83
11
84
115
16
163
39
165
105
56
81
12
46
89
75
150
76
153
14
9
82
24
17
40
31
51
93
23
110
161
69
182
77
4
73
85
36
22
114
157
92
167
58
20
37
103
86
162
33
166
117
10
107
152
95
29
65
19
132
154
104
113
128
136
112
53
49
120
32
6
43
15

> <PUBCHEM_MMFF94_PARTIAL_CHARGES>
41
1 -0.23
10 -0.15
11 -0.15
12 -0.15
13 -0.15
14 -0.15
15 -0.15
16 -0.15
17 -0.15
18 0.08
19 -0.15
2 -0.57
20 -0.15
21 -0.15
22 -0.15
23 0.09
24 0.08
25 -0.15
26 0.63
28 0.15
29 0.15
3 -0.53
30 0.15
31 0.15
32 0.15
33 0.15
34 0.15
35 0.15
36 0.15
37 0.15
38 0.15
39 0.15
4 -0.65
40 0.15
41 0.45
42 0.5
5 -0.57
6 0.35
7 -0.14
8 -0.14
9 0.66

> <PUBCHEM_EFFECTIVE_ROTOR_COUNT>
6

> <PUBCHEM_PHARMACOPHORE_FEATURES>
8
1 2 acceptor
1 3 donor
1 4 acceptor
1 5 acceptor
3 4 5 26 anion
6 18 21 22 23 24 25 rings
6 7 10 12 14 16 19 rings
6 8 11 13 15 17 20 rings

> <PUBCHEM_HEAVY_ATOM_COUNT>
26

> <PUBCHEM_ATOM_DEF_STEREO_COUNT>
0

> <PUBCHEM_ATOM_UDEF_STEREO_COUNT>
0

> <PUBCHEM_BOND_DEF_STEREO_COUNT>
0

> <PUBCHEM_BOND_UDEF_STEREO_COUNT>
0

> <PUBCHEM_ISOTOPIC_ATOM_COUNT>
0

> <PUBCHEM_COMPONENT_COUNT>
1

> <PUBCHEM_CACTVS_TAUTO_COUNT>
4

> <PUBCHEM_CONFORMER_ID>
02A1BF8100000001

> <PUBCHEM_MMFF94_ENERGY>
84.1964

> <PUBCHEM_FEATURE_SELFOVERLAP>
40.654

> <PUBCHEM_SHAPE_FINGERPRINT>
10369192 42 17172124851523396148
10759866 29 18272367568658907495
10764073 3 13698072629478046560
10940486 97 17411357416202452022
11049842 53 16482498801813665113
11315621 136 18342178847282697798
12107183 9 17766283068326048369
12730499 353 18263662751959726097
12788726 201 17775568646080959179
13083527 12 18264191544492078554
13257819 101 16733258066709473134
13533116 47 18338521842107627753
13540713 5 18200879461604166441
13631057 29 18124312968097281111
13911987 19 18043822093740855540
14528608 73 18341334482413269549
15250474 111 18272921709924756335
15537594 2 18060145357978550923
15842332 3 17986686878109063385
17134984 74 18196916985228692255
17138139 8 17770762804703853919
17818456 19 17626670397224135553
1813 80 17976544905835598882
18681886 176 18131346389487877394
20645477 70 18186804638573297875
21033648 144 18040715921947180236
21054139 6 18272364321568523646
21781055 127 16197917752484323697
22393880 68 18059859475674668245
2255824 54 18338522915575580250
23557571 272 15430047542942704125
23559900 14 18057876957588843755
23569917 315 18337954605941284474
23929065 36 17334484399881056312
25147074 1 18272375217879383433
3004659 81 18200307711189174947
404807 78 17755858972340899019
4280585 95 17126234281496767398
474144 1 18272082764713511111
6025842 7 18408608032681017250
67856867 119 18341604889285060952
6823239 73 15985103019972220138
70251023 43 18043807580903430691
9841814 1 17751359487228063674

> <PUBCHEM_SHAPE_MULTIPOLES>
505.72
11.81
3.98
1.62
12.8
3.43
-0.4
-5.42
-3.7
-6.63
0.25
0.47
-0.04
-3.06

> <PUBCHEM_SHAPE_SELFOVERLAP>
1107.701

> <PUBCHEM_SHAPE_VOLUME>
270.1

> <PUBCHEM_COORDINATE_TYPE>
2
5
10

$$$$
