101664181
  -OEChem-08262011283D

 66 68  0     1  0  0  0  0  0999 V2000
    2.8208    1.3547   -0.0974 O   0  0  0  0  0  0  0  0  0  0  0  0
    0.6956    0.4212    0.1393 O   0  0  0  0  0  0  0  0  0  0  0  0
    1.6448    4.8251    1.7574 O   0  0  0  0  0  0  0  0  0  0  0  0
   -0.3633    3.0042    0.6032 O   0  0  0  0  0  0  0  0  0  0  0  0
    4.0695    4.7862    0.1841 O   0  0  0  0  0  0  0  0  0  0  0  0
    0.2121   -2.6254   -1.8557 O   0  0  0  0  0  0  0  0  0  0  0  0
    5.2336    1.0279   -1.3732 O   0  0  0  0  0  0  0  0  0  0  0  0
   -3.3806    0.9106   -2.5104 O   0  0  0  0  0  0  0  0  0  0  0  0
    5.2936   -2.5480   -0.6303 O   0  0  0  0  0  0  0  0  0  0  0  0
    5.1397   -3.7569    1.8678 O   0  0  0  0  0  0  0  0  0  0  0  0
   -5.8152   -1.1516    2.5303 O   0  0  0  0  0  0  0  0  0  0  0  0
   -8.2038   -0.2567    1.4251 O   0  0  0  0  0  0  0  0  0  0  0  0
    1.8540    3.9557    0.6434 C   0  0  2  0  0  0  0  0  0  0  0  0
    1.0126    2.6915    0.8194 C   0  0  2  0  0  0  0  0  0  0  0  0
    3.3447    3.6234    0.5763 C   0  0  1  0  0  0  0  0  0  0  0  0
    1.4204    1.6087   -0.1796 C   0  0  1  0  0  0  0  0  0  0  0  0
    3.6060    2.5008   -0.4306 C   0  0  1  0  0  0  0  0  0  0  0  0
    0.4494   -0.3597   -1.0196 C   0  0  1  0  0  0  0  0  0  0  0  0
    5.0698    2.0715   -0.4304 C   0  0  0  0  0  0  0  0  0  0  0  0
    0.4416   -1.8620   -0.6689 C   0  0  2  0  0  0  0  0  0  0  0  0
   -0.8541    0.1135   -1.6744 C   0  0  0  0  0  0  0  0  0  0  0  0
   -2.0707   -0.1259   -0.7718 C   0  0  0  0  0  0  0  0  0  0  0  0
    1.6984   -2.3680    0.0057 C   0  0  0  0  0  0  0  0  0  0  0  0
   -3.3608    0.3747   -1.4047 C   0  0  0  0  0  0  0  0  0  0  0  0
    2.9340   -2.2278   -0.6261 C   0  0  0  0  0  0  0  0  0  0  0  0
    1.6212   -2.9738    1.2598 C   0  0  0  0  0  0  0  0  0  0  0  0
   -0.3911   -3.8731   -1.5549 C   0  0  0  0  0  0  0  0  0  0  0  0
    4.0925   -2.6931   -0.0039 C   0  0  0  0  0  0  0  0  0  0  0  0
   -4.6397    0.2062   -0.6537 C   0  0  0  0  0  0  0  0  0  0  0  0
    2.7796   -3.4394    1.8819 C   0  0  0  0  0  0  0  0  0  0  0  0
    4.0153   -3.2990    1.2501 C   0  0  0  0  0  0  0  0  0  0  0  0
   -4.6363   -0.4004    0.6024 C   0  0  0  0  0  0  0  0  0  0  0  0
   -5.8383    0.6550   -1.2081 C   0  0  0  0  0  0  0  0  0  0  0  0
   -5.8315   -0.5581    1.3042 C   0  0  0  0  0  0  0  0  0  0  0  0
   -7.0336    0.4972   -0.5065 C   0  0  0  0  0  0  0  0  0  0  0  0
   -7.0301   -0.1093    0.7496 C   0  0  0  0  0  0  0  0  0  0  0  0
    1.5381    4.5161   -0.2443 H   0  0  0  0  0  0  0  0  0  0  0  0
    1.0939    2.3157    1.8462 H   0  0  0  0  0  0  0  0  0  0  0  0
    3.7032    3.3349    1.5720 H   0  0  0  0  0  0  0  0  0  0  0  0
    1.1746    1.9478   -1.1952 H   0  0  0  0  0  0  0  0  0  0  0  0
    3.3465    2.8170   -1.4502 H   0  0  0  0  0  0  0  0  0  0  0  0
    1.2485   -0.2016   -1.7582 H   0  0  0  0  0  0  0  0  0  0  0  0
    5.3616    1.6823    0.5508 H   0  0  0  0  0  0  0  0  0  0  0  0
    5.7317    2.8988   -0.7034 H   0  0  0  0  0  0  0  0  0  0  0  0
   -0.3809   -2.0244    0.0391 H   0  0  0  0  0  0  0  0  0  0  0  0
   -1.0000   -0.4025   -2.6313 H   0  0  0  0  0  0  0  0  0  0  0  0
   -0.7961    1.1836   -1.9057 H   0  0  0  0  0  0  0  0  0  0  0  0
    1.9003    4.3482    2.5655 H   0  0  0  0  0  0  0  0  0  0  0  0
   -0.4589    3.3324   -0.3071 H   0  0  0  0  0  0  0  0  0  0  0  0
    3.7684    5.0424   -0.7044 H   0  0  0  0  0  0  0  0  0  0  0  0
   -1.9271    0.3926    0.1819 H   0  0  0  0  0  0  0  0  0  0  0  0
   -2.2003   -1.1984   -0.6015 H   0  0  0  0  0  0  0  0  0  0  0  0
    6.1684    0.7617   -1.3478 H   0  0  0  0  0  0  0  0  0  0  0  0
    2.9983   -1.7626   -1.6065 H   0  0  0  0  0  0  0  0  0  0  0  0
    0.6668   -3.0913    1.7660 H   0  0  0  0  0  0  0  0  0  0  0  0
   -0.5795   -4.3927   -2.4988 H   0  0  0  0  0  0  0  0  0  0  0  0
   -1.3520   -3.7325   -1.0497 H   0  0  0  0  0  0  0  0  0  0  0  0
    0.2674   -4.5039   -0.9511 H   0  0  0  0  0  0  0  0  0  0  0  0
    2.7051   -3.9094    2.8589 H   0  0  0  0  0  0  0  0  0  0  0  0
   -3.7203   -0.7597    1.0611 H   0  0  0  0  0  0  0  0  0  0  0  0
   -5.8665    1.1306   -2.1847 H   0  0  0  0  0  0  0  0  0  0  0  0
    5.1549   -2.1014   -1.4832 H   0  0  0  0  0  0  0  0  0  0  0  0
   -7.9603    0.8515   -0.9500 H   0  0  0  0  0  0  0  0  0  0  0  0
    4.8944   -4.1445    2.7254 H   0  0  0  0  0  0  0  0  0  0  0  0
   -4.9011   -1.3975    2.7534 H   0  0  0  0  0  0  0  0  0  0  0  0
   -8.9266    0.1116    0.8885 H   0  0  0  0  0  0  0  0  0  0  0  0
  1 16  1  0  0  0  0
  1 17  1  0  0  0  0
  2 16  1  0  0  0  0
  2 18  1  0  0  0  0
  3 13  1  0  0  0  0
  3 48  1  0  0  0  0
  4 14  1  0  0  0  0
  4 49  1  0  0  0  0
  5 15  1  0  0  0  0
  5 50  1  0  0  0  0
  6 20  1  0  0  0  0
  6 27  1  0  0  0  0
  7 19  1  0  0  0  0
  7 53  1  0  0  0  0
  8 24  2  0  0  0  0
  9 28  1  0  0  0  0
  9 62  1  0  0  0  0
 10 31  1  0  0  0  0
 10 64  1  0  0  0  0
 11 34  1  0  0  0  0
 11 65  1  0  0  0  0
 12 36  1  0  0  0  0
 12 66  1  0  0  0  0
 13 14  1  0  0  0  0
 13 15  1  0  0  0  0
 13 37  1  0  0  0  0
 14 16  1  0  0  0  0
 14 38  1  0  0  0  0
 15 17  1  0  0  0  0
 15 39  1  0  0  0  0
 16 40  1  0  0  0  0
 17 19  1  0  0  0  0
 17 41  1  0  0  0  0
 18 20  1  0  0  0  0
 18 21  1  0  0  0  0
 18 42  1  0  0  0  0
 19 43  1  0  0  0  0
 19 44  1  0  0  0  0
 20 23  1  0  0  0  0
 20 45  1  0  0  0  0
 21 22  1  0  0  0  0
 21 46  1  0  0  0  0
 21 47  1  0  0  0  0
 22 24  1  0  0  0  0
 22 51  1  0  0  0  0
 22 52  1  0  0  0  0
 23 25  2  0  0  0  0
 23 26  1  0  0  0  0
 24 29  1  0  0  0  0
 25 28  1  0  0  0  0
 25 54  1  0  0  0  0
 26 30  2  0  0  0  0
 26 55  1  0  0  0  0
 27 56  1  0  0  0  0
 27 57  1  0  0  0  0
 27 58  1  0  0  0  0
 28 31  2  0  0  0  0
 29 32  2  0  0  0  0
 29 33  1  0  0  0  0
 30 31  1  0  0  0  0
 30 59  1  0  0  0  0
 32 34  1  0  0  0  0
 32 60  1  0  0  0  0
 33 35  2  0  0  0  0
 33 61  1  0  0  0  0
 34 36  2  0  0  0  0
 35 36  1  0  0  0  0
 35 63  1  0  0  0  0
M  END
> <PUBCHEM_COMPOUND_CID>
101664181

> <PUBCHEM_CONFORMER_RMSD>
1.2

> <PUBCHEM_CONFORMER_DIVERSEORDER>
1
84
104
76
146
100
98
77
61
190
161
5
149
116
3
93
108
185
15
60
168
113
31
157
86
72
189
145
80
176
51
89
14
188
141
17
56
62
178
37
167
180
50
70
99
97
42
88
143
173
117
90
170
112
134
106
158
18
148
32
156
172
105
57
131
184
124
144
102
44
111
125
186
128
49
38
150
87
171
177
8
64
73
92
85
21
147
101
127
183
81
155
46
2
12
159
66
164
169
138
139
166
129
40
11
74
96
26
35
118
41
103
187
10
160
174
110
54
133
162
94
53
137
58
20
152
153
16
47
9
122
130
25
179
135
140
6
75
36
175
63
65
34
115
91
67
52
29
79
48
120
126
7
45
55
136
95
119
107
123
28
181
151
59
30
71
109
4
13
78
22
82
43
27
68
33
132
39
69
23
24
163
154
165
83
142
114
182
121
19

> <PUBCHEM_MMFF94_PARTIAL_CHARGES>
49
1 -0.56
10 -0.53
11 -0.53
12 -0.53
13 0.28
14 0.28
15 0.28
16 0.56
17 0.28
18 0.28
19 0.28
2 -0.56
20 0.42
22 0.06
23 -0.14
24 0.42
25 -0.15
26 -0.15
27 0.28
28 0.08
29 0.09
3 -0.68
30 -0.15
31 0.08
32 -0.15
33 -0.15
34 0.08
35 -0.15
36 0.08
4 -0.68
48 0.4
49 0.4
5 -0.68
50 0.4
53 0.4
54 0.15
55 0.15
59 0.15
6 -0.56
60 0.15
61 0.15
62 0.45
63 0.15
64 0.45
65 0.45
66 0.45
7 -0.68
8 -0.57
9 -0.53

> <PUBCHEM_EFFECTIVE_ROTOR_COUNT>
11.2

> <PUBCHEM_PHARMACOPHORE_FEATURES>
19
1 1 acceptor
1 10 donor
1 11 donor
1 12 donor
1 2 acceptor
1 3 acceptor
1 3 donor
1 4 acceptor
1 4 donor
1 5 acceptor
1 5 donor
1 6 acceptor
1 7 acceptor
1 7 donor
1 8 acceptor
1 9 donor
6 1 13 14 15 16 17 rings
6 23 25 26 28 30 31 rings
6 29 32 33 34 35 36 rings

> <PUBCHEM_HEAVY_ATOM_COUNT>
36

> <PUBCHEM_ATOM_DEF_STEREO_COUNT>
7

> <PUBCHEM_ATOM_UDEF_STEREO_COUNT>
0

> <PUBCHEM_BOND_DEF_STEREO_COUNT>
0

> <PUBCHEM_BOND_UDEF_STEREO_COUNT>
0

> <PUBCHEM_ISOTOPIC_ATOM_COUNT>
0

> <PUBCHEM_COMPONENT_COUNT>
1

> <PUBCHEM_CACTVS_TAUTO_COUNT>
240

> <PUBCHEM_CONFORMER_ID>
060F45B500000001

> <PUBCHEM_MMFF94_ENERGY>
102.7528

> <PUBCHEM_FEATURE_SELFOVERLAP>
96.503

> <PUBCHEM_SHAPE_FINGERPRINT>
10675989 125 18270679904489990992
12522641 24 18409731759766879273
12758862 65 18261120625712056779
131258 43 17905624207386008894
13540713 5 18057865017838574967
13636023 51 17967530160502056661
13782708 43 17968374551236558047
140371 6 17548688587190876684
14114211 68 18042143058666190670
14955137 171 18269556052791691694
15927050 60 18196368345694727366
16112460 7 18341889723502021839
16114785 44 17474108077723054056
17913733 40 18339645654528469305
21049683 271 18260555489503529100
21796203 349 18340215089445210075
21927370 108 18122902032728122306
23559900 14 17676207940784490191
244849 19 17677871492949822935
3178227 256 18409168852763689664
3411729 13 18411422846814624054
3552219 110 18117286852772973750
394071 54 18201427074224300138
437795 51 18261119577575979486
469060 322 17983858882578621098
5265222 85 17755314697020929468
5385378 56 18339358668718802040
6703917 75 17686344574066413532

> <PUBCHEM_SHAPE_MULTIPOLES>
670.43
15.83
6.15
1.89
31.2
3.05
-0.17
-1.32
-4.5
-13.52
-2.41
1.32
-0.91
-0.21

> <PUBCHEM_SHAPE_SELFOVERLAP>
1416.676

> <PUBCHEM_SHAPE_VOLUME>
372.5

> <PUBCHEM_COORDINATE_TYPE>
2
5
10

$$$$
