10648327
  -OEChem-08262011153D

 60 62  0     1  0  0  0  0  0999 V2000
    3.7275   -0.5604   -0.4917 O   0  0  0  0  0  0  0  0  0  0  0  0
    1.3948   -0.5492   -0.5383 O   0  0  0  0  0  0  0  0  0  0  0  0
    3.8273   -4.6368   -0.0013 O   0  0  0  0  0  0  0  0  0  0  0  0
    6.1762   -3.0595    0.5913 O   0  0  0  0  0  0  0  0  0  0  0  0
    1.3809   -3.1238    0.6362 O   0  0  0  0  0  0  0  0  0  0  0  0
    5.9280    1.0736   -0.2818 O   0  0  0  0  0  0  0  0  0  0  0  0
    1.3314    1.8210   -1.9917 O   0  0  0  0  0  0  0  0  0  0  0  0
   -2.8951    5.1876   -0.2376 O   0  0  0  0  0  0  0  0  0  0  0  0
   -0.9788    6.7661    1.0126 O   0  0  0  0  0  0  0  0  0  0  0  0
   -6.2205   -3.3661    1.5763 O   0  0  0  0  0  0  0  0  0  0  0  0
   -6.9449   -3.2837   -1.1046 O   0  0  0  0  0  0  0  0  0  0  0  0
    3.7808   -3.2779    0.4366 C   0  0  1  0  0  0  0  0  0  0  0  0
    5.0267   -2.5676   -0.0928 C   0  0  1  0  0  0  0  0  0  0  0  0
    2.5041   -2.6185   -0.0852 C   0  0  2  0  0  0  0  0  0  0  0  0
    4.9208   -1.0554    0.1185 C   0  0  1  0  0  0  0  0  0  0  0  0
    2.5473   -1.1014    0.0973 C   0  0  1  0  0  0  0  0  0  0  0  0
    6.0985   -0.3141   -0.5063 C   0  0  0  0  0  0  0  0  0  0  0  0
    0.9763    0.6466    0.1008 C   0  0  1  0  0  0  0  0  0  0  0  0
    0.3937    1.6466   -0.9244 C   0  0  1  0  0  0  0  0  0  0  0  0
    0.0817    0.3054    1.2997 C   0  0  0  0  0  0  0  0  0  0  0  0
    0.0223    3.0174   -0.4060 C   0  0  0  0  0  0  0  0  0  0  0  0
   -1.2761    3.4718   -0.5634 C   0  0  0  0  0  0  0  0  0  0  0  0
    0.9888    3.7909    0.2146 C   0  0  0  0  0  0  0  0  0  0  0  0
   -1.2011   -0.3076    0.9279 C   0  0  0  0  0  0  0  0  0  0  0  0
   -1.6183    4.7370   -0.0860 C   0  0  0  0  0  0  0  0  0  0  0  0
    0.6467    5.0561    0.6920 C   0  0  0  0  0  0  0  0  0  0  0  0
   -0.6569    5.5290    0.5417 C   0  0  0  0  0  0  0  0  0  0  0  0
   -2.2378   -0.8187    0.6013 C   0  0  0  0  0  0  0  0  0  0  0  0
   -3.4442   -1.4514    0.1676 C   0  0  0  0  0  0  0  0  0  0  0  0
   -4.2568   -2.1096    1.0901 C   0  0  0  0  0  0  0  0  0  0  0  0
   -3.8074   -1.4095   -1.1781 C   0  0  0  0  0  0  0  0  0  0  0  0
   -5.4339   -2.7265    0.6665 C   0  0  0  0  0  0  0  0  0  0  0  0
   -4.9843   -2.0264   -1.6019 C   0  0  0  0  0  0  0  0  0  0  0  0
   -5.7977   -2.6848   -0.6795 C   0  0  0  0  0  0  0  0  0  0  0  0
    3.7837   -3.3051    1.5333 H   0  0  0  0  0  0  0  0  0  0  0  0
    5.1443   -2.8046   -1.1584 H   0  0  0  0  0  0  0  0  0  0  0  0
    2.3465   -2.8769   -1.1391 H   0  0  0  0  0  0  0  0  0  0  0  0
    4.8956   -0.8097    1.1889 H   0  0  0  0  0  0  0  0  0  0  0  0
    2.5463   -0.8718    1.1711 H   0  0  0  0  0  0  0  0  0  0  0  0
    6.1453   -0.4747   -1.5885 H   0  0  0  0  0  0  0  0  0  0  0  0
    7.0525   -0.6116   -0.0632 H   0  0  0  0  0  0  0  0  0  0  0  0
    1.8750    1.1337    0.5067 H   0  0  0  0  0  0  0  0  0  0  0  0
   -0.4818    1.1823   -1.3953 H   0  0  0  0  0  0  0  0  0  0  0  0
    4.6555   -5.0222    0.3327 H   0  0  0  0  0  0  0  0  0  0  0  0
    6.9614   -2.7888    0.0868 H   0  0  0  0  0  0  0  0  0  0  0  0
    1.5000   -2.9011    1.5752 H   0  0  0  0  0  0  0  0  0  0  0  0
   -0.1165    1.2159    1.8774 H   0  0  0  0  0  0  0  0  0  0  0  0
    0.5957   -0.3819    1.9805 H   0  0  0  0  0  0  0  0  0  0  0  0
    5.0764    1.3327   -0.6735 H   0  0  0  0  0  0  0  0  0  0  0  0
    1.5609    0.9369   -2.3257 H   0  0  0  0  0  0  0  0  0  0  0  0
   -2.0299    2.8591   -1.0505 H   0  0  0  0  0  0  0  0  0  0  0  0
    2.0103    3.4417    0.3308 H   0  0  0  0  0  0  0  0  0  0  0  0
    1.4060    5.6636    1.1772 H   0  0  0  0  0  0  0  0  0  0  0  0
   -2.9530    6.0782    0.1500 H   0  0  0  0  0  0  0  0  0  0  0  0
   -0.1894    7.1670    1.4152 H   0  0  0  0  0  0  0  0  0  0  0  0
   -3.9808   -2.1468    2.1418 H   0  0  0  0  0  0  0  0  0  0  0  0
   -3.1836   -0.8998   -1.9087 H   0  0  0  0  0  0  0  0  0  0  0  0
   -5.2560   -1.9864   -2.6534 H   0  0  0  0  0  0  0  0  0  0  0  0
   -6.9911   -3.7338    1.1096 H   0  0  0  0  0  0  0  0  0  0  0  0
   -7.0335   -3.1527   -2.0644 H   0  0  0  0  0  0  0  0  0  0  0  0
  1 15  1  0  0  0  0
  1 16  1  0  0  0  0
  2 16  1  0  0  0  0
  2 18  1  0  0  0  0
  3 12  1  0  0  0  0
  3 44  1  0  0  0  0
  4 13  1  0  0  0  0
  4 45  1  0  0  0  0
  5 14  1  0  0  0  0
  5 46  1  0  0  0  0
  6 17  1  0  0  0  0
  6 49  1  0  0  0  0
  7 19  1  0  0  0  0
  7 50  1  0  0  0  0
  8 25  1  0  0  0  0
  8 54  1  0  0  0  0
  9 27  1  0  0  0  0
  9 55  1  0  0  0  0
 10 32  1  0  0  0  0
 10 59  1  0  0  0  0
 11 34  1  0  0  0  0
 11 60  1  0  0  0  0
 12 13  1  0  0  0  0
 12 14  1  0  0  0  0
 12 35  1  0  0  0  0
 13 15  1  0  0  0  0
 13 36  1  0  0  0  0
 14 16  1  0  0  0  0
 14 37  1  0  0  0  0
 15 17  1  0  0  0  0
 15 38  1  0  0  0  0
 16 39  1  0  0  0  0
 17 40  1  0  0  0  0
 17 41  1  0  0  0  0
 18 19  1  0  0  0  0
 18 20  1  0  0  0  0
 18 42  1  0  0  0  0
 19 21  1  0  0  0  0
 19 43  1  0  0  0  0
 20 24  1  0  0  0  0
 20 47  1  0  0  0  0
 20 48  1  0  0  0  0
 21 22  2  0  0  0  0
 21 23  1  0  0  0  0
 22 25  1  0  0  0  0
 22 51  1  0  0  0  0
 23 26  2  0  0  0  0
 23 52  1  0  0  0  0
 24 28  3  0  0  0  0
 25 27  2  0  0  0  0
 26 27  1  0  0  0  0
 26 53  1  0  0  0  0
 28 29  1  0  0  0  0
 29 30  2  0  0  0  0
 29 31  1  0  0  0  0
 30 32  1  0  0  0  0
 30 56  1  0  0  0  0
 31 33  2  0  0  0  0
 31 57  1  0  0  0  0
 32 34  2  0  0  0  0
 33 34  1  0  0  0  0
 33 58  1  0  0  0  0
M  END
> <PUBCHEM_COMPOUND_CID>
10648327

> <PUBCHEM_CONFORMER_RMSD>
1

> <PUBCHEM_CONFORMER_DIVERSEORDER>
1
35
72
71
40
108
85
5
101
129
78
105
112
38
91
88
80
73
68
7
83
21
64
59
75
121
74
122
89
98
32
42
107
128
127
6
79
50
93
49
76
20
99
119
33
104
94
62
116
44
43
63
34
9
81
56
57
126
29
46
97
2
103
47
15
28
11
110
58
45
100
55
125
51
66
25
36
123
69
14
106
31
95
70
118
24
132
53
26
60
82
13
30
22
37
130
39
90
41
65
111
113
54
61
12
17
102
117
16
86
48
124
109
10
92
120
96
67
131
4
18
114
87
115
23
77
19
3
8
84
27
52

> <PUBCHEM_MMFF94_PARTIAL_CHARGES>
49
1 -0.56
10 -0.53
11 -0.53
12 0.28
13 0.28
14 0.28
15 0.28
16 0.56
17 0.28
18 0.28
19 0.42
2 -0.56
20 0.2
21 -0.14
22 -0.15
23 -0.15
24 -0.2
25 0.08
26 -0.15
27 0.08
28 -0.07
29 0.07
3 -0.68
30 -0.15
31 -0.15
32 0.08
33 -0.15
34 0.08
4 -0.68
44 0.4
45 0.4
46 0.4
49 0.4
5 -0.68
50 0.4
51 0.15
52 0.15
53 0.15
54 0.45
55 0.45
56 0.15
57 0.15
58 0.15
59 0.45
6 -0.68
60 0.45
7 -0.68
8 -0.53
9 -0.53

> <PUBCHEM_EFFECTIVE_ROTOR_COUNT>
7.2

> <PUBCHEM_PHARMACOPHORE_FEATURES>
19
1 1 acceptor
1 10 donor
1 11 donor
1 2 acceptor
1 3 acceptor
1 3 donor
1 4 acceptor
1 4 donor
1 5 acceptor
1 5 donor
1 6 acceptor
1 6 donor
1 7 acceptor
1 7 donor
1 8 donor
1 9 donor
6 1 12 13 14 15 16 rings
6 21 22 23 25 26 27 rings
6 29 30 31 32 33 34 rings

> <PUBCHEM_HEAVY_ATOM_COUNT>
34

> <PUBCHEM_ATOM_DEF_STEREO_COUNT>
7

> <PUBCHEM_ATOM_UDEF_STEREO_COUNT>
0

> <PUBCHEM_BOND_DEF_STEREO_COUNT>
0

> <PUBCHEM_BOND_UDEF_STEREO_COUNT>
0

> <PUBCHEM_ISOTOPIC_ATOM_COUNT>
0

> <PUBCHEM_COMPONENT_COUNT>
1

> <PUBCHEM_CACTVS_TAUTO_COUNT>
51

> <PUBCHEM_CONFORMER_ID>
00A27B0700000001

> <PUBCHEM_MMFF94_ENERGY>
87.4422

> <PUBCHEM_FEATURE_SELFOVERLAP>
96.508

> <PUBCHEM_SHAPE_FINGERPRINT>
10050765 1 18122064205268865062
10653451 467 18045491178372229744
11093857 51 17247532790836006957
11115154 58 18408316688755495135
11377469 6 17916605235663725803
11621639 148 18051689138766810624
11720765 8 18339634659538909001
11763715 3 18266201481780568052
11991303 11 17756997709413450565
12788726 201 18119799214976909923
13165053 371 18199749309690919721
1361 2 18123467439386648960
13835254 42 18411700963601610714
13911987 19 17971495119785866262
13955234 65 18050574246528922459
14394314 77 18412271635732176689
14790565 3 17401487044069107176
15021287 119 18341347673249314243
15200665 1 17977387127035791864
15439362 3 17835236027889829809
15483637 11 18265614273762155172
21049683 271 18044385043445752668
21133410 171 17466739920005607923
23559900 14 18264484178010621915
24771750 20 17465676983906471348
283562 15 18334297535571350818
3380486 145 18265635220086225481
3383291 50 17185309847256217354
3534868 343 18335151894808389646
4015057 19 18189905382324863411
44280117 145 18194971739080818414
4461854 278 17836104273415714833
46194498 28 17459186451036312031
5309563 4 18411698819969779542
5912855 24 18266742385677336844
6004065 56 18192989537677464602
6058803 2 17972326110290852386
6700243 42 17843713017731486214

> <PUBCHEM_SHAPE_MULTIPOLES>
635.14
13.72
9.41
1.2
4.21
17.47
0.15
-24.22
1.33
2.48
-1.83
1.22
-0.18
-0.51

> <PUBCHEM_SHAPE_SELFOVERLAP>
1348.753

> <PUBCHEM_SHAPE_VOLUME>
350.5

> <PUBCHEM_COORDINATE_TYPE>
2
5
10

$$$$
