10791292
  -OEChem-08262011183D

 63 65  0     1  0  0  0  0  0999 V2000
    1.8478    2.4392    0.5804 O   0  0  0  0  0  0  0  0  0  0  0  0
    0.5312    0.5778    0.0842 O   0  0  0  0  0  0  0  0  0  0  0  0
    4.0396    1.9679   -2.8607 O   0  0  0  0  0  0  0  0  0  0  0  0
    5.0571    3.6278   -0.7239 O   0  0  0  0  0  0  0  0  0  0  0  0
    2.4894   -0.2863   -1.7670 O   0  0  0  0  0  0  0  0  0  0  0  0
    4.3170    4.9656    1.3722 O   0  0  0  0  0  0  0  0  0  0  0  0
   -0.2475   -2.1616    2.4222 O   0  0  0  0  0  0  0  0  0  0  0  0
    4.6145   -3.0861    0.8616 O   0  0  0  0  0  0  0  0  0  0  0  0
    4.0330   -4.5396   -1.4352 O   0  0  0  0  0  0  0  0  0  0  0  0
   -8.0275    1.1332    0.6618 O   0  0  0  0  0  0  0  0  0  0  0  0
   -8.0732    0.1578   -1.9394 O   0  0  0  0  0  0  0  0  0  0  0  0
    3.7300    1.7637   -1.4812 C   0  0  1  0  0  0  0  0  0  0  0  0
    3.7241    3.1277   -0.7909 C   0  0  1  0  0  0  0  0  0  0  0  0
    2.3695    1.0770   -1.3612 C   0  0  2  0  0  0  0  0  0  0  0  0
    3.1533    3.0176    0.6249 C   0  0  1  0  0  0  0  0  0  0  0  0
    1.8577    1.1046    0.0790 C   0  0  1  0  0  0  0  0  0  0  0  0
    0.2326   -0.0557    1.3184 C   0  0  2  0  0  0  0  0  0  0  0  0
    3.0285    4.3839    1.2914 C   0  0  0  0  0  0  0  0  0  0  0  0
   -0.0173   -1.5708    1.1389 C   0  0  1  0  0  0  0  0  0  0  0  0
   -0.8719    0.7254    2.0425 C   0  0  0  0  0  0  0  0  0  0  0  0
    1.0701   -2.3656    0.4522 C   0  0  0  0  0  0  0  0  0  0  0  0
    2.3505   -2.3576    0.9797 C   0  0  0  0  0  0  0  0  0  0  0  0
    0.7636   -3.0844   -0.6909 C   0  0  0  0  0  0  0  0  0  0  0  0
   -2.1723    0.6867    1.3588 C   0  0  0  0  0  0  0  0  0  0  0  0
   -0.6569   -3.5129    2.2972 C   0  0  0  0  0  0  0  0  0  0  0  0
    3.3538   -3.0902    0.3454 C   0  0  0  0  0  0  0  0  0  0  0  0
    1.7669   -3.8171   -1.3253 C   0  0  0  0  0  0  0  0  0  0  0  0
    3.0619   -3.8199   -0.8069 C   0  0  0  0  0  0  0  0  0  0  0  0
   -3.2282    0.6306    0.7892 C   0  0  0  0  0  0  0  0  0  0  0  0
   -4.4712    0.5106    0.0931 C   0  0  0  0  0  0  0  0  0  0  0  0
   -5.6599    0.8830    0.7198 C   0  0  0  0  0  0  0  0  0  0  0  0
   -4.4934    0.0212   -1.2124 C   0  0  0  0  0  0  0  0  0  0  0  0
   -6.8722    0.7659    0.0402 C   0  0  0  0  0  0  0  0  0  0  0  0
   -5.7057   -0.0959   -1.8922 C   0  0  0  0  0  0  0  0  0  0  0  0
   -6.8952    0.2765   -1.2659 C   0  0  0  0  0  0  0  0  0  0  0  0
    4.5239    1.1232   -1.0774 H   0  0  0  0  0  0  0  0  0  0  0  0
    3.1380    3.8359   -1.3894 H   0  0  0  0  0  0  0  0  0  0  0  0
    1.6450    1.5464   -2.0373 H   0  0  0  0  0  0  0  0  0  0  0  0
    3.8110    2.3935    1.2457 H   0  0  0  0  0  0  0  0  0  0  0  0
    2.5274    0.4885    0.6928 H   0  0  0  0  0  0  0  0  0  0  0  0
    1.0825    0.0331    2.0115 H   0  0  0  0  0  0  0  0  0  0  0  0
    2.3722    5.0480    0.7190 H   0  0  0  0  0  0  0  0  0  0  0  0
    2.6042    4.2974    2.2974 H   0  0  0  0  0  0  0  0  0  0  0  0
   -0.9390   -1.6669    0.5482 H   0  0  0  0  0  0  0  0  0  0  0  0
    4.9012    2.4172   -2.9022 H   0  0  0  0  0  0  0  0  0  0  0  0
    5.5843    3.0081   -0.1914 H   0  0  0  0  0  0  0  0  0  0  0  0
    3.2006   -0.6933   -1.2443 H   0  0  0  0  0  0  0  0  0  0  0  0
   -0.9923    0.3384    3.0612 H   0  0  0  0  0  0  0  0  0  0  0  0
   -0.5664    1.7751    2.1353 H   0  0  0  0  0  0  0  0  0  0  0  0
    4.8703    4.3835    1.9204 H   0  0  0  0  0  0  0  0  0  0  0  0
    2.5846   -1.8005    1.8823 H   0  0  0  0  0  0  0  0  0  0  0  0
   -0.2401   -3.0902   -1.1055 H   0  0  0  0  0  0  0  0  0  0  0  0
    0.1833   -4.1754    2.0703 H   0  0  0  0  0  0  0  0  0  0  0  0
   -1.0538   -3.8271    3.2677 H   0  0  0  0  0  0  0  0  0  0  0  0
   -1.4583   -3.6312    1.5603 H   0  0  0  0  0  0  0  0  0  0  0  0
    1.5259   -4.3808   -2.2226 H   0  0  0  0  0  0  0  0  0  0  0  0
    5.1779   -3.6434    0.2971 H   0  0  0  0  0  0  0  0  0  0  0  0
    3.6485   -4.9787   -2.2133 H   0  0  0  0  0  0  0  0  0  0  0  0
   -5.6512    1.2658    1.7381 H   0  0  0  0  0  0  0  0  0  0  0  0
   -3.5743   -0.2734   -1.7136 H   0  0  0  0  0  0  0  0  0  0  0  0
   -5.7093   -0.4789   -2.9093 H   0  0  0  0  0  0  0  0  0  0  0  0
   -8.7663    0.9860    0.0460 H   0  0  0  0  0  0  0  0  0  0  0  0
   -7.8959   -0.1971   -2.8274 H   0  0  0  0  0  0  0  0  0  0  0  0
  1 15  1  0  0  0  0
  1 16  1  0  0  0  0
  2 16  1  0  0  0  0
  2 17  1  0  0  0  0
  3 12  1  0  0  0  0
  3 45  1  0  0  0  0
  4 13  1  0  0  0  0
  4 46  1  0  0  0  0
  5 14  1  0  0  0  0
  5 47  1  0  0  0  0
  6 18  1  0  0  0  0
  6 50  1  0  0  0  0
  7 19  1  0  0  0  0
  7 25  1  0  0  0  0
  8 26  1  0  0  0  0
  8 57  1  0  0  0  0
  9 28  1  0  0  0  0
  9 58  1  0  0  0  0
 10 33  1  0  0  0  0
 10 62  1  0  0  0  0
 11 35  1  0  0  0  0
 11 63  1  0  0  0  0
 12 13  1  0  0  0  0
 12 14  1  0  0  0  0
 12 36  1  0  0  0  0
 13 15  1  0  0  0  0
 13 37  1  0  0  0  0
 14 16  1  0  0  0  0
 14 38  1  0  0  0  0
 15 18  1  0  0  0  0
 15 39  1  0  0  0  0
 16 40  1  0  0  0  0
 17 19  1  0  0  0  0
 17 20  1  0  0  0  0
 17 41  1  0  0  0  0
 18 42  1  0  0  0  0
 18 43  1  0  0  0  0
 19 21  1  0  0  0  0
 19 44  1  0  0  0  0
 20 24  1  0  0  0  0
 20 48  1  0  0  0  0
 20 49  1  0  0  0  0
 21 22  2  0  0  0  0
 21 23  1  0  0  0  0
 22 26  1  0  0  0  0
 22 51  1  0  0  0  0
 23 27  2  0  0  0  0
 23 52  1  0  0  0  0
 24 29  3  0  0  0  0
 25 53  1  0  0  0  0
 25 54  1  0  0  0  0
 25 55  1  0  0  0  0
 26 28  2  0  0  0  0
 27 28  1  0  0  0  0
 27 56  1  0  0  0  0
 29 30  1  0  0  0  0
 30 31  2  0  0  0  0
 30 32  1  0  0  0  0
 31 33  1  0  0  0  0
 31 59  1  0  0  0  0
 32 34  2  0  0  0  0
 32 60  1  0  0  0  0
 33 35  2  0  0  0  0
 34 35  1  0  0  0  0
 34 61  1  0  0  0  0
M  END
> <PUBCHEM_COMPOUND_CID>
10791292

> <PUBCHEM_CONFORMER_RMSD>
1

> <PUBCHEM_CONFORMER_DIVERSEORDER>
9
75
5
120
19
17
85
64
127
154
10
78
56
95
13
43
102
139
66
97
148
6
23
119
65
89
130
142
71
33
96
57
92
114
81
101
125
37
93
49
94
136
133
122
58
77
38
118
113
42
3
4
126
54
28
87
72
98
7
103
22
62
117
45
16
55
59
134
67
116
70
150
32
39
135
79
69
138
53
34
88
112
141
153
140
99
25
151
123
82
108
29
110
111
128
132
35
90
131
121
73
30
11
31
91
46
1
145
105
8
80
51
20
152
106
60
86
52
74
2
21
18
143
146
12
27
40
104
100
14
36
147
137
48
109
41
61
26
129
50
47
76
107
144
84
124
68
15
44
83
63
115
24
149

> <PUBCHEM_MMFF94_PARTIAL_CHARGES>
49
1 -0.56
10 -0.53
11 -0.53
12 0.28
13 0.28
14 0.28
15 0.28
16 0.56
17 0.28
18 0.28
19 0.42
2 -0.56
20 0.2
21 -0.14
22 -0.15
23 -0.15
24 -0.2
25 0.28
26 0.08
27 -0.15
28 0.08
29 -0.07
3 -0.68
30 0.07
31 -0.15
32 -0.15
33 0.08
34 -0.15
35 0.08
4 -0.68
45 0.4
46 0.4
47 0.4
5 -0.68
50 0.4
51 0.15
52 0.15
56 0.15
57 0.45
58 0.45
59 0.15
6 -0.68
60 0.15
61 0.15
62 0.45
63 0.45
7 -0.56
8 -0.53
9 -0.53

> <PUBCHEM_EFFECTIVE_ROTOR_COUNT>
8.2

> <PUBCHEM_PHARMACOPHORE_FEATURES>
18
1 1 acceptor
1 10 donor
1 11 donor
1 2 acceptor
1 3 acceptor
1 3 donor
1 4 acceptor
1 4 donor
1 5 acceptor
1 5 donor
1 6 acceptor
1 6 donor
1 7 acceptor
1 8 donor
1 9 donor
6 1 12 13 14 15 16 rings
6 21 22 23 26 27 28 rings
6 30 31 32 33 34 35 rings

> <PUBCHEM_HEAVY_ATOM_COUNT>
35

> <PUBCHEM_ATOM_DEF_STEREO_COUNT>
7

> <PUBCHEM_ATOM_UDEF_STEREO_COUNT>
0

> <PUBCHEM_BOND_DEF_STEREO_COUNT>
0

> <PUBCHEM_BOND_UDEF_STEREO_COUNT>
0

> <PUBCHEM_ISOTOPIC_ATOM_COUNT>
0

> <PUBCHEM_COMPONENT_COUNT>
1

> <PUBCHEM_CACTVS_TAUTO_COUNT>
51

> <PUBCHEM_CONFORMER_ID>
00A4A97C00000009

> <PUBCHEM_MMFF94_ENERGY>
98.72

> <PUBCHEM_FEATURE_SELFOVERLAP>
91.444

> <PUBCHEM_SHAPE_FINGERPRINT>
10675989 125 18341049704812560408
10721379 63 18342461408837946752
10764073 3 13698911534942744809
10930396 42 17970886905695106002
11093857 51 18042706046610173140
11331351 85 17620764881605633826
11578080 2 17241347861598944318
12166972 35 18198903604754842919
12597179 24 18261674895039855563
13540713 4 17968960672359135731
15082195 135 18342457053778635947
15439362 3 18260829310648038120
18365409 1 17845916533581871606
20775438 99 18411412934394848695
21304303 282 17694485345637028990
23522609 53 17632031801591306257
24771293 8 18270678637605741594
3004659 81 17346602963291055917
376196 1 18189333657156442826
4017518 198 18200034075392585644
42767 28 17632027454271850269
44280117 145 17190394002415319654
44317340 157 18410014300391741153
45266715 3 18201727305645218676
46194498 28 18335692794420818495
6004065 56 18338800014196893978
6823239 73 16660653903881691879

> <PUBCHEM_SHAPE_MULTIPOLES>
655.72
15.42
6.27
2.23
39.87
0.35
-0.23
-8.13
-7.25
-15.52
0.74
-0.05
0.26
0.35

> <PUBCHEM_SHAPE_SELFOVERLAP>
1390.196

> <PUBCHEM_SHAPE_VOLUME>
362.9

> <PUBCHEM_COORDINATE_TYPE>
2
5
10

$$$$
