3013844
  -OEChem-08262011213D

 60 63  0     1  0  0  0  0  0999 V2000
   -2.1390    1.5075    0.5308 O   0  0  0  0  0  0  0  0  0  0  0  0
   -1.8246   -0.9197    1.8913 O   0  0  0  0  0  0  0  0  0  0  0  0
   -2.9129   -1.2376   -0.1876 O   0  0  0  0  0  0  0  0  0  0  0  0
   -5.6887    0.8034    0.8613 O   0  0  0  0  0  0  0  0  0  0  0  0
   -5.5810    0.6463   -1.8929 O   0  0  0  0  0  0  0  0  0  0  0  0
   -3.6109   -3.1488   -2.0271 O   0  0  0  0  0  0  0  0  0  0  0  0
    0.3478   -3.5310    0.4257 O   0  0  0  0  0  0  0  0  0  0  0  0
    2.0485    2.2429   -2.4250 O   0  0  0  0  0  0  0  0  0  0  0  0
    3.2384    4.2988   -0.9813 O   0  0  0  0  0  0  0  0  0  0  0  0
    5.5583   -0.8841    1.0375 O   0  0  0  0  0  0  0  0  0  0  0  0
    5.6131   -0.8439   -1.7414 O   0  0  0  0  0  0  0  0  0  0  0  0
   -3.2825    0.8371    1.0739 C   0  0  2  0  0  0  0  0  0  0  0  0
   -3.0082   -0.6715    1.1227 C   0  0  2  0  0  0  0  0  0  0  0  0
   -4.4837    1.1611    0.1851 C   0  0  1  0  0  0  0  0  0  0  0  0
   -4.3800    0.4331   -1.1618 C   0  0  1  0  0  0  0  0  0  0  0  0
   -0.6769   -0.2387    1.3633 C   0  0  1  0  0  0  0  0  0  0  0  0
   -0.9619    1.2721    1.3170 C   0  0  1  0  0  0  0  0  0  0  0  0
   -4.0999   -1.0633   -0.9676 C   0  0  1  0  0  0  0  0  0  0  0  0
    0.4999   -0.5878    2.2680 C   0  0  0  0  0  0  0  0  0  0  0  0
    0.1586    2.0784    0.7002 C   0  0  0  0  0  0  0  0  0  0  0  0
   -3.8720   -1.7827   -2.2938 C   0  0  0  0  0  0  0  0  0  0  0  0
    0.7282   -2.0965    2.3250 C   0  0  0  0  0  0  0  0  0  0  0  0
    0.5965    1.7901   -0.5927 C   0  0  0  0  0  0  0  0  0  0  0  0
    0.7562    3.1106    1.4242 C   0  0  0  0  0  0  0  0  0  0  0  0
    1.0532   -2.6763    0.9567 C   0  0  0  0  0  0  0  0  0  0  0  0
    1.6309    2.5334   -1.1613 C   0  0  0  0  0  0  0  0  0  0  0  0
    1.7904    3.8539    0.8557 C   0  0  0  0  0  0  0  0  0  0  0  0
    2.2277    3.5653   -0.4370 C   0  0  0  0  0  0  0  0  0  0  0  0
    2.2692   -2.1879    0.2416 C   0  0  0  0  0  0  0  0  0  0  0  0
    3.3462   -1.7641    0.9860 C   0  0  0  0  0  0  0  0  0  0  0  0
    2.2656   -2.1804   -1.1344 C   0  0  0  0  0  0  0  0  0  0  0  0
    4.4822   -1.3078    0.3176 C   0  0  0  0  0  0  0  0  0  0  0  0
    3.4016   -1.7240   -1.8029 C   0  0  0  0  0  0  0  0  0  0  0  0
    4.5098   -1.2878   -1.0769 C   0  0  0  0  0  0  0  0  0  0  0  0
   -3.4534    1.2150    2.0902 H   0  0  0  0  0  0  0  0  0  0  0  0
   -3.8247   -1.1807    1.6480 H   0  0  0  0  0  0  0  0  0  0  0  0
   -4.5359    2.2416    0.0035 H   0  0  0  0  0  0  0  0  0  0  0  0
   -3.5544    0.8751   -1.7343 H   0  0  0  0  0  0  0  0  0  0  0  0
   -0.5024   -0.6242    0.3523 H   0  0  0  0  0  0  0  0  0  0  0  0
   -1.1692    1.6391    2.3315 H   0  0  0  0  0  0  0  0  0  0  0  0
   -4.9338   -1.5558   -0.4503 H   0  0  0  0  0  0  0  0  0  0  0  0
    1.4051   -0.0672    1.9432 H   0  0  0  0  0  0  0  0  0  0  0  0
    0.2870   -0.2480    3.2897 H   0  0  0  0  0  0  0  0  0  0  0  0
   -3.0012   -1.3721   -2.8157 H   0  0  0  0  0  0  0  0  0  0  0  0
   -4.7501   -1.7116   -2.9426 H   0  0  0  0  0  0  0  0  0  0  0  0
   -0.1673   -2.6072    2.6993 H   0  0  0  0  0  0  0  0  0  0  0  0
    1.5216   -2.3517    3.0345 H   0  0  0  0  0  0  0  0  0  0  0  0
   -6.4268    0.9837    0.2544 H   0  0  0  0  0  0  0  0  0  0  0  0
   -5.6910    1.6059   -2.0049 H   0  0  0  0  0  0  0  0  0  0  0  0
    0.1337    0.9955   -1.1725 H   0  0  0  0  0  0  0  0  0  0  0  0
    0.4268    3.3464    2.4325 H   0  0  0  0  0  0  0  0  0  0  0  0
   -3.4653   -3.5856   -2.8836 H   0  0  0  0  0  0  0  0  0  0  0  0
    2.2468    4.6548    1.4311 H   0  0  0  0  0  0  0  0  0  0  0  0
    3.3600   -1.7851    2.0700 H   0  0  0  0  0  0  0  0  0  0  0  0
    1.4071   -2.5105   -1.7113 H   0  0  0  0  0  0  0  0  0  0  0  0
    2.7706    2.8525   -2.6562 H   0  0  0  0  0  0  0  0  0  0  0  0
    3.5278    4.9668   -0.3364 H   0  0  0  0  0  0  0  0  0  0  0  0
    3.4088   -1.7114   -2.8896 H   0  0  0  0  0  0  0  0  0  0  0  0
    6.2513   -0.6034    0.4149 H   0  0  0  0  0  0  0  0  0  0  0  0
    5.4506   -0.9011   -2.6986 H   0  0  0  0  0  0  0  0  0  0  0  0
  1 12  1  0  0  0  0
  1 17  1  0  0  0  0
  2 13  1  0  0  0  0
  2 16  1  0  0  0  0
  3 13  1  0  0  0  0
  3 18  1  0  0  0  0
  4 14  1  0  0  0  0
  4 48  1  0  0  0  0
  5 15  1  0  0  0  0
  5 49  1  0  0  0  0
  6 21  1  0  0  0  0
  6 52  1  0  0  0  0
  7 25  2  0  0  0  0
  8 26  1  0  0  0  0
  8 56  1  0  0  0  0
  9 28  1  0  0  0  0
  9 57  1  0  0  0  0
 10 32  1  0  0  0  0
 10 59  1  0  0  0  0
 11 34  1  0  0  0  0
 11 60  1  0  0  0  0
 12 13  1  0  0  0  0
 12 14  1  0  0  0  0
 12 35  1  0  0  0  0
 13 36  1  0  0  0  0
 14 15  1  0  0  0  0
 14 37  1  0  0  0  0
 15 18  1  0  0  0  0
 15 38  1  0  0  0  0
 16 17  1  0  0  0  0
 16 19  1  0  0  0  0
 16 39  1  0  0  0  0
 17 20  1  0  0  0  0
 17 40  1  0  0  0  0
 18 21  1  0  0  0  0
 18 41  1  0  0  0  0
 19 22  1  0  0  0  0
 19 42  1  0  0  0  0
 19 43  1  0  0  0  0
 20 23  2  0  0  0  0
 20 24  1  0  0  0  0
 21 44  1  0  0  0  0
 21 45  1  0  0  0  0
 22 25  1  0  0  0  0
 22 46  1  0  0  0  0
 22 47  1  0  0  0  0
 23 26  1  0  0  0  0
 23 50  1  0  0  0  0
 24 27  2  0  0  0  0
 24 51  1  0  0  0  0
 25 29  1  0  0  0  0
 26 28  2  0  0  0  0
 27 28  1  0  0  0  0
 27 53  1  0  0  0  0
 29 30  2  0  0  0  0
 29 31  1  0  0  0  0
 30 32  1  0  0  0  0
 30 54  1  0  0  0  0
 31 33  2  0  0  0  0
 31 55  1  0  0  0  0
 32 34  2  0  0  0  0
 33 34  1  0  0  0  0
 33 58  1  0  0  0  0
M  END
> <PUBCHEM_COMPOUND_CID>
3013844

> <PUBCHEM_CONFORMER_RMSD>
1.4

> <PUBCHEM_CONFORMER_DIVERSEORDER>
1
48
161
189
15
153
134
9
210
137
178
86
118
140
172
98
23
131
132
181
158
215
66
69
16
101
183
148
110
12
188
67
197
211
166
104
37
113
100
107
212
199
34
133
50
160
36
125
6
179
49
155
171
13
33
184
96
198
29
70
65
72
138
97
82
168
209
146
195
10
54
93
187
170
76
122
8
75
31
150
202
136
156
73
201
186
108
182
77
163
99
63
129
32
164
95
20
30
119
90
105
17
56
84
35
135
143
173
92
102
142
213
43
162
115
205
126
78
169
147
39
116
4
42
19
27
26
88
193
62
167
196
55
2
214
180
81
191
60
112
14
18
157
145
59
103
152
139
130
80
68
94
38
109
57
176
45
3
64
123
190
124
91
53
203
121
128
185
175
5
204
120
44
154
46
79
83
40
151
192
25
41
87
106
114
24
165
28
177
61
11
207
111
200
22
194
58
127
85
47
149
208
144
74
141
206
51
52
117
7
71
89
174
21
159

> <PUBCHEM_MMFF94_PARTIAL_CHARGES>
46
1 -0.56
10 -0.53
11 -0.53
12 0.28
13 0.56
14 0.28
15 0.28
16 0.28
17 0.42
18 0.28
2 -0.56
20 -0.14
21 0.28
22 0.06
23 -0.15
24 -0.15
25 0.42
26 0.08
27 -0.15
28 0.08
29 0.09
3 -0.56
30 -0.15
31 -0.15
32 0.08
33 -0.15
34 0.08
4 -0.68
48 0.4
49 0.4
5 -0.68
50 0.15
51 0.15
52 0.4
53 0.15
54 0.15
55 0.15
56 0.45
57 0.45
58 0.15
59 0.45
6 -0.68
60 0.45
7 -0.57
8 -0.53
9 -0.53

> <PUBCHEM_EFFECTIVE_ROTOR_COUNT>
7.6

> <PUBCHEM_PHARMACOPHORE_FEATURES>
18
1 1 acceptor
1 10 donor
1 11 donor
1 2 acceptor
1 3 acceptor
1 4 acceptor
1 4 donor
1 5 acceptor
1 5 donor
1 6 acceptor
1 6 donor
1 7 acceptor
1 8 donor
1 9 donor
6 1 2 12 13 16 17 rings
6 20 23 24 26 27 28 rings
6 29 30 31 32 33 34 rings
6 3 12 13 14 15 18 rings

> <PUBCHEM_HEAVY_ATOM_COUNT>
34

> <PUBCHEM_ATOM_DEF_STEREO_COUNT>
2

> <PUBCHEM_ATOM_UDEF_STEREO_COUNT>
5

> <PUBCHEM_BOND_DEF_STEREO_COUNT>
0

> <PUBCHEM_BOND_UDEF_STEREO_COUNT>
0

> <PUBCHEM_ISOTOPIC_ATOM_COUNT>
0

> <PUBCHEM_COMPONENT_COUNT>
1

> <PUBCHEM_CACTVS_TAUTO_COUNT>
220

> <PUBCHEM_CONFORMER_ID>
002DFCD400000001

> <PUBCHEM_MMFF94_ENERGY>
96.7627

> <PUBCHEM_FEATURE_SELFOVERLAP>
91.531

> <PUBCHEM_SHAPE_FINGERPRINT>
10930396 42 18046592778129442792
11115154 58 17987223453534126145
11135609 12 18059005203065197115
11578080 2 17024898049920095900
11621639 179 17827054236030732213
11828422 8 16517619582574566588
12147406 95 17126455622742082671
12156800 1 15143729153688799700
12166972 35 17168439146966436250
12788726 201 18121782720794313296
13004483 165 18051125887311252763
13149001 5 18115038492573893666
133893 2 18116129216977896683
13911987 19 17970092005236096066
14739800 52 12251893790126125175
14790565 3 17040357908814228465
14910302 57 17486770767020978390
15210252 30 18339070497756149522
15439362 3 18261668293823574592
16090146 7 17703522000210477291
161222 10 18059304175084453399
17492 54 17895496747261931824
1813 80 18269826524314630905
20715895 44 16371850625841610735
20771845 165 17969508301885150180
23559900 14 17916566727192281635
238 59 18265060308616605552
26353 1 18266169539829407217
3298306 158 18120952851936056824
340366 18 18272644624488531015
4280585 95 18270946973760749434
463206 1 18342742935438608913
5081480 168 18187642484162392493

> <PUBCHEM_SHAPE_MULTIPOLES>
635.14
10.34
4.75
2.33
4.33
3.6
0.35
-3.36
4.84
-3.96
0.7
0.29
-0.69
-1.58

> <PUBCHEM_SHAPE_SELFOVERLAP>
1373.189

> <PUBCHEM_SHAPE_VOLUME>
343.7

> <PUBCHEM_COORDINATE_TYPE>
2
5
10

$$$$
