10837746
  -OEChem-08262011203D

 59 61  0     1  0  0  0  0  0999 V2000
    1.9011    2.0319    0.7005 O   0  0  0  0  0  0  0  0  0  0  0  0
    0.3400    0.4855   -0.0838 O   0  0  0  0  0  0  0  0  0  0  0  0
    3.1391    2.9123   -3.1152 O   0  0  0  0  0  0  0  0  0  0  0  0
    4.7917    3.6504   -0.8612 O   0  0  0  0  0  0  0  0  0  0  0  0
    1.7028    0.3999   -2.5624 O   0  0  0  0  0  0  0  0  0  0  0  0
    3.1659    2.9149    2.9757 O   0  0  0  0  0  0  0  0  0  0  0  0
   -0.2911   -1.9881    2.5732 O   0  0  0  0  0  0  0  0  0  0  0  0
    4.4324   -3.1517    0.7683 O   0  0  0  0  0  0  0  0  0  0  0  0
    3.6689   -4.8215   -1.3178 O   0  0  0  0  0  0  0  0  0  0  0  0
   -8.3993    0.0168   -1.4129 O   0  0  0  0  0  0  0  0  0  0  0  0
    3.1567    2.1999   -1.8772 C   0  0  1  0  0  0  0  0  0  0  0  0
    3.4426    3.2022   -0.7588 C   0  0  1  0  0  0  0  0  0  0  0  0
    1.8095    1.5079   -1.6689 C   0  0  2  0  0  0  0  0  0  0  0  0
    3.2254    2.5610    0.6138 C   0  0  1  0  0  0  0  0  0  0  0  0
    1.6677    0.9856   -0.2393 C   0  0  1  0  0  0  0  0  0  0  0  0
    3.3910    3.5736    1.7426 C   0  0  0  0  0  0  0  0  0  0  0  0
    0.1272   -0.0140    1.2273 C   0  0  2  0  0  0  0  0  0  0  0  0
   -0.1505   -1.5349    1.2228 C   0  0  1  0  0  0  0  0  0  0  0  0
   -0.9129    0.8559    1.9455 C   0  0  0  0  0  0  0  0  0  0  0  0
    0.8752   -2.4142    0.5442 C   0  0  0  0  0  0  0  0  0  0  0  0
    2.1908   -2.3751    0.9744 C   0  0  0  0  0  0  0  0  0  0  0  0
    0.4780   -3.2401   -0.4939 C   0  0  0  0  0  0  0  0  0  0  0  0
   -2.2606    0.7706    1.3656 C   0  0  0  0  0  0  0  0  0  0  0  0
    3.1373   -3.1861    0.3479 C   0  0  0  0  0  0  0  0  0  0  0  0
    1.4243   -4.0511   -1.1202 C   0  0  0  0  0  0  0  0  0  0  0  0
    2.7539   -4.0241   -0.6994 C   0  0  0  0  0  0  0  0  0  0  0  0
   -3.3563    0.6755    0.8828 C   0  0  0  0  0  0  0  0  0  0  0  0
   -4.6484    0.5072    0.2948 C   0  0  0  0  0  0  0  0  0  0  0  0
   -4.7664    0.2964   -1.0785 C   0  0  0  0  0  0  0  0  0  0  0  0
   -5.7897    0.5537    1.0948 C   0  0  0  0  0  0  0  0  0  0  0  0
   -6.0270    0.1321   -1.6526 C   0  0  0  0  0  0  0  0  0  0  0  0
   -7.0503    0.3891    0.5209 C   0  0  0  0  0  0  0  0  0  0  0  0
   -7.1691    0.1783   -0.8530 C   0  0  0  0  0  0  0  0  0  0  0  0
    3.9621    1.4594   -1.9573 H   0  0  0  0  0  0  0  0  0  0  0  0
    2.7955    4.0794   -0.8814 H   0  0  0  0  0  0  0  0  0  0  0  0
    0.9888    2.1927   -1.9137 H   0  0  0  0  0  0  0  0  0  0  0  0
    3.9387    1.7431    0.7846 H   0  0  0  0  0  0  0  0  0  0  0  0
    2.3775    0.1682   -0.0683 H   0  0  0  0  0  0  0  0  0  0  0  0
    2.6626    4.3873    1.6610 H   0  0  0  0  0  0  0  0  0  0  0  0
    4.3975    4.0012    1.7590 H   0  0  0  0  0  0  0  0  0  0  0  0
    1.0350    0.1136    1.8360 H   0  0  0  0  0  0  0  0  0  0  0  0
   -1.1157   -1.7060    0.7294 H   0  0  0  0  0  0  0  0  0  0  0  0
    4.0022    3.3505   -3.2110 H   0  0  0  0  0  0  0  0  0  0  0  0
    5.3736    2.8798   -0.7464 H   0  0  0  0  0  0  0  0  0  0  0  0
    2.4168   -0.2264   -2.3532 H   0  0  0  0  0  0  0  0  0  0  0  0
   -0.5938    1.9048    1.9021 H   0  0  0  0  0  0  0  0  0  0  0  0
   -0.9587    0.5879    3.0072 H   0  0  0  0  0  0  0  0  0  0  0  0
    2.2720    2.5329    2.9465 H   0  0  0  0  0  0  0  0  0  0  0  0
   -1.1316   -1.6408    2.9162 H   0  0  0  0  0  0  0  0  0  0  0  0
    2.4969   -1.7325    1.7951 H   0  0  0  0  0  0  0  0  0  0  0  0
   -0.5535   -3.2707   -0.8323 H   0  0  0  0  0  0  0  0  0  0  0  0
    1.1122   -4.6990   -1.9349 H   0  0  0  0  0  0  0  0  0  0  0  0
    4.9470   -3.7737    0.2252 H   0  0  0  0  0  0  0  0  0  0  0  0
    3.2239   -5.3309   -2.0168 H   0  0  0  0  0  0  0  0  0  0  0  0
   -3.8854    0.2574   -1.7148 H   0  0  0  0  0  0  0  0  0  0  0  0
   -5.7134    0.7172    2.1671 H   0  0  0  0  0  0  0  0  0  0  0  0
   -6.1059   -0.0317   -2.7240 H   0  0  0  0  0  0  0  0  0  0  0  0
   -7.9362    0.4260    1.1490 H   0  0  0  0  0  0  0  0  0  0  0  0
   -8.2942   -0.1183   -2.3704 H   0  0  0  0  0  0  0  0  0  0  0  0
  1 14  1  0  0  0  0
  1 15  1  0  0  0  0
  2 15  1  0  0  0  0
  2 17  1  0  0  0  0
  3 11  1  0  0  0  0
  3 43  1  0  0  0  0
  4 12  1  0  0  0  0
  4 44  1  0  0  0  0
  5 13  1  0  0  0  0
  5 45  1  0  0  0  0
  6 16  1  0  0  0  0
  6 48  1  0  0  0  0
  7 18  1  0  0  0  0
  7 49  1  0  0  0  0
  8 24  1  0  0  0  0
  8 53  1  0  0  0  0
  9 26  1  0  0  0  0
  9 54  1  0  0  0  0
 10 33  1  0  0  0  0
 10 59  1  0  0  0  0
 11 12  1  0  0  0  0
 11 13  1  0  0  0  0
 11 34  1  0  0  0  0
 12 14  1  0  0  0  0
 12 35  1  0  0  0  0
 13 15  1  0  0  0  0
 13 36  1  0  0  0  0
 14 16  1  0  0  0  0
 14 37  1  0  0  0  0
 15 38  1  0  0  0  0
 16 39  1  0  0  0  0
 16 40  1  0  0  0  0
 17 18  1  0  0  0  0
 17 19  1  0  0  0  0
 17 41  1  0  0  0  0
 18 20  1  0  0  0  0
 18 42  1  0  0  0  0
 19 23  1  0  0  0  0
 19 46  1  0  0  0  0
 19 47  1  0  0  0  0
 20 21  2  0  0  0  0
 20 22  1  0  0  0  0
 21 24  1  0  0  0  0
 21 50  1  0  0  0  0
 22 25  2  0  0  0  0
 22 51  1  0  0  0  0
 23 27  3  0  0  0  0
 24 26  2  0  0  0  0
 25 26  1  0  0  0  0
 25 52  1  0  0  0  0
 27 28  1  0  0  0  0
 28 29  2  0  0  0  0
 28 30  1  0  0  0  0
 29 31  1  0  0  0  0
 29 55  1  0  0  0  0
 30 32  2  0  0  0  0
 30 56  1  0  0  0  0
 31 33  2  0  0  0  0
 31 57  1  0  0  0  0
 32 33  1  0  0  0  0
 32 58  1  0  0  0  0
M  END
> <PUBCHEM_COMPOUND_CID>
10837746

> <PUBCHEM_CONFORMER_RMSD>
1

> <PUBCHEM_CONFORMER_DIVERSEORDER>
1
160
2
100
120
13
65
113
47
95
4
76
81
117
20
31
91
150
23
123
121
190
147
104
40
177
51
125
145
107
97
77
122
37
161
93
84
112
102
60
69
149
67
68
15
22
72
82
105
49
139
85
119
36
38
55
130
50
10
129
143
144
101
134
188
175
33
83
126
8
133
27
44
111
131
115
70
164
89
158
135
137
9
73
108
151
54
128
155
62
74
80
159
92
163
29
114
18
162
25
106
99
116
5
19
167
88
180
118
174
157
59
176
178
146
6
172
30
96
48
185
46
63
168
187
71
61
148
186
3
86
110
90
24
87
58
141
45
79
7
64
21
183
16
12
170
132
189
165
154
57
66
109
169
136
166
184
14
171
103
32
39
181
42
127
78
56
142
11
35
98
34
28
182
173
124
53
41
75
179
140
156
153
43
17
152
52
26
94
138

> <PUBCHEM_MMFF94_PARTIAL_CHARGES>
48
1 -0.56
10 -0.53
11 0.28
12 0.28
13 0.28
14 0.28
15 0.56
16 0.28
17 0.28
18 0.42
19 0.2
2 -0.56
20 -0.14
21 -0.15
22 -0.15
23 -0.2
24 0.08
25 -0.15
26 0.08
27 -0.07
28 0.07
29 -0.15
3 -0.68
30 -0.15
31 -0.15
32 -0.15
33 0.08
4 -0.68
43 0.4
44 0.4
45 0.4
48 0.4
49 0.4
5 -0.68
50 0.15
51 0.15
52 0.15
53 0.45
54 0.45
55 0.15
56 0.15
57 0.15
58 0.15
59 0.45
6 -0.68
7 -0.68
8 -0.53
9 -0.53

> <PUBCHEM_EFFECTIVE_ROTOR_COUNT>
7.2

> <PUBCHEM_PHARMACOPHORE_FEATURES>
18
1 1 acceptor
1 10 donor
1 2 acceptor
1 3 acceptor
1 3 donor
1 4 acceptor
1 4 donor
1 5 acceptor
1 5 donor
1 6 acceptor
1 6 donor
1 7 acceptor
1 7 donor
1 8 donor
1 9 donor
6 1 11 12 13 14 15 rings
6 20 21 22 24 25 26 rings
6 28 29 30 31 32 33 rings

> <PUBCHEM_HEAVY_ATOM_COUNT>
33

> <PUBCHEM_ATOM_DEF_STEREO_COUNT>
7

> <PUBCHEM_ATOM_UDEF_STEREO_COUNT>
0

> <PUBCHEM_BOND_DEF_STEREO_COUNT>
0

> <PUBCHEM_BOND_UDEF_STEREO_COUNT>
0

> <PUBCHEM_ISOTOPIC_ATOM_COUNT>
0

> <PUBCHEM_COMPONENT_COUNT>
1

> <PUBCHEM_CACTVS_TAUTO_COUNT>
20

> <PUBCHEM_CONFORMER_ID>
00A55EF200000001

> <PUBCHEM_MMFF94_ENERGY>
85.8649

> <PUBCHEM_FEATURE_SELFOVERLAP>
91.422

> <PUBCHEM_SHAPE_FINGERPRINT>
10721379 63 18201166463866092329
10764073 3 14276501481524776425
11331351 85 17552090493193811587
11578080 2 16734137650010612526
11763715 3 17201653142367476610
12166972 35 18268993073195375231
13540713 4 17968397718263766931
14068700 675 18056475049998289187
14918310 93 18040707049309605200
15439362 3 18259702315387280932
1813 80 18123470475543898595
18365409 1 17916570055418429726
20554085 129 18270394026992090648
20775438 99 18409444817397930411
21304303 282 17766827704401677966
21344244 246 18340493270598677590
23559900 14 17822579317961939275
24204213 148 17699816774288529895
27425 322 17912914273571164057
4017518 198 18341343296872519574
44317340 157 18410299073966697353
44802255 64 17321027378062555204
45266715 3 18130514132115822276
46194498 28 18261947454408394927
5104073 3 9150880734043480101
513532 50 17022626372902825479
57359948 33 18191563326096220437
6669772 16 18130216181290909168
6823239 73 16660937582313820791

> <PUBCHEM_SHAPE_MULTIPOLES>
620.43
14.4
5.85
2.44
39.84
4.16
-0.28
-4.48
-5.02
-14.61
-0.92
-1.34
-1.58
-0.29

> <PUBCHEM_SHAPE_SELFOVERLAP>
1315.126

> <PUBCHEM_SHAPE_VOLUME>
342.9

> <PUBCHEM_COORDINATE_TYPE>
2
5
10

$$$$
