91885026
  -OEChem-08262011203D

 46 48  0     1  0  0  0  0  0999 V2000
   -0.2574    1.3572   -0.5304 O   0  0  0  0  0  0  0  0  0  0  0  0
    0.2640   -3.3322    0.3312 O   0  0  0  0  0  0  0  0  0  0  0  0
    1.9735    3.1391   -0.7391 O   0  0  0  0  0  0  0  0  0  0  0  0
   -5.7535   -0.9954   -0.6822 O   0  0  0  0  0  0  0  0  0  0  0  0
    4.9664   -1.9103    0.0927 O   0  0  0  0  0  0  0  0  0  0  0  0
   -6.2044    0.7122    1.4641 O   0  0  0  0  0  0  0  0  0  0  0  0
    5.8237    0.0801    0.8690 O   0  0  0  0  0  0  0  0  0  0  0  0
   -0.1581   -0.9917    0.1032 C   0  0  2  0  0  0  0  0  0  0  0  0
   -0.9784    0.0967   -0.6297 C   0  0  1  0  0  0  0  0  0  0  0  0
    1.1875   -0.3633    0.0076 C   0  0  0  0  0  0  0  0  0  0  0  0
    1.0451    0.9764   -0.3267 C   0  0  0  0  0  0  0  0  0  0  0  0
   -0.2811   -2.3620   -0.5464 C   0  0  0  0  0  0  0  0  0  0  0  0
   -2.3745    0.2594   -0.0738 C   0  0  0  0  0  0  0  0  0  0  0  0
    2.4404   -0.8956    0.2598 C   0  0  0  0  0  0  0  0  0  0  0  0
    2.1278    1.8300   -0.4197 C   0  0  0  0  0  0  0  0  0  0  0  0
    3.5518   -0.0542    0.1580 C   0  0  0  0  0  0  0  0  0  0  0  0
   -3.4366   -0.4471   -0.6378 C   0  0  0  0  0  0  0  0  0  0  0  0
   -2.6005    1.1157    1.0039 C   0  0  0  0  0  0  0  0  0  0  0  0
    3.3961    1.3004   -0.1783 C   0  0  0  0  0  0  0  0  0  0  0  0
   -4.7249   -0.2978   -0.1240 C   0  0  0  0  0  0  0  0  0  0  0  0
   -3.8888    1.2652    1.5176 C   0  0  0  0  0  0  0  0  0  0  0  0
   -4.9509    0.5585    0.9536 C   0  0  0  0  0  0  0  0  0  0  0  0
    4.8823   -0.5834    0.4151 C   0  0  0  0  0  0  0  0  0  0  0  0
    3.1560    3.9385   -0.8098 C   0  0  0  0  0  0  0  0  0  0  0  0
   -5.4369   -1.8487   -1.7803 C   0  0  0  0  0  0  0  0  0  0  0  0
    6.2312   -2.5475    0.3025 C   0  0  0  0  0  0  0  0  0  0  0  0
   -0.4249   -1.0458    1.1674 H   0  0  0  0  0  0  0  0  0  0  0  0
   -1.0436   -0.1186   -1.7069 H   0  0  0  0  0  0  0  0  0  0  0  0
    0.2479   -2.4131   -1.5042 H   0  0  0  0  0  0  0  0  0  0  0  0
   -1.3305   -2.6243   -0.7100 H   0  0  0  0  0  0  0  0  0  0  0  0
    2.5383   -1.9358    0.5518 H   0  0  0  0  0  0  0  0  0  0  0  0
   -3.2015   -1.0960   -1.4745 H   0  0  0  0  0  0  0  0  0  0  0  0
   -1.7871    1.6676    1.4669 H   0  0  0  0  0  0  0  0  0  0  0  0
    4.2988    1.9003   -0.2400 H   0  0  0  0  0  0  0  0  0  0  0  0
    0.1718   -4.1967   -0.1041 H   0  0  0  0  0  0  0  0  0  0  0  0
   -4.0505    1.9335    2.3591 H   0  0  0  0  0  0  0  0  0  0  0  0
    2.8439    4.9546   -1.0720 H   0  0  0  0  0  0  0  0  0  0  0  0
    3.8262    3.5929   -1.6041 H   0  0  0  0  0  0  0  0  0  0  0  0
    3.6592    3.9969    0.1612 H   0  0  0  0  0  0  0  0  0  0  0  0
   -6.1698    1.3421    2.2044 H   0  0  0  0  0  0  0  0  0  0  0  0
   -5.0619   -1.2806   -2.6384 H   0  0  0  0  0  0  0  0  0  0  0  0
   -4.7569   -2.6544   -1.4829 H   0  0  0  0  0  0  0  0  0  0  0  0
   -6.3709   -2.3237   -2.0984 H   0  0  0  0  0  0  0  0  0  0  0  0
    6.1392   -3.5942    0.0009 H   0  0  0  0  0  0  0  0  0  0  0  0
    6.5020   -2.5080    1.3617 H   0  0  0  0  0  0  0  0  0  0  0  0
    7.0004   -2.0697   -0.3114 H   0  0  0  0  0  0  0  0  0  0  0  0
  1  9  1  0  0  0  0
  1 11  1  0  0  0  0
  2 12  1  0  0  0  0
  2 35  1  0  0  0  0
  3 15  1  0  0  0  0
  3 24  1  0  0  0  0
  4 20  1  0  0  0  0
  4 25  1  0  0  0  0
  5 23  1  0  0  0  0
  5 26  1  0  0  0  0
  6 22  1  0  0  0  0
  6 40  1  0  0  0  0
  7 23  2  0  0  0  0
  8  9  1  0  0  0  0
  8 10  1  0  0  0  0
  8 12  1  0  0  0  0
  8 27  1  0  0  0  0
  9 13  1  0  0  0  0
  9 28  1  0  0  0  0
 10 11  2  0  0  0  0
 10 14  1  0  0  0  0
 11 15  1  0  0  0  0
 12 29  1  0  0  0  0
 12 30  1  0  0  0  0
 13 17  2  0  0  0  0
 13 18  1  0  0  0  0
 14 16  2  0  0  0  0
 14 31  1  0  0  0  0
 15 19  2  0  0  0  0
 16 19  1  0  0  0  0
 16 23  1  0  0  0  0
 17 20  1  0  0  0  0
 17 32  1  0  0  0  0
 18 21  2  0  0  0  0
 18 33  1  0  0  0  0
 19 34  1  0  0  0  0
 20 22  2  0  0  0  0
 21 22  1  0  0  0  0
 21 36  1  0  0  0  0
 24 37  1  0  0  0  0
 24 38  1  0  0  0  0
 24 39  1  0  0  0  0
 25 41  1  0  0  0  0
 25 42  1  0  0  0  0
 25 43  1  0  0  0  0
 26 44  1  0  0  0  0
 26 45  1  0  0  0  0
 26 46  1  0  0  0  0
M  END
> <PUBCHEM_COMPOUND_CID>
91885026

> <PUBCHEM_CONFORMER_RMSD>
0.8

> <PUBCHEM_CONFORMER_DIVERSEORDER>
2
18
20
15
17
13
7
21
19
1
12
3
11
6
5
14
9
16
8
10
4

> <PUBCHEM_MMFF94_PARTIAL_CHARGES>
33
1 -0.36
10 -0.14
11 0.08
12 0.28
13 -0.14
14 -0.15
15 0.08
16 0.09
17 -0.15
18 -0.15
19 -0.15
2 -0.68
20 0.08
21 -0.15
22 0.08
23 0.63
24 0.28
25 0.28
26 0.28
3 -0.36
31 0.15
32 0.15
33 0.15
34 0.15
35 0.4
36 0.15
4 -0.36
40 0.45
5 -0.43
6 -0.53
7 -0.57
8 0.14
9 0.42

> <PUBCHEM_EFFECTIVE_ROTOR_COUNT>
6.6

> <PUBCHEM_PHARMACOPHORE_FEATURES>
10
1 1 acceptor
1 2 acceptor
1 2 donor
1 3 acceptor
1 4 acceptor
1 6 donor
1 7 acceptor
5 1 8 9 10 11 rings
6 10 11 14 15 16 19 rings
6 13 17 18 20 21 22 rings

> <PUBCHEM_HEAVY_ATOM_COUNT>
26

> <PUBCHEM_ATOM_DEF_STEREO_COUNT>
2

> <PUBCHEM_ATOM_UDEF_STEREO_COUNT>
0

> <PUBCHEM_BOND_DEF_STEREO_COUNT>
0

> <PUBCHEM_BOND_UDEF_STEREO_COUNT>
0

> <PUBCHEM_ISOTOPIC_ATOM_COUNT>
0

> <PUBCHEM_COMPONENT_COUNT>
1

> <PUBCHEM_CACTVS_TAUTO_COUNT>
4

> <PUBCHEM_CONFORMER_ID>
057A0DE200000002

> <PUBCHEM_MMFF94_ENERGY>
96.6271

> <PUBCHEM_FEATURE_SELFOVERLAP>
50.852

> <PUBCHEM_SHAPE_FINGERPRINT>
10366900 7 17022899025705675137
10763959 59 18040427789512945277
1100329 8 18337672017992336138
11045977 3 17676779733384516603
11578080 2 17271994656832084010
12107183 9 18196660596760318425
12166972 35 18343582945343120040
12236239 1 18202280299262580211
12403260 363 18412826893309766085
12596602 18 17775560931882092850
12616971 3 18411989074482317129
12788726 201 17626664160910646183
13140716 1 18262245532963663786
13533116 47 18271519896759821408
13540713 5 18121496019343407316
13583140 156 17385998490488667763
13590594 115 18334578993105240436
13782708 43 17240198811570040986
13862211 1 18335696101393018978
13911852 28 18191299378237355642
14251764 18 18343579638751038658
14341114 328 18059869384812910825
14739800 52 17702659024773717040
14849402 71 18200312250991239224
14955137 171 18335431123374720658
15420108 30 17839463289194080371
15475509 8 18127996151840708668
17349148 13 18343866623389827799
1813 80 18337681806618345564
18222031 100 18335129874294609242
18681886 176 18341602741727670218
20028762 73 18272082803405588590
21033648 144 18115304617590585341
21033648 29 16732973267618213093
21033650 10 16986906560073816888
21267235 1 18263649477160371042
21365058 113 16878238476158085726
21682296 61 18266743485163305074
21709351 56 18409161087515079021
23402539 116 18060695096343343005
23522609 53 18195838235367576300
23559900 14 18261388996225698771
23569943 247 18122904227277816250
24771293 8 18342168991128883656
25147074 1 18271526514914203525
3178227 256 18261122854324556474
345986 75 18190166889945257056
350125 39 18409450280021162220
3633792 109 18337092562769669125
4015057 19 18261392308173374985
4409770 3 16248868914872475655
465052 167 18041292001404544514
474 4 18411146848427643881
5104073 3 18201163251673686489
633830 44 18271539666673574917
67856867 119 18271805778199300745
9981440 41 17401197275985412680

> <PUBCHEM_SHAPE_MULTIPOLES>
493.98
14.03
3.21
1.13
3.44
1.01
-0.03
-4.57
-2.12
-4.01
0.83
1.53
0.14
-2.7

> <PUBCHEM_SHAPE_SELFOVERLAP>
1071.463

> <PUBCHEM_SHAPE_VOLUME>
272.1

> <PUBCHEM_COORDINATE_TYPE>
2
5
10

$$$$
