101664510
  -OEChem-08262011253D

 63 65  0     1  0  0  0  0  0999 V2000
    0.3539    1.7746    0.8766 O   0  0  0  0  0  0  0  0  0  0  0  0
   -1.0047    0.5577   -0.5786 O   0  0  0  0  0  0  0  0  0  0  0  0
    1.4518    4.3695   -2.1113 O   0  0  0  0  0  0  0  0  0  0  0  0
    0.3452    1.7212   -2.7767 O   0  0  0  0  0  0  0  0  0  0  0  0
    3.0102    4.2336    0.3194 O   0  0  0  0  0  0  0  0  0  0  0  0
    1.5095    1.7138    3.3699 O   0  0  0  0  0  0  0  0  0  0  0  0
   -2.3395   -1.2142    2.3407 O   0  0  0  0  0  0  0  0  0  0  0  0
    0.8162   -2.7793    1.3111 O   0  0  0  0  0  0  0  0  0  0  0  0
   -6.3731   -2.4826   -0.2783 O   0  0  0  0  0  0  0  0  0  0  0  0
   -7.4145   -0.0671   -1.1764 O   0  0  0  0  0  0  0  0  0  0  0  0
    5.6485   -1.1557    1.4469 O   0  0  0  0  0  0  0  0  0  0  0  0
    6.5692   -1.6993   -1.1192 O   0  0  0  0  0  0  0  0  0  0  0  0
    1.5651    3.1951   -1.3061 C   0  0  2  0  0  0  0  0  0  0  0  0
    0.3165    2.3316   -1.4868 C   0  0  2  0  0  0  0  0  0  0  0  0
    1.7287    3.6337    0.1492 C   0  0  1  0  0  0  0  0  0  0  0  0
    0.2487    1.2248   -0.4346 C   0  0  1  0  0  0  0  0  0  0  0  0
    1.6007    2.4370    1.0948 C   0  0  1  0  0  0  0  0  0  0  0  0
   -1.1409   -0.4937    0.3646 C   0  0  2  0  0  0  0  0  0  0  0  0
    1.6437    2.8662    2.5579 C   0  0  0  0  0  0  0  0  0  0  0  0
   -1.2616   -1.8262   -0.3852 C   0  0  0  0  0  0  0  0  0  0  0  0
   -2.3272   -0.2212    1.3122 C   0  0  1  0  0  0  0  0  0  0  0  0
    0.0886   -2.2997   -0.9370 C   0  0  0  0  0  0  0  0  0  0  0  0
   -3.6861   -0.1835    0.6469 C   0  0  0  0  0  0  0  0  0  0  0  0
    1.1268   -2.4747    0.1617 C   0  0  0  0  0  0  0  0  0  0  0  0
   -4.4161   -1.3609    0.4844 C   0  0  0  0  0  0  0  0  0  0  0  0
   -4.2091    1.0289    0.1972 C   0  0  0  0  0  0  0  0  0  0  0  0
    2.5666   -2.2686   -0.1735 C   0  0  0  0  0  0  0  0  0  0  0  0
   -5.6690   -1.3260   -0.1277 C   0  0  0  0  0  0  0  0  0  0  0  0
   -5.4618    1.0638   -0.4151 C   0  0  0  0  0  0  0  0  0  0  0  0
   -6.1919   -0.1138   -0.5776 C   0  0  0  0  0  0  0  0  0  0  0  0
    3.4500   -1.8030    0.8003 C   0  0  0  0  0  0  0  0  0  0  0  0
    3.0287   -2.5412   -1.4611 C   0  0  0  0  0  0  0  0  0  0  0  0
    4.7955   -1.6102    0.4869 C   0  0  0  0  0  0  0  0  0  0  0  0
    4.3741   -2.3481   -1.7748 C   0  0  0  0  0  0  0  0  0  0  0  0
    5.2574   -1.8827   -0.8008 C   0  0  0  0  0  0  0  0  0  0  0  0
    2.4597    2.6684   -1.6584 H   0  0  0  0  0  0  0  0  0  0  0  0
   -0.5877    2.9508   -1.4501 H   0  0  0  0  0  0  0  0  0  0  0  0
    0.9766    4.3944    0.3916 H   0  0  0  0  0  0  0  0  0  0  0  0
    1.0537    0.4976   -0.5993 H   0  0  0  0  0  0  0  0  0  0  0  0
    2.4119    1.7146    0.9294 H   0  0  0  0  0  0  0  0  0  0  0  0
   -0.2625   -0.5485    1.0183 H   0  0  0  0  0  0  0  0  0  0  0  0
    0.8106    3.5374    2.7920 H   0  0  0  0  0  0  0  0  0  0  0  0
    2.5879    3.3613    2.8039 H   0  0  0  0  0  0  0  0  0  0  0  0
   -1.6453   -2.6085    0.2796 H   0  0  0  0  0  0  0  0  0  0  0  0
   -1.9568   -1.7299   -1.2276 H   0  0  0  0  0  0  0  0  0  0  0  0
   -2.1725    0.7428    1.8138 H   0  0  0  0  0  0  0  0  0  0  0  0
    0.6539    4.8510   -1.8335 H   0  0  0  0  0  0  0  0  0  0  0  0
    1.1369    1.1587   -2.8264 H   0  0  0  0  0  0  0  0  0  0  0  0
    3.6849    3.5622    0.1206 H   0  0  0  0  0  0  0  0  0  0  0  0
    0.4426   -1.5761   -1.6785 H   0  0  0  0  0  0  0  0  0  0  0  0
   -0.0399   -3.2662   -1.4367 H   0  0  0  0  0  0  0  0  0  0  0  0
    1.5350    2.0103    4.2956 H   0  0  0  0  0  0  0  0  0  0  0  0
   -1.4888   -1.1642    2.8089 H   0  0  0  0  0  0  0  0  0  0  0  0
   -4.0198   -2.3125    0.8290 H   0  0  0  0  0  0  0  0  0  0  0  0
   -3.6493    1.9529    0.3160 H   0  0  0  0  0  0  0  0  0  0  0  0
   -5.8571    2.0150   -0.7614 H   0  0  0  0  0  0  0  0  0  0  0  0
    3.0922   -1.5833    1.8035 H   0  0  0  0  0  0  0  0  0  0  0  0
    2.3664   -2.9186   -2.2350 H   0  0  0  0  0  0  0  0  0  0  0  0
    4.7215   -2.5674   -2.7809 H   0  0  0  0  0  0  0  0  0  0  0  0
   -5.8567   -3.2195    0.0906 H   0  0  0  0  0  0  0  0  0  0  0  0
   -7.6122    0.8532   -1.4215 H   0  0  0  0  0  0  0  0  0  0  0  0
    5.1536   -1.0209    2.2732 H   0  0  0  0  0  0  0  0  0  0  0  0
    6.7051   -1.9383   -2.0522 H   0  0  0  0  0  0  0  0  0  0  0  0
  1 16  1  0  0  0  0
  1 17  1  0  0  0  0
  2 16  1  0  0  0  0
  2 18  1  0  0  0  0
  3 13  1  0  0  0  0
  3 47  1  0  0  0  0
  4 14  1  0  0  0  0
  4 48  1  0  0  0  0
  5 15  1  0  0  0  0
  5 49  1  0  0  0  0
  6 19  1  0  0  0  0
  6 52  1  0  0  0  0
  7 21  1  0  0  0  0
  7 53  1  0  0  0  0
  8 24  2  0  0  0  0
  9 28  1  0  0  0  0
  9 60  1  0  0  0  0
 10 30  1  0  0  0  0
 10 61  1  0  0  0  0
 11 33  1  0  0  0  0
 11 62  1  0  0  0  0
 12 35  1  0  0  0  0
 12 63  1  0  0  0  0
 13 14  1  0  0  0  0
 13 15  1  0  0  0  0
 13 36  1  0  0  0  0
 14 16  1  0  0  0  0
 14 37  1  0  0  0  0
 15 17  1  0  0  0  0
 15 38  1  0  0  0  0
 16 39  1  0  0  0  0
 17 19  1  0  0  0  0
 17 40  1  0  0  0  0
 18 20  1  0  0  0  0
 18 21  1  0  0  0  0
 18 41  1  0  0  0  0
 19 42  1  0  0  0  0
 19 43  1  0  0  0  0
 20 22  1  0  0  0  0
 20 44  1  0  0  0  0
 20 45  1  0  0  0  0
 21 23  1  0  0  0  0
 21 46  1  0  0  0  0
 22 24  1  0  0  0  0
 22 50  1  0  0  0  0
 22 51  1  0  0  0  0
 23 25  2  0  0  0  0
 23 26  1  0  0  0  0
 24 27  1  0  0  0  0
 25 28  1  0  0  0  0
 25 54  1  0  0  0  0
 26 29  2  0  0  0  0
 26 55  1  0  0  0  0
 27 31  2  0  0  0  0
 27 32  1  0  0  0  0
 28 30  2  0  0  0  0
 29 30  1  0  0  0  0
 29 56  1  0  0  0  0
 31 33  1  0  0  0  0
 31 57  1  0  0  0  0
 32 34  2  0  0  0  0
 32 58  1  0  0  0  0
 33 35  2  0  0  0  0
 34 35  1  0  0  0  0
 34 59  1  0  0  0  0
M  END
> <PUBCHEM_COMPOUND_CID>
101664510

> <PUBCHEM_CONFORMER_RMSD>
1.2

> <PUBCHEM_CONFORMER_DIVERSEORDER>
22
167
58
116
70
33
61
18
32
151
152
192
68
162
185
105
104
59
110
158
31
126
1
30
51
134
129
115
99
142
71
91
163
90
143
56
75
76
183
62
17
69
181
146
41
3
82
97
111
83
123
39
64
72
101
48
148
29
166
53
9
25
149
57
147
189
20
67
195
112
73
170
179
11
94
106
10
8
26
155
120
44
174
140
12
65
150
188
2
190
132
14
171
184
100
95
172
35
137
6
38
144
107
34
21
164
86
78
23
109
176
24
136
88
175
160
102
119
193
45
182
5
49
40
121
196
19
93
87
139
15
197
103
74
125
161
96
46
66
177
79
131
85
55
81
16
145
60
194
156
135
187
52
141
63
128
122
54
77
186
98
165
117
43
124
92
37
153
84
28
127
113
7
191
108
168
178
138
114
169
118
159
36
50
4
13
27
47
42
130
80
89
180
154
173
133
157

> <PUBCHEM_MMFF94_PARTIAL_CHARGES>
49
1 -0.56
10 -0.53
11 -0.53
12 -0.53
13 0.28
14 0.28
15 0.28
16 0.56
17 0.28
18 0.28
19 0.28
2 -0.56
21 0.42
22 0.06
23 -0.14
24 0.42
25 -0.15
26 -0.15
27 0.09
28 0.08
29 -0.15
3 -0.68
30 0.08
31 -0.15
32 -0.15
33 0.08
34 -0.15
35 0.08
4 -0.68
47 0.4
48 0.4
49 0.4
5 -0.68
52 0.4
53 0.4
54 0.15
55 0.15
56 0.15
57 0.15
58 0.15
59 0.15
6 -0.68
60 0.45
61 0.45
62 0.45
63 0.45
7 -0.68
8 -0.57
9 -0.53

> <PUBCHEM_EFFECTIVE_ROTOR_COUNT>
10.2

> <PUBCHEM_PHARMACOPHORE_FEATURES>
20
1 1 acceptor
1 10 donor
1 11 donor
1 12 donor
1 2 acceptor
1 3 acceptor
1 3 donor
1 4 acceptor
1 4 donor
1 5 acceptor
1 5 donor
1 6 acceptor
1 6 donor
1 7 acceptor
1 7 donor
1 8 acceptor
1 9 donor
6 1 13 14 15 16 17 rings
6 23 25 26 28 29 30 rings
6 27 31 32 33 34 35 rings

> <PUBCHEM_HEAVY_ATOM_COUNT>
35

> <PUBCHEM_ATOM_DEF_STEREO_COUNT>
7

> <PUBCHEM_ATOM_UDEF_STEREO_COUNT>
0

> <PUBCHEM_BOND_DEF_STEREO_COUNT>
0

> <PUBCHEM_BOND_UDEF_STEREO_COUNT>
0

> <PUBCHEM_ISOTOPIC_ATOM_COUNT>
0

> <PUBCHEM_COMPONENT_COUNT>
1

> <PUBCHEM_CACTVS_TAUTO_COUNT>
240

> <PUBCHEM_CONFORMER_ID>
060F46FE00000016

> <PUBCHEM_MMFF94_ENERGY>
97.2147

> <PUBCHEM_FEATURE_SELFOVERLAP>
101.581

> <PUBCHEM_SHAPE_FINGERPRINT>
10032420 55 17677045737968427183
10930396 42 18263622049472696546
11582403 64 15838436037318011648
11621639 179 17462269254983321245
11763715 3 16844470265907800827
12156800 1 15720487920529210812
12166972 35 18271813414582347451
12788726 201 17679587735815971120
131258 43 17701850746598805230
133893 2 18119520188021138958
14068700 675 18343303626176202105
14955137 171 18059858337608457983
15064986 96 18189331445116793384
15439362 3 18190182467169556069
15444296 7 17988354992073457223
15876981 60 17344925026414839848
15927050 60 17981325904636730198
167882 2 18263933304992890749
17899979 19 18335994133800777044
17980427 23 17703238304366051883
18365409 1 17417513818336183495
18681886 176 18201995521810161347
22149856 69 18266188396076033739
23559900 14 18407755950599591555
24771293 8 18413388722492669904
24771750 20 18044676401411107271
249057 3 18411698748057810839
469060 322 18118135675696576904
5081480 168 18334563638633379693
6004065 56 18411418418851346623
6669772 16 17272275014642511569
67856867 119 18411135870876233751
77296 10 17916574470976300271

> <PUBCHEM_SHAPE_MULTIPOLES>
649.85
13.44
4.98
2.13
14.07
5.06
-0.63
-10.21
2.68
-5.69
0.87
-1.46
1.5
1.07

> <PUBCHEM_SHAPE_SELFOVERLAP>
1379.421

> <PUBCHEM_SHAPE_VOLUME>
358.5

> <PUBCHEM_COORDINATE_TYPE>
2
5
10

$$$$
