101664511
  -OEChem-08262011263D

 63 65  0     1  0  0  0  0  0999 V2000
    2.8052    1.2206   -0.2357 O   0  0  0  0  0  0  0  0  0  0  0  0
    0.6814    0.2900    0.0234 O   0  0  0  0  0  0  0  0  0  0  0  0
    1.6858    4.6472    1.7321 O   0  0  0  0  0  0  0  0  0  0  0  0
   -0.3552    2.8645    0.5759 O   0  0  0  0  0  0  0  0  0  0  0  0
    4.0756    4.6387    0.1057 O   0  0  0  0  0  0  0  0  0  0  0  0
    5.4126    1.4500    0.6800 O   0  0  0  0  0  0  0  0  0  0  0  0
    0.1405   -2.7027   -2.0374 O   0  0  0  0  0  0  0  0  0  0  0  0
   -3.4491    0.8635   -2.5234 O   0  0  0  0  0  0  0  0  0  0  0  0
    5.2478   -2.6772   -0.9216 O   0  0  0  0  0  0  0  0  0  0  0  0
    5.1426   -3.9489    1.5477 O   0  0  0  0  0  0  0  0  0  0  0  0
   -5.7832   -1.3168    2.5151 O   0  0  0  0  0  0  0  0  0  0  0  0
   -8.1911   -0.3843    1.4855 O   0  0  0  0  0  0  0  0  0  0  0  0
    1.8667    3.8057    0.5920 C   0  0  2  0  0  0  0  0  0  0  0  0
    1.0235    2.5408    0.7540 C   0  0  2  0  0  0  0  0  0  0  0  0
    3.3541    3.4692    0.4839 C   0  0  1  0  0  0  0  0  0  0  0  0
    1.4045    1.4823   -0.2809 C   0  0  1  0  0  0  0  0  0  0  0  0
    3.5883    2.3716   -0.5567 C   0  0  1  0  0  0  0  0  0  0  0  0
    0.4064   -0.4601   -1.1493 C   0  0  2  0  0  0  0  0  0  0  0  0
    5.0497    1.9365   -0.5994 C   0  0  0  0  0  0  0  0  0  0  0  0
   -0.9088    0.0350   -1.7632 C   0  0  0  0  0  0  0  0  0  0  0  0
    0.3993   -1.9707   -0.8368 C   0  0  2  0  0  0  0  0  0  0  0  0
   -2.1066   -0.2224   -0.8407 C   0  0  0  0  0  0  0  0  0  0  0  0
    1.6681   -2.4989   -0.2029 C   0  0  0  0  0  0  0  0  0  0  0  0
   -3.4078    0.2994   -1.4323 C   0  0  0  0  0  0  0  0  0  0  0  0
    2.8903   -2.3476   -0.8578 C   0  0  0  0  0  0  0  0  0  0  0  0
    1.6154   -3.1362    1.0368 C   0  0  0  0  0  0  0  0  0  0  0  0
   -4.6708    0.1170   -0.6582 C   0  0  0  0  0  0  0  0  0  0  0  0
    4.0599   -2.8334   -0.2730 C   0  0  0  0  0  0  0  0  0  0  0  0
    2.7848   -3.6223    1.6213 C   0  0  0  0  0  0  0  0  0  0  0  0
    4.0071   -3.4708    0.9666 C   0  0  0  0  0  0  0  0  0  0  0  0
   -4.6430   -0.5215    0.5817 C   0  0  0  0  0  0  0  0  0  0  0  0
   -5.8791    0.5848   -1.1747 C   0  0  0  0  0  0  0  0  0  0  0  0
   -5.8234   -0.6921    1.3051 C   0  0  0  0  0  0  0  0  0  0  0  0
   -7.0596    0.4139   -0.4514 C   0  0  0  0  0  0  0  0  0  0  0  0
   -7.0317   -0.2245    0.7885 C   0  0  0  0  0  0  0  0  0  0  0  0
    1.5343    4.3899   -0.2741 H   0  0  0  0  0  0  0  0  0  0  0  0
    1.1254    2.1386    1.7689 H   0  0  0  0  0  0  0  0  0  0  0  0
    3.7236    3.1636    1.4699 H   0  0  0  0  0  0  0  0  0  0  0  0
    1.1387    1.8484   -1.2819 H   0  0  0  0  0  0  0  0  0  0  0  0
    3.3178    2.7250   -1.5606 H   0  0  0  0  0  0  0  0  0  0  0  0
    1.1898   -0.2862   -1.9010 H   0  0  0  0  0  0  0  0  0  0  0  0
    5.7116    2.7643   -0.8708 H   0  0  0  0  0  0  0  0  0  0  0  0
    5.1824    1.1201   -1.3170 H   0  0  0  0  0  0  0  0  0  0  0  0
   -0.8503    1.1121   -1.9610 H   0  0  0  0  0  0  0  0  0  0  0  0
   -1.0784   -0.4436   -2.7352 H   0  0  0  0  0  0  0  0  0  0  0  0
   -0.4136   -2.1965   -0.1380 H   0  0  0  0  0  0  0  0  0  0  0  0
    1.9524    4.1476    2.5226 H   0  0  0  0  0  0  0  0  0  0  0  0
   -0.4691    3.2165   -0.3234 H   0  0  0  0  0  0  0  0  0  0  0  0
    3.7568    4.9187   -0.7693 H   0  0  0  0  0  0  0  0  0  0  0  0
   -1.9399    0.2718    0.1222 H   0  0  0  0  0  0  0  0  0  0  0  0
   -2.2366   -1.2982   -0.6932 H   0  0  0  0  0  0  0  0  0  0  0  0
    6.3419    1.1689    0.6271 H   0  0  0  0  0  0  0  0  0  0  0  0
   -0.7994   -2.5903   -2.2576 H   0  0  0  0  0  0  0  0  0  0  0  0
    2.9355   -1.8577   -1.8271 H   0  0  0  0  0  0  0  0  0  0  0  0
    0.6719   -3.2621    1.5611 H   0  0  0  0  0  0  0  0  0  0  0  0
    2.7295   -4.1166    2.5876 H   0  0  0  0  0  0  0  0  0  0  0  0
   -3.7190   -0.8960    1.0111 H   0  0  0  0  0  0  0  0  0  0  0  0
   -5.9263    1.0852   -2.1381 H   0  0  0  0  0  0  0  0  0  0  0  0
   -7.9941    0.7832   -0.8655 H   0  0  0  0  0  0  0  0  0  0  0  0
    5.0924   -2.2099   -1.7603 H   0  0  0  0  0  0  0  0  0  0  0  0
    4.9141   -4.3574    2.4003 H   0  0  0  0  0  0  0  0  0  0  0  0
   -4.8657   -1.5721    2.7119 H   0  0  0  0  0  0  0  0  0  0  0  0
   -8.9237    0.0005    0.9743 H   0  0  0  0  0  0  0  0  0  0  0  0
  1 16  1  0  0  0  0
  1 17  1  0  0  0  0
  2 16  1  0  0  0  0
  2 18  1  0  0  0  0
  3 13  1  0  0  0  0
  3 47  1  0  0  0  0
  4 14  1  0  0  0  0
  4 48  1  0  0  0  0
  5 15  1  0  0  0  0
  5 49  1  0  0  0  0
  6 19  1  0  0  0  0
  6 52  1  0  0  0  0
  7 21  1  0  0  0  0
  7 53  1  0  0  0  0
  8 24  2  0  0  0  0
  9 28  1  0  0  0  0
  9 60  1  0  0  0  0
 10 30  1  0  0  0  0
 10 61  1  0  0  0  0
 11 33  1  0  0  0  0
 11 62  1  0  0  0  0
 12 35  1  0  0  0  0
 12 63  1  0  0  0  0
 13 14  1  0  0  0  0
 13 15  1  0  0  0  0
 13 36  1  0  0  0  0
 14 16  1  0  0  0  0
 14 37  1  0  0  0  0
 15 17  1  0  0  0  0
 15 38  1  0  0  0  0
 16 39  1  0  0  0  0
 17 19  1  0  0  0  0
 17 40  1  0  0  0  0
 18 20  1  0  0  0  0
 18 21  1  0  0  0  0
 18 41  1  0  0  0  0
 19 42  1  0  0  0  0
 19 43  1  0  0  0  0
 20 22  1  0  0  0  0
 20 44  1  0  0  0  0
 20 45  1  0  0  0  0
 21 23  1  0  0  0  0
 21 46  1  0  0  0  0
 22 24  1  0  0  0  0
 22 50  1  0  0  0  0
 22 51  1  0  0  0  0
 23 25  2  0  0  0  0
 23 26  1  0  0  0  0
 24 27  1  0  0  0  0
 25 28  1  0  0  0  0
 25 54  1  0  0  0  0
 26 29  2  0  0  0  0
 26 55  1  0  0  0  0
 27 31  2  0  0  0  0
 27 32  1  0  0  0  0
 28 30  2  0  0  0  0
 29 30  1  0  0  0  0
 29 56  1  0  0  0  0
 31 33  1  0  0  0  0
 31 57  1  0  0  0  0
 32 34  2  0  0  0  0
 32 58  1  0  0  0  0
 33 35  2  0  0  0  0
 34 35  1  0  0  0  0
 34 59  1  0  0  0  0
M  END
> <PUBCHEM_COMPOUND_CID>
101664511

> <PUBCHEM_CONFORMER_RMSD>
1.2

> <PUBCHEM_CONFORMER_DIVERSEORDER>
6
128
60
198
115
178
62
175
145
156
81
49
148
186
227
143
55
3
48
135
87
71
92
101
52
174
168
91
78
215
202
120
108
203
224
206
104
79
151
97
172
19
207
35
177
45
137
59
132
30
14
7
70
155
90
124
127
136
173
214
129
195
192
184
205
105
169
57
13
84
110
29
190
221
166
199
167
220
4
185
54
9
134
196
138
28
25
149
75
181
144
107
36
96
50
223
158
69
197
103
179
117
72
201
46
152
126
119
125
118
10
44
38
176
109
11
27
112
217
218
95
82
219
183
53
216
208
88
161
64
165
171
191
200
63
130
24
160
61
182
1
65
142
121
133
106
140
226
153
77
23
32
2
83
100
37
163
41
111
188
80
123
86
113
210
68
12
116
99
139
8
209
204
22
51
102
141
154
164
33
39
66
98
67
43
122
150
162
73
189
147
58
146
222
93
193
16
5
194
94
211
42
225
212
180
17
213
31
34
157
170
26
89
18
21
76
85
187
159
20
40
47
15
131
74
114
56

> <PUBCHEM_MMFF94_PARTIAL_CHARGES>
49
1 -0.56
10 -0.53
11 -0.53
12 -0.53
13 0.28
14 0.28
15 0.28
16 0.56
17 0.28
18 0.28
19 0.28
2 -0.56
21 0.42
22 0.06
23 -0.14
24 0.42
25 -0.15
26 -0.15
27 0.09
28 0.08
29 -0.15
3 -0.68
30 0.08
31 -0.15
32 -0.15
33 0.08
34 -0.15
35 0.08
4 -0.68
47 0.4
48 0.4
49 0.4
5 -0.68
52 0.4
53 0.4
54 0.15
55 0.15
56 0.15
57 0.15
58 0.15
59 0.15
6 -0.68
60 0.45
61 0.45
62 0.45
63 0.45
7 -0.68
8 -0.57
9 -0.53

> <PUBCHEM_EFFECTIVE_ROTOR_COUNT>
10.2

> <PUBCHEM_PHARMACOPHORE_FEATURES>
20
1 1 acceptor
1 10 donor
1 11 donor
1 12 donor
1 2 acceptor
1 3 acceptor
1 3 donor
1 4 acceptor
1 4 donor
1 5 acceptor
1 5 donor
1 6 acceptor
1 6 donor
1 7 acceptor
1 7 donor
1 8 acceptor
1 9 donor
6 1 13 14 15 16 17 rings
6 23 25 26 28 29 30 rings
6 27 31 32 33 34 35 rings

> <PUBCHEM_HEAVY_ATOM_COUNT>
35

> <PUBCHEM_ATOM_DEF_STEREO_COUNT>
7

> <PUBCHEM_ATOM_UDEF_STEREO_COUNT>
0

> <PUBCHEM_BOND_DEF_STEREO_COUNT>
0

> <PUBCHEM_BOND_UDEF_STEREO_COUNT>
0

> <PUBCHEM_ISOTOPIC_ATOM_COUNT>
0

> <PUBCHEM_COMPONENT_COUNT>
1

> <PUBCHEM_CACTVS_TAUTO_COUNT>
240

> <PUBCHEM_CONFORMER_ID>
060F46FF00000006

> <PUBCHEM_MMFF94_ENERGY>
96.9817

> <PUBCHEM_FEATURE_SELFOVERLAP>
101.581

> <PUBCHEM_SHAPE_FINGERPRINT>
10675989 125 18199466735355775792
12128747 34 18187362087369958045
12522641 24 18410296913091166953
131258 43 17907034889373255318
13782708 43 18040714724047287759
140371 6 17549816686062972116
14114211 68 18115043982406995158
14950920 106 18341062848271881091
14955137 171 18270401577254570062
15328829 1 17561090202209983665
15927050 60 18196087970250899438
16112460 7 18342452673487169695
16114785 44 17475232878134021592
17913733 40 18339363079908151659
21033648 29 18050843626451278104
21049683 271 18260556589015001068
2132832 1 18058736793193937033
21344244 78 17988637442128420115
21796203 349 18340497663944195259
21927370 108 18123466077929962890
22033318 11 17915202143126409033
22122407 14 18201732726221019969
23559900 14 17676490519567886951
249999 5 18409445920765857112
283562 15 17332223798803746727
3178227 256 18337954592686747240
3411729 13 18412266168012098550
3552219 110 18117852001733891470
376196 1 17270314641635573364
394071 54 18201993314091157826
437795 51 18333739017824134726
5104073 3 18335990758093573649
5265222 85 17827933037699311156
5385378 56 18339922713894048032
6703917 75 17686907523982853220

> <PUBCHEM_SHAPE_MULTIPOLES>
649.85
16.36
5.89
1.8
32.27
2.46
-0.01
-2.98
-4.92
-14.26
-2.69
1.69
-0.63
0.73

> <PUBCHEM_SHAPE_SELFOVERLAP>
1378.626

> <PUBCHEM_SHAPE_VOLUME>
358.8

> <PUBCHEM_COORDINATE_TYPE>
2
5
10

$$$$
