101618893
  -OEChem-08262011233D

 84 88  0     1  0  0  0  0  0999 V2000
   -1.8511    2.0283   -1.7708 O   0  0  0  0  0  0  0  0  0  0  0  0
    3.0311   -2.1127    0.5550 O   0  0  0  0  0  0  0  0  0  0  0  0
   -7.9032    0.8840    0.7280 O   0  0  0  0  0  0  0  0  0  0  0  0
    7.3122   -0.2860   -1.1692 O   0  0  0  0  0  0  0  0  0  0  0  0
   -2.1636    0.4519    0.0324 C   0  0  1  0  0  0  0  0  0  0  0  0
   -3.7211    0.5534    0.0843 C   0  0  2  0  0  0  0  0  0  0  0  0
   -2.9143    0.6287    1.3482 C   0  0  0  0  0  0  0  0  0  0  0  0
   -1.5065   -0.9486   -0.1068 C   0  0  2  0  0  0  0  0  0  0  0  0
   -4.5583   -0.6894   -0.2608 C   0  0  1  0  0  0  0  0  0  0  0  0
   -0.0855   -0.9021   -0.7231 C   0  0  1  0  0  0  0  0  0  0  0  0
   -1.3724    1.6784   -0.4671 C   0  0  1  0  0  0  0  0  0  0  0  0
    0.7342    0.2468   -0.0489 C   0  0  2  0  0  0  0  0  0  0  0  0
   -4.4339    1.8337   -0.3204 C   0  0  0  0  0  0  0  0  0  0  0  0
   -2.4474   -1.9483   -0.7916 C   0  0  0  0  0  0  0  0  0  0  0  0
    0.1680    1.5829   -0.5315 C   0  0  0  0  0  0  0  0  0  0  0  0
   -3.7906   -2.0068   -0.0694 C   0  0  0  0  0  0  0  0  0  0  0  0
   -5.9783   -0.6463    0.4170 C   0  0  0  0  0  0  0  0  0  0  0  0
    2.1810   -0.0644   -0.5356 C   0  0  2  0  0  0  0  0  0  0  0  0
    0.7991   -2.1236   -0.3918 C   0  0  0  0  0  0  0  0  0  0  0  0
   -5.7982    1.9268    0.3498 C   0  0  0  0  0  0  0  0  0  0  0  0
   -6.6657    0.7060    0.0410 C   0  0  2  0  0  0  0  0  0  0  0  0
    2.2510   -1.6150   -0.5211 C   0  0  2  0  0  0  0  0  0  0  0  0
   -0.1694   -0.8162   -2.2781 C   0  0  0  0  0  0  0  0  0  0  0  0
    0.7064    0.2416    1.5086 C   0  0  0  0  0  0  0  0  0  0  0  0
    3.3210    0.6401    0.1935 C   0  0  1  0  0  0  0  0  0  0  0  0
   -5.9098   -0.8173    1.9503 C   0  0  0  0  0  0  0  0  0  0  0  0
   -6.8547   -1.8035   -0.1231 C   0  0  0  0  0  0  0  0  0  0  0  0
    4.7012    0.3030   -0.4030 C   0  0  0  0  0  0  0  0  0  0  0  0
    3.1011    2.1556    0.1616 C   0  0  0  0  0  0  0  0  0  0  0  0
    5.8578    0.5465    0.5678 C   0  0  0  0  0  0  0  0  0  0  0  0
    7.2074    0.1741   -0.0323 C   0  0  0  0  0  0  0  0  0  0  0  0
    8.4241    0.3640    0.8722 C   0  0  0  0  0  0  0  0  0  0  0  0
    9.6578    0.7396    0.0557 C   0  0  0  0  0  0  0  0  0  0  0  0
    8.6708   -0.9050    1.6791 C   0  0  0  0  0  0  0  0  0  0  0  0
   -2.8404    1.5813    1.8633 H   0  0  0  0  0  0  0  0  0  0  0  0
   -2.9589   -0.1989    2.0472 H   0  0  0  0  0  0  0  0  0  0  0  0
   -1.3788   -1.3348    0.9149 H   0  0  0  0  0  0  0  0  0  0  0  0
   -4.7380   -0.6159   -1.3454 H   0  0  0  0  0  0  0  0  0  0  0  0
   -1.6122    2.5349    0.1751 H   0  0  0  0  0  0  0  0  0  0  0  0
   -4.5551    1.8511   -1.4103 H   0  0  0  0  0  0  0  0  0  0  0  0
   -3.8610    2.7265   -0.0486 H   0  0  0  0  0  0  0  0  0  0  0  0
   -1.9951   -2.9469   -0.7856 H   0  0  0  0  0  0  0  0  0  0  0  0
   -2.6263   -1.6767   -1.8381 H   0  0  0  0  0  0  0  0  0  0  0  0
    0.5414    2.4146    0.0711 H   0  0  0  0  0  0  0  0  0  0  0  0
    0.5112    1.7951   -1.5524 H   0  0  0  0  0  0  0  0  0  0  0  0
   -4.3631   -2.8401   -0.4903 H   0  0  0  0  0  0  0  0  0  0  0  0
   -3.6294   -2.2329    0.9897 H   0  0  0  0  0  0  0  0  0  0  0  0
    2.2544    0.2458   -1.5869 H   0  0  0  0  0  0  0  0  0  0  0  0
    0.6224   -2.9677   -1.0681 H   0  0  0  0  0  0  0  0  0  0  0  0
    0.6073   -2.5001    0.6203 H   0  0  0  0  0  0  0  0  0  0  0  0
   -5.6835    2.0452    1.4343 H   0  0  0  0  0  0  0  0  0  0  0  0
   -6.3098    2.8366    0.0114 H   0  0  0  0  0  0  0  0  0  0  0  0
    2.7017   -1.9719   -1.4545 H   0  0  0  0  0  0  0  0  0  0  0  0
   -6.8942    0.7001   -1.0329 H   0  0  0  0  0  0  0  0  0  0  0  0
    0.7958   -0.6343   -2.7568 H   0  0  0  0  0  0  0  0  0  0  0  0
   -0.8495   -0.0347   -2.6200 H   0  0  0  0  0  0  0  0  0  0  0  0
   -0.5341   -1.7595   -2.7018 H   0  0  0  0  0  0  0  0  0  0  0  0
    1.1057   -0.6874    1.9269 H   0  0  0  0  0  0  0  0  0  0  0  0
   -0.2985    0.3617    1.9161 H   0  0  0  0  0  0  0  0  0  0  0  0
    1.2828    1.0595    1.9458 H   0  0  0  0  0  0  0  0  0  0  0  0
    3.3390    0.3269    1.2445 H   0  0  0  0  0  0  0  0  0  0  0  0
   -1.4472    2.8792   -2.0129 H   0  0  0  0  0  0  0  0  0  0  0  0
   -7.8860   -1.7230    0.2389 H   0  0  0  0  0  0  0  0  0  0  0  0
   -5.4357   -1.7632    2.2306 H   0  0  0  0  0  0  0  0  0  0  0  0
   -5.3553   -0.0106    2.4355 H   0  0  0  0  0  0  0  0  0  0  0  0
   -6.9129   -0.8268    2.3924 H   0  0  0  0  0  0  0  0  0  0  0  0
   -6.8880   -1.7950   -1.2182 H   0  0  0  0  0  0  0  0  0  0  0  0
   -6.4820   -2.7819    0.1970 H   0  0  0  0  0  0  0  0  0  0  0  0
    3.0003   -3.0837    0.5133 H   0  0  0  0  0  0  0  0  0  0  0  0
   -8.3059    1.7076    0.4038 H   0  0  0  0  0  0  0  0  0  0  0  0
    4.8593    0.8832   -1.3219 H   0  0  0  0  0  0  0  0  0  0  0  0
    4.7436   -0.7470   -0.7124 H   0  0  0  0  0  0  0  0  0  0  0  0
    2.7988    2.5064   -0.8305 H   0  0  0  0  0  0  0  0  0  0  0  0
    4.0256    2.6903    0.4054 H   0  0  0  0  0  0  0  0  0  0  0  0
    2.3868    2.4974    0.9103 H   0  0  0  0  0  0  0  0  0  0  0  0
    5.7139   -0.0550    1.4717 H   0  0  0  0  0  0  0  0  0  0  0  0
    5.9061    1.6013    0.8545 H   0  0  0  0  0  0  0  0  0  0  0  0
    8.2087    1.1940    1.5557 H   0  0  0  0  0  0  0  0  0  0  0  0
    8.8691   -1.7603    1.0235 H   0  0  0  0  0  0  0  0  0  0  0  0
    7.7979   -1.1572    2.2904 H   0  0  0  0  0  0  0  0  0  0  0  0
    9.5276   -0.7818    2.3495 H   0  0  0  0  0  0  0  0  0  0  0  0
    9.9478   -0.0655   -0.6286 H   0  0  0  0  0  0  0  0  0  0  0  0
   10.5090    0.9494    0.7117 H   0  0  0  0  0  0  0  0  0  0  0  0
    9.4659    1.6332   -0.5481 H   0  0  0  0  0  0  0  0  0  0  0  0
  1 11  1  0  0  0  0
  1 62  1  0  0  0  0
  2 22  1  0  0  0  0
  2 69  1  0  0  0  0
  3 21  1  0  0  0  0
  3 70  1  0  0  0  0
  4 31  2  0  0  0  0
  5  6  1  0  0  0  0
  5  7  1  0  0  0  0
  5  8  1  0  0  0  0
  5 11  1  0  0  0  0
  6  7  1  0  0  0  0
  6  9  1  0  0  0  0
  6 13  1  0  0  0  0
  7 35  1  0  0  0  0
  7 36  1  0  0  0  0
  8 10  1  0  0  0  0
  8 14  1  0  0  0  0
  8 37  1  0  0  0  0
  9 16  1  0  0  0  0
  9 17  1  0  0  0  0
  9 38  1  0  0  0  0
 10 12  1  0  0  0  0
 10 19  1  0  0  0  0
 10 23  1  0  0  0  0
 11 15  1  0  0  0  0
 11 39  1  0  0  0  0
 12 15  1  0  0  0  0
 12 18  1  0  0  0  0
 12 24  1  0  0  0  0
 13 20  1  0  0  0  0
 13 40  1  0  0  0  0
 13 41  1  0  0  0  0
 14 16  1  0  0  0  0
 14 42  1  0  0  0  0
 14 43  1  0  0  0  0
 15 44  1  0  0  0  0
 15 45  1  0  0  0  0
 16 46  1  0  0  0  0
 16 47  1  0  0  0  0
 17 21  1  0  0  0  0
 17 26  1  0  0  0  0
 17 27  1  0  0  0  0
 18 22  1  0  0  0  0
 18 25  1  0  0  0  0
 18 48  1  0  0  0  0
 19 22  1  0  0  0  0
 19 49  1  0  0  0  0
 19 50  1  0  0  0  0
 20 21  1  0  0  0  0
 20 51  1  0  0  0  0
 20 52  1  0  0  0  0
 21 54  1  0  0  0  0
 22 53  1  0  0  0  0
 23 55  1  0  0  0  0
 23 56  1  0  0  0  0
 23 57  1  0  0  0  0
 24 58  1  0  0  0  0
 24 59  1  0  0  0  0
 24 60  1  0  0  0  0
 25 28  1  0  0  0  0
 25 29  1  0  0  0  0
 25 61  1  0  0  0  0
 26 64  1  0  0  0  0
 26 65  1  0  0  0  0
 26 66  1  0  0  0  0
 27 63  1  0  0  0  0
 27 67  1  0  0  0  0
 27 68  1  0  0  0  0
 28 30  1  0  0  0  0
 28 71  1  0  0  0  0
 28 72  1  0  0  0  0
 29 73  1  0  0  0  0
 29 74  1  0  0  0  0
 29 75  1  0  0  0  0
 30 31  1  0  0  0  0
 30 76  1  0  0  0  0
 30 77  1  0  0  0  0
 31 32  1  0  0  0  0
 32 33  1  0  0  0  0
 32 34  1  0  0  0  0
 32 78  1  0  0  0  0
 33 82  1  0  0  0  0
 33 83  1  0  0  0  0
 33 84  1  0  0  0  0
 34 79  1  0  0  0  0
 34 80  1  0  0  0  0
 34 81  1  0  0  0  0
M  END
> <PUBCHEM_COMPOUND_CID>
101618893

> <PUBCHEM_CONFORMER_RMSD>
1

> <PUBCHEM_CONFORMER_DIVERSEORDER>
1
8
15
13
6
10
7
14
9
4
5
12
2
3
11

> <PUBCHEM_MMFF94_PARTIAL_CHARGES>
21
1 -0.68
11 0.38
13 0.09
2 -0.68
21 0.28
22 0.28
3 -0.68
30 0.06
31 0.45
32 0.06
35 0.1
36 0.1
4 -0.57
5 -0.19
6 -0.19
62 0.4
69 0.4
7 -0.2
70 0.4
8 0.09
9 0.09

> <PUBCHEM_EFFECTIVE_ROTOR_COUNT>
7.4

> <PUBCHEM_PHARMACOPHORE_FEATURES>
14
1 1 acceptor
1 1 donor
1 2 acceptor
1 2 donor
1 29 hydrophobe
1 3 acceptor
1 3 donor
1 4 acceptor
3 17 26 27 hydrophobe
3 32 33 34 hydrophobe
5 10 12 18 19 22 rings
6 5 8 10 11 12 15 rings
6 6 9 13 17 20 21 rings
7 5 6 7 8 9 14 16 rings

> <PUBCHEM_HEAVY_ATOM_COUNT>
34

> <PUBCHEM_ATOM_DEF_STEREO_COUNT>
11

> <PUBCHEM_ATOM_UDEF_STEREO_COUNT>
0

> <PUBCHEM_BOND_DEF_STEREO_COUNT>
0

> <PUBCHEM_BOND_UDEF_STEREO_COUNT>
0

> <PUBCHEM_ISOTOPIC_ATOM_COUNT>
0

> <PUBCHEM_COMPONENT_COUNT>
1

> <PUBCHEM_CACTVS_TAUTO_COUNT>
3

> <PUBCHEM_CONFORMER_ID>
060E94CD00000001

> <PUBCHEM_MMFF94_ENERGY>
137.7666

> <PUBCHEM_FEATURE_SELFOVERLAP>
71.149

> <PUBCHEM_SHAPE_FINGERPRINT>
10 15 18408322186023503368
10050765 1 18121780522261635240
10165383 225 18273495662919361865
10290309 65 18266172838174867614
10299344 5 17967249802470088936
11135609 187 12103574069032045213
11135926 11 18408595955207133671
11315181 36 16988846085974098619
11578080 2 16879609498058598277
12104220 1 17775010076598911609
12107698 1 17821446863824746156
12133447 93 18199202710783476212
12236239 1 17603589655444752477
12741549 16 16008752412297199493
12838862 33 18342443829526339125
13811026 1 18410293639756459552
14251764 18 18260265257462859290
15131766 46 17099198721152749780
15183329 4 10952051156770316454
15461852 350 16845566565211002716
15510794 2 18060142034127518798
15849732 13 18273496780360133668
18608769 82 18411697703837354188
18681886 176 18202277039239945576
19611394 137 18042699475525844889
21267235 1 18410016576017188543
21756936 100 16630529527095269361
22224240 67 18408602570025883722
23559900 14 18202279221742929273
23576562 1 13254213035128962888
249057 3 18342175587465362116
3178227 256 18411422821698974008
335352 9 18341611542268783492
350125 39 18413106151861390236
4073 2 18115312297024005986
4093350 32 16773801351525359238
4325135 7 18409730664033195492
4339292 15 17917140719850084607
5104073 3 18336553707788298923
57527306 92 16343984697567932568
59755656 215 18341616997193701966
59755656 520 17313383460824162506
6081469 158 17458339749503844382

> <PUBCHEM_SHAPE_MULTIPOLES>
676.23
23.72
2.12
1.33
39.57
0.15
-0.02
-1.8
-7.78
-1.9
0.32
0.08
0.12
-0.1

> <PUBCHEM_SHAPE_SELFOVERLAP>
1425.509

> <PUBCHEM_SHAPE_VOLUME>
378.5

> <PUBCHEM_COORDINATE_TYPE>
2
5
10

$$$$
