101664512
  -OEChem-08262011273D

 66 68  0     1  0  0  0  0  0999 V2000
    2.5879    0.3527   -0.7424 O   0  0  0  0  0  0  0  0  0  0  0  0
    1.7479    0.3479    1.4344 O   0  0  0  0  0  0  0  0  0  0  0  0
    5.8545    2.5721    0.3846 O   0  0  0  0  0  0  0  0  0  0  0  0
    3.4363    2.5288    2.0673 O   0  0  0  0  0  0  0  0  0  0  0  0
    5.1460    2.3739   -2.4109 O   0  0  0  0  0  0  0  0  0  0  0  0
   -0.0723   -1.1043    3.1757 O   0  0  0  0  0  0  0  0  0  0  0  0
    1.9312   -0.2118   -3.3511 O   0  0  0  0  0  0  0  0  0  0  0  0
   -1.3359    2.6779   -0.2264 O   0  0  0  0  0  0  0  0  0  0  0  0
   -0.7469   -4.1160   -1.9051 O   0  0  0  0  0  0  0  0  0  0  0  0
    1.5031   -5.4915   -1.0274 O   0  0  0  0  0  0  0  0  0  0  0  0
   -5.0759    0.5597   -2.9706 O   0  0  0  0  0  0  0  0  0  0  0  0
   -7.1898    0.4390   -1.1692 O   0  0  0  0  0  0  0  0  0  0  0  0
    4.5196    2.3734   -0.0835 C   0  0  2  0  0  0  0  0  0  0  0  0
    3.7096    1.6391    0.9851 C   0  0  2  0  0  0  0  0  0  0  0  0
    4.5883    1.5646   -1.3789 C   0  0  1  0  0  0  0  0  0  0  0  0
    2.3768    1.1399    0.4273 C   0  0  1  0  0  0  0  0  0  0  0  0
    3.1938    1.0962   -1.8013 C   0  0  1  0  0  0  0  0  0  0  0  0
    0.3339    0.4186    1.3382 C   0  0  1  0  0  0  0  0  0  0  0  0
    3.2498    0.1891   -3.0265 C   0  0  0  0  0  0  0  0  0  0  0  0
   -0.3063   -0.9141    1.7782 C   0  0  1  0  0  0  0  0  0  0  0  0
   -0.1632    1.6228    2.1475 C   0  0  0  0  0  0  0  0  0  0  0  0
   -1.6763    1.8270    2.0035 C   0  0  0  0  0  0  0  0  0  0  0  0
    0.1741   -2.1372    1.0271 C   0  0  0  0  0  0  0  0  0  0  0  0
   -2.0824    2.1046    0.5635 C   0  0  0  0  0  0  0  0  0  0  0  0
   -0.5125   -2.5742   -0.1058 C   0  0  0  0  0  0  0  0  0  0  0  0
    1.3038   -2.8268    1.4672 C   0  0  0  0  0  0  0  0  0  0  0  0
   -1.0768   -1.9183    3.7584 C   0  0  0  0  0  0  0  0  0  0  0  0
   -0.0692   -3.7006   -0.7988 C   0  0  0  0  0  0  0  0  0  0  0  0
   -3.4317    1.6636    0.1020 C   0  0  0  0  0  0  0  0  0  0  0  0
    1.7469   -3.9535    0.7744 C   0  0  0  0  0  0  0  0  0  0  0  0
    1.0605   -4.3904   -0.3587 C   0  0  0  0  0  0  0  0  0  0  0  0
   -3.6320    1.3125   -1.2330 C   0  0  0  0  0  0  0  0  0  0  0  0
   -4.4925    1.6031    1.0057 C   0  0  0  0  0  0  0  0  0  0  0  0
   -4.8929    0.9006   -1.6643 C   0  0  0  0  0  0  0  0  0  0  0  0
   -5.7536    1.1916    0.5743 C   0  0  0  0  0  0  0  0  0  0  0  0
   -5.9538    0.8403   -0.7606 C   0  0  0  0  0  0  0  0  0  0  0  0
    4.1091    3.3731   -0.2682 H   0  0  0  0  0  0  0  0  0  0  0  0
    4.2879    0.8049    1.3998 H   0  0  0  0  0  0  0  0  0  0  0  0
    5.2550    0.7045   -1.2414 H   0  0  0  0  0  0  0  0  0  0  0  0
    1.7489    2.0043    0.1712 H   0  0  0  0  0  0  0  0  0  0  0  0
    2.5466    1.9506   -2.0422 H   0  0  0  0  0  0  0  0  0  0  0  0
    0.0657    0.5412    0.2800 H   0  0  0  0  0  0  0  0  0  0  0  0
    3.8305   -0.7152   -2.8159 H   0  0  0  0  0  0  0  0  0  0  0  0
    3.6827    0.7048   -3.8890 H   0  0  0  0  0  0  0  0  0  0  0  0
   -1.3889   -0.8390    1.6136 H   0  0  0  0  0  0  0  0  0  0  0  0
    0.3594    2.5341    1.8337 H   0  0  0  0  0  0  0  0  0  0  0  0
    0.0923    1.4978    3.2069 H   0  0  0  0  0  0  0  0  0  0  0  0
    6.2412    1.7005    0.5749 H   0  0  0  0  0  0  0  0  0  0  0  0
    2.9210    3.2768    1.7201 H   0  0  0  0  0  0  0  0  0  0  0  0
    4.5544    3.1330   -2.5501 H   0  0  0  0  0  0  0  0  0  0  0  0
   -1.9721    2.7008    2.5963 H   0  0  0  0  0  0  0  0  0  0  0  0
   -2.2167    0.9661    2.4048 H   0  0  0  0  0  0  0  0  0  0  0  0
    1.9909   -0.7933   -4.1282 H   0  0  0  0  0  0  0  0  0  0  0  0
   -1.3910   -2.0335   -0.4501 H   0  0  0  0  0  0  0  0  0  0  0  0
    1.8619   -2.4997    2.3402 H   0  0  0  0  0  0  0  0  0  0  0  0
   -0.8376   -2.0439    4.8182 H   0  0  0  0  0  0  0  0  0  0  0  0
   -1.1157   -2.9110    3.3005 H   0  0  0  0  0  0  0  0  0  0  0  0
   -2.0558   -1.4333    3.6886 H   0  0  0  0  0  0  0  0  0  0  0  0
    2.6301   -4.4799    1.1265 H   0  0  0  0  0  0  0  0  0  0  0  0
   -2.8062    1.3532   -1.9394 H   0  0  0  0  0  0  0  0  0  0  0  0
   -4.3699    1.8865    2.0472 H   0  0  0  0  0  0  0  0  0  0  0  0
   -1.4988   -3.5186   -2.0594 H   0  0  0  0  0  0  0  0  0  0  0  0
   -6.5722    1.1524    1.2880 H   0  0  0  0  0  0  0  0  0  0  0  0
    2.2945   -5.8369   -0.5798 H   0  0  0  0  0  0  0  0  0  0  0  0
   -4.2337    0.6618   -3.4462 H   0  0  0  0  0  0  0  0  0  0  0  0
   -7.7966    0.4589   -0.4094 H   0  0  0  0  0  0  0  0  0  0  0  0
  1 16  1  0  0  0  0
  1 17  1  0  0  0  0
  2 16  1  0  0  0  0
  2 18  1  0  0  0  0
  3 13  1  0  0  0  0
  3 48  1  0  0  0  0
  4 14  1  0  0  0  0
  4 49  1  0  0  0  0
  5 15  1  0  0  0  0
  5 50  1  0  0  0  0
  6 20  1  0  0  0  0
  6 27  1  0  0  0  0
  7 19  1  0  0  0  0
  7 53  1  0  0  0  0
  8 24  2  0  0  0  0
  9 28  1  0  0  0  0
  9 62  1  0  0  0  0
 10 31  1  0  0  0  0
 10 64  1  0  0  0  0
 11 34  1  0  0  0  0
 11 65  1  0  0  0  0
 12 36  1  0  0  0  0
 12 66  1  0  0  0  0
 13 14  1  0  0  0  0
 13 15  1  0  0  0  0
 13 37  1  0  0  0  0
 14 16  1  0  0  0  0
 14 38  1  0  0  0  0
 15 17  1  0  0  0  0
 15 39  1  0  0  0  0
 16 40  1  0  0  0  0
 17 19  1  0  0  0  0
 17 41  1  0  0  0  0
 18 20  1  0  0  0  0
 18 21  1  0  0  0  0
 18 42  1  0  0  0  0
 19 43  1  0  0  0  0
 19 44  1  0  0  0  0
 20 23  1  0  0  0  0
 20 45  1  0  0  0  0
 21 22  1  0  0  0  0
 21 46  1  0  0  0  0
 21 47  1  0  0  0  0
 22 24  1  0  0  0  0
 22 51  1  0  0  0  0
 22 52  1  0  0  0  0
 23 25  2  0  0  0  0
 23 26  1  0  0  0  0
 24 29  1  0  0  0  0
 25 28  1  0  0  0  0
 25 54  1  0  0  0  0
 26 30  2  0  0  0  0
 26 55  1  0  0  0  0
 27 56  1  0  0  0  0
 27 57  1  0  0  0  0
 27 58  1  0  0  0  0
 28 31  2  0  0  0  0
 29 32  2  0  0  0  0
 29 33  1  0  0  0  0
 30 31  1  0  0  0  0
 30 59  1  0  0  0  0
 32 34  1  0  0  0  0
 32 60  1  0  0  0  0
 33 35  2  0  0  0  0
 33 61  1  0  0  0  0
 34 36  2  0  0  0  0
 35 36  1  0  0  0  0
 35 63  1  0  0  0  0
M  END
> <PUBCHEM_COMPOUND_CID>
101664512

> <PUBCHEM_CONFORMER_RMSD>
1.2

> <PUBCHEM_CONFORMER_DIVERSEORDER>
1
2
181
82
10
81
201
153
38
74
100
146
23
123
108
214
5
192
15
160
180
104
154
185
170
37
177
7
17
98
158
164
137
95
33
211
31
124
54
76
162
9
210
122
27
168
111
16
186
174
144
3
93
96
195
20
216
78
142
87
135
189
53
155
173
28
188
176
92
70
61
220
169
205
83
200
150
4
105
190
71
62
161
143
187
171
42
39
56
73
152
204
69
13
148
12
88
32
120
116
47
119
131
157
102
101
217
64
90
138
89
51
199
167
50
172
63
66
136
207
130
165
59
115
114
218
198
197
11
179
175
125
26
65
156
182
139
79
213
117
40
141
18
85
191
166
14
43
67
84
133
34
97
215
151
112
208
45
129
41
110
121
58
29
212
35
19
86
193
113
22
149
6
221
94
178
145
206
126
106
25
60
52
134
183
75
24
184
202
132
77
55
203
80
159
140
118
194
147
128
8
44
127
107
57
209
72
48
99
21
46
49
103
219
109
196
163
68
222
91
36
30

> <PUBCHEM_MMFF94_PARTIAL_CHARGES>
49
1 -0.56
10 -0.53
11 -0.53
12 -0.53
13 0.28
14 0.28
15 0.28
16 0.56
17 0.28
18 0.28
19 0.28
2 -0.56
20 0.42
22 0.06
23 -0.14
24 0.42
25 -0.15
26 -0.15
27 0.28
28 0.08
29 0.09
3 -0.68
30 -0.15
31 0.08
32 -0.15
33 -0.15
34 0.08
35 -0.15
36 0.08
4 -0.68
48 0.4
49 0.4
5 -0.68
50 0.4
53 0.4
54 0.15
55 0.15
59 0.15
6 -0.56
60 0.15
61 0.15
62 0.45
63 0.15
64 0.45
65 0.45
66 0.45
7 -0.68
8 -0.57
9 -0.53

> <PUBCHEM_EFFECTIVE_ROTOR_COUNT>
11.2

> <PUBCHEM_PHARMACOPHORE_FEATURES>
19
1 1 acceptor
1 10 donor
1 11 donor
1 12 donor
1 2 acceptor
1 3 acceptor
1 3 donor
1 4 acceptor
1 4 donor
1 5 acceptor
1 5 donor
1 6 acceptor
1 7 acceptor
1 7 donor
1 8 acceptor
1 9 donor
6 1 13 14 15 16 17 rings
6 23 25 26 28 30 31 rings
6 29 32 33 34 35 36 rings

> <PUBCHEM_HEAVY_ATOM_COUNT>
36

> <PUBCHEM_ATOM_DEF_STEREO_COUNT>
7

> <PUBCHEM_ATOM_UDEF_STEREO_COUNT>
0

> <PUBCHEM_BOND_DEF_STEREO_COUNT>
0

> <PUBCHEM_BOND_UDEF_STEREO_COUNT>
0

> <PUBCHEM_ISOTOPIC_ATOM_COUNT>
0

> <PUBCHEM_COMPONENT_COUNT>
1

> <PUBCHEM_CACTVS_TAUTO_COUNT>
240

> <PUBCHEM_CONFORMER_ID>
060F470000000001

> <PUBCHEM_MMFF94_ENERGY>
103.4291

> <PUBCHEM_FEATURE_SELFOVERLAP>
96.505

> <PUBCHEM_SHAPE_FINGERPRINT>
10721379 63 18055081964523332827
10764073 3 13913419643403637112
11477941 20 16827026273979981782
11488393 25 18266470814748050947
12608794 3 16881276465625089344
12788726 201 17685501244321014166
13383661 66 17557709359217830911
133893 2 17826530867545558352
13911987 19 18261405484801281509
15484559 13 17967807250122530701
161222 10 18269548506781735045
16993438 75 17628911532839226956
18603816 31 14616343964835744612
20764821 26 18200009787005133783
20775438 99 17700394052078894148
21344244 181 17988649630918636215
21344244 246 18268433417524210618
21716022 299 17843686552037849802
21927370 108 11383846922687815604
23559900 14 17836346165730633937
238 59 18119267085402868866
24893989 43 15303287953070997268
26353 1 17185325781325947968
44802255 64 17463172164102905070
46194498 28 18118672233081082925
5080951 261 17842570806098197090
6669772 16 18343863316787229846
6823239 73 15267048230196906261

> <PUBCHEM_SHAPE_MULTIPOLES>
670.43
11.46
5.48
3.32
12.62
9.13
-0.1
-12.63
-7.09
-5.28
-0.71
-0.43
0.37
-0.12

> <PUBCHEM_SHAPE_SELFOVERLAP>
1417.527

> <PUBCHEM_SHAPE_VOLUME>
372.1

> <PUBCHEM_COORDINATE_TYPE>
2
5
10

$$$$
