101990175
  -OEChem-08262011143D

 56 61  0     1  0  0  0  0  0999 V2000
   -2.4245    1.3894    0.2498 O   0  0  0  0  0  0  0  0  0  0  0  0
   -2.5478   -1.4855   -0.0547 O   0  0  0  0  0  0  0  0  0  0  0  0
   -4.8783   -1.3182   -0.1280 O   0  0  0  0  0  0  0  0  0  0  0  0
   -0.1126    1.2830    0.0086 O   0  0  0  0  0  0  0  0  0  0  0  0
   -4.7615    2.7502   -0.7358 O   0  0  0  0  0  0  0  0  0  0  0  0
   -7.1940    1.5175    0.2267 O   0  0  0  0  0  0  0  0  0  0  0  0
   -7.1343   -2.7493    0.4663 O   0  0  0  0  0  0  0  0  0  0  0  0
    3.7320   -4.9153   -0.0545 O   0  0  0  0  0  0  0  0  0  0  0  0
    6.0834   -3.4388   -0.0050 O   0  0  0  0  0  0  0  0  0  0  0  0
    3.2290    4.9240    0.1006 O   0  0  0  0  0  0  0  0  0  0  0  0
    5.7208    3.6977    0.0799 O   0  0  0  0  0  0  0  0  0  0  0  0
   -3.5702    0.7181   -0.2803 C   0  0  1  0  0  0  0  0  0  0  0  0
   -3.6764   -0.6852    0.3132 C   0  0  2  0  0  0  0  0  0  0  0  0
   -1.3849   -0.7328   -0.3983 C   0  0  1  0  0  0  0  0  0  0  0  0
   -4.8098    1.5522    0.0404 C   0  0  2  0  0  0  0  0  0  0  0  0
   -1.2716    0.5506    0.4113 C   0  0  2  0  0  0  0  0  0  0  0  0
   -6.0895    0.7833   -0.2945 C   0  0  1  0  0  0  0  0  0  0  0  0
   -6.0512   -0.6260    0.3058 C   0  0  1  0  0  0  0  0  0  0  0  0
   -0.1637   -1.6034   -0.1338 C   0  0  0  0  0  0  0  0  0  0  0  0
    1.1252   -0.8147   -0.0649 C   0  0  0  0  0  0  0  0  0  0  0  0
    1.0754    0.5870   -0.0004 C   0  0  0  0  0  0  0  0  0  0  0  0
   -7.2519   -1.4656   -0.1195 C   0  0  0  0  0  0  0  0  0  0  0  0
    2.3807   -1.4768   -0.0452 C   0  0  0  0  0  0  0  0  0  0  0  0
    2.2506    1.3676    0.0186 C   0  0  0  0  0  0  0  0  0  0  0  0
    3.5803   -0.7118   -0.0120 C   0  0  0  0  0  0  0  0  0  0  0  0
    3.5143    0.7250    0.0108 C   0  0  0  0  0  0  0  0  0  0  0  0
    2.4783   -2.8910   -0.0554 C   0  0  0  0  0  0  0  0  0  0  0  0
    2.1916    2.7820    0.0504 C   0  0  0  0  0  0  0  0  0  0  0  0
    4.8077   -1.4267   -0.0019 C   0  0  0  0  0  0  0  0  0  0  0  0
    4.6617    1.5633    0.0314 C   0  0  0  0  0  0  0  0  0  0  0  0
    3.7024   -3.5546   -0.0427 C   0  0  0  0  0  0  0  0  0  0  0  0
    4.8707   -2.8201   -0.0177 C   0  0  0  0  0  0  0  0  0  0  0  0
    3.3396    3.5680    0.0706 C   0  0  0  0  0  0  0  0  0  0  0  0
    4.5784    2.9566    0.0601 C   0  0  0  0  0  0  0  0  0  0  0  0
   -3.4457    0.6665   -1.3704 H   0  0  0  0  0  0  0  0  0  0  0  0
   -3.6770   -0.6455    1.4102 H   0  0  0  0  0  0  0  0  0  0  0  0
   -1.4306   -0.4990   -1.4706 H   0  0  0  0  0  0  0  0  0  0  0  0
   -4.8030    1.8678    1.0905 H   0  0  0  0  0  0  0  0  0  0  0  0
   -1.2018    0.3372    1.4863 H   0  0  0  0  0  0  0  0  0  0  0  0
   -6.2140    0.7325   -1.3830 H   0  0  0  0  0  0  0  0  0  0  0  0
   -6.0422   -0.5826    1.4035 H   0  0  0  0  0  0  0  0  0  0  0  0
   -0.1150   -2.3543   -0.9320 H   0  0  0  0  0  0  0  0  0  0  0  0
   -0.2950   -2.1448    0.8125 H   0  0  0  0  0  0  0  0  0  0  0  0
   -8.1924   -1.0124    0.2079 H   0  0  0  0  0  0  0  0  0  0  0  0
   -7.2715   -1.5953   -1.2067 H   0  0  0  0  0  0  0  0  0  0  0  0
   -4.7769    2.5024   -1.6760 H   0  0  0  0  0  0  0  0  0  0  0  0
   -7.1134    1.5339    1.1957 H   0  0  0  0  0  0  0  0  0  0  0  0
    1.5777   -3.5019   -0.0669 H   0  0  0  0  0  0  0  0  0  0  0  0
    1.2262    3.2866    0.0591 H   0  0  0  0  0  0  0  0  0  0  0  0
    5.7556   -0.8950    0.0219 H   0  0  0  0  0  0  0  0  0  0  0  0
    5.6596    1.1324    0.0248 H   0  0  0  0  0  0  0  0  0  0  0  0
   -7.9061   -3.2670    0.1804 H   0  0  0  0  0  0  0  0  0  0  0  0
    2.8208   -5.2546   -0.0724 H   0  0  0  0  0  0  0  0  0  0  0  0
    6.7858   -2.7664    0.0127 H   0  0  0  0  0  0  0  0  0  0  0  0
    2.2873    5.1673    0.1038 H   0  0  0  0  0  0  0  0  0  0  0  0
    6.4892    3.1017    0.0691 H   0  0  0  0  0  0  0  0  0  0  0  0
  1 12  1  0  0  0  0
  1 16  1  0  0  0  0
  2 13  1  0  0  0  0
  2 14  1  0  0  0  0
  3 13  1  0  0  0  0
  3 18  1  0  0  0  0
  4 16  1  0  0  0  0
  4 21  1  0  0  0  0
  5 15  1  0  0  0  0
  5 46  1  0  0  0  0
  6 17  1  0  0  0  0
  6 47  1  0  0  0  0
  7 22  1  0  0  0  0
  7 52  1  0  0  0  0
  8 31  1  0  0  0  0
  8 53  1  0  0  0  0
  9 32  1  0  0  0  0
  9 54  1  0  0  0  0
 10 33  1  0  0  0  0
 10 55  1  0  0  0  0
 11 34  1  0  0  0  0
 11 56  1  0  0  0  0
 12 13  1  0  0  0  0
 12 15  1  0  0  0  0
 12 35  1  0  0  0  0
 13 36  1  0  0  0  0
 14 16  1  0  0  0  0
 14 19  1  0  0  0  0
 14 37  1  0  0  0  0
 15 17  1  0  0  0  0
 15 38  1  0  0  0  0
 16 39  1  0  0  0  0
 17 18  1  0  0  0  0
 17 40  1  0  0  0  0
 18 22  1  0  0  0  0
 18 41  1  0  0  0  0
 19 20  1  0  0  0  0
 19 42  1  0  0  0  0
 19 43  1  0  0  0  0
 20 21  2  0  0  0  0
 20 23  1  0  0  0  0
 21 24  1  0  0  0  0
 22 44  1  0  0  0  0
 22 45  1  0  0  0  0
 23 25  1  0  0  0  0
 23 27  2  0  0  0  0
 24 26  1  0  0  0  0
 24 28  2  0  0  0  0
 25 26  1  0  0  0  0
 25 29  2  0  0  0  0
 26 30  2  0  0  0  0
 27 31  1  0  0  0  0
 27 48  1  0  0  0  0
 28 33  1  0  0  0  0
 28 49  1  0  0  0  0
 29 32  1  0  0  0  0
 29 50  1  0  0  0  0
 30 34  1  0  0  0  0
 30 51  1  0  0  0  0
 31 32  2  0  0  0  0
 33 34  2  0  0  0  0
M  END
> <PUBCHEM_COMPOUND_CID>
101990175

> <PUBCHEM_CONFORMER_RMSD>
0.8

> <PUBCHEM_CONFORMER_DIVERSEORDER>
1

> <PUBCHEM_MMFF94_PARTIAL_CHARGES>
41
1 -0.56
10 -0.53
11 -0.53
12 0.28
13 0.56
14 0.28
15 0.28
16 0.56
17 0.28
18 0.28
19 0.14
2 -0.56
20 -0.14
21 0.08
22 0.28
27 -0.15
28 -0.15
29 -0.15
3 -0.56
30 -0.15
31 0.08
32 0.08
33 0.08
34 0.08
4 -0.36
46 0.4
47 0.4
48 0.15
49 0.15
5 -0.68
50 0.15
51 0.15
52 0.4
53 0.45
54 0.45
55 0.45
56 0.45
6 -0.68
7 -0.68
8 -0.53
9 -0.53

> <PUBCHEM_EFFECTIVE_ROTOR_COUNT>
2.6

> <PUBCHEM_PHARMACOPHORE_FEATURES>
20
1 1 acceptor
1 10 donor
1 11 donor
1 2 acceptor
1 3 acceptor
1 4 acceptor
1 5 acceptor
1 5 donor
1 6 acceptor
1 6 donor
1 7 acceptor
1 7 donor
1 8 donor
1 9 donor
6 1 2 12 13 14 16 rings
6 20 21 23 24 25 26 rings
6 23 25 27 29 31 32 rings
6 24 26 28 30 33 34 rings
6 3 12 13 15 17 18 rings
6 4 14 16 19 20 21 rings

> <PUBCHEM_HEAVY_ATOM_COUNT>
34

> <PUBCHEM_ATOM_DEF_STEREO_COUNT>
7

> <PUBCHEM_ATOM_UDEF_STEREO_COUNT>
0

> <PUBCHEM_BOND_DEF_STEREO_COUNT>
0

> <PUBCHEM_BOND_UDEF_STEREO_COUNT>
0

> <PUBCHEM_ISOTOPIC_ATOM_COUNT>
0

> <PUBCHEM_COMPONENT_COUNT>
1

> <PUBCHEM_CACTVS_TAUTO_COUNT>
224

> <PUBCHEM_CONFORMER_ID>
06143F1F00000001

> <PUBCHEM_MMFF94_ENERGY>
125.5598

> <PUBCHEM_FEATURE_SELFOVERLAP>
101.764

> <PUBCHEM_SHAPE_FINGERPRINT>
10050765 1 18410573985942761401
10411042 1 18194965141825980174
10595046 47 18342175600956646041
10835480 77 18408598180844062045
11135926 11 18339348781983577468
11672396 167 18339916031579674135
11719270 70 18339355375185657568
11756154 67 18052824641867975998
11963148 33 18194394722508167423
12107183 9 18054236419018752129
12166972 35 18200872872712825849
12730499 353 18338521953360039176
12788726 201 17274834544969115897
12977781 61 17896339058404095162
13073987 5 18412267259651105785
13248334 5 18410575094334428656
13383668 362 18270945952028194370
13533116 47 18342175587391197403
1361 4 18339923848430585119
13782708 43 17822291232635362595
13785724 45 17983303629592021206
138480 1 18339079281913276976
14400156 413 18338786910494864741
14790565 3 17905891731949413652
15196674 1 18410855452123731181
15250474 111 18129084770946749015
15347591 1 18411419514990646865
15400415 2 18050848020435099088
15439362 3 18267588104115915420
15840311 113 18335141969587672933
15890870 6 18194685002373530748
15927050 60 18197216065344979142
16087824 20 17834677093504249812
16991971 28 18199477571832330382
16992752 21 17906459823543873030
17492 89 18411136905388410491
17844677 252 18411987927593887969
18681886 176 18340762638083868346
19302320 297 17982185422430847409
19319366 153 18128253587437362460
19427546 62 18193276519218577178
21033648 29 17240754065659291453
21049683 271 18334303042109730324
21130935 74 18412266151555169259
21133410 127 17968934318045136764
21267235 1 18341055103734111670
21315763 129 18338797814977907327
21315764 268 18408319973978520861
21344244 78 18200298949756228088
22149856 69 18338251461384786419
22311459 1 18122624113968365165
23559900 14 18338510825179013547
24771293 8 18129077049549975402
24771750 20 18335714887975052772
255183 451 18129389194371533174
3004659 81 18260830341408729042
3103668 31 17614566939135104492
335352 9 18339079268116057807
3411729 13 18335135436562321592
350125 39 18410575067483469725
4015057 19 18410567371519195257
4073 2 18188214307649992659
4144715 1 18260274040576203145
4516262 110 18267292321532374069
5104073 3 18408893932265139241
513532 50 18341908406604050108
5265222 85 17832998517907391148
5912855 24 18056470893029713719
59755656 215 18337677511461463516
6004065 56 18409446952244259010
6695519 79 17838074945231560314
6697151 62 17976229397189693278
9981440 41 18050001388059549912

> <PUBCHEM_SHAPE_MULTIPOLES>
635.14
17.61
5.42
0.63
28.65
0.44
0.01
-2.8
-0.39
-10.62
-0.02
0.15
0.02
0.59

> <PUBCHEM_SHAPE_SELFOVERLAP>
1429.671

> <PUBCHEM_SHAPE_VOLUME>
330.2

> <PUBCHEM_COORDINATE_TYPE>
2
5
10

$$$$
