101733178
  -OEChem-08262011303D

 56 59  0     1  0  0  0  0  0999 V2000
    2.6787    0.7676    0.9448 O   0  0  0  0  0  0  0  0  0  0  0  0
    1.0018    2.3899    0.9263 O   0  0  0  0  0  0  0  0  0  0  0  0
    5.3918    3.3674   -0.7127 O   0  0  0  0  0  0  0  0  0  0  0  0
    5.9157    0.5248   -0.7510 O   0  0  0  0  0  0  0  0  0  0  0  0
    2.5013    3.8869   -0.9494 O   0  0  0  0  0  0  0  0  0  0  0  0
    3.1281   -1.9228    1.2847 O   0  0  0  0  0  0  0  0  0  0  0  0
   -2.6467   -1.8597    2.0254 O   0  0  0  0  0  0  0  0  0  0  0  0
   -5.8947    3.0104   -1.1302 O   0  0  0  0  0  0  0  0  0  0  0  0
   -6.3084    0.3280   -0.5410 O   0  0  0  0  0  0  0  0  0  0  0  0
    0.5805   -3.1823   -2.7314 O   0  0  0  0  0  0  0  0  0  0  0  0
    1.2349   -5.5098   -1.3595 O   0  0  0  0  0  0  0  0  0  0  0  0
    4.3675    2.3721   -0.7353 C   0  0  1  0  0  0  0  0  0  0  0  0
    4.8849    1.1440    0.0139 C   0  0  1  0  0  0  0  0  0  0  0  0
    3.1031    2.9279   -0.0801 C   0  0  2  0  0  0  0  0  0  0  0  0
    3.7567    0.1372    0.2510 C   0  0  1  0  0  0  0  0  0  0  0  0
    2.0841    1.8209    0.1901 C   0  0  1  0  0  0  0  0  0  0  0  0
    4.2217   -1.0428    1.0985 C   0  0  0  0  0  0  0  0  0  0  0  0
   -0.2312    1.8295    0.7334 C   0  0  0  0  0  0  0  0  0  0  0  0
   -1.2807    2.6065    0.2423 C   0  0  0  0  0  0  0  0  0  0  0  0
   -0.4381    0.4851    1.0278 C   0  0  0  0  0  0  0  0  0  0  0  0
   -2.5526    2.0469    0.0392 C   0  0  0  0  0  0  0  0  0  0  0  0
   -1.6952   -0.0873    0.8322 C   0  0  0  0  0  0  0  0  0  0  0  0
   -2.7631    0.6798    0.3385 C   0  0  0  0  0  0  0  0  0  0  0  0
   -3.6204    2.8140   -0.4545 C   0  0  0  0  0  0  0  0  0  0  0  0
   -4.0350    0.1201    0.1355 C   0  0  0  0  0  0  0  0  0  0  0  0
   -1.8345   -1.5027    1.1635 C   0  0  0  0  0  0  0  0  0  0  0  0
   -4.8775    2.2415   -0.6502 C   0  0  0  0  0  0  0  0  0  0  0  0
   -5.0844    0.8971   -0.3557 C   0  0  0  0  0  0  0  0  0  0  0  0
   -1.0233   -2.5595    0.4938 C   0  0  0  0  0  0  0  0  0  0  0  0
   -0.5930   -2.3804   -0.8209 C   0  0  0  0  0  0  0  0  0  0  0  0
   -0.6950   -3.7274    1.1821 C   0  0  0  0  0  0  0  0  0  0  0  0
    0.1657   -3.3692   -1.4473 C   0  0  0  0  0  0  0  0  0  0  0  0
    0.0635   -4.7163    0.5555 C   0  0  0  0  0  0  0  0  0  0  0  0
    0.4939   -4.5372   -0.7591 C   0  0  0  0  0  0  0  0  0  0  0  0
    4.1913    2.1395   -1.7921 H   0  0  0  0  0  0  0  0  0  0  0  0
    5.3273    1.4540    0.9685 H   0  0  0  0  0  0  0  0  0  0  0  0
    3.3517    3.4552    0.8485 H   0  0  0  0  0  0  0  0  0  0  0  0
    3.3745   -0.2589   -0.6999 H   0  0  0  0  0  0  0  0  0  0  0  0
    1.7063    1.4228   -0.7635 H   0  0  0  0  0  0  0  0  0  0  0  0
    4.5512   -0.7071    2.0874 H   0  0  0  0  0  0  0  0  0  0  0  0
    5.0346   -1.5908    0.6126 H   0  0  0  0  0  0  0  0  0  0  0  0
    5.5591    3.6083    0.2145 H   0  0  0  0  0  0  0  0  0  0  0  0
    5.5299    0.2334   -1.5948 H   0  0  0  0  0  0  0  0  0  0  0  0
    2.2685    3.4373   -1.7796 H   0  0  0  0  0  0  0  0  0  0  0  0
    3.4451   -2.6648    1.8272 H   0  0  0  0  0  0  0  0  0  0  0  0
   -1.1014    3.6563    0.0167 H   0  0  0  0  0  0  0  0  0  0  0  0
    0.3704   -0.1161    1.4345 H   0  0  0  0  0  0  0  0  0  0  0  0
   -3.4669    3.8664   -0.6873 H   0  0  0  0  0  0  0  0  0  0  0  0
   -4.2301   -0.9294    0.3401 H   0  0  0  0  0  0  0  0  0  0  0  0
   -0.8524   -1.4806   -1.3731 H   0  0  0  0  0  0  0  0  0  0  0  0
   -1.0164   -3.8828    2.2086 H   0  0  0  0  0  0  0  0  0  0  0  0
   -5.5679    3.9146   -1.2767 H   0  0  0  0  0  0  0  0  0  0  0  0
   -6.2671   -0.6089   -0.2836 H   0  0  0  0  0  0  0  0  0  0  0  0
    0.3135   -5.6207    1.1038 H   0  0  0  0  0  0  0  0  0  0  0  0
    0.2634   -2.3181   -3.0453 H   0  0  0  0  0  0  0  0  0  0  0  0
    1.3636   -6.2424   -0.7327 H   0  0  0  0  0  0  0  0  0  0  0  0
  1 15  1  0  0  0  0
  1 16  1  0  0  0  0
  2 16  1  0  0  0  0
  2 18  1  0  0  0  0
  3 12  1  0  0  0  0
  3 42  1  0  0  0  0
  4 13  1  0  0  0  0
  4 43  1  0  0  0  0
  5 14  1  0  0  0  0
  5 44  1  0  0  0  0
  6 17  1  0  0  0  0
  6 45  1  0  0  0  0
  7 26  2  0  0  0  0
  8 27  1  0  0  0  0
  8 52  1  0  0  0  0
  9 28  1  0  0  0  0
  9 53  1  0  0  0  0
 10 32  1  0  0  0  0
 10 55  1  0  0  0  0
 11 34  1  0  0  0  0
 11 56  1  0  0  0  0
 12 13  1  0  0  0  0
 12 14  1  0  0  0  0
 12 35  1  0  0  0  0
 13 15  1  0  0  0  0
 13 36  1  0  0  0  0
 14 16  1  0  0  0  0
 14 37  1  0  0  0  0
 15 17  1  0  0  0  0
 15 38  1  0  0  0  0
 16 39  1  0  0  0  0
 17 40  1  0  0  0  0
 17 41  1  0  0  0  0
 18 19  1  0  0  0  0
 18 20  2  0  0  0  0
 19 21  2  0  0  0  0
 19 46  1  0  0  0  0
 20 22  1  0  0  0  0
 20 47  1  0  0  0  0
 21 23  1  0  0  0  0
 21 24  1  0  0  0  0
 22 23  2  0  0  0  0
 22 26  1  0  0  0  0
 23 25  1  0  0  0  0
 24 27  2  0  0  0  0
 24 48  1  0  0  0  0
 25 28  2  0  0  0  0
 25 49  1  0  0  0  0
 26 29  1  0  0  0  0
 27 28  1  0  0  0  0
 29 30  2  0  0  0  0
 29 31  1  0  0  0  0
 30 32  1  0  0  0  0
 30 50  1  0  0  0  0
 31 33  2  0  0  0  0
 31 51  1  0  0  0  0
 32 34  2  0  0  0  0
 33 34  1  0  0  0  0
 33 54  1  0  0  0  0
M  END
> <PUBCHEM_COMPOUND_CID>
101733178

> <PUBCHEM_CONFORMER_RMSD>
1.2

> <PUBCHEM_CONFORMER_DIVERSEORDER>
1
12
74
48
110
103
109
113
105
18
60
98
148
112
21
132
88
19
130
144
111
91
101
17
13
59
53
8
120
67
73
65
23
29
25
27
136
77
121
49
79
62
97
117
51
63
139
106
147
11
122
72
71
31
24
149
116
64
9
107
133
124
32
37
143
131
82
102
90
87
96
137
135
16
43
35
61
68
57
5
6
108
86
146
14
114
45
142
83
78
145
26
89
39
40
20
34
115
56
54
129
4
93
44
95
127
118
85
134
99
140
3
30
69
10
55
7
84
66
50
52
119
15
46
42
38
94
2
128
41
92
80
81
58
125
33
141
100
76
22
75
104
126
138
123
47
28
70
36

> <PUBCHEM_MMFF94_PARTIAL_CHARGES>
47
1 -0.56
10 -0.53
11 -0.53
12 0.28
13 0.28
14 0.28
15 0.28
16 0.56
17 0.28
18 0.08
19 -0.15
2 -0.36
20 -0.15
22 0.09
24 -0.15
25 -0.15
26 0.4
27 0.08
28 0.08
29 0.09
3 -0.68
30 -0.15
31 -0.15
32 0.08
33 -0.15
34 0.08
4 -0.68
42 0.4
43 0.4
44 0.4
45 0.4
46 0.15
47 0.15
48 0.15
49 0.15
5 -0.68
50 0.15
51 0.15
52 0.45
53 0.45
54 0.15
55 0.45
56 0.45
6 -0.68
7 -0.57
8 -0.53
9 -0.53

> <PUBCHEM_EFFECTIVE_ROTOR_COUNT>
6.2

> <PUBCHEM_PHARMACOPHORE_FEATURES>
19
1 1 acceptor
1 10 donor
1 11 donor
1 2 acceptor
1 3 acceptor
1 3 donor
1 4 acceptor
1 4 donor
1 5 acceptor
1 5 donor
1 6 acceptor
1 6 donor
1 7 acceptor
1 8 donor
1 9 donor
6 1 12 13 14 15 16 rings
6 18 19 20 21 22 23 rings
6 21 23 24 25 27 28 rings
6 29 30 31 32 33 34 rings

> <PUBCHEM_HEAVY_ATOM_COUNT>
34

> <PUBCHEM_ATOM_DEF_STEREO_COUNT>
5

> <PUBCHEM_ATOM_UDEF_STEREO_COUNT>
0

> <PUBCHEM_BOND_DEF_STEREO_COUNT>
0

> <PUBCHEM_BOND_UDEF_STEREO_COUNT>
0

> <PUBCHEM_ISOTOPIC_ATOM_COUNT>
0

> <PUBCHEM_COMPONENT_COUNT>
1

> <PUBCHEM_CACTVS_TAUTO_COUNT>
263

> <PUBCHEM_CONFORMER_ID>
0610533A00000001

> <PUBCHEM_MMFF94_ENERGY>
116.1401

> <PUBCHEM_FEATURE_SELFOVERLAP>
96.528

> <PUBCHEM_SHAPE_FINGERPRINT>
10675989 125 18267585697837308608
107951 10 17894351098694718147
11014199 57 17116075249301472322
11488393 25 18267872670840994195
11513181 2 18342740749580402494
11578080 2 16882431859045972917
12553582 1 17472975581005148226
12788726 201 17903340851602664763
133893 2 17842292367025210867
1361 2 18339077094888790976
13690498 29 17689178003036544196
14117953 113 18265326202079694246
14790565 3 18336264561721136929
15403338 16 17170660087160649234
16628084 112 18194962078607437151
19315092 285 13829575263710697524
20775438 99 16689597753188109239
21133410 171 16899841912871550706
21133410 230 17973199302295365723
21344244 246 18270113492560249071
23559900 14 18267019449327028010
3298306 158 18340204103076544063
340366 18 18261117425792401412
4017518 198 18131063793815301406
4058900 60 18337682914192562101
5085150 59 18340758274459847010
5265222 85 18338241560546925388
6898599 12 18118411876032267148

> <PUBCHEM_SHAPE_MULTIPOLES>
635.14
10.79
6.92
1.44
0.94
8.1
-0.32
-12.38
-2.41
-2.53
-2.37
-0.1
1.32
0.64

> <PUBCHEM_SHAPE_SELFOVERLAP>
1397.453

> <PUBCHEM_SHAPE_VOLUME>
339.9

> <PUBCHEM_COORDINATE_TYPE>
2
5
10

$$$$
