5488919
  -OEChem-11232015003D

 34 37  0     0  0  0  0  0  0999 V2000
   -1.4066    2.1067    0.0733 O   0  0  0  0  0  0  0  0  0  0  0  0
    1.4786   -2.0261    0.1088 O   0  0  0  0  0  0  0  0  0  0  0  0
   -4.0226    1.2257    0.0961 O   0  0  0  0  0  0  0  0  0  0  0  0
    4.0947   -1.1450    0.0855 O   0  0  0  0  0  0  0  0  0  0  0  0
   -4.5884   -1.4914    0.1313 O   0  0  0  0  0  0  0  0  0  0  0  0
    4.6603    1.5719    0.0501 O   0  0  0  0  0  0  0  0  0  0  0  0
    0.1000    3.8344    0.0460 O   0  0  0  0  0  0  0  0  0  0  0  0
   -0.0279   -3.7537    0.1394 O   0  0  0  0  0  0  0  0  0  0  0  0
   -0.6407   -0.1962    0.0972 C   0  0  0  0  0  0  0  0  0  0  0  0
    0.7127    0.2767    0.0851 C   0  0  0  0  0  0  0  0  0  0  0  0
   -0.9272   -1.5601    0.1148 C   0  0  0  0  0  0  0  0  0  0  0  0
    0.9992    1.6407    0.0673 C   0  0  0  0  0  0  0  0  0  0  0  0
   -1.6854    0.7209    0.0912 C   0  0  0  0  0  0  0  0  0  0  0  0
    1.7574   -0.6404    0.0909 C   0  0  0  0  0  0  0  0  0  0  0  0
   -3.0149    0.3117    0.1021 C   0  0  0  0  0  0  0  0  0  0  0  0
    3.0869   -0.2311    0.0793 C   0  0  0  0  0  0  0  0  0  0  0  0
   -2.2585   -1.9923    0.1261 C   0  0  0  0  0  0  0  0  0  0  0  0
    2.3305    2.0728    0.0555 C   0  0  0  0  0  0  0  0  0  0  0  0
   -0.1085    2.6283    0.0608 C   0  0  0  0  0  0  0  0  0  0  0  0
    0.1804   -2.5478    0.1215 C   0  0  0  0  0  0  0  0  0  0  0  0
   -3.2972   -1.0541    0.1197 C   0  0  0  0  0  0  0  0  0  0  0  0
    3.3691    1.1347    0.0615 C   0  0  0  0  0  0  0  0  0  0  0  0
   -4.9359    1.1790   -0.9994 C   0  0  0  0  0  0  0  0  0  0  0  0
    4.1441   -2.0654   -1.0040 C   0  0  0  0  0  0  0  0  0  0  0  0
   -2.4924   -3.0539    0.1398 H   0  0  0  0  0  0  0  0  0  0  0  0
    2.5721    3.1327    0.0415 H   0  0  0  0  0  0  0  0  0  0  0  0
   -4.5943   -2.4639    0.1413 H   0  0  0  0  0  0  0  0  0  0  0  0
    5.2464    0.7951    0.0552 H   0  0  0  0  0  0  0  0  0  0  0  0
   -4.4698    0.7822   -1.9081 H   0  0  0  0  0  0  0  0  0  0  0  0
   -5.2681    2.2009   -1.2043 H   0  0  0  0  0  0  0  0  0  0  0  0
   -5.8138    0.5850   -0.7305 H   0  0  0  0  0  0  0  0  0  0  0  0
    5.1962   -2.2585   -1.2335 H   0  0  0  0  0  0  0  0  0  0  0  0
    3.6652   -1.6678   -1.9058 H   0  0  0  0  0  0  0  0  0  0  0  0
    3.6820   -3.0129   -0.7132 H   0  0  0  0  0  0  0  0  0  0  0  0
  1 13  1  0  0  0  0
  1 19  1  0  0  0  0
  2 14  1  0  0  0  0
  2 20  1  0  0  0  0
  3 15  1  0  0  0  0
  3 23  1  0  0  0  0
  4 16  1  0  0  0  0
  4 24  1  0  0  0  0
  5 21  1  0  0  0  0
  5 27  1  0  0  0  0
  6 22  1  0  0  0  0
  6 28  1  0  0  0  0
  7 19  2  0  0  0  0
  8 20  2  0  0  0  0
  9 10  1  0  0  0  0
  9 12  1  0  0  0  0
  9 13  2  0  0  0  0
 10 11  1  0  0  0  0
 10 14  2  0  0  0  0
 11 17  2  0  0  0  0
 11 19  1  0  0  0  0
 12 18  2  0  0  0  0
 12 20  1  0  0  0  0
 13 15  1  0  0  0  0
 14 16  1  0  0  0  0
 15 21  2  0  0  0  0
 16 22  2  0  0  0  0
 17 22  1  0  0  0  0
 17 25  1  0  0  0  0
 18 21  1  0  0  0  0
 18 26  1  0  0  0  0
 23 29  1  0  0  0  0
 23 30  1  0  0  0  0
 23 31  1  0  0  0  0
 24 32  1  0  0  0  0
 24 33  1  0  0  0  0
 24 34  1  0  0  0  0
M  END
> <PUBCHEM_COMPOUND_CID>
5488919

> <PUBCHEM_CONFORMER_RMSD>
0.6

> <PUBCHEM_CONFORMER_DIVERSEORDER>
1
2

> <PUBCHEM_MMFF94_PARTIAL_CHARGES>
26
1 -0.23
11 0.09
12 0.09
13 0.08
14 0.08
15 0.08
16 0.08
17 -0.15
18 -0.15
19 0.63
2 -0.23
20 0.63
21 0.08
22 0.08
23 0.28
24 0.28
25 0.15
26 0.15
27 0.45
28 0.45
3 -0.36
4 -0.36
5 -0.53
6 -0.53
7 -0.57
8 -0.57

> <PUBCHEM_EFFECTIVE_ROTOR_COUNT>
2

> <PUBCHEM_PHARMACOPHORE_FEATURES>
10
1 3 acceptor
1 4 acceptor
1 5 donor
1 6 donor
1 7 acceptor
1 8 acceptor
6 1 9 10 11 13 19 rings
6 10 11 14 16 17 22 rings
6 2 9 10 12 14 20 rings
6 9 12 13 15 18 21 rings

> <PUBCHEM_HEAVY_ATOM_COUNT>
24

> <PUBCHEM_ATOM_DEF_STEREO_COUNT>
0

> <PUBCHEM_ATOM_UDEF_STEREO_COUNT>
0

> <PUBCHEM_BOND_DEF_STEREO_COUNT>
0

> <PUBCHEM_BOND_UDEF_STEREO_COUNT>
0

> <PUBCHEM_ISOTOPIC_ATOM_COUNT>
0

> <PUBCHEM_COMPONENT_COUNT>
1

> <PUBCHEM_CACTVS_TAUTO_COUNT>
7

> <PUBCHEM_CONFORMER_ID>
0053C11700000001

> <PUBCHEM_MMFF94_ENERGY>
109.5024

> <PUBCHEM_FEATURE_SELFOVERLAP>
50.877

> <PUBCHEM_SHAPE_FINGERPRINT>
10411042 1 18411141311930475730
10498660 4 18409168792137658108
10616163 171 18050853518103111334
10693767 8 18058148575964127487
10967382 1 18338799043111772098
1100329 8 18410292492994943019
116883 192 18269561554997523828
12011746 2 18337954459125503607
12553582 1 18265614282267654939
13140716 1 18410295782976795714
13583140 156 13901048986687393799
138480 1 17977944579494740971
14178342 30 17834661705121023840
14790565 3 18339090293281957633
14866123 147 17694229867648877386
14955137 171 18265076702971069857
15081414 286 18340779220524979248
15196674 1 18410575097553262059
15536298 74 18342459248722539370
16945 1 18122060909973180242
19591789 44 18410576175643093227
20510252 161 18342739594181146688
20739085 24 18192179064463976633
20905425 154 17981609264756118918
21267235 1 18337963401215817058
21279426 13 18337952290578436885
21421861 104 17827922823701955227
21521239 73 18129079222423242671
221490 88 18264214779974980027
2334 1 18338518650303270250
23402539 116 18342448270764947534
23559900 14 18341894095894045796
238 59 17612261413685757645
2748010 2 18410293644056669178
2871803 45 18338795585589375812
335352 9 18338517421932087383
34934 24 18410284830826209680
350125 39 18337392626533550336
5104073 3 18410293618334378091
59755656 215 18192994807712729999
7364860 26 18052257589740329544
7832392 63 18124031501525615914
9709674 26 18338520857916941002

> <PUBCHEM_SHAPE_MULTIPOLES>
446.95
7.89
3.72
0.68
1.6
0.05
0.1
-0.01
1.36
-0.67
-0.02
0.04
-0.05
0.72

> <PUBCHEM_SHAPE_SELFOVERLAP>
1018.481

> <PUBCHEM_SHAPE_VOLUME>
231.8

> <PUBCHEM_COORDINATE_TYPE>
2
5
10

$$$$
