101257
  -OEChem-11232014583D

 81 84  0     1  0  0  0  0  0999 V2000
    7.3004    0.8771    0.4620 O   0  0  0  0  0  0  0  0  0  0  0  0
   -1.0833    0.6456    0.2609 C   0  0  2  0  0  0  0  0  0  0  0  0
   -0.5351   -0.8018    0.0157 C   0  0  1  0  0  0  0  0  0  0  0  0
   -2.5999    0.3790    0.4104 C   0  0  1  0  0  0  0  0  0  0  0  0
    3.1753    0.2890   -0.7782 C   0  0  1  0  0  0  0  0  0  0  0  0
    0.9864   -0.7822   -0.0498 C   0  0  0  0  0  0  0  0  0  0  0  0
    3.8203   -0.6718    0.2917 C   0  0  2  0  0  0  0  0  0  0  0  0
    1.6310    0.2795   -0.6026 C   0  0  0  0  0  0  0  0  0  0  0  0
   -1.2432   -1.5636    1.1539 C   0  0  0  0  0  0  0  0  0  0  0  0
   -0.6708    1.5176   -0.9269 C   0  0  0  0  0  0  0  0  0  0  0  0
   -2.6511   -0.9306    1.2356 C   0  0  0  0  0  0  0  0  0  0  0  0
    0.8631    1.5126   -1.1030 C   0  0  0  0  0  0  0  0  0  0  0  0
    5.3901   -0.6607    0.4059 C   0  0  0  0  0  0  0  0  0  0  0  0
    1.6939   -2.0141    0.4604 C   0  0  0  0  0  0  0  0  0  0  0  0
    3.1953   -2.0713    0.1820 C   0  0  0  0  0  0  0  0  0  0  0  0
    3.7746    1.7032   -0.5646 C   0  0  0  0  0  0  0  0  0  0  0  0
   -3.4402    1.4940    1.0218 C   0  0  2  0  0  0  0  0  0  0  0  0
   -0.5421    1.3080    1.5700 C   0  0  0  0  0  0  0  0  0  0  0  0
   -0.9842   -1.4636   -1.3258 C   0  0  0  0  0  0  0  0  0  0  0  0
    5.8759    0.8131    0.5174 C   0  0  2  0  0  0  0  0  0  0  0  0
    5.2995    1.7272   -0.5586 C   0  0  0  0  0  0  0  0  0  0  0  0
    3.4113   -0.1404   -2.2465 C   0  0  0  0  0  0  0  0  0  0  0  0
    6.1158   -1.4076   -0.7328 C   0  0  0  0  0  0  0  0  0  0  0  0
    5.8144   -1.3795    1.7190 C   0  0  0  0  0  0  0  0  0  0  0  0
   -4.9361    1.1240    1.1145 C   0  0  0  0  0  0  0  0  0  0  0  0
   -3.2805    2.7759    0.1961 C   0  0  0  0  0  0  0  0  0  0  0  0
   -5.6068    0.7647   -0.2189 C   0  0  0  0  0  0  0  0  0  0  0  0
   -7.0445    0.3572   -0.0543 C   0  0  0  0  0  0  0  0  0  0  0  0
   -7.6444   -0.7768   -0.4635 C   0  0  0  0  0  0  0  0  0  0  0  0
   -9.1090   -1.0005   -0.1926 C   0  0  0  0  0  0  0  0  0  0  0  0
   -6.9759   -1.9029   -1.1992 C   0  0  0  0  0  0  0  0  0  0  0  0
   -2.9899    0.1723   -0.5917 H   0  0  0  0  0  0  0  0  0  0  0  0
    3.4839   -0.2781    1.2672 H   0  0  0  0  0  0  0  0  0  0  0  0
   -0.7228   -1.4328    2.1099 H   0  0  0  0  0  0  0  0  0  0  0  0
   -1.3075   -2.6426    0.9748 H   0  0  0  0  0  0  0  0  0  0  0  0
   -0.9695    2.5618   -0.8271 H   0  0  0  0  0  0  0  0  0  0  0  0
   -1.1447    1.1691   -1.8520 H   0  0  0  0  0  0  0  0  0  0  0  0
   -3.4047   -1.6093    0.8202 H   0  0  0  0  0  0  0  0  0  0  0  0
   -2.9099   -0.7566    2.2860 H   0  0  0  0  0  0  0  0  0  0  0  0
    1.2389    2.3864   -0.5567 H   0  0  0  0  0  0  0  0  0  0  0  0
    1.0861    1.6848   -2.1618 H   0  0  0  0  0  0  0  0  0  0  0  0
    1.5498   -2.0576    1.5475 H   0  0  0  0  0  0  0  0  0  0  0  0
    1.2335   -2.9179    0.0453 H   0  0  0  0  0  0  0  0  0  0  0  0
    3.6371   -2.7727    0.8957 H   0  0  0  0  0  0  0  0  0  0  0  0
    3.3690   -2.5037   -0.8088 H   0  0  0  0  0  0  0  0  0  0  0  0
    3.4181    2.1140    0.3899 H   0  0  0  0  0  0  0  0  0  0  0  0
    3.4322    2.3919   -1.3473 H   0  0  0  0  0  0  0  0  0  0  0  0
   -3.1145    1.7080    2.0471 H   0  0  0  0  0  0  0  0  0  0  0  0
   -0.8135    2.3657    1.6324 H   0  0  0  0  0  0  0  0  0  0  0  0
   -0.9279    0.8250    2.4737 H   0  0  0  0  0  0  0  0  0  0  0  0
    0.5483    1.2715    1.6477 H   0  0  0  0  0  0  0  0  0  0  0  0
   -0.5835   -0.9464   -2.2045 H   0  0  0  0  0  0  0  0  0  0  0  0
   -0.6258   -2.4993   -1.3840 H   0  0  0  0  0  0  0  0  0  0  0  0
   -2.0703   -1.5146   -1.4430 H   0  0  0  0  0  0  0  0  0  0  0  0
    5.5766    1.2234    1.4915 H   0  0  0  0  0  0  0  0  0  0  0  0
    5.7035    1.4674   -1.5434 H   0  0  0  0  0  0  0  0  0  0  0  0
    5.6442    2.7535   -0.3770 H   0  0  0  0  0  0  0  0  0  0  0  0
    4.4614   -0.1436   -2.5308 H   0  0  0  0  0  0  0  0  0  0  0  0
    3.0058   -1.1341   -2.4622 H   0  0  0  0  0  0  0  0  0  0  0  0
    2.9227    0.5516   -2.9435 H   0  0  0  0  0  0  0  0  0  0  0  0
    6.1238   -0.8517   -1.6698 H   0  0  0  0  0  0  0  0  0  0  0  0
    5.6756   -2.3914   -0.9206 H   0  0  0  0  0  0  0  0  0  0  0  0
    7.1695   -1.5806   -0.4809 H   0  0  0  0  0  0  0  0  0  0  0  0
    5.5756   -2.4472    1.6958 H   0  0  0  0  0  0  0  0  0  0  0  0
    5.3136   -0.9424    2.5902 H   0  0  0  0  0  0  0  0  0  0  0  0
    6.8937   -1.3132    1.8933 H   0  0  0  0  0  0  0  0  0  0  0  0
   -5.4803    1.9592    1.5762 H   0  0  0  0  0  0  0  0  0  0  0  0
   -5.0533    0.2816    1.8084 H   0  0  0  0  0  0  0  0  0  0  0  0
   -3.3106    2.5873   -0.8817 H   0  0  0  0  0  0  0  0  0  0  0  0
   -4.0945    3.4765    0.4195 H   0  0  0  0  0  0  0  0  0  0  0  0
   -2.3688    3.3179    0.4522 H   0  0  0  0  0  0  0  0  0  0  0  0
    7.6487    0.5635    1.3129 H   0  0  0  0  0  0  0  0  0  0  0  0
   -5.0452   -0.0216   -0.7215 H   0  0  0  0  0  0  0  0  0  0  0  0
   -5.5861    1.6361   -0.8839 H   0  0  0  0  0  0  0  0  0  0  0  0
   -7.6576    1.0983    0.4580 H   0  0  0  0  0  0  0  0  0  0  0  0
   -9.5675   -0.1650    0.3469 H   0  0  0  0  0  0  0  0  0  0  0  0
   -9.6537   -1.1258   -1.1343 H   0  0  0  0  0  0  0  0  0  0  0  0
   -9.2488   -1.9021    0.4128 H   0  0  0  0  0  0  0  0  0  0  0  0
   -7.4737   -2.0693   -2.1606 H   0  0  0  0  0  0  0  0  0  0  0  0
   -5.9191   -1.7319   -1.4099 H   0  0  0  0  0  0  0  0  0  0  0  0
   -7.0455   -2.8258   -0.6135 H   0  0  0  0  0  0  0  0  0  0  0  0
  1 20  1  0  0  0  0
  1 72  1  0  0  0  0
  2  3  1  0  0  0  0
  2  4  1  0  0  0  0
  2 10  1  0  0  0  0
  2 18  1  0  0  0  0
  3  6  1  0  0  0  0
  3  9  1  0  0  0  0
  3 19  1  0  0  0  0
  4 11  1  0  0  0  0
  4 17  1  0  0  0  0
  4 32  1  0  0  0  0
  5  7  1  0  0  0  0
  5  8  1  0  0  0  0
  5 16  1  0  0  0  0
  5 22  1  0  0  0  0
  6  8  2  0  0  0  0
  6 14  1  0  0  0  0
  7 13  1  0  0  0  0
  7 15  1  0  0  0  0
  7 33  1  0  0  0  0
  8 12  1  0  0  0  0
  9 11  1  0  0  0  0
  9 34  1  0  0  0  0
  9 35  1  0  0  0  0
 10 12  1  0  0  0  0
 10 36  1  0  0  0  0
 10 37  1  0  0  0  0
 11 38  1  0  0  0  0
 11 39  1  0  0  0  0
 12 40  1  0  0  0  0
 12 41  1  0  0  0  0
 13 20  1  0  0  0  0
 13 23  1  0  0  0  0
 13 24  1  0  0  0  0
 14 15  1  0  0  0  0
 14 42  1  0  0  0  0
 14 43  1  0  0  0  0
 15 44  1  0  0  0  0
 15 45  1  0  0  0  0
 16 21  1  0  0  0  0
 16 46  1  0  0  0  0
 16 47  1  0  0  0  0
 17 25  1  0  0  0  0
 17 26  1  0  0  0  0
 17 48  1  0  0  0  0
 18 49  1  0  0  0  0
 18 50  1  0  0  0  0
 18 51  1  0  0  0  0
 19 52  1  0  0  0  0
 19 53  1  0  0  0  0
 19 54  1  0  0  0  0
 20 21  1  0  0  0  0
 20 55  1  0  0  0  0
 21 56  1  0  0  0  0
 21 57  1  0  0  0  0
 22 58  1  0  0  0  0
 22 59  1  0  0  0  0
 22 60  1  0  0  0  0
 23 61  1  0  0  0  0
 23 62  1  0  0  0  0
 23 63  1  0  0  0  0
 24 64  1  0  0  0  0
 24 65  1  0  0  0  0
 24 66  1  0  0  0  0
 25 27  1  0  0  0  0
 25 67  1  0  0  0  0
 25 68  1  0  0  0  0
 26 69  1  0  0  0  0
 26 70  1  0  0  0  0
 26 71  1  0  0  0  0
 27 28  1  0  0  0  0
 27 73  1  0  0  0  0
 27 74  1  0  0  0  0
 28 29  2  0  0  0  0
 28 75  1  0  0  0  0
 29 30  1  0  0  0  0
 29 31  1  0  0  0  0
 30 76  1  0  0  0  0
 30 77  1  0  0  0  0
 30 78  1  0  0  0  0
 31 79  1  0  0  0  0
 31 80  1  0  0  0  0
 31 81  1  0  0  0  0
M  END
> <PUBCHEM_COMPOUND_CID>
101257

> <PUBCHEM_CONFORMER_RMSD>
0.8

> <PUBCHEM_CONFORMER_DIVERSEORDER>
1
5
8
9
2
7
3
6
4

> <PUBCHEM_MMFF94_PARTIAL_CHARGES>
15
1 -0.68
12 0.14
14 0.14
20 0.28
27 0.14
28 -0.29
29 -0.28
3 0.14
30 0.14
31 0.14
5 0.14
6 -0.28
72 0.4
75 0.15
8 -0.28

> <PUBCHEM_EFFECTIVE_ROTOR_COUNT>
6.2

> <PUBCHEM_PHARMACOPHORE_FEATURES>
10
1 1 acceptor
1 1 donor
1 26 hydrophobe
3 13 23 24 hydrophobe
3 29 30 31 hydrophobe
4 17 25 27 28 hydrophobe
5 2 3 4 9 11 rings
6 2 3 6 8 10 12 rings
6 5 6 7 8 14 15 rings
6 5 7 13 16 20 21 rings

> <PUBCHEM_HEAVY_ATOM_COUNT>
31

> <PUBCHEM_ATOM_DEF_STEREO_COUNT>
7

> <PUBCHEM_ATOM_UDEF_STEREO_COUNT>
0

> <PUBCHEM_BOND_DEF_STEREO_COUNT>
0

> <PUBCHEM_BOND_UDEF_STEREO_COUNT>
0

> <PUBCHEM_ISOTOPIC_ATOM_COUNT>
0

> <PUBCHEM_COMPONENT_COUNT>
1

> <PUBCHEM_CACTVS_TAUTO_COUNT>
1

> <PUBCHEM_CONFORMER_ID>
00018B8900000001

> <PUBCHEM_MMFF94_ENERGY>
116.2903

> <PUBCHEM_FEATURE_SELFOVERLAP>
50.848

> <PUBCHEM_SHAPE_FINGERPRINT>
10554248 39 17022910063935416295
10595046 47 18340770351960500753
10674148 151 8646771097420334396
10930396 42 17749652091662702568
11135926 11 18410570649207165231
11186622 174 17967530168617340952
11724838 91 18412544319063884364
11796584 16 13334751123724017400
12166972 35 18333732425086492469
12236239 1 18342739589664334111
12422481 6 17968660389741577940
12633257 1 16226058816362970632
13533116 47 17531806840640739322
13692114 37 18411132563003271578
13811026 1 18333733524149084203
13914758 101 17385719167475259853
14068700 675 18411139139336582517
14251764 18 18408324393051345237
1454969 45 18342174471206232447
15131766 46 15432598551906650926
15142383 8 14056717950575394414
15183329 4 17749112188624428359
15461852 350 18342462534113980318
15475509 8 8862946108121004363
15849732 13 18341893000355599983
1813 80 15936700298399968820
18335252 98 17132120143143571295
20028762 73 18412826858934502679
20511986 3 18336254682889498483
21130935 74 18058733494131753082
21150785 3 18059857290052805075
21223535 225 16443616897698054941
21521721 280 13686294690780151439
21859007 373 16878493523626244741
22149856 69 17417544523188743803
23559900 14 18335424603314133368
23569917 315 18342182128548469871
23569943 247 17694796116407506454
24771293 8 18410862048645729189
2838139 119 16081085970810735573
3009799 131 17167860855658391013
335352 9 18261399936509968326
34797466 226 16486978422876271632
3633792 109 17894625921236455065
4325135 7 18412262835955980303
4340502 62 18113627763268024043
439807 62 18337391660931339135
4516262 110 17314244426701974172
474113 269 16805867495067173162
5104073 3 18187375328574628256
5381727 24 17917706903976825390
6004065 56 18336265725409081217
6371009 1 18259989266711551461

> <PUBCHEM_SHAPE_MULTIPOLES>
632.1
20.33
2.28
1.41
24.29
0.26
0.12
-4.12
1.02
0.18
-0.04
-0.55
-0.13
-1.57

> <PUBCHEM_SHAPE_SELFOVERLAP>
1317.399

> <PUBCHEM_SHAPE_VOLUME>
360.2

> <PUBCHEM_COORDINATE_TYPE>
2
5
10

$$$$
