14035442
  -OEChem-11232015042D

 80 86  0     1  0  0  0  0  0999 V2000
    9.8716   -0.4021    0.0000 O   0  0  0  0  0  0  0  0  0  0  0  0
    9.4560   -1.2420    0.0000 O   0  0  0  0  0  0  0  0  0  0  0  0
    7.8893    0.5530    0.0000 O   0  0  0  0  0  0  0  0  0  0  0  0
   11.2877    2.0135    0.0000 O   0  0  0  0  0  0  0  0  0  0  0  0
    8.7503   -2.0169    0.0000 O   0  0  0  0  0  0  0  0  0  0  0  0
    6.8679   -0.5376    0.0000 O   0  0  0  0  0  0  0  0  0  0  0  0
   12.5377    2.1187    0.0000 O   0  0  0  0  0  0  0  0  0  0  0  0
   11.7213   -1.2471    0.0000 O   0  0  0  0  0  0  0  0  0  0  0  0
   14.2697   -0.8813    0.0000 O   0  0  0  0  0  0  0  0  0  0  0  0
   14.2697    1.1187    0.0000 O   0  0  0  0  0  0  0  0  0  0  0  0
    9.6405   -2.8629    0.0000 O   0  0  0  0  0  0  0  0  0  0  0  0
   13.7303   -1.9341    0.0000 O   0  0  0  0  0  0  0  0  0  0  0  0
    6.4365   -0.3042    0.0000 O   0  0  0  0  0  0  0  0  0  0  0  0
   13.5327   -3.8664    0.0000 O   0  0  0  0  0  0  0  0  0  0  0  0
   11.7704   -4.6831    0.0000 O   0  0  0  0  0  0  0  0  0  0  0  0
    5.9107    1.1124    0.0000 O   0  0  0  0  0  0  0  0  0  0  0  0
    5.2406    3.6768    0.0000 O   0  0  0  0  0  0  0  0  0  0  0  0
    4.3635    3.2096    0.0000 O   0  0  0  0  0  0  0  0  0  0  0  0
    8.7788    3.5695    0.0000 O   0  0  0  0  0  0  0  0  0  0  0  0
    7.0409    4.6536    0.0000 O   0  0  0  0  0  0  0  0  0  0  0  0
    2.5483    2.2606    0.0000 O   0  0  0  0  0  0  0  0  0  0  0  0
    2.4784    0.2135    0.0000 O   0  0  0  0  0  0  0  0  0  0  0  0
    9.8716    0.6395    0.0000 C   0  0  2  0  0  0  0  0  0  0  0  0
    9.3547   -0.2330    0.0000 C   0  0  2  0  0  0  0  0  0  0  0  0
   10.7777    1.1533    0.0000 C   0  0  1  0  0  0  0  0  0  0  0  0
    8.3594   -0.3296    0.0000 C   0  0  1  0  0  0  0  0  0  0  0  0
   11.6717    0.6187    0.0000 C   0  0  0  0  0  0  0  0  0  0  0  0
    8.0678   -1.2861    0.0000 C   0  0  1  0  0  0  0  0  0  0  0  0
   11.6717   -0.3813    0.0000 C   0  0  0  0  0  0  0  0  0  0  0  0
   12.5377   -0.8813    0.0000 C   0  0  0  0  0  0  0  0  0  0  0  0
   10.7777   -0.9160    0.0000 C   0  0  0  0  0  0  0  0  0  0  0  0
   12.5377    1.1187    0.0000 C   0  0  0  0  0  0  0  0  0  0  0  0
    7.0936   -1.5118    0.0000 C   0  0  0  0  0  0  0  0  0  0  0  0
   12.0498   -1.7703    0.0000 C   0  0  0  0  0  0  0  0  0  0  0  0
   13.4037   -0.3813    0.0000 C   0  0  0  0  0  0  0  0  0  0  0  0
   11.1297   -2.1967    0.0000 C   0  0  0  0  0  0  0  0  0  0  0  0
   10.1360   -1.9943    0.0000 C   0  0  0  0  0  0  0  0  0  0  0  0
   13.4037    0.6187    0.0000 C   0  0  0  0  0  0  0  0  0  0  0  0
   12.8154   -2.3378    0.0000 C   0  0  0  0  0  0  0  0  0  0  0  0
    6.8899    0.5872    0.0000 C   0  0  0  0  0  0  0  0  0  0  0  0
   11.0677   -3.1477    0.0000 C   0  0  0  0  0  0  0  0  0  0  0  0
    6.9240    1.5866    0.0000 C   0  0  0  0  0  0  0  0  0  0  0  0
   12.7185   -3.2859    0.0000 C   0  0  0  0  0  0  0  0  0  0  0  0
   11.8538   -3.6866    0.0000 C   0  0  0  0  0  0  0  0  0  0  0  0
    6.0756    2.1159    0.0000 C   0  0  0  0  0  0  0  0  0  0  0  0
    6.0073    0.1171    0.0000 C   0  0  0  0  0  0  0  0  0  0  0  0
    5.1930    1.6458    0.0000 C   0  0  0  0  0  0  0  0  0  0  0  0
    5.1588    0.6463    0.0000 C   0  0  0  0  0  0  0  0  0  0  0  0
    7.8508    2.0621    0.0000 C   0  0  0  0  0  0  0  0  0  0  0  0
    6.0951    3.1573    0.0000 C   0  0  0  0  0  0  0  0  0  0  0  0
    4.3178    2.2106    0.0000 C   0  0  0  0  0  0  0  0  0  0  0  0
    7.8944    3.1028    0.0000 C   0  0  0  0  0  0  0  0  0  0  0  0
    4.2471    0.1425    0.0000 C   0  0  0  0  0  0  0  0  0  0  0  0
    7.0106    3.6541    0.0000 C   0  0  0  0  0  0  0  0  0  0  0  0
    3.3947    1.7280    0.0000 C   0  0  0  0  0  0  0  0  0  0  0  0
    3.3592    0.6870    0.0000 C   0  0  0  0  0  0  0  0  0  0  0  0
    9.2763    1.2462    0.0000 H   0  0  0  0  0  0  0  0  0  0  0  0
    8.6220    0.1979    0.0000 H   0  0  0  0  0  0  0  0  0  0  0  0
   10.4739    1.6938    0.0000 H   0  0  0  0  0  0  0  0  0  0  0  0
    8.8977   -0.9874    0.0000 H   0  0  0  0  0  0  0  0  0  0  0  0
    8.6718   -1.1462    0.0000 H   0  0  0  0  0  0  0  0  0  0  0  0
    6.4896   -1.6517    0.0000 H   0  0  0  0  0  0  0  0  0  0  0  0
    7.2335   -2.1158    0.0000 H   0  0  0  0  0  0  0  0  0  0  0  0
   10.9839    2.5540    0.0000 H   0  0  0  0  0  0  0  0  0  0  0  0
    8.5695   -2.6100    0.0000 H   0  0  0  0  0  0  0  0  0  0  0  0
   10.5101   -3.4187    0.0000 H   0  0  0  0  0  0  0  0  0  0  0  0
   13.0746    2.4287    0.0000 H   0  0  0  0  0  0  0  0  0  0  0  0
   14.8067   -0.5713    0.0000 H   0  0  0  0  0  0  0  0  0  0  0  0
   14.8067    0.8087    0.0000 H   0  0  0  0  0  0  0  0  0  0  0  0
    8.3730    1.7279    0.0000 H   0  0  0  0  0  0  0  0  0  0  0  0
   14.2307   -2.3002    0.0000 H   0  0  0  0  0  0  0  0  0  0  0  0
    4.2331   -0.4773    0.0000 H   0  0  0  0  0  0  0  0  0  0  0  0
   13.4734   -4.4836    0.0000 H   0  0  0  0  0  0  0  0  0  0  0  0
   11.2095   -4.9472    0.0000 H   0  0  0  0  0  0  0  0  0  0  0  0
    5.2546    4.2966    0.0000 H   0  0  0  0  0  0  0  0  0  0  0  0
    3.8413    3.5438    0.0000 H   0  0  0  0  0  0  0  0  0  0  0  0
    8.8024    4.1891    0.0000 H   0  0  0  0  0  0  0  0  0  0  0  0
    7.5870    4.9472    0.0000 H   0  0  0  0  0  0  0  0  0  0  0  0
    2.0000    1.9712    0.0000 H   0  0  0  0  0  0  0  0  0  0  0  0
    2.4596   -0.4062    0.0000 H   0  0  0  0  0  0  0  0  0  0  0  0
  1 23  1  0  0  0  0
  1 31  1  0  0  0  0
  2 24  1  0  0  0  0
  2 37  1  0  0  0  0
  3 26  1  0  0  0  0
  3 40  1  0  0  0  0
 25  4  1  6  0  0  0
  4 64  1  0  0  0  0
 28  5  1  6  0  0  0
  5 65  1  0  0  0  0
  6 33  1  0  0  0  0
  6 46  1  0  0  0  0
  7 32  1  0  0  0  0
  7 67  1  0  0  0  0
  8 31  2  0  0  0  0
  9 35  1  0  0  0  0
  9 68  1  0  0  0  0
 10 38  1  0  0  0  0
 10 69  1  0  0  0  0
 11 37  2  0  0  0  0
 12 39  1  0  0  0  0
 12 71  1  0  0  0  0
 13 40  2  0  0  0  0
 14 43  1  0  0  0  0
 14 73  1  0  0  0  0
 15 44  1  0  0  0  0
 15 74  1  0  0  0  0
 16 46  2  0  0  0  0
 17 50  1  0  0  0  0
 17 75  1  0  0  0  0
 18 51  1  0  0  0  0
 18 76  1  0  0  0  0
 19 52  1  0  0  0  0
 19 77  1  0  0  0  0
 20 54  1  0  0  0  0
 20 78  1  0  0  0  0
 21 55  1  0  0  0  0
 21 79  1  0  0  0  0
 22 56  1  0  0  0  0
 22 80  1  0  0  0  0
 23 24  1  0  0  0  0
 23 25  1  0  0  0  0
 23 57  1  1  0  0  0
 24 26  1  0  0  0  0
 24 58  1  6  0  0  0
 25 27  1  0  0  0  0
 25 59  1  0  0  0  0
 26 28  1  0  0  0  0
 26 60  1  6  0  0  0
 27 29  1  0  0  0  0
 27 32  2  0  0  0  0
 28 33  1  0  0  0  0
 28 61  1  0  0  0  0
 29 30  2  0  0  0  0
 29 31  1  0  0  0  0
 30 34  1  0  0  0  0
 30 35  1  0  0  0  0
 32 38  1  0  0  0  0
 33 62  1  0  0  0  0
 33 63  1  0  0  0  0
 34 36  1  0  0  0  0
 34 39  2  0  0  0  0
 35 38  2  0  0  0  0
 36 37  1  0  0  0  0
 36 41  2  0  0  0  0
 39 43  1  0  0  0  0
 40 42  1  0  0  0  0
 41 44  1  0  0  0  0
 41 66  1  0  0  0  0
 42 45  1  0  0  0  0
 42 49  2  0  0  0  0
 43 44  2  0  0  0  0
 45 47  1  0  0  0  0
 45 50  2  0  0  0  0
 46 48  1  0  0  0  0
 47 48  1  0  0  0  0
 47 51  2  0  0  0  0
 48 53  2  0  0  0  0
 49 52  1  0  0  0  0
 49 70  1  0  0  0  0
 50 54  1  0  0  0  0
 51 55  1  0  0  0  0
 52 54  2  0  0  0  0
 53 56  1  0  0  0  0
 53 72  1  0  0  0  0
 55 56  2  0  0  0  0
M  END
> <PUBCHEM_COMPOUND_CID>
14035442

> <PUBCHEM_COMPOUND_CANONICALIZED>
1

> <PUBCHEM_CACTVS_COMPLEXITY>
1530

> <PUBCHEM_CACTVS_HBOND_ACCEPTOR>
22

> <PUBCHEM_CACTVS_HBOND_DONOR>
14

> <PUBCHEM_CACTVS_ROTATABLE_BOND>
1

> <PUBCHEM_CACTVS_SUBSKEYS>
AAADceB8PgAAAAAAAAAAAAAAAAAAAAAAAAA0YMGCAAAAAACRVAAAGgAACAAADBSgmAIwDoAABgCIAiDSCAACAAAkIAAAiAEGiMgJNzKCNBqCcQElwBULuYfK7PzOoAADCAAYQABAAAYQADCAAAAAAAAAAA==

> <PUBCHEM_IUPAC_OPENEYE_NAME>
(14R,15S,19R)-14-[(10R,11R)-3,4,5,11,17,18,19-heptahydroxy-8,14-dioxo-9,13-dioxatricyclo[13.4.0.02,7]nonadeca-1(19),2,4,6,15,17-hexaen-10-yl]-2,3,4,7,8,9,19-heptahydroxy-13,16-dioxatetracyclo[13.3.1.05,18.06,11]nonadeca-1,3,5(18),6,8,10-hexaene-12,17-dione

> <PUBCHEM_IUPAC_CAS_NAME>
(14R,15S,19R)-14-[(10R,11R)-3,4,5,11,17,18,19-heptahydroxy-8,14-dioxo-9,13-dioxatricyclo[13.4.0.02,7]nonadeca-1(19),2,4,6,15,17-hexaen-10-yl]-2,3,4,7,8,9,19-heptahydroxy-13,16-dioxatetracyclo[13.3.1.05,18.06,11]nonadeca-1,3,5(18),6,8,10-hexaene-12,17-dione

> <PUBCHEM_IUPAC_NAME_MARKUP>
(14<I>R</I>,15<I>S</I>,19<I>R</I>)-14-[(10<I>R</I>,11<I>R</I>)-3,4,5,11,17,18,19-heptahydroxy-8,14-dioxo-9,13-dioxatricyclo[13.4.0.0<SUP>2,7</SUP>]nonadeca-1(19),2,4,6,15,17-hexaen-10-yl]-2,3,4,7,8,9,19-heptahydroxy-13,16-dioxatetracyclo[13.3.1.0<SUP>5,18</SUP>.0<SUP>6,11</SUP>]nonadeca-1,3,5(18),6,8,10-hexaene-12,17-dione

> <PUBCHEM_IUPAC_NAME>
(14R,15S,19R)-14-[(10R,11R)-3,4,5,11,17,18,19-heptahydroxy-8,14-dioxo-9,13-dioxatricyclo[13.4.0.02,7]nonadeca-1(19),2,4,6,15,17-hexaen-10-yl]-2,3,4,7,8,9,19-heptahydroxy-13,16-dioxatetracyclo[13.3.1.05,18.06,11]nonadeca-1,3,5(18),6,8,10-hexaene-12,17-dione

> <PUBCHEM_IUPAC_SYSTEMATIC_NAME>
(14R,15S,19R)-14-[(10R,11R)-3,4,5,11,17,18,19-heptakis(oxidanyl)-8,14-bis(oxidanylidene)-9,13-dioxatricyclo[13.4.0.02,7]nonadeca-1(19),2,4,6,15,17-hexaen-10-yl]-2,3,4,7,8,9,19-heptakis(oxidanyl)-13,16-dioxatetracyclo[13.3.1.05,18.06,11]nonadeca-1,3,5(18),6,8,10-hexaene-12,17-dione

> <PUBCHEM_IUPAC_TRADITIONAL_NAME>
(14R,15S,19R)-14-[(10R,11R)-3,4,5,11,17,18,19-heptahydroxy-8,14-diketo-9,13-dioxatricyclo[13.4.0.02,7]nonadeca-1(19),2,4,6,15,17-hexaen-10-yl]-2,3,4,7,8,9,19-heptahydroxy-13,16-dioxatetracyclo[13.3.1.05,18.06,11]nonadeca-1,3,5(18),6,8,10-hexaene-12,17-quinone

> <PUBCHEM_IUPAC_INCHI>
InChI=1S/C34H24O22/c35-8-1-5-12(21(42)18(8)39)13-6(2-9(36)19(40)22(13)43)32(50)54-28(11(38)4-53-31(5)49)30-29-26(47)17-16(34(52)55-29)15(24(45)27(48)25(17)46)14-7(33(51)56-30)3-10(37)20(41)23(14)44/h1-3,11,26,28-30,35-48H,4H2/t11-,26-,28-,29+,30+/m1/s1

> <PUBCHEM_IUPAC_INCHIKEY>
CHBITXAMNKHJCR-JNUHSSLSSA-N

> <PUBCHEM_XLOGP3_AA>
0.1

> <PUBCHEM_EXACT_MASS>
784.075922

> <PUBCHEM_MOLECULAR_FORMULA>
C34H24O22

> <PUBCHEM_MOLECULAR_WEIGHT>
784.5

> <PUBCHEM_OPENEYE_CAN_SMILES>
C1C(C(OC(=O)C2=CC(=C(C(=C2C3=C(C(=C(C=C3C(=O)O1)O)O)O)O)O)O)C4C5C(C6=C(C(=C(C(=C6C(=O)O5)C7=C(C(=C(C=C7C(=O)O4)O)O)O)O)O)O)O)O

> <PUBCHEM_OPENEYE_ISO_SMILES>
C1[C@H]([C@@H](OC(=O)C2=CC(=C(C(=C2C3=C(C(=C(C=C3C(=O)O1)O)O)O)O)O)O)[C@H]4[C@@H]5[C@@H](C6=C(C(=C(C(=C6C(=O)O5)C7=C(C(=C(C=C7C(=O)O4)O)O)O)O)O)O)O)O

> <PUBCHEM_CACTVS_TPSA>
388

> <PUBCHEM_MONOISOTOPIC_WEIGHT>
784.075922

> <PUBCHEM_TOTAL_CHARGE>
0

> <PUBCHEM_HEAVY_ATOM_COUNT>
56

> <PUBCHEM_ATOM_DEF_STEREO_COUNT>
5

> <PUBCHEM_ATOM_UDEF_STEREO_COUNT>
0

> <PUBCHEM_BOND_DEF_STEREO_COUNT>
0

> <PUBCHEM_BOND_UDEF_STEREO_COUNT>
0

> <PUBCHEM_ISOTOPIC_ATOM_COUNT>
0

> <PUBCHEM_COMPONENT_COUNT>
1

> <PUBCHEM_CACTVS_TAUTO_COUNT>
-1

> <PUBCHEM_COORDINATE_TYPE>
1
5
255

> <PUBCHEM_BONDANNOTATIONS>
23  57  5
24  58  6
26  60  6
27  29  8
27  32  8
29  30  8
30  35  8
32  38  8
34  36  8
34  39  8
35  38  8
36  41  8
39  43  8
25  4  6
41  44  8
42  45  8
42  49  8
43  44  8
45  50  8
47  48  8
47  51  8
48  53  8
49  52  8
28  5  6
50  54  8
51  55  8
52  54  8
53  56  8
55  56  8

$$$$
