129681599
  -OEChem-11202011463D

 75 78  0     1  0  0  0  0  0999 V2000
    0.0849    0.6088   -0.1298 C   0  0  1  0  0  0  0  0  0  0  0  0
    0.7668   -0.7434    0.1614 C   0  0  2  0  0  0  0  0  0  0  0  0
    2.2184   -0.8042   -0.3244 C   0  0  1  0  0  0  0  0  0  0  0  0
    3.0400    0.3327    0.3558 C   0  0  2  0  0  0  0  0  0  0  0  0
   -1.3284    0.2962    0.4201 C   0  0  2  0  0  0  0  0  0  0  0  0
    0.8521    1.6898    0.6441 C   0  0  0  0  0  0  0  0  0  0  0  0
   -0.2292   -1.7720   -0.3652 C   0  0  0  0  0  0  0  0  0  0  0  0
    2.3405    1.7155    0.2542 C   0  0  0  0  0  0  0  0  0  0  0  0
    4.5362    0.3285   -0.1440 C   0  0  2  0  0  0  0  0  0  0  0  0
   -1.6048   -1.1423   -0.0775 C   0  0  0  0  0  0  0  0  0  0  0  0
    2.8409   -2.1778   -0.0295 C   0  0  0  0  0  0  0  0  0  0  0  0
    0.0302    0.9782   -1.6332 C   0  0  0  0  0  0  0  0  0  0  0  0
   -2.4348    1.2736    0.0505 C   0  0  2  0  0  0  0  0  0  0  0  0
    5.1133   -1.0928   -0.0604 C   0  0  0  0  0  0  0  0  0  0  0  0
    5.3864    1.2649    0.7623 C   0  0  0  0  0  0  0  0  0  0  0  0
    4.3377   -2.1909   -0.0274 C   0  0  0  0  0  0  0  0  0  0  0  0
    4.6443    0.8094   -1.6141 C   0  0  0  0  0  0  0  0  0  0  0  0
    6.8907    1.2053    0.4686 C   0  0  0  0  0  0  0  0  0  0  0  0
   -2.1111    2.6805    0.5584 C   0  0  0  0  0  0  0  0  0  0  0  0
   -3.7557    0.8136    0.6182 C   0  0  0  0  0  0  0  0  0  0  0  0
    6.5601   -1.2285    0.0224 C   0  0  0  0  0  0  0  0  0  0  0  0
    7.3788   -0.1916    0.2431 C   0  0  0  0  0  0  0  0  0  0  0  0
   -4.8280    0.5160   -0.1322 C   0  0  0  0  0  0  0  0  0  0  0  0
   -6.1519    0.0504    0.4386 C   0  0  2  0  0  0  0  0  0  0  0  0
   -6.5421   -1.3815   -0.0336 C   0  0  0  0  0  0  0  0  0  0  0  0
   -7.2191    1.1231    0.1270 C   0  0  0  0  0  0  0  0  0  0  0  0
   -5.4478   -2.4048    0.3011 C   0  0  0  0  0  0  0  0  0  0  0  0
   -7.8885   -1.8756    0.5052 C   0  0  0  0  0  0  0  0  0  0  0  0
   -7.4797    1.3191   -1.3600 C   0  0  0  0  0  0  0  0  0  0  0  0
    0.7981   -0.8839    1.2553 H   0  0  0  0  0  0  0  0  0  0  0  0
    2.2340   -0.6687   -1.4109 H   0  0  0  0  0  0  0  0  0  0  0  0
    3.0614    0.0948    1.4320 H   0  0  0  0  0  0  0  0  0  0  0  0
   -1.2651    0.2462    1.5190 H   0  0  0  0  0  0  0  0  0  0  0  0
    0.7750    1.5109    1.7242 H   0  0  0  0  0  0  0  0  0  0  0  0
    0.4635    2.6929    0.4644 H   0  0  0  0  0  0  0  0  0  0  0  0
   -0.1221   -2.7400    0.1350 H   0  0  0  0  0  0  0  0  0  0  0  0
   -0.1028   -1.9391   -1.4407 H   0  0  0  0  0  0  0  0  0  0  0  0
    2.4282    2.1156   -0.7603 H   0  0  0  0  0  0  0  0  0  0  0  0
    2.8451    2.4333    0.9108 H   0  0  0  0  0  0  0  0  0  0  0  0
   -2.2099   -1.1596   -0.9911 H   0  0  0  0  0  0  0  0  0  0  0  0
   -2.1402   -1.7181    0.6858 H   0  0  0  0  0  0  0  0  0  0  0  0
    2.4817   -2.9011   -0.7716 H   0  0  0  0  0  0  0  0  0  0  0  0
    2.5087   -2.5429    0.9507 H   0  0  0  0  0  0  0  0  0  0  0  0
    1.0192    0.9935   -2.0988 H   0  0  0  0  0  0  0  0  0  0  0  0
   -0.3944    1.9759   -1.7835 H   0  0  0  0  0  0  0  0  0  0  0  0
   -0.5774    0.2766   -2.2136 H   0  0  0  0  0  0  0  0  0  0  0  0
   -2.5373    1.3314   -1.0405 H   0  0  0  0  0  0  0  0  0  0  0  0
    5.2294    0.9903    1.8151 H   0  0  0  0  0  0  0  0  0  0  0  0
    5.0620    2.3074    0.6645 H   0  0  0  0  0  0  0  0  0  0  0  0
    4.7949   -3.1755    0.0500 H   0  0  0  0  0  0  0  0  0  0  0  0
    4.3860    1.8688   -1.7105 H   0  0  0  0  0  0  0  0  0  0  0  0
    3.9902    0.2424   -2.2834 H   0  0  0  0  0  0  0  0  0  0  0  0
    5.6595    0.6997   -2.0123 H   0  0  0  0  0  0  0  0  0  0  0  0
    7.4329    1.6466    1.3130 H   0  0  0  0  0  0  0  0  0  0  0  0
    7.1305    1.8113   -0.4127 H   0  0  0  0  0  0  0  0  0  0  0  0
   -1.7002    2.6723    1.5734 H   0  0  0  0  0  0  0  0  0  0  0  0
   -3.0172    3.2990    0.5857 H   0  0  0  0  0  0  0  0  0  0  0  0
   -1.4268    3.2031   -0.1133 H   0  0  0  0  0  0  0  0  0  0  0  0
   -3.8270    0.7371    1.7009 H   0  0  0  0  0  0  0  0  0  0  0  0
    6.9902   -2.2201   -0.0908 H   0  0  0  0  0  0  0  0  0  0  0  0
    8.4513   -0.3604    0.2761 H   0  0  0  0  0  0  0  0  0  0  0  0
   -4.7419    0.5763   -1.2141 H   0  0  0  0  0  0  0  0  0  0  0  0
   -6.0658    0.0118    1.5343 H   0  0  0  0  0  0  0  0  0  0  0  0
   -6.6224   -1.3764   -1.1288 H   0  0  0  0  0  0  0  0  0  0  0  0
   -8.1606    0.8732    0.6288 H   0  0  0  0  0  0  0  0  0  0  0  0
   -6.9026    2.0846    0.5531 H   0  0  0  0  0  0  0  0  0  0  0  0
   -5.7520   -3.4132   -0.0002 H   0  0  0  0  0  0  0  0  0  0  0  0
   -4.5159   -2.1838   -0.2267 H   0  0  0  0  0  0  0  0  0  0  0  0
   -5.2405   -2.4229    1.3763 H   0  0  0  0  0  0  0  0  0  0  0  0
   -8.7162   -1.2632    0.1359 H   0  0  0  0  0  0  0  0  0  0  0  0
   -7.9047   -1.8521    1.5998 H   0  0  0  0  0  0  0  0  0  0  0  0
   -8.0841   -2.9051    0.1859 H   0  0  0  0  0  0  0  0  0  0  0  0
   -6.5976    1.6823   -1.8941 H   0  0  0  0  0  0  0  0  0  0  0  0
   -7.8272    0.4000   -1.8394 H   0  0  0  0  0  0  0  0  0  0  0  0
   -8.2657    2.0703   -1.4951 H   0  0  0  0  0  0  0  0  0  0  0  0
  1  2  1  0  0  0  0
  1  5  1  0  0  0  0
  1  6  1  0  0  0  0
  1 12  1  0  0  0  0
  2  3  1  0  0  0  0
  2  7  1  0  0  0  0
  2 30  1  0  0  0  0
  3  4  1  0  0  0  0
  3 11  1  0  0  0  0
  3 31  1  0  0  0  0
  4  8  1  0  0  0  0
  4  9  1  0  0  0  0
  4 32  1  0  0  0  0
  5 10  1  0  0  0  0
  5 13  1  0  0  0  0
  5 33  1  0  0  0  0
  6  8  1  0  0  0  0
  6 34  1  0  0  0  0
  6 35  1  0  0  0  0
  7 10  1  0  0  0  0
  7 36  1  0  0  0  0
  7 37  1  0  0  0  0
  8 38  1  0  0  0  0
  8 39  1  0  0  0  0
  9 14  1  0  0  0  0
  9 15  1  0  0  0  0
  9 17  1  0  0  0  0
 10 40  1  0  0  0  0
 10 41  1  0  0  0  0
 11 16  1  0  0  0  0
 11 42  1  0  0  0  0
 11 43  1  0  0  0  0
 12 44  1  0  0  0  0
 12 45  1  0  0  0  0
 12 46  1  0  0  0  0
 13 19  1  0  0  0  0
 13 20  1  0  0  0  0
 13 47  1  0  0  0  0
 14 16  2  0  0  0  0
 14 21  1  0  0  0  0
 15 18  1  0  0  0  0
 15 48  1  0  0  0  0
 15 49  1  0  0  0  0
 16 50  1  0  0  0  0
 17 51  1  0  0  0  0
 17 52  1  0  0  0  0
 17 53  1  0  0  0  0
 18 22  1  0  0  0  0
 18 54  1  0  0  0  0
 18 55  1  0  0  0  0
 19 56  1  0  0  0  0
 19 57  1  0  0  0  0
 19 58  1  0  0  0  0
 20 23  2  3  0  0  0
 20 59  1  0  0  0  0
 21 22  2  0  0  0  0
 21 60  1  0  0  0  0
 22 61  1  0  0  0  0
 23 24  1  0  0  0  0
 23 62  1  0  0  0  0
 24 25  1  0  0  0  0
 24 26  1  0  0  0  0
 24 63  1  0  0  0  0
 25 27  1  0  0  0  0
 25 28  1  0  0  0  0
 25 64  1  0  0  0  0
 26 29  1  0  0  0  0
 26 65  1  0  0  0  0
 26 66  1  0  0  0  0
 27 67  1  0  0  0  0
 27 68  1  0  0  0  0
 27 71  1  0  0  0  0
 28 69  1  0  0  0  0
 28 70  1  0  0  0  0
 28 72  1  0  0  0  0
 29 73  1  0  0  0  0
 29 74  1  0  0  0  0
 29 75  1  0  0  0  0
M  END
> <PUBCHEM_COMPOUND_CID>
129681599

> <PUBCHEM_CONFORMER_RMSD>
0.8

> <PUBCHEM_CONFORMER_DIVERSEORDER>
3
16
29
23
32
30
26
28
21
1
14
11
27
8
24
7
2
15
18
31
17
12
20
10
5
19
9
22
6
25
4
13

> <PUBCHEM_MMFF94_PARTIAL_CHARGES>
16
11 0.14
13 0.14
14 -0.14
16 -0.29
18 0.14
20 -0.29
21 -0.15
22 -0.29
23 -0.29
24 0.14
50 0.15
59 0.15
60 0.15
61 0.15
62 0.15
9 0.14

> <PUBCHEM_EFFECTIVE_ROTOR_COUNT>
6.6

> <PUBCHEM_PHARMACOPHORE_FEATURES>
8
1 19 hydrophobe
1 29 hydrophobe
3 25 27 28 hydrophobe
4 23 24 25 26 hydrophobe
5 1 2 5 7 10 rings
6 1 2 3 4 6 8 rings
6 3 4 9 11 14 16 rings
6 9 14 15 18 21 22 rings

> <PUBCHEM_HEAVY_ATOM_COUNT>
29

> <PUBCHEM_ATOM_DEF_STEREO_COUNT>
8

> <PUBCHEM_ATOM_UDEF_STEREO_COUNT>
0

> <PUBCHEM_BOND_DEF_STEREO_COUNT>
0

> <PUBCHEM_BOND_UDEF_STEREO_COUNT>
1

> <PUBCHEM_ISOTOPIC_ATOM_COUNT>
0

> <PUBCHEM_COMPONENT_COUNT>
1

> <PUBCHEM_CACTVS_TAUTO_COUNT>
1

> <PUBCHEM_CONFORMER_ID>
07BAC8BF00000003

> <PUBCHEM_MMFF94_ENERGY>
80.0112

> <PUBCHEM_FEATURE_SELFOVERLAP>
40.912

> <PUBCHEM_SHAPE_FINGERPRINT>
10 15 18335697274425318112
10050765 1 18124034520676479081
10835480 77 18410006599494150669
11135926 11 18409728427394711399
11315181 36 17917992772836695593
11578080 2 16628816599754145114
11719270 70 18341610404007880902
11724838 91 18334858329461855742
11963148 33 18410568492010800655
12166972 35 18113904892176083781
12236239 1 18260551130169543973
12516196 113 18342459244216699121
12838862 33 18341596119547606024
13811026 1 18409728461364033495
13914758 101 16588302748586729093
14251764 18 18343584061770521582
14394314 77 18410015395566054609
14849402 71 17988363783745048225
14856354 85 15051727617082389053
15131766 46 16517959461170664740
15183329 4 17418370290231971365
15352257 5 18409731772694342915
15840311 113 18113904897367707268
15849732 13 18408603669173495469
15927050 60 17625254599804277364
16087824 20 18339924802377438065
18335252 98 18412829104996364651
18608769 82 18413103991492950947
18681886 176 18410568518264816697
19841028 212 18114176368574710674
20028762 73 18344146990650923271
21130935 74 18272092651781104074
21223535 225 15719382911991954191
21267235 1 18343588413242435350
21792934 111 18269824355588326608
22149856 69 18201733816282357227
22224240 67 18334855039543040712
23522609 53 18123504689412089065
23559900 14 18411975893449453065
23569917 315 18410019801855256322
3004659 81 18187362143077769905
3178227 256 18201165429259112907
335352 9 18413669123390128436
34797466 226 17060625508060624444
350125 39 18341892995659757641
4073 2 18186806915127822771
4325135 7 18411136917935585468
4340502 62 18411981356399582686
465052 167 18202286896168777820
5104073 3 18200030633947506040
59755656 215 18410855422053724567
6009941 240 18040152916802872683

> <PUBCHEM_SHAPE_MULTIPOLES>
596.81
22.1
2.44
0.97
17.37
0.48
-0.33
3.3
0.59
1.22
0.2
0.05
-0.32
0.82

> <PUBCHEM_SHAPE_SELFOVERLAP>
1240.631

> <PUBCHEM_SHAPE_VOLUME>
336.1

> <PUBCHEM_COORDINATE_TYPE>
2
5
10

$$$$
