129848017
  -OEChem-11212003253D

 38 39  0     1  0  0  0  0  0999 V2000
   -2.0037    2.5699   -1.5560 O   0  0  0  0  0  0  0  0  0  0  0  0
   -0.5111    3.5158    0.5763 O   0  0  0  0  0  0  0  0  0  0  0  0
    0.2473    1.9815   -2.6170 O   0  0  0  0  0  0  0  0  0  0  0  0
   -0.5932    1.9164    2.9032 O   0  0  0  0  0  0  0  0  0  0  0  0
   -3.2822   -2.0902   -0.2955 O   0  0  0  0  0  0  0  0  0  0  0  0
   -1.6803   -2.7353    1.2464 O   0  0  0  0  0  0  0  0  0  0  0  0
    3.9350    0.6945    1.2926 O   0  0  0  0  0  0  0  0  0  0  0  0
    2.0320   -3.0152   -1.0645 O   0  0  0  0  0  0  0  0  0  0  0  0
    3.9512   -2.0013    0.6558 O   0  0  0  0  0  0  0  0  0  0  0  0
   -1.2634    1.6089   -0.8136 C   0  0  2  0  0  0  0  0  0  0  0  0
   -2.0632    0.2878   -0.7546 C   0  0  0  0  0  0  0  0  0  0  0  0
   -0.8927    2.1888    0.5343 C   0  0  0  0  0  0  0  0  0  0  0  0
   -1.8530   -0.4882    0.5124 C   0  0  0  0  0  0  0  0  0  0  0  0
    0.0342    1.4108   -1.5498 C   0  0  0  0  0  0  0  0  0  0  0  0
   -0.9333    1.4424    1.6578 C   0  0  0  0  0  0  0  0  0  0  0  0
   -1.3242    0.0499    1.6197 C   0  0  0  0  0  0  0  0  0  0  0  0
    1.0676    0.5090   -0.9668 C   0  0  0  0  0  0  0  0  0  0  0  0
   -2.2379   -1.9004    0.5507 C   0  0  0  0  0  0  0  0  0  0  0  0
    1.0716   -0.8482   -1.2883 C   0  0  0  0  0  0  0  0  0  0  0  0
    2.0319    1.0231   -0.0998 C   0  0  0  0  0  0  0  0  0  0  0  0
    3.0001    0.1800    0.4456 C   0  0  0  0  0  0  0  0  0  0  0  0
    2.0399   -1.6914   -0.7431 C   0  0  0  0  0  0  0  0  0  0  0  0
    3.0039   -1.1772    0.1241 C   0  0  0  0  0  0  0  0  0  0  0  0
   -3.7764   -3.4314   -0.3700 C   0  0  0  0  0  0  0  0  0  0  0  0
   -1.8323   -0.3310   -1.6307 H   0  0  0  0  0  0  0  0  0  0  0  0
   -3.1354    0.5172   -0.8340 H   0  0  0  0  0  0  0  0  0  0  0  0
   -1.1866   -0.5406    2.5207 H   0  0  0  0  0  0  0  0  0  0  0  0
   -2.2630    2.1643   -2.4013 H   0  0  0  0  0  0  0  0  0  0  0  0
    0.3286   -1.2481   -1.9736 H   0  0  0  0  0  0  0  0  0  0  0  0
    2.0393    2.0834    0.1408 H   0  0  0  0  0  0  0  0  0  0  0  0
   -0.3022    3.7379    1.5004 H   0  0  0  0  0  0  0  0  0  0  0  0
   -0.7074    1.2103    3.5613 H   0  0  0  0  0  0  0  0  0  0  0  0
   -4.6085   -3.4483   -1.0789 H   0  0  0  0  0  0  0  0  0  0  0  0
   -4.1420   -3.7551    0.6092 H   0  0  0  0  0  0  0  0  0  0  0  0
   -2.9926   -4.1038   -0.7318 H   0  0  0  0  0  0  0  0  0  0  0  0
    3.7750    1.6477    1.4007 H   0  0  0  0  0  0  0  0  0  0  0  0
    1.2923   -3.1900   -1.6714 H   0  0  0  0  0  0  0  0  0  0  0  0
    4.5312   -1.4718    1.2302 H   0  0  0  0  0  0  0  0  0  0  0  0
  1 10  1  0  0  0  0
  1 28  1  0  0  0  0
  2 12  1  0  0  0  0
  2 31  1  0  0  0  0
  3 14  2  0  0  0  0
  4 15  1  0  0  0  0
  4 32  1  0  0  0  0
  5 18  1  0  0  0  0
  5 24  1  0  0  0  0
  6 18  2  0  0  0  0
  7 21  1  0  0  0  0
  7 36  1  0  0  0  0
  8 22  1  0  0  0  0
  8 37  1  0  0  0  0
  9 23  1  0  0  0  0
  9 38  1  0  0  0  0
 10 11  1  0  0  0  0
 10 12  1  0  0  0  0
 10 14  1  0  0  0  0
 11 13  1  0  0  0  0
 11 25  1  0  0  0  0
 11 26  1  0  0  0  0
 12 15  2  0  0  0  0
 13 16  2  0  0  0  0
 13 18  1  0  0  0  0
 14 17  1  0  0  0  0
 15 16  1  0  0  0  0
 16 27  1  0  0  0  0
 17 19  2  0  0  0  0
 17 20  1  0  0  0  0
 19 22  1  0  0  0  0
 19 29  1  0  0  0  0
 20 21  2  0  0  0  0
 20 30  1  0  0  0  0
 21 23  1  0  0  0  0
 22 23  2  0  0  0  0
 24 33  1  0  0  0  0
 24 34  1  0  0  0  0
 24 35  1  0  0  0  0
M  END
> <PUBCHEM_COMPOUND_CID>
129848017

> <PUBCHEM_CONFORMER_RMSD>
0.8

> <PUBCHEM_CONFORMER_DIVERSEORDER>
1
32
35
22
29
7
36
10
31
30
27
33
20
19
2
13
8
6
37
26
3
11
28
14
16
12
18
23
34
5
4
15
25
17
24
9
21

> <PUBCHEM_MMFF94_PARTIAL_CHARGES>
33
1 -0.68
10 0.48
11 0.14
12 -0.06
13 -0.12
14 0.42
15 0.08
16 -0.15
17 0.09
18 0.71
19 -0.15
2 -0.53
20 -0.15
21 0.08
22 0.08
23 0.08
24 0.28
27 0.15
28 0.4
29 0.15
3 -0.57
30 0.15
31 0.45
32 0.45
36 0.45
37 0.45
38 0.45
4 -0.53
5 -0.43
6 -0.57
7 -0.53
8 -0.53
9 -0.53

> <PUBCHEM_EFFECTIVE_ROTOR_COUNT>
4.4

> <PUBCHEM_PHARMACOPHORE_FEATURES>
11
1 1 acceptor
1 1 donor
1 2 donor
1 3 acceptor
1 4 donor
1 6 acceptor
1 7 donor
1 8 donor
1 9 donor
6 10 11 12 13 15 16 rings
6 17 19 20 21 22 23 rings

> <PUBCHEM_HEAVY_ATOM_COUNT>
24

> <PUBCHEM_ATOM_DEF_STEREO_COUNT>
0

> <PUBCHEM_ATOM_UDEF_STEREO_COUNT>
1

> <PUBCHEM_BOND_DEF_STEREO_COUNT>
0

> <PUBCHEM_BOND_UDEF_STEREO_COUNT>
0

> <PUBCHEM_ISOTOPIC_ATOM_COUNT>
0

> <PUBCHEM_COMPONENT_COUNT>
1

> <PUBCHEM_CACTVS_TAUTO_COUNT>
154

> <PUBCHEM_CONFORMER_ID>
07BD52D100000001

> <PUBCHEM_MMFF94_ENERGY>
61.4498

> <PUBCHEM_FEATURE_SELFOVERLAP>
55.856

> <PUBCHEM_SHAPE_FINGERPRINT>
11578080 2 18269834392927605129
12553582 1 18043269004905361519
12633257 1 18198629830759710242
13004483 165 18261095405173210698
13083527 12 18044929310565768756
14223421 5 18272373044863450926
14787075 74 17482837057802773652
14817 1 16888851009286190657
16945 1 18340216180361277636
18981168 100 13398353395913304840
19930381 70 16754093433914479059
20600515 1 18188777265502440262
20626108 58 17975405030094670851
21421861 104 17767717162248453963
21452121 199 17899124190318787909
21731516 1 17677922117275600850
23419403 2 17985235673369148793
23559900 14 18339348691868079672
23728640 28 17461158747136336706
257057 1 18336548321377258119
3060560 45 11171287259419427747
35225 105 17268397913357207043
3797600 57 17131280180847957810
568465 68 18128250297164956770
5845 1 18261976092548827781
81228 2 18189632574085259491
9981440 41 17341487970710641138

> <PUBCHEM_SHAPE_MULTIPOLES>
441.08
5.2
3.87
1.96
1.37
0.58
-0.24
5.19
-0.84
-1.91
0.25
-0.13
-1.33
0.17

> <PUBCHEM_SHAPE_SELFOVERLAP>
959.898

> <PUBCHEM_SHAPE_VOLUME>
237.4

> <PUBCHEM_COORDINATE_TYPE>
2
5
10

$$$$
