160487
  -OEChem-11212003343D

 40 42  0     1  0  0  0  0  0999 V2000
    5.2783   -0.6103    0.2405 O   0  0  0  0  0  0  0  0  0  0  0  0
    3.4349   -2.6859    0.1771 O   0  0  0  0  0  0  0  0  0  0  0  0
   -6.5641   -0.5696    0.5143 O   0  0  0  0  0  0  0  0  0  0  0  0
   -0.6155    1.9370   -0.1723 N   0  0  0  0  0  0  0  0  0  0  0  0
   -0.3071    0.5257    0.1315 C   0  0  2  0  0  0  0  0  0  0  0  0
    1.1844    0.2151    0.1360 C   0  0  0  0  0  0  0  0  0  0  0  0
    2.1272    1.2609    0.2113 C   0  0  0  0  0  0  0  0  0  0  0  0
    1.6779    2.6994    0.2249 C   0  0  0  0  0  0  0  0  0  0  0  0
    0.2122    2.8374    0.6263 C   0  0  0  0  0  0  0  0  0  0  0  0
   -1.1004   -0.3231   -0.8705 C   0  0  0  0  0  0  0  0  0  0  0  0
    1.6504   -1.1096    0.1458 C   0  0  0  0  0  0  0  0  0  0  0  0
    3.4994    0.9707    0.2309 C   0  0  0  0  0  0  0  0  0  0  0  0
   -2.5543   -0.3885   -0.5019 C   0  0  0  0  0  0  0  0  0  0  0  0
    3.0180   -1.3888    0.1781 C   0  0  0  0  0  0  0  0  0  0  0  0
    3.9420   -0.3497    0.2138 C   0  0  0  0  0  0  0  0  0  0  0  0
   -3.0067   -1.4035    0.3323 C   0  0  0  0  0  0  0  0  0  0  0  0
   -3.4329    0.5669   -0.9990 C   0  0  0  0  0  0  0  0  0  0  0  0
   -4.3575   -1.4644    0.6746 C   0  0  0  0  0  0  0  0  0  0  0  0
   -4.7838    0.5061   -0.6567 C   0  0  0  0  0  0  0  0  0  0  0  0
   -5.2461   -0.5096    0.1802 C   0  0  0  0  0  0  0  0  0  0  0  0
    5.9436   -0.7162   -1.0170 C   0  0  0  0  0  0  0  0  0  0  0  0
   -0.6555    0.3143    1.1531 H   0  0  0  0  0  0  0  0  0  0  0  0
    2.2921    3.2770    0.9260 H   0  0  0  0  0  0  0  0  0  0  0  0
    1.8303    3.1171   -0.7783 H   0  0  0  0  0  0  0  0  0  0  0  0
    0.0775    2.6322    1.6959 H   0  0  0  0  0  0  0  0  0  0  0  0
   -0.1095    3.8711    0.4572 H   0  0  0  0  0  0  0  0  0  0  0  0
   -0.7370   -1.3540   -0.9375 H   0  0  0  0  0  0  0  0  0  0  0  0
   -0.9835    0.0641   -1.8932 H   0  0  0  0  0  0  0  0  0  0  0  0
   -1.5943    2.1245    0.0402 H   0  0  0  0  0  0  0  0  0  0  0  0
    0.9553   -1.9447    0.1539 H   0  0  0  0  0  0  0  0  0  0  0  0
    4.2242    1.7811    0.2658 H   0  0  0  0  0  0  0  0  0  0  0  0
   -2.3230   -2.1510    0.7254 H   0  0  0  0  0  0  0  0  0  0  0  0
   -3.0903    1.3568   -1.6615 H   0  0  0  0  0  0  0  0  0  0  0  0
   -4.7116   -2.2577    1.3274 H   0  0  0  0  0  0  0  0  0  0  0  0
   -5.4662    1.2544   -1.0507 H   0  0  0  0  0  0  0  0  0  0  0  0
    4.4053   -2.6990    0.2419 H   0  0  0  0  0  0  0  0  0  0  0  0
    5.8965    0.2361   -1.5546 H   0  0  0  0  0  0  0  0  0  0  0  0
    5.5019   -1.5123   -1.6246 H   0  0  0  0  0  0  0  0  0  0  0  0
    6.9928   -0.9606   -0.8297 H   0  0  0  0  0  0  0  0  0  0  0  0
   -7.0318    0.1673    0.0848 H   0  0  0  0  0  0  0  0  0  0  0  0
  1 15  1  0  0  0  0
  1 21  1  0  0  0  0
  2 14  1  0  0  0  0
  2 36  1  0  0  0  0
  3 20  1  0  0  0  0
  3 40  1  0  0  0  0
  4  5  1  0  0  0  0
  4  9  1  0  0  0  0
  4 29  1  0  0  0  0
  5  6  1  0  0  0  0
  5 10  1  0  0  0  0
  5 22  1  0  0  0  0
  6  7  1  0  0  0  0
  6 11  2  0  0  0  0
  7  8  1  0  0  0  0
  7 12  2  0  0  0  0
  8  9  1  0  0  0  0
  8 23  1  0  0  0  0
  8 24  1  0  0  0  0
  9 25  1  0  0  0  0
  9 26  1  0  0  0  0
 10 13  1  0  0  0  0
 10 27  1  0  0  0  0
 10 28  1  0  0  0  0
 11 14  1  0  0  0  0
 11 30  1  0  0  0  0
 12 15  1  0  0  0  0
 12 31  1  0  0  0  0
 13 16  2  0  0  0  0
 13 17  1  0  0  0  0
 14 15  2  0  0  0  0
 16 18  1  0  0  0  0
 16 32  1  0  0  0  0
 17 19  2  0  0  0  0
 17 33  1  0  0  0  0
 18 20  2  0  0  0  0
 18 34  1  0  0  0  0
 19 20  1  0  0  0  0
 19 35  1  0  0  0  0
 21 37  1  0  0  0  0
 21 38  1  0  0  0  0
 21 39  1  0  0  0  0
M  END
> <PUBCHEM_COMPOUND_CID>
160487

> <PUBCHEM_CONFORMER_RMSD>
0.6

> <PUBCHEM_CONFORMER_DIVERSEORDER>
2
8
10
12
4
11
9
13
1
3
6
5
7

> <PUBCHEM_MMFF94_PARTIAL_CHARGES>
30
1 -0.36
10 0.14
11 -0.15
12 -0.15
13 -0.14
14 0.08
15 0.08
16 -0.15
17 -0.15
18 -0.15
19 -0.15
2 -0.53
20 0.08
21 0.28
29 0.36
3 -0.53
30 0.15
31 0.15
32 0.15
33 0.15
34 0.15
35 0.15
36 0.45
4 -0.9
40 0.45
5 0.41
6 -0.14
7 -0.14
8 0.14
9 0.27

> <PUBCHEM_EFFECTIVE_ROTOR_COUNT>
3.8

> <PUBCHEM_PHARMACOPHORE_FEATURES>
8
1 1 acceptor
1 2 donor
1 3 donor
1 4 cation
1 4 donor
6 13 16 17 18 19 20 rings
6 4 5 6 7 8 9 rings
6 6 7 11 12 14 15 rings

> <PUBCHEM_HEAVY_ATOM_COUNT>
21

> <PUBCHEM_ATOM_DEF_STEREO_COUNT>
1

> <PUBCHEM_ATOM_UDEF_STEREO_COUNT>
0

> <PUBCHEM_BOND_DEF_STEREO_COUNT>
0

> <PUBCHEM_BOND_UDEF_STEREO_COUNT>
0

> <PUBCHEM_ISOTOPIC_ATOM_COUNT>
0

> <PUBCHEM_COMPONENT_COUNT>
1

> <PUBCHEM_CACTVS_TAUTO_COUNT>
6

> <PUBCHEM_CONFORMER_ID>
000272E700000002

> <PUBCHEM_MMFF94_ENERGY>
64.5031

> <PUBCHEM_FEATURE_SELFOVERLAP>
40.618

> <PUBCHEM_SHAPE_FINGERPRINT>
11128504 68 15213020461827166190
12107183 9 18054234228822242915
12236239 1 17418093252046219299
12516196 113 18342454846064510947
12553582 1 18342161263949838222
12596602 18 16988556965665983411
12788726 201 18265891371956331624
12841375 25 18411418410335089536
13140716 1 18052525858119424912
13402501 40 18333732429180811203
13533116 47 18341049735535980155
13685833 64 18335704957615291163
13740256 8 18408605893845377915
14252887 29 17917714587108724822
14341114 176 18410015476732485553
14386348 63 18333731320994625347
14617045 38 18334018284865979491
14790565 3 17544759392432608388
14866123 147 17475794256361742123
15196674 1 18338232777301147429
15527383 91 18272651268159554577
15537594 2 18343300366538962054
15927050 60 17837209647435731836
17349148 13 17060335258344123277
17492 89 18050001096134401962
17844677 252 18335425672940299045
1813 80 17988095425735134836
18222031 100 18059564789457254310
18785283 64 18045215191994834764
19141452 34 17561358513222942606
200 152 18272084985290315080
20197701 30 8934998166030795324
20645477 70 18343018917025528255
21033648 29 18041821996865538789
21033650 10 16155119262151570574
21054139 6 10953751044438400121
21065198 57 18336826502662451449
21250096 35 18412821374044324978
21267235 1 18413113844490695790
21279426 13 18191581948446025103
21641784 216 18115604659933002428
21792961 116 18188765046842482302
221357 26 18408035213377968357
221490 88 18263084464619990176
2215653 11 18335691742180152759
22182313 1 18195781077795017052
22950370 63 18411703162239835358
23557571 272 18129666284064892596
23559900 14 18262795284688591985
239999 70 18413392051461673878
2871803 45 18410291381336910870
3004659 81 18113899355967863910
314173 41 18411420626611742662
3323516 105 18259980500540316963
3421961 26 18411978096018492096
345986 75 17988354854312328235
4214541 1 18408038507749824621
46194498 28 17676208008697177004
465052 167 18272093815743381222
5104073 3 18198895921242356824
59755656 215 18410296874521591606
7495541 125 18040715900303337132
8863177 126 18043259135503285915
9709674 26 18044938111280961859

> <PUBCHEM_SHAPE_MULTIPOLES>
409.58
12.72
2.39
0.85
5.87
1.15
0.12
-5.87
0.49
-1.64
-0.45
0.19
-0.01
0.73

> <PUBCHEM_SHAPE_SELFOVERLAP>
884.574

> <PUBCHEM_SHAPE_VOLUME>
224.3

> <PUBCHEM_COORDINATE_TYPE>
2
5
10

$$$$
