9286
  -OEChem-11212003423D

 26 28  0     0  0  0  0  0  0999 V2000
    0.0000    1.1456    0.0002 N   0  3  0  0  0  0  0  0  0  0  0  0
    0.0000   -1.5853    0.0003 N   0  0  0  0  0  0  0  0  0  0  0  0
    1.1796    0.5007    0.0003 C   0  0  0  0  0  0  0  0  0  0  0  0
   -1.1797    0.5006    0.0002 C   0  0  0  0  0  0  0  0  0  0  0  0
    1.1613   -0.9058    0.0003 C   0  0  0  0  0  0  0  0  0  0  0  0
   -1.1613   -0.9058    0.0003 C   0  0  0  0  0  0  0  0  0  0  0  0
    0.0000    2.6219    0.0003 C   0  0  0  0  0  0  0  0  0  0  0  0
    2.3824    1.2154    0.0000 C   0  0  0  0  0  0  0  0  0  0  0  0
   -2.3825    1.2153   -0.0001 C   0  0  0  0  0  0  0  0  0  0  0  0
    2.3860   -1.5671    0.0000 C   0  0  0  0  0  0  0  0  0  0  0  0
   -2.3860   -1.5672    0.0000 C   0  0  0  0  0  0  0  0  0  0  0  0
    3.5922    0.5287   -0.0006 C   0  0  0  0  0  0  0  0  0  0  0  0
   -3.5921    0.5288   -0.0005 C   0  0  0  0  0  0  0  0  0  0  0  0
    3.5939   -0.8629   -0.0003 C   0  0  0  0  0  0  0  0  0  0  0  0
   -3.5939   -0.8629   -0.0003 C   0  0  0  0  0  0  0  0  0  0  0  0
   -0.8401    3.0317    0.5602 H   0  0  0  0  0  0  0  0  0  0  0  0
    0.8399    3.0316    0.5605 H   0  0  0  0  0  0  0  0  0  0  0  0
    0.0002    2.9660   -1.0367 H   0  0  0  0  0  0  0  0  0  0  0  0
    2.4652    2.2934   -0.0482 H   0  0  0  0  0  0  0  0  0  0  0  0
   -2.4652    2.2934   -0.0484 H   0  0  0  0  0  0  0  0  0  0  0  0
    2.4143   -2.6550   -0.0006 H   0  0  0  0  0  0  0  0  0  0  0  0
   -2.4143   -2.6550   -0.0007 H   0  0  0  0  0  0  0  0  0  0  0  0
    4.5312    1.0740   -0.0120 H   0  0  0  0  0  0  0  0  0  0  0  0
   -4.5311    1.0741   -0.0117 H   0  0  0  0  0  0  0  0  0  0  0  0
    4.5355   -1.4046   -0.0031 H   0  0  0  0  0  0  0  0  0  0  0  0
   -4.5355   -1.4046   -0.0031 H   0  0  0  0  0  0  0  0  0  0  0  0
  1  3  2  0  0  0  0
  1  4  1  0  0  0  0
  1  7  1  0  0  0  0
  2  5  2  0  0  0  0
  2  6  1  0  0  0  0
  3  5  1  0  0  0  0
  3  8  1  0  0  0  0
  4  6  1  0  0  0  0
  4  9  2  0  0  0  0
  5 10  1  0  0  0  0
  6 11  2  0  0  0  0
  7 16  1  0  0  0  0
  7 17  1  0  0  0  0
  7 18  1  0  0  0  0
  8 12  2  0  0  0  0
  8 19  1  0  0  0  0
  9 13  1  0  0  0  0
  9 20  1  0  0  0  0
 10 14  2  0  0  0  0
 10 21  1  0  0  0  0
 11 15  1  0  0  0  0
 11 22  1  0  0  0  0
 12 14  1  0  0  0  0
 12 23  1  0  0  0  0
 13 15  2  0  0  0  0
 13 24  1  0  0  0  0
 14 25  1  0  0  0  0
 15 26  1  0  0  0  0
M  CHG  1   1   1
M  END
> <PUBCHEM_COMPOUND_CID>
9286

> <PUBCHEM_CONFORMER_RMSD>
0.4

> <PUBCHEM_CONFORMER_DIVERSEORDER>
1

> <PUBCHEM_MMFF94_PARTIAL_CHARGES>
23
1 -0.21
10 -0.15
11 -0.15
12 -0.15
13 -0.15
14 -0.15
15 -0.15
19 0.15
2 -0.62
20 0.15
21 0.15
22 0.15
23 0.15
24 0.15
25 0.15
26 0.15
3 0.36
4 0.36
5 0.31
6 0.31
7 0.49
8 -0.15
9 -0.15

> <PUBCHEM_EFFECTIVE_ROTOR_COUNT>
0

> <PUBCHEM_PHARMACOPHORE_FEATURES>
4
1 2 acceptor
6 1 2 3 4 5 6 rings
6 3 5 8 10 12 14 rings
6 4 6 9 11 13 15 rings

> <PUBCHEM_HEAVY_ATOM_COUNT>
15

> <PUBCHEM_ATOM_DEF_STEREO_COUNT>
0

> <PUBCHEM_ATOM_UDEF_STEREO_COUNT>
0

> <PUBCHEM_BOND_DEF_STEREO_COUNT>
0

> <PUBCHEM_BOND_UDEF_STEREO_COUNT>
0

> <PUBCHEM_ISOTOPIC_ATOM_COUNT>
0

> <PUBCHEM_COMPONENT_COUNT>
1

> <PUBCHEM_CACTVS_TAUTO_COUNT>
1

> <PUBCHEM_CONFORMER_ID>
0000244600000001

> <PUBCHEM_MMFF94_ENERGY>
63.7745

> <PUBCHEM_FEATURE_SELFOVERLAP>
20.366

> <PUBCHEM_SHAPE_FINGERPRINT>
10608611 8 18410570690911859905
10967382 1 18410575110459347398
11132069 177 18411975858245227928
11471102 20 18410569591399946495
11806522 49 18338513174610617863
12032990 46 18410579487004771683
12382932 28 18412545392325517744
13140716 1 18410575041723994898
13221675 6 18410573985151626530
13296908 3 18410576184180202307
13380535 76 18410573989446886151
14144814 61 18410856559671496707
14325111 11 18410855464428462304
15196674 1 18410855460128200775
15442244 35 18194401083111217386
15536298 74 18343302574283396882
16945 1 18410855460128233252
17844478 74 17968100806773264069
18186145 218 17967248680724300670
193761 8 17690280404564996871
200 152 18059847394606436895
20201158 50 18410011030929683163
20510252 161 18272088240833639552
20645477 70 18340483379088495967
21029758 11 18342167882668507929
21267235 1 18410583885051516642
21501502 16 18410856551055155722
221490 88 18191594252936809018
2334 1 18410575119022940706
23402539 116 18271515438219706486
23402655 69 18341036425437851781
23463225 33 18409167705658625204
23559900 14 18341045217151347730
2748010 2 18411417310580530982
3071541 158 18260828241090671741
3312278 4 18410295808714918193
335352 9 18050568439131582719
34934 24 18411127043795235242
5104073 3 18410573989446445410
528886 8 18411414007761262378
537710 114 18409454703810622636
53812653 166 18270959145597592672
63268167 104 18411704300516828393
69090 78 18343577443569004815
7364860 26 18197216073096052464
8809292 202 18260834820985811403
9709674 26 18411423924952122694

> <PUBCHEM_SHAPE_MULTIPOLES>
298.73
6.11
2.11
0.61
0
0.65
0
-0.98
0
0
0
0
0
0

> <PUBCHEM_SHAPE_SELFOVERLAP>
674.999

> <PUBCHEM_SHAPE_VOLUME>
157.2

> <PUBCHEM_COORDINATE_TYPE>
2
5
10

$$$$
