20055771
  -OEChem-08242016463D

 88 94  0     1  0  0  0  0  0999 V2000
    1.4038    1.2906    1.2559 O   0  0  0  0  0  0  0  0  0  0  0  0
   -1.8463    2.5471    1.4725 O   0  0  0  0  0  0  0  0  0  0  0  0
   -2.6545   -2.6492   -1.5422 O   0  0  0  0  0  0  0  0  0  0  0  0
    3.1891   -0.1911   -0.7274 O   0  0  0  0  0  0  0  0  0  0  0  0
    2.3129   -2.9263   -1.7755 O   0  0  0  0  0  0  0  0  0  0  0  0
    0.7629   -1.5001    2.5986 O   0  0  0  0  0  0  0  0  0  0  0  0
    2.8438   -2.8968    0.7972 O   0  0  0  0  0  0  0  0  0  0  0  0
   -6.1236    0.3793   -0.6804 O   0  0  0  0  0  0  0  0  0  0  0  0
   -4.3496    3.1310   -1.1539 O   0  0  0  0  0  0  0  0  0  0  0  0
    3.5870    1.3854   -2.3571 O   0  0  0  0  0  0  0  0  0  0  0  0
   -3.0624   -0.8521    1.4177 N   0  0  2  0  0  0  0  0  0  0  0  0
   -1.8803   -0.4141   -0.7403 C   0  0  1  0  0  0  0  0  0  0  0  0
   -2.3630    1.0789   -0.5315 C   0  0  2  0  0  0  0  0  0  0  0  0
   -0.4493   -0.5369   -1.4271 C   0  0  1  0  0  0  0  0  0  0  0  0
   -1.7417   -0.7897    0.7548 C   0  0  1  0  0  0  0  0  0  0  0  0
   -0.8064    0.3606    1.2336 C   0  0  1  0  0  0  0  0  0  0  0  0
    0.7494    0.1992   -0.7745 C   0  0  1  0  0  0  0  0  0  0  0  0
    0.6648    0.1433    0.7731 C   0  0  1  0  0  0  0  0  0  0  0  0
   -1.3517    1.6296    0.5173 C   0  0  2  0  0  0  0  0  0  0  0  0
   -3.8457    1.0895   -0.0201 C   0  0  2  0  0  0  0  0  0  0  0  0
   -2.8985   -1.2461   -1.5922 C   0  0  2  0  0  0  0  0  0  0  0  0
    0.0950   -1.9848   -1.5725 C   0  0  0  0  0  0  0  0  0  0  0  0
    1.5452   -1.9782   -1.0514 C   0  0  2  0  0  0  0  0  0  0  0  0
    1.9664   -0.5462   -1.3396 C   0  0  2  0  0  0  0  0  0  0  0  0
    1.3917   -1.0867    1.3833 C   0  0  2  0  0  0  0  0  0  0  0  0
   -3.8783    0.3734    1.3657 C   0  0  0  0  0  0  0  0  0  0  0  0
   -4.7481    0.3709   -1.0660 C   0  0  1  0  0  0  0  0  0  0  0  0
    1.5776   -2.3078    0.4591 C   0  0  2  0  0  0  0  0  0  0  0  0
   -4.3719   -1.0757   -1.2731 C   0  0  0  0  0  0  0  0  0  0  0  0
   -4.4108    2.5262    0.1165 C   0  0  0  0  0  0  0  0  0  0  0  0
   -2.9789   -1.3754    2.7778 C   0  0  0  0  0  0  0  0  0  0  0  0
   -0.7981    3.2963    2.0788 C   0  0  0  0  0  0  0  0  0  0  0  0
   -4.3564   -1.7155    3.3208 C   0  0  0  0  0  0  0  0  0  0  0  0
   -3.0718   -3.2899   -2.7382 C   0  0  0  0  0  0  0  0  0  0  0  0
    3.9103    0.7948   -1.3383 C   0  0  0  0  0  0  0  0  0  0  0  0
    2.7346   -3.6996    1.9578 C   0  0  0  0  0  0  0  0  0  0  0  0
   -4.8504    4.4661   -1.1351 C   0  0  0  0  0  0  0  0  0  0  0  0
    5.1685    1.0723   -0.6005 C   0  0  0  0  0  0  0  0  0  0  0  0
    6.0487    2.0494   -1.0657 C   0  0  0  0  0  0  0  0  0  0  0  0
    5.4704    0.3563    0.5580 C   0  0  0  0  0  0  0  0  0  0  0  0
    7.2307    2.3103   -0.3726 C   0  0  0  0  0  0  0  0  0  0  0  0
    6.6524    0.6173    1.2511 C   0  0  0  0  0  0  0  0  0  0  0  0
    7.5326    1.5944    0.7857 C   0  0  0  0  0  0  0  0  0  0  0  0
   -2.2782    1.6347   -1.4731 H   0  0  0  0  0  0  0  0  0  0  0  0
   -0.5530   -0.1295   -2.4439 H   0  0  0  0  0  0  0  0  0  0  0  0
   -1.2684   -1.7694    0.8592 H   0  0  0  0  0  0  0  0  0  0  0  0
   -0.8407    0.4790    2.3216 H   0  0  0  0  0  0  0  0  0  0  0  0
    0.8146    1.2351   -1.1261 H   0  0  0  0  0  0  0  0  0  0  0  0
   -0.5953    2.1712   -0.0557 H   0  0  0  0  0  0  0  0  0  0  0  0
   -2.7601   -0.8930   -2.6255 H   0  0  0  0  0  0  0  0  0  0  0  0
    0.0585   -2.2787   -2.6296 H   0  0  0  0  0  0  0  0  0  0  0  0
   -0.4746   -2.7391   -1.0293 H   0  0  0  0  0  0  0  0  0  0  0  0
    2.0368   -0.4117   -2.4287 H   0  0  0  0  0  0  0  0  0  0  0  0
    2.3940   -0.7661    1.7000 H   0  0  0  0  0  0  0  0  0  0  0  0
   -3.5655    1.0629    2.1582 H   0  0  0  0  0  0  0  0  0  0  0  0
   -4.9246    0.1321    1.5861 H   0  0  0  0  0  0  0  0  0  0  0  0
   -4.6829    0.8860   -2.0327 H   0  0  0  0  0  0  0  0  0  0  0  0
    0.8029   -3.0585    0.6625 H   0  0  0  0  0  0  0  0  0  0  0  0
   -4.6732   -1.6955   -0.4188 H   0  0  0  0  0  0  0  0  0  0  0  0
   -4.9880   -1.4709   -2.0913 H   0  0  0  0  0  0  0  0  0  0  0  0
   -5.4541    2.4928    0.4558 H   0  0  0  0  0  0  0  0  0  0  0  0
   -3.8791    3.1397    0.8439 H   0  0  0  0  0  0  0  0  0  0  0  0
    1.4164    1.2482    2.2274 H   0  0  0  0  0  0  0  0  0  0  0  0
   -2.3905   -2.3012    2.7779 H   0  0  0  0  0  0  0  0  0  0  0  0
   -2.4779   -0.6761    3.4571 H   0  0  0  0  0  0  0  0  0  0  0  0
    2.3054   -2.6732   -2.7142 H   0  0  0  0  0  0  0  0  0  0  0  0
    0.8236   -0.7604    3.2267 H   0  0  0  0  0  0  0  0  0  0  0  0
   -6.6378   -0.0149   -1.4057 H   0  0  0  0  0  0  0  0  0  0  0  0
   -1.2607    4.0912    2.6714 H   0  0  0  0  0  0  0  0  0  0  0  0
   -0.1512    3.7676    1.3326 H   0  0  0  0  0  0  0  0  0  0  0  0
   -0.2185    2.6743    2.7640 H   0  0  0  0  0  0  0  0  0  0  0  0
   -4.9411   -0.8227    3.5635 H   0  0  0  0  0  0  0  0  0  0  0  0
   -4.9268   -2.3317    2.6173 H   0  0  0  0  0  0  0  0  0  0  0  0
   -4.2540   -2.2880    4.2493 H   0  0  0  0  0  0  0  0  0  0  0  0
   -2.7557   -4.3358   -2.6820 H   0  0  0  0  0  0  0  0  0  0  0  0
   -2.5933   -2.8444   -3.6162 H   0  0  0  0  0  0  0  0  0  0  0  0
   -4.1588   -3.2824   -2.8481 H   0  0  0  0  0  0  0  0  0  0  0  0
    3.6727   -4.2521    2.0681 H   0  0  0  0  0  0  0  0  0  0  0  0
    1.9272   -4.4339    1.8734 H   0  0  0  0  0  0  0  0  0  0  0  0
    2.6133   -3.0919    2.8574 H   0  0  0  0  0  0  0  0  0  0  0  0
   -4.7810    4.8719   -2.1478 H   0  0  0  0  0  0  0  0  0  0  0  0
   -4.2499    5.0892   -0.4654 H   0  0  0  0  0  0  0  0  0  0  0  0
   -5.8992    4.4760   -0.8237 H   0  0  0  0  0  0  0  0  0  0  0  0
    5.8320    2.6183   -1.9659 H   0  0  0  0  0  0  0  0  0  0  0  0
    4.8150   -0.4135    0.9543 H   0  0  0  0  0  0  0  0  0  0  0  0
    7.9162    3.0709   -0.7348 H   0  0  0  0  0  0  0  0  0  0  0  0
    6.8881    0.0599    2.1530 H   0  0  0  0  0  0  0  0  0  0  0  0
    8.4530    1.7976    1.3253 H   0  0  0  0  0  0  0  0  0  0  0  0
  1 18  1  0  0  0  0
  1 63  1  0  0  0  0
  2 19  1  0  0  0  0
  2 32  1  0  0  0  0
  3 21  1  0  0  0  0
  3 34  1  0  0  0  0
  4 24  1  0  0  0  0
  4 35  1  0  0  0  0
  5 23  1  0  0  0  0
  5 66  1  0  0  0  0
  6 25  1  0  0  0  0
  6 67  1  0  0  0  0
  7 28  1  0  0  0  0
  7 36  1  0  0  0  0
  8 27  1  0  0  0  0
  8 68  1  0  0  0  0
  9 30  1  0  0  0  0
  9 37  1  0  0  0  0
 10 35  2  0  0  0  0
 11 15  1  0  0  0  0
 11 26  1  0  0  0  0
 11 31  1  0  0  0  0
 12 13  1  0  0  0  0
 12 14  1  0  0  0  0
 12 15  1  0  0  0  0
 12 21  1  0  0  0  0
 13 19  1  0  0  0  0
 13 20  1  0  0  0  0
 13 44  1  0  0  0  0
 14 17  1  0  0  0  0
 14 22  1  0  0  0  0
 14 45  1  0  0  0  0
 15 16  1  0  0  0  0
 15 46  1  0  0  0  0
 16 18  1  0  0  0  0
 16 19  1  0  0  0  0
 16 47  1  0  0  0  0
 17 18  1  0  0  0  0
 17 24  1  0  0  0  0
 17 48  1  0  0  0  0
 18 25  1  0  0  0  0
 19 49  1  0  0  0  0
 20 26  1  0  0  0  0
 20 27  1  0  0  0  0
 20 30  1  0  0  0  0
 21 29  1  0  0  0  0
 21 50  1  0  0  0  0
 22 23  1  0  0  0  0
 22 51  1  0  0  0  0
 22 52  1  0  0  0  0
 23 24  1  0  0  0  0
 23 28  1  0  0  0  0
 24 53  1  0  0  0  0
 25 28  1  0  0  0  0
 25 54  1  0  0  0  0
 26 55  1  0  0  0  0
 26 56  1  0  0  0  0
 27 29  1  0  0  0  0
 27 57  1  0  0  0  0
 28 58  1  0  0  0  0
 29 59  1  0  0  0  0
 29 60  1  0  0  0  0
 30 61  1  0  0  0  0
 30 62  1  0  0  0  0
 31 33  1  0  0  0  0
 31 64  1  0  0  0  0
 31 65  1  0  0  0  0
 32 69  1  0  0  0  0
 32 70  1  0  0  0  0
 32 71  1  0  0  0  0
 33 72  1  0  0  0  0
 33 73  1  0  0  0  0
 33 74  1  0  0  0  0
 34 75  1  0  0  0  0
 34 76  1  0  0  0  0
 34 77  1  0  0  0  0
 35 38  1  0  0  0  0
 36 78  1  0  0  0  0
 36 79  1  0  0  0  0
 36 80  1  0  0  0  0
 37 81  1  0  0  0  0
 37 82  1  0  0  0  0
 37 83  1  0  0  0  0
 38 39  2  0  0  0  0
 38 40  1  0  0  0  0
 39 41  1  0  0  0  0
 39 84  1  0  0  0  0
 40 42  2  0  0  0  0
 40 85  1  0  0  0  0
 41 43  2  0  0  0  0
 41 86  1  0  0  0  0
 42 43  1  0  0  0  0
 42 87  1  0  0  0  0
 43 88  1  0  0  0  0
M  END
> <PUBCHEM_COMPOUND_CID>
20055771

> <PUBCHEM_CONFORMER_RMSD>
1.2

> <PUBCHEM_CONFORMER_DIVERSEORDER>
1
2
3

> <PUBCHEM_MMFF94_PARTIAL_CHARGES>
43
1 -0.68
10 -0.57
11 -0.81
15 0.27
18 0.28
19 0.28
2 -0.56
21 0.28
23 0.28
24 0.28
25 0.28
26 0.27
27 0.28
28 0.28
3 -0.56
30 0.28
31 0.27
32 0.28
34 0.28
35 0.63
36 0.28
37 0.28
38 0.09
39 -0.15
4 -0.43
40 -0.15
41 -0.15
42 -0.15
43 -0.15
5 -0.68
6 -0.68
63 0.4
66 0.4
67 0.4
68 0.4
7 -0.56
8 -0.68
84 0.15
85 0.15
86 0.15
87 0.15
88 0.15
9 -0.56

> <PUBCHEM_EFFECTIVE_ROTOR_COUNT>
11

> <PUBCHEM_PHARMACOPHORE_FEATURES>
19
1 1 acceptor
1 1 donor
1 10 acceptor
1 11 cation
1 2 acceptor
1 3 acceptor
1 5 acceptor
1 5 donor
1 6 acceptor
1 6 donor
1 7 acceptor
1 8 acceptor
1 8 donor
1 9 acceptor
6 12 13 20 21 27 29 rings
6 38 39 40 41 42 43 rings
8 11 12 13 15 16 19 20 26 rings
8 12 13 14 15 16 17 18 19 rings
8 14 17 18 22 23 24 25 28 rings

> <PUBCHEM_HEAVY_ATOM_COUNT>
43

> <PUBCHEM_ATOM_DEF_STEREO_COUNT>
14

> <PUBCHEM_ATOM_UDEF_STEREO_COUNT>
1

> <PUBCHEM_BOND_DEF_STEREO_COUNT>
0

> <PUBCHEM_BOND_UDEF_STEREO_COUNT>
0

> <PUBCHEM_ISOTOPIC_ATOM_COUNT>
0

> <PUBCHEM_COMPONENT_COUNT>
1

> <PUBCHEM_CACTVS_TAUTO_COUNT>
1

> <PUBCHEM_CONFORMER_ID>
013206DB00000001

> <PUBCHEM_MMFF94_ENERGY>
223.3345

> <PUBCHEM_FEATURE_SELFOVERLAP>
97.926

> <PUBCHEM_SHAPE_FINGERPRINT>
10032420 55 18267846432447757395
10675989 125 17615405866422908741
10863032 1 17677631790751471643
11007060 377 18126277791239113168
11578080 2 17968378918511370940
12422481 6 18261107436109394988
12655364 131 18042388180934615666
12788726 201 18130504124699169273
13583140 156 18408328799814235937
13726171 33 18201726107001294145
13782708 43 14201388418320939624
13911987 19 18059851715417877029
14068700 675 17343497001809042895
15219462 58 18114173168675439849
19319366 153 18409162190863465327
20511986 3 18336536114906110244
21987440 362 13410400718986584526
23559900 14 17677629566048342990
3633792 109 17241591855012416583
392239 28 18193292990117633498
4149490 64 17895476930045802827
469060 322 17986404488357390246
57527295 17 18340190939650647841
77296 10 17989211430738967278

> <PUBCHEM_SHAPE_MULTIPOLES>
821.25
14.11
4.06
2.64
20.69
0.8
1.01
10.23
-0.77
-2.26
-0.35
-1.91
-1.59
-0.45

> <PUBCHEM_SHAPE_SELFOVERLAP>
1800.408

> <PUBCHEM_SHAPE_VOLUME>
436.8

> <PUBCHEM_COORDINATE_TYPE>
2
5
10

$$$$
