12299861
  -OEChem-08242016563D

 59 63  0     1  0  0  0  0  0999 V2000
   -3.5960    1.4811    0.6613 O   0  0  0  0  0  0  0  0  0  0  0  0
   -2.1127    2.2781   -1.9103 O   0  0  0  0  0  0  0  0  0  0  0  0
    3.8289   -4.0427   -0.9032 O   0  0  0  0  0  0  0  0  0  0  0  0
    2.7504   -0.6043   -0.1338 N   0  0  2  0  0  0  0  0  0  0  0  0
    0.5093    0.2677    0.6919 C   0  0  1  0  0  0  0  0  0  0  0  0
   -1.0477    0.0334    0.7191 C   0  0  1  0  0  0  0  0  0  0  0  0
    0.7938    1.6332   -0.0023 C   0  0  1  0  0  0  0  0  0  0  0  0
   -1.8461    0.2632   -0.6067 C   0  0  1  0  0  0  0  0  0  0  0  0
    2.3320    1.8793    0.0001 C   0  0  1  0  0  0  0  0  0  0  0  0
    0.9881    0.3738    2.1803 C   0  0  0  0  0  0  0  0  0  0  0  0
   -1.5106   -1.2984    1.3680 C   0  0  0  0  0  0  0  0  0  0  0  0
    1.3055   -0.8570   -0.0394 C   0  0  0  0  0  0  0  0  0  0  0  0
    0.1491    1.7200   -1.3953 C   0  0  0  0  0  0  0  0  0  0  0  0
   -2.6749   -1.9182    0.5724 C   0  0  2  0  0  0  0  0  0  0  0  0
   -1.7674   -0.9479   -1.5692 C   0  0  0  0  0  0  0  0  0  0  0  0
   -3.3656    0.3892   -0.2252 C   0  0  1  0  0  0  0  0  0  0  0  0
   -1.3470    1.5108   -1.3252 C   0  0  0  0  0  0  0  0  0  0  0  0
    2.7991    2.0200    1.4762 C   0  0  0  0  0  0  0  0  0  0  0  0
    3.0590    0.7065   -0.7121 C   0  0  0  0  0  0  0  0  0  0  0  0
    2.4236    0.8531    2.3845 C   0  0  0  0  0  0  0  0  0  0  0  0
   -2.1729   -2.2386   -0.8450 C   0  0  0  0  0  0  0  0  0  0  0  0
   -3.7900   -0.8964    0.4585 C   0  0  0  0  0  0  0  0  0  0  0  0
    2.7036    3.1910   -0.7220 C   0  0  0  0  0  0  0  0  0  0  0  0
    3.4291   -1.6746   -0.8610 C   0  0  0  0  0  0  0  0  0  0  0  0
   -5.0341   -1.1171    0.9052 C   0  0  0  0  0  0  0  0  0  0  0  0
    3.1936   -3.0052   -0.1668 C   0  0  0  0  0  0  0  0  0  0  0  0
   -1.4062    0.8202    1.4014 H   0  0  0  0  0  0  0  0  0  0  0  0
    0.3236    2.4246    0.6022 H   0  0  0  0  0  0  0  0  0  0  0  0
    0.8658   -0.5895    2.6903 H   0  0  0  0  0  0  0  0  0  0  0  0
    0.3371    1.0805    2.7132 H   0  0  0  0  0  0  0  0  0  0  0  0
   -1.8313   -1.1012    2.3997 H   0  0  0  0  0  0  0  0  0  0  0  0
   -0.7031   -2.0309    1.4425 H   0  0  0  0  0  0  0  0  0  0  0  0
    1.1310   -1.7655    0.5363 H   0  0  0  0  0  0  0  0  0  0  0  0
    0.9163   -1.0242   -1.0423 H   0  0  0  0  0  0  0  0  0  0  0  0
    0.5617    0.9959   -2.1028 H   0  0  0  0  0  0  0  0  0  0  0  0
    0.3076    2.7172   -1.8202 H   0  0  0  0  0  0  0  0  0  0  0  0
   -3.0125   -2.8371    1.0650 H   0  0  0  0  0  0  0  0  0  0  0  0
   -0.7907   -1.0623   -2.0421 H   0  0  0  0  0  0  0  0  0  0  0  0
   -2.4513   -0.7859   -2.4147 H   0  0  0  0  0  0  0  0  0  0  0  0
   -3.9790    0.5491   -1.1211 H   0  0  0  0  0  0  0  0  0  0  0  0
    2.3567    2.9320    1.9007 H   0  0  0  0  0  0  0  0  0  0  0  0
    3.8863    2.1645    1.5183 H   0  0  0  0  0  0  0  0  0  0  0  0
    2.8133    0.7119   -1.7823 H   0  0  0  0  0  0  0  0  0  0  0  0
    4.1419    0.8762   -0.6439 H   0  0  0  0  0  0  0  0  0  0  0  0
    2.5557    1.1558    3.4309 H   0  0  0  0  0  0  0  0  0  0  0  0
    3.1233    0.0227    2.2434 H   0  0  0  0  0  0  0  0  0  0  0  0
   -2.9489   -2.7578   -1.4211 H   0  0  0  0  0  0  0  0  0  0  0  0
   -1.3136   -2.9183   -0.7938 H   0  0  0  0  0  0  0  0  0  0  0  0
    3.7683    3.4197   -0.5961 H   0  0  0  0  0  0  0  0  0  0  0  0
    2.5166    3.1329   -1.7992 H   0  0  0  0  0  0  0  0  0  0  0  0
    2.1322    4.0368   -0.3238 H   0  0  0  0  0  0  0  0  0  0  0  0
    4.5101   -1.4889   -0.8966 H   0  0  0  0  0  0  0  0  0  0  0  0
    3.0950   -1.7330   -1.9054 H   0  0  0  0  0  0  0  0  0  0  0  0
   -3.3493    2.2967    0.1934 H   0  0  0  0  0  0  0  0  0  0  0  0
   -5.8093   -0.3659    0.7983 H   0  0  0  0  0  0  0  0  0  0  0  0
   -5.3026   -2.0525    1.3841 H   0  0  0  0  0  0  0  0  0  0  0  0
    2.1424   -3.2968   -0.1303 H   0  0  0  0  0  0  0  0  0  0  0  0
    3.6008   -3.0003    0.8499 H   0  0  0  0  0  0  0  0  0  0  0  0
    3.6761   -4.8726   -0.4198 H   0  0  0  0  0  0  0  0  0  0  0  0
  1 16  1  0  0  0  0
  1 54  1  0  0  0  0
  2 17  2  0  0  0  0
  3 26  1  0  0  0  0
  3 59  1  0  0  0  0
  4 12  1  0  0  0  0
  4 19  1  0  0  0  0
  4 24  1  0  0  0  0
  5  6  1  0  0  0  0
  5  7  1  0  0  0  0
  5 10  1  0  0  0  0
  5 12  1  0  0  0  0
  6  8  1  0  0  0  0
  6 11  1  0  0  0  0
  6 27  1  0  0  0  0
  7  9  1  0  0  0  0
  7 13  1  0  0  0  0
  7 28  1  0  0  0  0
  8 15  1  0  0  0  0
  8 16  1  0  0  0  0
  8 17  1  0  0  0  0
  9 18  1  0  0  0  0
  9 19  1  0  0  0  0
  9 23  1  0  0  0  0
 10 20  1  0  0  0  0
 10 29  1  0  0  0  0
 10 30  1  0  0  0  0
 11 14  1  0  0  0  0
 11 31  1  0  0  0  0
 11 32  1  0  0  0  0
 12 33  1  0  0  0  0
 12 34  1  0  0  0  0
 13 17  1  0  0  0  0
 13 35  1  0  0  0  0
 13 36  1  0  0  0  0
 14 21  1  0  0  0  0
 14 22  1  0  0  0  0
 14 37  1  0  0  0  0
 15 21  1  0  0  0  0
 15 38  1  0  0  0  0
 15 39  1  0  0  0  0
 16 22  1  0  0  0  0
 16 40  1  0  0  0  0
 18 20  1  0  0  0  0
 18 41  1  0  0  0  0
 18 42  1  0  0  0  0
 19 43  1  0  0  0  0
 19 44  1  0  0  0  0
 20 45  1  0  0  0  0
 20 46  1  0  0  0  0
 21 47  1  0  0  0  0
 21 48  1  0  0  0  0
 22 25  2  0  0  0  0
 23 49  1  0  0  0  0
 23 50  1  0  0  0  0
 23 51  1  0  0  0  0
 24 26  1  0  0  0  0
 24 52  1  0  0  0  0
 24 53  1  0  0  0  0
 25 55  1  0  0  0  0
 25 56  1  0  0  0  0
 26 57  1  0  0  0  0
 26 58  1  0  0  0  0
M  END
> <PUBCHEM_COMPOUND_CID>
12299861

> <PUBCHEM_CONFORMER_RMSD>
0.8

> <PUBCHEM_CONFORMER_DIVERSEORDER>
1
2

> <PUBCHEM_MMFF94_PARTIAL_CHARGES>
19
1 -0.68
12 0.27
13 0.06
14 0.14
16 0.42
17 0.45
19 0.27
2 -0.57
22 -0.28
24 0.27
25 -0.3
26 0.28
3 -0.68
4 -0.81
54 0.4
55 0.15
56 0.15
59 0.4
8 0.06

> <PUBCHEM_EFFECTIVE_ROTOR_COUNT>
4.2

> <PUBCHEM_PHARMACOPHORE_FEATURES>
10
1 1 acceptor
1 1 donor
1 2 acceptor
1 3 acceptor
1 3 donor
1 4 cation
6 4 5 7 9 12 19 rings
6 5 6 7 8 13 17 rings
6 5 7 9 10 18 20 rings
8 6 8 11 14 15 16 21 22 rings

> <PUBCHEM_HEAVY_ATOM_COUNT>
26

> <PUBCHEM_ATOM_DEF_STEREO_COUNT>
7

> <PUBCHEM_ATOM_UDEF_STEREO_COUNT>
0

> <PUBCHEM_BOND_DEF_STEREO_COUNT>
0

> <PUBCHEM_BOND_UDEF_STEREO_COUNT>
0

> <PUBCHEM_ISOTOPIC_ATOM_COUNT>
0

> <PUBCHEM_COMPONENT_COUNT>
1

> <PUBCHEM_CACTVS_TAUTO_COUNT>
2

> <PUBCHEM_CONFORMER_ID>
00BBAE5500000001

> <PUBCHEM_MMFF94_ENERGY>
95.4254

> <PUBCHEM_FEATURE_SELFOVERLAP>
52.504

> <PUBCHEM_SHAPE_FINGERPRINT>
10064457 181 17770225173767069862
10165383 225 18055363684466595200
10863032 1 18341901826355189181
11578080 2 18131339821797326784
12156800 1 15877935627494541785
12553582 1 17824251812164824389
12596599 1 17967817201703654657
12623949 98 18198084610584923415
12788726 201 17259613756471529254
13004483 165 17979916013082078890
13134695 92 17702651164887976072
13140716 1 17605246554991248753
13224815 77 17604699105400316233
13533116 47 18272374200431472603
13583140 156 17274250790119811041
14022347 108 17385731313426215923
14178342 30 17912632798567527570
14223421 5 18188765162506165621
14289901 80 18128538352306131585
14790565 3 16967735162010590620
14866123 147 17548424700046726947
15219462 58 17273110613921323179
15238133 3 17131292202108127953
15664445 248 16660651798783247095
15848702 151 18408328787040272403
16945 1 17895738673557658857
1813 80 16805887402725639565
18981168 100 18263624239077867621
20691752 17 18189608513546845479
22182313 1 18262784207867540197
22802520 49 18334572430120015692
23114952 82 18335427884885015916
23419403 2 18057301921934964058
23557571 272 17968089862954072081
23559900 14 18409729564532110720
23566358 27 18338242664395120894
25222932 49 16664019732054482387
2748010 2 18189314810834900205
394222 165 14688576582494834640
6287921 2 18263932201001620900
70251023 43 18341034251778874127

> <PUBCHEM_SHAPE_MULTIPOLES>
512.48
7.24
3.41
1.78
3.71
2.19
0.54
2.29
0.69
-3.78
-1.4
-0.38
-0.5
1.3

> <PUBCHEM_SHAPE_SELFOVERLAP>
1110.606

> <PUBCHEM_SHAPE_VOLUME>
271.2

> <PUBCHEM_COORDINATE_TYPE>
2
5
10

$$$$
