24832659
  -OEChem-08242016473D

 85 91  0     1  0  0  0  0  0999 V2000
    1.3173    1.3791    1.1822 O   0  0  0  0  0  0  0  0  0  0  0  0
   -1.9472    2.5977    1.3972 O   0  0  0  0  0  0  0  0  0  0  0  0
   -2.7518   -2.8478   -1.1411 O   0  0  0  0  0  0  0  0  0  0  0  0
    3.0676   -0.2370   -0.7259 O   0  0  0  0  0  0  0  0  0  0  0  0
    2.2103   -3.0648   -1.5110 O   0  0  0  0  0  0  0  0  0  0  0  0
    0.7700   -1.2975    2.7753 O   0  0  0  0  0  0  0  0  0  0  0  0
    2.8198   -2.8088    1.0315 O   0  0  0  0  0  0  0  0  0  0  0  0
   -6.2482    0.1875   -0.4258 O   0  0  0  0  0  0  0  0  0  0  0  0
   -4.5410    2.9170   -1.1867 O   0  0  0  0  0  0  0  0  0  0  0  0
    3.3856    1.2017   -2.4948 O   0  0  0  0  0  0  0  0  0  0  0  0
   -3.1013   -0.8128    1.6684 N   0  0  2  0  0  0  0  0  0  0  0  0
   -1.9948   -0.5407   -0.5560 C   0  0  1  0  0  0  0  0  0  0  0  0
   -2.4984    0.9568   -0.4582 C   0  0  2  0  0  0  0  0  0  0  0  0
   -0.5836   -0.6986   -1.2759 C   0  0  1  0  0  0  0  0  0  0  0  0
   -1.8031   -0.7858    0.9602 C   0  0  1  0  0  0  0  0  0  0  0  0
   -0.8749    0.4156    1.3098 C   0  0  1  0  0  0  0  0  0  0  0  0
    0.6208    0.1091   -0.7268 C   0  0  1  0  0  0  0  0  0  0  0  0
    0.5851    0.1833    0.8219 C   0  0  1  0  0  0  0  0  0  0  0  0
   -1.4655    1.6104    0.5071 C   0  0  2  0  0  0  0  0  0  0  0  0
   -3.9645    0.9872    0.0982 C   0  0  2  0  0  0  0  0  0  0  0  0
   -3.0232   -1.4580   -1.3013 C   0  0  2  0  0  0  0  0  0  0  0  0
   -0.0173   -2.1448   -1.3163 C   0  0  0  0  0  0  0  0  0  0  0  0
    1.4478   -2.0710   -0.8449 C   0  0  2  0  0  0  0  0  0  0  0  0
    1.8334   -0.6621   -1.2662 C   0  0  2  0  0  0  0  0  0  0  0  0
    1.3532   -0.9788    1.5098 C   0  0  2  0  0  0  0  0  0  0  0  0
   -3.9410    0.3908    1.5397 C   0  0  0  0  0  0  0  0  0  0  0  0
   -4.8853    0.1683   -0.8536 C   0  0  1  0  0  0  0  0  0  0  0  0
    1.5331   -2.2707    0.6862 C   0  0  2  0  0  0  0  0  0  0  0  0
   -4.4889   -1.2845   -0.9502 C   0  0  0  0  0  0  0  0  0  0  0  0
   -4.5517    2.4212    0.1315 C   0  0  0  0  0  0  0  0  0  0  0  0
   -2.9661   -1.2174    3.0644 C   0  0  0  0  0  0  0  0  0  0  0  0
   -0.8949    3.4122    1.9040 C   0  0  0  0  0  0  0  0  0  0  0  0
   -3.1939   -3.5942   -2.2648 C   0  0  0  0  0  0  0  0  0  0  0  0
    3.7511    0.7048   -1.4408 C   0  0  0  0  0  0  0  0  0  0  0  0
    2.7614   -3.5119    2.2587 C   0  0  0  0  0  0  0  0  0  0  0  0
   -5.0656    4.2407   -1.2643 C   0  0  0  0  0  0  0  0  0  0  0  0
    5.0262    1.0638   -0.7702 C   0  0  0  0  0  0  0  0  0  0  0  0
    5.8735    2.0116   -1.3441 C   0  0  0  0  0  0  0  0  0  0  0  0
    5.3770    0.4527    0.4336 C   0  0  0  0  0  0  0  0  0  0  0  0
    7.0717    2.3486   -0.7141 C   0  0  0  0  0  0  0  0  0  0  0  0
    6.5751    0.7896    1.0636 C   0  0  0  0  0  0  0  0  0  0  0  0
    7.4223    1.7375    0.4897 C   0  0  0  0  0  0  0  0  0  0  0  0
   -2.4531    1.4320   -1.4455 H   0  0  0  0  0  0  0  0  0  0  0  0
   -0.7262   -0.3805   -2.3195 H   0  0  0  0  0  0  0  0  0  0  0  0
   -1.3094   -1.7455    1.1335 H   0  0  0  0  0  0  0  0  0  0  0  0
   -0.8776    0.6257    2.3844 H   0  0  0  0  0  0  0  0  0  0  0  0
    0.6558    1.1124   -1.1664 H   0  0  0  0  0  0  0  0  0  0  0  0
   -0.7374    2.1134   -0.1336 H   0  0  0  0  0  0  0  0  0  0  0  0
   -2.9234   -1.1916   -2.3646 H   0  0  0  0  0  0  0  0  0  0  0  0
   -0.0811   -2.5279   -2.3431 H   0  0  0  0  0  0  0  0  0  0  0  0
   -0.5557   -2.8591   -0.6932 H   0  0  0  0  0  0  0  0  0  0  0  0
    1.8676   -0.6194   -2.3644 H   0  0  0  0  0  0  0  0  0  0  0  0
    2.3588   -0.6166    1.7657 H   0  0  0  0  0  0  0  0  0  0  0  0
   -3.6117    1.1487    2.2596 H   0  0  0  0  0  0  0  0  0  0  0  0
   -4.9655    0.1381    1.8418 H   0  0  0  0  0  0  0  0  0  0  0  0
   -4.8596    0.6005   -1.8620 H   0  0  0  0  0  0  0  0  0  0  0  0
    0.7792   -3.0138    0.9771 H   0  0  0  0  0  0  0  0  0  0  0  0
   -4.7522   -1.8344   -0.0375 H   0  0  0  0  0  0  0  0  0  0  0  0
   -5.1226   -1.7573   -1.7119 H   0  0  0  0  0  0  0  0  0  0  0  0
   -5.5832    2.4001    0.5060 H   0  0  0  0  0  0  0  0  0  0  0  0
   -4.0093    3.1026    0.7870 H   0  0  0  0  0  0  0  0  0  0  0  0
    1.3608    1.4194    2.1528 H   0  0  0  0  0  0  0  0  0  0  0  0
   -2.4328   -2.1712    3.1431 H   0  0  0  0  0  0  0  0  0  0  0  0
   -3.9526   -1.3757    3.5141 H   0  0  0  0  0  0  0  0  0  0  0  0
   -2.4335   -0.4741    3.6666 H   0  0  0  0  0  0  0  0  0  0  0  0
    2.1691   -2.8924   -2.4669 H   0  0  0  0  0  0  0  0  0  0  0  0
    0.8366   -0.5065    3.3367 H   0  0  0  0  0  0  0  0  0  0  0  0
   -6.7772   -0.2745   -1.0985 H   0  0  0  0  0  0  0  0  0  0  0  0
   -0.2803    3.8287    1.1000 H   0  0  0  0  0  0  0  0  0  0  0  0
   -1.3537    4.2469    2.4421 H   0  0  0  0  0  0  0  0  0  0  0  0
   -0.2829    2.8598    2.6199 H   0  0  0  0  0  0  0  0  0  0  0  0
   -2.8569   -4.6264   -2.1309 H   0  0  0  0  0  0  0  0  0  0  0  0
   -2.7512   -3.2171   -3.1922 H   0  0  0  0  0  0  0  0  0  0  0  0
   -4.2837   -3.6132   -2.3397 H   0  0  0  0  0  0  0  0  0  0  0  0
    3.7127   -4.0381    2.3846 H   0  0  0  0  0  0  0  0  0  0  0  0
    1.9655   -4.2635    2.2626 H   0  0  0  0  0  0  0  0  0  0  0  0
    2.6567   -2.8321    3.1073 H   0  0  0  0  0  0  0  0  0  0  0  0
   -6.1043    4.2604   -0.9211 H   0  0  0  0  0  0  0  0  0  0  0  0
   -4.4563    4.9279   -0.6693 H   0  0  0  0  0  0  0  0  0  0  0  0
   -5.0351    4.5602   -2.3093 H   0  0  0  0  0  0  0  0  0  0  0  0
    5.6186    2.4990   -2.2813 H   0  0  0  0  0  0  0  0  0  0  0  0
    4.7485   -0.2912    0.9141 H   0  0  0  0  0  0  0  0  0  0  0  0
    7.7316    3.0865   -1.1608 H   0  0  0  0  0  0  0  0  0  0  0  0
    6.8489    0.3138    2.0007 H   0  0  0  0  0  0  0  0  0  0  0  0
    8.3552    1.9997    0.9802 H   0  0  0  0  0  0  0  0  0  0  0  0
  1 18  1  0  0  0  0
  1 62  1  0  0  0  0
  2 19  1  0  0  0  0
  2 32  1  0  0  0  0
  3 21  1  0  0  0  0
  3 33  1  0  0  0  0
  4 24  1  0  0  0  0
  4 34  1  0  0  0  0
  5 23  1  0  0  0  0
  5 66  1  0  0  0  0
  6 25  1  0  0  0  0
  6 67  1  0  0  0  0
  7 28  1  0  0  0  0
  7 35  1  0  0  0  0
  8 27  1  0  0  0  0
  8 68  1  0  0  0  0
  9 30  1  0  0  0  0
  9 36  1  0  0  0  0
 10 34  2  0  0  0  0
 11 15  1  0  0  0  0
 11 26  1  0  0  0  0
 11 31  1  0  0  0  0
 12 13  1  0  0  0  0
 12 14  1  0  0  0  0
 12 15  1  0  0  0  0
 12 21  1  0  0  0  0
 13 19  1  0  0  0  0
 13 20  1  0  0  0  0
 13 43  1  0  0  0  0
 14 17  1  0  0  0  0
 14 22  1  0  0  0  0
 14 44  1  0  0  0  0
 15 16  1  0  0  0  0
 15 45  1  0  0  0  0
 16 18  1  0  0  0  0
 16 19  1  0  0  0  0
 16 46  1  0  0  0  0
 17 18  1  0  0  0  0
 17 24  1  0  0  0  0
 17 47  1  0  0  0  0
 18 25  1  0  0  0  0
 19 48  1  0  0  0  0
 20 26  1  0  0  0  0
 20 27  1  0  0  0  0
 20 30  1  0  0  0  0
 21 29  1  0  0  0  0
 21 49  1  0  0  0  0
 22 23  1  0  0  0  0
 22 50  1  0  0  0  0
 22 51  1  0  0  0  0
 23 24  1  0  0  0  0
 23 28  1  0  0  0  0
 24 52  1  0  0  0  0
 25 28  1  0  0  0  0
 25 53  1  0  0  0  0
 26 54  1  0  0  0  0
 26 55  1  0  0  0  0
 27 29  1  0  0  0  0
 27 56  1  0  0  0  0
 28 57  1  0  0  0  0
 29 58  1  0  0  0  0
 29 59  1  0  0  0  0
 30 60  1  0  0  0  0
 30 61  1  0  0  0  0
 31 63  1  0  0  0  0
 31 64  1  0  0  0  0
 31 65  1  0  0  0  0
 32 69  1  0  0  0  0
 32 70  1  0  0  0  0
 32 71  1  0  0  0  0
 33 72  1  0  0  0  0
 33 73  1  0  0  0  0
 33 74  1  0  0  0  0
 34 37  1  0  0  0  0
 35 75  1  0  0  0  0
 35 76  1  0  0  0  0
 35 77  1  0  0  0  0
 36 78  1  0  0  0  0
 36 79  1  0  0  0  0
 36 80  1  0  0  0  0
 37 38  2  0  0  0  0
 37 39  1  0  0  0  0
 38 40  1  0  0  0  0
 38 81  1  0  0  0  0
 39 41  2  0  0  0  0
 39 82  1  0  0  0  0
 40 42  2  0  0  0  0
 40 83  1  0  0  0  0
 41 42  1  0  0  0  0
 41 84  1  0  0  0  0
 42 85  1  0  0  0  0
M  END
> <PUBCHEM_COMPOUND_CID>
24832659

> <PUBCHEM_CONFORMER_RMSD>
1.2

> <PUBCHEM_CONFORMER_DIVERSEORDER>
1
2
3

> <PUBCHEM_MMFF94_PARTIAL_CHARGES>
43
1 -0.68
10 -0.57
11 -0.81
15 0.27
18 0.28
19 0.28
2 -0.56
21 0.28
23 0.28
24 0.28
25 0.28
26 0.27
27 0.28
28 0.28
3 -0.56
30 0.28
31 0.27
32 0.28
33 0.28
34 0.63
35 0.28
36 0.28
37 0.09
38 -0.15
39 -0.15
4 -0.43
40 -0.15
41 -0.15
42 -0.15
5 -0.68
6 -0.68
62 0.4
66 0.4
67 0.4
68 0.4
7 -0.56
8 -0.68
81 0.15
82 0.15
83 0.15
84 0.15
85 0.15
9 -0.56

> <PUBCHEM_EFFECTIVE_ROTOR_COUNT>
10

> <PUBCHEM_PHARMACOPHORE_FEATURES>
19
1 1 acceptor
1 1 donor
1 10 acceptor
1 11 cation
1 2 acceptor
1 3 acceptor
1 5 acceptor
1 5 donor
1 6 acceptor
1 6 donor
1 7 acceptor
1 8 acceptor
1 8 donor
1 9 acceptor
6 12 13 20 21 27 29 rings
6 37 38 39 40 41 42 rings
8 11 12 13 15 16 19 20 26 rings
8 12 13 14 15 16 17 18 19 rings
8 14 17 18 22 23 24 25 28 rings

> <PUBCHEM_HEAVY_ATOM_COUNT>
42

> <PUBCHEM_ATOM_DEF_STEREO_COUNT>
14

> <PUBCHEM_ATOM_UDEF_STEREO_COUNT>
1

> <PUBCHEM_BOND_DEF_STEREO_COUNT>
0

> <PUBCHEM_BOND_UDEF_STEREO_COUNT>
0

> <PUBCHEM_ISOTOPIC_ATOM_COUNT>
0

> <PUBCHEM_COMPONENT_COUNT>
1

> <PUBCHEM_CACTVS_TAUTO_COUNT>
1

> <PUBCHEM_CONFORMER_ID>
017AEA9300000001

> <PUBCHEM_MMFF94_ENERGY>
225.7006

> <PUBCHEM_FEATURE_SELFOVERLAP>
97.926

> <PUBCHEM_SHAPE_FINGERPRINT>
10032420 55 18266441265267091099
10290309 65 18130795525166525103
10675989 125 17688028618059025285
11007060 377 18125156293668493680
11578080 2 17824243922019940180
12128747 34 13768743752354269040
12422481 6 18040998402247100780
12655364 131 17968924320119939138
12788726 201 18201156547208670649
13631057 29 17916301826231220439
13690498 29 17987226927687610015
13726171 33 18272379629017161497
13782708 43 14692577624194465660
13911987 19 18130221559159883781
14068700 675 17557139811946515543
14856354 85 18199467851471942110
19319366 153 18335699429592104195
20511986 3 18335129848060757261
22393880 68 18060128886124816965
23559900 14 17700693960791436991
2838139 119 18335983159937971516
3411729 13 18334293120318609510
3633792 109 17168409473469560735
4112364 45 17970906649021298409
4149490 64 17822013069246957107
469060 322 17914633875597337730
77296 10 18059863848879726142
9981440 41 18334300859290703051

> <PUBCHEM_SHAPE_MULTIPOLES>
800.67
13.96
4.08
2.38
18.09
0.26
0.93
10.92
-3
-2.25
-0.52
-0.43
-0.99
-1.43

> <PUBCHEM_SHAPE_SELFOVERLAP>
1761.588

> <PUBCHEM_SHAPE_VOLUME>
424.1

> <PUBCHEM_COORDINATE_TYPE>
2
5
10

$$$$
