101289617
  -OEChem-08242016533D

 60 65  0     1  0  0  0  0  0999 V2000
    1.4140    0.8606    1.7918 O   0  0  0  0  0  0  0  0  0  0  0  0
   -0.9897   -2.4858    1.2372 O   0  0  0  0  0  0  0  0  0  0  0  0
    3.9883   -0.8522   -0.3973 O   0  0  0  0  0  0  0  0  0  0  0  0
    3.6997    0.2407   -2.3555 O   0  0  0  0  0  0  0  0  0  0  0  0
   -2.2742    0.7625    0.9281 N   0  0  2  0  0  0  0  0  0  0  0  0
   -0.4663   -0.6022   -0.2441 C   0  0  2  0  0  0  0  0  0  0  0  0
   -0.9502    0.2541   -1.5028 C   0  0  1  0  0  0  0  0  0  0  0  0
   -0.8207    0.5122    0.7956 C   0  0  1  0  0  0  0  0  0  0  0  0
    0.0702    1.7318    0.2102 C   0  0  2  0  0  0  0  0  0  0  0  0
    1.1253   -0.9599   -0.3332 C   0  0  1  0  0  0  0  0  0  0  0  0
   -2.5091    0.2784   -1.5416 C   0  0  2  0  0  0  0  0  0  0  0  0
   -0.4188    1.7384   -1.2508 C   0  0  0  0  0  0  0  0  0  0  0  0
    1.5601    1.3015    0.4004 C   0  0  2  0  0  0  0  0  0  0  0  0
    1.8563    0.2649   -0.7540 C   0  0  1  0  0  0  0  0  0  0  0  0
   -1.2017   -1.9569   -0.0701 C   0  0  2  0  0  0  0  0  0  0  0  0
   -3.0198    1.0620   -0.2993 C   0  0  0  0  0  0  0  0  0  0  0  0
   -3.0644   -1.1632   -1.5532 C   0  0  0  0  0  0  0  0  0  0  0  0
    2.0077   -1.4326    0.8939 C   0  0  0  0  0  0  0  0  0  0  0  0
   -2.7023   -1.9543   -0.3126 C   0  0  0  0  0  0  0  0  0  0  0  0
    2.8948    1.9583    0.6290 C   0  0  0  0  0  0  0  0  0  0  0  0
    3.4741   -0.7403    0.9302 C   0  0  2  0  0  0  0  0  0  0  0  0
   -3.0148    0.9653   -2.8277 C   0  0  0  0  0  0  0  0  0  0  0  0
    3.7790    0.7975    1.3270 C   0  0  0  0  0  0  0  0  0  0  0  0
    3.2692   -0.0943   -1.2570 C   0  0  0  0  0  0  0  0  0  0  0  0
   -2.5832    1.7193    1.9860 C   0  0  0  0  0  0  0  0  0  0  0  0
   -4.0627    1.6976    2.3308 C   0  0  0  0  0  0  0  0  0  0  0  0
   -1.0610   -3.9035    1.2394 C   0  0  0  0  0  0  0  0  0  0  0  0
   -0.5515   -0.1567   -2.4379 H   0  0  0  0  0  0  0  0  0  0  0  0
   -0.5228    0.1584    1.7856 H   0  0  0  0  0  0  0  0  0  0  0  0
   -0.1352    2.6716    0.7320 H   0  0  0  0  0  0  0  0  0  0  0  0
    1.2369   -1.7214   -1.1190 H   0  0  0  0  0  0  0  0  0  0  0  0
   -1.1980    2.4947   -1.3707 H   0  0  0  0  0  0  0  0  0  0  0  0
    0.3363    2.0644   -1.9726 H   0  0  0  0  0  0  0  0  0  0  0  0
    1.4830    0.6167   -1.7124 H   0  0  0  0  0  0  0  0  0  0  0  0
   -0.7688   -2.6401   -0.8155 H   0  0  0  0  0  0  0  0  0  0  0  0
   -3.0084    2.1409   -0.4979 H   0  0  0  0  0  0  0  0  0  0  0  0
   -4.0781    0.8070   -0.1585 H   0  0  0  0  0  0  0  0  0  0  0  0
   -2.6867   -1.6936   -2.4378 H   0  0  0  0  0  0  0  0  0  0  0  0
   -4.1577   -1.1468   -1.6494 H   0  0  0  0  0  0  0  0  0  0  0  0
    1.4969   -1.3619    1.8583 H   0  0  0  0  0  0  0  0  0  0  0  0
    2.1757   -2.5087    0.7440 H   0  0  0  0  0  0  0  0  0  0  0  0
   -3.2486   -1.5923    0.5658 H   0  0  0  0  0  0  0  0  0  0  0  0
   -3.0634   -2.9808   -0.4505 H   0  0  0  0  0  0  0  0  0  0  0  0
    2.8398    2.8091    1.3190 H   0  0  0  0  0  0  0  0  0  0  0  0
    3.3635    2.3213   -0.2916 H   0  0  0  0  0  0  0  0  0  0  0  0
    4.1049   -1.3616    1.5770 H   0  0  0  0  0  0  0  0  0  0  0  0
   -2.6848    2.0055   -2.9046 H   0  0  0  0  0  0  0  0  0  0  0  0
   -4.1103    0.9707   -2.8631 H   0  0  0  0  0  0  0  0  0  0  0  0
   -2.6548    0.4404   -3.7199 H   0  0  0  0  0  0  0  0  0  0  0  0
    4.8295    1.0193    1.0973 H   0  0  0  0  0  0  0  0  0  0  0  0
    3.6811    0.8881    2.4172 H   0  0  0  0  0  0  0  0  0  0  0  0
   -2.0320    1.4534    2.8964 H   0  0  0  0  0  0  0  0  0  0  0  0
   -2.2820    2.7378    1.7144 H   0  0  0  0  0  0  0  0  0  0  0  0
    1.2240    1.6417    2.3422 H   0  0  0  0  0  0  0  0  0  0  0  0
   -4.6807    2.1403    1.5435 H   0  0  0  0  0  0  0  0  0  0  0  0
   -4.4156    0.6788    2.5246 H   0  0  0  0  0  0  0  0  0  0  0  0
   -4.2374    2.2841    3.2395 H   0  0  0  0  0  0  0  0  0  0  0  0
   -2.0676   -4.2594    1.0066 H   0  0  0  0  0  0  0  0  0  0  0  0
   -0.8120   -4.2490    2.2471 H   0  0  0  0  0  0  0  0  0  0  0  0
   -0.3316   -4.3358    0.5469 H   0  0  0  0  0  0  0  0  0  0  0  0
  1 13  1  0  0  0  0
  1 54  1  0  0  0  0
  2 15  1  0  0  0  0
  2 27  1  0  0  0  0
  3 21  1  0  0  0  0
  3 24  1  0  0  0  0
  4 24  2  0  0  0  0
  5  8  1  0  0  0  0
  5 16  1  0  0  0  0
  5 25  1  0  0  0  0
  6  7  1  0  0  0  0
  6  8  1  0  0  0  0
  6 10  1  0  0  0  0
  6 15  1  0  0  0  0
  7 11  1  0  0  0  0
  7 12  1  0  0  0  0
  7 28  1  0  0  0  0
  8  9  1  0  0  0  0
  8 29  1  0  0  0  0
  9 12  1  0  0  0  0
  9 13  1  0  0  0  0
  9 30  1  0  0  0  0
 10 14  1  0  0  0  0
 10 18  1  0  0  0  0
 10 31  1  0  0  0  0
 11 16  1  0  0  0  0
 11 17  1  0  0  0  0
 11 22  1  0  0  0  0
 12 32  1  0  0  0  0
 12 33  1  0  0  0  0
 13 14  1  0  0  0  0
 13 20  1  0  0  0  0
 14 24  1  0  0  0  0
 14 34  1  0  0  0  0
 15 19  1  0  0  0  0
 15 35  1  0  0  0  0
 16 36  1  0  0  0  0
 16 37  1  0  0  0  0
 17 19  1  0  0  0  0
 17 38  1  0  0  0  0
 17 39  1  0  0  0  0
 18 21  1  0  0  0  0
 18 40  1  0  0  0  0
 18 41  1  0  0  0  0
 19 42  1  0  0  0  0
 19 43  1  0  0  0  0
 20 23  1  0  0  0  0
 20 44  1  0  0  0  0
 20 45  1  0  0  0  0
 21 23  1  0  0  0  0
 21 46  1  0  0  0  0
 22 47  1  0  0  0  0
 22 48  1  0  0  0  0
 22 49  1  0  0  0  0
 23 50  1  0  0  0  0
 23 51  1  0  0  0  0
 25 26  1  0  0  0  0
 25 52  1  0  0  0  0
 25 53  1  0  0  0  0
 26 55  1  0  0  0  0
 26 56  1  0  0  0  0
 26 57  1  0  0  0  0
 27 58  1  0  0  0  0
 27 59  1  0  0  0  0
 27 60  1  0  0  0  0
M  END
> <PUBCHEM_COMPOUND_CID>
101289617

> <PUBCHEM_CONFORMER_RMSD>
0.8

> <PUBCHEM_CONFORMER_DIVERSEORDER>
1

> <PUBCHEM_MMFF94_PARTIAL_CHARGES>
15
1 -0.68
13 0.28
14 0.06
15 0.28
16 0.27
2 -0.56
21 0.28
24 0.66
25 0.27
27 0.28
3 -0.43
4 -0.57
5 -0.81
54 0.4
8 0.27

> <PUBCHEM_EFFECTIVE_ROTOR_COUNT>
4

> <PUBCHEM_PHARMACOPHORE_FEATURES>
9
1 1 acceptor
1 1 donor
1 2 acceptor
1 4 acceptor
1 5 cation
6 6 7 11 15 17 19 rings
8 5 6 7 8 9 11 12 16 rings
8 6 7 8 9 10 12 13 14 rings
9 3 10 13 14 18 20 21 23 24 rings

> <PUBCHEM_HEAVY_ATOM_COUNT>
27

> <PUBCHEM_ATOM_DEF_STEREO_COUNT>
10

> <PUBCHEM_ATOM_UDEF_STEREO_COUNT>
0

> <PUBCHEM_BOND_DEF_STEREO_COUNT>
0

> <PUBCHEM_BOND_UDEF_STEREO_COUNT>
0

> <PUBCHEM_ISOTOPIC_ATOM_COUNT>
0

> <PUBCHEM_COMPONENT_COUNT>
1

> <PUBCHEM_CACTVS_TAUTO_COUNT>
2

> <PUBCHEM_CONFORMER_ID>
06098E9100000001

> <PUBCHEM_MMFF94_ENERGY>
217.5892

> <PUBCHEM_FEATURE_SELFOVERLAP>
47.114

> <PUBCHEM_SHAPE_FINGERPRINT>
10064457 181 18265636349640882099
10165383 225 18045532787545537420
10863032 1 18267564944559777452
10948715 1 17460285838072605989
11578080 2 18115009918141194724
11582403 64 16040467906119389193
12160290 23 18191025801178234899
12403814 3 17458359549508897925
12553582 1 18338800005527428696
12592029 89 17896584104000605623
12633257 1 18339629063143665088
12788726 201 17988364896510049945
13140716 1 18059859450152511848
13224815 77 18409163350735970948
133893 2 17757820135832600815
13583140 156 16081363081457393372
14223421 5 18050280668049411424
14289901 80 16486963020964954924
14787075 74 17695607937975929149
15209289 33 18342462486816748274
15309172 13 18261396589928370417
16752209 62 17896576536068075519
16945 1 18059013856738073973
17349148 13 18199447991859019768
17980427 23 17774704429936752960
18186145 218 18339347609082647316
20600515 1 17972579246186822172
20691752 17 18410851023585551496
23419403 2 17551752187705750953
23558518 356 18202002174349941209
23559900 14 18265593460851967794
2748010 2 17251452583831994807
4340502 62 18339371756417498601
469060 322 17025168572524622859
57527306 92 12521182669086641361
5845 1 17623011608968360567
7832392 63 17489030348919388408
81228 2 17971757919749407979
9709674 26 18266164222834039574
9981440 41 17054955459186503752

> <PUBCHEM_SHAPE_MULTIPOLES>
527.19
6.56
2.73
2.27
2.76
2.24
0.44
-1.36
0.12
-1.49
-1.5
-1.47
-0.7
-0.41

> <PUBCHEM_SHAPE_SELFOVERLAP>
1164.276

> <PUBCHEM_SHAPE_VOLUME>
277.6

> <PUBCHEM_COORDINATE_TYPE>
2
5
10

$$$$
