132491405
  -OEChem-08242016553D

 58 63  0     1  0  0  0  0  0999 V2000
   -0.2304   -2.9822   -0.1552 O   0  0  0  0  0  0  0  0  0  0  0  0
   -2.1351   -2.0791    1.4060 O   0  0  0  0  0  0  0  0  0  0  0  0
    0.9989    2.7525   -1.2639 O   0  0  0  0  0  0  0  0  0  0  0  0
   -3.8798    0.8412   -0.4685 O   0  0  0  0  0  0  0  0  0  0  0  0
   -4.1858   -1.3075   -1.0962 O   0  0  0  0  0  0  0  0  0  0  0  0
    2.0708    0.6201    1.1162 N   0  0  2  0  0  0  0  0  0  0  0  0
    0.4999    0.3564   -0.7953 C   0  0  2  0  0  0  0  0  0  0  0  0
    1.1215   -1.0951   -0.9330 C   0  0  1  0  0  0  0  0  0  0  0  0
    0.6446    0.4860    0.7405 C   0  0  1  0  0  0  0  0  0  0  0  0
   -0.0784   -0.8286    1.1918 C   0  0  2  0  0  0  0  0  0  0  0  0
   -1.0638    0.4331   -1.1705 C   0  0  1  0  0  0  0  0  0  0  0  0
    2.6727   -1.0043   -0.7665 C   0  0  2  0  0  0  0  0  0  0  0  0
    0.5769   -1.9040    0.2811 C   0  0  1  0  0  0  0  0  0  0  0  0
   -1.6251   -0.7910    0.9972 C   0  0  1  0  0  0  0  0  0  0  0  0
   -1.9477   -0.6294   -0.4978 C   0  0  1  0  0  0  0  0  0  0  0  0
    1.2624    1.4144   -1.6803 C   0  0  2  0  0  0  0  0  0  0  0  0
    2.9846   -0.4449    0.6622 C   0  0  0  0  0  0  0  0  0  0  0  0
    3.2572   -0.1064   -1.8703 C   0  0  0  0  0  0  0  0  0  0  0  0
   -1.7081    1.8231   -0.9553 C   0  0  0  0  0  0  0  0  0  0  0  0
    2.7792    1.3166   -1.7636 C   0  0  0  0  0  0  0  0  0  0  0  0
   -2.3489    0.2124    1.9211 C   0  0  0  0  0  0  0  0  0  0  0  0
   -2.9251    1.8163   -0.0370 C   0  0  2  0  0  0  0  0  0  0  0  0
    3.3420   -2.3870   -0.9437 C   0  0  0  0  0  0  0  0  0  0  0  0
   -2.5638    1.6449    1.4404 C   0  0  0  0  0  0  0  0  0  0  0  0
   -3.4325   -0.4094   -0.7334 C   0  0  0  0  0  0  0  0  0  0  0  0
    2.2474    0.8995    2.5378 C   0  0  0  0  0  0  0  0  0  0  0  0
    3.6666    1.3523    2.8363 C   0  0  0  0  0  0  0  0  0  0  0  0
    0.8532   -1.5451   -1.8960 H   0  0  0  0  0  0  0  0  0  0  0  0
    0.1261    1.3738    1.1016 H   0  0  0  0  0  0  0  0  0  0  0  0
    0.1366   -1.0651    2.2408 H   0  0  0  0  0  0  0  0  0  0  0  0
   -1.1189    0.2358   -2.2521 H   0  0  0  0  0  0  0  0  0  0  0  0
    1.3544   -2.3926    0.8698 H   0  0  0  0  0  0  0  0  0  0  0  0
   -1.7622   -1.5679   -1.0325 H   0  0  0  0  0  0  0  0  0  0  0  0
    0.8780    1.3155   -2.7042 H   0  0  0  0  0  0  0  0  0  0  0  0
    2.9930   -1.2642    1.3923 H   0  0  0  0  0  0  0  0  0  0  0  0
    4.0133   -0.0631    0.6445 H   0  0  0  0  0  0  0  0  0  0  0  0
    2.9858   -0.5059   -2.8566 H   0  0  0  0  0  0  0  0  0  0  0  0
    4.3540   -0.1104   -1.8282 H   0  0  0  0  0  0  0  0  0  0  0  0
   -1.0253    2.5680   -0.5544 H   0  0  0  0  0  0  0  0  0  0  0  0
   -2.0246    2.1906   -1.9408 H   0  0  0  0  0  0  0  0  0  0  0  0
    3.2514    1.8215   -0.9118 H   0  0  0  0  0  0  0  0  0  0  0  0
    3.1293    1.8851   -2.6357 H   0  0  0  0  0  0  0  0  0  0  0  0
   -1.8512    0.2364    2.8998 H   0  0  0  0  0  0  0  0  0  0  0  0
   -3.3469   -0.1936    2.1471 H   0  0  0  0  0  0  0  0  0  0  0  0
   -3.4138    2.7928   -0.1433 H   0  0  0  0  0  0  0  0  0  0  0  0
    3.0344   -3.1111   -0.1843 H   0  0  0  0  0  0  0  0  0  0  0  0
    4.4330   -2.3033   -0.8770 H   0  0  0  0  0  0  0  0  0  0  0  0
    3.0990   -2.8161   -1.9224 H   0  0  0  0  0  0  0  0  0  0  0  0
   -3.3958    2.0478    2.0347 H   0  0  0  0  0  0  0  0  0  0  0  0
   -1.7058    2.2745    1.6979 H   0  0  0  0  0  0  0  0  0  0  0  0
    1.9979    0.0312    3.1588 H   0  0  0  0  0  0  0  0  0  0  0  0
    1.5755    1.7131    2.8382 H   0  0  0  0  0  0  0  0  0  0  0  0
    0.3141   -3.5416   -0.7348 H   0  0  0  0  0  0  0  0  0  0  0  0
   -1.8819   -2.2190    2.3346 H   0  0  0  0  0  0  0  0  0  0  0  0
    1.3831    3.3526   -1.9257 H   0  0  0  0  0  0  0  0  0  0  0  0
    4.3897    0.5343    2.7605 H   0  0  0  0  0  0  0  0  0  0  0  0
    3.9795    2.1625    2.1688 H   0  0  0  0  0  0  0  0  0  0  0  0
    3.7235    1.7319    3.8624 H   0  0  0  0  0  0  0  0  0  0  0  0
  1 13  1  0  0  0  0
  1 53  1  0  0  0  0
  2 14  1  0  0  0  0
  2 54  1  0  0  0  0
  3 16  1  0  0  0  0
  3 55  1  0  0  0  0
  4 22  1  0  0  0  0
  4 25  1  0  0  0  0
  5 25  2  0  0  0  0
  6  9  1  0  0  0  0
  6 17  1  0  0  0  0
  6 26  1  0  0  0  0
  7  8  1  0  0  0  0
  7  9  1  0  0  0  0
  7 11  1  0  0  0  0
  7 16  1  0  0  0  0
  8 12  1  0  0  0  0
  8 13  1  0  0  0  0
  8 28  1  0  0  0  0
  9 10  1  0  0  0  0
  9 29  1  0  0  0  0
 10 13  1  0  0  0  0
 10 14  1  0  0  0  0
 10 30  1  0  0  0  0
 11 15  1  0  0  0  0
 11 19  1  0  0  0  0
 11 31  1  0  0  0  0
 12 17  1  0  0  0  0
 12 18  1  0  0  0  0
 12 23  1  0  0  0  0
 13 32  1  0  0  0  0
 14 15  1  0  0  0  0
 14 21  1  0  0  0  0
 15 25  1  0  0  0  0
 15 33  1  0  0  0  0
 16 20  1  0  0  0  0
 16 34  1  0  0  0  0
 17 35  1  0  0  0  0
 17 36  1  0  0  0  0
 18 20  1  0  0  0  0
 18 37  1  0  0  0  0
 18 38  1  0  0  0  0
 19 22  1  0  0  0  0
 19 39  1  0  0  0  0
 19 40  1  0  0  0  0
 20 41  1  0  0  0  0
 20 42  1  0  0  0  0
 21 24  1  0  0  0  0
 21 43  1  0  0  0  0
 21 44  1  0  0  0  0
 22 24  1  0  0  0  0
 22 45  1  0  0  0  0
 23 46  1  0  0  0  0
 23 47  1  0  0  0  0
 23 48  1  0  0  0  0
 24 49  1  0  0  0  0
 24 50  1  0  0  0  0
 26 27  1  0  0  0  0
 26 51  1  0  0  0  0
 26 52  1  0  0  0  0
 27 56  1  0  0  0  0
 27 57  1  0  0  0  0
 27 58  1  0  0  0  0
M  END
> <PUBCHEM_COMPOUND_CID>
132491405

> <PUBCHEM_CONFORMER_RMSD>
0.6

> <PUBCHEM_CONFORMER_DIVERSEORDER>
1

> <PUBCHEM_MMFF94_PARTIAL_CHARGES>
18
1 -0.68
13 0.28
14 0.28
15 0.06
16 0.28
17 0.27
2 -0.68
22 0.28
25 0.66
26 0.27
3 -0.68
4 -0.43
5 -0.57
53 0.4
54 0.4
55 0.4
6 -0.81
9 0.27

> <PUBCHEM_EFFECTIVE_ROTOR_COUNT>
3

> <PUBCHEM_PHARMACOPHORE_FEATURES>
12
1 1 acceptor
1 1 donor
1 2 acceptor
1 2 donor
1 3 acceptor
1 3 donor
1 5 acceptor
1 6 cation
6 7 8 12 16 18 20 rings
8 6 7 8 9 10 12 13 17 rings
8 7 8 9 10 11 13 14 15 rings
9 4 11 14 15 19 21 22 24 25 rings

> <PUBCHEM_HEAVY_ATOM_COUNT>
27

> <PUBCHEM_ATOM_DEF_STEREO_COUNT>
10

> <PUBCHEM_ATOM_UDEF_STEREO_COUNT>
1

> <PUBCHEM_BOND_DEF_STEREO_COUNT>
0

> <PUBCHEM_BOND_UDEF_STEREO_COUNT>
0

> <PUBCHEM_ISOTOPIC_ATOM_COUNT>
0

> <PUBCHEM_COMPONENT_COUNT>
1

> <PUBCHEM_CACTVS_TAUTO_COUNT>
1

> <PUBCHEM_CONFORMER_ID>
07E5A88D00000001

> <PUBCHEM_MMFF94_ENERGY>
134.3303

> <PUBCHEM_FEATURE_SELFOVERLAP>
62.361

> <PUBCHEM_SHAPE_FINGERPRINT>
10169797 241 16968850651180925991
10863032 1 18189923987710933630
10948715 1 17345170376637823024
11578080 2 18128241316679277288
13140716 1 17968394397530989265
13172582 1 17822292340446280652
13224815 77 18412833498911074861
13583140 156 17632286835530302685
14178342 30 18117540852442899917
14223421 5 17131828819569369691
14787075 74 17485619853113184403
15219462 58 17559417909322532746
15238133 3 16662321785479949701
16752209 62 17314220064687049645
16945 1 17604153635789547390
17349148 13 18187633743529138351
17980427 23 18118661413415639540
18981168 100 18268441285418565208
192875 21 18041825294856693709
20600515 1 18041540516760274384
20691752 17 17822854165176182415
22149856 69 18339935857791193185
2334 1 17824845544000864413
23419403 2 18201441363670093202
23493267 7 16589733161347433563
23557571 272 18198338661746523355
23559900 14 18411135810055718726
238 59 18260832656517090031
2748010 2 17678475253434427471
3286 77 18060131003686242246
34934 24 17530973518047865556
74978 22 17895203220037315295

> <PUBCHEM_SHAPE_MULTIPOLES>
521.32
6.17
2.45
2.31
1.5
0.33
0.07
-0.08
-0.18
-0.79
0.66
-1.22
-1.13
0.99

> <PUBCHEM_SHAPE_SELFOVERLAP>
1157.94

> <PUBCHEM_SHAPE_VOLUME>
271.6

> <PUBCHEM_COORDINATE_TYPE>
2
5
10

$$$$
