13343337
  -OEChem-08242016482D

 84 90  0     1  0  0  0  0  0999 V2000
    7.3395   -0.9129    0.0000 O   0  0  0  0  0  0  0  0  0  0  0  0
    5.8220   -2.0818    0.0000 O   0  0  0  0  0  0  0  0  0  0  0  0
    3.9993    1.6800    0.0000 O   0  0  0  0  0  0  0  0  0  0  0  0
    7.7157    1.4285    0.0000 O   0  0  0  0  0  0  0  0  0  0  0  0
    6.1245    2.9919    0.0000 O   0  0  0  0  0  0  0  0  0  0  0  0
    8.1286   -0.4717    0.0000 O   0  0  0  0  0  0  0  0  0  0  0  0
    8.1170    2.1380    0.0000 O   0  0  0  0  0  0  0  0  0  0  0  0
    3.1333   -2.5551    0.0000 O   0  0  0  0  0  0  0  0  0  0  0  0
    8.9435    0.2068    0.0000 O   0  0  0  0  0  0  0  0  0  0  0  0
    2.8040   -0.1490    0.0000 N   0  0  3  0  0  0  0  0  0  0  0  0
    4.7506    0.2462    0.0000 C   0  0  1  0  0  0  0  0  0  0  0  0
    4.7506   -0.6213    0.0000 C   0  0  3  0  0  0  0  0  0  0  0  0
    5.4289    0.7872    0.0000 C   0  0  3  0  0  0  0  0  0  0  0  0
    3.7487    0.1402    0.0000 C   0  0  3  0  0  0  0  0  0  0  0  0
    6.2748   -0.9692    0.0000 C   0  0  2  0  0  0  0  0  0  0  0  0
    6.2748    0.5941    0.0000 C   0  0  3  0  0  0  0  0  0  0  0  0
    6.6512   -0.1876    0.0000 C   0  0  1  0  0  0  0  0  0  0  0  0
    5.4289   -1.1623    0.0000 C   0  0  2  0  0  0  0  0  0  0  0  0
    3.9993   -1.0551    0.0000 C   0  0  2  0  0  0  0  0  0  0  0  0
    3.9993    0.6800    0.0000 C   0  0  2  0  0  0  0  0  0  0  0  0
    5.3512    1.6512    0.0000 C   0  0  0  0  0  0  0  0  0  0  0  0
    6.1489    1.9922    0.0000 C   0  0  1  0  0  0  0  0  0  0  0  0
    6.7198    1.3389    0.0000 C   0  0  2  0  0  0  0  0  0  0  0  0
    7.2961    0.0824    0.0000 C   0  0  2  0  0  0  0  0  0  0  0  0
    2.8040   -0.9009    0.0000 C   0  0  0  0  0  0  0  0  0  0  0  0
    7.2961    1.5669    0.0000 C   0  0  2  0  0  0  0  0  0  0  0  0
    3.2480   -0.6213    0.0000 C   0  0  0  0  0  0  0  0  0  0  0  0
    3.2480    0.2462    0.0000 C   0  0  0  0  0  0  0  0  0  0  0  0
    3.9993   -2.0551    0.0000 C   0  0  0  0  0  0  0  0  0  0  0  0
    2.0000    0.4457    0.0000 C   0  0  0  0  0  0  0  0  0  0  0  0
    5.2221   -2.8819    0.0000 C   0  0  0  0  0  0  0  0  0  0  0  0
    3.1333    2.1800    0.0000 C   0  0  0  0  0  0  0  0  0  0  0  0
    8.6823    1.1721    0.0000 C   0  0  0  0  0  0  0  0  0  0  0  0
    8.0328    3.1344    0.0000 C   0  0  0  0  0  0  0  0  0  0  0  0
    3.1333   -3.5551    0.0000 C   0  0  0  0  0  0  0  0  0  0  0  0
    9.3876    1.8810    0.0000 C   0  0  0  0  0  0  0  0  0  0  0  0
   10.3542    1.6246    0.0000 C   0  0  0  0  0  0  0  0  0  0  0  0
    9.1264    2.8462    0.0000 C   0  0  0  0  0  0  0  0  0  0  0  0
   11.0595    2.3334    0.0000 C   0  0  0  0  0  0  0  0  0  0  0  0
    9.8317    3.5551    0.0000 C   0  0  0  0  0  0  0  0  0  0  0  0
   10.7983    3.2987    0.0000 C   0  0  0  0  0  0  0  0  0  0  0  0
    4.7043   -1.2396    0.0000 H   0  0  0  0  0  0  0  0  0  0  0  0
    4.8588    1.0308    0.0000 H   0  0  0  0  0  0  0  0  0  0  0  0
    3.6247    0.7477    0.0000 H   0  0  0  0  0  0  0  0  0  0  0  0
    6.5455   -1.7750    0.0000 H   0  0  0  0  0  0  0  0  0  0  0  0
    6.8941    0.5663    0.0000 H   0  0  0  0  0  0  0  0  0  0  0  0
    4.9620   -1.5702    0.0000 H   0  0  0  0  0  0  0  0  0  0  0  0
    4.5362    0.9900    0.0000 H   0  0  0  0  0  0  0  0  0  0  0  0
    5.1684    2.2437    0.0000 H   0  0  0  0  0  0  0  0  0  0  0  0
    4.7428    1.5314    0.0000 H   0  0  0  0  0  0  0  0  0  0  0  0
    6.9506    1.9143    0.0000 H   0  0  0  0  0  0  0  0  0  0  0  0
    7.8426    0.3751    0.0000 H   0  0  0  0  0  0  0  0  0  0  0  0
    2.1845   -0.8744    0.0000 H   0  0  0  0  0  0  0  0  0  0  0  0
    2.7510   -1.5186    0.0000 H   0  0  0  0  0  0  0  0  0  0  0  0
    7.2179    2.1819    0.0000 H   0  0  0  0  0  0  0  0  0  0  0  0
    2.6374   -0.5137    0.0000 H   0  0  0  0  0  0  0  0  0  0  0  0
    3.0359   -1.2040    0.0000 H   0  0  0  0  0  0  0  0  0  0  0  0
    3.0359    0.8288    0.0000 H   0  0  0  0  0  0  0  0  0  0  0  0
    2.6374    0.1386    0.0000 H   0  0  0  0  0  0  0  0  0  0  0  0
    4.2114   -2.6377    0.0000 H   0  0  0  0  0  0  0  0  0  0  0  0
    4.6099   -1.9475    0.0000 H   0  0  0  0  0  0  0  0  0  0  0  0
    7.3774   -1.5318    0.0000 H   0  0  0  0  0  0  0  0  0  0  0  0
    2.3687    0.9441    0.0000 H   0  0  0  0  0  0  0  0  0  0  0  0
    1.5015    0.8144    0.0000 H   0  0  0  0  0  0  0  0  0  0  0  0
    1.6313   -0.0528    0.0000 H   0  0  0  0  0  0  0  0  0  0  0  0
    6.6537    3.3150    0.0000 H   0  0  0  0  0  0  0  0  0  0  0  0
    8.0892   -1.0904    0.0000 H   0  0  0  0  0  0  0  0  0  0  0  0
    4.7261   -2.5100    0.0000 H   0  0  0  0  0  0  0  0  0  0  0  0
    4.8502   -3.3780    0.0000 H   0  0  0  0  0  0  0  0  0  0  0  0
    5.7182   -3.2538    0.0000 H   0  0  0  0  0  0  0  0  0  0  0  0
    3.4433    2.7170    0.0000 H   0  0  0  0  0  0  0  0  0  0  0  0
    2.5963    2.4900    0.0000 H   0  0  0  0  0  0  0  0  0  0  0  0
    2.8233    1.6431    0.0000 H   0  0  0  0  0  0  0  0  0  0  0  0
    8.6506    3.1866    0.0000 H   0  0  0  0  0  0  0  0  0  0  0  0
    7.9806    3.7522    0.0000 H   0  0  0  0  0  0  0  0  0  0  0  0
    7.4150    3.0823    0.0000 H   0  0  0  0  0  0  0  0  0  0  0  0
    2.5133   -3.5551    0.0000 H   0  0  0  0  0  0  0  0  0  0  0  0
    3.1333   -4.1751    0.0000 H   0  0  0  0  0  0  0  0  0  0  0  0
    3.7533   -3.5551    0.0000 H   0  0  0  0  0  0  0  0  0  0  0  0
   10.5162    1.0261    0.0000 H   0  0  0  0  0  0  0  0  0  0  0  0
    8.5271    3.0052    0.0000 H   0  0  0  0  0  0  0  0  0  0  0  0
   11.6588    2.1745    0.0000 H   0  0  0  0  0  0  0  0  0  0  0  0
    9.6698    4.1536    0.0000 H   0  0  0  0  0  0  0  0  0  0  0  0
   11.2356    3.7382    0.0000 H   0  0  0  0  0  0  0  0  0  0  0  0
 17  1  1  1  0  0  0
  1 62  1  0  0  0  0
  2 18  1  0  0  0  0
  2 31  1  0  0  0  0
 20  3  1  6  0  0  0
  3 32  1  0  0  0  0
  4 23  1  0  0  0  0
  4 33  1  0  0  0  0
 22  5  1  6  0  0  0
  5 66  1  0  0  0  0
 24  6  1  6  0  0  0
  6 67  1  0  0  0  0
 26  7  1  1  0  0  0
  7 34  1  0  0  0  0
  8 29  1  0  0  0  0
  8 35  1  0  0  0  0
  9 33  2  0  0  0  0
 10 14  1  0  0  0  0
 10 25  1  0  0  0  0
 10 30  1  0  0  0  0
 11 12  1  0  0  0  0
 11 13  1  6  0  0  0
 11 14  1  0  0  0  0
 11 20  1  0  0  0  0
 12 18  1  0  0  0  0
 12 19  1  0  0  0  0
 12 42  1  0  0  0  0
 13 16  1  0  0  0  0
 13 21  1  0  0  0  0
 13 43  1  0  0  0  0
 14 15  1  0  0  0  0
 14 44  1  0  0  0  0
 15 17  1  0  0  0  0
 15 18  1  0  0  0  0
 15 45  1  1  0  0  0
 16 17  1  0  0  0  0
 16 23  1  0  0  0  0
 16 46  1  0  0  0  0
 17 24  1  0  0  0  0
 18 47  1  0  0  0  0
 19 25  1  0  0  0  0
 19 27  1  0  0  0  0
 19 29  1  1  0  0  0
 20 28  1  0  0  0  0
 20 48  1  0  0  0  0
 21 22  1  0  0  0  0
 21 49  1  0  0  0  0
 21 50  1  0  0  0  0
 22 23  1  0  0  0  0
 22 26  1  0  0  0  0
 23 51  1  0  0  0  0
 24 26  1  0  0  0  0
 24 52  1  0  0  0  0
 25 53  1  0  0  0  0
 25 54  1  0  0  0  0
 26 55  1  0  0  0  0
 27 28  1  0  0  0  0
 27 56  1  0  0  0  0
 27 57  1  0  0  0  0
 28 58  1  0  0  0  0
 28 59  1  0  0  0  0
 29 60  1  0  0  0  0
 29 61  1  0  0  0  0
 30 63  1  0  0  0  0
 30 64  1  0  0  0  0
 30 65  1  0  0  0  0
 31 68  1  0  0  0  0
 31 69  1  0  0  0  0
 31 70  1  0  0  0  0
 32 71  1  0  0  0  0
 32 72  1  0  0  0  0
 32 73  1  0  0  0  0
 33 36  1  0  0  0  0
 34 74  1  0  0  0  0
 34 75  1  0  0  0  0
 34 76  1  0  0  0  0
 35 77  1  0  0  0  0
 35 78  1  0  0  0  0
 35 79  1  0  0  0  0
 36 37  2  0  0  0  0
 36 38  1  0  0  0  0
 37 39  1  0  0  0  0
 37 80  1  0  0  0  0
 38 40  2  0  0  0  0
 38 81  1  0  0  0  0
 39 41  2  0  0  0  0
 39 82  1  0  0  0  0
 40 41  1  0  0  0  0
 40 83  1  0  0  0  0
 41 84  1  0  0  0  0
M  END
> <PUBCHEM_COMPOUND_CID>
13343337

> <PUBCHEM_COMPOUND_CANONICALIZED>
1

> <PUBCHEM_CACTVS_COMPLEXITY>
1050

> <PUBCHEM_CACTVS_HBOND_ACCEPTOR>
10

> <PUBCHEM_CACTVS_HBOND_DONOR>
3

> <PUBCHEM_CACTVS_ROTATABLE_BOND>
8

> <PUBCHEM_CACTVS_SUBSKEYS>
AAADcfB6PAAAAAAAAAAAAAAAAAAAAYMAAAA8YMGCB4gWAGABAAAAHgAACAAAD3zhmAYyCIMABgCIAiDSCAACAAAkAAAIiAEICMgJNjKAtRiGcQAnwAGLqYf4+P+PgAAAAAAAAADSAAaUADSAAaEADSAAAA==

> <PUBCHEM_IUPAC_OPENEYE_NAME>
[(1S,4R,5S,6S,7S,8R,9S,13S,16S,18R)-5,7,8-trihydroxy-6,16,18-trimethoxy-13-(methoxymethyl)-11-methyl-11-azahexacyclo[7.7.2.12,5.01,10.03,8.013,17]nonadecan-4-yl] benzoate

> <PUBCHEM_IUPAC_CAS_NAME>
benzoic acid [(1S,4R,5S,6S,7S,8R,9S,13S,16S,18R)-5,7,8-trihydroxy-6,16,18-trimethoxy-13-(methoxymethyl)-11-methyl-11-azahexacyclo[7.7.2.12,5.01,10.03,8.013,17]nonadecan-4-yl] ester

> <PUBCHEM_IUPAC_NAME_MARKUP>
[(1<I>S</I>,4<I>R</I>,5<I>S</I>,6<I>S</I>,7<I>S</I>,8<I>R</I>,9<I>S</I>,13<I>S</I>,16<I>S</I>,18<I>R</I>)-5,7,8-trihydroxy-6,16,18-trimethoxy-13-(methoxymethyl)-11-methyl-11-azahexacyclo[7.7.2.1<SUP>2,5</SUP>.0<SUP>1,10</SUP>.0<SUP>3,8</SUP>.0<SUP>13,17</SUP>]nonadecan-4-yl] benzoate

> <PUBCHEM_IUPAC_NAME>
[(1S,4R,5S,6S,7S,8R,9S,13S,16S,18R)-5,7,8-trihydroxy-6,16,18-trimethoxy-13-(methoxymethyl)-11-methyl-11-azahexacyclo[7.7.2.12,5.01,10.03,8.013,17]nonadecan-4-yl] benzoate

> <PUBCHEM_IUPAC_SYSTEMATIC_NAME>
[(1S,4R,5S,6S,7S,8R,9S,13S,16S,18R)-6,16,18-trimethoxy-13-(methoxymethyl)-11-methyl-5,7,8-tris(oxidanyl)-11-azahexacyclo[7.7.2.12,5.01,10.03,8.013,17]nonadecan-4-yl] benzoate

> <PUBCHEM_IUPAC_TRADITIONAL_NAME>
benzoic acid [(1S,4R,5S,6S,7S,8R,9S,13S,16S,18R)-5,7,8-trihydroxy-6,16,18-trimethoxy-13-(methoxymethyl)-11-methyl-11-azahexacyclo[7.7.2.12,5.01,10.03,8.013,17]nonadecan-4-yl] ester

> <PUBCHEM_IUPAC_INCHI>
InChI=1S/C31H43NO9/c1-32-14-28(15-37-2)12-11-18(38-3)30-17-13-29(35)25(41-27(34)16-9-7-6-8-10-16)19(17)31(36,24(33)26(29)40-5)20(23(30)32)21(39-4)22(28)30/h6-10,17-26,33,35-36H,11-15H2,1-5H3/t17?,18-,19?,20+,21-,22?,23?,24-,25+,26-,28-,29-,30-,31+/m0/s1

> <PUBCHEM_IUPAC_INCHIKEY>
MDFCJNFOINXVSU-CBQVYLALSA-N

> <PUBCHEM_XLOGP3_AA>
0.3

> <PUBCHEM_EXACT_MASS>
573.293782

> <PUBCHEM_MOLECULAR_FORMULA>
C31H43NO9

> <PUBCHEM_MOLECULAR_WEIGHT>
573.7

> <PUBCHEM_OPENEYE_CAN_SMILES>
CN1CC2(CCC(C34C2C(C(C31)C5(C6C4CC(C6OC(=O)C7=CC=CC=C7)(C(C5O)OC)O)O)OC)OC)COC

> <PUBCHEM_OPENEYE_ISO_SMILES>
CN1C[C@@]2(CC[C@@H]([C@]34C1[C@@H]([C@@H](C23)OC)[C@]5([C@H]([C@@H]([C@@]6(CC4C5[C@H]6OC(=O)C7=CC=CC=C7)O)OC)O)O)OC)COC

> <PUBCHEM_CACTVS_TPSA>
127

> <PUBCHEM_MONOISOTOPIC_WEIGHT>
573.293782

> <PUBCHEM_TOTAL_CHARGE>
0

> <PUBCHEM_HEAVY_ATOM_COUNT>
41

> <PUBCHEM_ATOM_DEF_STEREO_COUNT>
10

> <PUBCHEM_ATOM_UDEF_STEREO_COUNT>
4

> <PUBCHEM_BOND_DEF_STEREO_COUNT>
0

> <PUBCHEM_BOND_UDEF_STEREO_COUNT>
0

> <PUBCHEM_ISOTOPIC_ATOM_COUNT>
0

> <PUBCHEM_COMPONENT_COUNT>
1

> <PUBCHEM_CACTVS_TAUTO_COUNT>
-1

> <PUBCHEM_COORDINATE_TYPE>
1
5
255

> <PUBCHEM_BONDANNOTATIONS>
17  1  5
14  10  3
11  13  6
12  18  3
13  21  3
15  45  5
16  23  3
19  29  5
20  3  6
36  37  8
36  38  8
37  39  8
38  40  8
39  41  8
40  41  8
22  5  6
24  6  6
26  7  5

$$$$
