44207635
  -OEChem-10022016113D

 93100  0     1  0  0  0  0  0999 V2000
    1.2276   -2.3979    1.9980 O   0  0  0  0  0  0  0  0  0  0  0  0
    0.9694   -0.4131   -3.9267 O   0  0  0  0  0  0  0  0  0  0  0  0
   -0.1639    1.8352   -2.6986 O   0  0  0  0  0  0  0  0  0  0  0  0
   -4.2502    1.2573    0.6079 O   0  0  0  0  0  0  0  0  0  0  0  0
   -1.6969    2.2802    0.4998 O   0  0  0  0  0  0  0  0  0  0  0  0
    3.2608   -2.0412    3.0030 O   0  0  0  0  0  0  0  0  0  0  0  0
    4.9562   -0.9325    0.6907 O   0  0  0  0  0  0  0  0  0  0  0  0
   -1.3644    2.8528    3.4698 O   0  0  0  0  0  0  0  0  0  0  0  0
   -1.7818    3.4004   -3.1823 O   0  0  0  0  0  0  0  0  0  0  0  0
    0.1611    3.4084    1.8380 O   0  0  0  0  0  0  0  0  0  0  0  0
    6.3994    0.8581    0.4717 O   0  0  0  0  0  0  0  0  0  0  0  0
    0.3121   -2.4259   -1.6442 C   0  0  1  0  0  0  0  0  0  0  0  0
   -0.7423   -2.8712   -2.6675 C   0  0  1  0  0  0  0  0  0  0  0  0
   -1.0571   -1.6982   -3.5773 C   0  0  1  0  0  0  0  0  0  0  0  0
    0.1051   -0.8736   -1.6752 C   0  0  2  0  0  0  0  0  0  0  0  0
    0.1791   -2.9406   -0.1438 C   0  0  1  0  0  0  0  0  0  0  0  0
   -0.2141   -0.5112   -3.1446 C   0  0  1  0  0  0  0  0  0  0  0  0
   -0.4904   -2.9619   -4.1542 C   0  0  0  0  0  0  0  0  0  0  0  0
    0.4702   -1.7855    0.9159 C   0  0  1  0  0  0  0  0  0  0  0  0
   -4.3790   -1.8623    0.4487 C   0  0  2  0  0  0  0  0  0  0  0  0
   -3.6032   -3.0929   -0.0089 C   0  0  1  0  0  0  0  0  0  0  0  0
   -1.0862   -3.7490    0.2155 C   0  0  0  0  0  0  0  0  0  0  0  0
   -0.7955   -1.1396    1.6266 C   0  0  2  0  0  0  0  0  0  0  0  0
    1.2065   -0.1147   -0.9429 C   0  0  0  0  0  0  0  0  0  0  0  0
   -3.3948   -0.9412    1.2011 C   0  0  1  0  0  0  0  0  0  0  0  0
   -2.2405   -2.8618    0.4852 C   0  0  0  0  0  0  0  0  0  0  0  0
   -2.0869   -1.7054    1.1436 C   0  0  0  0  0  0  0  0  0  0  0  0
    1.4740   -0.8139    0.3595 C   0  0  0  0  0  0  0  0  0  0  0  0
    1.7224   -2.8705   -2.1302 C   0  0  0  0  0  0  0  0  0  0  0  0
   -4.7509   -3.2405    0.9434 C   0  0  0  0  0  0  0  0  0  0  0  0
   -0.9647    0.8124   -3.2615 C   0  0  0  0  0  0  0  0  0  0  0  0
   -3.1574    0.3691    0.4266 C   0  0  2  0  0  0  0  0  0  0  0  0
   -0.8659    0.3780    1.6691 C   0  0  0  0  0  0  0  0  0  0  0  0
    2.6051   -0.8007    1.0663 C   0  0  0  0  0  0  0  0  0  0  0  0
   -3.8912   -0.7064    2.6360 C   0  0  0  0  0  0  0  0  0  0  0  0
   -1.8815    1.1108    0.8392 C   0  0  0  0  0  0  0  0  0  0  0  0
    2.4382   -1.7876    2.1398 C   0  0  0  0  0  0  0  0  0  0  0  0
   -0.1348    1.1207    2.5149 C   0  0  0  0  0  0  0  0  0  0  0  0
    3.8618   -0.0426    0.8706 C   0  0  0  0  0  0  0  0  0  0  0  0
    0.9133    0.5250    3.4029 C   0  0  0  0  0  0  0  0  0  0  0  0
   -0.6907    3.0976   -2.7207 C   0  0  0  0  0  0  0  0  0  0  0  0
   -0.4034    2.5850    2.5441 C   0  0  0  0  0  0  0  0  0  0  0  0
    0.2675    4.0627   -2.1007 C   0  0  0  0  0  0  0  0  0  0  0  0
    6.1759   -0.3446    0.4999 C   0  0  0  0  0  0  0  0  0  0  0  0
    1.7335    3.7532   -2.1689 C   0  0  0  0  0  0  0  0  0  0  0  0
   -0.2838    5.1315   -1.4967 C   0  0  0  0  0  0  0  0  0  0  0  0
   -1.7264    4.2313    3.6073 C   0  0  0  0  0  0  0  0  0  0  0  0
    7.2277   -1.3979    0.3255 C   0  0  0  0  0  0  0  0  0  0  0  0
    0.4312    6.2553   -0.8158 C   0  0  0  0  0  0  0  0  0  0  0  0
   -1.5899   -3.4115   -2.2815 H   0  0  0  0  0  0  0  0  0  0  0  0
   -2.1011   -1.4717   -3.7508 H   0  0  0  0  0  0  0  0  0  0  0  0
   -0.8330   -0.6794   -1.1400 H   0  0  0  0  0  0  0  0  0  0  0  0
    0.9790   -3.6865   -0.0093 H   0  0  0  0  0  0  0  0  0  0  0  0
    0.5160   -2.9535   -4.5471 H   0  0  0  0  0  0  0  0  0  0  0  0
   -1.1606   -3.5895   -4.7324 H   0  0  0  0  0  0  0  0  0  0  0  0
   -5.0481   -1.3676   -0.2410 H   0  0  0  0  0  0  0  0  0  0  0  0
   -3.7213   -3.4090   -1.0365 H   0  0  0  0  0  0  0  0  0  0  0  0
   -0.8900   -4.3263    1.1298 H   0  0  0  0  0  0  0  0  0  0  0  0
   -1.3105   -4.4995   -0.5481 H   0  0  0  0  0  0  0  0  0  0  0  0
   -0.7873   -1.4706    2.6765 H   0  0  0  0  0  0  0  0  0  0  0  0
    0.8923    0.9096   -0.7275 H   0  0  0  0  0  0  0  0  0  0  0  0
    2.1159   -0.0657   -1.5507 H   0  0  0  0  0  0  0  0  0  0  0  0
    1.7393   -3.9554   -2.2912 H   0  0  0  0  0  0  0  0  0  0  0  0
    2.5078   -2.6404   -1.4036 H   0  0  0  0  0  0  0  0  0  0  0  0
    2.0279   -2.4037   -3.0683 H   0  0  0  0  0  0  0  0  0  0  0  0
   -5.6660   -3.6778    0.5598 H   0  0  0  0  0  0  0  0  0  0  0  0
   -4.5410   -3.5141    1.9699 H   0  0  0  0  0  0  0  0  0  0  0  0
   -1.9268    0.7654   -2.7380 H   0  0  0  0  0  0  0  0  0  0  0  0
   -1.1535    1.0450   -4.3170 H   0  0  0  0  0  0  0  0  0  0  0  0
   -3.0732    0.1621   -0.6479 H   0  0  0  0  0  0  0  0  0  0  0  0
    0.7062   -0.2653   -4.8511 H   0  0  0  0  0  0  0  0  0  0  0  0
   -4.9215   -0.3326    2.6385 H   0  0  0  0  0  0  0  0  0  0  0  0
   -3.2724    0.0194    3.1735 H   0  0  0  0  0  0  0  0  0  0  0  0
   -3.8832   -1.6316    3.2231 H   0  0  0  0  0  0  0  0  0  0  0  0
    4.0464    0.5818    1.7530 H   0  0  0  0  0  0  0  0  0  0  0  0
    3.7873    0.6175   -0.0010 H   0  0  0  0  0  0  0  0  0  0  0  0
   -4.1262    2.0037   -0.0031 H   0  0  0  0  0  0  0  0  0  0  0  0
    1.9146    0.7626    3.0431 H   0  0  0  0  0  0  0  0  0  0  0  0
    0.8364    1.0136    4.3839 H   0  0  0  0  0  0  0  0  0  0  0  0
    0.7987   -0.5313    3.6297 H   0  0  0  0  0  0  0  0  0  0  0  0
    2.0091    3.0324   -1.3931 H   0  0  0  0  0  0  0  0  0  0  0  0
    1.9912    3.3270   -3.1447 H   0  0  0  0  0  0  0  0  0  0  0  0
    2.3581    4.6420   -2.0488 H   0  0  0  0  0  0  0  0  0  0  0  0
   -1.3673    5.2407   -1.4940 H   0  0  0  0  0  0  0  0  0  0  0  0
   -2.5031    4.3038    4.3732 H   0  0  0  0  0  0  0  0  0  0  0  0
   -2.1269    4.6130    2.6632 H   0  0  0  0  0  0  0  0  0  0  0  0
   -0.8609    4.8195    3.9267 H   0  0  0  0  0  0  0  0  0  0  0  0
    7.2808   -2.0202    1.2223 H   0  0  0  0  0  0  0  0  0  0  0  0
    8.1995   -0.9191    0.1752 H   0  0  0  0  0  0  0  0  0  0  0  0
    6.9997   -2.0068   -0.5530 H   0  0  0  0  0  0  0  0  0  0  0  0
    0.0330    6.3793    0.1965 H   0  0  0  0  0  0  0  0  0  0  0  0
    0.2638    7.1876   -1.3637 H   0  0  0  0  0  0  0  0  0  0  0  0
    1.5079    6.0982   -0.7255 H   0  0  0  0  0  0  0  0  0  0  0  0
  1 19  1  0  0  0  0
  1 37  1  0  0  0  0
  2 17  1  0  0  0  0
  2 71  1  0  0  0  0
  3 31  1  0  0  0  0
  3 41  1  0  0  0  0
  4 32  1  0  0  0  0
  4 77  1  0  0  0  0
  5 36  2  0  0  0  0
  6 37  2  0  0  0  0
  7 39  1  0  0  0  0
  7 44  1  0  0  0  0
  8 42  1  0  0  0  0
  8 47  1  0  0  0  0
  9 41  2  0  0  0  0
 10 42  2  0  0  0  0
 11 44  2  0  0  0  0
 12 13  1  0  0  0  0
 12 15  1  0  0  0  0
 12 16  1  0  0  0  0
 12 29  1  0  0  0  0
 13 14  1  0  0  0  0
 13 18  1  0  0  0  0
 13 50  1  0  0  0  0
 14 17  1  0  0  0  0
 14 18  1  0  0  0  0
 14 51  1  0  0  0  0
 15 17  1  0  0  0  0
 15 24  1  0  0  0  0
 15 52  1  0  0  0  0
 16 19  1  0  0  0  0
 16 22  1  0  0  0  0
 16 53  1  0  0  0  0
 17 31  1  0  0  0  0
 18 54  1  0  0  0  0
 18 55  1  0  0  0  0
 19 23  1  0  0  0  0
 19 28  1  0  0  0  0
 20 21  1  0  0  0  0
 20 25  1  0  0  0  0
 20 30  1  0  0  0  0
 20 56  1  0  0  0  0
 21 26  1  0  0  0  0
 21 30  1  0  0  0  0
 21 57  1  0  0  0  0
 22 26  1  0  0  0  0
 22 58  1  0  0  0  0
 22 59  1  0  0  0  0
 23 27  1  0  0  0  0
 23 33  1  0  0  0  0
 23 60  1  0  0  0  0
 24 28  1  0  0  0  0
 24 61  1  0  0  0  0
 24 62  1  0  0  0  0
 25 27  1  0  0  0  0
 25 32  1  0  0  0  0
 25 35  1  0  0  0  0
 26 27  2  0  0  0  0
 28 34  2  0  0  0  0
 29 63  1  0  0  0  0
 29 64  1  0  0  0  0
 29 65  1  0  0  0  0
 30 66  1  0  0  0  0
 30 67  1  0  0  0  0
 31 68  1  0  0  0  0
 31 69  1  0  0  0  0
 32 36  1  0  0  0  0
 32 70  1  0  0  0  0
 33 36  1  0  0  0  0
 33 38  2  0  0  0  0
 34 37  1  0  0  0  0
 34 39  1  0  0  0  0
 35 72  1  0  0  0  0
 35 73  1  0  0  0  0
 35 74  1  0  0  0  0
 38 40  1  0  0  0  0
 38 42  1  0  0  0  0
 39 75  1  0  0  0  0
 39 76  1  0  0  0  0
 40 78  1  0  0  0  0
 40 79  1  0  0  0  0
 40 80  1  0  0  0  0
 41 43  1  0  0  0  0
 43 45  1  0  0  0  0
 43 46  2  0  0  0  0
 44 48  1  0  0  0  0
 45 81  1  0  0  0  0
 45 82  1  0  0  0  0
 45 83  1  0  0  0  0
 46 49  1  0  0  0  0
 46 84  1  0  0  0  0
 47 85  1  0  0  0  0
 47 86  1  0  0  0  0
 47 87  1  0  0  0  0
 48 88  1  0  0  0  0
 48 89  1  0  0  0  0
 48 90  1  0  0  0  0
 49 91  1  0  0  0  0
 49 92  1  0  0  0  0
 49 93  1  0  0  0  0
M  END
> <PUBCHEM_COMPOUND_CID>
44207635

> <PUBCHEM_CONFORMER_RMSD>
1.2

> <PUBCHEM_CONFORMER_DIVERSEORDER>
1
8
5
3
4
2
10
6
7
9

> <PUBCHEM_MMFF94_PARTIAL_CHARGES>
56
1 -0.43
10 -0.57
11 -0.57
12 0.09
13 -0.19
14 -0.19
17 0.38
18 -0.2
19 0.42
2 -0.68
20 -0.19
21 -0.06
22 0.14
23 0.28
24 0.14
25 0.23
26 -0.18
27 -0.28
28 -0.28
3 -0.43
30 -0.2
31 0.28
32 0.34
33 -0.12
34 -0.12
36 0.49
37 0.71
38 -0.12
39 0.42
4 -0.68
40 0.14
41 0.71
42 0.71
43 -0.12
44 0.66
45 0.14
46 -0.29
47 0.28
48 0.06
49 0.14
5 -0.57
50 0.1
51 0.1
54 0.1
55 0.1
56 0.1
57 0.1
6 -0.57
66 0.1
67 0.1
7 -0.43
71 0.4
77 0.4
8 -0.43
84 0.15
9 -0.57

> <PUBCHEM_EFFECTIVE_ROTOR_COUNT>
10.4

> <PUBCHEM_PHARMACOPHORE_FEATURES>
18
1 10 acceptor
1 11 acceptor
1 2 acceptor
1 2 donor
1 4 acceptor
1 4 donor
1 40 hydrophobe
1 45 hydrophobe
1 49 hydrophobe
1 5 acceptor
1 6 acceptor
1 9 acceptor
5 1 19 28 34 37 rings
6 12 13 14 15 17 18 rings
6 12 15 16 19 24 28 rings
6 16 19 22 23 26 27 rings
6 20 21 25 26 27 30 rings
6 23 25 27 32 33 36 rings

> <PUBCHEM_HEAVY_ATOM_COUNT>
49

> <PUBCHEM_ATOM_DEF_STEREO_COUNT>
12

> <PUBCHEM_ATOM_UDEF_STEREO_COUNT>
0

> <PUBCHEM_BOND_DEF_STEREO_COUNT>
2

> <PUBCHEM_BOND_UDEF_STEREO_COUNT>
0

> <PUBCHEM_ISOTOPIC_ATOM_COUNT>
0

> <PUBCHEM_COMPONENT_COUNT>
1

> <PUBCHEM_CACTVS_TAUTO_COUNT>
86

> <PUBCHEM_CONFORMER_ID>
02A28E1300000001

> <PUBCHEM_MMFF94_ENERGY>
180.7841

> <PUBCHEM_FEATURE_SELFOVERLAP>
91.706

> <PUBCHEM_SHAPE_FINGERPRINT>
10032420 55 17767933512356779057
11578080 2 17607524623030586202
12058002 1 17977143242061761618
12156800 1 18197243436400897276
13761468 95 18270394976564419228
14068700 675 18337116777367885858
15406563 42 17758107108315177501
17980427 23 18338527438181125247
19309040 13 16698083332665274080
19319366 153 17330289770766655360
20600515 1 18339098033091859259
21857420 4 17986974989733548337
3493558 16 18120671368205322690
46939830 39 18337667620130590993
550186 7 18192142699181011972
57527306 92 18411414042358715570

> <PUBCHEM_SHAPE_MULTIPOLES>
943.83
7.55
6.6
4.85
9.06
10.09
-2.68
-7.13
4.74
1.59
-2.08
-0.26
1.76
-2.41

> <PUBCHEM_SHAPE_SELFOVERLAP>
2085.257

> <PUBCHEM_SHAPE_VOLUME>
509.8

> <PUBCHEM_COORDINATE_TYPE>
2
5
10

$$$$
