102031673
  -OEChem-10022016113D

 93100  0     1  0  0  0  0  0999 V2000
    1.2234   -2.4035    1.9942 O   0  0  0  0  0  0  0  0  0  0  0  0
    0.9765   -0.4005   -3.9259 O   0  0  0  0  0  0  0  0  0  0  0  0
   -0.1574    1.8442   -2.6907 O   0  0  0  0  0  0  0  0  0  0  0  0
   -4.2516    1.2587    0.6352 O   0  0  0  0  0  0  0  0  0  0  0  0
   -1.6895    2.2678    0.4735 O   0  0  0  0  0  0  0  0  0  0  0  0
    3.2548   -2.0511    3.0043 O   0  0  0  0  0  0  0  0  0  0  0  0
    4.9557   -0.9373    0.6979 O   0  0  0  0  0  0  0  0  0  0  0  0
   -1.3780    2.8520    3.4576 O   0  0  0  0  0  0  0  0  0  0  0  0
   -1.7740    3.4119   -3.1710 O   0  0  0  0  0  0  0  0  0  0  0  0
    0.1544    3.4055    1.8316 O   0  0  0  0  0  0  0  0  0  0  0  0
    6.4006    0.8529    0.4869 O   0  0  0  0  0  0  0  0  0  0  0  0
    0.3149   -2.4202   -1.6504 C   0  0  1  0  0  0  0  0  0  0  0  0
   -0.7385   -2.8618   -2.6764 C   0  0  1  0  0  0  0  0  0  0  0  0
   -1.0512   -1.6856   -3.5831 C   0  0  1  0  0  0  0  0  0  0  0  0
    0.1086   -0.8678   -1.6768 C   0  0  2  0  0  0  0  0  0  0  0  0
    0.1799   -2.9397   -0.1517 C   0  0  1  0  0  0  0  0  0  0  0  0
   -0.2080   -0.5006   -3.1454 C   0  0  1  0  0  0  0  0  0  0  0  0
   -0.4848   -2.9481   -4.1630 C   0  0  0  0  0  0  0  0  0  0  0  0
    0.4687   -1.7879    0.9123 C   0  0  1  0  0  0  0  0  0  0  0  0
   -4.3804   -1.8687    0.4413 C   0  0  2  0  0  0  0  0  0  0  0  0
   -3.6026   -3.0963   -0.0203 C   0  0  1  0  0  0  0  0  0  0  0  0
   -1.0852   -3.7499    0.2031 C   0  0  0  0  0  0  0  0  0  0  0  0
   -0.7983   -1.1434    1.6219 C   0  0  2  0  0  0  0  0  0  0  0  0
    1.2095   -0.1119   -0.9402 C   0  0  0  0  0  0  0  0  0  0  0  0
   -3.3987   -0.9485    1.1983 C   0  0  1  0  0  0  0  0  0  0  0  0
   -2.2404   -2.8643    0.4746 C   0  0  0  0  0  0  0  0  0  0  0  0
   -2.0888   -1.7097    1.1366 C   0  0  0  0  0  0  0  0  0  0  0  0
    1.4741   -0.8152    0.3606 C   0  0  0  0  0  0  0  0  0  0  0  0
    1.7257   -2.8639   -2.1362 C   0  0  0  0  0  0  0  0  0  0  0  0
   -4.7501   -3.2494    0.9311 C   0  0  0  0  0  0  0  0  0  0  0  0
   -0.9579    0.8237   -3.2585 C   0  0  0  0  0  0  0  0  0  0  0  0
   -3.1644    0.3676    0.4343 C   0  0  2  0  0  0  0  0  0  0  0  0
   -0.8696    0.3740    1.6638 C   0  0  0  0  0  0  0  0  0  0  0  0
    2.6041   -0.8049    1.0694 C   0  0  0  0  0  0  0  0  0  0  0  0
   -3.8931   -0.7245    2.6357 C   0  0  0  0  0  0  0  0  0  0  0  0
   -1.8818    1.1044    0.8281 C   0  0  0  0  0  0  0  0  0  0  0  0
    2.4342   -1.7945    2.1401 C   0  0  0  0  0  0  0  0  0  0  0  0
   -0.1430    1.1187    2.5115 C   0  0  0  0  0  0  0  0  0  0  0  0
    3.8616   -0.0471    0.8785 C   0  0  0  0  0  0  0  0  0  0  0  0
    0.9016    0.5256    3.4054 C   0  0  0  0  0  0  0  0  0  0  0  0
   -0.6836    3.1069   -2.7089 C   0  0  0  0  0  0  0  0  0  0  0  0
   -0.4128    2.5829    2.5367 C   0  0  0  0  0  0  0  0  0  0  0  0
    0.2741    4.0693   -2.0841 C   0  0  0  0  0  0  0  0  0  0  0  0
    6.1762   -0.3496    0.5111 C   0  0  0  0  0  0  0  0  0  0  0  0
    1.7400    3.7594   -2.1513 C   0  0  0  0  0  0  0  0  0  0  0  0
   -0.2776    5.1361   -1.4769 C   0  0  0  0  0  0  0  0  0  0  0  0
   -1.7417    4.2304    3.5908 C   0  0  0  0  0  0  0  0  0  0  0  0
    7.2275   -1.4032    0.3353 C   0  0  0  0  0  0  0  0  0  0  0  0
    0.4369    6.2571   -0.7909 C   0  0  0  0  0  0  0  0  0  0  0  0
   -1.5872   -3.4022   -2.2930 H   0  0  0  0  0  0  0  0  0  0  0  0
   -2.0948   -1.4578   -3.7573 H   0  0  0  0  0  0  0  0  0  0  0  0
   -0.8305   -0.6750   -1.1425 H   0  0  0  0  0  0  0  0  0  0  0  0
    0.9802   -3.6855   -0.0184 H   0  0  0  0  0  0  0  0  0  0  0  0
    0.5221   -2.9393   -4.5547 H   0  0  0  0  0  0  0  0  0  0  0  0
   -1.1548   -3.5735   -4.7439 H   0  0  0  0  0  0  0  0  0  0  0  0
   -5.0503   -1.3725   -0.2467 H   0  0  0  0  0  0  0  0  0  0  0  0
   -3.7199   -3.4091   -1.0490 H   0  0  0  0  0  0  0  0  0  0  0  0
   -0.8899   -4.3304    1.1155 H   0  0  0  0  0  0  0  0  0  0  0  0
   -1.3082   -4.4977   -0.5635 H   0  0  0  0  0  0  0  0  0  0  0  0
   -0.7910   -1.4747    2.6717 H   0  0  0  0  0  0  0  0  0  0  0  0
    0.8959    0.9121   -0.7224 H   0  0  0  0  0  0  0  0  0  0  0  0
    2.1200   -0.0618   -1.5463 H   0  0  0  0  0  0  0  0  0  0  0  0
    2.5103   -2.6361   -1.4079 H   0  0  0  0  0  0  0  0  0  0  0  0
    2.0323   -2.3944   -3.0726 H   0  0  0  0  0  0  0  0  0  0  0  0
    1.7425   -3.9482   -2.3004 H   0  0  0  0  0  0  0  0  0  0  0  0
   -5.6644   -3.6868    0.5457 H   0  0  0  0  0  0  0  0  0  0  0  0
   -4.5400   -3.5265    1.9567 H   0  0  0  0  0  0  0  0  0  0  0  0
   -1.9207    0.7752   -2.7361 H   0  0  0  0  0  0  0  0  0  0  0  0
   -1.1454    1.0604   -4.3134 H   0  0  0  0  0  0  0  0  0  0  0  0
   -3.0956    0.1676   -0.6428 H   0  0  0  0  0  0  0  0  0  0  0  0
    0.7144   -0.2493   -4.8501 H   0  0  0  0  0  0  0  0  0  0  0  0
   -4.9249   -0.3551    2.6427 H   0  0  0  0  0  0  0  0  0  0  0  0
   -3.2759    0.0009    3.1758 H   0  0  0  0  0  0  0  0  0  0  0  0
   -3.8798   -1.6529    3.2175 H   0  0  0  0  0  0  0  0  0  0  0  0
    4.0450    0.5744    1.7632 H   0  0  0  0  0  0  0  0  0  0  0  0
    3.7893    0.6159    0.0089 H   0  0  0  0  0  0  0  0  0  0  0  0
   -4.1341    2.0073    0.0256 H   0  0  0  0  0  0  0  0  0  0  0  0
    0.7891   -0.5316    3.6298 H   0  0  0  0  0  0  0  0  0  0  0  0
    1.9042    0.7640    3.0492 H   0  0  0  0  0  0  0  0  0  0  0  0
    0.8191    1.0136    4.3861 H   0  0  0  0  0  0  0  0  0  0  0  0
    2.0143    3.0359   -1.3776 H   0  0  0  0  0  0  0  0  0  0  0  0
    1.9988    3.3364   -3.1283 H   0  0  0  0  0  0  0  0  0  0  0  0
    2.3648    4.6476   -2.0275 H   0  0  0  0  0  0  0  0  0  0  0  0
   -1.3611    5.2457   -1.4752 H   0  0  0  0  0  0  0  0  0  0  0  0
   -2.5220    4.3038    4.3529 H   0  0  0  0  0  0  0  0  0  0  0  0
   -2.1380    4.6101    2.6442 H   0  0  0  0  0  0  0  0  0  0  0  0
   -0.8782    4.8199    3.9131 H   0  0  0  0  0  0  0  0  0  0  0  0
    7.2786   -2.0282    1.2304 H   0  0  0  0  0  0  0  0  0  0  0  0
    8.2000   -0.9247    0.1882 H   0  0  0  0  0  0  0  0  0  0  0  0
    7.0006   -2.0093   -0.5453 H   0  0  0  0  0  0  0  0  0  0  0  0
    0.0371    6.3776    0.2213 H   0  0  0  0  0  0  0  0  0  0  0  0
    0.2708    7.1914   -1.3357 H   0  0  0  0  0  0  0  0  0  0  0  0
    1.5133    6.0992   -0.6994 H   0  0  0  0  0  0  0  0  0  0  0  0
  1 19  1  0  0  0  0
  1 37  1  0  0  0  0
  2 17  1  0  0  0  0
  2 71  1  0  0  0  0
  3 31  1  0  0  0  0
  3 41  1  0  0  0  0
  4 32  1  0  0  0  0
  4 77  1  0  0  0  0
  5 36  2  0  0  0  0
  6 37  2  0  0  0  0
  7 39  1  0  0  0  0
  7 44  1  0  0  0  0
  8 42  1  0  0  0  0
  8 47  1  0  0  0  0
  9 41  2  0  0  0  0
 10 42  2  0  0  0  0
 11 44  2  0  0  0  0
 12 13  1  0  0  0  0
 12 15  1  0  0  0  0
 12 16  1  0  0  0  0
 12 29  1  0  0  0  0
 13 14  1  0  0  0  0
 13 18  1  0  0  0  0
 13 50  1  0  0  0  0
 14 17  1  0  0  0  0
 14 18  1  0  0  0  0
 14 51  1  0  0  0  0
 15 17  1  0  0  0  0
 15 24  1  0  0  0  0
 15 52  1  0  0  0  0
 16 19  1  0  0  0  0
 16 22  1  0  0  0  0
 16 53  1  0  0  0  0
 17 31  1  0  0  0  0
 18 54  1  0  0  0  0
 18 55  1  0  0  0  0
 19 23  1  0  0  0  0
 19 28  1  0  0  0  0
 20 21  1  0  0  0  0
 20 25  1  0  0  0  0
 20 30  1  0  0  0  0
 20 56  1  0  0  0  0
 21 26  1  0  0  0  0
 21 30  1  0  0  0  0
 21 57  1  0  0  0  0
 22 26  1  0  0  0  0
 22 58  1  0  0  0  0
 22 59  1  0  0  0  0
 23 27  1  0  0  0  0
 23 33  1  0  0  0  0
 23 60  1  0  0  0  0
 24 28  1  0  0  0  0
 24 61  1  0  0  0  0
 24 62  1  0  0  0  0
 25 27  1  0  0  0  0
 25 32  1  0  0  0  0
 25 35  1  0  0  0  0
 26 27  2  0  0  0  0
 28 34  2  0  0  0  0
 29 63  1  0  0  0  0
 29 64  1  0  0  0  0
 29 65  1  0  0  0  0
 30 66  1  0  0  0  0
 30 67  1  0  0  0  0
 31 68  1  0  0  0  0
 31 69  1  0  0  0  0
 32 36  1  0  0  0  0
 32 70  1  0  0  0  0
 33 36  1  0  0  0  0
 33 38  2  0  0  0  0
 34 37  1  0  0  0  0
 34 39  1  0  0  0  0
 35 72  1  0  0  0  0
 35 73  1  0  0  0  0
 35 74  1  0  0  0  0
 38 40  1  0  0  0  0
 38 42  1  0  0  0  0
 39 75  1  0  0  0  0
 39 76  1  0  0  0  0
 40 78  1  0  0  0  0
 40 79  1  0  0  0  0
 40 80  1  0  0  0  0
 41 43  1  0  0  0  0
 43 45  1  0  0  0  0
 43 46  2  0  0  0  0
 44 48  1  0  0  0  0
 45 81  1  0  0  0  0
 45 82  1  0  0  0  0
 45 83  1  0  0  0  0
 46 49  1  0  0  0  0
 46 84  1  0  0  0  0
 47 85  1  0  0  0  0
 47 86  1  0  0  0  0
 47 87  1  0  0  0  0
 48 88  1  0  0  0  0
 48 89  1  0  0  0  0
 48 90  1  0  0  0  0
 49 91  1  0  0  0  0
 49 92  1  0  0  0  0
 49 93  1  0  0  0  0
M  END
> <PUBCHEM_COMPOUND_CID>
102031673

> <PUBCHEM_CONFORMER_RMSD>
1.2

> <PUBCHEM_CONFORMER_DIVERSEORDER>
1
16
24
7
9
28
13
6
18
4
10
27
26
19
3
8
25
14
5
20
12
17
2
23
15
11
22
21

> <PUBCHEM_MMFF94_PARTIAL_CHARGES>
56
1 -0.43
10 -0.57
11 -0.57
12 0.09
13 -0.19
14 -0.19
17 0.38
18 -0.2
19 0.42
2 -0.68
20 -0.19
21 -0.06
22 0.14
23 0.28
24 0.14
25 0.23
26 -0.18
27 -0.28
28 -0.28
3 -0.43
30 -0.2
31 0.28
32 0.34
33 -0.12
34 -0.12
36 0.49
37 0.71
38 -0.12
39 0.42
4 -0.68
40 0.14
41 0.71
42 0.71
43 -0.12
44 0.66
45 0.14
46 -0.29
47 0.28
48 0.06
49 0.14
5 -0.57
50 0.1
51 0.1
54 0.1
55 0.1
56 0.1
57 0.1
6 -0.57
66 0.1
67 0.1
7 -0.43
71 0.4
77 0.4
8 -0.43
84 0.15
9 -0.57

> <PUBCHEM_EFFECTIVE_ROTOR_COUNT>
10.4

> <PUBCHEM_PHARMACOPHORE_FEATURES>
18
1 10 acceptor
1 11 acceptor
1 2 acceptor
1 2 donor
1 4 acceptor
1 4 donor
1 40 hydrophobe
1 45 hydrophobe
1 49 hydrophobe
1 5 acceptor
1 6 acceptor
1 9 acceptor
5 1 19 28 34 37 rings
6 12 13 14 15 17 18 rings
6 12 15 16 19 24 28 rings
6 16 19 22 23 26 27 rings
6 20 21 25 26 27 30 rings
6 23 25 27 32 33 36 rings

> <PUBCHEM_HEAVY_ATOM_COUNT>
49

> <PUBCHEM_ATOM_DEF_STEREO_COUNT>
10

> <PUBCHEM_ATOM_UDEF_STEREO_COUNT>
2

> <PUBCHEM_BOND_DEF_STEREO_COUNT>
2

> <PUBCHEM_BOND_UDEF_STEREO_COUNT>
0

> <PUBCHEM_ISOTOPIC_ATOM_COUNT>
0

> <PUBCHEM_COMPONENT_COUNT>
1

> <PUBCHEM_CACTVS_TAUTO_COUNT>
6

> <PUBCHEM_CONFORMER_ID>
0614E13900000001

> <PUBCHEM_MMFF94_ENERGY>
180.3734

> <PUBCHEM_FEATURE_SELFOVERLAP>
91.705

> <PUBCHEM_SHAPE_FINGERPRINT>
10032420 55 17768214987333489713
11421498 54 16750086955582252879
11578080 2 17607524623046345474
12156800 1 18197243436406172036
13761468 95 18270394976564419220
14068700 675 18337116777352061602
15406563 42 17758107108309909261
17980427 23 18338527433886157951
19309040 13 16698083332654724584
19319366 153 17257950710336449112
20600515 1 18339098033086577995
21857420 4 17987257564221847825
3493558 16 18120670268693694922
46939830 39 18337386140864181305
550186 7 18192142699181018460
57527306 92 18411414037979326298

> <PUBCHEM_SHAPE_MULTIPOLES>
943.83
7.55
6.6
4.84
9.01
10.11
-2.7
-7.16
4.76
1.63
-2.05
-0.25
1.72
-2.43

> <PUBCHEM_SHAPE_SELFOVERLAP>
2085.17

> <PUBCHEM_SHAPE_VOLUME>
504.7

> <PUBCHEM_COORDINATE_TYPE>
2
5
10

$$$$
