14239912
  -OEChem-10022016103D

 41 44  0     1  0  0  0  0  0999 V2000
    3.8301    0.5356    0.1515 O   0  0  0  0  0  0  0  0  0  0  0  0
   -3.8701   -0.4425   -0.7394 O   0  0  0  0  0  0  0  0  0  0  0  0
   -5.3051    1.3458   -0.5825 O   0  0  0  0  0  0  0  0  0  0  0  0
    4.4106    2.5948   -0.7203 O   0  0  0  0  0  0  0  0  0  0  0  0
    0.6638   -2.4852   -0.6111 C   0  0  2  0  0  0  0  0  0  0  0  0
    1.9432   -1.6698   -0.5263 C   0  0  2  0  0  0  0  0  0  0  0  0
   -0.4213   -1.7197    0.1382 C   0  0  1  0  0  0  0  0  0  0  0  0
    1.9011   -3.0551    0.0423 C   0  0  0  0  0  0  0  0  0  0  0  0
    1.6468   -0.4230    0.2983 C   0  0  2  0  0  0  0  0  0  0  0  0
    0.1421   -0.2590    0.0317 C   0  0  2  0  0  0  0  0  0  0  0  0
   -0.6940    0.7434    0.8244 C   0  0  0  0  0  0  0  0  0  0  0  0
   -1.8226   -1.6911   -0.4427 C   0  0  0  0  0  0  0  0  0  0  0  0
   -0.5633   -2.2488    1.5848 C   0  0  0  0  0  0  0  0  0  0  0  0
    2.4657    0.7791   -0.1456 C   0  0  0  0  0  0  0  0  0  0  0  0
   -2.1112    0.6248    0.3266 C   0  0  0  0  0  0  0  0  0  0  0  0
   -2.5679   -0.5804   -0.3037 C   0  0  0  0  0  0  0  0  0  0  0  0
   -3.0897    1.5218    0.2905 C   0  0  0  0  0  0  0  0  0  0  0  0
   -4.2137    0.8381   -0.3755 C   0  0  0  0  0  0  0  0  0  0  0  0
   -3.1521    2.9205    0.7671 C   0  0  0  0  0  0  0  0  0  0  0  0
    4.7051    1.5321   -0.1899 C   0  0  0  0  0  0  0  0  0  0  0  0
    6.1025    1.1385    0.1817 C   0  0  0  0  0  0  0  0  0  0  0  0
    0.3686   -2.8508   -1.5856 H   0  0  0  0  0  0  0  0  0  0  0  0
    2.4768   -1.4937   -1.4508 H   0  0  0  0  0  0  0  0  0  0  0  0
    2.4329   -3.8322   -0.4959 H   0  0  0  0  0  0  0  0  0  0  0  0
    1.9518   -3.1724    1.1158 H   0  0  0  0  0  0  0  0  0  0  0  0
    1.8506   -0.6265    1.3564 H   0  0  0  0  0  0  0  0  0  0  0  0
    0.0669    0.0502   -1.0285 H   0  0  0  0  0  0  0  0  0  0  0  0
   -0.3146    1.7589    0.6697 H   0  0  0  0  0  0  0  0  0  0  0  0
   -0.6498    0.5307    1.8978 H   0  0  0  0  0  0  0  0  0  0  0  0
   -2.2277   -2.5809   -0.9132 H   0  0  0  0  0  0  0  0  0  0  0  0
    0.3349   -2.0813    2.1863 H   0  0  0  0  0  0  0  0  0  0  0  0
   -1.3901   -1.7741    2.1262 H   0  0  0  0  0  0  0  0  0  0  0  0
   -0.7569   -3.3285    1.5814 H   0  0  0  0  0  0  0  0  0  0  0  0
    2.1360    1.6744    0.3938 H   0  0  0  0  0  0  0  0  0  0  0  0
    2.3525    0.9523   -1.2228 H   0  0  0  0  0  0  0  0  0  0  0  0
   -2.2196    3.2276    1.2502 H   0  0  0  0  0  0  0  0  0  0  0  0
   -3.9602    3.0402    1.4956 H   0  0  0  0  0  0  0  0  0  0  0  0
   -3.3382    3.6016   -0.0692 H   0  0  0  0  0  0  0  0  0  0  0  0
    6.3867    0.2307   -0.3564 H   0  0  0  0  0  0  0  0  0  0  0  0
    6.1686    0.9831    1.2614 H   0  0  0  0  0  0  0  0  0  0  0  0
    6.7921    1.9401   -0.0983 H   0  0  0  0  0  0  0  0  0  0  0  0
  1 14  1  0  0  0  0
  1 20  1  0  0  0  0
  2 16  1  0  0  0  0
  2 18  1  0  0  0  0
  3 18  2  0  0  0  0
  4 20  2  0  0  0  0
  5  6  1  0  0  0  0
  5  7  1  0  0  0  0
  5  8  1  0  0  0  0
  5 22  1  0  0  0  0
  6  8  1  0  0  0  0
  6  9  1  0  0  0  0
  6 23  1  0  0  0  0
  7 10  1  0  0  0  0
  7 12  1  0  0  0  0
  7 13  1  0  0  0  0
  8 24  1  0  0  0  0
  8 25  1  0  0  0  0
  9 10  1  0  0  0  0
  9 14  1  0  0  0  0
  9 26  1  0  0  0  0
 10 11  1  0  0  0  0
 10 27  1  0  0  0  0
 11 15  1  0  0  0  0
 11 28  1  0  0  0  0
 11 29  1  0  0  0  0
 12 16  2  0  0  0  0
 12 30  1  0  0  0  0
 13 31  1  0  0  0  0
 13 32  1  0  0  0  0
 13 33  1  0  0  0  0
 14 34  1  0  0  0  0
 14 35  1  0  0  0  0
 15 16  1  0  0  0  0
 15 17  2  0  0  0  0
 17 18  1  0  0  0  0
 17 19  1  0  0  0  0
 19 36  1  0  0  0  0
 19 37  1  0  0  0  0
 19 38  1  0  0  0  0
 20 21  1  0  0  0  0
 21 39  1  0  0  0  0
 21 40  1  0  0  0  0
 21 41  1  0  0  0  0
M  END
> <PUBCHEM_COMPOUND_CID>
14239912

> <PUBCHEM_CONFORMER_RMSD>
0.6

> <PUBCHEM_CONFORMER_DIVERSEORDER>
1
4
7
6
9
2
5
8
3

> <PUBCHEM_MMFF94_PARTIAL_CHARGES>
24
1 -0.43
11 0.14
12 -0.29
14 0.28
15 -0.14
16 0.08
17 -0.12
18 0.71
19 0.14
2 -0.23
20 0.66
21 0.06
22 0.1
23 0.1
24 0.1
25 0.1
3 -0.57
30 0.15
4 -0.57
5 -0.19
6 -0.19
7 0.23
8 -0.2
9 0.09

> <PUBCHEM_EFFECTIVE_ROTOR_COUNT>
3.8

> <PUBCHEM_PHARMACOPHORE_FEATURES>
5
1 3 acceptor
1 4 acceptor
5 2 15 16 17 18 rings
6 5 6 7 8 9 10 rings
6 7 10 11 12 15 16 rings

> <PUBCHEM_HEAVY_ATOM_COUNT>
21

> <PUBCHEM_ATOM_DEF_STEREO_COUNT>
5

> <PUBCHEM_ATOM_UDEF_STEREO_COUNT>
0

> <PUBCHEM_BOND_DEF_STEREO_COUNT>
0

> <PUBCHEM_BOND_UDEF_STEREO_COUNT>
0

> <PUBCHEM_ISOTOPIC_ATOM_COUNT>
0

> <PUBCHEM_COMPONENT_COUNT>
1

> <PUBCHEM_CACTVS_TAUTO_COUNT>
1

> <PUBCHEM_CONFORMER_ID>
00D948A800000001

> <PUBCHEM_MMFF94_ENERGY>
58.5549

> <PUBCHEM_FEATURE_SELFOVERLAP>
25.5

> <PUBCHEM_SHAPE_FINGERPRINT>
10382601 240 18041562421404350090
10411042 1 17403173098322750134
10948715 1 18409166614679318962
12107183 9 18335128779800622672
12173636 292 18196087974761572788
12293681 160 17917992771649785944
12633257 1 17604413134252334394
12769317 202 18338503158356980677
12788726 201 17247821949551459066
13140716 1 17978239583918582027
13288520 33 9151183060015254592
13464514 151 18340494374294145386
13590594 115 17617952326767275522
14251764 75 17913221866560721497
14466204 15 18341887503204026304
14508225 48 17120003786988643606
14713325 29 18265341779246056451
14767858 380 18270666680353200175
14787075 74 18335983185802603803
15061688 2 18334012800197620978
15163728 17 18264230121951511724
16087824 20 18342172324614674095
16945 1 18272359910853661235
17980427 26 18115853118931878415
200 152 14261362374846899552
20554085 129 17917128569212887978
20612939 158 18268710523954146295
21524375 3 18408882953817079050
22182313 1 18196400145727681646
2255824 54 18194964037127906571
22950370 63 9223237360145829220
23366157 5 18190182287123814210
23402539 116 18272364330427581228
23419403 2 14999059768064751058
23559900 14 17700687363906214590
245318 6 17751094706663184332
394222 165 18335415703936155234
4340502 62 17822015289955954251
474 4 18335138669986769704
5104073 3 18189061902255024179
6327066 14 18335418014982156932
6328613 192 18189625011692798396
633830 44 18265613187204247983
67856867 119 18339914905711978418
7364860 26 18270399361167203438
84936 182 18271524191600530160
9981440 41 18409166653592650578

> <PUBCHEM_SHAPE_MULTIPOLES>
408.69
9.86
3.26
0.91
6.73
0.58
-0.2
-9.49
1.58
1
-0.19
-0.26
0.2
-0.47

> <PUBCHEM_SHAPE_SELFOVERLAP>
892.091

> <PUBCHEM_SHAPE_VOLUME>
226.9

> <PUBCHEM_COORDINATE_TYPE>
2
5
10

$$$$
