24796198
  -OEChem-10022016163D

 89 97  0     1  0  0  0  0  0999 V2000
   -1.2292    1.6687    2.0621 O   0  0  0  0  0  0  0  0  0  0  0  0
    2.0925   -3.9535    0.9324 O   0  0  0  0  0  0  0  0  0  0  0  0
   -4.1196    0.7004    2.4813 O   0  0  0  0  0  0  0  0  0  0  0  0
    3.7487   -2.2076   -0.4269 O   0  0  0  0  0  0  0  0  0  0  0  0
   -2.0950    0.7346   -3.5314 O   0  0  0  0  0  0  0  0  0  0  0  0
   -4.4180   -0.8659   -2.9196 O   0  0  0  0  0  0  0  0  0  0  0  0
   -1.5195   -1.2042   -2.3646 O   0  0  0  0  0  0  0  0  0  0  0  0
   -0.0331    3.4763    2.8219 O   0  0  0  0  0  0  0  0  0  0  0  0
    2.3564    3.6656    0.8254 O   0  0  0  0  0  0  0  0  0  0  0  0
   -1.0333    2.6813   -4.1245 O   0  0  0  0  0  0  0  0  0  0  0  0
    4.7135   -2.0605   -2.5124 O   0  0  0  0  0  0  0  0  0  0  0  0
    4.6355    3.8362    1.1617 O   0  0  0  0  0  0  0  0  0  0  0  0
   -0.2383   -2.0207    1.6320 C   0  0  2  0  0  0  0  0  0  0  0  0
   -0.8883   -2.8197    0.4982 C   0  0  1  0  0  0  0  0  0  0  0  0
    0.1883   -3.3602   -0.4106 C   0  0  1  0  0  0  0  0  0  0  0  0
   -1.0973   -0.7648    2.0953 C   0  0  1  0  0  0  0  0  0  0  0  0
    1.1773   -1.6717    1.0057 C   0  0  1  0  0  0  0  0  0  0  0  0
    1.5346   -2.9176    0.1217 C   0  0  1  0  0  0  0  0  0  0  0  0
   -0.7282   -4.3072    0.3108 C   0  0  0  0  0  0  0  0  0  0  0  0
   -3.6794   -0.3882    1.6658 C   0  0  2  0  0  0  0  0  0  0  0  0
   -4.8744   -1.2647    1.3100 C   0  0  2  0  0  0  0  0  0  0  0  0
   -0.9610    0.5172    1.2245 C   0  0  1  0  0  0  0  0  0  0  0  0
   -5.2714   -0.9814   -0.1200 C   0  0  2  0  0  0  0  0  0  0  0  0
   -2.5782   -1.1597    2.4172 C   0  0  0  0  0  0  0  0  0  0  0  0
   -4.3319    0.0772   -0.6898 C   0  0  1  0  0  0  0  0  0  0  0  0
   -3.2212    0.1806    0.3465 C   0  0  0  0  0  0  0  0  0  0  0  0
   -6.2357   -0.7024    1.0045 C   0  0  0  0  0  0  0  0  0  0  0  0
    1.1726   -0.3808    0.1641 C   0  0  0  0  0  0  0  0  0  0  0  0
   -1.9607    0.5673    0.0934 C   0  0  0  0  0  0  0  0  0  0  0  0
    0.4743    0.7041    0.8937 C   0  0  0  0  0  0  0  0  0  0  0  0
   -0.0491   -2.9000    2.9016 C   0  0  0  0  0  0  0  0  0  0  0  0
    2.5418   -2.6714   -1.0016 C   0  0  0  0  0  0  0  0  0  0  0  0
   -3.7310   -0.3252   -2.0496 C   0  0  0  0  0  0  0  0  0  0  0  0
   -1.6977    0.9099   -1.2829 C   0  0  0  0  0  0  0  0  0  0  0  0
   -5.0492    1.4200   -0.8914 C   0  0  0  0  0  0  0  0  0  0  0  0
   -2.2551    0.0044   -2.3244 C   0  0  2  0  0  0  0  0  0  0  0  0
    0.9837    1.8129    1.4327 C   0  0  0  0  0  0  0  0  0  0  0  0
   -0.1111    2.4396    2.1856 C   0  0  0  0  0  0  0  0  0  0  0  0
   -1.1951    2.0198   -1.8262 C   0  0  0  0  0  0  0  0  0  0  0  0
    2.3536    2.3751    1.4222 C   0  0  0  0  0  0  0  0  0  0  0  0
   -1.3970    1.8801   -3.2800 C   0  0  0  0  0  0  0  0  0  0  0  0
   -0.6968    3.2838   -1.2372 C   0  0  0  0  0  0  0  0  0  0  0  0
    4.7688   -1.9348   -1.2973 C   0  0  0  0  0  0  0  0  0  0  0  0
    5.9715   -1.4636   -0.5455 C   0  0  0  0  0  0  0  0  0  0  0  0
    3.5722    4.2880    0.7589 C   0  0  0  0  0  0  0  0  0  0  0  0
    6.1631   -1.9424    0.8630 C   0  0  0  0  0  0  0  0  0  0  0  0
    6.7771   -0.6090   -1.2026 C   0  0  0  0  0  0  0  0  0  0  0  0
    3.4229    5.6305    0.1096 C   0  0  0  0  0  0  0  0  0  0  0  0
    8.0474    0.0032   -0.7031 C   0  0  0  0  0  0  0  0  0  0  0  0
   -1.7384   -2.3462    0.0316 H   0  0  0  0  0  0  0  0  0  0  0  0
    0.0603   -3.2351   -1.4771 H   0  0  0  0  0  0  0  0  0  0  0  0
   -0.6759   -0.4775    3.0735 H   0  0  0  0  0  0  0  0  0  0  0  0
    1.9089   -1.5519    1.8165 H   0  0  0  0  0  0  0  0  0  0  0  0
   -0.3326   -4.9225    1.1059 H   0  0  0  0  0  0  0  0  0  0  0  0
   -1.4832   -4.8157   -0.2796 H   0  0  0  0  0  0  0  0  0  0  0  0
   -4.8127   -2.2952    1.6308 H   0  0  0  0  0  0  0  0  0  0  0  0
   -5.4715   -1.8238   -0.7678 H   0  0  0  0  0  0  0  0  0  0  0  0
   -2.7125   -2.2336    2.2477 H   0  0  0  0  0  0  0  0  0  0  0  0
   -2.7270   -1.0332    3.4988 H   0  0  0  0  0  0  0  0  0  0  0  0
   -7.0854   -1.3682    1.1080 H   0  0  0  0  0  0  0  0  0  0  0  0
   -6.4555    0.3181    1.2869 H   0  0  0  0  0  0  0  0  0  0  0  0
    2.2013   -0.0905   -0.0708 H   0  0  0  0  0  0  0  0  0  0  0  0
    0.6766   -0.5384   -0.7983 H   0  0  0  0  0  0  0  0  0  0  0  0
    0.5888   -3.7706    2.7427 H   0  0  0  0  0  0  0  0  0  0  0  0
    0.4170   -2.3222    3.7082 H   0  0  0  0  0  0  0  0  0  0  0  0
   -1.0053   -3.2836    3.2723 H   0  0  0  0  0  0  0  0  0  0  0  0
    2.7451   -3.6173   -1.5208 H   0  0  0  0  0  0  0  0  0  0  0  0
    2.1701   -1.9565   -1.7441 H   0  0  0  0  0  0  0  0  0  0  0  0
   -5.9597    1.2869   -1.4877 H   0  0  0  0  0  0  0  0  0  0  0  0
   -4.4199    2.1440   -1.4219 H   0  0  0  0  0  0  0  0  0  0  0  0
   -5.3404    1.8817    0.0581 H   0  0  0  0  0  0  0  0  0  0  0  0
    2.9187   -3.6141    1.3173 H   0  0  0  0  0  0  0  0  0  0  0  0
   -4.5175    0.3275    3.2867 H   0  0  0  0  0  0  0  0  0  0  0  0
    3.0421    1.7263    0.8707 H   0  0  0  0  0  0  0  0  0  0  0  0
    2.7172    2.4533    2.4541 H   0  0  0  0  0  0  0  0  0  0  0  0
   -2.0162   -1.8382   -2.9091 H   0  0  0  0  0  0  0  0  0  0  0  0
   -1.0685    4.1463   -1.8007 H   0  0  0  0  0  0  0  0  0  0  0  0
   -1.0389    3.4158   -0.2089 H   0  0  0  0  0  0  0  0  0  0  0  0
    0.3960    3.3118   -1.2598 H   0  0  0  0  0  0  0  0  0  0  0  0
    5.4889   -1.4096    1.5415 H   0  0  0  0  0  0  0  0  0  0  0  0
    5.9457   -3.0141    0.9325 H   0  0  0  0  0  0  0  0  0  0  0  0
    7.1856   -1.8117    1.2246 H   0  0  0  0  0  0  0  0  0  0  0  0
    6.5253   -0.3170   -2.2211 H   0  0  0  0  0  0  0  0  0  0  0  0
    2.7534    6.2567    0.7044 H   0  0  0  0  0  0  0  0  0  0  0  0
    4.4004    6.1181    0.0550 H   0  0  0  0  0  0  0  0  0  0  0  0
    3.0366    5.5096   -0.9056 H   0  0  0  0  0  0  0  0  0  0  0  0
    8.2502   -0.2006    0.3499 H   0  0  0  0  0  0  0  0  0  0  0  0
    8.8926   -0.3643   -1.2932 H   0  0  0  0  0  0  0  0  0  0  0  0
    7.9981    1.0905   -0.8213 H   0  0  0  0  0  0  0  0  0  0  0  0
  1 22  1  0  0  0  0
  1 38  1  0  0  0  0
  2 18  1  0  0  0  0
  2 72  1  0  0  0  0
  3 20  1  0  0  0  0
  3 73  1  0  0  0  0
  4 32  1  0  0  0  0
  4 43  1  0  0  0  0
  5 36  1  0  0  0  0
  5 41  1  0  0  0  0
  6 33  2  0  0  0  0
  7 36  1  0  0  0  0
  7 76  1  0  0  0  0
  8 38  2  0  0  0  0
  9 40  1  0  0  0  0
  9 45  1  0  0  0  0
 10 41  2  0  0  0  0
 11 43  2  0  0  0  0
 12 45  2  0  0  0  0
 13 14  1  0  0  0  0
 13 16  1  0  0  0  0
 13 17  1  0  0  0  0
 13 31  1  0  0  0  0
 14 15  1  0  0  0  0
 14 19  1  0  0  0  0
 14 50  1  0  0  0  0
 15 18  1  0  0  0  0
 15 19  1  0  0  0  0
 15 51  1  0  0  0  0
 16 22  1  0  0  0  0
 16 24  1  0  0  0  0
 16 52  1  0  0  0  0
 17 18  1  0  0  0  0
 17 28  1  0  0  0  0
 17 53  1  0  0  0  0
 18 32  1  0  0  0  0
 19 54  1  0  0  0  0
 19 55  1  0  0  0  0
 20 21  1  0  0  0  0
 20 24  1  0  0  0  0
 20 26  1  0  0  0  0
 21 23  1  0  0  0  0
 21 27  1  0  0  0  0
 21 56  1  0  0  0  0
 22 29  1  0  0  0  0
 22 30  1  0  0  0  0
 23 25  1  0  0  0  0
 23 27  1  0  0  0  0
 23 57  1  0  0  0  0
 24 58  1  0  0  0  0
 24 59  1  0  0  0  0
 25 26  1  0  0  0  0
 25 33  1  0  0  0  0
 25 35  1  0  0  0  0
 26 29  2  0  0  0  0
 27 60  1  0  0  0  0
 27 61  1  0  0  0  0
 28 30  1  0  0  0  0
 28 62  1  0  0  0  0
 28 63  1  0  0  0  0
 29 34  1  0  0  0  0
 30 37  2  0  0  0  0
 31 64  1  0  0  0  0
 31 65  1  0  0  0  0
 31 66  1  0  0  0  0
 32 67  1  0  0  0  0
 32 68  1  0  0  0  0
 33 36  1  0  0  0  0
 34 36  1  0  0  0  0
 34 39  2  0  0  0  0
 35 69  1  0  0  0  0
 35 70  1  0  0  0  0
 35 71  1  0  0  0  0
 37 38  1  0  0  0  0
 37 40  1  0  0  0  0
 39 41  1  0  0  0  0
 39 42  1  0  0  0  0
 40 74  1  0  0  0  0
 40 75  1  0  0  0  0
 42 77  1  0  0  0  0
 42 78  1  0  0  0  0
 42 79  1  0  0  0  0
 43 44  1  0  0  0  0
 44 46  1  0  0  0  0
 44 47  2  0  0  0  0
 45 48  1  0  0  0  0
 46 80  1  0  0  0  0
 46 81  1  0  0  0  0
 46 82  1  0  0  0  0
 47 49  1  0  0  0  0
 47 83  1  0  0  0  0
 48 84  1  0  0  0  0
 48 85  1  0  0  0  0
 48 86  1  0  0  0  0
 49 87  1  0  0  0  0
 49 88  1  0  0  0  0
 49 89  1  0  0  0  0
M  END
> <PUBCHEM_COMPOUND_CID>
24796198

> <PUBCHEM_CONFORMER_RMSD>
1.2

> <PUBCHEM_CONFORMER_DIVERSEORDER>
1
9
4
14
8
3
5
13
12
6
11
2
10
7

> <PUBCHEM_MMFF94_PARTIAL_CHARGES>
56
1 -0.43
10 -0.57
11 -0.57
12 -0.57
13 0.09
14 -0.19
15 -0.19
18 0.38
19 -0.2
2 -0.68
20 0.51
21 -0.19
22 0.56
23 -0.19
25 0.29
26 -0.28
27 -0.2
28 0.14
29 -0.14
3 -0.68
30 -0.28
32 0.28
33 0.45
34 -0.14
36 0.76
37 -0.12
38 0.71
39 -0.12
4 -0.43
40 0.42
41 0.71
42 0.14
43 0.71
44 -0.12
45 0.66
46 0.14
47 -0.29
48 0.06
49 0.14
5 -0.43
50 0.1
51 0.1
54 0.1
55 0.1
56 0.1
57 0.1
6 -0.57
60 0.1
61 0.1
7 -0.68
72 0.4
73 0.4
76 0.4
8 -0.57
83 0.15
9 -0.43

> <PUBCHEM_EFFECTIVE_ROTOR_COUNT>
8.4

> <PUBCHEM_PHARMACOPHORE_FEATURES>
20
1 10 acceptor
1 11 acceptor
1 12 acceptor
1 2 acceptor
1 2 donor
1 3 acceptor
1 3 donor
1 46 hydrophobe
1 49 hydrophobe
1 6 acceptor
1 7 acceptor
1 7 donor
1 8 acceptor
5 1 22 30 37 38 rings
5 5 34 36 39 41 rings
6 13 14 15 17 18 19 rings
6 13 16 17 22 28 30 rings
6 16 20 22 24 26 29 rings
6 20 21 23 25 26 27 rings
6 25 26 29 33 34 36 rings

> <PUBCHEM_HEAVY_ATOM_COUNT>
49

> <PUBCHEM_ATOM_DEF_STEREO_COUNT>
11

> <PUBCHEM_ATOM_UDEF_STEREO_COUNT>
1

> <PUBCHEM_BOND_DEF_STEREO_COUNT>
1

> <PUBCHEM_BOND_UDEF_STEREO_COUNT>
0

> <PUBCHEM_ISOTOPIC_ATOM_COUNT>
0

> <PUBCHEM_COMPONENT_COUNT>
1

> <PUBCHEM_CACTVS_TAUTO_COUNT>
1

> <PUBCHEM_CONFORMER_ID>
017A5C2600000001

> <PUBCHEM_MMFF94_ENERGY>
149.132

> <PUBCHEM_FEATURE_SELFOVERLAP>
101.954

> <PUBCHEM_SHAPE_FINGERPRINT>
10010297 198 12604255440947200794
10032420 55 17895479111709710914
10290309 65 17549834721448637480
10930396 42 17677046966856230832
12156800 1 16443614822110634943
12160290 23 16823851407803894105
12660671 118 16013826876864296519
13383661 66 16687074399076770430
13911987 19 18339360769200636642
14415361 192 17968086483278943416
14747281 78 17899386750397229845
14840074 17 17275104977400109846
15274700 242 18057320575189485466
15324884 4 17969499488822495089
15484559 13 16966819663550065292
15815584 197 17689947394539498592
20764821 26 18128542750948410186
35225 105 17261049126236455675
469060 322 17605864454528934246

> <PUBCHEM_SHAPE_MULTIPOLES>
937.97
12.21
5.58
3.33
15.81
3.91
-1.81
-2.46
-3.04
6.85
1.45
-2.4
1.51
2.92

> <PUBCHEM_SHAPE_SELFOVERLAP>
2104.897

> <PUBCHEM_SHAPE_VOLUME>
496.9

> <PUBCHEM_COORDINATE_TYPE>
2
5
10

$$$$
