74317492
  -OEChem-10022016152D

 78 85  0     1  0  0  0  0  0999 V2000
    4.9226    2.7106    0.0000 O   0  0  0  0  0  0  0  0  0  0  0  0
    6.8041    0.0083    0.0000 O   0  0  0  0  0  0  0  0  0  0  0  0
    4.9105   -2.3587    0.0000 O   0  0  0  0  0  0  0  0  0  0  0  0
    9.1010    2.4984    0.0000 O   0  0  0  0  0  0  0  0  0  0  0  0
    9.2795    0.5466    0.0000 O   0  0  0  0  0  0  0  0  0  0  0  0
    8.1445   -1.3799    0.0000 O   0  0  0  0  0  0  0  0  0  0  0  0
    3.4138   -3.2304    0.0000 O   0  0  0  0  0  0  0  0  0  0  0  0
    8.7821   -1.9998    0.0000 O   0  0  0  0  0  0  0  0  0  0  0  0
    9.4310   -0.3939    0.0000 O   0  0  0  0  0  0  0  0  0  0  0  0
    4.0126    0.2037    0.0000 C   0  0  3  0  0  0  0  0  0  0  0  0
    5.9978    3.1824    0.0000 C   0  0  3  0  0  0  0  0  0  0  0  0
    6.9865    3.2855    0.0000 C   0  0  3  0  0  0  0  0  0  0  0  0
    4.9226    0.7106    0.0000 C   0  0  3  0  0  0  0  0  0  0  0  0
    3.0295    0.5288    0.0000 C   0  0  3  0  0  0  0  0  0  0  0  0
    5.7886    2.2106    0.0000 C   0  0  3  0  0  0  0  0  0  0  0  0
    7.3917    2.3777    0.0000 C   0  0  3  0  0  0  0  0  0  0  0  0
    2.4151   -0.3048    0.0000 C   0  0  3  0  0  0  0  0  0  0  0  0
    4.0046   -0.8379    0.0000 C   0  0  3  0  0  0  0  0  0  0  0  0
    5.7886    0.2106    0.0000 C   0  0  3  0  0  0  0  0  0  0  0  0
    6.4029    4.0907    0.0000 C   0  0  0  0  0  0  0  0  0  0  0  0
    6.6546    1.7106    0.0000 C   0  0  0  0  0  0  0  0  0  0  0  0
    4.9226    1.7106    0.0000 C   0  0  0  0  0  0  0  0  0  0  0  0
    2.0000    0.6443    0.0000 C   0  0  0  0  0  0  0  0  0  0  0  0
    6.6546    0.7106    0.0000 C   0  0  0  0  0  0  0  0  0  0  0  0
    3.0165   -1.1477    0.0000 C   0  0  0  0  0  0  0  0  0  0  0  0
    4.9066   -1.3587    0.0000 C   0  0  3  0  0  0  0  0  0  0  0  0
    5.8047   -0.8309    0.0000 C   0  0  0  0  0  0  0  0  0  0  0  0
    4.0203    1.2037    0.0000 C   0  0  0  0  0  0  0  0  0  0  0  0
    8.2749    1.9349    0.0000 C   0  0  3  0  0  0  0  0  0  0  0  0
    8.0595    3.1220    0.0000 C   0  0  0  0  0  0  0  0  0  0  0  0
    7.5766    0.3553    0.0000 C   0  0  0  0  0  0  0  0  0  0  0  0
    8.3649    0.9510    0.0000 C   0  0  0  0  0  0  0  0  0  0  0  0
    6.5113   -1.5878    0.0000 C   0  0  0  0  0  0  0  0  0  0  0  0
    2.2671   -1.8098    0.0000 C   0  0  0  0  0  0  0  0  0  0  0  0
    7.1888   -1.0856    0.0000 C   0  0  0  0  0  0  0  0  0  0  0  0
    7.7158   -0.6350    0.0000 C   0  0  0  0  0  0  0  0  0  0  0  0
    6.5284   -2.5877    0.0000 C   0  0  0  0  0  0  0  0  0  0  0  0
    4.4138   -3.2266    0.0000 C   0  0  0  0  0  0  0  0  0  0  0  0
    7.5078   -1.6131    0.0000 C   0  0  0  0  0  0  0  0  0  0  0  0
    8.6429   -1.0096    0.0000 C   0  0  0  0  0  0  0  0  0  0  0  0
    4.9172   -4.0907    0.0000 C   0  0  0  0  0  0  0  0  0  0  0  0
    9.7093   -2.3744    0.0000 C   0  0  0  0  0  0  0  0  0  0  0  0
    5.4085    3.3749    0.0000 H   0  0  0  0  0  0  0  0  0  0  0  0
    7.5235    3.5954    0.0000 H   0  0  0  0  0  0  0  0  0  0  0  0
    5.4595    1.0206    0.0000 H   0  0  0  0  0  0  0  0  0  0  0  0
    3.1621    1.1344    0.0000 H   0  0  0  0  0  0  0  0  0  0  0  0
    1.8758   -0.6107    0.0000 H   0  0  0  0  0  0  0  0  0  0  0  0
    3.9366   -1.4541    0.0000 H   0  0  0  0  0  0  0  0  0  0  0  0
    6.8340    4.5363    0.0000 H   0  0  0  0  0  0  0  0  0  0  0  0
    5.8892    4.4378    0.0000 H   0  0  0  0  0  0  0  0  0  0  0  0
    4.7105    2.2932    0.0000 H   0  0  0  0  0  0  0  0  0  0  0  0
    4.3120    1.6029    0.0000 H   0  0  0  0  0  0  0  0  0  0  0  0
    1.9610    1.2631    0.0000 H   0  0  0  0  0  0  0  0  0  0  0  0
    1.3974    0.4984    0.0000 H   0  0  0  0  0  0  0  0  0  0  0  0
    4.3703   -1.6697    0.0000 H   0  0  0  0  0  0  0  0  0  0  0  0
    4.6403    1.1989    0.0000 H   0  0  0  0  0  0  0  0  0  0  0  0
    4.0251    1.8237    0.0000 H   0  0  0  0  0  0  0  0  0  0  0  0
    3.4003    1.2085    0.0000 H   0  0  0  0  0  0  0  0  0  0  0  0
    8.8357    1.6705    0.0000 H   0  0  0  0  0  0  0  0  0  0  0  0
    8.5210    2.7079    0.0000 H   0  0  0  0  0  0  0  0  0  0  0  0
    8.4736    3.5834    0.0000 H   0  0  0  0  0  0  0  0  0  0  0  0
    7.5980    3.5360    0.0000 H   0  0  0  0  0  0  0  0  0  0  0  0
    4.9226    3.3306    0.0000 H   0  0  0  0  0  0  0  0  0  0  0  0
    1.6793   -1.6127    0.0000 H   0  0  0  0  0  0  0  0  0  0  0  0
    2.3904   -2.4174    0.0000 H   0  0  0  0  0  0  0  0  0  0  0  0
    9.6597    2.2295    0.0000 H   0  0  0  0  0  0  0  0  0  0  0  0
    5.9085   -2.5983    0.0000 H   0  0  0  0  0  0  0  0  0  0  0  0
    6.5391   -3.2076    0.0000 H   0  0  0  0  0  0  0  0  0  0  0  0
    7.1483   -2.5770    0.0000 H   0  0  0  0  0  0  0  0  0  0  0  0
    6.9014   -1.4842    0.0000 H   0  0  0  0  0  0  0  0  0  0  0  0
    7.3789   -2.2196    0.0000 H   0  0  0  0  0  0  0  0  0  0  0  0
    8.1143   -1.7420    0.0000 H   0  0  0  0  0  0  0  0  0  0  0  0
    4.3815   -4.4028    0.0000 H   0  0  0  0  0  0  0  0  0  0  0  0
    5.2293   -4.6264    0.0000 H   0  0  0  0  0  0  0  0  0  0  0  0
    5.4529   -3.7786    0.0000 H   0  0  0  0  0  0  0  0  0  0  0  0
    9.4770   -2.9493    0.0000 H   0  0  0  0  0  0  0  0  0  0  0  0
   10.2842   -2.6067    0.0000 H   0  0  0  0  0  0  0  0  0  0  0  0
    9.9416   -1.7996    0.0000 H   0  0  0  0  0  0  0  0  0  0  0  0
  1 15  1  0  0  0  0
  1 63  1  0  0  0  0
  2 19  1  0  0  0  0
  2 35  1  0  0  0  0
  3 26  1  0  0  0  0
  3 38  1  0  0  0  0
  4 29  1  0  0  0  0
  4 66  1  0  0  0  0
  5 32  2  0  0  0  0
  6 35  2  0  0  0  0
  7 38  2  0  0  0  0
  8 40  1  0  0  0  0
  8 42  1  0  0  0  0
  9 40  2  0  0  0  0
 10 13  1  0  0  0  0
 10 14  1  0  0  0  0
 10 18  1  0  0  0  0
 10 28  1  0  0  0  0
 11 12  1  0  0  0  0
 11 15  1  0  0  0  0
 11 20  1  0  0  0  0
 11 43  1  0  0  0  0
 12 16  1  0  0  0  0
 12 20  1  0  0  0  0
 12 44  1  0  0  0  0
 13 19  1  0  0  0  0
 13 22  1  0  0  0  0
 13 45  1  0  0  0  0
 14 17  1  0  0  0  0
 14 23  1  0  0  0  0
 14 46  1  0  0  0  0
 15 21  1  0  0  0  0
 15 22  1  0  0  0  0
 16 21  1  0  0  0  0
 16 29  1  0  0  0  0
 16 30  1  0  0  0  0
 17 23  1  0  0  0  0
 17 25  1  0  0  0  0
 17 47  1  0  0  0  0
 18 25  1  0  0  0  0
 18 26  1  0  0  0  0
 18 48  1  0  0  0  0
 19 24  1  0  0  0  0
 19 27  1  0  0  0  0
 20 49  1  0  0  0  0
 20 50  1  0  0  0  0
 21 24  2  0  0  0  0
 22 51  1  0  0  0  0
 22 52  1  0  0  0  0
 23 53  1  0  0  0  0
 23 54  1  0  0  0  0
 24 31  1  0  0  0  0
 25 34  2  0  0  0  0
 26 27  1  0  0  0  0
 26 55  1  0  0  0  0
 27 33  2  0  0  0  0
 28 56  1  0  0  0  0
 28 57  1  0  0  0  0
 28 58  1  0  0  0  0
 29 32  1  0  0  0  0
 29 59  1  0  0  0  0
 30 60  1  0  0  0  0
 30 61  1  0  0  0  0
 30 62  1  0  0  0  0
 31 32  1  0  0  0  0
 31 36  2  3  0  0  0
 33 35  1  0  0  0  0
 33 37  1  0  0  0  0
 34 64  1  0  0  0  0
 34 65  1  0  0  0  0
 36 39  1  0  0  0  0
 36 40  1  0  0  0  0
 37 67  1  0  0  0  0
 37 68  1  0  0  0  0
 37 69  1  0  0  0  0
 38 41  1  0  0  0  0
 39 70  1  0  0  0  0
 39 71  1  0  0  0  0
 39 72  1  0  0  0  0
 41 73  1  0  0  0  0
 41 74  1  0  0  0  0
 41 75  1  0  0  0  0
 42 76  1  0  0  0  0
 42 77  1  0  0  0  0
 42 78  1  0  0  0  0
M  END
> <PUBCHEM_COMPOUND_CID>
74317492

> <PUBCHEM_COMPOUND_CANONICALIZED>
1

> <PUBCHEM_CACTVS_COMPLEXITY>
1600

> <PUBCHEM_CACTVS_HBOND_ACCEPTOR>
9

> <PUBCHEM_CACTVS_HBOND_DONOR>
2

> <PUBCHEM_CACTVS_ROTATABLE_BOND>
4

> <PUBCHEM_CACTVS_SUBSKEYS>
AAADcfB8PAAAAAAAAAAAAAAAGDAAAYMEAAAwYMECAAAAAGDAAAAAGgAACAAAD1SggAICCAAABgCIAoDSCAIAAAAgAAAACAFAAEgIFBIAIQACUAAFwAAIsQPK7PzPgAAAAAAAAADAAAYQADAAAYAADAAAAA==

> <PUBCHEM_IUPAC_OPENEYE_NAME>
methyl 2-(7-acetoxy-16,21-dihydroxy-5,13,20-trimethyl-9-methylene-4,22-dioxo-3-oxaoctacyclo[14.7.1.02,6.02,14.08,13.010,12.017,19.020,24]tetracosa-1(24),5-dien-23-ylidene)propanoate

> <PUBCHEM_IUPAC_CAS_NAME>
2-(7-acetyloxy-16,21-dihydroxy-5,13,20-trimethyl-9-methylene-4,22-dioxo-3-oxaoctacyclo[14.7.1.02,6.02,14.08,13.010,12.017,19.020,24]tetracosa-1(24),5-dien-23-ylidene)propanoic acid methyl ester

> <PUBCHEM_IUPAC_NAME_MARKUP>
methyl 2-(7-acetyloxy-16,21-dihydroxy-5,13,20-trimethyl-9-methylidene-4,22-dioxo-3-oxaoctacyclo[14.7.1.0<SUP>2,6</SUP>.0<SUP>2,14</SUP>.0<SUP>8,13</SUP>.0<SUP>10,12</SUP>.0<SUP>17,19</SUP>.0<SUP>20,24</SUP>]tetracosa-1(24),5-dien-23-ylidene)propanoate

> <PUBCHEM_IUPAC_NAME>
methyl 2-(7-acetyloxy-16,21-dihydroxy-5,13,20-trimethyl-9-methylidene-4,22-dioxo-3-oxaoctacyclo[14.7.1.02,6.02,14.08,13.010,12.017,19.020,24]tetracosa-1(24),5-dien-23-ylidene)propanoate

> <PUBCHEM_IUPAC_SYSTEMATIC_NAME>
methyl 2-[7-acetyloxy-5,13,20-trimethyl-9-methylidene-16,21-bis(oxidanyl)-4,22-bis(oxidanylidene)-3-oxaoctacyclo[14.7.1.02,6.02,14.08,13.010,12.017,19.020,24]tetracosa-1(24),5-dien-23-ylidene]propanoate

> <PUBCHEM_IUPAC_TRADITIONAL_NAME>
2-(7-acetoxy-16,21-dihydroxy-4,22-diketo-5,13,20-trimethyl-9-methylene-3-oxaoctacyclo[14.7.1.02,6.02,14.08,13.010,12.017,19.020,24]tetracosa-1(24),5-dien-23-ylidene)propionic acid methyl ester

> <PUBCHEM_IUPAC_INCHI>
InChI=1S/C33H36O9/c1-11-15-8-16(15)30(5)19-10-32(39)18-9-17(18)31(6)26(32)23(20(24(35)27(31)36)12(2)28(37)40-7)33(19)22(13(3)29(38)42-33)25(21(11)30)41-14(4)34/h15-19,21,25,27,36,39H,1,8-10H2,2-7H3

> <PUBCHEM_IUPAC_INCHIKEY>
FUWHPWXSVUDXDS-UHFFFAOYSA-N

> <PUBCHEM_XLOGP3_AA>
0.7

> <PUBCHEM_EXACT_MASS>
576.235933

> <PUBCHEM_MOLECULAR_FORMULA>
C33H36O9

> <PUBCHEM_MOLECULAR_WEIGHT>
576.6

> <PUBCHEM_OPENEYE_CAN_SMILES>
CC1=C2C(C3C(=C)C4CC4C3(C5C2(C6=C7C(C8CC8C7(C5)O)(C(C(=O)C6=C(C)C(=O)OC)O)C)OC1=O)C)OC(=O)C

> <PUBCHEM_OPENEYE_ISO_SMILES>
CC1=C2C(C3C(=C)C4CC4C3(C5C2(C6=C7C(C8CC8C7(C5)O)(C(C(=O)C6=C(C)C(=O)OC)O)C)OC1=O)C)OC(=O)C

> <PUBCHEM_CACTVS_TPSA>
136

> <PUBCHEM_MONOISOTOPIC_WEIGHT>
576.235933

> <PUBCHEM_TOTAL_CHARGE>
0

> <PUBCHEM_HEAVY_ATOM_COUNT>
42

> <PUBCHEM_ATOM_DEF_STEREO_COUNT>
0

> <PUBCHEM_ATOM_UDEF_STEREO_COUNT>
12

> <PUBCHEM_BOND_DEF_STEREO_COUNT>
0

> <PUBCHEM_BOND_UDEF_STEREO_COUNT>
1

> <PUBCHEM_ISOTOPIC_ATOM_COUNT>
0

> <PUBCHEM_COMPONENT_COUNT>
1

> <PUBCHEM_CACTVS_TAUTO_COUNT>
-1

> <PUBCHEM_COORDINATE_TYPE>
1
5
255

> <PUBCHEM_BONDANNOTATIONS>
15  1  3
10  28  3
11  20  3
12  20  3
19  13  3
13  22  3
14  23  3
16  30  3
17  23  3
18  25  3
26  3  3
31  36  1
29  4  3

$$$$
