15098566
  -OEChem-09292002463D

 39 40  0     1  0  0  0  0  0999 V2000
    0.8561    0.5746   -0.1383 O   0  0  0  0  0  0  0  0  0  0  0  0
   -0.3294   -1.4349   -0.1457 O   0  0  0  0  0  0  0  0  0  0  0  0
    4.4550   -1.3980   -0.2932 O   0  0  0  0  0  0  0  0  0  0  0  0
    4.3712    1.3800    0.5016 O   0  0  0  0  0  0  0  0  0  0  0  0
    2.0289   -2.8035    0.6118 O   0  0  0  0  0  0  0  0  0  0  0  0
    0.5948    3.2773    0.2895 O   0  0  0  0  0  0  0  0  0  0  0  0
   -1.9932   -0.6273   -2.2188 O   0  0  0  0  0  0  0  0  0  0  0  0
   -5.2451    0.8020    0.9621 O   0  0  0  0  0  0  0  0  0  0  0  0
    3.3348   -0.7909    0.3525 C   0  0  1  0  0  0  0  0  0  0  0  0
    3.2773    0.6746   -0.0789 C   0  0  1  0  0  0  0  0  0  0  0  0
    2.0574   -1.5336   -0.0394 C   0  0  2  0  0  0  0  0  0  0  0  0
    1.9640    1.3212    0.3679 C   0  0  1  0  0  0  0  0  0  0  0  0
    0.8105   -0.7537    0.3775 C   0  0  1  0  0  0  0  0  0  0  0  0
    1.8322    2.7493   -0.1518 C   0  0  0  0  0  0  0  0  0  0  0  0
   -1.5505   -0.8788    0.1203 C   0  0  0  0  0  0  0  0  0  0  0  0
   -2.3805   -0.4750   -0.9217 C   0  0  0  0  0  0  0  0  0  0  0  0
   -1.9538   -0.7216    1.4434 C   0  0  0  0  0  0  0  0  0  0  0  0
   -3.6238    0.0904   -0.6384 C   0  0  0  0  0  0  0  0  0  0  0  0
   -3.1969   -0.1559    1.7268 C   0  0  0  0  0  0  0  0  0  0  0  0
   -4.0319    0.2501    0.6858 C   0  0  0  0  0  0  0  0  0  0  0  0
   -1.2772    0.4537   -2.8128 C   0  0  0  0  0  0  0  0  0  0  0  0
    3.5153   -0.8765    1.4312 H   0  0  0  0  0  0  0  0  0  0  0  0
    3.3871    0.7382   -1.1685 H   0  0  0  0  0  0  0  0  0  0  0  0
    2.0477   -1.7300   -1.1181 H   0  0  0  0  0  0  0  0  0  0  0  0
    1.8920    1.3515    1.4637 H   0  0  0  0  0  0  0  0  0  0  0  0
    0.7458   -0.7257    1.4731 H   0  0  0  0  0  0  0  0  0  0  0  0
    1.8363    2.7791   -1.2466 H   0  0  0  0  0  0  0  0  0  0  0  0
    2.6342    3.3922    0.2218 H   0  0  0  0  0  0  0  0  0  0  0  0
    5.2470   -0.8957   -0.0352 H   0  0  0  0  0  0  0  0  0  0  0  0
    4.2782    1.3352    1.4685 H   0  0  0  0  0  0  0  0  0  0  0  0
    2.0386   -2.6506    1.5721 H   0  0  0  0  0  0  0  0  0  0  0  0
   -0.1094    2.6956   -0.0447 H   0  0  0  0  0  0  0  0  0  0  0  0
   -1.3270   -1.0491    2.2677 H   0  0  0  0  0  0  0  0  0  0  0  0
   -4.2707    0.4043   -1.4540 H   0  0  0  0  0  0  0  0  0  0  0  0
   -3.5112   -0.0380    2.7602 H   0  0  0  0  0  0  0  0  0  0  0  0
   -0.2136    0.3680   -2.5755 H   0  0  0  0  0  0  0  0  0  0  0  0
   -1.6595    1.4246   -2.4803 H   0  0  0  0  0  0  0  0  0  0  0  0
   -1.3955    0.3860   -3.8978 H   0  0  0  0  0  0  0  0  0  0  0  0
   -5.6886    1.0238    0.1253 H   0  0  0  0  0  0  0  0  0  0  0  0
  1 12  1  0  0  0  0
  1 13  1  0  0  0  0
  2 13  1  0  0  0  0
  2 15  1  0  0  0  0
  3  9  1  0  0  0  0
  3 29  1  0  0  0  0
  4 10  1  0  0  0  0
  4 30  1  0  0  0  0
  5 11  1  0  0  0  0
  5 31  1  0  0  0  0
  6 14  1  0  0  0  0
  6 32  1  0  0  0  0
  7 16  1  0  0  0  0
  7 21  1  0  0  0  0
  8 20  1  0  0  0  0
  8 39  1  0  0  0  0
  9 10  1  0  0  0  0
  9 11  1  0  0  0  0
  9 22  1  0  0  0  0
 10 12  1  0  0  0  0
 10 23  1  0  0  0  0
 11 13  1  0  0  0  0
 11 24  1  0  0  0  0
 12 14  1  0  0  0  0
 12 25  1  0  0  0  0
 13 26  1  0  0  0  0
 14 27  1  0  0  0  0
 14 28  1  0  0  0  0
 15 16  2  0  0  0  0
 15 17  1  0  0  0  0
 16 18  1  0  0  0  0
 17 19  2  0  0  0  0
 17 33  1  0  0  0  0
 18 20  2  0  0  0  0
 18 34  1  0  0  0  0
 19 20  1  0  0  0  0
 19 35  1  0  0  0  0
 21 36  1  0  0  0  0
 21 37  1  0  0  0  0
 21 38  1  0  0  0  0
M  END
> <PUBCHEM_COMPOUND_CID>
15098566

> <PUBCHEM_CONFORMER_RMSD>
0.8

> <PUBCHEM_CONFORMER_DIVERSEORDER>
1
73
40
13
82
70
51
89
49
45
80
79
75
74
41
44
90
6
7
65
30
76
84
68
87
25
33
71
21
46
93
83
72
35
85
78
77
56
28
64
27
88
86
95
14
39
57
15
47
20
55
91
2
17
42
18
62
11
59
94
34
8
61
50
54
37
81
10
36
12
52
53
58
16
92
22
63
5
66
3
19
69
67
26
38
4
9
24
31
29
32
43
23
48
60

> <PUBCHEM_MMFF94_PARTIAL_CHARGES>
29
1 -0.56
10 0.28
11 0.28
12 0.28
13 0.56
14 0.28
15 0.08
16 0.08
17 -0.15
18 -0.15
19 -0.15
2 -0.36
20 0.08
21 0.28
29 0.4
3 -0.68
30 0.4
31 0.4
32 0.4
33 0.15
34 0.15
35 0.15
39 0.45
4 -0.68
5 -0.68
6 -0.68
7 -0.36
8 -0.53
9 0.28

> <PUBCHEM_EFFECTIVE_ROTOR_COUNT>
5.2

> <PUBCHEM_PHARMACOPHORE_FEATURES>
14
1 1 acceptor
1 2 acceptor
1 3 acceptor
1 3 donor
1 4 acceptor
1 4 donor
1 5 acceptor
1 5 donor
1 6 acceptor
1 6 donor
1 7 acceptor
1 8 donor
6 1 9 10 11 12 13 rings
6 15 16 17 18 19 20 rings

> <PUBCHEM_HEAVY_ATOM_COUNT>
21

> <PUBCHEM_ATOM_DEF_STEREO_COUNT>
5

> <PUBCHEM_ATOM_UDEF_STEREO_COUNT>
0

> <PUBCHEM_BOND_DEF_STEREO_COUNT>
0

> <PUBCHEM_BOND_UDEF_STEREO_COUNT>
0

> <PUBCHEM_ISOTOPIC_ATOM_COUNT>
0

> <PUBCHEM_COMPONENT_COUNT>
1

> <PUBCHEM_CACTVS_TAUTO_COUNT>
3

> <PUBCHEM_CONFORMER_ID>
00E662C600000001

> <PUBCHEM_MMFF94_ENERGY>
75.5129

> <PUBCHEM_FEATURE_SELFOVERLAP>
71.116

> <PUBCHEM_SHAPE_FINGERPRINT>
10366900 7 17676203580744156251
104564 63 18196657293909095584
11471102 20 18409730668613109978
11640471 11 17703516587675607505
12236239 1 17703789202124457707
12553582 1 18339353051339428666
12633257 1 17968371342257308273
12670545 47 17603864550442076527
13583140 156 18339648940484412491
14790565 3 18120665879533563204
15238133 3 18262817158920204741
15342168 16 18263087784709149637
15653759 3 17095239237191975379
16752209 62 16271630274636093487
1813 80 17770514040583418718
18186145 218 18335698360529868946
18219364 16 18188198922385781652
18785283 64 17970359315052013708
19049666 15 17387396948651011419
19930381 70 17833546074444283161
20600515 1 15791738533314860487
20645476 183 17846495972061726815
21033648 29 17749385962920287385
21041028 32 18193271893090354640
21486144 27 18261108612371290507
21639500 275 18267008630441578748
2297311 6 16298680377560500902
23175994 123 18335148535468730203
23557571 272 16733271144473815742
23559900 14 16516245107188460594
23598291 2 17989197153370668375
238 59 17757788511776995422
25 1 18335137630947692426
2838139 119 18198619927008808425
3286 77 18261960751273721587
34934 24 17917993910037989752
350125 39 17904489845632897874
3524813 1 17822007588493880271
4409770 3 15104977682169385447
474 4 18340484581399315736
6049 1 17603578642842663492
633830 44 18200313355008206828
6438718 38 17770490933178895492
77492 1 17703784821173419639
81228 2 15808854286810880411
8272917 22 18199759054960884715

> <PUBCHEM_SHAPE_MULTIPOLES>
385.22
8.12
2.38
1.64
1.47
1.16
1.18
0.44
-1.99
-2.65
-0.35
1.91
0.09
0.14

> <PUBCHEM_SHAPE_SELFOVERLAP>
805.997

> <PUBCHEM_SHAPE_VOLUME>
216.3

> <PUBCHEM_COORDINATE_TYPE>
2
5
10

$$$$
