160717
  -OEChem-09292002493D

 33 35  0     0  0  0  0  0  0999 V2000
    2.6531    2.2242    0.2638 O   0  0  0  0  0  0  0  0  0  0  0  0
    0.0962    2.3733    0.2150 O   0  0  0  0  0  0  0  0  0  0  0  0
   -2.4450    2.6937    0.1759 O   0  0  0  0  0  0  0  0  0  0  0  0
   -0.3867   -2.9373   -0.1344 O   0  0  0  0  0  0  0  0  0  0  0  0
    4.5822   -2.0963    0.0297 O   0  0  0  0  0  0  0  0  0  0  0  0
   -1.3497    0.5288    0.0639 C   0  0  0  0  0  0  0  0  0  0  0  0
   -1.4759   -0.8589   -0.0276 C   0  0  0  0  0  0  0  0  0  0  0  0
    1.1852    0.2954    0.1071 C   0  0  0  0  0  0  0  0  0  0  0  0
    1.0591   -1.0923    0.0151 C   0  0  0  0  0  0  0  0  0  0  0  0
   -0.0145    1.1566    0.1352 C   0  0  0  0  0  0  0  0  0  0  0  0
   -0.2762   -1.7201   -0.0549 C   0  0  0  0  0  0  0  0  0  0  0  0
   -2.7473   -1.4416   -0.0941 C   0  0  0  0  0  0  0  0  0  0  0  0
   -2.4949    1.3339    0.0888 C   0  0  0  0  0  0  0  0  0  0  0  0
    2.4566    0.8780    0.1732 C   0  0  0  0  0  0  0  0  0  0  0  0
   -3.8858   -0.6355   -0.0692 C   0  0  0  0  0  0  0  0  0  0  0  0
    2.2041   -1.8974   -0.0111 C   0  0  0  0  0  0  0  0  0  0  0  0
   -3.7599    0.7492    0.0220 C   0  0  0  0  0  0  0  0  0  0  0  0
    3.5951    0.0720    0.1471 C   0  0  0  0  0  0  0  0  0  0  0  0
    3.4691   -1.3127    0.0550 C   0  0  0  0  0  0  0  0  0  0  0  0
   -5.2399   -1.2569   -0.1399 C   0  0  0  0  0  0  0  0  0  0  0  0
    2.7750    2.9441   -0.9608 C   0  0  0  0  0  0  0  0  0  0  0  0
   -2.8595   -2.5207   -0.1674 H   0  0  0  0  0  0  0  0  0  0  0  0
    2.1188   -2.9789   -0.0825 H   0  0  0  0  0  0  0  0  0  0  0  0
   -4.6462    1.3792    0.0395 H   0  0  0  0  0  0  0  0  0  0  0  0
    4.5838    0.5220    0.1994 H   0  0  0  0  0  0  0  0  0  0  0  0
   -5.5405   -1.3845   -1.1845 H   0  0  0  0  0  0  0  0  0  0  0  0
   -5.2504   -2.2359    0.3515 H   0  0  0  0  0  0  0  0  0  0  0  0
   -5.9880   -0.6374    0.3664 H   0  0  0  0  0  0  0  0  0  0  0  0
   -1.5278    3.0031    0.2124 H   0  0  0  0  0  0  0  0  0  0  0  0
    4.3114   -3.0281   -0.0364 H   0  0  0  0  0  0  0  0  0  0  0  0
    3.7613    2.7642   -1.3998 H   0  0  0  0  0  0  0  0  0  0  0  0
    2.6793    4.0113   -0.7426 H   0  0  0  0  0  0  0  0  0  0  0  0
    1.9961    2.6605   -1.6761 H   0  0  0  0  0  0  0  0  0  0  0  0
  1 14  1  0  0  0  0
  1 21  1  0  0  0  0
  2 10  2  0  0  0  0
  3 13  1  0  0  0  0
  3 29  1  0  0  0  0
  4 11  2  0  0  0  0
  5 19  1  0  0  0  0
  5 30  1  0  0  0  0
  6  7  2  0  0  0  0
  6 10  1  0  0  0  0
  6 13  1  0  0  0  0
  7 11  1  0  0  0  0
  7 12  1  0  0  0  0
  8  9  2  0  0  0  0
  8 10  1  0  0  0  0
  8 14  1  0  0  0  0
  9 11  1  0  0  0  0
  9 16  1  0  0  0  0
 12 15  2  0  0  0  0
 12 22  1  0  0  0  0
 13 17  2  0  0  0  0
 14 18  2  0  0  0  0
 15 17  1  0  0  0  0
 15 20  1  0  0  0  0
 16 19  2  0  0  0  0
 16 23  1  0  0  0  0
 17 24  1  0  0  0  0
 18 19  1  0  0  0  0
 18 25  1  0  0  0  0
 20 26  1  0  0  0  0
 20 27  1  0  0  0  0
 20 28  1  0  0  0  0
 21 31  1  0  0  0  0
 21 32  1  0  0  0  0
 21 33  1  0  0  0  0
M  END
> <PUBCHEM_COMPOUND_CID>
160717

> <PUBCHEM_CONFORMER_RMSD>
0.6

> <PUBCHEM_CONFORMER_DIVERSEORDER>
1

> <PUBCHEM_MMFF94_PARTIAL_CHARGES>
27
1 -0.36
10 0.4
11 0.4
12 -0.15
13 0.08
14 0.08
15 -0.14
16 -0.15
17 -0.15
18 -0.15
19 0.08
2 -0.57
20 0.14
21 0.28
22 0.15
23 0.15
24 0.15
25 0.15
29 0.45
3 -0.53
30 0.45
4 -0.57
5 -0.53
6 0.09
7 0.09
8 0.09
9 0.09

> <PUBCHEM_EFFECTIVE_ROTOR_COUNT>
1

> <PUBCHEM_PHARMACOPHORE_FEATURES>
8
1 1 acceptor
1 2 acceptor
1 3 donor
1 4 acceptor
1 5 donor
6 6 7 12 13 15 17 rings
6 6 7 8 9 10 11 rings
6 8 9 14 16 18 19 rings

> <PUBCHEM_HEAVY_ATOM_COUNT>
21

> <PUBCHEM_ATOM_DEF_STEREO_COUNT>
0

> <PUBCHEM_ATOM_UDEF_STEREO_COUNT>
0

> <PUBCHEM_BOND_DEF_STEREO_COUNT>
0

> <PUBCHEM_BOND_UDEF_STEREO_COUNT>
0

> <PUBCHEM_ISOTOPIC_ATOM_COUNT>
0

> <PUBCHEM_COMPONENT_COUNT>
1

> <PUBCHEM_CACTVS_TAUTO_COUNT>
57

> <PUBCHEM_CONFORMER_ID>
000273CD00000001

> <PUBCHEM_MMFF94_ENERGY>
76.2758

> <PUBCHEM_FEATURE_SELFOVERLAP>
40.653

> <PUBCHEM_SHAPE_FINGERPRINT>
10411042 1 18266458711467146746
10608611 8 18410570678142885673
10616163 171 18194967572027993782
10967382 1 18267303312337339953
1100329 8 18197784293159190025
11680986 33 18262524826181585475
12403259 226 18410005503280542389
12403260 363 18411132524395187451
13140716 1 18341334383723779225
13583140 156 17023443335706526193
138480 1 18410573977073615724
13862211 1 18411694361852488903
14178342 30 18196361524922443704
14790565 3 17111019681899412725
15042514 8 17905321824207040690
15196674 1 18411698764161545827
15442244 35 18411136905298629256
15536298 74 18343018904393781738
16945 1 18124029289174184408
17492 89 18410855460318877907
17804303 29 18340489975836002222
19591789 44 18411418410314048987
200 152 18131060533628343127
20028762 73 18202275931598430287
20510252 161 18272650134351524753
20645477 70 18335134336502002443
20739085 24 18263950815859782969
21267235 1 18411707568887187795
21501502 16 18412268337018100929
221490 88 18336272313777916266
2334 1 18411699906617675745
23366157 5 18113619019326428148
23402539 116 18270670961824196694
23463225 33 18410573980882870616
23558518 356 18335708204457839585
23559900 14 18412256225289337160
2748010 2 18411416189599328373
2871803 45 18335695040546334567
312423 11 18339656589219877257
3286 77 18334856099925397550
335352 9 18195245516499330925
350125 39 18410578370440031169
4409770 3 17176854637277297580
474 4 17604996003789313828
5104073 3 18412543184775579945
59755656 215 18339364179863333004
7364860 26 18340768230194045232
9709674 26 18409733979848597131
9981440 41 17686337977418588240

> <PUBCHEM_SHAPE_MULTIPOLES>
402.82
8
3.13
0.65
3.25
0.93
0.05
-1.78
0.29
-1.61
0.28
-0.11
0.13
-0.48

> <PUBCHEM_SHAPE_SELFOVERLAP>
905.884

> <PUBCHEM_SHAPE_VOLUME>
211.9

> <PUBCHEM_COORDINATE_TYPE>
2
5
10

$$$$
