5322089
  -OEChem-09292002343D

 50 52  0     1  0  0  0  0  0999 V2000
   -3.5202    0.3990    0.5849 O   0  0  0  0  0  0  0  0  0  0  0  0
   -6.5139    2.3928   -0.1050 O   0  0  0  0  0  0  0  0  0  0  0  0
   -7.4325   -0.3285   -0.4307 O   0  0  0  0  0  0  0  0  0  0  0  0
   -2.8824   -1.7598   -0.0287 O   0  0  0  0  0  0  0  0  0  0  0  0
   -5.2779   -2.0221   -1.5122 O   0  0  0  0  0  0  0  0  0  0  0  0
   -2.5313    2.8788    1.2399 O   0  0  0  0  0  0  0  0  0  0  0  0
    7.3009    2.5764   -1.4088 O   0  0  0  0  0  0  0  0  0  0  0  0
    7.7381   -1.3400    1.2850 O   0  0  0  0  0  0  0  0  0  0  0  0
   -5.7742    1.2401    0.2889 C   0  0  1  0  0  0  0  0  0  0  0  0
   -6.0867    0.0882   -0.6664 C   0  0  1  0  0  0  0  0  0  0  0  0
   -4.2794    1.5685    0.2731 C   0  0  1  0  0  0  0  0  0  0  0  0
   -5.1414   -1.0915   -0.4387 C   0  0  2  0  0  0  0  0  0  0  0  0
   -3.6839   -0.6336   -0.3844 C   0  0  1  0  0  0  0  0  0  0  0  0
   -3.9248    2.6355    1.3040 C   0  0  0  0  0  0  0  0  0  0  0  0
   -1.5358   -1.5440    0.0771 C   0  0  0  0  0  0  0  0  0  0  0  0
   -0.8207   -1.0906   -1.0269 C   0  0  0  0  0  0  0  0  0  0  0  0
   -0.8917   -1.7793    1.2877 C   0  0  0  0  0  0  0  0  0  0  0  0
    0.5525   -0.8702   -0.9193 C   0  0  0  0  0  0  0  0  0  0  0  0
    0.4813   -1.5588    1.3954 C   0  0  0  0  0  0  0  0  0  0  0  0
    1.2035   -1.1043    0.2919 C   0  0  0  0  0  0  0  0  0  0  0  0
    2.6351   -0.8740    0.4047 C   0  0  0  0  0  0  0  0  0  0  0  0
    3.3687   -0.0961   -0.4261 C   0  0  0  0  0  0  0  0  0  0  0  0
    4.8156    0.1525   -0.2999 C   0  0  0  0  0  0  0  0  0  0  0  0
    5.5922   -0.7241    0.4399 C   0  0  0  0  0  0  0  0  0  0  0  0
    5.3709    1.2584   -0.9227 C   0  0  0  0  0  0  0  0  0  0  0  0
    6.7404    1.4942   -0.8023 C   0  0  0  0  0  0  0  0  0  0  0  0
    6.9618   -0.4884    0.5604 C   0  0  0  0  0  0  0  0  0  0  0  0
    7.5359    0.6208   -0.0607 C   0  0  0  0  0  0  0  0  0  0  0  0
   -6.0994    0.9721    1.3017 H   0  0  0  0  0  0  0  0  0  0  0  0
   -6.0441    0.4208   -1.7108 H   0  0  0  0  0  0  0  0  0  0  0  0
   -3.9661    1.9341   -0.7144 H   0  0  0  0  0  0  0  0  0  0  0  0
   -5.4138   -1.6247    0.4798 H   0  0  0  0  0  0  0  0  0  0  0  0
   -3.3771   -0.2684   -1.3733 H   0  0  0  0  0  0  0  0  0  0  0  0
   -4.1593    2.3038    2.3210 H   0  0  0  0  0  0  0  0  0  0  0  0
   -4.4481    3.5760    1.1102 H   0  0  0  0  0  0  0  0  0  0  0  0
   -6.2268    2.6426   -0.9998 H   0  0  0  0  0  0  0  0  0  0  0  0
   -8.0053    0.4450   -0.5700 H   0  0  0  0  0  0  0  0  0  0  0  0
   -5.0419   -1.5667   -2.3384 H   0  0  0  0  0  0  0  0  0  0  0  0
   -2.0770    2.0350    1.4058 H   0  0  0  0  0  0  0  0  0  0  0  0
   -1.3066   -0.9249   -1.9840 H   0  0  0  0  0  0  0  0  0  0  0  0
   -1.4506   -2.1321    2.1498 H   0  0  0  0  0  0  0  0  0  0  0  0
    1.0756   -0.5417   -1.8124 H   0  0  0  0  0  0  0  0  0  0  0  0
    0.9704   -1.7454    2.3484 H   0  0  0  0  0  0  0  0  0  0  0  0
    3.0997   -1.3595    1.2584 H   0  0  0  0  0  0  0  0  0  0  0  0
    2.8975    0.4350   -1.2489 H   0  0  0  0  0  0  0  0  0  0  0  0
    5.1871   -1.6101    0.9194 H   0  0  0  0  0  0  0  0  0  0  0  0
    4.7532    1.9421   -1.5003 H   0  0  0  0  0  0  0  0  0  0  0  0
    8.6027    0.8106    0.0292 H   0  0  0  0  0  0  0  0  0  0  0  0
    6.6065    3.0701   -1.8779 H   0  0  0  0  0  0  0  0  0  0  0  0
    8.6581   -1.0250    1.2619 H   0  0  0  0  0  0  0  0  0  0  0  0
  1 11  1  0  0  0  0
  1 13  1  0  0  0  0
  2  9  1  0  0  0  0
  2 36  1  0  0  0  0
  3 10  1  0  0  0  0
  3 37  1  0  0  0  0
  4 13  1  0  0  0  0
  4 15  1  0  0  0  0
  5 12  1  0  0  0  0
  5 38  1  0  0  0  0
  6 14  1  0  0  0  0
  6 39  1  0  0  0  0
  7 26  1  0  0  0  0
  7 49  1  0  0  0  0
  8 27  1  0  0  0  0
  8 50  1  0  0  0  0
  9 10  1  0  0  0  0
  9 11  1  0  0  0  0
  9 29  1  0  0  0  0
 10 12  1  0  0  0  0
 10 30  1  0  0  0  0
 11 14  1  0  0  0  0
 11 31  1  0  0  0  0
 12 13  1  0  0  0  0
 12 32  1  0  0  0  0
 13 33  1  0  0  0  0
 14 34  1  0  0  0  0
 14 35  1  0  0  0  0
 15 16  2  0  0  0  0
 15 17  1  0  0  0  0
 16 18  1  0  0  0  0
 16 40  1  0  0  0  0
 17 19  2  0  0  0  0
 17 41  1  0  0  0  0
 18 20  2  0  0  0  0
 18 42  1  0  0  0  0
 19 20  1  0  0  0  0
 19 43  1  0  0  0  0
 20 21  1  0  0  0  0
 21 22  2  0  0  0  0
 21 44  1  0  0  0  0
 22 23  1  0  0  0  0
 22 45  1  0  0  0  0
 23 24  2  0  0  0  0
 23 25  1  0  0  0  0
 24 27  1  0  0  0  0
 24 46  1  0  0  0  0
 25 26  2  0  0  0  0
 25 47  1  0  0  0  0
 26 28  1  0  0  0  0
 27 28  2  0  0  0  0
 28 48  1  0  0  0  0
M  END
> <PUBCHEM_COMPOUND_CID>
5322089

> <PUBCHEM_CONFORMER_RMSD>
0.8

> <PUBCHEM_CONFORMER_DIVERSEORDER>
1
85
44
39
14
22
38
93
41
60
49
6
30
64
67
55
28
82
24
71
29
58
61
68
2
8
84
12
32
5
15
19
45
90
10
80
73
56
53
88
40
9
59
35
78
42
62
86
65
17
3
89
50
27
18
34
63
51
79
77
54
7
47
75
26
69
36
4
48
46
23
20
92
57
70
43
66
83
21
74
25
52
37
76
87
91
16
72
11
13
33
31
81

> <PUBCHEM_MMFF94_PARTIAL_CHARGES>
43
1 -0.56
10 0.28
11 0.28
12 0.28
13 0.56
14 0.28
15 0.08
16 -0.15
17 -0.15
18 -0.15
19 -0.15
2 -0.68
20 0.03
21 -0.18
22 -0.18
23 0.03
24 -0.15
25 -0.15
26 0.08
27 0.08
28 -0.15
3 -0.68
36 0.4
37 0.4
38 0.4
39 0.4
4 -0.36
40 0.15
41 0.15
42 0.15
43 0.15
44 0.15
45 0.15
46 0.15
47 0.15
48 0.15
49 0.45
5 -0.68
50 0.45
6 -0.68
7 -0.53
8 -0.53
9 0.28

> <PUBCHEM_EFFECTIVE_ROTOR_COUNT>
6.2

> <PUBCHEM_PHARMACOPHORE_FEATURES>
15
1 1 acceptor
1 2 acceptor
1 2 donor
1 3 acceptor
1 3 donor
1 4 acceptor
1 5 acceptor
1 5 donor
1 6 acceptor
1 6 donor
1 7 donor
1 8 donor
6 1 9 10 11 12 13 rings
6 15 16 17 18 19 20 rings
6 23 24 25 26 27 28 rings

> <PUBCHEM_HEAVY_ATOM_COUNT>
28

> <PUBCHEM_ATOM_DEF_STEREO_COUNT>
5

> <PUBCHEM_ATOM_UDEF_STEREO_COUNT>
0

> <PUBCHEM_BOND_DEF_STEREO_COUNT>
1

> <PUBCHEM_BOND_UDEF_STEREO_COUNT>
0

> <PUBCHEM_ISOTOPIC_ATOM_COUNT>
0

> <PUBCHEM_COMPONENT_COUNT>
1

> <PUBCHEM_CACTVS_TAUTO_COUNT>
5

> <PUBCHEM_CONFORMER_ID>
0051356900000001

> <PUBCHEM_MMFF94_ENERGY>
91.6067

> <PUBCHEM_FEATURE_SELFOVERLAP>
76.186

> <PUBCHEM_SHAPE_FINGERPRINT>
10 15 14634870877318186238
10076449 9 17060337453600321615
10087517 78 18411982442620399469
10454371 7 18201446882202265812
10595046 47 18341611499319409015
10670039 82 18343015571446731161
10730089 173 18272087184688006569
11045977 3 13118290290642739247
11315181 36 18114462344750480055
11477941 20 17846487162983894021
11991303 11 16415473908798294396
12236239 1 18334292080446251382
12596602 18 17749393684416430794
13167372 99 18408604756422628584
13914758 101 18342458111036617810
14251764 18 18334293184637650102
14347424 109 18114176446452930448
14394314 77 18334581196771857061
14849402 71 18115312300870866316
14856354 85 18130222778656536671
15183329 4 18202288009087585744
15276724 80 18040431101760892716
15348495 7 13407086937058006252
15419008 47 16917062265667430792
15604295 49 18059006324563670136
1577012 14 18335423478380367572
15876981 60 18340487893415155055
15961568 22 18342461409149631557
16989713 51 17416959724600090735
17780758 139 10881399842372992071
17913733 40 16153426125629173898
18336668 15 18334297570116335789
19611394 137 18116727386048605443
20281389 69 17749385971182622518
21130935 74 17822291327683910258
21150785 3 12679456496010901082
21424621 283 18333452045109709738
21859007 373 17632002084279568112
22122407 14 18263938790257348032
22224240 67 16732982037545941995
23081809 10 18336261336469417606
23198884 109 18412263951819698326
23569943 247 16951949697278195786
2838139 119 18412260644663043525
3009799 131 16271923813996668026
397830 11 13118579497024618222
4073 2 17822577213423254658
4197921 191 18409169905204516416
4339292 15 17059196198964312071
44555599 121 18334580166000129364
445580 204 18410857654882908401
445580 37 18272376377504819716
44880568 143 16056884611201835024
5104073 3 17313384595676223434
54039377 194 10951755414012722325
5758199 1 17894068506699676602
59755656 520 17894624881179928971
6299153 45 18262799545823508394
6328613 192 18334297604238359172
9831232 110 8645955277389677648

> <PUBCHEM_SHAPE_MULTIPOLES>
529.27
23.6
2.56
1.23
20.33
1.61
0.09
9.52
-2.95
-1.91
0.4
0.14
0
-3.35

> <PUBCHEM_SHAPE_SELFOVERLAP>
1133.488

> <PUBCHEM_SHAPE_VOLUME>
290.6

> <PUBCHEM_COORDINATE_TYPE>
2
5
10

$$$$
