158739
  -OEChem-09292002423D

 31 32  0     0  0  0  0  0  0999 V2000
    1.6698    2.1833   -0.0733 O   0  0  0  0  0  0  0  0  0  0  0  0
   -4.3262   -0.2130    0.3030 O   0  0  0  0  0  0  0  0  0  0  0  0
   -2.4090   -2.2102    0.2213 O   0  0  0  0  0  0  0  0  0  0  0  0
   -0.8137    2.8876    0.0522 O   0  0  0  0  0  0  0  0  0  0  0  0
    4.1417    0.2834   -1.2463 O   0  0  0  0  0  0  0  0  0  0  0  0
   -0.1538    0.6041    0.0535 C   0  0  0  0  0  0  0  0  0  0  0  0
   -0.5808   -0.7250    0.0987 C   0  0  0  0  0  0  0  0  0  0  0  0
    1.7202   -1.4649   -0.0174 C   0  0  0  0  0  0  0  0  0  0  0  0
    2.1456   -0.1383   -0.0624 C   0  0  0  0  0  0  0  0  0  0  0  0
    1.2121    0.8979   -0.0274 C   0  0  0  0  0  0  0  0  0  0  0  0
    0.3592   -1.7615    0.0631 C   0  0  0  0  0  0  0  0  0  0  0  0
   -2.0188   -1.0492    0.1840 C   0  0  0  0  0  0  0  0  0  0  0  0
   -1.1338    1.7058    0.0902 C   0  0  0  0  0  0  0  0  0  0  0  0
   -2.9800    0.0802    0.2214 C   0  0  0  0  0  0  0  0  0  0  0  0
    2.6997   -2.5931   -0.0537 C   0  0  0  0  0  0  0  0  0  0  0  0
   -2.5644    1.3482    0.1777 C   0  0  0  0  0  0  0  0  0  0  0  0
    3.5709    0.1662   -0.1469 C   0  0  0  0  0  0  0  0  0  0  0  0
    4.3893    0.3465    1.1237 C   0  0  0  0  0  0  0  0  0  0  0  0
   -4.9281   -0.3481   -0.9613 C   0  0  0  0  0  0  0  0  0  0  0  0
    0.0344   -2.7986    0.0983 H   0  0  0  0  0  0  0  0  0  0  0  0
    3.3535   -2.5618    0.8240 H   0  0  0  0  0  0  0  0  0  0  0  0
    3.3088   -2.5461   -0.9625 H   0  0  0  0  0  0  0  0  0  0  0  0
    2.1998   -3.5680   -0.0520 H   0  0  0  0  0  0  0  0  0  0  0  0
   -3.2745    2.1688    0.2066 H   0  0  0  0  0  0  0  0  0  0  0  0
    3.7591    0.2126    2.0073 H   0  0  0  0  0  0  0  0  0  0  0  0
    4.8086    1.3556    1.1408 H   0  0  0  0  0  0  0  0  0  0  0  0
    5.1881   -0.3991    1.1455 H   0  0  0  0  0  0  0  0  0  0  0  0
    2.6325    2.2186   -0.1842 H   0  0  0  0  0  0  0  0  0  0  0  0
   -4.8810    0.5892   -1.5264 H   0  0  0  0  0  0  0  0  0  0  0  0
   -4.4650   -1.1546   -1.5403 H   0  0  0  0  0  0  0  0  0  0  0  0
   -5.9828   -0.6007   -0.8164 H   0  0  0  0  0  0  0  0  0  0  0  0
  1 10  1  0  0  0  0
  1 28  1  0  0  0  0
  2 14  1  0  0  0  0
  2 19  1  0  0  0  0
  3 12  2  0  0  0  0
  4 13  2  0  0  0  0
  5 17  2  0  0  0  0
  6  7  2  0  0  0  0
  6 10  1  0  0  0  0
  6 13  1  0  0  0  0
  7 11  1  0  0  0  0
  7 12  1  0  0  0  0
  8  9  1  0  0  0  0
  8 11  2  0  0  0  0
  8 15  1  0  0  0  0
  9 10  2  0  0  0  0
  9 17  1  0  0  0  0
 11 20  1  0  0  0  0
 12 14  1  0  0  0  0
 13 16  1  0  0  0  0
 14 16  2  0  0  0  0
 15 21  1  0  0  0  0
 15 22  1  0  0  0  0
 15 23  1  0  0  0  0
 16 24  1  0  0  0  0
 17 18  1  0  0  0  0
 18 25  1  0  0  0  0
 18 26  1  0  0  0  0
 18 27  1  0  0  0  0
 19 29  1  0  0  0  0
 19 30  1  0  0  0  0
 19 31  1  0  0  0  0
M  END
> <PUBCHEM_COMPOUND_CID>
158739

> <PUBCHEM_CONFORMER_RMSD>
0.6

> <PUBCHEM_CONFORMER_DIVERSEORDER>
2
1

> <PUBCHEM_MMFF94_PARTIAL_CHARGES>
22
1 -0.53
10 0.08
11 -0.15
12 0.47
13 0.47
14 0.09
15 0.14
16 -0.14
17 0.42
18 0.06
19 0.28
2 -0.36
20 0.15
24 0.15
28 0.45
3 -0.57
4 -0.57
5 -0.57
6 0.09
7 0.09
8 -0.14
9 0.09

> <PUBCHEM_EFFECTIVE_ROTOR_COUNT>
2

> <PUBCHEM_PHARMACOPHORE_FEATURES>
7
1 1 donor
1 2 acceptor
1 3 acceptor
1 4 acceptor
1 5 acceptor
6 6 7 12 13 14 16 rings
6 6 7 8 9 10 11 rings

> <PUBCHEM_HEAVY_ATOM_COUNT>
19

> <PUBCHEM_ATOM_DEF_STEREO_COUNT>
0

> <PUBCHEM_ATOM_UDEF_STEREO_COUNT>
0

> <PUBCHEM_BOND_DEF_STEREO_COUNT>
0

> <PUBCHEM_BOND_UDEF_STEREO_COUNT>
0

> <PUBCHEM_ISOTOPIC_ATOM_COUNT>
0

> <PUBCHEM_COMPONENT_COUNT>
1

> <PUBCHEM_CACTVS_TAUTO_COUNT>
29

> <PUBCHEM_CONFORMER_ID>
00026C1300000002

> <PUBCHEM_MMFF94_ENERGY>
66.3579

> <PUBCHEM_FEATURE_SELFOVERLAP>
35.549

> <PUBCHEM_SHAPE_FINGERPRINT>
10608611 8 18267864991180875792
10967382 1 18410577287997262490
11132069 177 18412262860992535098
11471102 20 18409446985754346223
11806522 49 18411697690683439951
12011746 2 18411419505298263462
12553582 1 18410020939519416433
13140716 1 18266738180624909200
13221675 6 18410858758673796027
13380535 76 18409167718427937370
13583140 156 14116949090028583695
13862211 1 18410849975550162691
14576447 43 18200300135088495863
14790565 3 18266192797178126508
15196674 1 18338798897235812811
15442244 35 18121782725226618738
15536298 74 18342459184329931762
16945 1 18410299107313124480
200 152 18130781274743928925
20510252 161 18271243798876599737
20905425 154 18197219153019646262
21029758 11 18342451548147195889
21267235 1 18410584976025885923
21501502 16 18195251022504771434
2334 1 17906174301709774360
23366157 5 17969232127488516486
23402539 116 18343011195212309229
23402655 69 18341043026638860341
23463225 33 18408606954580785872
23557571 272 18201730517647396084
23558518 356 18046633308538165961
23559900 14 18268144263055797218
2748010 2 18050289459620619416
2871803 45 18410012109003222502
296302 2 16877950463740054542
335352 9 18410012143315423350
34934 24 18411692205815400843
350125 39 18122069693413415624
4072396 5 18263346075716043226
4340502 62 16371010672668539323
5104073 3 18339644413013928811
537710 114 18408889537648613365
53812653 166 18343579655545454864
57005193 9 18409158922498250443
58051976 378 18411141333615575052
59755656 215 18410012092641589542
69090 78 18060134366482046247
7364860 26 18270962320058816322
8809292 202 18188495786388777595
9709674 26 18339929216311088383

> <PUBCHEM_SHAPE_MULTIPOLES>
361.66
7.78
2.45
0.79
1.72
0.11
0.06
-0.76
0.65
-0.24
-0.06
-0.31
0.02
-0.02

> <PUBCHEM_SHAPE_SELFOVERLAP>
789.367

> <PUBCHEM_SHAPE_VOLUME>
197.2

> <PUBCHEM_COORDINATE_TYPE>
2
5
10

$$$$
