118855584
  -OEChem-09292003073D

 51 54  0     1  0  0  0  0  0999 V2000
   -3.5299    0.4906   -0.5477 O   0  0  0  0  0  0  0  0  0  0  0  0
   -1.3933   -0.0904    0.3001 O   0  0  0  0  0  0  0  0  0  0  0  0
   -3.9801   -3.5646    0.2489 O   0  0  0  0  0  0  0  0  0  0  0  0
   -5.6731   -1.4910   -0.5073 O   0  0  0  0  0  0  0  0  0  0  0  0
   -3.3958   -2.0190   -2.0341 O   0  0  0  0  0  0  0  0  0  0  0  0
   -4.9460    2.3802    1.2176 O   0  0  0  0  0  0  0  0  0  0  0  0
    0.6972   -1.5691    0.3726 O   0  0  0  0  0  0  0  0  0  0  0  0
   -0.7433    4.5615   -0.3161 O   0  0  0  0  0  0  0  0  0  0  0  0
    3.9177    2.6380   -0.3248 O   0  0  0  0  0  0  0  0  0  0  0  0
    2.6836   -3.1830    0.4714 O   0  0  0  0  0  0  0  0  0  0  0  0
   -3.5503   -2.2154    0.3863 C   0  0  2  0  0  0  0  0  0  0  0  0
   -4.7613   -1.2985    0.5734 C   0  0  1  0  0  0  0  0  0  0  0  0
   -2.6950   -1.7925   -0.8123 C   0  0  2  0  0  0  0  0  0  0  0  0
   -4.2886    0.1614    0.6240 C   0  0  2  0  0  0  0  0  0  0  0  0
   -2.3518   -0.3036   -0.7314 C   0  0  1  0  0  0  0  0  0  0  0  0
   -5.4416    1.1552    0.7082 C   0  0  0  0  0  0  0  0  0  0  0  0
   -0.5141    0.9370    0.1246 C   0  0  0  0  0  0  0  0  0  0  0  0
    0.8729    0.7535    0.0738 C   0  0  0  0  0  0  0  0  0  0  0  0
    1.7146    1.8530   -0.1084 C   0  0  0  0  0  0  0  0  0  0  0  0
    1.4351   -0.6053    0.2137 C   0  0  0  0  0  0  0  0  0  0  0  0
   -1.0535    2.2169   -0.0068 C   0  0  0  0  0  0  0  0  0  0  0  0
    2.9005   -0.7842    0.1596 C   0  0  0  0  0  0  0  0  0  0  0  0
    3.7419    0.3152   -0.0225 C   0  0  0  0  0  0  0  0  0  0  0  0
    3.1798    1.6739   -0.1633 C   0  0  0  0  0  0  0  0  0  0  0  0
    1.1692    3.1356   -0.2399 C   0  0  0  0  0  0  0  0  0  0  0  0
   -0.2136    3.3139   -0.1889 C   0  0  0  0  0  0  0  0  0  0  0  0
    3.4459   -2.0669    0.2919 C   0  0  0  0  0  0  0  0  0  0  0  0
    5.1291    0.1321   -0.0722 C   0  0  0  0  0  0  0  0  0  0  0  0
    5.6685   -1.1478    0.0600 C   0  0  0  0  0  0  0  0  0  0  0  0
    4.8287   -2.2449    0.2416 C   0  0  0  0  0  0  0  0  0  0  0  0
    7.1465   -1.3419    0.0079 C   0  0  0  0  0  0  0  0  0  0  0  0
   -2.9283   -2.1664    1.2891 H   0  0  0  0  0  0  0  0  0  0  0  0
   -5.2982   -1.5595    1.4925 H   0  0  0  0  0  0  0  0  0  0  0  0
   -1.7894   -2.4091   -0.8411 H   0  0  0  0  0  0  0  0  0  0  0  0
   -3.6390    0.3028    1.4980 H   0  0  0  0  0  0  0  0  0  0  0  0
   -1.9263    0.0015   -1.6972 H   0  0  0  0  0  0  0  0  0  0  0  0
   -5.8853    1.3442   -0.2746 H   0  0  0  0  0  0  0  0  0  0  0  0
   -6.2149    0.8003    1.3966 H   0  0  0  0  0  0  0  0  0  0  0  0
   -4.5029   -3.7882    1.0377 H   0  0  0  0  0  0  0  0  0  0  0  0
   -5.9112   -2.4337   -0.5225 H   0  0  0  0  0  0  0  0  0  0  0  0
   -2.7949   -1.7938   -2.7647 H   0  0  0  0  0  0  0  0  0  0  0  0
   -2.1227    2.3917    0.0552 H   0  0  0  0  0  0  0  0  0  0  0  0
   -5.6969    2.9961    1.2656 H   0  0  0  0  0  0  0  0  0  0  0  0
    1.8140    3.9994   -0.3820 H   0  0  0  0  0  0  0  0  0  0  0  0
    5.7957    0.9798   -0.2112 H   0  0  0  0  0  0  0  0  0  0  0  0
    5.2477   -3.2431    0.3468 H   0  0  0  0  0  0  0  0  0  0  0  0
    7.5765   -1.2221    1.0072 H   0  0  0  0  0  0  0  0  0  0  0  0
    7.4031   -2.3389   -0.3662 H   0  0  0  0  0  0  0  0  0  0  0  0
    7.6154   -0.6172   -0.6664 H   0  0  0  0  0  0  0  0  0  0  0  0
   -0.0204    5.2013   -0.4346 H   0  0  0  0  0  0  0  0  0  0  0  0
    1.7417   -2.9578    0.4899 H   0  0  0  0  0  0  0  0  0  0  0  0
  1 14  1  0  0  0  0
  1 15  1  0  0  0  0
  2 15  1  0  0  0  0
  2 17  1  0  0  0  0
  3 11  1  0  0  0  0
  3 39  1  0  0  0  0
  4 12  1  0  0  0  0
  4 40  1  0  0  0  0
  5 13  1  0  0  0  0
  5 41  1  0  0  0  0
  6 16  1  0  0  0  0
  6 43  1  0  0  0  0
  7 20  2  0  0  0  0
  8 26  1  0  0  0  0
  8 50  1  0  0  0  0
  9 24  2  0  0  0  0
 10 27  1  0  0  0  0
 10 51  1  0  0  0  0
 11 12  1  0  0  0  0
 11 13  1  0  0  0  0
 11 32  1  0  0  0  0
 12 14  1  0  0  0  0
 12 33  1  0  0  0  0
 13 15  1  0  0  0  0
 13 34  1  0  0  0  0
 14 16  1  0  0  0  0
 14 35  1  0  0  0  0
 15 36  1  0  0  0  0
 16 37  1  0  0  0  0
 16 38  1  0  0  0  0
 17 18  1  0  0  0  0
 17 21  2  0  0  0  0
 18 19  2  0  0  0  0
 18 20  1  0  0  0  0
 19 24  1  0  0  0  0
 19 25  1  0  0  0  0
 20 22  1  0  0  0  0
 21 26  1  0  0  0  0
 21 42  1  0  0  0  0
 22 23  2  0  0  0  0
 22 27  1  0  0  0  0
 23 24  1  0  0  0  0
 23 28  1  0  0  0  0
 25 26  2  0  0  0  0
 25 44  1  0  0  0  0
 27 30  2  0  0  0  0
 28 29  2  0  0  0  0
 28 45  1  0  0  0  0
 29 30  1  0  0  0  0
 29 31  1  0  0  0  0
 30 46  1  0  0  0  0
 31 47  1  0  0  0  0
 31 48  1  0  0  0  0
 31 49  1  0  0  0  0
M  END
> <PUBCHEM_COMPOUND_CID>
118855584

> <PUBCHEM_CONFORMER_RMSD>
0.8

> <PUBCHEM_CONFORMER_DIVERSEORDER>
1
54
71
46
66
62
33
61
76
70
15
63
69
51
67
74
4
37
19
39
36
58
75
40
43
35
20
29
44
42
55
8
32
13
27
60
26
49
5
24
52
65
30
53
22
50
45
18
6
34
38
7
73
3
48
14
31
16
57
25
9
41
11
56
64
10
68
2
23
17
59
12
47
72
21
28

> <PUBCHEM_MMFF94_PARTIAL_CHARGES>
41
1 -0.56
10 -0.53
11 0.28
12 0.28
13 0.28
14 0.28
15 0.56
16 0.28
17 0.08
18 0.09
19 0.09
2 -0.36
20 0.4
21 -0.15
22 0.09
23 0.09
24 0.4
25 -0.15
26 0.08
27 0.08
28 -0.15
29 -0.14
3 -0.68
30 -0.15
31 0.14
39 0.4
4 -0.68
40 0.4
41 0.4
42 0.15
43 0.4
44 0.15
45 0.15
46 0.15
5 -0.68
50 0.45
51 0.45
6 -0.68
7 -0.57
8 -0.53
9 -0.57

> <PUBCHEM_EFFECTIVE_ROTOR_COUNT>
4.2

> <PUBCHEM_PHARMACOPHORE_FEATURES>
18
1 1 acceptor
1 10 donor
1 2 acceptor
1 3 acceptor
1 3 donor
1 4 acceptor
1 4 donor
1 5 acceptor
1 5 donor
1 6 acceptor
1 6 donor
1 7 acceptor
1 8 donor
1 9 acceptor
6 1 11 12 13 14 15 rings
6 17 18 19 21 25 26 rings
6 18 19 20 22 23 24 rings
6 22 23 27 28 29 30 rings

> <PUBCHEM_HEAVY_ATOM_COUNT>
31

> <PUBCHEM_ATOM_DEF_STEREO_COUNT>
2

> <PUBCHEM_ATOM_UDEF_STEREO_COUNT>
3

> <PUBCHEM_BOND_DEF_STEREO_COUNT>
0

> <PUBCHEM_BOND_UDEF_STEREO_COUNT>
0

> <PUBCHEM_ISOTOPIC_ATOM_COUNT>
0

> <PUBCHEM_COMPONENT_COUNT>
1

> <PUBCHEM_CACTVS_TAUTO_COUNT>
57

> <PUBCHEM_CONFORMER_ID>
071597A000000001

> <PUBCHEM_MMFF94_ENERGY>
105.3945

> <PUBCHEM_FEATURE_SELFOVERLAP>
91.477

> <PUBCHEM_SHAPE_FINGERPRINT>
10411042 1 18409729569354572714
10622 236 17556557053467048431
11045515 52 18113616772531492900
11578080 2 17631431492988970969
12107183 9 18340495452579077897
12166972 35 17603590729619255926
12236239 1 18202847655831276864
12422481 6 17632578232409059686
12553582 1 18337095809263907882
12788726 201 18189330165474761664
13140716 1 18412545409605711121
138480 1 14879466674580661988
14117953 113 18270965639551026471
14341114 176 18337396062417651531
14394314 77 18411706508442138248
14790565 3 17832151893521564756
15064986 96 18058747840140212407
15196674 1 18410293657094629800
15320467 1 18265332798491182354
15361156 5 18040729077152218556
15927050 60 17764029460679050308
16087824 20 18192714437166145669
16110190 28 18413113835811187865
17349148 13 17894348861364837970
17492 89 18122345946132478763
17844677 252 18339369651097565683
18608769 82 18411698773711485506
19591789 44 18337670940002907014
20028762 73 18342737434145497190
21267235 1 18410017636689624186
21421861 104 18188206486181886664
21478907 32 18409445860705256996
221490 88 18262803011171149314
22950370 63 18409451401133440908
229767 44 18197510532487127089
23522609 53 18119842207674337780
23559900 14 18410003351580743288
24771293 8 18271231842658260512
3004659 81 18113614595241055450
335352 9 18410292480743303813
350125 39 18339082597343771160
3633792 109 18335125507030612711
3882209 13 17251698440640554555
4017518 198 17274822411196135270
4073 2 18114750442034031146
4409770 3 18117551830633036189
46194498 28 17314501741738187917
463206 1 18335703896558162154
5104073 3 18342176704008880912
5486654 36 18334864952317393715
6009941 240 17604155831282779089
9981440 41 17041754860260099329

> <PUBCHEM_SHAPE_MULTIPOLES>
579.27
13.67
4.31
0.86
3.29
2.35
-0.19
-7.89
1.27
-1.07
-0.17
-0.89
-0.21
-1.26

> <PUBCHEM_SHAPE_SELFOVERLAP>
1283.269

> <PUBCHEM_SHAPE_VOLUME>
306.1

> <PUBCHEM_COORDINATE_TYPE>
2
5
10

$$$$
