3083633
  -OEChem-09292002483D

 34 36  0     0  0  0  0  0  0999 V2000
   -2.6019   -2.7717   -0.0441 O   0  0  0  0  0  0  0  0  0  0  0  0
    0.1060    2.5850   -0.1625 O   0  0  0  0  0  0  0  0  0  0  0  0
   -0.0422   -2.7529    0.0469 O   0  0  0  0  0  0  0  0  0  0  0  0
    2.5127   -2.9062    0.1473 O   0  0  0  0  0  0  0  0  0  0  0  0
    4.9384    1.1624    0.0704 O   0  0  0  0  0  0  0  0  0  0  0  0
   -5.3588    1.7879    1.0181 O   0  0  0  0  0  0  0  0  0  0  0  0
   -1.2203    0.6466   -0.1311 C   0  0  0  0  0  0  0  0  0  0  0  0
   -1.2590   -0.7482   -0.0767 C   0  0  0  0  0  0  0  0  0  0  0  0
    1.2843   -0.8151    0.0176 C   0  0  0  0  0  0  0  0  0  0  0  0
    1.3232    0.5797   -0.0368 C   0  0  0  0  0  0  0  0  0  0  0  0
    0.0722    1.3616   -0.1136 C   0  0  0  0  0  0  0  0  0  0  0  0
   -0.0081   -1.5301   -0.0007 C   0  0  0  0  0  0  0  0  0  0  0  0
   -2.4132    1.3761   -0.2029 C   0  0  0  0  0  0  0  0  0  0  0  0
   -2.4908   -1.4136   -0.0938 C   0  0  0  0  0  0  0  0  0  0  0  0
   -3.6383    0.7090   -0.2198 C   0  0  0  0  0  0  0  0  0  0  0  0
    2.4771   -1.5445    0.0898 C   0  0  0  0  0  0  0  0  0  0  0  0
    2.5547    1.2452   -0.0185 C   0  0  0  0  0  0  0  0  0  0  0  0
   -3.6770   -0.6828   -0.1655 C   0  0  0  0  0  0  0  0  0  0  0  0
    3.7410    0.5145    0.0537 C   0  0  0  0  0  0  0  0  0  0  0  0
    3.7023   -0.8773    0.1078 C   0  0  0  0  0  0  0  0  0  0  0  0
   -4.9086    1.4871   -0.2970 C   0  0  0  0  0  0  0  0  0  0  0  0
    4.9060    2.5874    0.0113 C   0  0  0  0  0  0  0  0  0  0  0  0
   -2.3967    2.4625   -0.2440 H   0  0  0  0  0  0  0  0  0  0  0  0
    2.5402    2.3286   -0.0623 H   0  0  0  0  0  0  0  0  0  0  0  0
   -4.6315   -1.2041   -0.1770 H   0  0  0  0  0  0  0  0  0  0  0  0
    4.6353   -1.4334    0.1640 H   0  0  0  0  0  0  0  0  0  0  0  0
   -4.7700    2.4272   -0.8414 H   0  0  0  0  0  0  0  0  0  0  0  0
   -5.6920    0.9253   -0.8172 H   0  0  0  0  0  0  0  0  0  0  0  0
   -1.7283   -3.1875    0.0032 H   0  0  0  0  0  0  0  0  0  0  0  0
    3.4360   -3.2079    0.1928 H   0  0  0  0  0  0  0  0  0  0  0  0
   -5.3477    0.9672    1.5397 H   0  0  0  0  0  0  0  0  0  0  0  0
    5.9443    2.9346    0.0343 H   0  0  0  0  0  0  0  0  0  0  0  0
    4.4079    3.0161    0.8875 H   0  0  0  0  0  0  0  0  0  0  0  0
    4.4727    2.9423   -0.9300 H   0  0  0  0  0  0  0  0  0  0  0  0
  1 14  1  0  0  0  0
  1 29  1  0  0  0  0
  2 11  2  0  0  0  0
  3 12  2  0  0  0  0
  4 16  1  0  0  0  0
  4 30  1  0  0  0  0
  5 19  1  0  0  0  0
  5 22  1  0  0  0  0
  6 21  1  0  0  0  0
  6 31  1  0  0  0  0
  7  8  2  0  0  0  0
  7 11  1  0  0  0  0
  7 13  1  0  0  0  0
  8 12  1  0  0  0  0
  8 14  1  0  0  0  0
  9 10  2  0  0  0  0
  9 12  1  0  0  0  0
  9 16  1  0  0  0  0
 10 11  1  0  0  0  0
 10 17  1  0  0  0  0
 13 15  2  0  0  0  0
 13 23  1  0  0  0  0
 14 18  2  0  0  0  0
 15 18  1  0  0  0  0
 15 21  1  0  0  0  0
 16 20  2  0  0  0  0
 17 19  2  0  0  0  0
 17 24  1  0  0  0  0
 18 25  1  0  0  0  0
 19 20  1  0  0  0  0
 20 26  1  0  0  0  0
 21 27  1  0  0  0  0
 21 28  1  0  0  0  0
 22 32  1  0  0  0  0
 22 33  1  0  0  0  0
 22 34  1  0  0  0  0
M  END
> <PUBCHEM_COMPOUND_CID>
3083633

> <PUBCHEM_CONFORMER_RMSD>
0.6

> <PUBCHEM_CONFORMER_DIVERSEORDER>
2
1

> <PUBCHEM_MMFF94_PARTIAL_CHARGES>
29
1 -0.53
10 0.09
11 0.4
12 0.4
13 -0.15
14 0.08
15 -0.14
16 0.08
17 -0.15
18 -0.15
19 0.08
2 -0.57
20 -0.15
21 0.42
22 0.28
23 0.15
24 0.15
25 0.15
26 0.15
29 0.45
3 -0.57
30 0.45
31 0.4
4 -0.53
5 -0.36
6 -0.68
7 0.09
8 0.09
9 0.09

> <PUBCHEM_EFFECTIVE_ROTOR_COUNT>
2

> <PUBCHEM_PHARMACOPHORE_FEATURES>
10
1 1 donor
1 2 acceptor
1 3 acceptor
1 4 donor
1 5 acceptor
1 6 acceptor
1 6 donor
6 7 8 13 14 15 18 rings
6 7 8 9 10 11 12 rings
6 9 10 16 17 19 20 rings

> <PUBCHEM_HEAVY_ATOM_COUNT>
22

> <PUBCHEM_ATOM_DEF_STEREO_COUNT>
0

> <PUBCHEM_ATOM_UDEF_STEREO_COUNT>
0

> <PUBCHEM_BOND_DEF_STEREO_COUNT>
0

> <PUBCHEM_BOND_UDEF_STEREO_COUNT>
0

> <PUBCHEM_ISOTOPIC_ATOM_COUNT>
0

> <PUBCHEM_COMPONENT_COUNT>
1

> <PUBCHEM_CACTVS_TAUTO_COUNT>
24

> <PUBCHEM_CONFORMER_ID>
002F0D7100000002

> <PUBCHEM_MMFF94_ENERGY>
77.5698

> <PUBCHEM_FEATURE_SELFOVERLAP>
50.789

> <PUBCHEM_SHAPE_FINGERPRINT>
10411042 1 17112974626659363178
10493431 412 18411141333726630481
10498660 4 18410577305630831964
10616163 171 18338517555097542590
10863032 1 18412261739805798982
10967382 1 18337951186349965190
11132069 177 18408599262267984944
11578080 2 17201622571148634795
12236239 1 17845366662372908885
12390115 104 18269854136258820224
12403814 3 17748820817863759045
12788726 201 17417537895442562673
13132413 78 18339923830564231924
13140716 1 18335983081990315195
13675066 3 17895199865973929117
138480 1 17977944588527754626
14790565 3 18265339576149691180
15196674 1 18410291419305970254
15536298 74 18341612594778298846
1601671 61 18410855468903180560
16945 1 18121779692726435151
1813 80 16950287290850486445
19591789 44 18122342647280765852
20510252 161 18270684276454565672
20642791 178 18043822093698748220
20739085 24 18047776809664664193
21267235 1 18338524014691432382
21304253 335 18335426750639519525
21421861 104 17969774194925440338
2334 1 18410008861976577406
23366157 5 18041277674063928026
23402539 116 18342167908321955668
23402655 69 18272367581306224556
23558518 356 17899136297821084793
23559900 14 18342173341846111366
2748010 2 18410293605428662198
335352 9 18338516344486341190
34934 24 18410851066381918790
350125 39 18337108948270226412
3680242 22 18335133151428561616
5104073 3 18335417976020931386
59554788 62 17749379365143223806
59755656 215 18339083692697088326
6034566 193 17900285261718956276
633830 44 18343017761653108046
7364860 26 18340485556995480974
7832392 63 18411696595256042743
9709674 26 18411421708843885102
9981440 41 18263076785846602770

> <PUBCHEM_SHAPE_MULTIPOLES>
417.53
9.52
3.05
0.64
0.86
0.95
0.03
-5.64
0.71
-0.71
0.08
0.24
-0.09
-0.32

> <PUBCHEM_SHAPE_SELFOVERLAP>
936.446

> <PUBCHEM_SHAPE_VOLUME>
219.5

> <PUBCHEM_COORDINATE_TYPE>
2
5
10

$$$$
