667639
  -OEChem-09292002363D

 30 31  0     0  0  0  0  0  0999 V2000
   -4.9869    1.6420    0.8824 O   0  0  0  0  0  0  0  0  0  0  0  0
    5.1716   -2.0059    0.6387 O   0  0  0  0  0  0  0  0  0  0  0  0
    4.2974    2.5298   -0.5648 O   0  0  0  0  0  0  0  0  0  0  0  0
   -5.8851   -0.7432   -0.2262 O   0  0  0  0  0  0  0  0  0  0  0  0
    2.0350   -0.2780   -0.0378 C   0  0  0  0  0  0  0  0  0  0  0  0
   -1.8187    0.0770   -0.0536 C   0  0  0  0  0  0  0  0  0  0  0  0
    0.5906   -0.5670   -0.0778 C   0  0  0  0  0  0  0  0  0  0  0  0
   -0.3933    0.3597    0.0049 C   0  0  0  0  0  0  0  0  0  0  0  0
   -2.7348    1.0023    0.4467 C   0  0  0  0  0  0  0  0  0  0  0  0
    2.4786    1.0027   -0.3240 C   0  0  0  0  0  0  0  0  0  0  0  0
    2.9211   -1.2929    0.2854 C   0  0  0  0  0  0  0  0  0  0  0  0
   -2.2698   -1.1202   -0.6096 C   0  0  0  0  0  0  0  0  0  0  0  0
   -4.1019    0.7304    0.3912 C   0  0  0  0  0  0  0  0  0  0  0  0
    4.2884   -1.0194    0.3232 C   0  0  0  0  0  0  0  0  0  0  0  0
    3.8460    1.2763   -0.2862 C   0  0  0  0  0  0  0  0  0  0  0  0
   -3.6365   -1.3922   -0.6651 C   0  0  0  0  0  0  0  0  0  0  0  0
   -4.5526   -0.4668   -0.1649 C   0  0  0  0  0  0  0  0  0  0  0  0
    4.7509    0.2652    0.0375 C   0  0  0  0  0  0  0  0  0  0  0  0
    0.3516   -1.6235   -0.1654 H   0  0  0  0  0  0  0  0  0  0  0  0
   -0.1509    1.4095    0.1453 H   0  0  0  0  0  0  0  0  0  0  0  0
   -2.3959    1.9391    0.8842 H   0  0  0  0  0  0  0  0  0  0  0  0
    1.8082    1.8103   -0.6019 H   0  0  0  0  0  0  0  0  0  0  0  0
    2.5635   -2.2949    0.5104 H   0  0  0  0  0  0  0  0  0  0  0  0
   -1.5971   -1.8608   -1.0319 H   0  0  0  0  0  0  0  0  0  0  0  0
   -3.9751   -2.3263   -1.1055 H   0  0  0  0  0  0  0  0  0  0  0  0
    5.8179    0.4716    0.0688 H   0  0  0  0  0  0  0  0  0  0  0  0
   -5.8863    1.2908    0.7620 H   0  0  0  0  0  0  0  0  0  0  0  0
    4.6797   -2.8281    0.8062 H   0  0  0  0  0  0  0  0  0  0  0  0
    5.2673    2.5392   -0.4916 H   0  0  0  0  0  0  0  0  0  0  0  0
   -6.0092   -1.6137   -0.6417 H   0  0  0  0  0  0  0  0  0  0  0  0
  1 13  1  0  0  0  0
  1 27  1  0  0  0  0
  2 14  1  0  0  0  0
  2 28  1  0  0  0  0
  3 15  1  0  0  0  0
  3 29  1  0  0  0  0
  4 17  1  0  0  0  0
  4 30  1  0  0  0  0
  5  7  1  0  0  0  0
  5 10  2  0  0  0  0
  5 11  1  0  0  0  0
  6  8  1  0  0  0  0
  6  9  2  0  0  0  0
  6 12  1  0  0  0  0
  7  8  2  0  0  0  0
  7 19  1  0  0  0  0
  8 20  1  0  0  0  0
  9 13  1  0  0  0  0
  9 21  1  0  0  0  0
 10 15  1  0  0  0  0
 10 22  1  0  0  0  0
 11 14  2  0  0  0  0
 11 23  1  0  0  0  0
 12 16  2  0  0  0  0
 12 24  1  0  0  0  0
 13 17  2  0  0  0  0
 14 18  1  0  0  0  0
 15 18  2  0  0  0  0
 16 17  1  0  0  0  0
 16 25  1  0  0  0  0
 18 26  1  0  0  0  0
M  END
> <PUBCHEM_COMPOUND_CID>
667639

> <PUBCHEM_CONFORMER_RMSD>
0.6

> <PUBCHEM_CONFORMER_DIVERSEORDER>
3
1
2

> <PUBCHEM_MMFF94_PARTIAL_CHARGES>
30
1 -0.53
10 -0.15
11 -0.15
12 -0.15
13 0.08
14 0.08
15 0.08
16 -0.15
17 0.08
18 -0.15
19 0.15
2 -0.53
20 0.15
21 0.15
22 0.15
23 0.15
24 0.15
25 0.15
26 0.15
27 0.45
28 0.45
29 0.45
3 -0.53
30 0.45
4 -0.53
5 0.03
6 0.03
7 -0.18
8 -0.18
9 -0.15

> <PUBCHEM_EFFECTIVE_ROTOR_COUNT>
2

> <PUBCHEM_PHARMACOPHORE_FEATURES>
6
1 1 donor
1 2 donor
1 3 donor
1 4 donor
6 5 10 11 14 15 18 rings
6 6 9 12 13 16 17 rings

> <PUBCHEM_HEAVY_ATOM_COUNT>
18

> <PUBCHEM_ATOM_DEF_STEREO_COUNT>
0

> <PUBCHEM_ATOM_UDEF_STEREO_COUNT>
0

> <PUBCHEM_BOND_DEF_STEREO_COUNT>
1

> <PUBCHEM_BOND_UDEF_STEREO_COUNT>
0

> <PUBCHEM_ISOTOPIC_ATOM_COUNT>
0

> <PUBCHEM_COMPONENT_COUNT>
1

> <PUBCHEM_CACTVS_TAUTO_COUNT>
80

> <PUBCHEM_CONFORMER_ID>
000A2FF700000003

> <PUBCHEM_MMFF94_ENERGY>
51.8012

> <PUBCHEM_FEATURE_SELFOVERLAP>
30.453

> <PUBCHEM_SHAPE_FINGERPRINT>
10595046 47 18339923830495452085
10912923 1 18342741827405540529
10937287 8 17176605512105725828
11405975 8 18409449180651361834
12107183 9 17763465019475068403
12236239 1 18412544297203841675
12616971 3 18410575067488497479
13073987 5 18411982481295950977
13167372 99 18339927013388550057
13167823 11 18410853265410812810
13533116 47 18407757040872717586
14528608 73 18339646745244635820
15196674 1 18411418422971772741
15250474 111 18270949241271912574
15788980 27 18411702075549708595
17834072 33 18411698811406238103
17844677 252 18335144167587392453
18186145 218 17457778994473987282
18222031 100 15863790603560765006
19050596 39 18412544301519901410
200 152 18412822490973263667
20612939 158 18260831514282674740
20645477 70 18335137575266397078
21033648 29 16733252517279449765
21065198 48 18411702092750728685
21267235 1 18411424998630370270
22646028 1 18411416202473758690
23402539 116 18202275875805033037
23402655 69 18413109489541596260
23559900 14 18339636845102081040
29717793 49 18272086076169869071
300161 21 18341887506680958300
3004659 81 18343305842906580990
34797466 226 16845019029568411916
3545911 37 18334296508736485364
4073 2 17968382359217895426
42 15 18409730629821293118
4214541 1 18413107238809999377
474 4 17969225710258620444
5104073 3 18411982472479053203
522135 26 18261110777562152934
5281201 14 17676203550916431204
542803 24 18409168813718034993
559249 180 18341045203807860691
573450 72 18272645740663310011
633830 44 18187080659052325098
67856867 119 18341044211944657224
7495541 125 17917987317004409403
77779 3 18411419522494008527
90127 26 18338531780018326673
9709674 26 18411989043874707942
9971528 1 17748827427697108396

> <PUBCHEM_SHAPE_MULTIPOLES>
346.95
13.45
1.82
0.75
3.06
0.37
0
-0.14
-0.86
-1.44
0.02
0.12
0.02
-1.65

> <PUBCHEM_SHAPE_SELFOVERLAP>
753.036

> <PUBCHEM_SHAPE_VOLUME>
190.3

> <PUBCHEM_COORDINATE_TYPE>
2
5
10

$$$$
