102450498
  -OEChem-09292003112D

110114  0     1  0  0  0  0  0999 V2000
   12.2583   -1.7193    0.0000 O   0  0  0  0  0  0  0  0  0  0  0  0
   13.2583   -2.7193    0.0000 O   0  0  0  0  0  0  0  0  0  0  0  0
   11.5263   -2.7193    0.0000 O   0  0  0  0  0  0  0  0  0  0  0  0
   14.5184   -0.4592    0.0000 O   0  0  0  0  0  0  0  0  0  0  0  0
   12.7583    0.8196    0.0000 O   0  0  0  0  0  0  0  0  0  0  0  0
   13.2583   -4.7193    0.0000 O   0  0  0  0  0  0  0  0  0  0  0  0
   14.4173   -3.0065    0.0000 O   0  0  0  0  0  0  0  0  0  0  0  0
   11.5263   -5.7193    0.0000 O   0  0  0  0  0  0  0  0  0  0  0  0
    9.7942   -4.7193    0.0000 O   0  0  0  0  0  0  0  0  0  0  0  0
   10.7903    0.5189    0.0000 O   0  0  0  0  0  0  0  0  0  0  0  0
    8.9282   -3.2193    0.0000 O   0  0  0  0  0  0  0  0  0  0  0  0
   13.9832    1.1881    0.0000 O   0  0  0  0  0  0  0  0  0  0  0  0
   12.3923   -6.2193    0.0000 O   0  0  0  0  0  0  0  0  0  0  0  0
   15.5763   -4.2936    0.0000 O   0  0  0  0  0  0  0  0  0  0  0  0
    9.0961    0.1588    0.0000 O   0  0  0  0  0  0  0  0  0  0  0  0
    8.0622   -1.7193    0.0000 O   0  0  0  0  0  0  0  0  0  0  0  0
   19.6895    3.0422    0.0000 O   0  0  0  0  0  0  0  0  0  0  0  0
    2.8660   -2.7193    0.0000 O   0  0  0  0  0  0  0  0  0  0  0  0
    7.8487    6.0277    0.0000 O   0  0  0  0  0  0  0  0  0  0  0  0
    2.8660   -4.7193    0.0000 O   0  0  0  0  0  0  0  0  0  0  0  0
   13.2583   -1.7193    0.0000 C   0  0  1  0  0  0  0  0  0  0  0  0
   13.5673   -0.7682    0.0000 C   0  0  2  0  0  0  0  0  0  0  0  0
   12.7583   -0.1804    0.0000 C   0  0  1  0  0  0  0  0  0  0  0  0
   11.9493   -0.7682    0.0000 C   0  0  1  0  0  0  0  0  0  0  0  0
   12.3923   -3.2193    0.0000 C   0  0  1  0  0  0  0  0  0  0  0  0
   12.3923   -4.2193    0.0000 C   0  0  1  0  0  0  0  0  0  0  0  0
   14.2094   -2.0283    0.0000 C   0  0  0  0  0  0  0  0  0  0  0  0
   11.5263   -4.7193    0.0000 C   0  0  2  0  0  0  0  0  0  0  0  0
   10.6603   -4.2193    0.0000 C   0  0  1  0  0  0  0  0  0  0  0  0
   10.6603   -3.2193    0.0000 C   0  0  1  0  0  0  0  0  0  0  0  0
   10.9983   -0.4592    0.0000 C   0  0  0  0  0  0  0  0  0  0  0  0
    9.7942   -2.7193    0.0000 C   0  0  0  0  0  0  0  0  0  0  0  0
   14.7263    0.5189    0.0000 C   0  0  0  0  0  0  0  0  0  0  0  0
   13.2583   -5.7193    0.0000 C   0  0  0  0  0  0  0  0  0  0  0  0
   15.3684   -3.3155    0.0000 C   0  0  0  0  0  0  0  0  0  0  0  0
    9.8393    0.8279    0.0000 C   0  0  0  0  0  0  0  0  0  0  0  0
   15.6774    0.8279    0.0000 C   0  0  0  0  0  0  0  0  0  0  0  0
   14.1244   -6.2193    0.0000 C   0  0  0  0  0  0  0  0  0  0  0  0
   16.1115   -2.6463    0.0000 C   0  0  0  0  0  0  0  0  0  0  0  0
    8.0622   -2.7193    0.0000 C   0  0  0  0  0  0  0  0  0  0  0  0
   15.8853    1.8061    0.0000 C   0  0  0  0  0  0  0  0  0  0  0  0
    9.6314    1.8061    0.0000 C   0  0  0  0  0  0  0  0  0  0  0  0
    7.1962   -3.2193    0.0000 C   0  0  0  0  0  0  0  0  0  0  0  0
   16.8363    2.1151    0.0000 C   0  0  0  0  0  0  0  0  0  0  0  0
    8.6803    2.1151    0.0000 C   0  0  0  0  0  0  0  0  0  0  0  0
    6.3301   -2.7193    0.0000 C   0  0  0  0  0  0  0  0  0  0  0  0
   17.0443    3.0933    0.0000 C   0  0  0  0  0  0  0  0  0  0  0  0
   17.5795    1.4460    0.0000 C   0  0  0  0  0  0  0  0  0  0  0  0
    8.4724    3.0933    0.0000 C   0  0  0  0  0  0  0  0  0  0  0  0
    5.4641   -3.2193    0.0000 C   0  0  0  0  0  0  0  0  0  0  0  0
   17.9953    3.4023    0.0000 C   0  0  0  0  0  0  0  0  0  0  0  0
   18.5305    1.7550    0.0000 C   0  0  0  0  0  0  0  0  0  0  0  0
    7.5214    3.4023    0.0000 C   0  0  0  0  0  0  0  0  0  0  0  0
    9.2156    3.7624    0.0000 C   0  0  0  0  0  0  0  0  0  0  0  0
   18.7385    2.7331    0.0000 C   0  0  0  0  0  0  0  0  0  0  0  0
    4.5981   -2.7193    0.0000 C   0  0  0  0  0  0  0  0  0  0  0  0
    5.4641   -4.2193    0.0000 C   0  0  0  0  0  0  0  0  0  0  0  0
    7.3134    4.3804    0.0000 C   0  0  0  0  0  0  0  0  0  0  0  0
    9.0076    4.7405    0.0000 C   0  0  0  0  0  0  0  0  0  0  0  0
    8.0566    5.0496    0.0000 C   0  0  0  0  0  0  0  0  0  0  0  0
    3.7320   -3.2193    0.0000 C   0  0  0  0  0  0  0  0  0  0  0  0
    4.5981   -4.7193    0.0000 C   0  0  0  0  0  0  0  0  0  0  0  0
    3.7320   -4.2193    0.0000 C   0  0  0  0  0  0  0  0  0  0  0  0
    2.0000   -3.2193    0.0000 C   0  0  0  0  0  0  0  0  0  0  0  0
   14.0058   -1.2066    0.0000 H   0  0  0  0  0  0  0  0  0  0  0  0
   13.3108    0.1010    0.0000 H   0  0  0  0  0  0  0  0  0  0  0  0
   11.5109   -1.2066    0.0000 H   0  0  0  0  0  0  0  0  0  0  0  0
   12.9292   -3.5293    0.0000 H   0  0  0  0  0  0  0  0  0  0  0  0
   12.3923   -4.8393    0.0000 H   0  0  0  0  0  0  0  0  0  0  0  0
   14.8290   -2.0067    0.0000 H   0  0  0  0  0  0  0  0  0  0  0  0
   14.2957   -1.4143    0.0000 H   0  0  0  0  0  0  0  0  0  0  0  0
   12.0632   -5.0293    0.0000 H   0  0  0  0  0  0  0  0  0  0  0  0
   10.6603   -4.8393    0.0000 H   0  0  0  0  0  0  0  0  0  0  0  0
   10.6603   -2.5993    0.0000 H   0  0  0  0  0  0  0  0  0  0  0  0
   10.3786   -0.4809    0.0000 H   0  0  0  0  0  0  0  0  0  0  0  0
   10.9120   -1.0732    0.0000 H   0  0  0  0  0  0  0  0  0  0  0  0
   13.2953    1.1296    0.0000 H   0  0  0  0  0  0  0  0  0  0  0  0
   10.1928   -2.2443    0.0000 H   0  0  0  0  0  0  0  0  0  0  0  0
    9.3957   -2.2443    0.0000 H   0  0  0  0  0  0  0  0  0  0  0  0
   10.9893   -6.0293    0.0000 H   0  0  0  0  0  0  0  0  0  0  0  0
    9.7942   -5.3393    0.0000 H   0  0  0  0  0  0  0  0  0  0  0  0
   16.1381    0.4131    0.0000 H   0  0  0  0  0  0  0  0  0  0  0  0
   13.8144   -6.7562    0.0000 H   0  0  0  0  0  0  0  0  0  0  0  0
   14.6613   -6.5293    0.0000 H   0  0  0  0  0  0  0  0  0  0  0  0
   14.4344   -5.6824    0.0000 H   0  0  0  0  0  0  0  0  0  0  0  0
   16.5264   -3.1071    0.0000 H   0  0  0  0  0  0  0  0  0  0  0  0
   16.5723   -2.2315    0.0000 H   0  0  0  0  0  0  0  0  0  0  0  0
   15.6966   -2.1856    0.0000 H   0  0  0  0  0  0  0  0  0  0  0  0
   15.4245    2.2210    0.0000 H   0  0  0  0  0  0  0  0  0  0  0  0
   10.0921    2.2210    0.0000 H   0  0  0  0  0  0  0  0  0  0  0  0
    7.1962   -3.8393    0.0000 H   0  0  0  0  0  0  0  0  0  0  0  0
    8.2196    1.7002    0.0000 H   0  0  0  0  0  0  0  0  0  0  0  0
    6.3301   -2.0993    0.0000 H   0  0  0  0  0  0  0  0  0  0  0  0
   16.5835    3.5081    0.0000 H   0  0  0  0  0  0  0  0  0  0  0  0
   17.4506    0.8395    0.0000 H   0  0  0  0  0  0  0  0  0  0  0  0
   18.1242    4.0087    0.0000 H   0  0  0  0  0  0  0  0  0  0  0  0
   18.9913    1.3401    0.0000 H   0  0  0  0  0  0  0  0  0  0  0  0
    7.0606    2.9874    0.0000 H   0  0  0  0  0  0  0  0  0  0  0  0
    9.8052    3.5708    0.0000 H   0  0  0  0  0  0  0  0  0  0  0  0
    4.5981   -2.0993    0.0000 H   0  0  0  0  0  0  0  0  0  0  0  0
    6.0010   -4.5293    0.0000 H   0  0  0  0  0  0  0  0  0  0  0  0
    6.7238    4.5720    0.0000 H   0  0  0  0  0  0  0  0  0  0  0  0
    9.4684    5.1554    0.0000 H   0  0  0  0  0  0  0  0  0  0  0  0
    4.5981   -5.3393    0.0000 H   0  0  0  0  0  0  0  0  0  0  0  0
   19.8184    3.6486    0.0000 H   0  0  0  0  0  0  0  0  0  0  0  0
    7.2590    6.2193    0.0000 H   0  0  0  0  0  0  0  0  0  0  0  0
    2.8660   -5.3393    0.0000 H   0  0  0  0  0  0  0  0  0  0  0  0
    1.6900   -2.6824    0.0000 H   0  0  0  0  0  0  0  0  0  0  0  0
    1.4631   -3.5293    0.0000 H   0  0  0  0  0  0  0  0  0  0  0  0
    2.3100   -3.7562    0.0000 H   0  0  0  0  0  0  0  0  0  0  0  0
  1 21  1  0  0  0  0
  1 24  1  0  0  0  0
 21  2  1  6  0  0  0
 25  2  1  6  0  0  0
  3 25  1  0  0  0  0
  3 30  1  0  0  0  0
 22  4  1  6  0  0  0
  4 33  1  0  0  0  0
 23  5  1  1  0  0  0
  5 77  1  0  0  0  0
 26  6  1  6  0  0  0
  6 34  1  0  0  0  0
  7 27  1  0  0  0  0
  7 35  1  0  0  0  0
 28  8  1  1  0  0  0
  8 80  1  0  0  0  0
 29  9  1  6  0  0  0
  9 81  1  0  0  0  0
 10 31  1  0  0  0  0
 10 36  1  0  0  0  0
 11 32  1  0  0  0  0
 11 40  1  0  0  0  0
 12 33  2  0  0  0  0
 13 34  2  0  0  0  0
 14 35  2  0  0  0  0
 15 36  2  0  0  0  0
 16 40  2  0  0  0  0
 17 55  1  0  0  0  0
 17105  1  0  0  0  0
 18 61  1  0  0  0  0
 18 64  1  0  0  0  0
 19 60  1  0  0  0  0
 19106  1  0  0  0  0
 20 63  1  0  0  0  0
 20107  1  0  0  0  0
 21 22  1  0  0  0  0
 21 27  1  0  0  0  0
 22 23  1  0  0  0  0
 22 65  1  0  0  0  0
 23 24  1  0  0  0  0
 23 66  1  0  0  0  0
 24 31  1  6  0  0  0
 24 67  1  0  0  0  0
 25 26  1  0  0  0  0
 25 68  1  0  0  0  0
 26 28  1  0  0  0  0
 26 69  1  0  0  0  0
 27 70  1  0  0  0  0
 27 71  1  0  0  0  0
 28 29  1  0  0  0  0
 28 72  1  0  0  0  0
 29 30  1  0  0  0  0
 29 73  1  0  0  0  0
 30 32  1  1  0  0  0
 30 74  1  0  0  0  0
 31 75  1  0  0  0  0
 31 76  1  0  0  0  0
 32 78  1  0  0  0  0
 32 79  1  0  0  0  0
 33 37  1  0  0  0  0
 34 38  1  0  0  0  0
 35 39  1  0  0  0  0
 36 42  1  0  0  0  0
 37 41  2  0  0  0  0
 37 82  1  0  0  0  0
 38 83  1  0  0  0  0
 38 84  1  0  0  0  0
 38 85  1  0  0  0  0
 39 86  1  0  0  0  0
 39 87  1  0  0  0  0
 39 88  1  0  0  0  0
 40 43  1  0  0  0  0
 41 44  1  0  0  0  0
 41 89  1  0  0  0  0
 42 45  2  0  0  0  0
 42 90  1  0  0  0  0
 43 46  2  0  0  0  0
 43 91  1  0  0  0  0
 44 47  2  0  0  0  0
 44 48  1  0  0  0  0
 45 49  1  0  0  0  0
 45 92  1  0  0  0  0
 46 50  1  0  0  0  0
 46 93  1  0  0  0  0
 47 51  1  0  0  0  0
 47 94  1  0  0  0  0
 48 52  2  0  0  0  0
 48 95  1  0  0  0  0
 49 53  2  0  0  0  0
 49 54  1  0  0  0  0
 50 56  2  0  0  0  0
 50 57  1  0  0  0  0
 51 55  2  0  0  0  0
 51 96  1  0  0  0  0
 52 55  1  0  0  0  0
 52 97  1  0  0  0  0
 53 58  1  0  0  0  0
 53 98  1  0  0  0  0
 54 59  2  0  0  0  0
 54 99  1  0  0  0  0
 56 61  1  0  0  0  0
 56100  1  0  0  0  0
 57 62  2  0  0  0  0
 57101  1  0  0  0  0
 58 60  2  0  0  0  0
 58102  1  0  0  0  0
 59 60  1  0  0  0  0
 59103  1  0  0  0  0
 61 63  2  0  0  0  0
 62 63  1  0  0  0  0
 62104  1  0  0  0  0
 64108  1  0  0  0  0
 64109  1  0  0  0  0
 64110  1  0  0  0  0
M  END
> <PUBCHEM_COMPOUND_CID>
102450498

> <PUBCHEM_COMPOUND_CANONICALIZED>
1

> <PUBCHEM_CACTVS_COMPLEXITY>
1650

> <PUBCHEM_CACTVS_HBOND_ACCEPTOR>
20

> <PUBCHEM_CACTVS_HBOND_DONOR>
6

> <PUBCHEM_CACTVS_ROTATABLE_BOND>
22

> <PUBCHEM_CACTVS_SUBSKEYS>
AAADcfB8PgAAAAAAAAAAAAAAAAAAASAAAAA0YMEAAAAAAAABUAAAGgAACAAADBSwmAMyDoAABgCIAiDSCAACCAAgIAAIiAAGiMgdNiKGMRqicCMlwBEPuYfA4BwOIAABAAAAQABAAAIAAACAAAAAAAAAAA==

> <PUBCHEM_IUPAC_OPENEYE_NAME>
[(2R,3R,4S,5S)-5-[(2R,3R,4S,5S,6R)-3-acetoxy-4,5-dihydroxy-6-[[(E)-3-(4-hydroxy-3-methoxy-phenyl)prop-2-enoyl]oxymethyl]tetrahydropyran-2-yl]oxy-5-(acetoxymethyl)-3-hydroxy-4-[(E)-3-(4-hydroxyphenyl)prop-2-enoyl]oxy-tetrahydrofuran-2-yl]methyl (E)-3-(4-hydroxyphenyl)prop-2-enoate

> <PUBCHEM_IUPAC_CAS_NAME>
(E)-3-(4-hydroxyphenyl)-2-propenoic acid [(2R,3R,4S,5S)-5-[[(2R,3R,4S,5S,6R)-3-acetyloxy-4,5-dihydroxy-6-[[(E)-3-(4-hydroxy-3-methoxyphenyl)-1-oxoprop-2-enoxy]methyl]-2-oxanyl]oxy]-5-(acetyloxymethyl)-3-hydroxy-4-[(E)-3-(4-hydroxyphenyl)-1-oxoprop-2-enoxy]-2-oxolanyl]methyl ester

> <PUBCHEM_IUPAC_NAME_MARKUP>
[(2<I>R</I>,3<I>R</I>,4<I>S</I>,5<I>S</I>)-5-[(2<I>R</I>,3<I>R</I>,4<I>S</I>,5<I>S</I>,6<I>R</I>)-3-acetyloxy-4,5-dihydroxy-6-[[(<I>E</I>)-3-(4-hydroxy-3-methoxyphenyl)prop-2-enoyl]oxymethyl]oxan-2-yl]oxy-5-(acetyloxymethyl)-3-hydroxy-4-[(<I>E</I>)-3-(4-hydroxyphenyl)prop-2-enoyl]oxyoxolan-2-yl]methyl (<I>E</I>)-3-(4-hydroxyphenyl)prop-2-enoate

> <PUBCHEM_IUPAC_NAME>
[(2R,3R,4S,5S)-5-[(2R,3R,4S,5S,6R)-3-acetyloxy-4,5-dihydroxy-6-[[(E)-3-(4-hydroxy-3-methoxyphenyl)prop-2-enoyl]oxymethyl]oxan-2-yl]oxy-5-(acetyloxymethyl)-3-hydroxy-4-[(E)-3-(4-hydroxyphenyl)prop-2-enoyl]oxyoxolan-2-yl]methyl (E)-3-(4-hydroxyphenyl)prop-2-enoate

> <PUBCHEM_IUPAC_SYSTEMATIC_NAME>
[(2R,3R,4S,5S)-5-[(2R,3R,4S,5S,6R)-3-acetyloxy-6-[[(E)-3-(3-methoxy-4-oxidanyl-phenyl)prop-2-enoyl]oxymethyl]-4,5-bis(oxidanyl)oxan-2-yl]oxy-5-(acetyloxymethyl)-4-[(E)-3-(4-hydroxyphenyl)prop-2-enoyl]oxy-3-oxidanyl-oxolan-2-yl]methyl (E)-3-(4-hydroxyphenyl)prop-2-enoate

> <PUBCHEM_IUPAC_TRADITIONAL_NAME>
(E)-3-(4-hydroxyphenyl)acrylic acid [(2R,3R,4S,5S)-5-[(2R,3R,4S,5S,6R)-3-acetoxy-4,5-dihydroxy-6-[[(E)-3-(4-hydroxy-3-methoxy-phenyl)acryloyl]oxymethyl]tetrahydropyran-2-yl]oxy-5-(acetoxymethyl)-3-hydroxy-4-[(E)-3-(4-hydroxyphenyl)acryloyl]oxy-tetrahydrofuran-2-yl]methyl ester

> <PUBCHEM_IUPAC_INCHI>
InChI=1S/C44H46O20/c1-24(45)59-23-44(64-43-41(60-25(2)46)40(55)38(53)33(61-43)21-57-36(51)18-11-28-8-16-31(49)32(20-28)56-3)42(62-37(52)19-10-27-6-14-30(48)15-7-27)39(54)34(63-44)22-58-35(50)17-9-26-4-12-29(47)13-5-26/h4-20,33-34,38-43,47-49,53-55H,21-23H2,1-3H3/b17-9+,18-11+,19-10+/t33-,34-,38-,39-,40+,41-,42+,43-,44+/m1/s1

> <PUBCHEM_IUPAC_INCHIKEY>
CKMLNBVNLIEZFB-ZSXKYDPFSA-N

> <PUBCHEM_XLOGP3_AA>
2.5

> <PUBCHEM_EXACT_MASS>
894.258244

> <PUBCHEM_MOLECULAR_FORMULA>
C44H46O20

> <PUBCHEM_MOLECULAR_WEIGHT>
894.8

> <PUBCHEM_OPENEYE_CAN_SMILES>
CC(=O)OCC1(C(C(C(O1)COC(=O)C=CC2=CC=C(C=C2)O)O)OC(=O)C=CC3=CC=C(C=C3)O)OC4C(C(C(C(O4)COC(=O)C=CC5=CC(=C(C=C5)O)OC)O)O)OC(=O)C

> <PUBCHEM_OPENEYE_ISO_SMILES>
CC(=O)OC[C@@]1([C@H]([C@@H]([C@H](O1)COC(=O)/C=C/C2=CC=C(C=C2)O)O)OC(=O)/C=C/C3=CC=C(C=C3)O)O[C@@H]4[C@@H]([C@H]([C@@H]([C@H](O4)COC(=O)/C=C/C5=CC(=C(C=C5)O)OC)O)O)OC(=O)C

> <PUBCHEM_CACTVS_TPSA>
290

> <PUBCHEM_MONOISOTOPIC_WEIGHT>
894.258244

> <PUBCHEM_TOTAL_CHARGE>
0

> <PUBCHEM_HEAVY_ATOM_COUNT>
64

> <PUBCHEM_ATOM_DEF_STEREO_COUNT>
9

> <PUBCHEM_ATOM_UDEF_STEREO_COUNT>
0

> <PUBCHEM_BOND_DEF_STEREO_COUNT>
3

> <PUBCHEM_BOND_UDEF_STEREO_COUNT>
0

> <PUBCHEM_ISOTOPIC_ATOM_COUNT>
0

> <PUBCHEM_COMPONENT_COUNT>
1

> <PUBCHEM_CACTVS_TAUTO_COUNT>
-1

> <PUBCHEM_COORDINATE_TYPE>
1
5
255

> <PUBCHEM_BONDANNOTATIONS>
21  2  6
25  2  6
24  31  6
30  32  5
22  4  6
44  47  8
44  48  8
47  51  8
48  52  8
49  53  8
49  54  8
23  5  5
50  56  8
50  57  8
51  55  8
52  55  8
53  58  8
54  59  8
56  61  8
57  62  8
58  60  8
59  60  8
26  6  6
61  63  8
62  63  8
28  8  5
29  9  6

$$$$
