6453902
  -OEChem-09172005003D

 33 36  0     1  0  0  0  0  0999 V2000
   -2.5165    2.0031    0.0912 O   0  0  0  0  0  0  0  0  0  0  0  0
   -0.0346    2.3509    1.5004 O   0  0  0  0  0  0  0  0  0  0  0  0
    3.6829   -2.6854    0.5069 O   0  0  0  0  0  0  0  0  0  0  0  0
    5.2828   -0.5729   -0.3146 O   0  0  0  0  0  0  0  0  0  0  0  0
   -5.1126   -1.9336   -0.0598 O   0  0  0  0  0  0  0  0  0  0  0  0
   -0.1096    1.9132    0.1402 C   0  0  1  0  0  0  0  0  0  0  0  0
    1.2198    2.2545   -0.5509 C   0  0  0  0  0  0  0  0  0  0  0  0
   -0.2109    0.3998    0.1032 C   0  0  0  0  0  0  0  0  0  0  0  0
    2.0012    0.9918   -0.3191 C   0  0  0  0  0  0  0  0  0  0  0  0
    1.1766   -0.0819    0.0517 C   0  0  0  0  0  0  0  0  0  0  0  0
   -1.3317    2.5269   -0.5227 C   0  0  0  0  0  0  0  0  0  0  0  0
   -1.4094   -0.2123   -0.0147 C   0  0  0  0  0  0  0  0  0  0  0  0
   -2.6271    0.6210    0.0112 C   0  0  0  0  0  0  0  0  0  0  0  0
    3.3741    0.8400   -0.4595 C   0  0  0  0  0  0  0  0  0  0  0  0
    1.7424   -1.3134    0.3498 C   0  0  0  0  0  0  0  0  0  0  0  0
   -1.5663   -1.6475   -0.2127 C   0  0  0  0  0  0  0  0  0  0  0  0
    3.9359   -0.4063   -0.1891 C   0  0  0  0  0  0  0  0  0  0  0  0
    3.1262   -1.4733    0.2205 C   0  0  0  0  0  0  0  0  0  0  0  0
   -3.8454    0.0622   -0.0012 C   0  0  0  0  0  0  0  0  0  0  0  0
   -2.7738   -2.2260   -0.2403 C   0  0  0  0  0  0  0  0  0  0  0  0
   -4.0040   -1.4108   -0.0903 C   0  0  0  0  0  0  0  0  0  0  0  0
    1.7168    3.1164   -0.0943 H   0  0  0  0  0  0  0  0  0  0  0  0
    1.1030    2.4103   -1.6291 H   0  0  0  0  0  0  0  0  0  0  0  0
   -1.3481    3.6116   -0.3703 H   0  0  0  0  0  0  0  0  0  0  0  0
   -1.3708    2.3374   -1.6033 H   0  0  0  0  0  0  0  0  0  0  0  0
    3.9896    1.6803   -0.7652 H   0  0  0  0  0  0  0  0  0  0  0  0
    1.1378   -2.1410    0.7034 H   0  0  0  0  0  0  0  0  0  0  0  0
    0.7261    1.9220    1.9280 H   0  0  0  0  0  0  0  0  0  0  0  0
   -0.7010   -2.2769   -0.3687 H   0  0  0  0  0  0  0  0  0  0  0  0
   -4.7482    0.6615    0.0437 H   0  0  0  0  0  0  0  0  0  0  0  0
   -2.8862   -3.2940   -0.3867 H   0  0  0  0  0  0  0  0  0  0  0  0
    2.9801   -3.3034    0.7716 H   0  0  0  0  0  0  0  0  0  0  0  0
    5.6802    0.2667   -0.6032 H   0  0  0  0  0  0  0  0  0  0  0  0
  1 11  1  0  0  0  0
  1 13  1  0  0  0  0
  2  6  1  0  0  0  0
  2 28  1  0  0  0  0
  3 18  1  0  0  0  0
  3 32  1  0  0  0  0
  4 17  1  0  0  0  0
  4 33  1  0  0  0  0
  5 21  2  0  0  0  0
  6  7  1  0  0  0  0
  6  8  1  0  0  0  0
  6 11  1  0  0  0  0
  7  9  1  0  0  0  0
  7 22  1  0  0  0  0
  7 23  1  0  0  0  0
  8 10  1  0  0  0  0
  8 12  2  0  0  0  0
  9 10  1  0  0  0  0
  9 14  2  0  0  0  0
 10 15  2  0  0  0  0
 11 24  1  0  0  0  0
 11 25  1  0  0  0  0
 12 13  1  0  0  0  0
 12 16  1  0  0  0  0
 13 19  2  0  0  0  0
 14 17  1  0  0  0  0
 14 26  1  0  0  0  0
 15 18  1  0  0  0  0
 15 27  1  0  0  0  0
 16 20  2  0  0  0  0
 16 29  1  0  0  0  0
 17 18  2  0  0  0  0
 19 21  1  0  0  0  0
 19 30  1  0  0  0  0
 20 21  1  0  0  0  0
 20 31  1  0  0  0  0
M  END
> <PUBCHEM_COMPOUND_CID>
6453902

> <PUBCHEM_CONFORMER_RMSD>
0.6

> <PUBCHEM_CONFORMER_DIVERSEORDER>
2
1

> <PUBCHEM_MMFF94_PARTIAL_CHARGES>
28
1 -0.36
10 0.03
11 0.28
13 0.08
14 -0.15
15 -0.15
16 -0.15
17 0.08
18 0.08
19 -0.14
2 -0.68
20 -0.14
21 0.54
26 0.15
27 0.15
28 0.4
29 0.15
3 -0.53
30 0.15
31 0.15
32 0.45
33 0.45
4 -0.53
5 -0.57
6 0.42
7 0.14
8 -0.17
9 -0.14

> <PUBCHEM_EFFECTIVE_ROTOR_COUNT>
0.6

> <PUBCHEM_PHARMACOPHORE_FEATURES>
10
1 1 acceptor
1 2 acceptor
1 2 donor
1 3 donor
1 4 donor
1 5 acceptor
5 6 7 8 9 10 rings
6 1 6 8 11 12 13 rings
6 12 13 16 19 20 21 rings
6 9 10 14 15 17 18 rings

> <PUBCHEM_HEAVY_ATOM_COUNT>
21

> <PUBCHEM_ATOM_DEF_STEREO_COUNT>
0

> <PUBCHEM_ATOM_UDEF_STEREO_COUNT>
1

> <PUBCHEM_BOND_DEF_STEREO_COUNT>
0

> <PUBCHEM_BOND_UDEF_STEREO_COUNT>
0

> <PUBCHEM_ISOTOPIC_ATOM_COUNT>
0

> <PUBCHEM_COMPONENT_COUNT>
1

> <PUBCHEM_CACTVS_TAUTO_COUNT>
36

> <PUBCHEM_CONFORMER_ID>
00627A8E00000002

> <PUBCHEM_MMFF94_ENERGY>
71.996

> <PUBCHEM_FEATURE_SELFOVERLAP>
50.949

> <PUBCHEM_SHAPE_FINGERPRINT>
10616163 171 18411984628748255694
10967382 1 18193839473018488445
11578080 2 18263059107287120924
11806522 49 18335421279193562108
12506688 2 18341333378595598864
12553582 1 18339912818236819551
13140716 1 18340494464393383401
13631057 29 18412265030436368070
138480 1 15239755761467112437
14081887 123 18270945870212312248
14178342 30 18264754490303390128
14576447 43 18407760343987307342
14787075 74 18055912336885435664
14790565 3 17834961862831867097
15042514 8 18194119607918072955
15196674 1 18410293626934919773
15352361 1 18410011056794601423
15375462 189 18410583902373395233
15442244 35 18409730621094085035
15536298 74 18341894159738378008
16752209 62 18265600001554305429
16945 1 18408599275174499132
17492 89 18337390418520291194
17804303 29 18343303690990763561
1813 80 17603583053679326029
200 152 18410855477461148246
20281475 54 18410012117556350616
20291156 8 18410573989462379166
20510252 161 18128537067936849856
21267235 1 18410302427339058294
21634736 98 18335986462355852190
221490 88 18118128197457212691
22182313 1 18192686025682526573
2297311 6 18201732734267141870
23402539 116 18411415094377477854
23463225 33 18410857672099713919
23557571 272 18272940392974133894
23559900 14 18412818088938117272
2748010 2 17183630329884672297
2871803 45 18334291006619777982
3004659 81 18186798093238336726
3091708 16 9135807493766002825
335352 9 18411138022596827045
350125 39 18410295801022100593
4214541 1 18337954489401147556
46194498 28 17169824712121677039
465052 167 18199476648197999175
5104073 3 18411981347187137144
7364860 26 18126563654965667729
9709674 26 18337116687379768334

> <PUBCHEM_SHAPE_MULTIPOLES>
402.82
8.32
2.94
0.75
0.63
0.4
0.1
-5.58
-0.63
-0.5
0.14
0.09
0.23
-0.49

> <PUBCHEM_SHAPE_SELFOVERLAP>
915.829

> <PUBCHEM_SHAPE_VOLUME>
210.6

> <PUBCHEM_COORDINATE_TYPE>
2
5
10

$$$$
