24824767
  -OEChem-09172005273D

 53 56  0     1  0  0  0  0  0999 V2000
   -4.6330   -1.1847   -0.6259 O   0  0  0  0  0  0  0  0  0  0  0  0
    0.3444   -2.9612    1.1684 O   0  0  0  0  0  0  0  0  0  0  0  0
    3.6704    1.3760   -1.1623 O   0  0  0  0  0  0  0  0  0  0  0  0
    4.7665    1.0505    0.8449 O   0  0  0  0  0  0  0  0  0  0  0  0
    0.3586   -0.8776   -0.0616 C   0  0  1  0  0  0  0  0  0  0  0  0
    1.4869    0.1857    0.1238 C   0  0  2  0  0  0  0  0  0  0  0  0
   -1.0149   -0.1550   -0.3252 C   0  0  2  0  0  0  0  0  0  0  0  0
   -1.3425    0.9310    0.7672 C   0  0  1  0  0  0  0  0  0  0  0  0
    2.9348   -0.3959    0.1984 C   0  0  2  0  0  0  0  0  0  0  0  0
    1.1535    1.1733    1.2592 C   0  0  0  0  0  0  0  0  0  0  0  0
    0.7126   -1.8078   -1.2473 C   0  0  0  0  0  0  0  0  0  0  0  0
   -0.1627    1.8917    0.9835 C   0  0  0  0  0  0  0  0  0  0  0  0
   -2.6775    1.7195    0.4842 C   0  0  2  0  0  0  0  0  0  0  0  0
   -2.1867   -1.1692   -0.5315 C   0  0  0  0  0  0  0  0  0  0  0  0
    3.1827   -1.3503   -0.9897 C   0  0  0  0  0  0  0  0  0  0  0  0
    2.1090   -2.4188   -1.1412 C   0  0  0  0  0  0  0  0  0  0  0  0
    0.2022   -1.7429    1.1739 C   0  0  0  0  0  0  0  0  0  0  0  0
   -3.7568    0.7562    0.1176 C   0  0  0  0  0  0  0  0  0  0  0  0
    3.2871   -1.0850    1.5252 C   0  0  0  0  0  0  0  0  0  0  0  0
   -3.4923   -0.5056   -0.3552 C   0  0  0  0  0  0  0  0  0  0  0  0
    3.9079    0.7515    0.0261 C   0  0  0  0  0  0  0  0  0  0  0  0
   -2.5533    2.7988   -0.5996 C   0  0  0  0  0  0  0  0  0  0  0  0
   -5.1675    0.8682    0.1433 C   0  0  0  0  0  0  0  0  0  0  0  0
   -5.6533   -0.3352   -0.3216 C   0  0  0  0  0  0  0  0  0  0  0  0
    4.5240    2.4869   -1.4546 C   0  0  0  0  0  0  0  0  0  0  0  0
    1.4408    0.7859   -0.7986 H   0  0  0  0  0  0  0  0  0  0  0  0
   -0.9110    0.3913   -1.2752 H   0  0  0  0  0  0  0  0  0  0  0  0
   -1.5060    0.3973    1.7146 H   0  0  0  0  0  0  0  0  0  0  0  0
    1.1000    0.6675    2.2285 H   0  0  0  0  0  0  0  0  0  0  0  0
    1.9398    1.9313    1.3502 H   0  0  0  0  0  0  0  0  0  0  0  0
    0.6549   -1.2362   -2.1833 H   0  0  0  0  0  0  0  0  0  0  0  0
   -0.0107   -2.6267   -1.3447 H   0  0  0  0  0  0  0  0  0  0  0  0
   -0.0146    2.5186    0.0967 H   0  0  0  0  0  0  0  0  0  0  0  0
   -0.3856    2.5683    1.8172 H   0  0  0  0  0  0  0  0  0  0  0  0
   -2.9691    2.2218    1.4167 H   0  0  0  0  0  0  0  0  0  0  0  0
   -2.1271   -1.6060   -1.5347 H   0  0  0  0  0  0  0  0  0  0  0  0
   -2.1315   -1.9923    0.1883 H   0  0  0  0  0  0  0  0  0  0  0  0
    3.2267   -0.8025   -1.9399 H   0  0  0  0  0  0  0  0  0  0  0  0
    4.1632   -1.8343   -0.8890 H   0  0  0  0  0  0  0  0  0  0  0  0
    2.3096   -2.9934   -2.0540 H   0  0  0  0  0  0  0  0  0  0  0  0
    2.1807   -3.1387   -0.3214 H   0  0  0  0  0  0  0  0  0  0  0  0
   -0.0532   -1.2326    2.1155 H   0  0  0  0  0  0  0  0  0  0  0  0
    4.3390   -1.3979    1.5397 H   0  0  0  0  0  0  0  0  0  0  0  0
    3.1460   -0.4196    2.3836 H   0  0  0  0  0  0  0  0  0  0  0  0
    2.7010   -1.9877    1.7027 H   0  0  0  0  0  0  0  0  0  0  0  0
   -3.5277    3.2536   -0.8138 H   0  0  0  0  0  0  0  0  0  0  0  0
   -1.8912    3.6101   -0.2826 H   0  0  0  0  0  0  0  0  0  0  0  0
   -2.1720    2.3878   -1.5403 H   0  0  0  0  0  0  0  0  0  0  0  0
   -5.7587    1.7172    0.4548 H   0  0  0  0  0  0  0  0  0  0  0  0
   -6.6474   -0.7254   -0.4846 H   0  0  0  0  0  0  0  0  0  0  0  0
    4.2321    2.8930   -2.4268 H   0  0  0  0  0  0  0  0  0  0  0  0
    5.5665    2.1593   -1.5091 H   0  0  0  0  0  0  0  0  0  0  0  0
    4.4021    3.2669   -0.6970 H   0  0  0  0  0  0  0  0  0  0  0  0
  1 20  1  0  0  0  0
  1 24  1  0  0  0  0
  2 17  2  0  0  0  0
  3 21  1  0  0  0  0
  3 25  1  0  0  0  0
  4 21  2  0  0  0  0
  5  6  1  0  0  0  0
  5  7  1  0  0  0  0
  5 11  1  0  0  0  0
  5 17  1  0  0  0  0
  6  9  1  0  0  0  0
  6 10  1  0  0  0  0
  6 26  1  0  0  0  0
  7  8  1  0  0  0  0
  7 14  1  0  0  0  0
  7 27  1  0  0  0  0
  8 12  1  0  0  0  0
  8 13  1  0  0  0  0
  8 28  1  0  0  0  0
  9 15  1  0  0  0  0
  9 19  1  0  0  0  0
  9 21  1  0  0  0  0
 10 12  1  0  0  0  0
 10 29  1  0  0  0  0
 10 30  1  0  0  0  0
 11 16  1  0  0  0  0
 11 31  1  0  0  0  0
 11 32  1  0  0  0  0
 12 33  1  0  0  0  0
 12 34  1  0  0  0  0
 13 18  1  0  0  0  0
 13 22  1  0  0  0  0
 13 35  1  0  0  0  0
 14 20  1  0  0  0  0
 14 36  1  0  0  0  0
 14 37  1  0  0  0  0
 15 16  1  0  0  0  0
 15 38  1  0  0  0  0
 15 39  1  0  0  0  0
 16 40  1  0  0  0  0
 16 41  1  0  0  0  0
 17 42  1  0  0  0  0
 18 20  2  0  0  0  0
 18 23  1  0  0  0  0
 19 43  1  0  0  0  0
 19 44  1  0  0  0  0
 19 45  1  0  0  0  0
 22 46  1  0  0  0  0
 22 47  1  0  0  0  0
 22 48  1  0  0  0  0
 23 24  2  0  0  0  0
 23 49  1  0  0  0  0
 24 50  1  0  0  0  0
 25 51  1  0  0  0  0
 25 52  1  0  0  0  0
 25 53  1  0  0  0  0
M  END
> <PUBCHEM_COMPOUND_CID>
24824767

> <PUBCHEM_CONFORMER_RMSD>
0.8

> <PUBCHEM_CONFORMER_DIVERSEORDER>
1
2

> <PUBCHEM_MMFF94_PARTIAL_CHARGES>
18
1 -0.28
13 0.18
14 0.18
17 0.45
18 -0.18
2 -0.57
20 -0.04
21 0.66
23 -0.15
24 -0.01
25 0.28
3 -0.43
4 -0.57
42 0.06
49 0.15
5 0.06
50 0.15
9 0.06

> <PUBCHEM_EFFECTIVE_ROTOR_COUNT>
4.6

> <PUBCHEM_PHARMACOPHORE_FEATURES>
7
1 1 acceptor
1 2 acceptor
1 4 acceptor
5 1 18 20 23 24 rings
6 5 6 7 8 10 12 rings
6 5 6 9 11 15 16 rings
6 7 8 13 14 18 20 rings

> <PUBCHEM_HEAVY_ATOM_COUNT>
25

> <PUBCHEM_ATOM_DEF_STEREO_COUNT>
6

> <PUBCHEM_ATOM_UDEF_STEREO_COUNT>
0

> <PUBCHEM_BOND_DEF_STEREO_COUNT>
0

> <PUBCHEM_BOND_UDEF_STEREO_COUNT>
0

> <PUBCHEM_ISOTOPIC_ATOM_COUNT>
0

> <PUBCHEM_COMPONENT_COUNT>
1

> <PUBCHEM_CACTVS_TAUTO_COUNT>
1

> <PUBCHEM_CONFORMER_ID>
017ACBBF00000001

> <PUBCHEM_MMFF94_ENERGY>
72.2342

> <PUBCHEM_FEATURE_SELFOVERLAP>
35.644

> <PUBCHEM_SHAPE_FINGERPRINT>
10090160 65 18260826012113122223
10759866 29 18408323293782304078
10906281 52 18340221776666676177
11759241 127 18334859402823989045
11961588 58 18265337398943741236
11963148 33 18270669991531671855
12236239 1 18408036321384637208
12403260 363 18260825943493859424
12670546 177 18411706465027592157
12788726 201 18342178851598303257
128620 24 18341330015841999229
13140716 1 17985247815178443243
13224815 77 18271804579802685089
13583140 156 16660651799057774112
14341114 328 18410853257205720931
14787075 74 18411981386142489897
14790565 3 18412269432614914017
15196674 1 18201438034980540425
15961568 22 18187370943186893332
1601671 61 18131069350515765233
16945 1 17988636432378679290
17349148 13 18339356375374681338
173720 79 18261380196481495408
17492 54 18337114582571272533
17492 89 18268991973240817535
17909252 39 17488756553771627174
1813 80 18113625564856815157
18186145 218 18261957345243271702
18681886 176 18343580746857641880
19319366 153 18335131012314068011
20691752 17 18042702614598428160
20715895 44 17831567683511540445
20775530 9 10950397405431100372
21267235 1 18130515127967901823
21421861 104 18119245069675206459
21709351 56 18262797337693223516
22149856 69 18130240302476109731
22393880 68 18192714440568523813
23558518 356 17982468005033775288
23559900 14 17841994390467741566
23566358 2 18200029534636318333
2871803 45 18411132503268309185
3004659 81 18340487764160018286
3323516 105 17988925556681445099
34934 24 18202557372193309079
350125 39 18201158741926578022
4280585 95 17407689411032082038
4340502 62 17894911857924810722
474 4 18261116278914105750
5104073 3 18200877266881354667
59755656 215 18202289078777393302
6034566 193 16446749620361972308
633830 44 18335986384957127407
70251023 43 17984154655686517627
9709674 26 18341619183073813399
9981440 41 18337956822080378434

> <PUBCHEM_SHAPE_MULTIPOLES>
491.01
9.89
2.78
1.31
5.67
0.12
-0.07
2.88
1.86
-1.19
0.39
-1.18
-0.09
-0.7

> <PUBCHEM_SHAPE_SELFOVERLAP>
1060.102

> <PUBCHEM_SHAPE_VOLUME>
267.1

> <PUBCHEM_COORDINATE_TYPE>
2
5
10

$$$$
