13846649
  -OEChem-09172010013D

 38 40  0     1  0  0  0  0  0999 V2000
    0.9822    0.7707   -1.1109 O   0  0  0  0  0  0  0  0  0  0  0  0
   -0.6605   -2.5082   -0.6344 O   0  0  0  0  0  0  0  0  0  0  0  0
    1.9963   -2.7312   -0.9565 O   0  0  0  0  0  0  0  0  0  0  0  0
    5.1387    2.5262    0.3199 O   0  0  0  0  0  0  0  0  0  0  0  0
   -3.7252    2.6299   -0.5190 O   0  0  0  0  0  0  0  0  0  0  0  0
   -5.8376    0.8614   -0.1542 O   0  0  0  0  0  0  0  0  0  0  0  0
    0.1221   -1.3803   -0.2370 C   0  0  2  0  0  0  0  0  0  0  0  0
    1.5475   -1.8568    0.0836 C   0  0  2  0  0  0  0  0  0  0  0  0
   -0.5555   -0.7598    0.9927 C   0  0  0  0  0  0  0  0  0  0  0  0
    0.1953   -0.3873   -1.4016 C   0  0  0  0  0  0  0  0  0  0  0  0
    2.4938   -0.6869    0.1444 C   0  0  0  0  0  0  0  0  0  0  0  0
    2.1699    0.5325   -0.4678 C   0  0  0  0  0  0  0  0  0  0  0  0
   -1.9608   -0.3251    0.6864 C   0  0  0  0  0  0  0  0  0  0  0  0
    3.7261   -0.8131    0.8014 C   0  0  0  0  0  0  0  0  0  0  0  0
    3.0563    1.6110   -0.4016 C   0  0  0  0  0  0  0  0  0  0  0  0
   -2.1944    0.9630    0.2214 C   0  0  0  0  0  0  0  0  0  0  0  0
   -3.0105   -1.2161    0.8721 C   0  0  0  0  0  0  0  0  0  0  0  0
    4.6128    0.2626    0.8570 C   0  0  0  0  0  0  0  0  0  0  0  0
    4.2772    1.4742    0.2573 C   0  0  0  0  0  0  0  0  0  0  0  0
   -3.4992    1.3667   -0.0624 C   0  0  0  0  0  0  0  0  0  0  0  0
   -4.3150   -0.8124    0.5883 C   0  0  0  0  0  0  0  0  0  0  0  0
   -4.5594    0.4789    0.1209 C   0  0  0  0  0  0  0  0  0  0  0  0
    1.5651   -2.4253    1.0211 H   0  0  0  0  0  0  0  0  0  0  0  0
    0.0101    0.0912    1.3914 H   0  0  0  0  0  0  0  0  0  0  0  0
   -0.5904   -1.4940    1.8097 H   0  0  0  0  0  0  0  0  0  0  0  0
    0.6281   -0.8751   -2.2868 H   0  0  0  0  0  0  0  0  0  0  0  0
   -0.7918   -0.0663   -1.7472 H   0  0  0  0  0  0  0  0  0  0  0  0
   -0.6499   -3.1519    0.0947 H   0  0  0  0  0  0  0  0  0  0  0  0
    4.0007   -1.7525    1.2747 H   0  0  0  0  0  0  0  0  0  0  0  0
    1.3643   -3.4683   -1.0090 H   0  0  0  0  0  0  0  0  0  0  0  0
    2.7952    2.5599   -0.8640 H   0  0  0  0  0  0  0  0  0  0  0  0
   -1.3715    1.6608    0.0918 H   0  0  0  0  0  0  0  0  0  0  0  0
   -2.8343   -2.2236    1.2383 H   0  0  0  0  0  0  0  0  0  0  0  0
    5.5613    0.1425    1.3736 H   0  0  0  0  0  0  0  0  0  0  0  0
   -5.1366   -1.5085    0.7336 H   0  0  0  0  0  0  0  0  0  0  0  0
    5.9317    2.2552    0.8137 H   0  0  0  0  0  0  0  0  0  0  0  0
   -2.8763    3.0998   -0.5859 H   0  0  0  0  0  0  0  0  0  0  0  0
   -5.8207    1.7828   -0.4664 H   0  0  0  0  0  0  0  0  0  0  0  0
  1 10  1  0  0  0  0
  1 12  1  0  0  0  0
  2  7  1  0  0  0  0
  2 28  1  0  0  0  0
  3  8  1  0  0  0  0
  3 30  1  0  0  0  0
  4 19  1  0  0  0  0
  4 36  1  0  0  0  0
  5 20  1  0  0  0  0
  5 37  1  0  0  0  0
  6 22  1  0  0  0  0
  6 38  1  0  0  0  0
  7  8  1  0  0  0  0
  7  9  1  0  0  0  0
  7 10  1  0  0  0  0
  8 11  1  0  0  0  0
  8 23  1  0  0  0  0
  9 13  1  0  0  0  0
  9 24  1  0  0  0  0
  9 25  1  0  0  0  0
 10 26  1  0  0  0  0
 10 27  1  0  0  0  0
 11 12  2  0  0  0  0
 11 14  1  0  0  0  0
 12 15  1  0  0  0  0
 13 16  2  0  0  0  0
 13 17  1  0  0  0  0
 14 18  2  0  0  0  0
 14 29  1  0  0  0  0
 15 19  2  0  0  0  0
 15 31  1  0  0  0  0
 16 20  1  0  0  0  0
 16 32  1  0  0  0  0
 17 21  2  0  0  0  0
 17 33  1  0  0  0  0
 18 19  1  0  0  0  0
 18 34  1  0  0  0  0
 20 22  2  0  0  0  0
 21 22  1  0  0  0  0
 21 35  1  0  0  0  0
M  END
> <PUBCHEM_COMPOUND_CID>
13846649

> <PUBCHEM_CONFORMER_RMSD>
0.6

> <PUBCHEM_CONFORMER_DIVERSEORDER>
5
16
12
3
9
15
7
2
13
8
6
4
1
14
10
11

> <PUBCHEM_MMFF94_PARTIAL_CHARGES>
33
1 -0.36
10 0.28
11 -0.14
12 0.08
13 -0.14
14 -0.15
15 -0.15
16 -0.15
17 -0.15
18 -0.15
19 0.08
2 -0.68
20 0.08
21 -0.15
22 0.08
28 0.4
29 0.15
3 -0.68
30 0.4
31 0.15
32 0.15
33 0.15
34 0.15
35 0.15
36 0.45
37 0.45
38 0.45
4 -0.53
5 -0.53
6 -0.53
7 0.28
8 0.42
9 0.14

> <PUBCHEM_EFFECTIVE_ROTOR_COUNT>
2.8

> <PUBCHEM_PHARMACOPHORE_FEATURES>
11
1 1 acceptor
1 2 acceptor
1 2 donor
1 3 acceptor
1 3 donor
1 4 donor
1 5 donor
1 6 donor
6 1 7 8 10 11 12 rings
6 11 12 14 15 18 19 rings
6 13 16 17 20 21 22 rings

> <PUBCHEM_HEAVY_ATOM_COUNT>
22

> <PUBCHEM_ATOM_DEF_STEREO_COUNT>
2

> <PUBCHEM_ATOM_UDEF_STEREO_COUNT>
0

> <PUBCHEM_BOND_DEF_STEREO_COUNT>
0

> <PUBCHEM_BOND_UDEF_STEREO_COUNT>
0

> <PUBCHEM_ISOTOPIC_ATOM_COUNT>
0

> <PUBCHEM_COMPONENT_COUNT>
1

> <PUBCHEM_CACTVS_TAUTO_COUNT>
54

> <PUBCHEM_CONFORMER_ID>
00D3487900000005

> <PUBCHEM_MMFF94_ENERGY>
70.579

> <PUBCHEM_FEATURE_SELFOVERLAP>
55.871

> <PUBCHEM_SHAPE_FINGERPRINT>
10646746 165 18261115136336773365
11370993 70 18409166597631240827
11961588 58 16414906569620319584
12107183 9 17682667433367735592
12251169 10 18114743836664200394
12403259 118 18336253613722359792
12403259 415 18339372893655410261
12507560 40 18335143098256359442
12596602 18 16805885198780305881
12633257 1 16153706578662318536
12670546 56 17967243204609064209
12760667 363 10665211666468750064
12788726 201 16883878102988474770
128620 24 16343701011036342345
12892183 10 17968097564014901170
14178342 30 17240493515304557867
14251764 38 18339644417151172521
14787075 74 18271520996234655947
14790565 3 17898020276951778244
15188451 53 15575286522776917265
15196674 1 18408041822778814025
15209294 21 18337106899433682672
17349148 13 17822296820524509839
17492 89 18335424547722690899
17980427 23 18041283274415997861
1813 80 13190334647992484762
18186145 218 18057621896655773679
20157964 124 18411133598553574175
204376 136 18272934950712720306
20715895 44 18120086191923472569
20739085 24 17894348882934490284
21033648 29 18272359893394263368
21065199 12 18259989274958081666
21713013 43 11887678350968541617
21756936 100 18127124406729465236
21859007 373 17024858274571190685
22149856 69 18194150507157863755
22950370 63 9007059084462632939
23227448 37 18199466747664703262
23402539 116 18260543455332180199
23559900 14 18195808461963034667
296302 2 18412827997226884291
351380 180 18334293184410965593
3545911 37 18408890607359155699
4325135 7 18201997759767112991
474 4 18411138017442029474
4921388 177 14836116710778977429
5104073 3 18261402096567022601
633830 44 17345774991900294483
7808743 9 18124031493231366440
9709674 26 18335992986643770531
9981440 41 18259988176042741771

> <PUBCHEM_SHAPE_MULTIPOLES>
417.53
10.59
2.46
1.01
3.35
0
0.1
6.14
-2.07
-0.81
0.44
-0.22
-0.2
0.63

> <PUBCHEM_SHAPE_SELFOVERLAP>
919.539

> <PUBCHEM_SHAPE_VOLUME>
222.8

> <PUBCHEM_COORDINATE_TYPE>
2
5
10

$$$$
