5280417
  -OEChem-09172006543D

 38 40  0     0  0  0  0  0  0999 V2000
   -0.2067    0.8672    0.1161 O   0  0  0  0  0  0  0  0  0  0  0  0
    1.1849   -2.5404    0.3157 O   0  0  0  0  0  0  0  0  0  0  0  0
   -4.6214    2.5887   -0.1648 O   0  0  0  0  0  0  0  0  0  0  0  0
   -4.0232   -2.1181    0.0167 O   0  0  0  0  0  0  0  0  0  0  0  0
   -1.5586   -2.9764    0.1773 O   0  0  0  0  0  0  0  0  0  0  0  0
    4.8637    0.8867   -2.0259 O   0  0  0  0  0  0  0  0  0  0  0  0
    6.0617    1.3748    0.4334 O   0  0  0  0  0  0  0  0  0  0  0  0
   -2.0777   -0.6784    0.0692 C   0  0  0  0  0  0  0  0  0  0  0  0
   -1.5522    0.6117    0.0546 C   0  0  0  0  0  0  0  0  0  0  0  0
    0.6678   -0.2059    0.1840 C   0  0  0  0  0  0  0  0  0  0  0  0
    0.2902   -1.4970    0.2145 C   0  0  0  0  0  0  0  0  0  0  0  0
   -1.1555   -1.8212    0.1549 C   0  0  0  0  0  0  0  0  0  0  0  0
    2.0810    0.2074    0.2460 C   0  0  0  0  0  0  0  0  0  0  0  0
   -3.4589   -0.8785    0.0053 C   0  0  0  0  0  0  0  0  0  0  0  0
   -2.4062    1.7122   -0.0237 C   0  0  0  0  0  0  0  0  0  0  0  0
   -3.7859    1.5166   -0.0880 C   0  0  0  0  0  0  0  0  0  0  0  0
   -4.3109    0.2237   -0.0736 C   0  0  0  0  0  0  0  0  0  0  0  0
    2.8172    0.3553   -0.9298 C   0  0  0  0  0  0  0  0  0  0  0  0
    2.6834    0.4512    1.4805 C   0  0  0  0  0  0  0  0  0  0  0  0
    4.1547    0.7470   -0.8713 C   0  0  0  0  0  0  0  0  0  0  0  0
    4.0210    0.8425    1.5390 C   0  0  0  0  0  0  0  0  0  0  0  0
    4.7566    0.9905    0.3632 C   0  0  0  0  0  0  0  0  0  0  0  0
    1.5957   -2.9772   -0.9657 C   0  0  0  0  0  0  0  0  0  0  0  0
   -6.0207    2.3177   -0.2278 C   0  0  0  0  0  0  0  0  0  0  0  0
   -1.9995    2.7203   -0.0349 H   0  0  0  0  0  0  0  0  0  0  0  0
   -5.3743    0.0118   -0.1212 H   0  0  0  0  0  0  0  0  0  0  0  0
    2.3543    0.1780   -1.8983 H   0  0  0  0  0  0  0  0  0  0  0  0
    2.1227    0.3408    2.4055 H   0  0  0  0  0  0  0  0  0  0  0  0
    4.4840    1.0311    2.5039 H   0  0  0  0  0  0  0  0  0  0  0  0
   -3.3393   -2.8031    0.0684 H   0  0  0  0  0  0  0  0  0  0  0  0
    2.1257   -2.2040   -1.5255 H   0  0  0  0  0  0  0  0  0  0  0  0
    0.7437   -3.3394   -1.5520 H   0  0  0  0  0  0  0  0  0  0  0  0
    2.2845   -3.8168   -0.8298 H   0  0  0  0  0  0  0  0  0  0  0  0
   -6.2831    1.7629   -1.1350 H   0  0  0  0  0  0  0  0  0  0  0  0
   -6.5341    3.2832   -0.2848 H   0  0  0  0  0  0  0  0  0  0  0  0
   -6.3760    1.8207    0.6813 H   0  0  0  0  0  0  0  0  0  0  0  0
    5.8131    0.8111   -1.8381 H   0  0  0  0  0  0  0  0  0  0  0  0
    6.3334    1.7665   -0.4122 H   0  0  0  0  0  0  0  0  0  0  0  0
  1  9  1  0  0  0  0
  1 10  1  0  0  0  0
  2 11  1  0  0  0  0
  2 23  1  0  0  0  0
  3 16  1  0  0  0  0
  3 24  1  0  0  0  0
  4 14  1  0  0  0  0
  4 30  1  0  0  0  0
  5 12  2  0  0  0  0
  6 20  1  0  0  0  0
  6 37  1  0  0  0  0
  7 22  1  0  0  0  0
  7 38  1  0  0  0  0
  8  9  1  0  0  0  0
  8 12  1  0  0  0  0
  8 14  2  0  0  0  0
  9 15  2  0  0  0  0
 10 11  2  0  0  0  0
 10 13  1  0  0  0  0
 11 12  1  0  0  0  0
 13 18  2  0  0  0  0
 13 19  1  0  0  0  0
 14 17  1  0  0  0  0
 15 16  1  0  0  0  0
 15 25  1  0  0  0  0
 16 17  2  0  0  0  0
 17 26  1  0  0  0  0
 18 20  1  0  0  0  0
 18 27  1  0  0  0  0
 19 21  2  0  0  0  0
 19 28  1  0  0  0  0
 20 22  2  0  0  0  0
 21 22  1  0  0  0  0
 21 29  1  0  0  0  0
 23 31  1  0  0  0  0
 23 32  1  0  0  0  0
 23 33  1  0  0  0  0
 24 34  1  0  0  0  0
 24 35  1  0  0  0  0
 24 36  1  0  0  0  0
M  END
> <PUBCHEM_COMPOUND_CID>
5280417

> <PUBCHEM_CONFORMER_RMSD>
0.6

> <PUBCHEM_CONFORMER_DIVERSEORDER>
1
10
5
12
7
3
2
6
9
11
8
4

> <PUBCHEM_MMFF94_PARTIAL_CHARGES>
32
1 -0.16
10 0.05
11 0.09
12 0.47
13 0.03
14 0.08
15 -0.15
16 0.08
17 -0.15
18 -0.15
19 -0.15
2 -0.36
20 0.08
21 -0.15
22 0.08
23 0.28
24 0.28
25 0.15
26 0.15
27 0.15
28 0.15
29 0.15
3 -0.36
30 0.45
37 0.45
38 0.45
4 -0.53
5 -0.57
6 -0.53
7 -0.53
8 0.09
9 0.08

> <PUBCHEM_EFFECTIVE_ROTOR_COUNT>
3

> <PUBCHEM_PHARMACOPHORE_FEATURES>
10
1 1 acceptor
1 2 acceptor
1 3 acceptor
1 4 donor
1 5 acceptor
1 6 donor
1 7 donor
6 1 8 9 10 11 12 rings
6 13 18 19 20 21 22 rings
6 8 9 14 15 16 17 rings

> <PUBCHEM_HEAVY_ATOM_COUNT>
24

> <PUBCHEM_ATOM_DEF_STEREO_COUNT>
0

> <PUBCHEM_ATOM_UDEF_STEREO_COUNT>
0

> <PUBCHEM_BOND_DEF_STEREO_COUNT>
0

> <PUBCHEM_BOND_UDEF_STEREO_COUNT>
0

> <PUBCHEM_ISOTOPIC_ATOM_COUNT>
0

> <PUBCHEM_COMPONENT_COUNT>
1

> <PUBCHEM_CACTVS_TAUTO_COUNT>
57

> <PUBCHEM_CONFORMER_ID>
005092A100000001

> <PUBCHEM_MMFF94_ENERGY>
90.3238

> <PUBCHEM_FEATURE_SELFOVERLAP>
50.784

> <PUBCHEM_SHAPE_FINGERPRINT>
10319926 262 18197192915454897536
10411042 1 17689434214778833675
10498660 4 18413109450396754400
10615611 76 17386584572845795380
10670039 82 18334019393352294084
1100329 8 17192079557164176568
11963148 33 18192424393133951003
12107183 9 18117261568036674074
12236239 1 17749383815314930448
12390115 104 18342750589592758561
12403259 415 18131066090852015280
12403814 3 17313376834127084645
12730499 353 18272657809637352363
12788726 201 17391084998893858330
13140716 1 17904483257501433459
13540713 4 18338531733444268387
13540713 5 18266157475820615499
14341114 328 17240483619372638992
14790565 3 18336271218720102397
15196674 1 18410572864276101075
1601671 61 18334857203721826164
16752209 62 18265894833926980890
17980427 23 17894914065501019428
18186145 218 17846505858812431706
18608769 82 18411984698258665987
20554085 129 17916281914915096104
20645477 70 16630260160026934060
20691752 17 17313385573953404811
21033648 29 17987501762665901960
21279426 13 18271814480108750782
21859007 373 17100010929047591853
22122407 14 15864344774795998639
22149856 69 18119834443259391593
22182313 1 18267043729168126823
22393880 68 18131354098363408310
23366157 5 18042403521919759290
23402539 116 18341606057901468900
23557571 272 18201161060702320596
23559900 14 18342178813280921382
23569914 152 16408175050166541885
25147074 1 18264188271721990491
2748010 2 18337959974386069039
2916195 48 18129654326839179864
3298306 158 18202567267851155214
335352 9 18266739087116573414
3472631 163 18335985345802207116
34934 24 18340480085148857173
350125 39 18120654634806989472
469060 322 18265072373759892113
474 4 17967536739906676329
495365 180 17774707663376888514
5104073 3 18263930939130426139
5265222 85 18196942295955627302
56616090 163 18339368474102368759
59682541 52 16916224343260145445
59755656 215 18268149764919258358
633830 44 18131342033874152372
7364860 26 18128251186461077082
7808743 9 18408040731836307569
9981440 41 18334577962012227923

> <PUBCHEM_SHAPE_MULTIPOLES>
452.82
11.79
2.89
1.07
0.27
1.9
0.12
-9.43
1.02
-2.31
0.24
1.71
-0.2
0.53

> <PUBCHEM_SHAPE_SELFOVERLAP>
1002.604

> <PUBCHEM_SHAPE_VOLUME>
242

> <PUBCHEM_COORDINATE_TYPE>
2
5
10

$$$$
