129864633
  -OEChem-09172010133D

 36 37  0     0  0  0  0  0  0999 V2000
   -5.7134    0.3782    0.1082 O   0  0  0  0  0  0  0  0  0  0  0  0
   -4.3592    0.5036    2.0049 O   0  0  0  0  0  0  0  0  0  0  0  0
   -1.1606    1.6194   -0.6974 O   0  0  0  0  0  0  0  0  0  0  0  0
    2.1994   -2.1583   -1.0402 O   0  0  0  0  0  0  0  0  0  0  0  0
   -4.3905    0.1854    0.6132 C   0  0  0  0  0  0  0  0  0  0  0  0
   -3.4534    1.1226   -0.1779 C   0  0  0  0  0  0  0  0  0  0  0  0
   -2.0458    0.6079   -0.3802 C   0  0  0  0  0  0  0  0  0  0  0  0
   -1.7222   -0.7033   -0.2650 C   0  0  0  0  0  0  0  0  0  0  0  0
   -4.0014   -1.2598    0.4889 C   0  0  0  0  0  0  0  0  0  0  0  0
   -2.7867   -1.6445    0.0758 C   0  0  0  0  0  0  0  0  0  0  0  0
   -0.3801   -1.1972   -0.5164 C   0  0  0  0  0  0  0  0  0  0  0  0
    0.7089   -0.5379   -0.1263 C   0  0  0  0  0  0  0  0  0  0  0  0
   -1.0999    1.8073   -2.0964 C   0  0  0  0  0  0  0  0  0  0  0  0
    2.0513   -1.1043   -0.4315 C   0  0  0  0  0  0  0  0  0  0  0  0
    3.2405   -0.3305   -0.0004 C   0  0  0  0  0  0  0  0  0  0  0  0
    3.1779    1.0608    0.0754 C   0  0  0  0  0  0  0  0  0  0  0  0
    4.4214   -0.9946    0.3309 C   0  0  0  0  0  0  0  0  0  0  0  0
    4.2964    1.7882    0.4825 C   0  0  0  0  0  0  0  0  0  0  0  0
    5.5399   -0.2674    0.7380 C   0  0  0  0  0  0  0  0  0  0  0  0
    5.4774    1.1241    0.8138 C   0  0  0  0  0  0  0  0  0  0  0  0
   -3.4059    2.1017    0.3164 H   0  0  0  0  0  0  0  0  0  0  0  0
   -3.8756    1.3079   -1.1754 H   0  0  0  0  0  0  0  0  0  0  0  0
   -4.7313   -2.0154    0.7663 H   0  0  0  0  0  0  0  0  0  0  0  0
   -2.5581   -2.7054    0.0211 H   0  0  0  0  0  0  0  0  0  0  0  0
   -0.3114   -2.1424   -1.0483 H   0  0  0  0  0  0  0  0  0  0  0  0
   -4.2477    1.4635    2.1023 H   0  0  0  0  0  0  0  0  0  0  0  0
   -5.8327    1.3243   -0.0804 H   0  0  0  0  0  0  0  0  0  0  0  0
    0.6468    0.3670    0.4651 H   0  0  0  0  0  0  0  0  0  0  0  0
   -0.3373    2.5644   -2.3034 H   0  0  0  0  0  0  0  0  0  0  0  0
   -2.0524    2.1791   -2.4891 H   0  0  0  0  0  0  0  0  0  0  0  0
   -0.8110    0.8913   -2.6233 H   0  0  0  0  0  0  0  0  0  0  0  0
    2.2901    1.6188   -0.2068 H   0  0  0  0  0  0  0  0  0  0  0  0
    4.4870   -2.0784    0.2819 H   0  0  0  0  0  0  0  0  0  0  0  0
    4.2508    2.8722    0.5339 H   0  0  0  0  0  0  0  0  0  0  0  0
    6.4595   -0.7843    0.9966 H   0  0  0  0  0  0  0  0  0  0  0  0
    6.3488    1.6905    1.1291 H   0  0  0  0  0  0  0  0  0  0  0  0
  1  5  1  0  0  0  0
  1 27  1  0  0  0  0
  2  5  1  0  0  0  0
  2 26  1  0  0  0  0
  3  7  1  0  0  0  0
  3 13  1  0  0  0  0
  4 14  2  0  0  0  0
  5  6  1  0  0  0  0
  5  9  1  0  0  0  0
  6  7  1  0  0  0  0
  6 21  1  0  0  0  0
  6 22  1  0  0  0  0
  7  8  2  0  0  0  0
  8 10  1  0  0  0  0
  8 11  1  0  0  0  0
  9 10  2  0  0  0  0
  9 23  1  0  0  0  0
 10 24  1  0  0  0  0
 11 12  2  3  0  0  0
 11 25  1  0  0  0  0
 12 14  1  0  0  0  0
 12 28  1  0  0  0  0
 13 29  1  0  0  0  0
 13 30  1  0  0  0  0
 13 31  1  0  0  0  0
 14 15  1  0  0  0  0
 15 16  2  0  0  0  0
 15 17  1  0  0  0  0
 16 18  1  0  0  0  0
 16 32  1  0  0  0  0
 17 19  2  0  0  0  0
 17 33  1  0  0  0  0
 18 20  2  0  0  0  0
 18 34  1  0  0  0  0
 19 20  1  0  0  0  0
 19 35  1  0  0  0  0
 20 36  1  0  0  0  0
M  END
> <PUBCHEM_COMPOUND_CID>
129864633

> <PUBCHEM_CONFORMER_RMSD>
0.6

> <PUBCHEM_CONFORMER_DIVERSEORDER>
1
25
11
19
23
20
45
33
5
16
28
6
35
17
13
48
47
21
54
27
2
26
24
15
44
56
18
30
7
3
22
39
43
4
46
42
38
41
37
9
10
8
53
14
50
32
12
34
51
57
31
29
52
36
40
49
55

> <PUBCHEM_MMFF94_PARTIAL_CHARGES>
30
1 -0.68
10 -0.15
11 -0.15
12 -0.14
13 0.28
14 0.47
15 0.09
16 -0.15
17 -0.15
18 -0.15
19 -0.15
2 -0.68
20 -0.15
23 0.15
24 0.15
25 0.15
26 0.4
27 0.4
28 0.15
3 -0.36
32 0.15
33 0.15
34 0.15
35 0.15
36 0.15
4 -0.57
5 0.7
6 0.14
7 -0.06
9 -0.29

> <PUBCHEM_EFFECTIVE_ROTOR_COUNT>
4.4

> <PUBCHEM_PHARMACOPHORE_FEATURES>
8
1 1 acceptor
1 1 donor
1 2 acceptor
1 2 donor
1 3 acceptor
1 4 acceptor
6 15 16 17 18 19 20 rings
6 5 6 7 8 9 10 rings

> <PUBCHEM_HEAVY_ATOM_COUNT>
20

> <PUBCHEM_ATOM_DEF_STEREO_COUNT>
0

> <PUBCHEM_ATOM_UDEF_STEREO_COUNT>
0

> <PUBCHEM_BOND_DEF_STEREO_COUNT>
0

> <PUBCHEM_BOND_UDEF_STEREO_COUNT>
1

> <PUBCHEM_ISOTOPIC_ATOM_COUNT>
0

> <PUBCHEM_COMPONENT_COUNT>
1

> <PUBCHEM_CACTVS_TAUTO_COUNT>
5

> <PUBCHEM_CONFORMER_ID>
07BD93B900000001

> <PUBCHEM_MMFF94_ENERGY>
56.939

> <PUBCHEM_FEATURE_SELFOVERLAP>
40.684

> <PUBCHEM_SHAPE_FINGERPRINT>
10 15 18187638138014171928
105312 117 14333413315975653145
11132069 177 18334300859696741815
11370993 144 18270971124245465859
11595378 159 17385990746652050848
11796584 16 14707211024037118505
12236239 1 16272207470420885503
12403259 415 18409442571271719132
12403814 3 18409160034884042447
12596602 18 15719110271446874916
12633257 1 18411979182797886760
12670543 26 9583527486424772139
13214271 11 18410853291623618143
13583140 156 17823394055893556550
13668630 136 13767930096100289496
14341114 176 18333449829333586362
14341114 328 17968097564194235808
15048467 5 18060702780092583273
15163728 17 14907081266031905121
15188451 53 16153708781838039267
15196674 1 18411979195788303080
15342168 16 18059858393527071516
17349148 13 15213023734602730322
17870717 6 9511465562495339841
17980427 23 18201443610302018693
1813 80 16877944953302321692
18222031 100 13767923503868944882
19489759 90 16588017996876642493
19784866 170 18409451396791267270
19784866 240 13984661425820753810
20369508 70 11602540940382244998
20645476 183 14548728508873345213
20645477 56 18409729538804843046
20871999 31 10807941474420690306
21304303 282 15288130218993051343
21637258 2 14996575044507179107
21652331 79 18408600370770662364
22122407 14 17274553095777650401
22182313 1 18189331273365126158
22854114 59 18341895203494435270
23402539 116 18187639241034757167
23557571 272 17894912875874128108
23559900 14 18189633664996767622
26918003 58 16370445557650712571
3009799 131 17895183408223571927
3187 122 17603860083396982428
351380 180 18334009510558530162
351380 3 12612752423571396944
3545911 37 18342177756708429822
3759504 43 14405180681750843541
5104073 3 18337963285811110355
542803 24 17275105033276603178
59755656 215 18341900654362250990
621550 34 18339643339071858670
69474 34 18333732437965911717
960060 61 9079114475572871410

> <PUBCHEM_SHAPE_MULTIPOLES>
388.11
12.72
1.92
1.19
4.11
0.11
-0.08
1.73
5.36
0.35
-0.54
-0.68
0.39
0.78

> <PUBCHEM_SHAPE_SELFOVERLAP>
824.478

> <PUBCHEM_SHAPE_VOLUME>
214.1

> <PUBCHEM_COORDINATE_TYPE>
2
5
10

$$$$
