101405825
  -OEChem-09172005253D

 72 78  0     1  0  0  0  0  0999 V2000
   -0.3175    1.3476   -0.4131 O   0  0  0  0  0  0  0  0  0  0  0  0
    0.5046    0.5223    2.3353 O   0  0  0  0  0  0  0  0  0  0  0  0
   -3.7963    0.3728    2.0883 O   0  0  0  0  0  0  0  0  0  0  0  0
    4.0933   -0.2290    1.9015 O   0  0  0  0  0  0  0  0  0  0  0  0
   -0.0180   -0.5158   -1.8293 O   0  0  0  0  0  0  0  0  0  0  0  0
   -0.3992    2.3007    3.5521 O   0  0  0  0  0  0  0  0  0  0  0  0
    2.4905   -4.7802   -1.6978 O   0  0  0  0  0  0  0  0  0  0  0  0
   -3.6842    3.9366   -2.9278 O   0  0  0  0  0  0  0  0  0  0  0  0
    5.0006   -3.8614   -2.4543 O   0  0  0  0  0  0  0  0  0  0  0  0
   -5.8956    2.2708   -3.1475 O   0  0  0  0  0  0  0  0  0  0  0  0
    5.7718    4.1110    0.8199 O   0  0  0  0  0  0  0  0  0  0  0  0
   -4.4823   -4.3502    2.3016 O   0  0  0  0  0  0  0  0  0  0  0  0
    1.2858   -0.4657    0.2533 C   0  0  1  0  0  0  0  0  0  0  0  0
   -1.6238    1.4511    1.6399 C   0  0  2  0  0  0  0  0  0  0  0  0
   -1.5074    0.8438    0.2122 C   0  0  1  0  0  0  0  0  0  0  0  0
    1.6604    0.4309    1.4763 C   0  0  2  0  0  0  0  0  0  0  0  0
    0.6002    0.3614   -0.8856 C   0  0  2  0  0  0  0  0  0  0  0  0
   -0.2317    1.7391    2.2505 C   0  0  2  0  0  0  0  0  0  0  0  0
    2.3750   -1.3362   -0.3913 C   0  0  0  0  0  0  0  0  0  0  0  0
   -2.4566    0.5349    2.5723 C   0  0  0  0  0  0  0  0  0  0  0  0
   -2.7070    1.2060   -0.6638 C   0  0  0  0  0  0  0  0  0  0  0  0
    2.7628   -0.1092    2.4127 C   0  0  0  0  0  0  0  0  0  0  0  0
    3.6602   -0.8761   -0.7669 C   0  0  0  0  0  0  0  0  0  0  0  0
   -3.8473    0.3693   -0.7529 C   0  0  0  0  0  0  0  0  0  0  0  0
    2.0151   -2.6632   -0.7175 C   0  0  0  0  0  0  0  0  0  0  0  0
    4.1798    0.4423   -0.3792 C   0  0  0  0  0  0  0  0  0  0  0  0
   -2.6876    2.4103   -1.3972 C   0  0  0  0  0  0  0  0  0  0  0  0
   -3.9911   -0.8628    0.0448 C   0  0  0  0  0  0  0  0  0  0  0  0
   -3.9521   -0.8338    1.4502 C   0  0  0  0  0  0  0  0  0  0  0  0
    4.3957    0.7351    0.9777 C   0  0  0  0  0  0  0  0  0  0  0  0
    4.5202   -1.7493   -1.4668 C   0  0  0  0  0  0  0  0  0  0  0  0
   -4.9030    0.7525   -1.6057 C   0  0  0  0  0  0  0  0  0  0  0  0
    2.8852   -3.5109   -1.4015 C   0  0  0  0  0  0  0  0  0  0  0  0
   -3.7466    2.7690   -2.2296 C   0  0  0  0  0  0  0  0  0  0  0  0
    4.1366   -3.0511   -1.7830 C   0  0  0  0  0  0  0  0  0  0  0  0
   -4.8516    1.9367   -2.3394 C   0  0  0  0  0  0  0  0  0  0  0  0
    4.5082    1.4220   -1.3254 C   0  0  0  0  0  0  0  0  0  0  0  0
   -4.1817   -2.1076   -0.5778 C   0  0  0  0  0  0  0  0  0  0  0  0
   -4.1307   -1.9934    2.2109 C   0  0  0  0  0  0  0  0  0  0  0  0
    4.9373    1.9516    1.3908 C   0  0  0  0  0  0  0  0  0  0  0  0
    5.0349    2.6515   -0.9191 C   0  0  0  0  0  0  0  0  0  0  0  0
   -4.3397   -3.2727    0.1779 C   0  0  0  0  0  0  0  0  0  0  0  0
    5.2511    2.9139    0.4346 C   0  0  0  0  0  0  0  0  0  0  0  0
   -4.3180   -3.2146    1.5699 C   0  0  0  0  0  0  0  0  0  0  0  0
    0.5293   -1.1664    0.6356 H   0  0  0  0  0  0  0  0  0  0  0  0
   -2.1557    2.4113    1.5793 H   0  0  0  0  0  0  0  0  0  0  0  0
   -1.4324   -0.2461    0.2835 H   0  0  0  0  0  0  0  0  0  0  0  0
    1.9499    1.4288    1.1288 H   0  0  0  0  0  0  0  0  0  0  0  0
    1.3731    0.9177   -1.4280 H   0  0  0  0  0  0  0  0  0  0  0  0
    0.2835    2.5005    1.6534 H   0  0  0  0  0  0  0  0  0  0  0  0
   -1.9480   -0.4258    2.7320 H   0  0  0  0  0  0  0  0  0  0  0  0
   -2.5514    1.0011    3.5594 H   0  0  0  0  0  0  0  0  0  0  0  0
    2.8137    0.5200    3.3117 H   0  0  0  0  0  0  0  0  0  0  0  0
    2.4706   -1.1024    2.7769 H   0  0  0  0  0  0  0  0  0  0  0  0
    1.0264   -3.0311   -0.4471 H   0  0  0  0  0  0  0  0  0  0  0  0
   -1.8320    3.0780   -1.3170 H   0  0  0  0  0  0  0  0  0  0  0  0
    0.0074   -0.0706   -2.6932 H   0  0  0  0  0  0  0  0  0  0  0  0
    0.4124    2.7960    3.7551 H   0  0  0  0  0  0  0  0  0  0  0  0
    5.5157   -1.4074   -1.7486 H   0  0  0  0  0  0  0  0  0  0  0  0
   -5.7874    0.1209   -1.6817 H   0  0  0  0  0  0  0  0  0  0  0  0
    4.3568    1.2381   -2.3866 H   0  0  0  0  0  0  0  0  0  0  0  0
   -4.2077   -2.1829   -1.6630 H   0  0  0  0  0  0  0  0  0  0  0  0
   -4.1212   -1.9430    3.2965 H   0  0  0  0  0  0  0  0  0  0  0  0
    5.1068    2.1482    2.4456 H   0  0  0  0  0  0  0  0  0  0  0  0
    5.2788    3.3963   -1.6724 H   0  0  0  0  0  0  0  0  0  0  0  0
   -4.4845   -4.2200   -0.3350 H   0  0  0  0  0  0  0  0  0  0  0  0
    1.5912   -4.9220   -1.3556 H   0  0  0  0  0  0  0  0  0  0  0  0
   -2.8437    4.3830   -2.7275 H   0  0  0  0  0  0  0  0  0  0  0  0
    5.8211   -3.3715   -2.6350 H   0  0  0  0  0  0  0  0  0  0  0  0
   -6.5732    1.5750   -3.0960 H   0  0  0  0  0  0  0  0  0  0  0  0
    5.9291    4.6554    0.0293 H   0  0  0  0  0  0  0  0  0  0  0  0
   -4.5996   -5.1016    1.6953 H   0  0  0  0  0  0  0  0  0  0  0  0
  1 15  1  0  0  0  0
  1 17  1  0  0  0  0
  2 16  1  0  0  0  0
  2 18  1  0  0  0  0
  3 20  1  0  0  0  0
  3 29  1  0  0  0  0
  4 22  1  0  0  0  0
  4 30  1  0  0  0  0
  5 17  1  0  0  0  0
  5 57  1  0  0  0  0
  6 18  1  0  0  0  0
  6 58  1  0  0  0  0
  7 33  1  0  0  0  0
  7 67  1  0  0  0  0
  8 34  1  0  0  0  0
  8 68  1  0  0  0  0
  9 35  1  0  0  0  0
  9 69  1  0  0  0  0
 10 36  1  0  0  0  0
 10 70  1  0  0  0  0
 11 43  1  0  0  0  0
 11 71  1  0  0  0  0
 12 44  1  0  0  0  0
 12 72  1  0  0  0  0
 13 16  1  0  0  0  0
 13 17  1  0  0  0  0
 13 19  1  0  0  0  0
 13 45  1  0  0  0  0
 14 15  1  0  0  0  0
 14 18  1  0  0  0  0
 14 20  1  0  0  0  0
 14 46  1  0  0  0  0
 15 21  1  0  0  0  0
 15 47  1  0  0  0  0
 16 22  1  0  0  0  0
 16 48  1  0  0  0  0
 17 49  1  0  0  0  0
 18 50  1  0  0  0  0
 19 23  1  0  0  0  0
 19 25  2  0  0  0  0
 20 51  1  0  0  0  0
 20 52  1  0  0  0  0
 21 24  1  0  0  0  0
 21 27  2  0  0  0  0
 22 53  1  0  0  0  0
 22 54  1  0  0  0  0
 23 26  1  0  0  0  0
 23 31  2  0  0  0  0
 24 28  1  0  0  0  0
 24 32  2  0  0  0  0
 25 33  1  0  0  0  0
 25 55  1  0  0  0  0
 26 30  2  0  0  0  0
 26 37  1  0  0  0  0
 27 34  1  0  0  0  0
 27 56  1  0  0  0  0
 28 29  2  0  0  0  0
 28 38  1  0  0  0  0
 29 39  1  0  0  0  0
 30 40  1  0  0  0  0
 31 35  1  0  0  0  0
 31 59  1  0  0  0  0
 32 36  1  0  0  0  0
 32 60  1  0  0  0  0
 33 35  2  0  0  0  0
 34 36  2  0  0  0  0
 37 41  2  0  0  0  0
 37 61  1  0  0  0  0
 38 42  2  0  0  0  0
 38 62  1  0  0  0  0
 39 44  2  0  0  0  0
 39 63  1  0  0  0  0
 40 43  2  0  0  0  0
 40 64  1  0  0  0  0
 41 43  1  0  0  0  0
 41 65  1  0  0  0  0
 42 44  1  0  0  0  0
 42 66  1  0  0  0  0
M  END
> <PUBCHEM_COMPOUND_CID>
101405825

> <PUBCHEM_CONFORMER_RMSD>
0.8

> <PUBCHEM_CONFORMER_DIVERSEORDER>
1
2
6
7
4
3
5

> <PUBCHEM_MMFF94_PARTIAL_CHARGES>
57
1 -0.56
10 -0.53
11 -0.53
12 -0.53
13 0.14
15 0.42
16 0.28
17 0.56
18 0.56
19 -0.14
2 -0.56
20 0.28
21 -0.14
22 0.28
25 -0.15
27 -0.15
29 0.08
3 -0.36
30 0.08
31 -0.15
32 -0.15
33 0.08
34 0.08
35 0.08
36 0.08
37 -0.15
38 -0.15
39 -0.15
4 -0.36
40 -0.15
41 -0.15
42 -0.15
43 0.08
44 0.08
5 -0.68
55 0.15
56 0.15
57 0.4
58 0.4
59 0.15
6 -0.68
60 0.15
61 0.15
62 0.15
63 0.15
64 0.15
65 0.15
66 0.15
67 0.45
68 0.45
69 0.45
7 -0.53
70 0.45
71 0.45
72 0.45
8 -0.53
9 -0.53

> <PUBCHEM_EFFECTIVE_ROTOR_COUNT>
1.6

> <PUBCHEM_PHARMACOPHORE_FEATURES>
18
1 1 acceptor
1 10 donor
1 11 donor
1 12 donor
1 2 acceptor
1 3 acceptor
1 4 acceptor
1 5 acceptor
1 5 donor
1 6 acceptor
1 6 donor
1 7 donor
1 8 donor
1 9 donor
6 19 23 25 31 33 35 rings
6 21 24 27 32 34 36 rings
6 26 30 37 40 41 43 rings
6 28 29 38 39 42 44 rings

> <PUBCHEM_HEAVY_ATOM_COUNT>
44

> <PUBCHEM_ATOM_DEF_STEREO_COUNT>
4

> <PUBCHEM_ATOM_UDEF_STEREO_COUNT>
2

> <PUBCHEM_BOND_DEF_STEREO_COUNT>
0

> <PUBCHEM_BOND_UDEF_STEREO_COUNT>
0

> <PUBCHEM_ISOTOPIC_ATOM_COUNT>
0

> <PUBCHEM_COMPONENT_COUNT>
1

> <PUBCHEM_CACTVS_TAUTO_COUNT>
986

> <PUBCHEM_CONFORMER_ID>
060B548100000001

> <PUBCHEM_MMFF94_ENERGY>
188.994

> <PUBCHEM_FEATURE_SELFOVERLAP>
91.449

> <PUBCHEM_SHAPE_FINGERPRINT>
10258939 38 17969786478120326649
10928967 22 16702023071467655870
10974685 15 17895203181509827258
11135926 11 18060422443414230664
11285246 1 17333082027763789149
12633046 712 18059582360368974289
13636023 51 18263346032956332766
13782708 43 18334868208156077714
13911987 19 18129936909648667784
14040221 97 18266745877006168365
14068700 686 18336830891364777983
14747282 305 13109868045266252381
14950920 106 17844551936176401683
17349148 13 14634867561218266176
19304144 158 18263912406025653676
19315092 285 14762337187090598719
19315958 150 18270977812279783635
19319366 153 17917988421644551742
20511986 3 16516785023590651397
20764821 26 17917985083907070134
21033650 10 17313963925674854331
21133410 52 17041202909670501998
22393880 68 18041284270484685902
23559900 14 18268424638378397310
3737641 26 17988381332917966058
4015057 19 18129370502298911333
44280116 191 16678641651698603228
460360 51 17489022635432262400
469060 322 18124590036163240055
6376802 90 18262231127822928549
6695519 79 18058167413342254914
77296 10 17822559569554372552
86090 222 17487039313792525506

> <PUBCHEM_SHAPE_MULTIPOLES>
835.07
13.88
5.18
3.26
2.27
3.44
-0.67
-1.64
3.72
1.04
2.41
-2.47
-1
7.56

> <PUBCHEM_SHAPE_SELFOVERLAP>
1875.075

> <PUBCHEM_SHAPE_VOLUME>
430.4

> <PUBCHEM_COORDINATE_TYPE>
2
5
10

$$$$
