71457914
  -OEChem-09172006513D

 32 34  0     1  0  0  0  0  0999 V2000
    0.4689    1.0222   -0.8717 O   0  0  0  0  0  0  0  0  0  0  0  0
   -1.4080   -2.1262   -0.9957 O   0  0  0  0  0  0  0  0  0  0  0  0
   -4.2625    1.5279    0.0008 O   0  0  0  0  0  0  0  0  0  0  0  0
    0.8740   -2.9005    0.2821 O   0  0  0  0  0  0  0  0  0  0  0  0
   -2.0890    2.2422    0.2140 O   0  0  0  0  0  0  0  0  0  0  0  0
    4.9819    1.9492    0.2441 O   0  0  0  0  0  0  0  0  0  0  0  0
   -0.6234   -1.1197   -0.3737 C   0  0  2  0  0  0  0  0  0  0  0  0
   -1.3426   -0.6249    0.8800 C   0  0  0  0  0  0  0  0  0  0  0  0
   -0.3757   -0.0085   -1.3879 C   0  0  0  0  0  0  0  0  0  0  0  0
    0.7209   -1.7176    0.0000 C   0  0  0  0  0  0  0  0  0  0  0  0
   -2.6777   -0.0529    0.5588 C   0  0  0  0  0  0  0  0  0  0  0  0
    1.8580   -0.7718    0.0313 C   0  0  0  0  0  0  0  0  0  0  0  0
    1.6628    0.5466   -0.3932 C   0  0  0  0  0  0  0  0  0  0  0  0
   -3.8547   -0.6691    0.4881 C   0  0  0  0  0  0  0  0  0  0  0  0
   -2.9294    1.3600    0.2477 C   0  0  0  0  0  0  0  0  0  0  0  0
    3.1057   -1.1828    0.5069 C   0  0  0  0  0  0  0  0  0  0  0  0
   -4.9325    0.2712    0.1350 C   0  0  0  0  0  0  0  0  0  0  0  0
    2.7114    1.4638   -0.3081 C   0  0  0  0  0  0  0  0  0  0  0  0
    4.1549   -0.2652    0.5719 C   0  0  0  0  0  0  0  0  0  0  0  0
    3.9571    1.0560    0.1697 C   0  0  0  0  0  0  0  0  0  0  0  0
   -0.7431    0.1117    1.4286 H   0  0  0  0  0  0  0  0  0  0  0  0
   -1.4828   -1.4642    1.5754 H   0  0  0  0  0  0  0  0  0  0  0  0
    0.0872   -0.4148   -2.2998 H   0  0  0  0  0  0  0  0  0  0  0  0
   -1.3065    0.4467   -1.7413 H   0  0  0  0  0  0  0  0  0  0  0  0
   -1.5927   -2.8174   -0.3369 H   0  0  0  0  0  0  0  0  0  0  0  0
   -4.0085   -1.7238    0.6649 H   0  0  0  0  0  0  0  0  0  0  0  0
    3.2763   -2.2028    0.8392 H   0  0  0  0  0  0  0  0  0  0  0  0
   -5.4090    0.0132   -0.8147 H   0  0  0  0  0  0  0  0  0  0  0  0
   -5.6875    0.3470    0.9225 H   0  0  0  0  0  0  0  0  0  0  0  0
    2.5554    2.4928   -0.6232 H   0  0  0  0  0  0  0  0  0  0  0  0
    5.1244   -0.5846    0.9449 H   0  0  0  0  0  0  0  0  0  0  0  0
    4.6702    2.8141   -0.0734 H   0  0  0  0  0  0  0  0  0  0  0  0
  1  9  1  0  0  0  0
  1 13  1  0  0  0  0
  2  7  1  0  0  0  0
  2 25  1  0  0  0  0
  3 15  1  0  0  0  0
  3 17  1  0  0  0  0
  4 10  2  0  0  0  0
  5 15  2  0  0  0  0
  6 20  1  0  0  0  0
  6 32  1  0  0  0  0
  7  8  1  0  0  0  0
  7  9  1  0  0  0  0
  7 10  1  0  0  0  0
  8 11  1  0  0  0  0
  8 21  1  0  0  0  0
  8 22  1  0  0  0  0
  9 23  1  0  0  0  0
  9 24  1  0  0  0  0
 10 12  1  0  0  0  0
 11 14  2  0  0  0  0
 11 15  1  0  0  0  0
 12 13  2  0  0  0  0
 12 16  1  0  0  0  0
 13 18  1  0  0  0  0
 14 17  1  0  0  0  0
 14 26  1  0  0  0  0
 16 19  2  0  0  0  0
 16 27  1  0  0  0  0
 17 28  1  0  0  0  0
 17 29  1  0  0  0  0
 18 20  2  0  0  0  0
 18 30  1  0  0  0  0
 19 20  1  0  0  0  0
 19 31  1  0  0  0  0
M  END
> <PUBCHEM_COMPOUND_CID>
71457914

> <PUBCHEM_CONFORMER_RMSD>
0.6

> <PUBCHEM_CONFORMER_DIVERSEORDER>
2
15
4
20
24
16
13
19
23
14
12
18
17
8
5
11
9
10
21
22
3
6
7
1

> <PUBCHEM_MMFF94_PARTIAL_CHARGES>
26
1 -0.36
10 0.42
11 -0.12
12 0.09
13 0.08
14 -0.29
15 0.71
16 -0.15
17 0.42
18 -0.15
19 -0.15
2 -0.68
20 0.08
25 0.4
26 0.15
27 0.15
3 -0.43
30 0.15
31 0.15
32 0.45
4 -0.57
5 -0.57
6 -0.53
7 0.34
8 0.14
9 0.28

> <PUBCHEM_EFFECTIVE_ROTOR_COUNT>
3

> <PUBCHEM_PHARMACOPHORE_FEATURES>
9
1 1 acceptor
1 2 acceptor
1 2 donor
1 4 acceptor
1 5 acceptor
1 6 donor
5 3 11 14 15 17 rings
6 1 7 9 10 12 13 rings
6 12 13 16 18 19 20 rings

> <PUBCHEM_HEAVY_ATOM_COUNT>
20

> <PUBCHEM_ATOM_DEF_STEREO_COUNT>
1

> <PUBCHEM_ATOM_UDEF_STEREO_COUNT>
0

> <PUBCHEM_BOND_DEF_STEREO_COUNT>
0

> <PUBCHEM_BOND_UDEF_STEREO_COUNT>
0

> <PUBCHEM_ISOTOPIC_ATOM_COUNT>
0

> <PUBCHEM_COMPONENT_COUNT>
1

> <PUBCHEM_CACTVS_TAUTO_COUNT>
5

> <PUBCHEM_CONFORMER_ID>
04425C7A00000002

> <PUBCHEM_MMFF94_ENERGY>
42.9981

> <PUBCHEM_FEATURE_SELFOVERLAP>
45.708

> <PUBCHEM_SHAPE_FINGERPRINT>
10493431 412 18336543936532094912
10646746 165 18411142398377314388
10948715 1 18412545409674393258
10980938 120 18337113375769702338
11132069 177 18113058224955992141
11370993 70 18407759227005608331
11578080 2 16228571015137331455
12011746 2 18334299725450699438
12251169 10 18259985989529652442
12507560 40 18334864908955965059
12633257 1 18045219332305911193
12892183 10 18040157318215592187
13140716 1 18335133194347027354
14787075 74 18272929466339819587
14790565 3 18043543900530706684
15188451 53 15792305924612437809
15196674 1 18409731742275936097
15209294 21 18339639044563368184
15309172 13 18260539052690157846
15342168 16 18114749359971076908
15375462 478 18334861627785606167
15536298 74 18340491062462884047
15775835 57 18272936041639337579
16945 1 18263099750699052171
17492 89 18337393721772083179
1813 80 16008751299125209038
19784866 240 8069759511034246296
200 152 18411691098325411255
20157964 124 18336821984399177821
204376 136 18343304773043155211
20715895 44 17905321832828980945
20739085 24 18040436560400094084
21524375 3 18272373087343781386
21652331 79 18411136948058703537
22854114 59 18335139782367520521
23184049 59 18259703406504172526
23227448 37 18057601160342594093
23402539 116 18272082821164816309
23559900 14 18123468276594431299
2748010 2 17472960819461072950
296302 2 18342460339728583225
350125 39 18335139748804425708
351380 180 18410011035488498633
474 4 18260550051694928672
4921388 177 14907888418982764733
5104073 3 18262244318052350689
6333272 397 18411420604815217723
633830 44 18201442424036268733
69090 78 18413387639971052511
7364860 26 18197502830877242982
7808743 9 18195244645164620024
83771 10 8502654796531093691
9709674 26 18336273340655129027

> <PUBCHEM_SHAPE_MULTIPOLES>
376.37
8.78
2.26
0.9
0.77
0.43
-0.15
-4.16
1.88
-0.5
-0.03
0.08
0.1
-0.24

> <PUBCHEM_SHAPE_SELFOVERLAP>
833.473

> <PUBCHEM_SHAPE_VOLUME>
200

> <PUBCHEM_COORDINATE_TYPE>
2
5
10

$$$$
