23259347
  -OEChem-09172004263D

 37 39  0     1  0  0  0  0  0999 V2000
    0.8682   -1.0899    0.8950 O   0  0  0  0  0  0  0  0  0  0  0  0
   -0.9542    2.0995    1.1666 O   0  0  0  0  0  0  0  0  0  0  0  0
    1.2437    2.6714   -0.7820 O   0  0  0  0  0  0  0  0  0  0  0  0
    5.2714   -2.1862   -0.4520 O   0  0  0  0  0  0  0  0  0  0  0  0
   -5.9772   -1.3764    0.1036 O   0  0  0  0  0  0  0  0  0  0  0  0
   -0.1277    1.1310    0.5149 C   0  0  2  0  0  0  0  0  0  0  0  0
    1.2618    1.7617    0.3153 C   0  0  1  0  0  0  0  0  0  0  0  0
   -0.8136    0.7391   -0.8009 C   0  0  0  0  0  0  0  0  0  0  0  0
    0.0292   -0.0737    1.4458 C   0  0  0  0  0  0  0  0  0  0  0  0
    2.3256    0.7108    0.1144 C   0  0  0  0  0  0  0  0  0  0  0  0
    2.0727   -0.6341    0.4223 C   0  0  0  0  0  0  0  0  0  0  0  0
   -2.1856    0.1766   -0.5595 C   0  0  0  0  0  0  0  0  0  0  0  0
    3.6016    1.0669   -0.3481 C   0  0  0  0  0  0  0  0  0  0  0  0
    3.0566   -1.6061    0.2195 C   0  0  0  0  0  0  0  0  0  0  0  0
   -2.3534   -1.1942   -0.3632 C   0  0  0  0  0  0  0  0  0  0  0  0
   -3.2921    1.0256   -0.5328 C   0  0  0  0  0  0  0  0  0  0  0  0
    4.5877    0.0970   -0.5359 C   0  0  0  0  0  0  0  0  0  0  0  0
    4.3131   -1.2395   -0.2580 C   0  0  0  0  0  0  0  0  0  0  0  0
   -3.6275   -1.7160   -0.1406 C   0  0  0  0  0  0  0  0  0  0  0  0
   -4.5663    0.5037   -0.3101 C   0  0  0  0  0  0  0  0  0  0  0  0
   -4.7340   -0.8672   -0.1141 C   0  0  0  0  0  0  0  0  0  0  0  0
    1.5357    2.3431    1.2059 H   0  0  0  0  0  0  0  0  0  0  0  0
   -0.9260    1.6166   -1.4515 H   0  0  0  0  0  0  0  0  0  0  0  0
   -0.2144    0.0207   -1.3738 H   0  0  0  0  0  0  0  0  0  0  0  0
   -0.9257   -0.5238    1.7330 H   0  0  0  0  0  0  0  0  0  0  0  0
    0.4604    0.2471    2.4058 H   0  0  0  0  0  0  0  0  0  0  0  0
   -1.6859    1.6397    1.6113 H   0  0  0  0  0  0  0  0  0  0  0  0
    3.8372    2.1049   -0.5697 H   0  0  0  0  0  0  0  0  0  0  0  0
    0.5766    3.3510   -0.5842 H   0  0  0  0  0  0  0  0  0  0  0  0
    2.8389   -2.6479    0.4432 H   0  0  0  0  0  0  0  0  0  0  0  0
   -1.5044   -1.8715   -0.3950 H   0  0  0  0  0  0  0  0  0  0  0  0
   -3.1770    2.0953   -0.6862 H   0  0  0  0  0  0  0  0  0  0  0  0
    5.5675    0.3916   -0.9022 H   0  0  0  0  0  0  0  0  0  0  0  0
   -3.7523   -2.7851    0.0086 H   0  0  0  0  0  0  0  0  0  0  0  0
   -5.4202    1.1756   -0.2920 H   0  0  0  0  0  0  0  0  0  0  0  0
    4.9095   -3.0557   -0.2092 H   0  0  0  0  0  0  0  0  0  0  0  0
   -6.6226   -0.6488    0.0895 H   0  0  0  0  0  0  0  0  0  0  0  0
  1  9  1  0  0  0  0
  1 11  1  0  0  0  0
  2  6  1  0  0  0  0
  2 27  1  0  0  0  0
  3  7  1  0  0  0  0
  3 29  1  0  0  0  0
  4 18  1  0  0  0  0
  4 36  1  0  0  0  0
  5 21  1  0  0  0  0
  5 37  1  0  0  0  0
  6  7  1  0  0  0  0
  6  8  1  0  0  0  0
  6  9  1  0  0  0  0
  7 10  1  0  0  0  0
  7 22  1  0  0  0  0
  8 12  1  0  0  0  0
  8 23  1  0  0  0  0
  8 24  1  0  0  0  0
  9 25  1  0  0  0  0
  9 26  1  0  0  0  0
 10 11  2  0  0  0  0
 10 13  1  0  0  0  0
 11 14  1  0  0  0  0
 12 15  2  0  0  0  0
 12 16  1  0  0  0  0
 13 17  2  0  0  0  0
 13 28  1  0  0  0  0
 14 18  2  0  0  0  0
 14 30  1  0  0  0  0
 15 19  1  0  0  0  0
 15 31  1  0  0  0  0
 16 20  2  0  0  0  0
 16 32  1  0  0  0  0
 17 18  1  0  0  0  0
 17 33  1  0  0  0  0
 19 21  2  0  0  0  0
 19 34  1  0  0  0  0
 20 21  1  0  0  0  0
 20 35  1  0  0  0  0
M  END
> <PUBCHEM_COMPOUND_CID>
23259347

> <PUBCHEM_CONFORMER_RMSD>
0.6

> <PUBCHEM_CONFORMER_DIVERSEORDER>
2
6
8
3
4
7
5
1

> <PUBCHEM_MMFF94_PARTIAL_CHARGES>
32
1 -0.36
10 -0.14
11 0.08
12 -0.14
13 -0.15
14 -0.15
15 -0.15
16 -0.15
17 -0.15
18 0.08
19 -0.15
2 -0.68
20 -0.15
21 0.08
27 0.4
28 0.15
29 0.4
3 -0.68
30 0.15
31 0.15
32 0.15
33 0.15
34 0.15
35 0.15
36 0.45
37 0.45
4 -0.53
5 -0.53
6 0.28
7 0.42
8 0.14
9 0.28

> <PUBCHEM_EFFECTIVE_ROTOR_COUNT>
2.8

> <PUBCHEM_PHARMACOPHORE_FEATURES>
10
1 1 acceptor
1 2 acceptor
1 2 donor
1 3 acceptor
1 3 donor
1 4 donor
1 5 donor
6 1 6 7 9 10 11 rings
6 10 11 13 14 17 18 rings
6 12 15 16 19 20 21 rings

> <PUBCHEM_HEAVY_ATOM_COUNT>
21

> <PUBCHEM_ATOM_DEF_STEREO_COUNT>
2

> <PUBCHEM_ATOM_UDEF_STEREO_COUNT>
0

> <PUBCHEM_BOND_DEF_STEREO_COUNT>
0

> <PUBCHEM_BOND_UDEF_STEREO_COUNT>
0

> <PUBCHEM_ISOTOPIC_ATOM_COUNT>
0

> <PUBCHEM_COMPONENT_COUNT>
1

> <PUBCHEM_CACTVS_TAUTO_COUNT>
6

> <PUBCHEM_CONFORMER_ID>
0162E8D300000002

> <PUBCHEM_MMFF94_ENERGY>
68.0595

> <PUBCHEM_FEATURE_SELFOVERLAP>
50.778

> <PUBCHEM_SHAPE_FINGERPRINT>
10366900 7 17095239224892571209
10498660 4 16660906812883139453
11961588 58 15719684263512859374
12236239 1 18272655631730386657
12553582 1 18342160168532737047
12596602 18 13254785841705807062
12670546 177 18113341907719934078
12788726 201 17775298139775827240
14341114 176 18410578413843046983
14576447 43 18335983086823086098
15188451 53 15194704836508871613
15196674 1 18410009931438959615
15238133 3 16845310345084799051
15536298 74 18339355361461777441
17804303 29 18412260649606558591
1813 80 18130238094092701556
18186145 218 17894621556753090813
193927 3 17988370273709092062
19784866 140 18409728443788454163
19784866 240 18343590615816827223
200 152 18342175549005452018
20157964 124 9439135234419572059
20388580 30 18410576214361089660
204376 136 11314029062914267569
20645477 70 18411419514305085166
20871999 31 18115019710882147021
21033648 29 13829867802850138419
21250096 35 18202562890777768008
21267235 1 18411706473559588678
21713013 43 18114174216236087783
221357 26 18335697261060043055
221490 88 18190466141132150635
2215653 11 18410562995126810695
22393880 68 18041551447351439108
22950370 63 18342460356887418219
23227448 37 11242555330951522706
23379529 103 18341338880460053670
23402539 116 18337950100234929222
23559900 14 18412817001783805753
2838139 119 15575007208200645494
2871803 45 18186795885514285711
3004659 81 18333731291309707854
3323516 105 18333728043765507016
4214541 1 18409728435457086341
4280585 95 17332247498987816966
46194498 28 17604428621260728109
465052 167 18202286943772504151
4921388 177 16660936568437885867
4990 188 18186798088800775592
5104073 3 18272084972358064576
6786 2 10972427499065956776
77779 3 18409165528279076253
83771 10 18413668010951160093
9709674 26 18190179177572565347
9981440 41 17328581138145426649

> <PUBCHEM_SHAPE_MULTIPOLES>
402.82
10.77
2.2
0.94
4.02
0.32
-0.17
-6.02
2.08
-0.87
0.06
-0.06
0.16
0.05

> <PUBCHEM_SHAPE_SELFOVERLAP>
884.538

> <PUBCHEM_SHAPE_VOLUME>
215.7

> <PUBCHEM_COORDINATE_TYPE>
2
5
10

$$$$
