3081036
  -OEChem-09172006143D

 38 41  0     1  0  0  0  0  0999 V2000
   -0.1658    2.5190   -1.1679 O   0  0  0  0  0  0  0  0  0  0  0  0
    1.9845    1.7203    1.7006 O   0  0  0  0  0  0  0  0  0  0  0  0
   -4.3569   -1.7607   -1.2581 O   0  0  0  0  0  0  0  0  0  0  0  0
   -4.8970   -0.6544    1.2313 O   0  0  0  0  0  0  0  0  0  0  0  0
    4.7414   -2.3069    0.1977 O   0  0  0  0  0  0  0  0  0  0  0  0
    1.3531    0.1840   -0.1256 C   0  0  0  0  0  0  0  0  0  0  0  0
    0.9603    1.4263    0.7460 C   0  0  1  0  0  0  0  0  0  0  0  0
    0.2026    0.0793   -1.1828 C   0  0  1  0  0  0  0  0  0  0  0  0
   -0.3665    1.1732    1.5179 C   0  0  0  0  0  0  0  0  0  0  0  0
    0.8059    2.6867   -0.1399 C   0  0  0  0  0  0  0  0  0  0  0  0
   -1.1517   -0.1472   -0.5146 C   0  0  0  0  0  0  0  0  0  0  0  0
    0.0714    1.3834   -2.0043 C   0  0  0  0  0  0  0  0  0  0  0  0
   -1.4269    0.4210    0.7458 C   0  0  0  0  0  0  0  0  0  0  0  0
    1.4368   -1.0995    0.7100 C   0  0  0  0  0  0  0  0  0  0  0  0
    2.6930    0.4098   -0.8350 C   0  0  0  0  0  0  0  0  0  0  0  0
   -2.1486   -0.8765   -1.1787 C   0  0  0  0  0  0  0  0  0  0  0  0
   -2.6918    0.2373    1.3211 C   0  0  0  0  0  0  0  0  0  0  0  0
    2.5063   -1.8954    0.8180 C   0  0  0  0  0  0  0  0  0  0  0  0
    3.7725   -0.3745   -0.7389 C   0  0  0  0  0  0  0  0  0  0  0  0
    3.7554   -1.5849    0.1009 C   0  0  0  0  0  0  0  0  0  0  0  0
   -3.4032   -1.0485   -0.5955 C   0  0  0  0  0  0  0  0  0  0  0  0
   -3.6747   -0.4916    0.6520 C   0  0  0  0  0  0  0  0  0  0  0  0
    0.4095   -0.7566   -1.8652 H   0  0  0  0  0  0  0  0  0  0  0  0
   -0.7798    2.1304    1.8627 H   0  0  0  0  0  0  0  0  0  0  0  0
   -0.1456    0.6050    2.4321 H   0  0  0  0  0  0  0  0  0  0  0  0
    0.4908    3.5400    0.4731 H   0  0  0  0  0  0  0  0  0  0  0  0
    1.7575    3.0004   -0.5838 H   0  0  0  0  0  0  0  0  0  0  0  0
    0.9567    1.5739   -2.6193 H   0  0  0  0  0  0  0  0  0  0  0  0
   -0.7731    1.3171   -2.7005 H   0  0  0  0  0  0  0  0  0  0  0  0
    0.5604   -1.4113    1.2725 H   0  0  0  0  0  0  0  0  0  0  0  0
    2.8008    1.2807   -1.4752 H   0  0  0  0  0  0  0  0  0  0  0  0
    1.6878    2.4758    2.2362 H   0  0  0  0  0  0  0  0  0  0  0  0
   -1.9400   -1.3033   -2.1572 H   0  0  0  0  0  0  0  0  0  0  0  0
   -2.9090    0.6612    2.2991 H   0  0  0  0  0  0  0  0  0  0  0  0
    2.4822   -2.7880    1.4329 H   0  0  0  0  0  0  0  0  0  0  0  0
    4.6859   -0.1405   -1.2740 H   0  0  0  0  0  0  0  0  0  0  0  0
   -3.9914   -2.0695   -2.1049 H   0  0  0  0  0  0  0  0  0  0  0  0
   -5.4516   -1.1835    0.6319 H   0  0  0  0  0  0  0  0  0  0  0  0
  1 10  1  0  0  0  0
  1 12  1  0  0  0  0
  2  7  1  0  0  0  0
  2 32  1  0  0  0  0
  3 21  1  0  0  0  0
  3 37  1  0  0  0  0
  4 22  1  0  0  0  0
  4 38  1  0  0  0  0
  5 20  2  0  0  0  0
  6  7  1  0  0  0  0
  6  8  1  0  0  0  0
  6 14  1  0  0  0  0
  6 15  1  0  0  0  0
  7  9  1  0  0  0  0
  7 10  1  0  0  0  0
  8 11  1  0  0  0  0
  8 12  1  0  0  0  0
  8 23  1  0  0  0  0
  9 13  1  0  0  0  0
  9 24  1  0  0  0  0
  9 25  1  0  0  0  0
 10 26  1  0  0  0  0
 10 27  1  0  0  0  0
 11 13  1  0  0  0  0
 11 16  2  0  0  0  0
 12 28  1  0  0  0  0
 12 29  1  0  0  0  0
 13 17  2  0  0  0  0
 14 18  2  0  0  0  0
 14 30  1  0  0  0  0
 15 19  2  0  0  0  0
 15 31  1  0  0  0  0
 16 21  1  0  0  0  0
 16 33  1  0  0  0  0
 17 22  1  0  0  0  0
 17 34  1  0  0  0  0
 18 20  1  0  0  0  0
 18 35  1  0  0  0  0
 19 20  1  0  0  0  0
 19 36  1  0  0  0  0
 21 22  2  0  0  0  0
M  END
> <PUBCHEM_COMPOUND_CID>
3081036

> <PUBCHEM_CONFORMER_RMSD>
0.6

> <PUBCHEM_CONFORMER_DIVERSEORDER>
1

> <PUBCHEM_MMFF94_PARTIAL_CHARGES>
31
1 -0.56
10 0.28
11 -0.14
12 0.28
13 -0.14
14 -0.29
15 -0.29
16 -0.15
17 -0.15
18 -0.14
19 -0.14
2 -0.68
20 0.54
21 0.08
22 0.08
3 -0.53
30 0.15
31 0.15
32 0.4
33 0.15
34 0.15
35 0.15
36 0.15
37 0.45
38 0.45
4 -0.53
5 -0.57
6 0.28
7 0.28
8 0.14
9 0.14

> <PUBCHEM_EFFECTIVE_ROTOR_COUNT>
0.8

> <PUBCHEM_PHARMACOPHORE_FEATURES>
10
1 1 acceptor
1 2 acceptor
1 2 donor
1 3 donor
1 4 donor
1 5 acceptor
6 1 6 7 8 10 12 rings
6 11 13 16 17 21 22 rings
6 6 14 15 18 19 20 rings
6 6 7 8 9 11 13 rings

> <PUBCHEM_HEAVY_ATOM_COUNT>
22

> <PUBCHEM_ATOM_DEF_STEREO_COUNT>
1

> <PUBCHEM_ATOM_UDEF_STEREO_COUNT>
1

> <PUBCHEM_BOND_DEF_STEREO_COUNT>
0

> <PUBCHEM_BOND_UDEF_STEREO_COUNT>
0

> <PUBCHEM_ISOTOPIC_ATOM_COUNT>
0

> <PUBCHEM_COMPONENT_COUNT>
1

> <PUBCHEM_CACTVS_TAUTO_COUNT>
31

> <PUBCHEM_CONFORMER_ID>
002F034C00000001

> <PUBCHEM_MMFF94_ENERGY>
71.5942

> <PUBCHEM_FEATURE_SELFOVERLAP>
52.421

> <PUBCHEM_SHAPE_FINGERPRINT>
10764073 3 15047263384586975590
10863032 1 18116153272710296516
11315181 36 14346377636890056170
11578080 2 18269536313027241864
12236239 1 18342188760003185483
12553582 1 18409443657265799362
12633257 1 17489878124351019523
12714826 92 18264486179026778270
12892183 10 15769775719551320926
13134695 92 18334864951890190733
13140716 1 17561082540273339699
13533116 47 18196933486582733055
13544653 18 18334857190868312966
13583140 156 16485834806144826730
13911987 19 17170994541117520950
14787075 74 18200316640795429328
15309172 13 12175618456198128710
15375462 189 18412827966961887050
16945 1 18263357152136083873
17349148 13 17132112464258867629
17357779 13 17894624846756055655
17980427 23 16056589967950326745
1813 80 18338252474169009950
200 152 17968099673081440778
20361792 2 18409444778130379231
21296965 67 18334860480818412948
21330990 113 17273151102403917254
21731228 192 11599712995842303532
21731516 1 18340197506006829362
22112679 90 18198926750080140088
2255824 54 18268434714065607908
23402539 116 17531813441968243898
23419403 2 18128229269237853456
23526113 38 16588321525872419872
25222932 49 16262900397188537655
3286 77 18272644658342003482
394222 165 16914815009918685776
46194498 28 16588879021734476663
465052 167 18341626940259607635
83771 10 18335706017960334842

> <PUBCHEM_SHAPE_MULTIPOLES>
423.4
7.27
2.32
1.6
2.3
0.73
0.1
-6.06
-0.48
-1.43
0.08
0.58
0.44
-0.57

> <PUBCHEM_SHAPE_SELFOVERLAP>
945.982

> <PUBCHEM_SHAPE_VOLUME>
218.2

> <PUBCHEM_COORDINATE_TYPE>
2
5
10

$$$$
