15703606
  -OEChem-09172005153D

 35 37  0     1  0  0  0  0  0999 V2000
   -1.4392   -1.5162   -0.0629 O   0  0  0  0  0  0  0  0  0  0  0  0
   -1.3506    2.5583    0.4255 O   0  0  0  0  0  0  0  0  0  0  0  0
   -6.1532   -1.4764   -0.5670 O   0  0  0  0  0  0  0  0  0  0  0  0
    4.8063   -1.9878    0.9627 O   0  0  0  0  0  0  0  0  0  0  0  0
    6.0503   -0.6141   -1.1082 O   0  0  0  0  0  0  0  0  0  0  0  0
   -0.0929    0.5122    0.1296 C   0  0  1  0  0  0  0  0  0  0  0  0
    1.0713    1.1530    0.8747 C   0  0  0  0  0  0  0  0  0  0  0  0
   -0.3891   -0.8813    0.6734 C   0  0  0  0  0  0  0  0  0  0  0  0
   -1.3550    1.3449    0.2542 C   0  0  0  0  0  0  0  0  0  0  0  0
   -2.6263    0.6090    0.0848 C   0  0  0  0  0  0  0  0  0  0  0  0
    2.3994    0.6791    0.3479 C   0  0  0  0  0  0  0  0  0  0  0  0
   -2.5939   -0.7782   -0.0841 C   0  0  0  0  0  0  0  0  0  0  0  0
   -3.8437    1.2946    0.0561 C   0  0  0  0  0  0  0  0  0  0  0  0
    2.9933   -0.4451    0.9045 C   0  0  0  0  0  0  0  0  0  0  0  0
    3.0115    1.3733   -0.6865 C   0  0  0  0  0  0  0  0  0  0  0  0
   -3.7798   -1.4765   -0.3173 C   0  0  0  0  0  0  0  0  0  0  0  0
   -5.0279    0.5883   -0.1581 C   0  0  0  0  0  0  0  0  0  0  0  0
   -4.9958   -0.7933   -0.3493 C   0  0  0  0  0  0  0  0  0  0  0  0
    4.2244   -0.8839    0.4167 C   0  0  0  0  0  0  0  0  0  0  0  0
    4.2422    0.9344   -1.1742 C   0  0  0  0  0  0  0  0  0  0  0  0
    4.8487   -0.1942   -0.6226 C   0  0  0  0  0  0  0  0  0  0  0  0
    0.1146    0.4549   -0.9481 H   0  0  0  0  0  0  0  0  0  0  0  0
    1.0025    0.9619    1.9542 H   0  0  0  0  0  0  0  0  0  0  0  0
    1.0467    2.2470    0.7852 H   0  0  0  0  0  0  0  0  0  0  0  0
    0.4803   -1.5360    0.5715 H   0  0  0  0  0  0  0  0  0  0  0  0
   -0.6593   -0.8634    1.7380 H   0  0  0  0  0  0  0  0  0  0  0  0
   -3.8893    2.3721    0.1866 H   0  0  0  0  0  0  0  0  0  0  0  0
    2.5122   -0.9757    1.7219 H   0  0  0  0  0  0  0  0  0  0  0  0
    2.5466    2.2519   -1.1248 H   0  0  0  0  0  0  0  0  0  0  0  0
   -3.7523   -2.5536   -0.4637 H   0  0  0  0  0  0  0  0  0  0  0  0
   -5.9739    1.1225   -0.1833 H   0  0  0  0  0  0  0  0  0  0  0  0
    4.7231    1.4755   -1.9846 H   0  0  0  0  0  0  0  0  0  0  0  0
   -5.9463   -2.4202   -0.6781 H   0  0  0  0  0  0  0  0  0  0  0  0
    4.2314   -2.3341    1.6667 H   0  0  0  0  0  0  0  0  0  0  0  0
    6.3207   -1.4062   -0.6120 H   0  0  0  0  0  0  0  0  0  0  0  0
  1  8  1  0  0  0  0
  1 12  1  0  0  0  0
  2  9  2  0  0  0  0
  3 18  1  0  0  0  0
  3 33  1  0  0  0  0
  4 19  1  0  0  0  0
  4 34  1  0  0  0  0
  5 21  1  0  0  0  0
  5 35  1  0  0  0  0
  6  7  1  0  0  0  0
  6  8  1  0  0  0  0
  6  9  1  0  0  0  0
  6 22  1  0  0  0  0
  7 11  1  0  0  0  0
  7 23  1  0  0  0  0
  7 24  1  0  0  0  0
  8 25  1  0  0  0  0
  8 26  1  0  0  0  0
  9 10  1  0  0  0  0
 10 12  2  0  0  0  0
 10 13  1  0  0  0  0
 11 14  2  0  0  0  0
 11 15  1  0  0  0  0
 12 16  1  0  0  0  0
 13 17  2  0  0  0  0
 13 27  1  0  0  0  0
 14 19  1  0  0  0  0
 14 28  1  0  0  0  0
 15 20  2  0  0  0  0
 15 29  1  0  0  0  0
 16 18  2  0  0  0  0
 16 30  1  0  0  0  0
 17 18  1  0  0  0  0
 17 31  1  0  0  0  0
 19 21  2  0  0  0  0
 20 21  1  0  0  0  0
 20 32  1  0  0  0  0
M  END
> <PUBCHEM_COMPOUND_CID>
15703606

> <PUBCHEM_CONFORMER_RMSD>
0.6

> <PUBCHEM_CONFORMER_DIVERSEORDER>
1
36
34
29
3
37
22
30
31
35
2
12
6
28
24
21
5
26
38
13
23
9
14
32
27
18
10
4
33
15
25
8
7
19
17
11
20
16
39

> <PUBCHEM_MMFF94_PARTIAL_CHARGES>
30
1 -0.36
10 0.09
11 -0.14
12 0.08
13 -0.15
14 -0.15
15 -0.15
16 -0.15
17 -0.15
18 0.08
19 0.08
2 -0.57
20 -0.15
21 0.08
27 0.15
28 0.15
29 0.15
3 -0.53
30 0.15
31 0.15
32 0.15
33 0.45
34 0.45
35 0.45
4 -0.53
5 -0.53
6 0.06
7 0.14
8 0.28
9 0.42

> <PUBCHEM_EFFECTIVE_ROTOR_COUNT>
2.6

> <PUBCHEM_PHARMACOPHORE_FEATURES>
8
1 1 acceptor
1 2 acceptor
1 3 donor
1 4 donor
1 5 donor
6 1 6 8 9 10 12 rings
6 10 12 13 16 17 18 rings
6 11 14 15 19 20 21 rings

> <PUBCHEM_HEAVY_ATOM_COUNT>
21

> <PUBCHEM_ATOM_DEF_STEREO_COUNT>
0

> <PUBCHEM_ATOM_UDEF_STEREO_COUNT>
1

> <PUBCHEM_BOND_DEF_STEREO_COUNT>
0

> <PUBCHEM_BOND_UDEF_STEREO_COUNT>
0

> <PUBCHEM_ISOTOPIC_ATOM_COUNT>
0

> <PUBCHEM_COMPONENT_COUNT>
1

> <PUBCHEM_CACTVS_TAUTO_COUNT>
247

> <PUBCHEM_CONFORMER_ID>
00EF9E3600000001

> <PUBCHEM_MMFF94_ENERGY>
58.8451

> <PUBCHEM_FEATURE_SELFOVERLAP>
40.631

> <PUBCHEM_SHAPE_FINGERPRINT>
10595046 47 18335424573465523028
11128504 68 17894351098515336876
11796584 16 18272937115587188934
12107183 9 17686616840675023992
12166972 35 18041282149076764829
12236239 1 18186519890805009985
12596602 18 12607400005510322679
12670543 26 18334284367343948773
12730499 353 14996285799428455192
12788726 201 18341899541290319432
12954195 1 18201163131109146673
12969540 114 14924220555847953459
13167823 11 18335137587597027754
13288520 33 18272653445998071877
13533116 47 18260827073281540794
13675066 3 14117805716844616329
13862211 1 18342731949466400583
14347332 77 18335696092290881310
14386348 63 17203613670678940612
14528608 73 17894348899344225918
14576447 43 18334860502910310884
15183329 4 18335420144974023495
15196674 1 18411133649797951441
16752209 62 18412257311715499312
17349148 13 18273498983187557613
17804303 29 18273212019406367921
17834072 33 18260831496933961356
17844677 252 17989491839667184409
17857418 61 18409726244854830410
18186145 218 17022896873990233384
18335252 98 17604724398668353739
18681886 176 18342176683509885764
19141452 34 17274819216283284863
200 152 18410009935734024337
20369508 70 18131066065377662352
20374829 77 18272087201656995949
20645477 70 18342179981717598300
21150785 3 16805607009859446247
21267235 1 18412548747539156987
22950370 63 18410857681080103505
2297311 6 18202007615957512285
23175994 123 16702300165831062505
23402539 116 18343017779286728941
23522609 53 18125190279639958873
23559900 14 18342452690329071368
239999 70 18060420236085824924
26918003 58 13973963203378437740
29717793 49 18412552002960649092
3004659 81 18408604756195775374
335352 9 18413103958225372189
351380 3 18343301482908211686
4214541 1 18411419488319250217
44062 13 18059855129426448983
465052 167 18060143192634558535
474 4 17023756761346391924
5104073 3 18343301482997857241
542803 24 17385443219625314085
559249 180 18338792308576938091
59755656 215 18342174445484181119
633830 44 17095521777399898305
67856867 119 18335135453816485376
86090 222 15984287204024885556
960060 61 18113903771173171396

> <PUBCHEM_SHAPE_MULTIPOLES>
402.82
13.45
1.88
0.94
1.03
0.19
-0.04
-4.77
-3.58
-0.5
0.17
0.93
-0.01
-1.02

> <PUBCHEM_SHAPE_SELFOVERLAP>
887.888

> <PUBCHEM_SHAPE_VOLUME>
215.6

> <PUBCHEM_COORDINATE_TYPE>
2
5
10

$$$$
