57391100
  -OEChem-09172004523D

 35 37  0     1  0  0  0  0  0999 V2000
    0.8455    1.0919   -0.8119 O   0  0  0  0  0  0  0  0  0  0  0  0
   -0.8783   -2.1368   -1.0472 O   0  0  0  0  0  0  0  0  0  0  0  0
    1.4531   -2.8500    0.1758 O   0  0  0  0  0  0  0  0  0  0  0  0
    5.3210    2.1918    0.2977 O   0  0  0  0  0  0  0  0  0  0  0  0
   -6.0149    1.3449   -0.2126 O   0  0  0  0  0  0  0  0  0  0  0  0
   -0.1361   -1.1193   -0.3919 C   0  0  2  0  0  0  0  0  0  0  0  0
   -0.8639   -0.7114    0.8879 C   0  0  0  0  0  0  0  0  0  0  0  0
    0.0458    0.0430   -1.3619 C   0  0  0  0  0  0  0  0  0  0  0  0
    1.2398   -1.6656   -0.0560 C   0  0  0  0  0  0  0  0  0  0  0  0
    2.3300   -0.6674    0.0033 C   0  0  0  0  0  0  0  0  0  0  0  0
   -2.2336   -0.1641    0.5956 C   0  0  0  0  0  0  0  0  0  0  0  0
    2.0664    0.6561   -0.3649 C   0  0  0  0  0  0  0  0  0  0  0  0
    3.6017   -1.0360    0.4495 C   0  0  0  0  0  0  0  0  0  0  0  0
    3.0703    1.6190   -0.2522 C   0  0  0  0  0  0  0  0  0  0  0  0
   -2.4059    1.2014    0.3688 C   0  0  0  0  0  0  0  0  0  0  0  0
   -3.3321   -1.0225    0.5509 C   0  0  0  0  0  0  0  0  0  0  0  0
    4.6059   -0.0717    0.5421 C   0  0  0  0  0  0  0  0  0  0  0  0
    4.3399    1.2535    0.1965 C   0  0  0  0  0  0  0  0  0  0  0  0
   -3.6765    1.7086    0.0976 C   0  0  0  0  0  0  0  0  0  0  0  0
   -4.6030   -0.5155    0.2797 C   0  0  0  0  0  0  0  0  0  0  0  0
   -4.7751    0.8501    0.0531 C   0  0  0  0  0  0  0  0  0  0  0  0
   -0.2884    0.0243    1.4646 H   0  0  0  0  0  0  0  0  0  0  0  0
   -0.9674   -1.5785    1.5552 H   0  0  0  0  0  0  0  0  0  0  0  0
   -0.9055    0.4645   -1.7009 H   0  0  0  0  0  0  0  0  0  0  0  0
    0.5235   -0.3059   -2.2902 H   0  0  0  0  0  0  0  0  0  0  0  0
   -1.0123   -2.8668   -0.4186 H   0  0  0  0  0  0  0  0  0  0  0  0
    3.8252   -2.0592    0.7380 H   0  0  0  0  0  0  0  0  0  0  0  0
    2.8612    2.6511   -0.5233 H   0  0  0  0  0  0  0  0  0  0  0  0
   -1.5629    1.8855    0.4120 H   0  0  0  0  0  0  0  0  0  0  0  0
   -3.2131   -2.0882    0.7275 H   0  0  0  0  0  0  0  0  0  0  0  0
    5.5939   -0.3583    0.8923 H   0  0  0  0  0  0  0  0  0  0  0  0
   -3.8047    2.7735   -0.0758 H   0  0  0  0  0  0  0  0  0  0  0  0
   -5.4507   -1.1946    0.2480 H   0  0  0  0  0  0  0  0  0  0  0  0
    4.9642    3.0527    0.0190 H   0  0  0  0  0  0  0  0  0  0  0  0
   -6.6548    0.6124   -0.2046 H   0  0  0  0  0  0  0  0  0  0  0  0
  1  8  1  0  0  0  0
  1 12  1  0  0  0  0
  2  6  1  0  0  0  0
  2 26  1  0  0  0  0
  3  9  2  0  0  0  0
  4 18  1  0  0  0  0
  4 34  1  0  0  0  0
  5 21  1  0  0  0  0
  5 35  1  0  0  0  0
  6  7  1  0  0  0  0
  6  8  1  0  0  0  0
  6  9  1  0  0  0  0
  7 11  1  0  0  0  0
  7 22  1  0  0  0  0
  7 23  1  0  0  0  0
  8 24  1  0  0  0  0
  8 25  1  0  0  0  0
  9 10  1  0  0  0  0
 10 12  2  0  0  0  0
 10 13  1  0  0  0  0
 11 15  2  0  0  0  0
 11 16  1  0  0  0  0
 12 14  1  0  0  0  0
 13 17  2  0  0  0  0
 13 27  1  0  0  0  0
 14 18  2  0  0  0  0
 14 28  1  0  0  0  0
 15 19  1  0  0  0  0
 15 29  1  0  0  0  0
 16 20  2  0  0  0  0
 16 30  1  0  0  0  0
 17 18  1  0  0  0  0
 17 31  1  0  0  0  0
 19 21  2  0  0  0  0
 19 32  1  0  0  0  0
 20 21  1  0  0  0  0
 20 33  1  0  0  0  0
M  END
> <PUBCHEM_COMPOUND_CID>
57391100

> <PUBCHEM_CONFORMER_RMSD>
0.6

> <PUBCHEM_CONFORMER_DIVERSEORDER>
1
6
9
4
7
3
2
5
8

> <PUBCHEM_MMFF94_PARTIAL_CHARGES>
31
1 -0.36
10 0.09
11 -0.14
12 0.08
13 -0.15
14 -0.15
15 -0.15
16 -0.15
17 -0.15
18 0.08
19 -0.15
2 -0.68
20 -0.15
21 0.08
26 0.4
27 0.15
28 0.15
29 0.15
3 -0.57
30 0.15
31 0.15
32 0.15
33 0.15
34 0.45
35 0.45
4 -0.53
5 -0.53
6 0.34
7 0.14
8 0.28
9 0.42

> <PUBCHEM_EFFECTIVE_ROTOR_COUNT>
2.6

> <PUBCHEM_PHARMACOPHORE_FEATURES>
9
1 1 acceptor
1 2 acceptor
1 2 donor
1 3 acceptor
1 4 donor
1 5 donor
6 1 6 8 9 10 12 rings
6 10 12 13 14 17 18 rings
6 11 15 16 19 20 21 rings

> <PUBCHEM_HEAVY_ATOM_COUNT>
21

> <PUBCHEM_ATOM_DEF_STEREO_COUNT>
1

> <PUBCHEM_ATOM_UDEF_STEREO_COUNT>
0

> <PUBCHEM_BOND_DEF_STEREO_COUNT>
0

> <PUBCHEM_BOND_UDEF_STEREO_COUNT>
0

> <PUBCHEM_ISOTOPIC_ATOM_COUNT>
0

> <PUBCHEM_COMPONENT_COUNT>
1

> <PUBCHEM_CACTVS_TAUTO_COUNT>
10

> <PUBCHEM_CONFORMER_ID>
036BB7FC00000001

> <PUBCHEM_MMFF94_ENERGY>
60.6466

> <PUBCHEM_FEATURE_SELFOVERLAP>
45.707

> <PUBCHEM_SHAPE_FINGERPRINT>
10411042 1 17689997830462780754
10493431 412 18337388365852126692
10646746 165 18409736140116621404
11089746 13 18131062766927226744
11370993 70 18408604760026909011
11961588 58 15625647419156075040
12011746 2 18335710394911882742
12107183 9 17759518867964032321
12236239 1 18273210915167158639
12251169 10 18187083992168362786
12507557 5 18186804699267374425
12507560 40 18335710458977793411
12596602 18 17458344181894815504
12633257 1 16371009645554358264
12788726 201 17029399562004197210
128620 24 16630526211449101601
12892183 10 18041001760330939498
13533116 47 17386280974492647107
14178342 30 16950295017818658819
14341114 176 18334020483793744097
14787075 74 18201435934472682979
14790565 3 18043824301828896828
15188451 53 15864646088891235593
15196674 1 18409450292910611273
15209294 21 18339921631978754472
15536298 74 18339647745681832679
17492 89 18409733924600182507
17980427 23 18187088399126634077
1813 80 15719393923544509878
19784866 140 9871752381913266949
200 152 18343579642839881239
20157964 124 18337950096076956245
204376 136 18273216404251498311
20715895 44 18122342372746283049
20739085 24 18113057125892699124
21033648 29 18271518805553519608
21618674 25 18334858315996555971
21713013 43 11743845733212592465
21859007 373 16952520292230679253
22854114 59 18407761438787034944
22950370 63 8718827600230516225
23184049 59 18260266369479567854
23227448 37 18129379474131924380
23402539 116 18408599275875554023
23559900 14 18196372524423852891
296302 2 18413392033880761003
335352 9 18411419497742407654
34934 24 18410571782345061171
350125 39 18335420141539120028
351380 180 18408885139860818497
3545911 37 18335425634416929323
4325135 7 18342454864262459471
4340502 62 17894917313097694795
474 4 18334016107206251561
4921388 177 14764337284693247045
5104073 3 18261402096619672681
7808743 9 18195807603697380928
8272917 22 18339645538179568230
83771 10 8718827578597385227
9709674 26 18335994094771882147
9981440 41 18334580178521061043

> <PUBCHEM_SHAPE_MULTIPOLES>
402.82
10.94
2.22
0.89
4.17
0.44
-0.13
-6.06
1.73
-0.97
-0.08
0.01
0.1
0.06

> <PUBCHEM_SHAPE_SELFOVERLAP>
891.018

> <PUBCHEM_SHAPE_VOLUME>
214.1

> <PUBCHEM_COORDINATE_TYPE>
2
5
10

$$$$
