13846689
  -OEChem-09172004373D

 38 40  0     1  0  0  0  0  0999 V2000
   -1.1255   -1.0557    1.1323 O   0  0  0  0  0  0  0  0  0  0  0  0
   -0.0860   -3.6357   -1.2632 O   0  0  0  0  0  0  0  0  0  0  0  0
    0.7466   -3.9226    1.3958 O   0  0  0  0  0  0  0  0  0  0  0  0
    4.6719    0.9814   -0.1643 O   0  0  0  0  0  0  0  0  0  0  0  0
    3.2590    3.0897    0.9661 O   0  0  0  0  0  0  0  0  0  0  0  0
   -5.1626    1.2628    0.0846 O   0  0  0  0  0  0  0  0  0  0  0  0
    0.1306   -2.4928   -0.4177 C   0  0  1  0  0  0  0  0  0  0  0  0
    0.5490   -1.3392   -1.3609 C   0  0  0  0  0  0  0  0  0  0  0  0
   -1.2001   -2.2185    0.3036 C   0  0  0  0  0  0  0  0  0  0  0  0
    1.2102   -0.1336   -0.7227 C   0  0  0  0  0  0  0  0  0  0  0  0
    1.2307   -2.8745    0.5795 C   0  0  0  0  0  0  0  0  0  0  0  0
    0.4853    0.9386   -0.1533 C   0  0  0  0  0  0  0  0  0  0  0  0
   -0.9889    0.9885   -0.1164 C   0  0  0  0  0  0  0  0  0  0  0  0
   -1.7555    0.0025    0.5252 C   0  0  0  0  0  0  0  0  0  0  0  0
    2.6198   -0.0914   -0.7156 C   0  0  0  0  0  0  0  0  0  0  0  0
    1.2100    2.0120    0.4087 C   0  0  0  0  0  0  0  0  0  0  0  0
    3.3104    0.9803   -0.1544 C   0  0  0  0  0  0  0  0  0  0  0  0
   -1.6794    2.0603   -0.7112 C   0  0  0  0  0  0  0  0  0  0  0  0
    2.6046    2.0332    0.4092 C   0  0  0  0  0  0  0  0  0  0  0  0
   -3.1498    0.0972    0.6100 C   0  0  0  0  0  0  0  0  0  0  0  0
   -3.0731    2.1478   -0.6499 C   0  0  0  0  0  0  0  0  0  0  0  0
   -3.8070    1.1695    0.0149 C   0  0  0  0  0  0  0  0  0  0  0  0
   -0.3116   -1.0143   -1.9618 H   0  0  0  0  0  0  0  0  0  0  0  0
    1.2353   -1.7434   -2.1201 H   0  0  0  0  0  0  0  0  0  0  0  0
   -2.0133   -2.1624   -0.4364 H   0  0  0  0  0  0  0  0  0  0  0  0
   -1.4849   -3.0603    0.9463 H   0  0  0  0  0  0  0  0  0  0  0  0
    1.5035   -2.0419    1.2343 H   0  0  0  0  0  0  0  0  0  0  0  0
    2.1231   -3.2370    0.0585 H   0  0  0  0  0  0  0  0  0  0  0  0
    3.1800   -0.9152   -1.1548 H   0  0  0  0  0  0  0  0  0  0  0  0
   -0.3264   -4.3863   -0.6934 H   0  0  0  0  0  0  0  0  0  0  0  0
    0.6775    2.8472    0.8628 H   0  0  0  0  0  0  0  0  0  0  0  0
   -1.1337    2.8458   -1.2307 H   0  0  0  0  0  0  0  0  0  0  0  0
   -3.7182   -0.6670    1.1340 H   0  0  0  0  0  0  0  0  0  0  0  0
    1.4579   -4.1567    2.0160 H   0  0  0  0  0  0  0  0  0  0  0  0
   -3.5715    2.9913   -1.1205 H   0  0  0  0  0  0  0  0  0  0  0  0
    4.9874    0.1692   -0.5963 H   0  0  0  0  0  0  0  0  0  0  0  0
    4.2161    2.9377    0.8784 H   0  0  0  0  0  0  0  0  0  0  0  0
   -5.4475    2.0679   -0.3811 H   0  0  0  0  0  0  0  0  0  0  0  0
  1  9  1  0  0  0  0
  1 14  1  0  0  0  0
  2  7  1  0  0  0  0
  2 30  1  0  0  0  0
  3 11  1  0  0  0  0
  3 34  1  0  0  0  0
  4 17  1  0  0  0  0
  4 36  1  0  0  0  0
  5 19  1  0  0  0  0
  5 37  1  0  0  0  0
  6 22  1  0  0  0  0
  6 38  1  0  0  0  0
  7  8  1  0  0  0  0
  7  9  1  0  0  0  0
  7 11  1  0  0  0  0
  8 10  1  0  0  0  0
  8 23  1  0  0  0  0
  8 24  1  0  0  0  0
  9 25  1  0  0  0  0
  9 26  1  0  0  0  0
 10 12  1  0  0  0  0
 10 15  2  0  0  0  0
 11 27  1  0  0  0  0
 11 28  1  0  0  0  0
 12 13  1  0  0  0  0
 12 16  2  0  0  0  0
 13 14  2  0  0  0  0
 13 18  1  0  0  0  0
 14 20  1  0  0  0  0
 15 17  1  0  0  0  0
 15 29  1  0  0  0  0
 16 19  1  0  0  0  0
 16 31  1  0  0  0  0
 17 19  2  0  0  0  0
 18 21  2  0  0  0  0
 18 32  1  0  0  0  0
 20 22  2  0  0  0  0
 20 33  1  0  0  0  0
 21 22  1  0  0  0  0
 21 35  1  0  0  0  0
M  END
> <PUBCHEM_COMPOUND_CID>
13846689

> <PUBCHEM_CONFORMER_RMSD>
0.6

> <PUBCHEM_CONFORMER_DIVERSEORDER>
4
7
8
9
6
10
1
2
5
3

> <PUBCHEM_MMFF94_PARTIAL_CHARGES>
30
1 -0.36
10 -0.14
11 0.28
14 0.08
15 -0.15
16 -0.15
17 0.08
18 -0.15
19 0.08
2 -0.68
20 -0.15
21 -0.15
22 0.08
29 0.15
3 -0.68
30 0.4
31 0.15
32 0.15
33 0.15
34 0.4
35 0.15
36 0.45
37 0.45
38 0.45
4 -0.53
5 -0.53
6 -0.53
7 0.28
8 0.14
9 0.28

> <PUBCHEM_EFFECTIVE_ROTOR_COUNT>
1.8

> <PUBCHEM_PHARMACOPHORE_FEATURES>
10
1 1 acceptor
1 2 acceptor
1 2 donor
1 3 acceptor
1 3 donor
1 4 donor
1 5 donor
1 6 donor
6 10 12 15 16 17 19 rings
6 13 14 18 20 21 22 rings

> <PUBCHEM_HEAVY_ATOM_COUNT>
22

> <PUBCHEM_ATOM_DEF_STEREO_COUNT>
0

> <PUBCHEM_ATOM_UDEF_STEREO_COUNT>
1

> <PUBCHEM_BOND_DEF_STEREO_COUNT>
0

> <PUBCHEM_BOND_UDEF_STEREO_COUNT>
0

> <PUBCHEM_ISOTOPIC_ATOM_COUNT>
0

> <PUBCHEM_COMPONENT_COUNT>
1

> <PUBCHEM_CACTVS_TAUTO_COUNT>
85

> <PUBCHEM_CONFORMER_ID>
00D348A100000004

> <PUBCHEM_MMFF94_ENERGY>
84.3551

> <PUBCHEM_FEATURE_SELFOVERLAP>
50.76

> <PUBCHEM_SHAPE_FINGERPRINT>
10411042 1 17474956424307168703
10871710 139 16968029315261345388
10948715 1 18341612654644012365
10967382 1 18338238163216692325
1100329 8 18337948983528075890
11370993 70 18341330071544958769
11578080 2 16590547835324092943
12035759 4 18126818660544282383
12553582 1 17115799812805732103
12592029 89 18337108973333096969
12730499 353 18338242574929041465
12788726 201 17763164139862656762
13004483 165 17478596267308855942
13140716 1 18410577313898922345
13464514 151 18194971729461605077
138480 1 17833831568940547090
15309172 13 18412270561811329233
15490181 7 18411134753367156694
16945 1 18198346160896357781
19049666 15 18046352933453352237
19591789 44 18410856585420162366
20567600 347 18333733498701157155
20645477 70 18196368122677928077
20905425 154 17976542706421440036
21421861 104 17908154182928520097
21524375 3 18411985770971815798
21731228 192 18339084894491384928
2334 1 18195258942593270293
23558518 356 18050278473453030940
23559900 14 18187651241189109244
238 59 18121471615086407621
25 1 18342177726316929557
2748010 2 18194426560777979031
3298306 158 18337388223864946716
33824 294 18410859815710433165
4340502 62 18342746221758594321
474 4 18272375256629651585
495365 180 18271512118563875665
5265222 85 18189352298306141212
58807428 26 18409162242291569505
5895379 119 16767327241992766257
59755656 215 18333733481959196325
6138700 20 18196095443942185854
69090 78 18339640143811329737
7364860 26 18194683665994103607
81228 2 17762326320549878369
84936 182 18196936578289130561

> <PUBCHEM_SHAPE_MULTIPOLES>
417.53
6.28
4.15
1.06
2.81
3.6
-0.04
-5.61
0.31
-1.95
0.6
-0.15
0.48
0.67

> <PUBCHEM_SHAPE_SELFOVERLAP>
917.647

> <PUBCHEM_SHAPE_VOLUME>
223.8

> <PUBCHEM_COORDINATE_TYPE>
2
5
10

$$$$
