71454364
  -OEChem-09172006503D

 39 41  0     1  0  0  0  0  0999 V2000
    1.0338    0.9163   -0.7980 O   0  0  0  0  0  0  0  0  0  0  0  0
   -0.3341   -2.4763   -1.0613 O   0  0  0  0  0  0  0  0  0  0  0  0
    2.0638   -2.9466    0.1505 O   0  0  0  0  0  0  0  0  0  0  0  0
   -3.8224    2.3492   -0.0834 O   0  0  0  0  0  0  0  0  0  0  0  0
    5.3685    2.4798    0.3142 O   0  0  0  0  0  0  0  0  0  0  0  0
   -5.8163    0.4155   -0.1854 O   0  0  0  0  0  0  0  0  0  0  0  0
    0.2964   -1.3913   -0.3976 C   0  0  2  0  0  0  0  0  0  0  0  0
   -0.4673   -1.0759    0.8874 C   0  0  0  0  0  0  0  0  0  0  0  0
    0.3498   -0.2071   -1.3567 C   0  0  0  0  0  0  0  0  0  0  0  0
    1.7239   -1.7898   -0.0694 C   0  0  0  0  0  0  0  0  0  0  0  0
    2.7009   -0.6810   -0.0025 C   0  0  0  0  0  0  0  0  0  0  0  0
   -1.8887   -0.6761    0.6028 C   0  0  0  0  0  0  0  0  0  0  0  0
    2.2957    0.6099   -0.3574 C   0  0  0  0  0  0  0  0  0  0  0  0
    4.0060   -0.9152    0.4380 C   0  0  0  0  0  0  0  0  0  0  0  0
   -2.2067    0.6653    0.3901 C   0  0  0  0  0  0  0  0  0  0  0  0
   -2.8892   -1.6467    0.5507 C   0  0  0  0  0  0  0  0  0  0  0  0
    3.1908    1.6740   -0.2371 C   0  0  0  0  0  0  0  0  0  0  0  0
    4.9012    0.1504    0.5381 C   0  0  0  0  0  0  0  0  0  0  0  0
   -3.5250    1.0361    0.1250 C   0  0  0  0  0  0  0  0  0  0  0  0
    4.4935    1.4426    0.2057 C   0  0  0  0  0  0  0  0  0  0  0  0
   -4.2075   -1.2759    0.2859 C   0  0  0  0  0  0  0  0  0  0  0  0
   -4.5255    0.0656    0.0730 C   0  0  0  0  0  0  0  0  0  0  0  0
   -2.7416    3.2772   -0.0127 C   0  0  0  0  0  0  0  0  0  0  0  0
    0.0286   -0.2901    1.4719 H   0  0  0  0  0  0  0  0  0  0  0  0
   -0.4762   -1.9562    1.5454 H   0  0  0  0  0  0  0  0  0  0  0  0
    0.8595   -0.4939   -2.2891 H   0  0  0  0  0  0  0  0  0  0  0  0
   -0.6422    0.1131   -1.6899 H   0  0  0  0  0  0  0  0  0  0  0  0
   -0.3871   -3.2224   -0.4397 H   0  0  0  0  0  0  0  0  0  0  0  0
    4.3388   -1.9111    0.7162 H   0  0  0  0  0  0  0  0  0  0  0  0
   -1.3932    1.3790    0.4575 H   0  0  0  0  0  0  0  0  0  0  0  0
   -2.6564   -2.6952    0.7164 H   0  0  0  0  0  0  0  0  0  0  0  0
    2.8714    2.6802   -0.4978 H   0  0  0  0  0  0  0  0  0  0  0  0
    5.9153   -0.0317    0.8838 H   0  0  0  0  0  0  0  0  0  0  0  0
   -4.9772   -2.0422    0.2485 H   0  0  0  0  0  0  0  0  0  0  0  0
    4.9206    3.3000    0.0445 H   0  0  0  0  0  0  0  0  0  0  0  0
   -6.3681   -0.3855   -0.1827 H   0  0  0  0  0  0  0  0  0  0  0  0
   -2.3011    3.3084    0.9897 H   0  0  0  0  0  0  0  0  0  0  0  0
   -1.9949    3.0884   -0.7917 H   0  0  0  0  0  0  0  0  0  0  0  0
   -3.1578    4.2713   -0.2070 H   0  0  0  0  0  0  0  0  0  0  0  0
  1  9  1  0  0  0  0
  1 13  1  0  0  0  0
  2  7  1  0  0  0  0
  2 28  1  0  0  0  0
  3 10  2  0  0  0  0
  4 19  1  0  0  0  0
  4 23  1  0  0  0  0
  5 20  1  0  0  0  0
  5 35  1  0  0  0  0
  6 22  1  0  0  0  0
  6 36  1  0  0  0  0
  7  8  1  0  0  0  0
  7  9  1  0  0  0  0
  7 10  1  0  0  0  0
  8 12  1  0  0  0  0
  8 24  1  0  0  0  0
  8 25  1  0  0  0  0
  9 26  1  0  0  0  0
  9 27  1  0  0  0  0
 10 11  1  0  0  0  0
 11 13  2  0  0  0  0
 11 14  1  0  0  0  0
 12 15  2  0  0  0  0
 12 16  1  0  0  0  0
 13 17  1  0  0  0  0
 14 18  2  0  0  0  0
 14 29  1  0  0  0  0
 15 19  1  0  0  0  0
 15 30  1  0  0  0  0
 16 21  2  0  0  0  0
 16 31  1  0  0  0  0
 17 20  2  0  0  0  0
 17 32  1  0  0  0  0
 18 20  1  0  0  0  0
 18 33  1  0  0  0  0
 19 22  2  0  0  0  0
 21 22  1  0  0  0  0
 21 34  1  0  0  0  0
 23 37  1  0  0  0  0
 23 38  1  0  0  0  0
 23 39  1  0  0  0  0
M  END
> <PUBCHEM_COMPOUND_CID>
71454364

> <PUBCHEM_CONFORMER_RMSD>
0.6

> <PUBCHEM_CONFORMER_DIVERSEORDER>
1
15
6
14
20
18
7
27
16
5
25
17
24
9
22
19
13
11
8
10
26
4
12
21
23
3
28
2

> <PUBCHEM_MMFF94_PARTIAL_CHARGES>
32
1 -0.36
10 0.42
11 0.09
12 -0.14
13 0.08
14 -0.15
15 -0.15
16 -0.15
17 -0.15
18 -0.15
19 0.08
2 -0.68
20 0.08
21 -0.15
22 0.08
23 0.28
28 0.4
29 0.15
3 -0.57
30 0.15
31 0.15
32 0.15
33 0.15
34 0.15
35 0.45
36 0.45
4 -0.36
5 -0.53
6 -0.53
7 0.34
8 0.14
9 0.28

> <PUBCHEM_EFFECTIVE_ROTOR_COUNT>
3.6

> <PUBCHEM_PHARMACOPHORE_FEATURES>
10
1 1 acceptor
1 2 acceptor
1 2 donor
1 3 acceptor
1 4 acceptor
1 5 donor
1 6 donor
6 1 7 9 10 11 13 rings
6 11 13 14 17 18 20 rings
6 12 15 16 19 21 22 rings

> <PUBCHEM_HEAVY_ATOM_COUNT>
23

> <PUBCHEM_ATOM_DEF_STEREO_COUNT>
1

> <PUBCHEM_ATOM_UDEF_STEREO_COUNT>
0

> <PUBCHEM_BOND_DEF_STEREO_COUNT>
0

> <PUBCHEM_BOND_UDEF_STEREO_COUNT>
0

> <PUBCHEM_ISOTOPIC_ATOM_COUNT>
0

> <PUBCHEM_COMPONENT_COUNT>
1

> <PUBCHEM_CACTVS_TAUTO_COUNT>
15

> <PUBCHEM_CONFORMER_ID>
04424E9C00000001

> <PUBCHEM_MMFF94_ENERGY>
75.6573

> <PUBCHEM_FEATURE_SELFOVERLAP>
50.783

> <PUBCHEM_SHAPE_FINGERPRINT>
10646746 165 18410016498496702716
10670039 82 18262536856997230228
11370993 70 18409448076760506963
12107183 9 17829883235770286872
12403260 363 18409164415798312853
12596602 18 17168142398648158560
12633257 1 18042396929175952416
12670546 56 18187077351858656170
12760667 363 10809610532860528000
12788726 201 16957058311436303058
12892183 10 18186804711840936346
13965767 371 17245834736892403781
14178342 30 17749119906158894491
14251764 38 18340207367035957009
14341114 176 18261397757953727112
14466204 15 18411131442506943760
14739800 52 18336811079213755632
14790565 3 18117288149974793284
15188451 53 15864924278117984875
15196674 1 18409450288636730000
15256400 18 18336548231166997164
15927050 60 13584400255364047175
17349148 13 17895198839387087655
17492 89 18337394842537092275
17980427 23 18187650262321298309
1813 80 16008466534361889686
20157964 124 18410289186434685935
20715895 44 18050845512263388537
20739085 24 17967813851882325852
21033648 29 18059281128553459960
21315764 268 18335976523796936460
21756936 100 18127123294332812172
21859007 373 17097196239731514565
22950370 63 8790887393133470147
23227448 37 18057603372456285118
23402539 116 18409162247267089983
23559900 14 18125158238703596690
245318 6 17316215919190109652
350125 39 18407759227812710108
351380 180 18409448115478425089
3524813 1 18201434834819072417
3545911 37 18335706026888035403
474 4 17967820465335558138
5104073 3 18261963934065833483
6328613 192 18113912572025514740
7808743 9 18124593335114776520
9709674 26 18338524027950893615
9981440 41 18334297586805309179

> <PUBCHEM_SHAPE_MULTIPOLES>
438.11
10.95
2.92
0.86
0.28
0.93
0.11
5.16
-1.59
0.11
0.07
-0.08
-0.16
0.26

> <PUBCHEM_SHAPE_SELFOVERLAP>
964.07

> <PUBCHEM_SHAPE_VOLUME>
234.6

> <PUBCHEM_COORDINATE_TYPE>
2
5
10

$$$$
