128001
  -OEChem-09172004363D

 32 34  0     0  0  0  0  0  0999 V2000
    1.1468   -1.2668    1.2789 O   0  0  0  0  0  0  0  0  0  0  0  0
   -0.8158   -3.6993    0.1380 O   0  0  0  0  0  0  0  0  0  0  0  0
   -3.4245    2.6175    0.9078 O   0  0  0  0  0  0  0  0  0  0  0  0
   -4.7375    0.3811   -0.0864 O   0  0  0  0  0  0  0  0  0  0  0  0
    5.0822    1.0805   -0.0449 O   0  0  0  0  0  0  0  0  0  0  0  0
   -1.2346   -0.5667   -0.6606 C   0  0  0  0  0  0  0  0  0  0  0  0
   -0.5569    0.5638   -0.1448 C   0  0  0  0  0  0  0  0  0  0  0  0
   -0.5045   -1.7583   -1.2309 C   0  0  0  0  0  0  0  0  0  0  0  0
    0.9160    0.6720   -0.1246 C   0  0  0  0  0  0  0  0  0  0  0  0
    1.7277   -0.2455    0.5672 C   0  0  0  0  0  0  0  0  0  0  0  0
   -1.3267    1.6248    0.3743 C   0  0  0  0  0  0  0  0  0  0  0  0
   -2.6408   -0.6087   -0.6239 C   0  0  0  0  0  0  0  0  0  0  0  0
   -0.1013   -2.7392   -0.1519 C   0  0  0  0  0  0  0  0  0  0  0  0
    1.2122   -2.4946    0.5629 C   0  0  0  0  0  0  0  0  0  0  0  0
    1.5583    1.7222   -0.8047 C   0  0  0  0  0  0  0  0  0  0  0  0
   -2.7208    1.5707    0.3940 C   0  0  0  0  0  0  0  0  0  0  0  0
   -3.3777    0.4529   -0.1035 C   0  0  0  0  0  0  0  0  0  0  0  0
    3.1195   -0.1048    0.6090 C   0  0  0  0  0  0  0  0  0  0  0  0
    2.9497    1.8546   -0.7824 C   0  0  0  0  0  0  0  0  0  0  0  0
    3.7287    0.9439   -0.0735 C   0  0  0  0  0  0  0  0  0  0  0  0
   -1.1409   -2.2883   -1.9511 H   0  0  0  0  0  0  0  0  0  0  0  0
    0.3770   -1.4559   -1.8071 H   0  0  0  0  0  0  0  0  0  0  0  0
   -0.8326    2.5065    0.7806 H   0  0  0  0  0  0  0  0  0  0  0  0
   -3.1666   -1.4810   -1.0076 H   0  0  0  0  0  0  0  0  0  0  0  0
    1.3617   -3.2959    1.2946 H   0  0  0  0  0  0  0  0  0  0  0  0
    2.0368   -2.5530   -0.1585 H   0  0  0  0  0  0  0  0  0  0  0  0
    0.9769    2.4524   -1.3645 H   0  0  0  0  0  0  0  0  0  0  0  0
    3.7177   -0.8158    1.1733 H   0  0  0  0  0  0  0  0  0  0  0  0
    3.4177    2.6762   -1.3180 H   0  0  0  0  0  0  0  0  0  0  0  0
   -4.3281    2.6103    0.5531 H   0  0  0  0  0  0  0  0  0  0  0  0
   -5.0892    0.9865    0.5861 H   0  0  0  0  0  0  0  0  0  0  0  0
    5.4605    0.3632    0.4921 H   0  0  0  0  0  0  0  0  0  0  0  0
  1 10  1  0  0  0  0
  1 14  1  0  0  0  0
  2 13  2  0  0  0  0
  3 16  1  0  0  0  0
  3 30  1  0  0  0  0
  4 17  1  0  0  0  0
  4 31  1  0  0  0  0
  5 20  1  0  0  0  0
  5 32  1  0  0  0  0
  6  7  1  0  0  0  0
  6  8  1  0  0  0  0
  6 12  2  0  0  0  0
  7  9  1  0  0  0  0
  7 11  2  0  0  0  0
  8 13  1  0  0  0  0
  8 21  1  0  0  0  0
  8 22  1  0  0  0  0
  9 10  2  0  0  0  0
  9 15  1  0  0  0  0
 10 18  1  0  0  0  0
 11 16  1  0  0  0  0
 11 23  1  0  0  0  0
 12 17  1  0  0  0  0
 12 24  1  0  0  0  0
 13 14  1  0  0  0  0
 14 25  1  0  0  0  0
 14 26  1  0  0  0  0
 15 19  2  0  0  0  0
 15 27  1  0  0  0  0
 16 17  2  0  0  0  0
 18 20  2  0  0  0  0
 18 28  1  0  0  0  0
 19 20  1  0  0  0  0
 19 29  1  0  0  0  0
M  END
> <PUBCHEM_COMPOUND_CID>
128001

> <PUBCHEM_CONFORMER_RMSD>
0.6

> <PUBCHEM_CONFORMER_DIVERSEORDER>
1
2
3
4

> <PUBCHEM_MMFF94_PARTIAL_CHARGES>
26
1 -0.36
10 0.08
11 -0.15
12 -0.15
13 0.45
14 0.34
15 -0.15
16 0.08
17 0.08
18 -0.15
19 -0.15
2 -0.57
20 0.08
23 0.15
24 0.15
27 0.15
28 0.15
29 0.15
3 -0.53
30 0.45
31 0.45
32 0.45
4 -0.53
5 -0.53
6 -0.14
8 0.2

> <PUBCHEM_EFFECTIVE_ROTOR_COUNT>
0.6

> <PUBCHEM_PHARMACOPHORE_FEATURES>
7
1 1 acceptor
1 2 acceptor
1 3 donor
1 4 donor
1 5 donor
6 6 7 11 12 16 17 rings
6 9 10 15 18 19 20 rings

> <PUBCHEM_HEAVY_ATOM_COUNT>
20

> <PUBCHEM_ATOM_DEF_STEREO_COUNT>
0

> <PUBCHEM_ATOM_UDEF_STEREO_COUNT>
0

> <PUBCHEM_BOND_DEF_STEREO_COUNT>
0

> <PUBCHEM_BOND_UDEF_STEREO_COUNT>
0

> <PUBCHEM_ISOTOPIC_ATOM_COUNT>
0

> <PUBCHEM_COMPONENT_COUNT>
1

> <PUBCHEM_CACTVS_TAUTO_COUNT>
218

> <PUBCHEM_CONFORMER_ID>
0001F40100000001

> <PUBCHEM_MMFF94_ENERGY>
72.3691

> <PUBCHEM_FEATURE_SELFOVERLAP>
35.526

> <PUBCHEM_SHAPE_FINGERPRINT>
10090160 65 18335692837465488703
10382601 240 18119539742769587904
10493431 412 18410008857976885824
10948715 1 18341896272867406526
10967382 1 18410008827605951758
1100329 8 18195246843829114217
12173636 292 18341044211311602565
12236239 1 18408601474276810972
12592029 89 18408327661542511331
12644460 14 17978814323705079873
12788726 201 17758976096009774582
13140716 1 17979069714844020938
13538477 17 18264763440498198572
13836976 161 18260547844255883645
14790565 3 18408329873773234148
15042514 8 18194406821193000855
15279307 12 18334852852982907978
15309172 13 18407477756239481645
15906896 17 18270962474028624023
16752209 62 18272356607917971445
16945 1 18268995456548146902
19591789 44 18265333894160633478
20157964 124 18120369857850534021
20510252 161 18125443261159185507
20645476 183 18336260240714290711
20739085 24 18117283549505097348
21524375 3 18410576197101995108
2334 1 18339068290227082638
23366157 5 18046354028485246991
23402539 116 18200868586309330972
23419403 2 17474731217517531466
23557571 272 17910952775460792296
25147074 1 17915452797660298101
2637199 183 18340215115393790094
2748010 2 16467251728005652838
298252 57 18411983580786486306
3091708 16 9050262173235963803
352729 6 18266465488745659295
404807 14 15690720636552588494
4340502 62 17749114387847897499
43471831 8 18339079289796609183
474 4 18187086169611585652
6138700 20 18052831252112574214
6992083 37 18114462382946230756
7364860 26 18124598582810087188
7832392 63 18264484160714129708
81228 2 17908688876191419041
8272917 22 18264488386951269517
90525 40 18411416219658844380
9709674 26 18201164377023715654

> <PUBCHEM_SHAPE_MULTIPOLES>
382.24
6.73
3.16
0.96
0.97
2.47
0.03
-4.6
-0.26
-0.72
-0.22
0.06
0.06
-1.14

> <PUBCHEM_SHAPE_SELFOVERLAP>
847.569

> <PUBCHEM_SHAPE_VOLUME>
202.6

> <PUBCHEM_COORDINATE_TYPE>
2
5
10

$$$$
