192761
  -OEChem-09172010323D

 55 58  0     1  0  0  0  0  0999 V2000
   -0.4448   -3.4554   -0.8863 O   0  0  0  0  0  0  0  0  0  0  0  0
    2.5646   -2.2130    0.8112 O   0  0  0  0  0  0  0  0  0  0  0  0
   -2.9783    2.3597   -1.1636 O   0  0  0  0  0  0  0  0  0  0  0  0
   -3.9613    1.3993    1.2474 O   0  0  0  0  0  0  0  0  0  0  0  0
    5.4394    1.4255   -0.1337 O   0  0  0  0  0  0  0  0  0  0  0  0
   -0.3941   -4.8961    0.9188 O   0  0  0  0  0  0  0  0  0  0  0  0
   -1.5193    3.7552    0.0214 O   0  0  0  0  0  0  0  0  0  0  0  0
   -5.3771   -0.0389    0.0612 O   0  0  0  0  0  0  0  0  0  0  0  0
    4.3830    2.6897    1.5291 O   0  0  0  0  0  0  0  0  0  0  0  0
    0.3291   -2.5005   -0.1522 C   0  0  1  0  0  0  0  0  0  0  0  0
    0.4848   -1.2215   -1.0229 C   0  0  1  0  0  0  0  0  0  0  0  0
   -0.4465   -2.0971    1.1262 C   0  0  0  0  0  0  0  0  0  0  0  0
   -0.7055   -0.4172   -0.5565 C   0  0  0  0  0  0  0  0  0  0  0  0
   -1.2208   -0.9109    0.6461 C   0  0  0  0  0  0  0  0  0  0  0  0
    1.6844   -3.1254    0.1572 C   0  0  0  0  0  0  0  0  0  0  0  0
    1.8187   -0.5430   -0.8047 C   0  0  0  0  0  0  0  0  0  0  0  0
    2.7601   -1.0575    0.0991 C   0  0  0  0  0  0  0  0  0  0  0  0
   -1.2967    0.6744   -1.1772 C   0  0  0  0  0  0  0  0  0  0  0  0
   -2.3036   -0.3085    1.2677 C   0  0  0  0  0  0  0  0  0  0  0  0
    2.1491    0.6211   -1.5160 C   0  0  0  0  0  0  0  0  0  0  0  0
   -2.3946    1.2827   -0.5644 C   0  0  0  0  0  0  0  0  0  0  0  0
   -2.8923    0.7970    0.6527 C   0  0  0  0  0  0  0  0  0  0  0  0
    3.9636   -0.3877    0.3391 C   0  0  0  0  0  0  0  0  0  0  0  0
   -0.7318   -4.6106   -0.2221 C   0  0  0  0  0  0  0  0  0  0  0  0
    3.3603    1.2790   -1.2926 C   0  0  0  0  0  0  0  0  0  0  0  0
    4.2628    0.7801   -0.3580 C   0  0  0  0  0  0  0  0  0  0  0  0
   -1.5417   -5.5086   -1.1072 C   0  0  0  0  0  0  0  0  0  0  0  0
   -2.4331    3.5937   -0.7766 C   0  0  0  0  0  0  0  0  0  0  0  0
   -5.2031    0.8737    0.8580 C   0  0  0  0  0  0  0  0  0  0  0  0
    5.3767    2.4000    0.8760 C   0  0  0  0  0  0  0  0  0  0  0  0
   -3.1393    4.7102   -1.4872 C   0  0  0  0  0  0  0  0  0  0  0  0
   -6.3099    1.5996    1.5637 C   0  0  0  0  0  0  0  0  0  0  0  0
    6.7172    3.0511    1.0462 C   0  0  0  0  0  0  0  0  0  0  0  0
    0.3714   -1.4744   -2.0849 H   0  0  0  0  0  0  0  0  0  0  0  0
   -1.1511   -2.8312    1.5197 H   0  0  0  0  0  0  0  0  0  0  0  0
    0.2220   -1.7711    1.9305 H   0  0  0  0  0  0  0  0  0  0  0  0
    2.1631   -3.4989   -0.7595 H   0  0  0  0  0  0  0  0  0  0  0  0
    1.6302   -3.9888    0.8221 H   0  0  0  0  0  0  0  0  0  0  0  0
   -0.9193    1.0490   -2.1232 H   0  0  0  0  0  0  0  0  0  0  0  0
   -2.6864   -0.6916    2.2083 H   0  0  0  0  0  0  0  0  0  0  0  0
    1.4642    1.0312   -2.2532 H   0  0  0  0  0  0  0  0  0  0  0  0
    4.6748   -0.7867    1.0585 H   0  0  0  0  0  0  0  0  0  0  0  0
    3.5900    2.1827   -1.8506 H   0  0  0  0  0  0  0  0  0  0  0  0
   -1.7706   -6.4347   -0.5721 H   0  0  0  0  0  0  0  0  0  0  0  0
   -0.9705   -5.7574   -2.0050 H   0  0  0  0  0  0  0  0  0  0  0  0
   -2.4818   -5.0180   -1.3719 H   0  0  0  0  0  0  0  0  0  0  0  0
   -4.1988    4.7054   -1.2195 H   0  0  0  0  0  0  0  0  0  0  0  0
   -2.7055    5.6665   -1.1820 H   0  0  0  0  0  0  0  0  0  0  0  0
   -3.0137    4.5981   -2.5669 H   0  0  0  0  0  0  0  0  0  0  0  0
   -6.2030    1.4748    2.6440 H   0  0  0  0  0  0  0  0  0  0  0  0
   -7.2723    1.1805    1.2568 H   0  0  0  0  0  0  0  0  0  0  0  0
   -6.2871    2.6582    1.2936 H   0  0  0  0  0  0  0  0  0  0  0  0
    7.0082    3.5449    0.1159 H   0  0  0  0  0  0  0  0  0  0  0  0
    6.6574    3.8032    1.8380 H   0  0  0  0  0  0  0  0  0  0  0  0
    7.4581    2.3006    1.3326 H   0  0  0  0  0  0  0  0  0  0  0  0
  1 10  1  0  0  0  0
  1 24  1  0  0  0  0
  2 15  1  0  0  0  0
  2 17  1  0  0  0  0
  3 21  1  0  0  0  0
  3 28  1  0  0  0  0
  4 22  1  0  0  0  0
  4 29  1  0  0  0  0
  5 26  1  0  0  0  0
  5 30  1  0  0  0  0
  6 24  2  0  0  0  0
  7 28  2  0  0  0  0
  8 29  2  0  0  0  0
  9 30  2  0  0  0  0
 10 11  1  0  0  0  0
 10 12  1  0  0  0  0
 10 15  1  0  0  0  0
 11 13  1  0  0  0  0
 11 16  1  0  0  0  0
 11 34  1  0  0  0  0
 12 14  1  0  0  0  0
 12 35  1  0  0  0  0
 12 36  1  0  0  0  0
 13 14  1  0  0  0  0
 13 18  2  0  0  0  0
 14 19  2  0  0  0  0
 15 37  1  0  0  0  0
 15 38  1  0  0  0  0
 16 17  2  0  0  0  0
 16 20  1  0  0  0  0
 17 23  1  0  0  0  0
 18 21  1  0  0  0  0
 18 39  1  0  0  0  0
 19 22  1  0  0  0  0
 19 40  1  0  0  0  0
 20 25  2  0  0  0  0
 20 41  1  0  0  0  0
 21 22  2  0  0  0  0
 23 26  2  0  0  0  0
 23 42  1  0  0  0  0
 24 27  1  0  0  0  0
 25 26  1  0  0  0  0
 25 43  1  0  0  0  0
 27 44  1  0  0  0  0
 27 45  1  0  0  0  0
 27 46  1  0  0  0  0
 28 31  1  0  0  0  0
 29 32  1  0  0  0  0
 30 33  1  0  0  0  0
 31 47  1  0  0  0  0
 31 48  1  0  0  0  0
 31 49  1  0  0  0  0
 32 50  1  0  0  0  0
 32 51  1  0  0  0  0
 32 52  1  0  0  0  0
 33 53  1  0  0  0  0
 33 54  1  0  0  0  0
 33 55  1  0  0  0  0
M  END
> <PUBCHEM_COMPOUND_CID>
192761

> <PUBCHEM_CONFORMER_RMSD>
1

> <PUBCHEM_CONFORMER_DIVERSEORDER>
2
46
40
53
32
37
5
26
51
30
21
27
47
38
39
50
25
43
19
56
14
13
20
42
49
33
9
7
44
55
36
41
28
52
4
54
45
48
34
23
22
18
31
11
24
15
16
29
35
12
8
17
1
10
3
6

> <PUBCHEM_MMFF94_PARTIAL_CHARGES>
38
1 -0.43
10 0.28
11 0.29
12 0.14
13 -0.14
14 -0.14
15 0.28
16 -0.14
17 0.08
18 -0.15
19 -0.15
2 -0.36
20 -0.15
21 0.08
22 0.08
23 -0.15
24 0.66
25 -0.15
26 0.08
27 0.06
28 0.66
29 0.66
3 -0.23
30 0.66
31 0.06
32 0.06
33 0.06
39 0.15
4 -0.23
40 0.15
41 0.15
42 0.15
43 0.15
5 -0.23
6 -0.57
7 -0.57
8 -0.57
9 -0.57

> <PUBCHEM_EFFECTIVE_ROTOR_COUNT>
8.6

> <PUBCHEM_PHARMACOPHORE_FEATURES>
9
1 2 acceptor
1 6 acceptor
1 7 acceptor
1 8 acceptor
1 9 acceptor
5 10 11 12 13 14 rings
6 13 14 18 19 21 22 rings
6 16 17 20 23 25 26 rings
6 2 10 11 15 16 17 rings

> <PUBCHEM_HEAVY_ATOM_COUNT>
33

> <PUBCHEM_ATOM_DEF_STEREO_COUNT>
0

> <PUBCHEM_ATOM_UDEF_STEREO_COUNT>
2

> <PUBCHEM_BOND_DEF_STEREO_COUNT>
0

> <PUBCHEM_BOND_UDEF_STEREO_COUNT>
0

> <PUBCHEM_ISOTOPIC_ATOM_COUNT>
0

> <PUBCHEM_COMPONENT_COUNT>
1

> <PUBCHEM_CACTVS_TAUTO_COUNT>
1

> <PUBCHEM_CONFORMER_ID>
0002F0F900000002

> <PUBCHEM_MMFF94_ENERGY>
112.6049

> <PUBCHEM_FEATURE_SELFOVERLAP>
46.005

> <PUBCHEM_SHAPE_FINGERPRINT>
10074138 170 18191023619355655850
10165383 225 18339374010626611968
10258939 38 17967541138750331665
1100329 8 17832435567579065991
11062273 19 17618221707016724542
12107183 9 18337378389218072906
12633257 1 16515690000177020680
12788726 201 18123459742268197506
13140716 1 17972610049887753276
13583140 156 17907575827243399405
14068700 686 18336831875556288757
14856354 85 16443644432453729106
14955137 171 17833828275218147850
15927050 60 17688898718488172117
18393751 57 18408609183917044449
21033648 29 18411691063871506640
21133410 32 14977675603578431604
21703447 108 17899982630265374635
21927370 108 17758964014562579434
22149856 69 17975169525022959121
22440779 20 14188150396848061949
23559900 14 17688306785936557639
23845131 108 18410577292619777963
255183 313 18268726063525989035
350125 39 18263938647885078446
376196 1 17971744480712147581
469060 322 17833278888750102226
59755656 520 18412548725584370502
6004065 56 18261967336234020705
621550 34 18265063427337751837
6695519 79 18341060623120255817
7399639 24 18263088734424189333
7808743 9 18339357595583399360
9658208 31 18340504343076802622
9981440 41 18335132051379324425

> <PUBCHEM_SHAPE_MULTIPOLES>
626.3
11.32
6.71
1.45
5.63
5.64
0
-15.05
-5.18
-2.5
1.37
-0.37
-0.6
1.28

> <PUBCHEM_SHAPE_SELFOVERLAP>
1373.408

> <PUBCHEM_SHAPE_VOLUME>
333.9

> <PUBCHEM_COORDINATE_TYPE>
2
5
10

$$$$
