23252258
  -OEChem-09172004423D

 46 48  0     1  0  0  0  0  0999 V2000
   -0.6387   -1.0849    0.8891 O   0  0  0  0  0  0  0  0  0  0  0  0
    0.7672    3.4205    0.0347 O   0  0  0  0  0  0  0  0  0  0  0  0
    1.1799   -3.2951    0.8545 O   0  0  0  0  0  0  0  0  0  0  0  0
   -4.8242   -0.9260   -1.8249 O   0  0  0  0  0  0  0  0  0  0  0  0
   -6.4859    0.8503   -0.4793 O   0  0  0  0  0  0  0  0  0  0  0  0
    7.2983    2.1597   -0.9456 O   0  0  0  0  0  0  0  0  0  0  0  0
   -0.1113    1.2118    0.2758 C   0  0  2  0  0  0  0  0  0  0  0  0
   -1.0680    0.2937    1.0736 C   0  0  1  0  0  0  0  0  0  0  0  0
    1.0762    0.3161    0.2300 C   0  0  0  0  0  0  0  0  0  0  0  0
    0.6893   -0.9753    0.5614 C   0  0  0  0  0  0  0  0  0  0  0  0
    0.1168    2.5562    0.9505 C   0  0  0  0  0  0  0  0  0  0  0  0
   -2.5134    0.4399    0.6563 C   0  0  0  0  0  0  0  0  0  0  0  0
    2.3828    0.5854   -0.1392 C   0  0  0  0  0  0  0  0  0  0  0  0
    1.5736   -2.0368    0.5362 C   0  0  0  0  0  0  0  0  0  0  0  0
    3.2985   -0.4704   -0.1578 C   0  0  0  0  0  0  0  0  0  0  0  0
   -3.0134   -0.3164   -0.4036 C   0  0  0  0  0  0  0  0  0  0  0  0
    2.8958   -1.7735    0.1763 C   0  0  0  0  0  0  0  0  0  0  0  0
   -3.3472    1.3312    1.3315 C   0  0  0  0  0  0  0  0  0  0  0  0
   -4.3474   -0.1817   -0.7883 C   0  0  0  0  0  0  0  0  0  0  0  0
   -4.6812    1.4662    0.9466 C   0  0  0  0  0  0  0  0  0  0  0  0
   -5.1814    0.7096   -0.1132 C   0  0  0  0  0  0  0  0  0  0  0  0
    4.6806   -0.2191   -0.5376 C   0  0  0  0  0  0  0  0  0  0  0  0
    2.1698   -4.3240    0.7981 C   0  0  0  0  0  0  0  0  0  0  0  0
    5.2896    0.9855   -0.5197 C   0  0  0  0  0  0  0  0  0  0  0  0
   -3.9068   -1.8132   -2.4616 C   0  0  0  0  0  0  0  0  0  0  0  0
    6.7004    1.0902   -0.9439 C   0  0  0  0  0  0  0  0  0  0  0  0
   -0.4604    1.3542   -0.7560 H   0  0  0  0  0  0  0  0  0  0  0  0
   -0.9865    0.4846    2.1542 H   0  0  0  0  0  0  0  0  0  0  0  0
   -0.8345    3.0241    1.2206 H   0  0  0  0  0  0  0  0  0  0  0  0
    0.7330    2.4657    1.8516 H   0  0  0  0  0  0  0  0  0  0  0  0
    2.6512    1.5945   -0.4305 H   0  0  0  0  0  0  0  0  0  0  0  0
   -2.3237   -0.9836   -0.9078 H   0  0  0  0  0  0  0  0  0  0  0  0
   -2.9709    1.9252    2.1600 H   0  0  0  0  0  0  0  0  0  0  0  0
    3.6536   -2.5509    0.1395 H   0  0  0  0  0  0  0  0  0  0  0  0
    0.8997    4.2708    0.4874 H   0  0  0  0  0  0  0  0  0  0  0  0
   -5.3199    2.1640    1.4815 H   0  0  0  0  0  0  0  0  0  0  0  0
    5.2473   -1.0923   -0.8550 H   0  0  0  0  0  0  0  0  0  0  0  0
    1.6782   -5.2612    1.0787 H   0  0  0  0  0  0  0  0  0  0  0  0
    2.9701   -4.1503    1.5253 H   0  0  0  0  0  0  0  0  0  0  0  0
    2.5547   -4.4548   -0.2189 H   0  0  0  0  0  0  0  0  0  0  0  0
    4.8111    1.9028   -0.1996 H   0  0  0  0  0  0  0  0  0  0  0  0
   -6.9077    1.5093    0.0984 H   0  0  0  0  0  0  0  0  0  0  0  0
   -3.0863   -1.2694   -2.9422 H   0  0  0  0  0  0  0  0  0  0  0  0
   -3.5497   -2.5877   -1.7742 H   0  0  0  0  0  0  0  0  0  0  0  0
   -4.4558   -2.3261   -3.2583 H   0  0  0  0  0  0  0  0  0  0  0  0
    7.1860    0.1523   -1.2607 H   0  0  0  0  0  0  0  0  0  0  0  0
  1  8  1  0  0  0  0
  1 10  1  0  0  0  0
  2 11  1  0  0  0  0
  2 35  1  0  0  0  0
  3 14  1  0  0  0  0
  3 23  1  0  0  0  0
  4 19  1  0  0  0  0
  4 25  1  0  0  0  0
  5 21  1  0  0  0  0
  5 42  1  0  0  0  0
  6 26  2  0  0  0  0
  7  8  1  0  0  0  0
  7  9  1  0  0  0  0
  7 11  1  0  0  0  0
  7 27  1  0  0  0  0
  8 12  1  0  0  0  0
  8 28  1  0  0  0  0
  9 10  2  0  0  0  0
  9 13  1  0  0  0  0
 10 14  1  0  0  0  0
 11 29  1  0  0  0  0
 11 30  1  0  0  0  0
 12 16  2  0  0  0  0
 12 18  1  0  0  0  0
 13 15  2  0  0  0  0
 13 31  1  0  0  0  0
 14 17  2  0  0  0  0
 15 17  1  0  0  0  0
 15 22  1  0  0  0  0
 16 19  1  0  0  0  0
 16 32  1  0  0  0  0
 17 34  1  0  0  0  0
 18 20  2  0  0  0  0
 18 33  1  0  0  0  0
 19 21  2  0  0  0  0
 20 21  1  0  0  0  0
 20 36  1  0  0  0  0
 22 24  2  0  0  0  0
 22 37  1  0  0  0  0
 23 38  1  0  0  0  0
 23 39  1  0  0  0  0
 23 40  1  0  0  0  0
 24 26  1  0  0  0  0
 24 41  1  0  0  0  0
 25 43  1  0  0  0  0
 25 44  1  0  0  0  0
 25 45  1  0  0  0  0
 26 46  1  0  0  0  0
M  END
> <PUBCHEM_COMPOUND_CID>
23252258

> <PUBCHEM_CONFORMER_RMSD>
0.8

> <PUBCHEM_CONFORMER_DIVERSEORDER>
1
15
4
8
17
9
18
10
7
12
6
16
13
14
3
11
5
2

> <PUBCHEM_MMFF94_PARTIAL_CHARGES>
36
1 -0.36
10 0.08
11 0.28
12 -0.14
13 -0.15
14 0.08
15 0.03
16 -0.15
17 -0.15
18 -0.15
19 0.08
2 -0.68
20 -0.15
21 0.08
22 -0.18
23 0.28
24 -0.14
25 0.28
26 0.5
3 -0.36
31 0.15
32 0.15
33 0.15
34 0.15
35 0.4
36 0.15
37 0.15
4 -0.36
41 0.15
42 0.45
46 0.06
5 -0.53
6 -0.57
7 0.14
8 0.42
9 -0.14

> <PUBCHEM_EFFECTIVE_ROTOR_COUNT>
6.6

> <PUBCHEM_PHARMACOPHORE_FEATURES>
10
1 1 acceptor
1 2 acceptor
1 2 donor
1 3 acceptor
1 4 acceptor
1 5 donor
1 6 acceptor
5 1 7 8 9 10 rings
6 12 16 18 19 20 21 rings
6 9 10 13 14 15 17 rings

> <PUBCHEM_HEAVY_ATOM_COUNT>
26

> <PUBCHEM_ATOM_DEF_STEREO_COUNT>
2

> <PUBCHEM_ATOM_UDEF_STEREO_COUNT>
0

> <PUBCHEM_BOND_DEF_STEREO_COUNT>
1

> <PUBCHEM_BOND_UDEF_STEREO_COUNT>
0

> <PUBCHEM_ISOTOPIC_ATOM_COUNT>
0

> <PUBCHEM_COMPONENT_COUNT>
1

> <PUBCHEM_CACTVS_TAUTO_COUNT>
3

> <PUBCHEM_CONFORMER_ID>
0162CD2200000001

> <PUBCHEM_MMFF94_ENERGY>
92.0505

> <PUBCHEM_FEATURE_SELFOVERLAP>
50.852

> <PUBCHEM_SHAPE_FINGERPRINT>
10090160 65 18260271828477933578
10906281 52 18263097573277162552
11135609 187 18407476669523266944
11135926 11 18335136475380385382
12236239 1 18272371923908524945
12293681 160 18343026605634251392
12788726 201 17774163388426301201
12969540 114 18260543468042801060
13257819 101 16588292904484861110
13540713 5 18054234219562642176
13631057 29 18267584787836939647
13911987 19 18261119603540786852
14251764 18 10665232566533726324
14528608 73 18343865532948344984
14767858 380 18411982502913218860
14787075 74 18342741814932420072
14790565 3 18337124422916776344
15537594 2 18272090479118229267
18335252 98 18187090560012310779
18681886 176 17203320147986791433
20511986 3 18271514300312011057
20554085 129 18271515469328911506
21033648 29 16226045553061147695
21054139 6 18341325682193968390
21267235 1 17989205997615464495
21304303 64 18113907065086812989
22393880 68 18131060558976218613
23402539 116 18342181072539291876
23559900 14 16702009898919049249
24771293 8 18201713012131636728
25147074 1 18126852594600599730
2838139 119 16515960475621037724
34797466 226 16128650877555158184
34934 24 18340492179148970035
350125 39 18045518657377609531
4340502 62 16081090381462599656
484989 97 17975137848431550186
504843 32 17677903503378756522
5486654 2 18410301328571118556
7164475 11 17976539416645406656

> <PUBCHEM_SHAPE_MULTIPOLES>
499.85
14.01
3.37
1.38
5.93
2.4
0.6
-6.42
6.92
3.02
-0.86
-1.4
0.52
-2.97

> <PUBCHEM_SHAPE_SELFOVERLAP>
1081.241

> <PUBCHEM_SHAPE_VOLUME>
275.5

> <PUBCHEM_COORDINATE_TYPE>
2
5
10

$$$$
