71463283
  -OEChem-09172004293D

 40 42  0     1  0  0  0  0  0999 V2000
    0.8224    1.3116   -0.8664 O   0  0  0  0  0  0  0  0  0  0  0  0
   -0.9574   -1.8896   -1.2558 O   0  0  0  0  0  0  0  0  0  0  0  0
    1.2503   -2.5043    0.6683 O   0  0  0  0  0  0  0  0  0  0  0  0
    5.2131    2.4153    0.5148 O   0  0  0  0  0  0  0  0  0  0  0  0
   -6.0253    1.4752   -0.0634 O   0  0  0  0  0  0  0  0  0  0  0  0
   -0.1434   -0.9351   -0.5687 C   0  0  2  0  0  0  0  0  0  0  0  0
    1.2547   -1.5542   -0.3941 C   0  0  1  0  0  0  0  0  0  0  0  0
   -0.8329   -0.6023    0.7614 C   0  0  0  0  0  0  0  0  0  0  0  0
   -0.0041    0.3057   -1.4539 C   0  0  0  0  0  0  0  0  0  0  0  0
    2.3048   -0.4974   -0.1553 C   0  0  0  0  0  0  0  0  0  0  0  0
    2.0337    0.8545   -0.4128 C   0  0  0  0  0  0  0  0  0  0  0  0
   -2.2128   -0.0497    0.5426 C   0  0  0  0  0  0  0  0  0  0  0  0
    3.5862   -0.8535    0.2919 C   0  0  0  0  0  0  0  0  0  0  0  0
    3.0052    1.8314   -0.1756 C   0  0  0  0  0  0  0  0  0  0  0  0
   -2.3991    1.3248    0.3964 C   0  0  0  0  0  0  0  0  0  0  0  0
   -3.3077   -0.9119    0.4852 C   0  0  0  0  0  0  0  0  0  0  0  0
    4.5599    0.1217    0.5141 C   0  0  0  0  0  0  0  0  0  0  0  0
    4.2674    1.4638    0.2862 C   0  0  0  0  0  0  0  0  0  0  0  0
    0.6298   -3.7190    0.2742 C   0  0  0  0  0  0  0  0  0  0  0  0
   -3.6802    1.8374    0.1932 C   0  0  0  0  0  0  0  0  0  0  0  0
   -4.5890   -0.3995    0.2819 C   0  0  0  0  0  0  0  0  0  0  0  0
   -4.7753    0.9752    0.1359 C   0  0  0  0  0  0  0  0  0  0  0  0
    1.5507   -2.0589   -1.3258 H   0  0  0  0  0  0  0  0  0  0  0  0
   -0.2427    0.1052    1.3570 H   0  0  0  0  0  0  0  0  0  0  0  0
   -0.9335   -1.4986    1.3863 H   0  0  0  0  0  0  0  0  0  0  0  0
    0.4296    0.0271   -2.4260 H   0  0  0  0  0  0  0  0  0  0  0  0
   -0.9653    0.7534   -1.7229 H   0  0  0  0  0  0  0  0  0  0  0  0
   -1.6965   -1.4237   -1.6813 H   0  0  0  0  0  0  0  0  0  0  0  0
    3.8357   -1.8958    0.4746 H   0  0  0  0  0  0  0  0  0  0  0  0
    2.7734    2.8778   -0.3602 H   0  0  0  0  0  0  0  0  0  0  0  0
   -1.5593    2.0119    0.4525 H   0  0  0  0  0  0  0  0  0  0  0  0
   -3.1779   -1.9849    0.5991 H   0  0  0  0  0  0  0  0  0  0  0  0
    5.5440   -0.1734    0.8680 H   0  0  0  0  0  0  0  0  0  0  0  0
    0.9209   -4.4861    0.9984 H   0  0  0  0  0  0  0  0  0  0  0  0
    0.9608   -4.0540   -0.7138 H   0  0  0  0  0  0  0  0  0  0  0  0
   -0.4591   -3.6421    0.3166 H   0  0  0  0  0  0  0  0  0  0  0  0
   -3.8194    2.9094    0.0829 H   0  0  0  0  0  0  0  0  0  0  0  0
   -5.4338   -1.0818    0.2393 H   0  0  0  0  0  0  0  0  0  0  0  0
    4.8394    3.2884    0.3050 H   0  0  0  0  0  0  0  0  0  0  0  0
   -6.6609    0.7390   -0.0757 H   0  0  0  0  0  0  0  0  0  0  0  0
  1  9  1  0  0  0  0
  1 11  1  0  0  0  0
  2  6  1  0  0  0  0
  2 28  1  0  0  0  0
  3  7  1  0  0  0  0
  3 19  1  0  0  0  0
  4 18  1  0  0  0  0
  4 39  1  0  0  0  0
  5 22  1  0  0  0  0
  5 40  1  0  0  0  0
  6  7  1  0  0  0  0
  6  8  1  0  0  0  0
  6  9  1  0  0  0  0
  7 10  1  0  0  0  0
  7 23  1  0  0  0  0
  8 12  1  0  0  0  0
  8 24  1  0  0  0  0
  8 25  1  0  0  0  0
  9 26  1  0  0  0  0
  9 27  1  0  0  0  0
 10 11  2  0  0  0  0
 10 13  1  0  0  0  0
 11 14  1  0  0  0  0
 12 15  2  0  0  0  0
 12 16  1  0  0  0  0
 13 17  2  0  0  0  0
 13 29  1  0  0  0  0
 14 18  2  0  0  0  0
 14 30  1  0  0  0  0
 15 20  1  0  0  0  0
 15 31  1  0  0  0  0
 16 21  2  0  0  0  0
 16 32  1  0  0  0  0
 17 18  1  0  0  0  0
 17 33  1  0  0  0  0
 19 34  1  0  0  0  0
 19 35  1  0  0  0  0
 19 36  1  0  0  0  0
 20 22  2  0  0  0  0
 20 37  1  0  0  0  0
 21 22  1  0  0  0  0
 21 38  1  0  0  0  0
M  END
> <PUBCHEM_COMPOUND_CID>
71463283

> <PUBCHEM_CONFORMER_RMSD>
0.6

> <PUBCHEM_CONFORMER_DIVERSEORDER>
1
4
7
3
5
2
6

> <PUBCHEM_MMFF94_PARTIAL_CHARGES>
32
1 -0.36
10 -0.14
11 0.08
12 -0.14
13 -0.15
14 -0.15
15 -0.15
16 -0.15
17 -0.15
18 0.08
19 0.28
2 -0.68
20 -0.15
21 -0.15
22 0.08
28 0.4
29 0.15
3 -0.56
30 0.15
31 0.15
32 0.15
33 0.15
37 0.15
38 0.15
39 0.45
4 -0.53
40 0.45
5 -0.53
6 0.28
7 0.42
8 0.14
9 0.28

> <PUBCHEM_EFFECTIVE_ROTOR_COUNT>
3.8

> <PUBCHEM_PHARMACOPHORE_FEATURES>
9
1 1 acceptor
1 2 acceptor
1 2 donor
1 3 acceptor
1 4 donor
1 5 donor
6 1 6 7 9 10 11 rings
6 10 11 13 14 17 18 rings
6 12 15 16 20 21 22 rings

> <PUBCHEM_HEAVY_ATOM_COUNT>
22

> <PUBCHEM_ATOM_DEF_STEREO_COUNT>
2

> <PUBCHEM_ATOM_UDEF_STEREO_COUNT>
0

> <PUBCHEM_BOND_DEF_STEREO_COUNT>
0

> <PUBCHEM_BOND_UDEF_STEREO_COUNT>
0

> <PUBCHEM_ISOTOPIC_ATOM_COUNT>
0

> <PUBCHEM_COMPONENT_COUNT>
1

> <PUBCHEM_CACTVS_TAUTO_COUNT>
6

> <PUBCHEM_CONFORMER_ID>
0442717300000001

> <PUBCHEM_MMFF94_ENERGY>
76.439

> <PUBCHEM_FEATURE_SELFOVERLAP>
45.701

> <PUBCHEM_SHAPE_FINGERPRINT>
10411042 1 17617940227645007682
10493431 412 18337388361462207376
10948715 1 18413389856216531202
11370993 70 18408604768595634171
11578080 2 16300908988903596127
11961588 58 15338541834762248704
12011746 2 18262809471171104286
12107183 9 17761209912610710697
12236239 1 18202279216772644175
12403259 327 16298391291906906416
12596602 18 17530964730191778976
12633257 1 16443349809680207808
12788726 201 17467931000203505154
12892183 10 18113621204794752248
13140716 1 18407755933129799354
14178342 30 17822584879728621323
14466204 15 18410288099534212296
14787075 74 18130222773970606851
14790565 3 18189345717963381644
15188451 53 16081662200708012825
15196674 1 18410857672115616009
15209294 21 18340764957334046116
17349148 13 17821738260154116055
17492 89 18337958870896485459
17980427 23 18114186392996126725
1813 80 15791732992522049814
19784866 9 18412261705445924601
20157964 124 18337387133386475541
20197701 30 18413387656945459698
204376 136 18342740732004445431
20600515 1 16008758999959301277
20715895 44 18051129195085540753
20739085 24 18113901542148571940
21033648 29 18270112538892990872
212916 134 18270104821047269176
21524375 3 18272655670479920854
21618674 25 18334296452880857147
21756936 100 18198336459024113492
21859007 373 16952803949151145965
22854114 59 18407761434418344516
22950370 63 9079122171610881577
23184049 59 18259983803607524750
23227448 37 18129941320263004332
23402539 116 18412258454815142333
23558518 356 17837762696730094932
23559900 14 18195808458000324779
335352 9 18411419502021498726
34934 24 18413105052977490415
350125 39 18335421228097202724
351380 180 18410856568483393097
3545911 37 18335145250467491321
4340502 62 18334301959461785147
474 4 18409451379579567753
5104073 3 18189908530714531561
58807428 26 18261942016874387586
59755656 215 18335988549467449495
59755656 520 18336260245521214222
633830 44 18272090474300717750
67856867 119 18337666404544050411
7364860 26 18266745675285246803
7808743 9 18122625222165133152
8272917 22 18338801100269562811
83771 10 8358259232921641573
9709674 26 18335994064886511131
9981440 41 18335143124242662643
9999458 23 18337113376175968998

> <PUBCHEM_SHAPE_MULTIPOLES>
423.4
10.3
2.82
0.93
5.02
1.88
-0.19
-7.3
2.08
-1.43
0.22
-0.05
0.09
0.08

> <PUBCHEM_SHAPE_SELFOVERLAP>
923.992

> <PUBCHEM_SHAPE_VOLUME>
227.4

> <PUBCHEM_COORDINATE_TYPE>
2
5
10

$$$$
