44443280
  -OEChem-09172004183D

 32 34  0     0  0  0  0  0  0999 V2000
   -1.1188   -1.4336   -0.0539 O   0  0  0  0  0  0  0  0  0  0  0  0
   -1.1803    2.6571    0.2554 O   0  0  0  0  0  0  0  0  0  0  0  0
   -5.8575   -1.6396   -0.0099 O   0  0  0  0  0  0  0  0  0  0  0  0
    6.3079   -1.2426   -0.1240 O   0  0  0  0  0  0  0  0  0  0  0  0
    0.0992    0.6690   -0.0927 C   0  0  0  0  0  0  0  0  0  0  0  0
   -2.3903    0.6426   -0.0016 C   0  0  0  0  0  0  0  0  0  0  0  0
   -0.0540   -0.7009   -0.6705 C   0  0  0  0  0  0  0  0  0  0  0  0
   -2.3085   -0.7530   -0.0467 C   0  0  0  0  0  0  0  0  0  0  0  0
   -1.1540    1.4484    0.0728 C   0  0  0  0  0  0  0  0  0  0  0  0
    1.2664    1.2162    0.2673 C   0  0  0  0  0  0  0  0  0  0  0  0
   -3.6385    1.2714    0.0261 C   0  0  0  0  0  0  0  0  0  0  0  0
    2.5864    0.5727    0.1647 C   0  0  0  0  0  0  0  0  0  0  0  0
   -3.4741   -1.5203   -0.0347 C   0  0  0  0  0  0  0  0  0  0  0  0
   -4.7196   -0.8925   -0.0106 C   0  0  0  0  0  0  0  0  0  0  0  0
   -4.8014    0.5001    0.0156 C   0  0  0  0  0  0  0  0  0  0  0  0
    3.0697   -0.1991    1.2213 C   0  0  0  0  0  0  0  0  0  0  0  0
    3.3539    0.7347   -0.9887 C   0  0  0  0  0  0  0  0  0  0  0  0
    4.3205   -0.8089    1.1245 C   0  0  0  0  0  0  0  0  0  0  0  0
    4.6048    0.1251   -1.0855 C   0  0  0  0  0  0  0  0  0  0  0  0
    5.0881   -0.6468   -0.0290 C   0  0  0  0  0  0  0  0  0  0  0  0
   -0.2469   -0.6383   -1.7497 H   0  0  0  0  0  0  0  0  0  0  0  0
    0.8456   -1.3113   -0.5487 H   0  0  0  0  0  0  0  0  0  0  0  0
    1.3037    2.2210    0.6825 H   0  0  0  0  0  0  0  0  0  0  0  0
   -3.7249    2.3537    0.0630 H   0  0  0  0  0  0  0  0  0  0  0  0
   -3.4068   -2.6054   -0.0519 H   0  0  0  0  0  0  0  0  0  0  0  0
   -5.7707    0.9910    0.0371 H   0  0  0  0  0  0  0  0  0  0  0  0
    2.4829   -0.3345    2.1266 H   0  0  0  0  0  0  0  0  0  0  0  0
    2.9904    1.3333   -1.8204 H   0  0  0  0  0  0  0  0  0  0  0  0
    4.6856   -1.4079    1.9544 H   0  0  0  0  0  0  0  0  0  0  0  0
    5.1979    0.2547   -1.9866 H   0  0  0  0  0  0  0  0  0  0  0  0
   -5.6163   -2.5817   -0.0291 H   0  0  0  0  0  0  0  0  0  0  0  0
    6.4822   -1.7364    0.6956 H   0  0  0  0  0  0  0  0  0  0  0  0
  1  7  1  0  0  0  0
  1  8  1  0  0  0  0
  2  9  2  0  0  0  0
  3 14  1  0  0  0  0
  3 31  1  0  0  0  0
  4 20  1  0  0  0  0
  4 32  1  0  0  0  0
  5  7  1  0  0  0  0
  5  9  1  0  0  0  0
  5 10  2  0  0  0  0
  6  8  2  0  0  0  0
  6  9  1  0  0  0  0
  6 11  1  0  0  0  0
  7 21  1  0  0  0  0
  7 22  1  0  0  0  0
  8 13  1  0  0  0  0
 10 12  1  0  0  0  0
 10 23  1  0  0  0  0
 11 15  2  0  0  0  0
 11 24  1  0  0  0  0
 12 16  2  0  0  0  0
 12 17  1  0  0  0  0
 13 14  2  0  0  0  0
 13 25  1  0  0  0  0
 14 15  1  0  0  0  0
 15 26  1  0  0  0  0
 16 18  1  0  0  0  0
 16 27  1  0  0  0  0
 17 19  2  0  0  0  0
 17 28  1  0  0  0  0
 18 20  2  0  0  0  0
 18 29  1  0  0  0  0
 19 20  1  0  0  0  0
 19 30  1  0  0  0  0
M  END
> <PUBCHEM_COMPOUND_CID>
44443280

> <PUBCHEM_CONFORMER_RMSD>
0.6

> <PUBCHEM_CONFORMER_DIVERSEORDER>
1
2

> <PUBCHEM_MMFF94_PARTIAL_CHARGES>
30
1 -0.36
10 -0.18
11 -0.15
12 0.03
13 -0.15
14 0.08
15 -0.15
16 -0.15
17 -0.15
18 -0.15
19 -0.15
2 -0.57
20 0.08
23 0.15
24 0.15
25 0.15
26 0.15
27 0.15
28 0.15
29 0.15
3 -0.53
30 0.15
31 0.45
32 0.45
4 -0.53
5 -0.12
6 0.09
7 0.42
8 0.08
9 0.47

> <PUBCHEM_EFFECTIVE_ROTOR_COUNT>
1.4

> <PUBCHEM_PHARMACOPHORE_FEATURES>
7
1 1 acceptor
1 2 acceptor
1 3 donor
1 4 donor
6 1 5 6 7 8 9 rings
6 12 16 17 18 19 20 rings
6 6 8 11 13 14 15 rings

> <PUBCHEM_HEAVY_ATOM_COUNT>
20

> <PUBCHEM_ATOM_DEF_STEREO_COUNT>
0

> <PUBCHEM_ATOM_UDEF_STEREO_COUNT>
0

> <PUBCHEM_BOND_DEF_STEREO_COUNT>
1

> <PUBCHEM_BOND_UDEF_STEREO_COUNT>
0

> <PUBCHEM_ISOTOPIC_ATOM_COUNT>
0

> <PUBCHEM_COMPONENT_COUNT>
1

> <PUBCHEM_CACTVS_TAUTO_COUNT>
24

> <PUBCHEM_CONFORMER_ID>
02A6269000000001

> <PUBCHEM_MMFF94_ENERGY>
62.4813

> <PUBCHEM_FEATURE_SELFOVERLAP>
35.553

> <PUBCHEM_SHAPE_FINGERPRINT>
10366900 7 14779266397788093700
11046707 91 18410573994105636017
117890 112 9511463316385692814
12107183 9 17467058657869457064
12236239 1 18113621170936251508
12788726 201 18262796263761749136
13167823 11 18187364332999296778
13288520 33 18411419505635931717
13675066 3 17561078120314193832
13862211 1 18342174509892723183
14386348 63 17561084687899236908
14576447 43 18040151795673626386
15042514 8 18269273642145151831
15048467 5 9511466619426741395
15188451 53 16629950149140056263
15196674 1 18411418435915008721
16752209 62 18337100198709662160
17349148 13 18342178890526918813
17804303 29 18342737429238015393
17834072 33 18113339713039150764
17844677 252 18272092707678949976
1813 80 17749391446996977806
18222031 100 18271239525610746325
18681886 176 18408039628952521272
19141452 34 17417809595147241967
200 152 17530684290634138056
20028762 73 17845650499207645607
20374829 77 18413389843215383413
21033648 29 16486679278076558176
21150785 3 13912325715971934779
21267235 1 18409172129812823115
22646028 1 18259983769131839180
22950370 63 18335142002876227041
2297311 6 18271814501419900852
23175994 123 17060338526371442409
23402539 116 18343860018183807517
23522609 53 18122659186271007841
23559900 14 18340198682875822160
26918003 58 15697997444511167654
3004659 81 18186801383520596660
335352 9 18411135836590562981
34797466 226 17775012319473958684
351380 3 18335419079743266035
4214541 1 18409166584567075181
465052 167 18340493364618284255
474 4 17242183563914546956
5104073 3 18343023323730825609
542803 24 14345792738492657494
559249 180 18335698304341697323
59755656 215 18270117890216064815
8863177 126 17898863610812277243

> <PUBCHEM_SHAPE_MULTIPOLES>
388.11
12.93
1.76
0.89
4.1
0.42
0.03
-5.57
-0.32
-1.38
0.09
0.99
-0.02
-0.44

> <PUBCHEM_SHAPE_SELFOVERLAP>
859.768

> <PUBCHEM_SHAPE_VOLUME>
206.4

> <PUBCHEM_COORDINATE_TYPE>
2
5
10

$$$$
