14522836
  -OEChem-09172004233D

 44 46  0     1  0  0  0  0  0999 V2000
    0.8829   -0.9477    0.9694 O   0  0  0  0  0  0  0  0  0  0  0  0
   -0.3739    2.5163    0.6562 O   0  0  0  0  0  0  0  0  0  0  0  0
    2.2837    2.4213    1.0303 O   0  0  0  0  0  0  0  0  0  0  0  0
    4.8477   -3.0777   -0.4968 O   0  0  0  0  0  0  0  0  0  0  0  0
   -3.9885   -2.2307    0.2018 O   0  0  0  0  0  0  0  0  0  0  0  0
   -5.8826   -0.2186   -0.0932 O   0  0  0  0  0  0  0  0  0  0  0  0
    0.2865    1.3313    0.2069 C   0  0  2  0  0  0  0  0  0  0  0  0
    1.7626    1.6614   -0.0646 C   0  0  2  0  0  0  0  0  0  0  0  0
   -0.4296    0.8594   -1.0663 C   0  0  0  0  0  0  0  0  0  0  0  0
    0.2239    0.2737    1.3138 C   0  0  0  0  0  0  0  0  0  0  0  0
    2.5739    0.3978   -0.1779 C   0  0  0  0  0  0  0  0  0  0  0  0
    2.1032   -0.8094    0.3588 C   0  0  0  0  0  0  0  0  0  0  0  0
   -1.8808    0.5692   -0.8064 C   0  0  0  0  0  0  0  0  0  0  0  0
    3.8263    0.4207   -0.8080 C   0  0  0  0  0  0  0  0  0  0  0  0
    2.8652   -1.9753    0.2444 C   0  0  0  0  0  0  0  0  0  0  0  0
   -2.2662   -0.7081   -0.4193 C   0  0  0  0  0  0  0  0  0  0  0  0
   -2.8206    1.5813   -0.9567 C   0  0  0  0  0  0  0  0  0  0  0  0
    4.5887   -0.7432   -0.9117 C   0  0  0  0  0  0  0  0  0  0  0  0
    4.1075   -1.9406   -0.3872 C   0  0  0  0  0  0  0  0  0  0  0  0
    3.6486    2.7556    0.8260 C   0  0  0  0  0  0  0  0  0  0  0  0
   -3.6136   -0.9777   -0.1785 C   0  0  0  0  0  0  0  0  0  0  0  0
   -4.1677    1.3118   -0.7159 C   0  0  0  0  0  0  0  0  0  0  0  0
   -4.5642    0.0324   -0.3268 C   0  0  0  0  0  0  0  0  0  0  0  0
   -4.0129   -2.5033    1.6016 C   0  0  0  0  0  0  0  0  0  0  0  0
    1.8382    2.2680   -0.9771 H   0  0  0  0  0  0  0  0  0  0  0  0
    0.0461   -0.0267   -1.5043 H   0  0  0  0  0  0  0  0  0  0  0  0
   -0.3657    1.6367   -1.8405 H   0  0  0  0  0  0  0  0  0  0  0  0
    0.6894    0.6603    2.2318 H   0  0  0  0  0  0  0  0  0  0  0  0
   -0.8000    0.0469    1.6258 H   0  0  0  0  0  0  0  0  0  0  0  0
   -0.2543    3.2014   -0.0236 H   0  0  0  0  0  0  0  0  0  0  0  0
    4.2068    1.3189   -1.2849 H   0  0  0  0  0  0  0  0  0  0  0  0
    2.4903   -2.9129    0.6480 H   0  0  0  0  0  0  0  0  0  0  0  0
   -1.5342   -1.5046   -0.3157 H   0  0  0  0  0  0  0  0  0  0  0  0
   -2.5254    2.5813   -1.2619 H   0  0  0  0  0  0  0  0  0  0  0  0
    5.5494   -0.7055   -1.4183 H   0  0  0  0  0  0  0  0  0  0  0  0
    3.8410    3.1445   -0.1784 H   0  0  0  0  0  0  0  0  0  0  0  0
    4.3209    1.9467    1.1222 H   0  0  0  0  0  0  0  0  0  0  0  0
    3.8713    3.5788    1.5145 H   0  0  0  0  0  0  0  0  0  0  0  0
   -4.9034    2.1027   -0.8335 H   0  0  0  0  0  0  0  0  0  0  0  0
    5.6766   -2.8706   -0.9617 H   0  0  0  0  0  0  0  0  0  0  0  0
   -5.9838   -1.1606    0.1271 H   0  0  0  0  0  0  0  0  0  0  0  0
   -4.3629   -3.5292    1.7448 H   0  0  0  0  0  0  0  0  0  0  0  0
   -4.6985   -1.8241    2.1182 H   0  0  0  0  0  0  0  0  0  0  0  0
   -3.0073   -2.4142    2.0247 H   0  0  0  0  0  0  0  0  0  0  0  0
  1 10  1  0  0  0  0
  1 12  1  0  0  0  0
  2  7  1  0  0  0  0
  2 30  1  0  0  0  0
  3  8  1  0  0  0  0
  3 20  1  0  0  0  0
  4 19  1  0  0  0  0
  4 40  1  0  0  0  0
  5 21  1  0  0  0  0
  5 24  1  0  0  0  0
  6 23  1  0  0  0  0
  6 41  1  0  0  0  0
  7  8  1  0  0  0  0
  7  9  1  0  0  0  0
  7 10  1  0  0  0  0
  8 11  1  0  0  0  0
  8 25  1  0  0  0  0
  9 13  1  0  0  0  0
  9 26  1  0  0  0  0
  9 27  1  0  0  0  0
 10 28  1  0  0  0  0
 10 29  1  0  0  0  0
 11 12  2  0  0  0  0
 11 14  1  0  0  0  0
 12 15  1  0  0  0  0
 13 16  2  0  0  0  0
 13 17  1  0  0  0  0
 14 18  2  0  0  0  0
 14 31  1  0  0  0  0
 15 19  2  0  0  0  0
 15 32  1  0  0  0  0
 16 21  1  0  0  0  0
 16 33  1  0  0  0  0
 17 22  2  0  0  0  0
 17 34  1  0  0  0  0
 18 19  1  0  0  0  0
 18 35  1  0  0  0  0
 20 36  1  0  0  0  0
 20 37  1  0  0  0  0
 20 38  1  0  0  0  0
 21 23  2  0  0  0  0
 22 23  1  0  0  0  0
 22 39  1  0  0  0  0
 24 42  1  0  0  0  0
 24 43  1  0  0  0  0
 24 44  1  0  0  0  0
M  END
> <PUBCHEM_COMPOUND_CID>
14522836

> <PUBCHEM_CONFORMER_RMSD>
0.8

> <PUBCHEM_CONFORMER_DIVERSEORDER>
1
7
4
8
2
3
6
5

> <PUBCHEM_MMFF94_PARTIAL_CHARGES>
33
1 -0.36
10 0.28
11 -0.14
12 0.08
13 -0.14
14 -0.15
15 -0.15
16 -0.15
17 -0.15
18 -0.15
19 0.08
2 -0.68
20 0.28
21 0.08
22 -0.15
23 0.08
24 0.28
3 -0.56
30 0.4
31 0.15
32 0.15
33 0.15
34 0.15
35 0.15
39 0.15
4 -0.53
40 0.45
41 0.45
5 -0.36
6 -0.53
7 0.28
8 0.42
9 0.14

> <PUBCHEM_EFFECTIVE_ROTOR_COUNT>
4.8

> <PUBCHEM_PHARMACOPHORE_FEATURES>
10
1 1 acceptor
1 2 acceptor
1 2 donor
1 3 acceptor
1 4 donor
1 5 acceptor
1 6 donor
6 1 7 8 10 11 12 rings
6 11 12 14 15 18 19 rings
6 13 16 17 21 22 23 rings

> <PUBCHEM_HEAVY_ATOM_COUNT>
24

> <PUBCHEM_ATOM_DEF_STEREO_COUNT>
2

> <PUBCHEM_ATOM_UDEF_STEREO_COUNT>
0

> <PUBCHEM_BOND_DEF_STEREO_COUNT>
0

> <PUBCHEM_BOND_UDEF_STEREO_COUNT>
0

> <PUBCHEM_ISOTOPIC_ATOM_COUNT>
0

> <PUBCHEM_COMPONENT_COUNT>
1

> <PUBCHEM_CACTVS_TAUTO_COUNT>
8

> <PUBCHEM_CONFORMER_ID>
00DD99D400000001

> <PUBCHEM_MMFF94_ENERGY>
98.7058

> <PUBCHEM_FEATURE_SELFOVERLAP>
50.783

> <PUBCHEM_SHAPE_FINGERPRINT>
10369192 42 18049432940675538388
1100329 8 16826431412202181095
11370993 144 18413114970167954865
11405975 8 18341895186388627177
11552529 35 17700697534895115247
12107183 9 17985273976103915769
12596602 18 15338539605537663391
12623949 98 18054531345828239527
12633257 1 17489318524593856479
12670546 177 18040442057668258158
12788726 201 17912357628792640473
13224815 77 17676478467251356837
13533116 47 18272928358591762865
13583140 156 17986388000278614789
13911882 115 18191028004458722810
13989917 61 17035585483622330467
14251757 5 18263364681551266533
14341114 176 18410579504891548609
14617045 38 18259991461766731275
14866123 147 17765717919053958777
15188451 53 15553577705068721749
15536298 74 18410287038508004069
17349148 13 15626218052959164821
17804303 29 18409164377533828717
17909252 39 18412832382478170994
17913733 40 17914890070586176096
1813 80 17489310733427878852
18186145 218 17968086504247416357
193927 3 17916313749255365894
200 152 18339642222844325150
20645477 70 18131347535531852708
20681651 13 17273688965564086503
20693207 138 18333728000879196477
21033648 29 12319472003889192323
21065198 57 18411979178629831973
21267235 1 18338804416000035871
21713013 43 17968093092711476471
221357 26 18409163295085921479
221490 88 18409732880542340362
2215653 11 18410002218395114751
22182313 1 18263349421179146445
22393880 68 18113610158165363831
22950370 63 18412548682539439877
23379529 103 18340776935903519702
23557571 272 17894899737574886117
23559900 14 18408035212824496317
2838139 119 15792028791853139726
3004659 81 18187929405215701894
3323516 105 18408038520138867324
3421961 26 18342735217698921560
465052 167 18202847642946648303
4921388 177 16660939836950124507
5104073 3 18410291423928018393
6287921 2 18042409203939673349
9709674 26 18335135453462563723

> <PUBCHEM_SHAPE_MULTIPOLES>
458.69
10.9
3.02
1.14
5.12
0.46
0.2
5.06
-1.5
-1.93
0.76
0.09
-0.03
2.08

> <PUBCHEM_SHAPE_SELFOVERLAP>
998.188

> <PUBCHEM_SHAPE_VOLUME>
248.9

> <PUBCHEM_COORDINATE_TYPE>
2
5
10

$$$$
