13846641
  -OEChem-09172006443D

 38 41  0     1  0  0  0  0  0999 V2000
    0.1066    3.2089   -1.2263 O   0  0  0  0  0  0  0  0  0  0  0  0
    2.4748    1.5762    1.0357 O   0  0  0  0  0  0  0  0  0  0  0  0
   -4.6340   -0.6163    0.7820 O   0  0  0  0  0  0  0  0  0  0  0  0
   -3.5557   -2.0476   -1.3373 O   0  0  0  0  0  0  0  0  0  0  0  0
    4.6448   -2.6259    0.8426 O   0  0  0  0  0  0  0  0  0  0  0  0
    0.5189    2.1925   -0.3062 C   0  0  2  0  0  0  0  0  0  0  0  0
    0.5148    0.8105   -1.0221 C   0  0  2  0  0  0  0  0  0  0  0  0
   -0.4981    2.1175    0.8591 C   0  0  0  0  0  0  0  0  0  0  0  0
   -0.8653    0.3100   -0.6655 C   0  0  0  0  0  0  0  0  0  0  0  0
   -1.4244    1.0427    0.3862 C   0  0  0  0  0  0  0  0  0  0  0  0
    1.9173    2.5645    0.1710 C   0  0  0  0  0  0  0  0  0  0  0  0
    1.6388   -0.0823   -0.5459 C   0  0  0  0  0  0  0  0  0  0  0  0
    2.5281    0.3349    0.4554 C   0  0  0  0  0  0  0  0  0  0  0  0
   -1.5787   -0.7235   -1.2571 C   0  0  0  0  0  0  0  0  0  0  0  0
   -2.6807    0.7390    0.8884 C   0  0  0  0  0  0  0  0  0  0  0  0
    1.8201   -1.3567   -1.1057 C   0  0  0  0  0  0  0  0  0  0  0  0
   -2.8492   -1.0313   -0.7648 C   0  0  0  0  0  0  0  0  0  0  0  0
   -3.3951   -0.3072    0.3042 C   0  0  0  0  0  0  0  0  0  0  0  0
    3.5216   -0.5237    0.9351 C   0  0  0  0  0  0  0  0  0  0  0  0
    2.8265   -2.2067   -0.6426 C   0  0  0  0  0  0  0  0  0  0  0  0
    3.6703   -1.7940    0.3845 C   0  0  0  0  0  0  0  0  0  0  0  0
   -4.7013   -1.5815    1.8292 C   0  0  0  0  0  0  0  0  0  0  0  0
    0.5923    0.9514   -2.1079 H   0  0  0  0  0  0  0  0  0  0  0  0
   -1.0303    3.0640    0.9976 H   0  0  0  0  0  0  0  0  0  0  0  0
   -0.0395    1.8013    1.8017 H   0  0  0  0  0  0  0  0  0  0  0  0
    2.5969    2.7399   -0.6747 H   0  0  0  0  0  0  0  0  0  0  0  0
    1.8859    3.5108    0.7244 H   0  0  0  0  0  0  0  0  0  0  0  0
   -1.1579   -1.2775   -2.0899 H   0  0  0  0  0  0  0  0  0  0  0  0
   -0.7822    2.9841   -1.5499 H   0  0  0  0  0  0  0  0  0  0  0  0
   -3.0997    1.3071    1.7130 H   0  0  0  0  0  0  0  0  0  0  0  0
    1.1765   -1.7033   -1.9096 H   0  0  0  0  0  0  0  0  0  0  0  0
    4.1900   -0.1952    1.7273 H   0  0  0  0  0  0  0  0  0  0  0  0
    2.9372   -3.1906   -1.0906 H   0  0  0  0  0  0  0  0  0  0  0  0
   -3.0272   -2.4356   -2.0557 H   0  0  0  0  0  0  0  0  0  0  0  0
    4.6039   -3.4621    0.3474 H   0  0  0  0  0  0  0  0  0  0  0  0
   -4.2888   -2.5398    1.4981 H   0  0  0  0  0  0  0  0  0  0  0  0
   -5.7520   -1.7264    2.0949 H   0  0  0  0  0  0  0  0  0  0  0  0
   -4.1627   -1.2260    2.7134 H   0  0  0  0  0  0  0  0  0  0  0  0
  1  6  1  0  0  0  0
  1 29  1  0  0  0  0
  2 11  1  0  0  0  0
  2 13  1  0  0  0  0
  3 18  1  0  0  0  0
  3 22  1  0  0  0  0
  4 17  1  0  0  0  0
  4 34  1  0  0  0  0
  5 21  1  0  0  0  0
  5 35  1  0  0  0  0
  6  7  1  0  0  0  0
  6  8  1  0  0  0  0
  6 11  1  0  0  0  0
  7  9  1  0  0  0  0
  7 12  1  0  0  0  0
  7 23  1  0  0  0  0
  8 10  1  0  0  0  0
  8 24  1  0  0  0  0
  8 25  1  0  0  0  0
  9 10  1  0  0  0  0
  9 14  2  0  0  0  0
 10 15  2  0  0  0  0
 11 26  1  0  0  0  0
 11 27  1  0  0  0  0
 12 13  2  0  0  0  0
 12 16  1  0  0  0  0
 13 19  1  0  0  0  0
 14 17  1  0  0  0  0
 14 28  1  0  0  0  0
 15 18  1  0  0  0  0
 15 30  1  0  0  0  0
 16 20  2  0  0  0  0
 16 31  1  0  0  0  0
 17 18  2  0  0  0  0
 19 21  2  0  0  0  0
 19 32  1  0  0  0  0
 20 21  1  0  0  0  0
 20 33  1  0  0  0  0
 22 36  1  0  0  0  0
 22 37  1  0  0  0  0
 22 38  1  0  0  0  0
M  END
> <PUBCHEM_COMPOUND_CID>
13846641

> <PUBCHEM_CONFORMER_RMSD>
0.6

> <PUBCHEM_CONFORMER_DIVERSEORDER>
1
2
3

> <PUBCHEM_MMFF94_PARTIAL_CHARGES>
30
1 -0.68
10 -0.14
11 0.28
12 -0.14
13 0.08
14 -0.15
15 -0.15
16 -0.15
17 0.08
18 0.08
19 -0.15
2 -0.36
20 -0.15
21 0.08
22 0.28
28 0.15
29 0.4
3 -0.36
30 0.15
31 0.15
32 0.15
33 0.15
34 0.45
35 0.45
4 -0.53
5 -0.53
6 0.28
7 0.29
8 0.14
9 -0.14

> <PUBCHEM_EFFECTIVE_ROTOR_COUNT>
1.6

> <PUBCHEM_PHARMACOPHORE_FEATURES>
10
1 1 acceptor
1 1 donor
1 2 acceptor
1 3 acceptor
1 4 donor
1 5 donor
5 6 7 8 9 10 rings
6 12 13 16 19 20 21 rings
6 2 6 7 11 12 13 rings
6 9 10 14 15 17 18 rings

> <PUBCHEM_HEAVY_ATOM_COUNT>
22

> <PUBCHEM_ATOM_DEF_STEREO_COUNT>
2

> <PUBCHEM_ATOM_UDEF_STEREO_COUNT>
0

> <PUBCHEM_BOND_DEF_STEREO_COUNT>
0

> <PUBCHEM_BOND_UDEF_STEREO_COUNT>
0

> <PUBCHEM_ISOTOPIC_ATOM_COUNT>
0

> <PUBCHEM_COMPONENT_COUNT>
1

> <PUBCHEM_CACTVS_TAUTO_COUNT>
26

> <PUBCHEM_CONFORMER_ID>
00D3487100000001

> <PUBCHEM_MMFF94_ENERGY>
81.2267

> <PUBCHEM_FEATURE_SELFOVERLAP>
51.079

> <PUBCHEM_SHAPE_FINGERPRINT>
11578080 2 17968370161405683044
11796584 16 17385714777559890763
12035758 1 18051978013434835905
12251169 10 17917428696473019582
12363563 72 18187369796218978482
12422481 6 17912959126726240977
12553582 1 18342181042052762006
12633257 1 17132110234358919187
12644460 14 18196392491863494297
12714826 92 18120941603284300916
12824470 246 17532930494300661298
13103583 49 18268728133557482883
13140716 1 18343017753078763245
13533116 47 18194404618476327427
13544653 18 18335133189650834582
14787075 74 18333728010355523082
14790565 3 17979631565893411152
15209289 33 18337392621917310690
15375462 189 18341337780900153940
15422964 175 18336552620523450823
15475509 35 17969804023700599803
16945 1 17988646246447814852
17349148 13 17489584589443745373
1813 80 18334305236015131068
19862831 5 11963390747553555279
20291156 8 18411136913709319786
20645477 70 18190723414421835687
21421861 104 18271261498499948057
2255824 54 18121223348385547957
2748010 2 17554618287737800236
3380486 145 18199162101403312493
341906 21 15482406300085956419
392239 28 16910574257973777034
56633871 153 18130227034784743991
7064713 232 17275385400073058771
7097593 13 18271528710032537295
7808743 9 11311183535670286394
7970288 3 18260553285901340179

> <PUBCHEM_SHAPE_MULTIPOLES>
423.4
7.84
3.03
1.38
3.42
1.03
-0.05
-6.96
-3.45
-1.84
0.18
0.71
-0.31
-0.13

> <PUBCHEM_SHAPE_SELFOVERLAP>
951.614

> <PUBCHEM_SHAPE_VOLUME>
225.2

> <PUBCHEM_COORDINATE_TYPE>
2
5
10

$$$$
