101353537
  -OEChem-09172010153D

 72 79  0     1  0  0  0  0  0999 V2000
   -2.2018    1.0335    2.0580 O   0  0  0  0  0  0  0  0  0  0  0  0
    4.0135    1.7755   -1.5639 O   0  0  0  0  0  0  0  0  0  0  0  0
   -1.8787    3.5013   -0.6962 O   0  0  0  0  0  0  0  0  0  0  0  0
    2.3926    0.8576    2.2467 O   0  0  0  0  0  0  0  0  0  0  0  0
    4.7877    2.4148    1.9959 O   0  0  0  0  0  0  0  0  0  0  0  0
   -0.4159    2.3372   -3.0521 O   0  0  0  0  0  0  0  0  0  0  0  0
   -6.2994   -2.8734    0.1597 O   0  0  0  0  0  0  0  0  0  0  0  0
    0.3045   -2.9602    1.9456 O   0  0  0  0  0  0  0  0  0  0  0  0
   -7.8336   -0.5696   -0.0681 O   0  0  0  0  0  0  0  0  0  0  0  0
    2.2425   -3.9070   -1.8184 O   0  0  0  0  0  0  0  0  0  0  0  0
    4.7482   -4.3318   -0.7004 O   0  0  0  0  0  0  0  0  0  0  0  0
   -1.6550    1.0674   -0.8415 C   0  0  1  0  0  0  0  0  0  0  0  0
   -2.1169   -0.2210   -0.0741 C   0  0  2  0  0  0  0  0  0  0  0  0
   -2.3024    2.2689   -0.1080 C   0  0  2  0  0  0  0  0  0  0  0  0
    2.2106    0.7731   -0.2008 C   0  0  2  0  0  0  0  0  0  0  0  0
    2.7392    1.5407    1.0397 C   0  0  2  0  0  0  0  0  0  0  0  0
    4.2649    1.6449    0.9133 C   0  0  2  0  0  0  0  0  0  0  0  0
   -0.1701    1.1902   -0.9862 C   0  0  0  0  0  0  0  0  0  0  0  0
   -3.8330    2.2125   -0.2932 C   0  0  0  0  0  0  0  0  0  0  0  0
    0.6980    0.6880   -0.0942 C   0  0  0  0  0  0  0  0  0  0  0  0
   -3.6588   -0.3276   -0.1101 C   0  0  0  0  0  0  0  0  0  0  0  0
   -1.8966    2.2559    1.3798 C   0  0  0  0  0  0  0  0  0  0  0  0
    2.8724   -0.6168   -0.3045 C   0  0  0  0  0  0  0  0  0  0  0  0
    2.6460    1.5879   -1.4149 C   0  0  0  0  0  0  0  0  0  0  0  0
   -1.6989   -0.0730    1.3886 C   0  0  0  0  0  0  0  0  0  0  0  0
    4.9113    0.2485    0.9775 C   0  0  0  0  0  0  0  0  0  0  0  0
   -4.4479    0.8398   -0.1856 C   0  0  0  0  0  0  0  0  0  0  0  0
    4.5900    2.3782   -0.4015 C   0  0  0  0  0  0  0  0  0  0  0  0
    4.1635   -0.8317    0.2302 C   0  0  0  0  0  0  0  0  0  0  0  0
   -1.4662   -1.4288   -0.7319 C   0  0  0  0  0  0  0  0  0  0  0  0
    0.3422    1.8981   -2.1923 C   0  0  0  0  0  0  0  0  0  0  0  0
    1.8042    2.0752   -2.3324 C   0  0  0  0  0  0  0  0  0  0  0  0
   -4.3118   -1.5685    0.0267 C   0  0  0  0  0  0  0  0  0  0  0  0
   -0.9361   -0.9572    2.0429 C   0  0  0  0  0  0  0  0  0  0  0  0
    2.2540   -1.6679   -1.0081 C   0  0  0  0  0  0  0  0  0  0  0  0
   -5.8492    0.7386   -0.1812 C   0  0  0  0  0  0  0  0  0  0  0  0
   -0.6797   -2.3031   -0.0935 C   0  0  0  0  0  0  0  0  0  0  0  0
    4.7734   -2.0896    0.0962 C   0  0  0  0  0  0  0  0  0  0  0  0
   -0.3849   -2.1410    1.3469 C   0  0  0  0  0  0  0  0  0  0  0  0
   -5.7051   -1.6537    0.0361 C   0  0  0  0  0  0  0  0  0  0  0  0
   -6.4736   -0.5013   -0.0739 C   0  0  0  0  0  0  0  0  0  0  0  0
    2.8759   -2.9106   -1.1383 C   0  0  0  0  0  0  0  0  0  0  0  0
    4.1321   -3.1230   -0.5823 C   0  0  0  0  0  0  0  0  0  0  0  0
    2.4488    1.7290    3.3641 C   0  0  0  0  0  0  0  0  0  0  0  0
   -2.0759    1.0154   -1.8581 H   0  0  0  0  0  0  0  0  0  0  0  0
    2.2913    2.5464    1.0573 H   0  0  0  0  0  0  0  0  0  0  0  0
   -4.0847    2.6054   -1.2886 H   0  0  0  0  0  0  0  0  0  0  0  0
   -4.3126    2.8887    0.4269 H   0  0  0  0  0  0  0  0  0  0  0  0
    0.4421    0.2636    0.8401 H   0  0  0  0  0  0  0  0  0  0  0  0
   -0.8315    2.4873    1.5095 H   0  0  0  0  0  0  0  0  0  0  0  0
   -2.4213    3.0594    1.9114 H   0  0  0  0  0  0  0  0  0  0  0  0
    4.9877   -0.0660    2.0277 H   0  0  0  0  0  0  0  0  0  0  0  0
    5.9428    0.3064    0.6057 H   0  0  0  0  0  0  0  0  0  0  0  0
    5.6754    2.4177   -0.5534 H   0  0  0  0  0  0  0  0  0  0  0  0
    4.2660    3.4270   -0.3480 H   0  0  0  0  0  0  0  0  0  0  0  0
   -1.6733   -1.5991   -1.7868 H   0  0  0  0  0  0  0  0  0  0  0  0
    2.1624    2.6280   -3.1938 H   0  0  0  0  0  0  0  0  0  0  0  0
   -2.2896    4.2277   -0.1968 H   0  0  0  0  0  0  0  0  0  0  0  0
   -3.7326   -2.4823    0.1359 H   0  0  0  0  0  0  0  0  0  0  0  0
   -0.6841   -0.8264    3.0895 H   0  0  0  0  0  0  0  0  0  0  0  0
    1.3217   -1.4904   -1.5326 H   0  0  0  0  0  0  0  0  0  0  0  0
   -6.4495    1.6431   -0.2570 H   0  0  0  0  0  0  0  0  0  0  0  0
    5.7516    2.4747    1.8817 H   0  0  0  0  0  0  0  0  0  0  0  0
   -0.2800   -3.1727   -0.5999 H   0  0  0  0  0  0  0  0  0  0  0  0
    5.7599   -2.2528    0.5256 H   0  0  0  0  0  0  0  0  0  0  0  0
    1.7803    1.3204    4.1287 H   0  0  0  0  0  0  0  0  0  0  0  0
    2.1071    2.7443    3.1398 H   0  0  0  0  0  0  0  0  0  0  0  0
    3.4496    1.7387    3.8014 H   0  0  0  0  0  0  0  0  0  0  0  0
   -5.6115   -3.5579    0.2238 H   0  0  0  0  0  0  0  0  0  0  0  0
   -8.1971    0.3286   -0.1517 H   0  0  0  0  0  0  0  0  0  0  0  0
    1.4028   -3.5679   -2.1725 H   0  0  0  0  0  0  0  0  0  0  0  0
    5.6118   -4.2930   -0.2547 H   0  0  0  0  0  0  0  0  0  0  0  0
  1 22  1  0  0  0  0
  1 25  1  0  0  0  0
  2 24  1  0  0  0  0
  2 28  1  0  0  0  0
  3 14  1  0  0  0  0
  3 58  1  0  0  0  0
  4 16  1  0  0  0  0
  4 44  1  0  0  0  0
  5 17  1  0  0  0  0
  5 63  1  0  0  0  0
  6 31  2  0  0  0  0
  7 40  1  0  0  0  0
  7 69  1  0  0  0  0
  8 39  2  0  0  0  0
  9 41  1  0  0  0  0
  9 70  1  0  0  0  0
 10 42  1  0  0  0  0
 10 71  1  0  0  0  0
 11 43  1  0  0  0  0
 11 72  1  0  0  0  0
 12 13  1  0  0  0  0
 12 14  1  0  0  0  0
 12 18  1  0  0  0  0
 12 45  1  0  0  0  0
 13 21  1  0  0  0  0
 13 25  1  0  0  0  0
 13 30  1  0  0  0  0
 14 19  1  0  0  0  0
 14 22  1  0  0  0  0
 15 16  1  0  0  0  0
 15 20  1  0  0  0  0
 15 23  1  0  0  0  0
 15 24  1  0  0  0  0
 16 17  1  0  0  0  0
 16 46  1  0  0  0  0
 17 26  1  0  0  0  0
 17 28  1  0  0  0  0
 18 20  2  0  0  0  0
 18 31  1  0  0  0  0
 19 27  1  0  0  0  0
 19 47  1  0  0  0  0
 19 48  1  0  0  0  0
 20 49  1  0  0  0  0
 21 27  1  0  0  0  0
 21 33  2  0  0  0  0
 22 50  1  0  0  0  0
 22 51  1  0  0  0  0
 23 29  1  0  0  0  0
 23 35  2  0  0  0  0
 24 32  2  0  0  0  0
 25 34  2  0  0  0  0
 26 29  1  0  0  0  0
 26 52  1  0  0  0  0
 26 53  1  0  0  0  0
 27 36  2  0  0  0  0
 28 54  1  0  0  0  0
 28 55  1  0  0  0  0
 29 38  2  0  0  0  0
 30 37  2  0  0  0  0
 30 56  1  0  0  0  0
 31 32  1  0  0  0  0
 32 57  1  0  0  0  0
 33 40  1  0  0  0  0
 33 59  1  0  0  0  0
 34 39  1  0  0  0  0
 34 60  1  0  0  0  0
 35 42  1  0  0  0  0
 35 61  1  0  0  0  0
 36 41  1  0  0  0  0
 36 62  1  0  0  0  0
 37 39  1  0  0  0  0
 37 64  1  0  0  0  0
 38 43  1  0  0  0  0
 38 65  1  0  0  0  0
 40 41  2  0  0  0  0
 42 43  2  0  0  0  0
 44 66  1  0  0  0  0
 44 67  1  0  0  0  0
 44 68  1  0  0  0  0
M  END
> <PUBCHEM_COMPOUND_CID>
101353537

> <PUBCHEM_CONFORMER_RMSD>
0.8

> <PUBCHEM_CONFORMER_DIVERSEORDER>
1

> <PUBCHEM_MMFF94_PARTIAL_CHARGES>
59
1 -0.36
10 -0.53
11 -0.53
12 0.14
13 0.42
14 0.28
15 0.42
16 0.28
17 0.28
18 -0.12
19 0.14
2 -0.36
20 -0.29
21 -0.14
22 0.28
23 -0.14
24 -0.06
25 -0.06
26 0.14
27 -0.14
28 0.28
29 -0.14
3 -0.68
30 -0.29
31 0.54
32 -0.14
33 -0.15
34 -0.14
35 -0.15
36 -0.15
37 -0.14
38 -0.15
39 0.54
4 -0.56
40 0.08
41 0.08
42 0.08
43 0.08
44 0.28
49 0.15
5 -0.68
56 0.15
57 0.15
58 0.4
59 0.15
6 -0.57
60 0.15
61 0.15
62 0.15
63 0.4
64 0.15
65 0.15
69 0.45
7 -0.53
70 0.45
71 0.45
72 0.45
8 -0.57
9 -0.53

> <PUBCHEM_EFFECTIVE_ROTOR_COUNT>
3.6

> <PUBCHEM_PHARMACOPHORE_FEATURES>
21
1 1 acceptor
1 10 donor
1 11 donor
1 2 acceptor
1 3 acceptor
1 3 donor
1 4 acceptor
1 5 acceptor
1 5 donor
1 6 acceptor
1 7 donor
1 8 acceptor
1 9 donor
6 1 12 13 14 22 25 rings
6 12 13 14 19 21 27 rings
6 13 25 30 34 37 39 rings
6 15 16 17 23 26 29 rings
6 15 18 20 24 31 32 rings
6 2 15 16 17 24 28 rings
6 21 27 33 36 40 41 rings
6 23 29 35 38 42 43 rings

> <PUBCHEM_HEAVY_ATOM_COUNT>
44

> <PUBCHEM_ATOM_DEF_STEREO_COUNT>
6

> <PUBCHEM_ATOM_UDEF_STEREO_COUNT>
0

> <PUBCHEM_BOND_DEF_STEREO_COUNT>
0

> <PUBCHEM_BOND_UDEF_STEREO_COUNT>
0

> <PUBCHEM_ISOTOPIC_ATOM_COUNT>
0

> <PUBCHEM_COMPONENT_COUNT>
1

> <PUBCHEM_CACTVS_TAUTO_COUNT>
169

> <PUBCHEM_CONFORMER_ID>
060A884100000001

> <PUBCHEM_MMFF94_ENERGY>
168.155

> <PUBCHEM_FEATURE_SELFOVERLAP>
109.855

> <PUBCHEM_SHAPE_FINGERPRINT>
10165383 225 18270679896242473384
11443803 9 17824831277117468700
11513181 2 18335998479579492486
11828532 37 17095537217796960362
12107698 1 18337673018677823254
12156800 1 15031783936227207200
12166972 35 18271248192881435154
12422481 6 18336255795243895191
12788726 201 18114749329954349821
13533116 47 18344148081176139270
13583140 156 17703213058010650884
13782708 43 18339359647871073175
13811026 1 18413102849074127334
14725015 67 18114737123609731058
15001296 14 17604712304135529677
15219462 58 17773621435993152554
15361156 5 17969803894423916372
15420108 30 17398676701502922673
15840311 113 18339647742405282441
17349148 13 18187088385930696645
18393751 57 17982151616537291736
19319366 153 17703216442982898720
1979834 28 18410011074216713236
20691752 17 17604158012550983194
22149856 69 18269292278297971371
22393880 68 18116992187666548383
23559900 14 18339919307863669541
244849 19 17913741986930786088
24771750 20 17538857180171726133
25222932 49 17559950103352406767
350125 39 18341334400871707358
404807 14 17620484510441604687
508706 21 17823149925245878699
513532 50 18259700095343097410
5265222 85 18196655323210372060
57527358 35 18058735680438970561
6669772 16 17559091367232418736
77296 10 18342741771834833069

> <PUBCHEM_SHAPE_MULTIPOLES>
840.94
12.81
4.17
2.19
15.04
2.6
0.6
4.06
0.57
-3.4
-1.08
-1.88
-1.25
1.55

> <PUBCHEM_SHAPE_SELFOVERLAP>
1929.306

> <PUBCHEM_SHAPE_VOLUME>
420.1

> <PUBCHEM_COORDINATE_TYPE>
2
5
10

$$$$
