60198001
  -OEChem-09172005103D

 26 28  0     0  0  0  0  0  0999 V2000
   -1.1077    1.9553    0.0009 O   0  0  0  0  0  0  0  0  0  0  0  0
    3.5257   -2.4623    0.0000 O   0  0  0  0  0  0  0  0  0  0  0  0
    4.6605    0.0720   -0.0008 O   0  0  0  0  0  0  0  0  0  0  0  0
    0.7714    3.2463   -0.0011 O   0  0  0  0  0  0  0  0  0  0  0  0
   -5.1679   -0.5427   -0.0014 O   0  0  0  0  0  0  0  0  0  0  0  0
    0.4917   -0.3770    0.0006 C   0  0  0  0  0  0  0  0  0  0  0  0
   -0.9727   -0.4839    0.0007 C   0  0  0  0  0  0  0  0  0  0  0  0
    1.0904    0.8950    0.0002 C   0  0  0  0  0  0  0  0  0  0  0  0
   -1.7310    0.6891    0.0010 C   0  0  0  0  0  0  0  0  0  0  0  0
    1.3479   -1.4943    0.0005 C   0  0  0  0  0  0  0  0  0  0  0  0
   -1.6869   -1.6932    0.0000 C   0  0  0  0  0  0  0  0  0  0  0  0
    2.4871    1.0401   -0.0003 C   0  0  0  0  0  0  0  0  0  0  0  0
    0.2695    2.1296    0.0003 C   0  0  0  0  0  0  0  0  0  0  0  0
    2.7386   -1.3499    0.0001 C   0  0  0  0  0  0  0  0  0  0  0  0
   -3.1284    0.6912    0.0006 C   0  0  0  0  0  0  0  0  0  0  0  0
    3.3079   -0.0833   -0.0003 C   0  0  0  0  0  0  0  0  0  0  0  0
   -3.0880   -1.7116   -0.0005 C   0  0  0  0  0  0  0  0  0  0  0  0
   -3.8080   -0.5204   -0.0004 C   0  0  0  0  0  0  0  0  0  0  0  0
    0.9422   -2.5027    0.0008 H   0  0  0  0  0  0  0  0  0  0  0  0
   -1.1798   -2.6539   -0.0003 H   0  0  0  0  0  0  0  0  0  0  0  0
    2.9395    2.0291   -0.0006 H   0  0  0  0  0  0  0  0  0  0  0  0
   -3.6769    1.6290    0.0006 H   0  0  0  0  0  0  0  0  0  0  0  0
   -3.6027   -2.6692   -0.0013 H   0  0  0  0  0  0  0  0  0  0  0  0
    2.9602   -3.2535    0.0005 H   0  0  0  0  0  0  0  0  0  0  0  0
    4.8718    1.0213   -0.0013 H   0  0  0  0  0  0  0  0  0  0  0  0
   -5.4679   -1.4679   -0.0021 H   0  0  0  0  0  0  0  0  0  0  0  0
  1  9  1  0  0  0  0
  1 13  1  0  0  0  0
  2 14  1  0  0  0  0
  2 24  1  0  0  0  0
  3 16  1  0  0  0  0
  3 25  1  0  0  0  0
  4 13  2  0  0  0  0
  5 18  1  0  0  0  0
  5 26  1  0  0  0  0
  6  7  1  0  0  0  0
  6  8  1  0  0  0  0
  6 10  2  0  0  0  0
  7  9  2  0  0  0  0
  7 11  1  0  0  0  0
  8 12  2  0  0  0  0
  8 13  1  0  0  0  0
  9 15  1  0  0  0  0
 10 14  1  0  0  0  0
 10 19  1  0  0  0  0
 11 17  2  0  0  0  0
 11 20  1  0  0  0  0
 12 16  1  0  0  0  0
 12 21  1  0  0  0  0
 14 16  2  0  0  0  0
 15 18  2  0  0  0  0
 15 22  1  0  0  0  0
 17 18  1  0  0  0  0
 17 23  1  0  0  0  0
M  END
> <PUBCHEM_COMPOUND_CID>
60198001

> <PUBCHEM_CONFORMER_RMSD>
0.4

> <PUBCHEM_CONFORMER_DIVERSEORDER>
1

> <PUBCHEM_MMFF94_PARTIAL_CHARGES>
24
1 -0.23
10 -0.15
11 -0.15
12 -0.15
13 0.63
14 0.08
15 -0.15
16 0.08
17 -0.15
18 0.08
19 0.15
2 -0.53
20 0.15
21 0.15
22 0.15
23 0.15
24 0.45
25 0.45
26 0.45
3 -0.53
4 -0.57
5 -0.53
8 0.09
9 0.08

> <PUBCHEM_EFFECTIVE_ROTOR_COUNT>
0

> <PUBCHEM_PHARMACOPHORE_FEATURES>
7
1 2 donor
1 3 donor
1 4 acceptor
1 5 donor
6 1 6 7 8 9 13 rings
6 6 8 10 12 14 16 rings
6 7 9 11 15 17 18 rings

> <PUBCHEM_HEAVY_ATOM_COUNT>
18

> <PUBCHEM_ATOM_DEF_STEREO_COUNT>
0

> <PUBCHEM_ATOM_UDEF_STEREO_COUNT>
0

> <PUBCHEM_BOND_DEF_STEREO_COUNT>
0

> <PUBCHEM_BOND_UDEF_STEREO_COUNT>
0

> <PUBCHEM_ISOTOPIC_ATOM_COUNT>
0

> <PUBCHEM_COMPONENT_COUNT>
1

> <PUBCHEM_CACTVS_TAUTO_COUNT>
69

> <PUBCHEM_CONFORMER_ID>
03968C7100000001

> <PUBCHEM_MMFF94_ENERGY>
61.3363

> <PUBCHEM_FEATURE_SELFOVERLAP>
35.574

> <PUBCHEM_SHAPE_FINGERPRINT>
10618630 7 18409730621299871926
10967382 1 18410856585520571010
11132069 177 18411132545732705154
11471102 20 18338231669458054517
116883 192 18197784288916437406
11806522 49 18409448115399193343
12032990 46 18410858728640627999
12251169 10 18341897424171881867
12553582 1 18411692197140940430
13140716 1 18051126187885026201
13583140 156 14260780621210398607
138480 1 14663860132154342528
14115302 16 17821739367844540295
15196674 1 18338517439101380679
15442244 35 18412547591712841553
15536298 74 18199467834254811192
16945 1 18338799034548315105
18522853 276 18413388747893175993
19591789 44 16395790060647993549
200 152 18131626799201675327
20510252 161 18270961215676935856
20645477 70 18191296290197580543
21029758 11 18412539903811201785
21267235 1 18410865364354791151
21296965 67 18411135809897475857
21501502 16 18267308625591556856
221490 88 18191311691660439627
2255824 54 18192997251407014684
2334 1 18410855442969424110
23402539 116 18342729694138890087
23463225 33 18411139134159841590
23557571 272 18200602401959252956
23559900 14 18339636866640597776
2748010 2 18339918221236547516
2871803 45 18334854987497361966
3071541 12 18122627416212815733
3091708 16 9211513262968527048
335352 9 18410856564435949685
34934 24 18411411830366051286
5104073 3 18339079289538030363
537710 114 18408610279038674828
7364860 26 18268710699968950441
81228 2 18194136113514249928
84936 182 17698164294063687601
8809292 202 18188212121089606683
9709674 26 18337394962584880947
9981440 41 17329985210462581321

> <PUBCHEM_SHAPE_MULTIPOLES>
341.08
7.43
2.56
0.59
2.03
1.06
0
-2.96
0
-0.96
0
0.02
-0.01
0

> <PUBCHEM_SHAPE_SELFOVERLAP>
769.173

> <PUBCHEM_SHAPE_VOLUME>
178.8

> <PUBCHEM_COORDINATE_TYPE>
2
5
10

$$$$
