13846692
  -OEChem-09172005243D

 36 38  0     1  0  0  0  0  0999 V2000
   -1.0647    1.0414    1.2812 O   0  0  0  0  0  0  0  0  0  0  0  0
    0.1544    3.7003   -0.9473 O   0  0  0  0  0  0  0  0  0  0  0  0
    2.3150    3.5569    0.4658 O   0  0  0  0  0  0  0  0  0  0  0  0
    4.5089   -1.3394   -0.1446 O   0  0  0  0  0  0  0  0  0  0  0  0
    2.9230   -3.4077    0.8161 O   0  0  0  0  0  0  0  0  0  0  0  0
   -5.3107   -0.7620    0.0430 O   0  0  0  0  0  0  0  0  0  0  0  0
    0.2690    2.4797   -0.2048 C   0  0  2  0  0  0  0  0  0  0  0  0
    0.5868    1.3653   -1.2170 C   0  0  0  0  0  0  0  0  0  0  0  0
    1.1530    0.0770   -0.6517 C   0  0  0  0  0  0  0  0  0  0  0  0
   -1.0310    2.2911    0.5870 C   0  0  0  0  0  0  0  0  0  0  0  0
    0.3405   -0.9723   -0.1632 C   0  0  0  0  0  0  0  0  0  0  0  0
   -1.1314   -0.8929   -0.1286 C   0  0  0  0  0  0  0  0  0  0  0  0
   -1.8007    0.1142    0.5857 C   0  0  0  0  0  0  0  0  0  0  0  0
    2.5542   -0.0723   -0.6338 C   0  0  0  0  0  0  0  0  0  0  0  0
    1.4326    2.7410    0.7104 C   0  0  0  0  0  0  0  0  0  0  0  0
    0.9699   -2.1372    0.3238 C   0  0  0  0  0  0  0  0  0  0  0  0
    3.1515   -1.2323   -0.1455 C   0  0  0  0  0  0  0  0  0  0  0  0
   -1.9169   -1.8442   -0.8028 C   0  0  0  0  0  0  0  0  0  0  0  0
    2.3587   -2.2662    0.3328 C   0  0  0  0  0  0  0  0  0  0  0  0
   -3.1974    0.1545    0.6602 C   0  0  0  0  0  0  0  0  0  0  0  0
   -3.3129   -1.7954   -0.7505 C   0  0  0  0  0  0  0  0  0  0  0  0
   -3.9519   -0.7994   -0.0162 C   0  0  0  0  0  0  0  0  0  0  0  0
    1.3027    1.7438   -1.9620 H   0  0  0  0  0  0  0  0  0  0  0  0
   -0.3024    1.1479   -1.8243 H   0  0  0  0  0  0  0  0  0  0  0  0
   -1.1144    3.0774    1.3485 H   0  0  0  0  0  0  0  0  0  0  0  0
   -1.9006    2.4379   -0.0699 H   0  0  0  0  0  0  0  0  0  0  0  0
    3.1883    0.7294   -1.0084 H   0  0  0  0  0  0  0  0  0  0  0  0
    1.4928    2.1105    1.6146 H   0  0  0  0  0  0  0  0  0  0  0  0
    0.3609   -2.9529    0.7120 H   0  0  0  0  0  0  0  0  0  0  0  0
    0.9585    3.8167   -1.4819 H   0  0  0  0  0  0  0  0  0  0  0  0
   -1.4463   -2.6383   -1.3792 H   0  0  0  0  0  0  0  0  0  0  0  0
   -3.6856    0.9308    1.2438 H   0  0  0  0  0  0  0  0  0  0  0  0
   -3.8949   -2.5441   -1.2814 H   0  0  0  0  0  0  0  0  0  0  0  0
    4.7474   -2.2065    0.2270 H   0  0  0  0  0  0  0  0  0  0  0  0
    2.2188   -4.0136    1.1040 H   0  0  0  0  0  0  0  0  0  0  0  0
   -5.5818   -0.0080    0.5944 H   0  0  0  0  0  0  0  0  0  0  0  0
  1 10  1  0  0  0  0
  1 13  1  0  0  0  0
  2  7  1  0  0  0  0
  2 30  1  0  0  0  0
  3 15  2  0  0  0  0
  4 17  1  0  0  0  0
  4 34  1  0  0  0  0
  5 19  1  0  0  0  0
  5 35  1  0  0  0  0
  6 22  1  0  0  0  0
  6 36  1  0  0  0  0
  7  8  1  0  0  0  0
  7 10  1  0  0  0  0
  7 15  1  0  0  0  0
  8  9  1  0  0  0  0
  8 23  1  0  0  0  0
  8 24  1  0  0  0  0
  9 11  1  0  0  0  0
  9 14  2  0  0  0  0
 10 25  1  0  0  0  0
 10 26  1  0  0  0  0
 11 12  1  0  0  0  0
 11 16  2  0  0  0  0
 12 13  2  0  0  0  0
 12 18  1  0  0  0  0
 13 20  1  0  0  0  0
 14 17  1  0  0  0  0
 14 27  1  0  0  0  0
 15 28  1  0  0  0  0
 16 19  1  0  0  0  0
 16 29  1  0  0  0  0
 17 19  2  0  0  0  0
 18 21  2  0  0  0  0
 18 31  1  0  0  0  0
 20 22  2  0  0  0  0
 20 32  1  0  0  0  0
 21 22  1  0  0  0  0
 21 33  1  0  0  0  0
M  END
> <PUBCHEM_COMPOUND_CID>
13846692

> <PUBCHEM_CONFORMER_RMSD>
0.6

> <PUBCHEM_CONFORMER_DIVERSEORDER>
1
3
2
4

> <PUBCHEM_MMFF94_PARTIAL_CHARGES>
30
1 -0.36
10 0.28
13 0.08
14 -0.15
15 0.45
16 -0.15
17 0.08
18 -0.15
19 0.08
2 -0.68
20 -0.15
21 -0.15
22 0.08
27 0.15
28 0.06
29 0.15
3 -0.57
30 0.4
31 0.15
32 0.15
33 0.15
34 0.45
35 0.45
36 0.45
4 -0.53
5 -0.53
6 -0.53
7 0.34
8 0.14
9 -0.14

> <PUBCHEM_EFFECTIVE_ROTOR_COUNT>
1.8

> <PUBCHEM_PHARMACOPHORE_FEATURES>
9
1 1 acceptor
1 2 acceptor
1 2 donor
1 3 acceptor
1 4 donor
1 5 donor
1 6 donor
6 12 13 18 20 21 22 rings
6 9 11 14 16 17 19 rings

> <PUBCHEM_HEAVY_ATOM_COUNT>
22

> <PUBCHEM_ATOM_DEF_STEREO_COUNT>
1

> <PUBCHEM_ATOM_UDEF_STEREO_COUNT>
0

> <PUBCHEM_BOND_DEF_STEREO_COUNT>
0

> <PUBCHEM_BOND_UDEF_STEREO_COUNT>
0

> <PUBCHEM_ISOTOPIC_ATOM_COUNT>
0

> <PUBCHEM_COMPONENT_COUNT>
1

> <PUBCHEM_CACTVS_TAUTO_COUNT>
85

> <PUBCHEM_CONFORMER_ID>
00D348A400000001

> <PUBCHEM_MMFF94_ENERGY>
77.6353

> <PUBCHEM_FEATURE_SELFOVERLAP>
45.689

> <PUBCHEM_SHAPE_FINGERPRINT>
10967382 1 18339363092402702356
10989021 7 18413389847346846425
1100329 8 18338796848573998514
11370993 70 17619340348249079025
11578080 2 18198318728745579369
11680986 33 18193844974845396426
12553582 1 18411411782995200406
12643181 29 16609978237708826486
12788726 201 18118123563514801458
13004483 165 18193264213773589171
13132413 78 18412827971240737797
13134695 92 18408037416485110615
13140716 1 18194971965542109026
138480 1 18411136956754074600
13965767 371 17337056809658618411
14181834 199 18341340001699101989
14787075 74 18335709355883205478
14790565 3 18048603904349399260
14955137 171 17982771568837274563
15042514 8 17834114147781953123
16945 1 18412823581678588039
17980427 23 17703507701747149921
1813 80 18341906146865767463
19591789 44 16394367971154496699
19765921 60 17767126780096072319
20510252 161 18124597470899023250
20905425 154 17986681565345586205
21267235 1 18339935843672661343
21524375 3 17551235498607535957
22112679 90 18270419190803920519
2255824 54 18265339593091430151
2334 1 17836376212498540181
23388829 49 18337680728038104950
23402539 116 18272365326480504063
23419403 2 18117250658329216004
23557571 272 18129668474450831742
23559900 14 18201154450948313554
25147074 1 17680438741322595038
257057 1 18337389314443826217
2748010 2 16103627818130868141
3091708 16 9357310699507705632
34934 24 18264773155756459083
352729 6 17474103198777297214
474 4 18049156962918388141
5104073 3 18198355129452983651
58807428 26 18052529173454687752
5895379 119 16270272321951790905
7364860 26 18269837677986015095
7471813 234 18201144534069151055
81228 2 18126298449446400219
84936 182 17984141736445594313
90316 7 18123751958909557963
9981440 41 17475227380549782216

> <PUBCHEM_SHAPE_MULTIPOLES>
417.53
6.43
4.07
0.98
4.2
2.7
0.05
-4.34
-0.18
-3.31
-0.33
0.04
0.2
-0.7

> <PUBCHEM_SHAPE_SELFOVERLAP>
922.648

> <PUBCHEM_SHAPE_VOLUME>
221.2

> <PUBCHEM_COORDINATE_TYPE>
2
5
10

$$$$
