643387
  -OEChem-09172005033D

 17 17  0     0  0  0  0  0  0999 V2000
   -1.4249   -2.2925   -0.0008 O   0  0  0  0  0  0  0  0  0  0  0  0
    2.0479    1.9913   -0.0003 O   0  0  0  0  0  0  0  0  0  0  0  0
    3.0265   -0.6102    0.0000 O   0  0  0  0  0  0  0  0  0  0  0  0
   -2.9994    1.4592    0.0000 O   0  0  0  0  0  0  0  0  0  0  0  0
   -1.0677    0.0796    0.0004 C   0  0  0  0  0  0  0  0  0  0  0  0
   -0.5766   -1.2259    0.0005 C   0  0  0  0  0  0  0  0  0  0  0  0
   -0.1827    1.1578    0.0001 C   0  0  0  0  0  0  0  0  0  0  0  0
    1.1935    0.9303   -0.0002 C   0  0  0  0  0  0  0  0  0  0  0  0
    1.6847   -0.3752    0.0000 C   0  0  0  0  0  0  0  0  0  0  0  0
    0.7997   -1.4533    0.0004 C   0  0  0  0  0  0  0  0  0  0  0  0
   -2.5008    0.3389    0.0000 C   0  0  0  0  0  0  0  0  0  0  0  0
   -0.5559    2.1793    0.0000 H   0  0  0  0  0  0  0  0  0  0  0  0
    1.1904   -2.4680    0.0002 H   0  0  0  0  0  0  0  0  0  0  0  0
   -3.1608   -0.5446   -0.0001 H   0  0  0  0  0  0  0  0  0  0  0  0
   -0.9037   -3.1137   -0.0009 H   0  0  0  0  0  0  0  0  0  0  0  0
    1.5312    2.8154   -0.0004 H   0  0  0  0  0  0  0  0  0  0  0  0
    3.4871    0.2469   -0.0003 H   0  0  0  0  0  0  0  0  0  0  0  0
  1  6  1  0  0  0  0
  1 15  1  0  0  0  0
  2  8  1  0  0  0  0
  2 16  1  0  0  0  0
  3  9  1  0  0  0  0
  3 17  1  0  0  0  0
  4 11  2  0  0  0  0
  5  6  1  0  0  0  0
  5  7  2  0  0  0  0
  5 11  1  0  0  0  0
  6 10  2  0  0  0  0
  7  8  1  0  0  0  0
  7 12  1  0  0  0  0
  8  9  2  0  0  0  0
  9 10  1  0  0  0  0
 10 13  1  0  0  0  0
 11 14  1  0  0  0  0
M  END
> <PUBCHEM_COMPOUND_CID>
643387

> <PUBCHEM_CONFORMER_RMSD>
0.4

> <PUBCHEM_CONFORMER_DIVERSEORDER>
1
2

> <PUBCHEM_MMFF94_PARTIAL_CHARGES>
17
1 -0.53
10 -0.15
11 0.42
12 0.15
13 0.15
14 0.06
15 0.45
16 0.45
17 0.45
2 -0.53
3 -0.53
4 -0.57
5 0.09
6 0.08
7 -0.15
8 0.08
9 0.08

> <PUBCHEM_EFFECTIVE_ROTOR_COUNT>
1

> <PUBCHEM_PHARMACOPHORE_FEATURES>
5
1 1 donor
1 2 donor
1 3 donor
1 4 acceptor
6 5 6 7 8 9 10 rings

> <PUBCHEM_HEAVY_ATOM_COUNT>
11

> <PUBCHEM_ATOM_DEF_STEREO_COUNT>
0

> <PUBCHEM_ATOM_UDEF_STEREO_COUNT>
0

> <PUBCHEM_BOND_DEF_STEREO_COUNT>
0

> <PUBCHEM_BOND_UDEF_STEREO_COUNT>
0

> <PUBCHEM_ISOTOPIC_ATOM_COUNT>
0

> <PUBCHEM_COMPONENT_COUNT>
1

> <PUBCHEM_CACTVS_TAUTO_COUNT>
22

> <PUBCHEM_CONFORMER_ID>
0009D13B00000001

> <PUBCHEM_MMFF94_ENERGY>
25.6241

> <PUBCHEM_FEATURE_SELFOVERLAP>
25.376

> <PUBCHEM_SHAPE_FINGERPRINT>
12423570 1 10933078898295391923
13380535 21 18266192797024509060
14325111 11 18410856564320132069
16945 1 18410575041745093446
193761 8 18266740375215956038
19973954 147 18266177416667286428
21040471 1 18410574011016291393
21501502 16 18338796852567713790
23235685 24 18340481162626407832
23402655 69 18051676760650633629
23552423 10 18189052173774478166
23559900 14 18342750607336831612
241688 4 17403745449626318234
2748010 2 18339081626137284654
5084963 1 18130783421826780209
528886 8 18339073770721215089

> <PUBCHEM_SHAPE_MULTIPOLES>
202.9
3.63
2.05
0.58
0.46
0.31
0
-0.97
0
0.11
0
0.01
0.01
0

> <PUBCHEM_SHAPE_SELFOVERLAP>
431.414

> <PUBCHEM_SHAPE_VOLUME>
113

> <PUBCHEM_COORDINATE_TYPE>
2
5
10

$$$$
