127260
  -OEChem-09172004163D

 39 42  0     1  0  0  0  0  0999 V2000
   -1.0653   -0.2460   -2.0903 O   0  0  0  0  0  0  0  0  0  0  0  0
   -0.7854   -1.7625    1.8637 O   0  0  0  0  0  0  0  0  0  0  0  0
   -1.2989   -3.5060   -0.3572 O   0  0  0  0  0  0  0  0  0  0  0  0
    3.4773    2.6157    0.4879 O   0  0  0  0  0  0  0  0  0  0  0  0
    4.8589    0.3500   -0.3287 O   0  0  0  0  0  0  0  0  0  0  0  0
   -3.3423    3.4453   -0.2374 O   0  0  0  0  0  0  0  0  0  0  0  0
   -0.8213    0.1616    0.3380 C   0  0  1  0  0  0  0  0  0  0  0  0
   -0.8103   -2.1764   -0.5322 C   0  0  1  0  0  0  0  0  0  0  0  0
   -1.3016   -1.2870    0.6185 C   0  0  1  0  0  0  0  0  0  0  0  0
    0.7278   -2.2404   -0.5427 C   0  0  0  0  0  0  0  0  0  0  0  0
    0.7143    0.2086    0.1980 C   0  0  0  0  0  0  0  0  0  0  0  0
   -1.3798   -1.6214   -1.8527 C   0  0  0  0  0  0  0  0  0  0  0  0
    1.4216   -0.9295   -0.2522 C   0  0  0  0  0  0  0  0  0  0  0  0
   -1.4248    0.5511   -1.0117 C   0  0  0  0  0  0  0  0  0  0  0  0
   -1.3296    1.0528    1.4579 C   0  0  0  0  0  0  0  0  0  0  0  0
    1.4315    1.3990    0.4227 C   0  0  0  0  0  0  0  0  0  0  0  0
   -2.2201    1.6104   -1.2037 C   0  0  0  0  0  0  0  0  0  0  0  0
    2.8152   -0.8661   -0.4134 C   0  0  0  0  0  0  0  0  0  0  0  0
   -2.1464    2.0980    1.2832 C   0  0  0  0  0  0  0  0  0  0  0  0
   -2.6245    2.4655   -0.0666 C   0  0  0  0  0  0  0  0  0  0  0  0
    2.8158    1.4481    0.2519 C   0  0  0  0  0  0  0  0  0  0  0  0
    3.5078    0.3153   -0.1607 C   0  0  0  0  0  0  0  0  0  0  0  0
   -1.2199   -3.0864    2.1277 C   0  0  0  0  0  0  0  0  0  0  0  0
   -2.4004   -1.3157    0.6822 H   0  0  0  0  0  0  0  0  0  0  0  0
    1.0660   -2.6246   -1.5142 H   0  0  0  0  0  0  0  0  0  0  0  0
    1.0742   -2.9713    0.1999 H   0  0  0  0  0  0  0  0  0  0  0  0
   -0.9963   -2.2015   -2.7006 H   0  0  0  0  0  0  0  0  0  0  0  0
   -2.4714   -1.7428   -1.8877 H   0  0  0  0  0  0  0  0  0  0  0  0
   -0.9971    0.8321    2.4704 H   0  0  0  0  0  0  0  0  0  0  0  0
    0.9086    2.3028    0.7261 H   0  0  0  0  0  0  0  0  0  0  0  0
   -2.2668   -3.4873   -0.4499 H   0  0  0  0  0  0  0  0  0  0  0  0
   -2.6053    1.8622   -2.1854 H   0  0  0  0  0  0  0  0  0  0  0  0
    3.3618   -1.7472   -0.7431 H   0  0  0  0  0  0  0  0  0  0  0  0
   -2.4693    2.7059    2.1204 H   0  0  0  0  0  0  0  0  0  0  0  0
   -0.5196   -3.8298    1.7389 H   0  0  0  0  0  0  0  0  0  0  0  0
   -2.2601   -3.2685    1.8390 H   0  0  0  0  0  0  0  0  0  0  0  0
   -1.1858   -3.2101    3.2162 H   0  0  0  0  0  0  0  0  0  0  0  0
    2.8376    3.2936    0.7658 H   0  0  0  0  0  0  0  0  0  0  0  0
    5.1715    1.2456   -0.1116 H   0  0  0  0  0  0  0  0  0  0  0  0
  1 12  1  0  0  0  0
  1 14  1  0  0  0  0
  2  9  1  0  0  0  0
  2 23  1  0  0  0  0
  3  8  1  0  0  0  0
  3 31  1  0  0  0  0
  4 21  1  0  0  0  0
  4 38  1  0  0  0  0
  5 22  1  0  0  0  0
  5 39  1  0  0  0  0
  6 20  2  0  0  0  0
  7  9  1  0  0  0  0
  7 11  1  0  0  0  0
  7 14  1  0  0  0  0
  7 15  1  0  0  0  0
  8  9  1  0  0  0  0
  8 10  1  0  0  0  0
  8 12  1  0  0  0  0
  9 24  1  0  0  0  0
 10 13  1  0  0  0  0
 10 25  1  0  0  0  0
 10 26  1  0  0  0  0
 11 13  1  0  0  0  0
 11 16  2  0  0  0  0
 12 27  1  0  0  0  0
 12 28  1  0  0  0  0
 13 18  2  0  0  0  0
 14 17  2  0  0  0  0
 15 19  2  0  0  0  0
 15 29  1  0  0  0  0
 16 21  1  0  0  0  0
 16 30  1  0  0  0  0
 17 20  1  0  0  0  0
 17 32  1  0  0  0  0
 18 22  1  0  0  0  0
 18 33  1  0  0  0  0
 19 20  1  0  0  0  0
 19 34  1  0  0  0  0
 21 22  2  0  0  0  0
 23 35  1  0  0  0  0
 23 36  1  0  0  0  0
 23 37  1  0  0  0  0
M  END
> <PUBCHEM_COMPOUND_CID>
127260

> <PUBCHEM_CONFORMER_RMSD>
0.6

> <PUBCHEM_CONFORMER_DIVERSEORDER>
3
4
5
1
2

> <PUBCHEM_MMFF94_PARTIAL_CHARGES>
31
1 -0.36
10 0.14
11 -0.14
12 0.28
13 -0.14
14 -0.06
15 -0.29
16 -0.15
17 -0.14
18 -0.15
19 -0.14
2 -0.56
20 0.54
21 0.08
22 0.08
23 0.28
29 0.15
3 -0.68
30 0.15
31 0.4
32 0.15
33 0.15
34 0.15
38 0.45
39 0.45
4 -0.53
5 -0.53
6 -0.57
7 0.42
8 0.28
9 0.28

> <PUBCHEM_EFFECTIVE_ROTOR_COUNT>
1.8

> <PUBCHEM_PHARMACOPHORE_FEATURES>
11
1 1 acceptor
1 2 acceptor
1 3 acceptor
1 3 donor
1 4 donor
1 5 donor
1 6 acceptor
6 1 7 8 9 12 14 rings
6 11 13 16 18 21 22 rings
6 7 14 15 17 19 20 rings
6 7 8 9 10 11 13 rings

> <PUBCHEM_HEAVY_ATOM_COUNT>
23

> <PUBCHEM_ATOM_DEF_STEREO_COUNT>
0

> <PUBCHEM_ATOM_UDEF_STEREO_COUNT>
3

> <PUBCHEM_BOND_DEF_STEREO_COUNT>
0

> <PUBCHEM_BOND_UDEF_STEREO_COUNT>
0

> <PUBCHEM_ISOTOPIC_ATOM_COUNT>
0

> <PUBCHEM_COMPONENT_COUNT>
1

> <PUBCHEM_CACTVS_TAUTO_COUNT>
18

> <PUBCHEM_CONFORMER_ID>
0001F11C00000003

> <PUBCHEM_MMFF94_ENERGY>
82.4665

> <PUBCHEM_FEATURE_SELFOVERLAP>
57.465

> <PUBCHEM_SHAPE_FINGERPRINT>
10165383 225 17535493434023780988
10863032 1 18264491672279543063
10948715 1 18266178327311201061
11578080 2 16413493752733673435
12173636 292 18411133666772242012
12423570 1 8709830648841778491
12592029 89 18053099528205955585
12730499 353 17901958439718291289
12788726 201 18191570055296453987
13009979 54 16336654017886662023
13027679 85 17477763953948576135
13140716 1 17975423721396314538
13681431 1 10878547725910213051
14142880 1 18261105305188574020
14223421 5 18124314067540259296
14787075 74 18413107277871043073
14817 1 11651201377430342139
15848702 105 18058711525774701117
16945 1 18195501861559167023
19765921 60 18193828258869636201
20510252 161 18125150795714559632
20600515 1 17245280951845479434
20602899 9 16343703184047156094
21524375 3 18264203612922847293
22149856 69 13390488349271283465
22907989 373 18191590963276678012
23419403 2 17051952461018520167
23558518 356 18335414694597195212
23559900 14 18131637752059188308
238 59 18122049923800758797
25 1 18194401087284819964
2748010 2 18127153921211758902
298252 57 17701811099038075357
3380486 145 17690560105778704402
350125 39 18340216288078318720
394222 165 17906444438125752825
4340502 62 18119543033580122233
474 4 18053946143311062641
5845 1 9006772167551465603
70251023 43 18125719234779370054
81228 2 18116432729120573057
8272917 22 17765720113998771525
9981440 41 17985518248115820840

> <PUBCHEM_SHAPE_MULTIPOLES>
438.11
5.1
3.8
1.62
5.44
1.07
-0.15
-4.69
0.39
-2.31
-0.79
-1.14
0.88
0.49

> <PUBCHEM_SHAPE_SELFOVERLAP>
983.686

> <PUBCHEM_SHAPE_VOLUME>
226

> <PUBCHEM_COORDINATE_TYPE>
2
5
10

$$$$
