24854208
  -OEChem-09172005293D

 53 57  0     1  0  0  0  0  0999 V2000
   -1.5885   -1.8956    0.7048 O   0  0  0  0  0  0  0  0  0  0  0  0
   -4.4354   -1.2881   -0.1242 O   0  0  0  0  0  0  0  0  0  0  0  0
    4.0156    1.0846   -0.9325 O   0  0  0  0  0  0  0  0  0  0  0  0
    4.7737    0.7288    1.2206 O   0  0  0  0  0  0  0  0  0  0  0  0
    0.3598   -0.8059   -0.2148 C   0  0  2  0  0  0  0  0  0  0  0  0
   -0.9223   -0.0278   -0.5730 C   0  0  2  0  0  0  0  0  0  0  0  0
    1.5565    0.1620    0.0453 C   0  0  2  0  0  0  0  0  0  0  0  0
   -1.2065    1.1583    0.4237 C   0  0  1  0  0  0  0  0  0  0  0  0
    2.9102   -0.5492    0.3488 C   0  0  2  0  0  0  0  0  0  0  0  0
   -2.0030   -1.1119   -0.4261 C   0  0  2  0  0  0  0  0  0  0  0  0
    0.7729   -1.7671   -1.3669 C   0  0  0  0  0  0  0  0  0  0  0  0
    1.2105    1.3031    1.0226 C   0  0  0  0  0  0  0  0  0  0  0  0
   -0.1846   -1.6364    0.9641 C   0  0  0  0  0  0  0  0  0  0  0  0
   -0.0066    2.0908    0.5306 C   0  0  0  0  0  0  0  0  0  0  0  0
   -2.5663    1.8697    0.1243 C   0  0  2  0  0  0  0  0  0  0  0  0
    3.2264   -1.5682   -0.7688 C   0  0  0  0  0  0  0  0  0  0  0  0
    2.0757   -2.5155   -1.0817 C   0  0  0  0  0  0  0  0  0  0  0  0
   -3.3243   -0.5147   -0.1489 C   0  0  0  0  0  0  0  0  0  0  0  0
   -3.6253    0.8095    0.0889 C   0  0  0  0  0  0  0  0  0  0  0  0
    2.9897   -1.2125    1.7299 C   0  0  0  0  0  0  0  0  0  0  0  0
    4.0138    0.4862    0.2926 C   0  0  0  0  0  0  0  0  0  0  0  0
   -2.5626    2.6952   -1.1628 C   0  0  0  0  0  0  0  0  0  0  0  0
   -5.0242    0.8557    0.2844 C   0  0  0  0  0  0  0  0  0  0  0  0
   -5.4700   -0.4422    0.1429 C   0  0  0  0  0  0  0  0  0  0  0  0
    5.0148    2.0911   -1.1237 C   0  0  0  0  0  0  0  0  0  0  0  0
   -0.8868    0.3607   -1.5977 H   0  0  0  0  0  0  0  0  0  0  0  0
    1.6901    0.6745   -0.9218 H   0  0  0  0  0  0  0  0  0  0  0  0
   -1.3330    0.7310    1.4312 H   0  0  0  0  0  0  0  0  0  0  0  0
   -2.0566   -1.7636   -1.3041 H   0  0  0  0  0  0  0  0  0  0  0  0
   -0.0035   -2.5129   -1.5699 H   0  0  0  0  0  0  0  0  0  0  0  0
    0.8929   -1.1908   -2.2940 H   0  0  0  0  0  0  0  0  0  0  0  0
    1.0171    0.9126    2.0275 H   0  0  0  0  0  0  0  0  0  0  0  0
    2.0491    2.0023    1.1133 H   0  0  0  0  0  0  0  0  0  0  0  0
    0.3004   -2.6063    1.0907 H   0  0  0  0  0  0  0  0  0  0  0  0
   -0.1231   -1.1099    1.9209 H   0  0  0  0  0  0  0  0  0  0  0  0
    0.2192    2.5521   -0.4375 H   0  0  0  0  0  0  0  0  0  0  0  0
   -0.2207    2.9020    1.2360 H   0  0  0  0  0  0  0  0  0  0  0  0
   -2.7854    2.5481    0.9597 H   0  0  0  0  0  0  0  0  0  0  0  0
    4.1162   -2.1552   -0.5053 H   0  0  0  0  0  0  0  0  0  0  0  0
    3.4831   -1.0624   -1.7087 H   0  0  0  0  0  0  0  0  0  0  0  0
    2.3383   -3.1219   -1.9570 H   0  0  0  0  0  0  0  0  0  0  0  0
    1.9399   -3.2216   -0.2559 H   0  0  0  0  0  0  0  0  0  0  0  0
    3.9898   -1.6246    1.9150 H   0  0  0  0  0  0  0  0  0  0  0  0
    2.7858   -0.5019    2.5378 H   0  0  0  0  0  0  0  0  0  0  0  0
    2.2935   -2.0456    1.8351 H   0  0  0  0  0  0  0  0  0  0  0  0
   -3.5388    3.1684   -1.3202 H   0  0  0  0  0  0  0  0  0  0  0  0
   -1.8170    3.4947   -1.1197 H   0  0  0  0  0  0  0  0  0  0  0  0
   -2.3570    2.0810   -2.0454 H   0  0  0  0  0  0  0  0  0  0  0  0
   -5.6354    1.7199    0.5012 H   0  0  0  0  0  0  0  0  0  0  0  0
   -6.4442   -0.9053    0.2013 H   0  0  0  0  0  0  0  0  0  0  0  0
    4.9093    2.4861   -2.1377 H   0  0  0  0  0  0  0  0  0  0  0  0
    6.0138    1.6579   -1.0173 H   0  0  0  0  0  0  0  0  0  0  0  0
    4.8690    2.9085   -0.4112 H   0  0  0  0  0  0  0  0  0  0  0  0
  1 10  1  0  0  0  0
  1 13  1  0  0  0  0
  2 18  1  0  0  0  0
  2 24  1  0  0  0  0
  3 21  1  0  0  0  0
  3 25  1  0  0  0  0
  4 21  2  0  0  0  0
  5  6  1  0  0  0  0
  5  7  1  0  0  0  0
  5 11  1  0  0  0  0
  5 13  1  0  0  0  0
  6  8  1  0  0  0  0
  6 10  1  0  0  0  0
  6 26  1  0  0  0  0
  7  9  1  0  0  0  0
  7 12  1  0  0  0  0
  7 27  1  0  0  0  0
  8 14  1  0  0  0  0
  8 15  1  0  0  0  0
  8 28  1  0  0  0  0
  9 16  1  0  0  0  0
  9 20  1  0  0  0  0
  9 21  1  0  0  0  0
 10 18  1  0  0  0  0
 10 29  1  0  0  0  0
 11 17  1  0  0  0  0
 11 30  1  0  0  0  0
 11 31  1  0  0  0  0
 12 14  1  0  0  0  0
 12 32  1  0  0  0  0
 12 33  1  0  0  0  0
 13 34  1  0  0  0  0
 13 35  1  0  0  0  0
 14 36  1  0  0  0  0
 14 37  1  0  0  0  0
 15 19  1  0  0  0  0
 15 22  1  0  0  0  0
 15 38  1  0  0  0  0
 16 17  1  0  0  0  0
 16 39  1  0  0  0  0
 16 40  1  0  0  0  0
 17 41  1  0  0  0  0
 17 42  1  0  0  0  0
 18 19  2  0  0  0  0
 19 23  1  0  0  0  0
 20 43  1  0  0  0  0
 20 44  1  0  0  0  0
 20 45  1  0  0  0  0
 22 46  1  0  0  0  0
 22 47  1  0  0  0  0
 22 48  1  0  0  0  0
 23 24  2  0  0  0  0
 23 49  1  0  0  0  0
 24 50  1  0  0  0  0
 25 51  1  0  0  0  0
 25 52  1  0  0  0  0
 25 53  1  0  0  0  0
M  END
> <PUBCHEM_COMPOUND_CID>
24854208

> <PUBCHEM_CONFORMER_RMSD>
0.8

> <PUBCHEM_CONFORMER_DIVERSEORDER>
1
2

> <PUBCHEM_MMFF94_PARTIAL_CHARGES>
16
1 -0.56
10 0.46
13 0.28
15 0.18
18 -0.04
19 -0.18
2 -0.28
21 0.66
23 -0.15
24 -0.01
25 0.28
3 -0.43
4 -0.57
49 0.15
50 0.15
9 0.06

> <PUBCHEM_EFFECTIVE_ROTOR_COUNT>
3.8

> <PUBCHEM_PHARMACOPHORE_FEATURES>
8
1 1 acceptor
1 2 acceptor
1 4 acceptor
5 1 5 6 10 13 rings
5 2 18 19 23 24 rings
6 5 6 7 8 12 14 rings
6 5 7 9 11 16 17 rings
6 6 8 10 15 18 19 rings

> <PUBCHEM_HEAVY_ATOM_COUNT>
25

> <PUBCHEM_ATOM_DEF_STEREO_COUNT>
7

> <PUBCHEM_ATOM_UDEF_STEREO_COUNT>
0

> <PUBCHEM_BOND_DEF_STEREO_COUNT>
0

> <PUBCHEM_BOND_UDEF_STEREO_COUNT>
0

> <PUBCHEM_ISOTOPIC_ATOM_COUNT>
0

> <PUBCHEM_COMPONENT_COUNT>
1

> <PUBCHEM_CACTVS_TAUTO_COUNT>
1

> <PUBCHEM_CONFORMER_ID>
017B3EC000000001

> <PUBCHEM_MMFF94_ENERGY>
80.2349

> <PUBCHEM_FEATURE_SELFOVERLAP>
41.063

> <PUBCHEM_SHAPE_FINGERPRINT>
10366900 7 18272928358370171491
10498660 4 18343308063346956044
10646746 165 18263642866197848151
10759866 29 18333450941592959504
10863032 1 18201440207790906539
10906281 52 18339096963660800945
11132069 177 18341610387296834587
11578080 2 13684649761371995097
11963148 33 18268704073220405423
12011746 2 18272374195408199805
12107183 9 17466491322601452344
12236239 1 18259701216466548888
12403814 3 18113898247829833205
12553582 1 18272922851942724469
12596602 18 16878223155461393441
12788726 201 18341614784953521433
13140716 1 18125995216217901211
13224815 77 18201434731681197992
13402501 40 18342737420584498001
13583140 156 17459172002528353230
14223421 5 18267299825013682767
14341114 328 18260546749033863810
14787075 74 18409729582039105601
14790565 3 18199192973675936216
15196674 1 18341895147812776313
15961568 22 18187653517722587572
1601671 61 18273496788369618008
16945 1 17988345023205773567
17349148 13 18409165485107928638
17492 89 18264203608602097555
1813 80 17895203181862768493
18186145 218 18193559965062939964
18681886 176 18413387657879051936
20510252 161 18341048515211627105
20691752 17 17896615993626233377
20715895 44 17756410574563320165
21267235 1 18270972245179487886
21421861 104 18190175681158177979
22182313 1 18129657474506492511
23402539 116 18337943576179710679
23558518 356 17982184313837985664
23559900 14 17983293733860582134
23566358 2 18341612551643970869
2748010 2 18128533752369712375
296302 2 18334579053165457283
3004659 81 18337110069003502706
3323516 105 18202002092613537495
34797466 226 16128372726909410585
34934 24 18341046419336099778
350125 39 18271811160257189006
3680242 22 18263646169396899513
4340502 62 17167861988907311130
474 4 17241336901168972148
5104073 3 18270402681266380435
633830 44 18336546002126605895
70251023 43 17700715968314780742
9709674 26 18411987931372410350

> <PUBCHEM_SHAPE_MULTIPOLES>
491.01
9.85
2.6
1.21
2.23
0.38
-0.06
2.36
0.19
-0.59
0.62
-1.05
-0.1
0.06

> <PUBCHEM_SHAPE_SELFOVERLAP>
1079.837

> <PUBCHEM_SHAPE_VOLUME>
263.1

> <PUBCHEM_COORDINATE_TYPE>
2
5
10

$$$$
