73299135
  -OEChem-09172010133D

 39 41  0     0  0  0  0  0  0999 V2000
    1.1504    1.0346   -0.0697 O   0  0  0  0  0  0  0  0  0  0  0  0
    3.4753    2.4040   -0.2431 O   0  0  0  0  0  0  0  0  0  0  0  0
    1.0754   -3.0675   -0.1158 O   0  0  0  0  0  0  0  0  0  0  0  0
    5.8962    1.0699   -0.2970 O   0  0  0  0  0  0  0  0  0  0  0  0
   -6.2749    1.0846    0.2711 O   0  0  0  0  0  0  0  0  0  0  0  0
    2.3549   -1.0816   -0.0328 C   0  0  0  0  0  0  0  0  0  0  0  0
   -0.1291   -1.0204    0.1464 C   0  0  0  0  0  0  0  0  0  0  0  0
    2.3176    0.3160   -0.0748 C   0  0  0  0  0  0  0  0  0  0  0  0
    0.0865    0.3778    0.6287 C   0  0  0  0  0  0  0  0  0  0  0  0
    1.0926   -1.8495   -0.0114 C   0  0  0  0  0  0  0  0  0  0  0  0
    3.5049    1.0422   -0.1777 C   0  0  0  0  0  0  0  0  0  0  0  0
   -1.3248   -1.5511   -0.1369 C   0  0  0  0  0  0  0  0  0  0  0  0
    3.5814   -1.7516   -0.0650 C   0  0  0  0  0  0  0  0  0  0  0  0
   -2.6200   -0.8598   -0.0298 C   0  0  0  0  0  0  0  0  0  0  0  0
    4.7287    0.3735   -0.2059 C   0  0  0  0  0  0  0  0  0  0  0  0
    4.7669   -1.0198   -0.1456 C   0  0  0  0  0  0  0  0  0  0  0  0
   -3.1394   -0.1771   -1.1297 C   0  0  0  0  0  0  0  0  0  0  0  0
   -3.3287   -0.8884    1.1715 C   0  0  0  0  0  0  0  0  0  0  0  0
   -4.3675    0.4764   -1.0287 C   0  0  0  0  0  0  0  0  0  0  0  0
   -4.5567   -0.2348    1.2726 C   0  0  0  0  0  0  0  0  0  0  0  0
   -5.0761    0.4476    0.1724 C   0  0  0  0  0  0  0  0  0  0  0  0
    3.5332    3.1118    0.9932 C   0  0  0  0  0  0  0  0  0  0  0  0
   -6.7470    1.7630   -0.8920 C   0  0  0  0  0  0  0  0  0  0  0  0
   -0.7978    1.0082    0.4974 H   0  0  0  0  0  0  0  0  0  0  0  0
    0.3161    0.3782    1.7025 H   0  0  0  0  0  0  0  0  0  0  0  0
   -1.4076   -2.5777   -0.4871 H   0  0  0  0  0  0  0  0  0  0  0  0
    3.6331   -2.8364   -0.0356 H   0  0  0  0  0  0  0  0  0  0  0  0
    5.7153   -1.5502   -0.1701 H   0  0  0  0  0  0  0  0  0  0  0  0
   -2.5976   -0.1467   -2.0721 H   0  0  0  0  0  0  0  0  0  0  0  0
   -2.9367   -1.4165    2.0373 H   0  0  0  0  0  0  0  0  0  0  0  0
   -4.7124    0.9871   -1.9213 H   0  0  0  0  0  0  0  0  0  0  0  0
   -5.1042   -0.2607    2.2107 H   0  0  0  0  0  0  0  0  0  0  0  0
    6.6398    0.4430   -0.3036 H   0  0  0  0  0  0  0  0  0  0  0  0
    3.4927    4.1829    0.7767 H   0  0  0  0  0  0  0  0  0  0  0  0
    4.4696    2.8966    1.5174 H   0  0  0  0  0  0  0  0  0  0  0  0
    2.6800    2.8513    1.6276 H   0  0  0  0  0  0  0  0  0  0  0  0
   -6.0790    2.5821   -1.1792 H   0  0  0  0  0  0  0  0  0  0  0  0
   -6.9292    1.0668   -1.7177 H   0  0  0  0  0  0  0  0  0  0  0  0
   -7.7116    2.2127   -0.6346 H   0  0  0  0  0  0  0  0  0  0  0  0
  1  8  1  0  0  0  0
  1  9  1  0  0  0  0
  2 11  1  0  0  0  0
  2 22  1  0  0  0  0
  3 10  2  0  0  0  0
  4 15  1  0  0  0  0
  4 33  1  0  0  0  0
  5 21  1  0  0  0  0
  5 23  1  0  0  0  0
  6  8  2  0  0  0  0
  6 10  1  0  0  0  0
  6 13  1  0  0  0  0
  7  9  1  0  0  0  0
  7 10  1  0  0  0  0
  7 12  2  3  0  0  0
  8 11  1  0  0  0  0
  9 24  1  0  0  0  0
  9 25  1  0  0  0  0
 11 15  2  0  0  0  0
 12 14  1  0  0  0  0
 12 26  1  0  0  0  0
 13 16  2  0  0  0  0
 13 27  1  0  0  0  0
 14 17  2  0  0  0  0
 14 18  1  0  0  0  0
 15 16  1  0  0  0  0
 16 28  1  0  0  0  0
 17 19  1  0  0  0  0
 17 29  1  0  0  0  0
 18 20  2  0  0  0  0
 18 30  1  0  0  0  0
 19 21  2  0  0  0  0
 19 31  1  0  0  0  0
 20 21  1  0  0  0  0
 20 32  1  0  0  0  0
 22 34  1  0  0  0  0
 22 35  1  0  0  0  0
 22 36  1  0  0  0  0
 23 37  1  0  0  0  0
 23 38  1  0  0  0  0
 23 39  1  0  0  0  0
M  END
> <PUBCHEM_COMPOUND_CID>
73299135

> <PUBCHEM_CONFORMER_RMSD>
0.6

> <PUBCHEM_CONFORMER_DIVERSEORDER>
1
3
2

> <PUBCHEM_MMFF94_PARTIAL_CHARGES>
31
1 -0.36
10 0.47
11 0.08
12 -0.18
13 -0.15
14 0.03
15 0.08
16 -0.15
17 -0.15
18 -0.15
19 -0.15
2 -0.36
20 -0.15
21 0.08
22 0.28
23 0.28
26 0.15
27 0.15
28 0.15
29 0.15
3 -0.57
30 0.15
31 0.15
32 0.15
33 0.45
4 -0.53
5 -0.36
6 0.09
7 -0.12
8 0.08
9 0.42

> <PUBCHEM_EFFECTIVE_ROTOR_COUNT>
3.4

> <PUBCHEM_PHARMACOPHORE_FEATURES>
8
1 1 acceptor
1 2 acceptor
1 3 acceptor
1 4 donor
1 5 acceptor
6 1 6 7 8 9 10 rings
6 14 17 18 19 20 21 rings
6 6 8 11 13 15 16 rings

> <PUBCHEM_HEAVY_ATOM_COUNT>
23

> <PUBCHEM_ATOM_DEF_STEREO_COUNT>
0

> <PUBCHEM_ATOM_UDEF_STEREO_COUNT>
0

> <PUBCHEM_BOND_DEF_STEREO_COUNT>
0

> <PUBCHEM_BOND_UDEF_STEREO_COUNT>
1

> <PUBCHEM_ISOTOPIC_ATOM_COUNT>
0

> <PUBCHEM_COMPONENT_COUNT>
1

> <PUBCHEM_CACTVS_TAUTO_COUNT>
5

> <PUBCHEM_CONFORMER_ID>
045E74BF00000001

> <PUBCHEM_MMFF94_ENERGY>
91.5746

> <PUBCHEM_FEATURE_SELFOVERLAP>
40.635

> <PUBCHEM_SHAPE_FINGERPRINT>
10411042 1 17762338016348368294
11089746 13 18130785668026253569
12236239 1 17703790293362635919
12403259 415 18337397161391163800
12730499 353 18261679190529852283
12788726 201 17274828996039830225
13402501 40 18187643575025985325
13675066 3 18114467854470639427
13878862 14 18337370682986791301
14528608 73 18342453759902112815
14848178 96 18128532850316213488
15183329 4 17704070673307315525
15196674 1 18410576222988018695
15483637 11 17977665312421877533
1601671 61 18261111902627449772
18186145 218 18341618165382588726
18335252 114 18341607075407635796
19784866 34 18341609373236224851
20157964 124 18339923715333331271
20511986 3 17846201272331851382
20612939 158 18341897355062203463
20645477 56 18113053827405418135
21033648 29 18187078502978807488
21033650 10 14907365016692767410
22122407 14 18272382936490041825
23402655 69 18343581854162898670
23557571 272 16950565428901339143
23559900 14 18059015111733603416
2838139 119 18339918213607176565
29717793 49 17417816101990838798
300161 21 18060697303708795050
335352 9 18411702084989209878
350125 39 18409168814272403716
3545911 37 18333454235875138387
4072396 5 18337662028194090794
4073 2 17894919558891129235
4340502 62 16515401863901356010
474 4 18413393145881957251
495365 180 17845365704346847120
5104073 3 18334009536033201755
602551 16 16153720867570204523
633830 44 18342169011796449350
8272917 22 18341896242687136894
9995097 60 18333734615471651835

> <PUBCHEM_SHAPE_MULTIPOLES>
443.98
14.45
2.53
0.96
12.53
0.62
-0.09
7.74
1.41
-2.63
-0.22
1.01
0.15
1.03

> <PUBCHEM_SHAPE_SELFOVERLAP>
971.833

> <PUBCHEM_SHAPE_VOLUME>
239.9

> <PUBCHEM_COORDINATE_TYPE>
2
5
10

$$$$
