102499318
  -OEChem-09172005343D

 35 37  0     0  0  0  0  0  0999 V2000
   -1.6380   -1.2119   -0.7130 O   0  0  0  0  0  0  0  0  0  0  0  0
   -1.7784    2.3557    1.3081 O   0  0  0  0  0  0  0  0  0  0  0  0
    1.8453   -1.2176    1.9191 O   0  0  0  0  0  0  0  0  0  0  0  0
   -6.3709   -1.5145   -0.7748 O   0  0  0  0  0  0  0  0  0  0  0  0
    4.3373   -2.1256    1.2003 O   0  0  0  0  0  0  0  0  0  0  0  0
    4.7391    1.4592   -1.9407 O   0  0  0  0  0  0  0  0  0  0  0  0
    5.7936   -0.7956   -0.7282 O   0  0  0  0  0  0  0  0  0  0  0  0
   -0.4620    0.7314    0.1510 C   0  0  0  0  0  0  0  0  0  0  0  0
   -0.5915   -0.2649   -0.9556 C   0  0  0  0  0  0  0  0  0  0  0  0
   -2.9499    0.6181    0.2141 C   0  0  0  0  0  0  0  0  0  0  0  0
   -1.7292    1.3406    0.6285 C   0  0  0  0  0  0  0  0  0  0  0  0
   -2.8409   -0.6234   -0.4206 C   0  0  0  0  0  0  0  0  0  0  0  0
    0.6962    1.0969    0.7133 C   0  0  0  0  0  0  0  0  0  0  0  0
    2.0281    0.5858    0.3502 C   0  0  0  0  0  0  0  0  0  0  0  0
   -4.2102    1.1498    0.5028 C   0  0  0  0  0  0  0  0  0  0  0  0
   -3.9909   -1.3463   -0.7400 C   0  0  0  0  0  0  0  0  0  0  0  0
    2.5559   -0.5505    0.9634 C   0  0  0  0  0  0  0  0  0  0  0  0
    2.7650    1.2579   -0.6249 C   0  0  0  0  0  0  0  0  0  0  0  0
   -5.2485   -0.8141   -0.4550 C   0  0  0  0  0  0  0  0  0  0  0  0
   -5.3576    0.4329    0.1613 C   0  0  0  0  0  0  0  0  0  0  0  0
    3.8205   -1.0147    0.6013 C   0  0  0  0  0  0  0  0  0  0  0  0
    4.0297    0.7936   -0.9869 C   0  0  0  0  0  0  0  0  0  0  0  0
    4.5573   -0.3426   -0.3736 C   0  0  0  0  0  0  0  0  0  0  0  0
   -0.7916    0.2472   -1.9061 H   0  0  0  0  0  0  0  0  0  0  0  0
    0.3208   -0.8507   -1.1022 H   0  0  0  0  0  0  0  0  0  0  0  0
    0.7160    1.8294    1.5174 H   0  0  0  0  0  0  0  0  0  0  0  0
   -4.3176    2.1115    0.9968 H   0  0  0  0  0  0  0  0  0  0  0  0
   -3.9095   -2.3198   -1.2171 H   0  0  0  0  0  0  0  0  0  0  0  0
    2.3556    2.1446   -1.1046 H   0  0  0  0  0  0  0  0  0  0  0  0
   -6.3332    0.8540    0.3898 H   0  0  0  0  0  0  0  0  0  0  0  0
    2.3738   -1.9757    2.2233 H   0  0  0  0  0  0  0  0  0  0  0  0
    5.2183   -2.2958    0.8238 H   0  0  0  0  0  0  0  0  0  0  0  0
   -7.1511   -0.9994   -0.5065 H   0  0  0  0  0  0  0  0  0  0  0  0
    4.2174    2.2185   -2.2524 H   0  0  0  0  0  0  0  0  0  0  0  0
    6.1514   -0.2062   -1.4147 H   0  0  0  0  0  0  0  0  0  0  0  0
  1  9  1  0  0  0  0
  1 12  1  0  0  0  0
  2 11  2  0  0  0  0
  3 17  1  0  0  0  0
  3 31  1  0  0  0  0
  4 19  1  0  0  0  0
  4 33  1  0  0  0  0
  5 21  1  0  0  0  0
  5 32  1  0  0  0  0
  6 22  1  0  0  0  0
  6 34  1  0  0  0  0
  7 23  1  0  0  0  0
  7 35  1  0  0  0  0
  8  9  1  0  0  0  0
  8 11  1  0  0  0  0
  8 13  2  0  0  0  0
  9 24  1  0  0  0  0
  9 25  1  0  0  0  0
 10 11  1  0  0  0  0
 10 12  2  0  0  0  0
 10 15  1  0  0  0  0
 12 16  1  0  0  0  0
 13 14  1  0  0  0  0
 13 26  1  0  0  0  0
 14 17  1  0  0  0  0
 14 18  2  0  0  0  0
 15 20  2  0  0  0  0
 15 27  1  0  0  0  0
 16 19  2  0  0  0  0
 16 28  1  0  0  0  0
 17 21  2  0  0  0  0
 18 22  1  0  0  0  0
 18 29  1  0  0  0  0
 19 20  1  0  0  0  0
 20 30  1  0  0  0  0
 21 23  1  0  0  0  0
 22 23  2  0  0  0  0
M  END
> <PUBCHEM_COMPOUND_CID>
102499318

> <PUBCHEM_CONFORMER_RMSD>
0.6

> <PUBCHEM_CONFORMER_DIVERSEORDER>
1
3
2
4

> <PUBCHEM_MMFF94_PARTIAL_CHARGES>
33
1 -0.36
10 0.09
11 0.47
12 0.08
13 -0.18
14 0.03
15 -0.15
16 -0.15
17 0.08
18 -0.15
19 0.08
2 -0.57
20 -0.15
21 0.08
22 0.08
23 0.08
26 0.15
27 0.15
28 0.15
29 0.15
3 -0.53
30 0.15
31 0.45
32 0.45
33 0.45
34 0.45
35 0.45
4 -0.53
5 -0.53
6 -0.53
7 -0.53
8 -0.12
9 0.42

> <PUBCHEM_EFFECTIVE_ROTOR_COUNT>
1.4

> <PUBCHEM_PHARMACOPHORE_FEATURES>
10
1 1 acceptor
1 2 acceptor
1 3 donor
1 4 donor
1 5 donor
1 6 donor
1 7 donor
6 1 8 9 10 11 12 rings
6 10 12 15 16 19 20 rings
6 14 17 18 21 22 23 rings

> <PUBCHEM_HEAVY_ATOM_COUNT>
23

> <PUBCHEM_ATOM_DEF_STEREO_COUNT>
0

> <PUBCHEM_ATOM_UDEF_STEREO_COUNT>
0

> <PUBCHEM_BOND_DEF_STEREO_COUNT>
1

> <PUBCHEM_BOND_UDEF_STEREO_COUNT>
0

> <PUBCHEM_ISOTOPIC_ATOM_COUNT>
0

> <PUBCHEM_COMPONENT_COUNT>
1

> <PUBCHEM_CACTVS_TAUTO_COUNT>
233

> <PUBCHEM_CONFORMER_ID>
061C03F600000001

> <PUBCHEM_MMFF94_ENERGY>
69.7264

> <PUBCHEM_FEATURE_SELFOVERLAP>
50.793

> <PUBCHEM_SHAPE_FINGERPRINT>
10693767 8 18189901903818292154
11128504 68 18259707821646234796
11545043 162 16845573106577757865
12107183 9 17687462364884746617
12236239 1 18409732842046007156
12633257 1 14405175184187273406
12730499 353 16515408469265424000
12788726 201 18343306924906173697
12969540 114 15502369054384419883
13167823 11 18335137579323506881
13288520 33 18131071532928902725
13533116 47 18333447642525553650
13675066 3 15626220217216532337
13862211 1 17917425467385672039
14386348 63 16200153179655887532
14528608 73 17749110010432314316
14576447 43 18335420149880887938
16752209 62 18200866305966312145
17349148 13 18060699516012520213
17804303 29 17918272069473956185
17834072 33 18334295365979850373
17844677 252 17632580465459906457
17857418 61 18410852144418781627
1813 80 18333734593601319957
18222031 100 17774715463617623341
18681886 176 18272651260323831376
200 152 18113617863331580641
20028762 73 16987709268535288279
20612939 158 17894354384740221004
20645477 70 17385439887131697354
21033648 29 15338829816387611947
21267235 1 18272655679755690143
22950370 63 18410575093680359433
2297311 6 17775292655107715057
23175994 123 15770059432379650825
23402539 116 17846775205250073149
23522609 53 18126316162155955281
23559900 14 17703506683333778177
29717793 49 18410296891447603724
3004659 81 18410012122352354470
335352 9 18202562883343472037
3411729 13 17416389073733117784
34797466 226 16916792929197205904
351380 3 18343300388118799519
465052 167 18059296573308499583
474 4 17896891043965489444
5104073 3 17989205992967063585
5281201 14 17095236982687547310
59755656 215 17132121208137322423
6327066 14 16953677253573570292
960060 61 18187082870939279580

> <PUBCHEM_SHAPE_MULTIPOLES>
432.24
13.42
1.79
1.29
3.29
0.11
-0.05
-4.25
3.12
0.27
-0.3
-1.35
-0.01
-2.17

> <PUBCHEM_SHAPE_SELFOVERLAP>
962.961

> <PUBCHEM_SHAPE_VOLUME>
227.6

> <PUBCHEM_COORDINATE_TYPE>
2
5
10

$$$$
