25231770
  -OEChem-09162014273D

 30 30  0     0  0  0  0  0  0999 V2000
    6.5497    0.8297   -0.0693 Br  0  0  0  0  0  0  0  0  0  0  0  0
   -1.7728   -0.2151    0.0702 O   0  0  0  0  0  0  0  0  0  0  0  0
    0.2674   -1.9292   -0.0854 O   0  0  0  0  0  0  0  0  0  0  0  0
   -2.6927    1.8847    0.2854 O   0  0  0  0  0  0  0  0  0  0  0  0
    2.0249   -0.3634   -0.0221 C   0  0  0  0  0  0  0  0  0  0  0  0
   -0.4587    0.3511    0.1125 C   0  0  0  0  0  0  0  0  0  0  0  0
    0.5831   -0.7442   -0.0054 C   0  0  0  0  0  0  0  0  0  0  0  0
    2.3934    0.9789    0.0698 C   0  0  0  0  0  0  0  0  0  0  0  0
    3.0052   -1.3499   -0.1291 C   0  0  0  0  0  0  0  0  0  0  0  0
   -4.0995   -0.0646    0.1154 C   0  0  0  0  0  0  0  0  0  0  0  0
    3.7419    1.3346    0.0548 C   0  0  0  0  0  0  0  0  0  0  0  0
    4.3539   -0.9943   -0.1441 C   0  0  0  0  0  0  0  0  0  0  0  0
   -2.8005    0.6724    0.1677 C   0  0  0  0  0  0  0  0  0  0  0  0
    4.7222    0.3481   -0.0523 C   0  0  0  0  0  0  0  0  0  0  0  0
   -4.1350   -1.4802    0.6103 C   0  0  0  0  0  0  0  0  0  0  0  0
   -5.1375    0.6116   -0.4102 C   0  0  0  0  0  0  0  0  0  0  0  0
   -6.5449    0.1298   -0.5681 C   0  0  0  0  0  0  0  0  0  0  0  0
   -0.3510    1.0387   -0.7331 H   0  0  0  0  0  0  0  0  0  0  0  0
   -0.3280    0.8645    1.0710 H   0  0  0  0  0  0  0  0  0  0  0  0
    1.6645    1.7783    0.1564 H   0  0  0  0  0  0  0  0  0  0  0  0
    2.7428   -2.4020   -0.2018 H   0  0  0  0  0  0  0  0  0  0  0  0
    4.0126    2.3847    0.1281 H   0  0  0  0  0  0  0  0  0  0  0  0
    5.1056   -1.7751   -0.2276 H   0  0  0  0  0  0  0  0  0  0  0  0
   -3.5718   -1.5701    1.5459 H   0  0  0  0  0  0  0  0  0  0  0  0
   -5.1464   -1.8325    0.8260 H   0  0  0  0  0  0  0  0  0  0  0  0
   -3.6883   -2.1541   -0.1278 H   0  0  0  0  0  0  0  0  0  0  0  0
   -4.9870    1.6337   -0.7547 H   0  0  0  0  0  0  0  0  0  0  0  0
   -6.8622    0.2679   -1.6069 H   0  0  0  0  0  0  0  0  0  0  0  0
   -7.2113    0.7172    0.0711 H   0  0  0  0  0  0  0  0  0  0  0  0
   -6.6791   -0.9258   -0.3247 H   0  0  0  0  0  0  0  0  0  0  0  0
  1 14  1  0  0  0  0
  2  6  1  0  0  0  0
  2 13  1  0  0  0  0
  3  7  2  0  0  0  0
  4 13  2  0  0  0  0
  5  7  1  0  0  0  0
  5  8  2  0  0  0  0
  5  9  1  0  0  0  0
  6  7  1  0  0  0  0
  6 18  1  0  0  0  0
  6 19  1  0  0  0  0
  8 11  1  0  0  0  0
  8 20  1  0  0  0  0
  9 12  2  0  0  0  0
  9 21  1  0  0  0  0
 10 13  1  0  0  0  0
 10 15  1  0  0  0  0
 10 16  2  0  0  0  0
 11 14  2  0  0  0  0
 11 22  1  0  0  0  0
 12 14  1  0  0  0  0
 12 23  1  0  0  0  0
 15 24  1  0  0  0  0
 15 25  1  0  0  0  0
 15 26  1  0  0  0  0
 16 17  1  0  0  0  0
 16 27  1  0  0  0  0
 17 28  1  0  0  0  0
 17 29  1  0  0  0  0
 17 30  1  0  0  0  0
M  END
> <PUBCHEM_COMPOUND_CID>
25231770

> <PUBCHEM_CONFORMER_RMSD>
0.8

> <PUBCHEM_CONFORMER_DIVERSEORDER>
1
45
46
31
61
49
19
88
91
104
17
48
3
10
120
63
82
73
60
92
30
121
2
32
85
80
4
128
16
36
57
12
90
81
100
44
124
25
129
127
33
77
130
5
6
87
102
68
56
13
72
98
26
112
40
52
59
23
93
89
14
18
28
34
75
62
41
58
95
51
122
37
71
20
11
15
117
94
74
38
43
50
69
101
118
47
9
24
39
110
83
86
84
66
109
27
42
103
107
106
119
64
131
126
7
76
54
78
65
8
105
115
53
114
55
67
70
97
29
21
108
123
22
99
79
116
35
113
125
96
111

> <PUBCHEM_MMFF94_PARTIAL_CHARGES>
22
1 -0.11
10 -0.12
11 -0.15
12 -0.15
13 0.71
14 0.11
15 0.14
16 -0.29
17 0.14
2 -0.43
20 0.15
21 0.15
22 0.15
23 0.15
27 0.15
3 -0.57
4 -0.57
5 0.09
6 0.34
7 0.42
8 -0.15
9 -0.15

> <PUBCHEM_EFFECTIVE_ROTOR_COUNT>
5

> <PUBCHEM_PHARMACOPHORE_FEATURES>
6
1 1 hydrophobe
1 15 hydrophobe
1 17 hydrophobe
1 3 acceptor
1 4 acceptor
6 5 8 9 11 12 14 rings

> <PUBCHEM_HEAVY_ATOM_COUNT>
17

> <PUBCHEM_ATOM_DEF_STEREO_COUNT>
0

> <PUBCHEM_ATOM_UDEF_STEREO_COUNT>
0

> <PUBCHEM_BOND_DEF_STEREO_COUNT>
1

> <PUBCHEM_BOND_UDEF_STEREO_COUNT>
0

> <PUBCHEM_ISOTOPIC_ATOM_COUNT>
0

> <PUBCHEM_COMPONENT_COUNT>
1

> <PUBCHEM_CACTVS_TAUTO_COUNT>
2

> <PUBCHEM_CONFORMER_ID>
0181019A00000001

> <PUBCHEM_MMFF94_ENERGY>
35.0409

> <PUBCHEM_FEATURE_SELFOVERLAP>
30.447

> <PUBCHEM_SHAPE_FINGERPRINT>
10 15 18336819901583061400
10366900 7 18060414712404565339
10968037 39 18412543219952891077
12107183 9 17617658756756445344
12236239 1 17703791392452030185
12507557 5 18113340829498792517
12916748 109 18342462530230540784
13533116 47 17168132391300116363
14123238 8 17561646550714268190
14123256 10 18272932734646563797
1420 363 18408610262285969507
14251764 18 18187640341616737536
14341114 176 18408892814761310267
14350574 20 11095887068776464874
15196674 1 18340207384568968104
17834072 33 18130783469345616751
17834076 25 14634868643571065093
19489759 90 16443061695248423605
200 152 18131628968260289081
20645477 70 18272370811058834558
21267235 1 18342184344760916030
221357 26 18131069316351641008
22224240 67 14129058153815132512
23402539 116 18409162246702659031
23402655 69 18272651242616441646
23557571 272 17749670688786048773
23559900 14 18409726300652664025
29717793 49 17846501391740475796
300161 21 17530959181552526203
335352 9 18412267242961593982
351380 180 18334858324602353664
3545911 37 18410012147594572493
4073 2 18040722493115528010
4214541 1 18410294675097019393
42788 4 18410575076083700333
4325135 7 18202280312242492949
474229 33 18413390951243417535
5104073 3 18339082583788365952
542803 24 16845857884025648706
58051976 378 18343305842579702383
59755656 215 18410296882894930102
59755656 520 17676480678912198939
7495541 125 17131825508028440875
77779 3 18411703166418589226

> <PUBCHEM_SHAPE_MULTIPOLES>
338.19
15.69
1.56
0.67
4.73
0.21
-0.01
-3.09
-1.54
-0.24
0.08
0.2
0.01
0.35

> <PUBCHEM_SHAPE_SELFOVERLAP>
679.586

> <PUBCHEM_SHAPE_VOLUME>
203.1

> <PUBCHEM_COORDINATE_TYPE>
2
5
10

$$$$
