602938
  -OEChem-09162014293D

 54 53  0     1  0  0  0  0  0999 V2000
   -4.9331   -1.5115    1.0871 O   0  0  0  0  0  0  0  0  0  0  0  0
    5.1193   -0.2231   -0.8599 O   0  0  0  0  0  0  0  0  0  0  0  0
    3.5097   -0.7502    0.7059 O   0  0  0  0  0  0  0  0  0  0  0  0
   -4.0465    0.5348    0.1591 C   0  0  0  0  0  0  0  0  0  0  0  0
   -3.5820    1.3138   -1.0781 C   0  0  0  0  0  0  0  0  0  0  0  0
   -4.4085   -0.9345   -0.1089 C   0  0  1  0  0  0  0  0  0  0  0  0
   -3.2148    2.7716   -0.7725 C   0  0  0  0  0  0  0  0  0  0  0  0
   -2.0194    2.9694    0.1677 C   0  0  0  0  0  0  0  0  0  0  0  0
   -3.2687   -1.8208   -0.6301 C   0  0  0  0  0  0  0  0  0  0  0  0
   -0.7357    2.3061   -0.3391 C   0  0  0  0  0  0  0  0  0  0  0  0
    0.4608    2.4976    0.5993 C   0  0  0  0  0  0  0  0  0  0  0  0
   -2.0613   -1.8778    0.3080 C   0  0  0  0  0  0  0  0  0  0  0  0
    1.7596    1.9057    0.0429 C   0  0  0  0  0  0  0  0  0  0  0  0
   -0.9476   -2.7521   -0.2727 C   0  0  0  0  0  0  0  0  0  0  0  0
    2.9643    2.0984    0.9732 C   0  0  0  0  0  0  0  0  0  0  0  0
    0.2936   -2.8197    0.6197 C   0  0  0  0  0  0  0  0  0  0  0  0
    4.2851    1.5392    0.4433 C   0  0  0  0  0  0  0  0  0  0  0  0
    1.3956   -3.7068    0.0622 C   0  0  0  0  0  0  0  0  0  0  0  0
    4.2241    0.0604    0.1320 C   0  0  0  0  0  0  0  0  0  0  0  0
    5.2057   -1.6005   -1.2391 C   0  0  0  0  0  0  0  0  0  0  0  0
   -4.9267    1.0387    0.5806 H   0  0  0  0  0  0  0  0  0  0  0  0
   -3.2946    0.5804    0.9541 H   0  0  0  0  0  0  0  0  0  0  0  0
   -4.3964    1.3135   -1.8137 H   0  0  0  0  0  0  0  0  0  0  0  0
   -2.7393    0.8106   -1.5606 H   0  0  0  0  0  0  0  0  0  0  0  0
   -5.2178   -0.9650   -0.8488 H   0  0  0  0  0  0  0  0  0  0  0  0
   -4.0868    3.2803   -0.3434 H   0  0  0  0  0  0  0  0  0  0  0  0
   -2.9994    3.2769   -1.7224 H   0  0  0  0  0  0  0  0  0  0  0  0
   -2.2618    2.5887    1.1663 H   0  0  0  0  0  0  0  0  0  0  0  0
   -1.8448    4.0462    0.2835 H   0  0  0  0  0  0  0  0  0  0  0  0
   -3.6519   -2.8416   -0.7573 H   0  0  0  0  0  0  0  0  0  0  0  0
   -2.9531   -1.4747   -1.6207 H   0  0  0  0  0  0  0  0  0  0  0  0
   -0.4892    2.7139   -1.3272 H   0  0  0  0  0  0  0  0  0  0  0  0
   -0.8897    1.2302   -0.4682 H   0  0  0  0  0  0  0  0  0  0  0  0
    0.6063    3.5692    0.7834 H   0  0  0  0  0  0  0  0  0  0  0  0
    0.2364    2.0356    1.5685 H   0  0  0  0  0  0  0  0  0  0  0  0
   -1.6606   -0.8731    0.4754 H   0  0  0  0  0  0  0  0  0  0  0  0
   -2.3636   -2.2730    1.2850 H   0  0  0  0  0  0  0  0  0  0  0  0
    1.6000    0.8389   -0.1501 H   0  0  0  0  0  0  0  0  0  0  0  0
    1.9809    2.3713   -0.9254 H   0  0  0  0  0  0  0  0  0  0  0  0
   -1.3311   -3.7676   -0.4319 H   0  0  0  0  0  0  0  0  0  0  0  0
   -0.6576   -2.3646   -1.2574 H   0  0  0  0  0  0  0  0  0  0  0  0
    3.0959    3.1688    1.1728 H   0  0  0  0  0  0  0  0  0  0  0  0
    2.7398    1.6260    1.9381 H   0  0  0  0  0  0  0  0  0  0  0  0
    0.0081   -3.1927    1.6106 H   0  0  0  0  0  0  0  0  0  0  0  0
    0.6915   -1.8081    0.7641 H   0  0  0  0  0  0  0  0  0  0  0  0
   -5.6981   -0.9776    1.3612 H   0  0  0  0  0  0  0  0  0  0  0  0
    5.0833    1.6984    1.1760 H   0  0  0  0  0  0  0  0  0  0  0  0
    4.5483    2.0825   -0.4721 H   0  0  0  0  0  0  0  0  0  0  0  0
    1.0441   -4.7360   -0.0605 H   0  0  0  0  0  0  0  0  0  0  0  0
    2.2549   -3.7177    0.7399 H   0  0  0  0  0  0  0  0  0  0  0  0
    1.7349   -3.3407   -0.9120 H   0  0  0  0  0  0  0  0  0  0  0  0
    5.9488   -1.6881   -2.0361 H   0  0  0  0  0  0  0  0  0  0  0  0
    4.2406   -1.9499   -1.6183 H   0  0  0  0  0  0  0  0  0  0  0  0
    5.5292   -2.2076   -0.3882 H   0  0  0  0  0  0  0  0  0  0  0  0
  1  6  1  0  0  0  0
  1 46  1  0  0  0  0
  2 19  1  0  0  0  0
  2 20  1  0  0  0  0
  3 19  2  0  0  0  0
  4  5  1  0  0  0  0
  4  6  1  0  0  0  0
  4 21  1  0  0  0  0
  4 22  1  0  0  0  0
  5  7  1  0  0  0  0
  5 23  1  0  0  0  0
  5 24  1  0  0  0  0
  6  9  1  0  0  0  0
  6 25  1  0  0  0  0
  7  8  1  0  0  0  0
  7 26  1  0  0  0  0
  7 27  1  0  0  0  0
  8 10  1  0  0  0  0
  8 28  1  0  0  0  0
  8 29  1  0  0  0  0
  9 12  1  0  0  0  0
  9 30  1  0  0  0  0
  9 31  1  0  0  0  0
 10 11  1  0  0  0  0
 10 32  1  0  0  0  0
 10 33  1  0  0  0  0
 11 13  1  0  0  0  0
 11 34  1  0  0  0  0
 11 35  1  0  0  0  0
 12 14  1  0  0  0  0
 12 36  1  0  0  0  0
 12 37  1  0  0  0  0
 13 15  1  0  0  0  0
 13 38  1  0  0  0  0
 13 39  1  0  0  0  0
 14 16  1  0  0  0  0
 14 40  1  0  0  0  0
 14 41  1  0  0  0  0
 15 17  1  0  0  0  0
 15 42  1  0  0  0  0
 15 43  1  0  0  0  0
 16 18  1  0  0  0  0
 16 44  1  0  0  0  0
 16 45  1  0  0  0  0
 17 19  1  0  0  0  0
 17 47  1  0  0  0  0
 17 48  1  0  0  0  0
 18 49  1  0  0  0  0
 18 50  1  0  0  0  0
 18 51  1  0  0  0  0
 20 52  1  0  0  0  0
 20 53  1  0  0  0  0
 20 54  1  0  0  0  0
M  END
> <PUBCHEM_COMPOUND_CID>
602938

> <PUBCHEM_CONFORMER_RMSD>
1.4

> <PUBCHEM_CONFORMER_DIVERSEORDER>
1
14
84
35
85
87
51
105
15
26
92
44
5
50
104
31
2
102
23
47
110
9
22
39
42
27
114
82
48
49
98
88
94
81
30
38
71
76
91
96
109
46
21
101
6
99
74
113
43
59
45
57
4
89
80
12
55
112
63
97
13
25
86
61
10
7
36
79
103
28
34
60
75
54
68
20
90
24
53
78
11
77
66
41
16
69
93
70
67
72
56
8
65
106
58
33
19
108
111
62
83
73
3
107
40
37
32
29
64
95
52
17
100
18

> <PUBCHEM_MMFF94_PARTIAL_CHARGES>
8
1 -0.68
17 0.06
19 0.66
2 -0.43
20 0.28
3 -0.57
46 0.4
6 0.28

> <PUBCHEM_EFFECTIVE_ROTOR_COUNT>
15

> <PUBCHEM_PHARMACOPHORE_FEATURES>
5
1 1 acceptor
1 1 donor
1 18 hydrophobe
1 3 acceptor
4 9 12 14 16 hydrophobe

> <PUBCHEM_HEAVY_ATOM_COUNT>
20

> <PUBCHEM_ATOM_DEF_STEREO_COUNT>
0

> <PUBCHEM_ATOM_UDEF_STEREO_COUNT>
1

> <PUBCHEM_BOND_DEF_STEREO_COUNT>
0

> <PUBCHEM_BOND_UDEF_STEREO_COUNT>
0

> <PUBCHEM_ISOTOPIC_ATOM_COUNT>
0

> <PUBCHEM_COMPONENT_COUNT>
1

> <PUBCHEM_CACTVS_TAUTO_COUNT>
1

> <PUBCHEM_CONFORMER_ID>
0009333A00000001

> <PUBCHEM_MMFF94_ENERGY>
9.4406

> <PUBCHEM_FEATURE_SELFOVERLAP>
25.372

> <PUBCHEM_SHAPE_FINGERPRINT>
10670039 82 18334859385886940174
1100329 8 17545881529693989243
12038231 1 18266453200780733411
13402501 40 18412265059810068671
13551218 46 18269276927699382027
14251740 79 18342463612282815856
14251751 93 18408594864464326977
14251757 17 18272375222174545278
14251757 5 18119260690565895396
14617045 38 18337394829582968725
15006816 218 18411131407782655847
15256400 18 18411135878595873116
15927050 60 18268139856999964397
19591789 44 18410852161651411288
23559900 14 18340476824784259896
3014063 31 18412263917855501390
338550 245 18334580156993431044
5047190 48 17619618524991918360
56633871 153 18124322859633921219
59755656 215 18335978693203157941
6433294 58 18267016159603677130

> <PUBCHEM_SHAPE_MULTIPOLES>
393.98
11.14
4.89
1
6.17
1.35
0.09
1.03
1.58
-0.91
-0.24
0.21
0.02
1.67

> <PUBCHEM_SHAPE_SELFOVERLAP>
722.93

> <PUBCHEM_SHAPE_VOLUME>
249.4

> <PUBCHEM_COORDINATE_TYPE>
2
5
10

$$$$
