56833554
  -OEChem-09162014342D

206211  0     1  0  0  0  0  0999 V2000
   11.2942    0.9897    0.0000 O   0  0  0  0  0  0  0  0  0  0  0  0
    9.7942   -1.6084    0.0000 O   0  0  0  0  0  0  0  0  0  0  0  0
    8.9282    0.6236    0.0000 O   0  0  0  0  0  0  0  0  0  0  0  0
    8.2942   -0.7424    0.0000 O   0  0  0  0  0  0  0  0  0  0  0  0
   12.7942    0.1236    0.0000 O   0  0  0  0  0  0  0  0  0  0  0  0
    7.1962    0.6236    0.0000 O   0  0  0  0  0  0  0  0  0  0  0  0
    7.7166    2.0939    0.0000 O   0  0  0  0  0  0  0  0  0  0  0  0
   12.1603   -0.2424    0.0000 O   0  0  0  0  0  0  0  0  0  0  0  0
    9.2234    1.1839    0.0000 O   0  0  0  0  0  0  0  0  0  0  0  0
   11.7807   -1.6318    0.0000 O   0  0  0  0  0  0  0  0  0  0  0  0
   13.4778   -1.7453    0.0000 O   0  0  0  0  0  0  0  0  0  0  0  0
   10.9063   -0.3774    0.0000 O   0  0  0  0  0  0  0  0  0  0  0  0
    5.9234   -0.3498    0.0000 O   0  0  0  0  0  0  0  0  0  0  0  0
    7.1962   -2.3764    0.0000 O   0  0  0  0  0  0  0  0  0  0  0  0
   13.7942   -1.6084    0.0000 O   0  0  0  0  0  0  0  0  0  0  0  0
    8.4042   -1.8160    0.0000 O   0  0  0  0  0  0  0  0  0  0  0  0
    5.4641   -1.3764    0.0000 O   0  0  0  0  0  0  0  0  0  0  0  0
    5.1542    1.1960    0.0000 O   0  0  0  0  0  0  0  0  0  0  0  0
    9.7943   -2.6084    0.0000 O   0  0  0  0  0  0  0  0  0  0  0  0
   13.7596   -3.3684    0.0000 O   0  0  0  0  0  0  0  0  0  0  0  0
   15.7942   -1.6084    0.0000 O   0  0  0  0  0  0  0  0  0  0  0  0
   16.8288   -3.3568    0.0000 O   0  0  0  0  0  0  0  0  0  0  0  0
   15.8184   -5.1385    0.0000 O   0  0  0  0  0  0  0  0  0  0  0  0
   12.9392   -2.7902    0.0000 O   0  0  0  0  0  0  0  0  0  0  0  0
   11.7306   -2.2280    0.0000 O   0  0  0  0  0  0  0  0  0  0  0  0
    5.4641   -2.3764    0.0000 O   0  0  0  0  0  0  0  0  0  0  0  0
   14.2667   -6.0065    0.0000 O   0  0  0  0  0  0  0  0  0  0  0  0
    4.5981    0.1236    0.0000 O   0  0  0  0  0  0  0  0  0  0  0  0
    5.4641   -5.3764    0.0000 O   0  0  0  0  0  0  0  0  0  0  0  0
   14.7943    0.1237    0.0000 O   0  0  0  0  0  0  0  0  0  0  0  0
   10.7942    0.1236    0.0000 C   0  0  2  0  0  0  0  0  0  0  0  0
    9.7942    0.1236    0.0000 C   0  0  2  0  0  0  0  0  0  0  0  0
   11.2942   -0.7424    0.0000 C   0  0  1  0  0  0  0  0  0  0  0  0
    9.2942   -0.7424    0.0000 C   0  0  1  0  0  0  0  0  0  0  0  0
   10.7942   -1.6084    0.0000 C   0  0  1  0  0  0  0  0  0  0  0  0
   12.2942    0.9897    0.0000 C   0  0  2  0  0  0  0  0  0  0  0  0
    7.7234    0.3178    0.0000 C   0  0  2  0  0  0  0  0  0  0  0  0
   11.7762    0.1159    0.0000 C   0  0  1  0  0  0  0  0  0  0  0  0
   12.2807   -0.7658    0.0000 C   0  0  2  0  0  0  0  0  0  0  0  0
   13.2965   -0.7619    0.0000 C   0  0  1  0  0  0  0  0  0  0  0  0
    8.0622    0.1236    0.0000 C   0  0  2  0  0  0  0  0  0  0  0  0
   13.7942    0.1236    0.0000 C   0  0  1  0  0  0  0  0  0  0  0  0
    6.6819    0.3018    0.0000 C   0  0  2  0  0  0  0  0  0  0  0  0
    8.2234    1.1839    0.0000 C   0  0  1  0  0  0  0  0  0  0  0  0
    8.0622   -0.8764    0.0000 C   0  0  1  0  0  0  0  0  0  0  0  0
    7.1962   -1.3764    0.0000 C   0  0  1  0  0  0  0  0  0  0  0  0
    6.1542    1.1998    0.0000 C   0  0  1  0  0  0  0  0  0  0  0  0
    6.3301   -0.8764    0.0000 C   0  0  2  0  0  0  0  0  0  0  0  0
   10.7942   -2.6084    0.0000 C   0  0  0  0  0  0  0  0  0  0  0  0
    6.6750    2.1019    0.0000 C   0  0  1  0  0  0  0  0  0  0  0  0
    6.3301    0.1236    0.0000 C   0  0  2  0  0  0  0  0  0  0  0  0
   14.2942   -0.7424    0.0000 C   0  0  0  0  0  0  0  0  0  0  0  0
    9.2234    2.1839    0.0000 C   0  0  2  0  0  0  0  0  0  0  0  0
    6.1783    2.9698    0.0000 C   0  0  0  0  0  0  0  0  0  0  0  0
    5.4641    0.6236    0.0000 C   0  0  0  0  0  0  0  0  0  0  0  0
   14.2942   -2.4744    0.0000 C   0  0  2  0  0  0  0  0  0  0  0  0
   15.2942   -2.4744    0.0000 C   0  0  1  0  0  0  0  0  0  0  0  0
    9.9305    2.8910    0.0000 C   0  0  0  0  0  0  0  0  0  0  0  0
    8.8407    3.1077    0.0000 C   0  0  0  0  0  0  0  0  0  0  0  0
   15.8289   -3.3684    0.0000 C   0  0  2  0  0  0  0  0  0  0  0  0
   15.3150   -4.2744    0.0000 C   0  0  1  0  0  0  0  0  0  0  0  0
   14.2734   -4.2744    0.0000 C   0  0  1  0  0  0  0  0  0  0  0  0
   11.9544   -2.6166    0.0000 C   0  0  0  0  0  0  0  0  0  0  0  0
   12.7167   -2.3940    0.0000 C   0  0  0  0  0  0  0  0  0  0  0  0
   10.8965    2.6322    0.0000 C   0  0  0  0  0  0  0  0  0  0  0  0
    9.4495    3.9011    0.0000 C   0  0  0  0  0  0  0  0  0  0  0  0
    6.3301   -2.8764    0.0000 C   0  0  0  0  0  0  0  0  0  0  0  0
   11.1883   -3.2594    0.0000 C   0  0  2  0  0  0  0  0  0  0  0  0
   12.8979   -3.3775    0.0000 C   0  0  2  0  0  0  0  0  0  0  0  0
   11.6036    3.3393    0.0000 C   0  0  0  0  0  0  0  0  0  0  0  0
    6.3301   -3.8764    0.0000 C   0  0  2  0  0  0  0  0  0  0  0  0
   13.7701   -5.1385    0.0000 C   0  0  0  0  0  0  0  0  0  0  0  0
    4.5981   -0.8764    0.0000 C   0  0  0  0  0  0  0  0  0  0  0  0
    9.0668    4.8250    0.0000 C   0  0  0  0  0  0  0  0  0  0  0  0
   12.6036    3.3393    0.0000 C   0  0  0  0  0  0  0  0  0  0  0  0
   11.3619   -4.2442    0.0000 C   0  0  0  0  0  0  0  0  0  0  0  0
   12.1369   -4.0261    0.0000 C   0  0  0  0  0  0  0  0  0  0  0  0
   10.2034   -3.4330    0.0000 C   0  0  0  0  0  0  0  0  0  0  0  0
    5.4641   -4.3764    0.0000 C   0  0  2  0  0  0  0  0  0  0  0  0
   13.5466   -4.1385    0.0000 C   0  0  0  0  0  0  0  0  0  0  0  0
   13.1036    2.4732    0.0000 C   0  0  0  0  0  0  0  0  0  0  0  0
    9.6756    5.6183    0.0000 C   0  0  0  0  0  0  0  0  0  0  0  0
    7.1962   -4.3764    0.0000 C   0  0  0  0  0  0  0  0  0  0  0  0
   15.2942   -0.7424    0.0000 C   0  0  0  0  0  0  0  0  0  0  0  0
    3.7320   -1.3764    0.0000 C   0  0  0  0  0  0  0  0  0  0  0  0
   14.0695    2.2144    0.0000 C   0  0  0  0  0  0  0  0  0  0  0  0
   15.7942    0.1236    0.0000 C   0  0  0  0  0  0  0  0  0  0  0  0
   14.3283    1.2485    0.0000 C   0  0  0  0  0  0  0  0  0  0  0  0
   15.2942    0.9897    0.0000 C   0  0  0  0  0  0  0  0  0  0  0  0
   10.5959   -4.8870    0.0000 C   0  0  0  0  0  0  0  0  0  0  0  0
   12.3181   -5.0096    0.0000 C   0  0  0  0  0  0  0  0  0  0  0  0
    4.5981   -3.8764    0.0000 C   0  0  0  0  0  0  0  0  0  0  0  0
    9.2929    6.5422    0.0000 C   0  0  0  0  0  0  0  0  0  0  0  0
    3.7320   -2.3764    0.0000 C   0  0  0  0  0  0  0  0  0  0  0  0
    2.8660   -0.8764    0.0000 C   0  0  0  0  0  0  0  0  0  0  0  0
    2.0000   -1.3764    0.0000 C   0  0  0  0  0  0  0  0  0  0  0  0
   10.3692    0.8598    0.0000 H   0  0  0  0  0  0  0  0  0  0  0  0
    9.9679    1.1084    0.0000 H   0  0  0  0  0  0  0  0  0  0  0  0
   11.7326   -1.1808    0.0000 H   0  0  0  0  0  0  0  0  0  0  0  0
    9.1467   -1.5795    0.0000 H   0  0  0  0  0  0  0  0  0  0  0  0
   10.3558   -2.0468    0.0000 H   0  0  0  0  0  0  0  0  0  0  0  0
   12.2991    1.8397    0.0000 H   0  0  0  0  0  0  0  0  0  0  0  0
    7.2984   -0.4183    0.0000 H   0  0  0  0  0  0  0  0  0  0  0  0
   11.3420    0.5585    0.0000 H   0  0  0  0  0  0  0  0  0  0  0  0
   11.6607   -0.7646    0.0000 H   0  0  0  0  0  0  0  0  0  0  0  0
   12.9007   -1.2392    0.0000 H   0  0  0  0  0  0  0  0  0  0  0  0
    8.0622    0.7436    0.0000 H   0  0  0  0  0  0  0  0  0  0  0  0
   13.3692    0.8598    0.0000 H   0  0  0  0  0  0  0  0  0  0  0  0
    6.9018   -0.2779    0.0000 H   0  0  0  0  0  0  0  0  0  0  0  0
    7.4247    1.4746    0.0000 H   0  0  0  0  0  0  0  0  0  0  0  0
    8.6728   -0.7687    0.0000 H   0  0  0  0  0  0  0  0  0  0  0  0
    7.7331   -1.6864    0.0000 H   0  0  0  0  0  0  0  0  0  0  0  0
    5.8431    1.7362    0.0000 H   0  0  0  0  0  0  0  0  0  0  0  0
    5.7932   -0.5664    0.0000 H   0  0  0  0  0  0  0  0  0  0  0  0
   10.7942   -3.2284    0.0000 H   0  0  0  0  0  0  0  0  0  0  0  0
   11.4142   -2.6084    0.0000 H   0  0  0  0  0  0  0  0  0  0  0  0
    6.9881    2.6370    0.0000 H   0  0  0  0  0  0  0  0  0  0  0  0
    6.3301    0.7436    0.0000 H   0  0  0  0  0  0  0  0  0  0  0  0
   14.7692   -1.1409    0.0000 H   0  0  0  0  0  0  0  0  0  0  0  0
   14.7692   -0.3438    0.0000 H   0  0  0  0  0  0  0  0  0  0  0  0
   12.2679    0.3682    0.0000 H   0  0  0  0  0  0  0  0  0  0  0  0
    8.6087    2.2648    0.0000 H   0  0  0  0  0  0  0  0  0  0  0  0
   10.6898   -0.9584    0.0000 H   0  0  0  0  0  0  0  0  0  0  0  0
    6.7164    3.2778    0.0000 H   0  0  0  0  0  0  0  0  0  0  0  0
    5.8704    3.5080    0.0000 H   0  0  0  0  0  0  0  0  0  0  0  0
    5.6402    2.6619    0.0000 H   0  0  0  0  0  0  0  0  0  0  0  0
    5.7741    1.1606    0.0000 H   0  0  0  0  0  0  0  0  0  0  0  0
    4.9272    0.9336    0.0000 H   0  0  0  0  0  0  0  0  0  0  0  0
    5.1541    0.0867    0.0000 H   0  0  0  0  0  0  0  0  0  0  0  0
   13.4442   -2.4744    0.0000 H   0  0  0  0  0  0  0  0  0  0  0  0
    5.3383   -0.1445    0.0000 H   0  0  0  0  0  0  0  0  0  0  0  0
   16.1442   -2.4744    0.0000 H   0  0  0  0  0  0  0  0  0  0  0  0
    8.0057   -2.2910    0.0000 H   0  0  0  0  0  0  0  0  0  0  0  0
   10.1925    3.4529    0.0000 H   0  0  0  0  0  0  0  0  0  0  0  0
    9.4227    3.2466    0.0000 H   0  0  0  0  0  0  0  0  0  0  0  0
    8.4219    3.5649    0.0000 H   0  0  0  0  0  0  0  0  0  0  0  0
    8.3178    2.7746    0.0000 H   0  0  0  0  0  0  0  0  0  0  0  0
   16.1316   -2.8273    0.0000 H   0  0  0  0  0  0  0  0  0  0  0  0
    4.8421    1.7317    0.0000 H   0  0  0  0  0  0  0  0  0  0  0  0
   15.9350   -4.2708    0.0000 H   0  0  0  0  0  0  0  0  0  0  0  0
   13.6534   -4.2708    0.0000 H   0  0  0  0  0  0  0  0  0  0  0  0
    9.4843   -3.1455    0.0000 H   0  0  0  0  0  0  0  0  0  0  0  0
   10.6344    2.0702    0.0000 H   0  0  0  0  0  0  0  0  0  0  0  0
   11.4043    2.2765    0.0000 H   0  0  0  0  0  0  0  0  0  0  0  0
    9.8684    3.4440    0.0000 H   0  0  0  0  0  0  0  0  0  0  0  0
    9.9724    4.2342    0.0000 H   0  0  0  0  0  0  0  0  0  0  0  0
   10.9263   -2.6975    0.0000 H   0  0  0  0  0  0  0  0  0  0  0  0
   13.4578   -3.1111    0.0000 H   0  0  0  0  0  0  0  0  0  0  0  0
   11.7640    3.9381    0.0000 H   0  0  0  0  0  0  0  0  0  0  0  0
   11.0666    3.6493    0.0000 H   0  0  0  0  0  0  0  0  0  0  0  0
    6.8671   -3.5664    0.0000 H   0  0  0  0  0  0  0  0  0  0  0  0
   13.2967   -4.7382    0.0000 H   0  0  0  0  0  0  0  0  0  0  0  0
   13.2936   -5.5352    0.0000 H   0  0  0  0  0  0  0  0  0  0  0  0
    8.6480    5.2821    0.0000 H   0  0  0  0  0  0  0  0  0  0  0  0
    8.5439    4.4918    0.0000 H   0  0  0  0  0  0  0  0  0  0  0  0
   13.1862    3.5513    0.0000 H   0  0  0  0  0  0  0  0  0  0  0  0
   12.4959    3.9498    0.0000 H   0  0  0  0  0  0  0  0  0  0  0  0
   11.6719   -4.7812    0.0000 H   0  0  0  0  0  0  0  0  0  0  0  0
   11.9445   -4.0322    0.0000 H   0  0  0  0  0  0  0  0  0  0  0  0
   11.8227   -3.4916    0.0000 H   0  0  0  0  0  0  0  0  0  0  0  0
   11.5559   -4.2427    0.0000 H   0  0  0  0  0  0  0  0  0  0  0  0
   17.1450   -3.8901    0.0000 H   0  0  0  0  0  0  0  0  0  0  0  0
   10.0958   -2.8224    0.0000 H   0  0  0  0  0  0  0  0  0  0  0  0
    9.5928   -3.5407    0.0000 H   0  0  0  0  0  0  0  0  0  0  0  0
   10.3110   -4.0436    0.0000 H   0  0  0  0  0  0  0  0  0  0  0  0
    6.0010   -4.6864    0.0000 H   0  0  0  0  0  0  0  0  0  0  0  0
   16.4384   -5.1361    0.0000 H   0  0  0  0  0  0  0  0  0  0  0  0
   13.0747   -4.5407    0.0000 H   0  0  0  0  0  0  0  0  0  0  0  0
   13.9488   -4.6104    0.0000 H   0  0  0  0  0  0  0  0  0  0  0  0
   14.0185   -3.7364    0.0000 H   0  0  0  0  0  0  0  0  0  0  0  0
   12.5047    2.3128    0.0000 H   0  0  0  0  0  0  0  0  0  0  0  0
   13.1036    1.8532    0.0000 H   0  0  0  0  0  0  0  0  0  0  0  0
   10.0944    5.1612    0.0000 H   0  0  0  0  0  0  0  0  0  0  0  0
   10.1985    5.9515    0.0000 H   0  0  0  0  0  0  0  0  0  0  0  0
    6.8862   -4.9133    0.0000 H   0  0  0  0  0  0  0  0  0  0  0  0
    7.7331   -4.6864    0.0000 H   0  0  0  0  0  0  0  0  0  0  0  0
    7.5062   -3.8394    0.0000 H   0  0  0  0  0  0  0  0  0  0  0  0
   14.6871    2.2684    0.0000 H   0  0  0  0  0  0  0  0  0  0  0  0
   14.1235    2.8321    0.0000 H   0  0  0  0  0  0  0  0  0  0  0  0
   16.2692   -0.2749    0.0000 H   0  0  0  0  0  0  0  0  0  0  0  0
   16.2692    0.5222    0.0000 H   0  0  0  0  0  0  0  0  0  0  0  0
   13.7107    1.1944    0.0000 H   0  0  0  0  0  0  0  0  0  0  0  0
   14.2743    0.6309    0.0000 H   0  0  0  0  0  0  0  0  0  0  0  0
   15.8931    1.1501    0.0000 H   0  0  0  0  0  0  0  0  0  0  0  0
   15.2942    1.6097    0.0000 H   0  0  0  0  0  0  0  0  0  0  0  0
   10.1974   -4.4121    0.0000 H   0  0  0  0  0  0  0  0  0  0  0  0
   10.1209   -5.2855    0.0000 H   0  0  0  0  0  0  0  0  0  0  0  0
   10.9944   -5.3620    0.0000 H   0  0  0  0  0  0  0  0  0  0  0  0
   11.7084   -5.1219    0.0000 H   0  0  0  0  0  0  0  0  0  0  0  0
   12.4305   -5.6193    0.0000 H   0  0  0  0  0  0  0  0  0  0  0  0
   12.9278   -4.8972    0.0000 H   0  0  0  0  0  0  0  0  0  0  0  0
   13.9547   -6.5422    0.0000 H   0  0  0  0  0  0  0  0  0  0  0  0
    4.9081   -3.3394    0.0000 H   0  0  0  0  0  0  0  0  0  0  0  0
    4.0611   -3.5664    0.0000 H   0  0  0  0  0  0  0  0  0  0  0  0
    4.2881   -4.4133    0.0000 H   0  0  0  0  0  0  0  0  0  0  0  0
    9.8657    6.7795    0.0000 H   0  0  0  0  0  0  0  0  0  0  0  0
    9.0556    7.1150    0.0000 H   0  0  0  0  0  0  0  0  0  0  0  0
    8.7201    6.3050    0.0000 H   0  0  0  0  0  0  0  0  0  0  0  0
    3.1120   -2.3764    0.0000 H   0  0  0  0  0  0  0  0  0  0  0  0
    3.7320   -2.9964    0.0000 H   0  0  0  0  0  0  0  0  0  0  0  0
    4.3520   -2.3764    0.0000 H   0  0  0  0  0  0  0  0  0  0  0  0
    2.8660   -0.2564    0.0000 H   0  0  0  0  0  0  0  0  0  0  0  0
    4.9272   -5.6864    0.0000 H   0  0  0  0  0  0  0  0  0  0  0  0
    1.6900   -0.8394    0.0000 H   0  0  0  0  0  0  0  0  0  0  0  0
    1.4631   -1.6864    0.0000 H   0  0  0  0  0  0  0  0  0  0  0  0
    2.3100   -1.9133    0.0000 H   0  0  0  0  0  0  0  0  0  0  0  0
  1 31  1  0  0  0  0
  1 36  1  0  0  0  0
  2 34  1  0  0  0  0
  2 35  1  0  0  0  0
 32  3  1  6  0  0  0
 41  3  1  1  0  0  0
  4 34  1  0  0  0  0
  4 37  1  0  0  0  0
  5 36  1  0  0  0  0
  5 42  1  0  0  0  0
  6 41  1  0  0  0  0
  6 51  1  0  0  0  0
  7 44  1  0  0  0  0
  7 50  1  0  0  0  0
 33  8  1  6  0  0  0
  8121  1  0  0  0  0
  9 44  1  0  0  0  0
  9 53  1  0  0  0  0
 39 10  1  6  0  0  0
 10 63  1  0  0  0  0
 40 11  1  1  0  0  0
 11 64  1  0  0  0  0
 38 12  1  1  0  0  0
 12123  1  0  0  0  0
 43 13  1  1  0  0  0
 13131  1  0  0  0  0
 46 14  1  6  0  0  0
 14 67  1  0  0  0  0
 15 52  1  0  0  0  0
 15 56  1  0  0  0  0
 45 16  1  6  0  0  0
 16133  1  0  0  0  0
 48 17  1  1  0  0  0
 17 73  1  0  0  0  0
 47 18  1  6  0  0  0
 18139  1  0  0  0  0
 19 49  1  0  0  0  0
 19142  1  0  0  0  0
 20 56  1  0  0  0  0
 20 62  1  0  0  0  0
 21 57  1  0  0  0  0
 21 84  1  0  0  0  0
 60 22  1  1  0  0  0
 22162  1  0  0  0  0
 61 23  1  6  0  0  0
 23167  1  0  0  0  0
 24 63  2  0  0  0  0
 25 64  2  0  0  0  0
 26 67  2  0  0  0  0
 27 72  1  0  0  0  0
 27192  1  0  0  0  0
 28 73  2  0  0  0  0
 79 29  1  1  0  0  0
 29203  1  0  0  0  0
 30 84  2  0  0  0  0
 31 32  1  0  0  0  0
 31 33  1  0  0  0  0
 31 97  1  6  0  0  0
 32 34  1  0  0  0  0
 32 98  1  0  0  0  0
 33 35  1  0  0  0  0
 33 99  1  0  0  0  0
 34100  1  6  0  0  0
 35 49  1  1  0  0  0
 35101  1  0  0  0  0
 36 38  1  0  0  0  0
 36102  1  1  0  0  0
 37 43  1  0  0  0  0
 37 44  1  0  0  0  0
 37103  1  1  0  0  0
 38 39  1  0  0  0  0
 38104  1  0  0  0  0
 39 40  1  0  0  0  0
 39105  1  0  0  0  0
 40 42  1  0  0  0  0
 40106  1  0  0  0  0
 41 45  1  0  0  0  0
 41107  1  0  0  0  0
 42 52  1  0  0  0  0
 42108  1  1  0  0  0
 43 47  1  0  0  0  0
 43109  1  0  0  0  0
 44110  1  6  0  0  0
 45 46  1  0  0  0  0
 45111  1  0  0  0  0
 46 48  1  0  0  0  0
 46112  1  0  0  0  0
 47 50  1  0  0  0  0
 47113  1  0  0  0  0
 48 51  1  0  0  0  0
 48114  1  0  0  0  0
 49115  1  0  0  0  0
 49116  1  0  0  0  0
 50 54  1  1  0  0  0
 50117  1  0  0  0  0
 51 55  1  6  0  0  0
 51118  1  0  0  0  0
 52119  1  0  0  0  0
 52120  1  0  0  0  0
 53 58  1  0  0  0  0
 53 59  1  1  0  0  0
 53122  1  0  0  0  0
 54124  1  0  0  0  0
 54125  1  0  0  0  0
 54126  1  0  0  0  0
 55127  1  0  0  0  0
 55128  1  0  0  0  0
 55129  1  0  0  0  0
 56 57  1  0  0  0  0
 56130  1  6  0  0  0
 57 60  1  0  0  0  0
 57132  1  1  0  0  0
 58 65  1  0  0  0  0
 58134  1  0  0  0  0
 58135  1  0  0  0  0
 59 66  1  0  0  0  0
 59136  1  0  0  0  0
 59137  1  0  0  0  0
 60 61  1  0  0  0  0
 60138  1  0  0  0  0
 61 62  1  0  0  0  0
 61140  1  0  0  0  0
 62 72  1  1  0  0  0
 62141  1  0  0  0  0
 63 68  1  0  0  0  0
 64 69  1  0  0  0  0
 65 70  1  0  0  0  0
 65143  1  0  0  0  0
 65144  1  0  0  0  0
 66 74  1  0  0  0  0
 66145  1  0  0  0  0
 66146  1  0  0  0  0
 67 71  1  0  0  0  0
 68 76  1  0  0  0  0
 68 78  1  6  0  0  0
 68147  1  0  0  0  0
 69 77  1  0  0  0  0
 69 80  1  1  0  0  0
 69148  1  0  0  0  0
 70 75  1  0  0  0  0
 70149  1  0  0  0  0
 70150  1  0  0  0  0
 71 79  1  0  0  0  0
 71 83  1  1  0  0  0
 71151  1  0  0  0  0
 72152  1  0  0  0  0
 72153  1  0  0  0  0
 73 85  1  0  0  0  0
 74 82  1  0  0  0  0
 74154  1  0  0  0  0
 74155  1  0  0  0  0
 75 81  1  0  0  0  0
 75156  1  0  0  0  0
 75157  1  0  0  0  0
 76 90  1  0  0  0  0
 76158  1  0  0  0  0
 76159  1  0  0  0  0
 77 91  1  0  0  0  0
 77160  1  0  0  0  0
 77161  1  0  0  0  0
 78163  1  0  0  0  0
 78164  1  0  0  0  0
 78165  1  0  0  0  0
 79 92  1  0  0  0  0
 79166  1  0  0  0  0
 80168  1  0  0  0  0
 80169  1  0  0  0  0
 80170  1  0  0  0  0
 81 86  1  0  0  0  0
 81171  1  0  0  0  0
 81172  1  0  0  0  0
 82 93  1  0  0  0  0
 82173  1  0  0  0  0
 82174  1  0  0  0  0
 83175  1  0  0  0  0
 83176  1  0  0  0  0
 83177  1  0  0  0  0
 84 87  1  0  0  0  0
 85 94  1  0  0  0  0
 85 95  2  0  0  0  0
 86 88  1  0  0  0  0
 86178  1  0  0  0  0
 86179  1  0  0  0  0
 87 89  1  0  0  0  0
 87180  1  0  0  0  0
 87181  1  0  0  0  0
 88 89  1  0  0  0  0
 88182  1  0  0  0  0
 88183  1  0  0  0  0
 89184  1  0  0  0  0
 89185  1  0  0  0  0
 90186  1  0  0  0  0
 90187  1  0  0  0  0
 90188  1  0  0  0  0
 91189  1  0  0  0  0
 91190  1  0  0  0  0
 91191  1  0  0  0  0
 92193  1  0  0  0  0
 92194  1  0  0  0  0
 92195  1  0  0  0  0
 93196  1  0  0  0  0
 93197  1  0  0  0  0
 93198  1  0  0  0  0
 94199  1  0  0  0  0
 94200  1  0  0  0  0
 94201  1  0  0  0  0
 95 96  1  0  0  0  0
 95202  1  0  0  0  0
 96204  1  0  0  0  0
 96205  1  0  0  0  0
 96206  1  0  0  0  0
M  END
> <PUBCHEM_COMPOUND_CID>
56833554

> <PUBCHEM_COMPOUND_CANONICALIZED>
1

> <PUBCHEM_CACTVS_COMPLEXITY>
2420

> <PUBCHEM_CACTVS_HBOND_ACCEPTOR>
30

> <PUBCHEM_CACTVS_HBOND_DONOR>
10

> <PUBCHEM_CACTVS_ROTATABLE_BOND>
23

> <PUBCHEM_CACTVS_SUBSKEYS>
AAADcfB8PgAAAAAAAAAAAAAAAAAAAAAAAAAkSJEiQAAAAAAAAAAAGgAACAAADRSwgAMCCAAABgCIAiDSCAAAAAAAAAAACAEAAEARFBYAIQAiUAAFIAAHIYHI6KyIAAAAAAAAAAAAAAAAAAAAAAAAAAAAAA==

> <PUBCHEM_IUPAC_OPENEYE_NAME>
[(2S,3R,4S,5S,6S)-2-[[(1S,3S,4R,5R,7S,9R,10S,11S,12R,14R,16S,28R,29S,30S,31R,33R,36R,37R,38R,39R,41R)-4,10,11,29,30,39-hexahydroxy-5,31-bis(hydroxymethyl)-12-methyl-37,38-bis[[(2S)-2-methylbutanoyl]oxy]-26-oxo-16-pentyl-2,6,8,13,15,27,32,34,40-nonaoxapentacyclo[34.3.1.13,7.09,14.028,33]hentetracontan-41-yl]oxy]-3-hydroxy-6-methyl-5-[(E)-2-methylbut-2-enoyl]oxy-tetrahydropyran-4-yl] (2S,3S)-3-hydroxy-2-methyl-butanoate

> <PUBCHEM_IUPAC_CAS_NAME>
(2S,3S)-3-hydroxy-2-methylbutanoic acid [(2S,3R,4S,5S,6S)-2-[[(1S,3S,4R,5R,7S,9R,10S,11S,12R,14R,16S,28R,29S,30S,31R,33R,36R,37R,38R,39R,41R)-4,10,11,29,30,39-hexahydroxy-5,31-bis(hydroxymethyl)-12-methyl-37,38-bis[(2S)-2-methyl-1-oxobutoxy]-26-oxo-16-pentyl-2,6,8,13,15,27,32,34,40-nonaoxapentacyclo[34.3.1.13,7.09,14.028,33]hentetracontan-41-yl]oxy]-3-hydroxy-6-methyl-5-[(E)-2-methyl-1-oxobut-2-enoxy]-4-oxanyl] ester

> <PUBCHEM_IUPAC_NAME_MARKUP>
[(2<I>S</I>,3<I>R</I>,4<I>S</I>,5<I>S</I>,6<I>S</I>)-2-[[(1<I>S</I>,3<I>S</I>,4<I>R</I>,5<I>R</I>,7<I>S</I>,9<I>R</I>,10<I>S</I>,11<I>S</I>,12<I>R</I>,14<I>R</I>,16<I>S</I>,28<I>R</I>,29<I>S</I>,30<I>S</I>,31<I>R</I>,33<I>R</I>,36<I>R</I>,37<I>R</I>,38<I>R</I>,39<I>R</I>,41<I>R</I>)-4,10,11,29,30,39-hexahydroxy-5,31-bis(hydroxymethyl)-12-methyl-37,38-bis[[(2<I>S</I>)-2-methylbutanoyl]oxy]-26-oxo-16-pentyl-2,6,8,13,15,27,32,34,40-nonaoxapentacyclo[34.3.1.1<SUP>3,7</SUP>.0<SUP>9,14</SUP>.0<SUP>28,33</SUP>]hentetracontan-41-yl]oxy]-3-hydroxy-6-methyl-5-[(<I>E</I>)-2-methylbut-2-enoyl]oxyoxan-4-yl] (2<I>S</I>,3<I>S</I>)-3-hydroxy-2-methylbutanoate

> <PUBCHEM_IUPAC_NAME>
[(2S,3R,4S,5S,6S)-2-[[(1S,3S,4R,5R,7S,9R,10S,11S,12R,14R,16S,28R,29S,30S,31R,33R,36R,37R,38R,39R,41R)-4,10,11,29,30,39-hexahydroxy-5,31-bis(hydroxymethyl)-12-methyl-37,38-bis[[(2S)-2-methylbutanoyl]oxy]-26-oxo-16-pentyl-2,6,8,13,15,27,32,34,40-nonaoxapentacyclo[34.3.1.13,7.09,14.028,33]hentetracontan-41-yl]oxy]-3-hydroxy-6-methyl-5-[(E)-2-methylbut-2-enoyl]oxyoxan-4-yl] (2S,3S)-3-hydroxy-2-methylbutanoate

> <PUBCHEM_IUPAC_SYSTEMATIC_NAME>
[(2S,3R,4S,5S,6S)-2-[[(1S,3S,4R,5R,7S,9R,10S,11S,12R,14R,16S,28R,29S,30S,31R,33R,36R,37R,38R,39R,41R)-5,31-bis(hydroxymethyl)-12-methyl-37,38-bis[[(2S)-2-methylbutanoyl]oxy]-4,10,11,29,30,39-hexakis(oxidanyl)-26-oxidanylidene-16-pentyl-2,6,8,13,15,27,32,34,40-nonaoxapentacyclo[34.3.1.13,7.09,14.028,33]hentetracontan-41-yl]oxy]-6-methyl-5-[(E)-2-methylbut-2-enoyl]oxy-3-oxidanyl-oxan-4-yl] (2S,3S)-2-methyl-3-oxidanyl-butanoate

> <PUBCHEM_IUPAC_TRADITIONAL_NAME>
(2S,3S)-3-hydroxy-2-methyl-butyric acid [(2S,3R,4S,5S,6S)-2-[[(1S,3S,4R,5R,7S,9R,10S,11S,12R,14R,16S,28R,29S,30S,31R,33R,36R,37R,38R,39R,41R)-16-amyl-4,10,11,29,30,39-hexahydroxy-26-keto-12-methyl-37,38-bis[[(2S)-2-methylbutanoyl]oxy]-5,31-dimethylol-2,6,8,13,15,27,32,34,40-nonaoxapentacyclo[34.3.1.13,7.09,14.028,33]hentetracontan-41-yl]oxy]-3-hydroxy-6-methyl-5-[(E)-2-methylbut-2-enoyl]oxy-tetrahydropyran-4-yl] ester

> <PUBCHEM_IUPAC_INCHI>
InChI=1S/C66H110O30/c1-12-16-22-25-38-26-23-20-18-17-19-21-24-27-42(70)89-55-47(75)44(72)39(28-67)86-64(55)82-30-41-51(91-59(79)32(6)14-3)54(92-60(80)33(7)15-4)49(77)63(88-41)94-52-45(73)40(29-68)87-66(95-56-46(74)43(71)36(10)83-65(56)85-38)57(52)96-62-48(76)53(93-61(81)34(8)35(9)69)50(37(11)84-62)90-58(78)31(5)13-2/h13,32-41,43-57,62-69,71-77H,12,14-30H2,1-11H3/b31-13+/t32-,33-,34-,35-,36+,37-,38-,39+,40+,41+,43+,44+,45+,46-,47-,48+,49+,50-,51+,52-,53-,54+,55+,56+,57+,62-,63-,64+,65-,66-/m0/s1

> <PUBCHEM_IUPAC_INCHIKEY>
OBFQLSAPCYUFRB-CXKBSNDASA-N

> <PUBCHEM_XLOGP3_AA>
5

> <PUBCHEM_EXACT_MASS>
1382.708192

> <PUBCHEM_MOLECULAR_FORMULA>
C66H110O30

> <PUBCHEM_MOLECULAR_WEIGHT>
1383.6

> <PUBCHEM_OPENEYE_CAN_SMILES>
CCCCCC1CCCCCCCCCC(=O)OC2C(C(C(OC2OCC3C(C(C(C(O3)OC4C(C(OC(C4OC5C(C(C(C(O5)C)OC(=O)C(=CC)C)OC(=O)C(C)C(C)O)O)OC6C(C(C(OC6O1)C)O)O)CO)O)O)OC(=O)C(C)CC)OC(=O)C(C)CC)CO)O)O

> <PUBCHEM_OPENEYE_ISO_SMILES>
CCCCC[C@H]1CCCCCCCCCC(=O)O[C@@H]2[C@H]([C@@H]([C@H](O[C@H]2OC[C@@H]3[C@H]([C@@H]([C@H]([C@@H](O3)O[C@H]4[C@@H]([C@H](O[C@H]([C@@H]4O[C@H]5[C@@H]([C@@H]([C@H]([C@@H](O5)C)OC(=O)/C(=C/C)/C)OC(=O)[C@@H](C)[C@H](C)O)O)O[C@@H]6[C@H]([C@@H]([C@H](O[C@H]6O1)C)O)O)CO)O)O)OC(=O)[C@@H](C)CC)OC(=O)[C@@H](C)CC)CO)O)O

> <PUBCHEM_CACTVS_TPSA>
426

> <PUBCHEM_MONOISOTOPIC_WEIGHT>
1382.708192

> <PUBCHEM_TOTAL_CHARGE>
0

> <PUBCHEM_HEAVY_ATOM_COUNT>
96

> <PUBCHEM_ATOM_DEF_STEREO_COUNT>
30

> <PUBCHEM_ATOM_UDEF_STEREO_COUNT>
0

> <PUBCHEM_BOND_DEF_STEREO_COUNT>
1

> <PUBCHEM_BOND_UDEF_STEREO_COUNT>
0

> <PUBCHEM_ISOTOPIC_ATOM_COUNT>
0

> <PUBCHEM_COMPONENT_COUNT>
1

> <PUBCHEM_CACTVS_TAUTO_COUNT>
-1

> <PUBCHEM_COORDINATE_TYPE>
1
5
255

> <PUBCHEM_BONDANNOTATIONS>
39  10  6
40  11  5
38  12  5
43  13  5
46  14  6
45  16  6
48  17  5
47  18  6
60  22  5
61  23  6
79  29  5
32  3  6
41  3  5
31  97  6
34  100  6
35  49  5
36  102  5
37  103  5
42  108  5
44  110  6
50  54  5
51  55  6
53  59  5
56  130  6
57  132  5
62  72  5
68  78  6
69  80  5
71  83  5
33  8  6

$$$$
