56833467
  -OEChem-09162014332D

206211  0     1  0  0  0  0  0999 V2000
   10.4282   -0.1251    0.0000 O   0  0  0  0  0  0  0  0  0  0  0  0
    7.4282   -0.1251    0.0000 O   0  0  0  0  0  0  0  0  0  0  0  0
    8.9282   -1.9911    0.0000 O   0  0  0  0  0  0  0  0  0  0  0  0
    7.4282   -1.8571    0.0000 O   0  0  0  0  0  0  0  0  0  0  0  0
   10.4282    1.6070    0.0000 O   0  0  0  0  0  0  0  0  0  0  0  0
    7.1962   -1.9911    0.0000 O   0  0  0  0  0  0  0  0  0  0  0  0
    9.5956   -3.7755    0.0000 O   0  0  0  0  0  0  0  0  0  0  0  0
    9.7942    1.2409    0.0000 O   0  0  0  0  0  0  0  0  0  0  0  0
    9.5610   -2.0156    0.0000 O   0  0  0  0  0  0  0  0  0  0  0  0
    8.4011    1.6070    0.0000 O   0  0  0  0  0  0  0  0  0  0  0  0
    9.1514    3.1334    0.0000 O   0  0  0  0  0  0  0  0  0  0  0  0
    9.0503    0.2225    0.0000 O   0  0  0  0  0  0  0  0  0  0  0  0
    8.9282   -3.9911    0.0000 O   0  0  0  0  0  0  0  0  0  0  0  0
    6.5827   -4.1067    0.0000 O   0  0  0  0  0  0  0  0  0  0  0  0
    9.4282    3.3390    0.0000 O   0  0  0  0  0  0  0  0  0  0  0  0
    5.4641   -3.9911    0.0000 O   0  0  0  0  0  0  0  0  0  0  0  0
    7.5368   -5.5457    0.0000 O   0  0  0  0  0  0  0  0  0  0  0  0
    7.1962   -4.9911    0.0000 O   0  0  0  0  0  0  0  0  0  0  0  0
    6.5622    0.3749    0.0000 O   0  0  0  0  0  0  0  0  0  0  0  0
    7.8867    4.1890    0.0000 O   0  0  0  0  0  0  0  0  0  0  0  0
   10.4282    5.0711    0.0000 O   0  0  0  0  0  0  0  0  0  0  0  0
    9.4313    6.8412    0.0000 O   0  0  0  0  0  0  0  0  0  0  0  0
    7.3831    6.8570    0.0000 O   0  0  0  0  0  0  0  0  0  0  0  0
    7.8088    3.2346    0.0000 O   0  0  0  0  0  0  0  0  0  0  0  0
    7.8599    1.8616    0.0000 O   0  0  0  0  0  0  0  0  0  0  0  0
    8.6275   -5.6969    0.0000 O   0  0  0  0  0  0  0  0  0  0  0  0
    5.8556    5.9473    0.0000 O   0  0  0  0  0  0  0  0  0  0  0  0
    4.5981   -2.4911    0.0000 O   0  0  0  0  0  0  0  0  0  0  0  0
    9.9544   -6.8102    0.0000 O   0  0  0  0  0  0  0  0  0  0  0  0
   11.4282    3.3390    0.0000 O   0  0  0  0  0  0  0  0  0  0  0  0
    9.4282   -0.1251    0.0000 C   0  0  2  0  0  0  0  0  0  0  0  0
    8.9282   -0.9911    0.0000 C   0  0  2  0  0  0  0  0  0  0  0  0
    8.9282    0.7409    0.0000 C   0  0  1  0  0  0  0  0  0  0  0  0
    7.9282   -0.9911    0.0000 C   0  0  1  0  0  0  0  0  0  0  0  0
    7.9282    0.7409    0.0000 C   0  0  1  0  0  0  0  0  0  0  0  0
   10.9282    0.7409    0.0000 C   0  0  2  0  0  0  0  0  0  0  0  0
    8.0610   -2.8816    0.0000 C   0  0  2  0  0  0  0  0  0  0  0  0
    9.9124    0.7292    0.0000 C   0  0  1  0  0  0  0  0  0  0  0  0
    9.4011    1.6070    0.0000 C   0  0  2  0  0  0  0  0  0  0  0  0
    8.0622   -2.4911    0.0000 C   0  0  2  0  0  0  0  0  0  0  0  0
    9.9124    2.4847    0.0000 C   0  0  1  0  0  0  0  0  0  0  0  0
   10.9282    2.4730    0.0000 C   0  0  1  0  0  0  0  0  0  0  0  0
    7.5263   -3.7755    0.0000 C   0  0  2  0  0  0  0  0  0  0  0  0
    8.0622   -3.4911    0.0000 C   0  0  1  0  0  0  0  0  0  0  0  0
    9.0610   -2.8816    0.0000 C   0  0  1  0  0  0  0  0  0  0  0  0
    8.0402   -4.6816    0.0000 C   0  0  1  0  0  0  0  0  0  0  0  0
    7.1962   -3.9911    0.0000 C   0  0  1  0  0  0  0  0  0  0  0  0
    6.3301   -3.4911    0.0000 C   0  0  2  0  0  0  0  0  0  0  0  0
    7.0622    1.2409    0.0000 C   0  0  0  0  0  0  0  0  0  0  0  0
    9.0818   -4.6816    0.0000 C   0  0  1  0  0  0  0  0  0  0  0  0
    6.3301   -2.4911    0.0000 C   0  0  2  0  0  0  0  0  0  0  0  0
   10.4282    3.3390    0.0000 C   0  0  0  0  0  0  0  0  0  0  0  0
   10.4270   -2.5156    0.0000 C   0  0  2  0  0  0  0  0  0  0  0  0
    9.5851   -5.5457    0.0000 C   0  0  0  0  0  0  0  0  0  0  0  0
    5.4641   -1.9911    0.0000 C   0  0  0  0  0  0  0  0  0  0  0  0
    8.9282    4.2050    0.0000 C   0  0  2  0  0  0  0  0  0  0  0  0
    9.4282    5.0711    0.0000 C   0  0  1  0  0  0  0  0  0  0  0  0
   11.3929   -2.2567    0.0000 C   0  0  0  0  0  0  0  0  0  0  0  0
   11.0358   -3.3089    0.0000 C   0  0  0  0  0  0  0  0  0  0  0  0
    8.9214    5.9811    0.0000 C   0  0  2  0  0  0  0  0  0  0  0  0
    7.8798    5.9891    0.0000 C   0  0  1  0  0  0  0  0  0  0  0  0
    7.3589    5.0870    0.0000 C   0  0  1  0  0  0  0  0  0  0  0  0
    7.6351    2.2498    0.0000 C   0  0  0  0  0  0  0  0  0  0  0  0
    8.2091    2.7986    0.0000 C   0  0  0  0  0  0  0  0  0  0  0  0
   11.6517   -1.2908    0.0000 C   0  0  0  0  0  0  0  0  0  0  0  0
    9.2703   -4.9308    0.0000 C   0  0  0  0  0  0  0  0  0  0  0  0
   12.0272   -3.1784    0.0000 C   0  0  0  0  0  0  0  0  0  0  0  0
    6.6954    1.9077    0.0000 C   0  0  2  0  0  0  0  0  0  0  0  0
    7.3469    3.3053    0.0000 C   0  0  2  0  0  0  0  0  0  0  0  0
   10.2550   -5.1045    0.0000 C   0  0  2  0  0  0  0  0  0  0  0  0
   12.6177   -1.0320    0.0000 C   0  0  0  0  0  0  0  0  0  0  0  0
    6.3590    5.0832    0.0000 C   0  0  0  0  0  0  0  0  0  0  0  0
    4.5981   -3.4911    0.0000 C   0  0  0  0  0  0  0  0  0  0  0  0
   12.6360   -3.9718    0.0000 C   0  0  0  0  0  0  0  0  0  0  0  0
   13.1177   -0.1660    0.0000 C   0  0  0  0  0  0  0  0  0  0  0  0
    5.9294    2.5505    0.0000 C   0  0  0  0  0  0  0  0  0  0  0  0
    6.4771    2.8120    0.0000 C   0  0  0  0  0  0  0  0  0  0  0  0
   10.5971   -6.0442    0.0000 C   0  0  2  0  0  0  0  0  0  0  0  0
    6.0527    1.1415    0.0000 C   0  0  0  0  0  0  0  0  0  0  0  0
    6.8536    4.1752    0.0000 C   0  0  0  0  0  0  0  0  0  0  0  0
   12.6177    0.7000    0.0000 C   0  0  0  0  0  0  0  0  0  0  0  0
   10.8978   -4.3384    0.0000 C   0  0  0  0  0  0  0  0  0  0  0  0
   13.6274   -3.8412    0.0000 C   0  0  0  0  0  0  0  0  0  0  0  0
   10.9282    4.2050    0.0000 C   0  0  0  0  0  0  0  0  0  0  0  0
    3.7320   -3.9911    0.0000 C   0  0  0  0  0  0  0  0  0  0  0  0
   12.8765    1.6660    0.0000 C   0  0  0  0  0  0  0  0  0  0  0  0
   11.9282    4.2050    0.0000 C   0  0  0  0  0  0  0  0  0  0  0  0
   12.1694    2.3731    0.0000 C   0  0  0  0  0  0  0  0  0  0  0  0
   12.4282    3.3390    0.0000 C   0  0  0  0  0  0  0  0  0  0  0  0
    4.9897    2.2085    0.0000 C   0  0  0  0  0  0  0  0  0  0  0  0
    5.6149    3.3186    0.0000 C   0  0  0  0  0  0  0  0  0  0  0  0
   11.5819   -6.2178    0.0000 C   0  0  0  0  0  0  0  0  0  0  0  0
   14.2362   -4.6346    0.0000 C   0  0  0  0  0  0  0  0  0  0  0  0
    3.7320   -4.9911    0.0000 C   0  0  0  0  0  0  0  0  0  0  0  0
    2.8660   -3.4911    0.0000 C   0  0  0  0  0  0  0  0  0  0  0  0
    2.0000   -3.9911    0.0000 C   0  0  0  0  0  0  0  0  0  0  0  0
    9.8532   -0.8612    0.0000 H   0  0  0  0  0  0  0  0  0  0  0  0
    9.8679   -1.3331    0.0000 H   0  0  0  0  0  0  0  0  0  0  0  0
    8.7677    1.3398    0.0000 H   0  0  0  0  0  0  0  0  0  0  0  0
    7.0782   -0.9911    0.0000 H   0  0  0  0  0  0  0  0  0  0  0  0
    7.3293    0.5805    0.0000 H   0  0  0  0  0  0  0  0  0  0  0  0
   11.6668    0.3202    0.0000 H   0  0  0  0  0  0  0  0  0  0  0  0
    7.2110   -2.8816    0.0000 H   0  0  0  0  0  0  0  0  0  0  0  0
   10.0787    0.1319    0.0000 H   0  0  0  0  0  0  0  0  0  0  0  0
    9.0922    2.1445    0.0000 H   0  0  0  0  0  0  0  0  0  0  0  0
    9.3012    2.3806    0.0000 H   0  0  0  0  0  0  0  0  0  0  0  0
    8.0622   -1.8711    0.0000 H   0  0  0  0  0  0  0  0  0  0  0  0
   11.3532    1.7369    0.0000 H   0  0  0  0  0  0  0  0  0  0  0  0
    7.1342   -3.2952    0.0000 H   0  0  0  0  0  0  0  0  0  0  0  0
    8.0622   -4.1111    0.0000 H   0  0  0  0  0  0  0  0  0  0  0  0
    8.6360   -3.6177    0.0000 H   0  0  0  0  0  0  0  0  0  0  0  0
    7.4202   -4.6780    0.0000 H   0  0  0  0  0  0  0  0  0  0  0  0
    6.6592   -4.3011    0.0000 H   0  0  0  0  0  0  0  0  0  0  0  0
    6.3301   -4.1111    0.0000 H   0  0  0  0  0  0  0  0  0  0  0  0
    7.3722    1.7779    0.0000 H   0  0  0  0  0  0  0  0  0  0  0  0
    6.5252    1.5509    0.0000 H   0  0  0  0  0  0  0  0  0  0  0  0
    9.7018   -4.6780    0.0000 H   0  0  0  0  0  0  0  0  0  0  0  0
    6.3301   -1.8711    0.0000 H   0  0  0  0  0  0  0  0  0  0  0  0
   11.0108    3.5511    0.0000 H   0  0  0  0  0  0  0  0  0  0  0  0
   10.3205    3.9496    0.0000 H   0  0  0  0  0  0  0  0  0  0  0  0
   10.3768    1.0289    0.0000 H   0  0  0  0  0  0  0  0  0  0  0  0
   10.1897   -3.0884    0.0000 H   0  0  0  0  0  0  0  0  0  0  0  0
    8.4389    0.3255    0.0000 H   0  0  0  0  0  0  0  0  0  0  0  0
    9.0494   -5.8578    0.0000 H   0  0  0  0  0  0  0  0  0  0  0  0
    9.8972   -6.0814    0.0000 H   0  0  0  0  0  0  0  0  0  0  0  0
   10.1209   -5.2336    0.0000 H   0  0  0  0  0  0  0  0  0  0  0  0
    5.7741   -1.4542    0.0000 H   0  0  0  0  0  0  0  0  0  0  0  0
    4.9272   -1.6811    0.0000 H   0  0  0  0  0  0  0  0  0  0  0  0
    5.1541   -2.5281    0.0000 H   0  0  0  0  0  0  0  0  0  0  0  0
    8.5032    3.4689    0.0000 H   0  0  0  0  0  0  0  0  0  0  0  0
    6.4680   -4.7159    0.0000 H   0  0  0  0  0  0  0  0  0  0  0  0
    9.8532    5.8072    0.0000 H   0  0  0  0  0  0  0  0  0  0  0  0
   11.4470   -2.8744    0.0000 H   0  0  0  0  0  0  0  0  0  0  0  0
   12.0106   -2.3108    0.0000 H   0  0  0  0  0  0  0  0  0  0  0  0
   10.4858   -3.5952    0.0000 H   0  0  0  0  0  0  0  0  0  0  0  0
   11.2222   -3.9002    0.0000 H   0  0  0  0  0  0  0  0  0  0  0  0
    8.6166    6.5210    0.0000 H   0  0  0  0  0  0  0  0  0  0  0  0
    7.8448   -6.0838    0.0000 H   0  0  0  0  0  0  0  0  0  0  0  0
    6.6592   -5.3011    0.0000 H   0  0  0  0  0  0  0  0  0  0  0  0
    7.2598    5.9903    0.0000 H   0  0  0  0  0  0  0  0  0  0  0  0
    7.0520    4.5483    0.0000 H   0  0  0  0  0  0  0  0  0  0  0  0
    5.9421    0.3750    0.0000 H   0  0  0  0  0  0  0  0  0  0  0  0
   11.5977   -0.6732    0.0000 H   0  0  0  0  0  0  0  0  0  0  0  0
   11.0341   -1.2368    0.0000 H   0  0  0  0  0  0  0  0  0  0  0  0
   12.5772   -2.8921    0.0000 H   0  0  0  0  0  0  0  0  0  0  0  0
   11.8408   -2.5871    0.0000 H   0  0  0  0  0  0  0  0  0  0  0  0
    7.0511    1.3998    0.0000 H   0  0  0  0  0  0  0  0  0  0  0  0
    7.7887    3.7403    0.0000 H   0  0  0  0  0  0  0  0  0  0  0  0
   10.8656   -5.2121    0.0000 H   0  0  0  0  0  0  0  0  0  0  0  0
   12.6177   -1.6520    0.0000 H   0  0  0  0  0  0  0  0  0  0  0  0
   13.2165   -1.1925    0.0000 H   0  0  0  0  0  0  0  0  0  0  0  0
    5.7772    4.8689    0.0000 H   0  0  0  0  0  0  0  0  0  0  0  0
    6.4690    4.4730    0.0000 H   0  0  0  0  0  0  0  0  0  0  0  0
   12.0860   -4.2580    0.0000 H   0  0  0  0  0  0  0  0  0  0  0  0
   12.8224   -4.5630    0.0000 H   0  0  0  0  0  0  0  0  0  0  0  0
   13.5926   -0.5645    0.0000 H   0  0  0  0  0  0  0  0  0  0  0  0
   13.5926    0.2326    0.0000 H   0  0  0  0  0  0  0  0  0  0  0  0
    6.4043    2.9490    0.0000 H   0  0  0  0  0  0  0  0  0  0  0  0
    5.6194    3.0874    0.0000 H   0  0  0  0  0  0  0  0  0  0  0  0
    6.0749    2.3401    0.0000 H   0  0  0  0  0  0  0  0  0  0  0  0
    6.8719    2.3340    0.0000 H   0  0  0  0  0  0  0  0  0  0  0  0
    9.9865   -5.9365    0.0000 H   0  0  0  0  0  0  0  0  0  0  0  0
    9.1276    7.3817    0.0000 H   0  0  0  0  0  0  0  0  0  0  0  0
    5.5777    1.5400    0.0000 H   0  0  0  0  0  0  0  0  0  0  0  0
    5.6542    0.6665    0.0000 H   0  0  0  0  0  0  0  0  0  0  0  0
    6.5277    0.7431    0.0000 H   0  0  0  0  0  0  0  0  0  0  0  0
    7.6952    7.3928    0.0000 H   0  0  0  0  0  0  0  0  0  0  0  0
    7.3929    4.4810    0.0000 H   0  0  0  0  0  0  0  0  0  0  0  0
    6.5478    4.7145    0.0000 H   0  0  0  0  0  0  0  0  0  0  0  0
    6.3143    3.8693    0.0000 H   0  0  0  0  0  0  0  0  0  0  0  0
   12.0807    1.0100    0.0000 H   0  0  0  0  0  0  0  0  0  0  0  0
   12.1793    0.2616    0.0000 H   0  0  0  0  0  0  0  0  0  0  0  0
   11.3728   -4.7369    0.0000 H   0  0  0  0  0  0  0  0  0  0  0  0
   11.2963   -3.8635    0.0000 H   0  0  0  0  0  0  0  0  0  0  0  0
   10.4229   -3.9399    0.0000 H   0  0  0  0  0  0  0  0  0  0  0  0
   14.1774   -3.5549    0.0000 H   0  0  0  0  0  0  0  0  0  0  0  0
   13.4410   -3.2499    0.0000 H   0  0  0  0  0  0  0  0  0  0  0  0
   13.4384    1.4040    0.0000 H   0  0  0  0  0  0  0  0  0  0  0  0
   13.2321    2.1738    0.0000 H   0  0  0  0  0  0  0  0  0  0  0  0
   12.5108    4.4171    0.0000 H   0  0  0  0  0  0  0  0  0  0  0  0
   11.8205    4.8156    0.0000 H   0  0  0  0  0  0  0  0  0  0  0  0
   11.6075    2.6351    0.0000 H   0  0  0  0  0  0  0  0  0  0  0  0
   11.8138    1.8652    0.0000 H   0  0  0  0  0  0  0  0  0  0  0  0
   12.9651    3.0290    0.0000 H   0  0  0  0  0  0  0  0  0  0  0  0
   12.8666    3.7774    0.0000 H   0  0  0  0  0  0  0  0  0  0  0  0
    4.7776    2.7911    0.0000 H   0  0  0  0  0  0  0  0  0  0  0  0
    4.4070    1.9964    0.0000 H   0  0  0  0  0  0  0  0  0  0  0  0
    5.2017    1.6258    0.0000 H   0  0  0  0  0  0  0  0  0  0  0  0
    5.9291    3.8532    0.0000 H   0  0  0  0  0  0  0  0  0  0  0  0
    5.0804    3.6328    0.0000 H   0  0  0  0  0  0  0  0  0  0  0  0
    5.3008    2.7841    0.0000 H   0  0  0  0  0  0  0  0  0  0  0  0
   11.4742   -6.8284    0.0000 H   0  0  0  0  0  0  0  0  0  0  0  0
   12.1924   -6.3255    0.0000 H   0  0  0  0  0  0  0  0  0  0  0  0
   11.6895   -5.6072    0.0000 H   0  0  0  0  0  0  0  0  0  0  0  0
    5.2356    5.9449    0.0000 H   0  0  0  0  0  0  0  0  0  0  0  0
   13.7443   -5.0120    0.0000 H   0  0  0  0  0  0  0  0  0  0  0  0
   14.6136   -5.1264    0.0000 H   0  0  0  0  0  0  0  0  0  0  0  0
   14.7281   -4.2571    0.0000 H   0  0  0  0  0  0  0  0  0  0  0  0
    3.1120   -4.9911    0.0000 H   0  0  0  0  0  0  0  0  0  0  0  0
    3.7320   -5.6111    0.0000 H   0  0  0  0  0  0  0  0  0  0  0  0
    4.3520   -4.9911    0.0000 H   0  0  0  0  0  0  0  0  0  0  0  0
   10.1664   -7.3928    0.0000 H   0  0  0  0  0  0  0  0  0  0  0  0
    2.8660   -2.8711    0.0000 H   0  0  0  0  0  0  0  0  0  0  0  0
    1.6900   -3.4542    0.0000 H   0  0  0  0  0  0  0  0  0  0  0  0
    1.4631   -4.3011    0.0000 H   0  0  0  0  0  0  0  0  0  0  0  0
    2.3100   -4.5281    0.0000 H   0  0  0  0  0  0  0  0  0  0  0  0
  1 31  1  0  0  0  0
  1 36  1  0  0  0  0
  2 34  1  0  0  0  0
  2 35  1  0  0  0  0
 32  3  1  1  0  0  0
 40  3  1  1  0  0  0
  4 34  1  0  0  0  0
  4 37  1  0  0  0  0
  5 36  1  0  0  0  0
  5 42  1  0  0  0  0
  6 40  1  0  0  0  0
  6 51  1  0  0  0  0
  7 45  1  0  0  0  0
  7 50  1  0  0  0  0
 33  8  1  1  0  0  0
  8121  1  0  0  0  0
  9 45  1  0  0  0  0
  9 53  1  0  0  0  0
 39 10  1  1  0  0  0
 10 63  1  0  0  0  0
 41 11  1  6  0  0  0
 11 64  1  0  0  0  0
 38 12  1  6  0  0  0
 12123  1  0  0  0  0
 44 13  1  6  0  0  0
 13 66  1  0  0  0  0
 43 14  1  6  0  0  0
 14131  1  0  0  0  0
 15 52  1  0  0  0  0
 15 56  1  0  0  0  0
 48 16  1  1  0  0  0
 16 73  1  0  0  0  0
 46 17  1  1  0  0  0
 17138  1  0  0  0  0
 47 18  1  6  0  0  0
 18139  1  0  0  0  0
 19 49  1  0  0  0  0
 19142  1  0  0  0  0
 20 56  1  0  0  0  0
 20 62  1  0  0  0  0
 21 57  1  0  0  0  0
 21 84  1  0  0  0  0
 60 22  1  6  0  0  0
 22163  1  0  0  0  0
 61 23  1  1  0  0  0
 23167  1  0  0  0  0
 24 63  2  0  0  0  0
 25 64  2  0  0  0  0
 26 66  2  0  0  0  0
 27 72  1  0  0  0  0
 27195  1  0  0  0  0
 28 73  2  0  0  0  0
 78 29  1  6  0  0  0
 29202  1  0  0  0  0
 30 84  2  0  0  0  0
 31 32  1  0  0  0  0
 31 33  1  0  0  0  0
 31 97  1  1  0  0  0
 32 34  1  0  0  0  0
 32 98  1  0  0  0  0
 33 35  1  0  0  0  0
 33 99  1  0  0  0  0
 34100  1  1  0  0  0
 35 49  1  6  0  0  0
 35101  1  0  0  0  0
 36 38  1  0  0  0  0
 36102  1  6  0  0  0
 37 43  1  0  0  0  0
 37 45  1  0  0  0  0
 37103  1  6  0  0  0
 38 39  1  0  0  0  0
 38104  1  0  0  0  0
 39 41  1  0  0  0  0
 39105  1  0  0  0  0
 40 44  1  0  0  0  0
 40107  1  0  0  0  0
 41 42  1  0  0  0  0
 41106  1  0  0  0  0
 42 52  1  0  0  0  0
 42108  1  6  0  0  0
 43 46  1  0  0  0  0
 43109  1  0  0  0  0
 44 47  1  0  0  0  0
 44110  1  0  0  0  0
 45111  1  1  0  0  0
 46 50  1  0  0  0  0
 46112  1  0  0  0  0
 47 48  1  0  0  0  0
 47113  1  0  0  0  0
 48 51  1  0  0  0  0
 48114  1  0  0  0  0
 49115  1  0  0  0  0
 49116  1  0  0  0  0
 50 54  1  6  0  0  0
 50117  1  0  0  0  0
 51 55  1  6  0  0  0
 51118  1  0  0  0  0
 52119  1  0  0  0  0
 52120  1  0  0  0  0
 53 58  1  0  0  0  0
 53 59  1  6  0  0  0
 53122  1  0  0  0  0
 54124  1  0  0  0  0
 54125  1  0  0  0  0
 54126  1  0  0  0  0
 55127  1  0  0  0  0
 55128  1  0  0  0  0
 55129  1  0  0  0  0
 56 57  1  0  0  0  0
 56130  1  1  0  0  0
 57 60  1  0  0  0  0
 57132  1  6  0  0  0
 58 65  1  0  0  0  0
 58133  1  0  0  0  0
 58134  1  0  0  0  0
 59 67  1  0  0  0  0
 59135  1  0  0  0  0
 59136  1  0  0  0  0
 60 61  1  0  0  0  0
 60137  1  0  0  0  0
 61 62  1  0  0  0  0
 61140  1  0  0  0  0
 62 72  1  6  0  0  0
 62141  1  0  0  0  0
 63 68  1  0  0  0  0
 64 69  1  0  0  0  0
 65 71  1  0  0  0  0
 65143  1  0  0  0  0
 65144  1  0  0  0  0
 66 70  1  0  0  0  0
 67 74  1  0  0  0  0
 67145  1  0  0  0  0
 67146  1  0  0  0  0
 68 76  1  0  0  0  0
 68 79  1  1  0  0  0
 68147  1  0  0  0  0
 69 77  1  0  0  0  0
 69 80  1  6  0  0  0
 69148  1  0  0  0  0
 70 78  1  0  0  0  0
 70 82  1  1  0  0  0
 70149  1  0  0  0  0
 71 75  1  0  0  0  0
 71150  1  0  0  0  0
 71151  1  0  0  0  0
 72152  1  0  0  0  0
 72153  1  0  0  0  0
 73 85  1  0  0  0  0
 74 83  1  0  0  0  0
 74154  1  0  0  0  0
 74155  1  0  0  0  0
 75 81  1  0  0  0  0
 75156  1  0  0  0  0
 75157  1  0  0  0  0
 76 90  1  0  0  0  0
 76158  1  0  0  0  0
 76159  1  0  0  0  0
 77 91  1  0  0  0  0
 77160  1  0  0  0  0
 77161  1  0  0  0  0
 78 92  1  0  0  0  0
 78162  1  0  0  0  0
 79164  1  0  0  0  0
 79165  1  0  0  0  0
 79166  1  0  0  0  0
 80168  1  0  0  0  0
 80169  1  0  0  0  0
 80170  1  0  0  0  0
 81 86  1  0  0  0  0
 81171  1  0  0  0  0
 81172  1  0  0  0  0
 82173  1  0  0  0  0
 82174  1  0  0  0  0
 82175  1  0  0  0  0
 83 93  1  0  0  0  0
 83176  1  0  0  0  0
 83177  1  0  0  0  0
 84 87  1  0  0  0  0
 85 94  1  0  0  0  0
 85 95  2  0  0  0  0
 86 88  1  0  0  0  0
 86178  1  0  0  0  0
 86179  1  0  0  0  0
 87 89  1  0  0  0  0
 87180  1  0  0  0  0
 87181  1  0  0  0  0
 88 89  1  0  0  0  0
 88182  1  0  0  0  0
 88183  1  0  0  0  0
 89184  1  0  0  0  0
 89185  1  0  0  0  0
 90186  1  0  0  0  0
 90187  1  0  0  0  0
 90188  1  0  0  0  0
 91189  1  0  0  0  0
 91190  1  0  0  0  0
 91191  1  0  0  0  0
 92192  1  0  0  0  0
 92193  1  0  0  0  0
 92194  1  0  0  0  0
 93196  1  0  0  0  0
 93197  1  0  0  0  0
 93198  1  0  0  0  0
 94199  1  0  0  0  0
 94200  1  0  0  0  0
 94201  1  0  0  0  0
 95 96  1  0  0  0  0
 95203  1  0  0  0  0
 96204  1  0  0  0  0
 96205  1  0  0  0  0
 96206  1  0  0  0  0
M  END
> <PUBCHEM_COMPOUND_CID>
56833467

> <PUBCHEM_COMPOUND_CANONICALIZED>
1

> <PUBCHEM_CACTVS_COMPLEXITY>
2420

> <PUBCHEM_CACTVS_HBOND_ACCEPTOR>
30

> <PUBCHEM_CACTVS_HBOND_DONOR>
10

> <PUBCHEM_CACTVS_ROTATABLE_BOND>
23

> <PUBCHEM_CACTVS_SUBSKEYS>
AAADcfB8PgAAAAAAAAAAAAAAAAAAAAAAAAAkSJEiQAAAAAAAAAAAGgAACAAADRSwgAMCCAAABgCIAiDSCAAAAAAAAAAACAEAAEARFBYAIQAiUAAFIAAHIYHI6KyIAAAAAAAAAAAAAAAAAAAAAAAAAAAAAA==

> <PUBCHEM_IUPAC_OPENEYE_NAME>
[(2S,3R,4R,5R,6S)-2-[[(1S,3S,4R,5R,7S,9R,10S,11S,12R,14R,16S,28R,29S,30S,31R,33R,36R,37R,38R,39R,41R)-4,10,11,29,30,39-hexahydroxy-5,31-bis(hydroxymethyl)-12-methyl-37,38-bis[[(2S)-2-methylbutanoyl]oxy]-26-oxo-16-pentyl-2,6,8,13,15,27,32,34,40-nonaoxapentacyclo[34.3.1.13,7.09,14.028,33]hentetracontan-41-yl]oxy]-4-hydroxy-6-methyl-5-[(E)-2-methylbut-2-enoyl]oxy-tetrahydropyran-3-yl] (2S,3S)-3-hydroxy-2-methyl-butanoate

> <PUBCHEM_IUPAC_CAS_NAME>
(2S,3S)-3-hydroxy-2-methylbutanoic acid [(2S,3R,4R,5R,6S)-2-[[(1S,3S,4R,5R,7S,9R,10S,11S,12R,14R,16S,28R,29S,30S,31R,33R,36R,37R,38R,39R,41R)-4,10,11,29,30,39-hexahydroxy-5,31-bis(hydroxymethyl)-12-methyl-37,38-bis[(2S)-2-methyl-1-oxobutoxy]-26-oxo-16-pentyl-2,6,8,13,15,27,32,34,40-nonaoxapentacyclo[34.3.1.13,7.09,14.028,33]hentetracontan-41-yl]oxy]-4-hydroxy-6-methyl-5-[(E)-2-methyl-1-oxobut-2-enoxy]-3-oxanyl] ester

> <PUBCHEM_IUPAC_NAME_MARKUP>
[(2<I>S</I>,3<I>R</I>,4<I>R</I>,5<I>R</I>,6<I>S</I>)-2-[[(1<I>S</I>,3<I>S</I>,4<I>R</I>,5<I>R</I>,7<I>S</I>,9<I>R</I>,10<I>S</I>,11<I>S</I>,12<I>R</I>,14<I>R</I>,16<I>S</I>,28<I>R</I>,29<I>S</I>,30<I>S</I>,31<I>R</I>,33<I>R</I>,36<I>R</I>,37<I>R</I>,38<I>R</I>,39<I>R</I>,41<I>R</I>)-4,10,11,29,30,39-hexahydroxy-5,31-bis(hydroxymethyl)-12-methyl-37,38-bis[[(2<I>S</I>)-2-methylbutanoyl]oxy]-26-oxo-16-pentyl-2,6,8,13,15,27,32,34,40-nonaoxapentacyclo[34.3.1.1<SUP>3,7</SUP>.0<SUP>9,14</SUP>.0<SUP>28,33</SUP>]hentetracontan-41-yl]oxy]-4-hydroxy-6-methyl-5-[(<I>E</I>)-2-methylbut-2-enoyl]oxyoxan-3-yl] (2<I>S</I>,3<I>S</I>)-3-hydroxy-2-methylbutanoate

> <PUBCHEM_IUPAC_NAME>
[(2S,3R,4R,5R,6S)-2-[[(1S,3S,4R,5R,7S,9R,10S,11S,12R,14R,16S,28R,29S,30S,31R,33R,36R,37R,38R,39R,41R)-4,10,11,29,30,39-hexahydroxy-5,31-bis(hydroxymethyl)-12-methyl-37,38-bis[[(2S)-2-methylbutanoyl]oxy]-26-oxo-16-pentyl-2,6,8,13,15,27,32,34,40-nonaoxapentacyclo[34.3.1.13,7.09,14.028,33]hentetracontan-41-yl]oxy]-4-hydroxy-6-methyl-5-[(E)-2-methylbut-2-enoyl]oxyoxan-3-yl] (2S,3S)-3-hydroxy-2-methylbutanoate

> <PUBCHEM_IUPAC_SYSTEMATIC_NAME>
[(2S,3R,4R,5R,6S)-2-[[(1S,3S,4R,5R,7S,9R,10S,11S,12R,14R,16S,28R,29S,30S,31R,33R,36R,37R,38R,39R,41R)-5,31-bis(hydroxymethyl)-12-methyl-37,38-bis[[(2S)-2-methylbutanoyl]oxy]-4,10,11,29,30,39-hexakis(oxidanyl)-26-oxidanylidene-16-pentyl-2,6,8,13,15,27,32,34,40-nonaoxapentacyclo[34.3.1.13,7.09,14.028,33]hentetracontan-41-yl]oxy]-6-methyl-5-[(E)-2-methylbut-2-enoyl]oxy-4-oxidanyl-oxan-3-yl] (2S,3S)-2-methyl-3-oxidanyl-butanoate

> <PUBCHEM_IUPAC_TRADITIONAL_NAME>
(2S,3S)-3-hydroxy-2-methyl-butyric acid [(2S,3R,4R,5R,6S)-2-[[(1S,3S,4R,5R,7S,9R,10S,11S,12R,14R,16S,28R,29S,30S,31R,33R,36R,37R,38R,39R,41R)-16-amyl-4,10,11,29,30,39-hexahydroxy-26-keto-12-methyl-37,38-bis[[(2S)-2-methylbutanoyl]oxy]-5,31-dimethylol-2,6,8,13,15,27,32,34,40-nonaoxapentacyclo[34.3.1.13,7.09,14.028,33]hentetracontan-41-yl]oxy]-4-hydroxy-6-methyl-5-[(E)-2-methylbut-2-enoyl]oxy-tetrahydropyran-3-yl] ester

> <PUBCHEM_IUPAC_INCHI>
InChI=1S/C66H110O30/c1-12-16-22-25-38-26-23-20-18-17-19-21-24-27-42(70)89-54-47(75)44(72)39(28-67)86-63(54)82-30-41-51(91-59(79)32(6)14-3)53(92-60(80)33(7)15-4)49(77)62(88-41)94-52-45(73)40(29-68)87-66(95-55-46(74)43(71)36(10)83-64(55)85-38)57(52)96-65-56(93-61(81)34(8)35(9)69)48(76)50(37(11)84-65)90-58(78)31(5)13-2/h13,32-41,43-57,62-69,71-77H,12,14-30H2,1-11H3/b31-13+/t32-,33-,34-,35-,36+,37-,38-,39+,40+,41+,43+,44+,45+,46-,47-,48+,49+,50-,51+,52-,53+,54+,55+,56+,57+,62-,63+,64-,65-,66-/m0/s1

> <PUBCHEM_IUPAC_INCHIKEY>
DFZYDYFJPRQWLY-KPYOPUIHSA-N

> <PUBCHEM_XLOGP3_AA>
5

> <PUBCHEM_EXACT_MASS>
1382.708192

> <PUBCHEM_MOLECULAR_FORMULA>
C66H110O30

> <PUBCHEM_MOLECULAR_WEIGHT>
1383.6

> <PUBCHEM_OPENEYE_CAN_SMILES>
CCCCCC1CCCCCCCCCC(=O)OC2C(C(C(OC2OCC3C(C(C(C(O3)OC4C(C(OC(C4OC5C(C(C(C(O5)C)OC(=O)C(=CC)C)O)OC(=O)C(C)C(C)O)OC6C(C(C(OC6O1)C)O)O)CO)O)O)OC(=O)C(C)CC)OC(=O)C(C)CC)CO)O)O

> <PUBCHEM_OPENEYE_ISO_SMILES>
CCCCC[C@H]1CCCCCCCCCC(=O)O[C@@H]2[C@H]([C@@H]([C@H](O[C@H]2OC[C@@H]3[C@H]([C@@H]([C@H]([C@@H](O3)O[C@H]4[C@@H]([C@H](O[C@H]([C@@H]4O[C@H]5[C@@H]([C@@H]([C@H]([C@@H](O5)C)OC(=O)/C(=C/C)/C)O)OC(=O)[C@@H](C)[C@H](C)O)O[C@@H]6[C@H]([C@@H]([C@H](O[C@H]6O1)C)O)O)CO)O)O)OC(=O)[C@@H](C)CC)OC(=O)[C@@H](C)CC)CO)O)O

> <PUBCHEM_CACTVS_TPSA>
426

> <PUBCHEM_MONOISOTOPIC_WEIGHT>
1382.708192

> <PUBCHEM_TOTAL_CHARGE>
0

> <PUBCHEM_HEAVY_ATOM_COUNT>
96

> <PUBCHEM_ATOM_DEF_STEREO_COUNT>
30

> <PUBCHEM_ATOM_UDEF_STEREO_COUNT>
0

> <PUBCHEM_BOND_DEF_STEREO_COUNT>
1

> <PUBCHEM_BOND_UDEF_STEREO_COUNT>
0

> <PUBCHEM_ISOTOPIC_ATOM_COUNT>
0

> <PUBCHEM_COMPONENT_COUNT>
1

> <PUBCHEM_CACTVS_TAUTO_COUNT>
-1

> <PUBCHEM_COORDINATE_TYPE>
1
5
255

> <PUBCHEM_BONDANNOTATIONS>
39  10  5
41  11  6
38  12  6
44  13  6
43  14  6
48  16  5
46  17  5
47  18  6
60  22  6
61  23  5
78  29  6
32  3  5
40  3  5
31  97  5
34  100  5
35  49  6
36  102  6
37  103  6
42  108  6
45  111  5
50  54  6
51  55  6
53  59  6
56  130  5
57  132  6
62  72  6
68  79  5
69  80  6
70  82  5
33  8  5

$$$$
