442510
  -OEChem-09152016473D

 46 49  0     1  0  0  0  0  0999 V2000
    0.4248    0.8594    0.5159 O   0  0  0  0  0  0  0  0  0  0  0  0
   -1.1501   -1.5034    0.0613 O   0  0  0  0  0  0  0  0  0  0  0  0
    0.1021   -3.7482   -0.8803 O   0  0  0  0  0  0  0  0  0  0  0  0
   -3.8448   -1.3025   -0.1767 O   0  0  0  0  0  0  0  0  0  0  0  0
   -0.8058    3.2764    0.5812 O   0  0  0  0  0  0  0  0  0  0  0  0
    4.9783    0.2416   -1.8687 O   0  0  0  0  0  0  0  0  0  0  0  0
    6.5651   -0.2206    0.3663 O   0  0  0  0  0  0  0  0  0  0  0  0
   -5.8926   -2.2831   -0.4785 O   0  0  0  0  0  0  0  0  0  0  0  0
    0.9212   -0.4632    0.7870 C   0  0  1  0  0  0  0  0  0  0  0  0
    0.2688   -1.4730   -0.1708 C   0  0  1  0  0  0  0  0  0  0  0  0
    2.4286   -0.3979    0.6710 C   0  0  0  0  0  0  0  0  0  0  0  0
   -1.6976   -0.2535    0.1398 C   0  0  0  0  0  0  0  0  0  0  0  0
   -0.9330    0.8920    0.3503 C   0  0  0  0  0  0  0  0  0  0  0  0
    0.7680   -2.9001    0.0371 C   0  0  0  0  0  0  0  0  0  0  0  0
   -3.0819   -0.1303    0.0167 C   0  0  0  0  0  0  0  0  0  0  0  0
   -1.5454    2.1470    0.3927 C   0  0  0  0  0  0  0  0  0  0  0  0
   -3.7100    1.1122    0.0702 C   0  0  0  0  0  0  0  0  0  0  0  0
    3.0212   -0.1056   -0.5572 C   0  0  0  0  0  0  0  0  0  0  0  0
    3.2244   -0.6298    1.7925 C   0  0  0  0  0  0  0  0  0  0  0  0
   -2.9316    2.2574    0.2542 C   0  0  0  0  0  0  0  0  0  0  0  0
    4.4108   -0.0450   -0.6639 C   0  0  0  0  0  0  0  0  0  0  0  0
    4.6140   -0.5695    1.6856 C   0  0  0  0  0  0  0  0  0  0  0  0
   -5.1550    1.1776   -0.0710 C   0  0  0  0  0  0  0  0  0  0  0  0
    5.2072   -0.2770    0.4575 C   0  0  0  0  0  0  0  0  0  0  0  0
   -5.8657    0.0617   -0.2502 C   0  0  0  0  0  0  0  0  0  0  0  0
   -5.2284   -1.2659   -0.3130 C   0  0  0  0  0  0  0  0  0  0  0  0
   -0.3082    3.9266   -0.5862 C   0  0  0  0  0  0  0  0  0  0  0  0
    5.2158    1.6168   -2.1626 C   0  0  0  0  0  0  0  0  0  0  0  0
    0.6411   -0.7029    1.8230 H   0  0  0  0  0  0  0  0  0  0  0  0
    0.4076   -1.1898   -1.2235 H   0  0  0  0  0  0  0  0  0  0  0  0
    1.8441   -2.9866   -0.1366 H   0  0  0  0  0  0  0  0  0  0  0  0
    0.5348   -3.2513    1.0479 H   0  0  0  0  0  0  0  0  0  0  0  0
    2.4106    0.0842   -1.4362 H   0  0  0  0  0  0  0  0  0  0  0  0
    2.7769   -0.8590    2.7557 H   0  0  0  0  0  0  0  0  0  0  0  0
   -3.3980    3.2394    0.2959 H   0  0  0  0  0  0  0  0  0  0  0  0
    5.2288   -0.7513    2.5630 H   0  0  0  0  0  0  0  0  0  0  0  0
   -5.6446    2.1444   -0.0285 H   0  0  0  0  0  0  0  0  0  0  0  0
    0.4288   -4.6510   -0.7262 H   0  0  0  0  0  0  0  0  0  0  0  0
   -6.9442    0.1039   -0.3562 H   0  0  0  0  0  0  0  0  0  0  0  0
    0.2645    4.8035   -0.2722 H   0  0  0  0  0  0  0  0  0  0  0  0
   -1.1350    4.2578   -1.2224 H   0  0  0  0  0  0  0  0  0  0  0  0
    0.3537    3.2592   -1.1472 H   0  0  0  0  0  0  0  0  0  0  0  0
    6.8058   -0.0469   -0.5600 H   0  0  0  0  0  0  0  0  0  0  0  0
    4.2698    2.1657   -2.2087 H   0  0  0  0  0  0  0  0  0  0  0  0
    5.8741    2.0668   -1.4128 H   0  0  0  0  0  0  0  0  0  0  0  0
    5.7040    1.6790   -3.1390 H   0  0  0  0  0  0  0  0  0  0  0  0
  1  9  1  0  0  0  0
  1 13  1  0  0  0  0
  2 10  1  0  0  0  0
  2 12  1  0  0  0  0
  3 14  1  0  0  0  0
  3 38  1  0  0  0  0
  4 15  1  0  0  0  0
  4 26  1  0  0  0  0
  5 16  1  0  0  0  0
  5 27  1  0  0  0  0
  6 21  1  0  0  0  0
  6 28  1  0  0  0  0
  7 24  1  0  0  0  0
  7 43  1  0  0  0  0
  8 26  2  0  0  0  0
  9 10  1  0  0  0  0
  9 11  1  0  0  0  0
  9 29  1  0  0  0  0
 10 14  1  0  0  0  0
 10 30  1  0  0  0  0
 11 18  2  0  0  0  0
 11 19  1  0  0  0  0
 12 13  1  0  0  0  0
 12 15  2  0  0  0  0
 13 16  2  0  0  0  0
 14 31  1  0  0  0  0
 14 32  1  0  0  0  0
 15 17  1  0  0  0  0
 16 20  1  0  0  0  0
 17 20  2  0  0  0  0
 17 23  1  0  0  0  0
 18 21  1  0  0  0  0
 18 33  1  0  0  0  0
 19 22  2  0  0  0  0
 19 34  1  0  0  0  0
 20 35  1  0  0  0  0
 21 24  2  0  0  0  0
 22 24  1  0  0  0  0
 22 36  1  0  0  0  0
 23 25  2  0  0  0  0
 23 37  1  0  0  0  0
 25 26  1  0  0  0  0
 25 39  1  0  0  0  0
 27 40  1  0  0  0  0
 27 41  1  0  0  0  0
 27 42  1  0  0  0  0
 28 44  1  0  0  0  0
 28 45  1  0  0  0  0
 28 46  1  0  0  0  0
M  END
> <PUBCHEM_COMPOUND_CID>
442510

> <PUBCHEM_CONFORMER_RMSD>
0.8

> <PUBCHEM_CONFORMER_DIVERSEORDER>
1
8
13
11
10
12
9
5
4
6
7
2
3

> <PUBCHEM_MMFF94_PARTIAL_CHARGES>
36
1 -0.36
10 0.28
11 -0.14
12 0.08
13 0.08
14 0.28
15 0.08
16 0.08
17 0.03
18 -0.15
19 -0.15
2 -0.36
20 -0.15
21 0.08
22 -0.15
23 -0.18
24 0.08
25 -0.14
26 0.71
27 0.28
28 0.28
3 -0.68
33 0.15
34 0.15
35 0.15
36 0.15
37 0.15
38 0.4
39 0.15
4 -0.23
43 0.45
5 -0.36
6 -0.36
7 -0.53
8 -0.57
9 0.42

> <PUBCHEM_EFFECTIVE_ROTOR_COUNT>
4.8

> <PUBCHEM_PHARMACOPHORE_FEATURES>
12
1 1 acceptor
1 2 acceptor
1 3 acceptor
1 3 donor
1 5 acceptor
1 6 acceptor
1 7 donor
1 8 acceptor
6 1 2 9 10 12 13 rings
6 11 18 19 21 22 24 rings
6 12 13 15 16 17 20 rings
6 4 15 17 23 25 26 rings

> <PUBCHEM_HEAVY_ATOM_COUNT>
28

> <PUBCHEM_ATOM_DEF_STEREO_COUNT>
2

> <PUBCHEM_ATOM_UDEF_STEREO_COUNT>
0

> <PUBCHEM_BOND_DEF_STEREO_COUNT>
0

> <PUBCHEM_BOND_UDEF_STEREO_COUNT>
0

> <PUBCHEM_ISOTOPIC_ATOM_COUNT>
0

> <PUBCHEM_COMPONENT_COUNT>
1

> <PUBCHEM_CACTVS_TAUTO_COUNT>
3

> <PUBCHEM_CONFORMER_ID>
0006C08E00000001

> <PUBCHEM_MMFF94_ENERGY>
112.9002

> <PUBCHEM_FEATURE_SELFOVERLAP>
60.979

> <PUBCHEM_SHAPE_FINGERPRINT>
10498660 4 18339080389171177844
10670039 82 18337401427000674660
10906281 52 18335435525853290849
1100329 8 18267016353051759467
11488393 25 17201936829073399342
11578080 2 17243844663763777375
11963148 33 18338786901615130263
12166972 35 17749107802961861124
12236239 1 18040994029869867506
12788726 201 18409173190353331832
12839892 36 18196351659456833587
13140716 1 18341040934763005513
13782708 43 17489315135790645110
13911987 19 18335424586276137095
14294032 229 18194126209352307648
14787075 74 18186518813227135475
14790565 3 18412830209082768465
14931854 50 18189356696110839244
15927050 60 17620192469923973461
16087824 20 18267300934297965333
17349148 13 18041001700211953075
17980427 23 17967542263630225887
18681886 176 18410006663449051400
19319366 153 17822001043449421410
20028762 73 17916296320320796663
20511986 3 17968087664431996308
20715895 44 17319279914420326493
21033648 29 16844992547226787875
21133410 90 18189032279566079556
21267235 1 18340486759960746819
21796203 349 18048909521800693099
21857420 4 15904833375434248559
23366157 5 17901955136265909498
23402539 116 18341604919413187143
23522609 53 18191331354105746729
23557571 272 18130515140984523093
23558518 356 17829893135675139593
23559900 14 17767113212242273427
23569914 152 15762184455282459765
3004659 81 18186800271277073858
335352 9 18411129235479095021
34797466 226 17632580482792879312
34934 24 18267575824476803291
469060 322 18341058432191114737
474 4 17168437068639920124
5486654 2 18411981360436301367
59755656 215 17847061060492292502

> <PUBCHEM_SHAPE_MULTIPOLES>
529.27
13.57
3.29
1.26
2.13
0.95
-0.19
-1.38
-2.37
-2.12
-0.71
2.38
0.16
-1.73

> <PUBCHEM_SHAPE_SELFOVERLAP>
1166.071

> <PUBCHEM_SHAPE_VOLUME>
284.1

> <PUBCHEM_COORDINATE_TYPE>
2
5
10

$$$$
