10574
  -OEChem-09152016163D

 62 66  0     1  0  0  0  0  0999 V2000
    1.6861   -1.5021    0.3663 O   0  0  0  0  0  0  0  0  0  0  0  0
   -4.7501   -1.3015    1.0938 O   0  0  0  0  0  0  0  0  0  0  0  0
   -6.1495   -0.0197   -0.9733 O   0  0  0  0  0  0  0  0  0  0  0  0
    6.1097    0.4225    0.5023 O   0  0  0  0  0  0  0  0  0  0  0  0
    6.4654   -1.8220    0.1396 O   0  0  0  0  0  0  0  0  0  0  0  0
    0.8528   -0.4360   -0.1109 C   0  0  1  0  0  0  0  0  0  0  0  0
   -0.5683   -0.6226    0.4929 C   0  0  1  0  0  0  0  0  0  0  0  0
   -1.5289    0.5647    0.2004 C   0  0  1  0  0  0  0  0  0  0  0  0
    1.5011    0.9382    0.2105 C   0  0  2  0  0  0  0  0  0  0  0  0
   -2.9627    0.3534    0.8373 C   0  0  2  0  0  0  0  0  0  0  0  0
   -3.5500   -1.0222    0.3550 C   0  0  1  0  0  0  0  0  0  0  0  0
   -0.8600    1.8957    0.5966 C   0  0  0  0  0  0  0  0  0  0  0  0
    0.4943    2.0834   -0.0851 C   0  0  0  0  0  0  0  0  0  0  0  0
    2.6745    1.0317   -0.8175 C   0  0  2  0  0  0  0  0  0  0  0  0
   -1.1865   -1.9664    0.0636 C   0  0  0  0  0  0  0  0  0  0  0  0
    0.9132   -0.5017   -1.6466 C   0  0  0  0  0  0  0  0  0  0  0  0
   -2.5790   -2.1815    0.6421 C   0  0  0  0  0  0  0  0  0  0  0  0
    2.1743    0.2685   -2.0588 C   0  0  0  0  0  0  0  0  0  0  0  0
   -3.9565    1.4847    0.4297 C   0  0  0  0  0  0  0  0  0  0  0  0
   -3.9319   -0.9974   -1.1498 C   0  0  0  0  0  0  0  0  0  0  0  0
    1.9817    1.0674    1.6701 C   0  0  0  0  0  0  0  0  0  0  0  0
   -2.8881    0.4009    2.3897 C   0  0  0  0  0  0  0  0  0  0  0  0
   -4.2992    1.5049   -1.0595 C   0  0  0  0  0  0  0  0  0  0  0  0
   -4.8517    0.1656   -1.5334 C   0  0  2  0  0  0  0  0  0  0  0  0
    3.9988    0.4751   -0.3820 C   0  0  0  0  0  0  0  0  0  0  0  0
    5.0283    1.3256    0.2493 C   0  0  0  0  0  0  0  0  0  0  0  0
    4.4160   -0.7833   -0.4927 C   0  0  0  0  0  0  0  0  0  0  0  0
    5.7663   -0.8259    0.0705 C   0  0  0  0  0  0  0  0  0  0  0  0
   -0.4276   -0.6883    1.5801 H   0  0  0  0  0  0  0  0  0  0  0  0
   -1.6618    0.6066   -0.8865 H   0  0  0  0  0  0  0  0  0  0  0  0
   -0.7319    1.9622    1.6809 H   0  0  0  0  0  0  0  0  0  0  0  0
   -1.4912    2.7407    0.3040 H   0  0  0  0  0  0  0  0  0  0  0  0
    0.3217    2.1822   -1.1644 H   0  0  0  0  0  0  0  0  0  0  0  0
    0.9226    3.0433    0.2316 H   0  0  0  0  0  0  0  0  0  0  0  0
    2.8486    2.0778   -1.1042 H   0  0  0  0  0  0  0  0  0  0  0  0
   -0.5575   -2.7992    0.3980 H   0  0  0  0  0  0  0  0  0  0  0  0
   -1.2327   -2.0365   -1.0283 H   0  0  0  0  0  0  0  0  0  0  0  0
    0.0444   -0.0293   -2.1158 H   0  0  0  0  0  0  0  0  0  0  0  0
    0.9667   -1.5286   -2.0253 H   0  0  0  0  0  0  0  0  0  0  0  0
   -2.9956   -3.1192    0.2513 H   0  0  0  0  0  0  0  0  0  0  0  0
   -2.5031   -2.3447    1.7249 H   0  0  0  0  0  0  0  0  0  0  0  0
    2.9064   -0.3901   -2.5366 H   0  0  0  0  0  0  0  0  0  0  0  0
    1.8958    0.9922   -2.8367 H   0  0  0  0  0  0  0  0  0  0  0  0
   -3.5648    2.4671    0.7152 H   0  0  0  0  0  0  0  0  0  0  0  0
   -4.8902    1.3854    0.9990 H   0  0  0  0  0  0  0  0  0  0  0  0
   -4.4511   -1.9339   -1.3930 H   0  0  0  0  0  0  0  0  0  0  0  0
   -3.0373   -0.9482   -1.7789 H   0  0  0  0  0  0  0  0  0  0  0  0
    2.7033    0.2919    1.9450 H   0  0  0  0  0  0  0  0  0  0  0  0
    2.4477    2.0431    1.8453 H   0  0  0  0  0  0  0  0  0  0  0  0
    1.1516    0.9726    2.3771 H   0  0  0  0  0  0  0  0  0  0  0  0
   -2.2018   -0.3423    2.8026 H   0  0  0  0  0  0  0  0  0  0  0  0
   -2.5639    1.3842    2.7459 H   0  0  0  0  0  0  0  0  0  0  0  0
   -3.8684    0.2203    2.8452 H   0  0  0  0  0  0  0  0  0  0  0  0
   -5.0387    2.2962   -1.2329 H   0  0  0  0  0  0  0  0  0  0  0  0
   -3.4116    1.7691   -1.6446 H   0  0  0  0  0  0  0  0  0  0  0  0
   -4.9744    0.1803   -2.6222 H   0  0  0  0  0  0  0  0  0  0  0  0
    1.4314   -2.3272   -0.0782 H   0  0  0  0  0  0  0  0  0  0  0  0
   -5.4380   -0.6676    0.8356 H   0  0  0  0  0  0  0  0  0  0  0  0
    5.3782    2.1163   -0.4209 H   0  0  0  0  0  0  0  0  0  0  0  0
    4.7078    1.7618    1.1979 H   0  0  0  0  0  0  0  0  0  0  0  0
    3.9185   -1.6427   -0.9065 H   0  0  0  0  0  0  0  0  0  0  0  0
   -6.7088    0.7165   -1.2744 H   0  0  0  0  0  0  0  0  0  0  0  0
  1  6  1  0  0  0  0
  1 57  1  0  0  0  0
  2 11  1  0  0  0  0
  2 58  1  0  0  0  0
  3 24  1  0  0  0  0
  3 62  1  0  0  0  0
  4 26  1  0  0  0  0
  4 28  1  0  0  0  0
  5 28  2  0  0  0  0
  6  7  1  0  0  0  0
  6  9  1  0  0  0  0
  6 16  1  0  0  0  0
  7  8  1  0  0  0  0
  7 15  1  0  0  0  0
  7 29  1  0  0  0  0
  8 10  1  0  0  0  0
  8 12  1  0  0  0  0
  8 30  1  0  0  0  0
  9 13  1  0  0  0  0
  9 14  1  0  0  0  0
  9 21  1  0  0  0  0
 10 11  1  0  0  0  0
 10 19  1  0  0  0  0
 10 22  1  0  0  0  0
 11 17  1  0  0  0  0
 11 20  1  0  0  0  0
 12 13  1  0  0  0  0
 12 31  1  0  0  0  0
 12 32  1  0  0  0  0
 13 33  1  0  0  0  0
 13 34  1  0  0  0  0
 14 18  1  0  0  0  0
 14 25  1  0  0  0  0
 14 35  1  0  0  0  0
 15 17  1  0  0  0  0
 15 36  1  0  0  0  0
 15 37  1  0  0  0  0
 16 18  1  0  0  0  0
 16 38  1  0  0  0  0
 16 39  1  0  0  0  0
 17 40  1  0  0  0  0
 17 41  1  0  0  0  0
 18 42  1  0  0  0  0
 18 43  1  0  0  0  0
 19 23  1  0  0  0  0
 19 44  1  0  0  0  0
 19 45  1  0  0  0  0
 20 24  1  0  0  0  0
 20 46  1  0  0  0  0
 20 47  1  0  0  0  0
 21 48  1  0  0  0  0
 21 49  1  0  0  0  0
 21 50  1  0  0  0  0
 22 51  1  0  0  0  0
 22 52  1  0  0  0  0
 22 53  1  0  0  0  0
 23 24  1  0  0  0  0
 23 54  1  0  0  0  0
 23 55  1  0  0  0  0
 24 56  1  0  0  0  0
 25 26  1  0  0  0  0
 25 27  2  0  0  0  0
 26 59  1  0  0  0  0
 26 60  1  0  0  0  0
 27 28  1  0  0  0  0
 27 61  1  0  0  0  0
M  END
> <PUBCHEM_COMPOUND_CID>
10574

> <PUBCHEM_CONFORMER_RMSD>
0.8

> <PUBCHEM_CONFORMER_DIVERSEORDER>
3
1
4
2

> <PUBCHEM_MMFF94_PARTIAL_CHARGES>
17
1 -0.68
11 0.28
14 0.14
2 -0.68
24 0.28
25 -0.28
26 0.42
27 -0.14
28 0.71
3 -0.68
4 -0.43
5 -0.57
57 0.4
58 0.4
6 0.28
61 0.15
62 0.4

> <PUBCHEM_EFFECTIVE_ROTOR_COUNT>
3.6

> <PUBCHEM_PHARMACOPHORE_FEATURES>
12
1 1 acceptor
1 1 donor
1 2 acceptor
1 2 donor
1 3 acceptor
1 3 donor
1 5 acceptor
5 4 25 26 27 28 rings
5 6 9 14 16 18 rings
6 10 11 19 20 23 24 rings
6 6 7 8 9 12 13 rings
6 7 8 10 11 15 17 rings

> <PUBCHEM_HEAVY_ATOM_COUNT>
28

> <PUBCHEM_ATOM_DEF_STEREO_COUNT>
8

> <PUBCHEM_ATOM_UDEF_STEREO_COUNT>
0

> <PUBCHEM_BOND_DEF_STEREO_COUNT>
0

> <PUBCHEM_BOND_UDEF_STEREO_COUNT>
0

> <PUBCHEM_ISOTOPIC_ATOM_COUNT>
0

> <PUBCHEM_COMPONENT_COUNT>
1

> <PUBCHEM_CACTVS_TAUTO_COUNT>
1

> <PUBCHEM_CONFORMER_ID>
0000294E00000003

> <PUBCHEM_MMFF94_ENERGY>
101.1964

> <PUBCHEM_FEATURE_SELFOVERLAP>
61.136

> <PUBCHEM_SHAPE_FINGERPRINT>
10 15 17988065782883487160
10165383 225 12179843879784858437
10675989 125 17111843765701628349
11315181 36 17917992793209212744
11796584 16 18113333133160075930
12011746 2 18412257333169236397
12166972 35 18041282170409033389
12236239 1 17458344177820867408
12403260 363 17418373627152781856
12670546 56 18412824686112885274
12788726 201 18057600972018590241
128620 24 14620801491615369044
13224815 77 17917437540106146045
13583140 156 18271804683156187210
13631057 29 14117219694638299837
13782708 43 16773248284402196324
13914758 101 18261105228042536885
14251758 9 17603587409234969846
14787075 74 13758067519965277390
14856354 85 14418140607784808394
15183329 4 17022899026069463934
15238133 3 14924224876669560239
15788980 27 17968101931906982980
1601671 61 13695584456091668460
17349148 13 17918000494148890848
17980427 23 17632589265758426329
1813 80 17167867465708070606
18608769 82 18334859450938943491
18927931 339 18270974478498769222
19377110 9 16056885718918066478
19489759 90 17894629253593162445
200 152 17203608198959293981
20197701 30 18334010605823105066
20511986 3 18335687374045639466
20567600 75 18333731295599166806
21033648 29 18260537961431030137
21236236 1 18272370836876019937
21267235 1 18336276711697930803
21279426 13 18336544919984718878
21682296 61 17488192496038390606
22079108 93 13901901224701088158
22393880 68 18040987488428810875
23198884 109 15719110266803338701
23402539 116 18343864398596950508
23559900 14 18339354274893320952
3004659 81 18114179727428142818
3009799 131 18410567396687735909
335352 9 18409169891665396221
34797466 226 15195287577350273944
3633792 109 18263916662427226471
4015057 19 18342451594848796825
404807 14 17118614575669906430
4325135 7 13110960950511120062
5104073 3 18271815639781212546
5283173 99 18337103475749233692
542803 24 12251906992612843612
559249 180 18187644682863725450
59755656 215 18334295315084263022
633830 44 15792016739757986366
6913067 236 16845569803631998972
7226269 152 18410014321112080256
7495541 125 17632570570308806952

> <PUBCHEM_SHAPE_MULTIPOLES>
546.88
13.02
1.96
1.55
8.57
0.14
0.03
2.02
1.08
-0.26
-0.28
-1.1
-0.15
0.29

> <PUBCHEM_SHAPE_SELFOVERLAP>
1188.362

> <PUBCHEM_SHAPE_VOLUME>
297.3

> <PUBCHEM_COORDINATE_TYPE>
2
5
10

$$$$
