14463159
  -OEChem-09152016133D

105111  0     1  0  0  0  0  0999 V2000
   -6.3986   -1.4575    0.8509 O   0  0  0  0  0  0  0  0  0  0  0  0
   -0.3760   -1.6747   -1.5310 O   0  0  0  0  0  0  0  0  0  0  0  0
    1.1408    0.6582   -1.1681 O   0  0  0  0  0  0  0  0  0  0  0  0
  -11.0424   -0.1373    0.7372 O   0  0  0  0  0  0  0  0  0  0  0  0
    2.9375    1.9157   -0.3486 O   0  0  0  0  0  0  0  0  0  0  0  0
  -10.9067   -1.6280    2.4852 O   0  0  0  0  0  0  0  0  0  0  0  0
    4.1345   -0.8474    1.4715 O   0  0  0  0  0  0  0  0  0  0  0  0
    6.2134    0.9179    1.0129 O   0  0  0  0  0  0  0  0  0  0  0  0
    7.5401   -0.9133    0.4378 O   0  0  0  0  0  0  0  0  0  0  0  0
    8.4777    2.6005    0.7902 O   0  0  0  0  0  0  0  0  0  0  0  0
   10.9855    1.1444    1.3110 O   0  0  0  0  0  0  0  0  0  0  0  0
   11.1126   -1.2578   -0.2918 O   0  0  0  0  0  0  0  0  0  0  0  0
    7.4796   -3.3673   -0.7992 O   0  0  0  0  0  0  0  0  0  0  0  0
   -4.4121   -0.8317   -0.3880 C   0  0  1  0  0  0  0  0  0  0  0  0
   -5.6981   -0.3221    0.3228 C   0  0  1  0  0  0  0  0  0  0  0  0
   -3.6473    0.2796   -1.1614 C   0  0  1  0  0  0  0  0  0  0  0  0
   -6.6373    0.5122   -0.5903 C   0  0  2  0  0  0  0  0  0  0  0  0
   -2.3511   -0.2702   -1.8852 C   0  0  2  0  0  0  0  0  0  0  0  0
   -1.4391   -1.0031   -0.8361 C   0  0  1  0  0  0  0  0  0  0  0  0
   -4.6130    1.0325   -2.0978 C   0  0  0  0  0  0  0  0  0  0  0  0
   -5.8196    1.5942   -1.3477 C   0  0  0  0  0  0  0  0  0  0  0  0
   -7.5850    1.2277    0.4258 C   0  0  2  0  0  0  0  0  0  0  0  0
   -3.4862   -1.5733    0.5943 C   0  0  0  0  0  0  0  0  0  0  0  0
   -5.4453    0.6159    1.5155 C   0  0  0  0  0  0  0  0  0  0  0  0
   -2.2183   -2.0893   -0.0732 C   0  0  0  0  0  0  0  0  0  0  0  0
   -6.7226    1.4489    1.6830 C   0  0  0  0  0  0  0  0  0  0  0  0
   -1.5215    0.8730   -2.5477 C   0  0  0  0  0  0  0  0  0  0  0  0
   -0.7816   -0.0094    0.1597 C   0  0  0  0  0  0  0  0  0  0  0  0
   -7.4085   -0.3362   -1.6217 C   0  0  0  0  0  0  0  0  0  0  0  0
   -2.7342   -1.2345   -3.0434 C   0  0  0  0  0  0  0  0  0  0  0  0
   -0.9047    1.8524   -1.5498 C   0  0  0  0  0  0  0  0  0  0  0  0
   -0.0340    1.1412   -0.5206 C   0  0  2  0  0  0  0  0  0  0  0  0
   -8.8450    0.5023    0.7986 C   0  0  0  0  0  0  0  0  0  0  0  0
  -10.1148    0.7326    0.0800 C   0  0  0  0  0  0  0  0  0  0  0  0
   -8.9970   -0.3962    1.7679 C   0  0  0  0  0  0  0  0  0  0  0  0
    2.2592    0.6611   -0.2858 C   0  0  2  0  0  0  0  0  0  0  0  0
  -10.4005   -0.8106    1.7361 C   0  0  0  0  0  0  0  0  0  0  0  0
    3.1959   -0.4709   -0.7140 C   0  0  0  0  0  0  0  0  0  0  0  0
    4.4654   -0.4780    0.1321 C   0  0  1  0  0  0  0  0  0  0  0  0
    4.0674    1.9833    0.5300 C   0  0  1  0  0  0  0  0  0  0  0  0
    5.0978    0.9166    0.1314 C   0  0  1  0  0  0  0  0  0  0  0  0
    4.6318    3.3969    0.4300 C   0  0  0  0  0  0  0  0  0  0  0  0
    7.4065    0.5034    0.3482 C   0  0  2  0  0  0  0  0  0  0  0  0
    3.5477   -2.1389    1.5216 C   0  0  0  0  0  0  0  0  0  0  0  0
    8.5881    1.1970    1.0258 C   0  0  1  0  0  0  0  0  0  0  0  0
    9.9209    0.6928    0.4723 C   0  0  2  0  0  0  0  0  0  0  0  0
    8.7058   -1.3971   -0.2318 C   0  0  1  0  0  0  0  0  0  0  0  0
    9.9628   -0.8349    0.4364 C   0  0  1  0  0  0  0  0  0  0  0  0
    8.6695   -2.9210   -0.1750 C   0  0  0  0  0  0  0  0  0  0  0  0
   -4.7472   -1.5843   -1.1142 H   0  0  0  0  0  0  0  0  0  0  0  0
   -3.3152    1.0138   -0.4189 H   0  0  0  0  0  0  0  0  0  0  0  0
   -4.9598    0.3833   -2.9069 H   0  0  0  0  0  0  0  0  0  0  0  0
   -4.1026    1.8770   -2.5716 H   0  0  0  0  0  0  0  0  0  0  0  0
   -5.4614    2.3674   -0.6560 H   0  0  0  0  0  0  0  0  0  0  0  0
   -6.4700    2.1179   -2.0604 H   0  0  0  0  0  0  0  0  0  0  0  0
   -7.8871    2.2106    0.0391 H   0  0  0  0  0  0  0  0  0  0  0  0
   -4.0047   -2.4350    1.0297 H   0  0  0  0  0  0  0  0  0  0  0  0
   -3.2156   -0.9228    1.4327 H   0  0  0  0  0  0  0  0  0  0  0  0
   -5.2329    0.0737    2.4439 H   0  0  0  0  0  0  0  0  0  0  0  0
   -4.6045    1.2941    1.3380 H   0  0  0  0  0  0  0  0  0  0  0  0
   -2.4729   -2.9124   -0.7532 H   0  0  0  0  0  0  0  0  0  0  0  0
   -1.5686   -2.5490    0.6833 H   0  0  0  0  0  0  0  0  0  0  0  0
   -7.2144    1.2382    2.6378 H   0  0  0  0  0  0  0  0  0  0  0  0
   -6.4369    2.5078    1.7404 H   0  0  0  0  0  0  0  0  0  0  0  0
   -2.1344    1.4347   -3.2612 H   0  0  0  0  0  0  0  0  0  0  0  0
   -0.7144    0.4446   -3.1569 H   0  0  0  0  0  0  0  0  0  0  0  0
   -1.5342    0.4234    0.8269 H   0  0  0  0  0  0  0  0  0  0  0  0
   -0.0799   -0.5689    0.7909 H   0  0  0  0  0  0  0  0  0  0  0  0
   -8.0154   -1.1174   -1.1536 H   0  0  0  0  0  0  0  0  0  0  0  0
   -8.0701    0.2902   -2.2296 H   0  0  0  0  0  0  0  0  0  0  0  0
   -6.7288   -0.8514   -2.3078 H   0  0  0  0  0  0  0  0  0  0  0  0
   -1.8453   -1.6508   -3.5308 H   0  0  0  0  0  0  0  0  0  0  0  0
   -3.2963   -0.7165   -3.8273 H   0  0  0  0  0  0  0  0  0  0  0  0
   -3.3397   -2.0794   -2.7066 H   0  0  0  0  0  0  0  0  0  0  0  0
   -1.6943    2.4197   -1.0450 H   0  0  0  0  0  0  0  0  0  0  0  0
   -0.2982    2.5771   -2.1067 H   0  0  0  0  0  0  0  0  0  0  0  0
    0.2448    1.8885    0.2349 H   0  0  0  0  0  0  0  0  0  0  0  0
   -5.9154   -1.7982    1.6213 H   0  0  0  0  0  0  0  0  0  0  0  0
    0.2202   -1.0134   -1.9170 H   0  0  0  0  0  0  0  0  0  0  0  0
  -10.4653    1.7639    0.1817 H   0  0  0  0  0  0  0  0  0  0  0  0
  -10.0699    0.4614   -0.9770 H   0  0  0  0  0  0  0  0  0  0  0  0
   -8.2807   -0.7812    2.4722 H   0  0  0  0  0  0  0  0  0  0  0  0
    1.9339    0.4843    0.7476 H   0  0  0  0  0  0  0  0  0  0  0  0
    3.4844   -0.3009   -1.7609 H   0  0  0  0  0  0  0  0  0  0  0  0
    2.6585   -1.4240   -0.7190 H   0  0  0  0  0  0  0  0  0  0  0  0
    5.1713   -1.2130   -0.2676 H   0  0  0  0  0  0  0  0  0  0  0  0
    3.7320    1.8329    1.5642 H   0  0  0  0  0  0  0  0  0  0  0  0
    5.4037    1.1491   -0.8987 H   0  0  0  0  0  0  0  0  0  0  0  0
    5.4813    3.5386    1.1047 H   0  0  0  0  0  0  0  0  0  0  0  0
    4.9552    3.6180   -0.5931 H   0  0  0  0  0  0  0  0  0  0  0  0
    3.8610    4.1334    0.6819 H   0  0  0  0  0  0  0  0  0  0  0  0
    7.3824    0.8029   -0.7085 H   0  0  0  0  0  0  0  0  0  0  0  0
    2.4763   -2.0915    1.3073 H   0  0  0  0  0  0  0  0  0  0  0  0
    4.0515   -2.8497    0.8585 H   0  0  0  0  0  0  0  0  0  0  0  0
    3.6500   -2.5081    2.5467 H   0  0  0  0  0  0  0  0  0  0  0  0
    8.5448    1.0544    2.1121 H   0  0  0  0  0  0  0  0  0  0  0  0
   10.1177    1.1095   -0.5226 H   0  0  0  0  0  0  0  0  0  0  0  0
    8.6544   -1.0962   -1.2871 H   0  0  0  0  0  0  0  0  0  0  0  0
   10.0544   -1.2277    1.4571 H   0  0  0  0  0  0  0  0  0  0  0  0
    8.5094    2.7489   -0.1703 H   0  0  0  0  0  0  0  0  0  0  0  0
    9.5207   -3.3656   -0.6986 H   0  0  0  0  0  0  0  0  0  0  0  0
    8.6619   -3.2844    0.8581 H   0  0  0  0  0  0  0  0  0  0  0  0
   10.8319    0.7991    2.2070 H   0  0  0  0  0  0  0  0  0  0  0  0
   11.8909   -0.8683    0.1421 H   0  0  0  0  0  0  0  0  0  0  0  0
    6.7307   -2.9918   -0.3056 H   0  0  0  0  0  0  0  0  0  0  0  0
  1 15  1  0  0  0  0
  1 78  1  0  0  0  0
  2 19  1  0  0  0  0
  2 79  1  0  0  0  0
  3 32  1  0  0  0  0
  3 36  1  0  0  0  0
  4 34  1  0  0  0  0
  4 37  1  0  0  0  0
  5 36  1  0  0  0  0
  5 40  1  0  0  0  0
  6 37  2  0  0  0  0
  7 39  1  0  0  0  0
  7 44  1  0  0  0  0
  8 41  1  0  0  0  0
  8 43  1  0  0  0  0
  9 43  1  0  0  0  0
  9 47  1  0  0  0  0
 10 45  1  0  0  0  0
 10100  1  0  0  0  0
 11 46  1  0  0  0  0
 11103  1  0  0  0  0
 12 48  1  0  0  0  0
 12104  1  0  0  0  0
 13 49  1  0  0  0  0
 13105  1  0  0  0  0
 14 15  1  0  0  0  0
 14 16  1  0  0  0  0
 14 23  1  0  0  0  0
 14 50  1  0  0  0  0
 15 17  1  0  0  0  0
 15 24  1  0  0  0  0
 16 18  1  0  0  0  0
 16 20  1  0  0  0  0
 16 51  1  0  0  0  0
 17 21  1  0  0  0  0
 17 22  1  0  0  0  0
 17 29  1  0  0  0  0
 18 19  1  0  0  0  0
 18 27  1  0  0  0  0
 18 30  1  0  0  0  0
 19 25  1  0  0  0  0
 19 28  1  0  0  0  0
 20 21  1  0  0  0  0
 20 52  1  0  0  0  0
 20 53  1  0  0  0  0
 21 54  1  0  0  0  0
 21 55  1  0  0  0  0
 22 26  1  0  0  0  0
 22 33  1  0  0  0  0
 22 56  1  0  0  0  0
 23 25  1  0  0  0  0
 23 57  1  0  0  0  0
 23 58  1  0  0  0  0
 24 26  1  0  0  0  0
 24 59  1  0  0  0  0
 24 60  1  0  0  0  0
 25 61  1  0  0  0  0
 25 62  1  0  0  0  0
 26 63  1  0  0  0  0
 26 64  1  0  0  0  0
 27 31  1  0  0  0  0
 27 65  1  0  0  0  0
 27 66  1  0  0  0  0
 28 32  1  0  0  0  0
 28 67  1  0  0  0  0
 28 68  1  0  0  0  0
 29 69  1  0  0  0  0
 29 70  1  0  0  0  0
 29 71  1  0  0  0  0
 30 72  1  0  0  0  0
 30 73  1  0  0  0  0
 30 74  1  0  0  0  0
 31 32  1  0  0  0  0
 31 75  1  0  0  0  0
 31 76  1  0  0  0  0
 32 77  1  0  0  0  0
 33 34  1  0  0  0  0
 33 35  2  0  0  0  0
 34 80  1  0  0  0  0
 34 81  1  0  0  0  0
 35 37  1  0  0  0  0
 35 82  1  0  0  0  0
 36 38  1  0  0  0  0
 36 83  1  0  0  0  0
 38 39  1  0  0  0  0
 38 84  1  0  0  0  0
 38 85  1  0  0  0  0
 39 41  1  0  0  0  0
 39 86  1  0  0  0  0
 40 41  1  0  0  0  0
 40 42  1  0  0  0  0
 40 87  1  0  0  0  0
 41 88  1  0  0  0  0
 42 89  1  0  0  0  0
 42 90  1  0  0  0  0
 42 91  1  0  0  0  0
 43 45  1  0  0  0  0
 43 92  1  0  0  0  0
 44 93  1  0  0  0  0
 44 94  1  0  0  0  0
 44 95  1  0  0  0  0
 45 46  1  0  0  0  0
 45 96  1  0  0  0  0
 46 48  1  0  0  0  0
 46 97  1  0  0  0  0
 47 48  1  0  0  0  0
 47 49  1  0  0  0  0
 47 98  1  0  0  0  0
 48 99  1  0  0  0  0
 49101  1  0  0  0  0
 49102  1  0  0  0  0
M  END
> <PUBCHEM_COMPOUND_CID>
14463159

> <PUBCHEM_CONFORMER_RMSD>
1.2

> <PUBCHEM_CONFORMER_DIVERSEORDER>
6
37
81
119
114
14
38
85
121
98
139
65
125
50
82
127
28
51
140
122
49
123
24
57
72
18
99
30
80
145
78
107
35
134
95
115
58
84
33
59
48
39
110
144
20
137
47
136
19
9
66
112
79
68
25
53
77
22
74
103
106
17
97
12
94
141
52
132
88
23
71
138
55
29
104
31
13
116
96
61
10
87
2
124
76
27
108
32
91
44
21
54
143
93
45
73
69
36
126
135
40
100
67
62
117
26
118
56
42
86
131
75
70
142
63
111
8
43
15
60
129
16
133
11
113
130
3
90
5
92
41
83
109
1
120
101
105
7
89
46
4
102
64
34
128

> <PUBCHEM_MMFF94_PARTIAL_CHARGES>
39
1 -0.68
10 -0.68
100 0.4
103 0.4
104 0.4
105 0.4
11 -0.68
12 -0.68
13 -0.68
15 0.28
19 0.28
2 -0.68
22 0.14
3 -0.56
32 0.28
33 -0.28
34 0.42
35 -0.14
36 0.56
37 0.71
39 0.28
4 -0.43
40 0.28
41 0.28
43 0.56
44 0.28
45 0.28
46 0.28
47 0.28
48 0.28
49 0.28
5 -0.56
6 -0.57
7 -0.56
78 0.4
79 0.4
8 -0.56
82 0.15
9 -0.56

> <PUBCHEM_EFFECTIVE_ROTOR_COUNT>
12

> <PUBCHEM_PHARMACOPHORE_FEATURES>
25
1 1 acceptor
1 1 donor
1 10 acceptor
1 10 donor
1 11 acceptor
1 11 donor
1 12 acceptor
1 12 donor
1 13 acceptor
1 13 donor
1 2 acceptor
1 2 donor
1 3 acceptor
1 5 acceptor
1 6 acceptor
1 7 acceptor
1 8 acceptor
1 9 acceptor
5 15 17 22 24 26 rings
5 4 33 34 35 37 rings
6 14 15 16 17 20 21 rings
6 14 16 18 19 23 25 rings
6 18 19 27 28 31 32 rings
6 5 36 38 39 40 41 rings
6 9 43 45 46 47 48 rings

> <PUBCHEM_HEAVY_ATOM_COUNT>
49

> <PUBCHEM_ATOM_DEF_STEREO_COUNT>
17

> <PUBCHEM_ATOM_UDEF_STEREO_COUNT>
0

> <PUBCHEM_BOND_DEF_STEREO_COUNT>
0

> <PUBCHEM_BOND_UDEF_STEREO_COUNT>
0

> <PUBCHEM_ISOTOPIC_ATOM_COUNT>
0

> <PUBCHEM_COMPONENT_COUNT>
1

> <PUBCHEM_CACTVS_TAUTO_COUNT>
1

> <PUBCHEM_CONFORMER_ID>
00DCB0B700000006

> <PUBCHEM_MMFF94_ENERGY>
172.7163

> <PUBCHEM_FEATURE_SELFOVERLAP>
127.24

> <PUBCHEM_SHAPE_FINGERPRINT>
10162869 55 11746936483081044540
10190206 1 11815628480247526263
10533779 47 18341899563029120498
10580692 12 18412545397084819160
11061554 47 13542467535801129971
11135926 11 18041827477101377126
11181472 205 17275391997933921600
12089408 11 17346874572110442981
12144603 126 17775000220392726076
12522641 33 8790888479887608712
12664476 115 17095241419251775953
14359421 15 18127700328323683958
14444916 359 18040433274392131074
15064986 96 18272379650202094375
15247644 1 16081087086642396611
15320295 40 10303812094519038498
18608769 82 17530961393439441594
19302320 297 18130791195712973712
19315958 150 17917997157281354718
20105231 36 17603584110853061098
20156587 128 10737551826926944285
21781055 127 16486977284635974918
21792965 39 18187087273397244754
25269216 80 15285350717589902205
306946 40 12031786950712128184
3092352 35 17704067413638199951
335507 130 17095523997982379895
4339292 15 15430033275652138645
4760202 170 9655567505383321202
4874694 18 11527947863323994533
5028188 123 15574711379137230541
5381727 24 17846498158701058655
54039377 194 15502373430708064245
57303763 39 17168437068017564650
6201320 215 17060061381091395393
6691757 9 15985105257930172663
9962374 69 15647058200314799231

> <PUBCHEM_SHAPE_MULTIPOLES>
932.1
42.53
2.48
2
25.63
0.17
0.69
5.48
-21.88
5.11
-0.13
-4.19
0.18
2.54

> <PUBCHEM_SHAPE_SELFOVERLAP>
1992.311

> <PUBCHEM_SHAPE_VOLUME>
511.7

> <PUBCHEM_COORDINATE_TYPE>
2
5
10

$$$$
