134715182
  -OEChem-09152016193D

 95100  0     1  0  0  0  0  0999 V2000
    3.5717    1.0102   -1.8330 O   0  0  0  0  0  0  0  0  0  0  0  0
    6.1205    0.5642   -0.8209 O   0  0  0  0  0  0  0  0  0  0  0  0
   -6.2676    0.8028    0.9014 O   0  0  0  0  0  0  0  0  0  0  0  0
    7.4446   -1.0304    0.2706 O   0  0  0  0  0  0  0  0  0  0  0  0
   -7.6366    1.2881   -0.9245 O   0  0  0  0  0  0  0  0  0  0  0  0
   10.9066    0.7613   -1.1432 O   0  0  0  0  0  0  0  0  0  0  0  0
    9.9318   -1.8160   -0.9705 O   0  0  0  0  0  0  0  0  0  0  0  0
   -8.1661   -0.9647    1.7159 O   0  0  0  0  0  0  0  0  0  0  0  0
  -10.4606   -1.5721    0.2378 O   0  0  0  0  0  0  0  0  0  0  0  0
    2.4553    0.5208    0.2860 C   0  0  1  0  0  0  0  0  0  0  0  0
    1.5049   -0.4363   -0.4672 C   0  0  2  0  0  0  0  0  0  0  0  0
    0.1270   -0.5725    0.1914 C   0  0  1  0  0  0  0  0  0  0  0  0
   -0.5423    0.8283    0.2981 C   0  0  1  0  0  0  0  0  0  0  0  0
    3.7419    0.3452   -0.5736 C   0  0  1  0  0  0  0  0  0  0  0  0
    1.8073    1.9158    0.2598 C   0  0  0  0  0  0  0  0  0  0  0  0
   -1.9521    0.7437    1.0093 C   0  0  2  0  0  0  0  0  0  0  0  0
    2.3433   -1.6959   -0.6672 C   0  0  0  0  0  0  0  0  0  0  0  0
    0.4063    1.9029    0.8960 C   0  0  0  0  0  0  0  0  0  0  0  0
    3.7874   -1.1802   -0.8435 C   0  0  0  0  0  0  0  0  0  0  0  0
   -0.7689   -1.5256   -0.6146 C   0  0  0  0  0  0  0  0  0  0  0  0
    2.7173    0.0964    1.7559 C   0  0  0  0  0  0  0  0  0  0  0  0
   -2.7639   -0.4434    0.4719 C   0  0  0  0  0  0  0  0  0  0  0  0
    5.0330    0.8751    0.0421 C   0  0  2  0  0  0  0  0  0  0  0  0
   -2.7261    2.0641    0.7176 C   0  0  0  0  0  0  0  0  0  0  0  0
   -2.2177   -1.4309   -0.2585 C   0  0  0  0  0  0  0  0  0  0  0  0
   -1.8009    0.5659    2.5393 C   0  0  0  0  0  0  0  0  0  0  0  0
   -4.2411   -0.4692    0.7899 C   0  0  0  0  0  0  0  0  0  0  0  0
   -4.2033    2.0276    1.1070 C   0  0  0  0  0  0  0  0  0  0  0  0
   -4.9192    0.8535    0.4468 C   0  0  2  0  0  0  0  0  0  0  0  0
    4.9766    2.3776    0.2601 C   0  0  0  0  0  0  0  0  0  0  0  0
    7.3222    0.3467   -0.0880 C   0  0  1  0  0  0  0  0  0  0  0  0
    8.4928    0.7734   -0.9693 C   0  0  0  0  0  0  0  0  0  0  0  0
   -7.1282    0.2646   -0.0884 C   0  0  2  0  0  0  0  0  0  0  0  0
    9.8179    0.4819   -0.2722 C   0  0  1  0  0  0  0  0  0  0  0  0
    8.6349   -1.3088    1.0222 C   0  0  2  0  0  0  0  0  0  0  0  0
    9.8797   -0.9772    0.1852 C   0  0  1  0  0  0  0  0  0  0  0  0
   -8.2535   -0.5119    0.5776 C   0  0  0  0  0  0  0  0  0  0  0  0
    8.5745   -2.7724    1.4423 C   0  0  0  0  0  0  0  0  0  0  0  0
   -8.5273    0.8294   -1.9483 C   0  0  2  0  0  0  0  0  0  0  0  0
   -9.4754   -0.7381   -0.2337 C   0  0  0  0  0  0  0  0  0  0  0  0
   -9.5640   -0.1222   -1.4180 C   0  0  0  0  0  0  0  0  0  0  0  0
   -7.7521    0.2376   -3.1213 C   0  0  0  0  0  0  0  0  0  0  0  0
  -10.2306   -2.9093   -0.1681 C   0  0  0  0  0  0  0  0  0  0  0  0
    1.3237   -0.0269   -1.4746 H   0  0  0  0  0  0  0  0  0  0  0  0
    0.2444   -1.0002    1.1934 H   0  0  0  0  0  0  0  0  0  0  0  0
   -0.7275    1.1509   -0.7397 H   0  0  0  0  0  0  0  0  0  0  0  0
    1.7105    2.2815   -0.7698 H   0  0  0  0  0  0  0  0  0  0  0  0
    2.3999    2.6574    0.7979 H   0  0  0  0  0  0  0  0  0  0  0  0
    2.0172   -2.2666   -1.5429 H   0  0  0  0  0  0  0  0  0  0  0  0
    2.2816   -2.3609    0.2016 H   0  0  0  0  0  0  0  0  0  0  0  0
    0.5182    1.7622    1.9747 H   0  0  0  0  0  0  0  0  0  0  0  0
   -0.0339    2.8977    0.7624 H   0  0  0  0  0  0  0  0  0  0  0  0
    4.4380   -1.7022   -0.1324 H   0  0  0  0  0  0  0  0  0  0  0  0
    4.1467   -1.4045   -1.8541 H   0  0  0  0  0  0  0  0  0  0  0  0
   -0.4333   -2.5567   -0.4503 H   0  0  0  0  0  0  0  0  0  0  0  0
   -0.6736   -1.3294   -1.6899 H   0  0  0  0  0  0  0  0  0  0  0  0
    3.2454   -0.8595    1.8289 H   0  0  0  0  0  0  0  0  0  0  0  0
    1.7971   -0.0140    2.3354 H   0  0  0  0  0  0  0  0  0  0  0  0
    3.3211    0.8441    2.2809 H   0  0  0  0  0  0  0  0  0  0  0  0
    5.1987    0.3798    1.0069 H   0  0  0  0  0  0  0  0  0  0  0  0
   -2.6665    2.2954   -0.3547 H   0  0  0  0  0  0  0  0  0  0  0  0
   -2.2559    2.9054    1.2405 H   0  0  0  0  0  0  0  0  0  0  0  0
   -2.8482   -2.2353   -0.6299 H   0  0  0  0  0  0  0  0  0  0  0  0
   -1.3614    1.4522    3.0081 H   0  0  0  0  0  0  0  0  0  0  0  0
   -1.1705   -0.2939    2.7884 H   0  0  0  0  0  0  0  0  0  0  0  0
   -2.7631    0.4059    3.0373 H   0  0  0  0  0  0  0  0  0  0  0  0
   -4.7421   -1.2916    0.2649 H   0  0  0  0  0  0  0  0  0  0  0  0
   -4.3828   -0.6938    1.8548 H   0  0  0  0  0  0  0  0  0  0  0  0
   -4.6891    2.9654    0.8103 H   0  0  0  0  0  0  0  0  0  0  0  0
   -4.3157    1.9750    2.1969 H   0  0  0  0  0  0  0  0  0  0  0  0
    4.3657    0.8413   -2.3686 H   0  0  0  0  0  0  0  0  0  0  0  0
   -4.8903    1.0198   -0.6401 H   0  0  0  0  0  0  0  0  0  0  0  0
    4.5565    2.9150   -0.5958 H   0  0  0  0  0  0  0  0  0  0  0  0
    5.9834    2.7889    0.3975 H   0  0  0  0  0  0  0  0  0  0  0  0
    4.4167    2.6372    1.1601 H   0  0  0  0  0  0  0  0  0  0  0  0
    7.3357    0.9548    0.8270 H   0  0  0  0  0  0  0  0  0  0  0  0
    8.4157    1.8371   -1.2259 H   0  0  0  0  0  0  0  0  0  0  0  0
    8.4535    0.2456   -1.9316 H   0  0  0  0  0  0  0  0  0  0  0  0
   -6.5885   -0.4726   -0.6965 H   0  0  0  0  0  0  0  0  0  0  0  0
    9.9200    1.1355    0.6029 H   0  0  0  0  0  0  0  0  0  0  0  0
    8.6249   -0.6918    1.9301 H   0  0  0  0  0  0  0  0  0  0  0  0
   10.8009   -1.1505    0.7531 H   0  0  0  0  0  0  0  0  0  0  0  0
    9.4786   -3.0693    1.9820 H   0  0  0  0  0  0  0  0  0  0  0  0
    7.7105   -2.9397    2.0952 H   0  0  0  0  0  0  0  0  0  0  0  0
    8.4382   -3.4344    0.5806 H   0  0  0  0  0  0  0  0  0  0  0  0
   -9.0474    1.7258   -2.3057 H   0  0  0  0  0  0  0  0  0  0  0  0
   10.8317    1.6915   -1.4167 H   0  0  0  0  0  0  0  0  0  0  0  0
   10.1646   -2.7121   -0.6746 H   0  0  0  0  0  0  0  0  0  0  0  0
  -10.4390   -0.2922   -2.0407 H   0  0  0  0  0  0  0  0  0  0  0  0
   -7.2479   -0.6958   -2.8493 H   0  0  0  0  0  0  0  0  0  0  0  0
   -6.9740    0.9332   -3.4536 H   0  0  0  0  0  0  0  0  0  0  0  0
   -8.4156    0.0265   -3.9665 H   0  0  0  0  0  0  0  0  0  0  0  0
  -10.2605   -3.0038   -1.2592 H   0  0  0  0  0  0  0  0  0  0  0  0
  -11.0281   -3.5332    0.2465 H   0  0  0  0  0  0  0  0  0  0  0  0
   -9.2749   -3.2830    0.2159 H   0  0  0  0  0  0  0  0  0  0  0  0
  1 14  1  0  0  0  0
  1 71  1  0  0  0  0
  2 23  1  0  0  0  0
  2 31  1  0  0  0  0
  3 29  1  0  0  0  0
  3 33  1  0  0  0  0
  4 31  1  0  0  0  0
  4 35  1  0  0  0  0
  5 33  1  0  0  0  0
  5 39  1  0  0  0  0
  6 34  1  0  0  0  0
  6 87  1  0  0  0  0
  7 36  1  0  0  0  0
  7 88  1  0  0  0  0
  8 37  2  0  0  0  0
  9 40  1  0  0  0  0
  9 43  1  0  0  0  0
 10 11  1  0  0  0  0
 10 14  1  0  0  0  0
 10 15  1  0  0  0  0
 10 21  1  0  0  0  0
 11 12  1  0  0  0  0
 11 17  1  0  0  0  0
 11 44  1  0  0  0  0
 12 13  1  0  0  0  0
 12 20  1  0  0  0  0
 12 45  1  0  0  0  0
 13 16  1  0  0  0  0
 13 18  1  0  0  0  0
 13 46  1  0  0  0  0
 14 19  1  0  0  0  0
 14 23  1  0  0  0  0
 15 18  1  0  0  0  0
 15 47  1  0  0  0  0
 15 48  1  0  0  0  0
 16 22  1  0  0  0  0
 16 24  1  0  0  0  0
 16 26  1  0  0  0  0
 17 19  1  0  0  0  0
 17 49  1  0  0  0  0
 17 50  1  0  0  0  0
 18 51  1  0  0  0  0
 18 52  1  0  0  0  0
 19 53  1  0  0  0  0
 19 54  1  0  0  0  0
 20 25  1  0  0  0  0
 20 55  1  0  0  0  0
 20 56  1  0  0  0  0
 21 57  1  0  0  0  0
 21 58  1  0  0  0  0
 21 59  1  0  0  0  0
 22 25  2  0  0  0  0
 22 27  1  0  0  0  0
 23 30  1  0  0  0  0
 23 60  1  0  0  0  0
 24 28  1  0  0  0  0
 24 61  1  0  0  0  0
 24 62  1  0  0  0  0
 25 63  1  0  0  0  0
 26 64  1  0  0  0  0
 26 65  1  0  0  0  0
 26 66  1  0  0  0  0
 27 29  1  0  0  0  0
 27 67  1  0  0  0  0
 27 68  1  0  0  0  0
 28 29  1  0  0  0  0
 28 69  1  0  0  0  0
 28 70  1  0  0  0  0
 29 72  1  0  0  0  0
 30 73  1  0  0  0  0
 30 74  1  0  0  0  0
 30 75  1  0  0  0  0
 31 32  1  0  0  0  0
 31 76  1  0  0  0  0
 32 34  1  0  0  0  0
 32 77  1  0  0  0  0
 32 78  1  0  0  0  0
 33 37  1  0  0  0  0
 33 79  1  0  0  0  0
 34 36  1  0  0  0  0
 34 80  1  0  0  0  0
 35 36  1  0  0  0  0
 35 38  1  0  0  0  0
 35 81  1  0  0  0  0
 36 82  1  0  0  0  0
 37 40  1  0  0  0  0
 38 83  1  0  0  0  0
 38 84  1  0  0  0  0
 38 85  1  0  0  0  0
 39 41  1  0  0  0  0
 39 42  1  0  0  0  0
 39 86  1  0  0  0  0
 40 41  2  0  0  0  0
 41 89  1  0  0  0  0
 42 90  1  0  0  0  0
 42 91  1  0  0  0  0
 42 92  1  0  0  0  0
 43 93  1  0  0  0  0
 43 94  1  0  0  0  0
 43 95  1  0  0  0  0
M  END
> <PUBCHEM_COMPOUND_CID>
134715182

> <PUBCHEM_CONFORMER_RMSD>
1.2

> <PUBCHEM_CONFORMER_DIVERSEORDER>
1
22
50
44
34
6
65
16
66
27
39
11
57
43
63
45
30
23
9
64
5
62
29
8
53
55
25
40
58
28
21
32
52
10
37
38
51
46
26
49
59
48
15
35
42
24
3
17
41
54
56
2
36
31
7
60
20
33
12
4
47
18
61
19
13
14

> <PUBCHEM_MMFF94_PARTIAL_CHARGES>
32
1 -0.68
14 0.28
16 0.14
2 -0.56
20 0.14
22 -0.28
23 0.28
25 -0.29
27 0.14
29 0.28
3 -0.56
31 0.56
33 0.62
34 0.28
35 0.28
36 0.28
37 0.49
39 0.42
4 -0.56
40 0.09
41 -0.29
43 0.28
5 -0.56
6 -0.68
63 0.15
7 -0.68
71 0.4
8 -0.57
87 0.4
88 0.4
89 0.15
9 -0.36

> <PUBCHEM_EFFECTIVE_ROTOR_COUNT>
9.8

> <PUBCHEM_PHARMACOPHORE_FEATURES>
18
1 1 acceptor
1 1 donor
1 2 acceptor
1 3 acceptor
1 4 acceptor
1 5 acceptor
1 6 acceptor
1 6 donor
1 7 acceptor
1 7 donor
1 8 acceptor
1 9 acceptor
5 10 11 14 17 19 rings
6 10 11 12 13 15 18 rings
6 12 13 16 20 22 25 rings
6 16 22 24 27 28 29 rings
6 4 31 32 34 35 36 rings
6 5 33 37 39 40 41 rings

> <PUBCHEM_HEAVY_ATOM_COUNT>
43

> <PUBCHEM_ATOM_DEF_STEREO_COUNT>
14

> <PUBCHEM_ATOM_UDEF_STEREO_COUNT>
0

> <PUBCHEM_BOND_DEF_STEREO_COUNT>
0

> <PUBCHEM_BOND_UDEF_STEREO_COUNT>
0

> <PUBCHEM_ISOTOPIC_ATOM_COUNT>
0

> <PUBCHEM_COMPONENT_COUNT>
1

> <PUBCHEM_CACTVS_TAUTO_COUNT>
1

> <PUBCHEM_CONFORMER_ID>
0807972E00000001

> <PUBCHEM_MMFF94_ENERGY>
141.4584

> <PUBCHEM_FEATURE_SELFOVERLAP>
91.563

> <PUBCHEM_SHAPE_FINGERPRINT>
10076449 9 17131834261767778697
10162869 55 18412545414380654844
10580692 12 18412829080281296808
10674148 151 14851606591894474044
11061554 47 15285352938267388492
11146851 88 17847062190342633808
11181472 205 14851879210532621372
11409948 35 16950835896520617706
12089408 11 18411985728444441552
12522641 33 14779262012156986841
12664476 115 18411982459605167653
13811026 1 18341898475995725295
13947934 56 18261113023265734794
13947947 19 18201157749525525236
15065858 18 18411131450658976169
15131766 46 17026579280319136084
15183329 4 17560795551259994285
15247644 1 18060140933851740862
15399244 38 17989769999504467871
15461852 350 16732987535557345561
15510794 2 17676207965673747875
15840311 113 18040719216577935060
16728433 110 18060697316836849408
17686467 74 13901905600967204363
19315958 150 9727639414399644712
20105231 36 18130226060744591135
21591340 7 18411700989308351366
21792961 116 18333733525177609049
21895431 317 18199749155668383782
232437 2 18413110571514717147
23569917 315 18059304162569193534
23576562 1 15792588512033247405
24893992 56 18201719591171727074
335352 9 18343867727929892884
335507 130 17561365084776288077
3525247 94 18408319969378137378
4173938 188 15554437522618537470
42767 2 17240761757439367690
4353968 344 18131067100497007053
4625314 4 17458068195917489233
4760202 170 15430330165461628580
5028188 123 14635162251629862554
5381727 24 18131070416253418582
6081469 158 18187081745974541228
6691757 9 17846789519991468531
9663363 56 16128657441161829289
9962374 69 17917987308747160593

> <PUBCHEM_SHAPE_MULTIPOLES>
832.1
40.74
2.19
1.7
1.32
0.45
0.4
17.01
9.82
0.22
-0.43
-2.23
-0.12
-0.9

> <PUBCHEM_SHAPE_SELFOVERLAP>
1766.419

> <PUBCHEM_SHAPE_VOLUME>
458.3

> <PUBCHEM_COORDINATE_TYPE>
2
5
10

$$$$
