25149487
  -OEChem-09152016312D

110114  0     1  0  0  0  0  0999 V2000
   10.6603    1.0000    0.0000 O   0  0  0  0  0  0  0  0  0  0  0  0
    8.9282    1.0000    0.0000 O   0  0  0  0  0  0  0  0  0  0  0  0
   12.3923   -1.0000    0.0000 O   0  0  0  0  0  0  0  0  0  0  0  0
   14.1244   -1.0000    0.0000 O   0  0  0  0  0  0  0  0  0  0  0  0
    7.1962   -1.0000    0.0000 O   0  0  0  0  0  0  0  0  0  0  0  0
   15.8564    1.0000    0.0000 O   0  0  0  0  0  0  0  0  0  0  0  0
    5.4641   -1.0000    0.0000 O   0  0  0  0  0  0  0  0  0  0  0  0
    8.9282   -2.0000    0.0000 O   0  0  0  0  0  0  0  0  0  0  0  0
   17.5885    1.0000    0.0000 O   0  0  0  0  0  0  0  0  0  0  0  0
   12.3923    2.0000    0.0000 O   0  0  0  0  0  0  0  0  0  0  0  0
   15.8564   -2.0000    0.0000 O   0  0  0  0  0  0  0  0  0  0  0  0
    5.4641    2.0000    0.0000 O   0  0  0  0  0  0  0  0  0  0  0  0
    3.7320    1.0000    0.0000 O   0  0  0  0  0  0  0  0  0  0  0  0
   20.1865    0.5000    0.0000 O   0  0  0  0  0  0  0  0  0  0  0  0
   17.5885   -1.0000    0.0000 O   0  0  0  0  0  0  0  0  0  0  0  0
   21.0526   -1.0000    0.0000 O   0  0  0  0  0  0  0  0  0  0  0  0
    2.8660   -0.5000    0.0000 O   0  0  0  0  0  0  0  0  0  0  0  0
   11.5263    0.5000    0.0000 C   0  0  1  0  0  0  0  0  0  0  0  0
    8.0622   -0.5000    0.0000 C   0  0  1  0  0  0  0  0  0  0  0  0
    8.9282   -1.0000    0.0000 C   0  0  2  0  0  0  0  0  0  0  0  0
   12.3923    1.0000    0.0000 C   0  0  1  0  0  0  0  0  0  0  0  0
    9.7942    0.5000    0.0000 C   0  0  2  0  0  0  0  0  0  0  0  0
    9.7942   -0.5000    0.0000 C   0  0  0  0  0  0  0  0  0  0  0  0
   11.5263   -0.5000    0.0000 C   0  0  1  0  0  0  0  0  0  0  0  0
   14.9904   -0.5000    0.0000 C   0  0  1  0  0  0  0  0  0  0  0  0
    8.0622    0.5000    0.0000 C   0  0  1  0  0  0  0  0  0  0  0  0
   13.2583   -0.5000    0.0000 C   0  0  1  0  0  0  0  0  0  0  0  0
   13.2583    0.5000    0.0000 C   0  0  0  0  0  0  0  0  0  0  0  0
   15.8564   -1.0000    0.0000 C   0  0  2  0  0  0  0  0  0  0  0  0
   14.9904    0.5000    0.0000 C   0  0  1  0  0  0  0  0  0  0  0  0
   16.7224   -0.5000    0.0000 C   0  0  0  0  0  0  0  0  0  0  0  0
    6.3301   -0.5000    0.0000 C   0  0  2  0  0  0  0  0  0  0  0  0
   16.7224    0.5000    0.0000 C   0  0  1  0  0  0  0  0  0  0  0  0
    6.3301    0.5000    0.0000 C   0  0  0  0  0  0  0  0  0  0  0  0
    5.4641    1.0000    0.0000 C   0  0  1  0  0  0  0  0  0  0  0  0
    4.5981    0.5000    0.0000 C   0  0  1  0  0  0  0  0  0  0  0  0
    4.5981   -0.5000    0.0000 C   0  0  1  0  0  0  0  0  0  0  0  0
   10.6603   -1.0000    0.0000 C   0  0  0  0  0  0  0  0  0  0  0  0
    7.1962    1.0000    0.0000 C   0  0  0  0  0  0  0  0  0  0  0  0
   18.4545    0.5000    0.0000 C   0  0  1  0  0  0  0  0  0  0  0  0
   14.1244    1.0000    0.0000 C   0  0  0  0  0  0  0  0  0  0  0  0
   18.4545   -0.5000    0.0000 C   0  0  1  0  0  0  0  0  0  0  0  0
   19.3205    1.0000    0.0000 C   0  0  1  0  0  0  0  0  0  0  0  0
    3.7320   -1.0000    0.0000 C   0  0  0  0  0  0  0  0  0  0  0  0
   19.3205   -1.0000    0.0000 C   0  0  0  0  0  0  0  0  0  0  0  0
    9.7942   -2.5000    0.0000 C   0  0  0  0  0  0  0  0  0  0  0  0
   19.3205    2.0000    0.0000 C   0  0  0  0  0  0  0  0  0  0  0  0
   20.1865   -0.5000    0.0000 C   0  0  0  0  0  0  0  0  0  0  0  0
    4.5981    2.5000    0.0000 C   0  0  0  0  0  0  0  0  0  0  0  0
    2.8660    0.5000    0.0000 C   0  0  0  0  0  0  0  0  0  0  0  0
   17.5885   -2.0000    0.0000 C   0  0  0  0  0  0  0  0  0  0  0  0
    2.0000    1.0000    0.0000 C   0  0  0  0  0  0  0  0  0  0  0  0
   10.9893    0.1900    0.0000 H   0  0  0  0  0  0  0  0  0  0  0  0
    7.5252   -0.1900    0.0000 H   0  0  0  0  0  0  0  0  0  0  0  0
    9.4651   -1.3100    0.0000 H   0  0  0  0  0  0  0  0  0  0  0  0
   12.9292    1.3100    0.0000 H   0  0  0  0  0  0  0  0  0  0  0  0
    9.7942    1.1200    0.0000 H   0  0  0  0  0  0  0  0  0  0  0  0
   10.0063   -1.0826    0.0000 H   0  0  0  0  0  0  0  0  0  0  0  0
   10.4048   -0.3923    0.0000 H   0  0  0  0  0  0  0  0  0  0  0  0
   11.5263   -1.1200    0.0000 H   0  0  0  0  0  0  0  0  0  0  0  0
   14.4534   -0.1900    0.0000 H   0  0  0  0  0  0  0  0  0  0  0  0
    8.0622    1.1200    0.0000 H   0  0  0  0  0  0  0  0  0  0  0  0
   13.2583   -1.1200    0.0000 H   0  0  0  0  0  0  0  0  0  0  0  0
   13.8689    0.3923    0.0000 H   0  0  0  0  0  0  0  0  0  0  0  0
   13.4704    1.0826    0.0000 H   0  0  0  0  0  0  0  0  0  0  0  0
   16.3933   -1.3100    0.0000 H   0  0  0  0  0  0  0  0  0  0  0  0
   14.9904    1.1200    0.0000 H   0  0  0  0  0  0  0  0  0  0  0  0
   16.9345   -1.0826    0.0000 H   0  0  0  0  0  0  0  0  0  0  0  0
   17.3330   -0.3923    0.0000 H   0  0  0  0  0  0  0  0  0  0  0  0
    6.3301   -1.1200    0.0000 H   0  0  0  0  0  0  0  0  0  0  0  0
   16.7224    1.1200    0.0000 H   0  0  0  0  0  0  0  0  0  0  0  0
    6.9407    0.3923    0.0000 H   0  0  0  0  0  0  0  0  0  0  0  0
    6.5422    1.0826    0.0000 H   0  0  0  0  0  0  0  0  0  0  0  0
    6.0010    1.3100    0.0000 H   0  0  0  0  0  0  0  0  0  0  0  0
    4.5981    1.1200    0.0000 H   0  0  0  0  0  0  0  0  0  0  0  0
    4.5981   -1.1200    0.0000 H   0  0  0  0  0  0  0  0  0  0  0  0
   10.3503   -0.4631    0.0000 H   0  0  0  0  0  0  0  0  0  0  0  0
   10.1233   -1.3100    0.0000 H   0  0  0  0  0  0  0  0  0  0  0  0
   10.9703   -1.5369    0.0000 H   0  0  0  0  0  0  0  0  0  0  0  0
    7.5062    1.5369    0.0000 H   0  0  0  0  0  0  0  0  0  0  0  0
    6.6592    1.3100    0.0000 H   0  0  0  0  0  0  0  0  0  0  0  0
    6.8862    0.4631    0.0000 H   0  0  0  0  0  0  0  0  0  0  0  0
   18.4545    1.1200    0.0000 H   0  0  0  0  0  0  0  0  0  0  0  0
   14.4344    1.5369    0.0000 H   0  0  0  0  0  0  0  0  0  0  0  0
   13.5874    1.3100    0.0000 H   0  0  0  0  0  0  0  0  0  0  0  0
   13.8144    0.4631    0.0000 H   0  0  0  0  0  0  0  0  0  0  0  0
   18.4545   -1.1200    0.0000 H   0  0  0  0  0  0  0  0  0  0  0  0
   12.9292    2.3100    0.0000 H   0  0  0  0  0  0  0  0  0  0  0  0
   19.8574    1.3100    0.0000 H   0  0  0  0  0  0  0  0  0  0  0  0
    3.4220   -0.4631    0.0000 H   0  0  0  0  0  0  0  0  0  0  0  0
    3.1951   -1.3100    0.0000 H   0  0  0  0  0  0  0  0  0  0  0  0
    4.0420   -1.5369    0.0000 H   0  0  0  0  0  0  0  0  0  0  0  0
   16.3933   -2.3100    0.0000 H   0  0  0  0  0  0  0  0  0  0  0  0
   18.9220   -1.4750    0.0000 H   0  0  0  0  0  0  0  0  0  0  0  0
   19.7190   -1.4750    0.0000 H   0  0  0  0  0  0  0  0  0  0  0  0
    9.4842   -3.0369    0.0000 H   0  0  0  0  0  0  0  0  0  0  0  0
   10.3312   -2.8100    0.0000 H   0  0  0  0  0  0  0  0  0  0  0  0
   10.1042   -1.9631    0.0000 H   0  0  0  0  0  0  0  0  0  0  0  0
   19.9405    2.0000    0.0000 H   0  0  0  0  0  0  0  0  0  0  0  0
   19.3205    2.6200    0.0000 H   0  0  0  0  0  0  0  0  0  0  0  0
   18.7005    2.0000    0.0000 H   0  0  0  0  0  0  0  0  0  0  0  0
    4.9081    3.0369    0.0000 H   0  0  0  0  0  0  0  0  0  0  0  0
    4.0611    2.8100    0.0000 H   0  0  0  0  0  0  0  0  0  0  0  0
    4.2881    1.9631    0.0000 H   0  0  0  0  0  0  0  0  0  0  0  0
   16.9685   -2.0000    0.0000 H   0  0  0  0  0  0  0  0  0  0  0  0
   17.5885   -2.6200    0.0000 H   0  0  0  0  0  0  0  0  0  0  0  0
   18.2085   -2.0000    0.0000 H   0  0  0  0  0  0  0  0  0  0  0  0
    2.3100    1.5369    0.0000 H   0  0  0  0  0  0  0  0  0  0  0  0
    1.4631    1.3100    0.0000 H   0  0  0  0  0  0  0  0  0  0  0  0
    1.6900    0.4631    0.0000 H   0  0  0  0  0  0  0  0  0  0  0  0
 18  1  1  1  0  0  0
 22  1  1  1  0  0  0
  2 22  1  0  0  0  0
  2 26  1  0  0  0  0
  3 24  1  0  0  0  0
  3 27  1  0  0  0  0
 25  4  1  6  0  0  0
 27  4  1  6  0  0  0
 19  5  1  6  0  0  0
 32  5  1  6  0  0  0
  6 30  1  0  0  0  0
  6 33  1  0  0  0  0
  7 32  1  0  0  0  0
  7 37  1  0  0  0  0
 20  8  1  6  0  0  0
  8 46  1  0  0  0  0
 33  9  1  1  0  0  0
 40  9  1  6  0  0  0
 21 10  1  6  0  0  0
 10 88  1  0  0  0  0
 29 11  1  6  0  0  0
 11 93  1  0  0  0  0
 35 12  1  1  0  0  0
 12 49  1  0  0  0  0
 36 13  1  1  0  0  0
 13 50  1  0  0  0  0
 14 43  1  0  0  0  0
 14 48  1  0  0  0  0
 42 15  1  1  0  0  0
 15 51  1  0  0  0  0
 16 48  2  0  0  0  0
 17 50  2  0  0  0  0
 18 21  1  0  0  0  0
 18 24  1  0  0  0  0
 18 53  1  0  0  0  0
 19 20  1  0  0  0  0
 19 26  1  0  0  0  0
 19 54  1  0  0  0  0
 20 23  1  0  0  0  0
 20 55  1  0  0  0  0
 21 28  1  0  0  0  0
 21 56  1  0  0  0  0
 22 23  1  0  0  0  0
 22 57  1  0  0  0  0
 23 58  1  0  0  0  0
 23 59  1  0  0  0  0
 24 38  1  6  0  0  0
 24 60  1  0  0  0  0
 25 29  1  0  0  0  0
 25 30  1  0  0  0  0
 25 61  1  0  0  0  0
 26 39  1  1  0  0  0
 26 62  1  0  0  0  0
 27 28  1  0  0  0  0
 27 63  1  0  0  0  0
 28 64  1  0  0  0  0
 28 65  1  0  0  0  0
 29 31  1  0  0  0  0
 29 66  1  0  0  0  0
 30 41  1  1  0  0  0
 30 67  1  0  0  0  0
 31 33  1  0  0  0  0
 31 68  1  0  0  0  0
 31 69  1  0  0  0  0
 32 34  1  0  0  0  0
 32 70  1  0  0  0  0
 33 71  1  0  0  0  0
 34 35  1  0  0  0  0
 34 72  1  0  0  0  0
 34 73  1  0  0  0  0
 35 36  1  0  0  0  0
 35 74  1  0  0  0  0
 36 37  1  0  0  0  0
 36 75  1  0  0  0  0
 37 44  1  6  0  0  0
 37 76  1  0  0  0  0
 38 77  1  0  0  0  0
 38 78  1  0  0  0  0
 38 79  1  0  0  0  0
 39 80  1  0  0  0  0
 39 81  1  0  0  0  0
 39 82  1  0  0  0  0
 40 42  1  0  0  0  0
 40 43  1  0  0  0  0
 40 83  1  0  0  0  0
 41 84  1  0  0  0  0
 41 85  1  0  0  0  0
 41 86  1  0  0  0  0
 42 45  1  0  0  0  0
 42 87  1  0  0  0  0
 43 47  1  1  0  0  0
 43 89  1  0  0  0  0
 44 90  1  0  0  0  0
 44 91  1  0  0  0  0
 44 92  1  0  0  0  0
 45 48  1  0  0  0  0
 45 94  1  0  0  0  0
 45 95  1  0  0  0  0
 46 96  1  0  0  0  0
 46 97  1  0  0  0  0
 46 98  1  0  0  0  0
 47 99  1  0  0  0  0
 47100  1  0  0  0  0
 47101  1  0  0  0  0
 49102  1  0  0  0  0
 49103  1  0  0  0  0
 49104  1  0  0  0  0
 50 52  1  0  0  0  0
 51105  1  0  0  0  0
 51106  1  0  0  0  0
 51107  1  0  0  0  0
 52108  1  0  0  0  0
 52109  1  0  0  0  0
 52110  1  0  0  0  0
M  END
> <PUBCHEM_COMPOUND_CID>
25149487

> <PUBCHEM_COMPOUND_CANONICALIZED>
1

> <PUBCHEM_CACTVS_COMPLEXITY>
1160

> <PUBCHEM_CACTVS_HBOND_ACCEPTOR>
17

> <PUBCHEM_CACTVS_HBOND_DONOR>
2

> <PUBCHEM_CACTVS_ROTATABLE_BOND>
13

> <PUBCHEM_CACTVS_SUBSKEYS>
AAADcfB8PgAAAAAAAAAAAAAAAAAAAAAAAAAkSJEiQAAAAAAAAAAAGgAACAAACBSwgAMCCAAABgAIAACQCAAAAAAAAAAAAAEAAAAREBYAAAAiQAAFIAAHAAHKbAxAAAAAAAAAAAAAAAAAAAAAAAAAAAAAAA==

> <PUBCHEM_IUPAC_OPENEYE_NAME>
[(2R,3R,4S,6S)-6-[(2R,3R,4S,6S)-6-[(2R,3S,4R,6S)-4-hydroxy-6-[(2R,3S,4S,6S)-4-hydroxy-6-[(2R,3R,4R)-4-methoxy-2-methyl-6-oxo-tetrahydropyran-3-yl]oxy-2-methyl-tetrahydropyran-3-yl]oxy-2-methyl-tetrahydropyran-3-yl]oxy-4-methoxy-2-methyl-tetrahydropyran-3-yl]oxy-4-methoxy-2-methyl-tetrahydropyran-3-yl] acetate

> <PUBCHEM_IUPAC_CAS_NAME>
acetic acid [(2R,3R,4S,6S)-6-[[(2R,3R,4S,6S)-6-[[(2R,3S,4R,6S)-4-hydroxy-6-[[(2R,3S,4S,6S)-4-hydroxy-6-[[(2R,3R,4R)-4-methoxy-2-methyl-6-oxo-3-oxanyl]oxy]-2-methyl-3-oxanyl]oxy]-2-methyl-3-oxanyl]oxy]-4-methoxy-2-methyl-3-oxanyl]oxy]-4-methoxy-2-methyl-3-oxanyl] ester

> <PUBCHEM_IUPAC_NAME_MARKUP>
[(2<I>R</I>,3<I>R</I>,4<I>S</I>,6<I>S</I>)-6-[(2<I>R</I>,3<I>R</I>,4<I>S</I>,6<I>S</I>)-6-[(2<I>R</I>,3<I>S</I>,4<I>R</I>,6<I>S</I>)-4-hydroxy-6-[(2<I>R</I>,3<I>S</I>,4<I>S</I>,6<I>S</I>)-4-hydroxy-6-[(2<I>R</I>,3<I>R</I>,4<I>R</I>)-4-methoxy-2-methyl-6-oxooxan-3-yl]oxy-2-methyloxan-3-yl]oxy-2-methyloxan-3-yl]oxy-4-methoxy-2-methyloxan-3-yl]oxy-4-methoxy-2-methyloxan-3-yl] acetate

> <PUBCHEM_IUPAC_NAME>
[(2R,3R,4S,6S)-6-[(2R,3R,4S,6S)-6-[(2R,3S,4R,6S)-4-hydroxy-6-[(2R,3S,4S,6S)-4-hydroxy-6-[(2R,3R,4R)-4-methoxy-2-methyl-6-oxooxan-3-yl]oxy-2-methyloxan-3-yl]oxy-2-methyloxan-3-yl]oxy-4-methoxy-2-methyloxan-3-yl]oxy-4-methoxy-2-methyloxan-3-yl] acetate

> <PUBCHEM_IUPAC_SYSTEMATIC_NAME>
[(2R,3R,4S,6S)-4-methoxy-6-[(2R,3R,4S,6S)-4-methoxy-6-[(2R,3S,4R,6S)-6-[(2R,3S,4S,6S)-6-[(2R,3R,4R)-4-methoxy-2-methyl-6-oxidanylidene-oxan-3-yl]oxy-2-methyl-4-oxidanyl-oxan-3-yl]oxy-2-methyl-4-oxidanyl-oxan-3-yl]oxy-2-methyl-oxan-3-yl]oxy-2-methyl-oxan-3-yl] ethanoate

> <PUBCHEM_IUPAC_TRADITIONAL_NAME>
acetic acid [(2R,3R,4S,6S)-6-[(2R,3R,4S,6S)-6-[(2R,3S,4R,6S)-4-hydroxy-6-[(2R,3S,4S,6S)-4-hydroxy-6-[(2R,3R,4R)-6-keto-4-methoxy-2-methyl-tetrahydropyran-3-yl]oxy-2-methyl-tetrahydropyran-3-yl]oxy-2-methyl-tetrahydropyran-3-yl]oxy-4-methoxy-2-methyl-tetrahydropyran-3-yl]oxy-4-methoxy-2-methyl-tetrahydropyran-3-yl] ester

> <PUBCHEM_IUPAC_INCHI>
InChI=1S/C35H58O17/c1-15-31(22(38)11-28(45-15)51-34-17(3)43-26(39)12-23(34)40-7)49-27-10-21(37)32(16(2)44-27)50-29-14-25(42-9)35(19(5)47-29)52-30-13-24(41-8)33(18(4)46-30)48-20(6)36/h15-19,21-25,27-35,37-38H,10-14H2,1-9H3/t15-,16-,17-,18-,19-,21-,22+,23-,24+,25+,27+,28+,29+,30+,31-,32-,33-,34-,35-/m1/s1

> <PUBCHEM_IUPAC_INCHIKEY>
AAOAYBHFSKHXCG-RJRLLKSTSA-N

> <PUBCHEM_XLOGP3_AA>
0.7

> <PUBCHEM_EXACT_MASS>
750.3674

> <PUBCHEM_MOLECULAR_FORMULA>
C35H58O17

> <PUBCHEM_MOLECULAR_WEIGHT>
750.8

> <PUBCHEM_OPENEYE_CAN_SMILES>
CC1C(C(CC(O1)OC2C(OC(=O)CC2OC)C)O)OC3CC(C(C(O3)C)OC4CC(C(C(O4)C)OC5CC(C(C(O5)C)OC(=O)C)OC)OC)O

> <PUBCHEM_OPENEYE_ISO_SMILES>
C[C@@H]1[C@H]([C@H](C[C@@H](O1)O[C@@H]2[C@H](OC(=O)C[C@H]2OC)C)O)O[C@H]3C[C@H]([C@@H]([C@H](O3)C)O[C@H]4C[C@@H]([C@@H]([C@H](O4)C)O[C@H]5C[C@@H]([C@@H]([C@H](O5)C)OC(=O)C)OC)OC)O

> <PUBCHEM_CACTVS_TPSA>
195

> <PUBCHEM_MONOISOTOPIC_WEIGHT>
750.3674

> <PUBCHEM_TOTAL_CHARGE>
0

> <PUBCHEM_HEAVY_ATOM_COUNT>
52

> <PUBCHEM_ATOM_DEF_STEREO_COUNT>
19

> <PUBCHEM_ATOM_UDEF_STEREO_COUNT>
0

> <PUBCHEM_BOND_DEF_STEREO_COUNT>
0

> <PUBCHEM_BOND_UDEF_STEREO_COUNT>
0

> <PUBCHEM_ISOTOPIC_ATOM_COUNT>
0

> <PUBCHEM_COMPONENT_COUNT>
1

> <PUBCHEM_CACTVS_TAUTO_COUNT>
-1

> <PUBCHEM_COORDINATE_TYPE>
1
5
255

> <PUBCHEM_BONDANNOTATIONS>
18  1  5
22  1  5
21  10  6
29  11  6
35  12  5
36  13  5
42  15  5
24  38  6
26  39  5
30  41  5
37  44  6
25  4  6
27  4  6
43  47  5
19  5  6
32  5  6
20  8  6
33  9  5
40  9  6

$$$$
