5281377
  -OEChem-08242022463D

 51 54  0     1  0  0  0  0  0999 V2000
    3.5881    0.6766   -0.2943 O   0  0  0  0  0  0  0  0  0  0  0  0
    2.8403   -1.5149   -0.5804 O   0  0  0  0  0  0  0  0  0  0  0  0
    7.5141   -0.4818   -0.6287 O   0  0  0  0  0  0  0  0  0  0  0  0
    6.8674    2.0947    0.5112 O   0  0  0  0  0  0  0  0  0  0  0  0
    5.4346   -2.4581    0.0425 O   0  0  0  0  0  0  0  0  0  0  0  0
    2.7805    3.1909    0.4688 O   0  0  0  0  0  0  0  0  0  0  0  0
   -1.5301   -0.2986   -1.9875 O   0  0  0  0  0  0  0  0  0  0  0  0
   -0.5991   -1.2086    2.6808 O   0  0  0  0  0  0  0  0  0  0  0  0
   -2.9548   -0.5085    1.8301 O   0  0  0  0  0  0  0  0  0  0  0  0
   -8.9122    0.9083    0.1789 O   0  0  0  0  0  0  0  0  0  0  0  0
    6.2977   -0.2047    0.0670 C   0  0  1  0  0  0  0  0  0  0  0  0
    5.9375    1.2611   -0.1755 C   0  0  1  0  0  0  0  0  0  0  0  0
    5.1972   -1.1363   -0.4411 C   0  0  2  0  0  0  0  0  0  0  0  0
    4.5227    1.5626    0.3244 C   0  0  1  0  0  0  0  0  0  0  0  0
    3.8198   -0.6880    0.0473 C   0  0  1  0  0  0  0  0  0  0  0  0
    4.0969    2.9883   -0.0119 C   0  0  0  0  0  0  0  0  0  0  0  0
    1.5371   -1.2599   -0.2708 C   0  0  0  0  0  0  0  0  0  0  0  0
    0.6394   -0.9034   -1.2771 C   0  0  0  0  0  0  0  0  0  0  0  0
    1.1032   -1.3579    1.0519 C   0  0  0  0  0  0  0  0  0  0  0  0
   -0.6940   -0.6453   -0.9574 C   0  0  0  0  0  0  0  0  0  0  0  0
   -1.1276   -0.7433    0.3643 C   0  0  0  0  0  0  0  0  0  0  0  0
   -0.2298   -1.0998    1.3741 C   0  0  0  0  0  0  0  0  0  0  0  0
   -2.5405   -0.4622    0.6792 C   0  0  0  0  0  0  0  0  0  0  0  0
   -3.4177   -0.1094   -0.4711 C   0  0  0  0  0  0  0  0  0  0  0  0
   -2.8488   -0.0596   -1.6851 C   0  0  0  0  0  0  0  0  0  0  0  0
   -4.8555    0.1563   -0.3015 C   0  0  0  0  0  0  0  0  0  0  0  0
   -5.7761   -0.8906   -0.3792 C   0  0  0  0  0  0  0  0  0  0  0  0
   -5.3031    1.4572   -0.0618 C   0  0  0  0  0  0  0  0  0  0  0  0
   -7.1384   -0.6379   -0.2181 C   0  0  0  0  0  0  0  0  0  0  0  0
   -6.6654    1.7101    0.0995 C   0  0  0  0  0  0  0  0  0  0  0  0
   -7.5831    0.6625    0.0214 C   0  0  0  0  0  0  0  0  0  0  0  0
    6.4977   -0.3931    1.1291 H   0  0  0  0  0  0  0  0  0  0  0  0
    6.0242    1.4853   -1.2457 H   0  0  0  0  0  0  0  0  0  0  0  0
    5.2153   -1.1869   -1.5369 H   0  0  0  0  0  0  0  0  0  0  0  0
    4.4537    1.4363    1.4135 H   0  0  0  0  0  0  0  0  0  0  0  0
    3.7608   -0.8178    1.1360 H   0  0  0  0  0  0  0  0  0  0  0  0
    4.7524    3.7281    0.4564 H   0  0  0  0  0  0  0  0  0  0  0  0
    4.0873    3.1592   -1.0935 H   0  0  0  0  0  0  0  0  0  0  0  0
    8.1884    0.1331   -0.2921 H   0  0  0  0  0  0  0  0  0  0  0  0
    6.7931    1.9073    1.4625 H   0  0  0  0  0  0  0  0  0  0  0  0
    6.3225   -2.7207   -0.2548 H   0  0  0  0  0  0  0  0  0  0  0  0
    2.2088    2.5235    0.0519 H   0  0  0  0  0  0  0  0  0  0  0  0
    0.9801   -0.8272   -2.3065 H   0  0  0  0  0  0  0  0  0  0  0  0
    1.7990   -1.6541    1.8328 H   0  0  0  0  0  0  0  0  0  0  0  0
   -3.3885    0.1814   -2.5928 H   0  0  0  0  0  0  0  0  0  0  0  0
    0.1717   -1.4629    3.2164 H   0  0  0  0  0  0  0  0  0  0  0  0
   -5.4452   -1.9098   -0.5641 H   0  0  0  0  0  0  0  0  0  0  0  0
   -4.6002    2.2844    0.0029 H   0  0  0  0  0  0  0  0  0  0  0  0
   -7.8430   -1.4627   -0.2809 H   0  0  0  0  0  0  0  0  0  0  0  0
   -7.0057    2.7250    0.2860 H   0  0  0  0  0  0  0  0  0  0  0  0
   -9.3999    0.0709    0.0943 H   0  0  0  0  0  0  0  0  0  0  0  0
  1 14  1  0  0  0  0
  1 15  1  0  0  0  0
  2 15  1  0  0  0  0
  2 17  1  0  0  0  0
  3 11  1  0  0  0  0
  3 39  1  0  0  0  0
  4 12  1  0  0  0  0
  4 40  1  0  0  0  0
  5 13  1  0  0  0  0
  5 41  1  0  0  0  0
  6 16  1  0  0  0  0
  6 42  1  0  0  0  0
  7 20  1  0  0  0  0
  7 25  1  0  0  0  0
  8 22  1  0  0  0  0
  8 46  1  0  0  0  0
  9 23  2  0  0  0  0
 10 31  1  0  0  0  0
 10 51  1  0  0  0  0
 11 12  1  0  0  0  0
 11 13  1  0  0  0  0
 11 32  1  0  0  0  0
 12 14  1  0  0  0  0
 12 33  1  0  0  0  0
 13 15  1  0  0  0  0
 13 34  1  0  0  0  0
 14 16  1  0  0  0  0
 14 35  1  0  0  0  0
 15 36  1  0  0  0  0
 16 37  1  0  0  0  0
 16 38  1  0  0  0  0
 17 18  1  0  0  0  0
 17 19  2  0  0  0  0
 18 20  2  0  0  0  0
 18 43  1  0  0  0  0
 19 22  1  0  0  0  0
 19 44  1  0  0  0  0
 20 21  1  0  0  0  0
 21 22  2  0  0  0  0
 21 23  1  0  0  0  0
 23 24  1  0  0  0  0
 24 25  2  0  0  0  0
 24 26  1  0  0  0  0
 25 45  1  0  0  0  0
 26 27  2  0  0  0  0
 26 28  1  0  0  0  0
 27 29  1  0  0  0  0
 27 47  1  0  0  0  0
 28 30  2  0  0  0  0
 28 48  1  0  0  0  0
 29 31  2  0  0  0  0
 29 49  1  0  0  0  0
 30 31  1  0  0  0  0
 30 50  1  0  0  0  0
M  END
> <PUBCHEM_COMPOUND_CID>
5281377

> <PUBCHEM_CONFORMER_RMSD>
0.8

> <PUBCHEM_CONFORMER_DIVERSEORDER>
1
84
23
95
30
4
51
105
37
100
33
91
75
21
28
99
31
24
76
52
83
67
47
104
88
7
26
50
57
97
54
48
102
6
65
82
85
77
61
60
29
15
42
58
22
92
3
16
35
106
10
12
8
71
78
69
2
70
103
98
25
34
39
9
5
41
96
43
38
64
80
86
14
73
13
63
53
49
45
62
68
89
74
59
79
94
93
32
19
46
56
27
18
66
36
87
11
81
20
17
40
90
72
44
101
55

> <PUBCHEM_MMFF94_PARTIAL_CHARGES>
44
1 -0.56
10 -0.53
11 0.28
12 0.28
13 0.28
14 0.28
15 0.56
16 0.28
17 0.08
18 -0.15
19 -0.15
2 -0.36
20 0.08
21 0.09
22 0.08
23 0.47
24 -0.01
25 -0.07
26 0.03
27 -0.15
28 -0.15
29 -0.15
3 -0.68
30 -0.15
31 0.08
39 0.4
4 -0.68
40 0.4
41 0.4
42 0.4
43 0.15
44 0.15
45 0.15
46 0.45
47 0.15
48 0.15
49 0.15
5 -0.68
50 0.15
51 0.45
6 -0.68
7 -0.16
8 -0.53
9 -0.57

> <PUBCHEM_EFFECTIVE_ROTOR_COUNT>
5.2

> <PUBCHEM_PHARMACOPHORE_FEATURES>
18
1 1 acceptor
1 10 donor
1 2 acceptor
1 3 acceptor
1 3 donor
1 4 acceptor
1 4 donor
1 5 acceptor
1 5 donor
1 6 acceptor
1 6 donor
1 7 acceptor
1 8 donor
1 9 acceptor
6 1 11 12 13 14 15 rings
6 17 18 19 20 21 22 rings
6 26 27 28 29 30 31 rings
6 7 20 21 23 24 25 rings

> <PUBCHEM_HEAVY_ATOM_COUNT>
31

> <PUBCHEM_ATOM_DEF_STEREO_COUNT>
5

> <PUBCHEM_ATOM_UDEF_STEREO_COUNT>
0

> <PUBCHEM_BOND_DEF_STEREO_COUNT>
0

> <PUBCHEM_BOND_UDEF_STEREO_COUNT>
0

> <PUBCHEM_ISOTOPIC_ATOM_COUNT>
0

> <PUBCHEM_COMPONENT_COUNT>
1

> <PUBCHEM_CACTVS_TAUTO_COUNT>
10

> <PUBCHEM_CONFORMER_ID>
0050966100000001

> <PUBCHEM_MMFF94_ENERGY>
103.2307

> <PUBCHEM_FEATURE_SELFOVERLAP>
91.444

> <PUBCHEM_SHAPE_FINGERPRINT>
10 15 15140968360878401503
10165383 225 17530967982373162146
10411042 1 17980200791437610894
106641 1 14562816564513790750
10673678 19 18059858419249486828
11456790 92 18186796951030419648
11646440 116 17240487987771013173
11991303 11 17417805184469141239
12107698 1 18411981325675688373
12166972 35 17775566438356940904
12236239 1 17775565347108394822
13165053 68 18125715940929688967
13533116 47 17677044634320348050
13617811 41 15482674576079345129
13685833 64 9583520918860438125
14849402 71 18335704987295596749
14933364 13 18411982447067931911
15131766 46 18056469780738451132
15183329 4 15698000747430507241
15419008 145 18265041454301669744
15419008 47 17894627041511432829
1577012 14 17917985109665493582
15840311 113 18411983555391469509
16989713 51 16486394625979499271
16994733 274 18411134715150600201
18335252 114 18272926115922944180
19301679 30 17979630140571021378
19319366 153 16988841640193078367
20157964 124 18342459231827786182
20511986 3 17130977819825542672
20554085 129 17022897952137717011
21033648 29 18041275586735793416
21298829 104 18201152269722612456
21641784 216 16486987171829961281
21792961 116 16916790656468332263
22122407 14 18342750627620022304
22224240 67 17312823775583670091
22956985 138 14420072342778180418
23559900 14 17531254971729243350
23569914 2 17689662664279536845
23576562 1 16199567209247991545
24771750 20 16054610975748023145
249057 3 18131349713386324294
2747138 104 17095815347663897229
2838139 119 18412542132735912613
3004659 81 15697996366453199778
34797466 226 18272375244155751687
397830 11 18261966253411729715
4066623 53 16343983620058974624
4073 2 18187649162509600386
4093350 32 18412825763743942990
4098825 35 18342736312905097559
465052 167 12468357938220372746
5265222 85 18131346453838949727
5385378 56 17168140092340326698
5758199 1 17749109968057784259
57724786 102 18115305730341153676
58902169 19 18060131063704963308
59682541 35 17240489113469097825

> <PUBCHEM_SHAPE_MULTIPOLES>
579.27
22.03
2.25
1.34
12.54
1.67
-0.34
8.1
0.93
-3.51
-0.33
0.59
-0.51
0.41

> <PUBCHEM_SHAPE_SELFOVERLAP>
1271.128

> <PUBCHEM_SHAPE_VOLUME>
309.7

> <PUBCHEM_COORDINATE_TYPE>
2
5
10

$$$$
