181240
  -OEChem-11212023483D

 74 80  0     1  0  0  0  0  0999 V2000
   -0.4043   -0.0109    0.4090 O   0  0  0  0  0  0  0  0  0  0  0  0
    5.4731    2.6186   -0.8316 O   0  0  0  0  0  0  0  0  0  0  0  0
   -0.8977    2.0000    1.4148 O   0  0  0  0  0  0  0  0  0  0  0  0
   -4.4363   -1.0549   -2.1933 O   0  0  0  0  0  0  0  0  0  0  0  0
   -5.9947    1.3792    1.6259 O   0  0  0  0  0  0  0  0  0  0  0  0
   -6.5313   -0.1113   -0.6460 O   0  0  0  0  0  0  0  0  0  0  0  0
    3.7046    0.9745   -1.0122 N   0  0  2  0  0  0  0  0  0  0  0  0
    3.9140   -2.1445    0.1824 N   0  0  2  0  0  0  0  0  0  0  0  0
    1.8284   -0.9563    0.0865 C   0  0  1  0  0  0  0  0  0  0  0  0
    1.4632    1.4424   -0.0176 C   0  0  2  0  0  0  0  0  0  0  0  0
    2.2404    0.9086   -1.2648 C   0  0  2  0  0  0  0  0  0  0  0  0
    4.0003    0.4330    0.3548 C   0  0  2  0  0  0  0  0  0  0  0  0
    2.4432    2.3403    0.7930 C   0  0  1  0  0  0  0  0  0  0  0  0
    3.2805   -0.9049    0.6618 C   0  0  2  0  0  0  0  0  0  0  0  0
    0.9762    0.1552    0.7243 C   0  0  1  0  0  0  0  0  0  0  0  0
    1.8455   -0.5484   -1.3901 C   0  0  0  0  0  0  0  0  0  0  0  0
    3.5418    1.4665    1.4219 C   0  0  0  0  0  0  0  0  0  0  0  0
    3.2167    3.2933   -0.1625 C   0  0  1  0  0  0  0  0  0  0  0  0
    4.0858    2.4118   -1.1128 C   0  0  1  0  0  0  0  0  0  0  0  0
    1.5868   -2.4240    0.2131 C   0  0  0  0  0  0  0  0  0  0  0  0
    2.8446   -3.0724    0.2084 C   0  0  0  0  0  0  0  0  0  0  0  0
    2.2938    4.2433   -0.9265 C   0  0  0  0  0  0  0  0  0  0  0  0
    0.4025   -3.1379    0.2560 C   0  0  0  0  0  0  0  0  0  0  0  0
    5.2400   -2.5513    0.5921 C   0  0  0  0  0  0  0  0  0  0  0  0
    2.9098   -4.4578    0.2310 C   0  0  0  0  0  0  0  0  0  0  0  0
    1.5255    5.1447    0.0193 C   0  0  0  0  0  0  0  0  0  0  0  0
   -1.2307    0.9899    0.8146 C   0  0  0  0  0  0  0  0  0  0  0  0
    0.4754   -4.5307    0.2950 C   0  0  0  0  0  0  0  0  0  0  0  0
    1.7167   -5.1847    0.2789 C   0  0  0  0  0  0  0  0  0  0  0  0
   -2.6343    0.6973    0.4289 C   0  0  0  0  0  0  0  0  0  0  0  0
   -3.6578    1.1808    1.2178 C   0  0  0  0  0  0  0  0  0  0  0  0
   -2.8714   -0.0478   -0.7082 C   0  0  0  0  0  0  0  0  0  0  0  0
   -4.1899   -0.3213   -1.0720 C   0  0  0  0  0  0  0  0  0  0  0  0
   -4.9763    0.9071    0.8538 C   0  0  0  0  0  0  0  0  0  0  0  0
   -5.2424    0.1562   -0.2911 C   0  0  0  0  0  0  0  0  0  0  0  0
   -4.5828   -0.3382   -3.4175 C   0  0  0  0  0  0  0  0  0  0  0  0
   -6.4487    0.5385    2.6848 C   0  0  0  0  0  0  0  0  0  0  0  0
   -6.9100   -1.4837   -0.7220 C   0  0  0  0  0  0  0  0  0  0  0  0
    0.6413    2.0561   -0.3976 H   0  0  0  0  0  0  0  0  0  0  0  0
    1.9767    1.4390   -2.1874 H   0  0  0  0  0  0  0  0  0  0  0  0
    5.0817    0.2953    0.4571 H   0  0  0  0  0  0  0  0  0  0  0  0
    1.9181    2.8899    1.5800 H   0  0  0  0  0  0  0  0  0  0  0  0
    3.2282   -1.0149    1.7581 H   0  0  0  0  0  0  0  0  0  0  0  0
    1.0783    0.1970    1.8141 H   0  0  0  0  0  0  0  0  0  0  0  0
    0.8515   -0.6493   -1.8452 H   0  0  0  0  0  0  0  0  0  0  0  0
    2.5419   -1.1210   -2.0147 H   0  0  0  0  0  0  0  0  0  0  0  0
    3.1770    0.9937    2.3401 H   0  0  0  0  0  0  0  0  0  0  0  0
    4.3930    2.0856    1.7345 H   0  0  0  0  0  0  0  0  0  0  0  0
    3.8863    3.9136    0.4510 H   0  0  0  0  0  0  0  0  0  0  0  0
    3.9535    2.7269   -2.1551 H   0  0  0  0  0  0  0  0  0  0  0  0
    2.9076    4.8764   -1.5799 H   0  0  0  0  0  0  0  0  0  0  0  0
    1.5972    3.7153   -1.5843 H   0  0  0  0  0  0  0  0  0  0  0  0
   -0.5617   -2.6435    0.2439 H   0  0  0  0  0  0  0  0  0  0  0  0
    5.9577   -1.7372    0.4568 H   0  0  0  0  0  0  0  0  0  0  0  0
    5.2538   -2.8442    1.6474 H   0  0  0  0  0  0  0  0  0  0  0  0
    5.5997   -3.3899   -0.0133 H   0  0  0  0  0  0  0  0  0  0  0  0
    5.6587    3.5639   -0.9640 H   0  0  0  0  0  0  0  0  0  0  0  0
    3.8574   -4.9856    0.2213 H   0  0  0  0  0  0  0  0  0  0  0  0
    0.9890    5.9106   -0.5508 H   0  0  0  0  0  0  0  0  0  0  0  0
    2.1945    5.6574    0.7177 H   0  0  0  0  0  0  0  0  0  0  0  0
    0.7789    4.5897    0.5946 H   0  0  0  0  0  0  0  0  0  0  0  0
   -0.4389   -5.1173    0.3276 H   0  0  0  0  0  0  0  0  0  0  0  0
    1.7498   -6.2708    0.3031 H   0  0  0  0  0  0  0  0  0  0  0  0
   -3.4556    1.7642    2.1118 H   0  0  0  0  0  0  0  0  0  0  0  0
   -2.0650   -0.4171   -1.3355 H   0  0  0  0  0  0  0  0  0  0  0  0
   -5.4196    0.3648   -3.3557 H   0  0  0  0  0  0  0  0  0  0  0  0
   -3.6594    0.1970   -3.6607 H   0  0  0  0  0  0  0  0  0  0  0  0
   -4.7898   -1.0587   -4.2134 H   0  0  0  0  0  0  0  0  0  0  0  0
   -5.6417    0.3554    3.4013 H   0  0  0  0  0  0  0  0  0  0  0  0
   -7.2656    1.0496    3.2015 H   0  0  0  0  0  0  0  0  0  0  0  0
   -6.8239   -0.4112    2.2911 H   0  0  0  0  0  0  0  0  0  0  0  0
   -6.8465   -1.8336   -1.7561 H   0  0  0  0  0  0  0  0  0  0  0  0
   -6.3035   -2.1184   -0.0664 H   0  0  0  0  0  0  0  0  0  0  0  0
   -7.9532   -1.5628   -0.4021 H   0  0  0  0  0  0  0  0  0  0  0  0
  1 15  1  0  0  0  0
  1 27  1  0  0  0  0
  2 19  1  0  0  0  0
  2 57  1  0  0  0  0
  3 27  2  0  0  0  0
  4 33  1  0  0  0  0
  4 36  1  0  0  0  0
  5 34  1  0  0  0  0
  5 37  1  0  0  0  0
  6 35  1  0  0  0  0
  6 38  1  0  0  0  0
  7 11  1  0  0  0  0
  7 12  1  0  0  0  0
  7 19  1  0  0  0  0
  8 14  1  0  0  0  0
  8 21  1  0  0  0  0
  8 24  1  0  0  0  0
  9 14  1  0  0  0  0
  9 15  1  0  0  0  0
  9 16  1  0  0  0  0
  9 20  1  0  0  0  0
 10 11  1  0  0  0  0
 10 13  1  0  0  0  0
 10 15  1  0  0  0  0
 10 39  1  0  0  0  0
 11 16  1  0  0  0  0
 11 40  1  0  0  0  0
 12 14  1  0  0  0  0
 12 17  1  0  0  0  0
 12 41  1  0  0  0  0
 13 17  1  0  0  0  0
 13 18  1  0  0  0  0
 13 42  1  0  0  0  0
 14 43  1  0  0  0  0
 15 44  1  0  0  0  0
 16 45  1  0  0  0  0
 16 46  1  0  0  0  0
 17 47  1  0  0  0  0
 17 48  1  0  0  0  0
 18 19  1  0  0  0  0
 18 22  1  0  0  0  0
 18 49  1  0  0  0  0
 19 50  1  0  0  0  0
 20 21  1  0  0  0  0
 20 23  2  0  0  0  0
 21 25  2  0  0  0  0
 22 26  1  0  0  0  0
 22 51  1  0  0  0  0
 22 52  1  0  0  0  0
 23 28  1  0  0  0  0
 23 53  1  0  0  0  0
 24 54  1  0  0  0  0
 24 55  1  0  0  0  0
 24 56  1  0  0  0  0
 25 29  1  0  0  0  0
 25 58  1  0  0  0  0
 26 59  1  0  0  0  0
 26 60  1  0  0  0  0
 26 61  1  0  0  0  0
 27 30  1  0  0  0  0
 28 29  2  0  0  0  0
 28 62  1  0  0  0  0
 29 63  1  0  0  0  0
 30 31  2  0  0  0  0
 30 32  1  0  0  0  0
 31 34  1  0  0  0  0
 31 64  1  0  0  0  0
 32 33  2  0  0  0  0
 32 65  1  0  0  0  0
 33 35  1  0  0  0  0
 34 35  2  0  0  0  0
 36 66  1  0  0  0  0
 36 67  1  0  0  0  0
 36 68  1  0  0  0  0
 37 69  1  0  0  0  0
 37 70  1  0  0  0  0
 37 71  1  0  0  0  0
 38 72  1  0  0  0  0
 38 73  1  0  0  0  0
 38 74  1  0  0  0  0
M  END
> <PUBCHEM_COMPOUND_CID>
181240

> <PUBCHEM_CONFORMER_RMSD>
1

> <PUBCHEM_CONFORMER_DIVERSEORDER>
1
6
9
13
14
8
12
7
4
10
2
11
5
3

> <PUBCHEM_MMFF94_PARTIAL_CHARGES>
38
1 -0.43
11 0.27
12 0.27
14 0.37
15 0.28
19 0.55
2 -0.68
20 -0.14
21 0.1
23 -0.15
24 0.37
25 -0.15
27 0.63
28 -0.15
29 -0.15
3 -0.57
30 0.09
31 -0.15
32 -0.15
33 0.08
34 0.08
35 0.08
36 0.28
37 0.28
38 0.28
4 -0.36
5 -0.36
53 0.15
57 0.4
58 0.15
6 -0.36
62 0.15
63 0.15
64 0.15
65 0.15
7 -0.81
8 -0.84
9 0.14

> <PUBCHEM_EFFECTIVE_ROTOR_COUNT>
8.2

> <PUBCHEM_PHARMACOPHORE_FEATURES>
14
1 2 acceptor
1 2 donor
1 26 hydrophobe
1 3 acceptor
1 4 acceptor
1 5 acceptor
1 6 acceptor
1 7 cation
1 8 cation
10 7 9 10 11 12 13 14 15 16 17 rings
5 8 9 14 20 21 rings
6 20 21 23 25 28 29 rings
6 30 31 32 33 34 35 rings
8 7 10 11 12 13 17 18 19 rings

> <PUBCHEM_HEAVY_ATOM_COUNT>
38

> <PUBCHEM_ATOM_DEF_STEREO_COUNT>
6

> <PUBCHEM_ATOM_UDEF_STEREO_COUNT>
3

> <PUBCHEM_BOND_DEF_STEREO_COUNT>
0

> <PUBCHEM_BOND_UDEF_STEREO_COUNT>
0

> <PUBCHEM_ISOTOPIC_ATOM_COUNT>
0

> <PUBCHEM_COMPONENT_COUNT>
1

> <PUBCHEM_CACTVS_TAUTO_COUNT>
1

> <PUBCHEM_CONFORMER_ID>
0002C3F800000001

> <PUBCHEM_MMFF94_ENERGY>
192.0778

> <PUBCHEM_FEATURE_SELFOVERLAP>
73.212

> <PUBCHEM_SHAPE_FINGERPRINT>
10622 236 17844500307192311839
10985338 15 17397591887005190701
1100329 8 18410575094129337090
11135926 11 18408046229399311870
12107183 9 17766568954461077313
12608794 3 17833513024798125496
12786520 15 17981071642583083293
12788726 201 17560813095637325025
1361 2 18409448119630850832
13690498 29 17333945153367351614
13782708 43 17386017130937143139
13911987 19 18190755317165110341
14068700 675 18129373818219437938
14790565 3 17906188582402142019
15250474 111 18273492356607277975
17138139 8 17772452724053010087
18681886 176 18411130312814461434
19319366 153 18270673298655502087
20028762 73 18272928285140378686
20511986 3 17917415511472254873
20642791 105 17617647100991085928
20775530 9 17977380534414356074
21033648 144 17968655029205395109
21133410 171 16669890738043595019
21421861 104 18057613070640314459
21772528 278 18195541512950302341
22033318 11 17624450522482935785
22149856 69 18411990183042985179
23559900 14 18407761434476276402
24771293 8 18272075077755935434
25223398 141 17682411582360740126
3178227 256 18335712589798914090
4015057 19 18334577928200401105
4144715 1 17969805003238207025
46194498 28 17458922443485592878
463206 1 18342734109428976571
513532 50 18131358501416549364
5223283 242 17682095700897076205
86090 222 17387439873139978291

> <PUBCHEM_SHAPE_MULTIPOLES>
736.84
13.7
6
1.79
25.39
2.67
-0.7
-1.03
0.04
-9.83
0.22
3.36
-0.44
-2.55

> <PUBCHEM_SHAPE_SELFOVERLAP>
1645.879

> <PUBCHEM_SHAPE_VOLUME>
391.6

> <PUBCHEM_COORDINATE_TYPE>
2
5
10

$$$$
