184180
  -OEChem-11222001023D

 90 95  0     1  0  0  0  0  0999 V2000
   -1.3905    4.4392   -0.0952 O   0  0  0  0  0  0  0  0  0  0  0  0
   -3.1747    2.2302   -0.3073 O   0  0  0  0  0  0  0  0  0  0  0  0
    2.6901    3.6979    0.1031 O   0  0  0  0  0  0  0  0  0  0  0  0
    0.9990    4.3509    1.5351 O   0  0  0  0  0  0  0  0  0  0  0  0
   -4.0760    2.0748   -2.4254 O   0  0  0  0  0  0  0  0  0  0  0  0
    8.8789   -0.6322    0.1790 O   0  0  0  0  0  0  0  0  0  0  0  0
   -3.1918   -2.7887   -1.5934 O   0  0  0  0  0  0  0  0  0  0  0  0
   -5.1333   -2.3755    2.7656 O   0  0  0  0  0  0  0  0  0  0  0  0
   -3.4615   -3.7089    1.0056 O   0  0  0  0  0  0  0  0  0  0  0  0
    0.6971   -1.4106   -0.2559 N   0  0  1  0  0  0  0  0  0  0  0  0
    4.0606   -0.1542    0.8694 N   0  0  0  0  0  0  0  0  0  0  0  0
    1.0158    1.5223   -0.5010 C   0  0  2  0  0  0  0  0  0  0  0  0
    0.0940    0.7190   -1.4391 C   0  0  1  0  0  0  0  0  0  0  0  0
    1.1410    0.7982    0.8543 C   0  0  0  0  0  0  0  0  0  0  0  0
    0.5156    2.9781   -0.3874 C   0  0  1  0  0  0  0  0  0  0  0  0
    1.5519   -0.6778    0.7190 C   0  0  2  0  0  0  0  0  0  0  0  0
    0.5849   -0.7316   -1.5561 C   0  0  0  0  0  0  0  0  0  0  0  0
   -1.3750    0.7909   -0.9947 C   0  0  0  0  0  0  0  0  0  0  0  0
   -0.9552    3.0813    0.0357 C   0  0  2  0  0  0  0  0  0  0  0  0
   -1.8595    2.2331   -0.8633 C   0  0  2  0  0  0  0  0  0  0  0  0
    3.0075   -0.9000    0.4208 C   0  0  0  0  0  0  0  0  0  0  0  0
    1.1573   -2.8119   -0.4200 C   0  0  0  0  0  0  0  0  0  0  0  0
    2.6092   -2.9667   -0.9378 C   0  0  0  0  0  0  0  0  0  0  0  0
    3.5094   -1.9578   -0.3105 C   0  0  0  0  0  0  0  0  0  0  0  0
    1.4007    3.7592    0.5423 C   0  0  0  0  0  0  0  0  0  0  0  0
    4.9247   -1.8339   -0.3350 C   0  0  0  0  0  0  0  0  0  0  0  0
    5.2439   -0.6947    0.4115 C   0  0  0  0  0  0  0  0  0  0  0  0
   -2.5474    4.6825    0.6865 C   0  0  0  0  0  0  0  0  0  0  0  0
   -4.1984    2.1458   -1.2103 C   0  0  0  0  0  0  0  0  0  0  0  0
    5.9707   -2.5767   -0.9181 C   0  0  0  0  0  0  0  0  0  0  0  0
    6.5620   -0.2651    0.6037 C   0  0  0  0  0  0  0  0  0  0  0  0
    7.2929   -2.1566   -0.7346 C   0  0  0  0  0  0  0  0  0  0  0  0
   -5.5138    2.1559   -0.4654 C   0  0  0  0  0  0  0  0  0  0  0  0
    7.5816   -1.0182    0.0150 C   0  0  0  0  0  0  0  0  0  0  0  0
    3.6456    4.4040    0.9007 C   0  0  0  0  0  0  0  0  0  0  0  0
   -6.3123    0.8739   -0.6992 C   0  0  0  0  0  0  0  0  0  0  0  0
   -5.5537   -0.3463   -0.2457 C   0  0  0  0  0  0  0  0  0  0  0  0
    9.1118    0.5403    0.9560 C   0  0  0  0  0  0  0  0  0  0  0  0
   -5.6920   -0.8067    1.0638 C   0  0  0  0  0  0  0  0  0  0  0  0
   -4.7127   -1.0153   -1.1348 C   0  0  0  0  0  0  0  0  0  0  0  0
   -4.0101   -2.1447   -0.7148 C   0  0  0  0  0  0  0  0  0  0  0  0
   -4.9894   -1.9362    1.4839 C   0  0  0  0  0  0  0  0  0  0  0  0
   -4.1485   -2.6052    0.5946 C   0  0  0  0  0  0  0  0  0  0  0  0
   -3.7717   -3.8326   -2.3731 C   0  0  0  0  0  0  0  0  0  0  0  0
   -6.0121   -1.6345    3.6097 C   0  0  0  0  0  0  0  0  0  0  0  0
   -2.1667   -3.4948    1.5626 C   0  0  0  0  0  0  0  0  0  0  0  0
    2.0151    1.5371   -0.9584 H   0  0  0  0  0  0  0  0  0  0  0  0
    0.1558    1.1664   -2.4414 H   0  0  0  0  0  0  0  0  0  0  0  0
    0.1796    0.8333    1.3817 H   0  0  0  0  0  0  0  0  0  0  0  0
    1.8480    1.3268    1.5036 H   0  0  0  0  0  0  0  0  0  0  0  0
    0.6121    3.4680   -1.3676 H   0  0  0  0  0  0  0  0  0  0  0  0
    1.3735   -1.1348    1.7034 H   0  0  0  0  0  0  0  0  0  0  0  0
   -0.1160   -1.2868   -2.1925 H   0  0  0  0  0  0  0  0  0  0  0  0
    1.5449   -0.7220   -2.0867 H   0  0  0  0  0  0  0  0  0  0  0  0
   -1.9996    0.2654   -1.7272 H   0  0  0  0  0  0  0  0  0  0  0  0
   -1.5376    0.2612   -0.0478 H   0  0  0  0  0  0  0  0  0  0  0  0
   -1.0532    2.7662    1.0833 H   0  0  0  0  0  0  0  0  0  0  0  0
   -1.8737    2.7052   -1.8558 H   0  0  0  0  0  0  0  0  0  0  0  0
    1.0775   -3.3081    0.5569 H   0  0  0  0  0  0  0  0  0  0  0  0
    0.4722   -3.3588   -1.0796 H   0  0  0  0  0  0  0  0  0  0  0  0
    2.9658   -3.9802   -0.7220 H   0  0  0  0  0  0  0  0  0  0  0  0
    2.6308   -2.8355   -2.0261 H   0  0  0  0  0  0  0  0  0  0  0  0
    3.9934    0.6718    1.4478 H   0  0  0  0  0  0  0  0  0  0  0  0
   -3.4484    4.5874    0.0762 H   0  0  0  0  0  0  0  0  0  0  0  0
   -2.6134    4.0671    1.5895 H   0  0  0  0  0  0  0  0  0  0  0  0
   -2.5064    5.7280    1.0091 H   0  0  0  0  0  0  0  0  0  0  0  0
    5.7609   -3.4665   -1.5049 H   0  0  0  0  0  0  0  0  0  0  0  0
    6.7230    0.6267    1.1964 H   0  0  0  0  0  0  0  0  0  0  0  0
    8.0988   -2.7309   -1.1851 H   0  0  0  0  0  0  0  0  0  0  0  0
   -5.3308    2.2969    0.6071 H   0  0  0  0  0  0  0  0  0  0  0  0
   -6.0812    3.0299   -0.8042 H   0  0  0  0  0  0  0  0  0  0  0  0
    4.6301    4.2780    0.4424 H   0  0  0  0  0  0  0  0  0  0  0  0
    3.6738    3.9881    1.9124 H   0  0  0  0  0  0  0  0  0  0  0  0
    3.4035    5.4707    0.9268 H   0  0  0  0  0  0  0  0  0  0  0  0
   -6.5604    0.7727   -1.7637 H   0  0  0  0  0  0  0  0  0  0  0  0
   -7.2722    0.9353   -0.1719 H   0  0  0  0  0  0  0  0  0  0  0  0
   10.1948    0.7003    0.9820 H   0  0  0  0  0  0  0  0  0  0  0  0
    8.7848    0.4088    1.9930 H   0  0  0  0  0  0  0  0  0  0  0  0
    8.6705    1.4278    0.4897 H   0  0  0  0  0  0  0  0  0  0  0  0
   -6.3574   -0.2440    1.7097 H   0  0  0  0  0  0  0  0  0  0  0  0
   -4.6052   -0.6693   -2.1597 H   0  0  0  0  0  0  0  0  0  0  0  0
   -2.9933   -4.2524   -3.0159 H   0  0  0  0  0  0  0  0  0  0  0  0
   -4.5734   -3.4383   -3.0056 H   0  0  0  0  0  0  0  0  0  0  0  0
   -4.1584   -4.6271   -1.7271 H   0  0  0  0  0  0  0  0  0  0  0  0
   -5.6553   -0.6106    3.7648 H   0  0  0  0  0  0  0  0  0  0  0  0
   -7.0448   -1.6669    3.2458 H   0  0  0  0  0  0  0  0  0  0  0  0
   -6.0059   -2.1239    4.5893 H   0  0  0  0  0  0  0  0  0  0  0  0
   -2.2478   -2.9817    2.5257 H   0  0  0  0  0  0  0  0  0  0  0  0
   -1.6949   -4.4681    1.7215 H   0  0  0  0  0  0  0  0  0  0  0  0
   -1.5448   -2.9104    0.8800 H   0  0  0  0  0  0  0  0  0  0  0  0
  1 19  1  0  0  0  0
  1 28  1  0  0  0  0
  2 20  1  0  0  0  0
  2 29  1  0  0  0  0
  3 25  1  0  0  0  0
  3 35  1  0  0  0  0
  4 25  2  0  0  0  0
  5 29  2  0  0  0  0
  6 34  1  0  0  0  0
  6 38  1  0  0  0  0
  7 41  1  0  0  0  0
  7 44  1  0  0  0  0
  8 42  1  0  0  0  0
  8 45  1  0  0  0  0
  9 43  1  0  0  0  0
  9 46  1  0  0  0  0
 10 16  1  0  0  0  0
 10 17  1  0  0  0  0
 10 22  1  0  0  0  0
 11 21  1  0  0  0  0
 11 27  1  0  0  0  0
 11 63  1  0  0  0  0
 12 13  1  0  0  0  0
 12 14  1  0  0  0  0
 12 15  1  0  0  0  0
 12 47  1  0  0  0  0
 13 17  1  0  0  0  0
 13 18  1  0  0  0  0
 13 48  1  0  0  0  0
 14 16  1  0  0  0  0
 14 49  1  0  0  0  0
 14 50  1  0  0  0  0
 15 19  1  0  0  0  0
 15 25  1  0  0  0  0
 15 51  1  0  0  0  0
 16 21  1  0  0  0  0
 16 52  1  0  0  0  0
 17 53  1  0  0  0  0
 17 54  1  0  0  0  0
 18 20  1  0  0  0  0
 18 55  1  0  0  0  0
 18 56  1  0  0  0  0
 19 20  1  0  0  0  0
 19 57  1  0  0  0  0
 20 58  1  0  0  0  0
 21 24  2  0  0  0  0
 22 23  1  0  0  0  0
 22 59  1  0  0  0  0
 22 60  1  0  0  0  0
 23 24  1  0  0  0  0
 23 61  1  0  0  0  0
 23 62  1  0  0  0  0
 24 26  1  0  0  0  0
 26 27  2  0  0  0  0
 26 30  1  0  0  0  0
 27 31  1  0  0  0  0
 28 64  1  0  0  0  0
 28 65  1  0  0  0  0
 28 66  1  0  0  0  0
 29 33  1  0  0  0  0
 30 32  2  0  0  0  0
 30 67  1  0  0  0  0
 31 34  2  0  0  0  0
 31 68  1  0  0  0  0
 32 34  1  0  0  0  0
 32 69  1  0  0  0  0
 33 36  1  0  0  0  0
 33 70  1  0  0  0  0
 33 71  1  0  0  0  0
 35 72  1  0  0  0  0
 35 73  1  0  0  0  0
 35 74  1  0  0  0  0
 36 37  1  0  0  0  0
 36 75  1  0  0  0  0
 36 76  1  0  0  0  0
 37 39  2  0  0  0  0
 37 40  1  0  0  0  0
 38 77  1  0  0  0  0
 38 78  1  0  0  0  0
 38 79  1  0  0  0  0
 39 42  1  0  0  0  0
 39 80  1  0  0  0  0
 40 41  2  0  0  0  0
 40 81  1  0  0  0  0
 41 43  1  0  0  0  0
 42 43  2  0  0  0  0
 44 82  1  0  0  0  0
 44 83  1  0  0  0  0
 44 84  1  0  0  0  0
 45 85  1  0  0  0  0
 45 86  1  0  0  0  0
 45 87  1  0  0  0  0
 46 88  1  0  0  0  0
 46 89  1  0  0  0  0
 46 90  1  0  0  0  0
M  END
> <PUBCHEM_COMPOUND_CID>
184180

> <PUBCHEM_CONFORMER_RMSD>
1.4

> <PUBCHEM_CONFORMER_DIVERSEORDER>
1
59
34
46
40
19
67
53
64
56
49
26
14
39
16
52
8
54
47
15
36
6
55
31
35
33
62
60
11
58
66
32
4
12
63
18
51
13
9
48
21
10
45
28
5
23
30
7
20
22
24
3
50
37
38
41
17
42
61
44
25
2
65
27
29
57
43

> <PUBCHEM_MMFF94_PARTIAL_CHARGES>
47
1 -0.56
10 -0.81
11 0.03
15 0.06
16 0.45
17 0.27
19 0.28
2 -0.43
20 0.28
21 -0.33
22 0.27
23 0.18
24 -0.18
25 0.66
27 -0.15
28 0.28
29 0.66
3 -0.43
30 -0.15
31 -0.15
32 -0.15
33 0.06
34 0.08
35 0.28
36 0.14
37 -0.14
38 0.28
39 -0.15
4 -0.57
40 -0.15
41 0.08
42 0.08
43 0.08
44 0.28
45 0.28
46 0.28
5 -0.57
6 -0.36
63 0.27
67 0.15
68 0.15
69 0.15
7 -0.36
8 -0.36
80 0.15
81 0.15
9 -0.36

> <PUBCHEM_EFFECTIVE_ROTOR_COUNT>
13.6

> <PUBCHEM_PHARMACOPHORE_FEATURES>
16
1 1 acceptor
1 10 cation
1 11 cation
1 11 donor
1 4 acceptor
1 5 acceptor
1 6 acceptor
1 7 acceptor
1 8 acceptor
1 9 acceptor
5 11 21 24 26 27 rings
6 10 12 13 14 16 17 rings
6 10 16 21 22 23 24 rings
6 12 13 15 18 19 20 rings
6 26 27 30 31 32 34 rings
6 37 39 40 41 42 43 rings

> <PUBCHEM_HEAVY_ATOM_COUNT>
46

> <PUBCHEM_ATOM_DEF_STEREO_COUNT>
6

> <PUBCHEM_ATOM_UDEF_STEREO_COUNT>
0

> <PUBCHEM_BOND_DEF_STEREO_COUNT>
0

> <PUBCHEM_BOND_UDEF_STEREO_COUNT>
0

> <PUBCHEM_ISOTOPIC_ATOM_COUNT>
0

> <PUBCHEM_COMPONENT_COUNT>
1

> <PUBCHEM_CACTVS_TAUTO_COUNT>
1

> <PUBCHEM_CONFORMER_ID>
0002CF7400000001

> <PUBCHEM_MMFF94_ENERGY>
154.6866

> <PUBCHEM_FEATURE_SELFOVERLAP>
81.519

> <PUBCHEM_SHAPE_FINGERPRINT>
10010297 198 18051410974503399789
10169797 241 18193579945235022254
10290309 65 17907287003373124740
10462674 296 17984404506798189583
10653451 467 18410572894599081574
10838868 158 17463420760255768714
10864689 126 18194110824599299821
11434127 23 18266173920717025543
11513181 2 18127125509829114231
12120059 20 18197754726951690984
12608794 3 18265923344051774459
12857493 111 18410575115551569272
13008946 170 14534038238726012934
13811026 1 18335419088533576243
14279260 333 17967813804053013418
14394314 77 18192715549525154349
14725015 67 18114750447104815819
14955137 171 18343577426468562228
15064986 266 18200035015805709798
15361156 5 18408602595379209855
15444296 121 18261680281488358317
15448158 91 18335144245435296215
15781502 593 18336816517037835192
15927050 60 17982443000119397268
15968369 153 18200582705477207664
18608769 82 18342729707751688070
19315092 285 16412918704606387295
19611394 137 18410577271482018714
20721686 56 18263077876920951219
21796203 349 18120684502262851931
2747138 104 18410862032203623816
4073 2 18337953368694706454
484989 97 18334300881456629152
5171179 24 18269825583289511778
6009941 240 17822010874713885831

> <PUBCHEM_SHAPE_MULTIPOLES>
883.87
19.31
6.26
1.92
29.36
5.44
0.9
-10.22
4.09
-3.13
0.6
-3.88
-1.32
3.37

> <PUBCHEM_SHAPE_SELFOVERLAP>
1909.905

> <PUBCHEM_SHAPE_VOLUME>
481

> <PUBCHEM_COORDINATE_TYPE>
2
5
10

$$$$
