6100671
  -OEChem-11212023493D

 50 55  0     1  0  0  0  0  0999 V2000
    0.2644   -2.9384    0.2748 O   0  0  0  0  0  0  0  0  0  0  0  0
   -3.2456    2.5514   -0.4591 O   0  0  0  0  0  0  0  0  0  0  0  0
   -1.3952    1.0413   -0.8573 N   0  0  2  0  0  0  0  0  0  0  0  0
    1.7558    1.6435    0.0952 N   0  0  2  0  0  0  0  0  0  0  0  0
    0.8623   -0.5839   -0.0099 C   0  0  1  0  0  0  0  0  0  0  0  0
   -1.4633   -1.2802    0.0583 C   0  0  2  0  0  0  0  0  0  0  0  0
   -1.1502   -0.3883   -1.1870 C   0  0  2  0  0  0  0  0  0  0  0  0
   -0.7847    1.3580    0.4755 C   0  0  2  0  0  0  0  0  0  0  0  0
   -2.4150   -0.4686    0.9854 C   0  0  1  0  0  0  0  0  0  0  0  0
    0.6608    0.8233    0.6392 C   0  0  2  0  0  0  0  0  0  0  0  0
   -0.0627   -1.6084    0.6707 C   0  0  1  0  0  0  0  0  0  0  0  0
    0.3312   -0.5682   -1.4468 C   0  0  0  0  0  0  0  0  0  0  0  0
   -1.6503    0.7176    1.5970 C   0  0  0  0  0  0  0  0  0  0  0  0
   -3.5436    0.1984    0.1482 C   0  0  1  0  0  0  0  0  0  0  0  0
   -2.8746    1.2190   -0.8245 C   0  0  1  0  0  0  0  0  0  0  0  0
    2.3547   -0.6203   -0.0123 C   0  0  0  0  0  0  0  0  0  0  0  0
    2.8209    0.7158   -0.0057 C   0  0  0  0  0  0  0  0  0  0  0  0
   -4.4193   -0.8196   -0.5832 C   0  0  0  0  0  0  0  0  0  0  0  0
    3.2259   -1.6925   -0.0851 C   0  0  0  0  0  0  0  0  0  0  0  0
    2.0097    2.9970    0.5369 C   0  0  0  0  0  0  0  0  0  0  0  0
    4.1809    0.9753   -0.0898 C   0  0  0  0  0  0  0  0  0  0  0  0
   -5.1221   -1.7432    0.3917 C   0  0  0  0  0  0  0  0  0  0  0  0
    4.5936   -1.4250   -0.1531 C   0  0  0  0  0  0  0  0  0  0  0  0
    5.0666   -0.1041   -0.1592 C   0  0  0  0  0  0  0  0  0  0  0  0
   -1.9636   -2.2003   -0.2667 H   0  0  0  0  0  0  0  0  0  0  0  0
   -1.7174   -0.6897   -2.0751 H   0  0  0  0  0  0  0  0  0  0  0  0
   -0.7890    2.4433    0.6203 H   0  0  0  0  0  0  0  0  0  0  0  0
   -2.8164   -1.0967    1.7866 H   0  0  0  0  0  0  0  0  0  0  0  0
    0.8702    0.7450    1.7193 H   0  0  0  0  0  0  0  0  0  0  0  0
   -0.0322   -1.5715    1.7634 H   0  0  0  0  0  0  0  0  0  0  0  0
    0.5288   -1.5194   -1.9579 H   0  0  0  0  0  0  0  0  0  0  0  0
    0.7469    0.2259   -2.0793 H   0  0  0  0  0  0  0  0  0  0  0  0
   -2.3516    1.4602    2.0000 H   0  0  0  0  0  0  0  0  0  0  0  0
   -1.0547    0.3882    2.4552 H   0  0  0  0  0  0  0  0  0  0  0  0
   -4.1955    0.7496    0.8414 H   0  0  0  0  0  0  0  0  0  0  0  0
   -3.2564    1.0834   -1.8438 H   0  0  0  0  0  0  0  0  0  0  0  0
   -3.8557   -1.4102   -1.3116 H   0  0  0  0  0  0  0  0  0  0  0  0
   -5.1834   -0.2781   -1.1550 H   0  0  0  0  0  0  0  0  0  0  0  0
   -0.3661   -3.5355    0.7126 H   0  0  0  0  0  0  0  0  0  0  0  0
    2.8698   -2.7158   -0.1060 H   0  0  0  0  0  0  0  0  0  0  0  0
    2.7359    3.4946   -0.1144 H   0  0  0  0  0  0  0  0  0  0  0  0
    2.3870    3.0118    1.5650 H   0  0  0  0  0  0  0  0  0  0  0  0
    1.0960    3.5971    0.5023 H   0  0  0  0  0  0  0  0  0  0  0  0
   -4.2154    2.6065   -0.5067 H   0  0  0  0  0  0  0  0  0  0  0  0
    4.5704    1.9876   -0.0941 H   0  0  0  0  0  0  0  0  0  0  0  0
   -4.4225   -2.4241    0.8850 H   0  0  0  0  0  0  0  0  0  0  0  0
   -5.6622   -1.1804    1.1598 H   0  0  0  0  0  0  0  0  0  0  0  0
   -5.8514   -2.3617   -0.1421 H   0  0  0  0  0  0  0  0  0  0  0  0
    5.3011   -2.2478   -0.2126 H   0  0  0  0  0  0  0  0  0  0  0  0
    6.1358    0.0812   -0.2196 H   0  0  0  0  0  0  0  0  0  0  0  0
  1 11  1  0  0  0  0
  1 39  1  0  0  0  0
  2 15  1  0  0  0  0
  2 44  1  0  0  0  0
  3  7  1  0  0  0  0
  3  8  1  0  0  0  0
  3 15  1  0  0  0  0
  4 10  1  0  0  0  0
  4 17  1  0  0  0  0
  4 20  1  0  0  0  0
  5 10  1  0  0  0  0
  5 11  1  0  0  0  0
  5 12  1  0  0  0  0
  5 16  1  0  0  0  0
  6  7  1  0  0  0  0
  6  9  1  0  0  0  0
  6 11  1  0  0  0  0
  6 25  1  0  0  0  0
  7 12  1  0  0  0  0
  7 26  1  0  0  0  0
  8 10  1  0  0  0  0
  8 13  1  0  0  0  0
  8 27  1  0  0  0  0
  9 13  1  0  0  0  0
  9 14  1  0  0  0  0
  9 28  1  0  0  0  0
 10 29  1  0  0  0  0
 11 30  1  0  0  0  0
 12 31  1  0  0  0  0
 12 32  1  0  0  0  0
 13 33  1  0  0  0  0
 13 34  1  0  0  0  0
 14 15  1  0  0  0  0
 14 18  1  0  0  0  0
 14 35  1  0  0  0  0
 15 36  1  0  0  0  0
 16 17  1  0  0  0  0
 16 19  2  0  0  0  0
 17 21  2  0  0  0  0
 18 22  1  0  0  0  0
 18 37  1  0  0  0  0
 18 38  1  0  0  0  0
 19 23  1  0  0  0  0
 19 40  1  0  0  0  0
 20 41  1  0  0  0  0
 20 42  1  0  0  0  0
 20 43  1  0  0  0  0
 21 24  1  0  0  0  0
 21 45  1  0  0  0  0
 22 46  1  0  0  0  0
 22 47  1  0  0  0  0
 22 48  1  0  0  0  0
 23 24  2  0  0  0  0
 23 49  1  0  0  0  0
 24 50  1  0  0  0  0
M  END
> <PUBCHEM_COMPOUND_CID>
6100671

> <PUBCHEM_CONFORMER_RMSD>
0.6

> <PUBCHEM_CONFORMER_DIVERSEORDER>
1

> <PUBCHEM_MMFF94_PARTIAL_CHARGES>
23
1 -0.68
10 0.37
11 0.28
15 0.55
16 -0.14
17 0.1
19 -0.15
2 -0.68
20 0.37
21 -0.15
23 -0.15
24 -0.15
3 -0.81
39 0.4
4 -0.84
40 0.15
44 0.4
45 0.15
49 0.15
5 0.14
50 0.15
7 0.27
8 0.27

> <PUBCHEM_EFFECTIVE_ROTOR_COUNT>
2.2

> <PUBCHEM_PHARMACOPHORE_FEATURES>
11
1 1 acceptor
1 1 donor
1 2 acceptor
1 2 donor
1 22 hydrophobe
1 3 cation
1 4 cation
10 3 5 6 7 8 9 10 11 12 13 rings
5 4 5 10 16 17 rings
6 16 17 19 21 23 24 rings
8 3 6 7 8 9 13 14 15 rings

> <PUBCHEM_HEAVY_ATOM_COUNT>
24

> <PUBCHEM_ATOM_DEF_STEREO_COUNT>
9

> <PUBCHEM_ATOM_UDEF_STEREO_COUNT>
0

> <PUBCHEM_BOND_DEF_STEREO_COUNT>
0

> <PUBCHEM_BOND_UDEF_STEREO_COUNT>
0

> <PUBCHEM_ISOTOPIC_ATOM_COUNT>
0

> <PUBCHEM_COMPONENT_COUNT>
1

> <PUBCHEM_CACTVS_TAUTO_COUNT>
1

> <PUBCHEM_CONFORMER_ID>
005D16BF00000001

> <PUBCHEM_MMFF94_ENERGY>
115.5057

> <PUBCHEM_FEATURE_SELFOVERLAP>
57.975

> <PUBCHEM_SHAPE_FINGERPRINT>
10 15 18189891089047891264
10366900 7 17968099745657755962
10863032 1 18262512568502872695
10948715 1 18117838798481956205
10967382 1 18411702097525672450
11578080 2 16735501972400012543
12011746 2 18261111889236139142
12236239 1 17704076204565530467
12403259 226 18409726274782763061
12403259 415 18410287029934114601
12403260 363 18408600379038746141
12403814 3 18201717379890829967
12592029 89 18334009463066301626
13140716 1 17979910833271898816
13224815 77 17988642969666907512
13464514 151 18048312237209060005
14223421 5 18120940761375797666
14787075 74 18340487858517644451
15196674 1 18410573955445421684
15209289 33 18411418418750970355
15848702 151 18060146405201705950
16945 1 18340192085494273229
17349148 13 17561084708936353422
19591789 44 18410008853518550531
19930381 70 18267023856228023154
200 152 18202562886609511699
20028762 73 18059292183863388879
21033648 29 18260536853398123725
21267235 1 18342466932793786246
221357 26 18411695487323227109
22393880 68 18262792965231938591
23402539 116 18201716223837790886
23559900 14 18335135435834230297
25 1 18190454961421988764
296302 2 18336268942122885813
3286 77 18407758144489129396
335352 9 18194682562113772820
350125 39 18410296942713177097
465052 167 18200601405216078103
5104073 3 18412542076705704952
69090 78 18411136961054479026
9709674 26 18410017623894711406

> <PUBCHEM_SHAPE_MULTIPOLES>
472.21
8.63
2.47
1.06
1.03
0.59
-0.02
-1.9
-0.41
0.23
0.24
-0.56
0.07
0.47

> <PUBCHEM_SHAPE_SELFOVERLAP>
1069.939

> <PUBCHEM_SHAPE_VOLUME>
246.9

> <PUBCHEM_COORDINATE_TYPE>
2
5
10

$$$$
