6436266
  -OEChem-11222001263D

 47 52  0     1  0  0  0  0  0999 V2000
    0.0922    2.8917   -0.2963 O   0  0  0  0  0  0  0  0  0  0  0  0
   -1.4340   -1.1186    1.0411 N   0  0  2  0  0  0  0  0  0  0  0  0
    1.6671   -1.6669   -0.0852 N   0  0  2  0  0  0  0  0  0  0  0  0
    0.7340    0.5461    0.0412 C   0  0  1  0  0  0  0  0  0  0  0  0
   -1.6092    1.1872    0.0855 C   0  0  1  0  0  0  0  0  0  0  0  0
   -1.2049    0.3255    1.3330 C   0  0  2  0  0  0  0  0  0  0  0  0
    0.5271   -0.8758   -0.5754 C   0  0  2  0  0  0  0  0  0  0  0  0
   -0.8913   -1.4449   -0.3213 C   0  0  2  0  0  0  0  0  0  0  0  0
   -0.2512    1.5417   -0.5999 C   0  0  1  0  0  0  0  0  0  0  0  0
    0.2815    0.5546    1.5051 C   0  0  0  0  0  0  0  0  0  0  0  0
   -2.5816    0.3452   -0.7899 C   0  0  1  0  0  0  0  0  0  0  0  0
   -1.8391   -0.8488   -1.4081 C   0  0  0  0  0  0  0  0  0  0  0  0
    2.2259    0.6093   -0.0282 C   0  0  0  0  0  0  0  0  0  0  0  0
   -2.9153   -1.3161    1.0575 C   0  0  0  0  0  0  0  0  0  0  0  0
   -3.5862   -0.3026    0.1470 C   0  0  0  0  0  0  0  0  0  0  0  0
    2.7165   -0.7180   -0.0474 C   0  0  0  0  0  0  0  0  0  0  0  0
    3.0842    1.6942    0.0075 C   0  0  0  0  0  0  0  0  0  0  0  0
    1.9256   -3.0201   -0.5260 C   0  0  0  0  0  0  0  0  0  0  0  0
   -4.8906   -0.0072    0.1851 C   0  0  0  0  0  0  0  0  0  0  0  0
    4.0838   -0.9544   -0.0258 C   0  0  0  0  0  0  0  0  0  0  0  0
    4.4586    1.4504    0.0128 C   0  0  0  0  0  0  0  0  0  0  0  0
    4.9540    0.1388   -0.0015 C   0  0  0  0  0  0  0  0  0  0  0  0
   -5.5470    0.9888   -0.7106 C   0  0  0  0  0  0  0  0  0  0  0  0
   -2.1234    2.0958    0.4248 H   0  0  0  0  0  0  0  0  0  0  0  0
   -1.7383    0.6307    2.2415 H   0  0  0  0  0  0  0  0  0  0  0  0
    0.6729   -0.8079   -1.6664 H   0  0  0  0  0  0  0  0  0  0  0  0
   -0.8815   -2.5331   -0.4434 H   0  0  0  0  0  0  0  0  0  0  0  0
   -0.2876    1.4675   -1.6905 H   0  0  0  0  0  0  0  0  0  0  0  0
    0.4861    1.5135    1.9962 H   0  0  0  0  0  0  0  0  0  0  0  0
    0.7501   -0.2193    2.1260 H   0  0  0  0  0  0  0  0  0  0  0  0
   -3.0240    0.9485   -1.5855 H   0  0  0  0  0  0  0  0  0  0  0  0
   -2.5515   -1.6166   -1.7420 H   0  0  0  0  0  0  0  0  0  0  0  0
   -1.3000   -0.5407   -2.3108 H   0  0  0  0  0  0  0  0  0  0  0  0
   -3.2811   -1.2097    2.0861 H   0  0  0  0  0  0  0  0  0  0  0  0
   -3.1508   -2.3377    0.7354 H   0  0  0  0  0  0  0  0  0  0  0  0
   -0.0310    3.0449    0.6545 H   0  0  0  0  0  0  0  0  0  0  0  0
    2.7127    2.7117    0.0446 H   0  0  0  0  0  0  0  0  0  0  0  0
    2.6927   -3.4968    0.0933 H   0  0  0  0  0  0  0  0  0  0  0  0
    2.2520   -3.0382   -1.5714 H   0  0  0  0  0  0  0  0  0  0  0  0
    1.0273   -3.6379   -0.4409 H   0  0  0  0  0  0  0  0  0  0  0  0
   -5.5322   -0.5322    0.8881 H   0  0  0  0  0  0  0  0  0  0  0  0
    4.4900   -1.9602   -0.0338 H   0  0  0  0  0  0  0  0  0  0  0  0
    5.1535    2.2856    0.0393 H   0  0  0  0  0  0  0  0  0  0  0  0
    6.0278   -0.0286    0.0101 H   0  0  0  0  0  0  0  0  0  0  0  0
   -5.9805    0.4888   -1.5817 H   0  0  0  0  0  0  0  0  0  0  0  0
   -4.8811    1.7875   -1.0449 H   0  0  0  0  0  0  0  0  0  0  0  0
   -6.3624    1.4768   -0.1653 H   0  0  0  0  0  0  0  0  0  0  0  0
  1  9  1  0  0  0  0
  1 36  1  0  0  0  0
  2  6  1  0  0  0  0
  2  8  1  0  0  0  0
  2 14  1  0  0  0  0
  3  7  1  0  0  0  0
  3 16  1  0  0  0  0
  3 18  1  0  0  0  0
  4  7  1  0  0  0  0
  4  9  1  0  0  0  0
  4 10  1  0  0  0  0
  4 13  1  0  0  0  0
  5  6  1  0  0  0  0
  5  9  1  0  0  0  0
  5 11  1  0  0  0  0
  5 24  1  0  0  0  0
  6 10  1  0  0  0  0
  6 25  1  0  0  0  0
  7  8  1  0  0  0  0
  7 26  1  0  0  0  0
  8 12  1  0  0  0  0
  8 27  1  0  0  0  0
  9 28  1  0  0  0  0
 10 29  1  0  0  0  0
 10 30  1  0  0  0  0
 11 12  1  0  0  0  0
 11 15  1  0  0  0  0
 11 31  1  0  0  0  0
 12 32  1  0  0  0  0
 12 33  1  0  0  0  0
 13 16  1  0  0  0  0
 13 17  2  0  0  0  0
 14 15  1  0  0  0  0
 14 34  1  0  0  0  0
 14 35  1  0  0  0  0
 15 19  2  0  0  0  0
 16 20  2  0  0  0  0
 17 21  1  0  0  0  0
 17 37  1  0  0  0  0
 18 38  1  0  0  0  0
 18 39  1  0  0  0  0
 18 40  1  0  0  0  0
 19 23  1  0  0  0  0
 19 41  1  0  0  0  0
 20 22  1  0  0  0  0
 20 42  1  0  0  0  0
 21 22  2  0  0  0  0
 21 43  1  0  0  0  0
 22 44  1  0  0  0  0
 23 45  1  0  0  0  0
 23 46  1  0  0  0  0
 23 47  1  0  0  0  0
M  END
> <PUBCHEM_COMPOUND_CID>
6436266

> <PUBCHEM_CONFORMER_RMSD>
0.6

> <PUBCHEM_CONFORMER_DIVERSEORDER>
1

> <PUBCHEM_MMFF94_PARTIAL_CHARGES>
26
1 -0.68
11 0.14
13 -0.14
14 0.41
15 -0.28
16 0.1
17 -0.15
18 0.37
19 -0.29
2 -0.81
20 -0.15
21 -0.15
22 -0.15
23 0.14
3 -0.84
36 0.4
37 0.15
4 0.14
41 0.15
42 0.15
43 0.15
44 0.15
6 0.27
7 0.37
8 0.27
9 0.28

> <PUBCHEM_EFFECTIVE_ROTOR_COUNT>
1

> <PUBCHEM_PHARMACOPHORE_FEATURES>
9
1 1 acceptor
1 1 donor
1 2 cation
1 23 hydrophobe
1 3 cation
10 2 4 5 6 7 8 9 10 11 12 rings
5 3 4 7 13 16 rings
6 13 16 17 20 21 22 rings
8 2 5 6 8 11 12 14 15 rings

> <PUBCHEM_HEAVY_ATOM_COUNT>
23

> <PUBCHEM_ATOM_DEF_STEREO_COUNT>
7

> <PUBCHEM_ATOM_UDEF_STEREO_COUNT>
0

> <PUBCHEM_BOND_DEF_STEREO_COUNT>
1

> <PUBCHEM_BOND_UDEF_STEREO_COUNT>
0

> <PUBCHEM_ISOTOPIC_ATOM_COUNT>
0

> <PUBCHEM_COMPONENT_COUNT>
1

> <PUBCHEM_CACTVS_TAUTO_COUNT>
1

> <PUBCHEM_CONFORMER_ID>
006235AA00000001

> <PUBCHEM_MMFF94_ENERGY>
110.7084

> <PUBCHEM_FEATURE_SELFOVERLAP>
47.873

> <PUBCHEM_SHAPE_FINGERPRINT>
10863032 1 18410859845701325131
10906281 52 18261976083911504764
10948715 1 18335417954809688689
10967382 1 18411419522989887238
11132069 177 18131346449511618946
11471102 20 18413107264263201158
11578080 2 13986387740638933244
12011746 2 18411986853598980052
12236239 1 17632859720064813271
12293681 4 18041287612491572857
12403814 3 18412822486599201069
12592029 89 18410573972646695426
12788726 201 18263921051277563952
12969540 114 18189035582600566463
13140716 1 18340480192486350418
13224815 77 18342461456530895338
14223421 5 18339085861291822334
14790565 3 18339931522882969884
15196674 1 18410855507415149558
15309172 13 18342461482374630070
15375358 24 18334296474297768563
1601671 61 18411135831652159993
16752209 62 16988566753901212659
16945 1 18060408136303070227
200 152 18060418010380097113
20645477 70 18342458110276943174
21267235 1 18411990139359854534
21285901 2 18188487969574543061
21304253 335 18410864230921489661
21421861 104 17970625190733736890
23402539 116 18261104192934189559
23493267 7 17968085426210527704
23557571 272 17385723552093277845
23559900 14 18260830393370017962
296302 2 18408325509774373827
335352 9 18411136931321725494
34934 24 18409726270429676083
350125 39 18411981365206080792
4072396 5 18337659854919163226
4340502 62 18041002830252887723
474 4 18411984697715229872
5104073 3 18409167744160461419
5283173 99 18042116570885996685
59755656 215 18336550417696007558
70251023 43 17983867674582917079
8272917 22 18342742875182784774
9709674 26 18338240345155277550

> <PUBCHEM_SHAPE_MULTIPOLES>
457.5
8.8
2.22
1.07
1.75
0.35
0.17
-1.44
-0.69
-1.28
-0.33
0.63
0.08
0.46

> <PUBCHEM_SHAPE_SELFOVERLAP>
1043.307

> <PUBCHEM_SHAPE_VOLUME>
239.9

> <PUBCHEM_COORDINATE_TYPE>
2
5
10

$$$$
