15942893
  -OEChem-11222001363D

 55 60  0     1  0  0  0  0  0999 V2000
    0.1381   -2.4882   -0.0406 O   0  0  0  0  0  0  0  0  0  0  0  0
   -2.8873    3.3239   -0.2928 O   0  0  0  0  0  0  0  0  0  0  0  0
   -1.7816   -3.2383    1.0030 O   0  0  0  0  0  0  0  0  0  0  0  0
   -1.1628    1.7055   -0.8121 N   0  0  2  0  0  0  0  0  0  0  0  0
    2.0100    1.9476    0.2239 N   0  0  2  0  0  0  0  0  0  0  0  0
    0.9356   -0.1766   -0.0980 C   0  0  1  0  0  0  0  0  0  0  0  0
   -1.4409   -0.6764   -0.1183 C   0  0  2  0  0  0  0  0  0  0  0  0
   -1.0322    0.2969   -1.2716 C   0  0  2  0  0  0  0  0  0  0  0  0
   -0.5518    1.8448    0.5505 C   0  0  2  0  0  0  0  0  0  0  0  0
   -2.3378    0.1239    0.8712 C   0  0  1  0  0  0  0  0  0  0  0  0
    0.8409    1.1766    0.6779 C   0  0  2  0  0  0  0  0  0  0  0  0
   -0.0837   -1.1774    0.4746 C   0  0  1  0  0  0  0  0  0  0  0  0
    0.4334    0.0167   -1.5323 C   0  0  0  0  0  0  0  0  0  0  0  0
   -1.4877    1.1794    1.5985 C   0  0  0  0  0  0  0  0  0  0  0  0
   -3.3917    0.9587    0.0888 C   0  0  1  0  0  0  0  0  0  0  0  0
   -2.6225    2.0043   -0.7775 C   0  0  1  0  0  0  0  0  0  0  0  0
    2.4195   -0.3391   -0.0889 C   0  0  0  0  0  0  0  0  0  0  0  0
    2.9956    0.9462    0.0473 C   0  0  0  0  0  0  0  0  0  0  0  0
   -4.3362    0.0905   -0.7433 C   0  0  0  0  0  0  0  0  0  0  0  0
    3.1992   -1.4701   -0.2530 C   0  0  0  0  0  0  0  0  0  0  0  0
    2.3682    3.2282    0.7927 C   0  0  0  0  0  0  0  0  0  0  0  0
    4.3738    1.0960    0.0013 C   0  0  0  0  0  0  0  0  0  0  0  0
   -5.1219   -0.8447    0.1403 C   0  0  0  0  0  0  0  0  0  0  0  0
   -0.7943   -3.4246    0.3047 C   0  0  0  0  0  0  0  0  0  0  0  0
    4.5855   -1.3145   -0.2820 C   0  0  0  0  0  0  0  0  0  0  0  0
    5.1672   -0.0436   -0.1599 C   0  0  0  0  0  0  0  0  0  0  0  0
   -0.4344   -4.7457   -0.3045 C   0  0  0  0  0  0  0  0  0  0  0  0
   -2.0311   -1.4759   -0.5754 H   0  0  0  0  0  0  0  0  0  0  0  0
   -1.6054    0.1289   -2.1908 H   0  0  0  0  0  0  0  0  0  0  0  0
   -0.4680    2.9086    0.7961 H   0  0  0  0  0  0  0  0  0  0  0  0
   -2.8048   -0.5379    1.6068 H   0  0  0  0  0  0  0  0  0  0  0  0
    1.0238    0.9817    1.7480 H   0  0  0  0  0  0  0  0  0  0  0  0
   -0.0610   -1.2284    1.5686 H   0  0  0  0  0  0  0  0  0  0  0  0
    0.5597   -0.8968   -2.1278 H   0  0  0  0  0  0  0  0  0  0  0  0
    0.9252    0.8274   -2.0837 H   0  0  0  0  0  0  0  0  0  0  0  0
   -2.1316    1.9385    2.0620 H   0  0  0  0  0  0  0  0  0  0  0  0
   -0.9374    0.7231    2.4284 H   0  0  0  0  0  0  0  0  0  0  0  0
   -4.0067    1.4979    0.8240 H   0  0  0  0  0  0  0  0  0  0  0  0
   -2.9960    1.9963   -1.8088 H   0  0  0  0  0  0  0  0  0  0  0  0
   -3.8144   -0.4764   -1.5197 H   0  0  0  0  0  0  0  0  0  0  0  0
   -5.0427    0.7459   -1.2681 H   0  0  0  0  0  0  0  0  0  0  0  0
    2.7591   -2.4532   -0.3728 H   0  0  0  0  0  0  0  0  0  0  0  0
    3.1450    3.7203    0.1980 H   0  0  0  0  0  0  0  0  0  0  0  0
    2.7271    3.1158    1.8214 H   0  0  0  0  0  0  0  0  0  0  0  0
    1.5087    3.9042    0.8053 H   0  0  0  0  0  0  0  0  0  0  0  0
   -3.8481    3.4653   -0.3451 H   0  0  0  0  0  0  0  0  0  0  0  0
    4.8465    2.0677    0.0955 H   0  0  0  0  0  0  0  0  0  0  0  0
   -4.4920   -1.6282    0.5715 H   0  0  0  0  0  0  0  0  0  0  0  0
   -5.6191   -0.3096    0.9558 H   0  0  0  0  0  0  0  0  0  0  0  0
   -5.8985   -1.3468   -0.4466 H   0  0  0  0  0  0  0  0  0  0  0  0
    5.2227   -2.1853   -0.4111 H   0  0  0  0  0  0  0  0  0  0  0  0
    6.2492    0.0551   -0.1920 H   0  0  0  0  0  0  0  0  0  0  0  0
    0.5414   -5.0706    0.0653 H   0  0  0  0  0  0  0  0  0  0  0  0
   -0.4246   -4.6601   -1.3940 H   0  0  0  0  0  0  0  0  0  0  0  0
   -1.1813   -5.4921   -0.0198 H   0  0  0  0  0  0  0  0  0  0  0  0
  1 12  1  0  0  0  0
  1 24  1  0  0  0  0
  2 16  1  0  0  0  0
  2 46  1  0  0  0  0
  3 24  2  0  0  0  0
  4  8  1  0  0  0  0
  4  9  1  0  0  0  0
  4 16  1  0  0  0  0
  5 11  1  0  0  0  0
  5 18  1  0  0  0  0
  5 21  1  0  0  0  0
  6 11  1  0  0  0  0
  6 12  1  0  0  0  0
  6 13  1  0  0  0  0
  6 17  1  0  0  0  0
  7  8  1  0  0  0  0
  7 10  1  0  0  0  0
  7 12  1  0  0  0  0
  7 28  1  0  0  0  0
  8 13  1  0  0  0  0
  8 29  1  0  0  0  0
  9 11  1  0  0  0  0
  9 14  1  0  0  0  0
  9 30  1  0  0  0  0
 10 14  1  0  0  0  0
 10 15  1  0  0  0  0
 10 31  1  0  0  0  0
 11 32  1  0  0  0  0
 12 33  1  0  0  0  0
 13 34  1  0  0  0  0
 13 35  1  0  0  0  0
 14 36  1  0  0  0  0
 14 37  1  0  0  0  0
 15 16  1  0  0  0  0
 15 19  1  0  0  0  0
 15 38  1  0  0  0  0
 16 39  1  0  0  0  0
 17 18  1  0  0  0  0
 17 20  2  0  0  0  0
 18 22  2  0  0  0  0
 19 23  1  0  0  0  0
 19 40  1  0  0  0  0
 19 41  1  0  0  0  0
 20 25  1  0  0  0  0
 20 42  1  0  0  0  0
 21 43  1  0  0  0  0
 21 44  1  0  0  0  0
 21 45  1  0  0  0  0
 22 26  1  0  0  0  0
 22 47  1  0  0  0  0
 23 48  1  0  0  0  0
 23 49  1  0  0  0  0
 23 50  1  0  0  0  0
 24 27  1  0  0  0  0
 25 26  2  0  0  0  0
 25 51  1  0  0  0  0
 26 52  1  0  0  0  0
 27 53  1  0  0  0  0
 27 54  1  0  0  0  0
 27 55  1  0  0  0  0
M  END
> <PUBCHEM_COMPOUND_CID>
15942893

> <PUBCHEM_CONFORMER_RMSD>
0.8

> <PUBCHEM_CONFORMER_DIVERSEORDER>
1

> <PUBCHEM_MMFF94_PARTIAL_CHARGES>
25
1 -0.43
11 0.37
12 0.28
16 0.55
17 -0.14
18 0.1
2 -0.68
20 -0.15
21 0.37
22 -0.15
24 0.66
25 -0.15
26 -0.15
27 0.06
3 -0.57
4 -0.81
42 0.15
46 0.4
47 0.15
5 -0.84
51 0.15
52 0.15
6 0.14
8 0.27
9 0.27

> <PUBCHEM_EFFECTIVE_ROTOR_COUNT>
4.2

> <PUBCHEM_PHARMACOPHORE_FEATURES>
10
1 2 acceptor
1 2 donor
1 23 hydrophobe
1 3 acceptor
1 4 cation
1 5 cation
10 4 6 7 8 9 10 11 12 13 14 rings
5 5 6 11 17 18 rings
6 17 18 20 22 25 26 rings
8 4 7 8 9 10 14 15 16 rings

> <PUBCHEM_HEAVY_ATOM_COUNT>
27

> <PUBCHEM_ATOM_DEF_STEREO_COUNT>
8

> <PUBCHEM_ATOM_UDEF_STEREO_COUNT>
1

> <PUBCHEM_BOND_DEF_STEREO_COUNT>
0

> <PUBCHEM_BOND_UDEF_STEREO_COUNT>
0

> <PUBCHEM_ISOTOPIC_ATOM_COUNT>
0

> <PUBCHEM_COMPONENT_COUNT>
1

> <PUBCHEM_CACTVS_TAUTO_COUNT>
1

> <PUBCHEM_CONFORMER_ID>
00F344ED00000001

> <PUBCHEM_MMFF94_ENERGY>
121.3354

> <PUBCHEM_FEATURE_SELFOVERLAP>
52.901

> <PUBCHEM_SHAPE_FINGERPRINT>
10863032 1 18196937892358998057
10948715 1 18191586358860758869
10967382 1 18411702058802394978
1100329 8 18341331192468074114
11370993 70 18336263444591257086
11578080 2 16484708047044104338
12011746 2 18408324384408513940
12035758 1 18411139177093788346
12236239 1 17561365071374414801
12293681 25 17843995669271526398
12403259 226 18410851049318711237
12633257 1 18200332007518137898
12788726 201 17774736298166749896
13004483 165 17979909741965862874
13140716 1 18124585651286350304
138480 1 17257089268704354922
14223421 5 18123752217024365880
14787075 74 18272929431842957087
14790565 3 18338805519870343481
15042514 8 18262805210421511571
15196674 1 18340205189798559740
15209289 33 18413387622775417559
16945 1 18265894837905482460
17349148 13 17917994962341750816
19591789 44 18410290281187207015
19930381 70 18122908629444532226
200 152 18060134327822202045
20028762 73 18201715189321333679
20197701 30 18334006173100272911
20775438 99 17337550855626270567
21033648 29 18410000040140599641
21267235 1 18271814497472865900
23227448 37 18266176317557014220
23419403 2 17200228441659502643
23559900 14 18268989967954956808
2748010 2 17837768190320177560
3380486 145 17904776818389014577
3383291 50 18340200796380105098
350125 39 18410578383393628261
5104073 3 18341609257462343904
59755656 215 18262236613055250199
81228 2 17826227673061649690
9709674 26 18342176721742728414

> <PUBCHEM_SHAPE_MULTIPOLES>
528.08
7.89
4.09
1.06
2.9
3.79
0.03
-1.04
0.6
-1.11
-0.48
-0.42
-0.2
0.78

> <PUBCHEM_SHAPE_SELFOVERLAP>
1185.76

> <PUBCHEM_SHAPE_VOLUME>
278

> <PUBCHEM_COORDINATE_TYPE>
2
5
10

$$$$
