56927765
  -OEChem-11222001343D

 48 53  0     1  0  0  0  0  0999 V2000
    1.0328   -2.2034   -0.4508 O   0  0  0  0  0  0  0  0  0  0  0  0
   -5.3058    0.6742    1.1164 O   0  0  0  0  0  0  0  0  0  0  0  0
    0.4941   -3.5162    1.3722 O   0  0  0  0  0  0  0  0  0  0  0  0
   -1.7328    1.2975   -0.8503 N   0  0  2  0  0  0  0  0  0  0  0  0
    1.2425    2.2157    0.9281 N   0  0  0  0  0  0  0  0  0  0  0  0
   -1.0856   -1.0712   -0.3474 C   0  0  2  0  0  0  0  0  0  0  0  0
   -1.1248    0.0584   -1.4368 C   0  0  2  0  0  0  0  0  0  0  0  0
    0.9514    0.2334   -0.3946 C   0  0  1  0  0  0  0  0  0  0  0  0
   -2.1314   -0.7119    0.7506 C   0  0  1  0  0  0  0  0  0  0  0  0
    0.3836   -1.0853    0.1523 C   0  0  2  0  0  0  0  0  0  0  0  0
   -1.1310    1.5569    0.5006 C   0  0  1  0  0  0  0  0  0  0  0  0
    0.3453    0.3309   -1.7814 C   0  0  0  0  0  0  0  0  0  0  0  0
   -1.6410    0.5306    1.5287 C   0  0  0  0  0  0  0  0  0  0  0  0
   -3.4260   -0.3204   -0.0060 C   0  0  2  0  0  0  0  0  0  0  0  0
    0.3664    1.4174    0.3886 C   0  0  0  0  0  0  0  0  0  0  0  0
   -3.1983    1.0699   -0.6553 C   0  0  2  0  0  0  0  0  0  0  0  0
    2.3959    0.5413   -0.2350 C   0  0  0  0  0  0  0  0  0  0  0  0
   -3.9730    1.2182   -1.9680 C   0  0  0  0  0  0  0  0  0  0  0  0
    2.4990    1.6986    0.5533 C   0  0  0  0  0  0  0  0  0  0  0  0
   -4.6030   -0.3125    0.9238 C   0  0  0  0  0  0  0  0  0  0  0  0
    3.5203   -0.0909   -0.7322 C   0  0  0  0  0  0  0  0  0  0  0  0
    3.7358    2.2334    0.8734 C   0  0  0  0  0  0  0  0  0  0  0  0
    1.0111   -3.3602    0.2742 C   0  0  0  0  0  0  0  0  0  0  0  0
    4.7705    0.4430   -0.4124 C   0  0  0  0  0  0  0  0  0  0  0  0
    4.8778    1.5940    0.3859 C   0  0  0  0  0  0  0  0  0  0  0  0
    1.7263   -4.4414   -0.4778 C   0  0  0  0  0  0  0  0  0  0  0  0
   -1.3614   -2.0273   -0.8102 H   0  0  0  0  0  0  0  0  0  0  0  0
   -1.6543   -0.2571   -2.3412 H   0  0  0  0  0  0  0  0  0  0  0  0
   -2.2910   -1.5533    1.4335 H   0  0  0  0  0  0  0  0  0  0  0  0
    0.4762   -1.1380    1.2426 H   0  0  0  0  0  0  0  0  0  0  0  0
   -1.3598    2.5770    0.8297 H   0  0  0  0  0  0  0  0  0  0  0  0
    0.7445   -0.4355   -2.4564 H   0  0  0  0  0  0  0  0  0  0  0  0
    0.4866    1.3064   -2.2622 H   0  0  0  0  0  0  0  0  0  0  0  0
   -0.8675    0.2590    2.2558 H   0  0  0  0  0  0  0  0  0  0  0  0
   -2.4669    0.9582    2.1103 H   0  0  0  0  0  0  0  0  0  0  0  0
   -3.6481   -1.0796   -0.7679 H   0  0  0  0  0  0  0  0  0  0  0  0
   -3.5671    1.8798   -0.0110 H   0  0  0  0  0  0  0  0  0  0  0  0
   -3.7226    0.4392   -2.6944 H   0  0  0  0  0  0  0  0  0  0  0  0
   -3.7683    2.1899   -2.4309 H   0  0  0  0  0  0  0  0  0  0  0  0
   -5.0512    1.1609   -1.7833 H   0  0  0  0  0  0  0  0  0  0  0  0
   -4.8263   -1.2699    1.4251 H   0  0  0  0  0  0  0  0  0  0  0  0
    3.4426   -0.9772   -1.3520 H   0  0  0  0  0  0  0  0  0  0  0  0
    3.8220    3.1275    1.4815 H   0  0  0  0  0  0  0  0  0  0  0  0
    5.6719   -0.0355   -0.7860 H   0  0  0  0  0  0  0  0  0  0  0  0
    5.8608    1.9931    0.6213 H   0  0  0  0  0  0  0  0  0  0  0  0
    1.2216   -4.6263   -1.4294 H   0  0  0  0  0  0  0  0  0  0  0  0
    1.7112   -5.3635    0.1103 H   0  0  0  0  0  0  0  0  0  0  0  0
    2.7668   -4.1510   -0.6434 H   0  0  0  0  0  0  0  0  0  0  0  0
  1 10  1  0  0  0  0
  1 23  1  0  0  0  0
  2 20  2  0  0  0  0
  3 23  2  0  0  0  0
  4  7  1  0  0  0  0
  4 11  1  0  0  0  0
  4 16  1  0  0  0  0
  5 15  2  0  0  0  0
  5 19  1  0  0  0  0
  6  7  1  0  0  0  0
  6  9  1  0  0  0  0
  6 10  1  0  0  0  0
  6 27  1  0  0  0  0
  7 12  1  0  0  0  0
  7 28  1  0  0  0  0
  8 10  1  0  0  0  0
  8 12  1  0  0  0  0
  8 15  1  0  0  0  0
  8 17  1  0  0  0  0
  9 13  1  0  0  0  0
  9 14  1  0  0  0  0
  9 29  1  0  0  0  0
 10 30  1  0  0  0  0
 11 13  1  0  0  0  0
 11 15  1  0  0  0  0
 11 31  1  0  0  0  0
 12 32  1  0  0  0  0
 12 33  1  0  0  0  0
 13 34  1  0  0  0  0
 13 35  1  0  0  0  0
 14 16  1  0  0  0  0
 14 20  1  0  0  0  0
 14 36  1  0  0  0  0
 16 18  1  0  0  0  0
 16 37  1  0  0  0  0
 17 19  1  0  0  0  0
 17 21  2  0  0  0  0
 18 38  1  0  0  0  0
 18 39  1  0  0  0  0
 18 40  1  0  0  0  0
 19 22  2  0  0  0  0
 20 41  1  0  0  0  0
 21 24  1  0  0  0  0
 21 42  1  0  0  0  0
 22 25  1  0  0  0  0
 22 43  1  0  0  0  0
 23 26  1  0  0  0  0
 24 25  2  0  0  0  0
 24 44  1  0  0  0  0
 25 45  1  0  0  0  0
 26 46  1  0  0  0  0
 26 47  1  0  0  0  0
 26 48  1  0  0  0  0
M  END
> <PUBCHEM_COMPOUND_CID>
56927765

> <PUBCHEM_CONFORMER_RMSD>
0.8

> <PUBCHEM_CONFORMER_DIVERSEORDER>
1

> <PUBCHEM_MMFF94_PARTIAL_CHARGES>
26
1 -0.43
10 0.28
11 0.33
14 0.06
15 0.33
16 0.27
17 -0.14
19 0.18
2 -0.57
20 0.45
21 -0.15
22 -0.15
23 0.66
24 -0.15
25 -0.15
26 0.06
3 -0.57
4 -0.81
41 0.06
42 0.15
43 0.15
44 0.15
45 0.15
5 -0.63
7 0.27
8 0.2

> <PUBCHEM_EFFECTIVE_ROTOR_COUNT>
4

> <PUBCHEM_PHARMACOPHORE_FEATURES>
8
1 2 acceptor
1 3 acceptor
1 4 cation
1 5 acceptor
10 4 6 7 8 9 10 11 12 13 15 rings
5 5 8 15 17 19 rings
6 17 19 21 22 24 25 rings
8 4 6 7 9 11 13 14 16 rings

> <PUBCHEM_HEAVY_ATOM_COUNT>
26

> <PUBCHEM_ATOM_DEF_STEREO_COUNT>
7

> <PUBCHEM_ATOM_UDEF_STEREO_COUNT>
1

> <PUBCHEM_BOND_DEF_STEREO_COUNT>
0

> <PUBCHEM_BOND_UDEF_STEREO_COUNT>
0

> <PUBCHEM_ISOTOPIC_ATOM_COUNT>
0

> <PUBCHEM_COMPONENT_COUNT>
1

> <PUBCHEM_CACTVS_TAUTO_COUNT>
2

> <PUBCHEM_CONFORMER_ID>
0364A61500000001

> <PUBCHEM_MMFF94_ENERGY>
91.0268

> <PUBCHEM_FEATURE_SELFOVERLAP>
42.811

> <PUBCHEM_SHAPE_FINGERPRINT>
10006869 2 17842568340692732193
10165383 225 18335996340997131724
10863032 1 18263640671902264965
10948715 1 17988650713461508001
11370993 70 18335978748652617178
11578080 2 17752773433084662029
12236239 1 16845578625400171433
12403259 415 18407478868631107028
12592029 89 18410292493126896450
12730499 353 18336540543697841957
12788726 201 17551773138567212294
13140716 1 18270679895260785129
13540713 4 17896884253758590821
13583140 156 16662584766411814420
14178342 30 18191322644317609555
14223421 5 18264490585483973141
14787075 74 18129378383299856413
14790565 3 18340498849302603481
15209289 33 18341612684661362662
15309172 13 18409164450216015032
16945 1 18342443829863910261
17980427 23 16950562224744953949
18769570 83 11455630754450409003
18915476 22 18337101264236240935
19591789 44 18339922743848107814
200 152 17060617836558242701
20028762 73 17840313538290939127
20101258 96 17261604971934875834
21033648 29 18338220674226700248
21421861 104 18194130620335390417
22182313 1 17749955441128585703
22956985 138 17677605359380918842
23402539 116 16487256590401201197
23419403 2 18043526101990357863
23557571 272 17531253807914393157
23559900 14 17968659285460002262
3383291 50 18340770343867451554
4340502 62 18340219565375788219
465052 167 17023477459358849713
5104073 3 18057878233594862640
5265222 85 18189633798984097014
59755656 215 18336837415536430535
633830 44 18131356327298460181
7364860 26 18267586810170183782
81228 2 17542771458060220066
9709674 26 17983859162568828124

> <PUBCHEM_SHAPE_MULTIPOLES>
507.5
8.08
3.44
1.4
0.91
5.46
-0.3
-4.47
0.65
-2.87
0.59
1.01
-0.23
0.96

> <PUBCHEM_SHAPE_SELFOVERLAP>
1156.21

> <PUBCHEM_SHAPE_VOLUME>
265.7

> <PUBCHEM_COORDINATE_TYPE>
2
5
10

$$$$
