102271368
  -OEChem-11222001373D

 66 71  0     1  0  0  0  0  0999 V2000
   -1.9246    1.8580   -0.4177 O   0  0  0  0  0  0  0  0  0  0  0  0
   -3.1527   -0.0206   -1.0300 O   0  0  0  0  0  0  0  0  0  0  0  0
   -4.7095   -1.0231    0.3896 O   0  0  0  0  0  0  0  0  0  0  0  0
    1.5376    3.7068    0.8084 O   0  0  0  0  0  0  0  0  0  0  0  0
   -5.2050    1.6137   -2.0907 O   0  0  0  0  0  0  0  0  0  0  0  0
   -7.8493    0.3306   -1.8856 O   0  0  0  0  0  0  0  0  0  0  0  0
   -8.3213   -0.5892    0.8138 O   0  0  0  0  0  0  0  0  0  0  0  0
   -4.9884   -2.2195    2.8485 O   0  0  0  0  0  0  0  0  0  0  0  0
    2.7753    1.7432    0.8251 N   0  0  0  0  0  0  0  0  0  0  0  0
    4.5571   -1.5087    0.2532 N   0  0  0  0  0  0  0  0  0  0  0  0
    0.3640    0.2033    0.3604 C   0  0  2  0  0  0  0  0  0  0  0  0
    2.8083    0.2536    0.8179 C   0  0  1  0  0  0  0  0  0  0  0  0
    1.7261   -0.3193   -0.0955 C   0  0  0  0  0  0  0  0  0  0  0  0
   -0.7902   -0.3473   -0.5080 C   0  0  2  0  0  0  0  0  0  0  0  0
    0.3652    1.7023    0.3421 C   0  0  0  0  0  0  0  0  0  0  0  0
    4.1741   -0.2044    0.4058 C   0  0  0  0  0  0  0  0  0  0  0  0
    4.0212    2.4508    1.1960 C   0  0  0  0  0  0  0  0  0  0  0  0
   -2.0778    0.4472   -0.2125 C   0  0  1  0  0  0  0  0  0  0  0  0
    5.2715    0.5937    0.1578 C   0  0  0  0  0  0  0  0  0  0  0  0
    1.5967    2.4825    0.6837 C   0  0  0  0  0  0  0  0  0  0  0  0
    5.1903    2.0721    0.2743 C   0  0  0  0  0  0  0  0  0  0  0  0
   -0.7216    2.3892   -0.0401 C   0  0  0  0  0  0  0  0  0  0  0  0
    6.3570   -0.2544   -0.1921 C   0  0  0  0  0  0  0  0  0  0  0  0
   -1.0029   -1.8154   -0.2737 C   0  0  0  0  0  0  0  0  0  0  0  0
   -4.4099    0.1428   -0.3745 C   0  0  2  0  0  0  0  0  0  0  0  0
    5.8813   -1.5679   -0.1255 C   0  0  0  0  0  0  0  0  0  0  0  0
   -5.4747    0.3681   -1.4480 C   0  0  1  0  0  0  0  0  0  0  0  0
   -6.8774    0.4033   -0.8413 C   0  0  2  0  0  0  0  0  0  0  0  0
   -7.1036   -0.7811    0.0986 C   0  0  1  0  0  0  0  0  0  0  0  0
   -5.9481   -0.9137    1.0933 C   0  0  1  0  0  0  0  0  0  0  0  0
    7.7015   -0.0388   -0.5556 C   0  0  0  0  0  0  0  0  0  0  0  0
    6.6875   -2.6766   -0.4073 C   0  0  0  0  0  0  0  0  0  0  0  0
   -0.8986   -2.7481   -1.2264 C   0  0  0  0  0  0  0  0  0  0  0  0
   -6.0931   -2.1571    1.9649 C   0  0  0  0  0  0  0  0  0  0  0  0
    8.5177   -1.1391   -0.8413 C   0  0  0  0  0  0  0  0  0  0  0  0
    8.0165   -2.4369   -0.7674 C   0  0  0  0  0  0  0  0  0  0  0  0
    0.2038   -0.1088    1.4033 H   0  0  0  0  0  0  0  0  0  0  0  0
    2.6314   -0.0593    1.8554 H   0  0  0  0  0  0  0  0  0  0  0  0
    1.9151   -0.0358   -1.1405 H   0  0  0  0  0  0  0  0  0  0  0  0
    1.7455   -1.4148   -0.0557 H   0  0  0  0  0  0  0  0  0  0  0  0
   -0.5396   -0.1841   -1.5672 H   0  0  0  0  0  0  0  0  0  0  0  0
    4.2425    2.1740    2.2347 H   0  0  0  0  0  0  0  0  0  0  0  0
    3.8762    3.5355    1.1730 H   0  0  0  0  0  0  0  0  0  0  0  0
   -2.3322    0.2951    0.8481 H   0  0  0  0  0  0  0  0  0  0  0  0
    6.1233    2.4872    0.6699 H   0  0  0  0  0  0  0  0  0  0  0  0
    5.0275    2.4978   -0.7231 H   0  0  0  0  0  0  0  0  0  0  0  0
   -0.7703    3.4671   -0.1236 H   0  0  0  0  0  0  0  0  0  0  0  0
    3.9597   -2.3127    0.3881 H   0  0  0  0  0  0  0  0  0  0  0  0
   -1.2615   -2.1327    0.7338 H   0  0  0  0  0  0  0  0  0  0  0  0
   -4.3741    1.0201    0.2875 H   0  0  0  0  0  0  0  0  0  0  0  0
   -5.4098   -0.4070   -2.2209 H   0  0  0  0  0  0  0  0  0  0  0  0
   -7.0566    1.3528   -0.3234 H   0  0  0  0  0  0  0  0  0  0  0  0
   -7.2106   -1.7018   -0.4880 H   0  0  0  0  0  0  0  0  0  0  0  0
   -5.8961   -0.0394    1.7565 H   0  0  0  0  0  0  0  0  0  0  0  0
    8.1069    0.9671   -0.6166 H   0  0  0  0  0  0  0  0  0  0  0  0
    6.2991   -3.6879   -0.3489 H   0  0  0  0  0  0  0  0  0  0  0  0
   -7.0140   -2.1289    2.5551 H   0  0  0  0  0  0  0  0  0  0  0  0
   -6.0823   -3.0655    1.3534 H   0  0  0  0  0  0  0  0  0  0  0  0
   -1.0671   -3.7934   -0.9919 H   0  0  0  0  0  0  0  0  0  0  0  0
   -0.6455   -2.4900   -2.2486 H   0  0  0  0  0  0  0  0  0  0  0  0
    9.5548   -0.9777   -1.1230 H   0  0  0  0  0  0  0  0  0  0  0  0
   -5.2569    2.3166   -1.4206 H   0  0  0  0  0  0  0  0  0  0  0  0
    8.6683   -3.2772   -0.9926 H   0  0  0  0  0  0  0  0  0  0  0  0
   -7.7046   -0.4962   -2.3765 H   0  0  0  0  0  0  0  0  0  0  0  0
   -8.2316    0.2182    1.3484 H   0  0  0  0  0  0  0  0  0  0  0  0
   -5.0985   -3.0197    3.3897 H   0  0  0  0  0  0  0  0  0  0  0  0
  1 18  1  0  0  0  0
  1 22  1  0  0  0  0
  2 18  1  0  0  0  0
  2 25  1  0  0  0  0
  3 25  1  0  0  0  0
  3 30  1  0  0  0  0
  4 20  2  0  0  0  0
  5 27  1  0  0  0  0
  5 62  1  0  0  0  0
  6 28  1  0  0  0  0
  6 64  1  0  0  0  0
  7 29  1  0  0  0  0
  7 65  1  0  0  0  0
  8 34  1  0  0  0  0
  8 66  1  0  0  0  0
  9 12  1  0  0  0  0
  9 17  1  0  0  0  0
  9 20  1  0  0  0  0
 10 16  1  0  0  0  0
 10 26  1  0  0  0  0
 10 48  1  0  0  0  0
 11 13  1  0  0  0  0
 11 14  1  0  0  0  0
 11 15  1  0  0  0  0
 11 37  1  0  0  0  0
 12 13  1  0  0  0  0
 12 16  1  0  0  0  0
 12 38  1  0  0  0  0
 13 39  1  0  0  0  0
 13 40  1  0  0  0  0
 14 18  1  0  0  0  0
 14 24  1  0  0  0  0
 14 41  1  0  0  0  0
 15 20  1  0  0  0  0
 15 22  2  0  0  0  0
 16 19  2  0  0  0  0
 17 21  1  0  0  0  0
 17 42  1  0  0  0  0
 17 43  1  0  0  0  0
 18 44  1  0  0  0  0
 19 21  1  0  0  0  0
 19 23  1  0  0  0  0
 21 45  1  0  0  0  0
 21 46  1  0  0  0  0
 22 47  1  0  0  0  0
 23 26  1  0  0  0  0
 23 31  2  0  0  0  0
 24 33  2  0  0  0  0
 24 49  1  0  0  0  0
 25 27  1  0  0  0  0
 25 50  1  0  0  0  0
 26 32  2  0  0  0  0
 27 28  1  0  0  0  0
 27 51  1  0  0  0  0
 28 29  1  0  0  0  0
 28 52  1  0  0  0  0
 29 30  1  0  0  0  0
 29 53  1  0  0  0  0
 30 34  1  0  0  0  0
 30 54  1  0  0  0  0
 31 35  1  0  0  0  0
 31 55  1  0  0  0  0
 32 36  1  0  0  0  0
 32 56  1  0  0  0  0
 33 59  1  0  0  0  0
 33 60  1  0  0  0  0
 34 57  1  0  0  0  0
 34 58  1  0  0  0  0
 35 36  2  0  0  0  0
 35 61  1  0  0  0  0
 36 63  1  0  0  0  0
M  END
> <PUBCHEM_COMPOUND_CID>
102271368

> <PUBCHEM_CONFORMER_RMSD>
1

> <PUBCHEM_CONFORMER_DIVERSEORDER>
1
4
18
21
10
3
31
6
25
28
22
24
19
2
12
30
11
16
29
13
9
27
26
7
23
14
20
5
17
8
15

> <PUBCHEM_MMFF94_PARTIAL_CHARGES>
47
1 -0.36
10 0.03
11 0.14
12 0.48
14 0.14
15 -0.12
16 -0.33
17 0.3
18 0.56
19 -0.18
2 -0.56
20 0.62
21 0.18
22 -0.07
24 -0.29
25 0.56
26 -0.15
27 0.28
28 0.28
29 0.28
3 -0.56
30 0.28
31 -0.15
32 -0.15
33 -0.3
34 0.28
35 -0.15
36 -0.15
4 -0.57
47 0.15
48 0.27
49 0.15
5 -0.68
55 0.15
56 0.15
59 0.15
6 -0.68
60 0.15
61 0.15
62 0.4
63 0.15
64 0.4
65 0.4
66 0.4
7 -0.68
8 -0.68
9 -0.66

> <PUBCHEM_EFFECTIVE_ROTOR_COUNT>
6.4

> <PUBCHEM_PHARMACOPHORE_FEATURES>
21
1 1 acceptor
1 10 cation
1 10 donor
1 2 acceptor
1 3 acceptor
1 33 hydrophobe
1 4 acceptor
1 5 acceptor
1 5 donor
1 6 acceptor
1 6 donor
1 7 acceptor
1 7 donor
1 8 acceptor
1 8 donor
5 10 16 19 23 26 rings
6 1 11 14 15 18 22 rings
6 23 26 31 32 35 36 rings
6 3 25 27 28 29 30 rings
6 9 11 12 13 15 20 rings
6 9 12 16 17 19 21 rings

> <PUBCHEM_HEAVY_ATOM_COUNT>
36

> <PUBCHEM_ATOM_DEF_STEREO_COUNT>
8

> <PUBCHEM_ATOM_UDEF_STEREO_COUNT>
1

> <PUBCHEM_BOND_DEF_STEREO_COUNT>
0

> <PUBCHEM_BOND_UDEF_STEREO_COUNT>
0

> <PUBCHEM_ISOTOPIC_ATOM_COUNT>
0

> <PUBCHEM_COMPONENT_COUNT>
1

> <PUBCHEM_CACTVS_TAUTO_COUNT>
69

> <PUBCHEM_CONFORMER_ID>
0618898800000001

> <PUBCHEM_MMFF94_ENERGY>
88.3603

> <PUBCHEM_FEATURE_SELFOVERLAP>
106.913

> <PUBCHEM_SHAPE_FINGERPRINT>
10076449 9 18334582334261872148
10258705 36 18260840327329947755
10299344 5 17775566433740226422
10653451 467 18410016533200027759
10864689 126 18259980462033746387
11211813 89 18410013243370649038
117089 54 17983300327284825822
12522641 24 16845280693095155784
12592606 108 18131345328193118615
13673619 4 18202280282505250048
13782708 43 18187644764621020067
13811026 1 18410568487598619505
14117953 113 17917994962895854102
14202776 33 14779533570719141287
14955137 171 18335423516930000373
150020 25 18186237320674981646
15064986 266 18340214003514666736
15131766 46 13540454438292339658
15183329 4 17775284980011485982
15274700 21 17821730584774349859
15352257 5 18186522120077971739
15400415 2 17334202928762392008
15419008 47 18187358822673126309
15849732 13 18113617884969967462
16090146 7 16878523240779142208
16628084 112 18194113019961078318
18608769 82 18186524336465992010
19315958 150 18271238447695898216
20105231 36 18334298669037197723
21267235 1 18342740698319888300
21315759 40 16988839497399483327
21781051 124 18334587870575456830
21792961 116 18335701599035346030
21792965 169 18339379487411197356
221357 26 18412539887095530252
22223350 30 17559097998662605387
23522609 53 17416704615715420745
23559900 14 18200300135183317592
23569917 315 17917426588420473879
23569943 247 17845929632852114734
23576562 1 18189042257043210957
24771750 20 17538294221449470348
249057 3 18343862238951048342
25269216 80 15936699241722092987
3004659 81 18335977602513741948
3178227 256 18412831300183394011
335352 9 18343860030847059630
3383291 50 18342452630268347778
4149490 64 17675919890635291162
437795 51 18259703402109543898
439807 62 18409169888066423124
444769 64 18131349704922996703
4461854 278 17489587853735643758
46194498 28 17895188944321060732
484989 97 18334019406310873242
49967989 163 16081664386472080211
54039377 194 18272656702300830838
5470011 282 18113061532798228854
58083652 198 17989204862795137305
9896288 288 17415854495922294537
9962374 69 17988065773591906262
999808 66 18408330981515574219

> <PUBCHEM_SHAPE_MULTIPOLES>
683.95
25.34
3.09
1.45
3.7
0.85
-0.33
-13.55
3.2
-3.24
-0.58
3.34
-0.45
3.67

> <PUBCHEM_SHAPE_SELFOVERLAP>
1498.048

> <PUBCHEM_SHAPE_VOLUME>
361.8

> <PUBCHEM_COORDINATE_TYPE>
2
5
10

$$$$
