5281974
  -OEChem-11222001313D

 47 52  0     1  0  0  0  0  0999 V2000
   -0.3184    2.2124   -0.1997 O   0  0  0  0  0  0  0  0  0  0  0  0
    1.5022    3.0600    0.9422 O   0  0  0  0  0  0  0  0  0  0  0  0
    1.3317   -1.8546   -1.0604 N   0  0  2  0  0  0  0  0  0  0  0  0
   -1.7585   -2.0937    0.7437 N   0  0  0  0  0  0  0  0  0  0  0  0
    1.3927    0.5280   -0.2984 C   0  0  1  0  0  0  0  0  0  0  0  0
    1.0863   -0.4429   -1.4996 C   0  0  2  0  0  0  0  0  0  0  0  0
   -0.9330   -0.1416   -0.3867 C   0  0  1  0  0  0  0  0  0  0  0  0
   -0.0077    0.8992    0.2631 C   0  0  2  0  0  0  0  0  0  0  0  0
    2.2846   -0.2214    0.7372 C   0  0  1  0  0  0  0  0  0  0  0  0
   -0.4054   -0.2647   -1.8029 C   0  0  0  0  0  0  0  0  0  0  0  0
    0.7021   -2.0898    0.2822 C   0  0  2  0  0  0  0  0  0  0  0  0
   -0.6978   -1.5221    0.2495 C   0  0  0  0  0  0  0  0  0  0  0  0
    1.4871   -1.3661    1.3962 C   0  0  0  0  0  0  0  0  0  0  0  0
    2.8122   -2.0088   -0.9392 C   0  0  0  0  0  0  0  0  0  0  0  0
    3.3797   -0.9237   -0.0437 C   0  0  0  0  0  0  0  0  0  0  0  0
   -2.4003   -0.0399   -0.1845 C   0  0  0  0  0  0  0  0  0  0  0  0
   -2.8191   -1.2014    0.4839 C   0  0  0  0  0  0  0  0  0  0  0  0
    4.6799   -0.6166    0.0282 C   0  0  0  0  0  0  0  0  0  0  0  0
   -3.2988    0.9458   -0.5469 C   0  0  0  0  0  0  0  0  0  0  0  0
   -4.1512   -1.3906    0.8117 C   0  0  0  0  0  0  0  0  0  0  0  0
    0.5249    3.2010    0.2197 C   0  0  0  0  0  0  0  0  0  0  0  0
   -4.6435    0.7607   -0.2190 C   0  0  0  0  0  0  0  0  0  0  0  0
    5.2377    0.4504    0.9087 C   0  0  0  0  0  0  0  0  0  0  0  0
   -5.0661   -0.3968    0.4560 C   0  0  0  0  0  0  0  0  0  0  0  0
    0.0787    4.5174   -0.3411 C   0  0  0  0  0  0  0  0  0  0  0  0
    1.9527    1.3738   -0.7128 H   0  0  0  0  0  0  0  0  0  0  0  0
    1.6779   -0.2064   -2.3923 H   0  0  0  0  0  0  0  0  0  0  0  0
   -0.0666    0.8959    1.3573 H   0  0  0  0  0  0  0  0  0  0  0  0
    2.6449    0.4571    1.5135 H   0  0  0  0  0  0  0  0  0  0  0  0
   -0.5859    0.6468   -2.3850 H   0  0  0  0  0  0  0  0  0  0  0  0
   -0.8231   -1.1092   -2.3641 H   0  0  0  0  0  0  0  0  0  0  0  0
    0.6406   -3.1636    0.4907 H   0  0  0  0  0  0  0  0  0  0  0  0
    2.1702   -2.0682    1.8933 H   0  0  0  0  0  0  0  0  0  0  0  0
    0.8221   -0.9804    2.1777 H   0  0  0  0  0  0  0  0  0  0  0  0
    3.2631   -1.9587   -1.9378 H   0  0  0  0  0  0  0  0  0  0  0  0
    3.0416   -3.0005   -0.5305 H   0  0  0  0  0  0  0  0  0  0  0  0
    5.3918   -1.1841   -0.5657 H   0  0  0  0  0  0  0  0  0  0  0  0
   -2.9781    1.8389   -1.0715 H   0  0  0  0  0  0  0  0  0  0  0  0
   -4.4823   -2.2854    1.3276 H   0  0  0  0  0  0  0  0  0  0  0  0
   -5.3732    1.5193   -0.4894 H   0  0  0  0  0  0  0  0  0  0  0  0
    5.5601    0.0257    1.8639 H   0  0  0  0  0  0  0  0  0  0  0  0
    4.5449    1.2750    1.0923 H   0  0  0  0  0  0  0  0  0  0  0  0
    6.1167    0.8901    0.4248 H   0  0  0  0  0  0  0  0  0  0  0  0
   -6.1178   -0.5204    0.7005 H   0  0  0  0  0  0  0  0  0  0  0  0
   -0.9305    4.7465    0.0100 H   0  0  0  0  0  0  0  0  0  0  0  0
    0.1084    4.4834   -1.4330 H   0  0  0  0  0  0  0  0  0  0  0  0
    0.7547    5.3058    0.0021 H   0  0  0  0  0  0  0  0  0  0  0  0
  1  8  1  0  0  0  0
  1 21  1  0  0  0  0
  2 21  2  0  0  0  0
  3  6  1  0  0  0  0
  3 11  1  0  0  0  0
  3 14  1  0  0  0  0
  4 12  2  0  0  0  0
  4 17  1  0  0  0  0
  5  6  1  0  0  0  0
  5  8  1  0  0  0  0
  5  9  1  0  0  0  0
  5 26  1  0  0  0  0
  6 10  1  0  0  0  0
  6 27  1  0  0  0  0
  7  8  1  0  0  0  0
  7 10  1  0  0  0  0
  7 12  1  0  0  0  0
  7 16  1  0  0  0  0
  8 28  1  0  0  0  0
  9 13  1  0  0  0  0
  9 15  1  0  0  0  0
  9 29  1  0  0  0  0
 10 30  1  0  0  0  0
 10 31  1  0  0  0  0
 11 12  1  0  0  0  0
 11 13  1  0  0  0  0
 11 32  1  0  0  0  0
 13 33  1  0  0  0  0
 13 34  1  0  0  0  0
 14 15  1  0  0  0  0
 14 35  1  0  0  0  0
 14 36  1  0  0  0  0
 15 18  2  0  0  0  0
 16 17  1  0  0  0  0
 16 19  2  0  0  0  0
 17 20  2  0  0  0  0
 18 23  1  0  0  0  0
 18 37  1  0  0  0  0
 19 22  1  0  0  0  0
 19 38  1  0  0  0  0
 20 24  1  0  0  0  0
 20 39  1  0  0  0  0
 21 25  1  0  0  0  0
 22 24  2  0  0  0  0
 22 40  1  0  0  0  0
 23 41  1  0  0  0  0
 23 42  1  0  0  0  0
 23 43  1  0  0  0  0
 24 44  1  0  0  0  0
 25 45  1  0  0  0  0
 25 46  1  0  0  0  0
 25 47  1  0  0  0  0
M  END
> <PUBCHEM_COMPOUND_CID>
5281974

> <PUBCHEM_CONFORMER_RMSD>
0.6

> <PUBCHEM_CONFORMER_DIVERSEORDER>
1

> <PUBCHEM_MMFF94_PARTIAL_CHARGES>
27
1 -0.43
11 0.33
12 0.33
14 0.41
15 -0.28
16 -0.14
17 0.18
18 -0.29
19 -0.15
2 -0.57
20 -0.15
21 0.66
22 -0.15
23 0.14
24 -0.15
25 0.06
3 -0.81
37 0.15
38 0.15
39 0.15
4 -0.63
40 0.15
44 0.15
6 0.27
7 0.2
8 0.28
9 0.14

> <PUBCHEM_EFFECTIVE_ROTOR_COUNT>
2.8

> <PUBCHEM_PHARMACOPHORE_FEATURES>
8
1 2 acceptor
1 23 hydrophobe
1 3 cation
1 4 acceptor
10 3 5 6 7 8 9 10 11 12 13 rings
5 4 7 12 16 17 rings
6 16 17 19 20 22 24 rings
8 3 5 6 9 11 13 14 15 rings

> <PUBCHEM_HEAVY_ATOM_COUNT>
25

> <PUBCHEM_ATOM_DEF_STEREO_COUNT>
5

> <PUBCHEM_ATOM_UDEF_STEREO_COUNT>
1

> <PUBCHEM_BOND_DEF_STEREO_COUNT>
1

> <PUBCHEM_BOND_UDEF_STEREO_COUNT>
0

> <PUBCHEM_ISOTOPIC_ATOM_COUNT>
0

> <PUBCHEM_COMPONENT_COUNT>
1

> <PUBCHEM_CACTVS_TAUTO_COUNT>
1

> <PUBCHEM_CONFORMER_ID>
005098B600000001

> <PUBCHEM_MMFF94_ENERGY>
91.3246

> <PUBCHEM_FEATURE_SELFOVERLAP>
42.845

> <PUBCHEM_SHAPE_FINGERPRINT>
10675989 125 16820220292519196157
10863032 1 18189060956887704998
10906281 52 18340505394858570936
10948715 1 17692257751773766281
1100329 8 18336264664393520498
11578080 2 17169523355245656325
12011746 2 18412259519339258135
12035758 1 18410291445065075777
12236239 1 16877946022738965954
12403259 226 18333732446845424831
12422481 6 17980446222526359624
12633257 1 18261945357815430203
12788726 201 18264769848832231352
13132413 78 18410292501785447965
13140716 1 18119258504602004907
14223421 5 18195525879216648662
14787075 74 18187649149729777430
14790565 3 18339929328539777528
14866123 147 16968864364610127275
14955137 171 18271250511994586612
15081414 286 18341907259209081472
15238133 3 18335433326508528685
1601671 61 18343023285096977880
16945 1 17203334403094231174
17804303 29 18259707822020820003
18785283 64 18192720170218803481
20510252 161 18192991517509376524
20600515 1 18271823305934065497
21033648 29 17632002075383788867
21524375 3 17408250621491534037
22182313 1 17629754566632796102
229495 10 17273124683943983078
23175994 123 18411706460853840047
23402539 116 18343013385113302391
23419403 2 17970606692288208116
23557571 272 18337398119575150318
23558518 356 17830465981344149130
23559900 14 18410013260012201198
296302 2 18131631170945912007
3298306 158 17905339768396008228
34934 24 18411694361809920751
350125 39 18192719062491631651
392239 28 18335419054321401624
5104073 3 18263364694209588699
5939293 188 18410853295681175881
7226269 152 18260546689046785328
7364860 26 18267590285019960465
81228 2 17980784656673065713

> <PUBCHEM_SHAPE_MULTIPOLES>
492.79
7.95
3.41
1.18
1.72
4.98
0.25
-2.07
-1.72
-0.59
-0.24
-0.35
-0.27
0.93

> <PUBCHEM_SHAPE_SELFOVERLAP>
1126.428

> <PUBCHEM_SHAPE_VOLUME>
257.2

> <PUBCHEM_COORDINATE_TYPE>
2
5
10

$$$$
