73532
  -OEChem-11222000303D

 60 64  0     1  0  0  0  0  0999 V2000
   -5.2002    1.4847   -0.0908 O   0  0  0  0  0  0  0  0  0  0  0  0
   -5.7149   -1.2788    0.3633 O   0  0  0  0  0  0  0  0  0  0  0  0
   -1.2618    2.7644   -0.3720 O   0  0  0  0  0  0  0  0  0  0  0  0
   -2.9882    2.8736    1.1592 O   0  0  0  0  0  0  0  0  0  0  0  0
    6.2435    1.8947   -0.4356 O   0  0  0  0  0  0  0  0  0  0  0  0
   -0.5740   -2.6215    0.4933 N   0  0  1  0  0  0  0  0  0  0  0  0
    1.8226    0.2553    0.8645 N   0  0  0  0  0  0  0  0  0  0  0  0
   -1.7113   -0.0117   -0.3185 C   0  0  2  0  0  0  0  0  0  0  0  0
   -2.1766   -1.3381   -0.9503 C   0  0  1  0  0  0  0  0  0  0  0  0
   -1.1935   -0.2671    1.1111 C   0  0  0  0  0  0  0  0  0  0  0  0
   -2.8424    1.0358   -0.3950 C   0  0  1  0  0  0  0  0  0  0  0  0
   -0.1321   -1.3779    1.1835 C   0  0  2  0  0  0  0  0  0  0  0  0
   -1.0563   -2.3862   -0.8764 C   0  0  0  0  0  0  0  0  0  0  0  0
   -3.4786   -1.8478   -0.3134 C   0  0  0  0  0  0  0  0  0  0  0  0
   -4.1619    0.5474    0.2157 C   0  0  2  0  0  0  0  0  0  0  0  0
   -4.5885   -0.8007   -0.3727 C   0  0  2  0  0  0  0  0  0  0  0  0
    1.2369   -0.9701    0.7179 C   0  0  0  0  0  0  0  0  0  0  0  0
    0.4936   -3.6520    0.5170 C   0  0  0  0  0  0  0  0  0  0  0  0
    2.1508   -1.8159    0.1222 C   0  0  0  0  0  0  0  0  0  0  0  0
    1.8171   -3.2382   -0.1737 C   0  0  0  0  0  0  0  0  0  0  0  0
   -2.3991    2.3245    0.2380 C   0  0  0  0  0  0  0  0  0  0  0  0
    3.3308   -1.0667   -0.1335 C   0  0  0  0  0  0  0  0  0  0  0  0
    3.0983    0.2285    0.3409 C   0  0  0  0  0  0  0  0  0  0  0  0
   -5.3693    1.6200   -1.4915 C   0  0  0  0  0  0  0  0  0  0  0  0
    4.5775   -1.3589   -0.7222 C   0  0  0  0  0  0  0  0  0  0  0  0
    4.0564    1.2452    0.2557 C   0  0  0  0  0  0  0  0  0  0  0  0
    5.5433   -0.3504   -0.8147 C   0  0  0  0  0  0  0  0  0  0  0  0
    5.2845    0.9309   -0.3327 C   0  0  0  0  0  0  0  0  0  0  0  0
   -0.7271    3.9911    0.1353 C   0  0  0  0  0  0  0  0  0  0  0  0
    5.9204    3.1859    0.0754 C   0  0  0  0  0  0  0  0  0  0  0  0
   -0.8615    0.3538   -0.9123 H   0  0  0  0  0  0  0  0  0  0  0  0
   -2.3823   -1.1542   -2.0143 H   0  0  0  0  0  0  0  0  0  0  0  0
   -2.0305   -0.5550    1.7597 H   0  0  0  0  0  0  0  0  0  0  0  0
   -0.7975    0.6591    1.5425 H   0  0  0  0  0  0  0  0  0  0  0  0
   -2.9553    1.2814   -1.4558 H   0  0  0  0  0  0  0  0  0  0  0  0
   -0.0250   -1.6273    2.2492 H   0  0  0  0  0  0  0  0  0  0  0  0
   -1.4326   -3.3292   -1.2930 H   0  0  0  0  0  0  0  0  0  0  0  0
   -0.2432   -2.0587   -1.5360 H   0  0  0  0  0  0  0  0  0  0  0  0
   -3.8164   -2.7575   -0.8273 H   0  0  0  0  0  0  0  0  0  0  0  0
   -3.3234   -2.1557    0.7282 H   0  0  0  0  0  0  0  0  0  0  0  0
   -4.1083    0.4884    1.3089 H   0  0  0  0  0  0  0  0  0  0  0  0
   -4.9212   -0.7625   -1.4117 H   0  0  0  0  0  0  0  0  0  0  0  0
    0.1261   -4.5859    0.0742 H   0  0  0  0  0  0  0  0  0  0  0  0
    0.7043   -3.8927    1.5680 H   0  0  0  0  0  0  0  0  0  0  0  0
    1.7243   -3.3638   -1.2591 H   0  0  0  0  0  0  0  0  0  0  0  0
    2.6251   -3.8963    0.1652 H   0  0  0  0  0  0  0  0  0  0  0  0
    1.3939    1.0662    1.2888 H   0  0  0  0  0  0  0  0  0  0  0  0
   -6.4136   -0.6057    0.2959 H   0  0  0  0  0  0  0  0  0  0  0  0
   -4.7499    1.0273   -2.1673 H   0  0  0  0  0  0  0  0  0  0  0  0
   -5.2117    2.6742   -1.7427 H   0  0  0  0  0  0  0  0  0  0  0  0
   -6.4161    1.3955   -1.7217 H   0  0  0  0  0  0  0  0  0  0  0  0
    4.7936   -2.3533   -1.1022 H   0  0  0  0  0  0  0  0  0  0  0  0
    3.7966    2.2204    0.6482 H   0  0  0  0  0  0  0  0  0  0  0  0
    6.5045   -0.5774   -1.2694 H   0  0  0  0  0  0  0  0  0  0  0  0
   -0.4542    3.8770    1.1888 H   0  0  0  0  0  0  0  0  0  0  0  0
   -1.4511    4.8016    0.0081 H   0  0  0  0  0  0  0  0  0  0  0  0
    0.1735    4.2312   -0.4361 H   0  0  0  0  0  0  0  0  0  0  0  0
    5.7440    3.1598    1.1561 H   0  0  0  0  0  0  0  0  0  0  0  0
    5.0868    3.6395   -0.4717 H   0  0  0  0  0  0  0  0  0  0  0  0
    6.7938    3.8256   -0.0887 H   0  0  0  0  0  0  0  0  0  0  0  0
  1 15  1  0  0  0  0
  1 24  1  0  0  0  0
  2 16  1  0  0  0  0
  2 48  1  0  0  0  0
  3 21  1  0  0  0  0
  3 29  1  0  0  0  0
  4 21  2  0  0  0  0
  5 28  1  0  0  0  0
  5 30  1  0  0  0  0
  6 12  1  0  0  0  0
  6 13  1  0  0  0  0
  6 18  1  0  0  0  0
  7 17  1  0  0  0  0
  7 23  1  0  0  0  0
  7 47  1  0  0  0  0
  8  9  1  0  0  0  0
  8 10  1  0  0  0  0
  8 11  1  0  0  0  0
  8 31  1  0  0  0  0
  9 13  1  0  0  0  0
  9 14  1  0  0  0  0
  9 32  1  0  0  0  0
 10 12  1  0  0  0  0
 10 33  1  0  0  0  0
 10 34  1  0  0  0  0
 11 15  1  0  0  0  0
 11 21  1  0  0  0  0
 11 35  1  0  0  0  0
 12 17  1  0  0  0  0
 12 36  1  0  0  0  0
 13 37  1  0  0  0  0
 13 38  1  0  0  0  0
 14 16  1  0  0  0  0
 14 39  1  0  0  0  0
 14 40  1  0  0  0  0
 15 16  1  0  0  0  0
 15 41  1  0  0  0  0
 16 42  1  0  0  0  0
 17 19  2  0  0  0  0
 18 20  1  0  0  0  0
 18 43  1  0  0  0  0
 18 44  1  0  0  0  0
 19 20  1  0  0  0  0
 19 22  1  0  0  0  0
 20 45  1  0  0  0  0
 20 46  1  0  0  0  0
 22 23  2  0  0  0  0
 22 25  1  0  0  0  0
 23 26  1  0  0  0  0
 24 49  1  0  0  0  0
 24 50  1  0  0  0  0
 24 51  1  0  0  0  0
 25 27  2  0  0  0  0
 25 52  1  0  0  0  0
 26 28  2  0  0  0  0
 26 53  1  0  0  0  0
 27 28  1  0  0  0  0
 27 54  1  0  0  0  0
 29 55  1  0  0  0  0
 29 56  1  0  0  0  0
 29 57  1  0  0  0  0
 30 58  1  0  0  0  0
 30 59  1  0  0  0  0
 30 60  1  0  0  0  0
M  END
> <PUBCHEM_COMPOUND_CID>
73532

> <PUBCHEM_CONFORMER_RMSD>
0.8

> <PUBCHEM_CONFORMER_DIVERSEORDER>
1
5
8
9
7
4
6
3
2

> <PUBCHEM_MMFF94_PARTIAL_CHARGES>
30
1 -0.56
11 0.06
12 0.45
13 0.27
15 0.28
16 0.28
17 -0.33
18 0.27
19 -0.18
2 -0.68
20 0.18
21 0.66
23 -0.15
24 0.28
25 -0.15
26 -0.15
27 -0.15
28 0.08
29 0.28
3 -0.43
30 0.28
4 -0.57
47 0.27
48 0.4
5 -0.36
52 0.15
53 0.15
54 0.15
6 -0.81
7 0.03

> <PUBCHEM_EFFECTIVE_ROTOR_COUNT>
5.6

> <PUBCHEM_PHARMACOPHORE_FEATURES>
13
1 1 acceptor
1 2 acceptor
1 2 donor
1 4 acceptor
1 5 acceptor
1 6 cation
1 7 cation
1 7 donor
5 7 17 19 22 23 rings
6 22 23 25 26 27 28 rings
6 6 12 17 18 19 20 rings
6 6 8 9 10 12 13 rings
6 8 9 11 14 15 16 rings

> <PUBCHEM_HEAVY_ATOM_COUNT>
30

> <PUBCHEM_ATOM_DEF_STEREO_COUNT>
6

> <PUBCHEM_ATOM_UDEF_STEREO_COUNT>
0

> <PUBCHEM_BOND_DEF_STEREO_COUNT>
0

> <PUBCHEM_BOND_UDEF_STEREO_COUNT>
0

> <PUBCHEM_ISOTOPIC_ATOM_COUNT>
0

> <PUBCHEM_COMPONENT_COUNT>
1

> <PUBCHEM_CACTVS_TAUTO_COUNT>
1

> <PUBCHEM_CONFORMER_ID>
00011F3C00000001

> <PUBCHEM_MMFF94_ENERGY>
92.849

> <PUBCHEM_FEATURE_SELFOVERLAP>
66.282

> <PUBCHEM_SHAPE_FINGERPRINT>
10411042 1 17328585532176765794
10498660 4 18336823109084399701
10670039 82 18335991883116309020
1100329 8 18121782987393450119
11578080 2 15122411822524058137
12730499 353 18335710398790612482
13402501 40 18339922722848109536
14394314 77 18411426115744646449
14787075 74 18186802508939568267
14790565 3 18411422790953961104
14955137 171 18339370789780851003
15183329 4 18269280076005940542
15320467 1 18194683898287289348
15575132 122 18186517683397971061
15927050 60 17403181885993525575
18608769 82 18267025153107647739
19611394 137 17970360427738798587
20642791 178 18114755935703644373
21857420 4 15688374724713652990
221357 26 18201720656597565526
22393880 68 18270122288858882526
23559900 14 18273206530343341672
2747138 104 18042139798443478667
2838139 119 18262228933031064006
350125 39 18267019462180794426
46194498 28 18130797703004730630
469060 322 16732979851322841671
474 4 17968104079216759230
6287921 2 18191036603188990836
6371009 1 18337940191866625392
7288768 16 17967531298241602570
7808743 9 18337386158017566018
9981440 41 18261110811595474538

> <PUBCHEM_SHAPE_MULTIPOLES>
578.08
12.91
4.31
1
6.88
1.38
-0.02
7.55
-3.15
0.58
0.26
-0.39
-0.04
0.11

> <PUBCHEM_SHAPE_SELFOVERLAP>
1261.414

> <PUBCHEM_SHAPE_VOLUME>
310

> <PUBCHEM_COORDINATE_TYPE>
2
5
10

$$$$
