589111
  -OEChem-11212023482D

 48 53  0     1  0  0  0  0  0999 V2000
    7.6812    0.5618    0.0000 O   0  0  0  0  0  0  0  0  0  0  0  0
    3.8076    2.1496    0.0000 O   0  0  0  0  0  0  0  0  0  0  0  0
    6.1798   -0.0045    0.0000 N   0  0  3  0  0  0  0  0  0  0  0  0
    4.0899   -0.9600    0.0000 N   0  0  3  0  0  0  0  0  0  0  0  0
    4.5153    0.3493    0.0000 C   0  0  3  0  0  0  0  0  0  0  0  0
    5.9169    0.8047    0.0000 C   0  0  3  0  0  0  0  0  0  0  0  0
    6.4862    1.4370    0.0000 C   0  0  3  0  0  0  0  0  0  0  0  0
    5.6105   -0.6368    0.0000 C   0  0  3  0  0  0  0  0  0  0  0  0
    6.7056   -1.6229    0.0000 C   0  0  3  0  0  0  0  0  0  0  0  0
    4.7782   -0.4599    0.0000 C   0  0  3  0  0  0  0  0  0  0  0  0
    5.0846    0.9816    0.0000 C   0  0  0  0  0  0  0  0  0  0  0  0
    5.8734   -1.4460    0.0000 C   0  0  0  0  0  0  0  0  0  0  0  0
    7.2750   -0.9906    0.0000 C   0  0  3  0  0  0  0  0  0  0  0  0
    4.5142    1.4419    0.0000 C   0  0  0  0  0  0  0  0  0  0  0  0
    7.0121   -0.1814    0.0000 C   0  0  3  0  0  0  0  0  0  0  0  0
    3.6645    0.3493    0.0000 C   0  0  0  0  0  0  0  0  0  0  0  0
    3.4016   -0.4599    0.0000 C   0  0  0  0  0  0  0  0  0  0  0  0
    8.2531   -1.1985    0.0000 C   0  0  0  0  0  0  0  0  0  0  0  0
    3.0952    0.9816    0.0000 C   0  0  0  0  0  0  0  0  0  0  0  0
    4.0983   -1.9600    0.0000 C   0  0  0  0  0  0  0  0  0  0  0  0
    2.5693   -0.6368    0.0000 C   0  0  0  0  0  0  0  0  0  0  0  0
    8.5621   -2.1496    0.0000 C   0  0  0  0  0  0  0  0  0  0  0  0
    2.2629    0.8047    0.0000 C   0  0  0  0  0  0  0  0  0  0  0  0
    2.0000   -0.0045    0.0000 C   0  0  0  0  0  0  0  0  0  0  0  0
    5.7253    1.3944    0.0000 H   0  0  0  0  0  0  0  0  0  0  0  0
    6.9092    1.8903    0.0000 H   0  0  0  0  0  0  0  0  0  0  0  0
    6.2169   -0.7657    0.0000 H   0  0  0  0  0  0  0  0  0  0  0  0
    6.8972   -2.2125    0.0000 H   0  0  0  0  0  0  0  0  0  0  0  0
    4.9072   -1.0663    0.0000 H   0  0  0  0  0  0  0  0  0  0  0  0
    5.3169    1.5565    0.0000 H   0  0  0  0  0  0  0  0  0  0  0  0
    4.5588    1.3102    0.0000 H   0  0  0  0  0  0  0  0  0  0  0  0
    5.2594   -1.5322    0.0000 H   0  0  0  0  0  0  0  0  0  0  0  0
    5.8518   -2.0656    0.0000 H   0  0  0  0  0  0  0  0  0  0  0  0
    7.4666   -1.5802    0.0000 H   0  0  0  0  0  0  0  0  0  0  0  0
    7.6185   -0.3103    0.0000 H   0  0  0  0  0  0  0  0  0  0  0  0
    8.8671   -1.1122    0.0000 H   0  0  0  0  0  0  0  0  0  0  0  0
    8.2748   -0.5789    0.0000 H   0  0  0  0  0  0  0  0  0  0  0  0
    3.2868    1.5713    0.0000 H   0  0  0  0  0  0  0  0  0  0  0  0
    3.4784   -1.9652    0.0000 H   0  0  0  0  0  0  0  0  0  0  0  0
    4.1036   -2.5799    0.0000 H   0  0  0  0  0  0  0  0  0  0  0  0
    4.7183   -1.9547    0.0000 H   0  0  0  0  0  0  0  0  0  0  0  0
    8.2876    0.4329    0.0000 H   0  0  0  0  0  0  0  0  0  0  0  0
    2.3777   -1.2264    0.0000 H   0  0  0  0  0  0  0  0  0  0  0  0
    7.9725   -2.3411    0.0000 H   0  0  0  0  0  0  0  0  0  0  0  0
    8.7537   -2.7392    0.0000 H   0  0  0  0  0  0  0  0  0  0  0  0
    9.1518   -1.9580    0.0000 H   0  0  0  0  0  0  0  0  0  0  0  0
    1.8481    1.2655    0.0000 H   0  0  0  0  0  0  0  0  0  0  0  0
    1.3936   -0.1334    0.0000 H   0  0  0  0  0  0  0  0  0  0  0  0
  1 15  1  0  0  0  0
  1 42  1  0  0  0  0
  2 14  2  0  0  0  0
  3  6  1  0  0  0  0
  3  8  1  0  0  0  0
  3 15  1  0  0  0  0
  4 10  1  0  0  0  0
  4 17  1  0  0  0  0
  4 20  1  0  0  0  0
  5 10  1  0  0  0  0
  5 11  1  0  0  0  0
  5 14  1  0  0  0  0
  5 16  1  0  0  0  0
  6  7  1  0  0  0  0
  6 11  1  0  0  0  0
  6 25  1  0  0  0  0
  7  9  1  0  0  0  0
  7 14  1  0  0  0  0
  7 26  1  0  0  0  0
  8 10  1  0  0  0  0
  8 12  1  0  0  0  0
  8 27  1  0  0  0  0
  9 12  1  0  0  0  0
  9 13  1  0  0  0  0
  9 28  1  0  0  0  0
 10 29  1  0  0  0  0
 11 30  1  0  0  0  0
 11 31  1  0  0  0  0
 12 32  1  0  0  0  0
 12 33  1  0  0  0  0
 13 15  1  0  0  0  0
 13 18  1  0  0  0  0
 13 34  1  0  0  0  0
 15 35  1  0  0  0  0
 16 17  1  0  0  0  0
 16 19  2  0  0  0  0
 17 21  2  0  0  0  0
 18 22  1  0  0  0  0
 18 36  1  0  0  0  0
 18 37  1  0  0  0  0
 19 23  1  0  0  0  0
 19 38  1  0  0  0  0
 20 39  1  0  0  0  0
 20 40  1  0  0  0  0
 20 41  1  0  0  0  0
 21 24  1  0  0  0  0
 21 43  1  0  0  0  0
 22 44  1  0  0  0  0
 22 45  1  0  0  0  0
 22 46  1  0  0  0  0
 23 24  2  0  0  0  0
 23 47  1  0  0  0  0
 24 48  1  0  0  0  0
M  END
> <PUBCHEM_COMPOUND_CID>
589111

> <PUBCHEM_COMPOUND_CANONICALIZED>
1

> <PUBCHEM_CACTVS_COMPLEXITY>
608

> <PUBCHEM_CACTVS_HBOND_ACCEPTOR>
4

> <PUBCHEM_CACTVS_HBOND_DONOR>
1

> <PUBCHEM_CACTVS_ROTATABLE_BOND>
1

> <PUBCHEM_CACTVS_SUBSKEYS>
AAADceB7MAAAAAAAAAAAAAAAAAAAAeIAAAA8WLFiBgAAAFixAAAAHgAACAAADyzhmAYywIMAAgCIAqRSQACCAAAhAgAIiAEIZIgIcDrAlZGUYAhkgADIyAec3eOfgAAAAAACAAAAAAAAAAQAASAAAQAAAA==

> <PUBCHEM_IUPAC_OPENEYE_NAME>
13-ethyl-14-hydroxy-8-methyl-8,15-diazahexacyclo[14.2.1.01,9.02,7.010,15.012,17]nonadeca-2,4,6-trien-18-one

> <PUBCHEM_IUPAC_CAS_NAME>
13-ethyl-14-hydroxy-8-methyl-8,15-diazahexacyclo[14.2.1.01,9.02,7.010,15.012,17]nonadeca-2,4,6-trien-18-one

> <PUBCHEM_IUPAC_NAME_MARKUP>
13-ethyl-14-hydroxy-8-methyl-8,15-diazahexacyclo[14.2.1.0<SUP>1,9</SUP>.0<SUP>2,7</SUP>.0<SUP>10,15</SUP>.0<SUP>12,17</SUP>]nonadeca-2,4,6-trien-18-one

> <PUBCHEM_IUPAC_NAME>
13-ethyl-14-hydroxy-8-methyl-8,15-diazahexacyclo[14.2.1.01,9.02,7.010,15.012,17]nonadeca-2,4,6-trien-18-one

> <PUBCHEM_IUPAC_SYSTEMATIC_NAME>
13-ethyl-8-methyl-14-oxidanyl-8,15-diazahexacyclo[14.2.1.01,9.02,7.010,15.012,17]nonadeca-2,4,6-trien-18-one

> <PUBCHEM_IUPAC_TRADITIONAL_NAME>
13-ethyl-14-hydroxy-8-methyl-8,15-diazahexacyclo[14.2.1.01,9.02,7.010,15.012,17]nonadeca-2,4,6-trien-18-one

> <PUBCHEM_IUPAC_INCHI>
InChI=1S/C20H24N2O2/c1-3-10-11-8-14-17-20(12-6-4-5-7-13(12)21(17)2)9-15(16(11)18(20)23)22(14)19(10)24/h4-7,10-11,14-17,19,24H,3,8-9H2,1-2H3

> <PUBCHEM_IUPAC_INCHIKEY>
JLUFXYAXVHAFTF-UHFFFAOYSA-N

> <PUBCHEM_XLOGP3_AA>
2.3

> <PUBCHEM_EXACT_MASS>
324.183778

> <PUBCHEM_MOLECULAR_FORMULA>
C20H24N2O2

> <PUBCHEM_MOLECULAR_WEIGHT>
324.4

> <PUBCHEM_OPENEYE_CAN_SMILES>
CCC1C2CC3C4C5(CC(C2C5=O)N3C1O)C6=CC=CC=C6N4C

> <PUBCHEM_OPENEYE_ISO_SMILES>
CCC1C2CC3C4C5(CC(C2C5=O)N3C1O)C6=CC=CC=C6N4C

> <PUBCHEM_CACTVS_TPSA>
43.8

> <PUBCHEM_MONOISOTOPIC_WEIGHT>
324.183778

> <PUBCHEM_TOTAL_CHARGE>
0

> <PUBCHEM_HEAVY_ATOM_COUNT>
24

> <PUBCHEM_ATOM_DEF_STEREO_COUNT>
0

> <PUBCHEM_ATOM_UDEF_STEREO_COUNT>
8

> <PUBCHEM_BOND_DEF_STEREO_COUNT>
0

> <PUBCHEM_BOND_UDEF_STEREO_COUNT>
0

> <PUBCHEM_ISOTOPIC_ATOM_COUNT>
0

> <PUBCHEM_COMPONENT_COUNT>
1

> <PUBCHEM_CACTVS_TAUTO_COUNT>
-1

> <PUBCHEM_COORDINATE_TYPE>
1
5
255

> <PUBCHEM_BONDANNOTATIONS>
15  1  3
13  18  3
16  17  8
16  19  8
17  21  8
19  23  8
21  24  8
23  24  8
10  4  3
5  11  3
6  11  3
7  14  3
8  12  3
9  12  3

$$$$
