600121
  -OEChem-11222001272D

 52 57  0     1  0  0  0  0  0999 V2000
    8.3990    0.5618    0.0000 O   0  0  0  0  0  0  0  0  0  0  0  0
    4.5254    2.1496    0.0000 O   0  0  0  0  0  0  0  0  0  0  0  0
    2.9782   -1.5878    0.0000 O   0  0  0  0  0  0  0  0  0  0  0  0
    6.8976   -0.0045    0.0000 N   0  0  3  0  0  0  0  0  0  0  0  0
    4.8077   -0.9600    0.0000 N   0  0  3  0  0  0  0  0  0  0  0  0
    5.2332    0.3493    0.0000 C   0  0  3  0  0  0  0  0  0  0  0  0
    6.6347    0.8047    0.0000 C   0  0  3  0  0  0  0  0  0  0  0  0
    7.2040    1.4370    0.0000 C   0  0  3  0  0  0  0  0  0  0  0  0
    6.3283   -0.6368    0.0000 C   0  0  3  0  0  0  0  0  0  0  0  0
    7.4235   -1.6229    0.0000 C   0  0  3  0  0  0  0  0  0  0  0  0
    5.4961   -0.4599    0.0000 C   0  0  3  0  0  0  0  0  0  0  0  0
    5.8025    0.9816    0.0000 C   0  0  0  0  0  0  0  0  0  0  0  0
    6.5912   -1.4460    0.0000 C   0  0  0  0  0  0  0  0  0  0  0  0
    7.9928   -0.9906    0.0000 C   0  0  3  0  0  0  0  0  0  0  0  0
    5.2320    1.4419    0.0000 C   0  0  0  0  0  0  0  0  0  0  0  0
    7.7299   -0.1814    0.0000 C   0  0  3  0  0  0  0  0  0  0  0  0
    4.3823    0.3493    0.0000 C   0  0  0  0  0  0  0  0  0  0  0  0
    4.1194   -0.4599    0.0000 C   0  0  0  0  0  0  0  0  0  0  0  0
    8.9710   -1.1985    0.0000 C   0  0  0  0  0  0  0  0  0  0  0  0
    3.8130    0.9816    0.0000 C   0  0  0  0  0  0  0  0  0  0  0  0
    4.8162   -1.9600    0.0000 C   0  0  0  0  0  0  0  0  0  0  0  0
    3.2872   -0.6368    0.0000 C   0  0  0  0  0  0  0  0  0  0  0  0
    9.2800   -2.1496    0.0000 C   0  0  0  0  0  0  0  0  0  0  0  0
    2.9808    0.8047    0.0000 C   0  0  0  0  0  0  0  0  0  0  0  0
    2.7178   -0.0045    0.0000 C   0  0  0  0  0  0  0  0  0  0  0  0
    2.0000   -1.7958    0.0000 C   0  0  0  0  0  0  0  0  0  0  0  0
    6.4431    1.3944    0.0000 H   0  0  0  0  0  0  0  0  0  0  0  0
    7.6271    1.8903    0.0000 H   0  0  0  0  0  0  0  0  0  0  0  0
    6.9348   -0.7657    0.0000 H   0  0  0  0  0  0  0  0  0  0  0  0
    7.6151   -2.2125    0.0000 H   0  0  0  0  0  0  0  0  0  0  0  0
    5.6250   -1.0663    0.0000 H   0  0  0  0  0  0  0  0  0  0  0  0
    6.0347    1.5565    0.0000 H   0  0  0  0  0  0  0  0  0  0  0  0
    5.2767    1.3102    0.0000 H   0  0  0  0  0  0  0  0  0  0  0  0
    5.9773   -1.5322    0.0000 H   0  0  0  0  0  0  0  0  0  0  0  0
    6.5696   -2.0656    0.0000 H   0  0  0  0  0  0  0  0  0  0  0  0
    8.1844   -1.5802    0.0000 H   0  0  0  0  0  0  0  0  0  0  0  0
    8.3364   -0.3103    0.0000 H   0  0  0  0  0  0  0  0  0  0  0  0
    9.5849   -1.1122    0.0000 H   0  0  0  0  0  0  0  0  0  0  0  0
    8.9926   -0.5789    0.0000 H   0  0  0  0  0  0  0  0  0  0  0  0
    4.0046    1.5713    0.0000 H   0  0  0  0  0  0  0  0  0  0  0  0
    4.1962   -1.9652    0.0000 H   0  0  0  0  0  0  0  0  0  0  0  0
    4.8214   -2.5799    0.0000 H   0  0  0  0  0  0  0  0  0  0  0  0
    5.4361   -1.9547    0.0000 H   0  0  0  0  0  0  0  0  0  0  0  0
    9.0055    0.4329    0.0000 H   0  0  0  0  0  0  0  0  0  0  0  0
    8.6903   -2.3411    0.0000 H   0  0  0  0  0  0  0  0  0  0  0  0
    9.4716   -2.7392    0.0000 H   0  0  0  0  0  0  0  0  0  0  0  0
    9.8696   -1.9580    0.0000 H   0  0  0  0  0  0  0  0  0  0  0  0
    2.5659    1.2655    0.0000 H   0  0  0  0  0  0  0  0  0  0  0  0
    2.1114   -0.1334    0.0000 H   0  0  0  0  0  0  0  0  0  0  0  0
    1.8711   -1.1893    0.0000 H   0  0  0  0  0  0  0  0  0  0  0  0
    1.3936   -1.9246    0.0000 H   0  0  0  0  0  0  0  0  0  0  0  0
    2.1289   -2.4022    0.0000 H   0  0  0  0  0  0  0  0  0  0  0  0
  1 16  1  0  0  0  0
  1 44  1  0  0  0  0
  2 15  2  0  0  0  0
  3 22  1  0  0  0  0
  3 26  1  0  0  0  0
  4  7  1  0  0  0  0
  4  9  1  0  0  0  0
  4 16  1  0  0  0  0
  5 11  1  0  0  0  0
  5 18  1  0  0  0  0
  5 21  1  0  0  0  0
  6 11  1  0  0  0  0
  6 12  1  0  0  0  0
  6 15  1  0  0  0  0
  6 17  1  0  0  0  0
  7  8  1  0  0  0  0
  7 12  1  0  0  0  0
  7 27  1  0  0  0  0
  8 10  1  0  0  0  0
  8 15  1  0  0  0  0
  8 28  1  0  0  0  0
  9 11  1  0  0  0  0
  9 13  1  0  0  0  0
  9 29  1  0  0  0  0
 10 13  1  0  0  0  0
 10 14  1  0  0  0  0
 10 30  1  0  0  0  0
 11 31  1  0  0  0  0
 12 32  1  0  0  0  0
 12 33  1  0  0  0  0
 13 34  1  0  0  0  0
 13 35  1  0  0  0  0
 14 16  1  0  0  0  0
 14 19  1  0  0  0  0
 14 36  1  0  0  0  0
 16 37  1  0  0  0  0
 17 18  2  0  0  0  0
 17 20  1  0  0  0  0
 18 22  1  0  0  0  0
 19 23  1  0  0  0  0
 19 38  1  0  0  0  0
 19 39  1  0  0  0  0
 20 24  2  0  0  0  0
 20 40  1  0  0  0  0
 21 41  1  0  0  0  0
 21 42  1  0  0  0  0
 21 43  1  0  0  0  0
 22 25  2  0  0  0  0
 23 45  1  0  0  0  0
 23 46  1  0  0  0  0
 23 47  1  0  0  0  0
 24 25  1  0  0  0  0
 24 48  1  0  0  0  0
 25 49  1  0  0  0  0
 26 50  1  0  0  0  0
 26 51  1  0  0  0  0
 26 52  1  0  0  0  0
M  END
> <PUBCHEM_COMPOUND_CID>
600121

> <PUBCHEM_COMPOUND_CANONICALIZED>
1

> <PUBCHEM_CACTVS_COMPLEXITY>
655

> <PUBCHEM_CACTVS_HBOND_ACCEPTOR>
5

> <PUBCHEM_CACTVS_HBOND_DONOR>
1

> <PUBCHEM_CACTVS_ROTATABLE_BOND>
2

> <PUBCHEM_CACTVS_SUBSKEYS>
AAADceB7MAAAAAAAAAAAAAAAAAAAAeIAAAA8WLFiBgAAAFixAAAAHgAACAAADyzhmAYyxoMABgCIAqRSQACCCAAhIAAIiAEPTIgOdjrEtZuVcChkwBHY6Aec3fPfgAABAAACEAAAAAIAAAQgASAAAQAAAA==

> <PUBCHEM_IUPAC_OPENEYE_NAME>
13-ethyl-14-hydroxy-6-methoxy-8-methyl-8,15-diazahexacyclo[14.2.1.01,9.02,7.010,15.012,17]nonadeca-2(7),3,5-trien-18-one

> <PUBCHEM_IUPAC_CAS_NAME>
13-ethyl-14-hydroxy-6-methoxy-8-methyl-8,15-diazahexacyclo[14.2.1.01,9.02,7.010,15.012,17]nonadeca-2(7),3,5-trien-18-one

> <PUBCHEM_IUPAC_NAME_MARKUP>
13-ethyl-14-hydroxy-6-methoxy-8-methyl-8,15-diazahexacyclo[14.2.1.0<SUP>1,9</SUP>.0<SUP>2,7</SUP>.0<SUP>10,15</SUP>.0<SUP>12,17</SUP>]nonadeca-2(7),3,5-trien-18-one

> <PUBCHEM_IUPAC_NAME>
13-ethyl-14-hydroxy-6-methoxy-8-methyl-8,15-diazahexacyclo[14.2.1.01,9.02,7.010,15.012,17]nonadeca-2(7),3,5-trien-18-one

> <PUBCHEM_IUPAC_SYSTEMATIC_NAME>
13-ethyl-6-methoxy-8-methyl-14-oxidanyl-8,15-diazahexacyclo[14.2.1.01,9.02,7.010,15.012,17]nonadeca-2(7),3,5-trien-18-one

> <PUBCHEM_IUPAC_TRADITIONAL_NAME>
13-ethyl-14-hydroxy-6-methoxy-8-methyl-8,15-diazahexacyclo[14.2.1.01,9.02,7.010,15.012,17]nonadeca-2(7),3,5-trien-18-one

> <PUBCHEM_IUPAC_INCHI>
InChI=1S/C21H26N2O3/c1-4-10-11-8-13-18-21(9-14(16(11)19(21)24)23(13)20(10)25)12-6-5-7-15(26-3)17(12)22(18)2/h5-7,10-11,13-14,16,18,20,25H,4,8-9H2,1-3H3

> <PUBCHEM_IUPAC_INCHIKEY>
WTWLJQPPCVQKET-UHFFFAOYSA-N

> <PUBCHEM_XLOGP3_AA>
2.3

> <PUBCHEM_EXACT_MASS>
354.194343

> <PUBCHEM_MOLECULAR_FORMULA>
C21H26N2O3

> <PUBCHEM_MOLECULAR_WEIGHT>
354.4

> <PUBCHEM_OPENEYE_CAN_SMILES>
CCC1C2CC3C4C5(CC(C2C5=O)N3C1O)C6=C(N4C)C(=CC=C6)OC

> <PUBCHEM_OPENEYE_ISO_SMILES>
CCC1C2CC3C4C5(CC(C2C5=O)N3C1O)C6=C(N4C)C(=CC=C6)OC

> <PUBCHEM_CACTVS_TPSA>
53

> <PUBCHEM_MONOISOTOPIC_WEIGHT>
354.194343

> <PUBCHEM_TOTAL_CHARGE>
0

> <PUBCHEM_HEAVY_ATOM_COUNT>
26

> <PUBCHEM_ATOM_DEF_STEREO_COUNT>
0

> <PUBCHEM_ATOM_UDEF_STEREO_COUNT>
8

> <PUBCHEM_BOND_DEF_STEREO_COUNT>
0

> <PUBCHEM_BOND_UDEF_STEREO_COUNT>
0

> <PUBCHEM_ISOTOPIC_ATOM_COUNT>
0

> <PUBCHEM_COMPONENT_COUNT>
1

> <PUBCHEM_CACTVS_TAUTO_COUNT>
-1

> <PUBCHEM_COORDINATE_TYPE>
1
5
255

> <PUBCHEM_BONDANNOTATIONS>
16  1  3
10  13  3
14  19  3
17  18  8
17  20  8
18  22  8
20  24  8
22  25  8
24  25  8
11  5  3
6  12  3
7  12  3
8  15  3
9  13  3

$$$$
