3012090
  -OEChem-09152015413D

 45 46  0     1  0  0  0  0  0999 V2000
    1.1195    1.5640    0.0701 O   0  0  0  0  0  0  0  0  0  0  0  0
    4.5860    2.4028    0.2744 O   0  0  0  0  0  0  0  0  0  0  0  0
    0.8973   -3.4319   -0.2256 O   0  0  0  0  0  0  0  0  0  0  0  0
    3.0720    1.7315    1.8790 O   0  0  0  0  0  0  0  0  0  0  0  0
    3.3102   -4.2350    0.8952 O   0  0  0  0  0  0  0  0  0  0  0  0
    0.1864    1.7272   -2.0371 O   0  0  0  0  0  0  0  0  0  0  0  0
   -6.7568   -0.8291   -1.2521 O   0  0  0  0  0  0  0  0  0  0  0  0
   -7.1666   -0.5382    1.4815 O   0  0  0  0  0  0  0  0  0  0  0  0
    2.8398    0.8733   -1.4562 C   0  0  0  0  0  0  0  0  0  0  0  0
    2.3921    1.9322   -0.4460 C   0  0  2  0  0  0  0  0  0  0  0  0
    2.9625   -0.4943   -0.8278 C   0  0  0  0  0  0  0  0  0  0  0  0
    1.8630   -1.3374   -0.8175 C   0  0  0  0  0  0  0  0  0  0  0  0
    4.1720   -0.8802   -0.2728 C   0  0  0  0  0  0  0  0  0  0  0  0
    3.3575    2.0076    0.7211 C   0  0  0  0  0  0  0  0  0  0  0  0
    1.9761   -2.6005   -0.2364 C   0  0  0  0  0  0  0  0  0  0  0  0
    4.2852   -2.1431    0.3080 C   0  0  0  0  0  0  0  0  0  0  0  0
    3.1874   -3.0034    0.3262 C   0  0  0  0  0  0  0  0  0  0  0  0
    0.1048    1.5008   -0.8403 C   0  0  0  0  0  0  0  0  0  0  0  0
   -3.5607    0.5682   -0.2079 C   0  0  0  0  0  0  0  0  0  0  0  0
   -1.1289    1.1074   -0.1224 C   0  0  0  0  0  0  0  0  0  0  0  0
   -2.2735    0.9645   -0.8056 C   0  0  0  0  0  0  0  0  0  0  0  0
   -4.5567    0.0529   -1.0214 C   0  0  0  0  0  0  0  0  0  0  0  0
   -3.7501    0.7197    1.1563 C   0  0  0  0  0  0  0  0  0  0  0  0
   -5.7756   -0.3213   -0.4553 C   0  0  0  0  0  0  0  0  0  0  0  0
   -4.9686    0.3455    1.7224 C   0  0  0  0  0  0  0  0  0  0  0  0
   -5.9813   -0.1751    0.9167 C   0  0  0  0  0  0  0  0  0  0  0  0
    5.6068    2.4918    1.2735 C   0  0  0  0  0  0  0  0  0  0  0  0
    2.2004    0.7971   -2.3394 H   0  0  0  0  0  0  0  0  0  0  0  0
    3.8188    1.1558   -1.8679 H   0  0  0  0  0  0  0  0  0  0  0  0
    2.3248    2.9291   -0.8979 H   0  0  0  0  0  0  0  0  0  0  0  0
    0.9224   -1.0467   -1.2735 H   0  0  0  0  0  0  0  0  0  0  0  0
    5.0408   -0.2299   -0.2935 H   0  0  0  0  0  0  0  0  0  0  0  0
    5.2356   -2.4456    0.7394 H   0  0  0  0  0  0  0  0  0  0  0  0
   -1.0402    0.9262    0.9423 H   0  0  0  0  0  0  0  0  0  0  0  0
   -2.2922    1.1341   -1.8798 H   0  0  0  0  0  0  0  0  0  0  0  0
   -4.3972   -0.0633   -2.0908 H   0  0  0  0  0  0  0  0  0  0  0  0
   -2.9992    1.1400    1.8176 H   0  0  0  0  0  0  0  0  0  0  0  0
    1.1543   -4.2608    0.2145 H   0  0  0  0  0  0  0  0  0  0  0  0
   -5.1249    0.4660    2.7910 H   0  0  0  0  0  0  0  0  0  0  0  0
    4.2168   -4.3394    1.2315 H   0  0  0  0  0  0  0  0  0  0  0  0
    5.7590    1.5186    1.7498 H   0  0  0  0  0  0  0  0  0  0  0  0
    5.3416    3.2491    2.0172 H   0  0  0  0  0  0  0  0  0  0  0  0
    6.5369    2.7912    0.7832 H   0  0  0  0  0  0  0  0  0  0  0  0
   -6.4372   -0.8573   -2.1703 H   0  0  0  0  0  0  0  0  0  0  0  0
   -7.7488   -0.8770    0.7794 H   0  0  0  0  0  0  0  0  0  0  0  0
  1 10  1  0  0  0  0
  1 18  1  0  0  0  0
  2 14  1  0  0  0  0
  2 27  1  0  0  0  0
  3 15  1  0  0  0  0
  3 38  1  0  0  0  0
  4 14  2  0  0  0  0
  5 17  1  0  0  0  0
  5 40  1  0  0  0  0
  6 18  2  0  0  0  0
  7 24  1  0  0  0  0
  7 44  1  0  0  0  0
  8 26  1  0  0  0  0
  8 45  1  0  0  0  0
  9 10  1  0  0  0  0
  9 11  1  0  0  0  0
  9 28  1  0  0  0  0
  9 29  1  0  0  0  0
 10 14  1  0  0  0  0
 10 30  1  0  0  0  0
 11 12  2  0  0  0  0
 11 13  1  0  0  0  0
 12 15  1  0  0  0  0
 12 31  1  0  0  0  0
 13 16  2  0  0  0  0
 13 32  1  0  0  0  0
 15 17  2  0  0  0  0
 16 17  1  0  0  0  0
 16 33  1  0  0  0  0
 18 20  1  0  0  0  0
 19 21  1  0  0  0  0
 19 22  2  0  0  0  0
 19 23  1  0  0  0  0
 20 21  2  3  0  0  0
 20 34  1  0  0  0  0
 21 35  1  0  0  0  0
 22 24  1  0  0  0  0
 22 36  1  0  0  0  0
 23 25  2  0  0  0  0
 23 37  1  0  0  0  0
 24 26  2  0  0  0  0
 25 26  1  0  0  0  0
 25 39  1  0  0  0  0
 27 41  1  0  0  0  0
 27 42  1  0  0  0  0
 27 43  1  0  0  0  0
M  END
> <PUBCHEM_COMPOUND_CID>
3012090

> <PUBCHEM_CONFORMER_RMSD>
1

> <PUBCHEM_CONFORMER_DIVERSEORDER>
1
247
241
199
265
33
354
146
168
150
100
92
15
140
232
239
97
253
194
141
181
23
48
281
300
88
204
155
357
230
342
307
184
237
105
73
256
62
349
101
327
112
208
183
318
128
254
345
68
279
121
334
322
268
195
339
21
331
102
352
41
159
330
285
324
293
11
60
153
196
103
57
152
69
226
325
219
47
66
38
87
174
125
359
151
189
286
43
310
9
236
319
356
157
264
272
10
161
321
72
191
343
114
144
132
81
22
302
201
37
67
309
193
39
276
77
44
192
91
242
179
85
158
290
258
19
59
13
251
116
225
348
7
96
124
28
83
206
82
228
171
213
90
63
214
89
30
117
328
176
224
333
108
27
259
269
131
338
113
106
262
14
74
275
95
84
282
135
64
147
186
238
296
50
235
294
166
353
187
165
287
167
212
355
266
99
8
61
119
6
312
316
164
303
126
76
172
98
200
55
16
51
4
252
70
78
273
341
188
175
32
207
18
291
75
170
270
257
190
42
314
109
185
5
308
280
320
107
197
347
46
198
79
127
289
49
240
351
35
231
332
111
160
221
80
136
248
118
45
104
304
301
292
210
123
24
337
53
110
344
12
177
130
284
326
182
143
234
323
267
26
36
134
244
315
178
86
169
311
299
115
3
358
142
306
216
56
229
305
52
298
94
133
2
34
340
17
336
227
29
205
31
274
137
154
317
277
346
246
58
65
122
120
93
271
243
288
162
180
156
218
329
283
129
145
297
223
220
313
217
71
255
139
163
54
260
138
40
203
173
350
249
209
245
215
20
360
263
250
335
211
233
25
295
148
278
149
222
261
202

> <PUBCHEM_MMFF94_PARTIAL_CHARGES>
39
1 -0.43
10 0.34
11 -0.14
12 -0.15
13 -0.15
14 0.66
15 0.08
16 -0.15
17 0.08
18 0.71
19 0.03
2 -0.43
20 -0.14
21 -0.18
22 -0.15
23 -0.15
24 0.08
25 -0.15
26 0.08
27 0.28
3 -0.53
31 0.15
32 0.15
33 0.15
34 0.15
35 0.15
36 0.15
37 0.15
38 0.45
39 0.15
4 -0.57
40 0.45
44 0.45
45 0.45
5 -0.53
6 -0.57
7 -0.53
8 -0.53
9 0.14

> <PUBCHEM_EFFECTIVE_ROTOR_COUNT>
8

> <PUBCHEM_PHARMACOPHORE_FEATURES>
8
1 3 donor
1 4 acceptor
1 5 donor
1 6 acceptor
1 7 donor
1 8 donor
6 11 12 13 15 16 17 rings
6 19 22 23 24 25 26 rings

> <PUBCHEM_HEAVY_ATOM_COUNT>
27

> <PUBCHEM_ATOM_DEF_STEREO_COUNT>
1

> <PUBCHEM_ATOM_UDEF_STEREO_COUNT>
0

> <PUBCHEM_BOND_DEF_STEREO_COUNT>
0

> <PUBCHEM_BOND_UDEF_STEREO_COUNT>
1

> <PUBCHEM_ISOTOPIC_ATOM_COUNT>
0

> <PUBCHEM_COMPONENT_COUNT>
1

> <PUBCHEM_CACTVS_TAUTO_COUNT>
180

> <PUBCHEM_CONFORMER_ID>
002DF5FA00000001

> <PUBCHEM_MMFF94_ENERGY>
69.4869

> <PUBCHEM_FEATURE_SELFOVERLAP>
40.606

> <PUBCHEM_SHAPE_FINGERPRINT>
10165383 225 18339082709366608556
11070050 100 17986936609520728560
114674 6 18187087226152448418
11475781 23 17314487294053974669
11578080 2 12175039108518864440
12107183 9 17910122309106340065
12596602 18 17632582673426244657
12597179 24 18261956366196424610
13073987 5 18413113853571747641
13533116 47 18343022190286466913
13955234 65 18410575127972104264
14341114 328 17346602980270256925
14565420 104 18058720459518206432
146900 427 18131072653356249865
14849402 71 17988920120071189224
14863182 85 18261117400291252820
15142526 21 17485633068638592208
17857418 61 18342176640328052431
18681886 176 15554169293073534824
19301679 30 18334021575670765097
19315092 285 18201153265521243353
19377110 9 17918272060883995593
19438510 23 16341711032919918528
1979834 28 18261115200735266436
20511986 3 17988635307841117973
20775530 9 17683814215553614634
21033648 29 17749100072574337015
21197605 99 18339365287390395375
21421861 104 18059301959113274552
21623969 137 18334293192789877585
22224240 67 18270110357471759456
22956985 138 18043802084242246442
23559900 14 17386014940197502543
23572383 38 18040437707093279475
239999 70 17240489138717051980
3178227 256 18411136936107296520
33824 294 18410572890414955740
3421961 26 18336266738794048492
345986 75 18058732386240967025
427121 178 18200871885609202276
4340502 62 18272088348656285892
46194498 28 17023192642802618447
5104073 3 18341337687060201041
5758199 1 18129660936825802024
7288768 16 17054678403984672920
86090 222 17894643538691592443

> <PUBCHEM_SHAPE_MULTIPOLES>
508.69
15.43
3.64
1.51
25.81
3.26
0.13
0.72
4.58
-7.85
0.83
0.73
-0.55
0.44

> <PUBCHEM_SHAPE_SELFOVERLAP>
1088.618

> <PUBCHEM_SHAPE_VOLUME>
280.1

> <PUBCHEM_COORDINATE_TYPE>
2
5
10

$$$$
