5288573
  -OEChem-11232009223D

 28 29  0     0  0  0  0  0  0999 V2000
    0.0236    1.6213    0.2106 O   0  0  0  0  0  0  0  0  0  0  0  0
   -3.7890    0.6051   -1.3404 O   0  0  0  0  0  0  0  0  0  0  0  0
   -2.1762    2.1028    0.4946 O   0  0  0  0  0  0  0  0  0  0  0  0
    4.6744    0.7519   -0.3462 O   0  0  0  0  0  0  0  0  0  0  0  0
   -0.6327   -1.1323    0.2580 C   0  0  0  0  0  0  0  0  0  0  0  0
   -1.6038   -0.2085    0.4196 C   0  0  0  0  0  0  0  0  0  0  0  0
    0.7685   -0.6920    0.0967 C   0  0  0  0  0  0  0  0  0  0  0  0
   -3.0595   -0.5206    0.6569 C   0  0  0  0  0  0  0  0  0  0  0  0
    1.0476    0.6713    0.0770 C   0  0  0  0  0  0  0  0  0  0  0  0
   -1.2993    1.2512    0.3842 C   0  0  0  0  0  0  0  0  0  0  0  0
   -0.8899   -2.6183    0.2149 C   0  0  0  0  0  0  0  0  0  0  0  0
    1.8570   -1.5694   -0.0300 C   0  0  0  0  0  0  0  0  0  0  0  0
   -3.8325   -0.6336   -0.6439 C   0  0  0  0  0  0  0  0  0  0  0  0
    2.3436    1.1720   -0.0714 C   0  0  0  0  0  0  0  0  0  0  0  0
    3.1626   -1.0857   -0.1791 C   0  0  0  0  0  0  0  0  0  0  0  0
    3.4055    0.2847   -0.2014 C   0  0  0  0  0  0  0  0  0  0  0  0
   -3.5129    0.2531    1.2891 H   0  0  0  0  0  0  0  0  0  0  0  0
   -3.1707   -1.4456    1.2336 H   0  0  0  0  0  0  0  0  0  0  0  0
   -1.9505   -2.8794    0.2402 H   0  0  0  0  0  0  0  0  0  0  0  0
   -0.4163   -3.1157    1.0683 H   0  0  0  0  0  0  0  0  0  0  0  0
   -0.4979   -3.0517   -0.7122 H   0  0  0  0  0  0  0  0  0  0  0  0
    1.7210   -2.6476   -0.0150 H   0  0  0  0  0  0  0  0  0  0  0  0
   -4.8803   -0.8749   -0.4381 H   0  0  0  0  0  0  0  0  0  0  0  0
   -3.4182   -1.4127   -1.2924 H   0  0  0  0  0  0  0  0  0  0  0  0
    2.5201    2.2440   -0.0835 H   0  0  0  0  0  0  0  0  0  0  0  0
    3.9806   -1.7949   -0.2760 H   0  0  0  0  0  0  0  0  0  0  0  0
   -4.3003    0.4898   -2.1594 H   0  0  0  0  0  0  0  0  0  0  0  0
    5.2820   -0.0040   -0.4216 H   0  0  0  0  0  0  0  0  0  0  0  0
  1  9  1  0  0  0  0
  1 10  1  0  0  0  0
  2 13  1  0  0  0  0
  2 27  1  0  0  0  0
  3 10  2  0  0  0  0
  4 16  1  0  0  0  0
  4 28  1  0  0  0  0
  5  6  2  0  0  0  0
  5  7  1  0  0  0  0
  5 11  1  0  0  0  0
  6  8  1  0  0  0  0
  6 10  1  0  0  0  0
  7  9  2  0  0  0  0
  7 12  1  0  0  0  0
  8 13  1  0  0  0  0
  8 17  1  0  0  0  0
  8 18  1  0  0  0  0
  9 14  1  0  0  0  0
 11 19  1  0  0  0  0
 11 20  1  0  0  0  0
 11 21  1  0  0  0  0
 12 15  2  0  0  0  0
 12 22  1  0  0  0  0
 13 23  1  0  0  0  0
 13 24  1  0  0  0  0
 14 16  2  0  0  0  0
 14 25  1  0  0  0  0
 15 16  1  0  0  0  0
 15 26  1  0  0  0  0
M  END
> <PUBCHEM_COMPOUND_CID>
5288573

> <PUBCHEM_CONFORMER_RMSD>
0.6

> <PUBCHEM_CONFORMER_DIVERSEORDER>
1
2

> <PUBCHEM_MMFF94_PARTIAL_CHARGES>
21
1 -0.23
10 0.71
11 0.14
12 -0.15
13 0.28
14 -0.15
15 -0.15
16 0.08
2 -0.68
22 0.15
25 0.15
26 0.15
27 0.4
28 0.45
3 -0.57
4 -0.53
5 -0.17
6 -0.12
7 0.03
8 0.14
9 0.08

> <PUBCHEM_EFFECTIVE_ROTOR_COUNT>
2

> <PUBCHEM_PHARMACOPHORE_FEATURES>
6
1 2 acceptor
1 2 donor
1 3 acceptor
1 4 donor
6 1 5 6 7 9 10 rings
6 7 9 12 14 15 16 rings

> <PUBCHEM_HEAVY_ATOM_COUNT>
16

> <PUBCHEM_ATOM_DEF_STEREO_COUNT>
0

> <PUBCHEM_ATOM_UDEF_STEREO_COUNT>
0

> <PUBCHEM_BOND_DEF_STEREO_COUNT>
0

> <PUBCHEM_BOND_UDEF_STEREO_COUNT>
0

> <PUBCHEM_ISOTOPIC_ATOM_COUNT>
0

> <PUBCHEM_COMPONENT_COUNT>
1

> <PUBCHEM_CACTVS_TAUTO_COUNT>
3

> <PUBCHEM_CONFORMER_ID>
0050B27D00000001

> <PUBCHEM_MMFF94_ENERGY>
45.7154

> <PUBCHEM_FEATURE_SELFOVERLAP>
30.475

> <PUBCHEM_SHAPE_FINGERPRINT>
10608611 8 18412266125400106936
10967382 1 18411142454438697194
11132069 177 18339358681935493712
11206711 2 18338520737863227989
11471102 20 18410009940350764518
13140716 1 18051702336341364154
13221675 6 18411986887948253178
13380535 76 18411421726202991738
13583140 156 16877663491194876688
14115302 16 18189062047666817766
14144814 61 18410580565326276442
14325111 11 18339367366206573712
14576447 43 18058154193628239479
14911166 2 18411417349282709407
14993402 34 18342738537260320046
15196674 1 18411141298823332778
15442244 35 18194404386083538322
15536298 74 18270967847591626738
16945 1 18339651130226584994
18186145 218 18334863761994085631
193761 8 17619069872567146803
200 152 18131063835983472533
20201158 50 18410577301008823394
20510252 161 18200883889430806976
20645476 183 17313383473677220779
20645477 70 18410854313383099582
21029758 11 18272930548297590569
21267235 1 18339374044669988666
21501502 16 18268150859766595104
2334 1 18339085878086342472
23402539 116 18343014506094043743
23402655 69 18341609287526893565
23463225 33 18336270054920316210
23493267 7 17603862325717459553
23559900 14 18342461499992414120
25 1 18261383396231948735
2748010 2 18265906764992356922
3312278 4 18336270153404169570
34934 24 18338229470556332602
353137 74 18409165493856034427
4028521 119 18408039623760807246
5104073 3 18411423869465045778
528886 8 18339642343003351618
57005193 9 18408597085162878954
57096353 35 18412549816384607876
69090 78 18272088318253800750
8809292 202 18190467240770671418
9709674 26 18342749502728805086

> <PUBCHEM_SHAPE_MULTIPOLES>
305.8
6.72
2.07
0.79
1.44
0.41
0.11
-0.79
1.65
-0.36
-0.21
-0.56
-0.04
0.01

> <PUBCHEM_SHAPE_SELFOVERLAP>
656.782

> <PUBCHEM_SHAPE_VOLUME>
168.3

> <PUBCHEM_COORDINATE_TYPE>
2
5
10

$$$$
