197414
  -OEChem-11232009163D

 29 31  0     1  0  0  0  0  0999 V2000
    2.6610    1.3279    0.6567 O   0  0  0  0  0  0  0  0  0  0  0  0
    3.2391   -1.3983   -0.6643 O   0  0  0  0  0  0  0  0  0  0  0  0
   -2.8801   -0.4914    0.8614 O   0  0  0  0  0  0  0  0  0  0  0  0
   -3.3335    0.4251   -1.2155 O   0  0  0  0  0  0  0  0  0  0  0  0
    0.4757    2.1425    0.2711 N   0  0  0  0  0  0  0  0  0  0  0  0
    1.3190    0.0753   -0.8722 C   0  0  1  0  0  0  0  0  0  0  0  0
    2.1232   -0.8649    0.0323 C   0  0  2  0  0  0  0  0  0  0  0  0
   -0.1480   -0.4416   -0.8727 C   0  0  1  0  0  0  0  0  0  0  0  0
    1.6171    1.4785   -0.3195 C   0  0  2  0  0  0  0  0  0  0  0  0
    2.5824   -0.0010    1.1883 C   0  0  0  0  0  0  0  0  0  0  0  0
    1.1757   -1.9543    0.3844 C   0  0  0  0  0  0  0  0  0  0  0  0
   -0.0462   -1.7307   -0.1058 C   0  0  0  0  0  0  0  0  0  0  0  0
   -1.1552    0.4967   -0.2835 C   0  0  0  0  0  0  0  0  0  0  0  0
   -0.8047    1.6771    0.2325 C   0  0  0  0  0  0  0  0  0  0  0  0
   -2.5791    0.1540   -0.2941 C   0  0  0  0  0  0  0  0  0  0  0  0
   -4.2463   -0.8949    1.0010 C   0  0  0  0  0  0  0  0  0  0  0  0
    1.7029    0.0237   -1.9013 H   0  0  0  0  0  0  0  0  0  0  0  0
   -0.4399   -0.6676   -1.9066 H   0  0  0  0  0  0  0  0  0  0  0  0
    2.0096    2.1197   -1.1162 H   0  0  0  0  0  0  0  0  0  0  0  0
    1.8660    0.0150    2.0179 H   0  0  0  0  0  0  0  0  0  0  0  0
    3.5670   -0.2778    1.5768 H   0  0  0  0  0  0  0  0  0  0  0  0
    1.4429   -2.8252    0.9660 H   0  0  0  0  0  0  0  0  0  0  0  0
   -0.8743   -2.4134    0.0295 H   0  0  0  0  0  0  0  0  0  0  0  0
    0.6204    3.0498    0.7017 H   0  0  0  0  0  0  0  0  0  0  0  0
   -1.5207    2.3680    0.6626 H   0  0  0  0  0  0  0  0  0  0  0  0
    3.7320   -1.9692   -0.0501 H   0  0  0  0  0  0  0  0  0  0  0  0
   -4.9032   -0.0199    0.9840 H   0  0  0  0  0  0  0  0  0  0  0  0
   -4.3555   -1.3975    1.9657 H   0  0  0  0  0  0  0  0  0  0  0  0
   -4.5164   -1.5968    0.2063 H   0  0  0  0  0  0  0  0  0  0  0  0
  1  9  1  0  0  0  0
  1 10  1  0  0  0  0
  2  7  1  0  0  0  0
  2 26  1  0  0  0  0
  3 15  1  0  0  0  0
  3 16  1  0  0  0  0
  4 15  2  0  0  0  0
  5  9  1  0  0  0  0
  5 14  1  0  0  0  0
  5 24  1  0  0  0  0
  6  7  1  0  0  0  0
  6  8  1  0  0  0  0
  6  9  1  0  0  0  0
  6 17  1  0  0  0  0
  7 10  1  0  0  0  0
  7 11  1  0  0  0  0
  8 12  1  0  0  0  0
  8 13  1  0  0  0  0
  8 18  1  0  0  0  0
  9 19  1  0  0  0  0
 10 20  1  0  0  0  0
 10 21  1  0  0  0  0
 11 12  2  0  0  0  0
 11 22  1  0  0  0  0
 12 23  1  0  0  0  0
 13 14  2  0  0  0  0
 13 15  1  0  0  0  0
 14 25  1  0  0  0  0
 16 27  1  0  0  0  0
 16 28  1  0  0  0  0
 16 29  1  0  0  0  0
M  END
> <PUBCHEM_COMPOUND_CID>
197414

> <PUBCHEM_CONFORMER_RMSD>
0.6

> <PUBCHEM_CONFORMER_DIVERSEORDER>
1
6
7
12
5
8
11
2
3
10
4
9

> <PUBCHEM_MMFF94_PARTIAL_CHARGES>
20
1 -0.56
10 0.28
11 -0.29
12 -0.29
13 -0.12
14 -0.05
15 0.71
16 0.28
2 -0.68
22 0.15
23 0.15
24 0.4
25 0.15
26 0.4
3 -0.43
4 -0.57
5 -0.87
7 0.42
8 0.28
9 0.65

> <PUBCHEM_EFFECTIVE_ROTOR_COUNT>
2.6

> <PUBCHEM_PHARMACOPHORE_FEATURES>
9
1 1 acceptor
1 2 acceptor
1 2 donor
1 4 acceptor
1 5 cation
1 5 donor
5 1 6 7 9 10 rings
5 6 7 8 11 12 rings
6 5 6 8 9 13 14 rings

> <PUBCHEM_HEAVY_ATOM_COUNT>
16

> <PUBCHEM_ATOM_DEF_STEREO_COUNT>
0

> <PUBCHEM_ATOM_UDEF_STEREO_COUNT>
4

> <PUBCHEM_BOND_DEF_STEREO_COUNT>
0

> <PUBCHEM_BOND_UDEF_STEREO_COUNT>
0

> <PUBCHEM_ISOTOPIC_ATOM_COUNT>
0

> <PUBCHEM_COMPONENT_COUNT>
1

> <PUBCHEM_CACTVS_TAUTO_COUNT>
2

> <PUBCHEM_CONFORMER_ID>
0003032600000001

> <PUBCHEM_MMFF94_ENERGY>
51.337

> <PUBCHEM_FEATURE_SELFOVERLAP>
46.383

> <PUBCHEM_SHAPE_FINGERPRINT>
108231 29 18410299107286854827
10980938 120 18340204193038742207
11067466 332 18188788239264758877
11132069 177 18271229612467543922
11471102 22 18409735075122896875
12032990 46 18339086986362322422
12382932 28 18268698575465716858
12423570 1 9004758940623781724
12491281 212 16558470897695896955
12654215 9 18335972082615675053
13140716 1 17908698780497267472
13296908 3 18409448072750090351
14251717 144 18339358677772732779
15219456 202 18260827112004519197
15775835 57 17703789262137708601
16945 1 18342168968994189822
20201158 50 18261386707361654939
20645477 70 18343010082826335975
2334 1 18195241354660339550
23419403 2 15881158326171848904
2748010 2 18268699524759341580
5084963 1 17988638541471235706
568465 68 18334016133218694291
63268167 104 18272644688280212925
77492 1 17346595300910735013

> <PUBCHEM_SHAPE_MULTIPOLES>
300.81
5.39
1.97
1.04
4.55
0.16
-0.03
-1.18
-1.02
-0.8
-0.18
0.16
-0.04
0.57

> <PUBCHEM_SHAPE_SELFOVERLAP>
658.533

> <PUBCHEM_SHAPE_VOLUME>
162.5

> <PUBCHEM_COORDINATE_TYPE>
2
5
10

$$$$
