15549893
  -OEChem-09052013553D

 39 40  0     0  0  0  0  0  0999 V2000
   -2.9262    2.3693    0.2544 O   0  0  0  0  0  0  0  0  0  0  0  0
   -0.6054    2.2196   -1.0555 O   0  0  0  0  0  0  0  0  0  0  0  0
   -5.3869   -1.7097    0.3362 O   0  0  0  0  0  0  0  0  0  0  0  0
    6.7483   -1.6114    0.3900 O   0  0  0  0  0  0  0  0  0  0  0  0
    1.8989    1.2207   -0.1519 C   0  0  0  0  0  0  0  0  0  0  0  0
    0.7394    0.2922   -0.5204 C   0  0  0  0  0  0  0  0  0  0  0  0
    3.1941    0.4641   -0.0073 C   0  0  0  0  0  0  0  0  0  0  0  0
   -0.6019    1.0283   -0.6865 C   0  0  0  0  0  0  0  0  0  0  0  0
   -1.8511    0.3313   -0.4134 C   0  0  0  0  0  0  0  0  0  0  0  0
   -2.9716    1.0231    0.0469 C   0  0  0  0  0  0  0  0  0  0  0  0
    3.5472   -0.0525    1.2305 C   0  0  0  0  0  0  0  0  0  0  0  0
    4.0128    0.2964   -1.1145 C   0  0  0  0  0  0  0  0  0  0  0  0
   -1.9191   -1.0462   -0.6226 C   0  0  0  0  0  0  0  0  0  0  0  0
   -4.1599    0.3373    0.2984 C   0  0  0  0  0  0  0  0  0  0  0  0
   -4.2278   -1.0403    0.0892 C   0  0  0  0  0  0  0  0  0  0  0  0
   -3.1072   -1.7319   -0.3712 C   0  0  0  0  0  0  0  0  0  0  0  0
    4.7461   -0.7526    1.3643 C   0  0  0  0  0  0  0  0  0  0  0  0
    5.2118   -0.4038   -0.9807 C   0  0  0  0  0  0  0  0  0  0  0  0
    5.5785   -0.9284    0.2588 C   0  0  0  0  0  0  0  0  0  0  0  0
   -2.5339    2.8116    1.5521 C   0  0  0  0  0  0  0  0  0  0  0  0
   -5.3861   -3.1173    0.1030 C   0  0  0  0  0  0  0  0  0  0  0  0
    2.0154    2.0041   -0.9121 H   0  0  0  0  0  0  0  0  0  0  0  0
    1.6701    1.7542    0.7799 H   0  0  0  0  0  0  0  0  0  0  0  0
    0.6330   -0.4650    0.2658 H   0  0  0  0  0  0  0  0  0  0  0  0
    0.9507   -0.2240   -1.4645 H   0  0  0  0  0  0  0  0  0  0  0  0
    2.9047    0.0775    2.0968 H   0  0  0  0  0  0  0  0  0  0  0  0
    3.7350    0.6996   -2.0842 H   0  0  0  0  0  0  0  0  0  0  0  0
   -1.0691   -1.6101   -0.9966 H   0  0  0  0  0  0  0  0  0  0  0  0
   -5.0343    0.8752    0.6562 H   0  0  0  0  0  0  0  0  0  0  0  0
   -3.0920   -2.8002   -0.5581 H   0  0  0  0  0  0  0  0  0  0  0  0
    5.0201   -1.1566    2.3352 H   0  0  0  0  0  0  0  0  0  0  0  0
    5.8558   -0.5378   -1.8455 H   0  0  0  0  0  0  0  0  0  0  0  0
   -1.5410    2.4308    1.8116 H   0  0  0  0  0  0  0  0  0  0  0  0
   -3.2652    2.4909    2.3007 H   0  0  0  0  0  0  0  0  0  0  0  0
   -2.4977    3.9044    1.5449 H   0  0  0  0  0  0  0  0  0  0  0  0
    6.8416   -1.9023    1.3134 H   0  0  0  0  0  0  0  0  0  0  0  0
   -6.3863   -3.4866    0.3519 H   0  0  0  0  0  0  0  0  0  0  0  0
   -4.6811   -3.6342    0.7628 H   0  0  0  0  0  0  0  0  0  0  0  0
   -5.2131   -3.3500   -0.9532 H   0  0  0  0  0  0  0  0  0  0  0  0
  1 10  1  0  0  0  0
  1 20  1  0  0  0  0
  2  8  2  0  0  0  0
  3 15  1  0  0  0  0
  3 21  1  0  0  0  0
  4 19  1  0  0  0  0
  4 36  1  0  0  0  0
  5  6  1  0  0  0  0
  5  7  1  0  0  0  0
  5 22  1  0  0  0  0
  5 23  1  0  0  0  0
  6  8  1  0  0  0  0
  6 24  1  0  0  0  0
  6 25  1  0  0  0  0
  7 11  2  0  0  0  0
  7 12  1  0  0  0  0
  8  9  1  0  0  0  0
  9 10  2  0  0  0  0
  9 13  1  0  0  0  0
 10 14  1  0  0  0  0
 11 17  1  0  0  0  0
 11 26  1  0  0  0  0
 12 18  2  0  0  0  0
 12 27  1  0  0  0  0
 13 16  2  0  0  0  0
 13 28  1  0  0  0  0
 14 15  2  0  0  0  0
 14 29  1  0  0  0  0
 15 16  1  0  0  0  0
 16 30  1  0  0  0  0
 17 19  2  0  0  0  0
 17 31  1  0  0  0  0
 18 19  1  0  0  0  0
 18 32  1  0  0  0  0
 20 33  1  0  0  0  0
 20 34  1  0  0  0  0
 20 35  1  0  0  0  0
 21 37  1  0  0  0  0
 21 38  1  0  0  0  0
 21 39  1  0  0  0  0
M  END
> <PUBCHEM_COMPOUND_CID>
15549893

> <PUBCHEM_CONFORMER_RMSD>
0.8

> <PUBCHEM_CONFORMER_DIVERSEORDER>
2
22
49
20
4
54
77
50
66
12
59
18
85
30
25
64
29
58
86
52
16
11
73
28
17
87
6
10
31
27
76
81
82
19
62
53
57
63
5
55
24
1
65
70
8
41
26
71
45
56
43
61
39
42
67
69
80
37
75
84
14
23
7
34
51
33
79
78
46
9
74
44
3
47
72
48
36
68
13
32
38
40
15
21
60
35
83

> <PUBCHEM_MMFF94_PARTIAL_CHARGES>
29
1 -0.36
10 0.08
11 -0.15
12 -0.15
13 -0.15
14 -0.15
15 0.08
16 -0.15
17 -0.15
18 -0.15
19 0.08
2 -0.57
20 0.28
21 0.28
26 0.15
27 0.15
28 0.15
29 0.15
3 -0.36
30 0.15
31 0.15
32 0.15
36 0.45
4 -0.53
5 0.14
6 0.06
7 -0.14
8 0.42
9 0.09

> <PUBCHEM_EFFECTIVE_ROTOR_COUNT>
6

> <PUBCHEM_PHARMACOPHORE_FEATURES>
6
1 1 acceptor
1 2 acceptor
1 3 acceptor
1 4 donor
6 7 11 12 17 18 19 rings
6 9 10 13 14 15 16 rings

> <PUBCHEM_HEAVY_ATOM_COUNT>
21

> <PUBCHEM_ATOM_DEF_STEREO_COUNT>
0

> <PUBCHEM_ATOM_UDEF_STEREO_COUNT>
0

> <PUBCHEM_BOND_DEF_STEREO_COUNT>
0

> <PUBCHEM_BOND_UDEF_STEREO_COUNT>
0

> <PUBCHEM_ISOTOPIC_ATOM_COUNT>
0

> <PUBCHEM_COMPONENT_COUNT>
1

> <PUBCHEM_CACTVS_TAUTO_COUNT>
4

> <PUBCHEM_CONFORMER_ID>
00ED45C500000002

> <PUBCHEM_MMFF94_ENERGY>
76.624

> <PUBCHEM_FEATURE_SELFOVERLAP>
30.454

> <PUBCHEM_SHAPE_FINGERPRINT>
10319926 262 18059861623426860982
10912923 1 18187654583169518020
11046707 91 18334010588210452901
11089746 13 10879694483038146498
11315181 36 18408886222240082224
11545043 162 18059571361073734944
12107183 9 17761492491715451368
12236239 1 18113059333221117532
12596602 18 18410853274543988928
12633257 1 16629966658545786007
12760667 363 18410570734568590119
12916754 54 18261110794040967588
13009979 54 18410020956805254789
13073987 5 18413668007431711552
13167823 11 18334012791981992462
13288520 33 18333731303656247365
13533116 47 18190182471469492557
13583140 156 17131825426730043060
13675066 3 17274819134684271516
13862211 1 18339922735938785415
14178342 30 18270408187050385045
1420 369 18334009531674819690
14341114 176 18271806852035843024
14420673 8 18126572215300050254
14576447 43 17531241735072306850
15042514 8 18412266142906984637
15188451 53 18341324565523310439
15537594 2 17895195433578060752
15880784 105 18408605864160564816
17780758 139 18342734087816704240
17804303 29 18342740745163777421
17844677 252 18272373070775933224
17857418 61 18113331999304306410
1813 80 17822016406272742844
18222031 100 18041275560195934316
19784866 240 17894351107369067807
200 152 16877662340338878428
20028762 73 18270399524218348639
20281475 54 18261109656312159028
20645477 70 15647044937845900368
21033648 29 16486678170249399720
21267235 1 18334018319536720355
21315759 148 18060137609936631170
22950370 63 18260832596530076244
2297311 6 18201733867663858197
23402539 116 18413103974924868741
23522609 53 17971785223632306796
23559900 14 18339633555479574145
2838139 119 13181086600278718939
3004659 81 17603579751355890150
312423 11 18334301989273523972
351380 3 18187080672153621558
4214541 1 18412262800900292868
4409770 3 17899125023364206669
465052 167 18337113466201652574
5104073 3 18201441401818637576
559249 180 18261670394267622199
573450 72 18408604734162100988
57724786 102 14548449293550300010
59682541 52 13552009123645331778
602551 16 18341894078613845950
7970288 3 18334291019531839682

> <PUBCHEM_SHAPE_MULTIPOLES>
408.69
14.7
2.62
1.13
11.98
0.21
0.19
-10.59
2.4
-4.54
0.54
0.87
0.31
-0.85

> <PUBCHEM_SHAPE_SELFOVERLAP>
866.955

> <PUBCHEM_SHAPE_VOLUME>
228.4

> <PUBCHEM_COORDINATE_TYPE>
2
5
10

$$$$
