5321859
  -OEChem-09052014083D

 39 41  0     0  0  0  0  0  0999 V2000
    0.3327    0.3533    0.1152 O   0  0  0  0  0  0  0  0  0  0  0  0
   -1.2050    2.5698    0.3710 O   0  0  0  0  0  0  0  0  0  0  0  0
   -5.1718   -0.0408   -0.1344 O   0  0  0  0  0  0  0  0  0  0  0  0
   -3.6787   -2.3094   -0.3975 O   0  0  0  0  0  0  0  0  0  0  0  0
   -3.9522    2.3986    0.2497 O   0  0  0  0  0  0  0  0  0  0  0  0
   -1.2829   -3.3433   -0.4536 O   0  0  0  0  0  0  0  0  0  0  0  0
    4.9434    2.1812   -0.6849 O   0  0  0  0  0  0  0  0  0  0  0  0
    6.6544    0.2477    0.3447 O   0  0  0  0  0  0  0  0  0  0  0  0
   -1.6475   -1.0287   -0.1477 C   0  0  0  0  0  0  0  0  0  0  0  0
   -1.0295    0.2056    0.0463 C   0  0  0  0  0  0  0  0  0  0  0  0
   -1.8027    1.3589    0.1805 C   0  0  0  0  0  0  0  0  0  0  0  0
    1.1272   -0.7747   -0.0226 C   0  0  0  0  0  0  0  0  0  0  0  0
   -3.0400   -1.1197   -0.2093 C   0  0  0  0  0  0  0  0  0  0  0  0
   -0.8081   -2.2288   -0.2845 C   0  0  0  0  0  0  0  0  0  0  0  0
   -3.8108    0.0357   -0.0752 C   0  0  0  0  0  0  0  0  0  0  0  0
   -3.1938    1.2724    0.1193 C   0  0  0  0  0  0  0  0  0  0  0  0
    0.6513   -2.0164   -0.2064 C   0  0  0  0  0  0  0  0  0  0  0  0
    2.5757   -0.5034    0.0724 C   0  0  0  0  0  0  0  0  0  0  0  0
    3.0895    0.7238   -0.3543 C   0  0  0  0  0  0  0  0  0  0  0  0
    3.4389   -1.4729    0.5890 C   0  0  0  0  0  0  0  0  0  0  0  0
    4.4577    0.9799   -0.2647 C   0  0  0  0  0  0  0  0  0  0  0  0
    4.8071   -1.2169    0.6785 C   0  0  0  0  0  0  0  0  0  0  0  0
    5.3164    0.0095    0.2518 C   0  0  0  0  0  0  0  0  0  0  0  0
   -0.8773    3.3199   -0.7962 C   0  0  0  0  0  0  0  0  0  0  0  0
   -5.8940    0.3988    1.0130 C   0  0  0  0  0  0  0  0  0  0  0  0
    1.2748   -2.8947   -0.3262 H   0  0  0  0  0  0  0  0  0  0  0  0
    2.4385    1.4910   -0.7676 H   0  0  0  0  0  0  0  0  0  0  0  0
    3.0790   -2.4318    0.9524 H   0  0  0  0  0  0  0  0  0  0  0  0
    5.4706   -1.9748    1.0862 H   0  0  0  0  0  0  0  0  0  0  0  0
   -3.0399   -3.0337   -0.4782 H   0  0  0  0  0  0  0  0  0  0  0  0
   -3.3628    3.1516    0.4269 H   0  0  0  0  0  0  0  0  0  0  0  0
   -1.7726    3.5254   -1.3914 H   0  0  0  0  0  0  0  0  0  0  0  0
   -0.1403    2.7838   -1.4024 H   0  0  0  0  0  0  0  0  0  0  0  0
   -0.4422    4.2719   -0.4802 H   0  0  0  0  0  0  0  0  0  0  0  0
   -5.3069    0.3080    1.9336 H   0  0  0  0  0  0  0  0  0  0  0  0
   -6.7826   -0.2315    1.1131 H   0  0  0  0  0  0  0  0  0  0  0  0
   -6.2270    1.4310    0.8735 H   0  0  0  0  0  0  0  0  0  0  0  0
    5.8879    2.0976   -0.8931 H   0  0  0  0  0  0  0  0  0  0  0  0
    6.8166    1.2047    0.3542 H   0  0  0  0  0  0  0  0  0  0  0  0
  1 10  1  0  0  0  0
  1 12  1  0  0  0  0
  2 11  1  0  0  0  0
  2 24  1  0  0  0  0
  3 15  1  0  0  0  0
  3 25  1  0  0  0  0
  4 13  1  0  0  0  0
  4 30  1  0  0  0  0
  5 16  1  0  0  0  0
  5 31  1  0  0  0  0
  6 14  2  0  0  0  0
  7 21  1  0  0  0  0
  7 38  1  0  0  0  0
  8 23  1  0  0  0  0
  8 39  1  0  0  0  0
  9 10  1  0  0  0  0
  9 13  2  0  0  0  0
  9 14  1  0  0  0  0
 10 11  2  0  0  0  0
 11 16  1  0  0  0  0
 12 17  2  0  0  0  0
 12 18  1  0  0  0  0
 13 15  1  0  0  0  0
 14 17  1  0  0  0  0
 15 16  2  0  0  0  0
 17 26  1  0  0  0  0
 18 19  2  0  0  0  0
 18 20  1  0  0  0  0
 19 21  1  0  0  0  0
 19 27  1  0  0  0  0
 20 22  2  0  0  0  0
 20 28  1  0  0  0  0
 21 23  2  0  0  0  0
 22 23  1  0  0  0  0
 22 29  1  0  0  0  0
 24 32  1  0  0  0  0
 24 33  1  0  0  0  0
 24 34  1  0  0  0  0
 25 35  1  0  0  0  0
 25 36  1  0  0  0  0
 25 37  1  0  0  0  0
M  END
> <PUBCHEM_COMPOUND_CID>
5321859

> <PUBCHEM_CONFORMER_RMSD>
0.6

> <PUBCHEM_CONFORMER_DIVERSEORDER>
3
5
9
8
2
11
1
12
7
10
4
6

> <PUBCHEM_MMFF94_PARTIAL_CHARGES>
33
1 -0.16
10 0.08
11 0.08
12 0.05
13 0.08
14 0.47
15 0.08
16 0.08
17 -0.14
18 0.03
19 -0.15
2 -0.36
20 -0.15
21 0.08
22 -0.15
23 0.08
24 0.28
25 0.28
26 0.15
27 0.15
28 0.15
29 0.15
3 -0.36
30 0.45
31 0.45
38 0.45
39 0.45
4 -0.53
5 -0.53
6 -0.57
7 -0.53
8 -0.53
9 0.09

> <PUBCHEM_EFFECTIVE_ROTOR_COUNT>
3

> <PUBCHEM_PHARMACOPHORE_FEATURES>
11
1 1 acceptor
1 2 acceptor
1 3 acceptor
1 4 donor
1 5 donor
1 6 acceptor
1 7 donor
1 8 donor
6 1 9 10 12 14 17 rings
6 18 19 20 21 22 23 rings
6 9 10 11 13 15 16 rings

> <PUBCHEM_HEAVY_ATOM_COUNT>
25

> <PUBCHEM_ATOM_DEF_STEREO_COUNT>
0

> <PUBCHEM_ATOM_UDEF_STEREO_COUNT>
0

> <PUBCHEM_BOND_DEF_STEREO_COUNT>
0

> <PUBCHEM_BOND_UDEF_STEREO_COUNT>
0

> <PUBCHEM_ISOTOPIC_ATOM_COUNT>
0

> <PUBCHEM_COMPONENT_COUNT>
1

> <PUBCHEM_CACTVS_TAUTO_COUNT>
162

> <PUBCHEM_CONFORMER_ID>
0051348300000003

> <PUBCHEM_MMFF94_ENERGY>
98.5295

> <PUBCHEM_FEATURE_SELFOVERLAP>
55.862

> <PUBCHEM_SHAPE_FINGERPRINT>
10411042 1 17835800077445095479
10493431 412 18271252634256933867
10670039 82 18263659394070910292
10906281 52 18341630217192592555
1100329 8 18339365291948392225
11595378 159 17968919921698679968
12107183 9 17759514474766337394
12236239 1 18040714761952445843
12390115 104 17986968366144976241
12403814 3 18259982643787247141
12596602 18 17385442115797659640
12788726 201 17917440799733552096
12838862 33 18339906153048709361
13140716 1 18268718384677812371
13533116 47 17386281000610603978
13583140 156 17168140105303939833
14117953 113 18191586354497603932
14341114 176 18336829697902062738
14790565 3 18341057328558813161
15042514 8 18410294756780974003
15196674 1 18338797818887824136
17492 89 18191302667839588666
20510252 161 18272088240827981400
20642791 178 18262815076494140461
20715895 44 18119522133594202077
21236236 1 18342737464130847951
21267235 1 18408892819082859202
21652331 79 18408322177075093292
23227448 37 18341331179830773916
23402539 116 18343013423825907119
23559900 14 18272647987463787008
3178227 256 18337405924227195963
335352 9 18411979183430857325
350125 39 18410291372530919368
3545911 37 18411982447368670530
3680242 22 18338805506995445920
4214541 1 18410854348338267602
474 4 17531813579786999220
474229 33 18411700967801768875
5104073 3 18336824290343169522
59755656 215 18272377426099585886
59755656 520 17095522915772233418
9709674 26 18412831278830428926
9981440 41 18336267855829067595

> <PUBCHEM_SHAPE_MULTIPOLES>
467.53
12.45
3.06
0.75
8.15
0.52
0.04
2.42
2.16
-1.47
-0.64
-0.07
0.05
-0.95

> <PUBCHEM_SHAPE_SELFOVERLAP>
1037.188

> <PUBCHEM_SHAPE_VOLUME>
249.6

> <PUBCHEM_COORDINATE_TYPE>
2
5
10

$$$$
