21159064
  -OEChem-08272014383D

 39 39  0     0  0  0  0  0  0999 V2000
   -2.3661    0.3836   -0.0880 C   0  0  0  0  0  0  0  0  0  0  0  0
   -1.6454   -0.7552   -0.8687 C   0  0  0  0  0  0  0  0  0  0  0  0
   -1.5208    1.0726    0.9781 C   0  0  0  0  0  0  0  0  0  0  0  0
   -3.6191   -0.2060    0.6088 C   0  0  0  0  0  0  0  0  0  0  0  0
   -2.8677    1.4376   -1.0983 C   0  0  0  0  0  0  0  0  0  0  0  0
    1.4067   -1.5548   -1.0197 C   0  0  0  0  0  0  0  0  0  0  0  0
   -0.9238   -1.7687   -0.0197 C   0  0  0  0  0  0  0  0  0  0  0  0
    2.6449   -0.9415   -0.3514 C   0  0  0  0  0  0  0  0  0  0  0  0
    0.3752   -2.1271   -0.0682 C   0  0  0  0  0  0  0  0  0  0  0  0
    2.3804    0.1900    0.6492 C   0  0  0  0  0  0  0  0  0  0  0  0
    0.5782    1.8459   -0.2877 C   0  0  0  0  0  0  0  0  0  0  0  0
   -0.3270    1.6835    0.8974 C   0  0  0  0  0  0  0  0  0  0  0  0
    2.0247    1.5249    0.0273 C   0  0  0  0  0  0  0  0  0  0  0  0
    0.8744   -3.2217    0.8429 C   0  0  0  0  0  0  0  0  0  0  0  0
    2.9854    2.4370   -0.2020 C   0  0  0  0  0  0  0  0  0  0  0  0
   -0.9910   -0.3295   -1.6305 H   0  0  0  0  0  0  0  0  0  0  0  0
   -2.3968   -1.3097   -1.4494 H   0  0  0  0  0  0  0  0  0  0  0  0
   -1.9794    1.1135    1.9678 H   0  0  0  0  0  0  0  0  0  0  0  0
   -4.2702   -0.7165   -0.1103 H   0  0  0  0  0  0  0  0  0  0  0  0
   -3.3519   -0.9286    1.3879 H   0  0  0  0  0  0  0  0  0  0  0  0
   -4.2168    0.5803    1.0865 H   0  0  0  0  0  0  0  0  0  0  0  0
   -3.5523    0.9887   -1.8276 H   0  0  0  0  0  0  0  0  0  0  0  0
   -3.4062    2.2501   -0.5960 H   0  0  0  0  0  0  0  0  0  0  0  0
   -2.0427    1.8881   -1.6606 H   0  0  0  0  0  0  0  0  0  0  0  0
    1.7456   -2.3730   -1.6695 H   0  0  0  0  0  0  0  0  0  0  0  0
    0.9796   -0.8182   -1.7020 H   0  0  0  0  0  0  0  0  0  0  0  0
   -1.5615   -2.2881    0.6941 H   0  0  0  0  0  0  0  0  0  0  0  0
    3.1926   -1.7366    0.1707 H   0  0  0  0  0  0  0  0  0  0  0  0
    3.3238   -0.5850   -1.1370 H   0  0  0  0  0  0  0  0  0  0  0  0
    3.3004    0.3194    1.2373 H   0  0  0  0  0  0  0  0  0  0  0  0
    1.6286   -0.1077    1.3875 H   0  0  0  0  0  0  0  0  0  0  0  0
    0.2626    1.2468   -1.1399 H   0  0  0  0  0  0  0  0  0  0  0  0
    0.4908    2.8903   -0.6154 H   0  0  0  0  0  0  0  0  0  0  0  0
    0.0342    2.1477    1.8158 H   0  0  0  0  0  0  0  0  0  0  0  0
    1.3721   -4.0034    0.2597 H   0  0  0  0  0  0  0  0  0  0  0  0
    0.0639   -3.7002    1.4033 H   0  0  0  0  0  0  0  0  0  0  0  0
    1.5853   -2.8227    1.5729 H   0  0  0  0  0  0  0  0  0  0  0  0
    4.0255    2.2324    0.0298 H   0  0  0  0  0  0  0  0  0  0  0  0
    2.7567    3.4070   -0.6309 H   0  0  0  0  0  0  0  0  0  0  0  0
  1  2  1  0  0  0  0
  1  3  1  0  0  0  0
  1  4  1  0  0  0  0
  1  5  1  0  0  0  0
  2  7  1  0  0  0  0
  2 16  1  0  0  0  0
  2 17  1  0  0  0  0
  3 12  2  0  0  0  0
  3 18  1  0  0  0  0
  4 19  1  0  0  0  0
  4 20  1  0  0  0  0
  4 21  1  0  0  0  0
  5 22  1  0  0  0  0
  5 23  1  0  0  0  0
  5 24  1  0  0  0  0
  6  8  1  0  0  0  0
  6  9  1  0  0  0  0
  6 25  1  0  0  0  0
  6 26  1  0  0  0  0
  7  9  2  0  0  0  0
  7 27  1  0  0  0  0
  8 10  1  0  0  0  0
  8 28  1  0  0  0  0
  8 29  1  0  0  0  0
  9 14  1  0  0  0  0
 10 13  1  0  0  0  0
 10 30  1  0  0  0  0
 10 31  1  0  0  0  0
 11 12  1  0  0  0  0
 11 13  1  0  0  0  0
 11 32  1  0  0  0  0
 11 33  1  0  0  0  0
 12 34  1  0  0  0  0
 13 15  2  0  0  0  0
 14 35  1  0  0  0  0
 14 36  1  0  0  0  0
 14 37  1  0  0  0  0
 15 38  1  0  0  0  0
 15 39  1  0  0  0  0
M  END
> <PUBCHEM_COMPOUND_CID>
21159064

> <PUBCHEM_CONFORMER_RMSD>
0.6

> <PUBCHEM_CONFORMER_DIVERSEORDER>
1
3
7
2
8
6
9
5
4

> <PUBCHEM_MMFF94_PARTIAL_CHARGES>
17
1 0.14
10 0.14
11 0.28
12 -0.29
13 -0.28
14 0.14
15 -0.3
18 0.15
2 0.14
27 0.15
3 -0.29
34 0.15
38 0.15
39 0.15
6 0.14
7 -0.29
9 -0.28

> <PUBCHEM_EFFECTIVE_ROTOR_COUNT>
1.2

> <PUBCHEM_PHARMACOPHORE_FEATURES>
1
3 1 4 5 hydrophobe

> <PUBCHEM_HEAVY_ATOM_COUNT>
15

> <PUBCHEM_ATOM_DEF_STEREO_COUNT>
0

> <PUBCHEM_ATOM_UDEF_STEREO_COUNT>
0

> <PUBCHEM_BOND_DEF_STEREO_COUNT>
2

> <PUBCHEM_BOND_UDEF_STEREO_COUNT>
0

> <PUBCHEM_ISOTOPIC_ATOM_COUNT>
0

> <PUBCHEM_COMPONENT_COUNT>
1

> <PUBCHEM_CACTVS_TAUTO_COUNT>
1

> <PUBCHEM_CONFORMER_ID>
0142DC9800000001

> <PUBCHEM_MMFF94_ENERGY>
31.4083

> <PUBCHEM_FEATURE_SELFOVERLAP>
5.074

> <PUBCHEM_SHAPE_FINGERPRINT>
13140716 1 18412261765696838066
13618510 140 18411699923802982156
14250199 8 18201440220702176039
14251711 518 18198899202149412639
14251717 144 18413385454170289575
14817 1 10513277589288432662
15775835 57 18268433605937840565
16945 1 18339361838330280683
18219364 16 18407760326559232391
20645476 183 18044948006474051372
20645477 70 18343299237268037525
21160774 45 17905045111668228412
21524375 3 18269548510839266230
2334 1 18268708492529469766
23419403 2 16186441251365429351
23552423 10 18340770325763571865
238 59 17979596256718728173
257057 1 17471843715140720218
2748010 2 18340211898394746030
2897 32 18412545396704919860
353137 74 18271524191347140441
5262128 65 17773610316433469422
528862 383 18411982447115430587
63268167 104 18194684765373973030
66348 1 17981046306085752902
7832392 63 17624145901183101921
81228 2 17259044720253563467

> <PUBCHEM_SHAPE_MULTIPOLES>
308.69
4.74
3.27
1.05
1.5
1.35
-0.02
-1.84
-0.23
-1.87
0.3
0.28
0.02
0.08

> <PUBCHEM_SHAPE_SELFOVERLAP>
601.745

> <PUBCHEM_SHAPE_VOLUME>
183.2

> <PUBCHEM_COORDINATE_TYPE>
2
5
10

$$$$
