521851
  -OEChem-08272014123D

 26 26  0     1  0  0  0  0  0999 V2000
    2.1328    0.1042    0.3317 C   0  0  1  0  0  0  0  0  0  0  0  0
    1.4468    1.1252   -0.5819 C   0  0  0  0  0  0  0  0  0  0  0  0
    1.4630   -1.2722    0.1891 C   0  0  0  0  0  0  0  0  0  0  0  0
   -0.0413    1.2596   -0.2401 C   0  0  0  0  0  0  0  0  0  0  0  0
   -0.7260   -0.0640   -0.0098 C   0  0  0  0  0  0  0  0  0  0  0  0
   -0.0369   -1.2038    0.1693 C   0  0  0  0  0  0  0  0  0  0  0  0
    3.6274    0.0129    0.0326 C   0  0  0  0  0  0  0  0  0  0  0  0
   -2.1681   -0.0488   -0.0006 C   0  0  0  0  0  0  0  0  0  0  0  0
   -2.8177    1.1116    0.6920 C   0  0  0  0  0  0  0  0  0  0  0  0
   -2.8801   -1.0248   -0.5824 C   0  0  0  0  0  0  0  0  0  0  0  0
    2.0189    0.4410    1.3715 H   0  0  0  0  0  0  0  0  0  0  0  0
    1.5534    0.8157   -1.6301 H   0  0  0  0  0  0  0  0  0  0  0  0
    1.9284    2.1063   -0.4917 H   0  0  0  0  0  0  0  0  0  0  0  0
    1.7793   -1.9098    1.0235 H   0  0  0  0  0  0  0  0  0  0  0  0
    1.7927   -1.7673   -0.7327 H   0  0  0  0  0  0  0  0  0  0  0  0
   -0.5260    1.8064   -1.0586 H   0  0  0  0  0  0  0  0  0  0  0  0
   -0.1348    1.8744    0.6643 H   0  0  0  0  0  0  0  0  0  0  0  0
   -0.5455   -2.1514    0.3299 H   0  0  0  0  0  0  0  0  0  0  0  0
    4.1131   -0.7069    0.6998 H   0  0  0  0  0  0  0  0  0  0  0  0
    3.8090   -0.3048   -0.9997 H   0  0  0  0  0  0  0  0  0  0  0  0
    4.1116    0.9845    0.1771 H   0  0  0  0  0  0  0  0  0  0  0  0
   -2.4245    1.2310    1.7077 H   0  0  0  0  0  0  0  0  0  0  0  0
   -3.9007    0.9700    0.7837 H   0  0  0  0  0  0  0  0  0  0  0  0
   -2.6614    2.0448    0.1410 H   0  0  0  0  0  0  0  0  0  0  0  0
   -3.9657   -1.0032   -0.5682 H   0  0  0  0  0  0  0  0  0  0  0  0
   -2.4234   -1.8603   -1.1030 H   0  0  0  0  0  0  0  0  0  0  0  0
  1  2  1  0  0  0  0
  1  3  1  0  0  0  0
  1  7  1  0  0  0  0
  1 11  1  0  0  0  0
  2  4  1  0  0  0  0
  2 12  1  0  0  0  0
  2 13  1  0  0  0  0
  3  6  1  0  0  0  0
  3 14  1  0  0  0  0
  3 15  1  0  0  0  0
  4  5  1  0  0  0  0
  4 16  1  0  0  0  0
  4 17  1  0  0  0  0
  5  6  2  0  0  0  0
  5  8  1  0  0  0  0
  6 18  1  0  0  0  0
  7 19  1  0  0  0  0
  7 20  1  0  0  0  0
  7 21  1  0  0  0  0
  8  9  1  0  0  0  0
  8 10  2  0  0  0  0
  9 22  1  0  0  0  0
  9 23  1  0  0  0  0
  9 24  1  0  0  0  0
 10 25  1  0  0  0  0
 10 26  1  0  0  0  0
M  END
> <PUBCHEM_COMPOUND_CID>
521851

> <PUBCHEM_CONFORMER_RMSD>
0.4

> <PUBCHEM_CONFORMER_DIVERSEORDER>
1
3
2
4

> <PUBCHEM_MMFF94_PARTIAL_CHARGES>
10
10 -0.3
18 0.15
25 0.15
26 0.15
3 0.14
4 0.14
5 -0.14
6 -0.29
8 -0.14
9 0.14

> <PUBCHEM_EFFECTIVE_ROTOR_COUNT>
1.8

> <PUBCHEM_PHARMACOPHORE_FEATURES>
1
6 1 2 3 4 5 6 rings

> <PUBCHEM_HEAVY_ATOM_COUNT>
10

> <PUBCHEM_ATOM_DEF_STEREO_COUNT>
0

> <PUBCHEM_ATOM_UDEF_STEREO_COUNT>
1

> <PUBCHEM_BOND_DEF_STEREO_COUNT>
0

> <PUBCHEM_BOND_UDEF_STEREO_COUNT>
0

> <PUBCHEM_ISOTOPIC_ATOM_COUNT>
0

> <PUBCHEM_COMPONENT_COUNT>
1

> <PUBCHEM_CACTVS_TAUTO_COUNT>
1

> <PUBCHEM_CONFORMER_ID>
0007F67B00000001

> <PUBCHEM_MMFF94_ENERGY>
13.2727

> <PUBCHEM_FEATURE_SELFOVERLAP>
5.074

> <PUBCHEM_SHAPE_FINGERPRINT>
10219947 1 18113617885054031476
11062470 55 16226041189047060822
12932764 1 15719391762933145609
14128692 85 18270675493114563351
14325111 11 18412262848107672040
14993402 34 18334011726656133886
15775835 57 18271530814313499857
16945 1 18040435490362425822
19026448 4 16774079574826470412
193761 8 17543062390660080238
20201158 50 18113896065469313171
21040471 1 18337113487454461862
23235685 24 18334855022009788800
23402655 69 18193255435493517501
23552423 10 18335140869094616135
2748010 2 17902224520966937668
29004967 10 17676492717694323737
3248919 1 18187366549197231275
369184 2 17418372510534871249
5084963 1 18260822752201172661
528886 8 18409163298916723595
63268167 104 18335980883093192289

> <PUBCHEM_SHAPE_MULTIPOLES>
205.8
4.96
1.44
0.76
0.68
0.01
0
-0.03
-0.18
-0.24
0.03
-0.15
-0.06
-0.51

> <PUBCHEM_SHAPE_SELFOVERLAP>
406.356

> <PUBCHEM_SHAPE_VOLUME>
122.2

> <PUBCHEM_COORDINATE_TYPE>
2
5
10

$$$$
