146020857
  -OEChem-08272015512D

 50 51  0     1  0  0  0  0  0999 V2000
    4.9641   -1.4145    0.0000 O   0  0  0  0  0  0  0  0  0  0  0  0
    3.7320   -0.5485    0.0000 O   0  0  0  0  0  0  0  0  0  0  0  0
    2.8660    0.9515    0.0000 O   0  0  0  0  0  0  0  0  0  0  0  0
    6.3301    0.9515    0.0000 C   0  0  2  0  0  0  0  0  0  0  0  0
    6.3301   -0.0485    0.0000 C   0  0  1  0  0  0  0  0  0  0  0  0
    5.4641   -0.5485    0.0000 C   0  0  2  0  0  0  0  0  0  0  0  0
    7.2241   -0.5832    0.0000 C   0  0  0  0  0  0  0  0  0  0  0  0
    7.2241    1.4861    0.0000 C   0  0  0  0  0  0  0  0  0  0  0  0
    8.1301   -0.0693    0.0000 C   0  0  1  0  0  0  0  0  0  0  0  0
    5.4641    1.4515    0.0000 C   0  0  0  0  0  0  0  0  0  0  0  0
    8.1301    0.9723    0.0000 C   0  0  0  0  0  0  0  0  0  0  0  0
    4.5981   -0.0485    0.0000 C   0  0  3  0  0  0  0  0  0  0  0  0
    4.5981    0.9515    0.0000 C   0  0  0  0  0  0  0  0  0  0  0  0
    6.3301    1.9515    0.0000 C   0  0  0  0  0  0  0  0  0  0  0  0
    8.9942   -0.5727    0.0000 C   0  0  0  0  0  0  0  0  0  0  0  0
    5.9641   -1.4145    0.0000 C   0  0  0  0  0  0  0  0  0  0  0  0
    9.8622   -0.0760    0.0000 C   0  0  0  0  0  0  0  0  0  0  0  0
    8.9904   -1.5727    0.0000 C   0  0  0  0  0  0  0  0  0  0  0  0
    2.8660   -0.0485    0.0000 C   0  0  0  0  0  0  0  0  0  0  0  0
    2.0000   -0.5485    0.0000 C   0  0  0  0  0  0  0  0  0  0  0  0
    6.3236   -0.8985    0.0000 H   0  0  0  0  0  0  0  0  0  0  0  0
    6.8195   -1.0530    0.0000 H   0  0  0  0  0  0  0  0  0  0  0  0
    7.6177   -1.0622    0.0000 H   0  0  0  0  0  0  0  0  0  0  0  0
    7.6177    1.9652    0.0000 H   0  0  0  0  0  0  0  0  0  0  0  0
    6.8195    1.9559    0.0000 H   0  0  0  0  0  0  0  0  0  0  0  0
    8.1266   -0.6893    0.0000 H   0  0  0  0  0  0  0  0  0  0  0  0
    5.8626    1.9264    0.0000 H   0  0  0  0  0  0  0  0  0  0  0  0
    5.0656    1.9264    0.0000 H   0  0  0  0  0  0  0  0  0  0  0  0
    8.7410    0.8662    0.0000 H   0  0  0  0  0  0  0  0  0  0  0  0
    8.3392    1.5560    0.0000 H   0  0  0  0  0  0  0  0  0  0  0  0
    4.5981   -0.6685    0.0000 H   0  0  0  0  0  0  0  0  0  0  0  0
    4.3860    1.5341    0.0000 H   0  0  0  0  0  0  0  0  0  0  0  0
    3.9875    0.8438    0.0000 H   0  0  0  0  0  0  0  0  0  0  0  0
    6.9501    1.9515    0.0000 H   0  0  0  0  0  0  0  0  0  0  0  0
    6.3301    2.5715    0.0000 H   0  0  0  0  0  0  0  0  0  0  0  0
    5.7101    1.9515    0.0000 H   0  0  0  0  0  0  0  0  0  0  0  0
    8.9966    0.0473    0.0000 H   0  0  0  0  0  0  0  0  0  0  0  0
    5.4272   -1.7245    0.0000 H   0  0  0  0  0  0  0  0  0  0  0  0
    6.2741   -1.9515    0.0000 H   0  0  0  0  0  0  0  0  0  0  0  0
    6.5010   -1.1045    0.0000 H   0  0  0  0  0  0  0  0  0  0  0  0
    5.2741   -1.9515    0.0000 H   0  0  0  0  0  0  0  0  0  0  0  0
   10.1701   -0.6141    0.0000 H   0  0  0  0  0  0  0  0  0  0  0  0
   10.4003    0.2319    0.0000 H   0  0  0  0  0  0  0  0  0  0  0  0
    9.5542    0.4621    0.0000 H   0  0  0  0  0  0  0  0  0  0  0  0
    8.3704   -1.5703    0.0000 H   0  0  0  0  0  0  0  0  0  0  0  0
    8.9880   -2.1927    0.0000 H   0  0  0  0  0  0  0  0  0  0  0  0
    9.6104   -1.5750    0.0000 H   0  0  0  0  0  0  0  0  0  0  0  0
    1.6900   -0.0116    0.0000 H   0  0  0  0  0  0  0  0  0  0  0  0
    1.4631   -0.8585    0.0000 H   0  0  0  0  0  0  0  0  0  0  0  0
    2.3100   -1.0855    0.0000 H   0  0  0  0  0  0  0  0  0  0  0  0
  6  1  1  1  0  0  0
  1 41  1  0  0  0  0
  2 12  1  0  0  0  0
  2 19  1  0  0  0  0
  3 19  2  0  0  0  0
  4  5  1  0  0  0  0
  4  8  1  0  0  0  0
  4 10  1  0  0  0  0
  4 14  1  6  0  0  0
  5  6  1  0  0  0  0
  5  7  1  0  0  0  0
  5 21  1  1  0  0  0
  6 12  1  0  0  0  0
  6 16  1  0  0  0  0
  7  9  1  0  0  0  0
  7 22  1  0  0  0  0
  7 23  1  0  0  0  0
  8 11  1  0  0  0  0
  8 24  1  0  0  0  0
  8 25  1  0  0  0  0
  9 11  1  0  0  0  0
  9 15  1  1  0  0  0
  9 26  1  0  0  0  0
 10 13  1  0  0  0  0
 10 27  1  0  0  0  0
 10 28  1  0  0  0  0
 11 29  1  0  0  0  0
 11 30  1  0  0  0  0
 12 13  1  0  0  0  0
 12 31  1  0  0  0  0
 13 32  1  0  0  0  0
 13 33  1  0  0  0  0
 14 34  1  0  0  0  0
 14 35  1  0  0  0  0
 14 36  1  0  0  0  0
 15 17  1  0  0  0  0
 15 18  1  0  0  0  0
 15 37  1  0  0  0  0
 16 38  1  0  0  0  0
 16 39  1  0  0  0  0
 16 40  1  0  0  0  0
 17 42  1  0  0  0  0
 17 43  1  0  0  0  0
 17 44  1  0  0  0  0
 18 45  1  0  0  0  0
 18 46  1  0  0  0  0
 18 47  1  0  0  0  0
 19 20  1  0  0  0  0
 20 48  1  0  0  0  0
 20 49  1  0  0  0  0
 20 50  1  0  0  0  0
M  END
> <PUBCHEM_COMPOUND_CID>
146020857

> <PUBCHEM_COMPOUND_CANONICALIZED>
1

> <PUBCHEM_CACTVS_COMPLEXITY>
378

> <PUBCHEM_CACTVS_HBOND_ACCEPTOR>
3

> <PUBCHEM_CACTVS_HBOND_DONOR>
1

> <PUBCHEM_CACTVS_ROTATABLE_BOND>
3

> <PUBCHEM_CACTVS_SUBSKEYS>
AAADceB4MAAAAAAAAAAAAAAAAAAAAAAAAAAwYAAAAAAAAADAAAAAGgAACAAAD1SggAICCAAABgAIAACQCAAAAAAAAAAAAAAAAAABAAIAAAACQAAEAAADAAGAwPAPgAAAAAAAAADAAAYAADCAAAAAAAAAAA==

> <PUBCHEM_IUPAC_OPENEYE_NAME>
[(1R,4aR,7R,8aS)-1-hydroxy-7-isopropyl-1,4a-dimethyl-decalin-2-yl] acetate

> <PUBCHEM_IUPAC_CAS_NAME>
acetic acid [(1R,4aR,7R,8aS)-1-hydroxy-1,4a-dimethyl-7-propan-2-yl-2,3,4,5,6,7,8,8a-octahydronaphthalen-2-yl] ester

> <PUBCHEM_IUPAC_NAME_MARKUP>
[(1<I>R</I>,4<I>a</I><I>R</I>,7<I>R</I>,8<I>a</I><I>S</I>)-1-hydroxy-1,4<I>a</I>-dimethyl-7-propan-2-yl-2,3,4,5,6,7,8,8<I>a</I>-octahydronaphthalen-2-yl] acetate

> <PUBCHEM_IUPAC_NAME>
[(1R,4aR,7R,8aS)-1-hydroxy-1,4a-dimethyl-7-propan-2-yl-2,3,4,5,6,7,8,8a-octahydronaphthalen-2-yl] acetate

> <PUBCHEM_IUPAC_SYSTEMATIC_NAME>
[(1R,4aR,7R,8aS)-1,4a-dimethyl-1-oxidanyl-7-propan-2-yl-2,3,4,5,6,7,8,8a-octahydronaphthalen-2-yl] ethanoate

> <PUBCHEM_IUPAC_TRADITIONAL_NAME>
acetic acid [(1R,4aR,7R,8aS)-1-hydroxy-7-isopropyl-1,4a-dimethyl-decalin-2-yl] ester

> <PUBCHEM_IUPAC_INCHI>
InChI=1S/C17H30O3/c1-11(2)13-6-8-16(4)9-7-15(20-12(3)18)17(5,19)14(16)10-13/h11,13-15,19H,6-10H2,1-5H3/t13-,14+,15?,16-,17-/m1/s1

> <PUBCHEM_IUPAC_INCHIKEY>
CDDUPZLTXQTDNX-PFUJJPPESA-N

> <PUBCHEM_XLOGP3_AA>
3.9

> <PUBCHEM_EXACT_MASS>
282.219495

> <PUBCHEM_MOLECULAR_FORMULA>
C17H30O3

> <PUBCHEM_MOLECULAR_WEIGHT>
282.4

> <PUBCHEM_OPENEYE_CAN_SMILES>
CC(C)C1CCC2(CCC(C(C2C1)(C)O)OC(=O)C)C

> <PUBCHEM_OPENEYE_ISO_SMILES>
CC(C)[C@@H]1CC[C@@]2(CCC([C@]([C@H]2C1)(C)O)OC(=O)C)C

> <PUBCHEM_CACTVS_TPSA>
46.5

> <PUBCHEM_MONOISOTOPIC_WEIGHT>
282.219495

> <PUBCHEM_TOTAL_CHARGE>
0

> <PUBCHEM_HEAVY_ATOM_COUNT>
20

> <PUBCHEM_ATOM_DEF_STEREO_COUNT>
4

> <PUBCHEM_ATOM_UDEF_STEREO_COUNT>
1

> <PUBCHEM_BOND_DEF_STEREO_COUNT>
0

> <PUBCHEM_BOND_UDEF_STEREO_COUNT>
0

> <PUBCHEM_ISOTOPIC_ATOM_COUNT>
0

> <PUBCHEM_COMPONENT_COUNT>
1

> <PUBCHEM_CACTVS_TAUTO_COUNT>
-1

> <PUBCHEM_COORDINATE_TYPE>
1
5
255

> <PUBCHEM_BONDANNOTATIONS>
6  1  5
12  2  3
4  14  6
5  21  5
9  15  5

$$$$
