44257708
  -OEChem-08242012483D

 76 80  0     1  0  0  0  0  0999 V2000
   -2.9662    0.8501   -0.3645 O   0  0  0  0  0  0  0  0  0  0  0  0
    0.6368    0.8325    0.4514 O   0  0  0  0  0  0  0  0  0  0  0  0
   -4.0527   -1.1486   -1.0396 O   0  0  0  0  0  0  0  0  0  0  0  0
   -1.7591    1.1716   -2.9323 O   0  0  0  0  0  0  0  0  0  0  0  0
    0.7471    0.1365   -2.3349 O   0  0  0  0  0  0  0  0  0  0  0  0
   -5.2302   -1.2204    1.5812 O   0  0  0  0  0  0  0  0  0  0  0  0
   -7.0564    0.8097    1.0446 O   0  0  0  0  0  0  0  0  0  0  0  0
   -7.2437    0.5375   -1.7904 O   0  0  0  0  0  0  0  0  0  0  0  0
   -0.3482    2.2489    2.6127 O   0  0  0  0  0  0  0  0  0  0  0  0
    2.4975   -0.6434   -0.1076 O   0  0  0  0  0  0  0  0  0  0  0  0
    2.7356    3.9737   -1.2383 O   0  0  0  0  0  0  0  0  0  0  0  0
    6.7611    1.4829   -0.9995 O   0  0  0  0  0  0  0  0  0  0  0  0
    6.5419   -1.0562   -0.3749 O   0  0  0  0  0  0  0  0  0  0  0  0
   -1.3712    4.2348    3.2016 O   0  0  0  0  0  0  0  0  0  0  0  0
   -0.4136   -6.0357    1.4394 O   0  0  0  0  0  0  0  0  0  0  0  0
   -1.5754    0.6421   -0.5890 C   0  0  1  0  0  0  0  0  0  0  0  0
   -1.1064    1.5543   -1.7235 C   0  0  1  0  0  0  0  0  0  0  0  0
   -0.7732    0.8837    0.6992 C   0  0  2  0  0  0  0  0  0  0  0  0
    0.4114    1.4575   -1.8993 C   0  0  1  0  0  0  0  0  0  0  0  0
    1.1079    1.7353   -0.5592 C   0  0  2  0  0  0  0  0  0  0  0  0
   -3.6095   -0.3465    0.0603 C   0  0  2  0  0  0  0  0  0  0  0  0
   -4.7781   -0.0046    0.9828 C   0  0  1  0  0  0  0  0  0  0  0  0
   -5.9193    0.6470    0.2000 C   0  0  1  0  0  0  0  0  0  0  0  0
   -6.3084   -0.2031   -1.0101 C   0  0  2  0  0  0  0  0  0  0  0  0
   -5.0633   -0.5334   -1.8449 C   0  0  2  0  0  0  0  0  0  0  0  0
   -1.1515    2.1611    1.4520 C   0  0  0  0  0  0  0  0  0  0  0  0
    2.6185    1.6466   -0.6709 C   0  0  0  0  0  0  0  0  0  0  0  0
   -5.3776   -1.5014   -2.9822 C   0  0  0  0  0  0  0  0  0  0  0  0
    3.2749    0.4378   -0.4374 C   0  0  0  0  0  0  0  0  0  0  0  0
    3.3555    2.7816   -1.0100 C   0  0  0  0  0  0  0  0  0  0  0  0
    4.6628    0.3669   -0.5439 C   0  0  0  0  0  0  0  0  0  0  0  0
    4.7452    2.7088   -1.1157 C   0  0  0  0  0  0  0  0  0  0  0  0
    5.4043    1.5010   -0.8832 C   0  0  0  0  0  0  0  0  0  0  0  0
    5.3288   -0.9207   -0.2944 C   0  0  0  0  0  0  0  0  0  0  0  0
   -0.5588    3.3438    3.4100 C   0  0  0  0  0  0  0  0  0  0  0  0
    3.1229   -1.8561    0.1385 C   0  0  0  0  0  0  0  0  0  0  0  0
    4.4488   -2.0522    0.0607 C   0  0  0  0  0  0  0  0  0  0  0  0
    2.1939   -2.9518    0.4803 C   0  0  0  0  0  0  0  0  0  0  0  0
    0.3576    3.3040    4.5952 C   0  0  0  0  0  0  0  0  0  0  0  0
    2.3160   -3.6142    1.7020 C   0  0  0  0  0  0  0  0  0  0  0  0
    1.1951   -3.3256   -0.4188 C   0  0  0  0  0  0  0  0  0  0  0  0
    1.4395   -4.6502    2.0243 C   0  0  0  0  0  0  0  0  0  0  0  0
    0.3187   -4.3617   -0.0966 C   0  0  0  0  0  0  0  0  0  0  0  0
    0.4409   -5.0239    1.1250 C   0  0  0  0  0  0  0  0  0  0  0  0
   -1.4076   -0.3909   -0.9282 H   0  0  0  0  0  0  0  0  0  0  0  0
   -1.4034    2.5895   -1.5173 H   0  0  0  0  0  0  0  0  0  0  0  0
   -0.9687    0.0522    1.3876 H   0  0  0  0  0  0  0  0  0  0  0  0
    0.7405    2.1493   -2.6836 H   0  0  0  0  0  0  0  0  0  0  0  0
    0.8622    2.7489   -0.2238 H   0  0  0  0  0  0  0  0  0  0  0  0
   -2.9123   -0.9747    0.6286 H   0  0  0  0  0  0  0  0  0  0  0  0
   -4.4646    0.6639    1.7928 H   0  0  0  0  0  0  0  0  0  0  0  0
   -5.6243    1.6501   -0.1323 H   0  0  0  0  0  0  0  0  0  0  0  0
   -6.8115   -1.1182   -0.6763 H   0  0  0  0  0  0  0  0  0  0  0  0
   -4.6540    0.3797   -2.2960 H   0  0  0  0  0  0  0  0  0  0  0  0
   -2.2066    2.1259    1.7469 H   0  0  0  0  0  0  0  0  0  0  0  0
   -0.9942    3.0530    0.8371 H   0  0  0  0  0  0  0  0  0  0  0  0
   -1.4364    1.7588   -3.6370 H   0  0  0  0  0  0  0  0  0  0  0  0
    1.6581    0.1583   -2.6730 H   0  0  0  0  0  0  0  0  0  0  0  0
   -5.7563   -2.4525   -2.5921 H   0  0  0  0  0  0  0  0  0  0  0  0
   -4.4680   -1.7332   -3.5470 H   0  0  0  0  0  0  0  0  0  0  0  0
   -6.1177   -1.0849   -3.6718 H   0  0  0  0  0  0  0  0  0  0  0  0
   -4.5009   -1.5722    2.1197 H   0  0  0  0  0  0  0  0  0  0  0  0
   -6.7796    1.3455    1.8074 H   0  0  0  0  0  0  0  0  0  0  0  0
   -6.7973    1.3374   -2.1168 H   0  0  0  0  0  0  0  0  0  0  0  0
    5.3219    3.5924   -1.3793 H   0  0  0  0  0  0  0  0  0  0  0  0
    3.4051    4.6435   -1.4594 H   0  0  0  0  0  0  0  0  0  0  0  0
    4.9143   -3.0139    0.2457 H   0  0  0  0  0  0  0  0  0  0  0  0
    0.1562    2.4086    5.1884 H   0  0  0  0  0  0  0  0  0  0  0  0
    0.1813    4.1840    5.2203 H   0  0  0  0  0  0  0  0  0  0  0  0
    1.3974    3.3178    4.2592 H   0  0  0  0  0  0  0  0  0  0  0  0
    7.1068    0.5966   -0.8129 H   0  0  0  0  0  0  0  0  0  0  0  0
    3.0849   -3.3341    2.4181 H   0  0  0  0  0  0  0  0  0  0  0  0
    1.0871   -2.8205   -1.3756 H   0  0  0  0  0  0  0  0  0  0  0  0
    1.5389   -5.1618    2.9777 H   0  0  0  0  0  0  0  0  0  0  0  0
   -0.4551   -4.6433   -0.8057 H   0  0  0  0  0  0  0  0  0  0  0  0
   -1.0387   -6.1597    0.7047 H   0  0  0  0  0  0  0  0  0  0  0  0
  1 16  1  0  0  0  0
  1 21  1  0  0  0  0
  2 18  1  0  0  0  0
  2 20  1  0  0  0  0
  3 21  1  0  0  0  0
  3 25  1  0  0  0  0
  4 17  1  0  0  0  0
  4 57  1  0  0  0  0
  5 19  1  0  0  0  0
  5 58  1  0  0  0  0
  6 22  1  0  0  0  0
  6 62  1  0  0  0  0
  7 23  1  0  0  0  0
  7 63  1  0  0  0  0
  8 24  1  0  0  0  0
  8 64  1  0  0  0  0
  9 26  1  0  0  0  0
  9 35  1  0  0  0  0
 10 29  1  0  0  0  0
 10 36  1  0  0  0  0
 11 30  1  0  0  0  0
 11 66  1  0  0  0  0
 12 33  1  0  0  0  0
 12 71  1  0  0  0  0
 13 34  2  0  0  0  0
 14 35  2  0  0  0  0
 15 44  1  0  0  0  0
 15 76  1  0  0  0  0
 16 17  1  0  0  0  0
 16 18  1  0  0  0  0
 16 45  1  0  0  0  0
 17 19  1  0  0  0  0
 17 46  1  0  0  0  0
 18 26  1  0  0  0  0
 18 47  1  0  0  0  0
 19 20  1  0  0  0  0
 19 48  1  0  0  0  0
 20 27  1  0  0  0  0
 20 49  1  0  0  0  0
 21 22  1  0  0  0  0
 21 50  1  0  0  0  0
 22 23  1  0  0  0  0
 22 51  1  0  0  0  0
 23 24  1  0  0  0  0
 23 52  1  0  0  0  0
 24 25  1  0  0  0  0
 24 53  1  0  0  0  0
 25 28  1  0  0  0  0
 25 54  1  0  0  0  0
 26 55  1  0  0  0  0
 26 56  1  0  0  0  0
 27 29  1  0  0  0  0
 27 30  2  0  0  0  0
 28 59  1  0  0  0  0
 28 60  1  0  0  0  0
 28 61  1  0  0  0  0
 29 31  2  0  0  0  0
 30 32  1  0  0  0  0
 31 33  1  0  0  0  0
 31 34  1  0  0  0  0
 32 33  2  0  0  0  0
 32 65  1  0  0  0  0
 34 37  1  0  0  0  0
 35 39  1  0  0  0  0
 36 37  2  0  0  0  0
 36 38  1  0  0  0  0
 37 67  1  0  0  0  0
 38 40  2  0  0  0  0
 38 41  1  0  0  0  0
 39 68  1  0  0  0  0
 39 69  1  0  0  0  0
 39 70  1  0  0  0  0
 40 42  1  0  0  0  0
 40 72  1  0  0  0  0
 41 43  2  0  0  0  0
 41 73  1  0  0  0  0
 42 44  2  0  0  0  0
 42 74  1  0  0  0  0
 43 44  1  0  0  0  0
 43 75  1  0  0  0  0
M  END
> <PUBCHEM_COMPOUND_CID>
44257708

> <PUBCHEM_CONFORMER_RMSD>
1.2

> <PUBCHEM_CONFORMER_DIVERSEORDER>
1
17
3
75
24
57
31
66
59
14
88
49
83
9
15
32
27
53
45
39
35
65
52
56
64
82
8
76
74
5
47
23
36
18
42
87
43
78
44
58
7
22
68
25
60
71
54
73
40
84
16
13
81
6
80
20
67
34
30
2
86
37
61
46
26
38
19
55
41
70
51
79
72
28
69
11
48
21
33
10
62
29
12
85
4
90
77
50
89
63

> <PUBCHEM_MMFF94_PARTIAL_CHARGES>
57
1 -0.56
10 -0.16
11 -0.53
12 -0.53
13 -0.57
14 -0.57
15 -0.53
16 0.28
17 0.28
18 0.28
19 0.28
2 -0.56
20 0.42
21 0.56
22 0.28
23 0.28
24 0.28
25 0.28
26 0.28
27 -0.14
29 0.08
3 -0.56
30 0.08
31 0.09
32 -0.15
33 0.08
34 0.47
35 0.66
36 0.05
37 -0.14
38 0.03
39 0.06
4 -0.68
40 -0.15
41 -0.15
42 -0.15
43 -0.15
44 0.08
5 -0.68
57 0.4
58 0.4
6 -0.68
62 0.4
63 0.4
64 0.4
65 0.15
66 0.45
67 0.15
7 -0.68
71 0.45
72 0.15
73 0.15
74 0.15
75 0.15
76 0.45
8 -0.68
9 -0.43

> <PUBCHEM_EFFECTIVE_ROTOR_COUNT>
9.4

> <PUBCHEM_PHARMACOPHORE_FEATURES>
24
1 1 acceptor
1 10 acceptor
1 11 donor
1 12 donor
1 13 acceptor
1 14 acceptor
1 15 donor
1 2 acceptor
1 3 acceptor
1 4 acceptor
1 4 donor
1 5 acceptor
1 5 donor
1 6 acceptor
1 6 donor
1 7 acceptor
1 7 donor
1 8 acceptor
1 8 donor
6 10 29 31 34 36 37 rings
6 2 16 17 18 19 20 rings
6 27 29 30 31 32 33 rings
6 3 21 22 23 24 25 rings
6 38 40 41 42 43 44 rings

> <PUBCHEM_HEAVY_ATOM_COUNT>
44

> <PUBCHEM_ATOM_DEF_STEREO_COUNT>
6

> <PUBCHEM_ATOM_UDEF_STEREO_COUNT>
4

> <PUBCHEM_BOND_DEF_STEREO_COUNT>
0

> <PUBCHEM_BOND_UDEF_STEREO_COUNT>
0

> <PUBCHEM_ISOTOPIC_ATOM_COUNT>
0

> <PUBCHEM_COMPONENT_COUNT>
1

> <PUBCHEM_CACTVS_TAUTO_COUNT>
57

> <PUBCHEM_CONFORMER_ID>
02A351AC00000001

> <PUBCHEM_MMFF94_ENERGY>
136.1122

> <PUBCHEM_FEATURE_SELFOVERLAP>
121.944

> <PUBCHEM_SHAPE_FINGERPRINT>
10032420 55 18201431519341566305
10258939 38 17313103017045316605
10462674 296 17545879326529754234
11049842 53 12792083251288507680
11135926 11 18259981561513764351
11227688 84 17758961420439502830
11421498 54 18060141985980655514
11578080 2 12758588416486374502
11582403 64 12878798332178764256
11763715 3 17271693158227137534
12058002 1 17838661972798665868
12156800 1 17687442969450442976
12788726 201 17917444076862092601
1361 2 18260828202762597798
14028597 1 18200603501233660057
14068700 675 18272363136331577848
15274700 147 15009260397224192013
15483637 11 17901112128891340810
16112460 7 18410011065558583638
17138139 8 18057591260538260719
19319366 153 18411692188498680598
20028762 73 18340764863130193902
20511986 3 18131059433995474381
21133410 230 16900187257927021424
3178227 256 18187086144274155670
345986 75 18127681639690668467
3882209 13 16959813274752493771
463206 1 18271799147059978399
50150288 127 17558004848155156483
5309563 4 18046340826051314774
57527306 92 17775002423257612812
6086070 43 17631430347097846149

> <PUBCHEM_SHAPE_MULTIPOLES>
817.46
14.05
6.3
3.13
13.28
7.82
2.89
-1.66
-7.18
-4.8
5.46
2.45
-3.29
-3.04

> <PUBCHEM_SHAPE_SELFOVERLAP>
1777.132

> <PUBCHEM_SHAPE_VOLUME>
439.3

> <PUBCHEM_COORDINATE_TYPE>
2
5
10

$$$$
