5488886
  -OEChem-08242012453D

 71 75  0     1  0  0  0  0  0999 V2000
    2.5882    1.9659    0.8464 O   0  0  0  0  0  0  0  0  0  0  0  0
    3.2625    1.6108   -2.7437 O   0  0  0  0  0  0  0  0  0  0  0  0
    0.5082    2.6300   -2.6430 O   0  0  0  0  0  0  0  0  0  0  0  0
    0.1482    4.3978   -0.3957 O   0  0  0  0  0  0  0  0  0  0  0  0
   -4.7545    0.7426   -0.0457 O   0  0  0  0  0  0  0  0  0  0  0  0
   -4.1017   -1.5360    0.0700 O   0  0  0  0  0  0  0  0  0  0  0  0
   -8.3482   -1.2232   -0.6960 O   0  0  0  0  0  0  0  0  0  0  0  0
   -7.9273    0.1895    1.7480 O   0  0  0  0  0  0  0  0  0  0  0  0
    2.1671   -0.7446    0.0165 O   0  0  0  0  0  0  0  0  0  0  0  0
   -6.4114    0.0025   -2.2745 O   0  0  0  0  0  0  0  0  0  0  0  0
    2.1648    3.3616    3.1740 O   0  0  0  0  0  0  0  0  0  0  0  0
    6.2066    1.7510   -0.3031 O   0  0  0  0  0  0  0  0  0  0  0  0
    6.4774   -2.9276    0.4072 O   0  0  0  0  0  0  0  0  0  0  0  0
    4.2043   -4.2284    0.5746 O   0  0  0  0  0  0  0  0  0  0  0  0
    2.4460    1.6596   -1.5740 C   0  0  2  0  0  0  0  0  0  0  0  0
    1.5192    2.8752   -1.6638 C   0  0  2  0  0  0  0  0  0  0  0  0
    3.3582    1.7537   -0.3412 C   0  0  2  0  0  0  0  0  0  0  0  0
    0.8266    3.1463   -0.3284 C   0  0  1  0  0  0  0  0  0  0  0  0
    1.8445    3.1848    0.8131 C   0  0  1  0  0  0  0  0  0  0  0  0
    4.1731    0.4907   -0.1415 C   0  0  0  0  0  0  0  0  0  0  0  0
   -7.0540   -0.9740   -0.1523 C   0  0  2  0  0  0  0  0  0  0  0  0
   -7.0763    0.3483    0.6153 C   0  0  2  0  0  0  0  0  0  0  0  0
   -6.0156   -0.9380   -1.2748 C   0  0  2  0  0  0  0  0  0  0  0  0
    1.1664    3.3450    2.1699 C   0  0  0  0  0  0  0  0  0  0  0  0
   -5.6568    0.7212    1.0650 C   0  0  2  0  0  0  0  0  0  0  0  0
   -4.6512   -0.5041   -0.7420 C   0  0  1  0  0  0  0  0  0  0  0  0
    3.5387   -0.7393    0.0345 C   0  0  0  0  0  0  0  0  0  0  0  0
    5.5664    0.5600   -0.1323 C   0  0  0  0  0  0  0  0  0  0  0  0
   -5.6054    2.1046    1.7076 C   0  0  0  0  0  0  0  0  0  0  0  0
    4.2971   -1.8940    0.2193 C   0  0  0  0  0  0  0  0  0  0  0  0
    6.3241   -0.5973    0.0527 C   0  0  0  0  0  0  0  0  0  0  0  0
    5.6923   -1.8289    0.2294 C   0  0  0  0  0  0  0  0  0  0  0  0
    1.5090   -1.9539    0.1821 C   0  0  0  0  0  0  0  0  0  0  0  0
    3.6025   -3.1772    0.4043 C   0  0  0  0  0  0  0  0  0  0  0  0
   -2.7360   -1.6373    0.0971 C   0  0  0  0  0  0  0  0  0  0  0  0
    2.1266   -3.1302    0.3746 C   0  0  0  0  0  0  0  0  0  0  0  0
    0.0366   -1.8447    0.1522 C   0  0  0  0  0  0  0  0  0  0  0  0
   -2.1248   -2.8137   -0.3227 C   0  0  0  0  0  0  0  0  0  0  0  0
   -1.9740   -0.5636    0.5441 C   0  0  0  0  0  0  0  0  0  0  0  0
   -0.7341   -2.9177   -0.2950 C   0  0  0  0  0  0  0  0  0  0  0  0
   -0.5832   -0.6676    0.5718 C   0  0  0  0  0  0  0  0  0  0  0  0
    1.8153    0.7693   -1.6005 H   0  0  0  0  0  0  0  0  0  0  0  0
    2.0682    3.7602   -2.0061 H   0  0  0  0  0  0  0  0  0  0  0  0
    4.0281    2.6134   -0.4655 H   0  0  0  0  0  0  0  0  0  0  0  0
    0.0721    2.3705   -0.1508 H   0  0  0  0  0  0  0  0  0  0  0  0
    2.5462    4.0202    0.6845 H   0  0  0  0  0  0  0  0  0  0  0  0
   -6.8371   -1.8019    0.5333 H   0  0  0  0  0  0  0  0  0  0  0  0
   -7.5077    1.1385   -0.0104 H   0  0  0  0  0  0  0  0  0  0  0  0
   -5.9646   -1.9235   -1.7519 H   0  0  0  0  0  0  0  0  0  0  0  0
    0.6039    4.2797    2.2400 H   0  0  0  0  0  0  0  0  0  0  0  0
    0.4916    2.5091    2.3826 H   0  0  0  0  0  0  0  0  0  0  0  0
   -5.2914    0.0016    1.8091 H   0  0  0  0  0  0  0  0  0  0  0  0
   -3.9913   -0.3195   -1.6007 H   0  0  0  0  0  0  0  0  0  0  0  0
    3.7395    0.7639   -2.7395 H   0  0  0  0  0  0  0  0  0  0  0  0
    0.0000    1.8486   -2.3661 H   0  0  0  0  0  0  0  0  0  0  0  0
   -0.4758    4.4386    0.3482 H   0  0  0  0  0  0  0  0  0  0  0  0
   -6.2415    2.1593    2.5960 H   0  0  0  0  0  0  0  0  0  0  0  0
   -4.5785    2.3507    1.9994 H   0  0  0  0  0  0  0  0  0  0  0  0
   -5.9242    2.8766    0.9986 H   0  0  0  0  0  0  0  0  0  0  0  0
    7.4105   -0.5459    0.0603 H   0  0  0  0  0  0  0  0  0  0  0  0
   -8.5375   -0.5232   -1.3440 H   0  0  0  0  0  0  0  0  0  0  0  0
   -7.5364   -0.4878    2.3259 H   0  0  0  0  0  0  0  0  0  0  0  0
   -5.7616   -0.0448   -2.9964 H   0  0  0  0  0  0  0  0  0  0  0  0
    2.6627    2.5289    3.1072 H   0  0  0  0  0  0  0  0  0  0  0  0
    1.6107   -4.0701    0.5318 H   0  0  0  0  0  0  0  0  0  0  0  0
    7.1673    1.6039   -0.2677 H   0  0  0  0  0  0  0  0  0  0  0  0
   -2.7219   -3.6493   -0.6766 H   0  0  0  0  0  0  0  0  0  0  0  0
   -2.4347    0.3539    0.8957 H   0  0  0  0  0  0  0  0  0  0  0  0
   -0.2891   -3.8426   -0.6513 H   0  0  0  0  0  0  0  0  0  0  0  0
   -0.0076    0.1759    0.9430 H   0  0  0  0  0  0  0  0  0  0  0  0
    5.9317   -3.7213    0.5169 H   0  0  0  0  0  0  0  0  0  0  0  0
  1 17  1  0  0  0  0
  1 19  1  0  0  0  0
  2 15  1  0  0  0  0
  2 54  1  0  0  0  0
  3 16  1  0  0  0  0
  3 55  1  0  0  0  0
  4 18  1  0  0  0  0
  4 56  1  0  0  0  0
  5 25  1  0  0  0  0
  5 26  1  0  0  0  0
  6 26  1  0  0  0  0
  6 35  1  0  0  0  0
  7 21  1  0  0  0  0
  7 61  1  0  0  0  0
  8 22  1  0  0  0  0
  8 62  1  0  0  0  0
  9 27  1  0  0  0  0
  9 33  1  0  0  0  0
 10 23  1  0  0  0  0
 10 63  1  0  0  0  0
 11 24  1  0  0  0  0
 11 64  1  0  0  0  0
 12 28  1  0  0  0  0
 12 66  1  0  0  0  0
 13 32  1  0  0  0  0
 13 71  1  0  0  0  0
 14 34  2  0  0  0  0
 15 16  1  0  0  0  0
 15 17  1  0  0  0  0
 15 42  1  0  0  0  0
 16 18  1  0  0  0  0
 16 43  1  0  0  0  0
 17 20  1  0  0  0  0
 17 44  1  0  0  0  0
 18 19  1  0  0  0  0
 18 45  1  0  0  0  0
 19 24  1  0  0  0  0
 19 46  1  0  0  0  0
 20 27  1  0  0  0  0
 20 28  2  0  0  0  0
 21 22  1  0  0  0  0
 21 23  1  0  0  0  0
 21 47  1  0  0  0  0
 22 25  1  0  0  0  0
 22 48  1  0  0  0  0
 23 26  1  0  0  0  0
 23 49  1  0  0  0  0
 24 50  1  0  0  0  0
 24 51  1  0  0  0  0
 25 29  1  0  0  0  0
 25 52  1  0  0  0  0
 26 53  1  0  0  0  0
 27 30  2  0  0  0  0
 28 31  1  0  0  0  0
 29 57  1  0  0  0  0
 29 58  1  0  0  0  0
 29 59  1  0  0  0  0
 30 32  1  0  0  0  0
 30 34  1  0  0  0  0
 31 32  2  0  0  0  0
 31 60  1  0  0  0  0
 33 36  2  0  0  0  0
 33 37  1  0  0  0  0
 34 36  1  0  0  0  0
 35 38  2  0  0  0  0
 35 39  1  0  0  0  0
 36 65  1  0  0  0  0
 37 40  2  0  0  0  0
 37 41  1  0  0  0  0
 38 40  1  0  0  0  0
 38 67  1  0  0  0  0
 39 41  2  0  0  0  0
 39 68  1  0  0  0  0
 40 69  1  0  0  0  0
 41 70  1  0  0  0  0
M  END
> <PUBCHEM_COMPOUND_CID>
5488886

> <PUBCHEM_CONFORMER_RMSD>
1

> <PUBCHEM_CONFORMER_DIVERSEORDER>
1
66
120
29
36
92
107
119
101
39
64
45
86
116
77
123
93
110
63
80
99
23
122
28
82
42
87
111
40
55
44
67
38
112
14
117
58
48
113
118
50
70
56
121
22
17
21
35
85
100
53
102
25
95
9
90
30
106
41
46
78
109
12
27
10
94
69
91
34
65
33
68
54
49
61
32
115
18
73
51
98
20
79
74
71
72
97
19
104
26
6
88
84
83
76
15
11
60
59
105
96
89
8
13
103
62
16
24
43
75
7
108
57
4
114
31
52
2
81
5
47
37
3

> <PUBCHEM_MMFF94_PARTIAL_CHARGES>
55
1 -0.56
10 -0.68
11 -0.68
12 -0.53
13 -0.53
14 -0.57
15 0.28
16 0.28
17 0.42
18 0.28
19 0.28
2 -0.68
20 -0.14
21 0.28
22 0.28
23 0.28
24 0.28
25 0.28
26 0.56
27 0.08
28 0.08
3 -0.68
30 0.09
31 -0.15
32 0.08
33 0.05
34 0.47
35 0.08
36 -0.14
37 0.03
38 -0.15
39 -0.15
4 -0.68
40 -0.15
41 -0.15
5 -0.56
54 0.4
55 0.4
56 0.4
6 -0.36
60 0.15
61 0.4
62 0.4
63 0.4
64 0.4
65 0.15
66 0.45
67 0.15
68 0.15
69 0.15
7 -0.68
70 0.15
71 0.45
8 -0.68
9 -0.16

> <PUBCHEM_EFFECTIVE_ROTOR_COUNT>
7.4

> <PUBCHEM_PHARMACOPHORE_FEATURES>
26
1 1 acceptor
1 10 acceptor
1 10 donor
1 11 acceptor
1 11 donor
1 12 donor
1 13 donor
1 14 acceptor
1 2 acceptor
1 2 donor
1 3 acceptor
1 3 donor
1 4 acceptor
1 4 donor
1 5 acceptor
1 6 acceptor
1 7 acceptor
1 7 donor
1 8 acceptor
1 8 donor
1 9 acceptor
6 1 15 16 17 18 19 rings
6 20 27 28 30 31 32 rings
6 35 37 38 39 40 41 rings
6 5 21 22 23 25 26 rings
6 9 27 30 33 34 36 rings

> <PUBCHEM_HEAVY_ATOM_COUNT>
41

> <PUBCHEM_ATOM_DEF_STEREO_COUNT>
10

> <PUBCHEM_ATOM_UDEF_STEREO_COUNT>
0

> <PUBCHEM_BOND_DEF_STEREO_COUNT>
0

> <PUBCHEM_BOND_UDEF_STEREO_COUNT>
0

> <PUBCHEM_ISOTOPIC_ATOM_COUNT>
0

> <PUBCHEM_COMPONENT_COUNT>
1

> <PUBCHEM_CACTVS_TAUTO_COUNT>
12

> <PUBCHEM_CONFORMER_ID>
0053C0F600000001

> <PUBCHEM_MMFF94_ENERGY>
136.5598

> <PUBCHEM_FEATURE_SELFOVERLAP>
132.075

> <PUBCHEM_SHAPE_FINGERPRINT>
10439779 11 18343015609964072473
10675989 125 18338801238136161280
11456790 92 18411141316467465451
12166972 35 18410013212888971361
12677640 9 18194402422883245991
12925494 130 18265332987754093043
14068700 675 17917709084786452113
14849402 71 18412267259498177185
15183329 4 18409726253381727691
15274700 232 16538483588770098911
15419008 47 17313101917692140111
15439362 3 17906171008103621216
15483637 11 17975127643531219804
20642791 178 17825679017349908708
21133410 127 17606670590317241045
21133410 38 16904400006960070625
21298829 104 18412830213303538368
22122407 14 18342466967064003739
23559900 14 18335977683601351019
24771293 8 18201142326698807570
24893992 56 18040713705918603243
249057 3 18409728477943198215
397830 11 17241344584960572755
4073 2 18113904900418333131
4144715 1 18187376458083117571
4625314 4 18334010619647250663
513532 50 17988656181128846022
6086070 43 18129668641432271187

> <PUBCHEM_SHAPE_MULTIPOLES>
761.59
18.85
5.01
1.76
31.42
1.66
0.19
-5.82
-0.59
-5.92
-0.94
0.65
2.16
-1.95

> <PUBCHEM_SHAPE_SELFOVERLAP>
1663.77

> <PUBCHEM_SHAPE_VOLUME>
406.7

> <PUBCHEM_COORDINATE_TYPE>
2
5
10

$$$$
