626498
  -OEChem-09252005423D

 40 42  0     0  0  0  0  0  0999 V2000
    4.4125    0.9774   -0.0002 Si  0  0  0  0  0  0  0  0  0  0  0  0
    3.4917   -0.4195    0.0007 O   0  0  0  0  0  0  0  0  0  0  0  0
   -0.6767    2.3984   -0.0013 O   0  0  0  0  0  0  0  0  0  0  0  0
   -2.4448   -2.6453   -0.0028 O   0  0  0  0  0  0  0  0  0  0  0  0
    2.1556   -0.6883    0.0010 C   0  0  0  0  0  0  0  0  0  0  0  0
   -0.1280    0.1140    0.0001 C   0  0  0  0  0  0  0  0  0  0  0  0
   -0.5901   -1.2037   -0.0001 C   0  0  0  0  0  0  0  0  0  0  0  0
    1.6945   -2.0032    0.0007 C   0  0  0  0  0  0  0  0  0  0  0  0
    1.2481    0.3714    0.0008 C   0  0  0  0  0  0  0  0  0  0  0  0
    6.2462    0.5307   -0.0004 C   0  0  0  0  0  0  0  0  0  0  0  0
    4.0803    2.0172   -1.5310 C   0  0  0  0  0  0  0  0  0  0  0  0
    4.0816    2.0191    1.5294 C   0  0  0  0  0  0  0  0  0  0  0  0
    0.3239   -2.2641    0.0000 C   0  0  0  0  0  0  0  0  0  0  0  0
   -2.5307    0.9564    0.0000 C   0  0  0  0  0  0  0  0  0  0  0  0
   -2.9927   -0.3613   -0.0001 C   0  0  0  0  0  0  0  0  0  0  0  0
   -1.0815    1.2423   -0.0003 C   0  0  0  0  0  0  0  0  0  0  0  0
   -2.0393   -1.4896   -0.0005 C   0  0  0  0  0  0  0  0  0  0  0  0
    2.6546   -3.1470    0.0014 C   0  0  0  0  0  0  0  0  0  0  0  0
   -3.4448    2.0169    0.0004 C   0  0  0  0  0  0  0  0  0  0  0  0
   -4.3690   -0.6187    0.0005 C   0  0  0  0  0  0  0  0  0  0  0  0
   -4.8152    1.7560    0.0009 C   0  0  0  0  0  0  0  0  0  0  0  0
   -5.2763    0.4411    0.0008 C   0  0  0  0  0  0  0  0  0  0  0  0
    1.5788    1.4031    0.0009 H   0  0  0  0  0  0  0  0  0  0  0  0
    6.8616    1.4351   -0.0011 H   0  0  0  0  0  0  0  0  0  0  0  0
    6.4954   -0.0579    0.8873 H   0  0  0  0  0  0  0  0  0  0  0  0
    6.4949   -0.0589   -0.8877 H   0  0  0  0  0  0  0  0  0  0  0  0
    4.7557    2.8775   -1.5607 H   0  0  0  0  0  0  0  0  0  0  0  0
    4.2418    1.4250   -2.4366 H   0  0  0  0  0  0  0  0  0  0  0  0
    3.0541    2.3932   -1.5462 H   0  0  0  0  0  0  0  0  0  0  0  0
    4.7571    2.8795    1.5575 H   0  0  0  0  0  0  0  0  0  0  0  0
    3.0554    2.3952    1.5450 H   0  0  0  0  0  0  0  0  0  0  0  0
    4.2437    1.4281    2.4357 H   0  0  0  0  0  0  0  0  0  0  0  0
   -0.0271   -3.2933   -0.0001 H   0  0  0  0  0  0  0  0  0  0  0  0
    3.2873   -3.1114    0.8944 H   0  0  0  0  0  0  0  0  0  0  0  0
    2.1408   -4.1144    0.0005 H   0  0  0  0  0  0  0  0  0  0  0  0
    3.2894   -3.1108   -0.8902 H   0  0  0  0  0  0  0  0  0  0  0  0
   -3.1107    3.0510    0.0005 H   0  0  0  0  0  0  0  0  0  0  0  0
   -4.7539   -1.6349    0.0005 H   0  0  0  0  0  0  0  0  0  0  0  0
   -5.5239    2.5793    0.0012 H   0  0  0  0  0  0  0  0  0  0  0  0
   -6.3439    0.2407    0.0011 H   0  0  0  0  0  0  0  0  0  0  0  0
  1  2  1  0  0  0  0
  1 10  1  0  0  0  0
  1 11  1  0  0  0  0
  1 12  1  0  0  0  0
  2  5  1  0  0  0  0
  3 16  2  0  0  0  0
  4 17  2  0  0  0  0
  5  8  1  0  0  0  0
  5  9  2  0  0  0  0
  6  7  2  0  0  0  0
  6  9  1  0  0  0  0
  6 16  1  0  0  0  0
  7 13  1  0  0  0  0
  7 17  1  0  0  0  0
  8 13  2  0  0  0  0
  8 18  1  0  0  0  0
  9 23  1  0  0  0  0
 10 24  1  0  0  0  0
 10 25  1  0  0  0  0
 10 26  1  0  0  0  0
 11 27  1  0  0  0  0
 11 28  1  0  0  0  0
 11 29  1  0  0  0  0
 12 30  1  0  0  0  0
 12 31  1  0  0  0  0
 12 32  1  0  0  0  0
 13 33  1  0  0  0  0
 14 15  1  0  0  0  0
 14 16  1  0  0  0  0
 14 19  2  0  0  0  0
 15 17  1  0  0  0  0
 15 20  2  0  0  0  0
 18 34  1  0  0  0  0
 18 35  1  0  0  0  0
 18 36  1  0  0  0  0
 19 21  1  0  0  0  0
 19 37  1  0  0  0  0
 20 22  1  0  0  0  0
 20 38  1  0  0  0  0
 21 22  2  0  0  0  0
 21 39  1  0  0  0  0
 22 40  1  0  0  0  0
M  END
> <PUBCHEM_COMPOUND_CID>
626498

> <PUBCHEM_CONFORMER_RMSD>
0.6

> <PUBCHEM_CONFORMER_DIVERSEORDER>
1
2
3

> <PUBCHEM_MMFF94_PARTIAL_CHARGES>
28
1 0.54
10 -0.08
11 -0.08
12 -0.08
13 -0.15
14 0.09
15 0.09
16 0.4
17 0.4
18 0.14
19 -0.15
2 -0.38
20 -0.15
21 -0.15
22 -0.15
23 0.15
3 -0.57
33 0.15
37 0.15
38 0.15
39 0.15
4 -0.57
40 0.15
5 0.08
6 0.09
7 0.09
8 -0.14
9 -0.15

> <PUBCHEM_EFFECTIVE_ROTOR_COUNT>
2

> <PUBCHEM_PHARMACOPHORE_FEATURES>
5
1 3 acceptor
1 4 acceptor
6 14 15 19 20 21 22 rings
6 5 6 7 8 9 13 rings
6 6 7 14 15 16 17 rings

> <PUBCHEM_HEAVY_ATOM_COUNT>
22

> <PUBCHEM_ATOM_DEF_STEREO_COUNT>
0

> <PUBCHEM_ATOM_UDEF_STEREO_COUNT>
0

> <PUBCHEM_BOND_DEF_STEREO_COUNT>
0

> <PUBCHEM_BOND_UDEF_STEREO_COUNT>
0

> <PUBCHEM_ISOTOPIC_ATOM_COUNT>
0

> <PUBCHEM_COMPONENT_COUNT>
1

> <PUBCHEM_CACTVS_TAUTO_COUNT>
1

> <PUBCHEM_CONFORMER_ID>
00098F4200000001

> <PUBCHEM_MMFF94_ENERGY>
59.2915

> <PUBCHEM_FEATURE_SELFOVERLAP>
25.414

> <PUBCHEM_SHAPE_FINGERPRINT>
10090160 65 18260264148659657446
10411042 1 17185877190998709291
10498660 4 18412267259208156412
10616163 171 18410576218540181119
10670039 82 18334588932023268740
10967382 1 18410575059099191847
11112241 14 16341147004244163600
11595378 159 17313372388535681304
12236239 1 17821728368786606012
12390115 104 18129395829932299425
12403259 226 17831296103959345566
12403259 415 18043813087484027261
12403814 3 17603580837929842933
12596602 18 16588309444319495880
12633257 1 16805592720803796728
12788726 201 17273983445364238065
13140716 1 17979080706340506283
13402501 40 18343298197875831064
14528608 73 18343298175804525189
14787075 74 18410009957614951729
14790565 3 18337678636510831796
14840074 17 17313675952829746772
15196674 1 18338797802272528775
15536298 74 18340487746922295775
18681886 176 18336546122966237448
19591789 44 18195528331474117624
19784866 170 18408604772779656114
20645477 56 18409166601999762161
21033648 29 18057591252860735016
21267235 1 18409458006629826159
21452121 103 18338792326004759770
21859007 373 17171784870275436533
23227448 37 18412262873740287165
23366157 5 18114465535737360994
23402539 116 18341326790542995958
23557571 272 18270973447901907398
23559900 14 18198618831084993282
245318 6 17098921626562743420
25147074 1 18338218415152789734
335352 9 18410855443650029926
34797466 226 16773518870919879597
34934 24 18411133632533874471
350125 39 18337390427478581334
3545911 37 18410576184185269196
3680242 22 18334858290596277424
4409770 3 16168336298351092830
474 4 18040721376650383580
5104073 3 18335987450509684267
59755656 215 18340491080502518662
59755656 520 17240201053964936890
67856867 119 18337665317912023658
7064713 232 18408038537535462804
7364860 26 18269554940906507134
7808743 9 18121779702118573848
9709674 26 18339366262247478487
9981440 41 18334577975013154874

> <PUBCHEM_SHAPE_MULTIPOLES>
453.35
11.57
3.04
0.84
2.26
1.42
0
-5.88
0
0.55
0
0.96
-0.43
0

> <PUBCHEM_SHAPE_SELFOVERLAP>
971.238

> <PUBCHEM_SHAPE_VOLUME>
254.8

> <PUBCHEM_COORDINATE_TYPE>
2
5
10

$$$$
