5364660
  -OEChem-09262015193D

 42 41  0     0  0  0  0  0  0999 V2000
   -2.1050    0.2579   -0.2494 C   0  0  0  0  0  0  0  0  0  0  0  0
   -3.2925   -0.6355    0.1233 C   0  0  0  0  0  0  0  0  0  0  0  0
   -0.7459   -0.4062   -0.0028 C   0  0  0  0  0  0  0  0  0  0  0  0
   -4.6484    0.0515   -0.0523 C   0  0  0  0  0  0  0  0  0  0  0  0
    0.4132    0.4921   -0.3916 C   0  0  0  0  0  0  0  0  0  0  0  0
    3.8078    1.0457    0.7876 C   0  0  0  0  0  0  0  0  0  0  0  0
    2.5185    1.7493    0.3527 C   0  0  0  0  0  0  0  0  0  0  0  0
    4.1132   -0.2096   -0.0351 C   0  0  0  0  0  0  0  0  0  0  0  0
    1.2941    0.8985    0.5437 C   0  0  0  0  0  0  0  0  0  0  0  0
   -5.7918   -0.8572    0.4012 C   0  0  0  0  0  0  0  0  0  0  0  0
    5.3905   -0.8941    0.4526 C   0  0  0  0  0  0  0  0  0  0  0  0
    0.5029    0.8320   -1.8541 C   0  0  0  0  0  0  0  0  0  0  0  0
   -7.1395   -0.1670    0.2652 C   0  0  0  0  0  0  0  0  0  0  0  0
    5.6829   -2.1574   -0.3411 C   0  0  0  0  0  0  0  0  0  0  0  0
   -2.1611    1.1891    0.3289 H   0  0  0  0  0  0  0  0  0  0  0  0
   -2.2039    0.5364   -1.3055 H   0  0  0  0  0  0  0  0  0  0  0  0
   -3.2637   -1.5464   -0.4874 H   0  0  0  0  0  0  0  0  0  0  0  0
   -3.1830   -0.9516    1.1684 H   0  0  0  0  0  0  0  0  0  0  0  0
   -0.6778   -0.6962    1.0533 H   0  0  0  0  0  0  0  0  0  0  0  0
   -0.6795   -1.3379   -0.5787 H   0  0  0  0  0  0  0  0  0  0  0  0
   -4.6651    0.9803    0.5307 H   0  0  0  0  0  0  0  0  0  0  0  0
   -4.7870    0.3274   -1.1045 H   0  0  0  0  0  0  0  0  0  0  0  0
    3.7382    0.7799    1.8502 H   0  0  0  0  0  0  0  0  0  0  0  0
    4.6416    1.7525    0.6944 H   0  0  0  0  0  0  0  0  0  0  0  0
    2.3943    2.6512    0.9651 H   0  0  0  0  0  0  0  0  0  0  0  0
    2.6293    2.1007   -0.6765 H   0  0  0  0  0  0  0  0  0  0  0  0
    4.2181    0.0614   -1.0926 H   0  0  0  0  0  0  0  0  0  0  0  0
    3.2822   -0.9207    0.0357 H   0  0  0  0  0  0  0  0  0  0  0  0
    1.1261    0.5861    1.5738 H   0  0  0  0  0  0  0  0  0  0  0  0
   -5.6438   -1.1495    1.4474 H   0  0  0  0  0  0  0  0  0  0  0  0
   -5.7950   -1.7768   -0.1954 H   0  0  0  0  0  0  0  0  0  0  0  0
    6.2392   -0.2063    0.3618 H   0  0  0  0  0  0  0  0  0  0  0  0
    5.2937   -1.1523    1.5136 H   0  0  0  0  0  0  0  0  0  0  0  0
   -0.2193    1.6132   -2.1103 H   0  0  0  0  0  0  0  0  0  0  0  0
    1.4943    1.1749   -2.1578 H   0  0  0  0  0  0  0  0  0  0  0  0
    0.2857   -0.0526   -2.4629 H   0  0  0  0  0  0  0  0  0  0  0  0
   -7.9423   -0.8347    0.5931 H   0  0  0  0  0  0  0  0  0  0  0  0
   -7.1800    0.7393    0.8780 H   0  0  0  0  0  0  0  0  0  0  0  0
   -7.3336    0.1126   -0.7752 H   0  0  0  0  0  0  0  0  0  0  0  0
    4.8672   -2.8807   -0.2424 H   0  0  0  0  0  0  0  0  0  0  0  0
    5.8149   -1.9311   -1.4040 H   0  0  0  0  0  0  0  0  0  0  0  0
    6.6011   -2.6294    0.0223 H   0  0  0  0  0  0  0  0  0  0  0  0
  1  2  1  0  0  0  0
  1  3  1  0  0  0  0
  1 15  1  0  0  0  0
  1 16  1  0  0  0  0
  2  4  1  0  0  0  0
  2 17  1  0  0  0  0
  2 18  1  0  0  0  0
  3  5  1  0  0  0  0
  3 19  1  0  0  0  0
  3 20  1  0  0  0  0
  4 10  1  0  0  0  0
  4 21  1  0  0  0  0
  4 22  1  0  0  0  0
  5  9  2  0  0  0  0
  5 12  1  0  0  0  0
  6  7  1  0  0  0  0
  6  8  1  0  0  0  0
  6 23  1  0  0  0  0
  6 24  1  0  0  0  0
  7  9  1  0  0  0  0
  7 25  1  0  0  0  0
  7 26  1  0  0  0  0
  8 11  1  0  0  0  0
  8 27  1  0  0  0  0
  8 28  1  0  0  0  0
  9 29  1  0  0  0  0
 10 13  1  0  0  0  0
 10 30  1  0  0  0  0
 10 31  1  0  0  0  0
 11 14  1  0  0  0  0
 11 32  1  0  0  0  0
 11 33  1  0  0  0  0
 12 34  1  0  0  0  0
 12 35  1  0  0  0  0
 12 36  1  0  0  0  0
 13 37  1  0  0  0  0
 13 38  1  0  0  0  0
 13 39  1  0  0  0  0
 14 40  1  0  0  0  0
 14 41  1  0  0  0  0
 14 42  1  0  0  0  0
M  END
> <PUBCHEM_COMPOUND_CID>
5364660

> <PUBCHEM_CONFORMER_RMSD>
1

> <PUBCHEM_CONFORMER_DIVERSEORDER>
1
705
290
29
615
688
6
58
569
113
99
5
712
210
43
543
403
726
696
80
590
479
59
72
473
24
752
51
383
73
307
545
25
21
9
686
37
400
511
477
146
682
12
177
666
237
413
159
65
77
639
266
324
52
134
731
15
88
669
420
438
129
248
105
674
33
207
145
708
2
35
85
140
95
97
341
222
690
32
34
144
98
11
751
527
50
122
123
465
410
155
56
4
54
118
326
209
311
645
744
312
151
19
455
41
717
603
355
83
64
601
239
298
218
580
110
281
87
419
631
128
215
3
722
280
641
621
528
759
200
354
202
655
205
558
38
681
30
642
279
417
632
596

> <PUBCHEM_MMFF94_PARTIAL_CHARGES>
6
12 0.14
29 0.15
3 0.14
5 -0.28
7 0.14
9 -0.29

> <PUBCHEM_EFFECTIVE_ROTOR_COUNT>
9

> <PUBCHEM_PHARMACOPHORE_FEATURES>
6
1 12 hydrophobe
1 13 hydrophobe
1 14 hydrophobe
3 1 3 5 hydrophobe
3 2 4 10 hydrophobe
5 6 7 8 9 11 hydrophobe

> <PUBCHEM_HEAVY_ATOM_COUNT>
14

> <PUBCHEM_ATOM_DEF_STEREO_COUNT>
0

> <PUBCHEM_ATOM_UDEF_STEREO_COUNT>
0

> <PUBCHEM_BOND_DEF_STEREO_COUNT>
1

> <PUBCHEM_BOND_UDEF_STEREO_COUNT>
0

> <PUBCHEM_ISOTOPIC_ATOM_COUNT>
0

> <PUBCHEM_COMPONENT_COUNT>
1

> <PUBCHEM_CACTVS_TAUTO_COUNT>
1

> <PUBCHEM_CONFORMER_ID>
0051DBB400000001

> <PUBCHEM_MMFF94_ENERGY>
-0.5146

> <PUBCHEM_FEATURE_SELFOVERLAP>
30.537

> <PUBCHEM_SHAPE_FINGERPRINT>
12714333 28 9583518719911074587
13533116 47 18201718466317082898
13685833 64 18410292493670293122
14123256 10 12973604434778672886
14251718 22 9079118856555440601
14251732 14 16805325470357798230
14251764 18 17989207053513002000
14455015 7 18335140890569355306
14528608 73 11530483328721160762
15501527 24 13695591044260264206
15531645 54 18407759235753674787
16079462 125 11600008717610858515
17834076 25 11818989686412273257
18222031 100 17095239232865606508
20397935 70 16988851544888465014
20605781 2 10087637100665544334
20621476 38 18343021081905771279
20645477 70 18409445891339279138
21150785 3 11386371461219293467
21521721 280 8142083191270786341
22896161 15 8790877485403638641
2297311 6 17312821563743876749
23016692 55 16950565480055837279
23402539 116 17489300915354238037
23590187 198 18409166640992318255
270888 7 9078242546094837714
28498 318 18410572856234539351
3014965 18 18411696560885722415
33532 11 18408040710831249011
4072396 5 16343705430278160500
42 15 18413108376675665453
42630746 31 17060064739238329647
4325135 7 10737284649347924555
465052 167 18343024393610159406
59755656 215 18040429963262158147
6327066 14 8069154758945354914

> <PUBCHEM_SHAPE_MULTIPOLES>
288.11
16.56
1.53
0.99
15.77
0.27
-0.4
8.09
2.98
-2.73
0.01
-0.36
-0.25
0.66

> <PUBCHEM_SHAPE_SELFOVERLAP>
519.025

> <PUBCHEM_SHAPE_VOLUME>
185.1

> <PUBCHEM_COORDINATE_TYPE>
2
5
10

$$$$
