5362738
  -OEChem-09262016063D

 55 54  0     0  0  0  0  0  0999 V2000
    5.7510   -0.2386   -0.8794 O   0  0  0  0  0  0  0  0  0  0  0  0
    5.3542    1.4117    0.6849 O   0  0  0  0  0  0  0  0  0  0  0  0
    0.2425    2.4538    0.3726 C   0  0  0  0  0  0  0  0  0  0  0  0
   -1.2160    2.3289   -0.0728 C   0  0  0  0  0  0  0  0  0  0  0  0
    1.1763    1.4476   -0.3072 C   0  0  0  0  0  0  0  0  0  0  0  0
   -2.1047    3.3490    0.6479 C   0  0  0  0  0  0  0  0  0  0  0  0
    2.6447    1.5057    0.1220 C   0  0  0  0  0  0  0  0  0  0  0  0
   -3.5834    3.2435    0.2587 C   0  0  0  0  0  0  0  0  0  0  0  0
    3.5369    0.5254   -0.6322 C   0  0  0  0  0  0  0  0  0  0  0  0
   -4.6045   -1.4957   -0.7991 C   0  0  0  0  0  0  0  0  0  0  0  0
   -5.2914   -0.2791   -0.1643 C   0  0  0  0  0  0  0  0  0  0  0  0
   -4.1677    1.8914    0.5565 C   0  0  0  0  0  0  0  0  0  0  0  0
   -3.1649   -1.6924   -0.3064 C   0  0  0  0  0  0  0  0  0  0  0  0
   -4.6754    1.0770   -0.3808 C   0  0  0  0  0  0  0  0  0  0  0  0
   -2.5208   -2.9221   -0.9564 C   0  0  0  0  0  0  0  0  0  0  0  0
    4.9727    0.6395   -0.1851 C   0  0  0  0  0  0  0  0  0  0  0  0
   -1.1174   -3.2585   -0.5275 C   0  0  0  0  0  0  0  0  0  0  0  0
   -0.3759   -2.6314    0.3983 C   0  0  0  0  0  0  0  0  0  0  0  0
    1.0110   -3.0596    0.7819 C   0  0  0  0  0  0  0  0  0  0  0  0
    0.9924   -4.0615    1.9254 C   0  0  0  0  0  0  0  0  0  0  0  0
    7.1405   -0.2347   -0.5370 C   0  0  0  0  0  0  0  0  0  0  0  0
    0.6011    3.4693    0.1640 H   0  0  0  0  0  0  0  0  0  0  0  0
    0.3030    2.3137    1.4591 H   0  0  0  0  0  0  0  0  0  0  0  0
   -1.2868    2.4782   -1.1567 H   0  0  0  0  0  0  0  0  0  0  0  0
   -1.5558    1.3098    0.1391 H   0  0  0  0  0  0  0  0  0  0  0  0
    0.7985    0.4345   -0.1202 H   0  0  0  0  0  0  0  0  0  0  0  0
    1.1210    1.6014   -1.3925 H   0  0  0  0  0  0  0  0  0  0  0  0
   -2.0063    3.2155    1.7328 H   0  0  0  0  0  0  0  0  0  0  0  0
   -1.7534    4.3633    0.4220 H   0  0  0  0  0  0  0  0  0  0  0  0
    2.7081    1.3088    1.1998 H   0  0  0  0  0  0  0  0  0  0  0  0
    3.0164    2.5275   -0.0275 H   0  0  0  0  0  0  0  0  0  0  0  0
   -4.1530    3.9971    0.8155 H   0  0  0  0  0  0  0  0  0  0  0  0
   -3.6939    3.4902   -0.8044 H   0  0  0  0  0  0  0  0  0  0  0  0
    3.1982   -0.5004   -0.4513 H   0  0  0  0  0  0  0  0  0  0  0  0
    3.4930    0.7341   -1.7067 H   0  0  0  0  0  0  0  0  0  0  0  0
   -5.1957   -2.3917   -0.5744 H   0  0  0  0  0  0  0  0  0  0  0  0
   -4.6029   -1.3787   -1.8900 H   0  0  0  0  0  0  0  0  0  0  0  0
   -5.3851   -0.4638    0.9140 H   0  0  0  0  0  0  0  0  0  0  0  0
   -6.3192   -0.2344   -0.5467 H   0  0  0  0  0  0  0  0  0  0  0  0
   -4.1820    1.5780    1.5972 H   0  0  0  0  0  0  0  0  0  0  0  0
   -3.1748   -1.8049    0.7845 H   0  0  0  0  0  0  0  0  0  0  0  0
   -2.5673   -0.8049   -0.5426 H   0  0  0  0  0  0  0  0  0  0  0  0
   -4.6559    1.4090   -1.4172 H   0  0  0  0  0  0  0  0  0  0  0  0
   -2.5117   -2.7825   -2.0447 H   0  0  0  0  0  0  0  0  0  0  0  0
   -3.1469   -3.8010   -0.7581 H   0  0  0  0  0  0  0  0  0  0  0  0
   -0.6824   -4.1185   -1.0339 H   0  0  0  0  0  0  0  0  0  0  0  0
   -0.7767   -1.7785    0.9379 H   0  0  0  0  0  0  0  0  0  0  0  0
    1.5899   -2.1744    1.0692 H   0  0  0  0  0  0  0  0  0  0  0  0
    1.5254   -3.5014   -0.0799 H   0  0  0  0  0  0  0  0  0  0  0  0
    0.5100   -3.6392    2.8135 H   0  0  0  0  0  0  0  0  0  0  0  0
    0.4551   -4.9742    1.6466 H   0  0  0  0  0  0  0  0  0  0  0  0
    2.0149   -4.3421    2.1978 H   0  0  0  0  0  0  0  0  0  0  0  0
    7.5771    0.7485   -0.7369 H   0  0  0  0  0  0  0  0  0  0  0  0
    7.2725   -0.5103    0.5137 H   0  0  0  0  0  0  0  0  0  0  0  0
    7.6464   -0.9766   -1.1605 H   0  0  0  0  0  0  0  0  0  0  0  0
  1 16  1  0  0  0  0
  1 21  1  0  0  0  0
  2 16  2  0  0  0  0
  3  4  1  0  0  0  0
  3  5  1  0  0  0  0
  3 22  1  0  0  0  0
  3 23  1  0  0  0  0
  4  6  1  0  0  0  0
  4 24  1  0  0  0  0
  4 25  1  0  0  0  0
  5  7  1  0  0  0  0
  5 26  1  0  0  0  0
  5 27  1  0  0  0  0
  6  8  1  0  0  0  0
  6 28  1  0  0  0  0
  6 29  1  0  0  0  0
  7  9  1  0  0  0  0
  7 30  1  0  0  0  0
  7 31  1  0  0  0  0
  8 12  1  0  0  0  0
  8 32  1  0  0  0  0
  8 33  1  0  0  0  0
  9 16  1  0  0  0  0
  9 34  1  0  0  0  0
  9 35  1  0  0  0  0
 10 11  1  0  0  0  0
 10 13  1  0  0  0  0
 10 36  1  0  0  0  0
 10 37  1  0  0  0  0
 11 14  1  0  0  0  0
 11 38  1  0  0  0  0
 11 39  1  0  0  0  0
 12 14  2  0  0  0  0
 12 40  1  0  0  0  0
 13 15  1  0  0  0  0
 13 41  1  0  0  0  0
 13 42  1  0  0  0  0
 14 43  1  0  0  0  0
 15 17  1  0  0  0  0
 15 44  1  0  0  0  0
 15 45  1  0  0  0  0
 17 18  2  0  0  0  0
 17 46  1  0  0  0  0
 18 19  1  0  0  0  0
 18 47  1  0  0  0  0
 19 20  1  0  0  0  0
 19 48  1  0  0  0  0
 19 49  1  0  0  0  0
 20 50  1  0  0  0  0
 20 51  1  0  0  0  0
 20 52  1  0  0  0  0
 21 53  1  0  0  0  0
 21 54  1  0  0  0  0
 21 55  1  0  0  0  0
M  END
> <PUBCHEM_COMPOUND_CID>
5362738

> <PUBCHEM_CONFORMER_RMSD>
1.4

> <PUBCHEM_CONFORMER_DIVERSEORDER>
1
78
41
57
32
18
96
98
95
83
87
44
88
74
77
85
90
37
3
65
39
20
9
27
48
76
58
51
45
104
30
62
93
5
108
26
23
103
4
34
91
92
84
24
106
69
94
54
71
46
63
82
102
75
101
60
99
43
105
64
107
70
47
35
19
29
14
22
72
50
100
38
11
42
59
52
68
28
79
49
81
7
86
21
67
89
8
10
2
13
97
109
66
12
53
16
61
36
40
55
6
25
73
56
17
80
33
31
15

> <PUBCHEM_MMFF94_PARTIAL_CHARGES>
17
1 -0.43
11 0.14
12 -0.29
14 -0.29
15 0.14
16 0.66
17 -0.29
18 -0.29
19 0.14
2 -0.57
21 0.28
40 0.15
43 0.15
46 0.15
47 0.15
8 0.14
9 0.06

> <PUBCHEM_EFFECTIVE_ROTOR_COUNT>
15

> <PUBCHEM_PHARMACOPHORE_FEATURES>
4
1 2 acceptor
1 20 hydrophobe
3 10 11 14 hydrophobe
3 13 15 17 hydrophobe

> <PUBCHEM_HEAVY_ATOM_COUNT>
21

> <PUBCHEM_ATOM_DEF_STEREO_COUNT>
0

> <PUBCHEM_ATOM_UDEF_STEREO_COUNT>
0

> <PUBCHEM_BOND_DEF_STEREO_COUNT>
2

> <PUBCHEM_BOND_UDEF_STEREO_COUNT>
0

> <PUBCHEM_ISOTOPIC_ATOM_COUNT>
0

> <PUBCHEM_COMPONENT_COUNT>
1

> <PUBCHEM_CACTVS_TAUTO_COUNT>
1

> <PUBCHEM_CONFORMER_ID>
0051D43200000001

> <PUBCHEM_MMFF94_ENERGY>
5.2164

> <PUBCHEM_FEATURE_SELFOVERLAP>
20.297

> <PUBCHEM_SHAPE_FINGERPRINT>
10670039 82 18411412916903106431
10693767 8 16979817124564305199
11200772 71 18045521934939180660
11513181 2 18058726897362973071
11756154 5 17971759023666597899
12788726 201 18338516451923528218
14251740 79 18341898514666274921
14251757 5 18337954600801278332
14289585 56 17385437692314122252
14461889 52 18059846308381118560
14647877 51 17914065196078332150
14866123 147 18411419514104884778
14931854 50 18338783586052027727
15322534 239 18335702775350184474
15629462 23 16700633194919352056
16120349 306 18339644443252980649
16719943 64 18410575097569502159
17627616 140 18263076622237002803
23559900 14 18200303446345387257
338550 245 18334864883497319894
5282940 2 18263640667649515259
57676310 188 18261397677515757194
6138700 20 18341610465202280199

> <PUBCHEM_SHAPE_MULTIPOLES>
420.43
13.69
5.58
1.06
19.13
3.14
-0.28
-4.21
3.3
-3.89
-1.87
0.22
0.89
-1.65

> <PUBCHEM_SHAPE_SELFOVERLAP>
776.97

> <PUBCHEM_SHAPE_VOLUME>
263.8

> <PUBCHEM_COORDINATE_TYPE>
2
5
10

$$$$
