57417215
  -OEChem-09262015363D

 62 61  0     0  0  0  0  0  0999 V2000
   -3.3129    2.8731   -0.5902 C   0  0  0  0  0  0  0  0  0  0  0  0
   -4.5178    2.1470    0.0232 C   0  0  0  0  0  0  0  0  0  0  0  0
    0.2347    2.5743    1.0388 C   0  0  0  0  0  0  0  0  0  0  0  0
   -4.7221   -1.7598    0.5191 C   0  0  0  0  0  0  0  0  0  0  0  0
    1.3626    2.7780    0.0221 C   0  0  0  0  0  0  0  0  0  0  0  0
   -3.5145   -2.5752    0.9948 C   0  0  0  0  0  0  0  0  0  0  0  0
   -1.9993    2.3506   -0.0804 C   0  0  0  0  0  0  0  0  0  0  0  0
   -4.6213    0.6551   -0.1562 C   0  0  0  0  0  0  0  0  0  0  0  0
   -4.5844   -0.2879    0.7973 C   0  0  0  0  0  0  0  0  0  0  0  0
   -1.0848    3.1019    0.5498 C   0  0  0  0  0  0  0  0  0  0  0  0
   -2.2383   -2.1949    0.2958 C   0  0  0  0  0  0  0  0  0  0  0  0
    2.7019    2.3490    0.5505 C   0  0  0  0  0  0  0  0  0  0  0  0
   -0.2298   -2.7799   -1.1763 C   0  0  0  0  0  0  0  0  0  0  0  0
    4.8013    0.9754    0.5066 C   0  0  0  0  0  0  0  0  0  0  0  0
    3.4555    1.3942   -0.0145 C   0  0  0  0  0  0  0  0  0  0  0  0
   -1.5087   -3.0547   -0.4304 C   0  0  0  0  0  0  0  0  0  0  0  0
    0.3014   -1.3406   -1.2129 C   0  0  0  0  0  0  0  0  0  0  0  0
    4.8573   -0.5054    0.8976 C   0  0  0  0  0  0  0  0  0  0  0  0
    1.5352   -1.1956   -2.0591 C   0  0  0  0  0  0  0  0  0  0  0  0
    3.8821   -0.8565    1.9861 C   0  0  0  0  0  0  0  0  0  0  0  0
    2.8877   -1.7440    1.8400 C   0  0  0  0  0  0  0  0  0  0  0  0
    1.5865   -0.4756   -3.1892 C   0  0  0  0  0  0  0  0  0  0  0  0
    2.8102   -0.3378   -4.0324 C   0  0  0  0  0  0  0  0  0  0  0  0
    1.9175   -2.0905    2.9202 C   0  0  0  0  0  0  0  0  0  0  0  0
   -5.4294    2.5890   -0.3996 H   0  0  0  0  0  0  0  0  0  0  0  0
   -4.5487    2.3786    1.0967 H   0  0  0  0  0  0  0  0  0  0  0  0
   -3.3314    2.7470   -1.6797 H   0  0  0  0  0  0  0  0  0  0  0  0
   -3.4081    3.9480   -0.3950 H   0  0  0  0  0  0  0  0  0  0  0  0
   -5.6171   -2.1207    1.0405 H   0  0  0  0  0  0  0  0  0  0  0  0
   -4.8889   -1.9420   -0.5501 H   0  0  0  0  0  0  0  0  0  0  0  0
    0.4772    3.0765    1.9838 H   0  0  0  0  0  0  0  0  0  0  0  0
    0.1464    1.5059    1.2770 H   0  0  0  0  0  0  0  0  0  0  0  0
    1.4299    3.8406   -0.2440 H   0  0  0  0  0  0  0  0  0  0  0  0
    1.1228    2.2404   -0.9042 H   0  0  0  0  0  0  0  0  0  0  0  0
   -3.3725   -2.4314    2.0733 H   0  0  0  0  0  0  0  0  0  0  0  0
   -3.7330   -3.6403    0.8494 H   0  0  0  0  0  0  0  0  0  0  0  0
   -4.7447    0.3333   -1.1891 H   0  0  0  0  0  0  0  0  0  0  0  0
   -1.7791    1.3023   -0.2646 H   0  0  0  0  0  0  0  0  0  0  0  0
   -4.4687    0.0113    1.8358 H   0  0  0  0  0  0  0  0  0  0  0  0
   -1.2802    4.1581    0.7163 H   0  0  0  0  0  0  0  0  0  0  0  0
   -1.8963   -1.1717    0.4167 H   0  0  0  0  0  0  0  0  0  0  0  0
    3.0620    2.8574    1.4415 H   0  0  0  0  0  0  0  0  0  0  0  0
    5.0928    1.5915    1.3668 H   0  0  0  0  0  0  0  0  0  0  0  0
    5.5464    1.1628   -0.2760 H   0  0  0  0  0  0  0  0  0  0  0  0
   -0.3833   -3.1188   -2.2097 H   0  0  0  0  0  0  0  0  0  0  0  0
    0.5453   -3.4324   -0.7532 H   0  0  0  0  0  0  0  0  0  0  0  0
   -1.8650   -4.0800   -0.5176 H   0  0  0  0  0  0  0  0  0  0  0  0
    3.1073    0.9008   -0.9151 H   0  0  0  0  0  0  0  0  0  0  0  0
    0.5408   -1.0060   -0.1964 H   0  0  0  0  0  0  0  0  0  0  0  0
    5.8683   -0.7421    1.2502 H   0  0  0  0  0  0  0  0  0  0  0  0
    4.6847   -1.1250    0.0082 H   0  0  0  0  0  0  0  0  0  0  0  0
   -0.4859   -0.6718   -1.5833 H   0  0  0  0  0  0  0  0  0  0  0  0
    2.4257   -1.7161   -1.7160 H   0  0  0  0  0  0  0  0  0  0  0  0
    4.0123   -0.3513    2.9400 H   0  0  0  0  0  0  0  0  0  0  0  0
    0.6974    0.0454   -3.5342 H   0  0  0  0  0  0  0  0  0  0  0  0
    2.7589   -2.2548    0.8898 H   0  0  0  0  0  0  0  0  0  0  0  0
    3.6617   -0.8893   -3.6211 H   0  0  0  0  0  0  0  0  0  0  0  0
    2.6132   -0.7155   -5.0403 H   0  0  0  0  0  0  0  0  0  0  0  0
    3.0925    0.7167   -4.1086 H   0  0  0  0  0  0  0  0  0  0  0  0
    0.8988   -1.8634    2.5909 H   0  0  0  0  0  0  0  0  0  0  0  0
    2.1089   -1.5360    3.8443 H   0  0  0  0  0  0  0  0  0  0  0  0
    1.9760   -3.1598    3.1447 H   0  0  0  0  0  0  0  0  0  0  0  0
  1  2  1  0  0  0  0
  1  7  1  0  0  0  0
  1 27  1  0  0  0  0
  1 28  1  0  0  0  0
  2  8  1  0  0  0  0
  2 25  1  0  0  0  0
  2 26  1  0  0  0  0
  3  5  1  0  0  0  0
  3 10  1  0  0  0  0
  3 31  1  0  0  0  0
  3 32  1  0  0  0  0
  4  6  1  0  0  0  0
  4  9  1  0  0  0  0
  4 29  1  0  0  0  0
  4 30  1  0  0  0  0
  5 12  1  0  0  0  0
  5 33  1  0  0  0  0
  5 34  1  0  0  0  0
  6 11  1  0  0  0  0
  6 35  1  0  0  0  0
  6 36  1  0  0  0  0
  7 10  2  0  0  0  0
  7 38  1  0  0  0  0
  8  9  2  0  0  0  0
  8 37  1  0  0  0  0
  9 39  1  0  0  0  0
 10 40  1  0  0  0  0
 11 16  2  0  0  0  0
 11 41  1  0  0  0  0
 12 15  2  0  0  0  0
 12 42  1  0  0  0  0
 13 16  1  0  0  0  0
 13 17  1  0  0  0  0
 13 45  1  0  0  0  0
 13 46  1  0  0  0  0
 14 15  1  0  0  0  0
 14 18  1  0  0  0  0
 14 43  1  0  0  0  0
 14 44  1  0  0  0  0
 15 48  1  0  0  0  0
 16 47  1  0  0  0  0
 17 19  1  0  0  0  0
 17 49  1  0  0  0  0
 17 52  1  0  0  0  0
 18 20  1  0  0  0  0
 18 50  1  0  0  0  0
 18 51  1  0  0  0  0
 19 22  2  0  0  0  0
 19 53  1  0  0  0  0
 20 21  2  0  0  0  0
 20 54  1  0  0  0  0
 21 24  1  0  0  0  0
 21 56  1  0  0  0  0
 22 23  1  0  0  0  0
 22 55  1  0  0  0  0
 23 57  1  0  0  0  0
 23 58  1  0  0  0  0
 23 59  1  0  0  0  0
 24 60  1  0  0  0  0
 24 61  1  0  0  0  0
 24 62  1  0  0  0  0
M  END
> <PUBCHEM_COMPOUND_CID>
57417215

> <PUBCHEM_CONFORMER_RMSD>
1.8

> <PUBCHEM_CONFORMER_DIVERSEORDER>
1
89
73
48
139
76
28
19
123
131
146
49
124
14
177
90
172
111
186
3
150
38
74
119
44
158
85
105
21
167
4
72
135
13
179
178
95
174
153
156
35
84
148
57
102
143
168
164
130
185
93
62
23
83
81
78
88
63
173
99
27
149
144
140
154
180
181
87
33
70
110
132
61
109
122
118
169
16
170
136
106
113
75
50
47
86
152
26
8
129
36
98
100
92
115
147
121
52
125
183
165
41
145
34
184
77
163
56
68
171
54
58
91
43
71
161
39
80
46
66
162
5
55
142
29
157
138
151
25
10
134
53
40
137
65
117
32
17
22
18
64
155
79
2
103
175
182
160
104
176
116
51
24
159
30
128
12
166
15
69
141
96
31
107
127
114
45
108
42
94
11
133
67
112
9
126
6
60
82
97
120
59
7
101
20
37

> <PUBCHEM_MMFF94_PARTIAL_CHARGES>
36
1 0.14
10 -0.29
11 -0.29
12 -0.29
13 0.14
14 0.14
15 -0.29
16 -0.29
17 0.14
18 0.14
19 -0.29
2 0.14
20 -0.29
21 -0.29
22 -0.29
23 0.14
24 0.14
3 0.14
37 0.15
38 0.15
39 0.15
4 0.14
40 0.15
41 0.15
42 0.15
47 0.15
48 0.15
5 0.14
53 0.15
54 0.15
55 0.15
56 0.15
6 0.14
7 -0.29
8 -0.29
9 -0.29

> <PUBCHEM_EFFECTIVE_ROTOR_COUNT>
15

> <PUBCHEM_PHARMACOPHORE_FEATURES>
7
1 23 hydrophobe
1 24 hydrophobe
4 1 2 7 8 hydrophobe
4 13 16 17 19 hydrophobe
4 14 15 18 20 hydrophobe
4 3 5 10 12 hydrophobe
4 4 6 9 11 hydrophobe

> <PUBCHEM_HEAVY_ATOM_COUNT>
24

> <PUBCHEM_ATOM_DEF_STEREO_COUNT>
0

> <PUBCHEM_ATOM_UDEF_STEREO_COUNT>
0

> <PUBCHEM_BOND_DEF_STEREO_COUNT>
6

> <PUBCHEM_BOND_UDEF_STEREO_COUNT>
0

> <PUBCHEM_ISOTOPIC_ATOM_COUNT>
0

> <PUBCHEM_COMPONENT_COUNT>
1

> <PUBCHEM_CACTVS_TAUTO_COUNT>
1

> <PUBCHEM_CONFORMER_ID>
036C1DFF00000001

> <PUBCHEM_MMFF94_ENERGY>
0.3936

> <PUBCHEM_FEATURE_SELFOVERLAP>
35.529

> <PUBCHEM_SHAPE_FINGERPRINT>
12467345 10 18186794760280139130
13111901 137 17630075795848392084
13402501 40 18343588473176935125
144659 39 17916286394592677752
15403338 16 18114444739400180099
15721738 202 15793159171105053147
17921350 177 18271242824003191756
20531524 4 18270696250696857965
20764821 26 18269565940000786435
238918 7 17917711326969993484
3052486 1 18337122197838101188
508706 21 18340216253887236525

> <PUBCHEM_SHAPE_MULTIPOLES>
493.91
10.14
4.57
2.89
3.67
1.22
2.81
0.62
-3.33
3.07
-0.87
-4.43
-1.96
0.2

> <PUBCHEM_SHAPE_SELFOVERLAP>
921.208

> <PUBCHEM_SHAPE_VOLUME>
299.7

> <PUBCHEM_COORDINATE_TYPE>
2
5
10

$$$$
