11587079
  -OEChem-09252005563D

 32 34  0     0  0  0  0  0  0999 V2000
    4.4804    0.8662    0.2576 O   0  0  0  0  0  0  0  0  0  0  0  0
   -0.8093   -2.6112   -0.0706 O   0  0  0  0  0  0  0  0  0  0  0  0
   -0.2096    2.6944    0.1647 O   0  0  0  0  0  0  0  0  0  0  0  0
    4.1690   -1.8897    0.1352 O   0  0  0  0  0  0  0  0  0  0  0  0
   -1.8517   -0.5067   -0.0223 C   0  0  0  0  0  0  0  0  0  0  0  0
    0.8337    0.5900    0.1162 C   0  0  0  0  0  0  0  0  0  0  0  0
    0.6768   -0.7963    0.0550 C   0  0  0  0  0  0  0  0  0  0  0  0
   -1.6948    0.8795    0.0389 C   0  0  0  0  0  0  0  0  0  0  0  0
   -0.6717   -1.3953   -0.0169 C   0  0  0  0  0  0  0  0  0  0  0  0
   -0.3464    1.4785    0.1106 C   0  0  0  0  0  0  0  0  0  0  0  0
   -3.1353   -1.0619   -0.0896 C   0  0  0  0  0  0  0  0  0  0  0  0
    2.1171    1.1452    0.1837 C   0  0  0  0  0  0  0  0  0  0  0  0
    1.8034   -1.6275    0.0615 C   0  0  0  0  0  0  0  0  0  0  0  0
   -2.8213    1.7107    0.0326 C   0  0  0  0  0  0  0  0  0  0  0  0
   -4.2552   -0.2299   -0.0954 C   0  0  0  0  0  0  0  0  0  0  0  0
    3.2371    0.3132    0.1900 C   0  0  0  0  0  0  0  0  0  0  0  0
   -4.0986    1.1534   -0.0346 C   0  0  0  0  0  0  0  0  0  0  0  0
    3.0806   -1.0700    0.1291 C   0  0  0  0  0  0  0  0  0  0  0  0
   -5.6222   -0.8223   -0.1668 C   0  0  0  0  0  0  0  0  0  0  0  0
    5.1182    1.1799   -0.9789 C   0  0  0  0  0  0  0  0  0  0  0  0
   -3.2716   -2.1396   -0.1396 H   0  0  0  0  0  0  0  0  0  0  0  0
    2.2583    2.2221    0.2330 H   0  0  0  0  0  0  0  0  0  0  0  0
    1.7012   -2.7089    0.0144 H   0  0  0  0  0  0  0  0  0  0  0  0
   -2.7258    2.7922    0.0788 H   0  0  0  0  0  0  0  0  0  0  0  0
   -4.9644    1.8104   -0.0406 H   0  0  0  0  0  0  0  0  0  0  0  0
   -5.6672   -1.7726    0.3761 H   0  0  0  0  0  0  0  0  0  0  0  0
   -6.3675   -0.1596    0.2861 H   0  0  0  0  0  0  0  0  0  0  0  0
   -5.9010   -0.9990   -1.2104 H   0  0  0  0  0  0  0  0  0  0  0  0
    4.9679   -1.3426    0.2271 H   0  0  0  0  0  0  0  0  0  0  0  0
    6.1140    1.5749   -0.7601 H   0  0  0  0  0  0  0  0  0  0  0  0
    4.5493    1.9439   -1.5181 H   0  0  0  0  0  0  0  0  0  0  0  0
    5.2255    0.2847   -1.5996 H   0  0  0  0  0  0  0  0  0  0  0  0
  1 16  1  0  0  0  0
  1 20  1  0  0  0  0
  2  9  2  0  0  0  0
  3 10  2  0  0  0  0
  4 18  1  0  0  0  0
  4 29  1  0  0  0  0
  5  8  2  0  0  0  0
  5  9  1  0  0  0  0
  5 11  1  0  0  0  0
  6  7  1  0  0  0  0
  6 10  1  0  0  0  0
  6 12  2  0  0  0  0
  7  9  1  0  0  0  0
  7 13  2  0  0  0  0
  8 10  1  0  0  0  0
  8 14  1  0  0  0  0
 11 15  2  0  0  0  0
 11 21  1  0  0  0  0
 12 16  1  0  0  0  0
 12 22  1  0  0  0  0
 13 18  1  0  0  0  0
 13 23  1  0  0  0  0
 14 17  2  0  0  0  0
 14 24  1  0  0  0  0
 15 17  1  0  0  0  0
 15 19  1  0  0  0  0
 16 18  2  0  0  0  0
 17 25  1  0  0  0  0
 19 26  1  0  0  0  0
 19 27  1  0  0  0  0
 19 28  1  0  0  0  0
 20 30  1  0  0  0  0
 20 31  1  0  0  0  0
 20 32  1  0  0  0  0
M  END
> <PUBCHEM_COMPOUND_CID>
11587079

> <PUBCHEM_CONFORMER_RMSD>
0.6

> <PUBCHEM_CONFORMER_DIVERSEORDER>
1

> <PUBCHEM_MMFF94_PARTIAL_CHARGES>
26
1 -0.36
10 0.4
11 -0.15
12 -0.15
13 -0.15
14 -0.15
15 -0.14
16 0.08
17 -0.15
18 0.08
19 0.14
2 -0.57
20 0.28
21 0.15
22 0.15
23 0.15
24 0.15
25 0.15
29 0.45
3 -0.57
4 -0.53
5 0.09
6 0.09
7 0.09
8 0.09
9 0.4

> <PUBCHEM_EFFECTIVE_ROTOR_COUNT>
1

> <PUBCHEM_PHARMACOPHORE_FEATURES>
7
1 1 acceptor
1 2 acceptor
1 3 acceptor
1 4 donor
6 5 6 7 8 9 10 rings
6 5 8 11 14 15 17 rings
6 6 7 12 13 16 18 rings

> <PUBCHEM_HEAVY_ATOM_COUNT>
20

> <PUBCHEM_ATOM_DEF_STEREO_COUNT>
0

> <PUBCHEM_ATOM_UDEF_STEREO_COUNT>
0

> <PUBCHEM_BOND_DEF_STEREO_COUNT>
0

> <PUBCHEM_BOND_UDEF_STEREO_COUNT>
0

> <PUBCHEM_ISOTOPIC_ATOM_COUNT>
0

> <PUBCHEM_COMPONENT_COUNT>
1

> <PUBCHEM_CACTVS_TAUTO_COUNT>
5

> <PUBCHEM_CONFORMER_ID>
00B0CE0700000001

> <PUBCHEM_MMFF94_ENERGY>
68.676

> <PUBCHEM_FEATURE_SELFOVERLAP>
35.564

> <PUBCHEM_SHAPE_FINGERPRINT>
10498660 4 18409731720727415580
10616163 171 18339927142005356334
10906281 52 18339379495610793033
10967382 1 18411417327755131819
11471102 20 18410288107901970318
11578080 2 13697599881926960717
11806522 49 18410571808188542597
12011746 2 18412828018443199525
12236239 1 17894346692026616620
12390115 104 18129679508111181873
12403259 226 18267015072913985520
12403814 3 17531240673376744997
12788726 201 17916876728872774720
12954195 1 17986976067538360940
13140716 1 18195805172218046033
13862211 1 18411693292732348527
14787075 74 18408322207081621339
14790565 3 18411426076820382753
15196674 1 18410855426005852257
15536298 74 18342174440798440010
16945 1 18267017452067001881
17492 89 18266456499353410491
19591789 44 18411416172667846723
200 152 18202558484864021789
20028762 73 18059005203144734711
20510252 161 18272088258066262737
20645477 70 18340487772924435638
21029758 11 18342453764234191665
21029758 27 18261116322032979989
21267235 1 18411424981418911011
221490 88 18192151723139669155
2334 1 18411416202784923617
23402539 116 18271798038657203247
23402655 69 18342453721104917333
23463225 33 18409728430813796849
23559900 14 18054221038703895714
2748010 2 18411416181336467397
2871803 45 18334851693468247587
3004659 81 18334013853118729734
335352 9 18123186805627273349
34934 24 18339918329064540338
350125 39 18337390418988750096
3545911 37 18409731785489132214
4340502 62 16515404071071272163
474 4 17458634470803488356
5104073 3 18411417267651957849
537710 114 18410577300945623812
69090 78 18413384345604730795
9709674 26 18411986836176894334

> <PUBCHEM_SHAPE_MULTIPOLES>
388.11
9.78
2.29
0.66
0.06
0.06
-0.05
-0.13
-1.22
-0.27
0.03
-0.23
-0.06
-0.38

> <PUBCHEM_SHAPE_SELFOVERLAP>
868.669

> <PUBCHEM_SHAPE_VOLUME>
205.9

> <PUBCHEM_COORDINATE_TYPE>
2
5
10

$$$$
