576910
  -OEChem-09262015123D

 27 29  0     1  0  0  0  0  0999 V2000
    1.7776   -1.0203    0.9695 O   0  0  0  0  0  0  0  0  0  0  0  0
   -0.6877   -0.6864    0.6599 C   0  0  1  0  0  0  0  0  0  0  0  0
   -0.9993    0.8003    0.6785 C   0  0  2  0  0  0  0  0  0  0  0  0
   -1.8150   -0.1353   -0.1713 C   0  0  0  0  0  0  0  0  0  0  0  0
    0.6544   -1.1168    0.0822 C   0  0  1  0  0  0  0  0  0  0  0  0
    1.7311   -0.0667   -0.0983 C   0  0  1  0  0  0  0  0  0  0  0  0
   -0.0111    1.7365    0.0304 C   0  0  0  0  0  0  0  0  0  0  0  0
    1.4375    1.3401    0.3420 C   0  0  0  0  0  0  0  0  0  0  0  0
   -3.2069   -0.4187    0.2837 C   0  0  0  0  0  0  0  0  0  0  0  0
   -1.6655   -0.1566   -1.6548 C   0  0  0  0  0  0  0  0  0  0  0  0
    2.7848   -0.2760   -1.1218 C   0  0  0  0  0  0  0  0  0  0  0  0
   -0.9819   -1.2465    1.5460 H   0  0  0  0  0  0  0  0  0  0  0  0
   -1.4170    1.2026    1.5931 H   0  0  0  0  0  0  0  0  0  0  0  0
    0.6427   -1.9693   -0.5874 H   0  0  0  0  0  0  0  0  0  0  0  0
   -0.1882    2.7474    0.4176 H   0  0  0  0  0  0  0  0  0  0  0  0
   -0.1486    1.8086   -1.0523 H   0  0  0  0  0  0  0  0  0  0  0  0
    2.1148    2.0469   -0.1516 H   0  0  0  0  0  0  0  0  0  0  0  0
    1.6189    1.4352    1.4203 H   0  0  0  0  0  0  0  0  0  0  0  0
   -3.3032   -0.3926    1.3750 H   0  0  0  0  0  0  0  0  0  0  0  0
   -3.9031    0.3214   -0.1254 H   0  0  0  0  0  0  0  0  0  0  0  0
   -3.5290   -1.4108   -0.0507 H   0  0  0  0  0  0  0  0  0  0  0  0
   -0.6308   -0.1023   -2.0055 H   0  0  0  0  0  0  0  0  0  0  0  0
   -2.0839   -1.0826   -2.0657 H   0  0  0  0  0  0  0  0  0  0  0  0
   -2.2117    0.6806   -2.1033 H   0  0  0  0  0  0  0  0  0  0  0  0
    3.7375    0.1468   -0.7863 H   0  0  0  0  0  0  0  0  0  0  0  0
    2.9489   -1.3378   -1.3353 H   0  0  0  0  0  0  0  0  0  0  0  0
    2.5056    0.2135   -2.0604 H   0  0  0  0  0  0  0  0  0  0  0  0
  1  5  1  0  0  0  0
  1  6  1  0  0  0  0
  2  3  1  0  0  0  0
  2  4  1  0  0  0  0
  2  5  1  0  0  0  0
  2 12  1  0  0  0  0
  3  4  1  0  0  0  0
  3  7  1  0  0  0  0
  3 13  1  0  0  0  0
  4  9  1  0  0  0  0
  4 10  1  0  0  0  0
  5  6  1  0  0  0  0
  5 14  1  0  0  0  0
  6  8  1  0  0  0  0
  6 11  1  0  0  0  0
  7  8  1  0  0  0  0
  7 15  1  0  0  0  0
  7 16  1  0  0  0  0
  8 17  1  0  0  0  0
  8 18  1  0  0  0  0
  9 19  1  0  0  0  0
  9 20  1  0  0  0  0
  9 21  1  0  0  0  0
 10 22  1  0  0  0  0
 10 23  1  0  0  0  0
 10 24  1  0  0  0  0
 11 25  1  0  0  0  0
 11 26  1  0  0  0  0
 11 27  1  0  0  0  0
M  END
> <PUBCHEM_COMPOUND_CID>
576910

> <PUBCHEM_CONFORMER_RMSD>
0.4

> <PUBCHEM_CONFORMER_DIVERSEORDER>
1
7
3
10
11
2
6
4
12
9
5
8

> <PUBCHEM_MMFF94_PARTIAL_CHARGES>
14
1 -0.3
10 0.09
11 0.09
12 0.1
13 0.1
14 0.1
2 -0.1
3 -0.19
4 -0.19
5 0.05
6 -0.04
7 0.09
8 0.09
9 0.09

> <PUBCHEM_EFFECTIVE_ROTOR_COUNT>
0.8

> <PUBCHEM_PHARMACOPHORE_FEATURES>
3
1 1 acceptor
3 4 9 10 hydrophobe
8 1 2 3 4 5 6 7 8 rings

> <PUBCHEM_HEAVY_ATOM_COUNT>
11

> <PUBCHEM_ATOM_DEF_STEREO_COUNT>
0

> <PUBCHEM_ATOM_UDEF_STEREO_COUNT>
4

> <PUBCHEM_BOND_DEF_STEREO_COUNT>
0

> <PUBCHEM_BOND_UDEF_STEREO_COUNT>
0

> <PUBCHEM_ISOTOPIC_ATOM_COUNT>
0

> <PUBCHEM_COMPONENT_COUNT>
1

> <PUBCHEM_CACTVS_TAUTO_COUNT>
1

> <PUBCHEM_CONFORMER_ID>
0008CD8E00000001

> <PUBCHEM_MMFF94_ENERGY>
27.8301

> <PUBCHEM_FEATURE_SELFOVERLAP>
15.223

> <PUBCHEM_SHAPE_FINGERPRINT>
10353120 184 18412272713447175469
12423570 1 12575556555242266113
12897270 3 18408325483883250767
12932764 1 18187077382277069207
13024252 1 17968960607433043092
14128692 85 17774718770177828463
15310529 11 16877940533696596867
16945 1 18410288116576190571
18185500 45 18342168942987054603
21293036 1 18262247706486036950
23235685 24 18265893747004875432
23552423 10 18337674221236562897
2748010 2 18048885391888199434
29004967 10 18409162225333129225
369184 2 17967247572728005995
5084963 1 17313099722383465803
528886 8 18341896311369144531

> <PUBCHEM_SHAPE_MULTIPOLES>
220.51
3.72
1.38
1.15
0.63
0.53
0.36
-0.77
0.53
-0.36
-0.12
0.07
-0.21
-0.05

> <PUBCHEM_SHAPE_SELFOVERLAP>
461.927

> <PUBCHEM_SHAPE_VOLUME>
126.8

> <PUBCHEM_COORDINATE_TYPE>
2
5
10

$$$$
