86626
  -OEChem-09262015173D

 25 26  0     1  0  0  0  0  0999 V2000
    0.7094   -1.2351    0.2370 O   0  0  0  0  0  0  0  0  0  0  0  0
    1.6607    1.7400    1.0701 O   0  0  0  0  0  0  0  0  0  0  0  0
   -1.9576   -2.2609    0.4309 O   0  0  0  0  0  0  0  0  0  0  0  0
    1.8094   -0.3751   -0.1917 C   0  0  0  0  0  0  0  0  0  0  0  0
    1.3152    1.0967   -0.1469 C   0  0  1  0  0  0  0  0  0  0  0  0
   -0.1499    0.8679   -0.1662 C   0  0  0  0  0  0  0  0  0  0  0  0
   -0.4170   -0.4685    0.0855 C   0  0  0  0  0  0  0  0  0  0  0  0
    2.9906   -0.6530    0.7411 C   0  0  0  0  0  0  0  0  0  0  0  0
    2.1775   -0.7917   -1.6258 C   0  0  0  0  0  0  0  0  0  0  0  0
   -1.1803    1.7745   -0.3433 C   0  0  0  0  0  0  0  0  0  0  0  0
   -1.7077   -0.9521    0.1782 C   0  0  0  0  0  0  0  0  0  0  0  0
   -2.4943    1.3061   -0.2650 C   0  0  0  0  0  0  0  0  0  0  0  0
   -2.7562   -0.0489   -0.0040 C   0  0  0  0  0  0  0  0  0  0  0  0
    1.6641    1.6963   -0.9937 H   0  0  0  0  0  0  0  0  0  0  0  0
    2.7169   -0.4888    1.7893 H   0  0  0  0  0  0  0  0  0  0  0  0
    3.2981   -1.7032    0.6736 H   0  0  0  0  0  0  0  0  0  0  0  0
    3.8538   -0.0260    0.4963 H   0  0  0  0  0  0  0  0  0  0  0  0
    3.0258   -0.2113   -2.0031 H   0  0  0  0  0  0  0  0  0  0  0  0
    2.4373   -1.8558   -1.6666 H   0  0  0  0  0  0  0  0  0  0  0  0
    1.3338   -0.6547   -2.3115 H   0  0  0  0  0  0  0  0  0  0  0  0
   -0.9792    2.8237   -0.5312 H   0  0  0  0  0  0  0  0  0  0  0  0
    2.6069    1.9591    1.0259 H   0  0  0  0  0  0  0  0  0  0  0  0
   -3.3222    1.9965   -0.4008 H   0  0  0  0  0  0  0  0  0  0  0  0
   -3.7868   -0.3893    0.0566 H   0  0  0  0  0  0  0  0  0  0  0  0
   -1.1061   -2.7227    0.5232 H   0  0  0  0  0  0  0  0  0  0  0  0
  1  4  1  0  0  0  0
  1  7  1  0  0  0  0
  2  5  1  0  0  0  0
  2 22  1  0  0  0  0
  3 11  1  0  0  0  0
  3 25  1  0  0  0  0
  4  5  1  0  0  0  0
  4  8  1  0  0  0  0
  4  9  1  0  0  0  0
  5  6  1  0  0  0  0
  5 14  1  0  0  0  0
  6  7  2  0  0  0  0
  6 10  1  0  0  0  0
  7 11  1  0  0  0  0
  8 15  1  0  0  0  0
  8 16  1  0  0  0  0
  8 17  1  0  0  0  0
  9 18  1  0  0  0  0
  9 19  1  0  0  0  0
  9 20  1  0  0  0  0
 10 12  2  0  0  0  0
 10 21  1  0  0  0  0
 11 13  2  0  0  0  0
 12 13  1  0  0  0  0
 12 23  1  0  0  0  0
 13 24  1  0  0  0  0
M  END
> <PUBCHEM_COMPOUND_CID>
86626

> <PUBCHEM_CONFORMER_RMSD>
0.4

> <PUBCHEM_CONFORMER_DIVERSEORDER>
1
2

> <PUBCHEM_MMFF94_PARTIAL_CHARGES>
16
1 -0.36
10 -0.15
11 0.08
12 -0.15
13 -0.15
2 -0.68
21 0.15
22 0.4
23 0.15
24 0.15
25 0.45
3 -0.53
4 0.28
5 0.42
6 -0.14
7 0.08

> <PUBCHEM_EFFECTIVE_ROTOR_COUNT>
0.6

> <PUBCHEM_PHARMACOPHORE_FEATURES>
7
1 1 acceptor
1 2 acceptor
1 2 donor
1 3 donor
3 4 8 9 hydrophobe
5 1 4 5 6 7 rings
6 6 7 10 11 12 13 rings

> <PUBCHEM_HEAVY_ATOM_COUNT>
13

> <PUBCHEM_ATOM_DEF_STEREO_COUNT>
0

> <PUBCHEM_ATOM_UDEF_STEREO_COUNT>
1

> <PUBCHEM_BOND_DEF_STEREO_COUNT>
0

> <PUBCHEM_BOND_UDEF_STEREO_COUNT>
0

> <PUBCHEM_ISOTOPIC_ATOM_COUNT>
0

> <PUBCHEM_COMPONENT_COUNT>
1

> <PUBCHEM_CACTVS_TAUTO_COUNT>
3

> <PUBCHEM_CONFORMER_ID>
0001526200000001

> <PUBCHEM_MMFF94_ENERGY>
40.3604

> <PUBCHEM_FEATURE_SELFOVERLAP>
35.62

> <PUBCHEM_SHAPE_FINGERPRINT>
11206711 2 18335421206147580461
12423570 1 11155942423765725340
12524768 44 18341897432577076903
12716758 59 18194972833230984702
14115302 16 18113905913887267438
15219456 202 18271805765409025984
15775835 57 18115872897276680145
161256 15 18268723881254795157
16945 1 18336552607606764005
19973954 147 18338234967782181529
20201158 50 18272647905115687790
20645476 183 17532111430767394119
21040471 1 18190744124368962829
21501502 16 18410853308402534392
232386 152 18261950756884953706
2334 1 18193277622655900579
23388829 49 17405134614054173679
23402539 116 18268128925658700063
23552423 10 18042128819852519589
23559900 14 18196374724443984742
2748010 2 18265616661632148487
369184 2 18408597054813108865
5084963 1 17313382284039519911
53812653 166 18267015068529250153
81228 2 18262241126928526763

> <PUBCHEM_SHAPE_MULTIPOLES>
249.93
4.07
1.9
0.96
0.21
0.1
0.23
0.43
-0.02
-0.72
-0.26
0.7
0.02
0.5

> <PUBCHEM_SHAPE_SELFOVERLAP>
541.269

> <PUBCHEM_SHAPE_VOLUME>
138.8

> <PUBCHEM_COORDINATE_TYPE>
2
5
10

$$$$
