5365667
  -OEChem-09252011563D

 51 50  0     0  0  0  0  0  0999 V2000
    2.0696   -2.4066    2.0361 O   0  0  0  0  0  0  0  0  0  0  0  0
   -2.5106   -1.2706   -0.5638 C   0  0  0  0  0  0  0  0  0  0  0  0
   -2.1746   -2.7182   -0.9273 C   0  0  0  0  0  0  0  0  0  0  0  0
   -4.0222   -1.0682   -0.4068 C   0  0  0  0  0  0  0  0  0  0  0  0
   -0.6801   -2.9527   -1.1744 C   0  0  0  0  0  0  0  0  0  0  0  0
   -0.0470    2.4311    0.1443 C   0  0  0  0  0  0  0  0  0  0  0  0
   -1.3404    2.5185   -0.6754 C   0  0  0  0  0  0  0  0  0  0  0  0
    1.1488    2.1010   -0.7540 C   0  0  0  0  0  0  0  0  0  0  0  0
   -4.3943    0.3799   -0.0696 C   0  0  0  0  0  0  0  0  0  0  0  0
    0.2396   -2.7185    0.0276 C   0  0  0  0  0  0  0  0  0  0  0  0
   -2.5735    2.8655    0.1689 C   0  0  0  0  0  0  0  0  0  0  0  0
    2.4733    2.0238    0.0114 C   0  0  0  0  0  0  0  0  0  0  0  0
   -3.7553    0.8530    1.2053 C   0  0  0  0  0  0  0  0  0  0  0  0
   -2.9677    1.9360    1.2846 C   0  0  0  0  0  0  0  0  0  0  0  0
    1.7172   -2.9105   -0.2928 C   0  0  0  0  0  0  0  0  0  0  0  0
    3.6509    1.6131   -0.8770 C   0  0  0  0  0  0  0  0  0  0  0  0
    4.9282    1.5512   -0.0918 C   0  0  0  0  0  0  0  0  0  0  0  0
    2.5491   -2.6840    0.9414 C   0  0  0  0  0  0  0  0  0  0  0  0
    5.6891    0.4562    0.0134 C   0  0  0  0  0  0  0  0  0  0  0  0
   -2.1358   -0.6093   -1.3523 H   0  0  0  0  0  0  0  0  0  0  0  0
   -2.0016   -1.0004    0.3663 H   0  0  0  0  0  0  0  0  0  0  0  0
   -2.5174   -3.3869   -0.1284 H   0  0  0  0  0  0  0  0  0  0  0  0
   -2.7231   -3.0002   -1.8345 H   0  0  0  0  0  0  0  0  0  0  0  0
   -4.3992   -1.7358    0.3786 H   0  0  0  0  0  0  0  0  0  0  0  0
   -4.5306   -1.3546   -1.3355 H   0  0  0  0  0  0  0  0  0  0  0  0
   -0.3560   -2.3093   -2.0023 H   0  0  0  0  0  0  0  0  0  0  0  0
   -0.5485   -3.9864   -1.5180 H   0  0  0  0  0  0  0  0  0  0  0  0
    0.1290    3.3841    0.6571 H   0  0  0  0  0  0  0  0  0  0  0  0
   -0.1427    1.6577    0.9152 H   0  0  0  0  0  0  0  0  0  0  0  0
   -1.2240    3.2875   -1.4494 H   0  0  0  0  0  0  0  0  0  0  0  0
   -1.5091    1.5719   -1.1983 H   0  0  0  0  0  0  0  0  0  0  0  0
    0.9665    1.1413   -1.2539 H   0  0  0  0  0  0  0  0  0  0  0  0
    1.2348    2.8590   -1.5423 H   0  0  0  0  0  0  0  0  0  0  0  0
   -4.1408    1.0102   -0.9271 H   0  0  0  0  0  0  0  0  0  0  0  0
   -5.4827    0.4435    0.0498 H   0  0  0  0  0  0  0  0  0  0  0  0
   -0.0595   -3.3961    0.8374 H   0  0  0  0  0  0  0  0  0  0  0  0
    0.0967   -1.6994    0.4056 H   0  0  0  0  0  0  0  0  0  0  0  0
   -3.4254    3.0118   -0.5062 H   0  0  0  0  0  0  0  0  0  0  0  0
   -2.4137    3.8554    0.6179 H   0  0  0  0  0  0  0  0  0  0  0  0
    2.3698    1.3021    0.8321 H   0  0  0  0  0  0  0  0  0  0  0  0
    2.6779    2.9985    0.4724 H   0  0  0  0  0  0  0  0  0  0  0  0
   -3.9527    0.2810    2.1082 H   0  0  0  0  0  0  0  0  0  0  0  0
   -2.5498    2.1755    2.2609 H   0  0  0  0  0  0  0  0  0  0  0  0
    1.9102   -3.9264   -0.6514 H   0  0  0  0  0  0  0  0  0  0  0  0
    2.0445   -2.1998   -1.0584 H   0  0  0  0  0  0  0  0  0  0  0  0
    3.4360    0.6463   -1.3483 H   0  0  0  0  0  0  0  0  0  0  0  0
    3.7734    2.3434   -1.6855 H   0  0  0  0  0  0  0  0  0  0  0  0
    5.2551    2.4616    0.4042 H   0  0  0  0  0  0  0  0  0  0  0  0
    3.6392   -2.7855    0.8061 H   0  0  0  0  0  0  0  0  0  0  0  0
    6.6072    0.4787    0.5902 H   0  0  0  0  0  0  0  0  0  0  0  0
    5.4125   -0.4753   -0.4678 H   0  0  0  0  0  0  0  0  0  0  0  0
  1 18  2  0  0  0  0
  2  3  1  0  0  0  0
  2  4  1  0  0  0  0
  2 20  1  0  0  0  0
  2 21  1  0  0  0  0
  3  5  1  0  0  0  0
  3 22  1  0  0  0  0
  3 23  1  0  0  0  0
  4  9  1  0  0  0  0
  4 24  1  0  0  0  0
  4 25  1  0  0  0  0
  5 10  1  0  0  0  0
  5 26  1  0  0  0  0
  5 27  1  0  0  0  0
  6  7  1  0  0  0  0
  6  8  1  0  0  0  0
  6 28  1  0  0  0  0
  6 29  1  0  0  0  0
  7 11  1  0  0  0  0
  7 30  1  0  0  0  0
  7 31  1  0  0  0  0
  8 12  1  0  0  0  0
  8 32  1  0  0  0  0
  8 33  1  0  0  0  0
  9 13  1  0  0  0  0
  9 34  1  0  0  0  0
  9 35  1  0  0  0  0
 10 15  1  0  0  0  0
 10 36  1  0  0  0  0
 10 37  1  0  0  0  0
 11 14  1  0  0  0  0
 11 38  1  0  0  0  0
 11 39  1  0  0  0  0
 12 16  1  0  0  0  0
 12 40  1  0  0  0  0
 12 41  1  0  0  0  0
 13 14  2  0  0  0  0
 13 42  1  0  0  0  0
 14 43  1  0  0  0  0
 15 18  1  0  0  0  0
 15 44  1  0  0  0  0
 15 45  1  0  0  0  0
 16 17  1  0  0  0  0
 16 46  1  0  0  0  0
 16 47  1  0  0  0  0
 17 19  2  0  0  0  0
 17 48  1  0  0  0  0
 18 49  1  0  0  0  0
 19 50  1  0  0  0  0
 19 51  1  0  0  0  0
M  END
> <PUBCHEM_COMPOUND_CID>
5365667

> <PUBCHEM_CONFORMER_RMSD>
1.4

> <PUBCHEM_CONFORMER_DIVERSEORDER>
1
9
43
50
7
52
22
32
19
44
17
3
62
26
24
56
21
16
15
39
60
35
36
46
5
14
68
48
54
49
27
72
4
69
6
61
45
13
38
74
25
57
58
73
40
64
30
8
23
37
71
33
55
70
59
2
29
11
47
18
20
66
67
31
28
10
53
41
65
42
12
63
34
51

> <PUBCHEM_MMFF94_PARTIAL_CHARGES>
16
1 -0.57
11 0.14
13 -0.29
14 -0.29
15 0.06
16 0.14
17 -0.29
18 0.45
19 -0.3
42 0.15
43 0.15
48 0.15
49 0.06
50 0.15
51 0.15
9 0.14

> <PUBCHEM_EFFECTIVE_ROTOR_COUNT>
15

> <PUBCHEM_PHARMACOPHORE_FEATURES>
2
1 1 acceptor
1 19 hydrophobe

> <PUBCHEM_HEAVY_ATOM_COUNT>
19

> <PUBCHEM_ATOM_DEF_STEREO_COUNT>
0

> <PUBCHEM_ATOM_UDEF_STEREO_COUNT>
0

> <PUBCHEM_BOND_DEF_STEREO_COUNT>
1

> <PUBCHEM_BOND_UDEF_STEREO_COUNT>
0

> <PUBCHEM_ISOTOPIC_ATOM_COUNT>
0

> <PUBCHEM_COMPONENT_COUNT>
1

> <PUBCHEM_CACTVS_TAUTO_COUNT>
2

> <PUBCHEM_CONFORMER_ID>
0051DFA300000001

> <PUBCHEM_MMFF94_ENERGY>
3.6004

> <PUBCHEM_FEATURE_SELFOVERLAP>
10.148

> <PUBCHEM_SHAPE_FINGERPRINT>
10708813 3 18412267245948415828
14251757 17 17630914649777873700
14251757 5 17687199990033971652
14866123 147 18411134741199926318
16120349 306 18411701001829302328
20765182 5 18340200912058228936
21673915 165 18411984667608553188
338550 245 18335145280653725044
437795 70 18198647505051351958
5282940 2 18408323297840024463
57091435 65 18265061236393052822
602551 16 18271812366985217740
6287921 2 17913210849530840810
9543594 6 18339366258453015302

> <PUBCHEM_SHAPE_MULTIPOLES>
385.14
9.61
5.15
1.23
7.53
2.4
-0.41
-3.68
-0.65
0.19
0.18
-0.08
0.48
-2.19

> <PUBCHEM_SHAPE_SELFOVERLAP>
706.252

> <PUBCHEM_SHAPE_VOLUME>
241.9

> <PUBCHEM_COORDINATE_TYPE>
2
5
10

$$$$
