10611938
  -OEChem-09252005383D

 32 34  0     0  0  0  0  0  0999 V2000
    4.0085    1.3242    0.2816 O   0  0  0  0  0  0  0  0  0  0  0  0
    1.5677   -2.7544   -0.0110 O   0  0  0  0  0  0  0  0  0  0  0  0
   -0.9934   -2.5894   -0.0976 O   0  0  0  0  0  0  0  0  0  0  0  0
   -0.8147    2.7452    0.1645 O   0  0  0  0  0  0  0  0  0  0  0  0
    0.3629   -0.6578    0.0447 C   0  0  0  0  0  0  0  0  0  0  0  0
    0.4020    0.7364    0.1137 C   0  0  0  0  0  0  0  0  0  0  0  0
   -2.1804   -0.5819   -0.0477 C   0  0  0  0  0  0  0  0  0  0  0  0
   -2.1413    0.8123    0.0209 C   0  0  0  0  0  0  0  0  0  0  0  0
    1.5556   -1.3911    0.0547 C   0  0  0  0  0  0  0  0  0  0  0  0
   -0.9296   -1.3679   -0.0382 C   0  0  0  0  0  0  0  0  0  0  0  0
   -0.8486    1.5224    0.1039 C   0  0  0  0  0  0  0  0  0  0  0  0
    2.7808   -0.7285    0.1337 C   0  0  0  0  0  0  0  0  0  0  0  0
    1.6336    1.3973    0.1933 C   0  0  0  0  0  0  0  0  0  0  0  0
    2.8197    0.6627    0.2032 C   0  0  0  0  0  0  0  0  0  0  0  0
   -3.4121   -1.2429   -0.1254 C   0  0  0  0  0  0  0  0  0  0  0  0
   -3.3340    1.5455    0.0116 C   0  0  0  0  0  0  0  0  0  0  0  0
    4.0583   -1.5070    0.1445 C   0  0  0  0  0  0  0  0  0  0  0  0
   -4.5982   -0.5084   -0.1347 C   0  0  0  0  0  0  0  0  0  0  0  0
   -4.5593    0.8828   -0.0666 C   0  0  0  0  0  0  0  0  0  0  0  0
    4.6225    1.7006   -0.9492 C   0  0  0  0  0  0  0  0  0  0  0  0
    1.6830    2.4820    0.2490 H   0  0  0  0  0  0  0  0  0  0  0  0
   -3.4713   -2.3266   -0.1796 H   0  0  0  0  0  0  0  0  0  0  0  0
   -3.3305    2.6309    0.0640 H   0  0  0  0  0  0  0  0  0  0  0  0
    4.2543   -1.9293   -0.8467 H   0  0  0  0  0  0  0  0  0  0  0  0
    4.9261   -0.9004    0.4216 H   0  0  0  0  0  0  0  0  0  0  0  0
    4.0172   -2.3139    0.8849 H   0  0  0  0  0  0  0  0  0  0  0  0
   -5.5535   -1.0219   -0.1952 H   0  0  0  0  0  0  0  0  0  0  0  0
   -5.4842    1.4523   -0.0739 H   0  0  0  0  0  0  0  0  0  0  0  0
    2.4338   -3.0898   -0.2892 H   0  0  0  0  0  0  0  0  0  0  0  0
    5.5877    2.1621   -0.7231 H   0  0  0  0  0  0  0  0  0  0  0  0
    4.0006    2.4312   -1.4762 H   0  0  0  0  0  0  0  0  0  0  0  0
    4.7934    0.8268   -1.5858 H   0  0  0  0  0  0  0  0  0  0  0  0
  1 14  1  0  0  0  0
  1 20  1  0  0  0  0
  2  9  1  0  0  0  0
  2 29  1  0  0  0  0
  3 10  2  0  0  0  0
  4 11  2  0  0  0  0
  5  6  1  0  0  0  0
  5  9  2  0  0  0  0
  5 10  1  0  0  0  0
  6 11  1  0  0  0  0
  6 13  2  0  0  0  0
  7  8  1  0  0  0  0
  7 10  1  0  0  0  0
  7 15  2  0  0  0  0
  8 11  1  0  0  0  0
  8 16  2  0  0  0  0
  9 12  1  0  0  0  0
 12 14  2  0  0  0  0
 12 17  1  0  0  0  0
 13 14  1  0  0  0  0
 13 21  1  0  0  0  0
 15 18  1  0  0  0  0
 15 22  1  0  0  0  0
 16 19  1  0  0  0  0
 16 23  1  0  0  0  0
 17 24  1  0  0  0  0
 17 25  1  0  0  0  0
 17 26  1  0  0  0  0
 18 19  2  0  0  0  0
 18 27  1  0  0  0  0
 19 28  1  0  0  0  0
 20 30  1  0  0  0  0
 20 31  1  0  0  0  0
 20 32  1  0  0  0  0
M  END
> <PUBCHEM_COMPOUND_CID>
10611938

> <PUBCHEM_CONFORMER_RMSD>
0.6

> <PUBCHEM_CONFORMER_DIVERSEORDER>
1

> <PUBCHEM_MMFF94_PARTIAL_CHARGES>
26
1 -0.36
10 0.4
11 0.4
12 -0.14
13 -0.15
14 0.08
15 -0.15
16 -0.15
17 0.14
18 -0.15
19 -0.15
2 -0.53
20 0.28
21 0.15
22 0.15
23 0.15
27 0.15
28 0.15
29 0.45
3 -0.57
4 -0.57
5 0.09
6 0.09
7 0.09
8 0.09
9 0.08

> <PUBCHEM_EFFECTIVE_ROTOR_COUNT>
1

> <PUBCHEM_PHARMACOPHORE_FEATURES>
7
1 1 acceptor
1 2 donor
1 3 acceptor
1 4 acceptor
6 5 6 7 8 10 11 rings
6 5 6 9 12 13 14 rings
6 7 8 15 16 18 19 rings

> <PUBCHEM_HEAVY_ATOM_COUNT>
20

> <PUBCHEM_ATOM_DEF_STEREO_COUNT>
0

> <PUBCHEM_ATOM_UDEF_STEREO_COUNT>
0

> <PUBCHEM_BOND_DEF_STEREO_COUNT>
0

> <PUBCHEM_BOND_UDEF_STEREO_COUNT>
0

> <PUBCHEM_ISOTOPIC_ATOM_COUNT>
0

> <PUBCHEM_COMPONENT_COUNT>
1

> <PUBCHEM_CACTVS_TAUTO_COUNT>
5

> <PUBCHEM_CONFORMER_ID>
00A1ECE200000001

> <PUBCHEM_MMFF94_ENERGY>
74.8336

> <PUBCHEM_FEATURE_SELFOVERLAP>
35.564

> <PUBCHEM_SHAPE_FINGERPRINT>
10411042 1 17690279305180924555
10498660 4 18410014333881022188
10608611 8 18410289177507121517
10616163 171 18266743656534378303
10759866 29 18187367644936053178
10967382 1 18411417323475975771
1100329 8 16970547716674245443
11132069 177 18341603802674133073
11471102 20 18411132532795049143
11578080 2 13697598782515553229
12236239 1 17822286946679792656
12403814 3 17603577560732691485
12788726 201 17846228712852162561
12954195 1 17986978283636055620
13140716 1 18338226159084053538
138480 1 17978509728587527246
14790565 3 18339090366375412433
15196674 1 18410855456091676859
15442244 35 18123468271961594018
15536298 74 18342737399204652346
16945 1 18267303136259440122
18186145 218 18040428863265032287
19591789 44 18411698807232966779
200 152 18060131029672102763
20510252 161 18272089379179379505
20645477 70 18341612581608761878
20715895 44 17900526896779411637
21267235 1 18411426076704156267
21421861 104 18043526110126696643
21501502 16 18339644443036501040
221490 88 18337961094966371026
2334 1 18411697690810059947
23366157 5 18042127561870655186
23402539 116 18271795818185556407
23402655 69 18343016684022407277
23463225 33 18410009910248959633
23558518 356 17977110063227838169
23559900 14 18198054781836098594
2748010 2 18411135818914528983
2871803 45 18409444756687165247
296302 2 17967533488685134829
335352 9 18267302040921499662
34934 24 18339918315709977602
350125 39 18409446952185762056
4409770 3 16239828747633373710
474 4 17531534299222247684
4990 188 17917440825909199628
5104073 3 18410573976609016291
537710 114 18411139155703581045
69090 78 18412821387124561491
7364860 26 18270117907797081086
8809292 202 18334297547997609155
9709674 26 18339928116862874543

> <PUBCHEM_SHAPE_MULTIPOLES>
388.11
8.49
2.61
0.66
0.04
0.39
-0.04
-1.58
-0.85
-0.77
-0.05
-0.21
-0.09
-0.43

> <PUBCHEM_SHAPE_SELFOVERLAP>
871.678

> <PUBCHEM_SHAPE_VOLUME>
204.9

> <PUBCHEM_COORDINATE_TYPE>
2
5
10

$$$$
