90658606
  -OEChem-09252005363D

 72 76  0     1  0  0  0  0  0999 V2000
   -2.3812    0.3594   -1.4272 O   0  0  0  0  0  0  0  0  0  0  0  0
    0.7454    2.2000   -0.9287 O   0  0  0  0  0  0  0  0  0  0  0  0
   -2.7886    0.1278    0.8585 O   0  0  0  0  0  0  0  0  0  0  0  0
   -3.0136    2.9806   -2.4737 O   0  0  0  0  0  0  0  0  0  0  0  0
   -0.0663    0.3365    0.2189 O   0  0  0  0  0  0  0  0  0  0  0  0
   -0.9940    4.4435   -1.2448 O   0  0  0  0  0  0  0  0  0  0  0  0
   -4.8976   -0.8146   -1.9723 O   0  0  0  0  0  0  0  0  0  0  0  0
   -5.7528   -2.6332    0.1822 O   0  0  0  0  0  0  0  0  0  0  0  0
   -5.5731   -1.3165    2.7492 O   0  0  0  0  0  0  0  0  0  0  0  0
    3.0613    3.5193   -2.2029 O   0  0  0  0  0  0  0  0  0  0  0  0
   -2.2594    1.2548    3.3091 O   0  0  0  0  0  0  0  0  0  0  0  0
    3.2050   -1.3377    0.5077 O   0  0  0  0  0  0  0  0  0  0  0  0
   -0.5803   -2.2364   -0.7034 O   0  0  0  0  0  0  0  0  0  0  0  0
    0.2550   -4.6684   -1.2597 O   0  5  0  0  0  0  0  0  0  0  0  0
    4.7423   -5.7145   -0.4968 O   0  0  0  0  0  0  0  0  0  0  0  0
    3.8916    4.5842    2.5346 O   0  0  0  0  0  0  0  0  0  0  0  0
   -1.5787    1.5193   -1.2070 C   0  0  2  0  0  0  0  0  0  0  0  0
   -1.6935    2.4473   -2.4160 C   0  0  2  0  0  0  0  0  0  0  0  0
   -0.6706    3.5811   -2.3374 C   0  0  2  0  0  0  0  0  0  0  0  0
   -3.3929    0.2312   -0.4286 C   0  0  2  0  0  0  0  0  0  0  0  0
   -4.2064   -1.0245   -0.7412 C   0  0  1  0  0  0  0  0  0  0  0  0
   -0.1289    1.0747   -1.0010 C   0  0  1  0  0  0  0  0  0  0  0  0
    0.7307    3.0006   -2.1172 C   0  0  1  0  0  0  0  0  0  0  0  0
   -5.2190   -1.3210    0.3651 C   0  0  2  0  0  0  0  0  0  0  0  0
   -4.5631   -1.2654    1.7449 C   0  0  1  0  0  0  0  0  0  0  0  0
   -3.7512    0.0216    1.9089 C   0  0  1  0  0  0  0  0  0  0  0  0
    1.7880    4.0854   -1.9486 C   0  0  0  0  0  0  0  0  0  0  0  0
   -2.9927    0.0460    3.2322 C   0  0  0  0  0  0  0  0  0  0  0  0
    0.9173   -0.6278    0.1781 C   0  0  0  0  0  0  0  0  0  0  0  0
    2.1854   -0.4009    0.5666 C   0  0  0  0  0  0  0  0  0  0  0  0
    0.5567   -1.9707   -0.3371 C   0  0  0  0  0  0  0  0  0  0  0  0
    1.6401   -2.9643   -0.3850 C   0  0  0  0  0  0  0  0  0  0  0  0
    2.6336    0.9047    1.0831 C   0  0  0  0  0  0  0  0  0  0  0  0
    2.9132   -2.5935    0.0416 C   0  0  0  0  0  0  0  0  0  0  0  0
    1.4016   -4.2594   -0.8517 C   0  0  0  0  0  0  0  0  0  0  0  0
    3.9582   -3.5174    0.0046 C   0  0  0  0  0  0  0  0  0  0  0  0
    2.0437    1.4418    2.2273 C   0  0  0  0  0  0  0  0  0  0  0  0
    3.6466    1.6038    0.4269 C   0  0  0  0  0  0  0  0  0  0  0  0
    2.4482   -5.1815   -0.8877 C   0  0  0  0  0  0  0  0  0  0  0  0
    3.7240   -4.8116   -0.4604 C   0  0  0  0  0  0  0  0  0  0  0  0
    2.4667    2.6781    2.7152 C   0  0  0  0  0  0  0  0  0  0  0  0
    4.0696    2.8402    0.9147 C   0  0  0  0  0  0  0  0  0  0  0  0
    3.4796    3.3773    2.0588 C   0  0  0  0  0  0  0  0  0  0  0  0
   -1.9168    2.0720   -0.3186 H   0  0  0  0  0  0  0  0  0  0  0  0
   -1.5428    1.8675   -3.3352 H   0  0  0  0  0  0  0  0  0  0  0  0
   -0.7152    4.1845   -3.2512 H   0  0  0  0  0  0  0  0  0  0  0  0
   -4.0330    1.1232   -0.4727 H   0  0  0  0  0  0  0  0  0  0  0  0
   -3.5426   -1.8835   -0.8944 H   0  0  0  0  0  0  0  0  0  0  0  0
    0.1718    0.4366   -1.8459 H   0  0  0  0  0  0  0  0  0  0  0  0
    1.0063    2.3577   -2.9639 H   0  0  0  0  0  0  0  0  0  0  0  0
   -6.0717   -0.6342    0.3099 H   0  0  0  0  0  0  0  0  0  0  0  0
   -3.9198   -2.1431    1.8827 H   0  0  0  0  0  0  0  0  0  0  0  0
   -4.4022    0.9058    1.8748 H   0  0  0  0  0  0  0  0  0  0  0  0
    1.7924    4.4944   -0.9331 H   0  0  0  0  0  0  0  0  0  0  0  0
    1.6387    4.8951   -2.6697 H   0  0  0  0  0  0  0  0  0  0  0  0
   -2.2769   -0.7813    3.2859 H   0  0  0  0  0  0  0  0  0  0  0  0
   -3.6732   -0.0075    4.0872 H   0  0  0  0  0  0  0  0  0  0  0  0
   -3.0568    3.5711   -3.2451 H   0  0  0  0  0  0  0  0  0  0  0  0
   -0.4453    5.2419   -1.3236 H   0  0  0  0  0  0  0  0  0  0  0  0
   -5.4928   -0.0540   -1.8581 H   0  0  0  0  0  0  0  0  0  0  0  0
   -5.0151   -3.2663    0.2087 H   0  0  0  0  0  0  0  0  0  0  0  0
   -6.1410   -0.5341    2.6441 H   0  0  0  0  0  0  0  0  0  0  0  0
    3.7186    4.2261   -2.0853 H   0  0  0  0  0  0  0  0  0  0  0  0
   -1.7745    1.2436    4.1519 H   0  0  0  0  0  0  0  0  0  0  0  0
    4.9530   -3.2313    0.3368 H   0  0  0  0  0  0  0  0  0  0  0  0
    1.2568    0.9101    2.7570 H   0  0  0  0  0  0  0  0  0  0  0  0
    4.1146    1.2006   -0.4679 H   0  0  0  0  0  0  0  0  0  0  0  0
    2.2877   -6.1981   -1.2473 H   0  0  0  0  0  0  0  0  0  0  0  0
    2.0038    3.0911    3.6073 H   0  0  0  0  0  0  0  0  0  0  0  0
    4.8588    3.3756    0.3938 H   0  0  0  0  0  0  0  0  0  0  0  0
    4.4052   -6.5578   -0.8448 H   0  0  0  0  0  0  0  0  0  0  0  0
    4.5966    4.9260    1.9582 H   0  0  0  0  0  0  0  0  0  0  0  0
  1 17  1  0  0  0  0
  1 20  1  0  0  0  0
  2 22  1  0  0  0  0
  2 23  1  0  0  0  0
  3 20  1  0  0  0  0
  3 26  1  0  0  0  0
  4 18  1  0  0  0  0
  4 58  1  0  0  0  0
  5 22  1  0  0  0  0
  5 29  1  0  0  0  0
  6 19  1  0  0  0  0
  6 59  1  0  0  0  0
  7 21  1  0  0  0  0
  7 60  1  0  0  0  0
  8 24  1  0  0  0  0
  8 61  1  0  0  0  0
  9 25  1  0  0  0  0
  9 62  1  0  0  0  0
 10 27  1  0  0  0  0
 10 63  1  0  0  0  0
 11 28  1  0  0  0  0
 11 64  1  0  0  0  0
 12 30  1  0  0  0  0
 12 34  1  0  0  0  0
 13 31  2  0  0  0  0
 14 35  1  0  0  0  0
 15 40  1  0  0  0  0
 15 71  1  0  0  0  0
 16 43  1  0  0  0  0
 16 72  1  0  0  0  0
 17 18  1  0  0  0  0
 17 22  1  0  0  0  0
 17 44  1  0  0  0  0
 18 19  1  0  0  0  0
 18 45  1  0  0  0  0
 19 23  1  0  0  0  0
 19 46  1  0  0  0  0
 20 21  1  0  0  0  0
 20 47  1  0  0  0  0
 21 24  1  0  0  0  0
 21 48  1  0  0  0  0
 22 49  1  0  0  0  0
 23 27  1  0  0  0  0
 23 50  1  0  0  0  0
 24 25  1  0  0  0  0
 24 51  1  0  0  0  0
 25 26  1  0  0  0  0
 25 52  1  0  0  0  0
 26 28  1  0  0  0  0
 26 53  1  0  0  0  0
 27 54  1  0  0  0  0
 27 55  1  0  0  0  0
 28 56  1  0  0  0  0
 28 57  1  0  0  0  0
 29 30  2  0  0  0  0
 29 31  1  0  0  0  0
 30 33  1  0  0  0  0
 31 32  1  0  0  0  0
 32 34  1  0  0  0  0
 32 35  2  0  0  0  0
 33 37  2  0  0  0  0
 33 38  1  0  0  0  0
 34 36  2  0  0  0  0
 35 39  1  0  0  0  0
 36 40  1  0  0  0  0
 36 65  1  0  0  0  0
 37 41  1  0  0  0  0
 37 66  1  0  0  0  0
 38 42  2  0  0  0  0
 38 67  1  0  0  0  0
 39 40  2  0  0  0  0
 39 68  1  0  0  0  0
 41 43  2  0  0  0  0
 41 69  1  0  0  0  0
 42 43  1  0  0  0  0
 42 70  1  0  0  0  0
M  CHG  1  14  -1
M  END
> <PUBCHEM_COMPOUND_CID>
90658606

> <PUBCHEM_CONFORMER_RMSD>
1.2

> <PUBCHEM_CONFORMER_DIVERSEORDER>
1
39
25
7
23
21
35
32
33
14
8
44
18
29
6
45
40
20
19
28
38
42
5
48
46
27
37
17
47
11
22
36
34
12
2
30
3
26
15
31
4
43
16
24
41
9
10
13

> <PUBCHEM_MMFF94_PARTIAL_CHARGES>
58
1 -0.56
10 -0.68
11 -0.68
12 -0.16
13 -0.57
14 -0.83
15 -0.53
16 -0.53
17 0.28
18 0.28
19 0.28
2 -0.56
20 0.56
21 0.28
22 0.56
23 0.28
24 0.28
25 0.28
26 0.28
27 0.28
28 0.28
29 0.09
3 -0.56
30 0.05
31 0.47
32 0.09
33 0.03
34 0.08
35 -0.17
36 -0.15
37 -0.15
38 -0.15
39 -0.15
4 -0.68
40 0.08
41 -0.15
42 -0.15
43 0.08
5 -0.36
58 0.4
59 0.4
6 -0.68
60 0.4
61 0.4
62 0.4
63 0.4
64 0.4
65 0.15
66 0.15
67 0.15
68 0.15
69 0.15
7 -0.68
70 0.15
71 0.45
72 0.45
8 -0.68
9 -0.68

> <PUBCHEM_EFFECTIVE_ROTOR_COUNT>
9.4

> <PUBCHEM_PHARMACOPHORE_FEATURES>
27
1 1 acceptor
1 10 acceptor
1 10 donor
1 11 acceptor
1 11 donor
1 12 acceptor
1 13 acceptor
1 15 donor
1 16 donor
1 2 acceptor
1 3 acceptor
1 4 acceptor
1 4 donor
1 5 acceptor
1 6 acceptor
1 6 donor
1 7 acceptor
1 7 donor
1 8 acceptor
1 8 donor
1 9 acceptor
1 9 donor
6 12 29 30 31 32 34 rings
6 2 17 18 19 22 23 rings
6 3 20 21 24 25 26 rings
6 32 34 35 36 39 40 rings
6 33 37 38 41 42 43 rings

> <PUBCHEM_HEAVY_ATOM_COUNT>
43

> <PUBCHEM_ATOM_DEF_STEREO_COUNT>
10

> <PUBCHEM_ATOM_UDEF_STEREO_COUNT>
0

> <PUBCHEM_BOND_DEF_STEREO_COUNT>
0

> <PUBCHEM_BOND_UDEF_STEREO_COUNT>
0

> <PUBCHEM_ISOTOPIC_ATOM_COUNT>
0

> <PUBCHEM_COMPONENT_COUNT>
1

> <PUBCHEM_CACTVS_TAUTO_COUNT>
24

> <PUBCHEM_CONFORMER_ID>
0567572E00000001

> <PUBCHEM_MMFF94_ENERGY>
146.331

> <PUBCHEM_FEATURE_SELFOVERLAP>
137.214

> <PUBCHEM_SHAPE_FINGERPRINT>
10032420 55 17035257321753668676
10165383 225 18197213866168794864
11115154 58 16691564297816748332
11445158 3 17988921128576029198
11488393 25 18042145252650725206
11578080 2 18342453725854299505
12202916 173 17680393893136277719
12786520 15 17557144995401959453
12788726 201 16470343567872535010
14400156 96 18266202633417470113
15297060 5 17909840060813735832
15324884 4 18189314832235896660
15420108 30 17541942434783007261
15775530 1 18118954802847420104
16090146 7 17691390228562653998
16993438 75 17614285459610218551
18365409 1 17480011338700184919
19315092 285 17702357668413887767
19319366 153 17844235435677880459
1979834 28 18263362650068665265
20101258 96 18046635499019167743
20775438 99 17543295620343353701
21133410 32 17391101160787058674
22440779 20 17612350404901825249
2260408 40 18265071257253043779
255183 313 17977922903411795224
27425 322 17344362287226597777
3380486 145 17694508044001462435
4015057 19 17837185118313021869
42626532 9 17751087920461342763
5080951 261 16962690637254123970
5171179 24 18196353849926674735
581034 39 17691969679948880626

> <PUBCHEM_SHAPE_MULTIPOLES>
791.01
9.65
7.98
3.06
9.46
4.27
1.54
6.58
3.93
-11.92
-3.48
2.01
-3.68
4.1

> <PUBCHEM_SHAPE_SELFOVERLAP>
1725.11

> <PUBCHEM_SHAPE_VOLUME>
424.6

> <PUBCHEM_COORDINATE_TYPE>
2
5
10

$$$$
