15032861
  -OEChem-09252011423D

 35 35  0     1  0  0  0  0  0999 V2000
   -1.6946    0.1269   -0.6522 C   0  0  1  0  0  0  0  0  0  0  0  0
   -1.9391    1.0193    0.5759 C   0  0  0  0  0  0  0  0  0  0  0  0
   -1.0509    2.2574    0.5401 C   0  0  0  0  0  0  0  0  0  0  0  0
    0.4294    1.8716    0.5129 C   0  0  0  0  0  0  0  0  0  0  0  0
    0.7383    0.7443   -0.4400 C   0  0  0  0  0  0  0  0  0  0  0  0
   -0.2280   -0.0255   -0.9712 C   0  0  0  0  0  0  0  0  0  0  0  0
    2.1878    0.5331   -0.7642 C   0  0  0  0  0  0  0  0  0  0  0  0
   -2.3517   -1.2385   -0.4458 C   0  0  0  0  0  0  0  0  0  0  0  0
    2.8552   -0.4074    0.2346 C   0  0  0  0  0  0  0  0  0  0  0  0
    4.3229   -0.6376   -0.1274 C   0  0  0  0  0  0  0  0  0  0  0  0
   -3.8210   -1.0986   -0.2012 C   0  0  0  0  0  0  0  0  0  0  0  0
    4.9904   -1.6027    0.8394 C   0  0  0  0  0  0  0  0  0  0  0  0
   -4.4388   -1.5423    0.8991 C   0  0  0  0  0  0  0  0  0  0  0  0
   -2.1555    0.6095   -1.5259 H   0  0  0  0  0  0  0  0  0  0  0  0
   -1.7394    0.4647    1.5026 H   0  0  0  0  0  0  0  0  0  0  0  0
   -2.9859    1.3427    0.6145 H   0  0  0  0  0  0  0  0  0  0  0  0
   -1.2503    2.8900    1.4125 H   0  0  0  0  0  0  0  0  0  0  0  0
   -1.2927    2.8550   -0.3483 H   0  0  0  0  0  0  0  0  0  0  0  0
    0.7451    1.5739    1.5204 H   0  0  0  0  0  0  0  0  0  0  0  0
    1.0093    2.7624    0.2438 H   0  0  0  0  0  0  0  0  0  0  0  0
    0.0442   -0.8048   -1.6795 H   0  0  0  0  0  0  0  0  0  0  0  0
    2.2830    0.1137   -1.7746 H   0  0  0  0  0  0  0  0  0  0  0  0
    2.7118    1.4962   -0.7940 H   0  0  0  0  0  0  0  0  0  0  0  0
   -1.8663   -1.7744    0.3806 H   0  0  0  0  0  0  0  0  0  0  0  0
   -2.2135   -1.8590   -1.3406 H   0  0  0  0  0  0  0  0  0  0  0  0
    2.7909    0.0109    1.2469 H   0  0  0  0  0  0  0  0  0  0  0  0
    2.3289   -1.3703    0.2519 H   0  0  0  0  0  0  0  0  0  0  0  0
    4.3979   -1.0413   -1.1439 H   0  0  0  0  0  0  0  0  0  0  0  0
    4.8633    0.3161   -0.1159 H   0  0  0  0  0  0  0  0  0  0  0  0
   -4.4168   -0.6225   -0.9759 H   0  0  0  0  0  0  0  0  0  0  0  0
    6.0388   -1.7516    0.5629 H   0  0  0  0  0  0  0  0  0  0  0  0
    4.4937   -2.5782    0.8258 H   0  0  0  0  0  0  0  0  0  0  0  0
    4.9605   -1.2158    1.8630 H   0  0  0  0  0  0  0  0  0  0  0  0
   -5.5099   -1.4186    1.0150 H   0  0  0  0  0  0  0  0  0  0  0  0
   -3.8933   -2.0313    1.6986 H   0  0  0  0  0  0  0  0  0  0  0  0
  1  2  1  0  0  0  0
  1  6  1  0  0  0  0
  1  8  1  0  0  0  0
  1 14  1  0  0  0  0
  2  3  1  0  0  0  0
  2 15  1  0  0  0  0
  2 16  1  0  0  0  0
  3  4  1  0  0  0  0
  3 17  1  0  0  0  0
  3 18  1  0  0  0  0
  4  5  1  0  0  0  0
  4 19  1  0  0  0  0
  4 20  1  0  0  0  0
  5  6  2  0  0  0  0
  5  7  1  0  0  0  0
  6 21  1  0  0  0  0
  7  9  1  0  0  0  0
  7 22  1  0  0  0  0
  7 23  1  0  0  0  0
  8 11  1  0  0  0  0
  8 24  1  0  0  0  0
  8 25  1  0  0  0  0
  9 10  1  0  0  0  0
  9 26  1  0  0  0  0
  9 27  1  0  0  0  0
 10 12  1  0  0  0  0
 10 28  1  0  0  0  0
 10 29  1  0  0  0  0
 11 13  2  0  0  0  0
 11 30  1  0  0  0  0
 12 31  1  0  0  0  0
 12 32  1  0  0  0  0
 12 33  1  0  0  0  0
 13 34  1  0  0  0  0
 13 35  1  0  0  0  0
M  END
> <PUBCHEM_COMPOUND_CID>
15032861

> <PUBCHEM_CONFORMER_RMSD>
0.6

> <PUBCHEM_CONFORMER_DIVERSEORDER>
1
88
98
153
80
172
123
97
60
150
8
63
86
160
52
174
71
35
109
171
152
134
116
138
139
27
119
62
94
165
89
95
166
147
40
159
33
113
66
55
17
12
114
107
53
69
148
49
136
170
92
106
157
42
54
2
132
154
115
102
85
143
87
117
137
70
72
28
79
133
100
122
30
58
144
64
164
25
84
41
156
22
141
121
158
162
29
167
16
21
120
23
46
78
19
44
151
142
129
15
68
135
31
103
155
93
18
20
108
110
99
161
127
149
57
75
13
36
126
7
83
169
111
32
34
56
50
48
146
130
61
47
76
43
45
67
140
96
101
10
26
124
128
38
11
163
14
81
39
131
51
74
3
168
4
82
59
9
37
118
6
145
90
5
73
125
112
91
173
105
77
104
24
65

> <PUBCHEM_MMFF94_PARTIAL_CHARGES>
12
1 0.14
11 -0.29
13 -0.3
21 0.15
30 0.15
34 0.15
35 0.15
4 0.14
5 -0.28
6 -0.29
7 0.14
8 0.14

> <PUBCHEM_EFFECTIVE_ROTOR_COUNT>
5.8

> <PUBCHEM_PHARMACOPHORE_FEATURES>
3
1 12 hydrophobe
1 13 hydrophobe
6 1 2 3 4 5 6 rings

> <PUBCHEM_HEAVY_ATOM_COUNT>
13

> <PUBCHEM_ATOM_DEF_STEREO_COUNT>
0

> <PUBCHEM_ATOM_UDEF_STEREO_COUNT>
1

> <PUBCHEM_BOND_DEF_STEREO_COUNT>
0

> <PUBCHEM_BOND_UDEF_STEREO_COUNT>
0

> <PUBCHEM_ISOTOPIC_ATOM_COUNT>
0

> <PUBCHEM_COMPONENT_COUNT>
1

> <PUBCHEM_CACTVS_TAUTO_COUNT>
1

> <PUBCHEM_CONFORMER_ID>
00E5621D00000001

> <PUBCHEM_MMFF94_ENERGY>
4.3398

> <PUBCHEM_FEATURE_SELFOVERLAP>
15.223

> <PUBCHEM_SHAPE_FINGERPRINT>
10130415 120 18200039576480735749
10465860 250 18341891896306287949
10726558 24 11097849679293253481
11046707 91 18334292029254523990
11357001 24 18271526394818642825
11769659 78 18333731325299934332
124424 183 18411697708301107317
12633257 1 16558739144463843706
12824470 246 18113892724301170754
14123255 352 10807933773507535482
1420 369 18408887321852118778
14252887 29 17988934366060705486
14420673 8 17480021896357857582
15375462 189 18338515351789778238
15885798 251 18341337764105289593
18186145 218 13407075933314896703
193927 3 18261121763593130634
19422 9 18335706005692572524
19784866 135 18411699885427585409
19784866 240 17894915100989193758
200 152 18187364333062749714
20112054 13 13038904443300495026
20281475 54 18265335191092940503
20671657 53 17749393684463883892
20871998 184 17917711258060794636
20871998 22 17988097628747077855
20871999 31 11386662831115033625
21650355 55 18271801272841748344
22218785 32 11963384142036246584
22959321 94 18413669123601248246
2297311 6 17988374693599496948
23402539 116 17988915665930886671
23402655 69 11603081921504113495
2748010 2 17558290747069611221
3086196 2 18271522005462189120
33382 64 17530973518158778419
76465 3 18270392931907110175
83771 10 18409729594617980853

> <PUBCHEM_SHAPE_MULTIPOLES>
267.53
8.68
2.06
0.99
5.36
0.64
0
-7.57
2.29
-0.66
0.62
-0.06
-0.06
-0.43

> <PUBCHEM_SHAPE_SELFOVERLAP>
515.274

> <PUBCHEM_SHAPE_VOLUME>
161.7

> <PUBCHEM_COORDINATE_TYPE>
2
5
10

$$$$
