78974
  -OEChem-09262016053D

 19 19  0     1  0  0  0  0  0999 V2000
   -0.0115   -0.3080    0.8556 O   0  0  0  0  0  0  0  0  0  0  0  0
   -1.8872   -0.3400   -0.5887 O   0  0  0  0  0  0  0  0  0  0  0  0
    1.8733   -0.3500   -0.5777 O   0  0  0  0  0  0  0  0  0  0  0  0
   -1.1648    0.4116    0.3768 C   0  0  2  0  0  0  0  0  0  0  0  0
    1.1706    0.3849    0.4120 C   0  0  1  0  0  0  0  0  0  0  0  0
   -0.6398    1.6778   -0.1957 C   0  0  0  0  0  0  0  0  0  0  0  0
    0.6906    1.6606   -0.1758 C   0  0  0  0  0  0  0  0  0  0  0  0
   -2.3886   -1.5510   -0.0390 C   0  0  0  0  0  0  0  0  0  0  0  0
    2.3575   -1.5859   -0.0676 C   0  0  0  0  0  0  0  0  0  0  0  0
   -1.8111    0.6328    1.2345 H   0  0  0  0  0  0  0  0  0  0  0  0
    1.8145    0.5765    1.2781 H   0  0  0  0  0  0  0  0  0  0  0  0
   -1.2459    2.4838   -0.5807 H   0  0  0  0  0  0  0  0  0  0  0  0
    1.3265    2.4522   -0.5427 H   0  0  0  0  0  0  0  0  0  0  0  0
   -2.9891   -2.0497   -0.8049 H   0  0  0  0  0  0  0  0  0  0  0  0
   -3.0289   -1.3495    0.8253 H   0  0  0  0  0  0  0  0  0  0  0  0
   -1.5703   -2.2203    0.2427 H   0  0  0  0  0  0  0  0  0  0  0  0
    2.9382   -2.0754   -0.8543 H   0  0  0  0  0  0  0  0  0  0  0  0
    1.5288   -2.2452    0.2076 H   0  0  0  0  0  0  0  0  0  0  0  0
    3.0118   -1.4194    0.7937 H   0  0  0  0  0  0  0  0  0  0  0  0
  1  4  1  0  0  0  0
  1  5  1  0  0  0  0
  2  4  1  0  0  0  0
  2  8  1  0  0  0  0
  3  5  1  0  0  0  0
  3  9  1  0  0  0  0
  4  6  1  0  0  0  0
  4 10  1  0  0  0  0
  5  7  1  0  0  0  0
  5 11  1  0  0  0  0
  6  7  2  0  0  0  0
  6 12  1  0  0  0  0
  7 13  1  0  0  0  0
  8 14  1  0  0  0  0
  8 15  1  0  0  0  0
  8 16  1  0  0  0  0
  9 17  1  0  0  0  0
  9 18  1  0  0  0  0
  9 19  1  0  0  0  0
M  END
> <PUBCHEM_COMPOUND_CID>
78974

> <PUBCHEM_CONFORMER_RMSD>
0.6

> <PUBCHEM_CONFORMER_DIVERSEORDER>
1
4
7
5
9
3
2
6
8

> <PUBCHEM_MMFF94_PARTIAL_CHARGES>
11
1 -0.56
12 0.15
13 0.15
2 -0.56
3 -0.56
4 0.7
5 0.7
6 -0.29
7 -0.29
8 0.28
9 0.28

> <PUBCHEM_EFFECTIVE_ROTOR_COUNT>
2.6

> <PUBCHEM_PHARMACOPHORE_FEATURES>
4
1 1 acceptor
1 2 acceptor
1 3 acceptor
5 1 4 5 6 7 rings

> <PUBCHEM_HEAVY_ATOM_COUNT>
9

> <PUBCHEM_ATOM_DEF_STEREO_COUNT>
0

> <PUBCHEM_ATOM_UDEF_STEREO_COUNT>
2

> <PUBCHEM_BOND_DEF_STEREO_COUNT>
0

> <PUBCHEM_BOND_UDEF_STEREO_COUNT>
0

> <PUBCHEM_ISOTOPIC_ATOM_COUNT>
0

> <PUBCHEM_COMPONENT_COUNT>
1

> <PUBCHEM_CACTVS_TAUTO_COUNT>
1

> <PUBCHEM_CONFORMER_ID>
0001347E00000001

> <PUBCHEM_MMFF94_ENERGY>
16.113

> <PUBCHEM_FEATURE_SELFOVERLAP>
20.372

> <PUBCHEM_SHAPE_FINGERPRINT>
12716758 59 17764016974676260290
14128692 85 18342748445929070614
16714656 1 17977107859698598944
18185500 45 18409732828754942818
20653085 51 13551767175236847430
21040471 1 17615677445467408704
23552333 60 17843979258253449179
23552423 10 18334298677431232156
29004967 10 18268425918009508937

> <PUBCHEM_SHAPE_MULTIPOLES>
167.61
3.03
1.94
0.76
0.07
0.1
-0.04
-2.14
0.36
-0.03
0.16
0
-0.01
0.01

> <PUBCHEM_SHAPE_SELFOVERLAP>
329.154

> <PUBCHEM_SHAPE_VOLUME>
101.7

> <PUBCHEM_COORDINATE_TYPE>
2
5
10

$$$$
