12305183
  -OEChem-09252005133D

 79 83  0     1  0  0  0  0  0999 V2000
    6.8976    0.4666    1.1689 O   0  0  0  0  0  0  0  0  0  0  0  0
   -1.4415    0.8673   -0.1487 C   0  0  1  0  0  0  0  0  0  0  0  0
   -0.8280   -0.5606    0.2149 C   0  0  2  0  0  0  0  0  0  0  0  0
   -2.9342    0.8844    0.2758 C   0  0  2  0  0  0  0  0  0  0  0  0
   -3.8343   -0.2363   -0.3125 C   0  0  2  0  0  0  0  0  0  0  0  0
    0.6572   -0.6121   -0.3422 C   0  0  1  0  0  0  0  0  0  0  0  0
   -5.1369    0.0972    0.4713 C   0  0  1  0  0  0  0  0  0  0  0  0
   -1.7222   -1.6920   -0.3911 C   0  0  0  0  0  0  0  0  0  0  0  0
   -3.2122   -1.6039    0.0179 C   0  0  0  0  0  0  0  0  0  0  0  0
   -3.7873    2.1465    0.1431 C   0  0  0  0  0  0  0  0  0  0  0  0
   -0.6343    1.9284    0.6449 C   0  0  0  0  0  0  0  0  0  0  0  0
    1.4723    0.6567   -0.0012 C   0  0  0  0  0  0  0  0  0  0  0  0
   -5.2239    1.6418    0.3925 C   0  0  0  0  0  0  0  0  0  0  0  0
    2.9873    0.6281   -0.3745 C   0  0  2  0  0  0  0  0  0  0  0  0
    1.4019   -1.8945    0.0813 C   0  0  0  0  0  0  0  0  0  0  0  0
    3.6192   -0.7039    0.1690 C   0  0  1  0  0  0  0  0  0  0  0  0
   -1.2851    1.2217   -1.6587 C   0  0  0  0  0  0  0  0  0  0  0  0
   -0.7923   -0.8160    1.7634 C   0  0  0  0  0  0  0  0  0  0  0  0
   -4.1099   -0.1676   -1.8338 C   0  0  0  0  0  0  0  0  0  0  0  0
    0.8579    1.7570    0.4922 C   0  0  0  0  0  0  0  0  0  0  0  0
    2.8571   -1.9294   -0.3724 C   0  0  0  0  0  0  0  0  0  0  0  0
   -6.4203   -0.5889    0.0251 C   0  0  0  0  0  0  0  0  0  0  0  0
    5.1794   -0.8531    0.0658 C   0  0  0  0  0  0  0  0  0  0  0  0
    3.7833    1.8113    0.2465 C   0  0  0  0  0  0  0  0  0  0  0  0
    3.0255    0.7803   -1.9161 C   0  0  0  0  0  0  0  0  0  0  0  0
    5.2818    1.7485   -0.0019 C   0  0  0  0  0  0  0  0  0  0  0  0
    5.8590    0.4532    0.5047 C   0  0  0  0  0  0  0  0  0  0  0  0
   -6.2719   -2.1091    0.0877 C   0  0  0  0  0  0  0  0  0  0  0  0
   -7.6035   -0.1333    0.8793 C   0  0  0  0  0  0  0  0  0  0  0  0
    5.7059   -1.2217   -1.3292 C   0  0  0  0  0  0  0  0  0  0  0  0
    5.6522   -1.9666    1.0378 C   0  0  0  0  0  0  0  0  0  0  0  0
   -2.9138    0.7312    1.3645 H   0  0  0  0  0  0  0  0  0  0  0  0
    0.5920   -0.6516   -1.4380 H   0  0  0  0  0  0  0  0  0  0  0  0
   -4.9742   -0.1610    1.5297 H   0  0  0  0  0  0  0  0  0  0  0  0
   -1.3519   -2.6748   -0.0740 H   0  0  0  0  0  0  0  0  0  0  0  0
   -1.6399   -1.6921   -1.4832 H   0  0  0  0  0  0  0  0  0  0  0  0
   -3.7205   -2.4191   -0.5020 H   0  0  0  0  0  0  0  0  0  0  0  0
   -3.3051   -1.8172    1.0890 H   0  0  0  0  0  0  0  0  0  0  0  0
   -3.7209    2.6043   -0.8474 H   0  0  0  0  0  0  0  0  0  0  0  0
   -3.5042    2.9082    0.8771 H   0  0  0  0  0  0  0  0  0  0  0  0
   -0.8811    1.9104    1.7130 H   0  0  0  0  0  0  0  0  0  0  0  0
   -0.9044    2.9311    0.2889 H   0  0  0  0  0  0  0  0  0  0  0  0
   -5.6215    2.0552    1.3261 H   0  0  0  0  0  0  0  0  0  0  0  0
   -5.8748    1.9778   -0.4228 H   0  0  0  0  0  0  0  0  0  0  0  0
    0.8935   -2.7752   -0.3265 H   0  0  0  0  0  0  0  0  0  0  0  0
    1.4039   -2.0068    1.1708 H   0  0  0  0  0  0  0  0  0  0  0  0
    3.4187   -0.6813    1.2541 H   0  0  0  0  0  0  0  0  0  0  0  0
   -0.2955    1.6244   -1.8993 H   0  0  0  0  0  0  0  0  0  0  0  0
   -1.4056    0.3581   -2.3121 H   0  0  0  0  0  0  0  0  0  0  0  0
   -1.9941    1.9912   -1.9749 H   0  0  0  0  0  0  0  0  0  0  0  0
   -1.7391   -0.6035    2.2631 H   0  0  0  0  0  0  0  0  0  0  0  0
   -0.5802   -1.8684    1.9848 H   0  0  0  0  0  0  0  0  0  0  0  0
   -0.0241   -0.2241    2.2699 H   0  0  0  0  0  0  0  0  0  0  0  0
   -3.2392   -0.4230   -2.4356 H   0  0  0  0  0  0  0  0  0  0  0  0
   -4.8709   -0.8908   -2.1414 H   0  0  0  0  0  0  0  0  0  0  0  0
   -4.4539    0.8191   -2.1568 H   0  0  0  0  0  0  0  0  0  0  0  0
    1.4237    2.6504    0.7338 H   0  0  0  0  0  0  0  0  0  0  0  0
    3.2924   -2.8607    0.0019 H   0  0  0  0  0  0  0  0  0  0  0  0
    2.9084   -1.9863   -1.4642 H   0  0  0  0  0  0  0  0  0  0  0  0
   -6.6680   -0.3118   -1.0065 H   0  0  0  0  0  0  0  0  0  0  0  0
    3.6162    1.8312    1.3325 H   0  0  0  0  0  0  0  0  0  0  0  0
    3.4240    2.7693   -0.1502 H   0  0  0  0  0  0  0  0  0  0  0  0
    4.0315    0.9180   -2.3109 H   0  0  0  0  0  0  0  0  0  0  0  0
    2.5877   -0.0730   -2.4414 H   0  0  0  0  0  0  0  0  0  0  0  0
    2.4592    1.6672   -2.2296 H   0  0  0  0  0  0  0  0  0  0  0  0
    5.7650    2.5745    0.5332 H   0  0  0  0  0  0  0  0  0  0  0  0
    5.5367    1.8608   -1.0590 H   0  0  0  0  0  0  0  0  0  0  0  0
   -5.7821   -2.4393    1.0092 H   0  0  0  0  0  0  0  0  0  0  0  0
   -7.2575   -2.5892    0.0598 H   0  0  0  0  0  0  0  0  0  0  0  0
   -5.7374   -2.5029   -0.7783 H   0  0  0  0  0  0  0  0  0  0  0  0
   -7.4342   -0.3487    1.9400 H   0  0  0  0  0  0  0  0  0  0  0  0
   -8.5215   -0.6492    0.5766 H   0  0  0  0  0  0  0  0  0  0  0  0
   -7.7918    0.9396    0.7748 H   0  0  0  0  0  0  0  0  0  0  0  0
    6.7934   -1.3672   -1.3046 H   0  0  0  0  0  0  0  0  0  0  0  0
    5.2654   -2.1530   -1.6987 H   0  0  0  0  0  0  0  0  0  0  0  0
    5.5297   -0.4436   -2.0715 H   0  0  0  0  0  0  0  0  0  0  0  0
    5.2779   -2.9536    0.7514 H   0  0  0  0  0  0  0  0  0  0  0  0
    6.7462   -2.0429    1.0598 H   0  0  0  0  0  0  0  0  0  0  0  0
    5.3252   -1.7617    2.0638 H   0  0  0  0  0  0  0  0  0  0  0  0
  1 27  2  0  0  0  0
  2  3  1  0  0  0  0
  2  4  1  0  0  0  0
  2 11  1  0  0  0  0
  2 17  1  0  0  0  0
  3  6  1  0  0  0  0
  3  8  1  0  0  0  0
  3 18  1  0  0  0  0
  4  5  1  0  0  0  0
  4 10  1  0  0  0  0
  4 32  1  0  0  0  0
  5  7  1  0  0  0  0
  5  9  1  0  0  0  0
  5 19  1  0  0  0  0
  6 12  1  0  0  0  0
  6 15  1  0  0  0  0
  6 33  1  0  0  0  0
  7 13  1  0  0  0  0
  7 22  1  0  0  0  0
  7 34  1  0  0  0  0
  8  9  1  0  0  0  0
  8 35  1  0  0  0  0
  8 36  1  0  0  0  0
  9 37  1  0  0  0  0
  9 38  1  0  0  0  0
 10 13  1  0  0  0  0
 10 39  1  0  0  0  0
 10 40  1  0  0  0  0
 11 20  1  0  0  0  0
 11 41  1  0  0  0  0
 11 42  1  0  0  0  0
 12 14  1  0  0  0  0
 12 20  2  0  0  0  0
 13 43  1  0  0  0  0
 13 44  1  0  0  0  0
 14 16  1  0  0  0  0
 14 24  1  0  0  0  0
 14 25  1  0  0  0  0
 15 21  1  0  0  0  0
 15 45  1  0  0  0  0
 15 46  1  0  0  0  0
 16 21  1  0  0  0  0
 16 23  1  0  0  0  0
 16 47  1  0  0  0  0
 17 48  1  0  0  0  0
 17 49  1  0  0  0  0
 17 50  1  0  0  0  0
 18 51  1  0  0  0  0
 18 52  1  0  0  0  0
 18 53  1  0  0  0  0
 19 54  1  0  0  0  0
 19 55  1  0  0  0  0
 19 56  1  0  0  0  0
 20 57  1  0  0  0  0
 21 58  1  0  0  0  0
 21 59  1  0  0  0  0
 22 28  1  0  0  0  0
 22 29  1  0  0  0  0
 22 60  1  0  0  0  0
 23 27  1  0  0  0  0
 23 30  1  0  0  0  0
 23 31  1  0  0  0  0
 24 26  1  0  0  0  0
 24 61  1  0  0  0  0
 24 62  1  0  0  0  0
 25 63  1  0  0  0  0
 25 64  1  0  0  0  0
 25 65  1  0  0  0  0
 26 27  1  0  0  0  0
 26 66  1  0  0  0  0
 26 67  1  0  0  0  0
 28 68  1  0  0  0  0
 28 69  1  0  0  0  0
 28 70  1  0  0  0  0
 29 71  1  0  0  0  0
 29 72  1  0  0  0  0
 29 73  1  0  0  0  0
 30 74  1  0  0  0  0
 30 75  1  0  0  0  0
 30 76  1  0  0  0  0
 31 77  1  0  0  0  0
 31 78  1  0  0  0  0
 31 79  1  0  0  0  0
M  END
> <PUBCHEM_COMPOUND_CID>
12305183

> <PUBCHEM_CONFORMER_RMSD>
0.8

> <PUBCHEM_CONFORMER_DIVERSEORDER>
1

> <PUBCHEM_MMFF94_PARTIAL_CHARGES>
10
1 -0.57
11 0.14
12 -0.28
14 0.14
20 -0.29
23 0.06
26 0.06
27 0.45
57 0.15
6 0.14

> <PUBCHEM_EFFECTIVE_ROTOR_COUNT>
3.2

> <PUBCHEM_PHARMACOPHORE_FEATURES>
8
1 1 acceptor
3 22 28 29 hydrophobe
3 23 30 31 hydrophobe
5 4 5 7 10 13 rings
6 14 16 23 24 26 27 rings
6 2 3 4 5 8 9 rings
6 2 3 6 11 12 20 rings
6 6 12 14 15 16 21 rings

> <PUBCHEM_HEAVY_ATOM_COUNT>
31

> <PUBCHEM_ATOM_DEF_STEREO_COUNT>
8

> <PUBCHEM_ATOM_UDEF_STEREO_COUNT>
0

> <PUBCHEM_BOND_DEF_STEREO_COUNT>
0

> <PUBCHEM_BOND_UDEF_STEREO_COUNT>
0

> <PUBCHEM_ISOTOPIC_ATOM_COUNT>
0

> <PUBCHEM_COMPONENT_COUNT>
1

> <PUBCHEM_CACTVS_TAUTO_COUNT>
2

> <PUBCHEM_CONFORMER_ID>
00BBC31F00000001

> <PUBCHEM_MMFF94_ENERGY>
141.2743

> <PUBCHEM_FEATURE_SELFOVERLAP>
40.697

> <PUBCHEM_SHAPE_FINGERPRINT>
10 15 18335417998144730808
10906281 52 18340784688155263170
11578080 2 16986858280324967162
11719270 70 18272368650711441942
11963148 33 18408881862907234611
11991303 11 14418426519720913785
12166972 35 18186805785477544732
12236239 1 18334295348921274553
12516196 113 18131350816902684376
12616971 3 17775562061405633485
12788726 201 17346326955438403129
13073987 5 18412825763585453577
13533116 47 17749385919728015498
13685833 64 18411140238293445339
13782708 43 17967534545099650195
13811026 1 18411412891064445004
14251764 18 18410855485903240321
14790565 3 18341616988245142481
14849402 71 18269837673618098168
14856354 85 15913326923261493709
15131766 46 14403463296597429002
15183329 4 18411142428368057031
15196674 1 18411982459551932932
15788980 27 18060136526971746556
15927050 60 17481139429034897732
17349148 13 18334859385912956352
17492 89 18196371408038271886
1813 80 17313106345233787741
18608769 82 18339643447189891307
19377110 9 18202569458025389753
200 152 18273494563550067936
20511986 3 18200295663826729394
21033648 29 16588296185654934308
21130935 74 18341331102485166914
21236236 1 18413670197759628145
21267235 1 18412551989421839935
21279426 13 18340487755427730684
21781051 124 17532109317928412579
21792934 111 18341886373384910849
22149856 69 18058748943719759723
23522609 53 17971503752333449932
23559900 14 18340762732171994792
23569917 315 18260554432705197826
23569943 247 17461431434895245594
3004659 81 18408610249363982054
3178227 256 18337967765757028779
335352 9 18412546521917708566
3383291 50 18334577979672333475
34797466 226 17561086912729258428
350125 39 18411981390305692257
3680242 22 18337673006214421322
404807 14 17049379440659490974
4073 2 18042409187202707826
4093350 32 17132117923099179294
4325135 7 18413388743513767109
4340502 62 18342739628482518270
5104073 3 18412544292834976560
58260988 393 16128384739553130114
59755656 215 18410863127273091590
59755656 520 16805602607824248515
9996256 80 18411981377610635979

> <PUBCHEM_SHAPE_MULTIPOLES>
632.1
17.27
2.27
1.25
3.54
0.03
-0.35
2.76
2.6
-0.24
0.16
-0.31
-0.02
-0.09

> <PUBCHEM_SHAPE_SELFOVERLAP>
1344.435

> <PUBCHEM_SHAPE_VOLUME>
351.3

> <PUBCHEM_COORDINATE_TYPE>
2
5
10

$$$$
