10317157
  -OEChem-09192007483D

 47 51  0     1  0  0  0  0  0999 V2000
    0.8438    1.2145    0.9625 O   0  0  0  0  0  0  0  0  0  0  0  0
   -1.1798   -1.9566    0.2769 O   0  0  0  0  0  0  0  0  0  0  0  0
    2.9953   -2.3275    1.2806 O   0  0  0  0  0  0  0  0  0  0  0  0
    5.5159    2.0020   -0.9095 O   0  0  0  0  0  0  0  0  0  0  0  0
    6.8454    0.0804   -0.3198 O   0  0  0  0  0  0  0  0  0  0  0  0
   -6.0428    1.4446    1.0515 O   0  0  0  0  0  0  0  0  0  0  0  0
   -7.1351   -0.2091   -0.8976 O   0  0  0  0  0  0  0  0  0  0  0  0
    0.5128   -0.5596   -0.6099 C   0  0  1  0  0  0  0  0  0  0  0  0
   -0.7446    0.2613   -0.5109 C   0  0  1  0  0  0  0  0  0  0  0  0
    1.3093   -0.1074    0.6215 C   0  0  1  0  0  0  0  0  0  0  0  0
   -1.6354   -0.5936    0.4005 C   0  0  1  0  0  0  0  0  0  0  0  0
   -0.2629    1.5515    0.1147 C   0  0  0  0  0  0  0  0  0  0  0  0
    0.0004   -1.9808   -0.5379 C   0  0  0  0  0  0  0  0  0  0  0  0
    2.8012   -0.1044    0.3878 C   0  0  0  0  0  0  0  0  0  0  0  0
   -3.1020   -0.4879    0.0564 C   0  0  0  0  0  0  0  0  0  0  0  0
    3.5815   -1.2255    0.7309 C   0  0  0  0  0  0  0  0  0  0  0  0
    3.4015    1.0270   -0.1756 C   0  0  0  0  0  0  0  0  0  0  0  0
   -3.9106    0.4384    0.7170 C   0  0  0  0  0  0  0  0  0  0  0  0
   -3.6521   -1.3174   -0.9223 C   0  0  0  0  0  0  0  0  0  0  0  0
    4.7663    0.9987   -0.3771 C   0  0  0  0  0  0  0  0  0  0  0  0
    4.9618   -1.2282    0.5162 C   0  0  0  0  0  0  0  0  0  0  0  0
   -5.2654    0.5352    0.3999 C   0  0  0  0  0  0  0  0  0  0  0  0
    5.5256   -0.0987   -0.0405 C   0  0  0  0  0  0  0  0  0  0  0  0
   -5.0069   -1.2206   -1.2396 C   0  0  0  0  0  0  0  0  0  0  0  0
   -5.8136   -0.2943   -0.5785 C   0  0  0  0  0  0  0  0  0  0  0  0
    6.8318    1.4131   -0.8711 C   0  0  0  0  0  0  0  0  0  0  0  0
   -6.1416    2.7449    0.4740 C   0  0  0  0  0  0  0  0  0  0  0  0
    1.0640   -0.3714   -1.5381 H   0  0  0  0  0  0  0  0  0  0  0  0
   -1.2121    0.4312   -1.4874 H   0  0  0  0  0  0  0  0  0  0  0  0
    1.0795   -0.7243    1.4987 H   0  0  0  0  0  0  0  0  0  0  0  0
   -1.5001   -0.3320    1.4578 H   0  0  0  0  0  0  0  0  0  0  0  0
    0.1100    2.2401   -0.6513 H   0  0  0  0  0  0  0  0  0  0  0  0
   -1.0298    2.0675    0.6990 H   0  0  0  0  0  0  0  0  0  0  0  0
   -0.2975   -2.3355   -1.5308 H   0  0  0  0  0  0  0  0  0  0  0  0
    0.7187   -2.6914   -0.1225 H   0  0  0  0  0  0  0  0  0  0  0  0
    2.8285    1.9027   -0.4602 H   0  0  0  0  0  0  0  0  0  0  0  0
   -3.4884    1.0880    1.4800 H   0  0  0  0  0  0  0  0  0  0  0  0
   -3.0422   -2.0396   -1.4579 H   0  0  0  0  0  0  0  0  0  0  0  0
    5.5754   -2.0843    0.7757 H   0  0  0  0  0  0  0  0  0  0  0  0
   -5.4275   -1.8681   -2.0043 H   0  0  0  0  0  0  0  0  0  0  0  0
    3.6786   -2.9986    1.4501 H   0  0  0  0  0  0  0  0  0  0  0  0
    7.2290    1.3746   -1.8919 H   0  0  0  0  0  0  0  0  0  0  0  0
    7.4841    2.0508   -0.2635 H   0  0  0  0  0  0  0  0  0  0  0  0
   -7.5509    0.4529   -0.3188 H   0  0  0  0  0  0  0  0  0  0  0  0
   -6.5425    2.6894   -0.5430 H   0  0  0  0  0  0  0  0  0  0  0  0
   -5.1621    3.2334    0.4647 H   0  0  0  0  0  0  0  0  0  0  0  0
   -6.8237    3.3408    1.0865 H   0  0  0  0  0  0  0  0  0  0  0  0
  1 10  1  0  0  0  0
  1 12  1  0  0  0  0
  2 11  1  0  0  0  0
  2 13  1  0  0  0  0
  3 16  1  0  0  0  0
  3 41  1  0  0  0  0
  4 20  1  0  0  0  0
  4 26  1  0  0  0  0
  5 23  1  0  0  0  0
  5 26  1  0  0  0  0
  6 22  1  0  0  0  0
  6 27  1  0  0  0  0
  7 25  1  0  0  0  0
  7 44  1  0  0  0  0
  8  9  1  0  0  0  0
  8 10  1  0  0  0  0
  8 13  1  0  0  0  0
  8 28  1  0  0  0  0
  9 11  1  0  0  0  0
  9 12  1  0  0  0  0
  9 29  1  0  0  0  0
 10 14  1  0  0  0  0
 10 30  1  0  0  0  0
 11 15  1  0  0  0  0
 11 31  1  0  0  0  0
 12 32  1  0  0  0  0
 12 33  1  0  0  0  0
 13 34  1  0  0  0  0
 13 35  1  0  0  0  0
 14 16  1  0  0  0  0
 14 17  2  0  0  0  0
 15 18  2  0  0  0  0
 15 19  1  0  0  0  0
 16 21  2  0  0  0  0
 17 20  1  0  0  0  0
 17 36  1  0  0  0  0
 18 22  1  0  0  0  0
 18 37  1  0  0  0  0
 19 24  2  0  0  0  0
 19 38  1  0  0  0  0
 20 23  2  0  0  0  0
 21 23  1  0  0  0  0
 21 39  1  0  0  0  0
 22 25  2  0  0  0  0
 24 25  1  0  0  0  0
 24 40  1  0  0  0  0
 26 42  1  0  0  0  0
 26 43  1  0  0  0  0
 27 45  1  0  0  0  0
 27 46  1  0  0  0  0
 27 47  1  0  0  0  0
M  END
> <PUBCHEM_COMPOUND_CID>
10317157

> <PUBCHEM_CONFORMER_RMSD>
0.8

> <PUBCHEM_CONFORMER_DIVERSEORDER>
1
4
24
34
26
19
9
37
30
31
33
22
13
10
29
18
25
7
23
2
41
27
17
15
32
11
8
20
6
28
12
5
38
16
39
14
21
35
3
36
40

> <PUBCHEM_MMFF94_PARTIAL_CHARGES>
32
1 -0.56
10 0.42
11 0.42
12 0.28
13 0.28
14 -0.14
15 -0.14
16 0.08
17 -0.15
18 -0.15
19 -0.15
2 -0.56
20 0.08
21 -0.15
22 0.08
23 0.08
24 -0.15
25 0.08
26 0.56
27 0.28
3 -0.53
36 0.15
37 0.15
38 0.15
39 0.15
4 -0.36
40 0.15
41 0.45
44 0.45
5 -0.36
6 -0.36
7 -0.53

> <PUBCHEM_EFFECTIVE_ROTOR_COUNT>
4.8

> <PUBCHEM_PHARMACOPHORE_FEATURES>
12
1 1 acceptor
1 2 acceptor
1 3 donor
1 4 acceptor
1 5 acceptor
1 6 acceptor
1 7 donor
5 1 8 9 10 12 rings
5 2 8 9 11 13 rings
5 4 5 20 23 26 rings
6 14 16 17 20 21 23 rings
6 15 18 19 22 24 25 rings

> <PUBCHEM_HEAVY_ATOM_COUNT>
27

> <PUBCHEM_ATOM_DEF_STEREO_COUNT>
4

> <PUBCHEM_ATOM_UDEF_STEREO_COUNT>
0

> <PUBCHEM_BOND_DEF_STEREO_COUNT>
0

> <PUBCHEM_BOND_UDEF_STEREO_COUNT>
0

> <PUBCHEM_ISOTOPIC_ATOM_COUNT>
0

> <PUBCHEM_COMPONENT_COUNT>
1

> <PUBCHEM_CACTVS_TAUTO_COUNT>
8

> <PUBCHEM_CONFORMER_ID>
009D6D6500000001

> <PUBCHEM_MMFF94_ENERGY>
91.3069

> <PUBCHEM_FEATURE_SELFOVERLAP>
61.535

> <PUBCHEM_SHAPE_FINGERPRINT>
10 15 14490477512288572628
10299344 5 18412262835032911591
10554248 39 18268980991399195959
10595046 47 18409726274967314403
10638233 991 18410292548924956973
10906281 52 18339655476686392411
11089746 13 18342738554825246072
12011746 2 18273214226734552358
12107183 9 17689995639659188515
12166972 35 17917145100368398041
12236239 1 18411138030326814194
12516196 113 18201997750570601416
12730499 353 16950281793898956914
12788726 201 18060146392548945672
13167372 99 18409449146365651592
13533116 47 18114176394491771842
13782708 43 13542468639628660772
13785724 45 17762054333489345066
14251764 18 18411699894217953587
14528608 73 18341328985197489326
14790565 3 18411982468141854537
14856354 85 18202002166361328639
15048467 5 18040433321667731126
15183329 4 18413105065445764837
15276724 80 18187359887819513541
15419008 47 15123790669448569355
1577012 14 18341612594925862041
15788980 27 11959734871575927043
1601671 61 18059855047605077443
18681886 176 17632289129053277739
19319366 153 18186511112646868210
19489759 90 16200154296447676299
20511986 3 18342447136645771953
21033648 29 17095786802947251781
21150785 3 18336825385665252943
21236236 1 18411698760362937941
21267235 1 18059856221054529719
23081809 10 18410849962659973115
23402539 116 18202560683502278989
23522609 53 18339943548627881497
23559900 14 16845285094165054674
29717793 49 18201444675448379814
3004659 81 18411419501916087722
335352 9 18409450302471243390
34797466 226 15984817190030559755
350125 39 18411136909536191480
397830 11 15647915857923359309
4073 2 17967819391778851290
4325135 7 18407758145095712948
4340502 62 16588025706169054314
5104073 3 17968372463765979714
59755656 215 16272212980916674462
6328613 192 18409450305890796369
7226269 152 18060424590787330065

> <PUBCHEM_SHAPE_MULTIPOLES>
514.56
18.6
2.1
1.03
1.5
0.35
0.02
6.82
2.88
0.65
-0.15
0.19
-0.1
-2.41

> <PUBCHEM_SHAPE_SELFOVERLAP>
1149.473

> <PUBCHEM_SHAPE_VOLUME>
276.6

> <PUBCHEM_COORDINATE_TYPE>
2
5
10

$$$$
