567821
  -OEChem-09192005193D

 24 24  0     1  0  0  0  0  0999 V2000
    1.1031   -2.1067   -0.2010 O   0  0  0  0  0  0  0  0  0  0  0  0
   -2.3212    0.8276    1.1724 O   0  0  0  0  0  0  0  0  0  0  0  0
   -0.1379   -1.2675    1.5171 O   0  0  0  0  0  0  0  0  0  0  0  0
   -2.8635   -0.3834   -0.6811 O   0  0  0  0  0  0  0  0  0  0  0  0
    0.4355    0.1125   -0.3453 C   0  0  1  0  0  0  0  0  0  0  0  0
   -0.8210    0.8635   -0.6071 C   0  0  1  0  0  0  0  0  0  0  0  0
   -0.1457    0.1081   -1.7140 C   0  0  0  0  0  0  0  0  0  0  0  0
    1.6833    0.9749   -0.1682 C   0  0  0  0  0  0  0  0  0  0  0  0
    0.4163   -1.1276    0.4370 C   0  0  0  0  0  0  0  0  0  0  0  0
   -2.0999    0.3571   -0.0794 C   0  0  0  0  0  0  0  0  0  0  0  0
    1.8211    1.4278    1.2836 C   0  0  0  0  0  0  0  0  0  0  0  0
    2.9298    0.2136   -0.6140 C   0  0  0  0  0  0  0  0  0  0  0  0
   -0.7657    1.9466   -0.6676 H   0  0  0  0  0  0  0  0  0  0  0  0
   -0.6043   -0.8024   -2.0833 H   0  0  0  0  0  0  0  0  0  0  0  0
    0.3329    0.6873   -2.4959 H   0  0  0  0  0  0  0  0  0  0  0  0
    1.6056    1.8757   -0.7922 H   0  0  0  0  0  0  0  0  0  0  0  0
    1.9819    0.5845    1.9636 H   0  0  0  0  0  0  0  0  0  0  0  0
    2.6715    2.1093    1.3943 H   0  0  0  0  0  0  0  0  0  0  0  0
    0.9216    1.9569    1.6162 H   0  0  0  0  0  0  0  0  0  0  0  0
    3.1725   -0.6159    0.0580 H   0  0  0  0  0  0  0  0  0  0  0  0
    3.7975    0.8829   -0.6229 H   0  0  0  0  0  0  0  0  0  0  0  0
    2.8114   -0.1892   -1.6253 H   0  0  0  0  0  0  0  0  0  0  0  0
    1.1037   -2.9451    0.3081 H   0  0  0  0  0  0  0  0  0  0  0  0
   -3.1693    0.5012    1.5419 H   0  0  0  0  0  0  0  0  0  0  0  0
  1  9  1  0  0  0  0
  1 23  1  0  0  0  0
  2 10  1  0  0  0  0
  2 24  1  0  0  0  0
  3  9  2  0  0  0  0
  4 10  2  0  0  0  0
  5  6  1  0  0  0  0
  5  7  1  0  0  0  0
  5  8  1  0  0  0  0
  5  9  1  0  0  0  0
  6  7  1  0  0  0  0
  6 10  1  0  0  0  0
  6 13  1  0  0  0  0
  7 14  1  0  0  0  0
  7 15  1  0  0  0  0
  8 11  1  0  0  0  0
  8 12  1  0  0  0  0
  8 16  1  0  0  0  0
 11 17  1  0  0  0  0
 11 18  1  0  0  0  0
 11 19  1  0  0  0  0
 12 20  1  0  0  0  0
 12 21  1  0  0  0  0
 12 22  1  0  0  0  0
M  END
> <PUBCHEM_COMPOUND_CID>
567821

> <PUBCHEM_CONFORMER_RMSD>
0.6

> <PUBCHEM_CONFORMER_DIVERSEORDER>
1
11
8
10
13
5
4
7
14
3
12
15
9
16
6
2

> <PUBCHEM_MMFF94_PARTIAL_CHARGES>
15
1 -0.65
10 0.72
13 0.1
14 0.1
15 0.1
2 -0.65
23 0.5
24 0.5
3 -0.57
4 -0.57
5 -0.09
6 -0.1
7 -0.2
8 0.09
9 0.72

> <PUBCHEM_EFFECTIVE_ROTOR_COUNT>
3.6

> <PUBCHEM_PHARMACOPHORE_FEATURES>
7
1 1 acceptor
1 2 acceptor
1 3 acceptor
1 4 acceptor
3 1 3 9 anion
3 2 4 10 anion
3 8 11 12 hydrophobe

> <PUBCHEM_HEAVY_ATOM_COUNT>
12

> <PUBCHEM_ATOM_DEF_STEREO_COUNT>
0

> <PUBCHEM_ATOM_UDEF_STEREO_COUNT>
2

> <PUBCHEM_BOND_DEF_STEREO_COUNT>
0

> <PUBCHEM_BOND_UDEF_STEREO_COUNT>
0

> <PUBCHEM_ISOTOPIC_ATOM_COUNT>
0

> <PUBCHEM_COMPONENT_COUNT>
1

> <PUBCHEM_CACTVS_TAUTO_COUNT>
1

> <PUBCHEM_CONFORMER_ID>
0008AA0D00000001

> <PUBCHEM_MMFF94_ENERGY>
22.5597

> <PUBCHEM_FEATURE_SELFOVERLAP>
35.635

> <PUBCHEM_SHAPE_FINGERPRINT>
10219947 1 17385445431544170725
12423570 1 9706927776058152236
13024252 1 14131824507421086624
14993402 34 17168426081264004182
16945 1 18409735040705162052
20653085 51 17131004198876260824
21040471 1 18114459062872882156
21922407 69 18201143374433132131
23235685 24 18040720285285747820
5084963 1 18341611550748084500
68250623 7 17768547001142392572

> <PUBCHEM_SHAPE_MULTIPOLES>
223.48
3.41
1.51
1.38
0.6
0.53
0.06
-0.81
-0.1
-0.51
0.44
0.05
-0.04
0.09

> <PUBCHEM_SHAPE_SELFOVERLAP>
455.079

> <PUBCHEM_SHAPE_VOLUME>
131

> <PUBCHEM_COORDINATE_TYPE>
2
5
10

$$$$
