91705225
  -OEChem-09192005443D

 59 59  0     0  0  0  0  0  0999 V2000
   -0.3624   -1.7756   -1.8225 O   0  0  0  0  0  0  0  0  0  0  0  0
   -1.6310   -1.9993    0.0953 N   0  0  0  0  0  0  0  0  0  0  0  0
   -3.9467   -2.0986    0.5044 C   0  0  0  0  0  0  0  0  0  0  0  0
   -3.2265   -1.8501    1.8236 C   0  0  0  0  0  0  0  0  0  0  0  0
   -2.9087   -1.6900   -0.5295 C   0  0  0  0  0  0  0  0  0  0  0  0
   -1.7979   -2.2776    1.5184 C   0  0  0  0  0  0  0  0  0  0  0  0
    1.9748    3.0435    1.0681 C   0  0  0  0  0  0  0  0  0  0  0  0
    0.8810    2.9381    0.0009 C   0  0  0  0  0  0  0  0  0  0  0  0
    3.4112    3.1271    0.5417 C   0  0  0  0  0  0  0  0  0  0  0  0
   -0.5245    2.7715    0.5844 C   0  0  0  0  0  0  0  0  0  0  0  0
    3.8606    1.9618   -0.3454 C   0  0  0  0  0  0  0  0  0  0  0  0
   -0.4457   -2.0161   -0.6169 C   0  0  0  0  0  0  0  0  0  0  0  0
   -1.5627    2.5796   -0.5244 C   0  0  0  0  0  0  0  0  0  0  0  0
    3.8821    0.5856    0.3275 C   0  0  0  0  0  0  0  0  0  0  0  0
    0.7884   -2.3481    0.1827 C   0  0  0  0  0  0  0  0  0  0  0  0
   -2.9867    2.3801    0.0026 C   0  0  0  0  0  0  0  0  0  0  0  0
    4.4151   -0.5251   -0.5806 C   0  0  0  0  0  0  0  0  0  0  0  0
    2.0102   -2.3292   -0.7289 C   0  0  0  0  0  0  0  0  0  0  0  0
   -4.0123    2.1154   -1.1002 C   0  0  0  0  0  0  0  0  0  0  0  0
    4.3317   -1.8633    0.0955 C   0  0  0  0  0  0  0  0  0  0  0  0
    3.2600   -2.6669    0.0292 C   0  0  0  0  0  0  0  0  0  0  0  0
   -5.4097    1.9373   -0.5258 C   0  0  0  0  0  0  0  0  0  0  0  0
   -4.1776   -3.1659    0.4041 H   0  0  0  0  0  0  0  0  0  0  0  0
   -4.8788   -1.5348    0.4118 H   0  0  0  0  0  0  0  0  0  0  0  0
   -3.2551   -0.7806    2.0646 H   0  0  0  0  0  0  0  0  0  0  0  0
   -3.6621   -2.4023    2.6606 H   0  0  0  0  0  0  0  0  0  0  0  0
   -3.0169   -2.2174   -1.4817 H   0  0  0  0  0  0  0  0  0  0  0  0
   -2.9258   -0.6149   -0.7164 H   0  0  0  0  0  0  0  0  0  0  0  0
   -1.0632   -1.7350    2.1188 H   0  0  0  0  0  0  0  0  0  0  0  0
   -1.6601   -3.3540    1.6675 H   0  0  0  0  0  0  0  0  0  0  0  0
    1.7820    3.9341    1.6797 H   0  0  0  0  0  0  0  0  0  0  0  0
    1.8949    2.1875    1.7492 H   0  0  0  0  0  0  0  0  0  0  0  0
    0.9121    3.8295   -0.6372 H   0  0  0  0  0  0  0  0  0  0  0  0
    1.0852    2.0767   -0.6451 H   0  0  0  0  0  0  0  0  0  0  0  0
    3.5189    4.0568   -0.0307 H   0  0  0  0  0  0  0  0  0  0  0  0
    4.0934    3.2086    1.3968 H   0  0  0  0  0  0  0  0  0  0  0  0
   -0.7814    3.6514    1.1858 H   0  0  0  0  0  0  0  0  0  0  0  0
   -0.5433    1.9031    1.2540 H   0  0  0  0  0  0  0  0  0  0  0  0
    3.2400    1.9184   -1.2477 H   0  0  0  0  0  0  0  0  0  0  0  0
    4.8768    2.1865   -0.6952 H   0  0  0  0  0  0  0  0  0  0  0  0
   -1.5460    3.4487   -1.1936 H   0  0  0  0  0  0  0  0  0  0  0  0
   -1.2841    1.7079   -1.1300 H   0  0  0  0  0  0  0  0  0  0  0  0
    4.4948    0.6398    1.2365 H   0  0  0  0  0  0  0  0  0  0  0  0
    2.8643    0.3347    0.6497 H   0  0  0  0  0  0  0  0  0  0  0  0
    0.6642   -3.3366    0.6394 H   0  0  0  0  0  0  0  0  0  0  0  0
    0.9081   -1.6041    0.9783 H   0  0  0  0  0  0  0  0  0  0  0  0
   -2.9926    1.5404    0.7084 H   0  0  0  0  0  0  0  0  0  0  0  0
   -3.2840    3.2704    0.5706 H   0  0  0  0  0  0  0  0  0  0  0  0
    5.4703   -0.3276   -0.8093 H   0  0  0  0  0  0  0  0  0  0  0  0
    3.9105   -0.5185   -1.5519 H   0  0  0  0  0  0  0  0  0  0  0  0
    2.0627   -1.3613   -1.2339 H   0  0  0  0  0  0  0  0  0  0  0  0
    1.8906   -3.0794   -1.5215 H   0  0  0  0  0  0  0  0  0  0  0  0
   -4.0204    2.9591   -1.8004 H   0  0  0  0  0  0  0  0  0  0  0  0
   -3.7359    1.2279   -1.6777 H   0  0  0  0  0  0  0  0  0  0  0  0
    5.1912   -2.1831    0.6785 H   0  0  0  0  0  0  0  0  0  0  0  0
    3.2913   -3.6218    0.5475 H   0  0  0  0  0  0  0  0  0  0  0  0
   -5.4449    1.0865    0.1620 H   0  0  0  0  0  0  0  0  0  0  0  0
   -6.1291    1.7542   -1.3300 H   0  0  0  0  0  0  0  0  0  0  0  0
   -5.7281    2.8325    0.0176 H   0  0  0  0  0  0  0  0  0  0  0  0
  1 12  2  0  0  0  0
  2  5  1  0  0  0  0
  2  6  1  0  0  0  0
  2 12  1  0  0  0  0
  3  4  1  0  0  0  0
  3  5  1  0  0  0  0
  3 23  1  0  0  0  0
  3 24  1  0  0  0  0
  4  6  1  0  0  0  0
  4 25  1  0  0  0  0
  4 26  1  0  0  0  0
  5 27  1  0  0  0  0
  5 28  1  0  0  0  0
  6 29  1  0  0  0  0
  6 30  1  0  0  0  0
  7  8  1  0  0  0  0
  7  9  1  0  0  0  0
  7 31  1  0  0  0  0
  7 32  1  0  0  0  0
  8 10  1  0  0  0  0
  8 33  1  0  0  0  0
  8 34  1  0  0  0  0
  9 11  1  0  0  0  0
  9 35  1  0  0  0  0
  9 36  1  0  0  0  0
 10 13  1  0  0  0  0
 10 37  1  0  0  0  0
 10 38  1  0  0  0  0
 11 14  1  0  0  0  0
 11 39  1  0  0  0  0
 11 40  1  0  0  0  0
 12 15  1  0  0  0  0
 13 16  1  0  0  0  0
 13 41  1  0  0  0  0
 13 42  1  0  0  0  0
 14 17  1  0  0  0  0
 14 43  1  0  0  0  0
 14 44  1  0  0  0  0
 15 18  1  0  0  0  0
 15 45  1  0  0  0  0
 15 46  1  0  0  0  0
 16 19  1  0  0  0  0
 16 47  1  0  0  0  0
 16 48  1  0  0  0  0
 17 20  1  0  0  0  0
 17 49  1  0  0  0  0
 17 50  1  0  0  0  0
 18 21  1  0  0  0  0
 18 51  1  0  0  0  0
 18 52  1  0  0  0  0
 19 22  1  0  0  0  0
 19 53  1  0  0  0  0
 19 54  1  0  0  0  0
 20 21  2  0  0  0  0
 20 55  1  0  0  0  0
 21 56  1  0  0  0  0
 22 57  1  0  0  0  0
 22 58  1  0  0  0  0
 22 59  1  0  0  0  0
M  END
> <PUBCHEM_COMPOUND_CID>
91705225

> <PUBCHEM_CONFORMER_RMSD>
1.6

> <PUBCHEM_CONFORMER_DIVERSEORDER>
1
23
14
10
15
33
5
37
57
30
50
2
42
60
58
27
16
41
38
53
4
21
47
18
55
32
40
3
6
56
49
45
31
7
59
39
34
20
12
29
28
11
17
8
44
19
46
51
54
26
13
43
52
24
48
22
36
35
25
9

> <PUBCHEM_MMFF94_PARTIAL_CHARGES>
12
1 -0.57
12 0.57
15 0.06
17 0.14
18 0.14
2 -0.66
20 -0.29
21 -0.29
5 0.3
55 0.15
56 0.15
6 0.3

> <PUBCHEM_EFFECTIVE_ROTOR_COUNT>
15

> <PUBCHEM_PHARMACOPHORE_FEATURES>
3
1 1 acceptor
1 22 hydrophobe
5 2 3 4 5 6 rings

> <PUBCHEM_HEAVY_ATOM_COUNT>
22

> <PUBCHEM_ATOM_DEF_STEREO_COUNT>
0

> <PUBCHEM_ATOM_UDEF_STEREO_COUNT>
0

> <PUBCHEM_BOND_DEF_STEREO_COUNT>
1

> <PUBCHEM_BOND_UDEF_STEREO_COUNT>
0

> <PUBCHEM_ISOTOPIC_ATOM_COUNT>
0

> <PUBCHEM_COMPONENT_COUNT>
1

> <PUBCHEM_CACTVS_TAUTO_COUNT>
1

> <PUBCHEM_CONFORMER_ID>
05774F8900000001

> <PUBCHEM_MMFF94_ENERGY>
13.5947

> <PUBCHEM_FEATURE_SELFOVERLAP>
15.223

> <PUBCHEM_SHAPE_FINGERPRINT>
108634 29 18124601877556847518
1100329 8 18265613173854907968
12038231 1 17403453473813375116
12422481 6 18265357138813693217
12539773 59 16984353657039986118
13122387 1 17835805188439320440
13402501 40 18339078185826535837
14251764 38 18340770351533343157
14787075 74 18193269685899222981
19930381 70 17762331822392876654
20621476 13 18412823594901132552
20621476 7 18123759904752094520
3014063 31 18411983602319286236
338550 245 18335703892316092132
463206 1 18267587897176834760
5047190 48 17330830739078319800
6433294 58 18411699885464949896

> <PUBCHEM_SHAPE_MULTIPOLES>
441.9
9.77
5.59
1.24
1.03
2.09
-0.17
1.68
0.65
-0.19
-0.63
0.8
-0.45
2.21

> <PUBCHEM_SHAPE_SELFOVERLAP>
837.996

> <PUBCHEM_SHAPE_VOLUME>
273.1

> <PUBCHEM_COORDINATE_TYPE>
2
5
10

$$$$
