91740764
  -OEChem-09192005433D

 59 59  0     0  0  0  0  0  0999 V2000
   -2.6748    1.9677   -0.8366 O   0  0  0  0  0  0  0  0  0  0  0  0
   -1.6466    3.3479    0.7045 O   0  0  0  0  0  0  0  0  0  0  0  0
    3.3834   -0.2642    0.0144 O   0  0  0  0  0  0  0  0  0  0  0  0
    1.8035    1.4331    0.1881 N   0  0  0  0  0  0  0  0  0  0  0  0
   -0.4429    2.5875   -1.2417 C   0  0  0  0  0  0  0  0  0  0  0  0
    0.7196    3.4448   -0.7244 C   0  0  0  0  0  0  0  0  0  0  0  0
   -0.0293    1.1217   -1.4224 C   0  0  0  0  0  0  0  0  0  0  0  0
    0.6903    0.5630   -0.1939 C   0  0  0  0  0  0  0  0  0  0  0  0
    1.4041    2.8137    0.4877 C   0  0  0  0  0  0  0  0  0  0  0  0
   -1.6336    2.6967   -0.3313 C   0  0  0  0  0  0  0  0  0  0  0  0
   -3.6372   -3.0910    0.5330 C   0  0  0  0  0  0  0  0  0  0  0  0
   -3.6516   -1.7042    1.1847 C   0  0  0  0  0  0  0  0  0  0  0  0
   -2.4455   -3.3807   -0.3855 C   0  0  0  0  0  0  0  0  0  0  0  0
   -3.7346   -0.5166    0.2214 C   0  0  0  0  0  0  0  0  0  0  0  0
   -1.1016   -3.3717    0.3466 C   0  0  0  0  0  0  0  0  0  0  0  0
   -3.8323    0.8340    0.9277 C   0  0  0  0  0  0  0  0  0  0  0  0
    3.0906    0.9082    0.2560 C   0  0  0  0  0  0  0  0  0  0  0  0
   -3.8713    1.9838   -0.0701 C   0  0  0  0  0  0  0  0  0  0  0  0
    0.0971   -3.5835   -0.5845 C   0  0  0  0  0  0  0  0  0  0  0  0
    1.4768   -3.4964    0.0754 C   0  0  0  0  0  0  0  0  0  0  0  0
    2.6311   -3.7714   -0.8886 C   0  0  0  0  0  0  0  0  0  0  0  0
    4.1861    1.8203    0.6397 C   0  0  0  0  0  0  0  0  0  0  0  0
    3.9766   -3.6655   -0.1871 C   0  0  0  0  0  0  0  0  0  0  0  0
    5.2421    1.3228    1.2867 C   0  0  0  0  0  0  0  0  0  0  0  0
   -0.7587    2.9985   -2.2095 H   0  0  0  0  0  0  0  0  0  0  0  0
    0.6560    1.0650   -2.2787 H   0  0  0  0  0  0  0  0  0  0  0  0
   -0.8830    0.4807   -1.6674 H   0  0  0  0  0  0  0  0  0  0  0  0
    0.3822    4.4571   -0.4728 H   0  0  0  0  0  0  0  0  0  0  0  0
    1.4591    3.5484   -1.5293 H   0  0  0  0  0  0  0  0  0  0  0  0
    0.0092    0.4930    0.6621 H   0  0  0  0  0  0  0  0  0  0  0  0
    2.2485    3.4333    0.7910 H   0  0  0  0  0  0  0  0  0  0  0  0
    0.7319    2.7724    1.3517 H   0  0  0  0  0  0  0  0  0  0  0  0
    1.0445   -0.4469   -0.4147 H   0  0  0  0  0  0  0  0  0  0  0  0
   -3.6674   -3.8493    1.3252 H   0  0  0  0  0  0  0  0  0  0  0  0
   -4.5595   -3.2145   -0.0481 H   0  0  0  0  0  0  0  0  0  0  0  0
   -2.7770   -1.5864    1.8343 H   0  0  0  0  0  0  0  0  0  0  0  0
   -4.5229   -1.6638    1.8516 H   0  0  0  0  0  0  0  0  0  0  0  0
   -2.5914   -4.3670   -0.8433 H   0  0  0  0  0  0  0  0  0  0  0  0
   -2.4265   -2.6585   -1.2094 H   0  0  0  0  0  0  0  0  0  0  0  0
   -4.6051   -0.6470   -0.4333 H   0  0  0  0  0  0  0  0  0  0  0  0
   -2.8491   -0.5278   -0.4229 H   0  0  0  0  0  0  0  0  0  0  0  0
   -1.1006   -4.1469    1.1223 H   0  0  0  0  0  0  0  0  0  0  0  0
   -0.9619   -2.4117    0.8554 H   0  0  0  0  0  0  0  0  0  0  0  0
   -4.7349    0.8621    1.5486 H   0  0  0  0  0  0  0  0  0  0  0  0
   -2.9696    0.9491    1.5946 H   0  0  0  0  0  0  0  0  0  0  0  0
   -4.0174    2.9437    0.4388 H   0  0  0  0  0  0  0  0  0  0  0  0
   -4.7110    1.8607   -0.7626 H   0  0  0  0  0  0  0  0  0  0  0  0
    0.0524   -2.8400   -1.3906 H   0  0  0  0  0  0  0  0  0  0  0  0
   -0.0044   -4.5653   -1.0642 H   0  0  0  0  0  0  0  0  0  0  0  0
    1.5184   -4.2212    0.8981 H   0  0  0  0  0  0  0  0  0  0  0  0
    1.6000   -2.5066    0.5286 H   0  0  0  0  0  0  0  0  0  0  0  0
    2.5253   -4.7718   -1.3235 H   0  0  0  0  0  0  0  0  0  0  0  0
    2.5989   -3.0518   -1.7149 H   0  0  0  0  0  0  0  0  0  0  0  0
    4.1628    2.8650    0.3607 H   0  0  0  0  0  0  0  0  0  0  0  0
    4.0646   -4.4228    0.5988 H   0  0  0  0  0  0  0  0  0  0  0  0
    4.1164   -2.6844    0.2724 H   0  0  0  0  0  0  0  0  0  0  0  0
    4.7894   -3.8256   -0.9024 H   0  0  0  0  0  0  0  0  0  0  0  0
    6.0682    1.9735    1.5546 H   0  0  0  0  0  0  0  0  0  0  0  0
    5.3188    0.2799    1.5742 H   0  0  0  0  0  0  0  0  0  0  0  0
  1 10  1  0  0  0  0
  1 18  1  0  0  0  0
  2 10  2  0  0  0  0
  3 17  2  0  0  0  0
  4  8  1  0  0  0  0
  4  9  1  0  0  0  0
  4 17  1  0  0  0  0
  5  6  1  0  0  0  0
  5  7  1  0  0  0  0
  5 10  1  0  0  0  0
  5 25  1  0  0  0  0
  6  9  1  0  0  0  0
  6 28  1  0  0  0  0
  6 29  1  0  0  0  0
  7  8  1  0  0  0  0
  7 26  1  0  0  0  0
  7 27  1  0  0  0  0
  8 30  1  0  0  0  0
  8 33  1  0  0  0  0
  9 31  1  0  0  0  0
  9 32  1  0  0  0  0
 11 12  1  0  0  0  0
 11 13  1  0  0  0  0
 11 34  1  0  0  0  0
 11 35  1  0  0  0  0
 12 14  1  0  0  0  0
 12 36  1  0  0  0  0
 12 37  1  0  0  0  0
 13 15  1  0  0  0  0
 13 38  1  0  0  0  0
 13 39  1  0  0  0  0
 14 16  1  0  0  0  0
 14 40  1  0  0  0  0
 14 41  1  0  0  0  0
 15 19  1  0  0  0  0
 15 42  1  0  0  0  0
 15 43  1  0  0  0  0
 16 18  1  0  0  0  0
 16 44  1  0  0  0  0
 16 45  1  0  0  0  0
 17 22  1  0  0  0  0
 18 46  1  0  0  0  0
 18 47  1  0  0  0  0
 19 20  1  0  0  0  0
 19 48  1  0  0  0  0
 19 49  1  0  0  0  0
 20 21  1  0  0  0  0
 20 50  1  0  0  0  0
 20 51  1  0  0  0  0
 21 23  1  0  0  0  0
 21 52  1  0  0  0  0
 21 53  1  0  0  0  0
 22 24  2  0  0  0  0
 22 54  1  0  0  0  0
 23 55  1  0  0  0  0
 23 56  1  0  0  0  0
 23 57  1  0  0  0  0
 24 58  1  0  0  0  0
 24 59  1  0  0  0  0
M  END
> <PUBCHEM_COMPOUND_CID>
91740764

> <PUBCHEM_CONFORMER_RMSD>
1.4

> <PUBCHEM_CONFORMER_DIVERSEORDER>
2
35
33
71
10
42
43
26
14
50
70
39
38
48
54
8
46
84
27
53
77
51
36
72
87
31
41
86
44
80
82
63
45
56
79
49
60
69
75
67
57
76
11
83
20
73
25
7
81
66
22
55
12
64
30
18
74
85
78
34
15
5
40
61
32
59
9
3
29
28
88
68
16
62
17
37
65
24
4
6
52
19
13
47
21
1
58
23

> <PUBCHEM_MMFF94_PARTIAL_CHARGES>
15
1 -0.43
10 0.66
17 0.62
18 0.28
2 -0.57
22 -0.14
24 -0.3
3 -0.57
4 -0.66
5 0.06
54 0.15
58 0.15
59 0.15
8 0.3
9 0.3

> <PUBCHEM_EFFECTIVE_ROTOR_COUNT>
15.2

> <PUBCHEM_PHARMACOPHORE_FEATURES>
5
1 2 acceptor
1 23 hydrophobe
1 24 hydrophobe
1 3 acceptor
6 4 5 6 7 8 9 rings

> <PUBCHEM_HEAVY_ATOM_COUNT>
24

> <PUBCHEM_ATOM_DEF_STEREO_COUNT>
0

> <PUBCHEM_ATOM_UDEF_STEREO_COUNT>
0

> <PUBCHEM_BOND_DEF_STEREO_COUNT>
0

> <PUBCHEM_BOND_UDEF_STEREO_COUNT>
0

> <PUBCHEM_ISOTOPIC_ATOM_COUNT>
0

> <PUBCHEM_COMPONENT_COUNT>
1

> <PUBCHEM_CACTVS_TAUTO_COUNT>
1

> <PUBCHEM_CONFORMER_ID>
0577DA5C00000002

> <PUBCHEM_MMFF94_ENERGY>
23.4923

> <PUBCHEM_FEATURE_SELFOVERLAP>
25.372

> <PUBCHEM_SHAPE_FINGERPRINT>
10864689 126 17403455174800142958
11513181 2 18131069329120869399
12038231 1 18410015403459818927
12422481 6 18337936936419130866
12633257 1 17912385400420337521
13122387 1 16535952513191660663
13402501 40 17905330628525948495
14026016 164 17833260197057425162
14251757 5 17759543435604083828
14647877 51 18268429040915489378
19591789 44 18193840336280775119
19930381 70 16247725409799422665
20028762 73 17983577695533881583
20764821 26 18265054630554263479
21344244 246 18339347636013247527
21796203 349 17611502956209436785
22113638 7 17619344754743249471
23559900 14 17832978356655384444
238918 7 18271522091673018166
5047190 48 18194402419141406460
532947 4 18192708943960236381
6433294 58 18194686964761400902
9543594 6 18410863135678357782

> <PUBCHEM_SHAPE_MULTIPOLES>
471.32
8.49
6.98
1.1
2.81
5.28
0.05
1.05
-3.47
0.61
1.22
0.07
-0.29
1.35

> <PUBCHEM_SHAPE_SELFOVERLAP>
910.219

> <PUBCHEM_SHAPE_VOLUME>
284.1

> <PUBCHEM_COORDINATE_TYPE>
2
5
10

$$$$
