1742211
  -OEChem-09192007583D

 40 42  0     1  0  0  0  0  0999 V2000
   -3.2161    0.7771   -0.5413 O   0  0  0  0  0  0  0  0  0  0  0  0
    1.0258    0.4720   -0.3986 C   0  0  1  0  0  0  0  0  0  0  0  0
    2.5612    0.4449   -0.1423 C   0  0  0  0  0  0  0  0  0  0  0  0
    0.9439   -0.7345    0.5917 C   0  0  2  0  0  0  0  0  0  0  0  0
    2.4105   -1.0496    0.1906 C   0  0  0  0  0  0  0  0  0  0  0  0
   -2.0309    1.0294    0.2337 C   0  0  1  0  0  0  0  0  0  0  0  0
    0.3745    1.7881    0.0246 C   0  0  0  0  0  0  0  0  0  0  0  0
   -2.4174   -0.3649   -0.2129 C   0  0  2  0  0  0  0  0  0  0  0  0
   -1.0609    1.9217   -0.4754 C   0  0  0  0  0  0  0  0  0  0  0  0
   -0.0136   -1.8529    0.3522 C   0  0  0  0  0  0  0  0  0  0  0  0
   -1.7706   -1.0418   -1.3760 C   0  0  0  0  0  0  0  0  0  0  0  0
    3.5072    0.6709   -1.3011 C   0  0  0  0  0  0  0  0  0  0  0  0
    2.9818    1.2887    1.0376 C   0  0  0  0  0  0  0  0  0  0  0  0
   -0.6921   -2.0602   -0.9783 C   0  0  0  0  0  0  0  0  0  0  0  0
   -2.3902    1.4194    1.6258 C   0  0  0  0  0  0  0  0  0  0  0  0
   -0.2131   -2.7085    1.3699 C   0  0  0  0  0  0  0  0  0  0  0  0
    0.8100    0.2282   -1.4474 H   0  0  0  0  0  0  0  0  0  0  0  0
    0.8587   -0.3917    1.6343 H   0  0  0  0  0  0  0  0  0  0  0  0
    3.0453   -1.4316    0.9964 H   0  0  0  0  0  0  0  0  0  0  0  0
    2.5107   -1.7233   -0.6705 H   0  0  0  0  0  0  0  0  0  0  0  0
    0.9378    2.6176   -0.4224 H   0  0  0  0  0  0  0  0  0  0  0  0
    0.4040    1.9294    1.1099 H   0  0  0  0  0  0  0  0  0  0  0  0
   -2.8424   -1.0621    0.4980 H   0  0  0  0  0  0  0  0  0  0  0  0
   -1.3799    2.9619   -0.3284 H   0  0  0  0  0  0  0  0  0  0  0  0
   -1.0900    1.7629   -1.5594 H   0  0  0  0  0  0  0  0  0  0  0  0
   -1.3433   -0.3194   -2.0778 H   0  0  0  0  0  0  0  0  0  0  0  0
   -2.5461   -1.5652   -1.9498 H   0  0  0  0  0  0  0  0  0  0  0  0
    3.2280    0.0680   -2.1725 H   0  0  0  0  0  0  0  0  0  0  0  0
    3.4965    1.7196   -1.6182 H   0  0  0  0  0  0  0  0  0  0  0  0
    4.5375    0.4093   -1.0357 H   0  0  0  0  0  0  0  0  0  0  0  0
    2.3813    1.1320    1.9390 H   0  0  0  0  0  0  0  0  0  0  0  0
    4.0158    1.0586    1.3238 H   0  0  0  0  0  0  0  0  0  0  0  0
    2.9565    2.3588    0.8022 H   0  0  0  0  0  0  0  0  0  0  0  0
    0.0646   -2.1137   -1.7714 H   0  0  0  0  0  0  0  0  0  0  0  0
   -1.1662   -3.0520   -0.9843 H   0  0  0  0  0  0  0  0  0  0  0  0
   -1.5426    1.2618    2.3000 H   0  0  0  0  0  0  0  0  0  0  0  0
   -2.6752    2.4757    1.6762 H   0  0  0  0  0  0  0  0  0  0  0  0
   -3.2302    0.8348    2.0180 H   0  0  0  0  0  0  0  0  0  0  0  0
    0.2843   -2.5849    2.3266 H   0  0  0  0  0  0  0  0  0  0  0  0
   -0.8823   -3.5570    1.2709 H   0  0  0  0  0  0  0  0  0  0  0  0
  1  6  1  0  0  0  0
  1  8  1  0  0  0  0
  2  3  1  0  0  0  0
  2  4  1  0  0  0  0
  2  7  1  0  0  0  0
  2 17  1  0  0  0  0
  3  5  1  0  0  0  0
  3 12  1  0  0  0  0
  3 13  1  0  0  0  0
  4  5  1  0  0  0  0
  4 10  1  0  0  0  0
  4 18  1  0  0  0  0
  5 19  1  0  0  0  0
  5 20  1  0  0  0  0
  6  8  1  0  0  0  0
  6  9  1  0  0  0  0
  6 15  1  0  0  0  0
  7  9  1  0  0  0  0
  7 21  1  0  0  0  0
  7 22  1  0  0  0  0
  8 11  1  0  0  0  0
  8 23  1  0  0  0  0
  9 24  1  0  0  0  0
  9 25  1  0  0  0  0
 10 14  1  0  0  0  0
 10 16  2  0  0  0  0
 11 14  1  0  0  0  0
 11 26  1  0  0  0  0
 11 27  1  0  0  0  0
 12 28  1  0  0  0  0
 12 29  1  0  0  0  0
 12 30  1  0  0  0  0
 13 31  1  0  0  0  0
 13 32  1  0  0  0  0
 13 33  1  0  0  0  0
 14 34  1  0  0  0  0
 14 35  1  0  0  0  0
 15 36  1  0  0  0  0
 15 37  1  0  0  0  0
 15 38  1  0  0  0  0
 16 39  1  0  0  0  0
 16 40  1  0  0  0  0
M  END
> <PUBCHEM_COMPOUND_CID>
1742211

> <PUBCHEM_CONFORMER_RMSD>
0.6

> <PUBCHEM_CONFORMER_DIVERSEORDER>
1
3
2

> <PUBCHEM_MMFF94_PARTIAL_CHARGES>
13
1 -0.3
10 -0.25
11 0.09
14 0.14
15 0.09
16 -0.3
23 0.1
39 0.15
4 0.12
40 0.15
6 -0.04
8 -0.05
9 0.09

> <PUBCHEM_EFFECTIVE_ROTOR_COUNT>
1.4

> <PUBCHEM_PHARMACOPHORE_FEATURES>
3
1 1 acceptor
3 3 12 13 hydrophobe
4 2 3 4 5 rings

> <PUBCHEM_HEAVY_ATOM_COUNT>
16

> <PUBCHEM_ATOM_DEF_STEREO_COUNT>
4

> <PUBCHEM_ATOM_UDEF_STEREO_COUNT>
0

> <PUBCHEM_BOND_DEF_STEREO_COUNT>
0

> <PUBCHEM_BOND_UDEF_STEREO_COUNT>
0

> <PUBCHEM_ISOTOPIC_ATOM_COUNT>
0

> <PUBCHEM_COMPONENT_COUNT>
1

> <PUBCHEM_CACTVS_TAUTO_COUNT>
1

> <PUBCHEM_CONFORMER_ID>
001A958300000001

> <PUBCHEM_MMFF94_ENERGY>
43.0459

> <PUBCHEM_FEATURE_SELFOVERLAP>
15.223

> <PUBCHEM_SHAPE_FINGERPRINT>
11132069 177 18342446084732472064
12491281 212 18202292393879871354
12808571 1 18130232536415400755
13140716 1 18338231540318911600
13538477 17 17822855398311863624
13583140 156 15864624115469900332
13764800 53 18189060961114172122
14251711 518 18122048824104248127
14386348 128 18339932510640499748
14617773 55 18198882821133479166
14817 1 12490479931825037895
15309172 13 18261404329275022832
15490181 7 18266728087478214972
15775835 57 18411702049806434381
16945 1 18060416919400394606
17990270 104 17546160801452632327
18186145 218 18131073701539539480
20510252 161 17903358448320864754
20511035 2 17544177290876336861
20645476 183 17895484716467776750
21524375 3 18339361868311006483
22802520 49 18271821145776655310
23236772 104 18273493468634263313
2334 1 18409445882042462726
23402539 116 17983273092147439942
23419403 2 9778570377719335071
23557571 272 17701247281628211430
23559900 14 18341059592881907900
2748010 2 18409168783537225975
2897 32 18335976484898936156
353137 74 18339624733373544319
430814 3 17987245430221519419
63268167 104 18410568466218741561
7364860 26 17981036414792115338
81228 2 18194401323502558146

> <PUBCHEM_SHAPE_MULTIPOLES>
323.4
4.65
2.57
1.33
1.74
1.02
-0.13
-1.92
0.48
-0.69
-0.56
-0.16
0.17
-0.44

> <PUBCHEM_SHAPE_SELFOVERLAP>
670.801

> <PUBCHEM_SHAPE_VOLUME>
186.9

> <PUBCHEM_COORDINATE_TYPE>
2
5
10

$$$$
