5368784
  -OEChem-09192003413D

 39 39  0     0  0  0  0  0  0999 V2000
    1.8307    1.1968   -0.1102 C   0  0  0  0  0  0  0  0  0  0  0  0
    2.5559   -0.1737   -0.2685 C   0  0  0  0  0  0  0  0  0  0  0  0
    1.7398   -1.3626   -0.8126 C   0  0  0  0  0  0  0  0  0  0  0  0
    1.3778    1.7162   -1.4852 C   0  0  0  0  0  0  0  0  0  0  0  0
    2.8827    2.2157    0.4048 C   0  0  0  0  0  0  0  0  0  0  0  0
    0.7675    1.1201    0.9761 C   0  0  0  0  0  0  0  0  0  0  0  0
    0.7842   -2.0262    0.1566 C   0  0  0  0  0  0  0  0  0  0  0  0
   -0.5673    1.2676    0.9949 C   0  0  0  0  0  0  0  0  0  0  0  0
   -1.5548    1.5060   -0.1089 C   0  0  0  0  0  0  0  0  0  0  0  0
   -0.5554   -2.0794    0.0123 C   0  0  0  0  0  0  0  0  0  0  0  0
   -1.3976   -1.4399   -1.0558 C   0  0  0  0  0  0  0  0  0  0  0  0
   -2.7005    0.5166   -0.0591 C   0  0  0  0  0  0  0  0  0  0  0  0
    1.4348   -2.7399    1.3157 C   0  0  0  0  0  0  0  0  0  0  0  0
   -2.6094   -0.7631   -0.4731 C   0  0  0  0  0  0  0  0  0  0  0  0
   -3.9883    1.0457    0.5131 C   0  0  0  0  0  0  0  0  0  0  0  0
    3.0183   -0.4575    0.6862 H   0  0  0  0  0  0  0  0  0  0  0  0
    3.3989   -0.0295   -0.9601 H   0  0  0  0  0  0  0  0  0  0  0  0
    2.4598   -2.1355   -1.1177 H   0  0  0  0  0  0  0  0  0  0  0  0
    1.2455   -1.0832   -1.7459 H   0  0  0  0  0  0  0  0  0  0  0  0
    2.2379    1.8589   -2.1510 H   0  0  0  0  0  0  0  0  0  0  0  0
    0.7072    1.0244   -1.9981 H   0  0  0  0  0  0  0  0  0  0  0  0
    0.8749    2.6864   -1.4009 H   0  0  0  0  0  0  0  0  0  0  0  0
    2.4393    3.2092    0.5444 H   0  0  0  0  0  0  0  0  0  0  0  0
    3.3116    1.9061    1.3657 H   0  0  0  0  0  0  0  0  0  0  0  0
    3.7145    2.3211   -0.3018 H   0  0  0  0  0  0  0  0  0  0  0  0
    1.1952    0.9142    1.9615 H   0  0  0  0  0  0  0  0  0  0  0  0
   -1.0261    1.1890    1.9827 H   0  0  0  0  0  0  0  0  0  0  0  0
   -1.9468    2.5252    0.0001 H   0  0  0  0  0  0  0  0  0  0  0  0
   -1.1140    1.4767   -1.1030 H   0  0  0  0  0  0  0  0  0  0  0  0
   -1.1196   -2.6491    0.7510 H   0  0  0  0  0  0  0  0  0  0  0  0
   -1.7442   -2.2234   -1.7406 H   0  0  0  0  0  0  0  0  0  0  0  0
   -0.8354   -0.7348   -1.6706 H   0  0  0  0  0  0  0  0  0  0  0  0
    2.1921   -3.4431    0.9541 H   0  0  0  0  0  0  0  0  0  0  0  0
    0.7149   -3.3134    1.9094 H   0  0  0  0  0  0  0  0  0  0  0  0
    1.9154   -2.0236    1.9888 H   0  0  0  0  0  0  0  0  0  0  0  0
   -3.4865   -1.4017   -0.3773 H   0  0  0  0  0  0  0  0  0  0  0  0
   -4.7739    0.2835    0.5462 H   0  0  0  0  0  0  0  0  0  0  0  0
   -4.3588    1.8777   -0.0946 H   0  0  0  0  0  0  0  0  0  0  0  0
   -3.8306    1.4038    1.5357 H   0  0  0  0  0  0  0  0  0  0  0  0
  1  2  1  0  0  0  0
  1  4  1  0  0  0  0
  1  5  1  0  0  0  0
  1  6  1  0  0  0  0
  2  3  1  0  0  0  0
  2 16  1  0  0  0  0
  2 17  1  0  0  0  0
  3  7  1  0  0  0  0
  3 18  1  0  0  0  0
  3 19  1  0  0  0  0
  4 20  1  0  0  0  0
  4 21  1  0  0  0  0
  4 22  1  0  0  0  0
  5 23  1  0  0  0  0
  5 24  1  0  0  0  0
  5 25  1  0  0  0  0
  6  8  2  0  0  0  0
  6 26  1  0  0  0  0
  7 10  2  0  0  0  0
  7 13  1  0  0  0  0
  8  9  1  0  0  0  0
  8 27  1  0  0  0  0
  9 12  1  0  0  0  0
  9 28  1  0  0  0  0
  9 29  1  0  0  0  0
 10 11  1  0  0  0  0
 10 30  1  0  0  0  0
 11 14  1  0  0  0  0
 11 31  1  0  0  0  0
 11 32  1  0  0  0  0
 12 14  2  0  0  0  0
 12 15  1  0  0  0  0
 13 33  1  0  0  0  0
 13 34  1  0  0  0  0
 13 35  1  0  0  0  0
 14 36  1  0  0  0  0
 15 37  1  0  0  0  0
 15 38  1  0  0  0  0
 15 39  1  0  0  0  0
M  END
> <PUBCHEM_COMPOUND_CID>
5368784

> <PUBCHEM_CONFORMER_RMSD>
0.4

> <PUBCHEM_CONFORMER_DIVERSEORDER>
1

> <PUBCHEM_MMFF94_PARTIAL_CHARGES>
16
1 0.14
10 -0.29
11 0.28
12 -0.28
13 0.14
14 -0.29
15 0.14
26 0.15
27 0.15
3 0.14
30 0.15
36 0.15
6 -0.29
7 -0.28
8 -0.29
9 0.28

> <PUBCHEM_EFFECTIVE_ROTOR_COUNT>
1

> <PUBCHEM_PHARMACOPHORE_FEATURES>
1
3 1 4 5 hydrophobe

> <PUBCHEM_HEAVY_ATOM_COUNT>
15

> <PUBCHEM_ATOM_DEF_STEREO_COUNT>
0

> <PUBCHEM_ATOM_UDEF_STEREO_COUNT>
0

> <PUBCHEM_BOND_DEF_STEREO_COUNT>
3

> <PUBCHEM_BOND_UDEF_STEREO_COUNT>
0

> <PUBCHEM_ISOTOPIC_ATOM_COUNT>
0

> <PUBCHEM_COMPONENT_COUNT>
1

> <PUBCHEM_CACTVS_TAUTO_COUNT>
1

> <PUBCHEM_CONFORMER_ID>
0051EBD000000001

> <PUBCHEM_MMFF94_ENERGY>
32.4175

> <PUBCHEM_FEATURE_SELFOVERLAP>
5.074

> <PUBCHEM_SHAPE_FINGERPRINT>
10382601 240 18261391122445591232
10980938 120 18343022160248062915
11086676 242 18121776123566479354
13132413 78 18194946475417713210
13897977 150 18412544301883917789
14181834 199 18266724810370578799
14251711 518 18341043004589452511
14251745 187 17841424044590776681
14817 1 14400687823646873730
15279307 12 18341615940473400317
15775835 57 18343588464254567701
16945 1 18339914901189865343
20559304 39 18121781629915201019
20645476 183 18044672028934108380
20645477 70 18271806770763747765
22344851 341 18411417336492999978
22802520 49 18055938707662451150
2334 1 18196090160272120183
23419403 2 13953530931465158537
23552423 10 18410008827943594325
23559900 14 18131073788230299496
257057 1 17469033367688737946
2748010 2 18196381531022487334
2897 32 18339643343308523935
305870 269 18334283301596122426
353137 74 18340483468997426601
528862 383 18337391535252998715
5939293 188 17981043011898811861
7364860 26 18271807869800322846
81228 2 17617659203464666169

> <PUBCHEM_SHAPE_MULTIPOLES>
308.69
4.71
3.03
1.18
3.28
1.2
-0.05
-2
0.12
-1.52
0.48
-0.29
0.05
-0.62

> <PUBCHEM_SHAPE_SELFOVERLAP>
602.89

> <PUBCHEM_SHAPE_VOLUME>
185.6

> <PUBCHEM_COORDINATE_TYPE>
2
5
10

$$$$
