6432640
  -OEChem-09192005293D

 40 42  0     1  0  0  0  0  0999 V2000
    2.1798   -1.6214   -1.4360 O   0  0  0  0  0  0  0  0  0  0  0  0
   -0.6999   -0.3399    0.6203 C   0  0  2  0  0  0  0  0  0  0  0  0
   -2.0716   -0.8593    0.2822 C   0  0  0  0  0  0  0  0  0  0  0  0
   -1.8412    0.6258    0.3977 C   0  0  2  0  0  0  0  0  0  0  0  0
    0.4167   -0.3480   -0.3934 C   0  0  1  0  0  0  0  0  0  0  0  0
    1.2881    0.9280   -0.2652 C   0  0  2  0  0  0  0  0  0  0  0  0
    1.4371   -1.4864   -0.2157 C   0  0  2  0  0  0  0  0  0  0  0  0
   -1.8603    1.4840   -0.8326 C   0  0  0  0  0  0  0  0  0  0  0  0
   -2.2649   -1.4040   -1.0938 C   0  0  0  0  0  0  0  0  0  0  0  0
   -2.8678   -1.5909    1.3091 C   0  0  0  0  0  0  0  0  0  0  0  0
    2.3024    0.5469    0.8363 C   0  0  0  0  0  0  0  0  0  0  0  0
    2.4073   -0.9829    0.8530 C   0  0  0  0  0  0  0  0  0  0  0  0
   -0.6984    2.4874   -0.9278 C   0  0  0  0  0  0  0  0  0  0  0  0
    0.5245    2.2341   -0.0631 C   0  0  0  0  0  0  0  0  0  0  0  0
    0.8477   -2.8529    0.1122 C   0  0  0  0  0  0  0  0  0  0  0  0
    0.9006    3.1797    0.8168 C   0  0  0  0  0  0  0  0  0  0  0  0
   -0.3499   -0.4447    1.6413 H   0  0  0  0  0  0  0  0  0  0  0  0
   -2.2200    1.1481    1.2686 H   0  0  0  0  0  0  0  0  0  0  0  0
    0.0634   -0.3533   -1.4254 H   0  0  0  0  0  0  0  0  0  0  0  0
    1.8536    1.0407   -1.2025 H   0  0  0  0  0  0  0  0  0  0  0  0
   -2.8036    2.0464   -0.8325 H   0  0  0  0  0  0  0  0  0  0  0  0
   -1.8869    0.9297   -1.7723 H   0  0  0  0  0  0  0  0  0  0  0  0
   -3.2979   -1.2166   -1.4130 H   0  0  0  0  0  0  0  0  0  0  0  0
   -1.6290   -1.0547   -1.9042 H   0  0  0  0  0  0  0  0  0  0  0  0
   -2.1411   -2.4938   -1.0762 H   0  0  0  0  0  0  0  0  0  0  0  0
   -2.5687   -2.6433    1.3563 H   0  0  0  0  0  0  0  0  0  0  0  0
   -2.7293   -1.1626    2.3078 H   0  0  0  0  0  0  0  0  0  0  0  0
   -3.9367   -1.5466    1.0753 H   0  0  0  0  0  0  0  0  0  0  0  0
    1.9742    0.8743    1.8299 H   0  0  0  0  0  0  0  0  0  0  0  0
    3.2783    1.0081    0.6470 H   0  0  0  0  0  0  0  0  0  0  0  0
    3.4382   -1.2987    0.6583 H   0  0  0  0  0  0  0  0  0  0  0  0
    2.1292   -1.3455    1.8498 H   0  0  0  0  0  0  0  0  0  0  0  0
   -1.1087    3.4823   -0.7058 H   0  0  0  0  0  0  0  0  0  0  0  0
   -0.3724    2.5495   -1.9747 H   0  0  0  0  0  0  0  0  0  0  0  0
    0.3007   -2.8559    1.0596 H   0  0  0  0  0  0  0  0  0  0  0  0
    0.1744   -3.1892   -0.6830 H   0  0  0  0  0  0  0  0  0  0  0  0
    1.6423   -3.6052    0.1796 H   0  0  0  0  0  0  0  0  0  0  0  0
    1.5630   -1.9112   -2.1299 H   0  0  0  0  0  0  0  0  0  0  0  0
    1.7805    3.0800    1.4410 H   0  0  0  0  0  0  0  0  0  0  0  0
    0.3391    4.1021    0.9278 H   0  0  0  0  0  0  0  0  0  0  0  0
  1  7  1  0  0  0  0
  1 38  1  0  0  0  0
  2  3  1  0  0  0  0
  2  4  1  0  0  0  0
  2  5  1  0  0  0  0
  2 17  1  0  0  0  0
  3  4  1  0  0  0  0
  3  9  1  0  0  0  0
  3 10  1  0  0  0  0
  4  8  1  0  0  0  0
  4 18  1  0  0  0  0
  5  6  1  0  0  0  0
  5  7  1  0  0  0  0
  5 19  1  0  0  0  0
  6 11  1  0  0  0  0
  6 14  1  0  0  0  0
  6 20  1  0  0  0  0
  7 12  1  0  0  0  0
  7 15  1  0  0  0  0
  8 13  1  0  0  0  0
  8 21  1  0  0  0  0
  8 22  1  0  0  0  0
  9 23  1  0  0  0  0
  9 24  1  0  0  0  0
  9 25  1  0  0  0  0
 10 26  1  0  0  0  0
 10 27  1  0  0  0  0
 10 28  1  0  0  0  0
 11 12  1  0  0  0  0
 11 29  1  0  0  0  0
 11 30  1  0  0  0  0
 12 31  1  0  0  0  0
 12 32  1  0  0  0  0
 13 14  1  0  0  0  0
 13 33  1  0  0  0  0
 13 34  1  0  0  0  0
 14 16  2  0  0  0  0
 15 35  1  0  0  0  0
 15 36  1  0  0  0  0
 15 37  1  0  0  0  0
 16 39  1  0  0  0  0
 16 40  1  0  0  0  0
M  END
> <PUBCHEM_COMPOUND_CID>
6432640

> <PUBCHEM_CONFORMER_RMSD>
0.6

> <PUBCHEM_CONFORMER_DIVERSEORDER>
4
15
11
13
7
18
10
2
14
9
12
16
1
8
3
17
5
6

> <PUBCHEM_MMFF94_PARTIAL_CHARGES>
18
1 -0.68
10 0.09
13 0.14
14 -0.28
16 -0.3
17 0.1
18 0.1
2 -0.19
3 -0.19
38 0.4
39 0.15
4 -0.19
40 0.15
5 0.09
6 0.14
7 0.28
8 0.09
9 0.09

> <PUBCHEM_EFFECTIVE_ROTOR_COUNT>
1.2

> <PUBCHEM_PHARMACOPHORE_FEATURES>
5
1 1 acceptor
1 1 donor
3 3 9 10 hydrophobe
5 5 6 7 11 12 rings
7 2 4 5 6 8 13 14 rings

> <PUBCHEM_HEAVY_ATOM_COUNT>
16

> <PUBCHEM_ATOM_DEF_STEREO_COUNT>
1

> <PUBCHEM_ATOM_UDEF_STEREO_COUNT>
4

> <PUBCHEM_BOND_DEF_STEREO_COUNT>
0

> <PUBCHEM_BOND_UDEF_STEREO_COUNT>
0

> <PUBCHEM_ISOTOPIC_ATOM_COUNT>
0

> <PUBCHEM_COMPONENT_COUNT>
1

> <PUBCHEM_CACTVS_TAUTO_COUNT>
1

> <PUBCHEM_CONFORMER_ID>
0062278000000004

> <PUBCHEM_MMFF94_ENERGY>
59.3497

> <PUBCHEM_FEATURE_SELFOVERLAP>
25.405

> <PUBCHEM_SHAPE_FINGERPRINT>
10967382 1 18122335792222739589
11067466 332 17680445625363093679
12138202 97 17828750756010521484
12382932 28 18339355258487999248
12423570 1 13514571388475126841
12524768 44 18268987583725387163
12696612 119 18338803423846525859
13140716 1 18338233756801585240
13172582 1 18195807594421273778
14817 1 17907314151517407679
15490181 8 17910401919476094586
15881359 60 17329095602212263364
16945 1 18048587407104747200
19868273 325 18337679615530773031
20588541 1 18336256830447330645
20645476 183 16956777523105135343
20645477 70 18121220050652621499
21061003 4 18409738390837837683
22802520 49 17909269087486735518
2334 1 18410292527560351034
23388829 49 18125707126849110181
23419403 2 15442614943563112306
23557571 272 18268155253929790518
23559900 14 16398863204808599798
2748010 2 18411695465726876294
2897 32 15813680734781552157
576247 118 17826834474657576251
7364860 26 18127144171345677737
81228 2 18049161068590696688
8809292 202 18048029671347313146

> <PUBCHEM_SHAPE_MULTIPOLES>
323.4
3.54
3.37
1.18
1.86
0.09
-0.05
0.03
0.97
-1.59
-0.49
0.22
0.09
0.36

> <PUBCHEM_SHAPE_SELFOVERLAP>
681.436

> <PUBCHEM_SHAPE_VOLUME>
184.2

> <PUBCHEM_COORDINATE_TYPE>
2
5
10

$$$$
