529885
  -OEChem-09192003443D

 30 31  0     1  0  0  0  0  0999 V2000
   -0.1305   -0.0415   -1.1738 O   0  0  0  0  0  0  0  0  0  0  0  0
    1.8242   -1.7482    0.0432 O   0  0  0  0  0  0  0  0  0  0  0  0
   -0.9868    0.0382    1.1271 C   0  0  1  0  0  0  0  0  0  0  0  0
    0.9911    0.4904   -0.4358 C   0  0  2  0  0  0  0  0  0  0  0  0
   -1.2969   -0.2902   -0.3617 C   0  0  0  0  0  0  0  0  0  0  0  0
    1.4057   -0.5289    0.6498 C   0  0  1  0  0  0  0  0  0  0  0  0
    0.2231   -0.7989    1.5915 C   0  0  0  0  0  0  0  0  0  0  0  0
   -0.5662    1.5158    1.2498 C   0  0  0  0  0  0  0  0  0  0  0  0
    0.5481    1.8053    0.2372 C   0  0  0  0  0  0  0  0  0  0  0  0
    2.1107    0.7471   -1.4422 C   0  0  0  0  0  0  0  0  0  0  0  0
   -2.4372    0.5740   -0.9225 C   0  0  0  0  0  0  0  0  0  0  0  0
   -1.6854   -1.7630   -0.5627 C   0  0  0  0  0  0  0  0  0  0  0  0
   -1.8519   -0.1619    1.7691 H   0  0  0  0  0  0  0  0  0  0  0  0
    2.2584   -0.1441    1.2223 H   0  0  0  0  0  0  0  0  0  0  0  0
    0.4976   -0.5060    2.6129 H   0  0  0  0  0  0  0  0  0  0  0  0
   -0.0271   -1.8640    1.6414 H   0  0  0  0  0  0  0  0  0  0  0  0
   -0.2105    1.7272    2.2659 H   0  0  0  0  0  0  0  0  0  0  0  0
   -1.4153    2.1880    1.0850 H   0  0  0  0  0  0  0  0  0  0  0  0
    0.1664    2.5036   -0.5181 H   0  0  0  0  0  0  0  0  0  0  0  0
    1.3896    2.2976    0.7387 H   0  0  0  0  0  0  0  0  0  0  0  0
    1.7929    1.4754   -2.1972 H   0  0  0  0  0  0  0  0  0  0  0  0
    3.0120    1.1286   -0.9520 H   0  0  0  0  0  0  0  0  0  0  0  0
    2.3703   -0.1658   -1.9896 H   0  0  0  0  0  0  0  0  0  0  0  0
   -2.6771    0.2805   -1.9515 H   0  0  0  0  0  0  0  0  0  0  0  0
   -3.3449    0.4793   -0.3178 H   0  0  0  0  0  0  0  0  0  0  0  0
   -2.1616    1.6314   -0.9813 H   0  0  0  0  0  0  0  0  0  0  0  0
   -0.8528   -2.4408   -0.3524 H   0  0  0  0  0  0  0  0  0  0  0  0
   -2.5349   -2.0421    0.0689 H   0  0  0  0  0  0  0  0  0  0  0  0
   -1.9565   -1.9542   -1.6079 H   0  0  0  0  0  0  0  0  0  0  0  0
    2.0881   -2.3538    0.7568 H   0  0  0  0  0  0  0  0  0  0  0  0
  1  4  1  0  0  0  0
  1  5  1  0  0  0  0
  2  6  1  0  0  0  0
  2 30  1  0  0  0  0
  3  5  1  0  0  0  0
  3  7  1  0  0  0  0
  3  8  1  0  0  0  0
  3 13  1  0  0  0  0
  4  6  1  0  0  0  0
  4  9  1  0  0  0  0
  4 10  1  0  0  0  0
  5 11  1  0  0  0  0
  5 12  1  0  0  0  0
  6  7  1  0  0  0  0
  6 14  1  0  0  0  0
  7 15  1  0  0  0  0
  7 16  1  0  0  0  0
  8  9  1  0  0  0  0
  8 17  1  0  0  0  0
  8 18  1  0  0  0  0
  9 19  1  0  0  0  0
  9 20  1  0  0  0  0
 10 21  1  0  0  0  0
 10 22  1  0  0  0  0
 10 23  1  0  0  0  0
 11 24  1  0  0  0  0
 11 25  1  0  0  0  0
 11 26  1  0  0  0  0
 12 27  1  0  0  0  0
 12 28  1  0  0  0  0
 12 29  1  0  0  0  0
M  END
> <PUBCHEM_COMPOUND_CID>
529885

> <PUBCHEM_CONFORMER_RMSD>
0.4

> <PUBCHEM_CONFORMER_DIVERSEORDER>
3
4
1
2

> <PUBCHEM_MMFF94_PARTIAL_CHARGES>
6
1 -0.56
2 -0.68
30 0.4
4 0.28
5 0.28
6 0.28

> <PUBCHEM_EFFECTIVE_ROTOR_COUNT>
1.2

> <PUBCHEM_PHARMACOPHORE_FEATURES>
5
1 1 acceptor
1 2 acceptor
1 2 donor
3 5 11 12 hydrophobe
8 1 3 4 5 6 7 8 9 rings

> <PUBCHEM_HEAVY_ATOM_COUNT>
12

> <PUBCHEM_ATOM_DEF_STEREO_COUNT>
0

> <PUBCHEM_ATOM_UDEF_STEREO_COUNT>
3

> <PUBCHEM_BOND_DEF_STEREO_COUNT>
0

> <PUBCHEM_BOND_UDEF_STEREO_COUNT>
0

> <PUBCHEM_ISOTOPIC_ATOM_COUNT>
0

> <PUBCHEM_COMPONENT_COUNT>
1

> <PUBCHEM_CACTVS_TAUTO_COUNT>
1

> <PUBCHEM_CONFORMER_ID>
000815DD00000003

> <PUBCHEM_MMFF94_ENERGY>
44.7829

> <PUBCHEM_FEATURE_SELFOVERLAP>
25.374

> <PUBCHEM_SHAPE_FINGERPRINT>
10702982 57 17769415700995559788
12423570 1 17261053029544056912
13024252 1 17539171562580605500
137420 1 13538522281911279744
14128692 85 18262501667770718186
14817 1 14293184001964274433
15557651 10 17902821839190775445
16945 1 18411415150349345413
21922407 69 18341067275465083138
23211744 25 18044653341562882683
369184 2 17983331302071122668
5084963 1 16808946290680507108
528886 8 17022895744313555613
54276843 12 18046063757299112459
68250623 7 17688919329423522729

> <PUBCHEM_SHAPE_MULTIPOLES>
235.22
2.52
1.73
1.51
0.29
0.12
0.17
0.23
-1.13
-0.09
0.22
-0.09
-0.12
-0.29

> <PUBCHEM_SHAPE_SELFOVERLAP>
489.538

> <PUBCHEM_SHAPE_VOLUME>
135.4

> <PUBCHEM_COORDINATE_TYPE>
2
5
10

$$$$
