550355
  -OEChem-09192002243D

  6  5  0     0  0  0  0  0  0999 V2000
    1.0619    0.9529   -0.0017 S   0  0  0  0  0  0  0  0  0  0  0  0
   -1.5444    0.8420   -0.0016 F   0  0  0  0  0  0  0  0  0  0  0  0
   -0.5617   -0.7697    1.0927 F   0  0  0  0  0  0  0  0  0  0  0  0
   -0.5619   -0.7748   -1.0895 F   0  0  0  0  0  0  0  0  0  0  0  0
    2.0715   -0.2743    0.0004 F   0  0  0  0  0  0  0  0  0  0  0  0
   -0.4656    0.0238   -0.0002 C   0  0  0  0  0  0  0  0  0  0  0  0
  1  5  1  0  0  0  0
  1  6  1  0  0  0  0
  2  6  1  0  0  0  0
  3  6  1  0  0  0  0
  4  6  1  0  0  0  0
M  END
> <PUBCHEM_COMPOUND_CID>
550355

> <PUBCHEM_CONFORMER_RMSD>
0.4

> <PUBCHEM_CONFORMER_DIVERSEORDER>
1

> <PUBCHEM_MMFF94_PARTIAL_CHARGES>
6
1 -0.15
2 -0.34
3 -0.34
4 -0.34
5 -0.08
6 1.25

> <PUBCHEM_EFFECTIVE_ROTOR_COUNT>
1

> <PUBCHEM_PHARMACOPHORE_FEATURES>
0

> <PUBCHEM_HEAVY_ATOM_COUNT>
6

> <PUBCHEM_ATOM_DEF_STEREO_COUNT>
0

> <PUBCHEM_ATOM_UDEF_STEREO_COUNT>
0

> <PUBCHEM_BOND_DEF_STEREO_COUNT>
0

> <PUBCHEM_BOND_UDEF_STEREO_COUNT>
0

> <PUBCHEM_ISOTOPIC_ATOM_COUNT>
0

> <PUBCHEM_COMPONENT_COUNT>
1

> <PUBCHEM_CACTVS_TAUTO_COUNT>
1

> <PUBCHEM_CONFORMER_ID>
000865D300000001

> <PUBCHEM_MMFF94_ENERGY>
0.1987

> <PUBCHEM_FEATURE_SELFOVERLAP>
0

> <PUBCHEM_SHAPE_FINGERPRINT>
139733 1 9223237342775912992
20096714 4 18409727348382051832
21015797 1 11027998796528639669
24536 1 17897154939218615724
29004967 10 17619619628455011115
5943 1 10833265924415840615

> <PUBCHEM_SHAPE_MULTIPOLES>
98.23
1.87
1.02
0.87
0.77
0.15
0
0.1
0
-0.02
0
-0.2
-0.22
0

> <PUBCHEM_SHAPE_SELFOVERLAP>
170.397

> <PUBCHEM_SHAPE_VOLUME>
66.5

> <PUBCHEM_COORDINATE_TYPE>
2
5
10

$$$$
