223147
  -OEChem-09192005403D

 33 34  0     0  0  0  0  0  0999 V2000
    1.2890    2.2804   -0.3016 O   0  0  0  0  0  0  0  0  0  0  0  0
    2.3852    0.2318   -0.4244 N   0  0  0  0  0  0  0  0  0  0  0  0
    4.6388   -1.2911    0.5841 C   0  0  0  0  0  0  0  0  0  0  0  0
    4.5668    0.2256    0.7374 C   0  0  0  0  0  0  0  0  0  0  0  0
    3.2376   -1.8926    0.5184 C   0  0  0  0  0  0  0  0  0  0  0  0
    3.7152    0.8458   -0.3654 C   0  0  0  0  0  0  0  0  0  0  0  0
    2.3900   -1.2323   -0.5687 C   0  0  0  0  0  0  0  0  0  0  0  0
    1.2593    1.0514   -0.3846 C   0  0  0  0  0  0  0  0  0  0  0  0
   -0.0663    0.4046   -0.4513 C   0  0  0  0  0  0  0  0  0  0  0  0
   -1.1219    0.9274    0.1443 C   0  0  0  0  0  0  0  0  0  0  0  0
   -2.4615    0.3149    0.1140 C   0  0  0  0  0  0  0  0  0  0  0  0
   -2.7632   -0.6088   -0.8738 C   0  0  0  0  0  0  0  0  0  0  0  0
   -3.3941    0.6743    1.0736 C   0  0  0  0  0  0  0  0  0  0  0  0
   -4.0314   -1.1887   -0.9029 C   0  0  0  0  0  0  0  0  0  0  0  0
   -4.6624    0.0943    1.0447 C   0  0  0  0  0  0  0  0  0  0  0  0
   -4.9810   -0.8371    0.0563 C   0  0  0  0  0  0  0  0  0  0  0  0
    5.1904   -1.5433   -0.3297 H   0  0  0  0  0  0  0  0  0  0  0  0
    5.1913   -1.7248    1.4250 H   0  0  0  0  0  0  0  0  0  0  0  0
    4.1336    0.4701    1.7152 H   0  0  0  0  0  0  0  0  0  0  0  0
    5.5761    0.6509    0.7131 H   0  0  0  0  0  0  0  0  0  0  0  0
    3.3039   -2.9706    0.3342 H   0  0  0  0  0  0  0  0  0  0  0  0
    2.7455   -1.7599    1.4902 H   0  0  0  0  0  0  0  0  0  0  0  0
    3.6406    1.9262   -0.2065 H   0  0  0  0  0  0  0  0  0  0  0  0
    4.1861    0.6927   -1.3438 H   0  0  0  0  0  0  0  0  0  0  0  0
    2.8007   -1.4557   -1.5604 H   0  0  0  0  0  0  0  0  0  0  0  0
    1.3897   -1.6624   -0.5247 H   0  0  0  0  0  0  0  0  0  0  0  0
   -0.1296   -0.5003   -1.0386 H   0  0  0  0  0  0  0  0  0  0  0  0
   -1.0316    1.8383    0.7311 H   0  0  0  0  0  0  0  0  0  0  0  0
   -2.0721   -0.8964   -1.6593 H   0  0  0  0  0  0  0  0  0  0  0  0
   -3.1608    1.3975    1.8506 H   0  0  0  0  0  0  0  0  0  0  0  0
   -4.2825   -1.9092   -1.6759 H   0  0  0  0  0  0  0  0  0  0  0  0
   -5.4021    0.3680    1.7914 H   0  0  0  0  0  0  0  0  0  0  0  0
   -5.9690   -1.2875    0.0329 H   0  0  0  0  0  0  0  0  0  0  0  0
  1  8  2  0  0  0  0
  2  6  1  0  0  0  0
  2  7  1  0  0  0  0
  2  8  1  0  0  0  0
  3  4  1  0  0  0  0
  3  5  1  0  0  0  0
  3 17  1  0  0  0  0
  3 18  1  0  0  0  0
  4  6  1  0  0  0  0
  4 19  1  0  0  0  0
  4 20  1  0  0  0  0
  5  7  1  0  0  0  0
  5 21  1  0  0  0  0
  5 22  1  0  0  0  0
  6 23  1  0  0  0  0
  6 24  1  0  0  0  0
  7 25  1  0  0  0  0
  7 26  1  0  0  0  0
  8  9  1  0  0  0  0
  9 10  2  3  0  0  0
  9 27  1  0  0  0  0
 10 11  1  0  0  0  0
 10 28  1  0  0  0  0
 11 12  2  0  0  0  0
 11 13  1  0  0  0  0
 12 14  1  0  0  0  0
 12 29  1  0  0  0  0
 13 15  2  0  0  0  0
 13 30  1  0  0  0  0
 14 16  2  0  0  0  0
 14 31  1  0  0  0  0
 15 16  1  0  0  0  0
 15 32  1  0  0  0  0
 16 33  1  0  0  0  0
M  END
> <PUBCHEM_COMPOUND_CID>
223147

> <PUBCHEM_CONFORMER_RMSD>
0.6

> <PUBCHEM_CONFORMER_DIVERSEORDER>
1
10
7
6
3
8
9
5
2
4

> <PUBCHEM_MMFF94_PARTIAL_CHARGES>
20
1 -0.57
10 -0.18
11 0.03
12 -0.15
13 -0.15
14 -0.15
15 -0.15
16 -0.15
2 -0.66
27 0.15
28 0.15
29 0.15
30 0.15
31 0.15
32 0.15
33 0.15
6 0.3
7 0.3
8 0.62
9 -0.14

> <PUBCHEM_EFFECTIVE_ROTOR_COUNT>
4.2

> <PUBCHEM_PHARMACOPHORE_FEATURES>
3
1 1 acceptor
6 11 12 13 14 15 16 rings
6 2 3 4 5 6 7 rings

> <PUBCHEM_HEAVY_ATOM_COUNT>
16

> <PUBCHEM_ATOM_DEF_STEREO_COUNT>
0

> <PUBCHEM_ATOM_UDEF_STEREO_COUNT>
0

> <PUBCHEM_BOND_DEF_STEREO_COUNT>
0

> <PUBCHEM_BOND_UDEF_STEREO_COUNT>
1

> <PUBCHEM_ISOTOPIC_ATOM_COUNT>
0

> <PUBCHEM_COMPONENT_COUNT>
1

> <PUBCHEM_CACTVS_TAUTO_COUNT>
1

> <PUBCHEM_CONFORMER_ID>
000367AB00000001

> <PUBCHEM_MMFF94_ENERGY>
36.8813

> <PUBCHEM_FEATURE_SELFOVERLAP>
15.223

> <PUBCHEM_SHAPE_FINGERPRINT>
10912923 1 18272656778723973073
11796584 16 16877656859712397083
12107183 9 17695638346254688635
12236239 1 18201722863952208373
12251169 10 18131635594967669445
12553582 1 18411424994340327308
12596602 18 17704070715813812394
13167823 11 18342458144736661171
14123260 362 8430311364098766191
1420 369 18408604734246522962
14251717 144 18334293175836861634
14252887 29 18343025450182611574
14386348 63 17240205443178497563
14863182 85 18409455765506626966
15375462 189 18413107260105468400
17857418 61 18342451569553226759
17862501 102 18343582953901035299
17870717 6 15285360591978340795
1813 80 18187377497058430356
19050596 39 18130788966423752969
19862831 5 12396300343976560788
1986462 14 14779547885543983493
200 152 18410006650521795341
20279233 1 17240204343492763875
20281475 54 18335703866176574877
20432913 95 18333453135851833955
20645477 70 17749110019243807816
21065198 48 18201722833792537440
21267235 1 18410018710890475110
21501925 9 18409165502535737100
21652331 79 10952053350923929779
22224240 67 18336818797813071200
22485316 2 18411418401744986053
2255824 54 18266185109117789860
22646028 1 18413108372644338341
22646028 28 18410854356490605663
231179 274 12535345679910831842
23402539 116 18260544502576310605
23557571 272 16199889283669557641
23596394 208 16009018458738610291
26918003 58 18333452053820703707
300161 21 18131066030817307657
32948 21 13984651538668849422
33824 294 18259701195049864794
351380 3 18409450263094123698
42 15 18342460335249025505
449060 50 11240003373454348277
4990 188 12973603322382033008
5104073 3 18059019505342560603
5281201 14 16732703865261600925
542803 24 11024112044763083397
573450 72 17988926665347406091
602551 16 16271635801810597590
67856867 119 18129657650880239577
7064713 232 17775280538904973694

> <PUBCHEM_SHAPE_MULTIPOLES>
318.42
11.51
1.67
0.99
1.8
0
-0.09
-3.69
-2.45
-1.18
0.08
0.46
-0.07
-1.01

> <PUBCHEM_SHAPE_SELFOVERLAP>
661.578

> <PUBCHEM_SHAPE_VOLUME>
179.9

> <PUBCHEM_COORDINATE_TYPE>
2
5
10

$$$$
