91753606
  -OEChem-09192008163D

 40 41  0     1  0  0  0  0  0999 V2000
   -3.6042   -0.8456    1.0016 O   0  0  0  0  0  0  0  0  0  0  0  0
    2.6607   -0.3004    0.2348 C   0  0  0  0  0  0  0  0  0  0  0  0
    1.0982   -0.5228    0.3101 C   0  0  1  0  0  0  0  0  0  0  0  0
    0.9558    0.7642   -0.5618 C   0  0  2  0  0  0  0  0  0  0  0  0
    2.3389    1.2042   -0.0182 C   0  0  0  0  0  0  0  0  0  0  0  0
    0.5358   -1.8182   -0.2767 C   0  0  0  0  0  0  0  0  0  0  0  0
    3.3747   -0.5558    1.5617 C   0  0  0  0  0  0  0  0  0  0  0  0
    3.4140   -0.9637   -0.9213 C   0  0  0  0  0  0  0  0  0  0  0  0
   -0.1673    1.7174   -0.3128 C   0  0  0  0  0  0  0  0  0  0  0  0
   -0.9660   -1.9894   -0.0089 C   0  0  0  0  0  0  0  0  0  0  0  0
   -0.8581    1.8130    1.0211 C   0  0  0  0  0  0  0  0  0  0  0  0
   -1.7976    0.6749    1.4491 C   0  0  0  0  0  0  0  0  0  0  0  0
   -1.8565   -0.9129   -0.5921 C   0  0  0  0  0  0  0  0  0  0  0  0
   -2.6291   -0.0176    0.3562 C   0  0  1  0  0  0  0  0  0  0  0  0
   -0.4993    2.5439   -1.3199 C   0  0  0  0  0  0  0  0  0  0  0  0
   -2.0001   -0.7912   -1.9228 C   0  0  0  0  0  0  0  0  0  0  0  0
    0.7645   -0.4063    1.3491 H   0  0  0  0  0  0  0  0  0  0  0  0
    1.0138    0.5143   -1.6334 H   0  0  0  0  0  0  0  0  0  0  0  0
    2.9820    1.7171   -0.7405 H   0  0  0  0  0  0  0  0  0  0  0  0
    2.2970    1.8155    0.8923 H   0  0  0  0  0  0  0  0  0  0  0  0
    1.0534   -2.6688    0.1843 H   0  0  0  0  0  0  0  0  0  0  0  0
    0.7356   -1.8802   -1.3528 H   0  0  0  0  0  0  0  0  0  0  0  0
    2.9339   -0.7814   -1.8879 H   0  0  0  0  0  0  0  0  0  0  0  0
    4.4378   -0.5791   -0.9876 H   0  0  0  0  0  0  0  0  0  0  0  0
    4.4049   -0.1849    1.5294 H   0  0  0  0  0  0  0  0  0  0  0  0
    3.4727   -2.0479   -0.7777 H   0  0  0  0  0  0  0  0  0  0  0  0
    3.4058   -1.6274    1.7860 H   0  0  0  0  0  0  0  0  0  0  0  0
    2.8704   -0.0565    2.3962 H   0  0  0  0  0  0  0  0  0  0  0  0
   -1.1323   -2.0768    1.0710 H   0  0  0  0  0  0  0  0  0  0  0  0
   -1.2814   -2.9574   -0.4215 H   0  0  0  0  0  0  0  0  0  0  0  0
   -0.1015    1.9536    1.8039 H   0  0  0  0  0  0  0  0  0  0  0  0
   -1.4509    2.7385    1.0447 H   0  0  0  0  0  0  0  0  0  0  0  0
   -1.2412   -0.0702    2.0278 H   0  0  0  0  0  0  0  0  0  0  0  0
   -2.4903    1.0925    2.1944 H   0  0  0  0  0  0  0  0  0  0  0  0
   -3.1866    0.7446   -0.2019 H   0  0  0  0  0  0  0  0  0  0  0  0
    0.0058    2.5092   -2.2798 H   0  0  0  0  0  0  0  0  0  0  0  0
   -1.2901    3.2787   -1.2093 H   0  0  0  0  0  0  0  0  0  0  0  0
   -2.6513   -0.0395   -2.3561 H   0  0  0  0  0  0  0  0  0  0  0  0
   -1.4695   -1.4435   -2.6084 H   0  0  0  0  0  0  0  0  0  0  0  0
   -4.1733   -0.2665    1.5370 H   0  0  0  0  0  0  0  0  0  0  0  0
  1 14  1  0  0  0  0
  1 40  1  0  0  0  0
  2  3  1  0  0  0  0
  2  5  1  0  0  0  0
  2  7  1  0  0  0  0
  2  8  1  0  0  0  0
  3  4  1  0  0  0  0
  3  6  1  0  0  0  0
  3 17  1  0  0  0  0
  4  5  1  0  0  0  0
  4  9  1  0  0  0  0
  4 18  1  0  0  0  0
  5 19  1  0  0  0  0
  5 20  1  0  0  0  0
  6 10  1  0  0  0  0
  6 21  1  0  0  0  0
  6 22  1  0  0  0  0
  7 25  1  0  0  0  0
  7 27  1  0  0  0  0
  7 28  1  0  0  0  0
  8 23  1  0  0  0  0
  8 24  1  0  0  0  0
  8 26  1  0  0  0  0
  9 11  1  0  0  0  0
  9 15  2  0  0  0  0
 10 13  1  0  0  0  0
 10 29  1  0  0  0  0
 10 30  1  0  0  0  0
 11 12  1  0  0  0  0
 11 31  1  0  0  0  0
 11 32  1  0  0  0  0
 12 14  1  0  0  0  0
 12 33  1  0  0  0  0
 12 34  1  0  0  0  0
 13 14  1  0  0  0  0
 13 16  2  0  0  0  0
 14 35  1  0  0  0  0
 15 36  1  0  0  0  0
 15 37  1  0  0  0  0
 16 38  1  0  0  0  0
 16 39  1  0  0  0  0
M  END
> <PUBCHEM_COMPOUND_CID>
91753606

> <PUBCHEM_CONFORMER_RMSD>
0.6

> <PUBCHEM_CONFORMER_DIVERSEORDER>
1
5
10
2
7
6
11
8
4
3
9

> <PUBCHEM_MMFF94_PARTIAL_CHARGES>
14
1 -0.68
10 0.14
11 0.14
13 -0.28
14 0.42
15 -0.3
16 -0.3
36 0.15
37 0.15
38 0.15
39 0.15
4 0.12
40 0.4
9 -0.25

> <PUBCHEM_EFFECTIVE_ROTOR_COUNT>
1.4

> <PUBCHEM_PHARMACOPHORE_FEATURES>
4
1 1 acceptor
1 1 donor
3 2 7 8 hydrophobe
4 2 3 4 5 rings

> <PUBCHEM_HEAVY_ATOM_COUNT>
16

> <PUBCHEM_ATOM_DEF_STEREO_COUNT>
2

> <PUBCHEM_ATOM_UDEF_STEREO_COUNT>
1

> <PUBCHEM_BOND_DEF_STEREO_COUNT>
0

> <PUBCHEM_BOND_UDEF_STEREO_COUNT>
0

> <PUBCHEM_ISOTOPIC_ATOM_COUNT>
0

> <PUBCHEM_COMPONENT_COUNT>
1

> <PUBCHEM_CACTVS_TAUTO_COUNT>
1

> <PUBCHEM_CONFORMER_ID>
05780C8600000001

> <PUBCHEM_MMFF94_ENERGY>
39.3658

> <PUBCHEM_FEATURE_SELFOVERLAP>
20.297

> <PUBCHEM_SHAPE_FINGERPRINT>
10353120 184 18261399931465810702
104564 63 18336827472581450437
11086676 242 18409167710069702384
11132069 177 18202273702256110690
11578080 2 17984954176965789297
12138202 97 17462282426392268932
12382932 28 18270959154113589682
12423570 1 18192439575784001320
13140716 1 18266454485335106074
13172582 1 18411135870032273306
14614273 12 18267573615987926276
14617773 55 18060419157199895944
14761567 1 17333085824667489295
14817 1 17203342116924046937
15375462 478 18272942634788897587
15775835 57 17774452581100624283
15852999 172 17468456141406566196
15881359 60 18338505353263973765
16945 1 18131071536643543310
20361792 2 18260828223799714212
22112679 90 17631174267702924669
2334 1 18122058981833921414
23402539 116 18201142334661156774
23419403 2 16551091010115712289
2748010 2 18265611181275153190
3286 77 17677051368918368139
53812654 25 18059579139117004993
63268167 104 18263917920198412244
81228 2 18340760473113700664

> <PUBCHEM_SHAPE_MULTIPOLES>
323.4
4.86
2.27
1.48
1.86
0.71
-0.08
-1.6
1.04
-0.53
-0.51
-0.38
0.13
-0.18

> <PUBCHEM_SHAPE_SELFOVERLAP>
655.315

> <PUBCHEM_SHAPE_VOLUME>
190.4

> <PUBCHEM_COORDINATE_TYPE>
2
5
10

$$$$
