247220
  -OEChem-09192009103D

 61 61  0     0  0  0  0  0  0999 V2000
   -6.2103   -1.8790   -0.0055 O   0  0  0  0  0  0  0  0  0  0  0  0
   -7.5687   -0.0104    0.0217 N   0  0  0  0  0  0  0  0  0  0  0  0
   -8.8293   -0.7379    0.0375 C   0  0  0  0  0  0  0  0  0  0  0  0
   -7.7959    1.4313    0.0339 C   0  0  0  0  0  0  0  0  0  0  0  0
   -9.8715    0.3142    0.3836 C   0  0  0  0  0  0  0  0  0  0  0  0
   -9.2881    1.5823   -0.2267 C   0  0  0  0  0  0  0  0  0  0  0  0
    1.2054   -0.4970   -0.0893 C   0  0  0  0  0  0  0  0  0  0  0  0
   -0.0688    0.3489   -0.0706 C   0  0  0  0  0  0  0  0  0  0  0  0
   -1.3205   -0.5298   -0.0992 C   0  0  0  0  0  0  0  0  0  0  0  0
    2.4567    0.3804   -0.0271 C   0  0  0  0  0  0  0  0  0  0  0  0
   -2.5950    0.3153   -0.0466 C   0  0  0  0  0  0  0  0  0  0  0  0
    3.7312   -0.4636   -0.0798 C   0  0  0  0  0  0  0  0  0  0  0  0
   -3.8468   -0.5675   -0.0419 C   0  0  0  0  0  0  0  0  0  0  0  0
   -5.1365    0.2469   -0.0204 C   0  0  0  0  0  0  0  0  0  0  0  0
    4.9822    0.4113    0.0159 C   0  0  0  0  0  0  0  0  0  0  0  0
   -6.3449   -0.6544    0.0011 C   0  0  0  0  0  0  0  0  0  0  0  0
    6.2560   -0.4354   -0.0033 C   0  0  0  0  0  0  0  0  0  0  0  0
    7.5078    0.4414    0.0590 C   0  0  0  0  0  0  0  0  0  0  0  0
    8.7828   -0.4037    0.0063 C   0  0  0  0  0  0  0  0  0  0  0  0
   10.0332    0.4781    0.0348 C   0  0  0  0  0  0  0  0  0  0  0  0
   11.3383   -0.3201    0.0085 C   0  0  0  0  0  0  0  0  0  0  0  0
   12.5827    0.5486    0.1082 C   0  0  0  0  0  0  0  0  0  0  0  0
   -8.7953   -1.5628    0.7552 H   0  0  0  0  0  0  0  0  0  0  0  0
   -8.9892   -1.1481   -0.9658 H   0  0  0  0  0  0  0  0  0  0  0  0
   -7.1878    1.9372   -0.7204 H   0  0  0  0  0  0  0  0  0  0  0  0
   -7.5219    1.8050    1.0264 H   0  0  0  0  0  0  0  0  0  0  0  0
   -9.9450    0.4271    1.4720 H   0  0  0  0  0  0  0  0  0  0  0  0
  -10.8638    0.0689   -0.0045 H   0  0  0  0  0  0  0  0  0  0  0  0
   -9.4813    1.5959   -1.3062 H   0  0  0  0  0  0  0  0  0  0  0  0
   -9.7013    2.4966    0.2077 H   0  0  0  0  0  0  0  0  0  0  0  0
    1.2013   -1.1891    0.7615 H   0  0  0  0  0  0  0  0  0  0  0  0
    1.2269   -1.1059   -1.0014 H   0  0  0  0  0  0  0  0  0  0  0  0
   -0.0746    1.0264   -0.9331 H   0  0  0  0  0  0  0  0  0  0  0  0
   -0.0802    0.9733    0.8312 H   0  0  0  0  0  0  0  0  0  0  0  0
    2.4522    1.0890   -0.8642 H   0  0  0  0  0  0  0  0  0  0  0  0
    2.4436    0.9714    0.8968 H   0  0  0  0  0  0  0  0  0  0  0  0
   -1.3206   -1.1411   -1.0098 H   0  0  0  0  0  0  0  0  0  0  0  0
   -1.3035   -1.2195    0.7535 H   0  0  0  0  0  0  0  0  0  0  0  0
   -2.5873    0.9416    0.8536 H   0  0  0  0  0  0  0  0  0  0  0  0
   -2.6245    0.9899   -0.9108 H   0  0  0  0  0  0  0  0  0  0  0  0
    3.7261   -1.1864    0.7451 H   0  0  0  0  0  0  0  0  0  0  0  0
    3.7541   -1.0386   -1.0135 H   0  0  0  0  0  0  0  0  0  0  0  0
   -3.8138   -1.2314    0.8316 H   0  0  0  0  0  0  0  0  0  0  0  0
   -3.8349   -1.2143   -0.9287 H   0  0  0  0  0  0  0  0  0  0  0  0
    4.9975    1.1201   -0.8209 H   0  0  0  0  0  0  0  0  0  0  0  0
    4.9498    1.0019    0.9395 H   0  0  0  0  0  0  0  0  0  0  0  0
   -5.1567    0.8899    0.8665 H   0  0  0  0  0  0  0  0  0  0  0  0
   -5.1800    0.8798   -0.9133 H   0  0  0  0  0  0  0  0  0  0  0  0
    6.2503   -1.1299    0.8455 H   0  0  0  0  0  0  0  0  0  0  0  0
    6.2785   -1.0417   -0.9170 H   0  0  0  0  0  0  0  0  0  0  0  0
    7.5023    1.1478   -0.7802 H   0  0  0  0  0  0  0  0  0  0  0  0
    7.4964    1.0347    0.9813 H   0  0  0  0  0  0  0  0  0  0  0  0
    8.7871   -1.0120   -0.9062 H   0  0  0  0  0  0  0  0  0  0  0  0
    8.8011   -1.0954    0.8571 H   0  0  0  0  0  0  0  0  0  0  0  0
   10.0152    1.1643   -0.8210 H   0  0  0  0  0  0  0  0  0  0  0  0
   10.0135    1.0996    0.9389 H   0  0  0  0  0  0  0  0  0  0  0  0
   11.3862   -0.9067   -0.9166 H   0  0  0  0  0  0  0  0  0  0  0  0
   11.3430   -1.0360    0.8390 H   0  0  0  0  0  0  0  0  0  0  0  0
   12.6321    1.2558   -0.7257 H   0  0  0  0  0  0  0  0  0  0  0  0
   13.4834   -0.0725    0.0830 H   0  0  0  0  0  0  0  0  0  0  0  0
   12.5871    1.1184    1.0428 H   0  0  0  0  0  0  0  0  0  0  0  0
  1 16  2  0  0  0  0
  2  3  1  0  0  0  0
  2  4  1  0  0  0  0
  2 16  1  0  0  0  0
  3  5  1  0  0  0  0
  3 23  1  0  0  0  0
  3 24  1  0  0  0  0
  4  6  1  0  0  0  0
  4 25  1  0  0  0  0
  4 26  1  0  0  0  0
  5  6  1  0  0  0  0
  5 27  1  0  0  0  0
  5 28  1  0  0  0  0
  6 29  1  0  0  0  0
  6 30  1  0  0  0  0
  7  8  1  0  0  0  0
  7 10  1  0  0  0  0
  7 31  1  0  0  0  0
  7 32  1  0  0  0  0
  8  9  1  0  0  0  0
  8 33  1  0  0  0  0
  8 34  1  0  0  0  0
  9 11  1  0  0  0  0
  9 37  1  0  0  0  0
  9 38  1  0  0  0  0
 10 12  1  0  0  0  0
 10 35  1  0  0  0  0
 10 36  1  0  0  0  0
 11 13  1  0  0  0  0
 11 39  1  0  0  0  0
 11 40  1  0  0  0  0
 12 15  1  0  0  0  0
 12 41  1  0  0  0  0
 12 42  1  0  0  0  0
 13 14  1  0  0  0  0
 13 43  1  0  0  0  0
 13 44  1  0  0  0  0
 14 16  1  0  0  0  0
 14 47  1  0  0  0  0
 14 48  1  0  0  0  0
 15 17  1  0  0  0  0
 15 45  1  0  0  0  0
 15 46  1  0  0  0  0
 17 18  1  0  0  0  0
 17 49  1  0  0  0  0
 17 50  1  0  0  0  0
 18 19  1  0  0  0  0
 18 51  1  0  0  0  0
 18 52  1  0  0  0  0
 19 20  1  0  0  0  0
 19 53  1  0  0  0  0
 19 54  1  0  0  0  0
 20 21  1  0  0  0  0
 20 55  1  0  0  0  0
 20 56  1  0  0  0  0
 21 22  1  0  0  0  0
 21 57  1  0  0  0  0
 21 58  1  0  0  0  0
 22 59  1  0  0  0  0
 22 60  1  0  0  0  0
 22 61  1  0  0  0  0
M  END
> <PUBCHEM_COMPOUND_CID>
247220

> <PUBCHEM_CONFORMER_RMSD>
1.6

> <PUBCHEM_CONFORMER_DIVERSEORDER>
1
27
9
41
40
21
11
19
42
10
38
35
20
47
36
6
28
26
24
32
5
37
48
50
18
46
39
34
25
15
3
52
29
33
51
4
23
31
43
30
8
22
49
7
13
44
2
17
12
16
14
45

> <PUBCHEM_MMFF94_PARTIAL_CHARGES>
6
1 -0.57
14 0.06
16 0.57
2 -0.66
3 0.3
4 0.3

> <PUBCHEM_EFFECTIVE_ROTOR_COUNT>
16

> <PUBCHEM_PHARMACOPHORE_FEATURES>
3
1 1 acceptor
1 22 hydrophobe
5 2 3 4 5 6 rings

> <PUBCHEM_HEAVY_ATOM_COUNT>
22

> <PUBCHEM_ATOM_DEF_STEREO_COUNT>
0

> <PUBCHEM_ATOM_UDEF_STEREO_COUNT>
0

> <PUBCHEM_BOND_DEF_STEREO_COUNT>
0

> <PUBCHEM_BOND_UDEF_STEREO_COUNT>
0

> <PUBCHEM_ISOTOPIC_ATOM_COUNT>
0

> <PUBCHEM_COMPONENT_COUNT>
1

> <PUBCHEM_CACTVS_TAUTO_COUNT>
1

> <PUBCHEM_CONFORMER_ID>
0003C5B400000001

> <PUBCHEM_MMFF94_ENERGY>
9.2545

> <PUBCHEM_FEATURE_SELFOVERLAP>
15.223

> <PUBCHEM_SHAPE_FINGERPRINT>
10674148 151 18259984889812329386
11211813 89 17489587870192091355
11315181 36 17704075097772197827
14251764 46 15285357323813949430
14251920 1 18410573985151457643
14344974 52 8790875282058977158
14428016 248 17676213476100860852
15061470 23 18334856113253768188
15510794 2 18202286896348704230
155225 1 18412825790178118448
21362267 2 18115295796166655756
21362267 313 18263358097709124722
21792934 111 17918268780473467960
232437 2 18187081755097050090
23528940 14 18059293288888613903
23581129 1 18409449189051203590
3092352 35 17458628938906853139
33684 2 18335139795843149122
57676310 188 17313097562923057971
59521270 166 18408601444797264959
67123 10 18410575088968602212
8209 1 18410856563934769871
9663363 56 16845573114666759824

> <PUBCHEM_SHAPE_MULTIPOLES>
441.9
51.33
1.12
0.62
72.57
0.02
0
8.03
2.17
-2.39
-0.02
-0.03
0.01
0.15

> <PUBCHEM_SHAPE_SELFOVERLAP>
831.015

> <PUBCHEM_SHAPE_VOLUME>
276.1

> <PUBCHEM_COORDINATE_TYPE>
2
5
10

$$$$
