91721008
  -OEChem-09192005353D

 43 44  0     1  0  0  0  0  0999 V2000
   -1.6724   -0.5359   -0.5415 N   0  0  2  0  0  0  0  0  0  0  0  0
   -2.5661    0.1836    0.3771 C   0  0  1  0  0  0  0  0  0  0  0  0
   -1.8144    1.2887    1.1452 C   0  0  1  0  0  0  0  0  0  0  0  0
   -3.6808    0.6064   -0.5676 C   0  0  0  0  0  0  0  0  0  0  0  0
   -2.5429   -1.4141   -1.3181 C   0  0  0  0  0  0  0  0  0  0  0  0
   -3.8022   -0.5744   -1.5334 C   0  0  0  0  0  0  0  0  0  0  0  0
   -0.6461    0.6332    1.9206 C   0  0  0  0  0  0  0  0  0  0  0  0
   -0.6018   -1.2314    0.1740 C   0  0  0  0  0  0  0  0  0  0  0  0
    0.1862   -0.2574    1.0232 C   0  0  0  0  0  0  0  0  0  0  0  0
   -1.2987    2.4338    0.2641 C   0  0  0  0  0  0  0  0  0  0  0  0
    1.5232   -0.1711    0.9687 C   0  0  0  0  0  0  0  0  0  0  0  0
    2.3857   -1.0391    0.0889 C   0  0  1  0  0  0  0  0  0  0  0  0
    3.6761   -0.3154   -0.3426 C   0  0  0  0  0  0  0  0  0  0  0  0
    2.7358   -2.3281    0.8372 C   0  0  0  0  0  0  0  0  0  0  0  0
    3.4101    1.0025   -1.0775 C   0  0  0  0  0  0  0  0  0  0  0  0
    4.7082    1.7187   -1.4183 C   0  0  0  0  0  0  0  0  0  0  0  0
   -2.9893   -0.5192    1.1118 H   0  0  0  0  0  0  0  0  0  0  0  0
   -2.5020    1.7289    1.8791 H   0  0  0  0  0  0  0  0  0  0  0  0
   -3.4309    1.5061   -1.1393 H   0  0  0  0  0  0  0  0  0  0  0  0
   -4.6201    0.7957   -0.0385 H   0  0  0  0  0  0  0  0  0  0  0  0
   -2.0843   -1.7033   -2.2689 H   0  0  0  0  0  0  0  0  0  0  0  0
   -2.8013   -2.3264   -0.7660 H   0  0  0  0  0  0  0  0  0  0  0  0
   -4.6996   -1.1648   -1.3189 H   0  0  0  0  0  0  0  0  0  0  0  0
   -3.8730   -0.2144   -2.5657 H   0  0  0  0  0  0  0  0  0  0  0  0
   -1.0583    0.0122    2.7268 H   0  0  0  0  0  0  0  0  0  0  0  0
   -0.0343    1.4043    2.4041 H   0  0  0  0  0  0  0  0  0  0  0  0
   -0.0025   -1.7752   -0.5565 H   0  0  0  0  0  0  0  0  0  0  0  0
   -1.0230   -1.9941    0.8440 H   0  0  0  0  0  0  0  0  0  0  0  0
   -0.6734    2.0755   -0.5597 H   0  0  0  0  0  0  0  0  0  0  0  0
   -0.7007    3.1349    0.8567 H   0  0  0  0  0  0  0  0  0  0  0  0
   -2.1282    3.0059   -0.1621 H   0  0  0  0  0  0  0  0  0  0  0  0
    2.0315    0.5335    1.6235 H   0  0  0  0  0  0  0  0  0  0  0  0
    1.8762   -1.2995   -0.8433 H   0  0  0  0  0  0  0  0  0  0  0  0
    4.2631   -0.9774   -0.9922 H   0  0  0  0  0  0  0  0  0  0  0  0
    4.2977   -0.1142    0.5404 H   0  0  0  0  0  0  0  0  0  0  0  0
    3.3609   -2.9778    0.2149 H   0  0  0  0  0  0  0  0  0  0  0  0
    3.2864   -2.1198    1.7618 H   0  0  0  0  0  0  0  0  0  0  0  0
    1.8354   -2.8934    1.1017 H   0  0  0  0  0  0  0  0  0  0  0  0
    2.8001    1.6772   -0.4675 H   0  0  0  0  0  0  0  0  0  0  0  0
    2.8513    0.8044   -1.9995 H   0  0  0  0  0  0  0  0  0  0  0  0
    5.3418    1.0977   -2.0595 H   0  0  0  0  0  0  0  0  0  0  0  0
    4.4978    2.6517   -1.9504 H   0  0  0  0  0  0  0  0  0  0  0  0
    5.2709    1.9640   -0.5120 H   0  0  0  0  0  0  0  0  0  0  0  0
  1  2  1  0  0  0  0
  1  5  1  0  0  0  0
  1  8  1  0  0  0  0
  2  3  1  0  0  0  0
  2  4  1  0  0  0  0
  2 17  1  0  0  0  0
  3  7  1  0  0  0  0
  3 10  1  0  0  0  0
  3 18  1  0  0  0  0
  4  6  1  0  0  0  0
  4 19  1  0  0  0  0
  4 20  1  0  0  0  0
  5  6  1  0  0  0  0
  5 21  1  0  0  0  0
  5 22  1  0  0  0  0
  6 23  1  0  0  0  0
  6 24  1  0  0  0  0
  7  9  1  0  0  0  0
  7 25  1  0  0  0  0
  7 26  1  0  0  0  0
  8  9  1  0  0  0  0
  8 27  1  0  0  0  0
  8 28  1  0  0  0  0
  9 11  2  0  0  0  0
 10 29  1  0  0  0  0
 10 30  1  0  0  0  0
 10 31  1  0  0  0  0
 11 12  1  0  0  0  0
 11 32  1  0  0  0  0
 12 13  1  0  0  0  0
 12 14  1  0  0  0  0
 12 33  1  0  0  0  0
 13 15  1  0  0  0  0
 13 34  1  0  0  0  0
 13 35  1  0  0  0  0
 14 36  1  0  0  0  0
 14 37  1  0  0  0  0
 14 38  1  0  0  0  0
 15 16  1  0  0  0  0
 15 39  1  0  0  0  0
 15 40  1  0  0  0  0
 16 41  1  0  0  0  0
 16 42  1  0  0  0  0
 16 43  1  0  0  0  0
M  END
> <PUBCHEM_COMPOUND_CID>
91721008

> <PUBCHEM_CONFORMER_RMSD>
0.6

> <PUBCHEM_CONFORMER_DIVERSEORDER>
2
161
130
23
105
213
79
195
60
129
146
68
206
226
204
108
164
122
80
59
119
168
227
135
91
208
43
127
25
124
28
62
96
10
190
109
219
8
142
73
188
222
216
217
22
29
185
54
26
140
205
141
212
86
121
145
41
184
90
154
163
66
210
196
100
159
24
192
220
128
30
143
17
40
215
171
97
64
199
218
6
189
101
95
63
16
197
1
35
166
160
191
125
13
58
173
12
126
106
214
70
203
117
165
186
116
115
88
61
176
178
169
179
151
72
65
74
84
107
21
187
18
99
172
152
81
180
83
202
224
94
15
221
223
157
87
137
207
45
182
156
89
11
55
82
102
93
104
42
38
138
9
111
193
211
113
14
39
201
158
183
53
67
194
209
85
132
5
170
198
103
51
175
110
200
32
92
76
31
144
36
153
112
69
3
155
147
19
71
37
34
114
56
48
133
20
52
33
225
123
139
120
181
49
131
75
149
77
150
148
57
174
78
7
50
44
134
118
27
47
46
4
162
98
136
177
167

> <PUBCHEM_MMFF94_PARTIAL_CHARGES>
9
1 -0.81
11 -0.29
12 0.14
2 0.27
32 0.15
5 0.27
7 0.14
8 0.41
9 -0.28

> <PUBCHEM_EFFECTIVE_ROTOR_COUNT>
4.2

> <PUBCHEM_PHARMACOPHORE_FEATURES>
6
1 1 cation
1 14 hydrophobe
1 16 hydrophobe
4 11 12 13 15 hydrophobe
5 1 2 4 5 6 rings
6 1 2 3 7 8 9 rings

> <PUBCHEM_HEAVY_ATOM_COUNT>
16

> <PUBCHEM_ATOM_DEF_STEREO_COUNT>
0

> <PUBCHEM_ATOM_UDEF_STEREO_COUNT>
3

> <PUBCHEM_BOND_DEF_STEREO_COUNT>
1

> <PUBCHEM_BOND_UDEF_STEREO_COUNT>
0

> <PUBCHEM_ISOTOPIC_ATOM_COUNT>
0

> <PUBCHEM_COMPONENT_COUNT>
1

> <PUBCHEM_CACTVS_TAUTO_COUNT>
1

> <PUBCHEM_CONFORMER_ID>
05778D3000000002

> <PUBCHEM_MMFF94_ENERGY>
21.8585

> <PUBCHEM_FEATURE_SELFOVERLAP>
30.559

> <PUBCHEM_SHAPE_FINGERPRINT>
10465860 71 17561083639341822936
11127187 94 17561359574190491013
11206711 2 17988638567088039371
11543360 7 18040707087268147455
12202030 40 15195289707426887470
12670546 177 17703517674714082316
13296908 3 15410888535743998114
13571099 52 15213009440861859427
13764800 53 13840557206906755591
14250199 8 18114185172987731782
14386348 63 15554726664159071094
15342816 4 17487873774451063519
16752209 62 17703784765470648655
16945 1 17632571609490263603
17846911 113 13479131276869225287
17959699 21 17968087578300749821
18186145 218 16443345312833533715
18219364 16 16805616909637796356
192875 21 18261384560210563312
19765921 60 17531238517366271024
19766037 51 16558754545936543980
20645476 183 18411416241350407079
20871999 31 17346610681025175948
212916 134 13695858238381148925
21486144 27 17095817533243055882
21499 59 18115034107907948046
21639500 275 18040439897447238472
22620623 9 16845567583324181061
22926399 37 18114184159048649333
23382010 3 18261384602474336763
23500284 214 15574712512623415884
23557571 272 16917061157876961328
23559900 14 17131261351896273074
23598291 2 18195251010073816430
27216 239 15141251012797470644
2748010 2 17700100439824674603
3082319 5 18413107234462336522
312423 11 18340775831906494162
474 4 17894918464154126508
495365 180 15647601281670271386
57096353 35 18343299284106404718
59027123 10 18339371751621325740
603831 33 18342455937334415630
6049 1 14548738370260642626
633830 44 17822572681799460833
7615 1 18339357453543263650
81228 2 15122388676143220218

> <PUBCHEM_SHAPE_MULTIPOLES>
324.29
7.7
2.08
1.62
4.64
0.25
0.04
1.32
-4.56
0.98
0.01
-0.25
0.17
-2.04

> <PUBCHEM_SHAPE_SELFOVERLAP>
646.262

> <PUBCHEM_SHAPE_VOLUME>
193.3

> <PUBCHEM_COORDINATE_TYPE>
2
5
10

$$$$
