131751424
  -OEChem-09192006083D

 52 53  0     0  0  0  0  0  0999 V2000
   -5.6647    1.3186   -0.9686 O   0  0  0  0  0  0  0  0  0  0  0  0
   -4.7480    3.4822   -0.4339 O   0  0  0  0  0  0  0  0  0  0  0  0
    5.0037   -1.2147   -0.1607 O   0  0  0  0  0  0  0  0  0  0  0  0
    4.4469    0.9135   -0.9078 N   0  0  0  0  0  0  0  0  0  0  0  0
    5.9484    2.1241    0.6424 C   0  0  0  0  0  0  0  0  0  0  0  0
    5.7547    1.5069   -0.7472 C   0  0  0  0  0  0  0  0  0  0  0  0
   -1.5622   -4.5682    0.4780 C   0  0  0  0  0  0  0  0  0  0  0  0
    4.9087    3.2200    0.8788 C   0  0  0  0  0  0  0  0  0  0  0  0
    7.3576    2.6957    0.8147 C   0  0  0  0  0  0  0  0  0  0  0  0
   -1.6034   -3.4870    1.5635 C   0  0  0  0  0  0  0  0  0  0  0  0
   -0.9038   -4.0994   -0.8237 C   0  0  0  0  0  0  0  0  0  0  0  0
   -2.3906   -2.2712    1.1615 C   0  0  0  0  0  0  0  0  0  0  0  0
   -2.5898    0.1696    0.6707 C   0  0  0  0  0  0  0  0  0  0  0  0
   -4.4695    1.2287   -0.3241 C   0  0  0  0  0  0  0  0  0  0  0  0
   -1.8516   -1.0472    1.0474 C   0  0  0  0  0  0  0  0  0  0  0  0
   -3.9460    2.4641   -0.0188 C   0  0  0  0  0  0  0  0  0  0  0  0
   -3.8147    0.0604    0.0079 C   0  0  0  0  0  0  0  0  0  0  0  0
    0.5144   -3.6630   -0.5868 C   0  0  0  0  0  0  0  0  0  0  0  0
   -2.0549    1.4319    0.9825 C   0  0  0  0  0  0  0  0  0  0  0  0
   -2.7387    2.5995    0.6352 C   0  0  0  0  0  0  0  0  0  0  0  0
    4.1865   -0.4101   -0.5962 C   0  0  0  0  0  0  0  0  0  0  0  0
   -5.8350    2.7493   -1.0344 C   0  0  0  0  0  0  0  0  0  0  0  0
    0.9599   -2.4211   -0.8290 C   0  0  0  0  0  0  0  0  0  0  0  0
    2.7632   -0.7694   -0.8486 C   0  0  0  0  0  0  0  0  0  0  0  0
    2.3290   -2.0133   -0.6030 C   0  0  0  0  0  0  0  0  0  0  0  0
    5.8009    1.3465    1.4027 H   0  0  0  0  0  0  0  0  0  0  0  0
    6.5151    0.7378   -0.9253 H   0  0  0  0  0  0  0  0  0  0  0  0
    5.8615    2.2672   -1.5292 H   0  0  0  0  0  0  0  0  0  0  0  0
   -2.5824   -4.9051    0.2550 H   0  0  0  0  0  0  0  0  0  0  0  0
   -1.0248   -5.4411    0.8701 H   0  0  0  0  0  0  0  0  0  0  0  0
    8.1109    1.9135    0.6740 H   0  0  0  0  0  0  0  0  0  0  0  0
    7.4896    3.1118    1.8190 H   0  0  0  0  0  0  0  0  0  0  0  0
    3.8902    2.8186    0.8667 H   0  0  0  0  0  0  0  0  0  0  0  0
    5.0589    3.6894    1.8573 H   0  0  0  0  0  0  0  0  0  0  0  0
    4.9753    4.0045    0.1172 H   0  0  0  0  0  0  0  0  0  0  0  0
    7.5548    3.4910    0.0880 H   0  0  0  0  0  0  0  0  0  0  0  0
   -2.0802   -3.9125    2.4557 H   0  0  0  0  0  0  0  0  0  0  0  0
   -0.5872   -3.2153    1.8727 H   0  0  0  0  0  0  0  0  0  0  0  0
   -0.8943   -4.9322   -1.5369 H   0  0  0  0  0  0  0  0  0  0  0  0
   -1.4953   -3.3018   -1.2879 H   0  0  0  0  0  0  0  0  0  0  0  0
    3.7030    1.5073   -1.2631 H   0  0  0  0  0  0  0  0  0  0  0  0
   -3.4482   -2.4459    0.9885 H   0  0  0  0  0  0  0  0  0  0  0  0
   -0.7949   -0.9094    1.2635 H   0  0  0  0  0  0  0  0  0  0  0  0
   -4.2591   -0.8880   -0.2717 H   0  0  0  0  0  0  0  0  0  0  0  0
    1.1971   -4.4191   -0.2046 H   0  0  0  0  0  0  0  0  0  0  0  0
   -1.1015    1.5173    1.4994 H   0  0  0  0  0  0  0  0  0  0  0  0
   -2.3298    3.5747    0.8738 H   0  0  0  0  0  0  0  0  0  0  0  0
   -6.7650    3.0160   -0.5192 H   0  0  0  0  0  0  0  0  0  0  0  0
   -5.9185    3.0447   -2.0866 H   0  0  0  0  0  0  0  0  0  0  0  0
    0.2752   -1.6726   -1.2195 H   0  0  0  0  0  0  0  0  0  0  0  0
    2.0965   -0.0034   -1.2326 H   0  0  0  0  0  0  0  0  0  0  0  0
    3.0077   -2.7700   -0.2178 H   0  0  0  0  0  0  0  0  0  0  0  0
  1 14  1  0  0  0  0
  1 22  1  0  0  0  0
  2 16  1  0  0  0  0
  2 22  1  0  0  0  0
  3 21  2  0  0  0  0
  4  6  1  0  0  0  0
  4 21  1  0  0  0  0
  4 41  1  0  0  0  0
  5  6  1  0  0  0  0
  5  8  1  0  0  0  0
  5  9  1  0  0  0  0
  5 26  1  0  0  0  0
  6 27  1  0  0  0  0
  6 28  1  0  0  0  0
  7 10  1  0  0  0  0
  7 11  1  0  0  0  0
  7 29  1  0  0  0  0
  7 30  1  0  0  0  0
  8 33  1  0  0  0  0
  8 34  1  0  0  0  0
  8 35  1  0  0  0  0
  9 31  1  0  0  0  0
  9 32  1  0  0  0  0
  9 36  1  0  0  0  0
 10 12  1  0  0  0  0
 10 37  1  0  0  0  0
 10 38  1  0  0  0  0
 11 18  1  0  0  0  0
 11 39  1  0  0  0  0
 11 40  1  0  0  0  0
 12 15  2  0  0  0  0
 12 42  1  0  0  0  0
 13 15  1  0  0  0  0
 13 17  2  0  0  0  0
 13 19  1  0  0  0  0
 14 16  2  0  0  0  0
 14 17  1  0  0  0  0
 15 43  1  0  0  0  0
 16 20  1  0  0  0  0
 17 44  1  0  0  0  0
 18 23  2  0  0  0  0
 18 45  1  0  0  0  0
 19 20  2  0  0  0  0
 19 46  1  0  0  0  0
 20 47  1  0  0  0  0
 21 24  1  0  0  0  0
 22 48  1  0  0  0  0
 22 49  1  0  0  0  0
 23 25  1  0  0  0  0
 23 50  1  0  0  0  0
 24 25  2  0  0  0  0
 24 51  1  0  0  0  0
 25 52  1  0  0  0  0
M  END
> <PUBCHEM_COMPOUND_CID>
131751424

> <PUBCHEM_CONFORMER_RMSD>
1.2

> <PUBCHEM_CONFORMER_DIVERSEORDER>
1
18
16
38
66
36
64
29
33
65
6
69
62
27
42
10
39
55
49
41
47
50
5
43
2
70
11
34
61
60
14
12
68
58
8
45
54
26
24
56
46
3
20
25
40
21
28
19
31
48
13
57
52
9
35
37
7
53
51
44
30
15
63
17
22
4
59
32
67
23

> <PUBCHEM_MMFF94_PARTIAL_CHARGES>
31
1 -0.36
10 0.14
11 0.14
12 -0.29
13 0.03
14 0.08
15 -0.18
16 0.08
17 -0.15
18 -0.29
19 -0.15
2 -0.36
20 -0.15
21 0.62
22 0.56
23 -0.15
24 -0.14
25 -0.15
3 -0.57
4 -0.73
41 0.37
42 0.15
43 0.15
44 0.15
45 0.15
46 0.15
47 0.15
50 0.15
51 0.15
52 0.15
6 0.3

> <PUBCHEM_EFFECTIVE_ROTOR_COUNT>
10.6

> <PUBCHEM_PHARMACOPHORE_FEATURES>
8
1 1 acceptor
1 2 acceptor
1 3 acceptor
1 4 donor
3 5 8 9 hydrophobe
5 1 2 14 16 22 rings
5 7 10 11 12 18 hydrophobe
6 13 14 16 17 19 20 rings

> <PUBCHEM_HEAVY_ATOM_COUNT>
25

> <PUBCHEM_ATOM_DEF_STEREO_COUNT>
0

> <PUBCHEM_ATOM_UDEF_STEREO_COUNT>
0

> <PUBCHEM_BOND_DEF_STEREO_COUNT>
3

> <PUBCHEM_BOND_UDEF_STEREO_COUNT>
0

> <PUBCHEM_ISOTOPIC_ATOM_COUNT>
0

> <PUBCHEM_COMPONENT_COUNT>
1

> <PUBCHEM_CACTVS_TAUTO_COUNT>
5

> <PUBCHEM_CONFORMER_ID>
07DA5E0000000001

> <PUBCHEM_MMFF94_ENERGY>
38.5638

> <PUBCHEM_FEATURE_SELFOVERLAP>
40.751

> <PUBCHEM_SHAPE_FINGERPRINT>
10675989 125 18051133583951189209
10838868 49 15285622275466534589
10864689 126 18412269402924735004
10904742 38 18410289220430537904
11135609 187 18340768148753736417
11211813 15 18262220214621973989
12107183 9 18189326893422475066
16067690 210 17614551967157990818
23522609 53 17415281621301804161
23559900 14 18124036719473420387
2838139 119 18410010996575642070
3117164 225 18409162196128948450
354706 109 18268406079783195432
376196 1 18263929834770754283
4371632 12 18267877090319942363
437795 96 18340484594654223360
508706 21 18127967727467477578
56633871 153 7997673295439947657
57527585 21 16629985273002931218
59521099 67 17111837177468637615
6371009 1 18197210348399960696
7288768 16 18260828202541610439
9981440 41 18334866000020655083

> <PUBCHEM_SHAPE_MULTIPOLES>
491.9
16.01
6.45
1.23
22.16
4.53
-0.17
-22.59
1.05
-3.85
-0.28
-0.21
0.28
3.34

> <PUBCHEM_SHAPE_SELFOVERLAP>
1007.394

> <PUBCHEM_SHAPE_VOLUME>
283.5

> <PUBCHEM_COORDINATE_TYPE>
2
5
10

$$$$
