11141599
  -OEChem-09192009013D

 48 50  0     0  0  0  0  0  0999 V2000
    4.7538   -1.9875   -0.1702 O   0  0  0  0  0  0  0  0  0  0  0  0
   -6.4403    0.7405   -1.7205 O   0  0  0  0  0  0  0  0  0  0  0  0
   -7.6527    1.0595    0.3376 O   0  0  0  0  0  0  0  0  0  0  0  0
    5.8020    0.0747   -0.3847 N   0  0  0  0  0  0  0  0  0  0  0  0
    8.0023    1.6913    0.5675 C   0  0  0  0  0  0  0  0  0  0  0  0
    6.5776    2.2401    0.5031 C   0  0  0  0  0  0  0  0  0  0  0  0
    7.9954    0.1727    0.7341 C   0  0  0  0  0  0  0  0  0  0  0  0
    5.7571    1.5304   -0.5717 C   0  0  0  0  0  0  0  0  0  0  0  0
    7.1495   -0.4974   -0.3452 C   0  0  0  0  0  0  0  0  0  0  0  0
    4.6899   -0.7613   -0.2893 C   0  0  0  0  0  0  0  0  0  0  0  0
    3.3380   -0.0950   -0.3352 C   0  0  0  0  0  0  0  0  0  0  0  0
    2.2307   -1.1301   -0.2207 C   0  0  0  0  0  0  0  0  0  0  0  0
    0.8319   -0.5145   -0.3301 C   0  0  0  0  0  0  0  0  0  0  0  0
   -0.2523   -1.5940   -0.2902 C   0  0  0  0  0  0  0  0  0  0  0  0
   -1.6258   -0.9895   -0.3680 C   0  0  0  0  0  0  0  0  0  0  0  0
   -2.5391   -1.1047    0.6087 C   0  0  0  0  0  0  0  0  0  0  0  0
   -3.8962   -0.5342    0.5738 C   0  0  0  0  0  0  0  0  0  0  0  0
   -4.4531   -0.1898   -0.6505 C   0  0  0  0  0  0  0  0  0  0  0  0
   -5.7265    0.3411   -0.6327 C   0  0  0  0  0  0  0  0  0  0  0  0
   -6.4189    0.5234    0.5425 C   0  0  0  0  0  0  0  0  0  0  0  0
   -4.5875   -0.3547    1.7749 C   0  0  0  0  0  0  0  0  0  0  0  0
   -5.8760    0.1849    1.7649 C   0  0  0  0  0  0  0  0  0  0  0  0
   -7.6599    1.1940   -1.0981 C   0  0  0  0  0  0  0  0  0  0  0  0
    8.5385    1.9563   -0.3520 H   0  0  0  0  0  0  0  0  0  0  0  0
    8.5422    2.1548    1.4006 H   0  0  0  0  0  0  0  0  0  0  0  0
    6.6025    3.3169    0.3026 H   0  0  0  0  0  0  0  0  0  0  0  0
    6.0951    2.1019    1.4787 H   0  0  0  0  0  0  0  0  0  0  0  0
    7.5898   -0.0782    1.7222 H   0  0  0  0  0  0  0  0  0  0  0  0
    9.0207   -0.2113    0.6968 H   0  0  0  0  0  0  0  0  0  0  0  0
    4.7368    1.9169   -0.5598 H   0  0  0  0  0  0  0  0  0  0  0  0
    6.1699    1.7400   -1.5658 H   0  0  0  0  0  0  0  0  0  0  0  0
    7.5983   -0.3451   -1.3340 H   0  0  0  0  0  0  0  0  0  0  0  0
    7.1105   -1.5764   -0.1663 H   0  0  0  0  0  0  0  0  0  0  0  0
    3.2603    0.6184    0.4924 H   0  0  0  0  0  0  0  0  0  0  0  0
    3.2399    0.4416   -1.2853 H   0  0  0  0  0  0  0  0  0  0  0  0
    2.3155   -1.6630    0.7353 H   0  0  0  0  0  0  0  0  0  0  0  0
    2.3458   -1.8833   -1.0113 H   0  0  0  0  0  0  0  0  0  0  0  0
    0.6833    0.1975    0.4916 H   0  0  0  0  0  0  0  0  0  0  0  0
    0.7540    0.0538   -1.2656 H   0  0  0  0  0  0  0  0  0  0  0  0
   -0.1425   -2.1931    0.6220 H   0  0  0  0  0  0  0  0  0  0  0  0
   -0.1261   -2.2793   -1.1369 H   0  0  0  0  0  0  0  0  0  0  0  0
   -1.8324   -0.4350   -1.2784 H   0  0  0  0  0  0  0  0  0  0  0  0
   -2.2797   -1.6509    1.5130 H   0  0  0  0  0  0  0  0  0  0  0  0
   -3.9567   -0.3323   -1.6028 H   0  0  0  0  0  0  0  0  0  0  0  0
   -4.1392   -0.6272    2.7272 H   0  0  0  0  0  0  0  0  0  0  0  0
   -6.4245    0.3307    2.6885 H   0  0  0  0  0  0  0  0  0  0  0  0
   -7.8113    2.2497   -1.3510 H   0  0  0  0  0  0  0  0  0  0  0  0
   -8.4968    0.6120   -1.5011 H   0  0  0  0  0  0  0  0  0  0  0  0
  1 10  2  0  0  0  0
  2 19  1  0  0  0  0
  2 23  1  0  0  0  0
  3 20  1  0  0  0  0
  3 23  1  0  0  0  0
  4  8  1  0  0  0  0
  4  9  1  0  0  0  0
  4 10  1  0  0  0  0
  5  6  1  0  0  0  0
  5  7  1  0  0  0  0
  5 24  1  0  0  0  0
  5 25  1  0  0  0  0
  6  8  1  0  0  0  0
  6 26  1  0  0  0  0
  6 27  1  0  0  0  0
  7  9  1  0  0  0  0
  7 28  1  0  0  0  0
  7 29  1  0  0  0  0
  8 30  1  0  0  0  0
  8 31  1  0  0  0  0
  9 32  1  0  0  0  0
  9 33  1  0  0  0  0
 10 11  1  0  0  0  0
 11 12  1  0  0  0  0
 11 34  1  0  0  0  0
 11 35  1  0  0  0  0
 12 13  1  0  0  0  0
 12 36  1  0  0  0  0
 12 37  1  0  0  0  0
 13 14  1  0  0  0  0
 13 38  1  0  0  0  0
 13 39  1  0  0  0  0
 14 15  1  0  0  0  0
 14 40  1  0  0  0  0
 14 41  1  0  0  0  0
 15 16  2  0  0  0  0
 15 42  1  0  0  0  0
 16 17  1  0  0  0  0
 16 43  1  0  0  0  0
 17 18  2  0  0  0  0
 17 21  1  0  0  0  0
 18 19  1  0  0  0  0
 18 44  1  0  0  0  0
 19 20  2  0  0  0  0
 20 22  1  0  0  0  0
 21 22  2  0  0  0  0
 21 45  1  0  0  0  0
 22 46  1  0  0  0  0
 23 47  1  0  0  0  0
 23 48  1  0  0  0  0
M  END
> <PUBCHEM_COMPOUND_CID>
11141599

> <PUBCHEM_CONFORMER_RMSD>
0.8

> <PUBCHEM_CONFORMER_DIVERSEORDER>
2
160
401
182
103
82
203
78
375
197
410
16
210
18
394
297
52
406
7
325
347
238
69
231
294
390
23
293
45
37
24
194
89
33
318
383
368
331
312
51
361
279
411
35
280
28
412
97
289
40
123
317
290
363
190
11
364
8
130
374
315
20
65
391
295
313
170
237
249
399
110
257
34
286
140
304
96
62
349
93
214
302
126
359
22
395
86
58
258
27
255
398
143
232
90
19
179
242
303
181
283
236
387
84
192
159
161
13
273
128
135
61
66
339
404
252
26
334
173
193
134
5
68
230
278
6
55
191
356
144
202
168
226
358
344
337
254
151
21
386
264
59
260
50
354
79
114
49
150
281
105
111
1
101
141
199
176
381
162
169
185
153
80
100
408
131
311
253
107
329
43
362
72
119
109
187
32
163
372
39
138
247
224
186
99
221
340
256
342
388
269
15
167
301
346
127
306
178
392
115
305
262
333
263
276
198
12
219
206
44
155
95
116
189
307
271
106
108
166
10
64
384
67
353
332
270
165
112
299
98
85
70
129
172
92
378
367
365
54
351
267
377
220
285
245
343
291
124
233
14
200
73
322
376
208
57
397
275
407
174
227
201
152
352
216
30
246
3
88
380
274
164
94
212
47
240
91
120
177
180
225
266
48
320
239
330
288
229
157
389
149
282
360
46
265
326
348
248
228
25
382
184
345
122
104
9
357
250
125
36
405
53
133
371
196
139
222
211
29
396
323
287
309
379
310
218
87
259
207
183
277
243
370
136
60
324
355
261
402
209
195
292
75
300
156
338
171
102
251
321
147
83
81
385
319
409
63
235
31
350
38
118
328
17
284
74
175
268
403
142
205
327
393
113
188
213
121
272
42
154
366
223
146
314
373
241
148
56
217
132
137
71
76
335
117
204
158
234
369
41
308
77
145
400
244
336
296
341
4
298
316
215

> <PUBCHEM_MMFF94_PARTIAL_CHARGES>
23
1 -0.57
10 0.57
11 0.06
14 0.14
15 -0.29
16 -0.18
17 0.03
18 -0.15
19 0.08
2 -0.36
20 0.08
21 -0.15
22 -0.15
23 0.56
3 -0.36
4 -0.66
42 0.15
43 0.15
44 0.15
45 0.15
46 0.15
8 0.3
9 0.3

> <PUBCHEM_EFFECTIVE_ROTOR_COUNT>
8.8

> <PUBCHEM_PHARMACOPHORE_FEATURES>
7
1 1 acceptor
1 2 acceptor
1 3 acceptor
5 11 12 13 14 15 hydrophobe
5 2 3 19 20 23 rings
6 17 18 19 20 21 22 rings
6 4 5 6 7 8 9 rings

> <PUBCHEM_HEAVY_ATOM_COUNT>
23

> <PUBCHEM_ATOM_DEF_STEREO_COUNT>
0

> <PUBCHEM_ATOM_UDEF_STEREO_COUNT>
0

> <PUBCHEM_BOND_DEF_STEREO_COUNT>
1

> <PUBCHEM_BOND_UDEF_STEREO_COUNT>
0

> <PUBCHEM_ISOTOPIC_ATOM_COUNT>
0

> <PUBCHEM_COMPONENT_COUNT>
1

> <PUBCHEM_CACTVS_TAUTO_COUNT>
1

> <PUBCHEM_CONFORMER_ID>
00AA01DF00000002

> <PUBCHEM_MMFF94_ENERGY>
40.2148

> <PUBCHEM_FEATURE_SELFOVERLAP>
35.678

> <PUBCHEM_SHAPE_FINGERPRINT>
10 15 17676489466857637956
10066227 112 18413107273074727352
10066227 49 12319471956776609876
10835480 77 18342740736758504602
11315181 36 17704071803189578419
12166972 35 8430315736618924382
125118 31 18186805790231376500
13668630 136 10952051151794711334
13673619 4 8646772183657299998
14251757 52 18409445886627671696
14251764 18 17418374696884299576
14598715 104 18041267812444561397
14729087 3 18260546714895664909
15183329 4 17132115740480339442
15348495 7 17241338000332115240
15352257 5 9295285045177539428
15461852 350 16702018703781328143
1577012 14 17060346188714449875
17093844 174 17894914036332923235
17134984 74 11383839260382179652
1818759 1 12107782987533709936
18335252 114 17917713505299198932
18643901 69 13254790253771070477
2026 5 10737820095523876928
20281389 69 18334576828103281758
21150785 3 15410895171579058206
21267235 1 8790887389181654086
21585482 111 18196933491173703960
22224240 67 18186519916622806418
22288116 15 16773508967210287151
23035841 295 13045945711158588458
23081809 10 16702028530155408582
23576562 1 16629387228824345256
246663 6 8070028878550637002
33532 11 8070032164295895320
397638 26 17603866723669077186
4093350 32 17385997339648520762
44880568 143 13542473055045355410
504843 32 18200876283218695911
5104073 3 17096072585881414504
5283384 27 18411134736329537007
5470011 282 11384115250337207834
6328613 192 18131634512625166592
636775 72 18187081699405751653
636775 8 12751233744500876605
68570916 9 16371867307695204350
9995097 26 12391507620099002892
999808 66 9727631718086599845

> <PUBCHEM_SHAPE_MULTIPOLES>
450.74
29.82
1.68
1.23
11.93
0.3
0.24
15.11
1
2.5
-0.04
-2.42
0.19
1.35

> <PUBCHEM_SHAPE_SELFOVERLAP>
940.854

> <PUBCHEM_SHAPE_VOLUME>
254.1

> <PUBCHEM_COORDINATE_TYPE>
2
5
10

$$$$
