54284936
  -OEChem-09192005533D

 52 51  0     0  0  0  0  0  0999 V2000
   -2.5618   -2.2794   -1.4043 O   0  0  0  0  0  0  0  0  0  0  0  0
   -0.8084   -3.6697   -1.8163 O   0  0  0  0  0  0  0  0  0  0  0  0
    2.4281   -0.6251    1.1649 C   0  0  0  0  0  0  0  0  0  0  0  0
    1.3610   -1.0971    2.1570 C   0  0  0  0  0  0  0  0  0  0  0  0
    2.7367    0.8705    1.2677 C   0  0  0  0  0  0  0  0  0  0  0  0
    0.9491   -2.5693    2.0479 C   0  0  0  0  0  0  0  0  0  0  0  0
    3.8688    1.2674    0.3136 C   0  0  0  0  0  0  0  0  0  0  0  0
    0.4252   -3.0206    0.6790 C   0  0  0  0  0  0  0  0  0  0  0  0
    3.5430    1.0115   -1.1624 C   0  0  0  0  0  0  0  0  0  0  0  0
   -0.8612   -2.3341    0.2210 C   0  0  0  0  0  0  0  0  0  0  0  0
    2.2976    1.7201   -1.6094 C   0  0  0  0  0  0  0  0  0  0  0  0
    1.1975    1.0920   -2.0499 C   0  0  0  0  0  0  0  0  0  0  0  0
   -3.0918    2.0579    1.2810 C   0  0  0  0  0  0  0  0  0  0  0  0
   -1.3630   -2.8429   -1.1077 C   0  0  0  0  0  0  0  0  0  0  0  0
   -3.2119    1.7321   -0.2124 C   0  0  0  0  0  0  0  0  0  0  0  0
   -0.0410    1.8133   -2.4939 C   0  0  0  0  0  0  0  0  0  0  0  0
   -1.8621    1.4715    1.9835 C   0  0  0  0  0  0  0  0  0  0  0  0
   -2.0178    2.1837   -1.0010 C   0  0  0  0  0  0  0  0  0  0  0  0
   -1.2338    1.3553   -1.7072 C   0  0  0  0  0  0  0  0  0  0  0  0
   -1.7542    1.8628    3.4488 C   0  0  0  0  0  0  0  0  0  0  0  0
    2.0808   -0.8536    0.1545 H   0  0  0  0  0  0  0  0  0  0  0  0
    3.3451   -1.2045    1.3277 H   0  0  0  0  0  0  0  0  0  0  0  0
    1.7258   -0.9187    3.1765 H   0  0  0  0  0  0  0  0  0  0  0  0
    0.4690   -0.4715    2.0428 H   0  0  0  0  0  0  0  0  0  0  0  0
    1.8332    1.4595    1.0747 H   0  0  0  0  0  0  0  0  0  0  0  0
    3.0482    1.1047    2.2930 H   0  0  0  0  0  0  0  0  0  0  0  0
    1.8162   -3.1910    2.3035 H   0  0  0  0  0  0  0  0  0  0  0  0
    0.1855   -2.7762    2.8079 H   0  0  0  0  0  0  0  0  0  0  0  0
    4.7831    0.7220    0.5771 H   0  0  0  0  0  0  0  0  0  0  0  0
    4.0883    2.3329    0.4581 H   0  0  0  0  0  0  0  0  0  0  0  0
    1.2047   -2.8959   -0.0817 H   0  0  0  0  0  0  0  0  0  0  0  0
    0.2416   -4.1021    0.7311 H   0  0  0  0  0  0  0  0  0  0  0  0
    3.4842   -0.0642   -1.3626 H   0  0  0  0  0  0  0  0  0  0  0  0
    4.3784    1.3802   -1.7706 H   0  0  0  0  0  0  0  0  0  0  0  0
   -0.6912   -1.2578    0.1196 H   0  0  0  0  0  0  0  0  0  0  0  0
   -1.6450   -2.4995    0.9688 H   0  0  0  0  0  0  0  0  0  0  0  0
    2.3104    2.8062   -1.5603 H   0  0  0  0  0  0  0  0  0  0  0  0
    1.1909    0.0061   -2.1113 H   0  0  0  0  0  0  0  0  0  0  0  0
   -3.9967    1.7000    1.7878 H   0  0  0  0  0  0  0  0  0  0  0  0
   -3.0812    3.1489    1.4047 H   0  0  0  0  0  0  0  0  0  0  0  0
   -4.1040    2.2257   -0.6154 H   0  0  0  0  0  0  0  0  0  0  0  0
   -3.3688    0.6528   -0.3299 H   0  0  0  0  0  0  0  0  0  0  0  0
    0.0866    2.9000   -2.4204 H   0  0  0  0  0  0  0  0  0  0  0  0
   -0.2147    1.5869   -3.5525 H   0  0  0  0  0  0  0  0  0  0  0  0
   -0.9463    1.7981    1.4782 H   0  0  0  0  0  0  0  0  0  0  0  0
   -1.8963    0.3784    1.9085 H   0  0  0  0  0  0  0  0  0  0  0  0
   -1.7930    3.2472   -0.9820 H   0  0  0  0  0  0  0  0  0  0  0  0
   -1.4720    0.2959   -1.7403 H   0  0  0  0  0  0  0  0  0  0  0  0
   -2.6303    1.5216    4.0090 H   0  0  0  0  0  0  0  0  0  0  0  0
   -0.8644    1.4108    3.8982 H   0  0  0  0  0  0  0  0  0  0  0  0
   -1.6776    2.9491    3.5581 H   0  0  0  0  0  0  0  0  0  0  0  0
   -2.9186   -2.6060   -2.2577 H   0  0  0  0  0  0  0  0  0  0  0  0
  1 14  1  0  0  0  0
  1 52  1  0  0  0  0
  2 14  2  0  0  0  0
  3  4  1  0  0  0  0
  3  5  1  0  0  0  0
  3 21  1  0  0  0  0
  3 22  1  0  0  0  0
  4  6  1  0  0  0  0
  4 23  1  0  0  0  0
  4 24  1  0  0  0  0
  5  7  1  0  0  0  0
  5 25  1  0  0  0  0
  5 26  1  0  0  0  0
  6  8  1  0  0  0  0
  6 27  1  0  0  0  0
  6 28  1  0  0  0  0
  7  9  1  0  0  0  0
  7 29  1  0  0  0  0
  7 30  1  0  0  0  0
  8 10  1  0  0  0  0
  8 31  1  0  0  0  0
  8 32  1  0  0  0  0
  9 11  1  0  0  0  0
  9 33  1  0  0  0  0
  9 34  1  0  0  0  0
 10 14  1  0  0  0  0
 10 35  1  0  0  0  0
 10 36  1  0  0  0  0
 11 12  2  3  0  0  0
 11 37  1  0  0  0  0
 12 16  1  0  0  0  0
 12 38  1  0  0  0  0
 13 15  1  0  0  0  0
 13 17  1  0  0  0  0
 13 39  1  0  0  0  0
 13 40  1  0  0  0  0
 15 18  1  0  0  0  0
 15 41  1  0  0  0  0
 15 42  1  0  0  0  0
 16 19  1  0  0  0  0
 16 43  1  0  0  0  0
 16 44  1  0  0  0  0
 17 20  1  0  0  0  0
 17 45  1  0  0  0  0
 17 46  1  0  0  0  0
 18 19  2  3  0  0  0
 18 47  1  0  0  0  0
 19 48  1  0  0  0  0
 20 49  1  0  0  0  0
 20 50  1  0  0  0  0
 20 51  1  0  0  0  0
M  END
> <PUBCHEM_COMPOUND_CID>
54284936

> <PUBCHEM_CONFORMER_RMSD>
1.4

> <PUBCHEM_CONFORMER_DIVERSEORDER>
2
12
23
39
79
9
4
50
63
54
30
93
15
46
77
59
51
76
94
91
87
21
38
49
31
80
19
70
71
32
41
57
17
47
10
25
48
6
95
66
82
16
40
14
28
67
13
58
61
27
73
53
36
43
96
33
72
90
78
52
24
1
65
88
83
55
35
64
62
22
81
11
34
45
85
92
56
37
74
7
84
29
68
18
86
44
26
89
3
69
60
20
42
97
8
5
75

> <PUBCHEM_MMFF94_PARTIAL_CHARGES>
16
1 -0.65
10 0.06
11 -0.29
12 -0.29
14 0.66
15 0.14
16 0.28
18 -0.29
19 -0.29
2 -0.57
37 0.15
38 0.15
47 0.15
48 0.15
52 0.5
9 0.14

> <PUBCHEM_EFFECTIVE_ROTOR_COUNT>
14

> <PUBCHEM_PHARMACOPHORE_FEATURES>
5
1 1 acceptor
1 2 acceptor
1 20 hydrophobe
3 1 2 14 anion
4 13 15 17 18 hydrophobe

> <PUBCHEM_HEAVY_ATOM_COUNT>
20

> <PUBCHEM_ATOM_DEF_STEREO_COUNT>
0

> <PUBCHEM_ATOM_UDEF_STEREO_COUNT>
0

> <PUBCHEM_BOND_DEF_STEREO_COUNT>
0

> <PUBCHEM_BOND_UDEF_STEREO_COUNT>
2

> <PUBCHEM_ISOTOPIC_ATOM_COUNT>
0

> <PUBCHEM_COMPONENT_COUNT>
1

> <PUBCHEM_CACTVS_TAUTO_COUNT>
1

> <PUBCHEM_CONFORMER_ID>
033C528800000002

> <PUBCHEM_MMFF94_ENERGY>
1.4194

> <PUBCHEM_FEATURE_SELFOVERLAP>
25.429

> <PUBCHEM_SHAPE_FINGERPRINT>
11244481 83 17246704480195322553
12539773 59 18337124465507064761
12788726 201 18049173459724365821
13642711 20 14897004198460082907
20600515 1 16889720924731166840
2803657 2 17533493693293477556
35225 105 18198365007038831385
539174 4 17195419920749493013
6438718 38 17687791436968612420
81228 2 18118971527344550028

> <PUBCHEM_SHAPE_MULTIPOLES>
399.85
5.28
4.44
3.32
0.15
4.55
-1.4
-4.29
-1.87
0.21
2.28
-1.48
-0.23
-1.98

> <PUBCHEM_SHAPE_SELFOVERLAP>
741.29

> <PUBCHEM_SHAPE_VOLUME>
249.6

> <PUBCHEM_COORDINATE_TYPE>
2
5
10

$$$$
