91724130
  -OEChem-09192005393D

 47 48  0     1  0  0  0  0  0999 V2000
   -1.0075   -0.6633    0.1233 N   0  0  1  0  0  0  0  0  0  0  0  0
   -1.5417   -1.7241    1.0151 C   0  0  2  0  0  0  0  0  0  0  0  0
    0.2485   -1.1711   -0.4607 C   0  0  2  0  0  0  0  0  0  0  0  0
   -2.0321   -0.3748   -0.8964 C   0  0  1  0  0  0  0  0  0  0  0  0
   -0.5019   -2.8411    1.0269 C   0  0  0  0  0  0  0  0  0  0  0  0
   -2.9008   -2.1412    0.4701 C   0  0  0  0  0  0  0  0  0  0  0  0
    0.7684   -2.1380    0.5940 C   0  0  0  0  0  0  0  0  0  0  0  0
   -2.8946   -1.6314   -0.9590 C   0  0  0  0  0  0  0  0  0  0  0  0
    1.2279   -0.0414   -0.7426 C   0  0  0  0  0  0  0  0  0  0  0  0
   -2.8320    0.8555   -0.4643 C   0  0  0  0  0  0  0  0  0  0  0  0
    2.5535   -0.5746   -1.2855 C   0  0  0  0  0  0  0  0  0  0  0  0
   -1.9418    2.0945   -0.3661 C   0  0  0  0  0  0  0  0  0  0  0  0
    3.5197    0.5703   -1.6054 C   0  0  0  0  0  0  0  0  0  0  0  0
   -2.7240    3.2930    0.0836 C   0  0  0  0  0  0  0  0  0  0  0  0
    3.8800    1.4126   -0.3775 C   0  0  0  0  0  0  0  0  0  0  0  0
   -2.4678    3.9755    1.2051 C   0  0  0  0  0  0  0  0  0  0  0  0
    4.5620    0.6204    0.6990 C   0  0  0  0  0  0  0  0  0  0  0  0
    4.0842    0.4792    1.9404 C   0  0  0  0  0  0  0  0  0  0  0  0
   -1.6488   -1.3180    2.0280 H   0  0  0  0  0  0  0  0  0  0  0  0
    0.0535   -1.7388   -1.3818 H   0  0  0  0  0  0  0  0  0  0  0  0
   -1.5966   -0.1659   -1.8819 H   0  0  0  0  0  0  0  0  0  0  0  0
   -0.7501   -3.6315    0.3080 H   0  0  0  0  0  0  0  0  0  0  0  0
   -0.3971   -3.2995    2.0150 H   0  0  0  0  0  0  0  0  0  0  0  0
   -3.6972   -1.6393    1.0327 H   0  0  0  0  0  0  0  0  0  0  0  0
   -3.0851   -3.2186    0.5221 H   0  0  0  0  0  0  0  0  0  0  0  0
    1.2195   -1.6107    1.4439 H   0  0  0  0  0  0  0  0  0  0  0  0
    1.4988   -2.8504    0.1988 H   0  0  0  0  0  0  0  0  0  0  0  0
   -2.4238   -2.3780   -1.6106 H   0  0  0  0  0  0  0  0  0  0  0  0
   -3.9059   -1.4460   -1.3338 H   0  0  0  0  0  0  0  0  0  0  0  0
    0.7921    0.6546   -1.4702 H   0  0  0  0  0  0  0  0  0  0  0  0
    1.3866    0.5251    0.1814 H   0  0  0  0  0  0  0  0  0  0  0  0
   -3.6335    1.0368   -1.1927 H   0  0  0  0  0  0  0  0  0  0  0  0
   -3.3264    0.6839    0.5010 H   0  0  0  0  0  0  0  0  0  0  0  0
    3.0228   -1.2677   -0.5802 H   0  0  0  0  0  0  0  0  0  0  0  0
    2.3682   -1.1411   -2.2064 H   0  0  0  0  0  0  0  0  0  0  0  0
   -1.5034    2.3143   -1.3470 H   0  0  0  0  0  0  0  0  0  0  0  0
   -1.1068    1.9212    0.3224 H   0  0  0  0  0  0  0  0  0  0  0  0
    4.4331    0.1488   -2.0434 H   0  0  0  0  0  0  0  0  0  0  0  0
    3.0783    1.2224   -2.3689 H   0  0  0  0  0  0  0  0  0  0  0  0
   -3.5395    3.6253   -0.5536 H   0  0  0  0  0  0  0  0  0  0  0  0
    3.0021    1.9419    0.0083 H   0  0  0  0  0  0  0  0  0  0  0  0
    4.5756    2.1988   -0.6983 H   0  0  0  0  0  0  0  0  0  0  0  0
   -3.0681    4.8385    1.4718 H   0  0  0  0  0  0  0  0  0  0  0  0
   -1.6630    3.6893    1.8730 H   0  0  0  0  0  0  0  0  0  0  0  0
    5.5054    0.1435    0.4463 H   0  0  0  0  0  0  0  0  0  0  0  0
    4.6277   -0.1048    2.6750 H   0  0  0  0  0  0  0  0  0  0  0  0
    3.1492    0.9370    2.2438 H   0  0  0  0  0  0  0  0  0  0  0  0
  1  2  1  0  0  0  0
  1  3  1  0  0  0  0
  1  4  1  0  0  0  0
  2  5  1  0  0  0  0
  2  6  1  0  0  0  0
  2 19  1  0  0  0  0
  3  7  1  0  0  0  0
  3  9  1  0  0  0  0
  3 20  1  0  0  0  0
  4  8  1  0  0  0  0
  4 10  1  0  0  0  0
  4 21  1  0  0  0  0
  5  7  1  0  0  0  0
  5 22  1  0  0  0  0
  5 23  1  0  0  0  0
  6  8  1  0  0  0  0
  6 24  1  0  0  0  0
  6 25  1  0  0  0  0
  7 26  1  0  0  0  0
  7 27  1  0  0  0  0
  8 28  1  0  0  0  0
  8 29  1  0  0  0  0
  9 11  1  0  0  0  0
  9 30  1  0  0  0  0
  9 31  1  0  0  0  0
 10 12  1  0  0  0  0
 10 32  1  0  0  0  0
 10 33  1  0  0  0  0
 11 13  1  0  0  0  0
 11 34  1  0  0  0  0
 11 35  1  0  0  0  0
 12 14  1  0  0  0  0
 12 36  1  0  0  0  0
 12 37  1  0  0  0  0
 13 15  1  0  0  0  0
 13 38  1  0  0  0  0
 13 39  1  0  0  0  0
 14 16  2  0  0  0  0
 14 40  1  0  0  0  0
 15 17  1  0  0  0  0
 15 41  1  0  0  0  0
 15 42  1  0  0  0  0
 16 43  1  0  0  0  0
 16 44  1  0  0  0  0
 17 18  2  0  0  0  0
 17 45  1  0  0  0  0
 18 46  1  0  0  0  0
 18 47  1  0  0  0  0
M  END
> <PUBCHEM_COMPOUND_CID>
91724130

> <PUBCHEM_CONFORMER_RMSD>
1

> <PUBCHEM_CONFORMER_DIVERSEORDER>
1
36
26
62
134
120
142
52
28
29
115
51
60
77
145
23
31
102
14
99
88
111
64
53
2
146
94
129
126
89
61
74
78
112
54
101
65
113
11
91
100
67
25
104
49
132
92
20
135
123
19
48
133
143
131
69
86
22
12
140
87
44
103
138
9
39
15
114
4
139
6
107
46
73
118
13
32
96
127
10
63
45
75
90
8
82
72
42
66
141
144
57
37
50
110
106
5
71
7
108
38
47
30
95
76
18
105
121
83
116
137
24
59
124
68
109
119
130
117
56
79
3
122
41
70
84
58
128
125
33
80
97
35
16
21
55
27
43
136
85
81
40
98
17
93
34

> <PUBCHEM_MMFF94_PARTIAL_CHARGES>
16
1 -0.81
12 0.14
14 -0.29
15 0.14
16 -0.3
17 -0.29
18 -0.3
2 0.27
3 0.27
4 0.27
40 0.15
43 0.15
44 0.15
45 0.15
46 0.15
47 0.15

> <PUBCHEM_EFFECTIVE_ROTOR_COUNT>
9.2

> <PUBCHEM_PHARMACOPHORE_FEATURES>
6
1 1 cation
1 16 hydrophobe
1 18 hydrophobe
5 1 2 3 5 7 rings
5 1 2 4 6 8 rings
5 9 11 13 15 17 hydrophobe

> <PUBCHEM_HEAVY_ATOM_COUNT>
18

> <PUBCHEM_ATOM_DEF_STEREO_COUNT>
0

> <PUBCHEM_ATOM_UDEF_STEREO_COUNT>
3

> <PUBCHEM_BOND_DEF_STEREO_COUNT>
0

> <PUBCHEM_BOND_UDEF_STEREO_COUNT>
0

> <PUBCHEM_ISOTOPIC_ATOM_COUNT>
0

> <PUBCHEM_COMPONENT_COUNT>
1

> <PUBCHEM_CACTVS_TAUTO_COUNT>
1

> <PUBCHEM_CONFORMER_ID>
0577996200000001

> <PUBCHEM_MMFF94_ENERGY>
17.9738

> <PUBCHEM_FEATURE_SELFOVERLAP>
30.863

> <PUBCHEM_SHAPE_FINGERPRINT>
11615756 56 18269551805326965660
11725454 13 17631429298708607250
12173636 292 18340770351675839895
12293681 160 18263906861486053695
12788726 201 18263937702860306908
13140716 1 17901960960082865498
13294875 104 17977391529846612214
14123250 116 18270122284300411461
14178342 30 18335140856315073092
14251757 17 17561075878621152608
14251764 3 17702645779114667744
14251764 38 18343577426605679728
1741750 31 18268431243837638157
18186145 218 17203342147289414406
192875 21 18189886677293071204
20510252 161 18262527007987931487
20567600 299 16535934925011109316
20621476 82 18199735016034308136
20671657 1 17905045854866226279
21427221 339 17823402822011271008
21524375 3 18049451344308779373
22182937 141 18270131110257757553
23402539 116 18264479770799020455
23557571 272 18269572657013354183
23558518 356 18335986354971555407
23559900 14 18335709377389924734
6913067 236 17631154471877320118
81228 2 18262537973160744709
84936 182 17981323395948600232

> <PUBCHEM_SHAPE_MULTIPOLES>
365.45
7.55
3.98
1.49
8.55
3.13
0.19
3.87
0.57
-5.27
1.69
1.17
0.05
-0.36

> <PUBCHEM_SHAPE_SELFOVERLAP>
724.65

> <PUBCHEM_SHAPE_VOLUME>
216.4

> <PUBCHEM_COORDINATE_TYPE>
2
5
10

$$$$
