5282750
  -OEChem-09192005483D

 54 53  0     0  0  0  0  0  0999 V2000
    2.9561   -2.7554    0.7174 O   0  0  0  0  0  0  0  0  0  0  0  0
    2.0788   -3.5605   -1.2289 O   0  0  0  0  0  0  0  0  0  0  0  0
   -2.0969    3.0949   -0.3536 C   0  0  0  0  0  0  0  0  0  0  0  0
   -3.4243    3.0064    0.4069 C   0  0  0  0  0  0  0  0  0  0  0  0
   -0.8943    2.4336    0.3263 C   0  0  0  0  0  0  0  0  0  0  0  0
   -3.9712    1.5918    0.6249 C   0  0  0  0  0  0  0  0  0  0  0  0
    0.4181    2.6218   -0.4387 C   0  0  0  0  0  0  0  0  0  0  0  0
   -4.2869    0.8576   -0.6802 C   0  0  0  0  0  0  0  0  0  0  0  0
    1.5825    1.9479    0.2922 C   0  0  0  0  0  0  0  0  0  0  0  0
   -4.9063   -0.5272   -0.4624 C   0  0  0  0  0  0  0  0  0  0  0  0
    2.9285    2.1218   -0.4173 C   0  0  0  0  0  0  0  0  0  0  0  0
   -4.0600   -1.5197    0.3427 C   0  0  0  0  0  0  0  0  0  0  0  0
    4.0886    1.4281    0.3003 C   0  0  0  0  0  0  0  0  0  0  0  0
   -2.6781   -1.7763   -0.2676 C   0  0  0  0  0  0  0  0  0  0  0  0
    5.4167    1.6940   -0.4099 C   0  0  0  0  0  0  0  0  0  0  0  0
   -1.8391   -2.7686    0.5454 C   0  0  0  0  0  0  0  0  0  0  0  0
    6.5792    1.0394    0.3193 C   0  0  0  0  0  0  0  0  0  0  0  0
   -0.4947   -3.0433   -0.0661 C   0  0  0  0  0  0  0  0  0  0  0  0
    0.6625   -2.7948    0.5612 C   0  0  0  0  0  0  0  0  0  0  0  0
    1.9407   -3.0916   -0.1118 C   0  0  0  0  0  0  0  0  0  0  0  0
   -2.2162    2.6843   -1.3626 H   0  0  0  0  0  0  0  0  0  0  0  0
   -1.8676    4.1596   -0.4920 H   0  0  0  0  0  0  0  0  0  0  0  0
   -4.1749    3.5967   -0.1332 H   0  0  0  0  0  0  0  0  0  0  0  0
   -3.3014    3.4855    1.3861 H   0  0  0  0  0  0  0  0  0  0  0  0
   -1.0851    1.3604    0.4399 H   0  0  0  0  0  0  0  0  0  0  0  0
   -0.7866    2.8455    1.3373 H   0  0  0  0  0  0  0  0  0  0  0  0
   -4.8880    1.6652    1.2231 H   0  0  0  0  0  0  0  0  0  0  0  0
   -3.2549    1.0198    1.2234 H   0  0  0  0  0  0  0  0  0  0  0  0
    0.3214    2.1995   -1.4458 H   0  0  0  0  0  0  0  0  0  0  0  0
    0.6265    3.6922   -0.5536 H   0  0  0  0  0  0  0  0  0  0  0  0
   -3.3863    0.7585   -1.2943 H   0  0  0  0  0  0  0  0  0  0  0  0
   -4.9923    1.4599   -1.2663 H   0  0  0  0  0  0  0  0  0  0  0  0
    1.3703    0.8766    0.3982 H   0  0  0  0  0  0  0  0  0  0  0  0
    1.6592    2.3572    1.3071 H   0  0  0  0  0  0  0  0  0  0  0  0
   -5.8735   -0.4088    0.0418 H   0  0  0  0  0  0  0  0  0  0  0  0
   -5.1238   -0.9651   -1.4446 H   0  0  0  0  0  0  0  0  0  0  0  0
    3.1456    3.1936   -0.5064 H   0  0  0  0  0  0  0  0  0  0  0  0
    2.8503    1.7288   -1.4386 H   0  0  0  0  0  0  0  0  0  0  0  0
   -4.6058   -2.4695    0.4029 H   0  0  0  0  0  0  0  0  0  0  0  0
   -3.9490   -1.1647    1.3736 H   0  0  0  0  0  0  0  0  0  0  0  0
    4.1463    1.7901    1.3340 H   0  0  0  0  0  0  0  0  0  0  0  0
    3.9000    0.3487    0.3454 H   0  0  0  0  0  0  0  0  0  0  0  0
   -2.1200   -0.8360   -0.3395 H   0  0  0  0  0  0  0  0  0  0  0  0
   -2.8012   -2.1510   -1.2916 H   0  0  0  0  0  0  0  0  0  0  0  0
    5.3726    1.3113   -1.4362 H   0  0  0  0  0  0  0  0  0  0  0  0
    5.5966    2.7735   -0.4733 H   0  0  0  0  0  0  0  0  0  0  0  0
   -1.7269   -2.3907    1.5693 H   0  0  0  0  0  0  0  0  0  0  0  0
   -2.3787   -3.7205    0.6212 H   0  0  0  0  0  0  0  0  0  0  0  0
    6.4459   -0.0458    0.3746 H   0  0  0  0  0  0  0  0  0  0  0  0
    7.5179    1.2402   -0.2065 H   0  0  0  0  0  0  0  0  0  0  0  0
    6.6711    1.4270    1.3389 H   0  0  0  0  0  0  0  0  0  0  0  0
   -0.4992   -3.4718   -1.0653 H   0  0  0  0  0  0  0  0  0  0  0  0
    0.6866   -2.3706    1.5592 H   0  0  0  0  0  0  0  0  0  0  0  0
    3.8332   -2.9313    0.3148 H   0  0  0  0  0  0  0  0  0  0  0  0
  1 20  1  0  0  0  0
  1 54  1  0  0  0  0
  2 20  2  0  0  0  0
  3  4  1  0  0  0  0
  3  5  1  0  0  0  0
  3 21  1  0  0  0  0
  3 22  1  0  0  0  0
  4  6  1  0  0  0  0
  4 23  1  0  0  0  0
  4 24  1  0  0  0  0
  5  7  1  0  0  0  0
  5 25  1  0  0  0  0
  5 26  1  0  0  0  0
  6  8  1  0  0  0  0
  6 27  1  0  0  0  0
  6 28  1  0  0  0  0
  7  9  1  0  0  0  0
  7 29  1  0  0  0  0
  7 30  1  0  0  0  0
  8 10  1  0  0  0  0
  8 31  1  0  0  0  0
  8 32  1  0  0  0  0
  9 11  1  0  0  0  0
  9 33  1  0  0  0  0
  9 34  1  0  0  0  0
 10 12  1  0  0  0  0
 10 35  1  0  0  0  0
 10 36  1  0  0  0  0
 11 13  1  0  0  0  0
 11 37  1  0  0  0  0
 11 38  1  0  0  0  0
 12 14  1  0  0  0  0
 12 39  1  0  0  0  0
 12 40  1  0  0  0  0
 13 15  1  0  0  0  0
 13 41  1  0  0  0  0
 13 42  1  0  0  0  0
 14 16  1  0  0  0  0
 14 43  1  0  0  0  0
 14 44  1  0  0  0  0
 15 17  1  0  0  0  0
 15 45  1  0  0  0  0
 15 46  1  0  0  0  0
 16 18  1  0  0  0  0
 16 47  1  0  0  0  0
 16 48  1  0  0  0  0
 17 49  1  0  0  0  0
 17 50  1  0  0  0  0
 17 51  1  0  0  0  0
 18 19  2  0  0  0  0
 18 52  1  0  0  0  0
 19 20  1  0  0  0  0
 19 53  1  0  0  0  0
M  END
> <PUBCHEM_COMPOUND_CID>
5282750

> <PUBCHEM_CONFORMER_RMSD>
1.4

> <PUBCHEM_CONFORMER_DIVERSEORDER>
2
1
30
50
36
46
31
35
43
29
19
15
26
54
57
56
40
55
12
22
52
5
60
9
47
28
41
51
23
32
58
3
11
44
18
53
6
14
39
45
34
25
24
10
33
20
48
37
27
7
8
42
13
38
4
59
61
21
16
17
49

> <PUBCHEM_MMFF94_PARTIAL_CHARGES>
9
1 -0.65
16 0.14
18 -0.29
19 -0.14
2 -0.57
20 0.71
52 0.15
53 0.15
54 0.5

> <PUBCHEM_EFFECTIVE_ROTOR_COUNT>
15

> <PUBCHEM_PHARMACOPHORE_FEATURES>
4
1 1 acceptor
1 17 hydrophobe
1 2 acceptor
3 1 2 20 anion

> <PUBCHEM_HEAVY_ATOM_COUNT>
20

> <PUBCHEM_ATOM_DEF_STEREO_COUNT>
0

> <PUBCHEM_ATOM_UDEF_STEREO_COUNT>
0

> <PUBCHEM_BOND_DEF_STEREO_COUNT>
1

> <PUBCHEM_BOND_UDEF_STEREO_COUNT>
0

> <PUBCHEM_ISOTOPIC_ATOM_COUNT>
0

> <PUBCHEM_COMPONENT_COUNT>
1

> <PUBCHEM_CACTVS_TAUTO_COUNT>
1

> <PUBCHEM_CONFORMER_ID>
00509BBE00000002

> <PUBCHEM_MMFF94_ENERGY>
4.1906

> <PUBCHEM_FEATURE_SELFOVERLAP>
20.353

> <PUBCHEM_SHAPE_FINGERPRINT>
10864689 126 17257936988348630798
10939801 23 18119806061740926856
1100329 8 17906736899565587149
11200772 71 17827940730101906500
11513181 2 18130505236742797855
12038231 1 18265895761623722217
14251740 79 18341617078513393473
14251757 5 17687201085060799356
14251764 38 18337951173502064763
144659 178 18335712662776629860
14647877 51 18268433434619281230
16719943 64 18336826515252090778
20721686 56 18407763634048508811
238918 7 18201443635770986150
338550 245 18334581244026156868
373842 8 18336255757280591562
6433294 58 18339081462981424308
6437827 68 18410574003027750072

> <PUBCHEM_SHAPE_MULTIPOLES>
399.85
11.76
5.92
0.84
11.91
3.35
0.05
-5.38
0.07
-0.04
0.11
-0.04
0.16
-0.1

> <PUBCHEM_SHAPE_SELFOVERLAP>
734.482

> <PUBCHEM_SHAPE_VOLUME>
252.3

> <PUBCHEM_COORDINATE_TYPE>
2
5
10

$$$$
