15819326
  -OEChem-09082010003D

 76 82  0     1  0  0  0  0  0999 V2000
   -0.1771    2.0035   -0.8976 O   0  0  0  0  0  0  0  0  0  0  0  0
   -2.0024   -1.1505   -1.4972 O   0  0  0  0  0  0  0  0  0  0  0  0
   -3.6982   -2.6919   -1.7234 O   0  0  0  0  0  0  0  0  0  0  0  0
    5.4734    2.8747   -0.4659 O   0  0  0  0  0  0  0  0  0  0  0  0
    7.0768    0.6581    0.4889 O   0  0  0  0  0  0  0  0  0  0  0  0
   -1.7107    0.0085   -0.6231 C   0  0  1  0  0  0  0  0  0  0  0  0
   -0.9471   -0.5627    0.6511 C   0  0  2  0  0  0  0  0  0  0  0  0
    0.5576   -1.0650    0.2178 C   0  0  1  0  0  0  0  0  0  0  0  0
    1.3606    0.2074   -0.2431 C   0  0  2  0  0  0  0  0  0  0  0  0
   -0.8801    0.9184   -1.4894 C   0  0  2  0  0  0  0  0  0  0  0  0
    0.6342    0.9168   -1.3720 C   0  0  1  0  0  0  0  0  0  0  0  0
   -3.1694    0.4739   -0.4180 C   0  0  1  0  0  0  0  0  0  0  0  0
   -3.8137   -0.8801   -0.0788 C   0  0  2  0  0  0  0  0  0  0  0  0
    2.9138    0.0483   -0.4645 C   0  0  2  0  0  0  0  0  0  0  0  0
   -1.7829   -1.7305    1.2716 C   0  0  0  0  0  0  0  0  0  0  0  0
   -3.3049   -1.4771    1.2530 C   0  0  0  0  0  0  0  0  0  0  0  0
    1.3066   -1.7428    1.4050 C   0  0  0  0  0  0  0  0  0  0  0  0
   -3.6613    1.6156    0.5033 C   0  0  2  0  0  0  0  0  0  0  0  0
    3.5152   -0.6104    0.8244 C   0  0  1  0  0  0  0  0  0  0  0  0
   -0.8605    0.5149    1.7789 C   0  0  0  0  0  0  0  0  0  0  0  0
    0.5010   -2.1258   -0.9233 C   0  0  0  0  0  0  0  0  0  0  0  0
   -3.2229   -1.7011   -1.1964 C   0  0  0  0  0  0  0  0  0  0  0  0
   -5.3338   -0.7914   -0.1514 C   0  0  0  0  0  0  0  0  0  0  0  0
    2.8141   -1.9326    1.1861 C   0  0  0  0  0  0  0  0  0  0  0  0
    3.5453    1.4748   -0.5920 C   0  0  0  0  0  0  0  0  0  0  0  0
   -5.2243    1.6876    0.4365 C   0  0  1  0  0  0  0  0  0  0  0  0
   -5.8742    0.3233    0.7374 C   0  0  0  0  0  0  0  0  0  0  0  0
    3.2800   -0.7508   -1.7394 C   0  0  0  0  0  0  0  0  0  0  0  0
    5.0399   -0.6536    0.7479 C   0  0  0  0  0  0  0  0  0  0  0  0
   -3.0429    2.9631    0.1227 C   0  0  0  0  0  0  0  0  0  0  0  0
    5.0798    1.5026   -0.5556 C   0  0  2  0  0  0  0  0  0  0  0  0
    5.6589    0.7300    0.6359 C   0  0  2  0  0  0  0  0  0  0  0  0
   -5.8168    2.7288    1.3949 C   0  0  0  0  0  0  0  0  0  0  0  0
    5.7659   -1.7842    0.7759 C   0  0  0  0  0  0  0  0  0  0  0  0
    1.3180    0.8987    0.6100 H   0  0  0  0  0  0  0  0  0  0  0  0
   -1.3119    1.0880   -2.4684 H   0  0  0  0  0  0  0  0  0  0  0  0
    1.2030    1.0809   -2.2739 H   0  0  0  0  0  0  0  0  0  0  0  0
   -3.5317    0.7655   -1.4215 H   0  0  0  0  0  0  0  0  0  0  0  0
   -1.4679   -1.9238    2.3053 H   0  0  0  0  0  0  0  0  0  0  0  0
   -1.6039   -2.6716    0.7448 H   0  0  0  0  0  0  0  0  0  0  0  0
   -3.8067   -2.4345    1.4458 H   0  0  0  0  0  0  0  0  0  0  0  0
   -3.5706   -0.8255    2.0920 H   0  0  0  0  0  0  0  0  0  0  0  0
    0.8596   -2.7219    1.6191 H   0  0  0  0  0  0  0  0  0  0  0  0
    1.2008   -1.1633    2.3246 H   0  0  0  0  0  0  0  0  0  0  0  0
   -3.4070    1.4142    1.5442 H   0  0  0  0  0  0  0  0  0  0  0  0
    3.2953    0.0632    1.6691 H   0  0  0  0  0  0  0  0  0  0  0  0
   -0.1053    0.2823    2.5312 H   0  0  0  0  0  0  0  0  0  0  0  0
   -0.6322    1.5137    1.4079 H   0  0  0  0  0  0  0  0  0  0  0  0
   -1.7860    0.5891    2.3515 H   0  0  0  0  0  0  0  0  0  0  0  0
    1.4043   -2.7332   -0.9837 H   0  0  0  0  0  0  0  0  0  0  0  0
   -0.2936   -2.8598   -0.7757 H   0  0  0  0  0  0  0  0  0  0  0  0
    0.3638   -1.6764   -1.9110 H   0  0  0  0  0  0  0  0  0  0  0  0
   -5.7892   -1.7467    0.1371 H   0  0  0  0  0  0  0  0  0  0  0  0
   -5.6520   -0.6081   -1.1865 H   0  0  0  0  0  0  0  0  0  0  0  0
    3.2375   -2.3265    2.1198 H   0  0  0  0  0  0  0  0  0  0  0  0
    2.9976   -2.7007    0.4288 H   0  0  0  0  0  0  0  0  0  0  0  0
    3.1723    2.1170    0.2188 H   0  0  0  0  0  0  0  0  0  0  0  0
    3.2131    1.9660   -1.5156 H   0  0  0  0  0  0  0  0  0  0  0  0
   -5.5130    1.9768   -0.5837 H   0  0  0  0  0  0  0  0  0  0  0  0
   -6.9595    0.3918    0.5920 H   0  0  0  0  0  0  0  0  0  0  0  0
   -5.7207    0.0625    1.7918 H   0  0  0  0  0  0  0  0  0  0  0  0
    4.3497   -0.6997   -1.9652 H   0  0  0  0  0  0  0  0  0  0  0  0
    3.0602   -1.8135   -1.6573 H   0  0  0  0  0  0  0  0  0  0  0  0
    2.7622   -0.3713   -2.6244 H   0  0  0  0  0  0  0  0  0  0  0  0
   -1.9699    2.9717    0.3068 H   0  0  0  0  0  0  0  0  0  0  0  0
   -3.2185    3.1998   -0.9317 H   0  0  0  0  0  0  0  0  0  0  0  0
   -3.4447    3.7826    0.7243 H   0  0  0  0  0  0  0  0  0  0  0  0
    5.4896    1.1280   -1.5004 H   0  0  0  0  0  0  0  0  0  0  0  0
    5.4761    1.2814    1.5659 H   0  0  0  0  0  0  0  0  0  0  0  0
   -5.4601    2.5733    2.4184 H   0  0  0  0  0  0  0  0  0  0  0  0
   -5.5618    3.7480    1.0916 H   0  0  0  0  0  0  0  0  0  0  0  0
   -6.9108    2.6693    1.4064 H   0  0  0  0  0  0  0  0  0  0  0  0
    6.8490   -1.7756    0.7240 H   0  0  0  0  0  0  0  0  0  0  0  0
    5.3072   -2.7632    0.8503 H   0  0  0  0  0  0  0  0  0  0  0  0
    6.4448    2.8950   -0.4254 H   0  0  0  0  0  0  0  0  0  0  0  0
    7.2741    0.2994   -0.3933 H   0  0  0  0  0  0  0  0  0  0  0  0
  1 10  1  0  0  0  0
  1 11  1  0  0  0  0
  2  6  1  0  0  0  0
  2 22  1  0  0  0  0
  3 22  2  0  0  0  0
  4 31  1  0  0  0  0
  4 75  1  0  0  0  0
  5 32  1  0  0  0  0
  5 76  1  0  0  0  0
  6  7  1  0  0  0  0
  6 10  1  0  0  0  0
  6 12  1  0  0  0  0
  7  8  1  0  0  0  0
  7 15  1  0  0  0  0
  7 20  1  0  0  0  0
  8  9  1  0  0  0  0
  8 17  1  0  0  0  0
  8 21  1  0  0  0  0
  9 11  1  0  0  0  0
  9 14  1  0  0  0  0
  9 35  1  0  0  0  0
 10 11  1  0  0  0  0
 10 36  1  0  0  0  0
 11 37  1  0  0  0  0
 12 13  1  0  0  0  0
 12 18  1  0  0  0  0
 12 38  1  0  0  0  0
 13 16  1  0  0  0  0
 13 22  1  0  0  0  0
 13 23  1  0  0  0  0
 14 19  1  0  0  0  0
 14 25  1  0  0  0  0
 14 28  1  0  0  0  0
 15 16  1  0  0  0  0
 15 39  1  0  0  0  0
 15 40  1  0  0  0  0
 16 41  1  0  0  0  0
 16 42  1  0  0  0  0
 17 24  1  0  0  0  0
 17 43  1  0  0  0  0
 17 44  1  0  0  0  0
 18 26  1  0  0  0  0
 18 30  1  0  0  0  0
 18 45  1  0  0  0  0
 19 24  1  0  0  0  0
 19 29  1  0  0  0  0
 19 46  1  0  0  0  0
 20 47  1  0  0  0  0
 20 48  1  0  0  0  0
 20 49  1  0  0  0  0
 21 50  1  0  0  0  0
 21 51  1  0  0  0  0
 21 52  1  0  0  0  0
 23 27  1  0  0  0  0
 23 53  1  0  0  0  0
 23 54  1  0  0  0  0
 24 55  1  0  0  0  0
 24 56  1  0  0  0  0
 25 31  1  0  0  0  0
 25 57  1  0  0  0  0
 25 58  1  0  0  0  0
 26 27  1  0  0  0  0
 26 33  1  0  0  0  0
 26 59  1  0  0  0  0
 27 60  1  0  0  0  0
 27 61  1  0  0  0  0
 28 62  1  0  0  0  0
 28 63  1  0  0  0  0
 28 64  1  0  0  0  0
 29 32  1  0  0  0  0
 29 34  2  0  0  0  0
 30 65  1  0  0  0  0
 30 66  1  0  0  0  0
 30 67  1  0  0  0  0
 31 32  1  0  0  0  0
 31 68  1  0  0  0  0
 32 69  1  0  0  0  0
 33 70  1  0  0  0  0
 33 71  1  0  0  0  0
 33 72  1  0  0  0  0
 34 73  1  0  0  0  0
 34 74  1  0  0  0  0
M  END
> <PUBCHEM_COMPOUND_CID>
15819326

> <PUBCHEM_CONFORMER_RMSD>
0.8

> <PUBCHEM_CONFORMER_DIVERSEORDER>
1

> <PUBCHEM_MMFF94_PARTIAL_CHARGES>
22
1 -0.3
10 -0.05
11 -0.05
13 0.06
19 0.14
2 -0.43
22 0.66
29 -0.28
3 -0.57
31 0.28
32 0.42
34 -0.3
36 0.1
37 0.1
4 -0.68
5 -0.68
6 0.38
73 0.15
74 0.15
75 0.4
76 0.4
9 0.09

> <PUBCHEM_EFFECTIVE_ROTOR_COUNT>
2.6

> <PUBCHEM_PHARMACOPHORE_FEATURES>
11
1 1 acceptor
1 3 acceptor
1 4 acceptor
1 4 donor
1 5 acceptor
1 5 donor
6 12 13 18 23 26 27 rings
6 14 19 25 29 31 32 rings
6 8 9 14 17 19 24 rings
7 1 6 7 8 9 10 11 rings
8 2 6 7 12 13 15 16 22 rings

> <PUBCHEM_HEAVY_ATOM_COUNT>
34

> <PUBCHEM_ATOM_DEF_STEREO_COUNT>
14

> <PUBCHEM_ATOM_UDEF_STEREO_COUNT>
0

> <PUBCHEM_BOND_DEF_STEREO_COUNT>
0

> <PUBCHEM_BOND_UDEF_STEREO_COUNT>
0

> <PUBCHEM_ISOTOPIC_ATOM_COUNT>
0

> <PUBCHEM_COMPONENT_COUNT>
1

> <PUBCHEM_CACTVS_TAUTO_COUNT>
1

> <PUBCHEM_CONFORMER_ID>
00F1623E00000001

> <PUBCHEM_MMFF94_ENERGY>
153.206

> <PUBCHEM_FEATURE_SELFOVERLAP>
55.884

> <PUBCHEM_SHAPE_FINGERPRINT>
10595046 47 18339920527940044478
10906281 52 18041296412462603146
11115154 58 18053924411837121671
11578080 2 17560251210650896941
12107183 9 17760361102587209904
12236239 1 18411979156754029827
12422481 6 18115584833751364340
12467345 10 18410857633719548761
12616971 3 18408599258326718422
12633257 1 16370734767589210052
12788726 201 18059581239219519584
12969540 114 15195277604182823173
13140716 1 17750527345297775028
13224815 77 18113334206727579470
13782708 43 16558176228611886983
14068700 675 17629183082579579047
14341114 328 18410008845070839476
14394314 77 18335144150930568305
14790565 3 18407761434608281060
14840074 17 17530969089910053550
14849402 71 18261393399522790460
14856354 85 18201717413976645343
15131766 46 15577285447553202999
15163728 17 17273428171023698377
15788980 27 18411698794485130506
15840311 113 18264497178966063401
17349148 13 17022618667884477046
17980427 23 18408327696255905269
1813 80 16081376219398134606
19377110 9 18333443248779044456
20511986 3 18335691728873341849
21033648 144 17822566204994397638
21033648 29 15985096397290781955
22122407 14 18339654424361630208
23522609 53 18189357756577442300
23559900 14 17560526084242203630
23569914 152 12890613112420861745
23569914 2 16769243870732265568
23569943 247 17315341541036690962
34797466 226 17346327049922356268
350125 39 18186239516236687004
3633792 109 17968362486889260191
3680242 22 17894633638928942448
392239 28 17749103396594122224
4073 2 17895199956479511866
4093350 32 18060702772098786486
5104073 3 18040152942029007360
6086070 43 17988345049018282209
7808743 9 18273213084500098433
9849439 229 17268931078504650761

> <PUBCHEM_SHAPE_MULTIPOLES>
670.36
14.24
2.77
1.55
7.89
0.83
-0.16
5.16
3.34
-1.05
0
-0.38
-0.41
-1.99

> <PUBCHEM_SHAPE_SELFOVERLAP>
1466.071

> <PUBCHEM_SHAPE_VOLUME>
359.2

> <PUBCHEM_COORDINATE_TYPE>
2
5
10

$$$$
