154373
  -OEChem-09082009363D

 29 29  0     1  0  0  0  0  0999 V2000
   -0.2204    1.0530   -2.4022 O   0  0  0  0  0  0  0  0  0  0  0  0
    0.5595   -2.9346   -0.8141 O   0  0  0  0  0  0  0  0  0  0  0  0
    3.0912    1.1456    1.6371 O   0  0  0  0  0  0  0  0  0  0  0  0
   -3.9956    0.3223    1.3781 O   0  0  0  0  0  0  0  0  0  0  0  0
   -0.7595   -0.2279   -0.4344 C   0  0  1  0  0  0  0  0  0  0  0  0
   -0.4430    1.1678   -0.9954 C   0  0  1  0  0  0  0  0  0  0  0  0
    0.6002   -0.7026    0.0240 C   0  0  0  0  0  0  0  0  0  0  0  0
    0.8510    1.6134   -0.3144 C   0  0  0  0  0  0  0  0  0  0  0  0
    1.4799    0.3104    0.0906 C   0  0  0  0  0  0  0  0  0  0  0  0
   -1.7527   -0.1637    0.7232 C   0  0  0  0  0  0  0  0  0  0  0  0
    0.8135   -2.1442    0.3362 C   0  0  0  0  0  0  0  0  0  0  0  0
    2.9057    0.2926    0.5182 C   0  0  0  0  0  0  0  0  0  0  0  0
   -3.1298    0.2679    0.2529 C   0  0  0  0  0  0  0  0  0  0  0  0
   -1.1406   -0.8865   -1.2245 H   0  0  0  0  0  0  0  0  0  0  0  0
   -1.2254    1.9176   -0.8585 H   0  0  0  0  0  0  0  0  0  0  0  0
    0.6446    2.2138    0.5782 H   0  0  0  0  0  0  0  0  0  0  0  0
    1.4960    2.1755   -0.9971 H   0  0  0  0  0  0  0  0  0  0  0  0
   -1.4038    0.5190    1.5097 H   0  0  0  0  0  0  0  0  0  0  0  0
   -1.8387   -1.1444    1.2083 H   0  0  0  0  0  0  0  0  0  0  0  0
    0.1387   -2.4648    1.1360 H   0  0  0  0  0  0  0  0  0  0  0  0
    1.8354   -2.3499    0.6645 H   0  0  0  0  0  0  0  0  0  0  0  0
    3.5437    0.6546   -0.2944 H   0  0  0  0  0  0  0  0  0  0  0  0
    3.2597   -0.7048    0.7901 H   0  0  0  0  0  0  0  0  0  0  0  0
   -3.1304    1.2617   -0.1990 H   0  0  0  0  0  0  0  0  0  0  0  0
   -3.5459   -0.4387   -0.4723 H   0  0  0  0  0  0  0  0  0  0  0  0
   -1.0611    0.7787   -2.8070 H   0  0  0  0  0  0  0  0  0  0  0  0
    0.6905   -3.8636   -0.5583 H   0  0  0  0  0  0  0  0  0  0  0  0
    2.5433    0.8027    2.3640 H   0  0  0  0  0  0  0  0  0  0  0  0
   -4.0429   -0.5720    1.7570 H   0  0  0  0  0  0  0  0  0  0  0  0
  1  6  1  0  0  0  0
  1 26  1  0  0  0  0
  2 11  1  0  0  0  0
  2 27  1  0  0  0  0
  3 12  1  0  0  0  0
  3 28  1  0  0  0  0
  4 13  1  0  0  0  0
  4 29  1  0  0  0  0
  5  6  1  0  0  0  0
  5  7  1  0  0  0  0
  5 10  1  0  0  0  0
  5 14  1  0  0  0  0
  6  8  1  0  0  0  0
  6 15  1  0  0  0  0
  7  9  2  0  0  0  0
  7 11  1  0  0  0  0
  8  9  1  0  0  0  0
  8 16  1  0  0  0  0
  8 17  1  0  0  0  0
  9 12  1  0  0  0  0
 10 13  1  0  0  0  0
 10 18  1  0  0  0  0
 10 19  1  0  0  0  0
 11 20  1  0  0  0  0
 11 21  1  0  0  0  0
 12 22  1  0  0  0  0
 12 23  1  0  0  0  0
 13 24  1  0  0  0  0
 13 25  1  0  0  0  0
M  END
> <PUBCHEM_COMPOUND_CID>
154373

> <PUBCHEM_CONFORMER_RMSD>
0.6

> <PUBCHEM_CONFORMER_DIVERSEORDER>
1
28
9
29
32
22
19
23
33
15
26
13
20
14
18
21
7
4
12
27
30
25
17
31
24
8
16
5
2
3
10
11
6

> <PUBCHEM_MMFF94_PARTIAL_CHARGES>
16
1 -0.68
11 0.42
12 0.42
13 0.28
2 -0.68
26 0.4
27 0.4
28 0.4
29 0.4
3 -0.68
4 -0.68
5 0.14
6 0.28
7 -0.28
8 0.14
9 -0.28

> <PUBCHEM_EFFECTIVE_ROTOR_COUNT>
4.6

> <PUBCHEM_PHARMACOPHORE_FEATURES>
9
1 1 acceptor
1 1 donor
1 2 acceptor
1 2 donor
1 3 acceptor
1 3 donor
1 4 acceptor
1 4 donor
5 5 6 7 8 9 rings

> <PUBCHEM_HEAVY_ATOM_COUNT>
13

> <PUBCHEM_ATOM_DEF_STEREO_COUNT>
2

> <PUBCHEM_ATOM_UDEF_STEREO_COUNT>
0

> <PUBCHEM_BOND_DEF_STEREO_COUNT>
0

> <PUBCHEM_BOND_UDEF_STEREO_COUNT>
0

> <PUBCHEM_ISOTOPIC_ATOM_COUNT>
0

> <PUBCHEM_COMPONENT_COUNT>
1

> <PUBCHEM_CACTVS_TAUTO_COUNT>
1

> <PUBCHEM_CONFORMER_ID>
00025B0500000001

> <PUBCHEM_MMFF94_ENERGY>
16.7034

> <PUBCHEM_FEATURE_SELFOVERLAP>
45.674

> <PUBCHEM_SHAPE_FINGERPRINT>
10219947 1 18187367648793248585
10610426 29 14056987356367027256
11769659 78 14056987321975789976
12138202 97 13686012167462791956
12423570 1 11001770273218687938
124424 183 16515951636699719321
13380536 53 17968098598859276644
14128692 85 12901550147781134585
14617773 55 17619899995377534918
14817 1 16589972824812366726
15501101 241 18264498299319083235
15502708 68 18412260614524458618
161256 15 18192438458828799166
16945 1 18186795902620191461
18380122 1 18115018602453432884
201361 129 17916875612085773473
20511035 2 17608106564922702017
20653085 51 16056035904183903392
20711978 78 18055624023719104278
20871998 22 17823146635527724603
23382010 3 12751224939369383961
2748010 2 17972867073467532478
3250762 1 17756982307655406164
430814 3 17131825469468531086
53812653 11 18411987987596855774
68419 9 17179420274134286526
7364860 26 17915751885501356635
81228 2 17832117787301668714

> <PUBCHEM_SHAPE_MULTIPOLES>
244.06
4.34
2.05
1.44
2.81
1.59
-0.36
-1.02
3.08
-0.91
-0.73
0.03
-0.48
0.45

> <PUBCHEM_SHAPE_SELFOVERLAP>
486.631

> <PUBCHEM_SHAPE_VOLUME>
146.7

> <PUBCHEM_COORDINATE_TYPE>
2
5
10

$$$$
