101714787
  -OEChem-09082010493D

 29 29  0     1  0  0  0  0  0999 V2000
    0.8431   -2.1045    0.7294 O   0  0  0  0  0  0  0  0  0  0  0  0
   -0.2861    2.8891   -0.4871 O   0  0  0  0  0  0  0  0  0  0  0  0
   -3.9160   -0.3387   -0.4406 O   0  0  0  0  0  0  0  0  0  0  0  0
    4.3246    0.1523    0.2464 O   0  0  0  0  0  0  0  0  0  0  0  0
    0.6450    0.0219   -0.4651 C   0  0  1  0  0  0  0  0  0  0  0  0
    0.3307   -1.4857   -0.4492 C   0  0  2  0  0  0  0  0  0  0  0  0
   -0.6006    0.6147    0.1556 C   0  0  0  0  0  0  0  0  0  0  0  0
   -1.1945   -1.5856   -0.4445 C   0  0  0  0  0  0  0  0  0  0  0  0
   -1.6091   -0.2735    0.1599 C   0  0  0  0  0  0  0  0  0  0  0  0
    1.9479    0.3842    0.2402 C   0  0  0  0  0  0  0  0  0  0  0  0
   -0.6242    2.0388    0.5965 C   0  0  0  0  0  0  0  0  0  0  0  0
   -3.0126   -0.1036    0.6281 C   0  0  0  0  0  0  0  0  0  0  0  0
    3.1518   -0.2094   -0.4696 C   0  0  0  0  0  0  0  0  0  0  0  0
    0.6838    0.3719   -1.5063 H   0  0  0  0  0  0  0  0  0  0  0  0
    0.7692   -1.9994   -1.3113 H   0  0  0  0  0  0  0  0  0  0  0  0
   -1.5498   -2.4322    0.1514 H   0  0  0  0  0  0  0  0  0  0  0  0
   -1.5901   -1.6611   -1.4632 H   0  0  0  0  0  0  0  0  0  0  0  0
    1.9405    0.0791    1.2945 H   0  0  0  0  0  0  0  0  0  0  0  0
    2.0772    1.4740    0.2646 H   0  0  0  0  0  0  0  0  0  0  0  0
    0.0919    2.1986    1.4090 H   0  0  0  0  0  0  0  0  0  0  0  0
   -1.6073    2.3435    0.9634 H   0  0  0  0  0  0  0  0  0  0  0  0
   -3.2066    0.8973    1.0207 H   0  0  0  0  0  0  0  0  0  0  0  0
   -3.2249   -0.8231    1.4260 H   0  0  0  0  0  0  0  0  0  0  0  0
    3.1060   -1.3013   -0.5094 H   0  0  0  0  0  0  0  0  0  0  0  0
    3.2344    0.1785   -1.4900 H   0  0  0  0  0  0  0  0  0  0  0  0
    0.6121   -3.0482    0.6871 H   0  0  0  0  0  0  0  0  0  0  0  0
   -0.2902    3.8006   -0.1485 H   0  0  0  0  0  0  0  0  0  0  0  0
   -4.8150   -0.2447   -0.0819 H   0  0  0  0  0  0  0  0  0  0  0  0
    5.0801   -0.2315   -0.2306 H   0  0  0  0  0  0  0  0  0  0  0  0
  1  6  1  0  0  0  0
  1 26  1  0  0  0  0
  2 11  1  0  0  0  0
  2 27  1  0  0  0  0
  3 12  1  0  0  0  0
  3 28  1  0  0  0  0
  4 13  1  0  0  0  0
  4 29  1  0  0  0  0
  5  6  1  0  0  0  0
  5  7  1  0  0  0  0
  5 10  1  0  0  0  0
  5 14  1  0  0  0  0
  6  8  1  0  0  0  0
  6 15  1  0  0  0  0
  7  9  2  0  0  0  0
  7 11  1  0  0  0  0
  8  9  1  0  0  0  0
  8 16  1  0  0  0  0
  8 17  1  0  0  0  0
  9 12  1  0  0  0  0
 10 13  1  0  0  0  0
 10 18  1  0  0  0  0
 10 19  1  0  0  0  0
 11 20  1  0  0  0  0
 11 21  1  0  0  0  0
 12 22  1  0  0  0  0
 12 23  1  0  0  0  0
 13 24  1  0  0  0  0
 13 25  1  0  0  0  0
M  END
> <PUBCHEM_COMPOUND_CID>
101714787

> <PUBCHEM_CONFORMER_RMSD>
0.6

> <PUBCHEM_CONFORMER_DIVERSEORDER>
1
30
20
38
13
49
43
41
2
40
27
3
35
44
9
50
28
51
48
45
46
21
18
5
25
39
36
29
17
31
47
42
32
22
8
12
4
14
24
52
11
37
34
19
16
10
15
23
6
33
7
26

> <PUBCHEM_MMFF94_PARTIAL_CHARGES>
16
1 -0.68
11 0.42
12 0.42
13 0.28
2 -0.68
26 0.4
27 0.4
28 0.4
29 0.4
3 -0.68
4 -0.68
5 0.14
6 0.28
7 -0.28
8 0.14
9 -0.28

> <PUBCHEM_EFFECTIVE_ROTOR_COUNT>
4.6

> <PUBCHEM_PHARMACOPHORE_FEATURES>
9
1 1 acceptor
1 1 donor
1 2 acceptor
1 2 donor
1 3 acceptor
1 3 donor
1 4 acceptor
1 4 donor
5 5 6 7 8 9 rings

> <PUBCHEM_HEAVY_ATOM_COUNT>
13

> <PUBCHEM_ATOM_DEF_STEREO_COUNT>
2

> <PUBCHEM_ATOM_UDEF_STEREO_COUNT>
0

> <PUBCHEM_BOND_DEF_STEREO_COUNT>
0

> <PUBCHEM_BOND_UDEF_STEREO_COUNT>
0

> <PUBCHEM_ISOTOPIC_ATOM_COUNT>
0

> <PUBCHEM_COMPONENT_COUNT>
1

> <PUBCHEM_CACTVS_TAUTO_COUNT>
1

> <PUBCHEM_CONFORMER_ID>
06100B6300000001

> <PUBCHEM_MMFF94_ENERGY>
16.7019

> <PUBCHEM_FEATURE_SELFOVERLAP>
45.674

> <PUBCHEM_SHAPE_FINGERPRINT>
10219947 1 18411142458659642457
11132069 177 18201435904555442450
11680986 33 17908982450090957241
12032990 46 18340779216266896167
12423570 1 17341833453157968511
13024252 1 17894630374537357190
13380535 220 18124309673524601199
14614273 12 18263645052384025476
14993402 34 18343578568845070719
16945 1 17845953903632370435
17846911 113 18412823594858908666
193761 8 17834680400559690391
20510252 161 18272934873798935280
20511035 2 17697319873127231380
20588541 1 18272940426843404606
20645476 183 17679322998422070566
21501502 16 18050286968513149105
23402539 116 18272925029306371598
23402655 69 18198047098793747261
23419403 2 15040106917015848471
2748010 2 18125159587138107094
3250762 1 17764033462791946167
353137 74 18338515240072850368
43471831 8 18263363603557095642
528886 8 18342173392599832891
53655031 270 18409730629763290482
68250623 7 17902514791889230802

> <PUBCHEM_SHAPE_MULTIPOLES>
244.06
5.06
2.17
0.79
2.02
1.06
0.02
-0.47
0.11
-0.32
-0.07
-0.05
-0.03
-0.13

> <PUBCHEM_SHAPE_SELFOVERLAP>
487.025

> <PUBCHEM_SHAPE_VOLUME>
146.3

> <PUBCHEM_COORDINATE_TYPE>
2
5
10

$$$$
