44584096
  -OEChem-09082009463D

 53 55  0     1  0  0  0  0  0999 V2000
   -3.6584   -0.9053   -1.0136 O   0  0  0  0  0  0  0  0  0  0  0  0
   -4.1695    1.0076    0.9702 O   0  0  0  0  0  0  0  0  0  0  0  0
    0.3022   -0.5852    0.4108 O   0  0  0  0  0  0  0  0  0  0  0  0
   -0.2221    1.2535    1.7209 O   0  0  0  0  0  0  0  0  0  0  0  0
    2.1221    0.5874   -0.4592 O   0  0  0  0  0  0  0  0  0  0  0  0
    2.0888   -2.4053    1.6367 O   0  0  0  0  0  0  0  0  0  0  0  0
    4.6409   -2.5936    0.1764 O   0  0  0  0  0  0  0  0  0  0  0  0
    5.7392    0.0400   -0.2857 O   0  0  0  0  0  0  0  0  0  0  0  0
   -2.6666   -2.6379    0.1488 O   0  0  0  0  0  0  0  0  0  0  0  0
    2.9610    3.0926   -1.2178 O   0  0  0  0  0  0  0  0  0  0  0  0
   -1.9707    0.2163    0.2979 C   0  0  2  0  0  0  0  0  0  0  0  0
   -2.3898   -0.2452   -1.1201 C   0  0  2  0  0  0  0  0  0  0  0  0
   -2.8812    1.4465    0.5288 C   0  0  1  0  0  0  0  0  0  0  0  0
   -2.5849    1.0669   -1.8869 C   0  0  0  0  0  0  0  0  0  0  0  0
   -3.0529    2.0995   -0.8522 C   0  0  0  0  0  0  0  0  0  0  0  0
   -0.4865    0.6028    0.4690 C   0  0  2  0  0  0  0  0  0  0  0  0
   -1.4450   -1.1993   -1.8394 C   0  0  0  0  0  0  0  0  0  0  0  0
   -2.3361    2.3895    1.5516 C   0  0  0  0  0  0  0  0  0  0  0  0
    1.6901   -0.2952    0.5738 C   0  0  2  0  0  0  0  0  0  0  0  0
   -1.1186    2.2208    2.0750 C   0  0  0  0  0  0  0  0  0  0  0  0
    2.4577   -1.6154    0.5064 C   0  0  1  0  0  0  0  0  0  0  0  0
    3.9685   -1.3816    0.5221 C   0  0  2  0  0  0  0  0  0  0  0  0
    4.3732   -0.3107   -0.4911 C   0  0  1  0  0  0  0  0  0  0  0  0
    3.5018    0.9382   -0.3387 C   0  0  1  0  0  0  0  0  0  0  0  0
   -3.6430   -2.0958   -0.3510 C   0  0  0  0  0  0  0  0  0  0  0  0
    3.8083    1.9753   -1.4145 C   0  0  0  0  0  0  0  0  0  0  0  0
   -5.0283   -2.6665   -0.3182 C   0  0  0  0  0  0  0  0  0  0  0  0
   -2.2084   -0.5279    1.0664 H   0  0  0  0  0  0  0  0  0  0  0  0
   -1.6442    1.4132   -2.3313 H   0  0  0  0  0  0  0  0  0  0  0  0
   -3.3217    0.9694   -2.6917 H   0  0  0  0  0  0  0  0  0  0  0  0
   -4.0957    2.3766   -1.0467 H   0  0  0  0  0  0  0  0  0  0  0  0
   -2.4475    3.0076   -0.9618 H   0  0  0  0  0  0  0  0  0  0  0  0
   -0.1861    1.2818   -0.3395 H   0  0  0  0  0  0  0  0  0  0  0  0
   -1.0485   -2.0101   -1.2257 H   0  0  0  0  0  0  0  0  0  0  0  0
   -0.5678   -0.6628   -2.2203 H   0  0  0  0  0  0  0  0  0  0  0  0
   -1.9395   -1.6616   -2.7022 H   0  0  0  0  0  0  0  0  0  0  0  0
   -2.9610    3.2043    1.9049 H   0  0  0  0  0  0  0  0  0  0  0  0
   -4.7426    1.7880    1.0639 H   0  0  0  0  0  0  0  0  0  0  0  0
    1.8520    0.1680    1.5558 H   0  0  0  0  0  0  0  0  0  0  0  0
   -0.7250    2.8388    2.8694 H   0  0  0  0  0  0  0  0  0  0  0  0
    2.1657   -2.1832   -0.3850 H   0  0  0  0  0  0  0  0  0  0  0  0
    4.3137   -1.1176    1.5286 H   0  0  0  0  0  0  0  0  0  0  0  0
    4.2884   -0.7143   -1.5075 H   0  0  0  0  0  0  0  0  0  0  0  0
    3.6567    1.4104    0.6411 H   0  0  0  0  0  0  0  0  0  0  0  0
    4.8487    2.3102   -1.3650 H   0  0  0  0  0  0  0  0  0  0  0  0
    3.6038    1.5738   -2.4127 H   0  0  0  0  0  0  0  0  0  0  0  0
    2.3418   -1.9194    2.4401 H   0  0  0  0  0  0  0  0  0  0  0  0
    4.3409   -2.8643   -0.7081 H   0  0  0  0  0  0  0  0  0  0  0  0
   -5.3805   -2.8436   -1.3374 H   0  0  0  0  0  0  0  0  0  0  0  0
   -5.0148   -3.6204    0.2168 H   0  0  0  0  0  0  0  0  0  0  0  0
   -5.6984   -1.9819    0.2080 H   0  0  0  0  0  0  0  0  0  0  0  0
    5.8226    0.4121    0.6089 H   0  0  0  0  0  0  0  0  0  0  0  0
    3.1693    3.7372   -1.9153 H   0  0  0  0  0  0  0  0  0  0  0  0
  1 12  1  0  0  0  0
  1 25  1  0  0  0  0
  2 13  1  0  0  0  0
  2 38  1  0  0  0  0
  3 16  1  0  0  0  0
  3 19  1  0  0  0  0
  4 16  1  0  0  0  0
  4 20  1  0  0  0  0
  5 19  1  0  0  0  0
  5 24  1  0  0  0  0
  6 21  1  0  0  0  0
  6 47  1  0  0  0  0
  7 22  1  0  0  0  0
  7 48  1  0  0  0  0
  8 23  1  0  0  0  0
  8 52  1  0  0  0  0
  9 25  2  0  0  0  0
 10 26  1  0  0  0  0
 10 53  1  0  0  0  0
 11 12  1  0  0  0  0
 11 13  1  0  0  0  0
 11 16  1  0  0  0  0
 11 28  1  0  0  0  0
 12 14  1  0  0  0  0
 12 17  1  0  0  0  0
 13 15  1  0  0  0  0
 13 18  1  0  0  0  0
 14 15  1  0  0  0  0
 14 29  1  0  0  0  0
 14 30  1  0  0  0  0
 15 31  1  0  0  0  0
 15 32  1  0  0  0  0
 16 33  1  0  0  0  0
 17 34  1  0  0  0  0
 17 35  1  0  0  0  0
 17 36  1  0  0  0  0
 18 20  2  0  0  0  0
 18 37  1  0  0  0  0
 19 21  1  0  0  0  0
 19 39  1  0  0  0  0
 20 40  1  0  0  0  0
 21 22  1  0  0  0  0
 21 41  1  0  0  0  0
 22 23  1  0  0  0  0
 22 42  1  0  0  0  0
 23 24  1  0  0  0  0
 23 43  1  0  0  0  0
 24 26  1  0  0  0  0
 24 44  1  0  0  0  0
 25 27  1  0  0  0  0
 26 45  1  0  0  0  0
 26 46  1  0  0  0  0
 27 49  1  0  0  0  0
 27 50  1  0  0  0  0
 27 51  1  0  0  0  0
M  END
> <PUBCHEM_COMPOUND_CID>
44584096

> <PUBCHEM_CONFORMER_RMSD>
0.8

> <PUBCHEM_CONFORMER_DIVERSEORDER>
1
100
117
20
26
106
118
107
62
125
60
108
111
29
102
115
73
9
104
19
32
33
103
37
12
67
83
71
68
95
18
85
122
69
101
21
53
77
17
38
87
84
25
124
110
10
99
90
44
47
116
15
27
43
74
13
64
34
98
40
42
123
72
97
14
93
70
23
5
49
119
63
55
76
113
28
61
78
58
54
75
65
92
79
96
8
52
121
4
30
80
48
36
82
66
31
6
114
94
120
86
2
81
88
105
41
112
24
39
7
16
91
50
56
22
51
35
89
11
57
59
109
45
46
3

> <PUBCHEM_MMFF94_PARTIAL_CHARGES>
30
1 -0.43
10 -0.68
12 0.28
13 0.42
16 0.56
18 -0.29
19 0.56
2 -0.68
20 -0.07
21 0.28
22 0.28
23 0.28
24 0.28
25 0.66
26 0.28
27 0.06
3 -0.56
37 0.15
38 0.4
4 -0.36
40 0.15
47 0.4
48 0.4
5 -0.56
52 0.4
53 0.4
6 -0.68
7 -0.68
8 -0.68
9 -0.57

> <PUBCHEM_EFFECTIVE_ROTOR_COUNT>
7.2

> <PUBCHEM_PHARMACOPHORE_FEATURES>
17
1 10 acceptor
1 10 donor
1 2 acceptor
1 2 donor
1 3 acceptor
1 4 acceptor
1 5 acceptor
1 6 acceptor
1 6 donor
1 7 acceptor
1 7 donor
1 8 acceptor
1 8 donor
1 9 acceptor
5 11 12 13 14 15 rings
6 4 11 13 16 18 20 rings
6 5 19 21 22 23 24 rings

> <PUBCHEM_HEAVY_ATOM_COUNT>
27

> <PUBCHEM_ATOM_DEF_STEREO_COUNT>
9

> <PUBCHEM_ATOM_UDEF_STEREO_COUNT>
0

> <PUBCHEM_BOND_DEF_STEREO_COUNT>
0

> <PUBCHEM_BOND_UDEF_STEREO_COUNT>
0

> <PUBCHEM_ISOTOPIC_ATOM_COUNT>
0

> <PUBCHEM_COMPONENT_COUNT>
1

> <PUBCHEM_CACTVS_TAUTO_COUNT>
1

> <PUBCHEM_CONFORMER_ID>
02A84CA000000001

> <PUBCHEM_MMFF94_ENERGY>
87.6836

> <PUBCHEM_FEATURE_SELFOVERLAP>
86.529

> <PUBCHEM_SHAPE_FINGERPRINT>
10366900 7 16081364155288609076
11135609 187 17828488303429011317
11578080 2 17981009017702870880
12236239 1 18269557152260620952
12363563 72 16987978562261760861
12403814 3 18260552178374075405
12467345 10 18408886247708835734
12553582 1 17845925243547895185
12596599 1 18340213968848583918
12714826 92 17418374696715598531
12788726 201 18201727271063544443
12916754 54 18333446551693427471
13009979 54 18272090440431563554
13135754 10 17131015151406719995
13140716 1 17918268758175471273
13224815 77 18343577452026836834
13583140 156 17750526074398782377
13631057 29 18339076107205055626
13726171 33 17488204736057277040
16752209 62 17631436904599744655
17349148 13 18129378211791295396
17492 89 18343587313446581942
19319366 153 18123459751247911774
19930381 70 17825949496535907653
21709351 56 18260548914161546332
22182313 1 17843376691949438393
22393880 68 18334289847542961318
22907989 373 18341602725207385653
22950370 63 18199189662714800899
23227448 37 18335421223232445477
23557571 272 17847064393671302288
23559900 14 18339345431555203609
23598288 3 18130783417610856365
312423 11 18411423924941079582
329604 57 18339924938565690646
469060 322 17971762322164726313
474 4 18260557710286515744
497634 4 18335421257407574295
5104073 3 18201430351384736730
574716 61 18408323259554480044
59444896 2 17619678886926494185

> <PUBCHEM_SHAPE_MULTIPOLES>
496.95
10.13
3.27
1.68
7.19
0.33
0
3.62
1.86
-1.19
-0.41
-0.52
-0.82
-2.17

> <PUBCHEM_SHAPE_SELFOVERLAP>
1048.055

> <PUBCHEM_SHAPE_VOLUME>
273.9

> <PUBCHEM_COORDINATE_TYPE>
2
5
10

$$$$
