10044294
  -OEChem-09082011353D

 49 51  0     1  0  0  0  0  0999 V2000
   -4.4803   -0.5502    0.8829 O   0  0  0  0  0  0  0  0  0  0  0  0
   -3.3822   -2.2564   -1.1573 O   0  0  0  0  0  0  0  0  0  0  0  0
    0.2396   -1.0113    0.2824 O   0  0  0  0  0  0  0  0  0  0  0  0
   -0.6662    0.4590    1.8285 O   0  0  0  0  0  0  0  0  0  0  0  0
   -4.7764    1.6469   -0.7276 O   0  0  0  0  0  0  0  0  0  0  0  0
    1.7329    0.6611   -0.3635 O   0  0  0  0  0  0  0  0  0  0  0  0
    2.4111   -2.5453    1.2517 O   0  0  0  0  0  0  0  0  0  0  0  0
    4.9162   -1.9266   -0.1701 O   0  0  0  0  0  0  0  0  0  0  0  0
    5.3823    0.9261   -0.2049 O   0  0  0  0  0  0  0  0  0  0  0  0
    1.9707    3.3767   -0.7160 O   0  0  0  0  0  0  0  0  0  0  0  0
   -2.1570   -0.7351    0.2493 C   0  0  1  0  0  0  0  0  0  0  0  0
   -3.3119    0.2249    0.6143 C   0  0  1  0  0  0  0  0  0  0  0  0
   -2.4913   -1.1299   -1.2193 C   0  0  2  0  0  0  0  0  0  0  0  0
   -3.4935    1.0475   -0.6650 C   0  0  1  0  0  0  0  0  0  0  0  0
   -3.2819    0.0567   -1.8125 C   0  0  0  0  0  0  0  0  0  0  0  0
   -0.7956   -0.0519    0.4920 C   0  0  2  0  0  0  0  0  0  0  0  0
   -1.3218   -1.5408   -2.1063 C   0  0  0  0  0  0  0  0  0  0  0  0
   -2.9972    1.0616    1.8109 C   0  0  0  0  0  0  0  0  0  0  0  0
    1.5282   -0.4434    0.5146 C   0  0  2  0  0  0  0  0  0  0  0  0
   -1.7651    1.0991    2.3267 C   0  0  0  0  0  0  0  0  0  0  0  0
    2.5738   -1.5296    0.2622 C   0  0  1  0  0  0  0  0  0  0  0  0
    3.9924   -0.9654    0.3427 C   0  0  2  0  0  0  0  0  0  0  0  0
    4.1282    0.3109   -0.4878 C   0  0  1  0  0  0  0  0  0  0  0  0
    2.9991    1.2921   -0.1642 C   0  0  1  0  0  0  0  0  0  0  0  0
    3.0459    2.5233   -1.0636 C   0  0  0  0  0  0  0  0  0  0  0  0
   -2.2121   -1.6334    0.8819 H   0  0  0  0  0  0  0  0  0  0  0  0
   -2.7448    1.8470   -0.7305 H   0  0  0  0  0  0  0  0  0  0  0  0
   -4.2387   -0.2608   -2.2437 H   0  0  0  0  0  0  0  0  0  0  0  0
   -2.7217    0.5596   -2.6097 H   0  0  0  0  0  0  0  0  0  0  0  0
   -0.6691    0.7820   -0.2103 H   0  0  0  0  0  0  0  0  0  0  0  0
   -0.6005   -0.7295   -2.2428 H   0  0  0  0  0  0  0  0  0  0  0  0
   -0.8053   -2.4137   -1.6923 H   0  0  0  0  0  0  0  0  0  0  0  0
   -1.6768   -1.8405   -3.0995 H   0  0  0  0  0  0  0  0  0  0  0  0
   -3.7942    1.6265    2.2848 H   0  0  0  0  0  0  0  0  0  0  0  0
   -5.2370    0.0593    0.9302 H   0  0  0  0  0  0  0  0  0  0  0  0
   -3.6518   -2.4773   -2.0653 H   0  0  0  0  0  0  0  0  0  0  0  0
    1.5973   -0.1144    1.5598 H   0  0  0  0  0  0  0  0  0  0  0  0
   -1.5175    1.6435    3.2270 H   0  0  0  0  0  0  0  0  0  0  0  0
   -4.8486    2.0919   -1.5892 H   0  0  0  0  0  0  0  0  0  0  0  0
    2.4140   -2.0036   -0.7143 H   0  0  0  0  0  0  0  0  0  0  0  0
    4.2829   -0.7799    1.3841 H   0  0  0  0  0  0  0  0  0  0  0  0
    4.1189    0.0437   -1.5525 H   0  0  0  0  0  0  0  0  0  0  0  0
    3.0609    1.6314    0.8788 H   0  0  0  0  0  0  0  0  0  0  0  0
    2.9314    2.2541   -2.1188 H   0  0  0  0  0  0  0  0  0  0  0  0
    3.9749    3.0862   -0.9411 H   0  0  0  0  0  0  0  0  0  0  0  0
    1.4982   -2.8738    1.1840 H   0  0  0  0  0  0  0  0  0  0  0  0
    4.8019   -2.7428    0.3462 H   0  0  0  0  0  0  0  0  0  0  0  0
    5.5564    1.5811   -0.9013 H   0  0  0  0  0  0  0  0  0  0  0  0
    1.1469    2.8708   -0.8228 H   0  0  0  0  0  0  0  0  0  0  0  0
  1 12  1  0  0  0  0
  1 35  1  0  0  0  0
  2 13  1  0  0  0  0
  2 36  1  0  0  0  0
  3 16  1  0  0  0  0
  3 19  1  0  0  0  0
  4 16  1  0  0  0  0
  4 20  1  0  0  0  0
  5 14  1  0  0  0  0
  5 39  1  0  0  0  0
  6 19  1  0  0  0  0
  6 24  1  0  0  0  0
  7 21  1  0  0  0  0
  7 46  1  0  0  0  0
  8 22  1  0  0  0  0
  8 47  1  0  0  0  0
  9 23  1  0  0  0  0
  9 48  1  0  0  0  0
 10 25  1  0  0  0  0
 10 49  1  0  0  0  0
 11 12  1  0  0  0  0
 11 13  1  0  0  0  0
 11 16  1  0  0  0  0
 11 26  1  0  0  0  0
 12 14  1  0  0  0  0
 12 18  1  0  0  0  0
 13 15  1  0  0  0  0
 13 17  1  0  0  0  0
 14 15  1  0  0  0  0
 14 27  1  0  0  0  0
 15 28  1  0  0  0  0
 15 29  1  0  0  0  0
 16 30  1  0  0  0  0
 17 31  1  0  0  0  0
 17 32  1  0  0  0  0
 17 33  1  0  0  0  0
 18 20  2  0  0  0  0
 18 34  1  0  0  0  0
 19 21  1  0  0  0  0
 19 37  1  0  0  0  0
 20 38  1  0  0  0  0
 21 22  1  0  0  0  0
 21 40  1  0  0  0  0
 22 23  1  0  0  0  0
 22 41  1  0  0  0  0
 23 24  1  0  0  0  0
 23 42  1  0  0  0  0
 24 25  1  0  0  0  0
 24 43  1  0  0  0  0
 25 44  1  0  0  0  0
 25 45  1  0  0  0  0
M  END
> <PUBCHEM_COMPOUND_CID>
10044294

> <PUBCHEM_CONFORMER_RMSD>
0.8

> <PUBCHEM_CONFORMER_DIVERSEORDER>
1
24
61
41
60
45
35
54
10
20
53
21
22
2
49
17
34
38
28
55
46
58
50
3
52
56
57
40
63
62
48
33
18
37
12
43
39
59
4
31
36
44
5
15
30
14
7
16
25
32
19
27
6
42
51
29
11
26
13
47
23
8
9

> <PUBCHEM_MMFF94_PARTIAL_CHARGES>
31
1 -0.68
10 -0.68
12 0.42
13 0.28
14 0.28
16 0.56
18 -0.29
19 0.56
2 -0.68
20 -0.07
21 0.28
22 0.28
23 0.28
24 0.28
25 0.28
3 -0.56
34 0.15
35 0.4
36 0.4
38 0.15
39 0.4
4 -0.36
46 0.4
47 0.4
48 0.4
49 0.4
5 -0.68
6 -0.56
7 -0.68
8 -0.68
9 -0.68

> <PUBCHEM_EFFECTIVE_ROTOR_COUNT>
5.2

> <PUBCHEM_PHARMACOPHORE_FEATURES>
20
1 1 acceptor
1 1 donor
1 10 acceptor
1 10 donor
1 2 acceptor
1 2 donor
1 3 acceptor
1 4 acceptor
1 5 acceptor
1 5 donor
1 6 acceptor
1 7 acceptor
1 7 donor
1 8 acceptor
1 8 donor
1 9 acceptor
1 9 donor
5 11 12 13 14 15 rings
6 4 11 12 16 18 20 rings
6 6 19 21 22 23 24 rings

> <PUBCHEM_HEAVY_ATOM_COUNT>
25

> <PUBCHEM_ATOM_DEF_STEREO_COUNT>
9

> <PUBCHEM_ATOM_UDEF_STEREO_COUNT>
1

> <PUBCHEM_BOND_DEF_STEREO_COUNT>
0

> <PUBCHEM_BOND_UDEF_STEREO_COUNT>
0

> <PUBCHEM_ISOTOPIC_ATOM_COUNT>
0

> <PUBCHEM_COMPONENT_COUNT>
1

> <PUBCHEM_CACTVS_TAUTO_COUNT>
1

> <PUBCHEM_CONFORMER_ID>
0099438600000001

> <PUBCHEM_MMFF94_ENERGY>
84.4736

> <PUBCHEM_FEATURE_SELFOVERLAP>
101.761

> <PUBCHEM_SHAPE_FINGERPRINT>
10366900 7 16515687749076022419
10369192 42 16230022671835203724
11578080 2 17984670421287500840
11640471 11 18271253797460120700
12236239 1 18272654527944760763
12507557 5 18335138695867544744
12553582 1 17275101734783976603
12596599 1 18272663337249583372
12714826 92 16630531768889200675
12788726 201 17131559349337702897
13009979 54 18131357380055856882
13134695 92 18114177502529582124
13140716 1 17131542951432284275
13224815 77 17846498161946284898
13583140 156 18187373108071260867
13726171 33 16771005468806058497
14115302 16 17988351607591104907
16752209 62 17274535426129186883
17349148 13 17775287136121939804
1813 80 18123765162393861046
18186145 218 18259700108027532386
18219364 16 17749394810056570888
18335252 114 18118388567761567197
19862831 5 18131349717427745760
19930381 70 17755304813979330069
20511986 3 18200861929605907056
20600515 1 16558746832064517762
20645476 183 18342170085902387103
20645477 70 18113338575142213202
21033648 29 17385721426232581148
21033650 10 16055783995672368296
21709351 56 18335983155484267988
23227448 37 18335703866566964951
23419403 2 15434826261728514087
23557571 272 15410629055432071296
23598291 2 18343023268138674198
2838139 119 18043800997431177461
4409770 3 15173356271271782527
469060 322 17396151595417843355
474 4 18335426815548883640
5281201 14 18186522115861703316
574716 61 18412825819625613828
6287921 2 17678186103129827644
633830 44 17603864507339318784
7615 1 18201445800128658432
9971528 1 18411697665467530576
9981440 41 17550377884339727984

> <PUBCHEM_SHAPE_MULTIPOLES>
455.8
9.86
2.49
1.78
4.8
0.56
0.21
0.49
-1.34
1.57
-0.63
-1.61
0.18
-1.95

> <PUBCHEM_SHAPE_SELFOVERLAP>
962.666

> <PUBCHEM_SHAPE_VOLUME>
251.3

> <PUBCHEM_COORDINATE_TYPE>
2
5
10

$$$$
