91520
  -OEChem-09082010313D

 47 50  0     1  0  0  0  0  0999 V2000
   -3.8407   -1.5314   -1.0708 O   0  0  0  0  0  0  0  0  0  0  0  0
   -5.2213    1.1602   -0.6681 O   0  0  0  0  0  0  0  0  0  0  0  0
   -0.7172    0.9307    1.8436 O   0  0  0  0  0  0  0  0  0  0  0  0
    0.1432   -0.8290    0.5784 O   0  0  0  0  0  0  0  0  0  0  0  0
   -1.1385   -3.0689   -0.8059 O   0  0  0  0  0  0  0  0  0  0  0  0
    1.6075    0.6716   -0.4452 O   0  0  0  0  0  0  0  0  0  0  0  0
    2.3548   -2.1679    1.7292 O   0  0  0  0  0  0  0  0  0  0  0  0
    4.7933   -1.8611    0.1044 O   0  0  0  0  0  0  0  0  0  0  0  0
    5.2606    0.9260   -0.5034 O   0  0  0  0  0  0  0  0  0  0  0  0
    1.8322    3.2653   -1.3278 O   0  0  0  0  0  0  0  0  0  0  0  0
   -2.4969   -1.1037   -0.8087 C   0  0  1  0  0  0  0  0  0  0  0  0
   -3.4638   -0.2200   -1.5086 C   0  0  2  0  0  0  0  0  0  0  0  0
   -2.2379   -0.5553    0.5732 C   0  0  2  0  0  0  0  0  0  0  0  0
   -3.4150    0.4290    0.8136 C   0  0  2  0  0  0  0  0  0  0  0  0
   -3.8264    0.9128   -0.5981 C   0  0  2  0  0  0  0  0  0  0  0  0
   -0.8814    0.1642    0.6439 C   0  0  1  0  0  0  0  0  0  0  0  0
   -1.4875   -1.8941   -1.5456 C   0  0  0  0  0  0  0  0  0  0  0  0
   -3.0437    1.5448    1.7343 C   0  0  0  0  0  0  0  0  0  0  0  0
   -1.7965    1.6936    2.1913 C   0  0  0  0  0  0  0  0  0  0  0  0
    1.4417   -0.2398    0.6385 C   0  0  2  0  0  0  0  0  0  0  0  0
    2.4734   -1.3646    0.5553 C   0  0  1  0  0  0  0  0  0  0  0  0
    3.8948   -0.8096    0.4617 C   0  0  2  0  0  0  0  0  0  0  0  0
    2.8821    1.3168   -0.4286 C   0  0  1  0  0  0  0  0  0  0  0  0
    3.9942    0.2803   -0.6056 C   0  0  1  0  0  0  0  0  0  0  0  0
    2.8893    2.3500   -1.5508 C   0  0  0  0  0  0  0  0  0  0  0  0
   -3.3809   -0.0012   -2.5598 H   0  0  0  0  0  0  0  0  0  0  0  0
   -2.2709   -1.3630    1.3156 H   0  0  0  0  0  0  0  0  0  0  0  0
   -4.2518   -0.1221    1.2652 H   0  0  0  0  0  0  0  0  0  0  0  0
   -3.2877    1.8222   -0.8892 H   0  0  0  0  0  0  0  0  0  0  0  0
   -0.7822    0.8430   -0.2147 H   0  0  0  0  0  0  0  0  0  0  0  0
   -0.5779   -1.3207   -1.7445 H   0  0  0  0  0  0  0  0  0  0  0  0
   -1.8650   -2.2242   -2.5204 H   0  0  0  0  0  0  0  0  0  0  0  0
   -3.8258    2.2137    2.0798 H   0  0  0  0  0  0  0  0  0  0  0  0
   -5.4242    1.4330   -1.5792 H   0  0  0  0  0  0  0  0  0  0  0  0
   -1.5201    2.4394    2.9231 H   0  0  0  0  0  0  0  0  0  0  0  0
    1.5536    0.2887    1.5943 H   0  0  0  0  0  0  0  0  0  0  0  0
   -1.9523   -3.5883   -0.6882 H   0  0  0  0  0  0  0  0  0  0  0  0
    2.2635   -2.0189   -0.2992 H   0  0  0  0  0  0  0  0  0  0  0  0
    4.2299   -0.4330    1.4360 H   0  0  0  0  0  0  0  0  0  0  0  0
    2.9918    1.8509    0.5251 H   0  0  0  0  0  0  0  0  0  0  0  0
    3.9359   -0.1877   -1.5970 H   0  0  0  0  0  0  0  0  0  0  0  0
    2.7267    1.8827   -2.5276 H   0  0  0  0  0  0  0  0  0  0  0  0
    3.8236    2.9166   -1.5812 H   0  0  0  0  0  0  0  0  0  0  0  0
    2.5421   -1.6056    2.5000 H   0  0  0  0  0  0  0  0  0  0  0  0
    5.6830   -1.4740    0.0381 H   0  0  0  0  0  0  0  0  0  0  0  0
    5.4040    1.4312   -1.3211 H   0  0  0  0  0  0  0  0  0  0  0  0
    1.0038    2.7566   -1.2975 H   0  0  0  0  0  0  0  0  0  0  0  0
  1 11  1  0  0  0  0
  1 12  1  0  0  0  0
  2 15  1  0  0  0  0
  2 34  1  0  0  0  0
  3 16  1  0  0  0  0
  3 19  1  0  0  0  0
  4 16  1  0  0  0  0
  4 20  1  0  0  0  0
  5 17  1  0  0  0  0
  5 37  1  0  0  0  0
  6 20  1  0  0  0  0
  6 23  1  0  0  0  0
  7 21  1  0  0  0  0
  7 44  1  0  0  0  0
  8 22  1  0  0  0  0
  8 45  1  0  0  0  0
  9 24  1  0  0  0  0
  9 46  1  0  0  0  0
 10 25  1  0  0  0  0
 10 47  1  0  0  0  0
 11 12  1  0  0  0  0
 11 13  1  0  0  0  0
 11 17  1  0  0  0  0
 12 15  1  0  0  0  0
 12 26  1  0  0  0  0
 13 14  1  0  0  0  0
 13 16  1  0  0  0  0
 13 27  1  0  0  0  0
 14 15  1  0  0  0  0
 14 18  1  0  0  0  0
 14 28  1  0  0  0  0
 15 29  1  0  0  0  0
 16 30  1  0  0  0  0
 17 31  1  0  0  0  0
 17 32  1  0  0  0  0
 18 19  2  0  0  0  0
 18 33  1  0  0  0  0
 19 35  1  0  0  0  0
 20 21  1  0  0  0  0
 20 36  1  0  0  0  0
 21 22  1  0  0  0  0
 21 38  1  0  0  0  0
 22 24  1  0  0  0  0
 22 39  1  0  0  0  0
 23 24  1  0  0  0  0
 23 25  1  0  0  0  0
 23 40  1  0  0  0  0
 24 41  1  0  0  0  0
 25 42  1  0  0  0  0
 25 43  1  0  0  0  0
M  END
> <PUBCHEM_COMPOUND_CID>
91520

> <PUBCHEM_CONFORMER_RMSD>
0.8

> <PUBCHEM_CONFORMER_DIVERSEORDER>
1
46
25
32
51
59
27
33
6
7
50
11
60
64
31
24
48
9
28
42
55
39
37
63
4
22
45
29
3
19
61
38
17
53
58
2
10
54
26
35
43
5
16
23
40
21
41
49
12
44
56
36
13
15
14
47
57
34
20
18
62
30
52
8

> <PUBCHEM_MMFF94_PARTIAL_CHARGES>
34
1 -0.3
10 -0.68
11 -0.04
12 -0.05
13 0.09
14 0.14
15 0.38
16 0.56
17 0.38
18 -0.29
19 -0.07
2 -0.68
20 0.56
21 0.28
22 0.28
23 0.28
24 0.28
25 0.28
26 0.1
3 -0.36
33 0.15
34 0.4
35 0.15
37 0.4
4 -0.56
44 0.4
45 0.4
46 0.4
47 0.4
5 -0.68
6 -0.56
7 -0.68
8 -0.68
9 -0.68

> <PUBCHEM_EFFECTIVE_ROTOR_COUNT>
6

> <PUBCHEM_PHARMACOPHORE_FEATURES>
19
1 1 acceptor
1 10 acceptor
1 10 donor
1 2 acceptor
1 2 donor
1 3 acceptor
1 4 acceptor
1 5 acceptor
1 5 donor
1 6 acceptor
1 7 acceptor
1 7 donor
1 8 acceptor
1 8 donor
1 9 acceptor
1 9 donor
6 1 11 12 13 14 15 rings
6 3 13 14 16 18 19 rings
6 6 20 21 22 23 24 rings

> <PUBCHEM_HEAVY_ATOM_COUNT>
25

> <PUBCHEM_ATOM_DEF_STEREO_COUNT>
11

> <PUBCHEM_ATOM_UDEF_STEREO_COUNT>
0

> <PUBCHEM_BOND_DEF_STEREO_COUNT>
0

> <PUBCHEM_BOND_UDEF_STEREO_COUNT>
0

> <PUBCHEM_ISOTOPIC_ATOM_COUNT>
0

> <PUBCHEM_COMPONENT_COUNT>
1

> <PUBCHEM_CACTVS_TAUTO_COUNT>
1

> <PUBCHEM_CONFORMER_ID>
0001658000000001

> <PUBCHEM_MMFF94_ENERGY>
69.3735

> <PUBCHEM_FEATURE_SELFOVERLAP>
96.583

> <PUBCHEM_SHAPE_FINGERPRINT>
10366900 7 16587737633700518327
10369192 42 15578695064620837212
11578080 2 18125407913927324456
11640471 11 18339091465775685844
12236239 1 18413108333915812339
12363563 72 16486972942202187081
12553582 1 17704072927827438595
12788726 201 17703796894679891225
13134695 92 17822287942979875404
13583140 156 17967543363126133139
14115302 16 18273206508672955795
16752209 62 17774716472644748803
17349148 13 18060138734500514758
1813 80 17975978657579714570
18186145 218 16660358186350360833
18219364 16 17313675948392048536
18335252 114 18116136793749243389
19862831 5 18343301478607813537
19930381 70 17463981520261301765
20511986 3 18341597244755236316
20600515 1 17203027626396271129
20645476 183 18410569617650181511
20715895 44 18124871266712053373
21033648 29 16732985348796954372
21033650 10 16772420373088950232
23557571 272 15984833605322011096
23559900 14 17417799673751448840
23598291 2 18339646646507698114
2838139 119 17824527592553348301
469060 322 17321002157634550401
474 4 18187652444122635512
513202 73 17468752993010444338
574716 61 18409167744334579460
7615 1 18343028799946022160
9971528 1 18408037395490425456
9981440 41 17618780705963990304

> <PUBCHEM_SHAPE_MULTIPOLES>
455.8
9.46
2.67
1.78
3.66
0.07
-0.32
-0.9
2.04
0.73
0.63
-0.69
-0.59
-2.66

> <PUBCHEM_SHAPE_SELFOVERLAP>
973.131

> <PUBCHEM_SHAPE_VOLUME>
250

> <PUBCHEM_COORDINATE_TYPE>
2
5
10

$$$$
