77520393
  -OEChem-09082009233D

 33 34  0     0  0  0  0  0  0999 V2000
    4.7670   -1.0811   -1.2387 O   0  0  0  0  0  0  0  0  0  0  0  0
    5.2342   -1.4908    1.0116 O   0  0  0  0  0  0  0  0  0  0  0  0
    2.9215    2.4288   -0.3763 O   0  0  0  0  0  0  0  0  0  0  0  0
   -2.0935    2.3242   -0.2555 O   0  0  0  0  0  0  0  0  0  0  0  0
    4.2983   -0.9107    0.0988 C   0  0  0  0  0  0  0  0  0  0  0  0
    4.2045    0.5826    0.4489 C   0  0  0  0  0  0  0  0  0  0  0  0
    2.9291    1.2489   -0.0310 C   0  0  0  0  0  0  0  0  0  0  0  0
    1.6809    0.4253    0.0178 C   0  0  0  0  0  0  0  0  0  0  0  0
    2.9803   -1.6290    0.2010 C   0  0  0  0  0  0  0  0  0  0  0  0
    1.7954   -1.0046    0.1808 C   0  0  0  0  0  0  0  0  0  0  0  0
    0.4986    1.0495   -0.0755 C   0  0  0  0  0  0  0  0  0  0  0  0
   -0.7685    0.3559   -0.0209 C   0  0  0  0  0  0  0  0  0  0  0  0
   -1.9689    0.9548   -0.1116 C   0  0  0  0  0  0  0  0  0  0  0  0
   -3.2250    0.1855   -0.0414 C   0  0  0  0  0  0  0  0  0  0  0  0
   -3.4856   -0.8118   -0.9812 C   0  0  0  0  0  0  0  0  0  0  0  0
   -4.1526    0.4550    0.9649 C   0  0  0  0  0  0  0  0  0  0  0  0
   -4.6737   -1.5396   -0.9147 C   0  0  0  0  0  0  0  0  0  0  0  0
   -5.3407   -0.2728    1.0314 C   0  0  0  0  0  0  0  0  0  0  0  0
   -5.6012   -1.2700    0.0916 C   0  0  0  0  0  0  0  0  0  0  0  0
    5.0514    1.1156   -0.0010 H   0  0  0  0  0  0  0  0  0  0  0  0
    4.2570    0.7379    1.5343 H   0  0  0  0  0  0  0  0  0  0  0  0
    3.0007   -2.7129    0.2857 H   0  0  0  0  0  0  0  0  0  0  0  0
    0.9277   -1.6455    0.2650 H   0  0  0  0  0  0  0  0  0  0  0  0
    0.4586    2.1297   -0.1901 H   0  0  0  0  0  0  0  0  0  0  0  0
    5.9437   -0.8466    1.1741 H   0  0  0  0  0  0  0  0  0  0  0  0
    4.4890   -1.9539   -1.5641 H   0  0  0  0  0  0  0  0  0  0  0  0
   -0.7823   -0.7202    0.1050 H   0  0  0  0  0  0  0  0  0  0  0  0
   -2.7777   -1.0334   -1.7763 H   0  0  0  0  0  0  0  0  0  0  0  0
   -3.9640    1.2271    1.7069 H   0  0  0  0  0  0  0  0  0  0  0  0
   -4.8773   -2.3154   -1.6471 H   0  0  0  0  0  0  0  0  0  0  0  0
   -6.0628   -0.0634    1.8151 H   0  0  0  0  0  0  0  0  0  0  0  0
   -6.5264   -1.8365    0.1433 H   0  0  0  0  0  0  0  0  0  0  0  0
   -3.0365    2.5397   -0.3563 H   0  0  0  0  0  0  0  0  0  0  0  0
  1  5  1  0  0  0  0
  1 26  1  0  0  0  0
  2  5  1  0  0  0  0
  2 25  1  0  0  0  0
  3  7  2  0  0  0  0
  4 13  1  0  0  0  0
  4 33  1  0  0  0  0
  5  6  1  0  0  0  0
  5  9  1  0  0  0  0
  6  7  1  0  0  0  0
  6 20  1  0  0  0  0
  6 21  1  0  0  0  0
  7  8  1  0  0  0  0
  8 10  1  0  0  0  0
  8 11  2  0  0  0  0
  9 10  2  0  0  0  0
  9 22  1  0  0  0  0
 10 23  1  0  0  0  0
 11 12  1  0  0  0  0
 11 24  1  0  0  0  0
 12 13  2  0  0  0  0
 12 27  1  0  0  0  0
 13 14  1  0  0  0  0
 14 15  2  0  0  0  0
 14 16  1  0  0  0  0
 15 17  1  0  0  0  0
 15 28  1  0  0  0  0
 16 18  2  0  0  0  0
 16 29  1  0  0  0  0
 17 19  2  0  0  0  0
 17 30  1  0  0  0  0
 18 19  1  0  0  0  0
 18 31  1  0  0  0  0
 19 32  1  0  0  0  0
M  END
> <PUBCHEM_COMPOUND_CID>
77520393

> <PUBCHEM_CONFORMER_RMSD>
0.6

> <PUBCHEM_CONFORMER_DIVERSEORDER>
1
5
6
2
3
4

> <PUBCHEM_MMFF94_PARTIAL_CHARGES>
31
1 -0.68
10 -0.15
11 -0.15
12 -0.15
13 0.05
14 0.03
15 -0.15
16 -0.15
17 -0.15
18 -0.15
19 -0.15
2 -0.68
22 0.15
23 0.15
24 0.15
25 0.4
26 0.4
27 0.15
28 0.15
29 0.15
3 -0.57
30 0.15
31 0.15
32 0.15
33 0.45
4 -0.53
5 0.7
6 0.06
7 0.49
8 0.01
9 -0.29

> <PUBCHEM_EFFECTIVE_ROTOR_COUNT>
2.4

> <PUBCHEM_PHARMACOPHORE_FEATURES>
8
1 1 acceptor
1 1 donor
1 2 acceptor
1 2 donor
1 3 acceptor
1 4 donor
6 14 15 16 17 18 19 rings
6 5 6 7 8 9 10 rings

> <PUBCHEM_HEAVY_ATOM_COUNT>
19

> <PUBCHEM_ATOM_DEF_STEREO_COUNT>
0

> <PUBCHEM_ATOM_UDEF_STEREO_COUNT>
0

> <PUBCHEM_BOND_DEF_STEREO_COUNT>
2

> <PUBCHEM_BOND_UDEF_STEREO_COUNT>
0

> <PUBCHEM_ISOTOPIC_ATOM_COUNT>
0

> <PUBCHEM_COMPONENT_COUNT>
1

> <PUBCHEM_CACTVS_TAUTO_COUNT>
9

> <PUBCHEM_CONFORMER_ID>
049EDE0900000001

> <PUBCHEM_MMFF94_ENERGY>
43.8581

> <PUBCHEM_FEATURE_SELFOVERLAP>
40.683

> <PUBCHEM_SHAPE_FINGERPRINT>
10366900 7 17894921715169868232
10912923 1 18131075982383204737
11405975 8 18338515240447988153
11806522 49 18335137579392143556
12107183 9 17767414478538411419
12236239 1 18201722881838900907
12596602 18 17060338547867527251
12616971 3 18343023311214804783
12916754 54 18411136931010845937
13167823 11 18343302582783738663
13544653 18 18261112997838965317
13551218 46 18273500057230510399
13675066 3 16845571976590070844
13955234 65 18337389473827576248
1420 369 18410856572820188095
14341114 176 18272938202066026592
14350574 20 18187087247558355358
14576447 43 18335421240771159846
14849402 71 17987228010457523888
15188451 53 16056303034454999631
15196674 1 18411698803137978853
15238133 3 16773811268124706993
15788980 27 18334011688038357829
15880784 105 18131635612200383851
17349148 13 17967816041556101736
17834072 33 18341614840871984833
17844677 252 18334577940848451893
17857418 61 18412257342012527959
1813 80 18260558818124269557
18222031 100 17458061573336446884
19050596 39 18202563986216072041
193927 3 18336273383235231331
200 152 18408882945269472409
20028762 73 18343014506279744950
20281475 54 18271522100194069181
20645477 70 18261110798588622464
21065198 48 18272938249748724753
21267235 1 18411144627454843502
22646028 1 18412542110996883689
22950370 63 18342461473694998745
23402539 116 18259982652551085993
23522609 53 18122378784967529836
23559900 14 18041562558500756393
239999 70 18343588443212358582
2871803 45 18114175341659930707
29717793 49 18272647957114218573
312423 11 18338248110377144437
314194 84 18268993257957635323
351380 3 18408885131302623363
4214541 1 18411699846931498585
42630746 31 18410292558226788072
465052 167 18411705378801909798
5104073 3 18343021107754378785
5281201 14 17894628166713450413
573450 72 17846500344422466107
5924683 9 15841256152142550503
602551 16 15984531334044789319
9709674 26 18408609149388598267

> <PUBCHEM_SHAPE_MULTIPOLES>
367.53
13.5
1.95
0.94
3.71
0.5
0
-5.79
-1.36
-0.94
0.23
0.34
-0.2
-0.69

> <PUBCHEM_SHAPE_SELFOVERLAP>
784.019

> <PUBCHEM_SHAPE_VOLUME>
201.3

> <PUBCHEM_COORDINATE_TYPE>
2
5
10

$$$$
