287064
  -OEChem-09082011053D

 20 20  0     0  0  0  0  0  0999 V2000
    2.7555   -0.7309    0.0006 O   0  0  0  0  0  0  0  0  0  0  0  0
   -2.7035    1.7665    0.0009 O   0  0  0  0  0  0  0  0  0  0  0  0
   -3.5199   -0.8899    0.0005 O   0  0  0  0  0  0  0  0  0  0  0  0
    2.3735    1.5297   -0.0004 O   0  0  0  0  0  0  0  0  0  0  0  0
    0.5241    0.0504   -0.0011 C   0  0  0  0  0  0  0  0  0  0  0  0
   -0.4256    1.0721   -0.0006 C   0  0  0  0  0  0  0  0  0  0  0  0
    0.1141   -1.2829   -0.0009 C   0  0  0  0  0  0  0  0  0  0  0  0
   -1.7853    0.7604    0.0001 C   0  0  0  0  0  0  0  0  0  0  0  0
   -2.1951   -0.5729    0.0003 C   0  0  0  0  0  0  0  0  0  0  0  0
   -1.2455   -1.5946   -0.0001 C   0  0  0  0  0  0  0  0  0  0  0  0
    1.9417    0.3751   -0.0002 C   0  0  0  0  0  0  0  0  0  0  0  0
    4.1659   -0.4829    0.0012 C   0  0  0  0  0  0  0  0  0  0  0  0
   -0.1220    2.1163   -0.0006 H   0  0  0  0  0  0  0  0  0  0  0  0
    0.8216   -2.1073   -0.0010 H   0  0  0  0  0  0  0  0  0  0  0  0
   -1.5515   -2.6374    0.0000 H   0  0  0  0  0  0  0  0  0  0  0  0
   -3.5920    1.3698    0.0015 H   0  0  0  0  0  0  0  0  0  0  0  0
   -3.6140   -1.8580    0.0004 H   0  0  0  0  0  0  0  0  0  0  0  0
    4.4529    0.0685   -0.8992 H   0  0  0  0  0  0  0  0  0  0  0  0
    4.6804   -1.4473    0.0017 H   0  0  0  0  0  0  0  0  0  0  0  0
    4.4520    0.0691    0.9015 H   0  0  0  0  0  0  0  0  0  0  0  0
  1 11  1  0  0  0  0
  1 12  1  0  0  0  0
  2  8  1  0  0  0  0
  2 16  1  0  0  0  0
  3  9  1  0  0  0  0
  3 17  1  0  0  0  0
  4 11  2  0  0  0  0
  5  6  2  0  0  0  0
  5  7  1  0  0  0  0
  5 11  1  0  0  0  0
  6  8  1  0  0  0  0
  6 13  1  0  0  0  0
  7 10  2  0  0  0  0
  7 14  1  0  0  0  0
  8  9  2  0  0  0  0
  9 10  1  0  0  0  0
 10 15  1  0  0  0  0
 12 18  1  0  0  0  0
 12 19  1  0  0  0  0
 12 20  1  0  0  0  0
M  END
> <PUBCHEM_COMPOUND_CID>
287064

> <PUBCHEM_CONFORMER_RMSD>
0.6

> <PUBCHEM_CONFORMER_DIVERSEORDER>
1
3
4
2

> <PUBCHEM_MMFF94_PARTIAL_CHARGES>
17
1 -0.43
10 -0.15
11 0.63
12 0.28
13 0.15
14 0.15
15 0.15
16 0.45
17 0.45
2 -0.53
3 -0.53
4 -0.57
5 0.09
6 -0.15
7 -0.15
8 0.08
9 0.08

> <PUBCHEM_EFFECTIVE_ROTOR_COUNT>
2

> <PUBCHEM_PHARMACOPHORE_FEATURES>
4
1 2 donor
1 3 donor
1 4 acceptor
6 5 6 7 8 9 10 rings

> <PUBCHEM_HEAVY_ATOM_COUNT>
12

> <PUBCHEM_ATOM_DEF_STEREO_COUNT>
0

> <PUBCHEM_ATOM_UDEF_STEREO_COUNT>
0

> <PUBCHEM_BOND_DEF_STEREO_COUNT>
0

> <PUBCHEM_BOND_UDEF_STEREO_COUNT>
0

> <PUBCHEM_ISOTOPIC_ATOM_COUNT>
0

> <PUBCHEM_COMPONENT_COUNT>
1

> <PUBCHEM_CACTVS_TAUTO_COUNT>
12

> <PUBCHEM_CONFORMER_ID>
0004615800000001

> <PUBCHEM_MMFF94_ENERGY>
31.9574

> <PUBCHEM_FEATURE_SELFOVERLAP>
20.301

> <PUBCHEM_SHAPE_FINGERPRINT>
10608611 8 18341045298312991560
12032990 46 18336270162294875363
12932764 1 17560517421171464476
13024252 1 13551188888081650087
13380535 76 18267302041354029031
14144814 61 18408882915204662442
14325111 11 18410855460312979488
15219456 202 18059020466692853230
15775835 57 18187931612369501200
16945 1 18338799034511346375
193761 8 17834394514862563279
19973954 147 18338237175485087876
20201158 50 18343867705959216718
20510252 161 18272652346122603609
20871998 184 18200880698312466231
21501502 16 18340209686486744476
23402539 116 18272078410101638535
23402655 69 18125141755389261453
23463225 33 18335701607356151270
23552423 10 18188490297573384862
23559900 14 18272087146682322618
2748010 2 18410853274085007165
369184 2 18271525389674644835
5084963 1 18272089409011632507
6333449 129 18412260606219204573
7364860 26 18269837691483288392

> <PUBCHEM_SHAPE_MULTIPOLES>
223.48
5.62
1.64
0.58
3.34
0.18
0
-0.35
0
-0.66
0
0.01
-0.02
0

> <PUBCHEM_SHAPE_SELFOVERLAP>
469.165

> <PUBCHEM_SHAPE_VOLUME>
126.6

> <PUBCHEM_COORDINATE_TYPE>
2
5
10

$$$$
