102044905
  -OEChem-09082006533D

 38 40  0     1  0  0  0  0  0999 V2000
   -0.4732   -0.1412   -0.0495 O   0  0  0  0  0  0  0  0  0  0  0  0
   -0.1482    2.1026    0.7404 O   0  0  0  0  0  0  0  0  0  0  0  0
   -3.2020   -2.4664   -0.3103 O   0  0  0  0  0  0  0  0  0  0  0  0
   -4.3442    0.2194   -0.8860 O   0  0  0  0  0  0  0  0  0  0  0  0
   -3.0645    2.2115    0.8441 O   0  0  0  0  0  0  0  0  0  0  0  0
    1.0402   -2.6301    0.3402 O   0  0  0  0  0  0  0  0  0  0  0  0
    1.5073    2.2708   -1.4966 O   0  0  0  0  0  0  0  0  0  0  0  0
    3.0735   -2.7802   -0.7394 O   0  0  0  0  0  0  0  0  0  0  0  0
   -2.4602   -1.2767   -0.5564 C   0  0  1  0  0  0  0  0  0  0  0  0
   -3.2379   -0.0497   -0.0221 C   0  0  1  0  0  0  0  0  0  0  0  0
   -1.0960   -1.3974    0.1236 C   0  0  1  0  0  0  0  0  0  0  0  0
   -2.3835    1.2361    0.0600 C   0  0  2  0  0  0  0  0  0  0  0  0
   -1.0403    0.9304    0.7110 C   0  0  1  0  0  0  0  0  0  0  0  0
   -0.1398   -2.4339   -0.5058 C   0  0  0  0  0  0  0  0  0  0  0  0
    1.1693    1.6068    0.7902 C   0  0  0  0  0  0  0  0  0  0  0  0
    1.7865    1.4365   -0.4579 C   0  0  0  0  0  0  0  0  0  0  0  0
    2.2463   -2.1544   -0.1011 C   0  0  0  0  0  0  0  0  0  0  0  0
    2.4050   -0.7460    0.3130 C   0  0  0  0  0  0  0  0  0  0  0  0
    1.5166    0.8181    1.8963 C   0  0  0  0  0  0  0  0  0  0  0  0
    2.4048    0.2141   -0.7066 C   0  0  0  0  0  0  0  0  0  0  0  0
    2.1208   -0.4065    1.6420 C   0  0  0  0  0  0  0  0  0  0  0  0
    2.3196    3.4364   -1.6291 C   0  0  0  0  0  0  0  0  0  0  0  0
   -2.3393   -1.1838   -1.6424 H   0  0  0  0  0  0  0  0  0  0  0  0
   -3.6716   -0.2788    0.9587 H   0  0  0  0  0  0  0  0  0  0  0  0
   -1.1955   -1.6237    1.1931 H   0  0  0  0  0  0  0  0  0  0  0  0
   -2.2390    1.6691   -0.9365 H   0  0  0  0  0  0  0  0  0  0  0  0
   -1.1911    0.6273    1.7570 H   0  0  0  0  0  0  0  0  0  0  0  0
   -0.6275   -3.4106   -0.5796 H   0  0  0  0  0  0  0  0  0  0  0  0
    0.1815   -2.1244   -1.5076 H   0  0  0  0  0  0  0  0  0  0  0  0
   -3.3146   -2.5568    0.6513 H   0  0  0  0  0  0  0  0  0  0  0  0
   -3.9929    0.4123   -1.7720 H   0  0  0  0  0  0  0  0  0  0  0  0
   -3.1948    1.8450    1.7353 H   0  0  0  0  0  0  0  0  0  0  0  0
    1.0607    0.9894    2.8679 H   0  0  0  0  0  0  0  0  0  0  0  0
    2.6616   -0.0579   -1.7275 H   0  0  0  0  0  0  0  0  0  0  0  0
    2.1537   -1.1542    2.4301 H   0  0  0  0  0  0  0  0  0  0  0  0
    1.9967    3.9807   -2.5206 H   0  0  0  0  0  0  0  0  0  0  0  0
    3.3713    3.1570   -1.7483 H   0  0  0  0  0  0  0  0  0  0  0  0
    2.1988    4.0864   -0.7568 H   0  0  0  0  0  0  0  0  0  0  0  0
  1 11  1  0  0  0  0
  1 13  1  0  0  0  0
  2 13  1  0  0  0  0
  2 15  1  0  0  0  0
  3  9  1  0  0  0  0
  3 30  1  0  0  0  0
  4 10  1  0  0  0  0
  4 31  1  0  0  0  0
  5 12  1  0  0  0  0
  5 32  1  0  0  0  0
  6 14  1  0  0  0  0
  6 17  1  0  0  0  0
  7 16  1  0  0  0  0
  7 22  1  0  0  0  0
  8 17  2  0  0  0  0
  9 10  1  0  0  0  0
  9 11  1  0  0  0  0
  9 23  1  0  0  0  0
 10 12  1  0  0  0  0
 10 24  1  0  0  0  0
 11 14  1  0  0  0  0
 11 25  1  0  0  0  0
 12 13  1  0  0  0  0
 12 26  1  0  0  0  0
 13 27  1  0  0  0  0
 14 28  1  0  0  0  0
 14 29  1  0  0  0  0
 15 16  2  0  0  0  0
 15 19  1  0  0  0  0
 16 20  1  0  0  0  0
 17 18  1  0  0  0  0
 18 20  2  0  0  0  0
 18 21  1  0  0  0  0
 19 21  2  0  0  0  0
 19 33  1  0  0  0  0
 20 34  1  0  0  0  0
 21 35  1  0  0  0  0
 22 36  1  0  0  0  0
 22 37  1  0  0  0  0
 22 38  1  0  0  0  0
M  END
> <PUBCHEM_COMPOUND_CID>
102044905

> <PUBCHEM_CONFORMER_RMSD>
0.6

> <PUBCHEM_CONFORMER_DIVERSEORDER>
1
4
3
7
5
6
2

> <PUBCHEM_MMFF94_PARTIAL_CHARGES>
28
1 -0.56
10 0.28
11 0.28
12 0.28
13 0.56
14 0.28
15 0.08
16 0.08
17 0.63
18 0.09
19 -0.15
2 -0.36
20 -0.15
21 -0.15
22 0.28
3 -0.68
30 0.4
31 0.4
32 0.4
33 0.15
34 0.15
35 0.15
4 -0.68
5 -0.68
6 -0.43
7 -0.36
8 -0.57
9 0.28

> <PUBCHEM_EFFECTIVE_ROTOR_COUNT>
2.4

> <PUBCHEM_PHARMACOPHORE_FEATURES>
12
1 1 acceptor
1 2 acceptor
1 3 acceptor
1 3 donor
1 4 acceptor
1 4 donor
1 5 acceptor
1 5 donor
1 7 acceptor
1 8 acceptor
6 1 9 10 11 12 13 rings
6 15 16 18 19 20 21 rings

> <PUBCHEM_HEAVY_ATOM_COUNT>
22

> <PUBCHEM_ATOM_DEF_STEREO_COUNT>
5

> <PUBCHEM_ATOM_UDEF_STEREO_COUNT>
0

> <PUBCHEM_BOND_DEF_STEREO_COUNT>
0

> <PUBCHEM_BOND_UDEF_STEREO_COUNT>
0

> <PUBCHEM_ISOTOPIC_ATOM_COUNT>
0

> <PUBCHEM_COMPONENT_COUNT>
1

> <PUBCHEM_CACTVS_TAUTO_COUNT>
1

> <PUBCHEM_CONFORMER_ID>
061514E900000001

> <PUBCHEM_MMFF94_ENERGY>
140.7936

> <PUBCHEM_FEATURE_SELFOVERLAP>
60.944

> <PUBCHEM_SHAPE_FINGERPRINT>
104564 63 17622730812659545730
10863032 1 18272651208304267002
10948715 1 17753611548755113404
10967382 1 18342450426849345899
11067466 332 18123746719102204186
11640471 11 17028241780591811980
12035759 4 18121811368822270358
12423570 1 16534010801737925248
12654903 92 18265333915276468450
13140716 1 18197772206973383138
14178342 30 18340192025443859425
14181834 199 18041275551954126780
14713325 29 17033059879620924716
14817 1 16401371804815649112
16945 1 17983289327170940824
17093844 170 16820225785423307580
17357779 13 17980739572427525966
17492 54 18187948161400771790
17980427 23 17828449743175379640
19765921 60 17029648073001019152
20511035 2 18201433653644647103
20559304 39 18341324586934655043
20600515 1 18055081960413384646
20691752 17 18043813069829313395
20739085 24 17332557595340978617
20905425 154 18201442518541724215
21160774 45 17330274966330838726
21524375 3 17536313987805906028
2334 1 18341888576165115131
23419403 2 15895224438513429219
23558518 356 18335420196819768331
23559900 14 18341604940771894509
2748010 2 18270387304898513563
2818148 4 18126317274446541547
338550 245 18268995276782597289
3797600 57 16667957151591121578
394222 165 17535172673065980136
4409770 3 17108457287119798478
7364860 26 18343577460643099634

> <PUBCHEM_SHAPE_MULTIPOLES>
405.8
5.39
3.6
1.34
4.78
0.18
0.21
-0.02
-1.12
-1.76
-1.17
-0.92
-0.73
-1.01

> <PUBCHEM_SHAPE_SELFOVERLAP>
876

> <PUBCHEM_SHAPE_VOLUME>
218.9

> <PUBCHEM_COORDINATE_TYPE>
2
5
10

$$$$
