5273570
  -OEChem-09082007133D

 51 53  0     1  0  0  0  0  0999 V2000
   -0.5094   -0.3220   -1.8987 O   0  0  0  0  0  0  0  0  0  0  0  0
    0.2262    0.5197    0.8337 O   0  0  0  0  0  0  0  0  0  0  0  0
   -1.9665   -3.6199   -0.1678 O   0  0  0  0  0  0  0  0  0  0  0  0
   -5.8491    0.1603    0.9847 O   0  0  0  0  0  0  0  0  0  0  0  0
    5.7949   -0.0684   -1.2096 O   0  0  0  0  0  0  0  0  0  0  0  0
   -5.6157    2.8088    0.1764 O   0  0  0  0  0  0  0  0  0  0  0  0
    6.2638    1.8024    0.7913 O   0  0  0  0  0  0  0  0  0  0  0  0
    0.4651   -0.7485    0.2123 C   0  0  1  0  0  0  0  0  0  0  0  0
   -0.8522   -1.5233    0.1555 C   0  0  1  0  0  0  0  0  0  0  0  0
   -1.5390   -0.9237   -1.0903 C   0  0  1  0  0  0  0  0  0  0  0  0
    0.7620   -0.4908   -1.2540 C   0  0  0  0  0  0  0  0  0  0  0  0
    1.6250   -1.4072    0.9450 C   0  0  0  0  0  0  0  0  0  0  0  0
   -0.6846   -3.0362   -0.0156 C   0  0  0  0  0  0  0  0  0  0  0  0
   -2.6310    0.0721   -0.7500 C   0  0  0  0  0  0  0  0  0  0  0  0
    2.8615   -0.5537    0.9011 C   0  0  0  0  0  0  0  0  0  0  0  0
   -3.7543   -0.3401   -0.0308 C   0  0  0  0  0  0  0  0  0  0  0  0
   -2.5155    1.4030   -1.1554 C   0  0  0  0  0  0  0  0  0  0  0  0
    3.7640   -0.7077   -0.1434 C   0  0  0  0  0  0  0  0  0  0  0  0
    3.0872    0.3784    1.9060 C   0  0  0  0  0  0  0  0  0  0  0  0
   -4.7590    0.5757    0.2818 C   0  0  0  0  0  0  0  0  0  0  0  0
   -3.5200    2.3187   -0.8428 C   0  0  0  0  0  0  0  0  0  0  0  0
   -4.6417    1.9052   -0.1241 C   0  0  0  0  0  0  0  0  0  0  0  0
    4.9119    0.0839   -0.1837 C   0  0  0  0  0  0  0  0  0  0  0  0
    4.2349    1.1699    1.8656 C   0  0  0  0  0  0  0  0  0  0  0  0
    5.1472    1.0227    0.8207 C   0  0  0  0  0  0  0  0  0  0  0  0
   -5.8920   -1.2147    1.3617 C   0  0  0  0  0  0  0  0  0  0  0  0
    5.5862    0.7352   -2.3694 C   0  0  0  0  0  0  0  0  0  0  0  0
   -1.4476   -1.3510    1.0608 H   0  0  0  0  0  0  0  0  0  0  0  0
   -2.0039   -1.6901   -1.7216 H   0  0  0  0  0  0  0  0  0  0  0  0
    1.3463    0.4165   -1.4354 H   0  0  0  0  0  0  0  0  0  0  0  0
    1.2523   -1.3412   -1.7393 H   0  0  0  0  0  0  0  0  0  0  0  0
    1.8620   -2.3920    0.5243 H   0  0  0  0  0  0  0  0  0  0  0  0
    1.3524   -1.5840    1.9940 H   0  0  0  0  0  0  0  0  0  0  0  0
   -0.2077   -3.4899    0.8586 H   0  0  0  0  0  0  0  0  0  0  0  0
   -0.0914   -3.2859   -0.9007 H   0  0  0  0  0  0  0  0  0  0  0  0
   -0.2874    1.0792    0.2300 H   0  0  0  0  0  0  0  0  0  0  0  0
   -3.7974   -1.3865    0.2501 H   0  0  0  0  0  0  0  0  0  0  0  0
   -1.6576    1.7620   -1.7161 H   0  0  0  0  0  0  0  0  0  0  0  0
   -2.4701   -3.4423    0.6448 H   0  0  0  0  0  0  0  0  0  0  0  0
    3.5922   -1.4435   -0.9246 H   0  0  0  0  0  0  0  0  0  0  0  0
    2.3858    0.5008    2.7266 H   0  0  0  0  0  0  0  0  0  0  0  0
   -3.4230    3.3531   -1.1614 H   0  0  0  0  0  0  0  0  0  0  0  0
    4.4127    1.8993    2.6511 H   0  0  0  0  0  0  0  0  0  0  0  0
   -6.3141    2.3509    0.6757 H   0  0  0  0  0  0  0  0  0  0  0  0
    6.8027    1.5420    0.0245 H   0  0  0  0  0  0  0  0  0  0  0  0
   -5.0740   -1.4728    2.0430 H   0  0  0  0  0  0  0  0  0  0  0  0
   -5.9302   -1.8723    0.4865 H   0  0  0  0  0  0  0  0  0  0  0  0
   -6.8250   -1.3678    1.9142 H   0  0  0  0  0  0  0  0  0  0  0  0
    6.3887    0.5240   -3.0814 H   0  0  0  0  0  0  0  0  0  0  0  0
    5.6147    1.7995   -2.1153 H   0  0  0  0  0  0  0  0  0  0  0  0
    4.6283    0.4872   -2.8376 H   0  0  0  0  0  0  0  0  0  0  0  0
  1 10  1  0  0  0  0
  1 11  1  0  0  0  0
  2  8  1  0  0  0  0
  2 36  1  0  0  0  0
  3 13  1  0  0  0  0
  3 39  1  0  0  0  0
  4 20  1  0  0  0  0
  4 26  1  0  0  0  0
  5 23  1  0  0  0  0
  5 27  1  0  0  0  0
  6 22  1  0  0  0  0
  6 44  1  0  0  0  0
  7 25  1  0  0  0  0
  7 45  1  0  0  0  0
  8  9  1  0  0  0  0
  8 11  1  0  0  0  0
  8 12  1  0  0  0  0
  9 10  1  0  0  0  0
  9 13  1  0  0  0  0
  9 28  1  0  0  0  0
 10 14  1  0  0  0  0
 10 29  1  0  0  0  0
 11 30  1  0  0  0  0
 11 31  1  0  0  0  0
 12 15  1  0  0  0  0
 12 32  1  0  0  0  0
 12 33  1  0  0  0  0
 13 34  1  0  0  0  0
 13 35  1  0  0  0  0
 14 16  2  0  0  0  0
 14 17  1  0  0  0  0
 15 18  2  0  0  0  0
 15 19  1  0  0  0  0
 16 20  1  0  0  0  0
 16 37  1  0  0  0  0
 17 21  2  0  0  0  0
 17 38  1  0  0  0  0
 18 23  1  0  0  0  0
 18 40  1  0  0  0  0
 19 24  2  0  0  0  0
 19 41  1  0  0  0  0
 20 22  2  0  0  0  0
 21 22  1  0  0  0  0
 21 42  1  0  0  0  0
 23 25  2  0  0  0  0
 24 25  1  0  0  0  0
 24 43  1  0  0  0  0
 26 46  1  0  0  0  0
 26 47  1  0  0  0  0
 26 48  1  0  0  0  0
 27 49  1  0  0  0  0
 27 50  1  0  0  0  0
 27 51  1  0  0  0  0
M  END
> <PUBCHEM_COMPOUND_CID>
5273570

> <PUBCHEM_CONFORMER_RMSD>
0.8

> <PUBCHEM_CONFORMER_DIVERSEORDER>
2
37
19
38
21
3
26
31
14
28
39
42
9
32
11
24
6
34
27
36
10
40
4
35
30
12
22
33
25
1
8
43
29
5
23
13
15
7
41
20
16
17
18

> <PUBCHEM_MMFF94_PARTIAL_CHARGES>
36
1 -0.56
10 0.42
11 0.28
12 0.14
13 0.28
14 -0.14
15 -0.14
16 -0.15
17 -0.15
18 -0.15
19 -0.15
2 -0.68
20 0.08
21 -0.15
22 0.08
23 0.08
24 -0.15
25 0.08
26 0.28
27 0.28
3 -0.68
36 0.4
37 0.15
38 0.15
39 0.4
4 -0.36
40 0.15
41 0.15
42 0.15
43 0.15
44 0.45
45 0.45
5 -0.36
6 -0.53
7 -0.53
8 0.28

> <PUBCHEM_EFFECTIVE_ROTOR_COUNT>
7

> <PUBCHEM_PHARMACOPHORE_FEATURES>
12
1 1 acceptor
1 2 acceptor
1 2 donor
1 3 acceptor
1 3 donor
1 4 acceptor
1 5 acceptor
1 6 donor
1 7 donor
5 1 8 9 10 11 rings
6 14 16 17 20 21 22 rings
6 15 18 19 23 24 25 rings

> <PUBCHEM_HEAVY_ATOM_COUNT>
27

> <PUBCHEM_ATOM_DEF_STEREO_COUNT>
3

> <PUBCHEM_ATOM_UDEF_STEREO_COUNT>
0

> <PUBCHEM_BOND_DEF_STEREO_COUNT>
0

> <PUBCHEM_BOND_UDEF_STEREO_COUNT>
0

> <PUBCHEM_ISOTOPIC_ATOM_COUNT>
0

> <PUBCHEM_COMPONENT_COUNT>
1

> <PUBCHEM_CACTVS_TAUTO_COUNT>
8

> <PUBCHEM_CONFORMER_ID>
005077E200000002

> <PUBCHEM_MMFF94_ENERGY>
103.9225

> <PUBCHEM_FEATURE_SELFOVERLAP>
60.901

> <PUBCHEM_SHAPE_FINGERPRINT>
10613725 11 14476962276547105512
10670039 82 18335139735751115484
11135609 201 16951132923458043876
11273773 42 17169853273822870790
11796584 16 9943802279116943804
12236239 1 17313106345312668111
12390115 104 18342462508824230745
12403259 118 17168137910396615909
12403259 415 18272652337622079601
12596602 18 16950565475845448113
12730499 353 18343868805739999690
12788726 201 17489585611234694144
128238 76 17603874454494281859
12892183 10 17895187749892390443
13544653 18 12973888074550847535
13583140 156 16154248564479214286
14251751 18 10809640202869466921
14251752 14 12103568559179360553
14341114 328 17386007230636436057
1454969 45 18260832627043409183
14787075 74 16732704951888553412
14790565 3 18339080384786838633
14848160 23 11025799790516409832
14848178 5 11097859557744570521
15183329 4 15482670173806737048
15188451 53 9655585084947577708
15238133 3 18270944770879876786
15510800 12 11675159198781587121
15880784 105 15213011618342064128
17349148 13 12607408823194141038
18222031 100 10879995783372853642
18335252 114 15984822602211755001
19377110 9 17095520707995044744
20645477 70 16702022011301882238
21033648 29 18343007892008308969
21728266 224 10807939241121787430
21756936 100 18341599438945311466
22224240 67 18412827989307090187
23227448 37 18339633559626432540
23559900 14 18059856186626128602
23572383 38 7997967994220237737
3004659 81 11599999973015141800
3009799 131 9583518702842300139
3459 83 15626228995966200512
44062 13 11311760800892103637
5104073 3 18115017502963067275
552612 73 18342184374963590758
5718773 13 10881989185096308601
57527293 21 17096081377605785219
59682541 52 15195278686172099652
633830 44 17987780943596858341
6442390 28 18334855000372032914
6913067 236 11746934312930570106
7808743 9 18336818779968446528
8988823 20 13406799930221635150
960060 61 14979952588889909252

> <PUBCHEM_SHAPE_MULTIPOLES>
514.56
14.96
2.58
1.7
3.53
0.99
0.23
-8.31
-2.24
-3.11
0.08
2
-0.34
0.74

> <PUBCHEM_SHAPE_SELFOVERLAP>
1107.085

> <PUBCHEM_SHAPE_VOLUME>
284.9

> <PUBCHEM_COORDINATE_TYPE>
2
5
10

$$$$
