5316559
  -OEChem-09082006593D

 28 28  0     1  0  0  0  0  0999 V2000
    0.1534   -2.6811   -0.7234 O   0  0  0  0  0  0  0  0  0  0  0  0
    3.8534    0.4467   -0.3438 O   0  0  0  0  0  0  0  0  0  0  0  0
   -4.3745    0.1945    0.4099 O   0  0  0  0  0  0  0  0  0  0  0  0
   -0.7148    0.1875   -0.4007 C   0  0  1  0  0  0  0  0  0  0  0  0
   -0.3646    1.6744   -0.2569 C   0  0  0  0  0  0  0  0  0  0  0  0
    0.5164   -0.4912    0.1490 C   0  0  0  0  0  0  0  0  0  0  0  0
    1.1580    1.7423   -0.2178 C   0  0  0  0  0  0  0  0  0  0  0  0
    1.5436    0.3695    0.2455 C   0  0  0  0  0  0  0  0  0  0  0  0
   -2.0135   -0.1488    0.3230 C   0  0  0  0  0  0  0  0  0  0  0  0
    0.5062   -1.9530    0.4419 C   0  0  0  0  0  0  0  0  0  0  0  0
    2.9417    0.1224    0.6944 C   0  0  0  0  0  0  0  0  0  0  0  0
   -3.2051    0.5368   -0.3211 C   0  0  0  0  0  0  0  0  0  0  0  0
   -0.8053   -0.0711   -1.4642 H   0  0  0  0  0  0  0  0  0  0  0  0
   -0.7673    2.0908    0.6763 H   0  0  0  0  0  0  0  0  0  0  0  0
   -0.7711    2.2734   -1.0791 H   0  0  0  0  0  0  0  0  0  0  0  0
    1.4934    2.5228    0.4721 H   0  0  0  0  0  0  0  0  0  0  0  0
    1.5731    1.9428   -1.2114 H   0  0  0  0  0  0  0  0  0  0  0  0
   -1.9528    0.1248    1.3848 H   0  0  0  0  0  0  0  0  0  0  0  0
   -2.1971   -1.2301    0.3157 H   0  0  0  0  0  0  0  0  0  0  0  0
   -0.2032   -2.1920    1.2407 H   0  0  0  0  0  0  0  0  0  0  0  0
    1.4835   -2.3177    0.7660 H   0  0  0  0  0  0  0  0  0  0  0  0
    3.1130   -0.9175    0.9820 H   0  0  0  0  0  0  0  0  0  0  0  0
    3.1671    0.7513    1.5622 H   0  0  0  0  0  0  0  0  0  0  0  0
   -3.1117    1.6266   -0.3186 H   0  0  0  0  0  0  0  0  0  0  0  0
   -3.3404    0.2034   -1.3546 H   0  0  0  0  0  0  0  0  0  0  0  0
   -0.7837   -2.5101   -0.9160 H   0  0  0  0  0  0  0  0  0  0  0  0
    4.7489    0.2968    0.0042 H   0  0  0  0  0  0  0  0  0  0  0  0
   -4.2629    0.5283    1.3164 H   0  0  0  0  0  0  0  0  0  0  0  0
  1 10  1  0  0  0  0
  1 26  1  0  0  0  0
  2 11  1  0  0  0  0
  2 27  1  0  0  0  0
  3 12  1  0  0  0  0
  3 28  1  0  0  0  0
  4  5  1  0  0  0  0
  4  6  1  0  0  0  0
  4  9  1  0  0  0  0
  4 13  1  0  0  0  0
  5  7  1  0  0  0  0
  5 14  1  0  0  0  0
  5 15  1  0  0  0  0
  6  8  2  0  0  0  0
  6 10  1  0  0  0  0
  7  8  1  0  0  0  0
  7 16  1  0  0  0  0
  7 17  1  0  0  0  0
  8 11  1  0  0  0  0
  9 12  1  0  0  0  0
  9 18  1  0  0  0  0
  9 19  1  0  0  0  0
 10 20  1  0  0  0  0
 10 21  1  0  0  0  0
 11 22  1  0  0  0  0
 11 23  1  0  0  0  0
 12 24  1  0  0  0  0
 12 25  1  0  0  0  0
M  END
> <PUBCHEM_COMPOUND_CID>
5316559

> <PUBCHEM_CONFORMER_RMSD>
0.6

> <PUBCHEM_CONFORMER_DIVERSEORDER>
1
17
27
44
37
38
2
39
5
35
43
7
33
9
32
34
36
41
18
23
10
8
11
30
40
22
4
28
29
42
15
31
6
13
20
24
25
16
12
3
21
26
14
19

> <PUBCHEM_MMFF94_PARTIAL_CHARGES>
13
1 -0.68
10 0.42
11 0.42
12 0.28
2 -0.68
26 0.4
27 0.4
28 0.4
3 -0.68
4 0.14
6 -0.28
7 0.14
8 -0.28

> <PUBCHEM_EFFECTIVE_ROTOR_COUNT>
4.6

> <PUBCHEM_PHARMACOPHORE_FEATURES>
7
1 1 acceptor
1 1 donor
1 2 acceptor
1 2 donor
1 3 acceptor
1 3 donor
5 4 5 6 7 8 rings

> <PUBCHEM_HEAVY_ATOM_COUNT>
12

> <PUBCHEM_ATOM_DEF_STEREO_COUNT>
1

> <PUBCHEM_ATOM_UDEF_STEREO_COUNT>
0

> <PUBCHEM_BOND_DEF_STEREO_COUNT>
0

> <PUBCHEM_BOND_UDEF_STEREO_COUNT>
0

> <PUBCHEM_ISOTOPIC_ATOM_COUNT>
0

> <PUBCHEM_COMPONENT_COUNT>
1

> <PUBCHEM_CACTVS_TAUTO_COUNT>
1

> <PUBCHEM_CONFORMER_ID>
00511FCF00000001

> <PUBCHEM_MMFF94_ENERGY>
13.6332

> <PUBCHEM_FEATURE_SELFOVERLAP>
35.522

> <PUBCHEM_SHAPE_FINGERPRINT>
1 1 18410290324205308959
10219947 1 18408040701855672681
12346645 6 18341329990325331655
13380535 21 17979077085018930893
13380535 76 18407760348298222395
14251717 144 18411130334241428519
14325111 11 18337389456204224641
14993402 34 18409450314612418004
15219456 202 18117551838932105589
161256 15 18124318207355703382
16945 1 17967798466565906512
193761 8 17762052138612453900
20201158 50 18259983747889007513
20511035 2 17898300642982147033
20588541 1 18334016073062713019
20645476 183 17459205117269771134
20645477 70 18266730282829041223
20871998 22 17980199686665125267
21040471 1 18193555803187161760
21501502 16 18050002186411847873
23235685 24 18408878542532361584
23402539 116 18271515464485382404
23402655 69 18265313038216403477
2748010 2 18191866949042421613
3250762 1 17688867540776679500
366044 4 18411699902581242770
528862 383 18336255739393749259
528886 8 18410567400982449808
53812653 11 18412261770139576116
81228 2 17616799372561014715
81539 233 18260545585003112255

> <PUBCHEM_SHAPE_MULTIPOLES>
229.35
5.28
2
0.75
2.76
1.12
0
-1.19
0.58
-0.45
-0.37
-0.06
0.1
-0.02

> <PUBCHEM_SHAPE_SELFOVERLAP>
453.827

> <PUBCHEM_SHAPE_VOLUME>
138.9

> <PUBCHEM_COORDINATE_TYPE>
2
5
10

$$$$
