23624546
  -OEChem-09082009403D

 68 71  0     1  0  0  0  0  0999 V2000
   -2.6474   -0.0891   -1.2270 O   0  0  0  0  0  0  0  0  0  0  0  0
   -0.4883    0.7746   -1.1435 O   0  0  0  0  0  0  0  0  0  0  0  0
   -4.0268   -0.2246    0.6500 O   0  0  0  0  0  0  0  0  0  0  0  0
   -3.7261    2.4617   -1.8082 O   0  0  0  0  0  0  0  0  0  0  0  0
   -6.4655    2.7609   -0.7662 O   0  0  0  0  0  0  0  0  0  0  0  0
   -6.5731    2.0198    2.0257 O   0  0  0  0  0  0  0  0  0  0  0  0
   -3.0457   -3.5835   -2.3665 O   0  0  0  0  0  0  0  0  0  0  0  0
    3.5685   -0.7461   -2.0369 O   0  0  0  0  0  0  0  0  0  0  0  0
   -4.1932   -1.2828    3.1815 O   0  0  0  0  0  0  0  0  0  0  0  0
    4.1229   -2.8306    1.6460 O   0  0  0  0  0  0  0  0  0  0  0  0
    6.3305   -2.3451    1.6106 O   0  0  0  0  0  0  0  0  0  0  0  0
    3.4021   -0.7127    0.2881 N   0  0  0  0  0  0  0  0  0  0  0  0
   -0.8456   -1.6711   -1.3945 C   0  0  2  0  0  0  0  0  0  0  0  0
    0.6594   -1.9266   -1.1489 C   0  0  2  0  0  0  0  0  0  0  0  0
   -1.3146   -0.3394   -0.7792 C   0  0  2  0  0  0  0  0  0  0  0  0
    0.7264   -2.8060    0.1091 C   0  0  0  0  0  0  0  0  0  0  0  0
   -1.4665   -2.8740   -0.7269 C   0  0  0  0  0  0  0  0  0  0  0  0
    1.4387   -0.6590   -1.0492 C   0  0  0  0  0  0  0  0  0  0  0  0
   -0.6024   -3.4849    0.0938 C   0  0  0  0  0  0  0  0  0  0  0  0
   -3.3850    0.6622   -0.2634 C   0  0  2  0  0  0  0  0  0  0  0  0
   -4.4201    1.5012   -1.0126 C   0  0  1  0  0  0  0  0  0  0  0  0
   -5.3556    2.2251   -0.0442 C   0  0  2  0  0  0  0  0  0  0  0  0
   -5.8992    1.2699    1.0183 C   0  0  1  0  0  0  0  0  0  0  0  0
   -4.7643    0.4674    1.6591 C   0  0  1  0  0  0  0  0  0  0  0  0
   -2.8705   -3.2874   -0.9890 C   0  0  0  0  0  0  0  0  0  0  0  0
    0.8588    0.5444   -1.0818 C   0  0  0  0  0  0  0  0  0  0  0  0
    2.9005   -0.7094   -1.0026 C   0  0  0  0  0  0  0  0  0  0  0  0
   -5.2932   -0.5753    2.6389 C   0  0  0  0  0  0  0  0  0  0  0  0
    4.8153   -0.7611    0.5878 C   0  0  1  0  0  0  0  0  0  0  0  0
    5.2472    0.4568    1.4149 C   0  0  0  0  0  0  0  0  0  0  0  0
    5.1768   -2.0434    1.3230 C   0  0  0  0  0  0  0  0  0  0  0  0
    4.9557    1.7689    0.7275 C   0  0  0  0  0  0  0  0  0  0  0  0
    5.9133    2.3275   -0.1042 C   0  0  0  0  0  0  0  0  0  0  0  0
    3.7356    2.3910    0.9403 C   0  0  0  0  0  0  0  0  0  0  0  0
    5.6441    3.5397   -0.7396 C   0  0  0  0  0  0  0  0  0  0  0  0
    3.4665    3.6033    0.3048 C   0  0  0  0  0  0  0  0  0  0  0  0
    4.4208    4.1775   -0.5351 C   0  0  0  0  0  0  0  0  0  0  0  0
   -1.0425   -1.6793   -2.4742 H   0  0  0  0  0  0  0  0  0  0  0  0
    1.0477   -2.5089   -1.9986 H   0  0  0  0  0  0  0  0  0  0  0  0
   -1.2977   -0.4247    0.3182 H   0  0  0  0  0  0  0  0  0  0  0  0
    0.8438   -2.2315    1.0343 H   0  0  0  0  0  0  0  0  0  0  0  0
    1.5441   -3.5300    0.0357 H   0  0  0  0  0  0  0  0  0  0  0  0
   -0.8319   -4.3563    0.6904 H   0  0  0  0  0  0  0  0  0  0  0  0
   -2.7068    1.3341    0.2825 H   0  0  0  0  0  0  0  0  0  0  0  0
   -5.0037    0.8760   -1.6998 H   0  0  0  0  0  0  0  0  0  0  0  0
   -4.8503    3.0775    0.4265 H   0  0  0  0  0  0  0  0  0  0  0  0
   -6.6328    0.5930    0.5619 H   0  0  0  0  0  0  0  0  0  0  0  0
   -4.0767    1.1277    2.2050 H   0  0  0  0  0  0  0  0  0  0  0  0
   -3.5743   -2.4987   -0.7156 H   0  0  0  0  0  0  0  0  0  0  0  0
   -3.1428   -4.1787   -0.4138 H   0  0  0  0  0  0  0  0  0  0  0  0
    1.3986    1.4812   -1.1025 H   0  0  0  0  0  0  0  0  0  0  0  0
   -5.8464   -0.1141    3.4620 H   0  0  0  0  0  0  0  0  0  0  0  0
   -5.9433   -1.3012    2.1394 H   0  0  0  0  0  0  0  0  0  0  0  0
   -3.1293    1.9726   -2.4003 H   0  0  0  0  0  0  0  0  0  0  0  0
    2.7558   -0.7099    1.0725 H   0  0  0  0  0  0  0  0  0  0  0  0
   -6.1075    3.3452   -1.4563 H   0  0  0  0  0  0  0  0  0  0  0  0
   -7.2705    2.5358    1.5864 H   0  0  0  0  0  0  0  0  0  0  0  0
   -2.4354   -4.3058   -2.5944 H   0  0  0  0  0  0  0  0  0  0  0  0
    5.3677   -0.7846   -0.3595 H   0  0  0  0  0  0  0  0  0  0  0  0
   -3.7073   -1.6844    2.4408 H   0  0  0  0  0  0  0  0  0  0  0  0
    6.3197    0.3972    1.6442 H   0  0  0  0  0  0  0  0  0  0  0  0
    4.7473    0.4437    2.3937 H   0  0  0  0  0  0  0  0  0  0  0  0
    6.8678    1.8367   -0.2714 H   0  0  0  0  0  0  0  0  0  0  0  0
    2.9859    1.9548    1.5942 H   0  0  0  0  0  0  0  0  0  0  0  0
    4.4027   -3.6425    2.1201 H   0  0  0  0  0  0  0  0  0  0  0  0
    6.3867    3.9864   -1.3942 H   0  0  0  0  0  0  0  0  0  0  0  0
    2.5136    4.0997    0.4637 H   0  0  0  0  0  0  0  0  0  0  0  0
    4.2109    5.1211   -1.0302 H   0  0  0  0  0  0  0  0  0  0  0  0
  1 15  1  0  0  0  0
  1 20  1  0  0  0  0
  2 15  1  0  0  0  0
  2 26  1  0  0  0  0
  3 20  1  0  0  0  0
  3 24  1  0  0  0  0
  4 21  1  0  0  0  0
  4 54  1  0  0  0  0
  5 22  1  0  0  0  0
  5 56  1  0  0  0  0
  6 23  1  0  0  0  0
  6 57  1  0  0  0  0
  7 25  1  0  0  0  0
  7 58  1  0  0  0  0
  8 27  2  0  0  0  0
  9 28  1  0  0  0  0
  9 60  1  0  0  0  0
 10 31  1  0  0  0  0
 10 65  1  0  0  0  0
 11 31  2  0  0  0  0
 12 27  1  0  0  0  0
 12 29  1  0  0  0  0
 12 55  1  0  0  0  0
 13 14  1  0  0  0  0
 13 15  1  0  0  0  0
 13 17  1  0  0  0  0
 13 38  1  0  0  0  0
 14 16  1  0  0  0  0
 14 18  1  0  0  0  0
 14 39  1  0  0  0  0
 15 40  1  0  0  0  0
 16 19  1  0  0  0  0
 16 41  1  0  0  0  0
 16 42  1  0  0  0  0
 17 19  2  0  0  0  0
 17 25  1  0  0  0  0
 18 26  2  0  0  0  0
 18 27  1  0  0  0  0
 19 43  1  0  0  0  0
 20 21  1  0  0  0  0
 20 44  1  0  0  0  0
 21 22  1  0  0  0  0
 21 45  1  0  0  0  0
 22 23  1  0  0  0  0
 22 46  1  0  0  0  0
 23 24  1  0  0  0  0
 23 47  1  0  0  0  0
 24 28  1  0  0  0  0
 24 48  1  0  0  0  0
 25 49  1  0  0  0  0
 25 50  1  0  0  0  0
 26 51  1  0  0  0  0
 28 52  1  0  0  0  0
 28 53  1  0  0  0  0
 29 30  1  0  0  0  0
 29 31  1  0  0  0  0
 29 59  1  0  0  0  0
 30 32  1  0  0  0  0
 30 61  1  0  0  0  0
 30 62  1  0  0  0  0
 32 33  2  0  0  0  0
 32 34  1  0  0  0  0
 33 35  1  0  0  0  0
 33 63  1  0  0  0  0
 34 36  2  0  0  0  0
 34 64  1  0  0  0  0
 35 37  2  0  0  0  0
 35 66  1  0  0  0  0
 36 37  1  0  0  0  0
 36 67  1  0  0  0  0
 37 68  1  0  0  0  0
M  END
> <PUBCHEM_COMPOUND_CID>
23624546

> <PUBCHEM_CONFORMER_RMSD>
1.2

> <PUBCHEM_CONFORMER_DIVERSEORDER>
2
25
37
43
46
71
8
77
55
9
86
69
26
13
79
51
45
85
50
47
35
80
53
44
60
52
68
7
83
70
16
42
10
14
36
63
22
54
56
58
82
29
61
65
32
40
5
62
57
59
73
18
49
78
33
6
84
21
48
66
24
87
19
3
4
74
41
34
1
67
11
30
39
72
15
28
64
12
23
38
76
31
17
75
27
81
20

> <PUBCHEM_MMFF94_PARTIAL_CHARGES>
51
1 -0.56
10 -0.65
11 -0.57
12 -0.73
13 0.14
14 0.14
15 0.56
16 0.14
17 -0.28
18 -0.12
19 -0.29
2 -0.36
20 0.56
21 0.28
22 0.28
23 0.28
24 0.28
25 0.42
26 -0.07
27 0.62
28 0.28
29 0.36
3 -0.56
30 0.14
31 0.66
32 -0.14
33 -0.15
34 -0.15
35 -0.15
36 -0.15
37 -0.15
4 -0.68
43 0.15
5 -0.68
51 0.15
54 0.4
55 0.37
56 0.4
57 0.4
58 0.4
6 -0.68
60 0.4
63 0.15
64 0.15
65 0.5
66 0.15
67 0.15
68 0.15
7 -0.68
8 -0.57
9 -0.68

> <PUBCHEM_EFFECTIVE_ROTOR_COUNT>
11.8

> <PUBCHEM_PHARMACOPHORE_FEATURES>
22
1 1 acceptor
1 10 acceptor
1 11 acceptor
1 12 donor
1 2 acceptor
1 3 acceptor
1 4 acceptor
1 4 donor
1 5 acceptor
1 5 donor
1 6 acceptor
1 6 donor
1 7 acceptor
1 7 donor
1 8 acceptor
1 9 acceptor
1 9 donor
3 10 11 31 anion
5 13 14 16 17 19 rings
6 2 13 14 15 18 26 rings
6 3 20 21 22 23 24 rings
6 32 33 34 35 36 37 rings

> <PUBCHEM_HEAVY_ATOM_COUNT>
37

> <PUBCHEM_ATOM_DEF_STEREO_COUNT>
9

> <PUBCHEM_ATOM_UDEF_STEREO_COUNT>
0

> <PUBCHEM_BOND_DEF_STEREO_COUNT>
0

> <PUBCHEM_BOND_UDEF_STEREO_COUNT>
0

> <PUBCHEM_ISOTOPIC_ATOM_COUNT>
0

> <PUBCHEM_COMPONENT_COUNT>
1

> <PUBCHEM_CACTVS_TAUTO_COUNT>
2

> <PUBCHEM_CONFORMER_ID>
01687B6200000002

> <PUBCHEM_MMFF94_ENERGY>
91.7209

> <PUBCHEM_FEATURE_SELFOVERLAP>
111.957

> <PUBCHEM_SHAPE_FINGERPRINT>
10319926 262 17458632172885253825
11578080 2 17273163351344917742
12107183 9 18339348674867721218
12422481 6 18114181904191221443
12633257 1 18341600504735679782
14955137 171 18118400640766916610
15348495 7 18113338600199782601
16112460 7 18341613745481270529
19304144 158 12103259591927695402
3117164 225 18408317783381636850
3680242 22 18340481188934353360
392239 28 18342738486147999881
397830 11 17894916247529216561
5104073 3 18335420196440200210
6058803 2 18124574622132438334
6703917 75 17611468928476163188

> <PUBCHEM_SHAPE_MULTIPOLES>
691.9
16.96
5.12
2.16
2.33
0.35
-0.99
13.05
-8.01
-2.65
0.92
2.33
-0.8
-2.13

> <PUBCHEM_SHAPE_SELFOVERLAP>
1471.373

> <PUBCHEM_SHAPE_VOLUME>
379.2

> <PUBCHEM_COORDINATE_TYPE>
2
5
10

$$$$
