14540384
  -OEChem-09082010092D

143151  0     1  0  0  0  0  0999 V2000
   13.3271    1.9900    0.0000 O   0  0  0  0  0  0  0  0  0  0  0  0
   12.0380    3.1467    0.0000 O   0  0  0  0  0  0  0  0  0  0  0  0
   13.5159   -5.5368    0.0000 O   0  0  0  0  0  0  0  0  0  0  0  0
   12.6499   -4.0368    0.0000 O   0  0  0  0  0  0  0  0  0  0  0  0
    6.0010    3.7268    0.0000 O   0  0  0  0  0  0  0  0  0  0  0  0
    5.1350    5.2268    0.0000 O   0  0  0  0  0  0  0  0  0  0  0  0
   12.6499   -1.0368    0.0000 O   0  0  0  0  0  0  0  0  0  0  0  0
    9.1024    3.7654    0.0000 O   0  0  0  0  0  0  0  0  0  0  0  0
   13.6843    3.6848    0.0000 O   0  0  0  0  0  0  0  0  0  0  0  0
   11.7838   -5.5368    0.0000 O   0  0  0  0  0  0  0  0  0  0  0  0
    5.1350    2.2268    0.0000 O   0  0  0  0  0  0  0  0  0  0  0  0
   16.6173   -5.4983    0.0000 O   0  0  0  0  0  0  0  0  0  0  0  0
   15.2841    1.5775    0.0000 O   0  0  0  0  0  0  0  0  0  0  0  0
   16.6198    3.0661    0.0000 O   0  0  0  0  0  0  0  0  0  0  0  0
   13.5159   -7.5368    0.0000 O   0  0  0  0  0  0  0  0  0  0  0  0
    4.2690    4.7268    0.0000 O   0  0  0  0  0  0  0  0  0  0  0  0
    8.7453    2.0705    0.0000 O   0  0  0  0  0  0  0  0  0  0  0  0
   15.9985    4.9672    0.0000 O   0  0  0  0  0  0  0  0  0  0  0  0
   11.7838   -8.5368    0.0000 O   0  0  0  0  0  0  0  0  0  0  0  0
    2.5369    3.7268    0.0000 O   0  0  0  0  0  0  0  0  0  0  0  0
   14.3819   -1.0368    0.0000 O   0  0  0  0  0  0  0  0  0  0  0  0
   10.0518   -7.5368    0.0000 O   0  0  0  0  0  0  0  0  0  0  0  0
    2.5369    1.7268    0.0000 O   0  0  0  0  0  0  0  0  0  0  0  0
    5.1350    8.2268    0.0000 O   0  0  0  0  0  0  0  0  0  0  0  0
    6.8671    8.2268    0.0000 O   0  0  0  0  0  0  0  0  0  0  0  0
   14.7093    6.1239    0.0000 O   0  0  0  0  0  0  0  0  0  0  0  0
    9.1858   -6.0368    0.0000 O   0  0  0  0  0  0  0  0  0  0  0  0
    3.4030    0.2268    0.0000 O   0  0  0  0  0  0  0  0  0  0  0  0
   16.2601   -7.1931    0.0000 O   0  0  0  0  0  0  0  0  0  0  0  0
   11.6808    1.4519    0.0000 C   0  0  1  0  0  0  0  0  0  0  0  0
   10.7023    1.6581    0.0000 C   0  0  2  0  0  0  0  0  0  0  0  0
   14.3819   -4.0368    0.0000 C   0  0  2  0  0  0  0  0  0  0  0  0
    6.8671    5.2268    0.0000 C   0  0  1  0  0  0  0  0  0  0  0  0
   14.3819   -3.0368    0.0000 C   0  0  2  0  0  0  0  0  0  0  0  0
    6.8671    6.2268    0.0000 C   0  0  2  0  0  0  0  0  0  0  0  0
   11.7838    0.4632    0.0000 C   0  0  0  0  0  0  0  0  0  0  0  0
   10.2090    0.7951    0.0000 C   0  0  0  0  0  0  0  0  0  0  0  0
   12.3486    2.1962    0.0000 C   0  0  2  0  0  0  0  0  0  0  0  0
   13.5159   -4.5368    0.0000 C   0  0  2  0  0  0  0  0  0  0  0  0
   15.3281   -2.7321    0.0000 C   0  0  0  0  0  0  0  0  0  0  0  0
    7.8133    4.9221    0.0000 C   0  0  0  0  0  0  0  0  0  0  0  0
   10.3916    2.6086    0.0000 C   0  0  0  0  0  0  0  0  0  0  0  0
    6.0010    4.7268    0.0000 C   0  0  2  0  0  0  0  0  0  0  0  0
    7.8133    6.5316    0.0000 C   0  0  0  0  0  0  0  0  0  0  0  0
   15.3281   -4.3416    0.0000 C   0  0  0  0  0  0  0  0  0  0  0  0
   10.8761    0.0580    0.0000 C   0  0  0  0  0  0  0  0  0  0  0  0
   13.5159   -2.5368    0.0000 C   0  0  0  0  0  0  0  0  0  0  0  0
   15.9117   -3.5368    0.0000 C   0  0  0  0  0  0  0  0  0  0  0  0
    8.3969    5.7268    0.0000 C   0  0  0  0  0  0  0  0  0  0  0  0
   12.6499   -0.0368    0.0000 C   0  0  0  0  0  0  0  0  0  0  0  0
    6.0010    6.7268    0.0000 C   0  0  0  0  0  0  0  0  0  0  0  0
    8.1240    3.9716    0.0000 C   0  0  0  0  0  0  0  0  0  0  0  0
   13.9950    2.7343    0.0000 C   0  0  2  0  0  0  0  0  0  0  0  0
   11.0595    3.3529    0.0000 C   0  0  0  0  0  0  0  0  0  0  0  0
   12.6499   -6.0368    0.0000 C   0  0  2  0  0  0  0  0  0  0  0  0
   14.9735    2.5280    0.0000 C   0  0  1  0  0  0  0  0  0  0  0  0
    5.1350    3.2268    0.0000 C   0  0  2  0  0  0  0  0  0  0  0  0
    9.4131    2.8148    0.0000 C   0  0  0  0  0  0  0  0  0  0  0  0
   12.6499   -3.0368    0.0000 C   0  0  0  0  0  0  0  0  0  0  0  0
   15.6388   -5.2921    0.0000 C   0  0  0  0  0  0  0  0  0  0  0  0
   13.5159   -1.5368    0.0000 C   0  0  0  0  0  0  0  0  0  0  0  0
   15.6413    3.2724    0.0000 C   0  0  2  0  0  0  0  0  0  0  0  0
   12.6499   -7.0368    0.0000 C   0  0  1  0  0  0  0  0  0  0  0  0
    5.1350    6.2268    0.0000 C   0  0  0  0  0  0  0  0  0  0  0  0
    4.2690    3.7268    0.0000 C   0  0  1  0  0  0  0  0  0  0  0  0
   15.3307    4.2229    0.0000 C   0  0  1  0  0  0  0  0  0  0  0  0
   14.3522    4.4291    0.0000 C   0  0  1  0  0  0  0  0  0  0  0  0
   11.7838   -7.5368    0.0000 C   0  0  2  0  0  0  0  0  0  0  0  0
    3.4030    3.2268    0.0000 C   0  0  2  0  0  0  0  0  0  0  0  0
   10.9178   -7.0368    0.0000 C   0  0  1  0  0  0  0  0  0  0  0  0
   10.9178   -6.0368    0.0000 C   0  0  1  0  0  0  0  0  0  0  0  0
    3.4030    2.2268    0.0000 C   0  0  1  0  0  0  0  0  0  0  0  0
    4.2690    1.7268    0.0000 C   0  0  1  0  0  0  0  0  0  0  0  0
    6.0010    7.7268    0.0000 C   0  0  0  0  0  0  0  0  0  0  0  0
   14.0415    5.3796    0.0000 C   0  0  0  0  0  0  0  0  0  0  0  0
   10.0518   -5.5368    0.0000 C   0  0  0  0  0  0  0  0  0  0  0  0
    4.2690    0.7268    0.0000 C   0  0  0  0  0  0  0  0  0  0  0  0
   16.9280   -6.4488    0.0000 C   0  0  0  0  0  0  0  0  0  0  0  0
   17.9065   -6.6550    0.0000 C   0  0  0  0  0  0  0  0  0  0  0  0
   12.4893    1.1896    0.0000 H   0  0  0  0  0  0  0  0  0  0  0  0
    9.8567    1.7444    0.0000 H   0  0  0  0  0  0  0  0  0  0  0  0
   14.4719   -4.8821    0.0000 H   0  0  0  0  0  0  0  0  0  0  0  0
    6.9570    4.3816    0.0000 H   0  0  0  0  0  0  0  0  0  0  0  0
   14.4719   -2.1916    0.0000 H   0  0  0  0  0  0  0  0  0  0  0  0
    6.9570    7.0721    0.0000 H   0  0  0  0  0  0  0  0  0  0  0  0
    9.7060    1.1576    0.0000 H   0  0  0  0  0  0  0  0  0  0  0  0
    9.7956    0.3330    0.0000 H   0  0  0  0  0  0  0  0  0  0  0  0
   12.5412    1.6069    0.0000 H   0  0  0  0  0  0  0  0  0  0  0  0
   12.9790   -4.8468    0.0000 H   0  0  0  0  0  0  0  0  0  0  0  0
   15.8655   -2.4229    0.0000 H   0  0  0  0  0  0  0  0  0  0  0  0
   15.0771   -2.1652    0.0000 H   0  0  0  0  0  0  0  0  0  0  0  0
    5.4641    4.4168    0.0000 H   0  0  0  0  0  0  0  0  0  0  0  0
    8.3507    6.8408    0.0000 H   0  0  0  0  0  0  0  0  0  0  0  0
    7.5622    7.0985    0.0000 H   0  0  0  0  0  0  0  0  0  0  0  0
   10.7482   -0.5486    0.0000 H   0  0  0  0  0  0  0  0  0  0  0  0
   16.5317   -3.5368    0.0000 H   0  0  0  0  0  0  0  0  0  0  0  0
    9.0169    5.7268    0.0000 H   0  0  0  0  0  0  0  0  0  0  0  0
   13.2604   -0.1445    0.0000 H   0  0  0  0  0  0  0  0  0  0  0  0
   12.8619    0.5458    0.0000 H   0  0  0  0  0  0  0  0  0  0  0  0
    7.5101    3.8842    0.0000 H   0  0  0  0  0  0  0  0  0  0  0  0
    8.1034    3.3519    0.0000 H   0  0  0  0  0  0  0  0  0  0  0  0
   14.1876    2.1450    0.0000 H   0  0  0  0  0  0  0  0  0  0  0  0
   10.8669    3.9422    0.0000 H   0  0  0  0  0  0  0  0  0  0  0  0
   13.1868   -6.3468    0.0000 H   0  0  0  0  0  0  0  0  0  0  0  0
   15.5802    2.4002    0.0000 H   0  0  0  0  0  0  0  0  0  0  0  0
    5.1350    3.8468    0.0000 H   0  0  0  0  0  0  0  0  0  0  0  0
   12.1129   -2.7268    0.0000 H   0  0  0  0  0  0  0  0  0  0  0  0
   15.0250   -5.3794    0.0000 H   0  0  0  0  0  0  0  0  0  0  0  0
   15.6182   -5.9117    0.0000 H   0  0  0  0  0  0  0  0  0  0  0  0
   16.0554    3.7338    0.0000 H   0  0  0  0  0  0  0  0  0  0  0  0
   12.6499   -7.6568    0.0000 H   0  0  0  0  0  0  0  0  0  0  0  0
    4.5981    6.5368    0.0000 H   0  0  0  0  0  0  0  0  0  0  0  0
    3.7320    4.0368    0.0000 H   0  0  0  0  0  0  0  0  0  0  0  0
   15.1381    4.8122    0.0000 H   0  0  0  0  0  0  0  0  0  0  0  0
   13.7455    4.5569    0.0000 H   0  0  0  0  0  0  0  0  0  0  0  0
   12.3208   -7.8468    0.0000 H   0  0  0  0  0  0  0  0  0  0  0  0
    3.4030    3.8468    0.0000 H   0  0  0  0  0  0  0  0  0  0  0  0
   10.9178   -7.6568    0.0000 H   0  0  0  0  0  0  0  0  0  0  0  0
   10.9178   -5.4168    0.0000 H   0  0  0  0  0  0  0  0  0  0  0  0
    3.4030    1.6068    0.0000 H   0  0  0  0  0  0  0  0  0  0  0  0
    4.8059    1.4168    0.0000 H   0  0  0  0  0  0  0  0  0  0  0  0
   13.6589    5.8675    0.0000 H   0  0  0  0  0  0  0  0  0  0  0  0
   13.4946    5.0876    0.0000 H   0  0  0  0  0  0  0  0  0  0  0  0
   10.4503   -5.0619    0.0000 H   0  0  0  0  0  0  0  0  0  0  0  0
    9.6533   -5.0619    0.0000 H   0  0  0  0  0  0  0  0  0  0  0  0
    4.4810    0.1442    0.0000 H   0  0  0  0  0  0  0  0  0  0  0  0
    4.8796    0.8345    0.0000 H   0  0  0  0  0  0  0  0  0  0  0  0
   15.8908    1.4497    0.0000 H   0  0  0  0  0  0  0  0  0  0  0  0
   17.0339    3.5276    0.0000 H   0  0  0  0  0  0  0  0  0  0  0  0
   13.5159   -8.1568    0.0000 H   0  0  0  0  0  0  0  0  0  0  0  0
    3.7320    5.0368    0.0000 H   0  0  0  0  0  0  0  0  0  0  0  0
   16.6052    4.8393    0.0000 H   0  0  0  0  0  0  0  0  0  0  0  0
   11.2469   -8.8468    0.0000 H   0  0  0  0  0  0  0  0  0  0  0  0
    2.0000    3.4168    0.0000 H   0  0  0  0  0  0  0  0  0  0  0  0
   10.0518   -8.1568    0.0000 H   0  0  0  0  0  0  0  0  0  0  0  0
    2.0000    2.0368    0.0000 H   0  0  0  0  0  0  0  0  0  0  0  0
    5.1350    8.8468    0.0000 H   0  0  0  0  0  0  0  0  0  0  0  0
   14.5167    6.7132    0.0000 H   0  0  0  0  0  0  0  0  0  0  0  0
    8.6488   -5.7268    0.0000 H   0  0  0  0  0  0  0  0  0  0  0  0
    3.4030   -0.3932    0.0000 H   0  0  0  0  0  0  0  0  0  0  0  0
   17.7786   -7.2617    0.0000 H   0  0  0  0  0  0  0  0  0  0  0  0
   18.5131   -6.7829    0.0000 H   0  0  0  0  0  0  0  0  0  0  0  0
   18.0343   -6.0484    0.0000 H   0  0  0  0  0  0  0  0  0  0  0  0
 38  1  1  1  0  0  0
 53  1  1  6  0  0  0
  2 38  1  0  0  0  0
  2 54  1  0  0  0  0
 39  3  1  6  0  0  0
 55  3  1  1  0  0  0
  4 39  1  0  0  0  0
  4 59  1  0  0  0  0
 43  5  1  6  0  0  0
 57  5  1  6  0  0  0
  6 43  1  0  0  0  0
  6 64  1  0  0  0  0
  7 50  1  0  0  0  0
  7 61  1  0  0  0  0
  8 52  1  0  0  0  0
  8 58  1  0  0  0  0
  9 53  1  0  0  0  0
  9 67  1  0  0  0  0
 10 55  1  0  0  0  0
 10 71  1  0  0  0  0
 11 57  1  0  0  0  0
 11 73  1  0  0  0  0
 12 60  1  0  0  0  0
 12 78  1  0  0  0  0
 56 13  1  1  0  0  0
 13128  1  0  0  0  0
 62 14  1  6  0  0  0
 14129  1  0  0  0  0
 63 15  1  6  0  0  0
 15130  1  0  0  0  0
 65 16  1  1  0  0  0
 16131  1  0  0  0  0
 17 58  2  0  0  0  0
 66 18  1  1  0  0  0
 18132  1  0  0  0  0
 68 19  1  1  0  0  0
 19133  1  0  0  0  0
 69 20  1  6  0  0  0
 20134  1  0  0  0  0
 21 61  2  0  0  0  0
 70 22  1  6  0  0  0
 22135  1  0  0  0  0
 72 23  1  1  0  0  0
 23136  1  0  0  0  0
 24 74  1  0  0  0  0
 24137  1  0  0  0  0
 25 74  2  0  0  0  0
 26 75  1  0  0  0  0
 26138  1  0  0  0  0
 27 76  1  0  0  0  0
 27139  1  0  0  0  0
 28 77  1  0  0  0  0
 28140  1  0  0  0  0
 29 78  2  0  0  0  0
 30 31  1  0  0  0  0
 30 36  1  0  0  0  0
 30 38  1  0  0  0  0
 30 80  1  1  0  0  0
 31 37  1  0  0  0  0
 31 42  1  0  0  0  0
 31 81  1  1  0  0  0
 32 34  1  0  0  0  0
 32 39  1  0  0  0  0
 32 45  1  0  0  0  0
 32 82  1  6  0  0  0
 33 35  1  0  0  0  0
 33 41  1  0  0  0  0
 33 43  1  0  0  0  0
 33 83  1  6  0  0  0
 34 40  1  0  0  0  0
 34 47  1  0  0  0  0
 34 84  1  6  0  0  0
 35 44  1  0  0  0  0
 35 51  1  0  0  0  0
 35 85  1  6  0  0  0
 36 46  2  0  0  0  0
 36 50  1  0  0  0  0
 37 46  1  0  0  0  0
 37 86  1  0  0  0  0
 37 87  1  0  0  0  0
 38 88  1  0  0  0  0
 39 89  1  0  0  0  0
 40 48  1  0  0  0  0
 40 90  1  0  0  0  0
 40 91  1  0  0  0  0
 41 49  2  0  0  0  0
 41 52  1  0  0  0  0
 42 54  2  0  0  0  0
 42 58  1  0  0  0  0
 43 92  1  0  0  0  0
 44 49  1  0  0  0  0
 44 93  1  0  0  0  0
 44 94  1  0  0  0  0
 45 48  2  0  0  0  0
 45 60  1  0  0  0  0
 46 95  1  0  0  0  0
 47 59  2  0  0  0  0
 47 61  1  0  0  0  0
 48 96  1  0  0  0  0
 49 97  1  0  0  0  0
 50 98  1  0  0  0  0
 50 99  1  0  0  0  0
 51 64  2  0  0  0  0
 51 74  1  0  0  0  0
 52100  1  0  0  0  0
 52101  1  0  0  0  0
 53 56  1  0  0  0  0
 53102  1  0  0  0  0
 54103  1  0  0  0  0
 55 63  1  0  0  0  0
 55104  1  0  0  0  0
 56 62  1  0  0  0  0
 56105  1  0  0  0  0
 57 65  1  0  0  0  0
 57106  1  0  0  0  0
 59107  1  0  0  0  0
 60108  1  0  0  0  0
 60109  1  0  0  0  0
 62 66  1  0  0  0  0
 62110  1  0  0  0  0
 63 68  1  0  0  0  0
 63111  1  0  0  0  0
 64112  1  0  0  0  0
 65 69  1  0  0  0  0
 65113  1  0  0  0  0
 66 67  1  0  0  0  0
 66114  1  0  0  0  0
 67 75  1  6  0  0  0
 67115  1  0  0  0  0
 68 70  1  0  0  0  0
 68116  1  0  0  0  0
 69 72  1  0  0  0  0
 69117  1  0  0  0  0
 70 71  1  0  0  0  0
 70118  1  0  0  0  0
 71 76  1  1  0  0  0
 71119  1  0  0  0  0
 72 73  1  0  0  0  0
 72120  1  0  0  0  0
 73 77  1  6  0  0  0
 73121  1  0  0  0  0
 75122  1  0  0  0  0
 75123  1  0  0  0  0
 76124  1  0  0  0  0
 76125  1  0  0  0  0
 77126  1  0  0  0  0
 77127  1  0  0  0  0
 78 79  1  0  0  0  0
 79141  1  0  0  0  0
 79142  1  0  0  0  0
 79143  1  0  0  0  0
M  END
> <PUBCHEM_COMPOUND_CID>
14540384

> <PUBCHEM_COMPOUND_CANONICALIZED>
1

> <PUBCHEM_CACTVS_COMPLEXITY>
2450

> <PUBCHEM_CACTVS_HBOND_ACCEPTOR>
29

> <PUBCHEM_CACTVS_HBOND_DONOR>
13

> <PUBCHEM_CACTVS_ROTATABLE_BOND>
21

> <PUBCHEM_CACTVS_SUBSKEYS>
AAADcfB8PgAAAAAAAAAAAAAAAAAAAQIEAAAkSJECAAAAAEAAAAAAGgAACAAADRSwgAMCCAAABgCIAiDSCAAACAAgIAAACAEAAEgRFBIAIQAiUAAFwAAPMIPIbAwOgAAAAAAAAAAAAAAAAAAAAAAAAAAAAA==

> <PUBCHEM_IUPAC_OPENEYE_NAME>
(1S,4aS,7aS)-7-[[(1S,4aS,7aS)-7-[[(1S,4aS,7aS)-7-(acetoxymethyl)-1-[(2S,3R,4S,5S,6R)-3,4,5-trihydroxy-6-(hydroxymethyl)tetrahydropyran-2-yl]oxy-1,4a,5,7a-tetrahydrocyclopenta[c]pyran-4-carbonyl]oxymethyl]-1-[(2S,3R,4S,5S,6R)-3,4,5-trihydroxy-6-(hydroxymethyl)tetrahydropyran-2-yl]oxy-1,4a,5,7a-tetrahydrocyclopenta[c]pyran-4-carbonyl]oxymethyl]-1-[(2S,3R,4S,5S,6R)-3,4,5-trihydroxy-6-(hydroxymethyl)tetrahydropyran-2-yl]oxy-1,4a,5,7a-tetrahydrocyclopenta[c]pyran-4-carboxylic acid

> <PUBCHEM_IUPAC_CAS_NAME>
(1S,4aS,7aS)-7-[[[(1S,4aS,7aS)-7-[[[(1S,4aS,7aS)-7-(acetyloxymethyl)-1-[[(2S,3R,4S,5S,6R)-3,4,5-trihydroxy-6-(hydroxymethyl)-2-oxanyl]oxy]-1,4a,5,7a-tetrahydrocyclopenta[c]pyran-4-yl]-oxomethoxy]methyl]-1-[[(2S,3R,4S,5S,6R)-3,4,5-trihydroxy-6-(hydroxymethyl)-2-oxanyl]oxy]-1,4a,5,7a-tetrahydrocyclopenta[c]pyran-4-yl]-oxomethoxy]methyl]-1-[[(2S,3R,4S,5S,6R)-3,4,5-trihydroxy-6-(hydroxymethyl)-2-oxanyl]oxy]-1,4a,5,7a-tetrahydrocyclopenta[c]pyran-4-carboxylic acid

> <PUBCHEM_IUPAC_NAME_MARKUP>
(1<I>S</I>,4<I>a</I><I>S</I>,7<I>a</I><I>S</I>)-7-[[(1<I>S</I>,4<I>a</I><I>S</I>,7<I>a</I><I>S</I>)-7-[[(1<I>S</I>,4<I>a</I><I>S</I>,7<I>a</I><I>S</I>)-7-(acetyloxymethyl)-1-[(2<I>S</I>,3<I>R</I>,4<I>S</I>,5<I>S</I>,6<I>R</I>)-3,4,5-trihydroxy-6-(hydroxymethyl)oxan-2-yl]oxy-1,4<I>a</I>,5,7<I>a</I>-tetrahydrocyclopenta[c]pyran-4-carbonyl]oxymethyl]-1-[(2<I>S</I>,3<I>R</I>,4<I>S</I>,5<I>S</I>,6<I>R</I>)-3,4,5-trihydroxy-6-(hydroxymethyl)oxan-2-yl]oxy-1,4<I>a</I>,5,7<I>a</I>-tetrahydrocyclopenta[c]pyran-4-carbonyl]oxymethyl]-1-[(2<I>S</I>,3<I>R</I>,4<I>S</I>,5<I>S</I>,6<I>R</I>)-3,4,5-trihydroxy-6-(hydroxymethyl)oxan-2-yl]oxy-1,4<I>a</I>,5,7<I>a</I>-tetrahydrocyclopenta[c]pyran-4-carboxylic acid

> <PUBCHEM_IUPAC_NAME>
(1S,4aS,7aS)-7-[[(1S,4aS,7aS)-7-[[(1S,4aS,7aS)-7-(acetyloxymethyl)-1-[(2S,3R,4S,5S,6R)-3,4,5-trihydroxy-6-(hydroxymethyl)oxan-2-yl]oxy-1,4a,5,7a-tetrahydrocyclopenta[c]pyran-4-carbonyl]oxymethyl]-1-[(2S,3R,4S,5S,6R)-3,4,5-trihydroxy-6-(hydroxymethyl)oxan-2-yl]oxy-1,4a,5,7a-tetrahydrocyclopenta[c]pyran-4-carbonyl]oxymethyl]-1-[(2S,3R,4S,5S,6R)-3,4,5-trihydroxy-6-(hydroxymethyl)oxan-2-yl]oxy-1,4a,5,7a-tetrahydrocyclopenta[c]pyran-4-carboxylic acid

> <PUBCHEM_IUPAC_SYSTEMATIC_NAME>
(1S,4aS,7aS)-7-[[(1S,4aS,7aS)-7-[[(1S,4aS,7aS)-7-(acetyloxymethyl)-1-[(2S,3R,4S,5S,6R)-6-(hydroxymethyl)-3,4,5-tris(oxidanyl)oxan-2-yl]oxy-1,4a,5,7a-tetrahydrocyclopenta[c]pyran-4-yl]carbonyloxymethyl]-1-[(2S,3R,4S,5S,6R)-6-(hydroxymethyl)-3,4,5-tris(oxidanyl)oxan-2-yl]oxy-1,4a,5,7a-tetrahydrocyclopenta[c]pyran-4-yl]carbonyloxymethyl]-1-[(2S,3R,4S,5S,6R)-6-(hydroxymethyl)-3,4,5-tris(oxidanyl)oxan-2-yl]oxy-1,4a,5,7a-tetrahydrocyclopenta[c]pyran-4-carboxylic acid

> <PUBCHEM_IUPAC_TRADITIONAL_NAME>
(1S,4aS,7aS)-7-[[(1S,4aS,7aS)-7-[[(1S,4aS,7aS)-7-(acetoxymethyl)-1-[(2S,3R,4S,5S,6R)-3,4,5-trihydroxy-6-methylol-tetrahydropyran-2-yl]oxy-1,4a,5,7a-tetrahydrocyclopenta[c]pyran-4-carbonyl]oxymethyl]-1-[(2S,3R,4S,5S,6R)-3,4,5-trihydroxy-6-methylol-tetrahydropyran-2-yl]oxy-1,4a,5,7a-tetrahydrocyclopenta[c]pyran-4-carbonyl]oxymethyl]-1-[(2S,3R,4S,5S,6R)-3,4,5-trihydroxy-6-methylol-tetrahydropyran-2-yl]oxy-1,4a,5,7a-tetrahydrocyclopenta[c]pyran-4-carboxylic acid

> <PUBCHEM_IUPAC_INCHI>
InChI=1S/C50H64O29/c1-17(54)68-11-18-3-6-22-25(15-72-46(31(18)22)78-49-40(62)37(59)34(56)28(9-52)75-49)43(66)70-13-20-4-7-23-26(16-73-47(32(20)23)79-50-41(63)38(60)35(57)29(10-53)76-50)44(67)69-12-19-2-5-21-24(42(64)65)14-71-45(30(19)21)77-48-39(61)36(58)33(55)27(8-51)74-48/h2-4,14-16,21-23,27-41,45-53,55-63H,5-13H2,1H3,(H,64,65)/t21-,22-,23-,27-,28-,29-,30-,31-,32-,33-,34-,35-,36+,37+,38+,39-,40-,41-,45+,46+,47+,48+,49+,50+/m1/s1

> <PUBCHEM_IUPAC_INCHIKEY>
KZAVYXPUZQXNLG-PIFMLICMSA-N

> <PUBCHEM_XLOGP3_AA>
-5.9

> <PUBCHEM_EXACT_MASS>
1128.353326

> <PUBCHEM_MOLECULAR_FORMULA>
C50H64O29

> <PUBCHEM_MOLECULAR_WEIGHT>
1129

> <PUBCHEM_OPENEYE_CAN_SMILES>
CC(=O)OCC1=CCC2C1C(OC=C2C(=O)OCC3=CCC4C3C(OC=C4C(=O)OCC5=CCC6C5C(OC=C6C(=O)O)OC7C(C(C(C(O7)CO)O)O)O)OC8C(C(C(C(O8)CO)O)O)O)OC9C(C(C(C(O9)CO)O)O)O

> <PUBCHEM_OPENEYE_ISO_SMILES>
CC(=O)OCC1=CC[C@H]2[C@@H]1[C@@H](OC=C2C(=O)OCC3=CC[C@H]4[C@@H]3[C@@H](OC=C4C(=O)OCC5=CC[C@H]6[C@@H]5[C@@H](OC=C6C(=O)O)O[C@H]7[C@@H]([C@H]([C@@H]([C@H](O7)CO)O)O)O)O[C@H]8[C@@H]([C@H]([C@@H]([C@H](O8)CO)O)O)O)O[C@H]9[C@@H]([C@H]([C@@H]([C@H](O9)CO)O)O)O

> <PUBCHEM_CACTVS_TPSA>
442

> <PUBCHEM_MONOISOTOPIC_WEIGHT>
1128.353326

> <PUBCHEM_TOTAL_CHARGE>
0

> <PUBCHEM_HEAVY_ATOM_COUNT>
79

> <PUBCHEM_ATOM_DEF_STEREO_COUNT>
24

> <PUBCHEM_ATOM_UDEF_STEREO_COUNT>
0

> <PUBCHEM_BOND_DEF_STEREO_COUNT>
0

> <PUBCHEM_BOND_UDEF_STEREO_COUNT>
0

> <PUBCHEM_ISOTOPIC_ATOM_COUNT>
0

> <PUBCHEM_COMPONENT_COUNT>
1

> <PUBCHEM_CACTVS_TAUTO_COUNT>
-1

> <PUBCHEM_COORDINATE_TYPE>
1
5
255

> <PUBCHEM_BONDANNOTATIONS>
38  1  5
53  1  6
56  13  5
62  14  6
63  15  6
65  16  5
66  18  5
68  19  5
69  20  6
70  22  6
72  23  5
39  3  6
55  3  5
30  80  5
31  81  5
32  82  6
33  83  6
34  84  6
35  85  6
43  5  6
57  5  6
67  75  6
71  76  5
73  77  6

$$$$
