14540382
  -OEChem-09082010072D

138146  0     1  0  0  0  0  0999 V2000
    7.0201   -3.5882    0.0000 O   0  0  0  0  0  0  0  0  0  0  0  0
    6.1541   -2.0882    0.0000 O   0  0  0  0  0  0  0  0  0  0  0  0
    6.8314    3.9386    0.0000 O   0  0  0  0  0  0  0  0  0  0  0  0
   14.3462   -5.3251    0.0000 O   0  0  0  0  0  0  0  0  0  0  0  0
   13.0570   -4.1683    0.0000 O   0  0  0  0  0  0  0  0  0  0  0  0
    5.5422    5.0953    0.0000 O   0  0  0  0  0  0  0  0  0  0  0  0
   10.1215   -3.5497    0.0000 O   0  0  0  0  0  0  0  0  0  0  0  0
    6.1541    0.9118    0.0000 O   0  0  0  0  0  0  0  0  0  0  0  0
    5.2881   -3.5882    0.0000 O   0  0  0  0  0  0  0  0  0  0  0  0
    7.1885    5.6334    0.0000 O   0  0  0  0  0  0  0  0  0  0  0  0
   14.7034   -3.6302    0.0000 O   0  0  0  0  0  0  0  0  0  0  0  0
    7.0201   -5.5882    0.0000 O   0  0  0  0  0  0  0  0  0  0  0  0
   13.6689   -8.3519    0.0000 O   0  0  0  0  0  0  0  0  0  0  0  0
    5.2881   -6.5882    0.0000 O   0  0  0  0  0  0  0  0  0  0  0  0
    8.7884    3.5262    0.0000 O   0  0  0  0  0  0  0  0  0  0  0  0
   16.3032   -5.7375    0.0000 O   0  0  0  0  0  0  0  0  0  0  0  0
    7.8861    0.9118    0.0000 O   0  0  0  0  0  0  0  0  0  0  0  0
    3.5560   -5.5882    0.0000 O   0  0  0  0  0  0  0  0  0  0  0  0
   10.1241    5.0148    0.0000 O   0  0  0  0  0  0  0  0  0  0  0  0
   17.6389   -4.2489    0.0000 O   0  0  0  0  0  0  0  0  0  0  0  0
    9.7644   -5.2445    0.0000 O   0  0  0  0  0  0  0  0  0  0  0  0
    9.5027    6.9158    0.0000 O   0  0  0  0  0  0  0  0  0  0  0  0
   17.0176   -2.3479    0.0000 O   0  0  0  0  0  0  0  0  0  0  0  0
    2.6067    5.7140    0.0000 O   0  0  0  0  0  0  0  0  0  0  0  0
    2.2495    4.0192    0.0000 O   0  0  0  0  0  0  0  0  0  0  0  0
    2.6900   -4.0882    0.0000 O   0  0  0  0  0  0  0  0  0  0  0  0
    8.2136    8.0726    0.0000 O   0  0  0  0  0  0  0  0  0  0  0  0
   15.7284   -1.1911    0.0000 O   0  0  0  0  0  0  0  0  0  0  0  0
    7.8861   -2.0882    0.0000 C   0  0  1  0  0  0  0  0  0  0  0  0
    7.8861   -1.0882    0.0000 C   0  0  2  0  0  0  0  0  0  0  0  0
    5.1850    3.4005    0.0000 C   0  0  1  0  0  0  0  0  0  0  0  0
   12.6999   -5.8632    0.0000 C   0  0  2  0  0  0  0  0  0  0  0  0
   11.7214   -5.6569    0.0000 C   0  0  2  0  0  0  0  0  0  0  0  0
    4.2065    3.6067    0.0000 C   0  0  2  0  0  0  0  0  0  0  0  0
    8.8324   -2.3929    0.0000 C   0  0  0  0  0  0  0  0  0  0  0  0
    8.8324   -0.7835    0.0000 C   0  0  0  0  0  0  0  0  0  0  0  0
    7.0201   -2.5882    0.0000 C   0  0  2  0  0  0  0  0  0  0  0  0
    5.2881    2.4118    0.0000 C   0  0  0  0  0  0  0  0  0  0  0  0
    5.8528    4.1448    0.0000 C   0  0  2  0  0  0  0  0  0  0  0  0
   13.3677   -5.1188    0.0000 C   0  0  2  0  0  0  0  0  0  0  0  0
    3.7132    2.7437    0.0000 C   0  0  0  0  0  0  0  0  0  0  0  0
   11.2280   -6.5200    0.0000 C   0  0  0  0  0  0  0  0  0  0  0  0
    7.0201   -0.5882    0.0000 C   0  0  0  0  0  0  0  0  0  0  0  0
    9.4160   -1.5882    0.0000 C   0  0  0  0  0  0  0  0  0  0  0  0
   12.8029   -6.8519    0.0000 C   0  0  0  0  0  0  0  0  0  0  0  0
   11.4107   -4.7064    0.0000 C   0  0  0  0  0  0  0  0  0  0  0  0
    4.3803    2.0067    0.0000 C   0  0  0  0  0  0  0  0  0  0  0  0
   11.8951   -7.2570    0.0000 C   0  0  0  0  0  0  0  0  0  0  0  0
    9.1430   -3.3434    0.0000 C   0  0  0  0  0  0  0  0  0  0  0  0
    3.8958    4.5573    0.0000 C   0  0  0  0  0  0  0  0  0  0  0  0
    6.1541    1.9118    0.0000 C   0  0  0  0  0  0  0  0  0  0  0  0
    6.1541   -4.0882    0.0000 C   0  0  2  0  0  0  0  0  0  0  0  0
    6.1541   -1.0882    0.0000 C   0  0  0  0  0  0  0  0  0  0  0  0
    7.4992    4.6829    0.0000 C   0  0  2  0  0  0  0  0  0  0  0  0
   15.0141   -4.5808    0.0000 C   0  0  2  0  0  0  0  0  0  0  0  0
    6.1541   -5.0882    0.0000 C   0  0  1  0  0  0  0  0  0  0  0  0
    7.0201    0.4118    0.0000 C   0  0  0  0  0  0  0  0  0  0  0  0
   12.0785   -3.9621    0.0000 C   0  0  0  0  0  0  0  0  0  0  0  0
   13.6689   -7.3519    0.0000 C   0  0  0  0  0  0  0  0  0  0  0  0
    5.2881   -5.5882    0.0000 C   0  0  2  0  0  0  0  0  0  0  0  0
    4.5637    5.3016    0.0000 C   0  0  0  0  0  0  0  0  0  0  0  0
    8.4777    4.4767    0.0000 C   0  0  1  0  0  0  0  0  0  0  0  0
   10.4322   -4.5002    0.0000 C   0  0  0  0  0  0  0  0  0  0  0  0
   15.9926   -4.7870    0.0000 C   0  0  1  0  0  0  0  0  0  0  0  0
    4.4220   -5.0882    0.0000 C   0  0  1  0  0  0  0  0  0  0  0  0
    4.4220   -4.0882    0.0000 C   0  0  1  0  0  0  0  0  0  0  0  0
    9.1456    5.2210    0.0000 C   0  0  2  0  0  0  0  0  0  0  0  0
   16.6604   -4.0427    0.0000 C   0  0  2  0  0  0  0  0  0  0  0  0
    8.8349    6.1715    0.0000 C   0  0  1  0  0  0  0  0  0  0  0  0
   16.3497   -3.0922    0.0000 C   0  0  1  0  0  0  0  0  0  0  0  0
    7.8564    6.3777    0.0000 C   0  0  1  0  0  0  0  0  0  0  0  0
   15.3712   -2.8859    0.0000 C   0  0  1  0  0  0  0  0  0  0  0  0
    2.9173    4.7635    0.0000 C   0  0  0  0  0  0  0  0  0  0  0  0
    3.5560   -3.5882    0.0000 C   0  0  0  0  0  0  0  0  0  0  0  0
    7.5457    7.3282    0.0000 C   0  0  0  0  0  0  0  0  0  0  0  0
   15.0606   -1.9354    0.0000 C   0  0  0  0  0  0  0  0  0  0  0  0
    7.9761   -2.9334    0.0000 H   0  0  0  0  0  0  0  0  0  0  0  0
    7.9761   -0.2430    0.0000 H   0  0  0  0  0  0  0  0  0  0  0  0
    5.9935    3.1382    0.0000 H   0  0  0  0  0  0  0  0  0  0  0  0
   13.5084   -6.1255    0.0000 H   0  0  0  0  0  0  0  0  0  0  0  0
   10.8757   -5.5706    0.0000 H   0  0  0  0  0  0  0  0  0  0  0  0
    3.3609    3.6930    0.0000 H   0  0  0  0  0  0  0  0  0  0  0  0
    9.3697   -0.4742    0.0000 H   0  0  0  0  0  0  0  0  0  0  0  0
    8.5813   -0.2166    0.0000 H   0  0  0  0  0  0  0  0  0  0  0  0
    7.5570   -2.8982    0.0000 H   0  0  0  0  0  0  0  0  0  0  0  0
    6.0455    3.5555    0.0000 H   0  0  0  0  0  0  0  0  0  0  0  0
   13.5603   -5.7082    0.0000 H   0  0  0  0  0  0  0  0  0  0  0  0
    3.2102    3.1062    0.0000 H   0  0  0  0  0  0  0  0  0  0  0  0
    3.2998    2.2816    0.0000 H   0  0  0  0  0  0  0  0  0  0  0  0
   10.7251   -6.1574    0.0000 H   0  0  0  0  0  0  0  0  0  0  0  0
   10.8147   -6.9820    0.0000 H   0  0  0  0  0  0  0  0  0  0  0  0
   10.0360   -1.5882    0.0000 H   0  0  0  0  0  0  0  0  0  0  0  0
    4.2524    1.4000    0.0000 H   0  0  0  0  0  0  0  0  0  0  0  0
   11.7673   -7.8637    0.0000 H   0  0  0  0  0  0  0  0  0  0  0  0
    8.5292   -3.4308    0.0000 H   0  0  0  0  0  0  0  0  0  0  0  0
    9.1225   -3.9631    0.0000 H   0  0  0  0  0  0  0  0  0  0  0  0
    6.7647    1.8041    0.0000 H   0  0  0  0  0  0  0  0  0  0  0  0
    6.3661    2.4944    0.0000 H   0  0  0  0  0  0  0  0  0  0  0  0
    6.6910   -4.3982    0.0000 H   0  0  0  0  0  0  0  0  0  0  0  0
    5.6172   -0.7782    0.0000 H   0  0  0  0  0  0  0  0  0  0  0  0
    7.6918    4.0936    0.0000 H   0  0  0  0  0  0  0  0  0  0  0  0
   15.2067   -5.1701    0.0000 H   0  0  0  0  0  0  0  0  0  0  0  0
    6.1541   -5.7082    0.0000 H   0  0  0  0  0  0  0  0  0  0  0  0
   11.8859   -3.3728    0.0000 H   0  0  0  0  0  0  0  0  0  0  0  0
   14.2795   -7.4595    0.0000 H   0  0  0  0  0  0  0  0  0  0  0  0
   13.8810   -6.7693    0.0000 H   0  0  0  0  0  0  0  0  0  0  0  0
    4.7511   -5.8982    0.0000 H   0  0  0  0  0  0  0  0  0  0  0  0
    4.3711    5.8909    0.0000 H   0  0  0  0  0  0  0  0  0  0  0  0
    9.0844    4.3488    0.0000 H   0  0  0  0  0  0  0  0  0  0  0  0
   16.5992   -4.9148    0.0000 H   0  0  0  0  0  0  0  0  0  0  0  0
    4.4220   -5.7082    0.0000 H   0  0  0  0  0  0  0  0  0  0  0  0
    4.4220   -3.4682    0.0000 H   0  0  0  0  0  0  0  0  0  0  0  0
    9.5596    5.6825    0.0000 H   0  0  0  0  0  0  0  0  0  0  0  0
   17.0745   -3.5812    0.0000 H   0  0  0  0  0  0  0  0  0  0  0  0
    8.6423    6.7608    0.0000 H   0  0  0  0  0  0  0  0  0  0  0  0
   16.1571   -2.5028    0.0000 H   0  0  0  0  0  0  0  0  0  0  0  0
    7.2497    6.5056    0.0000 H   0  0  0  0  0  0  0  0  0  0  0  0
   14.7646   -2.7581    0.0000 H   0  0  0  0  0  0  0  0  0  0  0  0
    3.9545   -3.1132    0.0000 H   0  0  0  0  0  0  0  0  0  0  0  0
    3.1575   -3.1132    0.0000 H   0  0  0  0  0  0  0  0  0  0  0  0
    7.1632    7.8162    0.0000 H   0  0  0  0  0  0  0  0  0  0  0  0
    6.9988    7.0362    0.0000 H   0  0  0  0  0  0  0  0  0  0  0  0
   14.6780   -1.4475    0.0000 H   0  0  0  0  0  0  0  0  0  0  0  0
   14.5137   -2.2274    0.0000 H   0  0  0  0  0  0  0  0  0  0  0  0
    7.0201   -6.2082    0.0000 H   0  0  0  0  0  0  0  0  0  0  0  0
   14.2059   -8.6619    0.0000 H   0  0  0  0  0  0  0  0  0  0  0  0
    4.7511   -6.8982    0.0000 H   0  0  0  0  0  0  0  0  0  0  0  0
    9.3950    3.3983    0.0000 H   0  0  0  0  0  0  0  0  0  0  0  0
   16.9099   -5.8654    0.0000 H   0  0  0  0  0  0  0  0  0  0  0  0
    3.5560   -6.2082    0.0000 H   0  0  0  0  0  0  0  0  0  0  0  0
   10.5381    5.4762    0.0000 H   0  0  0  0  0  0  0  0  0  0  0  0
   18.0530   -3.7874    0.0000 H   0  0  0  0  0  0  0  0  0  0  0  0
   10.1094    6.7880    0.0000 H   0  0  0  0  0  0  0  0  0  0  0  0
   17.6243   -2.4757    0.0000 H   0  0  0  0  0  0  0  0  0  0  0  0
    2.0000    5.8419    0.0000 H   0  0  0  0  0  0  0  0  0  0  0  0
    2.1530   -3.7782    0.0000 H   0  0  0  0  0  0  0  0  0  0  0  0
    8.0210    8.6619    0.0000 H   0  0  0  0  0  0  0  0  0  0  0  0
   15.5358   -0.6018    0.0000 H   0  0  0  0  0  0  0  0  0  0  0  0
 37  1  1  6  0  0  0
 52  1  1  1  0  0  0
  2 37  1  0  0  0  0
  2 53  1  0  0  0  0
 39  3  1  1  0  0  0
 54  3  1  6  0  0  0
 40  4  1  1  0  0  0
 55  4  1  6  0  0  0
  5 40  1  0  0  0  0
  5 58  1  0  0  0  0
  6 39  1  0  0  0  0
  6 61  1  0  0  0  0
  7 49  1  0  0  0  0
  7 63  1  0  0  0  0
  8 51  1  0  0  0  0
  8 57  1  0  0  0  0
  9 52  1  0  0  0  0
  9 66  1  0  0  0  0
 10 54  1  0  0  0  0
 10 71  1  0  0  0  0
 11 55  1  0  0  0  0
 11 72  1  0  0  0  0
 56 12  1  6  0  0  0
 12125  1  0  0  0  0
 13 59  1  0  0  0  0
 13126  1  0  0  0  0
 60 14  1  1  0  0  0
 14127  1  0  0  0  0
 62 15  1  1  0  0  0
 15128  1  0  0  0  0
 64 16  1  1  0  0  0
 16129  1  0  0  0  0
 17 57  2  0  0  0  0
 65 18  1  6  0  0  0
 18130  1  0  0  0  0
 67 19  1  6  0  0  0
 19131  1  0  0  0  0
 68 20  1  6  0  0  0
 20132  1  0  0  0  0
 21 63  2  0  0  0  0
 69 22  1  1  0  0  0
 22133  1  0  0  0  0
 70 23  1  1  0  0  0
 23134  1  0  0  0  0
 24 73  1  0  0  0  0
 24135  1  0  0  0  0
 25 73  2  0  0  0  0
 26 74  1  0  0  0  0
 26136  1  0  0  0  0
 27 75  1  0  0  0  0
 27137  1  0  0  0  0
 28 76  1  0  0  0  0
 28138  1  0  0  0  0
 29 30  1  0  0  0  0
 29 35  1  0  0  0  0
 29 37  1  0  0  0  0
 29 77  1  6  0  0  0
 30 36  1  0  0  0  0
 30 43  1  0  0  0  0
 30 78  1  6  0  0  0
 31 34  1  0  0  0  0
 31 38  1  0  0  0  0
 31 39  1  0  0  0  0
 31 79  1  1  0  0  0
 32 33  1  0  0  0  0
 32 40  1  0  0  0  0
 32 45  1  0  0  0  0
 32 80  1  1  0  0  0
 33 42  1  0  0  0  0
 33 46  1  0  0  0  0
 33 81  1  1  0  0  0
 34 41  1  0  0  0  0
 34 50  1  0  0  0  0
 34 82  1  1  0  0  0
 35 44  2  0  0  0  0
 35 49  1  0  0  0  0
 36 44  1  0  0  0  0
 36 83  1  0  0  0  0
 36 84  1  0  0  0  0
 37 85  1  0  0  0  0
 38 47  2  0  0  0  0
 38 51  1  0  0  0  0
 39 86  1  0  0  0  0
 40 87  1  0  0  0  0
 41 47  1  0  0  0  0
 41 88  1  0  0  0  0
 41 89  1  0  0  0  0
 42 48  1  0  0  0  0
 42 90  1  0  0  0  0
 42 91  1  0  0  0  0
 43 53  2  0  0  0  0
 43 57  1  0  0  0  0
 44 92  1  0  0  0  0
 45 48  2  0  0  0  0
 45 59  1  0  0  0  0
 46 58  2  0  0  0  0
 46 63  1  0  0  0  0
 47 93  1  0  0  0  0
 48 94  1  0  0  0  0
 49 95  1  0  0  0  0
 49 96  1  0  0  0  0
 50 61  2  0  0  0  0
 50 73  1  0  0  0  0
 51 97  1  0  0  0  0
 51 98  1  0  0  0  0
 52 56  1  0  0  0  0
 52 99  1  0  0  0  0
 53100  1  0  0  0  0
 54 62  1  0  0  0  0
 54101  1  0  0  0  0
 55 64  1  0  0  0  0
 55102  1  0  0  0  0
 56 60  1  0  0  0  0
 56103  1  0  0  0  0
 58104  1  0  0  0  0
 59105  1  0  0  0  0
 59106  1  0  0  0  0
 60 65  1  0  0  0  0
 60107  1  0  0  0  0
 61108  1  0  0  0  0
 62 67  1  0  0  0  0
 62109  1  0  0  0  0
 64 68  1  0  0  0  0
 64110  1  0  0  0  0
 65 66  1  0  0  0  0
 65111  1  0  0  0  0
 66 74  1  1  0  0  0
 66112  1  0  0  0  0
 67 69  1  0  0  0  0
 67113  1  0  0  0  0
 68 70  1  0  0  0  0
 68114  1  0  0  0  0
 69 71  1  0  0  0  0
 69115  1  0  0  0  0
 70 72  1  0  0  0  0
 70116  1  0  0  0  0
 71 75  1  6  0  0  0
 71117  1  0  0  0  0
 72 76  1  6  0  0  0
 72118  1  0  0  0  0
 74119  1  0  0  0  0
 74120  1  0  0  0  0
 75121  1  0  0  0  0
 75122  1  0  0  0  0
 76123  1  0  0  0  0
 76124  1  0  0  0  0
M  END
> <PUBCHEM_COMPOUND_CID>
14540382

> <PUBCHEM_COMPOUND_CANONICALIZED>
1

> <PUBCHEM_CACTVS_COMPLEXITY>
2330

> <PUBCHEM_CACTVS_HBOND_ACCEPTOR>
28

> <PUBCHEM_CACTVS_HBOND_DONOR>
14

> <PUBCHEM_CACTVS_ROTATABLE_BOND>
19

> <PUBCHEM_CACTVS_SUBSKEYS>
AAADcfB8PgAAAAAAAAAAAAAAAAAAAQIEAAAkSJECAAAAAEAAAAAAGgAACAAADRSwgAMACAAABgCIAiDSCAAACAAgIAAACAEAAEgRFBIAIQAiUAAFwAAPMIPIbAwOgAAAAAAAAAAAAAAAAAAAAAAAAAAAAA==

> <PUBCHEM_IUPAC_OPENEYE_NAME>
(1S,4aS,7aS)-7-[[(1S,4aS,7aS)-7-[[(1S,4aS,7aS)-7-(hydroxymethyl)-1-[(2S,3R,4S,5S,6R)-3,4,5-trihydroxy-6-(hydroxymethyl)tetrahydropyran-2-yl]oxy-1,4a,5,7a-tetrahydrocyclopenta[c]pyran-4-carbonyl]oxymethyl]-1-[(2S,3R,4S,5S,6R)-3,4,5-trihydroxy-6-(hydroxymethyl)tetrahydropyran-2-yl]oxy-1,4a,5,7a-tetrahydrocyclopenta[c]pyran-4-carbonyl]oxymethyl]-1-[(2S,3R,4S,5S,6R)-3,4,5-trihydroxy-6-(hydroxymethyl)tetrahydropyran-2-yl]oxy-1,4a,5,7a-tetrahydrocyclopenta[c]pyran-4-carboxylic acid

> <PUBCHEM_IUPAC_CAS_NAME>
(1S,4aS,7aS)-7-[[[(1S,4aS,7aS)-7-[[[(1S,4aS,7aS)-7-(hydroxymethyl)-1-[[(2S,3R,4S,5S,6R)-3,4,5-trihydroxy-6-(hydroxymethyl)-2-oxanyl]oxy]-1,4a,5,7a-tetrahydrocyclopenta[c]pyran-4-yl]-oxomethoxy]methyl]-1-[[(2S,3R,4S,5S,6R)-3,4,5-trihydroxy-6-(hydroxymethyl)-2-oxanyl]oxy]-1,4a,5,7a-tetrahydrocyclopenta[c]pyran-4-yl]-oxomethoxy]methyl]-1-[[(2S,3R,4S,5S,6R)-3,4,5-trihydroxy-6-(hydroxymethyl)-2-oxanyl]oxy]-1,4a,5,7a-tetrahydrocyclopenta[c]pyran-4-carboxylic acid

> <PUBCHEM_IUPAC_NAME_MARKUP>
(1<I>S</I>,4<I>a</I><I>S</I>,7<I>a</I><I>S</I>)-7-[[(1<I>S</I>,4<I>a</I><I>S</I>,7<I>a</I><I>S</I>)-7-[[(1<I>S</I>,4<I>a</I><I>S</I>,7<I>a</I><I>S</I>)-7-(hydroxymethyl)-1-[(2<I>S</I>,3<I>R</I>,4<I>S</I>,5<I>S</I>,6<I>R</I>)-3,4,5-trihydroxy-6-(hydroxymethyl)oxan-2-yl]oxy-1,4<I>a</I>,5,7<I>a</I>-tetrahydrocyclopenta[c]pyran-4-carbonyl]oxymethyl]-1-[(2<I>S</I>,3<I>R</I>,4<I>S</I>,5<I>S</I>,6<I>R</I>)-3,4,5-trihydroxy-6-(hydroxymethyl)oxan-2-yl]oxy-1,4<I>a</I>,5,7<I>a</I>-tetrahydrocyclopenta[c]pyran-4-carbonyl]oxymethyl]-1-[(2<I>S</I>,3<I>R</I>,4<I>S</I>,5<I>S</I>,6<I>R</I>)-3,4,5-trihydroxy-6-(hydroxymethyl)oxan-2-yl]oxy-1,4<I>a</I>,5,7<I>a</I>-tetrahydrocyclopenta[c]pyran-4-carboxylic acid

> <PUBCHEM_IUPAC_NAME>
(1S,4aS,7aS)-7-[[(1S,4aS,7aS)-7-[[(1S,4aS,7aS)-7-(hydroxymethyl)-1-[(2S,3R,4S,5S,6R)-3,4,5-trihydroxy-6-(hydroxymethyl)oxan-2-yl]oxy-1,4a,5,7a-tetrahydrocyclopenta[c]pyran-4-carbonyl]oxymethyl]-1-[(2S,3R,4S,5S,6R)-3,4,5-trihydroxy-6-(hydroxymethyl)oxan-2-yl]oxy-1,4a,5,7a-tetrahydrocyclopenta[c]pyran-4-carbonyl]oxymethyl]-1-[(2S,3R,4S,5S,6R)-3,4,5-trihydroxy-6-(hydroxymethyl)oxan-2-yl]oxy-1,4a,5,7a-tetrahydrocyclopenta[c]pyran-4-carboxylic acid

> <PUBCHEM_IUPAC_SYSTEMATIC_NAME>
(1S,4aS,7aS)-7-[[(1S,4aS,7aS)-7-[[(1S,4aS,7aS)-7-(hydroxymethyl)-1-[(2S,3R,4S,5S,6R)-6-(hydroxymethyl)-3,4,5-tris(oxidanyl)oxan-2-yl]oxy-1,4a,5,7a-tetrahydrocyclopenta[c]pyran-4-yl]carbonyloxymethyl]-1-[(2S,3R,4S,5S,6R)-6-(hydroxymethyl)-3,4,5-tris(oxidanyl)oxan-2-yl]oxy-1,4a,5,7a-tetrahydrocyclopenta[c]pyran-4-yl]carbonyloxymethyl]-1-[(2S,3R,4S,5S,6R)-6-(hydroxymethyl)-3,4,5-tris(oxidanyl)oxan-2-yl]oxy-1,4a,5,7a-tetrahydrocyclopenta[c]pyran-4-carboxylic acid

> <PUBCHEM_IUPAC_TRADITIONAL_NAME>
(1S,4aS,7aS)-7-[[(1S,4aS,7aS)-7-[[(1S,4aS,7aS)-7-methylol-1-[(2S,3R,4S,5S,6R)-3,4,5-trihydroxy-6-methylol-tetrahydropyran-2-yl]oxy-1,4a,5,7a-tetrahydrocyclopenta[c]pyran-4-carbonyl]oxymethyl]-1-[(2S,3R,4S,5S,6R)-3,4,5-trihydroxy-6-methylol-tetrahydropyran-2-yl]oxy-1,4a,5,7a-tetrahydrocyclopenta[c]pyran-4-carbonyl]oxymethyl]-1-[(2S,3R,4S,5S,6R)-3,4,5-trihydroxy-6-methylol-tetrahydropyran-2-yl]oxy-1,4a,5,7a-tetrahydrocyclopenta[c]pyran-4-carboxylic acid

> <PUBCHEM_IUPAC_INCHI>
InChI=1S/C48H62O28/c49-7-16-1-4-20-23(14-69-43(28(16)20)74-46-37(59)34(56)31(53)25(8-50)71-46)41(64)67-12-18-3-6-21-24(15-70-45(30(18)21)76-48-39(61)36(58)33(55)27(10-52)73-48)42(65)66-11-17-2-5-19-22(40(62)63)13-68-44(29(17)19)75-47-38(60)35(57)32(54)26(9-51)72-47/h1-3,13-15,19-21,25-39,43-61H,4-12H2,(H,62,63)/t19-,20-,21-,25-,26-,27-,28-,29-,30-,31-,32-,33-,34+,35+,36+,37-,38-,39-,43+,44+,45+,46+,47+,48+/m1/s1

> <PUBCHEM_IUPAC_INCHIKEY>
XADUIBMNKBNLCX-KGVCYWLNSA-N

> <PUBCHEM_XLOGP3_AA>
-6.4

> <PUBCHEM_EXACT_MASS>
1086.342761

> <PUBCHEM_MOLECULAR_FORMULA>
C48H62O28

> <PUBCHEM_MOLECULAR_WEIGHT>
1087

> <PUBCHEM_OPENEYE_CAN_SMILES>
C1C=C(C2C1C(=COC2OC3C(C(C(C(O3)CO)O)O)O)C(=O)OCC4=CCC5C4C(OC=C5C(=O)OCC6=CCC7C6C(OC=C7C(=O)O)OC8C(C(C(C(O8)CO)O)O)O)OC9C(C(C(C(O9)CO)O)O)O)CO

> <PUBCHEM_OPENEYE_ISO_SMILES>
C1C=C([C@@H]2[C@H]1C(=CO[C@H]2O[C@H]3[C@@H]([C@H]([C@@H]([C@H](O3)CO)O)O)O)C(=O)OCC4=CC[C@H]5[C@@H]4[C@@H](OC=C5C(=O)OCC6=CC[C@H]7[C@@H]6[C@@H](OC=C7C(=O)O)O[C@H]8[C@@H]([C@H]([C@@H]([C@H](O8)CO)O)O)O)O[C@H]9[C@@H]([C@H]([C@@H]([C@H](O9)CO)O)O)O)CO

> <PUBCHEM_CACTVS_TPSA>
436

> <PUBCHEM_MONOISOTOPIC_WEIGHT>
1086.342761

> <PUBCHEM_TOTAL_CHARGE>
0

> <PUBCHEM_HEAVY_ATOM_COUNT>
76

> <PUBCHEM_ATOM_DEF_STEREO_COUNT>
24

> <PUBCHEM_ATOM_UDEF_STEREO_COUNT>
0

> <PUBCHEM_BOND_DEF_STEREO_COUNT>
0

> <PUBCHEM_BOND_UDEF_STEREO_COUNT>
0

> <PUBCHEM_ISOTOPIC_ATOM_COUNT>
0

> <PUBCHEM_COMPONENT_COUNT>
1

> <PUBCHEM_CACTVS_TAUTO_COUNT>
-1

> <PUBCHEM_COORDINATE_TYPE>
1
5
255

> <PUBCHEM_BONDANNOTATIONS>
37  1  6
52  1  5
56  12  6
60  14  5
62  15  5
64  16  5
65  18  6
67  19  6
68  20  6
69  22  5
70  23  5
29  77  6
39  3  5
54  3  6
30  78  6
31  79  5
32  80  5
33  81  5
34  82  5
40  4  5
55  4  6
66  74  5
71  75  6
72  76  6

$$$$
