5371124
  -OEChem-09032013063D

 26 25  0     0  0  0  0  0  0999 V2000
   -1.7175   -0.1540   -0.0769 C   0  0  0  0  0  0  0  0  0  0  0  0
   -0.3266   -0.5651    0.0999 C   0  0  0  0  0  0  0  0  0  0  0  0
   -2.6106   -1.1829   -0.7160 C   0  0  0  0  0  0  0  0  0  0  0  0
   -0.1435   -1.9838    0.5704 C   0  0  0  0  0  0  0  0  0  0  0  0
   -2.1892    1.0553    0.2831 C   0  0  0  0  0  0  0  0  0  0  0  0
    0.7351    0.2376   -0.1163 C   0  0  0  0  0  0  0  0  0  0  0  0
   -3.5899    1.5622    0.1416 C   0  0  0  0  0  0  0  0  0  0  0  0
    2.1317   -0.1150    0.0422 C   0  0  0  0  0  0  0  0  0  0  0  0
    3.1332    0.7456   -0.1942 C   0  0  0  0  0  0  0  0  0  0  0  0
    4.5773    0.4000   -0.0339 C   0  0  0  0  0  0  0  0  0  0  0  0
   -2.0686   -1.7643   -1.4714 H   0  0  0  0  0  0  0  0  0  0  0  0
   -3.4546   -0.7377   -1.2511 H   0  0  0  0  0  0  0  0  0  0  0  0
   -3.0089   -1.8743    0.0338 H   0  0  0  0  0  0  0  0  0  0  0  0
   -0.1015   -2.6721   -0.2804 H   0  0  0  0  0  0  0  0  0  0  0  0
    0.7559   -2.1282    1.1753 H   0  0  0  0  0  0  0  0  0  0  0  0
   -0.9672   -2.2953    1.2239 H   0  0  0  0  0  0  0  0  0  0  0  0
   -1.5064    1.7722    0.7368 H   0  0  0  0  0  0  0  0  0  0  0  0
    0.5567    1.2563   -0.4594 H   0  0  0  0  0  0  0  0  0  0  0  0
   -3.8853    2.0681    1.0670 H   0  0  0  0  0  0  0  0  0  0  0  0
   -4.3273    0.7766   -0.0369 H   0  0  0  0  0  0  0  0  0  0  0  0
   -3.6436    2.2901   -0.6734 H   0  0  0  0  0  0  0  0  0  0  0  0
    2.3873   -1.1227    0.3506 H   0  0  0  0  0  0  0  0  0  0  0  0
    2.9156    1.7619   -0.5140 H   0  0  0  0  0  0  0  0  0  0  0  0
    5.0994    0.5318   -0.9865 H   0  0  0  0  0  0  0  0  0  0  0  0
    4.7243   -0.6335    0.2954 H   0  0  0  0  0  0  0  0  0  0  0  0
    5.0386    1.0620    0.7054 H   0  0  0  0  0  0  0  0  0  0  0  0
  1  2  1  0  0  0  0
  1  3  1  0  0  0  0
  1  5  2  0  0  0  0
  2  4  1  0  0  0  0
  2  6  2  0  0  0  0
  3 11  1  0  0  0  0
  3 12  1  0  0  0  0
  3 13  1  0  0  0  0
  4 14  1  0  0  0  0
  4 15  1  0  0  0  0
  4 16  1  0  0  0  0
  5  7  1  0  0  0  0
  5 17  1  0  0  0  0
  6  8  1  0  0  0  0
  6 18  1  0  0  0  0
  7 19  1  0  0  0  0
  7 20  1  0  0  0  0
  7 21  1  0  0  0  0
  8  9  2  0  0  0  0
  8 22  1  0  0  0  0
  9 10  1  0  0  0  0
  9 23  1  0  0  0  0
 10 24  1  0  0  0  0
 10 25  1  0  0  0  0
 10 26  1  0  0  0  0
M  END
> <PUBCHEM_COMPOUND_CID>
5371124

> <PUBCHEM_CONFORMER_RMSD>
0.4

> <PUBCHEM_CONFORMER_DIVERSEORDER>
1
8
2
3
4
5
6
7

> <PUBCHEM_MMFF94_PARTIAL_CHARGES>
14
1 -0.14
10 0.14
17 0.15
18 0.15
2 -0.14
22 0.15
23 0.15
3 0.14
4 0.14
5 -0.29
6 -0.15
7 0.14
8 -0.15
9 -0.29

> <PUBCHEM_EFFECTIVE_ROTOR_COUNT>
2

> <PUBCHEM_PHARMACOPHORE_FEATURES>
4
1 10 hydrophobe
1 3 hydrophobe
1 4 hydrophobe
1 7 hydrophobe

> <PUBCHEM_HEAVY_ATOM_COUNT>
10

> <PUBCHEM_ATOM_DEF_STEREO_COUNT>
0

> <PUBCHEM_ATOM_UDEF_STEREO_COUNT>
0

> <PUBCHEM_BOND_DEF_STEREO_COUNT>
3

> <PUBCHEM_BOND_UDEF_STEREO_COUNT>
0

> <PUBCHEM_ISOTOPIC_ATOM_COUNT>
0

> <PUBCHEM_COMPONENT_COUNT>
1

> <PUBCHEM_CACTVS_TAUTO_COUNT>
1

> <PUBCHEM_CONFORMER_ID>
0051F4F400000001

> <PUBCHEM_MMFF94_ENERGY>
18.2047

> <PUBCHEM_FEATURE_SELFOVERLAP>
20.302

> <PUBCHEM_SHAPE_FINGERPRINT>
12162725 195 18337954605513230556
12346645 44 18336264548582299681
12932764 1 17418086654760389222
14123255 52 18337389323329491157
14325111 11 18410293605628836262
14897335 6 18339638936988530823
15775835 57 18409730625436733041
170605 34 18337676295858637299
18186145 218 18408884006157913260
20281407 28 9151180843954515788
20645477 56 18272937119592031568
20645477 70 16629975330438081468
20653085 51 18342186565227314152
20711983 171 18411700989202635628
23380061 127 18343015635718051694
23402539 116 18340760559103003575
305870 269 18188770539567590011
3248919 1 18113900511235075222
366044 4 18408041805609546298

> <PUBCHEM_SHAPE_MULTIPOLES>
205.8
6.96
1.62
0.72
5.71
0.42
0.02
-3.19
0.44
-1.3
-0.18
-0.15
0.11
-0.4

> <PUBCHEM_SHAPE_SELFOVERLAP>
385.902

> <PUBCHEM_SHAPE_VOLUME>
129.4

> <PUBCHEM_COORDINATE_TYPE>
2
5
10

$$$$
