535256
  -OEChem-09032015153D

 41 42  0     1  0  0  0  0  0999 V2000
   -3.3048    0.1356    2.2322 O   0  0  0  0  0  0  0  0  0  0  0  0
    4.6624    0.2859   -0.7602 O   0  0  0  0  0  0  0  0  0  0  0  0
   -1.0513    1.0815   -0.6291 C   0  0  2  0  0  0  0  0  0  0  0  0
   -0.6774   -0.4154   -0.8798 C   0  0  1  0  0  0  0  0  0  0  0  0
    0.2081    1.9824   -0.6710 C   0  0  0  0  0  0  0  0  0  0  0  0
    0.5341   -0.8770   -0.0381 C   0  0  0  0  0  0  0  0  0  0  0  0
   -1.7570    1.1999    0.7437 C   0  0  0  0  0  0  0  0  0  0  0  0
    1.7453    0.0511   -0.1787 C   0  0  1  0  0  0  0  0  0  0  0  0
    1.3660    1.4858    0.1880 C   0  0  0  0  0  0  0  0  0  0  0  0
   -1.8450   -1.3594   -0.6137 C   0  0  0  0  0  0  0  0  0  0  0  0
   -1.9980    1.5925   -1.7455 C   0  0  0  0  0  0  0  0  0  0  0  0
   -3.0107    0.3236    0.8494 C   0  0  1  0  0  0  0  0  0  0  0  0
   -2.8790   -1.0108    0.1737 C   0  0  0  0  0  0  0  0  0  0  0  0
    2.8862   -0.4288    0.6687 C   0  0  0  0  0  0  0  0  0  0  0  0
   -1.8032   -2.6998   -1.2926 C   0  0  0  0  0  0  0  0  0  0  0  0
    4.1428   -0.8304   -0.0505 C   0  0  0  0  0  0  0  0  0  0  0  0
    2.7814   -0.5167    2.0033 C   0  0  0  0  0  0  0  0  0  0  0  0
   -0.3994   -0.5083   -1.9396 H   0  0  0  0  0  0  0  0  0  0  0  0
   -0.0505    3.0044   -0.3657 H   0  0  0  0  0  0  0  0  0  0  0  0
    0.5671    2.0562   -1.7068 H   0  0  0  0  0  0  0  0  0  0  0  0
    0.2304   -0.9640    1.0135 H   0  0  0  0  0  0  0  0  0  0  0  0
    0.8300   -1.8881   -0.3491 H   0  0  0  0  0  0  0  0  0  0  0  0
   -2.0389    2.2429    0.9418 H   0  0  0  0  0  0  0  0  0  0  0  0
   -1.0652    0.9408    1.5551 H   0  0  0  0  0  0  0  0  0  0  0  0
    2.0488    0.0399   -1.2347 H   0  0  0  0  0  0  0  0  0  0  0  0
    2.2270    2.1497    0.0359 H   0  0  0  0  0  0  0  0  0  0  0  0
    1.0938    1.5767    1.2458 H   0  0  0  0  0  0  0  0  0  0  0  0
   -2.9185    1.0071   -1.8269 H   0  0  0  0  0  0  0  0  0  0  0  0
   -2.2860    2.6345   -1.5647 H   0  0  0  0  0  0  0  0  0  0  0  0
   -1.5065    1.5503   -2.7245 H   0  0  0  0  0  0  0  0  0  0  0  0
   -3.8664    0.8493    0.4113 H   0  0  0  0  0  0  0  0  0  0  0  0
   -3.6992   -1.7095    0.3216 H   0  0  0  0  0  0  0  0  0  0  0  0
   -1.7141   -2.5728   -2.3763 H   0  0  0  0  0  0  0  0  0  0  0  0
   -2.7091   -3.2857   -1.1036 H   0  0  0  0  0  0  0  0  0  0  0  0
   -0.9515   -3.2883   -0.9392 H   0  0  0  0  0  0  0  0  0  0  0  0
   -2.5846   -0.3863    2.6262 H   0  0  0  0  0  0  0  0  0  0  0  0
    4.9148   -1.1851    0.6406 H   0  0  0  0  0  0  0  0  0  0  0  0
    3.9277   -1.6330   -0.7639 H   0  0  0  0  0  0  0  0  0  0  0  0
    3.6099   -0.8737    2.6067 H   0  0  0  0  0  0  0  0  0  0  0  0
    1.8778   -0.2387    2.5343 H   0  0  0  0  0  0  0  0  0  0  0  0
    5.4596   -0.0183   -1.2267 H   0  0  0  0  0  0  0  0  0  0  0  0
  1 12  1  0  0  0  0
  1 36  1  0  0  0  0
  2 16  1  0  0  0  0
  2 41  1  0  0  0  0
  3  4  1  0  0  0  0
  3  5  1  0  0  0  0
  3  7  1  0  0  0  0
  3 11  1  0  0  0  0
  4  6  1  0  0  0  0
  4 10  1  0  0  0  0
  4 18  1  0  0  0  0
  5  9  1  0  0  0  0
  5 19  1  0  0  0  0
  5 20  1  0  0  0  0
  6  8  1  0  0  0  0
  6 21  1  0  0  0  0
  6 22  1  0  0  0  0
  7 12  1  0  0  0  0
  7 23  1  0  0  0  0
  7 24  1  0  0  0  0
  8  9  1  0  0  0  0
  8 14  1  0  0  0  0
  8 25  1  0  0  0  0
  9 26  1  0  0  0  0
  9 27  1  0  0  0  0
 10 13  2  0  0  0  0
 10 15  1  0  0  0  0
 11 28  1  0  0  0  0
 11 29  1  0  0  0  0
 11 30  1  0  0  0  0
 12 13  1  0  0  0  0
 12 31  1  0  0  0  0
 13 32  1  0  0  0  0
 14 16  1  0  0  0  0
 14 17  2  0  0  0  0
 15 33  1  0  0  0  0
 15 34  1  0  0  0  0
 15 35  1  0  0  0  0
 16 37  1  0  0  0  0
 16 38  1  0  0  0  0
 17 39  1  0  0  0  0
 17 40  1  0  0  0  0
M  END
> <PUBCHEM_COMPOUND_CID>
535256

> <PUBCHEM_CONFORMER_RMSD>
0.6

> <PUBCHEM_CONFORMER_DIVERSEORDER>
1
56
121
122
77
55
101
86
95
105
124
133
138
120
54
87
45
97
21
30
129
52
27
88
136
37
53
3
78
128
22
112
51
117
28
20
10
92
73
111
84
114
4
131
2
23
59
83
19
38
115
110
7
69
76
71
5
107
82
15
41
137
102
24
104
98
100
48
14
108
93
13
85
17
65
11
123
49
31
130
63
80
35
9
94
126
42
96
135
81
70
58
36
32
39
119
50
25
61
118
64
103
116
132
34
29
43
6
99
26
90
91
134
12
74
68
66
44
79
67
40
89
125
47
46
33
60
106
57
113
109
127
18
8
16
72
75
62

> <PUBCHEM_MMFF94_PARTIAL_CHARGES>
16
1 -0.68
10 -0.28
12 0.42
13 -0.29
14 -0.28
15 0.14
16 0.42
17 -0.3
2 -0.68
32 0.15
36 0.4
39 0.15
4 0.14
40 0.15
41 0.4
8 0.14

> <PUBCHEM_EFFECTIVE_ROTOR_COUNT>
3.2

> <PUBCHEM_PHARMACOPHORE_FEATURES>
7
1 1 acceptor
1 1 donor
1 17 hydrophobe
1 2 acceptor
1 2 donor
6 3 4 5 6 8 9 rings
6 3 4 7 10 12 13 rings

> <PUBCHEM_HEAVY_ATOM_COUNT>
17

> <PUBCHEM_ATOM_DEF_STEREO_COUNT>
0

> <PUBCHEM_ATOM_UDEF_STEREO_COUNT>
4

> <PUBCHEM_BOND_DEF_STEREO_COUNT>
0

> <PUBCHEM_BOND_UDEF_STEREO_COUNT>
0

> <PUBCHEM_ISOTOPIC_ATOM_COUNT>
0

> <PUBCHEM_COMPONENT_COUNT>
1

> <PUBCHEM_CACTVS_TAUTO_COUNT>
1

> <PUBCHEM_CONFORMER_ID>
00082AD800000001

> <PUBCHEM_MMFF94_ENERGY>
36.0016

> <PUBCHEM_FEATURE_SELFOVERLAP>
35.567

> <PUBCHEM_SHAPE_FINGERPRINT>
10989021 7 18264480865993971005
11132069 177 18412535514343777050
11578080 2 18124289839656603373
12251169 10 18272096010624331699
12403814 3 18186524293267937893
12553582 1 18261100920122007466
12932764 1 18334283271800331368
13024252 1 16298383522758979925
13172582 1 18413107255704921605
13221675 6 18260831509845223962
13296908 3 18261100843097166392
13296909 8 17489303126982807475
14617773 55 17914052255499669391
14817 1 10758797535565587845
15309172 13 18342462495422487507
15375462 189 18187085053114858592
16752209 62 18263902411208903583
16945 1 18271235049832863180
17804303 29 17988648510032326922
200 152 16443066105789362010
20361792 2 18040706000329853924
21339142 149 11025793176372223815
21524375 3 17030467905038319501
21731516 1 18115012099983833562
22112679 90 18268157624250552141
22445834 79 18195531612934574857
23402539 116 17203604905020000127
23419403 2 16908288287748287949
23493267 7 17680145179637396320
2748010 2 18051413959478926183
427121 178 16771022894115917883
465052 167 18188226385108539499
6992083 37 18342464772039984519
81228 2 18198604713300742062

> <PUBCHEM_SHAPE_MULTIPOLES>
338.11
6.36
2.05
1.6
6.23
0.38
-0.63
1.27
-1.23
-1.24
0.91
-0.74
-0.04
-0.46

> <PUBCHEM_SHAPE_SELFOVERLAP>
693.091

> <PUBCHEM_SHAPE_VOLUME>
193.7

> <PUBCHEM_COORDINATE_TYPE>
2
5
10

$$$$
