27683
  -OEChem-09032012153D

 24 23  0     1  0  0  0  0  0999 V2000
   -0.2464    0.2633   -0.6052 C   0  0  2  0  0  0  0  0  0  0  0  0
   -1.7323    0.1095   -0.1667 C   0  0  0  0  0  0  0  0  0  0  0  0
    0.7275   -0.6315    0.1945 C   0  0  0  0  0  0  0  0  0  0  0  0
    0.1856    1.7373   -0.5457 C   0  0  0  0  0  0  0  0  0  0  0  0
   -1.9940    0.4864    1.2941 C   0  0  0  0  0  0  0  0  0  0  0  0
   -2.2635   -1.3026   -0.4370 C   0  0  0  0  0  0  0  0  0  0  0  0
    2.1532   -0.5039   -0.2659 C   0  0  0  0  0  0  0  0  0  0  0  0
    3.1700   -0.1584    0.5318 C   0  0  0  0  0  0  0  0  0  0  0  0
   -0.1904   -0.0373   -1.6614 H   0  0  0  0  0  0  0  0  0  0  0  0
   -2.3274    0.7921   -0.7891 H   0  0  0  0  0  0  0  0  0  0  0  0
    0.6617   -0.3982    1.2635 H   0  0  0  0  0  0  0  0  0  0  0  0
    0.4422   -1.6834    0.0821 H   0  0  0  0  0  0  0  0  0  0  0  0
    0.3204    2.0792    0.4855 H   0  0  0  0  0  0  0  0  0  0  0  0
   -0.5591    2.3818   -1.0248 H   0  0  0  0  0  0  0  0  0  0  0  0
    1.1307    1.8948   -1.0759 H   0  0  0  0  0  0  0  0  0  0  0  0
   -1.4827   -0.1880    1.9879 H   0  0  0  0  0  0  0  0  0  0  0  0
   -3.0659    0.4293    1.5147 H   0  0  0  0  0  0  0  0  0  0  0  0
   -1.6751    1.5100    1.5100 H   0  0  0  0  0  0  0  0  0  0  0  0
   -1.8052   -2.0450    0.2237 H   0  0  0  0  0  0  0  0  0  0  0  0
   -3.3462   -1.3416   -0.2739 H   0  0  0  0  0  0  0  0  0  0  0  0
   -2.0740   -1.6000   -1.4735 H   0  0  0  0  0  0  0  0  0  0  0  0
    2.3616   -0.7254   -1.3094 H   0  0  0  0  0  0  0  0  0  0  0  0
    4.1785   -0.0925    0.1384 H   0  0  0  0  0  0  0  0  0  0  0  0
    3.0173    0.0647    1.5819 H   0  0  0  0  0  0  0  0  0  0  0  0
  1  2  1  0  0  0  0
  1  3  1  0  0  0  0
  1  4  1  0  0  0  0
  1  9  1  0  0  0  0
  2  5  1  0  0  0  0
  2  6  1  0  0  0  0
  2 10  1  0  0  0  0
  3  7  1  0  0  0  0
  3 11  1  0  0  0  0
  3 12  1  0  0  0  0
  4 13  1  0  0  0  0
  4 14  1  0  0  0  0
  4 15  1  0  0  0  0
  5 16  1  0  0  0  0
  5 17  1  0  0  0  0
  5 18  1  0  0  0  0
  6 19  1  0  0  0  0
  6 20  1  0  0  0  0
  6 21  1  0  0  0  0
  7  8  2  0  0  0  0
  7 22  1  0  0  0  0
  8 23  1  0  0  0  0
  8 24  1  0  0  0  0
M  END
> <PUBCHEM_COMPOUND_CID>
27683

> <PUBCHEM_CONFORMER_RMSD>
0.6

> <PUBCHEM_CONFORMER_DIVERSEORDER>
1
16
7
14
12
5
13
3
11
10
17
8
6
2
4
9
15

> <PUBCHEM_MMFF94_PARTIAL_CHARGES>
6
22 0.15
23 0.15
24 0.15
3 0.14
7 -0.29
8 -0.3

> <PUBCHEM_EFFECTIVE_ROTOR_COUNT>
3

> <PUBCHEM_PHARMACOPHORE_FEATURES>
4
1 4 hydrophobe
1 8 hydrophobe
3 2 5 6 hydrophobe
4 1 2 3 7 hydrophobe

> <PUBCHEM_HEAVY_ATOM_COUNT>
8

> <PUBCHEM_ATOM_DEF_STEREO_COUNT>
0

> <PUBCHEM_ATOM_UDEF_STEREO_COUNT>
1

> <PUBCHEM_BOND_DEF_STEREO_COUNT>
0

> <PUBCHEM_BOND_UDEF_STEREO_COUNT>
0

> <PUBCHEM_ISOTOPIC_ATOM_COUNT>
0

> <PUBCHEM_COMPONENT_COUNT>
1

> <PUBCHEM_CACTVS_TAUTO_COUNT>
1

> <PUBCHEM_CONFORMER_ID>
00006C2300000001

> <PUBCHEM_MMFF94_ENERGY>
9.9444

> <PUBCHEM_FEATURE_SELFOVERLAP>
20.579

> <PUBCHEM_SHAPE_FINGERPRINT>
10857977 72 18338503218728394880
12932764 1 18336547106181062114
14128692 85 18196084662914675511
14390081 3 16271921584723713298
15310529 11 13912620371591223418
20211469 26 18201707457894208670
29004967 10 17895485755812899872
3248919 1 17704065162537032206
369184 2 18261104136941365570

> <PUBCHEM_SHAPE_MULTIPOLES>
164.64
4.04
1.33
0.99
2.19
0.35
0.23
-1.07
0.82
-0.36
-0.26
-0.35
0.13
-0.34

> <PUBCHEM_SHAPE_SELFOVERLAP>
293.328

> <PUBCHEM_SHAPE_VOLUME>
109.1

> <PUBCHEM_COORDINATE_TYPE>
2
5
10

$$$$
