4555947
  -OEChem-09032012052D

211222  0     1  0  0  0  0  0999 V2000
    6.8671   -2.8147    0.0000 O   0  0  0  0  0  0  0  0  0  0  0  0
    8.6209    6.4648    0.0000 O   0  0  0  0  0  0  0  0  0  0  0  0
    9.5042    4.9749    0.0000 O   0  0  0  0  0  0  0  0  0  0  0  0
    5.1350   -2.8147    0.0000 O   0  0  0  0  0  0  0  0  0  0  0  0
    6.8671   -4.8147    0.0000 O   0  0  0  0  0  0  0  0  0  0  0  0
    9.4695    7.9747    0.0000 O   0  0  0  0  0  0  0  0  0  0  0  0
    5.1350   -5.8147    0.0000 O   0  0  0  0  0  0  0  0  0  0  0  0
   10.3644    5.4849    0.0000 O   0  0  0  0  0  0  0  0  0  0  0  0
    3.4030   -4.8147    0.0000 O   0  0  0  0  0  0  0  0  0  0  0  0
   12.0847    6.5048    0.0000 O   0  0  0  0  0  0  0  0  0  0  0  0
    6.0010   -6.3147    0.0000 O   0  0  0  0  0  0  0  0  0  0  0  0
    2.5369   -3.3147    0.0000 O   0  0  0  0  0  0  0  0  0  0  0  0
   12.0616    8.5047    0.0000 O   0  0  0  0  0  0  0  0  0  0  0  0
    8.5991   -5.8147    0.0000 O   0  0  0  0  0  0  0  0  0  0  0  0
   12.0963    5.5049    0.0000 O   0  0  0  0  0  0  0  0  0  0  0  0
    8.5991   -7.8147    0.0000 O   0  0  0  0  0  0  0  0  0  0  0  0
    6.8671   -8.8147    0.0000 O   0  0  0  0  0  0  0  0  0  0  0  0
   10.3875    3.4850    0.0000 O   0  0  0  0  0  0  0  0  0  0  0  0
   12.1310    2.5051    0.0000 O   0  0  0  0  0  0  0  0  0  0  0  0
   13.8514    3.5251    0.0000 O   0  0  0  0  0  0  0  0  0  0  0  0
    5.1350   -8.8147    0.0000 O   0  0  0  0  0  0  0  0  0  0  0  0
   13.8629    2.5251    0.0000 O   0  0  0  0  0  0  0  0  0  0  0  0
   14.7000    5.0350    0.0000 O   0  0  0  0  0  0  0  0  0  0  0  0
   12.1541    0.5052    0.0000 O   0  0  0  0  0  0  0  0  0  0  0  0
   15.5949    2.5452    0.0000 O   0  0  0  0  0  0  0  0  0  0  0  0
   13.8976   -0.4747    0.0000 O   0  0  0  0  0  0  0  0  0  0  0  0
   17.3152    3.5651    0.0000 O   0  0  0  0  0  0  0  0  0  0  0  0
   15.6180    0.5453    0.0000 O   0  0  0  0  0  0  0  0  0  0  0  0
   17.2921    5.5650    0.0000 O   0  0  0  0  0  0  0  0  0  0  0  0
   18.1639    5.0750    0.0000 O   0  0  0  0  0  0  0  0  0  0  0  0
   19.0587    2.5852    0.0000 O   0  0  0  0  0  0  0  0  0  0  0  0
   20.7791    3.6052    0.0000 O   0  0  0  0  0  0  0  0  0  0  0  0
   20.7560    5.6050    0.0000 O   0  0  0  0  0  0  0  0  0  0  0  0
    7.7681    1.8856    0.0000 C   0  0  3  0  0  0  0  0  0  0  0  0
    6.9040    1.3822    0.0000 C   0  0  3  0  0  0  0  0  0  0  0  0
    6.8920    0.3407    0.0000 C   0  0  3  0  0  0  0  0  0  0  0  0
    7.7643    2.8856    0.0000 C   0  0  3  0  0  0  0  0  0  0  0  0
    7.7920   -0.1836    0.0000 C   0  0  3  0  0  0  0  0  0  0  0  0
    8.6801    1.3822    0.0000 C   0  0  0  0  0  0  0  0  0  0  0  0
    7.8046   -1.2685    0.0000 C   0  0  0  0  0  0  0  0  0  0  0  0
    8.6921    0.3407    0.0000 C   0  0  0  0  0  0  0  0  0  0  0  0
    6.8963    3.3822    0.0000 C   0  0  0  0  0  0  0  0  0  0  0  0
    6.8762    4.4236    0.0000 C   0  0  3  0  0  0  0  0  0  0  0  0
    6.0361    1.8789    0.0000 C   0  0  0  0  0  0  0  0  0  0  0  0
    5.9421   -0.1836    0.0000 C   0  0  0  0  0  0  0  0  0  0  0  0
    8.6723    3.3959    0.0000 C   0  0  0  0  0  0  0  0  0  0  0  0
    7.7722    4.9549    0.0000 C   0  0  3  0  0  0  0  0  0  0  0  0
    8.7522    2.0630    0.0000 C   0  0  0  0  0  0  0  0  0  0  0  0
    6.8671   -1.8147    0.0000 C   0  0  3  0  0  0  0  0  0  0  0  0
    8.6763    4.4375    0.0000 C   0  0  0  0  0  0  0  0  0  0  0  0
    6.0279    0.8440    0.0000 C   0  0  0  0  0  0  0  0  0  0  0  0
    5.9295   -1.2685    0.0000 C   0  0  0  0  0  0  0  0  0  0  0  0
    6.0322    2.8789    0.0000 C   0  0  0  0  0  0  0  0  0  0  0  0
    8.7497    2.7157    0.0000 C   0  0  0  0  0  0  0  0  0  0  0  0
    5.9223    4.9406    0.0000 C   0  0  0  0  0  0  0  0  0  0  0  0
    7.7764    6.0399    0.0000 C   0  0  0  0  0  0  0  0  0  0  0  0
    5.9014    6.0254    0.0000 C   0  0  0  0  0  0  0  0  0  0  0  0
    8.8046   -1.2608    0.0000 C   0  0  0  0  0  0  0  0  0  0  0  0
    8.3113   -2.1307    0.0000 C   0  0  0  0  0  0  0  0  0  0  0  0
    6.8347    6.5787    0.0000 C   0  0  0  0  0  0  0  0  0  0  0  0
    8.6324    5.4648    0.0000 C   0  0  0  0  0  0  0  0  0  0  0  0
    5.3881    6.8836    0.0000 C   0  0  0  0  0  0  0  0  0  0  0  0
    4.9015    6.0100    0.0000 C   0  0  0  0  0  0  0  0  0  0  0  0
    6.0010   -3.3147    0.0000 C   0  0  3  0  0  0  0  0  0  0  0  0
    6.0010   -4.3147    0.0000 C   0  0  3  0  0  0  0  0  0  0  0  0
    9.4810    6.9748    0.0000 C   0  0  3  0  0  0  0  0  0  0  0  0
    5.1350   -4.8147    0.0000 C   0  0  3  0  0  0  0  0  0  0  0  0
    4.2690   -3.3147    0.0000 C   0  0  3  0  0  0  0  0  0  0  0  0
    4.2690   -4.3147    0.0000 C   0  0  3  0  0  0  0  0  0  0  0  0
   10.3528    6.4848    0.0000 C   0  0  3  0  0  0  0  0  0  0  0  0
   11.2130    6.9948    0.0000 C   0  0  3  0  0  0  0  0  0  0  0  0
    3.4030   -2.8147    0.0000 C   0  0  0  0  0  0  0  0  0  0  0  0
    6.8671   -5.8147    0.0000 C   0  0  3  0  0  0  0  0  0  0  0  0
   10.3297    8.4847    0.0000 C   0  0  0  0  0  0  0  0  0  0  0  0
   11.2014    7.9947    0.0000 C   0  0  3  0  0  0  0  0  0  0  0  0
    7.7331   -6.3147    0.0000 C   0  0  3  0  0  0  0  0  0  0  0  0
   11.2361    4.9949    0.0000 C   0  0  3  0  0  0  0  0  0  0  0  0
    7.7331   -7.3147    0.0000 C   0  0  3  0  0  0  0  0  0  0  0  0
    6.0010   -7.3147    0.0000 C   0  0  3  0  0  0  0  0  0  0  0  0
    6.8671   -7.8147    0.0000 C   0  0  3  0  0  0  0  0  0  0  0  0
   11.2477    3.9950    0.0000 C   0  0  3  0  0  0  0  0  0  0  0  0
   12.1194    3.5050    0.0000 C   0  0  3  0  0  0  0  0  0  0  0  0
   12.9681    5.0150    0.0000 C   0  0  3  0  0  0  0  0  0  0  0  0
    5.1350   -7.8147    0.0000 C   0  0  0  0  0  0  0  0  0  0  0  0
   12.9796    4.0150    0.0000 C   0  0  3  0  0  0  0  0  0  0  0  0
   13.8282    5.5249    0.0000 C   0  0  0  0  0  0  0  0  0  0  0  0
   13.0027    2.0152    0.0000 C   0  0  3  0  0  0  0  0  0  0  0  0
   14.7115    4.0350    0.0000 C   0  0  3  0  0  0  0  0  0  0  0  0
   13.0143    1.0152    0.0000 C   0  0  3  0  0  0  0  0  0  0  0  0
   15.5833    3.5451    0.0000 C   0  0  3  0  0  0  0  0  0  0  0  0
   13.8861    0.5253    0.0000 C   0  0  3  0  0  0  0  0  0  0  0  0
   16.4435    4.0551    0.0000 C   0  0  3  0  0  0  0  0  0  0  0  0
   14.7347    2.0352    0.0000 C   0  0  0  0  0  0  0  0  0  0  0  0
   14.7462    1.0352    0.0000 C   0  0  3  0  0  0  0  0  0  0  0  0
   15.5602    5.5450    0.0000 C   0  0  0  0  0  0  0  0  0  0  0  0
   16.4319    5.0550    0.0000 C   0  0  3  0  0  0  0  0  0  0  0  0
   18.1754    4.0751    0.0000 C   0  0  3  0  0  0  0  0  0  0  0  0
   19.0472    3.5852    0.0000 C   0  0  3  0  0  0  0  0  0  0  0  0
   19.9074    4.0951    0.0000 C   0  0  3  0  0  0  0  0  0  0  0  0
   19.0240    5.5850    0.0000 C   0  0  0  0  0  0  0  0  0  0  0  0
   19.8958    5.0951    0.0000 C   0  0  3  0  0  0  0  0  0  0  0  0
    7.4398    1.0702    0.0000 H   0  0  0  0  0  0  0  0  0  0  0  0
    8.3314   -0.4895    0.0000 H   0  0  0  0  0  0  0  0  0  0  0  0
    9.2921    1.2832    0.0000 H   0  0  0  0  0  0  0  0  0  0  0  0
    8.8824    1.9683    0.0000 H   0  0  0  0  0  0  0  0  0  0  0  0
    8.9079   -0.2406    0.0000 H   0  0  0  0  0  0  0  0  0  0  0  0
    9.3017    0.4538    0.0000 H   0  0  0  0  0  0  0  0  0  0  0  0
    6.3466    4.1013    0.0000 H   0  0  0  0  0  0  0  0  0  0  0  0
    5.4251    1.9842    0.0000 H   0  0  0  0  0  0  0  0  0  0  0  0
    5.8263    1.2955    0.0000 H   0  0  0  0  0  0  0  0  0  0  0  0
    5.7398    0.4024    0.0000 H   0  0  0  0  0  0  0  0  0  0  0  0
    5.3300   -0.2826    0.0000 H   0  0  0  0  0  0  0  0  0  0  0  0
    8.8791    2.8114    0.0000 H   0  0  0  0  0  0  0  0  0  0  0  0
    9.2836    3.4996    0.0000 H   0  0  0  0  0  0  0  0  0  0  0  0
    8.8623    1.4528    0.0000 H   0  0  0  0  0  0  0  0  0  0  0  0
    9.3624    2.1730    0.0000 H   0  0  0  0  0  0  0  0  0  0  0  0
    8.6422    2.6732    0.0000 H   0  0  0  0  0  0  0  0  0  0  0  0
    7.4046   -2.1236    0.0000 H   0  0  0  0  0  0  0  0  0  0  0  0
    9.2868    4.3291    0.0000 H   0  0  0  0  0  0  0  0  0  0  0  0
    8.8876    5.0204    0.0000 H   0  0  0  0  0  0  0  0  0  0  0  0
    6.3400    1.3797    0.0000 H   0  0  0  0  0  0  0  0  0  0  0  0
    5.4922    1.1561    0.0000 H   0  0  0  0  0  0  0  0  0  0  0  0
    5.7158    0.3083    0.0000 H   0  0  0  0  0  0  0  0  0  0  0  0
    5.3199   -1.1554    0.0000 H   0  0  0  0  0  0  0  0  0  0  0  0
    5.7137   -1.8498    0.0000 H   0  0  0  0  0  0  0  0  0  0  0  0
    5.4941    3.1868    0.0000 H   0  0  0  0  0  0  0  0  0  0  0  0
    8.6444    2.1047    0.0000 H   0  0  0  0  0  0  0  0  0  0  0  0
    9.3607    2.6104    0.0000 H   0  0  0  0  0  0  0  0  0  0  0  0
    8.8550    3.3267    0.0000 H   0  0  0  0  0  0  0  0  0  0  0  0
    5.3095    5.0349    0.0000 H   0  0  0  0  0  0  0  0  0  0  0  0
    5.7246    4.3530    0.0000 H   0  0  0  0  0  0  0  0  0  0  0  0
    8.3869    5.9314    0.0000 H   0  0  0  0  0  0  0  0  0  0  0  0
    7.9877    6.6227    0.0000 H   0  0  0  0  0  0  0  0  0  0  0  0
    8.8094   -1.8808    0.0000 H   0  0  0  0  0  0  0  0  0  0  0  0
    9.4246   -1.2561    0.0000 H   0  0  0  0  0  0  0  0  0  0  0  0
    8.7998   -0.6409    0.0000 H   0  0  0  0  0  0  0  0  0  0  0  0
    7.7767   -2.4448    0.0000 H   0  0  0  0  0  0  0  0  0  0  0  0
    8.6254   -2.6652    0.0000 H   0  0  0  0  0  0  0  0  0  0  0  0
    8.8458   -1.8166    0.0000 H   0  0  0  0  0  0  0  0  0  0  0  0
    7.2302    7.0562    0.0000 H   0  0  0  0  0  0  0  0  0  0  0  0
    6.4319    7.0501    0.0000 H   0  0  0  0  0  0  0  0  0  0  0  0
    5.9202    7.2018    0.0000 H   0  0  0  0  0  0  0  0  0  0  0  0
    5.0699    7.4157    0.0000 H   0  0  0  0  0  0  0  0  0  0  0  0
    4.8560    6.5654    0.0000 H   0  0  0  0  0  0  0  0  0  0  0  0
    4.8920    6.6299    0.0000 H   0  0  0  0  0  0  0  0  0  0  0  0
    4.2816    6.0004    0.0000 H   0  0  0  0  0  0  0  0  0  0  0  0
    4.9111    5.3900    0.0000 H   0  0  0  0  0  0  0  0  0  0  0  0
    6.5380   -3.6247    0.0000 H   0  0  0  0  0  0  0  0  0  0  0  0
    6.0010   -4.9347    0.0000 H   0  0  0  0  0  0  0  0  0  0  0  0
    9.4882    6.3548    0.0000 H   0  0  0  0  0  0  0  0  0  0  0  0
    4.5981   -5.1247    0.0000 H   0  0  0  0  0  0  0  0  0  0  0  0
    4.2690   -2.6947    0.0000 H   0  0  0  0  0  0  0  0  0  0  0  0
    4.2690   -4.9347    0.0000 H   0  0  0  0  0  0  0  0  0  0  0  0
   10.8933    6.1810    0.0000 H   0  0  0  0  0  0  0  0  0  0  0  0
   11.7463    7.3110    0.0000 H   0  0  0  0  0  0  0  0  0  0  0  0
    3.8015   -2.3397    0.0000 H   0  0  0  0  0  0  0  0  0  0  0  0
    3.0044   -2.3397    0.0000 H   0  0  0  0  0  0  0  0  0  0  0  0
    7.4040   -5.5047    0.0000 H   0  0  0  0  0  0  0  0  0  0  0  0
   10.7227    8.9642    0.0000 H   0  0  0  0  0  0  0  0  0  0  0  0
    9.9257    8.9550    0.0000 H   0  0  0  0  0  0  0  0  0  0  0  0
   11.1943    8.6147    0.0000 H   0  0  0  0  0  0  0  0  0  0  0  0
    4.5981   -6.1247    0.0000 H   0  0  0  0  0  0  0  0  0  0  0  0
    3.4030   -5.4347    0.0000 H   0  0  0  0  0  0  0  0  0  0  0  0
    8.2700   -6.6247    0.0000 H   0  0  0  0  0  0  0  0  0  0  0  0
   11.2289    5.6149    0.0000 H   0  0  0  0  0  0  0  0  0  0  0  0
   12.6181    6.8210    0.0000 H   0  0  0  0  0  0  0  0  0  0  0  0
    2.0000   -3.0047    0.0000 H   0  0  0  0  0  0  0  0  0  0  0  0
    7.7331   -7.9347    0.0000 H   0  0  0  0  0  0  0  0  0  0  0  0
   12.0544    9.1247    0.0000 H   0  0  0  0  0  0  0  0  0  0  0  0
    5.4641   -7.0047    0.0000 H   0  0  0  0  0  0  0  0  0  0  0  0
    7.4040   -8.1247    0.0000 H   0  0  0  0  0  0  0  0  0  0  0  0
   10.7072    4.2988    0.0000 H   0  0  0  0  0  0  0  0  0  0  0  0
    8.5991   -5.1947    0.0000 H   0  0  0  0  0  0  0  0  0  0  0  0
   11.5861    3.1888    0.0000 H   0  0  0  0  0  0  0  0  0  0  0  0
   12.9609    5.6349    0.0000 H   0  0  0  0  0  0  0  0  0  0  0  0
    4.9230   -7.2320    0.0000 H   0  0  0  0  0  0  0  0  0  0  0  0
    4.5244   -7.9223    0.0000 H   0  0  0  0  0  0  0  0  0  0  0  0
   13.5129    4.3312    0.0000 H   0  0  0  0  0  0  0  0  0  0  0  0
    9.1360   -7.5047    0.0000 H   0  0  0  0  0  0  0  0  0  0  0  0
    7.4040   -9.1247    0.0000 H   0  0  0  0  0  0  0  0  0  0  0  0
   10.3947    2.8650    0.0000 H   0  0  0  0  0  0  0  0  0  0  0  0
   14.1444    4.9916    0.0000 H   0  0  0  0  0  0  0  0  0  0  0  0
   14.3616    5.8411    0.0000 H   0  0  0  0  0  0  0  0  0  0  0  0
   13.5120    6.0582    0.0000 H   0  0  0  0  0  0  0  0  0  0  0  0
    5.6720   -9.1247    0.0000 H   0  0  0  0  0  0  0  0  0  0  0  0
   12.4694    1.6990    0.0000 H   0  0  0  0  0  0  0  0  0  0  0  0
   14.7187    3.4151    0.0000 H   0  0  0  0  0  0  0  0  0  0  0  0
   13.0215    0.3953    0.0000 H   0  0  0  0  0  0  0  0  0  0  0  0
   16.1238    3.2413    0.0000 H   0  0  0  0  0  0  0  0  0  0  0  0
   14.4265    0.2215    0.0000 H   0  0  0  0  0  0  0  0  0  0  0  0
   16.9768    4.3713    0.0000 H   0  0  0  0  0  0  0  0  0  0  0  0
   15.3465    1.9346    0.0000 H   0  0  0  0  0  0  0  0  0  0  0  0
   14.9400    2.6202    0.0000 H   0  0  0  0  0  0  0  0  0  0  0  0
   15.2796    1.3514    0.0000 H   0  0  0  0  0  0  0  0  0  0  0  0
   15.9532    6.0245    0.0000 H   0  0  0  0  0  0  0  0  0  0  0  0
   15.1562    6.0153    0.0000 H   0  0  0  0  0  0  0  0  0  0  0  0
   16.4248    5.6750    0.0000 H   0  0  0  0  0  0  0  0  0  0  0  0
   12.1613   -0.1147    0.0000 H   0  0  0  0  0  0  0  0  0  0  0  0
   16.1353    2.2414    0.0000 H   0  0  0  0  0  0  0  0  0  0  0  0
   14.4381   -0.7784    0.0000 H   0  0  0  0  0  0  0  0  0  0  0  0
   16.1513    0.8615    0.0000 H   0  0  0  0  0  0  0  0  0  0  0  0
   17.2849    6.1849    0.0000 H   0  0  0  0  0  0  0  0  0  0  0  0
   18.1826    3.4551    0.0000 H   0  0  0  0  0  0  0  0  0  0  0  0
   19.5877    3.2814    0.0000 H   0  0  0  0  0  0  0  0  0  0  0  0
   20.4407    4.4113    0.0000 H   0  0  0  0  0  0  0  0  0  0  0  0
   19.4170    6.0645    0.0000 H   0  0  0  0  0  0  0  0  0  0  0  0
   18.6200    6.0553    0.0000 H   0  0  0  0  0  0  0  0  0  0  0  0
   19.8886    5.7150    0.0000 H   0  0  0  0  0  0  0  0  0  0  0  0
   19.5992    2.2814    0.0000 H   0  0  0  0  0  0  0  0  0  0  0  0
   21.3124    3.9214    0.0000 H   0  0  0  0  0  0  0  0  0  0  0  0
   20.7488    6.2250    0.0000 H   0  0  0  0  0  0  0  0  0  0  0  0
  1 49  1  0  0  0  0
  1 64  1  0  0  0  0
  2 61  1  0  0  0  0
  2 66  1  0  0  0  0
  3 61  2  0  0  0  0
  4 64  1  0  0  0  0
  4 68  1  0  0  0  0
  5 65  1  0  0  0  0
  5 73  1  0  0  0  0
  6 66  1  0  0  0  0
  6 74  1  0  0  0  0
  7 67  1  0  0  0  0
  7162  1  0  0  0  0
  8 70  1  0  0  0  0
  8 77  1  0  0  0  0
  9 69  1  0  0  0  0
  9163  1  0  0  0  0
 10 71  1  0  0  0  0
 10166  1  0  0  0  0
 11 73  1  0  0  0  0
 11 79  1  0  0  0  0
 12 72  1  0  0  0  0
 12167  1  0  0  0  0
 13 75  1  0  0  0  0
 13169  1  0  0  0  0
 14 76  1  0  0  0  0
 14173  1  0  0  0  0
 15 77  1  0  0  0  0
 15 83  1  0  0  0  0
 16 78  1  0  0  0  0
 16179  1  0  0  0  0
 17 80  1  0  0  0  0
 17180  1  0  0  0  0
 18 81  1  0  0  0  0
 18181  1  0  0  0  0
 19 82  1  0  0  0  0
 19 87  1  0  0  0  0
 20 85  1  0  0  0  0
 20 88  1  0  0  0  0
 21 84  1  0  0  0  0
 21185  1  0  0  0  0
 22 87  1  0  0  0  0
 22 93  1  0  0  0  0
 23 88  1  0  0  0  0
 23 95  1  0  0  0  0
 24 89  1  0  0  0  0
 24198  1  0  0  0  0
 25 90  1  0  0  0  0
 25199  1  0  0  0  0
 26 91  1  0  0  0  0
 26200  1  0  0  0  0
 27 92  1  0  0  0  0
 27 97  1  0  0  0  0
 28 94  1  0  0  0  0
 28201  1  0  0  0  0
 29 96  1  0  0  0  0
 29202  1  0  0  0  0
 30 97  1  0  0  0  0
 30100  1  0  0  0  0
 31 98  1  0  0  0  0
 31209  1  0  0  0  0
 32 99  1  0  0  0  0
 32210  1  0  0  0  0
 33101  1  0  0  0  0
 33211  1  0  0  0  0
 34 35  1  0  0  0  0
 34 37  1  0  0  0  0
 34 39  1  0  0  0  0
 34 48  1  0  0  0  0
 35 36  1  0  0  0  0
 35 44  1  0  0  0  0
 35102  1  0  0  0  0
 36 38  1  0  0  0  0
 36 45  1  0  0  0  0
 36 51  1  0  0  0  0
 37 42  1  0  0  0  0
 37 46  1  0  0  0  0
 37 54  1  0  0  0  0
 38 40  1  0  0  0  0
 38 41  1  0  0  0  0
 38103  1  0  0  0  0
 39 41  1  0  0  0  0
 39104  1  0  0  0  0
 39105  1  0  0  0  0
 40 49  1  0  0  0  0
 40 58  1  0  0  0  0
 40 59  1  0  0  0  0
 41106  1  0  0  0  0
 41107  1  0  0  0  0
 42 43  1  0  0  0  0
 42 53  2  0  0  0  0
 43 47  1  0  0  0  0
 43 55  1  0  0  0  0
 43108  1  0  0  0  0
 44 53  1  0  0  0  0
 44109  1  0  0  0  0
 44110  1  0  0  0  0
 45 52  1  0  0  0  0
 45111  1  0  0  0  0
 45112  1  0  0  0  0
 46 50  1  0  0  0  0
 46113  1  0  0  0  0
 46114  1  0  0  0  0
 47 50  1  0  0  0  0
 47 56  1  0  0  0  0
 47 61  1  0  0  0  0
 48115  1  0  0  0  0
 48116  1  0  0  0  0
 48117  1  0  0  0  0
 49 52  1  0  0  0  0
 49118  1  0  0  0  0
 50119  1  0  0  0  0
 50120  1  0  0  0  0
 51121  1  0  0  0  0
 51122  1  0  0  0  0
 51123  1  0  0  0  0
 52124  1  0  0  0  0
 52125  1  0  0  0  0
 53126  1  0  0  0  0
 54127  1  0  0  0  0
 54128  1  0  0  0  0
 54129  1  0  0  0  0
 55 57  1  0  0  0  0
 55130  1  0  0  0  0
 55131  1  0  0  0  0
 56 60  1  0  0  0  0
 56132  1  0  0  0  0
 56133  1  0  0  0  0
 57 60  1  0  0  0  0
 57 62  1  0  0  0  0
 57 63  1  0  0  0  0
 58134  1  0  0  0  0
 58135  1  0  0  0  0
 58136  1  0  0  0  0
 59137  1  0  0  0  0
 59138  1  0  0  0  0
 59139  1  0  0  0  0
 60140  1  0  0  0  0
 60141  1  0  0  0  0
 62142  1  0  0  0  0
 62143  1  0  0  0  0
 62144  1  0  0  0  0
 63145  1  0  0  0  0
 63146  1  0  0  0  0
 63147  1  0  0  0  0
 64 65  1  0  0  0  0
 64148  1  0  0  0  0
 65 67  1  0  0  0  0
 65149  1  0  0  0  0
 66 70  1  0  0  0  0
 66150  1  0  0  0  0
 67 69  1  0  0  0  0
 67151  1  0  0  0  0
 68 69  1  0  0  0  0
 68 72  1  0  0  0  0
 68152  1  0  0  0  0
 69153  1  0  0  0  0
 70 71  1  0  0  0  0
 70154  1  0  0  0  0
 71 75  1  0  0  0  0
 71155  1  0  0  0  0
 72156  1  0  0  0  0
 72157  1  0  0  0  0
 73 76  1  0  0  0  0
 73158  1  0  0  0  0
 74 75  1  0  0  0  0
 74159  1  0  0  0  0
 74160  1  0  0  0  0
 75161  1  0  0  0  0
 76 78  1  0  0  0  0
 76164  1  0  0  0  0
 77 81  1  0  0  0  0
 77165  1  0  0  0  0
 78 80  1  0  0  0  0
 78168  1  0  0  0  0
 79 80  1  0  0  0  0
 79 84  1  0  0  0  0
 79170  1  0  0  0  0
 80171  1  0  0  0  0
 81 82  1  0  0  0  0
 81172  1  0  0  0  0
 82 85  1  0  0  0  0
 82174  1  0  0  0  0
 83 85  1  0  0  0  0
 83 86  1  0  0  0  0
 83175  1  0  0  0  0
 84176  1  0  0  0  0
 84177  1  0  0  0  0
 85178  1  0  0  0  0
 86182  1  0  0  0  0
 86183  1  0  0  0  0
 86184  1  0  0  0  0
 87 89  1  0  0  0  0
 87186  1  0  0  0  0
 88 90  1  0  0  0  0
 88187  1  0  0  0  0
 89 91  1  0  0  0  0
 89188  1  0  0  0  0
 90 92  1  0  0  0  0
 90189  1  0  0  0  0
 91 94  1  0  0  0  0
 91190  1  0  0  0  0
 92 96  1  0  0  0  0
 92191  1  0  0  0  0
 93 94  1  0  0  0  0
 93192  1  0  0  0  0
 93193  1  0  0  0  0
 94194  1  0  0  0  0
 95 96  1  0  0  0  0
 95195  1  0  0  0  0
 95196  1  0  0  0  0
 96197  1  0  0  0  0
 97 98  1  0  0  0  0
 97203  1  0  0  0  0
 98 99  1  0  0  0  0
 98204  1  0  0  0  0
 99101  1  0  0  0  0
 99205  1  0  0  0  0
100101  1  0  0  0  0
100206  1  0  0  0  0
100207  1  0  0  0  0
101208  1  0  0  0  0
M  END
> <PUBCHEM_COMPOUND_CID>
4555947

> <PUBCHEM_COMPOUND_CANONICALIZED>
1

> <PUBCHEM_CACTVS_COMPLEXITY>
2860

> <PUBCHEM_CACTVS_HBOND_ACCEPTOR>
33

> <PUBCHEM_CACTVS_HBOND_DONOR>
18

> <PUBCHEM_CACTVS_ROTATABLE_BOND>
17

> <PUBCHEM_CACTVS_SUBSKEYS>
AAADcfB8PgAAAAAAAAAAAAAAAAAAAAAAAAA0aNGiQAAAAADAAAAAGgAACAAADxSwgAMCCAAABgCIAiDSCAAAAAAgAAAACAEAAAgREBIAAQAiQAAFgAAPAAPI6PyPgAAAAAAAAADAAAYAADAAAAAAAAAAAA==

> <PUBCHEM_IUPAC_OPENEYE_NAME>
[3-[5-[3,5-dihydroxy-4-(3,4,5-trihydroxytetrahydropyran-2-yl)oxy-tetrahydropyran-2-yl]oxy-3-hydroxy-6-methyl-4-(3,4,5-trihydroxytetrahydropyran-2-yl)oxy-tetrahydropyran-2-yl]oxy-4,5-dihydroxy-tetrahydropyran-2-yl] 10-[4,5-dihydroxy-6-(hydroxymethyl)-3-[3,4,5-trihydroxy-6-(hydroxymethyl)tetrahydropyran-2-yl]oxy-tetrahydropyran-2-yl]oxy-2,2,6a,6b,9,9,12a-heptamethyl-1,3,4,5,6,6a,7,8,8a,10,11,12,13,14b-tetradecahydropicene-4a-carboxylate

> <PUBCHEM_IUPAC_CAS_NAME>
10-[[4,5-dihydroxy-6-(hydroxymethyl)-3-[[3,4,5-trihydroxy-6-(hydroxymethyl)-2-oxanyl]oxy]-2-oxanyl]oxy]-2,2,6a,6b,9,9,12a-heptamethyl-1,3,4,5,6,6a,7,8,8a,10,11,12,13,14b-tetradecahydropicene-4a-carboxylic acid [3-[[5-[[3,5-dihydroxy-4-[(3,4,5-trihydroxy-2-oxanyl)oxy]-2-oxanyl]oxy]-3-hydroxy-6-methyl-4-[(3,4,5-trihydroxy-2-oxanyl)oxy]-2-oxanyl]oxy]-4,5-dihydroxy-2-oxanyl] ester

> <PUBCHEM_IUPAC_NAME_MARKUP>
[3-[5-[3,5-dihydroxy-4-(3,4,5-trihydroxyoxan-2-yl)oxyoxan-2-yl]oxy-3-hydroxy-6-methyl-4-(3,4,5-trihydroxyoxan-2-yl)oxyoxan-2-yl]oxy-4,5-dihydroxyoxan-2-yl] 10-[4,5-dihydroxy-6-(hydroxymethyl)-3-[3,4,5-trihydroxy-6-(hydroxymethyl)oxan-2-yl]oxyoxan-2-yl]oxy-2,2,6<I>a</I>,6<I>b</I>,9,9,12<I>a</I>-heptamethyl-1,3,4,5,6,6<I>a</I>,7,8,8<I>a</I>,10,11,12,13,14<I>b</I>-tetradecahydropicene-4<I>a</I>-carboxylate

> <PUBCHEM_IUPAC_NAME>
[3-[5-[3,5-dihydroxy-4-(3,4,5-trihydroxyoxan-2-yl)oxyoxan-2-yl]oxy-3-hydroxy-6-methyl-4-(3,4,5-trihydroxyoxan-2-yl)oxyoxan-2-yl]oxy-4,5-dihydroxyoxan-2-yl] 10-[4,5-dihydroxy-6-(hydroxymethyl)-3-[3,4,5-trihydroxy-6-(hydroxymethyl)oxan-2-yl]oxyoxan-2-yl]oxy-2,2,6a,6b,9,9,12a-heptamethyl-1,3,4,5,6,6a,7,8,8a,10,11,12,13,14b-tetradecahydropicene-4a-carboxylate

> <PUBCHEM_IUPAC_SYSTEMATIC_NAME>
[3-[5-[3,5-bis(oxidanyl)-4-[3,4,5-tris(oxidanyl)oxan-2-yl]oxy-oxan-2-yl]oxy-6-methyl-3-oxidanyl-4-[3,4,5-tris(oxidanyl)oxan-2-yl]oxy-oxan-2-yl]oxy-4,5-bis(oxidanyl)oxan-2-yl] 10-[6-(hydroxymethyl)-3-[6-(hydroxymethyl)-3,4,5-tris(oxidanyl)oxan-2-yl]oxy-4,5-bis(oxidanyl)oxan-2-yl]oxy-2,2,6a,6b,9,9,12a-heptamethyl-1,3,4,5,6,6a,7,8,8a,10,11,12,13,14b-tetradecahydropicene-4a-carboxylate

> <PUBCHEM_IUPAC_TRADITIONAL_NAME>
10-[4,5-dihydroxy-6-methylol-3-(3,4,5-trihydroxy-6-methylol-tetrahydropyran-2-yl)oxy-tetrahydropyran-2-yl]oxy-2,2,6a,6b,9,9,12a-heptamethyl-1,3,4,5,6,6a,7,8,8a,10,11,12,13,14b-tetradecahydropicene-4a-carboxylic acid [3-[5-[3,5-dihydroxy-4-(3,4,5-trihydroxytetrahydropyran-2-yl)oxy-tetrahydropyran-2-yl]oxy-3-hydroxy-6-methyl-4-(3,4,5-trihydroxytetrahydropyran-2-yl)oxy-tetrahydropyran-2-yl]oxy-4,5-dihydroxy-tetrahydropyran-2-yl] ester

> <PUBCHEM_IUPAC_INCHI>
InChI=1S/C68H110O33/c1-26-50(96-57-48(85)51(32(74)25-90-57)97-55-45(82)38(75)29(71)22-88-55)52(98-56-46(83)39(76)30(72)23-89-56)49(86)59(92-26)99-53-40(77)31(73)24-91-60(53)101-62(87)68-17-15-63(2,3)19-28(68)27-9-10-36-65(6)13-12-37(64(4,5)35(65)11-14-67(36,8)66(27,7)16-18-68)95-61-54(44(81)42(79)34(21-70)94-61)100-58-47(84)43(80)41(78)33(20-69)93-58/h9,26,28-61,69-86H,10-25H2,1-8H3

> <PUBCHEM_IUPAC_INCHIKEY>
QWABEDSRNSIDQD-UHFFFAOYSA-N

> <PUBCHEM_XLOGP3_AA>
-3.1

> <PUBCHEM_EXACT_MASS>
1454.692936

> <PUBCHEM_MOLECULAR_FORMULA>
C68H110O33

> <PUBCHEM_MOLECULAR_WEIGHT>
1455.6

> <PUBCHEM_OPENEYE_CAN_SMILES>
CC1C(C(C(C(O1)OC2C(C(COC2OC(=O)C34CCC(CC3C5=CCC6C7(CCC(C(C7CCC6(C5(CC4)C)C)(C)C)OC8C(C(C(C(O8)CO)O)O)OC9C(C(C(C(O9)CO)O)O)O)C)(C)C)O)O)O)OC1C(C(C(CO1)O)O)O)OC1C(C(C(CO1)O)OC1C(C(C(CO1)O)O)O)O

> <PUBCHEM_OPENEYE_ISO_SMILES>
CC1C(C(C(C(O1)OC2C(C(COC2OC(=O)C34CCC(CC3C5=CCC6C7(CCC(C(C7CCC6(C5(CC4)C)C)(C)C)OC8C(C(C(C(O8)CO)O)O)OC9C(C(C(C(O9)CO)O)O)O)C)(C)C)O)O)O)OC1C(C(C(CO1)O)O)O)OC1C(C(C(CO1)O)OC1C(C(C(CO1)O)O)O)O

> <PUBCHEM_CACTVS_TPSA>
510

> <PUBCHEM_MONOISOTOPIC_WEIGHT>
1454.692936

> <PUBCHEM_TOTAL_CHARGE>
0

> <PUBCHEM_HEAVY_ATOM_COUNT>
101

> <PUBCHEM_ATOM_DEF_STEREO_COUNT>
0

> <PUBCHEM_ATOM_UDEF_STEREO_COUNT>
39

> <PUBCHEM_BOND_DEF_STEREO_COUNT>
0

> <PUBCHEM_BOND_UDEF_STEREO_COUNT>
0

> <PUBCHEM_ISOTOPIC_ATOM_COUNT>
0

> <PUBCHEM_COMPONENT_COUNT>
1

> <PUBCHEM_CACTVS_TAUTO_COUNT>
-1

> <PUBCHEM_COORDINATE_TYPE>
1
5
255

> <PUBCHEM_BONDANNOTATIONS>
49  1  3
64  1  3
71  10  3
75  13  3
76  14  3
78  16  3
80  17  3
81  18  3
82  19  3
87  19  3
66  2  3
85  20  3
88  20  3
89  24  3
90  25  3
91  26  3
92  27  3
97  27  3
94  28  3
96  29  3
98  31  3
99  32  3
101  33  3
34  48  3
35  44  3
36  51  3
37  54  3
38  41  3
43  55  3
47  61  3
65  5  3
73  5  3
68  72  3
67  7  3
79  84  3
70  8  3
77  8  3
83  86  3
69  9  3

$$$$
