101596471
  -OEChem-09032011562D

194204  0     1  0  0  0  0  0999 V2000
    6.8671   -2.8147    0.0000 O   0  0  0  0  0  0  0  0  0  0  0  0
    8.6209    6.4648    0.0000 O   0  0  0  0  0  0  0  0  0  0  0  0
    9.5042    4.9749    0.0000 O   0  0  0  0  0  0  0  0  0  0  0  0
    5.1350   -2.8147    0.0000 O   0  0  0  0  0  0  0  0  0  0  0  0
    6.8671   -4.8147    0.0000 O   0  0  0  0  0  0  0  0  0  0  0  0
    9.4695    7.9747    0.0000 O   0  0  0  0  0  0  0  0  0  0  0  0
    5.1350   -5.8147    0.0000 O   0  0  0  0  0  0  0  0  0  0  0  0
   10.3644    5.4849    0.0000 O   0  0  0  0  0  0  0  0  0  0  0  0
    3.4030   -4.8147    0.0000 O   0  0  0  0  0  0  0  0  0  0  0  0
   12.0847    6.5048    0.0000 O   0  0  0  0  0  0  0  0  0  0  0  0
    6.0010   -6.3147    0.0000 O   0  0  0  0  0  0  0  0  0  0  0  0
    2.5369   -3.3147    0.0000 O   0  0  0  0  0  0  0  0  0  0  0  0
   12.0616    8.5047    0.0000 O   0  0  0  0  0  0  0  0  0  0  0  0
    8.5991   -5.8147    0.0000 O   0  0  0  0  0  0  0  0  0  0  0  0
   12.0963    5.5049    0.0000 O   0  0  0  0  0  0  0  0  0  0  0  0
    8.5991   -7.8147    0.0000 O   0  0  0  0  0  0  0  0  0  0  0  0
    6.8671   -8.8147    0.0000 O   0  0  0  0  0  0  0  0  0  0  0  0
   10.3875    3.4850    0.0000 O   0  0  0  0  0  0  0  0  0  0  0  0
   12.1310    2.5051    0.0000 O   0  0  0  0  0  0  0  0  0  0  0  0
   13.8514    3.5251    0.0000 O   0  0  0  0  0  0  0  0  0  0  0  0
    5.1350   -8.8147    0.0000 O   0  0  0  0  0  0  0  0  0  0  0  0
   14.7000    5.0350    0.0000 O   0  0  0  0  0  0  0  0  0  0  0  0
   15.5949    2.5452    0.0000 O   0  0  0  0  0  0  0  0  0  0  0  0
   17.3152    3.5651    0.0000 O   0  0  0  0  0  0  0  0  0  0  0  0
   17.2921    5.5650    0.0000 O   0  0  0  0  0  0  0  0  0  0  0  0
   18.1639    5.0750    0.0000 O   0  0  0  0  0  0  0  0  0  0  0  0
   19.0587    2.5852    0.0000 O   0  0  0  0  0  0  0  0  0  0  0  0
   20.7791    3.6052    0.0000 O   0  0  0  0  0  0  0  0  0  0  0  0
   20.7560    5.6050    0.0000 O   0  0  0  0  0  0  0  0  0  0  0  0
    7.7681    1.8856    0.0000 C   0  0  2  0  0  0  0  0  0  0  0  0
    6.9040    1.3822    0.0000 C   0  0  1  0  0  0  0  0  0  0  0  0
    6.8920    0.3407    0.0000 C   0  0  2  0  0  0  0  0  0  0  0  0
    7.7643    2.8856    0.0000 C   0  0  1  0  0  0  0  0  0  0  0  0
    7.7920   -0.1836    0.0000 C   0  0  2  0  0  0  0  0  0  0  0  0
    8.6801    1.3822    0.0000 C   0  0  0  0  0  0  0  0  0  0  0  0
    7.8046   -1.2685    0.0000 C   0  0  0  0  0  0  0  0  0  0  0  0
    8.6921    0.3407    0.0000 C   0  0  0  0  0  0  0  0  0  0  0  0
    6.8963    3.3822    0.0000 C   0  0  0  0  0  0  0  0  0  0  0  0
    6.8762    4.4236    0.0000 C   0  0  1  0  0  0  0  0  0  0  0  0
    6.0361    1.8789    0.0000 C   0  0  0  0  0  0  0  0  0  0  0  0
    5.9421   -0.1836    0.0000 C   0  0  0  0  0  0  0  0  0  0  0  0
    8.6723    3.3959    0.0000 C   0  0  0  0  0  0  0  0  0  0  0  0
    7.7722    4.9549    0.0000 C   0  0  1  0  0  0  0  0  0  0  0  0
    8.7522    2.0630    0.0000 C   0  0  0  0  0  0  0  0  0  0  0  0
    6.8671   -1.8147    0.0000 C   0  0  2  0  0  0  0  0  0  0  0  0
    8.6763    4.4375    0.0000 C   0  0  0  0  0  0  0  0  0  0  0  0
    6.0279    0.8440    0.0000 C   0  0  0  0  0  0  0  0  0  0  0  0
    5.9295   -1.2685    0.0000 C   0  0  0  0  0  0  0  0  0  0  0  0
    6.0322    2.8789    0.0000 C   0  0  0  0  0  0  0  0  0  0  0  0
    8.7497    2.7157    0.0000 C   0  0  0  0  0  0  0  0  0  0  0  0
    5.9223    4.9406    0.0000 C   0  0  0  0  0  0  0  0  0  0  0  0
    7.7764    6.0399    0.0000 C   0  0  0  0  0  0  0  0  0  0  0  0
    5.9014    6.0254    0.0000 C   0  0  0  0  0  0  0  0  0  0  0  0
    8.8046   -1.2608    0.0000 C   0  0  0  0  0  0  0  0  0  0  0  0
    8.3113   -2.1307    0.0000 C   0  0  0  0  0  0  0  0  0  0  0  0
    6.8347    6.5787    0.0000 C   0  0  0  0  0  0  0  0  0  0  0  0
    8.6324    5.4648    0.0000 C   0  0  0  0  0  0  0  0  0  0  0  0
    5.3881    6.8836    0.0000 C   0  0  0  0  0  0  0  0  0  0  0  0
    4.9015    6.0100    0.0000 C   0  0  0  0  0  0  0  0  0  0  0  0
    6.0010   -3.3147    0.0000 C   0  0  2  0  0  0  0  0  0  0  0  0
    6.0010   -4.3147    0.0000 C   0  0  1  0  0  0  0  0  0  0  0  0
    9.4810    6.9748    0.0000 C   0  0  2  0  0  0  0  0  0  0  0  0
    5.1350   -4.8147    0.0000 C   0  0  2  0  0  0  0  0  0  0  0  0
    4.2690   -3.3147    0.0000 C   0  0  1  0  0  0  0  0  0  0  0  0
    4.2690   -4.3147    0.0000 C   0  0  1  0  0  0  0  0  0  0  0  0
   10.3528    6.4848    0.0000 C   0  0  1  0  0  0  0  0  0  0  0  0
   11.2130    6.9948    0.0000 C   0  0  2  0  0  0  0  0  0  0  0  0
    3.4030   -2.8147    0.0000 C   0  0  0  0  0  0  0  0  0  0  0  0
    6.8671   -5.8147    0.0000 C   0  0  2  0  0  0  0  0  0  0  0  0
   10.3297    8.4847    0.0000 C   0  0  0  0  0  0  0  0  0  0  0  0
   11.2014    7.9947    0.0000 C   0  0  2  0  0  0  0  0  0  0  0  0
    7.7331   -6.3147    0.0000 C   0  0  1  0  0  0  0  0  0  0  0  0
   11.2361    4.9949    0.0000 C   0  0  2  0  0  0  0  0  0  0  0  0
    7.7331   -7.3147    0.0000 C   0  0  2  0  0  0  0  0  0  0  0  0
    6.0010   -7.3147    0.0000 C   0  0  1  0  0  0  0  0  0  0  0  0
    6.8671   -7.8147    0.0000 C   0  0  1  0  0  0  0  0  0  0  0  0
   11.2477    3.9950    0.0000 C   0  0  1  0  0  0  0  0  0  0  0  0
   12.1194    3.5050    0.0000 C   0  0  1  0  0  0  0  0  0  0  0  0
    5.1350   -7.8147    0.0000 C   0  0  0  0  0  0  0  0  0  0  0  0
   12.9681    5.0150    0.0000 C   0  0  2  0  0  0  0  0  0  0  0  0
   12.9796    4.0150    0.0000 C   0  0  2  0  0  0  0  0  0  0  0  0
   13.8282    5.5249    0.0000 C   0  0  0  0  0  0  0  0  0  0  0  0
   14.7115    4.0350    0.0000 C   0  0  2  0  0  0  0  0  0  0  0  0
   15.5833    3.5451    0.0000 C   0  0  1  0  0  0  0  0  0  0  0  0
   16.4435    4.0551    0.0000 C   0  0  2  0  0  0  0  0  0  0  0  0
   15.5602    5.5450    0.0000 C   0  0  0  0  0  0  0  0  0  0  0  0
   16.4319    5.0550    0.0000 C   0  0  1  0  0  0  0  0  0  0  0  0
   18.1754    4.0751    0.0000 C   0  0  2  0  0  0  0  0  0  0  0  0
   19.0472    3.5852    0.0000 C   0  0  1  0  0  0  0  0  0  0  0  0
   19.9074    4.0951    0.0000 C   0  0  2  0  0  0  0  0  0  0  0  0
   19.0240    5.5850    0.0000 C   0  0  0  0  0  0  0  0  0  0  0  0
   19.8958    5.0951    0.0000 C   0  0  2  0  0  0  0  0  0  0  0  0
    7.6385    0.9544    0.0000 H   0  0  0  0  0  0  0  0  0  0  0  0
    8.5314   -0.6029    0.0000 H   0  0  0  0  0  0  0  0  0  0  0  0
    9.2921    1.2832    0.0000 H   0  0  0  0  0  0  0  0  0  0  0  0
    8.8824    1.9683    0.0000 H   0  0  0  0  0  0  0  0  0  0  0  0
    8.9079   -0.2406    0.0000 H   0  0  0  0  0  0  0  0  0  0  0  0
    9.3017    0.4538    0.0000 H   0  0  0  0  0  0  0  0  0  0  0  0
    6.1502    3.9817    0.0000 H   0  0  0  0  0  0  0  0  0  0  0  0
    5.4251    1.9842    0.0000 H   0  0  0  0  0  0  0  0  0  0  0  0
    5.8263    1.2955    0.0000 H   0  0  0  0  0  0  0  0  0  0  0  0
    5.7398    0.4024    0.0000 H   0  0  0  0  0  0  0  0  0  0  0  0
    5.3300   -0.2826    0.0000 H   0  0  0  0  0  0  0  0  0  0  0  0
    8.8791    2.8114    0.0000 H   0  0  0  0  0  0  0  0  0  0  0  0
    9.2836    3.4996    0.0000 H   0  0  0  0  0  0  0  0  0  0  0  0
    8.8623    1.4528    0.0000 H   0  0  0  0  0  0  0  0  0  0  0  0
    9.3624    2.1730    0.0000 H   0  0  0  0  0  0  0  0  0  0  0  0
    8.6422    2.6732    0.0000 H   0  0  0  0  0  0  0  0  0  0  0  0
    7.4046   -2.1236    0.0000 H   0  0  0  0  0  0  0  0  0  0  0  0
    9.2868    4.3291    0.0000 H   0  0  0  0  0  0  0  0  0  0  0  0
    8.8876    5.0204    0.0000 H   0  0  0  0  0  0  0  0  0  0  0  0
    6.3400    1.3797    0.0000 H   0  0  0  0  0  0  0  0  0  0  0  0
    5.4922    1.1561    0.0000 H   0  0  0  0  0  0  0  0  0  0  0  0
    5.7158    0.3083    0.0000 H   0  0  0  0  0  0  0  0  0  0  0  0
    5.3199   -1.1554    0.0000 H   0  0  0  0  0  0  0  0  0  0  0  0
    5.7137   -1.8498    0.0000 H   0  0  0  0  0  0  0  0  0  0  0  0
    5.4941    3.1868    0.0000 H   0  0  0  0  0  0  0  0  0  0  0  0
    8.6444    2.1047    0.0000 H   0  0  0  0  0  0  0  0  0  0  0  0
    9.3607    2.6104    0.0000 H   0  0  0  0  0  0  0  0  0  0  0  0
    8.8550    3.3267    0.0000 H   0  0  0  0  0  0  0  0  0  0  0  0
    5.3095    5.0349    0.0000 H   0  0  0  0  0  0  0  0  0  0  0  0
    5.7246    4.3530    0.0000 H   0  0  0  0  0  0  0  0  0  0  0  0
    8.3869    5.9314    0.0000 H   0  0  0  0  0  0  0  0  0  0  0  0
    7.9877    6.6227    0.0000 H   0  0  0  0  0  0  0  0  0  0  0  0
    8.8094   -1.8808    0.0000 H   0  0  0  0  0  0  0  0  0  0  0  0
    9.4246   -1.2561    0.0000 H   0  0  0  0  0  0  0  0  0  0  0  0
    8.7998   -0.6409    0.0000 H   0  0  0  0  0  0  0  0  0  0  0  0
    7.7767   -2.4448    0.0000 H   0  0  0  0  0  0  0  0  0  0  0  0
    8.6254   -2.6652    0.0000 H   0  0  0  0  0  0  0  0  0  0  0  0
    8.8458   -1.8166    0.0000 H   0  0  0  0  0  0  0  0  0  0  0  0
    7.2302    7.0562    0.0000 H   0  0  0  0  0  0  0  0  0  0  0  0
    6.4319    7.0501    0.0000 H   0  0  0  0  0  0  0  0  0  0  0  0
    5.9202    7.2018    0.0000 H   0  0  0  0  0  0  0  0  0  0  0  0
    5.0699    7.4157    0.0000 H   0  0  0  0  0  0  0  0  0  0  0  0
    4.8560    6.5654    0.0000 H   0  0  0  0  0  0  0  0  0  0  0  0
    4.8920    6.6299    0.0000 H   0  0  0  0  0  0  0  0  0  0  0  0
    4.2816    6.0004    0.0000 H   0  0  0  0  0  0  0  0  0  0  0  0
    4.9111    5.3900    0.0000 H   0  0  0  0  0  0  0  0  0  0  0  0
    6.5380   -3.6247    0.0000 H   0  0  0  0  0  0  0  0  0  0  0  0
    6.0010   -4.9347    0.0000 H   0  0  0  0  0  0  0  0  0  0  0  0
    9.4882    6.3548    0.0000 H   0  0  0  0  0  0  0  0  0  0  0  0
    4.5981   -5.1247    0.0000 H   0  0  0  0  0  0  0  0  0  0  0  0
    4.2690   -2.6947    0.0000 H   0  0  0  0  0  0  0  0  0  0  0  0
    4.2690   -4.9347    0.0000 H   0  0  0  0  0  0  0  0  0  0  0  0
   10.8933    6.1810    0.0000 H   0  0  0  0  0  0  0  0  0  0  0  0
   11.7463    7.3110    0.0000 H   0  0  0  0  0  0  0  0  0  0  0  0
    3.8015   -2.3397    0.0000 H   0  0  0  0  0  0  0  0  0  0  0  0
    3.0044   -2.3397    0.0000 H   0  0  0  0  0  0  0  0  0  0  0  0
    7.4040   -5.5047    0.0000 H   0  0  0  0  0  0  0  0  0  0  0  0
   10.7227    8.9642    0.0000 H   0  0  0  0  0  0  0  0  0  0  0  0
    9.9257    8.9550    0.0000 H   0  0  0  0  0  0  0  0  0  0  0  0
   11.1943    8.6147    0.0000 H   0  0  0  0  0  0  0  0  0  0  0  0
    4.5981   -6.1247    0.0000 H   0  0  0  0  0  0  0  0  0  0  0  0
    3.4030   -5.4347    0.0000 H   0  0  0  0  0  0  0  0  0  0  0  0
    8.2700   -6.6247    0.0000 H   0  0  0  0  0  0  0  0  0  0  0  0
   11.2289    5.6149    0.0000 H   0  0  0  0  0  0  0  0  0  0  0  0
   12.6181    6.8210    0.0000 H   0  0  0  0  0  0  0  0  0  0  0  0
    2.0000   -3.0047    0.0000 H   0  0  0  0  0  0  0  0  0  0  0  0
    7.7331   -7.9347    0.0000 H   0  0  0  0  0  0  0  0  0  0  0  0
   12.0544    9.1247    0.0000 H   0  0  0  0  0  0  0  0  0  0  0  0
    5.4641   -7.0047    0.0000 H   0  0  0  0  0  0  0  0  0  0  0  0
    7.4040   -8.1247    0.0000 H   0  0  0  0  0  0  0  0  0  0  0  0
   10.7072    4.2988    0.0000 H   0  0  0  0  0  0  0  0  0  0  0  0
    8.5991   -5.1947    0.0000 H   0  0  0  0  0  0  0  0  0  0  0  0
   11.5861    3.1888    0.0000 H   0  0  0  0  0  0  0  0  0  0  0  0
    4.9230   -7.2320    0.0000 H   0  0  0  0  0  0  0  0  0  0  0  0
    4.5244   -7.9223    0.0000 H   0  0  0  0  0  0  0  0  0  0  0  0
   12.9609    5.6349    0.0000 H   0  0  0  0  0  0  0  0  0  0  0  0
   13.5129    4.3312    0.0000 H   0  0  0  0  0  0  0  0  0  0  0  0
    9.1360   -7.5047    0.0000 H   0  0  0  0  0  0  0  0  0  0  0  0
    7.4040   -9.1247    0.0000 H   0  0  0  0  0  0  0  0  0  0  0  0
   10.3947    2.8650    0.0000 H   0  0  0  0  0  0  0  0  0  0  0  0
   14.1444    4.9916    0.0000 H   0  0  0  0  0  0  0  0  0  0  0  0
   14.3616    5.8411    0.0000 H   0  0  0  0  0  0  0  0  0  0  0  0
   13.5120    6.0582    0.0000 H   0  0  0  0  0  0  0  0  0  0  0  0
   12.6715    2.2013    0.0000 H   0  0  0  0  0  0  0  0  0  0  0  0
    5.6720   -9.1247    0.0000 H   0  0  0  0  0  0  0  0  0  0  0  0
   14.7187    3.4151    0.0000 H   0  0  0  0  0  0  0  0  0  0  0  0
   16.1238    3.2413    0.0000 H   0  0  0  0  0  0  0  0  0  0  0  0
   16.9768    4.3713    0.0000 H   0  0  0  0  0  0  0  0  0  0  0  0
   15.9532    6.0245    0.0000 H   0  0  0  0  0  0  0  0  0  0  0  0
   15.1562    6.0153    0.0000 H   0  0  0  0  0  0  0  0  0  0  0  0
   16.4248    5.6750    0.0000 H   0  0  0  0  0  0  0  0  0  0  0  0
   16.1353    2.2414    0.0000 H   0  0  0  0  0  0  0  0  0  0  0  0
   17.2849    6.1849    0.0000 H   0  0  0  0  0  0  0  0  0  0  0  0
   18.1826    3.4551    0.0000 H   0  0  0  0  0  0  0  0  0  0  0  0
   19.5877    3.2814    0.0000 H   0  0  0  0  0  0  0  0  0  0  0  0
   20.4407    4.4113    0.0000 H   0  0  0  0  0  0  0  0  0  0  0  0
   19.4170    6.0645    0.0000 H   0  0  0  0  0  0  0  0  0  0  0  0
   18.6200    6.0553    0.0000 H   0  0  0  0  0  0  0  0  0  0  0  0
   19.8886    5.7150    0.0000 H   0  0  0  0  0  0  0  0  0  0  0  0
   19.5992    2.2814    0.0000 H   0  0  0  0  0  0  0  0  0  0  0  0
   21.3124    3.9214    0.0000 H   0  0  0  0  0  0  0  0  0  0  0  0
   20.7488    6.2250    0.0000 H   0  0  0  0  0  0  0  0  0  0  0  0
 45  1  1  1  0  0  0
 60  1  1  1  0  0  0
  2 57  1  0  0  0  0
 62  2  1  6  0  0  0
  3 57  2  0  0  0  0
  4 60  1  0  0  0  0
  4 64  1  0  0  0  0
 61  5  1  6  0  0  0
 69  5  1  1  0  0  0
  6 62  1  0  0  0  0
  6 70  1  0  0  0  0
 63  7  1  1  0  0  0
  7153  1  0  0  0  0
 66  8  1  1  0  0  0
 73  8  1  6  0  0  0
 65  9  1  6  0  0  0
  9154  1  0  0  0  0
 67 10  1  6  0  0  0
 10157  1  0  0  0  0
 11 69  1  0  0  0  0
 11 75  1  0  0  0  0
 12 68  1  0  0  0  0
 12158  1  0  0  0  0
 71 13  1  6  0  0  0
 13160  1  0  0  0  0
 72 14  1  6  0  0  0
 14164  1  0  0  0  0
 15 73  1  0  0  0  0
 15 80  1  0  0  0  0
 74 16  1  1  0  0  0
 16170  1  0  0  0  0
 76 17  1  6  0  0  0
 17171  1  0  0  0  0
 77 18  1  1  0  0  0
 18172  1  0  0  0  0
 78 19  1  1  0  0  0
 19176  1  0  0  0  0
 81 20  1  6  0  0  0
 83 20  1  6  0  0  0
 21 79  1  0  0  0  0
 21177  1  0  0  0  0
 22 83  1  0  0  0  0
 22 86  1  0  0  0  0
 84 23  1  1  0  0  0
 23184  1  0  0  0  0
 85 24  1  6  0  0  0
 88 24  1  6  0  0  0
 87 25  1  1  0  0  0
 25185  1  0  0  0  0
 26 88  1  0  0  0  0
 26 91  1  0  0  0  0
 89 27  1  1  0  0  0
 27192  1  0  0  0  0
 90 28  1  6  0  0  0
 28193  1  0  0  0  0
 92 29  1  6  0  0  0
 29194  1  0  0  0  0
 30 31  1  0  0  0  0
 30 33  1  0  0  0  0
 30 35  1  0  0  0  0
 30 44  1  1  0  0  0
 31 32  1  0  0  0  0
 31 40  1  0  0  0  0
 31 93  1  6  0  0  0
 32 34  1  0  0  0  0
 32 41  1  0  0  0  0
 32 47  1  1  0  0  0
 33 38  1  0  0  0  0
 33 42  1  0  0  0  0
 33 50  1  6  0  0  0
 34 36  1  0  0  0  0
 34 37  1  0  0  0  0
 34 94  1  6  0  0  0
 35 37  1  0  0  0  0
 35 95  1  0  0  0  0
 35 96  1  0  0  0  0
 36 45  1  0  0  0  0
 36 54  1  0  0  0  0
 36 55  1  0  0  0  0
 37 97  1  0  0  0  0
 37 98  1  0  0  0  0
 38 39  1  0  0  0  0
 38 49  2  0  0  0  0
 39 43  1  0  0  0  0
 39 51  1  0  0  0  0
 39 99  1  1  0  0  0
 40 49  1  0  0  0  0
 40100  1  0  0  0  0
 40101  1  0  0  0  0
 41 48  1  0  0  0  0
 41102  1  0  0  0  0
 41103  1  0  0  0  0
 42 46  1  0  0  0  0
 42104  1  0  0  0  0
 42105  1  0  0  0  0
 43 46  1  0  0  0  0
 43 52  1  0  0  0  0
 43 57  1  1  0  0  0
 44106  1  0  0  0  0
 44107  1  0  0  0  0
 44108  1  0  0  0  0
 45 48  1  0  0  0  0
 45109  1  0  0  0  0
 46110  1  0  0  0  0
 46111  1  0  0  0  0
 47112  1  0  0  0  0
 47113  1  0  0  0  0
 47114  1  0  0  0  0
 48115  1  0  0  0  0
 48116  1  0  0  0  0
 49117  1  0  0  0  0
 50118  1  0  0  0  0
 50119  1  0  0  0  0
 50120  1  0  0  0  0
 51 53  1  0  0  0  0
 51121  1  0  0  0  0
 51122  1  0  0  0  0
 52 56  1  0  0  0  0
 52123  1  0  0  0  0
 52124  1  0  0  0  0
 53 56  1  0  0  0  0
 53 58  1  0  0  0  0
 53 59  1  0  0  0  0
 54125  1  0  0  0  0
 54126  1  0  0  0  0
 54127  1  0  0  0  0
 55128  1  0  0  0  0
 55129  1  0  0  0  0
 55130  1  0  0  0  0
 56131  1  0  0  0  0
 56132  1  0  0  0  0
 58133  1  0  0  0  0
 58134  1  0  0  0  0
 58135  1  0  0  0  0
 59136  1  0  0  0  0
 59137  1  0  0  0  0
 59138  1  0  0  0  0
 60 61  1  0  0  0  0
 60139  1  0  0  0  0
 61 63  1  0  0  0  0
 61140  1  0  0  0  0
 62 66  1  0  0  0  0
 62141  1  0  0  0  0
 63 65  1  0  0  0  0
 63142  1  0  0  0  0
 64 65  1  0  0  0  0
 64 68  1  1  0  0  0
 64143  1  0  0  0  0
 65144  1  0  0  0  0
 66 67  1  0  0  0  0
 66145  1  0  0  0  0
 67 71  1  0  0  0  0
 67146  1  0  0  0  0
 68147  1  0  0  0  0
 68148  1  0  0  0  0
 69 72  1  0  0  0  0
 69149  1  0  0  0  0
 70 71  1  0  0  0  0
 70150  1  0  0  0  0
 70151  1  0  0  0  0
 71152  1  0  0  0  0
 72 74  1  0  0  0  0
 72155  1  0  0  0  0
 73 77  1  0  0  0  0
 73156  1  0  0  0  0
 74 76  1  0  0  0  0
 74159  1  0  0  0  0
 75 76  1  0  0  0  0
 75 79  1  1  0  0  0
 75161  1  0  0  0  0
 76162  1  0  0  0  0
 77 78  1  0  0  0  0
 77163  1  0  0  0  0
 78 81  1  0  0  0  0
 78165  1  0  0  0  0
 79166  1  0  0  0  0
 79167  1  0  0  0  0
 80 81  1  0  0  0  0
 80 82  1  1  0  0  0
 80168  1  0  0  0  0
 81169  1  0  0  0  0
 82173  1  0  0  0  0
 82174  1  0  0  0  0
 82175  1  0  0  0  0
 83 84  1  0  0  0  0
 83178  1  0  0  0  0
 84 85  1  0  0  0  0
 84179  1  0  0  0  0
 85 87  1  0  0  0  0
 85180  1  0  0  0  0
 86 87  1  0  0  0  0
 86181  1  0  0  0  0
 86182  1  0  0  0  0
 87183  1  0  0  0  0
 88 89  1  0  0  0  0
 88186  1  0  0  0  0
 89 90  1  0  0  0  0
 89187  1  0  0  0  0
 90 92  1  0  0  0  0
 90188  1  0  0  0  0
 91 92  1  0  0  0  0
 91189  1  0  0  0  0
 91190  1  0  0  0  0
 92191  1  0  0  0  0
M  END
> <PUBCHEM_COMPOUND_CID>
101596471

> <PUBCHEM_COMPOUND_CANONICALIZED>
1

> <PUBCHEM_CACTVS_COMPLEXITY>
2580

> <PUBCHEM_CACTVS_HBOND_ACCEPTOR>
29

> <PUBCHEM_CACTVS_HBOND_DONOR>
16

> <PUBCHEM_CACTVS_ROTATABLE_BOND>
15

> <PUBCHEM_CACTVS_SUBSKEYS>
AAADcfB8PgAAAAAAAAAAAAAAAAAAAAAAAAA0aNGiQAAAAADAAAAAGgAACAAADxSwgAMCCAAABgCIAiDSCAAAAAAgAAAACAEAAAgREBIAAQAiQAAFgAAPAAPI6PyPgAAAAAAAAADAAAYAADAAAAAAAAAAAA==

> <PUBCHEM_IUPAC_OPENEYE_NAME>
[(2S,3R,4S,5S)-3-[(2S,3R,4S,5R,6S)-5-[(2S,3R,4S,5R)-3,5-dihydroxy-4-[(2S,3R,4S,5S)-3,4,5-trihydroxytetrahydropyran-2-yl]oxy-tetrahydropyran-2-yl]oxy-3,4-dihydroxy-6-methyl-tetrahydropyran-2-yl]oxy-4,5-dihydroxy-tetrahydropyran-2-yl] (4aS,6aR,6aS,6bR,8aR,10S,12aR,14bS)-10-[(2R,3R,4S,5S,6R)-4,5-dihydroxy-6-(hydroxymethyl)-3-[(2S,3R,4S,5S,6R)-3,4,5-trihydroxy-6-(hydroxymethyl)tetrahydropyran-2-yl]oxy-tetrahydropyran-2-yl]oxy-2,2,6a,6b,9,9,12a-heptamethyl-1,3,4,5,6,6a,7,8,8a,10,11,12,13,14b-tetradecahydropicene-4a-carboxylate

> <PUBCHEM_IUPAC_CAS_NAME>
(4aS,6aR,6aS,6bR,8aR,10S,12aR,14bS)-10-[[(2R,3R,4S,5S,6R)-4,5-dihydroxy-6-(hydroxymethyl)-3-[[(2S,3R,4S,5S,6R)-3,4,5-trihydroxy-6-(hydroxymethyl)-2-oxanyl]oxy]-2-oxanyl]oxy]-2,2,6a,6b,9,9,12a-heptamethyl-1,3,4,5,6,6a,7,8,8a,10,11,12,13,14b-tetradecahydropicene-4a-carboxylic acid [(2S,3R,4S,5S)-3-[[(2S,3R,4S,5R,6S)-5-[[(2S,3R,4S,5R)-3,5-dihydroxy-4-[[(2S,3R,4S,5S)-3,4,5-trihydroxy-2-oxanyl]oxy]-2-oxanyl]oxy]-3,4-dihydroxy-6-methyl-2-oxanyl]oxy]-4,5-dihydroxy-2-oxanyl] ester

> <PUBCHEM_IUPAC_NAME_MARKUP>
[(2<I>S</I>,3<I>R</I>,4<I>S</I>,5<I>S</I>)-3-[(2<I>S</I>,3<I>R</I>,4<I>S</I>,5<I>R</I>,6<I>S</I>)-5-[(2<I>S</I>,3<I>R</I>,4<I>S</I>,5<I>R</I>)-3,5-dihydroxy-4-[(2<I>S</I>,3<I>R</I>,4<I>S</I>,5<I>S</I>)-3,4,5-trihydroxyoxan-2-yl]oxyoxan-2-yl]oxy-3,4-dihydroxy-6-methyloxan-2-yl]oxy-4,5-dihydroxyoxan-2-yl] (4<I>a</I><I>S</I>,6<I>a</I><I>R</I>,6<I>a</I><I>S</I>,6<I>b</I><I>R</I>,8<I>a</I><I>R</I>,10<I>S</I>,12<I>a</I><I>R</I>,14<I>b</I><I>S</I>)-10-[(2<I>R</I>,3<I>R</I>,4<I>S</I>,5<I>S</I>,6<I>R</I>)-4,5-dihydroxy-6-(hydroxymethyl)-3-[(2<I>S</I>,3<I>R</I>,4<I>S</I>,5<I>S</I>,6<I>R</I>)-3,4,5-trihydroxy-6-(hydroxymethyl)oxan-2-yl]oxyoxan-2-yl]oxy-2,2,6<I>a</I>,6<I>b</I>,9,9,12<I>a</I>-heptamethyl-1,3,4,5,6,6<I>a</I>,7,8,8<I>a</I>,10,11,12,13,14<I>b</I>-tetradecahydropicene-4<I>a</I>-carboxylate

> <PUBCHEM_IUPAC_NAME>
[(2S,3R,4S,5S)-3-[(2S,3R,4S,5R,6S)-5-[(2S,3R,4S,5R)-3,5-dihydroxy-4-[(2S,3R,4S,5S)-3,4,5-trihydroxyoxan-2-yl]oxyoxan-2-yl]oxy-3,4-dihydroxy-6-methyloxan-2-yl]oxy-4,5-dihydroxyoxan-2-yl] (4aS,6aR,6aS,6bR,8aR,10S,12aR,14bS)-10-[(2R,3R,4S,5S,6R)-4,5-dihydroxy-6-(hydroxymethyl)-3-[(2S,3R,4S,5S,6R)-3,4,5-trihydroxy-6-(hydroxymethyl)oxan-2-yl]oxyoxan-2-yl]oxy-2,2,6a,6b,9,9,12a-heptamethyl-1,3,4,5,6,6a,7,8,8a,10,11,12,13,14b-tetradecahydropicene-4a-carboxylate

> <PUBCHEM_IUPAC_SYSTEMATIC_NAME>
[(2S,3R,4S,5S)-3-[(2S,3R,4S,5R,6S)-5-[(2S,3R,4S,5R)-3,5-bis(oxidanyl)-4-[(2S,3R,4S,5S)-3,4,5-tris(oxidanyl)oxan-2-yl]oxy-oxan-2-yl]oxy-6-methyl-3,4-bis(oxidanyl)oxan-2-yl]oxy-4,5-bis(oxidanyl)oxan-2-yl] (4aS,6aR,6aS,6bR,8aR,10S,12aR,14bS)-10-[(2R,3R,4S,5S,6R)-6-(hydroxymethyl)-3-[(2S,3R,4S,5S,6R)-6-(hydroxymethyl)-3,4,5-tris(oxidanyl)oxan-2-yl]oxy-4,5-bis(oxidanyl)oxan-2-yl]oxy-2,2,6a,6b,9,9,12a-heptamethyl-1,3,4,5,6,6a,7,8,8a,10,11,12,13,14b-tetradecahydropicene-4a-carboxylate

> <PUBCHEM_IUPAC_TRADITIONAL_NAME>
(4aS,6aR,6aS,6bR,8aR,10S,12aR,14bS)-10-[(2R,3R,4S,5S,6R)-4,5-dihydroxy-6-methylol-3-[(2S,3R,4S,5S,6R)-3,4,5-trihydroxy-6-methylol-tetrahydropyran-2-yl]oxy-tetrahydropyran-2-yl]oxy-2,2,6a,6b,9,9,12a-heptamethyl-1,3,4,5,6,6a,7,8,8a,10,11,12,13,14b-tetradecahydropicene-4a-carboxylic acid [(2S,3R,4S,5S)-3-[(2S,3R,4S,5R,6S)-5-[(2S,3R,4S,5R)-3,5-dihydroxy-4-[(2S,3R,4S,5S)-3,4,5-trihydroxytetrahydropyran-2-yl]oxy-tetrahydropyran-2-yl]oxy-3,4-dihydroxy-6-methyl-tetrahydropyran-2-yl]oxy-4,5-dihydroxy-tetrahydropyran-2-yl] ester

> <PUBCHEM_IUPAC_INCHI>
InChI=1S/C63H102O29/c1-25-47(88-52-46(79)48(30(68)24-82-52)89-51-43(76)36(69)28(66)22-81-51)42(75)45(78)53(84-25)90-49-37(70)29(67)23-83-55(49)92-57(80)63-17-15-58(2,3)19-27(63)26-9-10-34-60(6)13-12-35(59(4,5)33(60)11-14-62(34,8)61(26,7)16-18-63)87-56-50(41(74)39(72)32(21-65)86-56)91-54-44(77)40(73)38(71)31(20-64)85-54/h9,25,27-56,64-79H,10-24H2,1-8H3/t25-,27-,28-,29-,30+,31+,32+,33-,34+,35-,36-,37-,38+,39+,40-,41-,42-,43+,44+,45+,46+,47-,48-,49+,50+,51-,52-,53-,54-,55-,56-,60-,61+,62+,63-/m0/s1

> <PUBCHEM_IUPAC_INCHIKEY>
GGJRZIMZYBAXEM-XZGPFUAFSA-N

> <PUBCHEM_XLOGP3_AA>
-1.6

> <PUBCHEM_EXACT_MASS>
1322.650677

> <PUBCHEM_MOLECULAR_FORMULA>
C63H102O29

> <PUBCHEM_MOLECULAR_WEIGHT>
1323.5

> <PUBCHEM_OPENEYE_CAN_SMILES>
CC1C(C(C(C(O1)OC2C(C(COC2OC(=O)C34CCC(CC3C5=CCC6C7(CCC(C(C7CCC6(C5(CC4)C)C)(C)C)OC8C(C(C(C(O8)CO)O)O)OC9C(C(C(C(O9)CO)O)O)O)C)(C)C)O)O)O)O)OC1C(C(C(CO1)O)OC1C(C(C(CO1)O)O)O)O

> <PUBCHEM_OPENEYE_ISO_SMILES>
C[C@H]1[C@@H]([C@H]([C@H]([C@@H](O1)O[C@@H]2[C@H]([C@H](CO[C@H]2OC(=O)[C@@]34CC[C@@]5(C(=CC[C@H]6[C@]5(CC[C@@H]7[C@@]6(CC[C@@H](C7(C)C)O[C@H]8[C@@H]([C@H]([C@@H]([C@H](O8)CO)O)O)O[C@H]9[C@@H]([C@H]([C@@H]([C@H](O9)CO)O)O)O)C)C)[C@@H]3CC(CC4)(C)C)C)O)O)O)O)O[C@H]1[C@@H]([C@H]([C@@H](CO1)O)O[C@H]1[C@@H]([C@H]([C@H](CO1)O)O)O)O

> <PUBCHEM_CACTVS_TPSA>
452

> <PUBCHEM_MONOISOTOPIC_WEIGHT>
1322.650677

> <PUBCHEM_TOTAL_CHARGE>
0

> <PUBCHEM_HEAVY_ATOM_COUNT>
92

> <PUBCHEM_ATOM_DEF_STEREO_COUNT>
35

> <PUBCHEM_ATOM_UDEF_STEREO_COUNT>
0

> <PUBCHEM_BOND_DEF_STEREO_COUNT>
0

> <PUBCHEM_BOND_UDEF_STEREO_COUNT>
0

> <PUBCHEM_ISOTOPIC_ATOM_COUNT>
0

> <PUBCHEM_COMPONENT_COUNT>
1

> <PUBCHEM_CACTVS_TAUTO_COUNT>
-1

> <PUBCHEM_COORDINATE_TYPE>
1
5
255

> <PUBCHEM_BONDANNOTATIONS>
45  1  5
60  1  5
67  10  6
71  13  6
72  14  6
74  16  5
76  17  6
77  18  5
78  19  5
62  2  6
81  20  6
83  20  6
84  23  5
85  24  6
88  24  6
87  25  5
89  27  5
90  28  6
92  29  6
30  44  5
31  93  6
32  47  5
33  50  6
34  94  6
39  99  5
43  57  5
61  5  6
69  5  5
64  68  5
63  7  5
75  79  5
66  8  5
73  8  6
80  82  5
65  9  6

$$$$
