91895280
  -OEChem-09172011263D

 70 74  0     1  0  0  0  0  0999 V2000
   -4.2085   -2.0084   -0.7928 O   0  0  0  0  0  0  0  0  0  0  0  0
    6.6598    0.9364    0.2038 O   0  0  0  0  0  0  0  0  0  0  0  0
   -5.7642    0.0887   -0.1851 N   0  0  0  0  0  0  0  0  0  0  0  0
    0.9876    0.5216   -0.0808 C   0  0  2  0  0  0  0  0  0  0  0  0
    2.5368    0.6014   -0.0297 C   0  0  2  0  0  0  0  0  0  0  0  0
    0.3122   -0.8772   -0.0458 C   0  0  2  0  0  0  0  0  0  0  0  0
    1.8025    0.7762   -1.3375 C   0  0  0  0  0  0  0  0  0  0  0  0
   -1.1162   -0.8315    0.5553 C   0  0  1  0  0  0  0  0  0  0  0  0
    3.3422   -0.6641    0.2746 C   0  0  1  0  0  0  0  0  0  0  0  0
   -1.9134    0.3407   -0.1070 C   0  0  2  0  0  0  0  0  0  0  0  0
    0.1918    1.7107    0.4777 C   0  0  0  0  0  0  0  0  0  0  0  0
    1.2166   -1.9461    0.5849 C   0  0  0  0  0  0  0  0  0  0  0  0
   -1.3446    1.6678    0.3973 C   0  0  0  0  0  0  0  0  0  0  0  0
    2.5937   -1.9557   -0.0762 C   0  0  0  0  0  0  0  0  0  0  0  0
   -3.3712    0.0354    0.3488 C   0  0  2  0  0  0  0  0  0  0  0  0
   -2.0084   -2.0358    0.1897 C   0  0  0  0  0  0  0  0  0  0  0  0
    3.2400    1.8180    0.4416 C   0  0  0  0  0  0  0  0  0  0  0  0
    4.7932   -0.5480   -0.2995 C   0  0  0  0  0  0  0  0  0  0  0  0
   -3.4568   -1.5150    0.3050 C   0  0  2  0  0  0  0  0  0  0  0  0
   -1.0486   -0.7683    2.1125 C   0  0  0  0  0  0  0  0  0  0  0  0
   -1.8557    0.3638   -1.6646 C   0  0  0  0  0  0  0  0  0  0  0  0
   -4.4873    0.7734   -0.3841 C   0  0  2  0  0  0  0  0  0  0  0  0
    4.5706    1.9290    0.5302 C   0  0  0  0  0  0  0  0  0  0  0  0
    5.4386    0.7785    0.1643 C   0  0  0  0  0  0  0  0  0  0  0  0
    4.8494   -0.5639   -1.8359 C   0  0  0  0  0  0  0  0  0  0  0  0
    5.6649   -1.7053    0.2307 C   0  0  0  0  0  0  0  0  0  0  0  0
   -4.6033    2.2147    0.1023 C   0  0  0  0  0  0  0  0  0  0  0  0
   -6.7195    0.4773   -1.2220 C   0  0  0  0  0  0  0  0  0  0  0  0
   -6.3020    0.3853    1.1422 C   0  0  0  0  0  0  0  0  0  0  0  0
    0.1993   -1.1962   -1.0916 H   0  0  0  0  0  0  0  0  0  0  0  0
    1.7543    1.7623   -1.7898 H   0  0  0  0  0  0  0  0  0  0  0  0
    1.8757   -0.0039   -2.0870 H   0  0  0  0  0  0  0  0  0  0  0  0
    3.4475   -0.6786    1.3725 H   0  0  0  0  0  0  0  0  0  0  0  0
    0.5122    2.6401   -0.0109 H   0  0  0  0  0  0  0  0  0  0  0  0
    0.4726    1.8315    1.5319 H   0  0  0  0  0  0  0  0  0  0  0  0
    0.7567   -2.9344    0.4692 H   0  0  0  0  0  0  0  0  0  0  0  0
    1.3497   -1.7744    1.6587 H   0  0  0  0  0  0  0  0  0  0  0  0
   -1.6675    2.4960   -0.2439 H   0  0  0  0  0  0  0  0  0  0  0  0
   -1.7441    1.9087    1.3910 H   0  0  0  0  0  0  0  0  0  0  0  0
    3.1442   -2.8253    0.2977 H   0  0  0  0  0  0  0  0  0  0  0  0
    2.4872   -2.0853   -1.1582 H   0  0  0  0  0  0  0  0  0  0  0  0
   -3.4399    0.3122    1.4087 H   0  0  0  0  0  0  0  0  0  0  0  0
   -1.8507   -2.8936    0.8534 H   0  0  0  0  0  0  0  0  0  0  0  0
   -1.8021   -2.3947   -0.8261 H   0  0  0  0  0  0  0  0  0  0  0  0
    2.6544    2.6843    0.7335 H   0  0  0  0  0  0  0  0  0  0  0  0
   -3.9263   -1.8843    1.2244 H   0  0  0  0  0  0  0  0  0  0  0  0
   -0.3678    0.0055    2.4742 H   0  0  0  0  0  0  0  0  0  0  0  0
   -0.6948   -1.7199    2.5259 H   0  0  0  0  0  0  0  0  0  0  0  0
   -2.0179   -0.5887    2.5836 H   0  0  0  0  0  0  0  0  0  0  0  0
   -2.3050   -0.5257   -2.1159 H   0  0  0  0  0  0  0  0  0  0  0  0
   -2.3716    1.2408   -2.0714 H   0  0  0  0  0  0  0  0  0  0  0  0
   -0.8387    0.4410   -2.0534 H   0  0  0  0  0  0  0  0  0  0  0  0
   -4.2904    0.7768   -1.4588 H   0  0  0  0  0  0  0  0  0  0  0  0
    5.0440    2.8413    0.8731 H   0  0  0  0  0  0  0  0  0  0  0  0
    4.4030   -1.4726   -2.2509 H   0  0  0  0  0  0  0  0  0  0  0  0
    5.8873   -0.5212   -2.1883 H   0  0  0  0  0  0  0  0  0  0  0  0
    4.3426    0.3011   -2.2744 H   0  0  0  0  0  0  0  0  0  0  0  0
    5.3243   -2.6760   -0.1432 H   0  0  0  0  0  0  0  0  0  0  0  0
    5.6547   -1.7358    1.3262 H   0  0  0  0  0  0  0  0  0  0  0  0
    6.7114   -1.5970   -0.0781 H   0  0  0  0  0  0  0  0  0  0  0  0
   -4.1867   -2.9796   -0.7498 H   0  0  0  0  0  0  0  0  0  0  0  0
   -4.5575    2.3149    1.1926 H   0  0  0  0  0  0  0  0  0  0  0  0
   -5.5025    2.7278   -0.2528 H   0  0  0  0  0  0  0  0  0  0  0  0
   -3.7779    2.8094   -0.2991 H   0  0  0  0  0  0  0  0  0  0  0  0
   -7.1566   -0.2774    1.3285 H   0  0  0  0  0  0  0  0  0  0  0  0
   -7.6436   -0.1017   -1.1088 H   0  0  0  0  0  0  0  0  0  0  0  0
   -6.6789    1.4072    1.2626 H   0  0  0  0  0  0  0  0  0  0  0  0
   -6.3335    0.2365   -2.2192 H   0  0  0  0  0  0  0  0  0  0  0  0
   -5.5918    0.1675    1.9463 H   0  0  0  0  0  0  0  0  0  0  0  0
   -6.9932    1.5368   -1.2038 H   0  0  0  0  0  0  0  0  0  0  0  0
  1 19  1  0  0  0  0
  1 61  1  0  0  0  0
  2 24  2  0  0  0  0
  3 22  1  0  0  0  0
  3 28  1  0  0  0  0
  3 29  1  0  0  0  0
  4  5  1  0  0  0  0
  4  6  1  0  0  0  0
  4  7  1  0  0  0  0
  4 11  1  0  0  0  0
  5  7  1  0  0  0  0
  5  9  1  0  0  0  0
  5 17  1  0  0  0  0
  6  8  1  0  0  0  0
  6 12  1  0  0  0  0
  6 30  1  0  0  0  0
  7 31  1  0  0  0  0
  7 32  1  0  0  0  0
  8 10  1  0  0  0  0
  8 16  1  0  0  0  0
  8 20  1  0  0  0  0
  9 14  1  0  0  0  0
  9 18  1  0  0  0  0
  9 33  1  0  0  0  0
 10 13  1  0  0  0  0
 10 15  1  0  0  0  0
 10 21  1  0  0  0  0
 11 13  1  0  0  0  0
 11 34  1  0  0  0  0
 11 35  1  0  0  0  0
 12 14  1  0  0  0  0
 12 36  1  0  0  0  0
 12 37  1  0  0  0  0
 13 38  1  0  0  0  0
 13 39  1  0  0  0  0
 14 40  1  0  0  0  0
 14 41  1  0  0  0  0
 15 19  1  0  0  0  0
 15 22  1  0  0  0  0
 15 42  1  0  0  0  0
 16 19  1  0  0  0  0
 16 43  1  0  0  0  0
 16 44  1  0  0  0  0
 17 23  2  0  0  0  0
 17 45  1  0  0  0  0
 18 24  1  0  0  0  0
 18 25  1  0  0  0  0
 18 26  1  0  0  0  0
 19 46  1  0  0  0  0
 20 47  1  0  0  0  0
 20 48  1  0  0  0  0
 20 49  1  0  0  0  0
 21 50  1  0  0  0  0
 21 51  1  0  0  0  0
 21 52  1  0  0  0  0
 22 27  1  0  0  0  0
 22 53  1  0  0  0  0
 23 24  1  0  0  0  0
 23 54  1  0  0  0  0
 25 55  1  0  0  0  0
 25 56  1  0  0  0  0
 25 57  1  0  0  0  0
 26 58  1  0  0  0  0
 26 59  1  0  0  0  0
 26 60  1  0  0  0  0
 27 62  1  0  0  0  0
 27 63  1  0  0  0  0
 27 64  1  0  0  0  0
 28 66  1  0  0  0  0
 28 68  1  0  0  0  0
 28 70  1  0  0  0  0
 29 65  1  0  0  0  0
 29 67  1  0  0  0  0
 29 69  1  0  0  0  0
M  END
> <PUBCHEM_COMPOUND_CID>
91895280

> <PUBCHEM_CONFORMER_RMSD>
0.8

> <PUBCHEM_CONFORMER_DIVERSEORDER>
1
2

> <PUBCHEM_MMFF94_PARTIAL_CHARGES>
22
1 -0.68
11 0.09
17 -0.19
18 0.06
19 0.28
2 -0.57
22 0.27
23 -0.14
24 0.49
28 0.27
29 0.27
3 -0.81
31 0.1
32 0.1
4 -0.19
45 0.15
5 -0.05
54 0.15
6 0.09
61 0.4
7 -0.2
9 0.09

> <PUBCHEM_EFFECTIVE_ROTOR_COUNT>
3.8

> <PUBCHEM_PHARMACOPHORE_FEATURES>
9
1 1 acceptor
1 1 donor
1 2 acceptor
1 3 cation
3 18 25 26 hydrophobe
5 8 10 15 16 19 rings
6 4 6 8 10 11 13 rings
6 5 9 17 18 23 24 rings
7 4 5 6 7 9 12 14 rings

> <PUBCHEM_HEAVY_ATOM_COUNT>
29

> <PUBCHEM_ATOM_DEF_STEREO_COUNT>
9

> <PUBCHEM_ATOM_UDEF_STEREO_COUNT>
0

> <PUBCHEM_BOND_DEF_STEREO_COUNT>
0

> <PUBCHEM_BOND_UDEF_STEREO_COUNT>
0

> <PUBCHEM_ISOTOPIC_ATOM_COUNT>
0

> <PUBCHEM_COMPONENT_COUNT>
1

> <PUBCHEM_CACTVS_TAUTO_COUNT>
1

> <PUBCHEM_CONFORMER_ID>
057A35F000000001

> <PUBCHEM_MMFF94_ENERGY>
135.2565

> <PUBCHEM_FEATURE_SELFOVERLAP>
45.775

> <PUBCHEM_SHAPE_FINGERPRINT>
10 15 17894911858436630264
10835480 77 18270112547520004176
10906281 52 18114481005960978652
11578080 2 16986853865029872144
11646440 116 18335149695585121945
12011746 2 18335708221800862134
12107183 9 17693098461472668385
12166972 35 18335425668292131061
12236239 1 17489588948260491961
12403259 415 18186513298141214660
12516196 113 17918272060546502441
12788726 201 17489310720506275129
13224815 77 18412267250939741378
13402501 40 18335420175323851856
13533116 47 18340768148626667906
13583140 156 17917710270170616011
14341114 176 18410859841496113024
14790565 3 18124036732996567577
14856354 85 16056879157305297301
15183329 4 18413105048228952971
15196674 1 18410855486230450450
15788980 27 18410014359508011179
17349148 13 18040998453628029920
18608769 82 18261960756006779611
200 152 18202281424412214426
20511986 3 18339909480988909327
21033648 29 18339916147437477936
21236236 1 18340485673086250463
21267235 1 18410582755543475307
21279426 13 18338798888535355532
221357 26 18272091570076754788
22393880 68 18341611550779810886
23402539 116 18341608247880901365
23559900 14 18340763840162715936
29717793 49 17489594445892497086
3004659 81 18187647960530375122
335352 9 18410293597640516030
34797466 226 17775290464948493076
34934 24 18411415115963311251
350125 39 18407761425822979264
3545911 37 18408042909579574061
3633792 109 18339636738498350189
38695281 34 18343301461529022366
404807 14 17192648008955646246
4073 2 18187368783086803226
4093350 32 17418379073719711774
4340502 62 17022906731151285163
474 4 17749114391430850779
5104073 3 18408886256351726282
5283173 99 18411980230580613633
542803 24 17561365075779814065
59755656 215 18334012765785096294
59755656 520 17095242523375207611
7226269 152 18059859420478436417
7495541 125 13695881340920511437
9709674 26 18335987583426861906

> <PUBCHEM_SHAPE_MULTIPOLES>
580.09
14.94
2.18
1.24
3.18
0.17
-0.14
-2.29
-1.53
-0.43
0.29
0.32
0.07
0.38

> <PUBCHEM_SHAPE_SELFOVERLAP>
1246.766

> <PUBCHEM_SHAPE_VOLUME>
320.3

> <PUBCHEM_COORDINATE_TYPE>
2
5
10

$$$$
