91895277
  -OEChem-09172011273D

 77 81  0     1  0  0  0  0  0999 V2000
    7.4149   -0.6567   -0.7506 O   0  0  0  0  0  0  0  0  0  0  0  0
   -6.2730   -0.5423    0.7774 N   0  0  0  0  0  0  0  0  0  0  0  0
    5.8161   -0.1293    0.8579 N   0  0  0  0  0  0  0  0  0  0  0  0
   -0.7055   -0.4063   -0.9979 C   0  0  1  0  0  0  0  0  0  0  0  0
   -2.1393   -0.4231   -0.4135 C   0  0  2  0  0  0  0  0  0  0  0  0
   -1.9198   -0.4679   -1.9069 C   0  0  0  0  0  0  0  0  0  0  0  0
    0.0694    0.9403   -0.9949 C   0  0  2  0  0  0  0  0  0  0  0  0
    1.2572    0.8608    0.0108 C   0  0  1  0  0  0  0  0  0  0  0  0
   -2.6790    0.8708    0.2373 C   0  0  2  0  0  0  0  0  0  0  0  0
    0.1706   -1.6671   -1.0707 C   0  0  0  0  0  0  0  0  0  0  0  0
    2.2060   -0.3264   -0.3846 C   0  0  2  0  0  0  0  0  0  0  0  0
   -2.6896   -1.6701    0.2414 C   0  0  0  0  0  0  0  0  0  0  0  0
    1.4367   -1.6395   -0.2002 C   0  0  0  0  0  0  0  0  0  0  0  0
   -4.2637    0.9100    0.2075 C   0  0  0  0  0  0  0  0  0  0  0  0
    3.3972   -0.0975    0.5801 C   0  0  2  0  0  0  0  0  0  0  0  0
   -0.7757    2.1703   -0.7667 C   0  0  0  0  0  0  0  0  0  0  0  0
    2.2535    2.0357    0.0095 C   0  0  0  0  0  0  0  0  0  0  0  0
   -2.0032    2.1430   -0.2327 C   0  0  0  0  0  0  0  0  0  0  0  0
   -4.2127   -1.6810    0.1884 C   0  0  0  0  0  0  0  0  0  0  0  0
   -4.8110   -0.4255    0.8339 C   0  0  2  0  0  0  0  0  0  0  0  0
    3.5611    1.4438    0.5838 C   0  0  0  0  0  0  0  0  0  0  0  0
    0.6853    0.7647    1.4674 C   0  0  0  0  0  0  0  0  0  0  0  0
    2.7332   -0.2705   -1.8539 C   0  0  0  0  0  0  0  0  0  0  0  0
   -4.7777    2.0947    1.0722 C   0  0  0  0  0  0  0  0  0  0  0  0
   -4.7962    1.1229   -1.2280 C   0  0  0  0  0  0  0  0  0  0  0  0
    4.7001   -0.8241    0.2646 C   0  0  2  0  0  0  0  0  0  0  0  0
    4.6536   -2.2697    0.7416 C   0  0  0  0  0  0  0  0  0  0  0  0
   -6.6905   -1.0555   -0.5253 C   0  0  0  0  0  0  0  0  0  0  0  0
   -6.7541   -1.4096    1.8503 C   0  0  0  0  0  0  0  0  0  0  0  0
    7.0828   -0.1059    0.2959 C   0  0  0  0  0  0  0  0  0  0  0  0
    8.0532    0.7111    1.1061 C   0  0  0  0  0  0  0  0  0  0  0  0
   -2.1607    0.3978   -2.5129 H   0  0  0  0  0  0  0  0  0  0  0  0
   -2.1313   -1.3975   -2.4268 H   0  0  0  0  0  0  0  0  0  0  0  0
    0.4558    1.0728   -2.0119 H   0  0  0  0  0  0  0  0  0  0  0  0
   -2.4070    0.7990    1.3021 H   0  0  0  0  0  0  0  0  0  0  0  0
    0.4622   -1.8091   -2.1193 H   0  0  0  0  0  0  0  0  0  0  0  0
   -0.3886   -2.5694   -0.8119 H   0  0  0  0  0  0  0  0  0  0  0  0
   -2.3461   -1.7140    1.2819 H   0  0  0  0  0  0  0  0  0  0  0  0
   -2.3407   -2.5848   -0.2463 H   0  0  0  0  0  0  0  0  0  0  0  0
    1.1681   -1.7974    0.8499 H   0  0  0  0  0  0  0  0  0  0  0  0
    2.0449   -2.5011   -0.4876 H   0  0  0  0  0  0  0  0  0  0  0  0
    3.1067   -0.3927    1.5967 H   0  0  0  0  0  0  0  0  0  0  0  0
   -0.3507    3.1291   -1.0520 H   0  0  0  0  0  0  0  0  0  0  0  0
    2.4270    2.4046   -1.0084 H   0  0  0  0  0  0  0  0  0  0  0  0
    1.9139    2.8915    0.6031 H   0  0  0  0  0  0  0  0  0  0  0  0
   -2.5027    3.0948   -0.0881 H   0  0  0  0  0  0  0  0  0  0  0  0
   -4.4615   -1.7833   -0.8735 H   0  0  0  0  0  0  0  0  0  0  0  0
   -4.5476   -2.5959    0.6902 H   0  0  0  0  0  0  0  0  0  0  0  0
   -4.4946   -0.4094    1.8879 H   0  0  0  0  0  0  0  0  0  0  0  0
    4.3970    1.7905   -0.0343 H   0  0  0  0  0  0  0  0  0  0  0  0
    3.7310    1.8068    1.6040 H   0  0  0  0  0  0  0  0  0  0  0  0
    0.0047   -0.0809    1.5973 H   0  0  0  0  0  0  0  0  0  0  0  0
    0.1284    1.6713    1.7297 H   0  0  0  0  0  0  0  0  0  0  0  0
    1.4593    0.6723    2.2336 H   0  0  0  0  0  0  0  0  0  0  0  0
    3.4054    0.5751   -2.0309 H   0  0  0  0  0  0  0  0  0  0  0  0
    1.9376   -0.1972   -2.5983 H   0  0  0  0  0  0  0  0  0  0  0  0
    3.2789   -1.1867   -2.1083 H   0  0  0  0  0  0  0  0  0  0  0  0
   -4.3211    2.0054   -1.6752 H   0  0  0  0  0  0  0  0  0  0  0  0
   -4.3546    2.0571    2.0821 H   0  0  0  0  0  0  0  0  0  0  0  0
   -4.5278    3.0663    0.6358 H   0  0  0  0  0  0  0  0  0  0  0  0
   -4.5640    0.2958   -1.9020 H   0  0  0  0  0  0  0  0  0  0  0  0
   -5.8688    2.0752    1.1711 H   0  0  0  0  0  0  0  0  0  0  0  0
   -5.8659    1.3554   -1.2460 H   0  0  0  0  0  0  0  0  0  0  0  0
    4.9057   -0.8372   -0.8080 H   0  0  0  0  0  0  0  0  0  0  0  0
    4.3887   -2.3362    1.8026 H   0  0  0  0  0  0  0  0  0  0  0  0
    5.6363   -2.7434    0.6303 H   0  0  0  0  0  0  0  0  0  0  0  0
    3.9510   -2.8744    0.1687 H   0  0  0  0  0  0  0  0  0  0  0  0
    5.6841    0.2941    1.7724 H   0  0  0  0  0  0  0  0  0  0  0  0
   -6.2910   -0.6227   -1.4342 H   0  0  0  0  0  0  0  0  0  0  0  0
   -7.7715   -0.8766   -0.6074 H   0  0  0  0  0  0  0  0  0  0  0  0
   -6.5844   -2.1457   -0.6088 H   0  0  0  0  0  0  0  0  0  0  0  0
   -6.4702   -1.0095    2.8304 H   0  0  0  0  0  0  0  0  0  0  0  0
   -7.8501   -1.4382    1.8414 H   0  0  0  0  0  0  0  0  0  0  0  0
   -6.3983   -2.4425    1.7834 H   0  0  0  0  0  0  0  0  0  0  0  0
    7.7302    1.7557    1.1236 H   0  0  0  0  0  0  0  0  0  0  0  0
    8.1017    0.3265    2.1287 H   0  0  0  0  0  0  0  0  0  0  0  0
    9.0494    0.6523    0.6590 H   0  0  0  0  0  0  0  0  0  0  0  0
  1 30  2  0  0  0  0
  2 20  1  0  0  0  0
  2 28  1  0  0  0  0
  2 29  1  0  0  0  0
  3 26  1  0  0  0  0
  3 30  1  0  0  0  0
  3 68  1  0  0  0  0
  4  5  1  0  0  0  0
  4  6  1  0  0  0  0
  4  7  1  0  0  0  0
  4 10  1  0  0  0  0
  5  6  1  0  0  0  0
  5  9  1  0  0  0  0
  5 12  1  0  0  0  0
  6 32  1  0  0  0  0
  6 33  1  0  0  0  0
  7  8  1  0  0  0  0
  7 16  1  0  0  0  0
  7 34  1  0  0  0  0
  8 11  1  0  0  0  0
  8 17  1  0  0  0  0
  8 22  1  0  0  0  0
  9 14  1  0  0  0  0
  9 18  1  0  0  0  0
  9 35  1  0  0  0  0
 10 13  1  0  0  0  0
 10 36  1  0  0  0  0
 10 37  1  0  0  0  0
 11 13  1  0  0  0  0
 11 15  1  0  0  0  0
 11 23  1  0  0  0  0
 12 19  1  0  0  0  0
 12 38  1  0  0  0  0
 12 39  1  0  0  0  0
 13 40  1  0  0  0  0
 13 41  1  0  0  0  0
 14 20  1  0  0  0  0
 14 24  1  0  0  0  0
 14 25  1  0  0  0  0
 15 21  1  0  0  0  0
 15 26  1  0  0  0  0
 15 42  1  0  0  0  0
 16 18  2  0  0  0  0
 16 43  1  0  0  0  0
 17 21  1  0  0  0  0
 17 44  1  0  0  0  0
 17 45  1  0  0  0  0
 18 46  1  0  0  0  0
 19 20  1  0  0  0  0
 19 47  1  0  0  0  0
 19 48  1  0  0  0  0
 20 49  1  0  0  0  0
 21 50  1  0  0  0  0
 21 51  1  0  0  0  0
 22 52  1  0  0  0  0
 22 53  1  0  0  0  0
 22 54  1  0  0  0  0
 23 55  1  0  0  0  0
 23 56  1  0  0  0  0
 23 57  1  0  0  0  0
 24 59  1  0  0  0  0
 24 60  1  0  0  0  0
 24 62  1  0  0  0  0
 25 58  1  0  0  0  0
 25 61  1  0  0  0  0
 25 63  1  0  0  0  0
 26 27  1  0  0  0  0
 26 64  1  0  0  0  0
 27 65  1  0  0  0  0
 27 66  1  0  0  0  0
 27 67  1  0  0  0  0
 28 69  1  0  0  0  0
 28 70  1  0  0  0  0
 28 71  1  0  0  0  0
 29 72  1  0  0  0  0
 29 73  1  0  0  0  0
 29 74  1  0  0  0  0
 30 31  1  0  0  0  0
 31 75  1  0  0  0  0
 31 76  1  0  0  0  0
 31 77  1  0  0  0  0
M  END
> <PUBCHEM_COMPOUND_CID>
91895277

> <PUBCHEM_CONFORMER_RMSD>
0.8

> <PUBCHEM_CONFORMER_DIVERSEORDER>
1
4
5
3
2

> <PUBCHEM_MMFF94_PARTIAL_CHARGES>
23
1 -0.57
10 0.09
12 0.09
16 -0.29
18 -0.29
2 -0.81
20 0.27
26 0.3
28 0.27
29 0.27
3 -0.73
30 0.57
31 0.06
32 0.1
33 0.1
4 -0.19
43 0.15
46 0.15
5 -0.19
6 -0.2
68 0.37
7 0.23
9 0.23

> <PUBCHEM_EFFECTIVE_ROTOR_COUNT>
6

> <PUBCHEM_PHARMACOPHORE_FEATURES>
8
1 1 acceptor
1 2 cation
1 3 donor
3 14 24 25 hydrophobe
5 8 11 15 17 21 rings
6 4 7 8 10 11 13 rings
6 5 9 12 14 19 20 rings
7 4 5 6 7 9 16 18 rings

> <PUBCHEM_HEAVY_ATOM_COUNT>
31

> <PUBCHEM_ATOM_DEF_STEREO_COUNT>
9

> <PUBCHEM_ATOM_UDEF_STEREO_COUNT>
0

> <PUBCHEM_BOND_DEF_STEREO_COUNT>
0

> <PUBCHEM_BOND_UDEF_STEREO_COUNT>
0

> <PUBCHEM_ISOTOPIC_ATOM_COUNT>
0

> <PUBCHEM_COMPONENT_COUNT>
1

> <PUBCHEM_CACTVS_TAUTO_COUNT>
3

> <PUBCHEM_CONFORMER_ID>
057A35ED00000001

> <PUBCHEM_MMFF94_ENERGY>
132.6402

> <PUBCHEM_FEATURE_SELFOVERLAP>
40.703

> <PUBCHEM_SHAPE_FINGERPRINT>
10 15 18342449370930820232
10290309 65 18267579118406353718
106641 1 18342457075300373730
11089746 13 12319732566701455882
11315181 36 16515686645960374429
11578080 2 17057787780276364522
11646440 116 17418097624180502512
11963148 33 18259981599858007059
12236239 1 17240484693446629444
12422481 6 18271524178441184783
12633257 1 18339366258194747273
13140716 1 18269554012692190575
13224815 77 18201721769394963677
13540713 4 18055361232039821479
13583140 156 18336537249478804207
14251764 18 18343302586772653406
14341114 176 18411982438541417618
14849402 71 17988077923981287576
14856354 85 18260837020014406694
14955137 171 18131635586863193872
15461852 350 17203319018938082741
15849732 13 18342175575060183564
16110190 28 18341893034847453548
17349148 13 18411984685278766669
1813 80 17168147823122807414
18608769 82 18409164433352800090
20105231 36 18343310267039972470
21033648 29 17131256974875835619
21130935 74 18341333280044128922
21267235 1 18408046220814684497
21756936 100 14692572113825251175
22224240 67 18060134362509111510
22393880 68 8574422102303686249
23522609 53 18044404697754974916
23559900 14 18336256894718930841
23569943 247 15840436861403493150
2838139 119 12823292394673439626
3009799 131 11530484432817802142
3178227 256 18412548725658080434
335352 9 18408880729330254621
3383291 50 18113907099931998179
350125 39 18412260640922159028
392239 28 17846504742600885481
4093350 32 16702584944323373280
465052 167 18334862726917568579
5104073 3 18340772546345995561
5265222 85 18129664231529129916
57527306 92 14979963562389069619
57724786 102 15840971387125809344
59755656 520 14908174252976656605
7226269 152 16917067750377544952

> <PUBCHEM_SHAPE_MULTIPOLES>
622.13
17.88
2.16
1.42
13.77
0.31
-0.15
-3.87
6.65
-0.97
0.16
-0.66
-0.11
0.66

> <PUBCHEM_SHAPE_SELFOVERLAP>
1320.157

> <PUBCHEM_SHAPE_VOLUME>
347.1

> <PUBCHEM_COORDINATE_TYPE>
2
5
10

$$$$
