73296
  -OEChem-09022003262D

119125  0     1  0  0  0  0  0999 V2000
    7.7331   -0.9100    0.0000 O   0  0  0  0  0  0  0  0  0  0  0  0
    9.5542   -2.6808    0.0000 O   0  0  0  0  0  0  0  0  0  0  0  0
   16.6462    2.2109    0.0000 O   0  0  0  0  0  0  0  0  0  0  0  0
   15.7976    0.7010    0.0000 O   0  0  0  0  0  0  0  0  0  0  0  0
    6.8671    0.5900    0.0000 O   0  0  0  0  0  0  0  0  0  0  0  0
    6.0010   -1.9100    0.0000 O   0  0  0  0  0  0  0  0  0  0  0  0
    4.2690   -0.9100    0.0000 O   0  0  0  0  0  0  0  0  0  0  0  0
    4.2690    1.0900    0.0000 O   0  0  0  0  0  0  0  0  0  0  0  0
    4.2690   -1.9100    0.0000 O   0  0  0  0  0  0  0  0  0  0  0  0
    6.0010   -3.9100    0.0000 O   0  0  0  0  0  0  0  0  0  0  0  0
    4.2690   -4.9100    0.0000 O   0  0  0  0  0  0  0  0  0  0  0  0
    2.5369   -3.9100    0.0000 O   0  0  0  0  0  0  0  0  0  0  0  0
   12.2541    0.6598    0.0000 C   0  0  2  0  0  0  0  0  0  0  0  0
   11.3862    1.1565    0.0000 C   0  0  1  0  0  0  0  0  0  0  0  0
   10.4781    0.6461    0.0000 C   0  0  2  0  0  0  0  0  0  0  0  0
   13.1182    1.1631    0.0000 C   0  0  1  0  0  0  0  0  0  0  0  0
   10.4741   -0.3955    0.0000 C   0  0  2  0  0  0  0  0  0  0  0  0
   12.2742   -0.3816    0.0000 C   0  0  0  0  0  0  0  0  0  0  0  0
    9.5408   -0.9488    0.0000 C   0  0  1  0  0  0  0  0  0  0  0  0
   11.3782   -0.9128    0.0000 C   0  0  0  0  0  0  0  0  0  0  0  0
   13.1144    2.1631    0.0000 C   0  0  0  0  0  0  0  0  0  0  0  0
    9.5491    1.2066    0.0000 C   0  0  0  0  0  0  0  0  0  0  0  0
   11.3823    2.1564    0.0000 C   0  0  0  0  0  0  0  0  0  0  0  0
   14.0062    2.7012    0.0000 C   0  0  1  0  0  0  0  0  0  0  0  0
   14.0142    0.6319    0.0000 C   0  0  0  0  0  0  0  0  0  0  0  0
   14.9143    2.1909    0.0000 C   0  0  1  0  0  0  0  0  0  0  0  0
    8.5991   -0.4100    0.0000 C   0  0  2  0  0  0  0  0  0  0  0  0
   12.8999   -0.1038    0.0000 C   0  0  0  0  0  0  0  0  0  0  0  0
   14.9183    1.1493    0.0000 C   0  0  0  0  0  0  0  0  0  0  0  0
   10.4820    1.6461    0.0000 C   0  0  0  0  0  0  0  0  0  0  0  0
    8.6033    0.6750    0.0000 C   0  0  0  0  0  0  0  0  0  0  0  0
   12.2464    2.6598    0.0000 C   0  0  0  0  0  0  0  0  0  0  0  0
   13.4639    0.2248    0.0000 C   0  0  0  0  0  0  0  0  0  0  0  0
   13.9770    3.7858    0.0000 C   0  0  0  0  0  0  0  0  0  0  0  0
   15.8560    2.7298    0.0000 C   0  0  0  0  0  0  0  0  0  0  0  0
   14.9060    4.3463    0.0000 C   0  0  0  0  0  0  0  0  0  0  0  0
   10.0475   -1.8110    0.0000 C   0  0  0  0  0  0  0  0  0  0  0  0
    9.0475   -1.8187    0.0000 C   0  0  0  0  0  0  0  0  0  0  0  0
   15.8518    3.8147    0.0000 C   0  0  0  0  0  0  0  0  0  0  0  0
   15.7860    1.7009    0.0000 C   0  0  0  0  0  0  0  0  0  0  0  0
   15.3926    5.2200    0.0000 C   0  0  0  0  0  0  0  0  0  0  0  0
   14.3927    5.2046    0.0000 C   0  0  0  0  0  0  0  0  0  0  0  0
    6.8671   -0.4100    0.0000 C   0  0  2  0  0  0  0  0  0  0  0  0
    6.0010   -0.9100    0.0000 C   0  0  1  0  0  0  0  0  0  0  0  0
    5.1350   -0.4100    0.0000 C   0  0  2  0  0  0  0  0  0  0  0  0
    6.0010    1.0900    0.0000 C   0  0  0  0  0  0  0  0  0  0  0  0
    5.1350    0.5900    0.0000 C   0  0  2  0  0  0  0  0  0  0  0  0
    5.1350   -2.4100    0.0000 C   0  0  2  0  0  0  0  0  0  0  0  0
    5.1350   -3.4100    0.0000 C   0  0  1  0  0  0  0  0  0  0  0  0
    4.2690   -3.9100    0.0000 C   0  0  1  0  0  0  0  0  0  0  0  0
    3.4030   -2.4100    0.0000 C   0  0  2  0  0  0  0  0  0  0  0  0
    3.4030   -3.4100    0.0000 C   0  0  2  0  0  0  0  0  0  0  0  0
    2.5369   -1.9100    0.0000 C   0  0  0  0  0  0  0  0  0  0  0  0
   12.1207    1.5843    0.0000 H   0  0  0  0  0  0  0  0  0  0  0  0
   10.4807   -1.2455    0.0000 H   0  0  0  0  0  0  0  0  0  0  0  0
   12.4945   -0.9612    0.0000 H   0  0  0  0  0  0  0  0  0  0  0  0
   12.8829   -0.2638    0.0000 H   0  0  0  0  0  0  0  0  0  0  0  0
   10.9827   -1.3904    0.0000 H   0  0  0  0  0  0  0  0  0  0  0  0
   11.7810   -1.3842    0.0000 H   0  0  0  0  0  0  0  0  0  0  0  0
    9.9555    1.6748    0.0000 H   0  0  0  0  0  0  0  0  0  0  0  0
    9.1574    1.6872    0.0000 H   0  0  0  0  0  0  0  0  0  0  0  0
   11.1680    2.7382    0.0000 H   0  0  0  0  0  0  0  0  0  0  0  0
   10.7722    2.0464    0.0000 H   0  0  0  0  0  0  0  0  0  0  0  0
   14.7340    3.1403    0.0000 H   0  0  0  0  0  0  0  0  0  0  0  0
   13.6114    0.1606    0.0000 H   0  0  0  0  0  0  0  0  0  0  0  0
   14.4097    0.1544    0.0000 H   0  0  0  0  0  0  0  0  0  0  0  0
    8.0628   -0.0989    0.0000 H   0  0  0  0  0  0  0  0  0  0  0  0
   12.4265   -0.5041    0.0000 H   0  0  0  0  0  0  0  0  0  0  0  0
   13.3002   -0.5772    0.0000 H   0  0  0  0  0  0  0  0  0  0  0  0
   13.3733    0.2966    0.0000 H   0  0  0  0  0  0  0  0  0  0  0  0
   15.1296    0.5664    0.0000 H   0  0  0  0  0  0  0  0  0  0  0  0
   15.5287    1.2577    0.0000 H   0  0  0  0  0  0  0  0  0  0  0  0
   11.1020    1.6437    0.0000 H   0  0  0  0  0  0  0  0  0  0  0  0
   10.4844    2.2661    0.0000 H   0  0  0  0  0  0  0  0  0  0  0  0
    9.8620    1.6485    0.0000 H   0  0  0  0  0  0  0  0  0  0  0  0
    8.3965    1.2595    0.0000 H   0  0  0  0  0  0  0  0  0  0  0  0
    7.9920    0.5713    0.0000 H   0  0  0  0  0  0  0  0  0  0  0  0
   12.2440    3.2798    0.0000 H   0  0  0  0  0  0  0  0  0  0  0  0
   12.8821    0.0105    0.0000 H   0  0  0  0  0  0  0  0  0  0  0  0
   13.6782   -0.3570    0.0000 H   0  0  0  0  0  0  0  0  0  0  0  0
   14.0456    0.4391    0.0000 H   0  0  0  0  0  0  0  0  0  0  0  0
   13.7522    4.3637    0.0000 H   0  0  0  0  0  0  0  0  0  0  0  0
   13.3692    3.6633    0.0000 H   0  0  0  0  0  0  0  0  0  0  0  0
   16.0673    2.1469    0.0000 H   0  0  0  0  0  0  0  0  0  0  0  0
   16.4664    2.8382    0.0000 H   0  0  0  0  0  0  0  0  0  0  0  0
   10.5255   -2.2058    0.0000 H   0  0  0  0  0  0  0  0  0  0  0  0
   10.5194   -1.4088    0.0000 H   0  0  0  0  0  0  0  0  0  0  0  0
    8.5082   -1.5128    0.0000 H   0  0  0  0  0  0  0  0  0  0  0  0
    8.7417   -2.3580    0.0000 H   0  0  0  0  0  0  0  0  0  0  0  0
    9.5868   -2.1245    0.0000 H   0  0  0  0  0  0  0  0  0  0  0  0
   16.4631    3.7110    0.0000 H   0  0  0  0  0  0  0  0  0  0  0  0
   16.0586    4.3992    0.0000 H   0  0  0  0  0  0  0  0  0  0  0  0
   15.9342    4.9183    0.0000 H   0  0  0  0  0  0  0  0  0  0  0  0
   15.6942    5.7616    0.0000 H   0  0  0  0  0  0  0  0  0  0  0  0
   14.8509    5.5216    0.0000 H   0  0  0  0  0  0  0  0  0  0  0  0
   14.9248    5.5228    0.0000 H   0  0  0  0  0  0  0  0  0  0  0  0
   14.0744    5.7366    0.0000 H   0  0  0  0  0  0  0  0  0  0  0  0
   13.8606    4.8863    0.0000 H   0  0  0  0  0  0  0  0  0  0  0  0
    6.8671   -1.0300    0.0000 H   0  0  0  0  0  0  0  0  0  0  0  0
    9.8683   -3.2154    0.0000 H   0  0  0  0  0  0  0  0  0  0  0  0
   17.1867    1.9071    0.0000 H   0  0  0  0  0  0  0  0  0  0  0  0
    5.4641   -1.2200    0.0000 H   0  0  0  0  0  0  0  0  0  0  0  0
    4.5981   -0.1000    0.0000 H   0  0  0  0  0  0  0  0  0  0  0  0
    6.3996    1.5650    0.0000 H   0  0  0  0  0  0  0  0  0  0  0  0
    5.6025    1.5650    0.0000 H   0  0  0  0  0  0  0  0  0  0  0  0
    5.1350    1.2100    0.0000 H   0  0  0  0  0  0  0  0  0  0  0  0
    5.1350   -1.7900    0.0000 H   0  0  0  0  0  0  0  0  0  0  0  0
    3.7320   -0.6000    0.0000 H   0  0  0  0  0  0  0  0  0  0  0  0
    4.2690    1.7100    0.0000 H   0  0  0  0  0  0  0  0  0  0  0  0
    5.1350   -4.0300    0.0000 H   0  0  0  0  0  0  0  0  0  0  0  0
    3.7320   -4.2200    0.0000 H   0  0  0  0  0  0  0  0  0  0  0  0
    3.4030   -1.7900    0.0000 H   0  0  0  0  0  0  0  0  0  0  0  0
    3.4030   -4.0300    0.0000 H   0  0  0  0  0  0  0  0  0  0  0  0
    6.0010   -4.5300    0.0000 H   0  0  0  0  0  0  0  0  0  0  0  0
    2.8469   -1.3730    0.0000 H   0  0  0  0  0  0  0  0  0  0  0  0
    2.0000   -1.6000    0.0000 H   0  0  0  0  0  0  0  0  0  0  0  0
    2.2269   -2.4469    0.0000 H   0  0  0  0  0  0  0  0  0  0  0  0
    3.7320   -5.2200    0.0000 H   0  0  0  0  0  0  0  0  0  0  0  0
    2.0000   -3.6000    0.0000 H   0  0  0  0  0  0  0  0  0  0  0  0
 27  1  1  1  0  0  0
 43  1  1  1  0  0  0
  2 37  1  0  0  0  0
  2100  1  0  0  0  0
  3 40  1  0  0  0  0
  3101  1  0  0  0  0
  4 40  2  0  0  0  0
  5 43  1  0  0  0  0
  5 46  1  0  0  0  0
 44  6  1  6  0  0  0
 48  6  1  1  0  0  0
 45  7  1  1  0  0  0
  7108  1  0  0  0  0
 47  8  1  1  0  0  0
  8109  1  0  0  0  0
  9 48  1  0  0  0  0
  9 51  1  0  0  0  0
 49 10  1  6  0  0  0
 10114  1  0  0  0  0
 50 11  1  6  0  0  0
 11118  1  0  0  0  0
 52 12  1  1  0  0  0
 12119  1  0  0  0  0
 13 14  1  0  0  0  0
 13 16  1  0  0  0  0
 13 18  1  0  0  0  0
 13 28  1  1  0  0  0
 14 15  1  0  0  0  0
 14 23  1  0  0  0  0
 14 54  1  6  0  0  0
 15 17  1  0  0  0  0
 15 22  1  0  0  0  0
 15 30  1  1  0  0  0
 16 21  1  0  0  0  0
 16 25  1  0  0  0  0
 16 33  1  6  0  0  0
 17 19  1  0  0  0  0
 17 20  1  0  0  0  0
 17 55  1  6  0  0  0
 18 20  1  0  0  0  0
 18 56  1  0  0  0  0
 18 57  1  0  0  0  0
 19 27  1  0  0  0  0
 19 37  1  0  0  0  0
 19 38  1  1  0  0  0
 20 58  1  0  0  0  0
 20 59  1  0  0  0  0
 21 24  1  0  0  0  0
 21 32  2  0  0  0  0
 22 31  1  0  0  0  0
 22 60  1  0  0  0  0
 22 61  1  0  0  0  0
 23 32  1  0  0  0  0
 23 62  1  0  0  0  0
 23 63  1  0  0  0  0
 24 26  1  0  0  0  0
 24 34  1  0  0  0  0
 24 64  1  1  0  0  0
 25 29  1  0  0  0  0
 25 65  1  0  0  0  0
 25 66  1  0  0  0  0
 26 29  1  0  0  0  0
 26 35  1  0  0  0  0
 26 40  1  1  0  0  0
 27 31  1  0  0  0  0
 27 67  1  0  0  0  0
 28 68  1  0  0  0  0
 28 69  1  0  0  0  0
 28 70  1  0  0  0  0
 29 71  1  0  0  0  0
 29 72  1  0  0  0  0
 30 73  1  0  0  0  0
 30 74  1  0  0  0  0
 30 75  1  0  0  0  0
 31 76  1  0  0  0  0
 31 77  1  0  0  0  0
 32 78  1  0  0  0  0
 33 79  1  0  0  0  0
 33 80  1  0  0  0  0
 33 81  1  0  0  0  0
 34 36  1  0  0  0  0
 34 82  1  0  0  0  0
 34 83  1  0  0  0  0
 35 39  1  0  0  0  0
 35 84  1  0  0  0  0
 35 85  1  0  0  0  0
 36 39  1  0  0  0  0
 36 41  1  0  0  0  0
 36 42  1  0  0  0  0
 37 86  1  0  0  0  0
 37 87  1  0  0  0  0
 38 88  1  0  0  0  0
 38 89  1  0  0  0  0
 38 90  1  0  0  0  0
 39 91  1  0  0  0  0
 39 92  1  0  0  0  0
 41 93  1  0  0  0  0
 41 94  1  0  0  0  0
 41 95  1  0  0  0  0
 42 96  1  0  0  0  0
 42 97  1  0  0  0  0
 42 98  1  0  0  0  0
 43 44  1  0  0  0  0
 43 99  1  0  0  0  0
 44 45  1  0  0  0  0
 44102  1  0  0  0  0
 45 47  1  0  0  0  0
 45103  1  0  0  0  0
 46 47  1  0  0  0  0
 46104  1  0  0  0  0
 46105  1  0  0  0  0
 47106  1  0  0  0  0
 48 49  1  0  0  0  0
 48107  1  0  0  0  0
 49 50  1  0  0  0  0
 49110  1  0  0  0  0
 50 52  1  0  0  0  0
 50111  1  0  0  0  0
 51 52  1  0  0  0  0
 51 53  1  6  0  0  0
 51112  1  0  0  0  0
 52113  1  0  0  0  0
 53115  1  0  0  0  0
 53116  1  0  0  0  0
 53117  1  0  0  0  0
M  END
> <PUBCHEM_COMPOUND_CID>
73296

> <PUBCHEM_COMPOUND_CANONICALIZED>
1

> <PUBCHEM_CACTVS_COMPLEXITY>
1440

> <PUBCHEM_CACTVS_HBOND_ACCEPTOR>
12

> <PUBCHEM_CACTVS_HBOND_DONOR>
7

> <PUBCHEM_CACTVS_ROTATABLE_BOND>
6

> <PUBCHEM_CACTVS_SUBSKEYS>
AAADcfB8PAAAAAAAAAAAAAAAAAAAAAAAAAA0aMGCAAAAAADAAAAAGgAACAAADxSwgAMCCAAABgCIAiDSCAAAAAAgAAAACAEAAAgREBIAAQAiQAAFgAAPAAPI6PyPgAAAAAAAAADAAAYAADAAAAAAAAAAAA==

> <PUBCHEM_IUPAC_OPENEYE_NAME>
(4aS,6aR,6aS,6bR,8aR,9R,10S,12aR,14bS)-10-[(2S,3R,4S,5S)-4,5-dihydroxy-3-[(2S,3R,4R,5R,6S)-3,4,5-trihydroxy-6-methyl-tetrahydropyran-2-yl]oxy-tetrahydropyran-2-yl]oxy-9-(hydroxymethyl)-2,2,6a,6b,9,12a-hexamethyl-1,3,4,5,6,6a,7,8,8a,10,11,12,13,14b-tetradecahydropicene-4a-carboxylic acid

> <PUBCHEM_IUPAC_CAS_NAME>
(4aS,6aR,6aS,6bR,8aR,9R,10S,12aR,14bS)-10-[[(2S,3R,4S,5S)-4,5-dihydroxy-3-[[(2S,3R,4R,5R,6S)-3,4,5-trihydroxy-6-methyl-2-oxanyl]oxy]-2-oxanyl]oxy]-9-(hydroxymethyl)-2,2,6a,6b,9,12a-hexamethyl-1,3,4,5,6,6a,7,8,8a,10,11,12,13,14b-tetradecahydropicene-4a-carboxylic acid

> <PUBCHEM_IUPAC_NAME_MARKUP>
(4<I>a</I><I>S</I>,6<I>a</I><I>R</I>,6<I>a</I><I>S</I>,6<I>b</I><I>R</I>,8<I>a</I><I>R</I>,9<I>R</I>,10<I>S</I>,12<I>a</I><I>R</I>,14<I>b</I><I>S</I>)-10-[(2<I>S</I>,3<I>R</I>,4<I>S</I>,5<I>S</I>)-4,5-dihydroxy-3-[(2<I>S</I>,3<I>R</I>,4<I>R</I>,5<I>R</I>,6<I>S</I>)-3,4,5-trihydroxy-6-methyloxan-2-yl]oxyoxan-2-yl]oxy-9-(hydroxymethyl)-2,2,6<I>a</I>,6<I>b</I>,9,12<I>a</I>-hexamethyl-1,3,4,5,6,6<I>a</I>,7,8,8<I>a</I>,10,11,12,13,14<I>b</I>-tetradecahydropicene-4<I>a</I>-carboxylic acid

> <PUBCHEM_IUPAC_NAME>
(4aS,6aR,6aS,6bR,8aR,9R,10S,12aR,14bS)-10-[(2S,3R,4S,5S)-4,5-dihydroxy-3-[(2S,3R,4R,5R,6S)-3,4,5-trihydroxy-6-methyloxan-2-yl]oxyoxan-2-yl]oxy-9-(hydroxymethyl)-2,2,6a,6b,9,12a-hexamethyl-1,3,4,5,6,6a,7,8,8a,10,11,12,13,14b-tetradecahydropicene-4a-carboxylic acid

> <PUBCHEM_IUPAC_SYSTEMATIC_NAME>
(4aS,6aR,6aS,6bR,8aR,9R,10S,12aR,14bS)-9-(hydroxymethyl)-2,2,6a,6b,9,12a-hexamethyl-10-[(2S,3R,4S,5S)-3-[(2S,3R,4R,5R,6S)-6-methyl-3,4,5-tris(oxidanyl)oxan-2-yl]oxy-4,5-bis(oxidanyl)oxan-2-yl]oxy-1,3,4,5,6,6a,7,8,8a,10,11,12,13,14b-tetradecahydropicene-4a-carboxylic acid

> <PUBCHEM_IUPAC_TRADITIONAL_NAME>
(4aS,6aR,6aS,6bR,8aR,9R,10S,12aR,14bS)-10-[(2S,3R,4S,5S)-4,5-dihydroxy-3-[(2S,3R,4R,5R,6S)-3,4,5-trihydroxy-6-methyl-tetrahydropyran-2-yl]oxy-tetrahydropyran-2-yl]oxy-2,2,6a,6b,9,12a-hexamethyl-9-methylol-1,3,4,5,6,6a,7,8,8a,10,11,12,13,14b-tetradecahydropicene-4a-carboxylic acid

> <PUBCHEM_IUPAC_INCHI>
InChI=1S/C41H66O12/c1-21-28(44)30(46)31(47)33(51-21)53-32-29(45)24(43)19-50-34(32)52-27-11-12-37(4)25(38(27,5)20-42)10-13-40(7)26(37)9-8-22-23-18-36(2,3)14-16-41(23,35(48)49)17-15-39(22,40)6/h8,21,23-34,42-47H,9-20H2,1-7H3,(H,48,49)/t21-,23-,24-,25+,26+,27-,28-,29-,30+,31+,32+,33-,34-,37-,38-,39+,40+,41-/m0/s1

> <PUBCHEM_IUPAC_INCHIKEY>
KEOITPILCOILGM-LLJOFIFVSA-N

> <PUBCHEM_XLOGP3_AA>
3.6

> <PUBCHEM_EXACT_MASS>
750.455428

> <PUBCHEM_MOLECULAR_FORMULA>
C41H66O12

> <PUBCHEM_MOLECULAR_WEIGHT>
751

> <PUBCHEM_OPENEYE_CAN_SMILES>
CC1C(C(C(C(O1)OC2C(C(COC2OC3CCC4(C(C3(C)CO)CCC5(C4CC=C6C5(CCC7(C6CC(CC7)(C)C)C(=O)O)C)C)C)O)O)O)O)O

> <PUBCHEM_OPENEYE_ISO_SMILES>
C[C@H]1[C@@H]([C@H]([C@H]([C@@H](O1)O[C@@H]2[C@H]([C@H](CO[C@H]2O[C@H]3CC[C@]4([C@H]([C@]3(C)CO)CC[C@@]5([C@@H]4CC=C6[C@]5(CC[C@@]7([C@H]6CC(CC7)(C)C)C(=O)O)C)C)C)O)O)O)O)O

> <PUBCHEM_CACTVS_TPSA>
196

> <PUBCHEM_MONOISOTOPIC_WEIGHT>
750.455428

> <PUBCHEM_TOTAL_CHARGE>
0

> <PUBCHEM_HEAVY_ATOM_COUNT>
53

> <PUBCHEM_ATOM_DEF_STEREO_COUNT>
18

> <PUBCHEM_ATOM_UDEF_STEREO_COUNT>
0

> <PUBCHEM_BOND_DEF_STEREO_COUNT>
0

> <PUBCHEM_BOND_UDEF_STEREO_COUNT>
0

> <PUBCHEM_ISOTOPIC_ATOM_COUNT>
0

> <PUBCHEM_COMPONENT_COUNT>
1

> <PUBCHEM_CACTVS_TAUTO_COUNT>
-1

> <PUBCHEM_COORDINATE_TYPE>
1
5
255

> <PUBCHEM_BONDANNOTATIONS>
27  1  5
43  1  5
49  10  6
50  11  6
52  12  5
13  28  5
14  54  6
15  30  5
16  33  6
17  55  6
19  38  5
24  64  5
26  40  5
51  53  6
44  6  6
48  6  5
45  7  5
47  8  5

$$$$
