564543
  -OEChem-09162007003D

 25 26  0     1  0  0  0  0  0999 V2000
    1.1848    1.5908   -0.0760 O   0  0  0  0  0  0  0  0  0  0  0  0
    3.2166    0.6309   -0.1303 O   0  0  0  0  0  0  0  0  0  0  0  0
   -0.8445    2.5567    0.0544 O   0  0  0  0  0  0  0  0  0  0  0  0
    0.0922   -0.9725   -0.4032 C   0  0  2  0  0  0  0  0  0  0  0  0
   -0.7978   -2.1447    0.0131 C   0  0  0  0  0  0  0  0  0  0  0  0
    1.3633   -0.8122    0.4076 C   0  0  1  0  0  0  0  0  0  0  0  0
   -0.7814    0.2017   -0.1321 C   0  0  0  0  0  0  0  0  0  0  0  0
   -2.2282   -1.6360   -0.1543 C   0  0  0  0  0  0  0  0  0  0  0  0
   -2.0701   -0.1488   -0.0010 C   0  0  0  0  0  0  0  0  0  0  0  0
    2.3208   -1.9803    0.1701 C   0  0  0  0  0  0  0  0  0  0  0  0
    2.0032    0.5067    0.0220 C   0  0  0  0  0  0  0  0  0  0  0  0
   -0.1758    1.5330   -0.0279 C   0  0  0  0  0  0  0  0  0  0  0  0
   -3.2831    0.6746    0.2577 C   0  0  0  0  0  0  0  0  0  0  0  0
    0.3095   -1.0188   -1.4790 H   0  0  0  0  0  0  0  0  0  0  0  0
   -0.6258   -2.4207    1.0621 H   0  0  0  0  0  0  0  0  0  0  0  0
   -0.6114   -3.0383   -0.5918 H   0  0  0  0  0  0  0  0  0  0  0  0
    1.1489   -0.7577    1.4836 H   0  0  0  0  0  0  0  0  0  0  0  0
   -2.8823   -2.0665    0.6103 H   0  0  0  0  0  0  0  0  0  0  0  0
   -2.6287   -1.8767   -1.1449 H   0  0  0  0  0  0  0  0  0  0  0  0
    1.8700   -2.9314    0.4702 H   0  0  0  0  0  0  0  0  0  0  0  0
    2.6050   -2.0537   -0.8856 H   0  0  0  0  0  0  0  0  0  0  0  0
    3.2414   -1.8542    0.7507 H   0  0  0  0  0  0  0  0  0  0  0  0
   -3.0681    1.7385    0.3698 H   0  0  0  0  0  0  0  0  0  0  0  0
   -3.7740    0.3417    1.1779 H   0  0  0  0  0  0  0  0  0  0  0  0
   -3.9937    0.5659   -0.5681 H   0  0  0  0  0  0  0  0  0  0  0  0
  1 11  1  0  0  0  0
  1 12  1  0  0  0  0
  2 11  2  0  0  0  0
  3 12  2  0  0  0  0
  4  5  1  0  0  0  0
  4  6  1  0  0  0  0
  4  7  1  0  0  0  0
  4 14  1  0  0  0  0
  5  8  1  0  0  0  0
  5 15  1  0  0  0  0
  5 16  1  0  0  0  0
  6 10  1  0  0  0  0
  6 11  1  0  0  0  0
  6 17  1  0  0  0  0
  7  9  2  0  0  0  0
  7 12  1  0  0  0  0
  8  9  1  0  0  0  0
  8 18  1  0  0  0  0
  8 19  1  0  0  0  0
  9 13  1  0  0  0  0
 10 20  1  0  0  0  0
 10 21  1  0  0  0  0
 10 22  1  0  0  0  0
 13 23  1  0  0  0  0
 13 24  1  0  0  0  0
 13 25  1  0  0  0  0
M  END
> <PUBCHEM_COMPOUND_CID>
564543

> <PUBCHEM_CONFORMER_RMSD>
0.4

> <PUBCHEM_CONFORMER_DIVERSEORDER>
1
4
6
5
7
2
3

> <PUBCHEM_MMFF94_PARTIAL_CHARGES>
11
1 -0.3
11 0.66
12 0.71
13 0.14
2 -0.57
3 -0.57
4 0.14
6 0.06
7 -0.12
8 0.14
9 -0.28

> <PUBCHEM_EFFECTIVE_ROTOR_COUNT>
0.8

> <PUBCHEM_PHARMACOPHORE_FEATURES>
4
1 2 acceptor
1 3 acceptor
5 4 5 7 8 9 rings
6 1 4 6 7 11 12 rings

> <PUBCHEM_HEAVY_ATOM_COUNT>
13

> <PUBCHEM_ATOM_DEF_STEREO_COUNT>
0

> <PUBCHEM_ATOM_UDEF_STEREO_COUNT>
2

> <PUBCHEM_BOND_DEF_STEREO_COUNT>
0

> <PUBCHEM_BOND_UDEF_STEREO_COUNT>
0

> <PUBCHEM_ISOTOPIC_ATOM_COUNT>
0

> <PUBCHEM_COMPONENT_COUNT>
1

> <PUBCHEM_CACTVS_TAUTO_COUNT>
1

> <PUBCHEM_CONFORMER_ID>
00089D3F00000001

> <PUBCHEM_MMFF94_ENERGY>
32.6693

> <PUBCHEM_FEATURE_SELFOVERLAP>
20.381

> <PUBCHEM_SHAPE_FINGERPRINT>
10967382 1 18410855434395287791
12382932 28 18411977000706502848
12423570 1 13806533300674266830
12524768 44 18341898467485217455
13140716 1 18194399115905484776
13380535 21 18336839657419668590
15076042 46 18268708312077481442
16945 1 18410006658689762676
193761 8 17402331469257052287
20588541 1 18412547617134349198
21501502 16 18411415124463711439
2334 1 18194681698777749719
23463225 33 18409448072370425042
23552423 10 18191306180916413127
23559900 14 18270689779136295212
241688 4 18194679491154081832
2748010 2 18411419522673636031
5084963 1 17914608367480273971
528886 8 18411976983595257235
53812653 166 18342454893319817832
63268167 104 18411419509841130979
66348 1 18267301121824839219

> <PUBCHEM_SHAPE_MULTIPOLES>
249.93
4.01
2.45
0.63
0.07
0.15
0
-0.09
0.23
-0.05
0.01
-0.02
-0.06
-0.21

> <PUBCHEM_SHAPE_SELFOVERLAP>
534.217

> <PUBCHEM_SHAPE_VOLUME>
140.4

> <PUBCHEM_COORDINATE_TYPE>
2
5
10

$$$$
