92154432
  -OEChem-09172003053D

 49 52  0     1  0  0  0  0  0999 V2000
   -4.6227    1.2786   -0.3956 O   0  0  0  0  0  0  0  0  0  0  0  0
   -4.8409   -0.0031    1.4912 O   0  0  0  0  0  0  0  0  0  0  0  0
    1.8948   -2.4003   -1.8520 O   0  0  0  0  0  0  0  0  0  0  0  0
    2.3961   -3.6895    0.1214 O   0  0  0  0  0  0  0  0  0  0  0  0
    3.0251    2.6693   -1.2404 O   0  0  0  0  0  0  0  0  0  0  0  0
    3.7809    1.5096    1.1699 O   0  0  0  0  0  0  0  0  0  0  0  0
   -2.3086    1.0944   -0.7255 C   0  0  1  0  0  0  0  0  0  0  0  0
   -2.7417    0.0217    0.2681 C   0  0  2  0  0  0  0  0  0  0  0  0
   -3.6157    1.4679   -1.3961 C   0  0  0  0  0  0  0  0  0  0  0  0
   -1.6974    2.3009   -0.0070 C   0  0  0  0  0  0  0  0  0  0  0  0
   -2.7006   -1.3832   -0.3165 C   0  0  0  0  0  0  0  0  0  0  0  0
   -4.1689    0.4108    0.5586 C   0  0  0  0  0  0  0  0  0  0  0  0
   -1.3412   -2.0159   -0.1659 C   0  0  0  0  0  0  0  0  0  0  0  0
   -0.2378    2.0907    0.3030 C   0  0  0  0  0  0  0  0  0  0  0  0
   -0.3838   -1.8511   -1.1697 C   0  0  0  0  0  0  0  0  0  0  0  0
   -1.0487   -2.7683    0.9854 C   0  0  0  0  0  0  0  0  0  0  0  0
    0.7342    2.4780   -0.6196 C   0  0  0  0  0  0  0  0  0  0  0  0
    0.1416    1.5095    1.5130 C   0  0  0  0  0  0  0  0  0  0  0  0
    0.8456   -2.4501   -0.9868 C   0  0  0  0  0  0  0  0  0  0  0  0
    0.2044   -3.3643    1.1460 C   0  0  0  0  0  0  0  0  0  0  0  0
    1.1318   -3.1863    0.1401 C   0  0  0  0  0  0  0  0  0  0  0  0
    2.0853    2.2844   -0.3321 C   0  0  0  0  0  0  0  0  0  0  0  0
    1.4928    1.3157    1.8003 C   0  0  0  0  0  0  0  0  0  0  0  0
    2.4646    1.7033    0.8778 C   0  0  0  0  0  0  0  0  0  0  0  0
    2.8738   -3.1873   -1.1432 C   0  0  0  0  0  0  0  0  0  0  0  0
    2.5531    3.2552   -2.4521 C   0  0  0  0  0  0  0  0  0  0  0  0
    4.0840    0.9093    2.4278 C   0  0  0  0  0  0  0  0  0  0  0  0
   -1.6020    0.7365   -1.4807 H   0  0  0  0  0  0  0  0  0  0  0  0
   -2.1920    0.0693    1.2109 H   0  0  0  0  0  0  0  0  0  0  0  0
   -3.6462    2.5019   -1.7520 H   0  0  0  0  0  0  0  0  0  0  0  0
   -3.8482    0.8071   -2.2384 H   0  0  0  0  0  0  0  0  0  0  0  0
   -2.2430    2.5451    0.9140 H   0  0  0  0  0  0  0  0  0  0  0  0
   -1.7831    3.1977   -0.6353 H   0  0  0  0  0  0  0  0  0  0  0  0
   -2.9969   -1.3903   -1.3738 H   0  0  0  0  0  0  0  0  0  0  0  0
   -3.4380   -2.0275    0.1819 H   0  0  0  0  0  0  0  0  0  0  0  0
   -0.5925   -1.2835   -2.0696 H   0  0  0  0  0  0  0  0  0  0  0  0
   -1.7965   -2.8912    1.7651 H   0  0  0  0  0  0  0  0  0  0  0  0
    0.3795    2.9212   -1.5441 H   0  0  0  0  0  0  0  0  0  0  0  0
   -0.5992    1.2201    2.2526 H   0  0  0  0  0  0  0  0  0  0  0  0
    0.4342   -3.9445    2.0324 H   0  0  0  0  0  0  0  0  0  0  0  0
    1.7134    0.8621    2.7603 H   0  0  0  0  0  0  0  0  0  0  0  0
    3.7585   -2.5660   -0.9622 H   0  0  0  0  0  0  0  0  0  0  0  0
    3.1630   -4.0372   -1.7720 H   0  0  0  0  0  0  0  0  0  0  0  0
    3.4336    3.4997   -3.0555 H   0  0  0  0  0  0  0  0  0  0  0  0
    2.0245    4.1965   -2.2667 H   0  0  0  0  0  0  0  0  0  0  0  0
    1.9549    2.5477   -3.0365 H   0  0  0  0  0  0  0  0  0  0  0  0
    5.1742    0.8302    2.4928 H   0  0  0  0  0  0  0  0  0  0  0  0
    3.6870   -0.1094    2.4946 H   0  0  0  0  0  0  0  0  0  0  0  0
    3.7606    1.5388    3.2638 H   0  0  0  0  0  0  0  0  0  0  0  0
  1  9  1  0  0  0  0
  1 12  1  0  0  0  0
  2 12  2  0  0  0  0
  3 19  1  0  0  0  0
  3 25  1  0  0  0  0
  4 21  1  0  0  0  0
  4 25  1  0  0  0  0
  5 22  1  0  0  0  0
  5 26  1  0  0  0  0
  6 24  1  0  0  0  0
  6 27  1  0  0  0  0
  7  8  1  0  0  0  0
  7  9  1  0  0  0  0
  7 10  1  0  0  0  0
  7 28  1  0  0  0  0
  8 11  1  0  0  0  0
  8 12  1  0  0  0  0
  8 29  1  0  0  0  0
  9 30  1  0  0  0  0
  9 31  1  0  0  0  0
 10 14  1  0  0  0  0
 10 32  1  0  0  0  0
 10 33  1  0  0  0  0
 11 13  1  0  0  0  0
 11 34  1  0  0  0  0
 11 35  1  0  0  0  0
 13 15  2  0  0  0  0
 13 16  1  0  0  0  0
 14 17  2  0  0  0  0
 14 18  1  0  0  0  0
 15 19  1  0  0  0  0
 15 36  1  0  0  0  0
 16 20  2  0  0  0  0
 16 37  1  0  0  0  0
 17 22  1  0  0  0  0
 17 38  1  0  0  0  0
 18 23  2  0  0  0  0
 18 39  1  0  0  0  0
 19 21  2  0  0  0  0
 20 21  1  0  0  0  0
 20 40  1  0  0  0  0
 22 24  2  0  0  0  0
 23 24  1  0  0  0  0
 23 41  1  0  0  0  0
 25 42  1  0  0  0  0
 25 43  1  0  0  0  0
 26 44  1  0  0  0  0
 26 45  1  0  0  0  0
 26 46  1  0  0  0  0
 27 47  1  0  0  0  0
 27 48  1  0  0  0  0
 27 49  1  0  0  0  0
M  END
> <PUBCHEM_COMPOUND_CID>
92154432

> <PUBCHEM_CONFORMER_RMSD>
0.8

> <PUBCHEM_CONFORMER_DIVERSEORDER>
3
219
21
135
177
83
78
64
85
191
7
63
218
118
226
176
1
49
131
215
207
192
18
109
179
5
212
160
8
231
120
197
16
198
82
184
129
166
91
104
113
233
181
232
75
171
206
51
217
150
216
36
107
77
11
30
229
137
225
153
234
140
84
169
209
4
112
227
90
180
230
117
183
54
87
102
168
167
74
186
163
2
37
44
68
172
132
145
127
170
194
34
26
188
53
222
88
111
114
62
133
147
57
142
162
228
101
12
38
205
175
6
152
202
119
213
193
94
146
15
187
79
189
124
221
58
155
144
148
22
33
165
14
214
110
35
210
43
223
103
73
125
17
185
190
50
39
130
55
20
196
126
158
139
224
96
128
76
24
151
19
108
9
138
89
81
106
136
201
159
25
31
154
45
105
164
134
204
100
70
149
123
61
195
32
98
143
156
86
66
72
141
40
157
41
23
60
208
93
28
173
13
220
65
47
115
80
99
92
203
182
178
42
29
97
211
121
67
10
116
27
52
46
200
59
48
199
95
71
56
122
174
161
69

> <PUBCHEM_MMFF94_PARTIAL_CHARGES>
32
1 -0.43
10 0.14
11 0.14
12 0.66
13 -0.14
14 -0.14
15 -0.15
16 -0.15
17 -0.15
18 -0.15
19 0.08
2 -0.57
20 -0.15
21 0.08
22 0.08
23 -0.15
24 0.08
25 0.56
26 0.28
27 0.28
3 -0.36
36 0.15
37 0.15
38 0.15
39 0.15
4 -0.36
40 0.15
41 0.15
5 -0.36
6 -0.36
8 0.06
9 0.28

> <PUBCHEM_EFFECTIVE_ROTOR_COUNT>
7.4

> <PUBCHEM_PHARMACOPHORE_FEATURES>
9
1 2 acceptor
1 3 acceptor
1 4 acceptor
1 5 acceptor
1 6 acceptor
5 1 7 8 9 12 rings
5 3 4 19 21 25 rings
6 13 15 16 19 20 21 rings
6 14 17 18 22 23 24 rings

> <PUBCHEM_HEAVY_ATOM_COUNT>
27

> <PUBCHEM_ATOM_DEF_STEREO_COUNT>
2

> <PUBCHEM_ATOM_UDEF_STEREO_COUNT>
0

> <PUBCHEM_BOND_DEF_STEREO_COUNT>
0

> <PUBCHEM_BOND_UDEF_STEREO_COUNT>
0

> <PUBCHEM_ISOTOPIC_ATOM_COUNT>
0

> <PUBCHEM_COMPONENT_COUNT>
1

> <PUBCHEM_CACTVS_TAUTO_COUNT>
69

> <PUBCHEM_CONFORMER_ID>
057E2A4000000003

> <PUBCHEM_MMFF94_ENERGY>
85.6871

> <PUBCHEM_FEATURE_SELFOVERLAP>
45.834

> <PUBCHEM_SHAPE_FINGERPRINT>
11524674 6 17773289384446746128
11578080 2 17607217915168050047
12156800 1 15578693973082120754
12422481 6 18051940716159910058
12788726 201 17547571938580051879
133893 2 18268167369821549161
13402501 40 18341607054661091594
14251757 5 17401226949771698012
16752209 62 17908981346178893053
17093844 170 18411695470396597912
17492 54 18120951516010966782
20028762 73 17552081015066815127
20764821 26 18265905820047207366
20905425 154 18272369745938223335
23419403 2 17980460287916038236
23559900 14 18042411223338627935
3027735 51 18055064634800350359
3298306 158 18411979182834998613
35225 105 17909542101346023876
5265222 85 18267866267235218296
5283178 26 16904723773935230462
532947 4 18267571438940797013
6287921 2 17416392169839950259
90525 40 18191012607280839961

> <PUBCHEM_SHAPE_MULTIPOLES>
520.43
6.88
5.31
1.94
3.99
3.93
-0.01
-3.71
1.3
-3.97
-1.59
-1.74
-0.71
0.56

> <PUBCHEM_SHAPE_SELFOVERLAP>
1136.065

> <PUBCHEM_SHAPE_VOLUME>
284.5

> <PUBCHEM_COORDINATE_TYPE>
2
5
10

$$$$
