545932
  -OEChem-09162010343D

 31 30  0     1  0  0  0  0  0999 V2000
    0.2633    0.0989   -1.3765 O   0  0  0  0  0  0  0  0  0  0  0  0
   -0.6397   -0.8121    0.6717 C   0  0  2  0  0  0  0  0  0  0  0  0
    1.5841    0.5397    0.5953 C   0  0  1  0  0  0  0  0  0  0  0  0
   -2.0514   -0.7253    0.0673 C   0  0  0  0  0  0  0  0  0  0  0  0
    0.3887   -0.0432   -0.1593 C   0  0  0  0  0  0  0  0  0  0  0  0
    2.8399    0.6051   -0.2863 C   0  0  0  0  0  0  0  0  0  0  0  0
   -2.6240    0.6948   -0.0136 C   0  0  0  0  0  0  0  0  0  0  0  0
   -0.1869   -2.2687    0.7609 C   0  0  0  0  0  0  0  0  0  0  0  0
    1.2029    1.9300    1.0968 C   0  0  0  0  0  0  0  0  0  0  0  0
    3.2664   -0.7648   -0.7982 C   0  0  0  0  0  0  0  0  0  0  0  0
   -4.0434    0.7455   -0.5581 C   0  0  0  0  0  0  0  0  0  0  0  0
   -0.6671   -0.3776    1.6777 H   0  0  0  0  0  0  0  0  0  0  0  0
    1.7983   -0.1073    1.4541 H   0  0  0  0  0  0  0  0  0  0  0  0
   -2.0519   -1.1616   -0.9402 H   0  0  0  0  0  0  0  0  0  0  0  0
   -2.7313   -1.3404    0.6710 H   0  0  0  0  0  0  0  0  0  0  0  0
    3.6659    1.0373    0.2915 H   0  0  0  0  0  0  0  0  0  0  0  0
    2.6723    1.2667   -1.1451 H   0  0  0  0  0  0  0  0  0  0  0  0
   -1.9884    1.3231   -0.6471 H   0  0  0  0  0  0  0  0  0  0  0  0
   -2.6149    1.1435    0.9870 H   0  0  0  0  0  0  0  0  0  0  0  0
   -0.8800   -2.8562    1.3719 H   0  0  0  0  0  0  0  0  0  0  0  0
   -0.1311   -2.7291   -0.2320 H   0  0  0  0  0  0  0  0  0  0  0  0
    0.8075   -2.3461    1.2132 H   0  0  0  0  0  0  0  0  0  0  0  0
    2.0223    2.3762    1.6698 H   0  0  0  0  0  0  0  0  0  0  0  0
    0.9627    2.6007    0.2642 H   0  0  0  0  0  0  0  0  0  0  0  0
    0.3224    1.8876    1.7466 H   0  0  0  0  0  0  0  0  0  0  0  0
    2.5254   -1.2032   -1.4722 H   0  0  0  0  0  0  0  0  0  0  0  0
    3.4291   -1.4589    0.0326 H   0  0  0  0  0  0  0  0  0  0  0  0
    4.2062   -0.6790   -1.3533 H   0  0  0  0  0  0  0  0  0  0  0  0
   -4.7248    0.1672    0.0737 H   0  0  0  0  0  0  0  0  0  0  0  0
   -4.0861    0.3377   -1.5729 H   0  0  0  0  0  0  0  0  0  0  0  0
   -4.4022    1.7790   -0.5898 H   0  0  0  0  0  0  0  0  0  0  0  0
  1  5  2  0  0  0  0
  2  4  1  0  0  0  0
  2  5  1  0  0  0  0
  2  8  1  0  0  0  0
  2 12  1  0  0  0  0
  3  5  1  0  0  0  0
  3  6  1  0  0  0  0
  3  9  1  0  0  0  0
  3 13  1  0  0  0  0
  4  7  1  0  0  0  0
  4 14  1  0  0  0  0
  4 15  1  0  0  0  0
  6 10  1  0  0  0  0
  6 16  1  0  0  0  0
  6 17  1  0  0  0  0
  7 11  1  0  0  0  0
  7 18  1  0  0  0  0
  7 19  1  0  0  0  0
  8 20  1  0  0  0  0
  8 21  1  0  0  0  0
  8 22  1  0  0  0  0
  9 23  1  0  0  0  0
  9 24  1  0  0  0  0
  9 25  1  0  0  0  0
 10 26  1  0  0  0  0
 10 27  1  0  0  0  0
 10 28  1  0  0  0  0
 11 29  1  0  0  0  0
 11 30  1  0  0  0  0
 11 31  1  0  0  0  0
M  END
> <PUBCHEM_COMPOUND_CID>
545932

> <PUBCHEM_CONFORMER_RMSD>
0.6

> <PUBCHEM_CONFORMER_DIVERSEORDER>
1
309
188
183
95
206
331
291
351
160
44
191
226
241
145
318
17
193
283
282
340
306
161
107
72
355
238
64
257
80
159
65
311
250
67
341
347
325
82
186
172
279
251
246
198
260
112
178
36
124
197
93
126
118
352
297
9
336
249
304
174
4
253
39
123
11
225
181
23
176
255
314
185
40
258
339
121
167
147
252
96
302
348
271
49
232
240
296
164
192
196
208
307
179
223
234
237
274
239
268
277
106
278
190
102
315
356
219
298
140
100
34
189
217
248
156
69
280
150
329
59
83
114
303
132
300
218
152
286
87
305
245
330
201
353
74
62
53
342
216
103
328
247
54
48
157
135
115
285
137
42
243
104
343
259
326
158
91
229
194
324
57
221
98
269
345
312
332
203
31
289
13
86
55
117
214
45
97
233
265
262
317
220
70
266
321
154
33
354
210
92
134
215
28
146
35
169
284
177
275
323
205
276
211
18
195
270
129
346
16
175
350
333
288
155
344
180
61
75
313
94
292
58
327
125
90
319
263
224
166
26
88
310
273
349
293
287
122
153
301
120
41
209
109
200
12
60
204
338
254
308
84
320
136
281
334
119
261
199
213
6
294
187
222
133
322
43
202
212
165
168
149
141
52
108
256
335
228
162
73
235
207
290
236
128
138
295
242
337
110
151
142
8
30
170
184
264
99
29
173
76
299
130
7
131
77
2
113
89
171
81
27
10
116
37
267
24
79
66
163
85
101
32
50
227
14
38
46
5
143
20
231
19
47
105
139
15
148
182
244
22
111
230
21
78
56
63
25
68
3
144
71
316
127
51
272

> <PUBCHEM_MMFF94_PARTIAL_CHARGES>
4
1 -0.57
2 0.06
3 0.06
5 0.45

> <PUBCHEM_EFFECTIVE_ROTOR_COUNT>
5

> <PUBCHEM_PHARMACOPHORE_FEATURES>
5
1 1 acceptor
1 10 hydrophobe
1 11 hydrophobe
1 8 hydrophobe
1 9 hydrophobe

> <PUBCHEM_HEAVY_ATOM_COUNT>
11

> <PUBCHEM_ATOM_DEF_STEREO_COUNT>
0

> <PUBCHEM_ATOM_UDEF_STEREO_COUNT>
2

> <PUBCHEM_BOND_DEF_STEREO_COUNT>
0

> <PUBCHEM_BOND_UDEF_STEREO_COUNT>
0

> <PUBCHEM_ISOTOPIC_ATOM_COUNT>
0

> <PUBCHEM_COMPONENT_COUNT>
1

> <PUBCHEM_CACTVS_TAUTO_COUNT>
3

> <PUBCHEM_CONFORMER_ID>
0008548C00000001

> <PUBCHEM_MMFF94_ENERGY>
7.5282

> <PUBCHEM_FEATURE_SELFOVERLAP>
25.374

> <PUBCHEM_SHAPE_FINGERPRINT>
10219947 1 17240482477222269085
12138202 97 18340775951965111942
124424 183 18343024380455939590
12716758 59 18337674238379606483
12932764 1 17985839343522427070
14325111 11 18334013916968122299
14648413 74 18124314058707718728
14993402 34 17385725819946883543
15775835 57 18335419045900329841
16945 1 17917719001860221378
18186145 218 18341890801337651297
18511873 20 18411702062812480142
19973954 147 18125722528665377721
20201158 50 18271535221319308070
20653085 51 18201719604335761969
21130352 189 18202003252445020920
21947302 44 18059286681587548576
23235685 24 17749105582663851925
23402539 116 17704069547825378341
23559900 14 18412270545617364484
25 1 18410578340480495371
5084963 1 18200597028580632225
57812782 119 18060415832963631237
81228 2 17756425229202249947

> <PUBCHEM_SHAPE_MULTIPOLES>
220.51
5.35
1.76
1.07
2.68
0.42
-0.05
-1.35
-1.7
-0.19
0.7
-0.28
-0.06
0.65

> <PUBCHEM_SHAPE_SELFOVERLAP>
404.005

> <PUBCHEM_SHAPE_VOLUME>
141.7

> <PUBCHEM_COORDINATE_TYPE>
2
5
10

$$$$
