3084131
  -OEChem-09172002323D

 45 50  0     1  0  0  0  0  0999 V2000
   -1.1669    1.7029   -0.5905 O   0  0  0  0  0  0  0  0  0  0  0  0
    1.2000   -1.3468   -0.9944 O   0  0  0  0  0  0  0  0  0  0  0  0
   -1.1090   -0.5541    1.6053 O   0  0  0  0  0  0  0  0  0  0  0  0
   -5.9161    1.1130    1.2877 O   0  0  0  0  0  0  0  0  0  0  0  0
    5.8863   -1.4788    1.0418 O   0  0  0  0  0  0  0  0  0  0  0  0
   -6.9304   -0.6814    0.0391 O   0  0  0  0  0  0  0  0  0  0  0  0
    7.0326    0.4990    0.2790 O   0  0  0  0  0  0  0  0  0  0  0  0
   -0.5172   -0.4015    0.3283 C   0  0  2  0  0  0  0  0  0  0  0  0
    0.6640    0.5341    0.3837 C   0  0  1  0  0  0  0  0  0  0  0  0
   -1.4437    0.2896   -0.6856 C   0  0  1  0  0  0  0  0  0  0  0  0
    1.5348    0.0410   -0.7789 C   0  0  1  0  0  0  0  0  0  0  0  0
    0.1013   -1.6989   -0.1420 C   0  0  0  0  0  0  0  0  0  0  0  0
    0.0374    1.8981    0.1654 C   0  0  0  0  0  0  0  0  0  0  0  0
   -2.9167    0.0007   -0.5156 C   0  0  0  0  0  0  0  0  0  0  0  0
    3.0128    0.1971   -0.5120 C   0  0  0  0  0  0  0  0  0  0  0  0
   -3.6822    0.7744    0.3631 C   0  0  0  0  0  0  0  0  0  0  0  0
    3.7063   -0.8048    0.1743 C   0  0  0  0  0  0  0  0  0  0  0  0
   -3.5122   -1.0470   -1.2435 C   0  0  0  0  0  0  0  0  0  0  0  0
    3.6846    1.3513   -0.9564 C   0  0  0  0  0  0  0  0  0  0  0  0
   -5.0231    0.4726    0.4847 C   0  0  0  0  0  0  0  0  0  0  0  0
    5.0555   -0.6171    0.3943 C   0  0  0  0  0  0  0  0  0  0  0  0
   -4.8726   -1.3316   -1.1019 C   0  0  0  0  0  0  0  0  0  0  0  0
    5.0516    1.5165   -0.7206 C   0  0  0  0  0  0  0  0  0  0  0  0
   -5.6023   -0.5521   -0.2282 C   0  0  0  0  0  0  0  0  0  0  0  0
    5.7101    0.5123   -0.0412 C   0  0  0  0  0  0  0  0  0  0  0  0
   -7.1224    0.3768    0.9998 C   0  0  0  0  0  0  0  0  0  0  0  0
    7.1375   -0.7655    0.9644 C   0  0  0  0  0  0  0  0  0  0  0  0
    1.1983    0.5000    1.3407 H   0  0  0  0  0  0  0  0  0  0  0  0
   -1.1587    0.0234   -1.7123 H   0  0  0  0  0  0  0  0  0  0  0  0
    1.2874    0.5545   -1.7167 H   0  0  0  0  0  0  0  0  0  0  0  0
    0.4959   -2.2888    0.6933 H   0  0  0  0  0  0  0  0  0  0  0  0
   -0.5979   -2.3336   -0.6941 H   0  0  0  0  0  0  0  0  0  0  0  0
   -0.2524    2.3488    1.1207 H   0  0  0  0  0  0  0  0  0  0  0  0
    0.6911    2.5997   -0.3604 H   0  0  0  0  0  0  0  0  0  0  0  0
   -1.7453   -1.2877    1.5548 H   0  0  0  0  0  0  0  0  0  0  0  0
   -3.2480    1.5826    0.9417 H   0  0  0  0  0  0  0  0  0  0  0  0
    3.2141   -1.7005    0.5369 H   0  0  0  0  0  0  0  0  0  0  0  0
   -2.9154   -1.6483   -1.9250 H   0  0  0  0  0  0  0  0  0  0  0  0
    3.1428    2.1295   -1.4886 H   0  0  0  0  0  0  0  0  0  0  0  0
   -5.3325   -2.1384   -1.6611 H   0  0  0  0  0  0  0  0  0  0  0  0
    5.5707    2.4051   -1.0614 H   0  0  0  0  0  0  0  0  0  0  0  0
   -7.8737    1.0731    0.6095 H   0  0  0  0  0  0  0  0  0  0  0  0
   -7.4981   -0.0597    1.9324 H   0  0  0  0  0  0  0  0  0  0  0  0
    7.8663   -1.3914    0.4367 H   0  0  0  0  0  0  0  0  0  0  0  0
    7.5013   -0.5838    1.9823 H   0  0  0  0  0  0  0  0  0  0  0  0
  1 10  1  0  0  0  0
  1 13  1  0  0  0  0
  2 11  1  0  0  0  0
  2 12  1  0  0  0  0
  3  8  1  0  0  0  0
  3 35  1  0  0  0  0
  4 20  1  0  0  0  0
  4 26  1  0  0  0  0
  5 21  1  0  0  0  0
  5 27  1  0  0  0  0
  6 24  1  0  0  0  0
  6 26  1  0  0  0  0
  7 25  1  0  0  0  0
  7 27  1  0  0  0  0
  8  9  1  0  0  0  0
  8 10  1  0  0  0  0
  8 12  1  0  0  0  0
  9 11  1  0  0  0  0
  9 13  1  0  0  0  0
  9 28  1  0  0  0  0
 10 14  1  0  0  0  0
 10 29  1  0  0  0  0
 11 15  1  0  0  0  0
 11 30  1  0  0  0  0
 12 31  1  0  0  0  0
 12 32  1  0  0  0  0
 13 33  1  0  0  0  0
 13 34  1  0  0  0  0
 14 16  2  0  0  0  0
 14 18  1  0  0  0  0
 15 17  2  0  0  0  0
 15 19  1  0  0  0  0
 16 20  1  0  0  0  0
 16 36  1  0  0  0  0
 17 21  1  0  0  0  0
 17 37  1  0  0  0  0
 18 22  2  0  0  0  0
 18 38  1  0  0  0  0
 19 23  2  0  0  0  0
 19 39  1  0  0  0  0
 20 24  2  0  0  0  0
 21 25  2  0  0  0  0
 22 24  1  0  0  0  0
 22 40  1  0  0  0  0
 23 25  1  0  0  0  0
 23 41  1  0  0  0  0
 26 42  1  0  0  0  0
 26 43  1  0  0  0  0
 27 44  1  0  0  0  0
 27 45  1  0  0  0  0
M  END
> <PUBCHEM_COMPOUND_CID>
3084131

> <PUBCHEM_CONFORMER_RMSD>
0.8

> <PUBCHEM_CONFORMER_DIVERSEORDER>
1
8
10
13
6
12
9
15
14
4
5
11
2
16
7
3

> <PUBCHEM_MMFF94_PARTIAL_CHARGES>
33
1 -0.56
10 0.42
11 0.42
12 0.28
13 0.28
14 -0.14
15 -0.14
16 -0.15
17 -0.15
18 -0.15
19 -0.15
2 -0.56
20 0.08
21 0.08
22 -0.15
23 -0.15
24 0.08
25 0.08
26 0.56
27 0.56
3 -0.68
35 0.4
36 0.15
37 0.15
38 0.15
39 0.15
4 -0.36
40 0.15
41 0.15
5 -0.36
6 -0.36
7 -0.36
8 0.28

> <PUBCHEM_EFFECTIVE_ROTOR_COUNT>
4.4

> <PUBCHEM_PHARMACOPHORE_FEATURES>
14
1 1 acceptor
1 2 acceptor
1 3 acceptor
1 3 donor
1 4 acceptor
1 5 acceptor
1 6 acceptor
1 7 acceptor
5 1 8 9 10 13 rings
5 2 8 9 11 12 rings
5 4 6 20 24 26 rings
5 5 7 21 25 27 rings
6 14 16 18 20 22 24 rings
6 15 17 19 21 23 25 rings

> <PUBCHEM_HEAVY_ATOM_COUNT>
27

> <PUBCHEM_ATOM_DEF_STEREO_COUNT>
4

> <PUBCHEM_ATOM_UDEF_STEREO_COUNT>
0

> <PUBCHEM_BOND_DEF_STEREO_COUNT>
0

> <PUBCHEM_BOND_UDEF_STEREO_COUNT>
0

> <PUBCHEM_ISOTOPIC_ATOM_COUNT>
0

> <PUBCHEM_COMPONENT_COUNT>
1

> <PUBCHEM_CACTVS_TAUTO_COUNT>
1

> <PUBCHEM_CONFORMER_ID>
002F0F6300000001

> <PUBCHEM_MMFF94_ENERGY>
87.4361

> <PUBCHEM_FEATURE_SELFOVERLAP>
71.822

> <PUBCHEM_SHAPE_FINGERPRINT>
10 15 18131071545323161945
10076449 9 17095244692718469518
10299344 5 18412263947461109198
10906281 52 18340222858987813782
11135926 11 18272081669855677255
11315181 36 18201999954611263657
11719270 70 18059857242497533142
12011746 2 9151170948117731197
12166972 35 17675926504083177540
12236239 1 18343302569550625231
12516196 113 14620794907567693371
12616971 3 18409448102493088980
13533116 47 18113896036290720162
13668630 136 16153429432637842810
13685833 64 17095522881754820514
13782708 43 16225764125028124315
13862211 1 18407757044977436535
14251764 18 18411701006086988556
14849402 71 18270401727404585720
14856354 85 18201721790833020063
15048467 5 17275106111360782649
15183329 4 18411981377220161743
15419008 47 15936403455212810645
15716309 27 18407758131804641803
17349148 13 18260551108657868764
17492 89 18120650232819536610
18927931 339 13045949019285550945
19377110 9 18341332206043134051
20567600 75 15574705872693939126
21033648 29 16660909080241126709
21130935 74 18273213097491125462
21267235 1 18261393309396237030
21792934 111 18410000031529527009
22224240 67 17418369203368135047
22956985 138 12614402726618054288
23035841 295 18408603673621514507
23081809 10 18340486758900249148
23402539 116 18333726909910108421
23522609 53 18267329640535279221
23536379 177 18411136935110147225
23559900 14 17603867857957349528
23569917 315 18412833486080239486
24771293 8 17845360211010602128
3004659 81 18411987966501925116
3178227 256 18335150812487043915
34797466 226 16056605390798129944
397830 11 16082230664503194608
4073 2 18189056558967976650
4093350 32 16702028521982219238
4325135 7 18341894090870994095
4340502 62 17095242527385065234
5104073 3 18270118044829502379
59755656 520 17821728364597446035
6009941 240 14189569766984240484

> <PUBCHEM_SHAPE_MULTIPOLES>
514.56
19.15
1.54
1.13
1.25
0.13
0.07
-1.07
4.75
0.44
-0.15
-0.36
-0.09
-1.78

> <PUBCHEM_SHAPE_SELFOVERLAP>
1172.887

> <PUBCHEM_SHAPE_VOLUME>
270.3

> <PUBCHEM_COORDINATE_TYPE>
2
5
10

$$$$
