522020
  -OEChem-09162007003D

 41 40  0     1  0  0  0  0  0999 V2000
   -0.9236    1.8069   -0.4805 C   0  0  1  0  0  0  0  0  0  0  0  0
    0.4568    1.6879    0.1957 C   0  0  0  0  0  0  0  0  0  0  0  0
   -1.7026    0.4793   -0.6042 C   0  0  0  0  0  0  0  0  0  0  0  0
    1.3627    0.6264   -0.4374 C   0  0  0  0  0  0  0  0  0  0  0  0
   -2.1941   -0.1138    0.7227 C   0  0  0  0  0  0  0  0  0  0  0  0
    2.7103    0.5463    0.2882 C   0  0  0  0  0  0  0  0  0  0  0  0
   -3.0326   -1.3952    0.5430 C   0  0  0  0  0  0  0  0  0  0  0  0
    3.6554   -0.5240   -0.2889 C   0  0  0  0  0  0  0  0  0  0  0  0
   -1.7574    2.8751    0.2351 C   0  0  0  0  0  0  0  0  0  0  0  0
   -2.2762   -2.4892   -0.2120 C   0  0  0  0  0  0  0  0  0  0  0  0
   -4.3323   -1.0644   -0.1953 C   0  0  0  0  0  0  0  0  0  0  0  0
    3.0505   -1.9278   -0.2390 C   0  0  0  0  0  0  0  0  0  0  0  0
    4.9832   -0.5076    0.4725 C   0  0  0  0  0  0  0  0  0  0  0  0
   -0.7508    2.1630   -1.5056 H   0  0  0  0  0  0  0  0  0  0  0  0
    0.9608    2.6620    0.1505 H   0  0  0  0  0  0  0  0  0  0  0  0
    0.3241    1.4567    1.2603 H   0  0  0  0  0  0  0  0  0  0  0  0
   -1.1029   -0.2468   -1.1596 H   0  0  0  0  0  0  0  0  0  0  0  0
   -2.5693    0.6883   -1.2428 H   0  0  0  0  0  0  0  0  0  0  0  0
    1.5206    0.8522   -1.4981 H   0  0  0  0  0  0  0  0  0  0  0  0
    0.8720   -0.3477   -0.3717 H   0  0  0  0  0  0  0  0  0  0  0  0
   -2.7967    0.6173    1.2724 H   0  0  0  0  0  0  0  0  0  0  0  0
   -1.3290   -0.3478    1.3547 H   0  0  0  0  0  0  0  0  0  0  0  0
    3.2022    1.5258    0.2341 H   0  0  0  0  0  0  0  0  0  0  0  0
    2.5350    0.3413    1.3525 H   0  0  0  0  0  0  0  0  0  0  0  0
   -3.2865   -1.7721    1.5415 H   0  0  0  0  0  0  0  0  0  0  0  0
    3.8642   -0.2783   -1.3378 H   0  0  0  0  0  0  0  0  0  0  0  0
   -1.8643    2.6659    1.3041 H   0  0  0  0  0  0  0  0  0  0  0  0
   -1.2778    3.8558    0.1420 H   0  0  0  0  0  0  0  0  0  0  0  0
   -2.7571    2.9538   -0.2048 H   0  0  0  0  0  0  0  0  0  0  0  0
   -1.3001   -2.6758    0.2478 H   0  0  0  0  0  0  0  0  0  0  0  0
   -2.1192   -2.2379   -1.2656 H   0  0  0  0  0  0  0  0  0  0  0  0
   -2.8416   -3.4273   -0.1839 H   0  0  0  0  0  0  0  0  0  0  0  0
   -4.1662   -0.8113   -1.2468 H   0  0  0  0  0  0  0  0  0  0  0  0
   -4.8574   -0.2309    0.2830 H   0  0  0  0  0  0  0  0  0  0  0  0
   -5.0044   -1.9299   -0.1761 H   0  0  0  0  0  0  0  0  0  0  0  0
    3.7858   -2.6782   -0.5497 H   0  0  0  0  0  0  0  0  0  0  0  0
    2.7174   -2.1817    0.7729 H   0  0  0  0  0  0  0  0  0  0  0  0
    2.1964   -2.0213   -0.9163 H   0  0  0  0  0  0  0  0  0  0  0  0
    5.4496    0.4820    0.4199 H   0  0  0  0  0  0  0  0  0  0  0  0
    4.8395   -0.7595    1.5288 H   0  0  0  0  0  0  0  0  0  0  0  0
    5.6868   -1.2296    0.0445 H   0  0  0  0  0  0  0  0  0  0  0  0
  1  2  1  0  0  0  0
  1  3  1  0  0  0  0
  1  9  1  0  0  0  0
  1 14  1  0  0  0  0
  2  4  1  0  0  0  0
  2 15  1  0  0  0  0
  2 16  1  0  0  0  0
  3  5  1  0  0  0  0
  3 17  1  0  0  0  0
  3 18  1  0  0  0  0
  4  6  1  0  0  0  0
  4 19  1  0  0  0  0
  4 20  1  0  0  0  0
  5  7  1  0  0  0  0
  5 21  1  0  0  0  0
  5 22  1  0  0  0  0
  6  8  1  0  0  0  0
  6 23  1  0  0  0  0
  6 24  1  0  0  0  0
  7 10  1  0  0  0  0
  7 11  1  0  0  0  0
  7 25  1  0  0  0  0
  8 12  1  0  0  0  0
  8 13  1  0  0  0  0
  8 26  1  0  0  0  0
  9 27  1  0  0  0  0
  9 28  1  0  0  0  0
  9 29  1  0  0  0  0
 10 30  1  0  0  0  0
 10 31  1  0  0  0  0
 10 32  1  0  0  0  0
 11 33  1  0  0  0  0
 11 34  1  0  0  0  0
 11 35  1  0  0  0  0
 12 36  1  0  0  0  0
 12 37  1  0  0  0  0
 12 38  1  0  0  0  0
 13 39  1  0  0  0  0
 13 40  1  0  0  0  0
 13 41  1  0  0  0  0
M  END
> <PUBCHEM_COMPOUND_CID>
522020

> <PUBCHEM_CONFORMER_RMSD>
0.8

> <PUBCHEM_CONFORMER_DIVERSEORDER>
1
15
18
5
13
9
14
16
10
3
2
4
12
7
8
6
11
17

> <PUBCHEM_MMFF94_PARTIAL_CHARGES>
0

> <PUBCHEM_EFFECTIVE_ROTOR_COUNT>
7

> <PUBCHEM_PHARMACOPHORE_FEATURES>
3
1 9 hydrophobe
3 7 10 11 hydrophobe
3 8 12 13 hydrophobe

> <PUBCHEM_HEAVY_ATOM_COUNT>
13

> <PUBCHEM_ATOM_DEF_STEREO_COUNT>
0

> <PUBCHEM_ATOM_UDEF_STEREO_COUNT>
1

> <PUBCHEM_BOND_DEF_STEREO_COUNT>
0

> <PUBCHEM_BOND_UDEF_STEREO_COUNT>
0

> <PUBCHEM_ISOTOPIC_ATOM_COUNT>
0

> <PUBCHEM_COMPONENT_COUNT>
1

> <PUBCHEM_CACTVS_TAUTO_COUNT>
1

> <PUBCHEM_CONFORMER_ID>
0007F72400000001

> <PUBCHEM_MMFF94_ENERGY>
13.4181

> <PUBCHEM_FEATURE_SELFOVERLAP>
15.223

> <PUBCHEM_SHAPE_FINGERPRINT>
10616163 171 18410578344918186326
10618630 7 18336547208843376982
12500047 106 18192988215086065036
12553582 1 18338535130066502231
12757275 245 18409168779558776188
14123260 362 10375869714395016722
14178342 30 18264761065898346152
14251705 54 18411705365843161222
15352361 1 18410292553146058115
17834072 8 18113326523627108239
17834074 16 18411700950632293302
18186145 218 11314301716233744052
19107657 46 18411138009237359558
20281407 28 18411423942047160520
20281475 54 18337397161575994269
20374829 77 18261386775965158683
20621476 91 18195221499606727530
20645477 70 18045493377442723935
20671657 53 17022900193973560196
20711985 365 18408606963608914773
20871998 184 18272932687217294613
20871998 22 18265894838111314809
20871999 31 17894908507881987821
22485316 2 18338236080136376757
22959321 94 18335696152657982354
23402539 116 18272364270603987605
23557571 272 18271533005200299958
23559900 14 18410283744479552328
23598291 2 17749971967656689604
2871803 45 18334292063509001178
3086196 2 18411698764219931896
4416823 128 18410293635545979256
449060 23 18260268546785439288
58051976 378 18337117873196567076
81228 2 18260833687341454425
9709674 26 18127127477155919174

> <PUBCHEM_SHAPE_MULTIPOLES>
267.53
8.44
2.83
0.79
6.22
0.63
0.02
-5.11
0.71
-2.05
-0.05
-0.09
0.01
0.11

> <PUBCHEM_SHAPE_SELFOVERLAP>
482.054

> <PUBCHEM_SHAPE_VOLUME>
175.6

> <PUBCHEM_COORDINATE_TYPE>
2
5
10

$$$$
