5366047
  -OEChem-09162010363D

 50 49  0     1  0  0  0  0  0999 V2000
    1.3880    0.9875   -1.9122 O   0  0  0  0  0  0  0  0  0  0  0  0
    4.5753    0.1941    0.8220 O   0  0  0  0  0  0  0  0  0  0  0  0
    6.4613    0.2844   -0.5091 O   0  0  0  0  0  0  0  0  0  0  0  0
    1.2661   -0.1552   -1.0620 C   0  0  2  0  0  0  0  0  0  0  0  0
   -0.1576   -0.1370   -0.4546 C   0  0  0  0  0  0  0  0  0  0  0  0
    2.2890   -0.0284    0.0906 C   0  0  0  0  0  0  0  0  0  0  0  0
   -0.4851   -1.3221    0.4641 C   0  0  0  0  0  0  0  0  0  0  0  0
    1.5039   -1.4174   -1.8985 C   0  0  0  0  0  0  0  0  0  0  0  0
    3.7532    0.0711   -0.3342 C   0  0  0  0  0  0  0  0  0  0  0  0
   -1.8945   -1.2213    0.9772 C   0  0  0  0  0  0  0  0  0  0  0  0
   -3.0141   -1.7113    0.4099 C   0  0  0  0  0  0  0  0  0  0  0  0
   -4.3565   -1.5142    1.0890 C   0  0  0  0  0  0  0  0  0  0  0  0
   -5.1127   -0.2675    0.6088 C   0  0  0  0  0  0  0  0  0  0  0  0
   -3.0526   -2.4690   -0.8886 C   0  0  0  0  0  0  0  0  0  0  0  0
   -4.3848    1.0077    0.9380 C   0  0  0  0  0  0  0  0  0  0  0  0
    5.9180    0.2927    0.5872 C   0  0  0  0  0  0  0  0  0  0  0  0
   -3.9461    1.9569    0.0895 C   0  0  0  0  0  0  0  0  0  0  0  0
   -4.1811    1.8209   -1.3914 C   0  0  0  0  0  0  0  0  0  0  0  0
   -3.2228    3.2122    0.4870 C   0  0  0  0  0  0  0  0  0  0  0  0
    6.6530    0.4161    1.8874 C   0  0  0  0  0  0  0  0  0  0  0  0
   -0.8866   -0.0994   -1.2767 H   0  0  0  0  0  0  0  0  0  0  0  0
   -0.3054    0.8068    0.0893 H   0  0  0  0  0  0  0  0  0  0  0  0
    2.2068   -0.8755    0.7813 H   0  0  0  0  0  0  0  0  0  0  0  0
    2.0599    0.8668    0.6849 H   0  0  0  0  0  0  0  0  0  0  0  0
   -0.3389   -2.2763   -0.0507 H   0  0  0  0  0  0  0  0  0  0  0  0
    0.1783   -1.3399    1.3349 H   0  0  0  0  0  0  0  0  0  0  0  0
    1.5936   -2.3151   -1.2797 H   0  0  0  0  0  0  0  0  0  0  0  0
    0.6854   -1.5680   -2.6118 H   0  0  0  0  0  0  0  0  0  0  0  0
    2.4139   -1.3227   -2.5011 H   0  0  0  0  0  0  0  0  0  0  0  0
    4.0502   -0.8291   -0.8831 H   0  0  0  0  0  0  0  0  0  0  0  0
    3.8999    0.9473   -0.9759 H   0  0  0  0  0  0  0  0  0  0  0  0
   -1.9896   -0.6785    1.9169 H   0  0  0  0  0  0  0  0  0  0  0  0
    0.7431    0.8938   -2.6340 H   0  0  0  0  0  0  0  0  0  0  0  0
   -4.9797   -2.4022    0.9230 H   0  0  0  0  0  0  0  0  0  0  0  0
   -4.2192   -1.4578    2.1777 H   0  0  0  0  0  0  0  0  0  0  0  0
   -6.0794   -0.2351    1.1275 H   0  0  0  0  0  0  0  0  0  0  0  0
   -5.3546   -0.3665   -0.4523 H   0  0  0  0  0  0  0  0  0  0  0  0
   -2.0813   -2.5198   -1.3870 H   0  0  0  0  0  0  0  0  0  0  0  0
   -3.7458   -1.9880   -1.5864 H   0  0  0  0  0  0  0  0  0  0  0  0
   -3.3933   -3.4950   -0.7158 H   0  0  0  0  0  0  0  0  0  0  0  0
   -4.2035    1.1656    2.0007 H   0  0  0  0  0  0  0  0  0  0  0  0
   -5.0954    2.3493   -1.6794 H   0  0  0  0  0  0  0  0  0  0  0  0
   -3.3472    2.2652   -1.9474 H   0  0  0  0  0  0  0  0  0  0  0  0
   -4.2417    0.7863   -1.7362 H   0  0  0  0  0  0  0  0  0  0  0  0
   -2.2224    3.2342    0.0428 H   0  0  0  0  0  0  0  0  0  0  0  0
   -3.1073    3.2822    1.5735 H   0  0  0  0  0  0  0  0  0  0  0  0
   -3.7768    4.0948    0.1515 H   0  0  0  0  0  0  0  0  0  0  0  0
    6.3291    1.3184    2.4119 H   0  0  0  0  0  0  0  0  0  0  0  0
    7.7263    0.4932    1.6914 H   0  0  0  0  0  0  0  0  0  0  0  0
    6.4739   -0.4711    2.4999 H   0  0  0  0  0  0  0  0  0  0  0  0
  1  4  1  0  0  0  0
  1 33  1  0  0  0  0
  2  9  1  0  0  0  0
  2 16  1  0  0  0  0
  3 16  2  0  0  0  0
  4  5  1  0  0  0  0
  4  6  1  0  0  0  0
  4  8  1  0  0  0  0
  5  7  1  0  0  0  0
  5 21  1  0  0  0  0
  5 22  1  0  0  0  0
  6  9  1  0  0  0  0
  6 23  1  0  0  0  0
  6 24  1  0  0  0  0
  7 10  1  0  0  0  0
  7 25  1  0  0  0  0
  7 26  1  0  0  0  0
  8 27  1  0  0  0  0
  8 28  1  0  0  0  0
  8 29  1  0  0  0  0
  9 30  1  0  0  0  0
  9 31  1  0  0  0  0
 10 11  2  0  0  0  0
 10 32  1  0  0  0  0
 11 12  1  0  0  0  0
 11 14  1  0  0  0  0
 12 13  1  0  0  0  0
 12 34  1  0  0  0  0
 12 35  1  0  0  0  0
 13 15  1  0  0  0  0
 13 36  1  0  0  0  0
 13 37  1  0  0  0  0
 14 38  1  0  0  0  0
 14 39  1  0  0  0  0
 14 40  1  0  0  0  0
 15 17  2  0  0  0  0
 15 41  1  0  0  0  0
 16 20  1  0  0  0  0
 17 18  1  0  0  0  0
 17 19  1  0  0  0  0
 18 42  1  0  0  0  0
 18 43  1  0  0  0  0
 18 44  1  0  0  0  0
 19 45  1  0  0  0  0
 19 46  1  0  0  0  0
 19 47  1  0  0  0  0
 20 48  1  0  0  0  0
 20 49  1  0  0  0  0
 20 50  1  0  0  0  0
M  END
> <PUBCHEM_COMPOUND_CID>
5366047

> <PUBCHEM_CONFORMER_RMSD>
1.2

> <PUBCHEM_CONFORMER_DIVERSEORDER>
2
170
41
60
5
74
80
102
112
51
157
114
58
7
75
174
119
62
118
4
34
149
144
29
11
70
120
20
48
76
136
90
169
158
152
32
92
22
3
15
9
103
146
18
148
162
99
78
50
73
126
42
66
154
166
127
163
145
130
113
132
167
98
95
83
139
155
175
173
106
171
68
96
33
105
129
153
159
87
161
17
53
135
133
151
142
13
59
30
61
88
93
138
21
79
160
115
54
23
63
8
124
65
123
77
72
64
6
134
108
14
10
45
91
19
109
81
86
84
100
111
116
165
12
16
156
40
110
164
47
82
128
25
56
125
35
89
97
104
39
24
71
26
141
121
43
46
150
1
67
101
131
94
36
49
140
31
37
27
117
107
28
57
168
52
85
172
44
137
143
55
147
69
38
122

> <PUBCHEM_MMFF94_PARTIAL_CHARGES>
20
1 -0.68
10 -0.29
11 -0.28
12 0.14
13 0.14
14 0.14
15 -0.29
16 0.66
17 -0.28
18 0.14
19 0.14
2 -0.43
20 0.06
3 -0.57
32 0.15
33 0.4
4 0.28
41 0.15
7 0.14
9 0.28

> <PUBCHEM_EFFECTIVE_ROTOR_COUNT>
10

> <PUBCHEM_PHARMACOPHORE_FEATURES>
6
1 1 acceptor
1 1 donor
1 14 hydrophobe
1 3 acceptor
3 17 18 19 hydrophobe
4 11 12 13 15 hydrophobe

> <PUBCHEM_HEAVY_ATOM_COUNT>
20

> <PUBCHEM_ATOM_DEF_STEREO_COUNT>
0

> <PUBCHEM_ATOM_UDEF_STEREO_COUNT>
1

> <PUBCHEM_BOND_DEF_STEREO_COUNT>
1

> <PUBCHEM_BOND_UDEF_STEREO_COUNT>
0

> <PUBCHEM_ISOTOPIC_ATOM_COUNT>
0

> <PUBCHEM_COMPONENT_COUNT>
1

> <PUBCHEM_CACTVS_TAUTO_COUNT>
1

> <PUBCHEM_CONFORMER_ID>
0051E11F00000002

> <PUBCHEM_MMFF94_ENERGY>
28.5804

> <PUBCHEM_FEATURE_SELFOVERLAP>
30.453

> <PUBCHEM_SHAPE_FINGERPRINT>
10291535 26 18201718440600305881
12596602 18 17168710854812722913
12838862 33 18335411328424964793
12969540 114 16415472753552297738
13403585 85 18411980286414779472
13583140 156 17703784847048764070
13590594 115 16443062802996799476
14251764 38 18342460365103592825
14466204 15 18187365415452608624
15119646 57 16199318564711155361
15880784 105 13912902985356500115
17780758 139 17822292430930952547
17980427 23 18335987557419915780
1813 80 15647339594056643382
19489759 90 18411701006134682539
20567600 75 18202008698848342974
20645477 56 18201727258210479347
22849341 161 16226054392235478222
23402539 116 18411417357920474023
23557571 272 18342750614755699127
23559900 14 18196672721648005278
2838139 119 15698004033333813698

> <PUBCHEM_SHAPE_MULTIPOLES>
393.98
15.13
2.49
1.59
23.75
0.95
-0.35
4.57
5.95
-4.94
-0.18
0.83
-0.06
1

> <PUBCHEM_SHAPE_SELFOVERLAP>
747.706

> <PUBCHEM_SHAPE_VOLUME>
243.5

> <PUBCHEM_COORDINATE_TYPE>
2
5
10

$$$$
