10820487
  -OEChem-09162017233D

 18 17  0     0  0  0  0  0  0999 V2000
    0.1723   -1.3873    0.0560 O   0  0  0  0  0  0  0  0  0  0  0  0
    1.2264    0.7844    0.2484 C   0  0  0  0  0  0  0  0  0  0  0  0
    0.0466   -0.1669    0.1191 C   0  0  0  0  0  0  0  0  0  0  0  0
   -1.2930    0.4848    0.0369 C   0  0  0  0  0  0  0  0  0  0  0  0
    2.5150    0.0277    0.3312 C   0  0  0  0  0  0  0  0  0  0  0  0
   -2.4080   -0.2478   -0.0790 C   0  0  0  0  0  0  0  0  0  0  0  0
   -3.7754    0.3470   -0.1659 C   0  0  0  0  0  0  0  0  0  0  0  0
    3.5161    0.1580   -0.5466 C   0  0  0  0  0  0  0  0  0  0  0  0
    1.1015    1.3733    1.1637 H   0  0  0  0  0  0  0  0  0  0  0  0
    1.2204    1.4640   -0.6113 H   0  0  0  0  0  0  0  0  0  0  0  0
   -1.3273    1.5681    0.0765 H   0  0  0  0  0  0  0  0  0  0  0  0
    2.6472   -0.6502    1.1709 H   0  0  0  0  0  0  0  0  0  0  0  0
   -2.3570   -1.3325   -0.1159 H   0  0  0  0  0  0  0  0  0  0  0  0
   -4.2515    0.0504   -1.1055 H   0  0  0  0  0  0  0  0  0  0  0  0
   -3.7561    1.4407   -0.1236 H   0  0  0  0  0  0  0  0  0  0  0  0
   -4.3924   -0.0154    0.6619 H   0  0  0  0  0  0  0  0  0  0  0  0
    4.4309   -0.4115   -0.4245 H   0  0  0  0  0  0  0  0  0  0  0  0
    3.4426    0.8280   -1.3959 H   0  0  0  0  0  0  0  0  0  0  0  0
  1  3  2  0  0  0  0
  2  3  1  0  0  0  0
  2  5  1  0  0  0  0
  2  9  1  0  0  0  0
  2 10  1  0  0  0  0
  3  4  1  0  0  0  0
  4  6  2  0  0  0  0
  4 11  1  0  0  0  0
  5  8  2  0  0  0  0
  5 12  1  0  0  0  0
  6  7  1  0  0  0  0
  6 13  1  0  0  0  0
  7 14  1  0  0  0  0
  7 15  1  0  0  0  0
  7 16  1  0  0  0  0
  8 17  1  0  0  0  0
  8 18  1  0  0  0  0
M  END
> <PUBCHEM_COMPOUND_CID>
10820487

> <PUBCHEM_CONFORMER_RMSD>
0.6

> <PUBCHEM_CONFORMER_DIVERSEORDER>
1
10
7
5
13
11
12
8
3
6
9
4
2

> <PUBCHEM_MMFF94_PARTIAL_CHARGES>
13
1 -0.57
11 0.15
12 0.15
13 0.15
17 0.15
18 0.15
2 0.2
3 0.49
4 -0.14
5 -0.29
6 -0.29
7 0.14
8 -0.3

> <PUBCHEM_EFFECTIVE_ROTOR_COUNT>
3

> <PUBCHEM_PHARMACOPHORE_FEATURES>
3
1 1 acceptor
1 7 hydrophobe
1 8 hydrophobe

> <PUBCHEM_HEAVY_ATOM_COUNT>
8

> <PUBCHEM_ATOM_DEF_STEREO_COUNT>
0

> <PUBCHEM_ATOM_UDEF_STEREO_COUNT>
0

> <PUBCHEM_BOND_DEF_STEREO_COUNT>
1

> <PUBCHEM_BOND_UDEF_STEREO_COUNT>
0

> <PUBCHEM_ISOTOPIC_ATOM_COUNT>
0

> <PUBCHEM_COMPONENT_COUNT>
1

> <PUBCHEM_CACTVS_TAUTO_COUNT>
5

> <PUBCHEM_CONFORMER_ID>
00A51B8700000001

> <PUBCHEM_MMFF94_ENERGY>
5.6148

> <PUBCHEM_FEATURE_SELFOVERLAP>
15.223

> <PUBCHEM_SHAPE_FINGERPRINT>
10219947 1 17676206861966944237
11062470 55 12685090384626884549
12932764 1 17095790109839811041
14325111 11 18410572911430752169
14390081 3 18342451535029990561
177051 138 11599734956395450284
21293036 1 18410858776159561948
23235685 24 18334852822807191673
5460574 1 9943808893445343368

> <PUBCHEM_SHAPE_MULTIPOLES>
158.77
6.04
0.92
0.67
1.03
0.17
-0.02
-0.71
-0.91
-0.02
0.03
-0.16
-0.03
0.02

> <PUBCHEM_SHAPE_SELFOVERLAP>
292.448

> <PUBCHEM_SHAPE_VOLUME>
100.2

> <PUBCHEM_COORDINATE_TYPE>
2
5
10

$$$$
