443777
  -OEChem-09192011063D

 26 27  0     1  0  0  0  0  0999 V2000
   -1.8347    1.3878    1.3207 O   0  0  0  0  0  0  0  0  0  0  0  0
    0.2092   -2.6524    0.2324 O   0  0  0  0  0  0  0  0  0  0  0  0
    2.5788   -1.7223    0.0221 O   0  0  0  0  0  0  0  0  0  0  0  0
   -2.2052   -0.0654   -0.6169 C   0  0  1  0  0  0  0  0  0  0  0  0
   -1.4719    1.1540   -0.0366 C   0  0  2  0  0  0  0  0  0  0  0  0
   -1.7854   -1.3379    0.1214 C   0  0  0  0  0  0  0  0  0  0  0  0
    0.0203    0.9457   -0.0771 C   0  0  0  0  0  0  0  0  0  0  0  0
    0.5860   -0.3371   -0.0072 C   0  0  0  0  0  0  0  0  0  0  0  0
   -0.2849   -1.5353    0.1057 C   0  0  0  0  0  0  0  0  0  0  0  0
   -3.7251    0.0962   -0.5683 C   0  0  0  0  0  0  0  0  0  0  0  0
    0.8719    2.0581   -0.1564 C   0  0  0  0  0  0  0  0  0  0  0  0
    1.9765   -0.5004   -0.0337 C   0  0  0  0  0  0  0  0  0  0  0  0
    2.2569    1.8934   -0.1826 C   0  0  0  0  0  0  0  0  0  0  0  0
    2.8077    0.6157   -0.1232 C   0  0  0  0  0  0  0  0  0  0  0  0
   -1.9144   -0.1692   -1.6723 H   0  0  0  0  0  0  0  0  0  0  0  0
   -1.7458    2.0423   -0.6189 H   0  0  0  0  0  0  0  0  0  0  0  0
   -2.2415   -2.2064   -0.3686 H   0  0  0  0  0  0  0  0  0  0  0  0
   -2.1146   -1.3253    1.1667 H   0  0  0  0  0  0  0  0  0  0  0  0
   -4.0906    0.1680    0.4614 H   0  0  0  0  0  0  0  0  0  0  0  0
   -4.0346    1.0007   -1.1024 H   0  0  0  0  0  0  0  0  0  0  0  0
   -4.2203   -0.7583   -1.0419 H   0  0  0  0  0  0  0  0  0  0  0  0
    0.4585    3.0628   -0.2000 H   0  0  0  0  0  0  0  0  0  0  0  0
   -1.3085    2.1352    1.6524 H   0  0  0  0  0  0  0  0  0  0  0  0
    2.9053    2.7622   -0.2480 H   0  0  0  0  0  0  0  0  0  0  0  0
    3.8879    0.4971   -0.1447 H   0  0  0  0  0  0  0  0  0  0  0  0
    1.9218   -2.4319   -0.0367 H   0  0  0  0  0  0  0  0  0  0  0  0
  1  5  1  0  0  0  0
  1 23  1  0  0  0  0
  2  9  2  0  0  0  0
  3 12  1  0  0  0  0
  3 26  1  0  0  0  0
  4  5  1  0  0  0  0
  4  6  1  0  0  0  0
  4 10  1  0  0  0  0
  4 15  1  0  0  0  0
  5  7  1  0  0  0  0
  5 16  1  0  0  0  0
  6  9  1  0  0  0  0
  6 17  1  0  0  0  0
  6 18  1  0  0  0  0
  7  8  2  0  0  0  0
  7 11  1  0  0  0  0
  8  9  1  0  0  0  0
  8 12  1  0  0  0  0
 10 19  1  0  0  0  0
 10 20  1  0  0  0  0
 10 21  1  0  0  0  0
 11 13  2  0  0  0  0
 11 22  1  0  0  0  0
 12 14  2  0  0  0  0
 13 14  1  0  0  0  0
 13 24  1  0  0  0  0
 14 25  1  0  0  0  0
M  END
> <PUBCHEM_COMPOUND_CID>
443777

> <PUBCHEM_CONFORMER_RMSD>
0.4

> <PUBCHEM_CONFORMER_DIVERSEORDER>
1
2

> <PUBCHEM_MMFF94_PARTIAL_CHARGES>
17
1 -0.68
11 -0.15
12 0.08
13 -0.15
14 -0.15
2 -0.57
22 0.15
23 0.4
24 0.15
25 0.15
26 0.45
3 -0.53
5 0.42
6 0.06
7 -0.14
8 0.09
9 0.42

> <PUBCHEM_EFFECTIVE_ROTOR_COUNT>
0.6

> <PUBCHEM_PHARMACOPHORE_FEATURES>
6
1 1 acceptor
1 1 donor
1 2 acceptor
1 3 donor
6 4 5 6 7 8 9 rings
6 7 8 11 12 13 14 rings

> <PUBCHEM_HEAVY_ATOM_COUNT>
14

> <PUBCHEM_ATOM_DEF_STEREO_COUNT>
2

> <PUBCHEM_ATOM_UDEF_STEREO_COUNT>
0

> <PUBCHEM_BOND_DEF_STEREO_COUNT>
0

> <PUBCHEM_BOND_UDEF_STEREO_COUNT>
0

> <PUBCHEM_ISOTOPIC_ATOM_COUNT>
0

> <PUBCHEM_COMPONENT_COUNT>
1

> <PUBCHEM_CACTVS_TAUTO_COUNT>
9

> <PUBCHEM_CONFORMER_ID>
0006C58100000001

> <PUBCHEM_MMFF94_ENERGY>
36.9126

> <PUBCHEM_FEATURE_SELFOVERLAP>
30.468

> <PUBCHEM_SHAPE_FINGERPRINT>
10967382 1 18409728482189809214
11471102 20 18409440372068933653
11680986 33 18337111267109610602
12423570 1 10999179703443185817
13380535 76 18338510971234086814
13897977 150 18336823207931983621
14617773 55 17989495099710521849
15219459 52 18408042909642858228
15775835 57 18114461248816180588
16945 1 18266743665203258708
17844478 74 17680435738585976259
18186145 218 18411135848895073221
193761 8 18121217846785291726
20201158 50 18410288159415087278
20645476 183 17750807733869189278
20645477 70 18340196428476603239
21501502 16 18120085336786539694
2334 1 18410577283929038044
23402655 69 18340473544056110333
23419403 2 16039346464240406508
23463225 33 18336261228551630186
23552423 10 18410009897063455455
23559900 14 18197230342175136332
241688 4 17762333613388652786
25 1 18261664896804429037
2748010 2 18336551623980235911
2897 32 18265051508223276332
353137 74 18413102866575613545
5084963 1 18272364235379072744
528886 8 18337101358382564881
53812653 166 18268705176793826240
63268167 104 18409448080986765889
66348 1 18410014359682078022
7364860 26 18343298180674251892

> <PUBCHEM_SHAPE_MULTIPOLES>
270.51
4.36
2.36
0.75
1.3
0.74
0.1
-0.66
-0.61
-0.76
0.21
0.3
-0.18
-0.17

> <PUBCHEM_SHAPE_SELFOVERLAP>
583.191

> <PUBCHEM_SHAPE_VOLUME>
148.1

> <PUBCHEM_COORDINATE_TYPE>
2
5
10

$$$$
