633024
  -OEChem-09192011273D

 42 45  0     0  0  0  0  0  0999 V2000
   -4.4870   -1.8952   -1.3262 O   0  0  0  0  0  0  0  0  0  0  0  0
    4.4870    1.8952   -1.3261 O   0  0  0  0  0  0  0  0  0  0  0  0
   -0.2925    1.8659    0.8060 O   0  0  0  0  0  0  0  0  0  0  0  0
    0.2926   -1.8660    0.8059 O   0  0  0  0  0  0  0  0  0  0  0  0
   -5.2113   -0.1993    0.5118 O   0  0  0  0  0  0  0  0  0  0  0  0
    5.2113    0.1992    0.5118 O   0  0  0  0  0  0  0  0  0  0  0  0
   -0.6836   -0.2450   -1.0506 C   0  0  0  0  0  0  0  0  0  0  0  0
    0.6836    0.2450   -1.0507 C   0  0  0  0  0  0  0  0  0  0  0  0
   -1.7025    0.2597   -0.2338 C   0  0  0  0  0  0  0  0  0  0  0  0
    1.7025   -0.2597   -0.2338 C   0  0  0  0  0  0  0  0  0  0  0  0
   -2.9865   -0.2816   -0.3120 C   0  0  0  0  0  0  0  0  0  0  0  0
    2.9865    0.2817   -0.3121 C   0  0  0  0  0  0  0  0  0  0  0  0
   -0.9532   -1.2861   -1.9398 C   0  0  0  0  0  0  0  0  0  0  0  0
    0.9532    1.2862   -1.9397 C   0  0  0  0  0  0  0  0  0  0  0  0
   -1.4054    1.3621    0.7029 C   0  0  0  0  0  0  0  0  0  0  0  0
    1.4054   -1.3621    0.7029 C   0  0  0  0  0  0  0  0  0  0  0  0
   -3.2543   -1.3259   -1.2048 C   0  0  0  0  0  0  0  0  0  0  0  0
    3.2543    1.3260   -1.2047 C   0  0  0  0  0  0  0  0  0  0  0  0
   -2.5138    1.8730    1.5547 C   0  0  0  0  0  0  0  0  0  0  0  0
    2.5139   -1.8731    1.5546 C   0  0  0  0  0  0  0  0  0  0  0  0
   -4.0684    0.2403    0.5411 C   0  0  0  0  0  0  0  0  0  0  0  0
    4.0684   -0.2403    0.5410 C   0  0  0  0  0  0  0  0  0  0  0  0
   -2.2359   -1.8254   -2.0167 C   0  0  0  0  0  0  0  0  0  0  0  0
    2.2358    1.8255   -2.0166 C   0  0  0  0  0  0  0  0  0  0  0  0
   -3.7391    1.3429    1.4672 C   0  0  0  0  0  0  0  0  0  0  0  0
    3.7392   -1.3430    1.4671 C   0  0  0  0  0  0  0  0  0  0  0  0
   -2.1940    2.9914    2.5005 C   0  0  0  0  0  0  0  0  0  0  0  0
    2.1940   -2.9915    2.5004 C   0  0  0  0  0  0  0  0  0  0  0  0
   -0.1767   -1.6944   -2.5833 H   0  0  0  0  0  0  0  0  0  0  0  0
    0.1766    1.6947   -2.5832 H   0  0  0  0  0  0  0  0  0  0  0  0
   -2.4348   -2.6364   -2.7123 H   0  0  0  0  0  0  0  0  0  0  0  0
    2.4348    2.6365   -2.7122 H   0  0  0  0  0  0  0  0  0  0  0  0
   -4.5523    1.7105    2.0858 H   0  0  0  0  0  0  0  0  0  0  0  0
    4.5523   -1.7105    2.0856 H   0  0  0  0  0  0  0  0  0  0  0  0
   -3.0686    3.2991    3.0837 H   0  0  0  0  0  0  0  0  0  0  0  0
   -1.8383    3.8684    1.9497 H   0  0  0  0  0  0  0  0  0  0  0  0
   -1.4163    2.6840    3.2075 H   0  0  0  0  0  0  0  0  0  0  0  0
    1.8383   -3.8685    1.9495 H   0  0  0  0  0  0  0  0  0  0  0  0
    1.4164   -2.6841    3.2073 H   0  0  0  0  0  0  0  0  0  0  0  0
    3.0685   -3.2993    3.0835 H   0  0  0  0  0  0  0  0  0  0  0  0
   -5.1183   -1.4786   -0.7206 H   0  0  0  0  0  0  0  0  0  0  0  0
    5.1183    1.4786   -0.7204 H   0  0  0  0  0  0  0  0  0  0  0  0
  1 17  1  0  0  0  0
  1 41  1  0  0  0  0
  2 18  1  0  0  0  0
  2 42  1  0  0  0  0
  3 15  2  0  0  0  0
  4 16  2  0  0  0  0
  5 21  2  0  0  0  0
  6 22  2  0  0  0  0
  7  8  1  0  0  0  0
  7  9  2  0  0  0  0
  7 13  1  0  0  0  0
  8 10  2  0  0  0  0
  8 14  1  0  0  0  0
  9 11  1  0  0  0  0
  9 15  1  0  0  0  0
 10 12  1  0  0  0  0
 10 16  1  0  0  0  0
 11 17  2  0  0  0  0
 11 21  1  0  0  0  0
 12 18  2  0  0  0  0
 12 22  1  0  0  0  0
 13 23  2  0  0  0  0
 13 29  1  0  0  0  0
 14 24  2  0  0  0  0
 14 30  1  0  0  0  0
 15 19  1  0  0  0  0
 16 20  1  0  0  0  0
 17 23  1  0  0  0  0
 18 24  1  0  0  0  0
 19 25  2  0  0  0  0
 19 27  1  0  0  0  0
 20 26  2  0  0  0  0
 20 28  1  0  0  0  0
 21 25  1  0  0  0  0
 22 26  1  0  0  0  0
 23 31  1  0  0  0  0
 24 32  1  0  0  0  0
 25 33  1  0  0  0  0
 26 34  1  0  0  0  0
 27 35  1  0  0  0  0
 27 36  1  0  0  0  0
 27 37  1  0  0  0  0
 28 38  1  0  0  0  0
 28 39  1  0  0  0  0
 28 40  1  0  0  0  0
M  END
> <PUBCHEM_COMPOUND_CID>
633024

> <PUBCHEM_CONFORMER_RMSD>
0.6

> <PUBCHEM_CONFORMER_DIVERSEORDER>
1
2

> <PUBCHEM_MMFF94_PARTIAL_CHARGES>
34
1 -0.53
10 0.09
11 0.09
12 0.09
13 -0.15
14 -0.15
15 0.47
16 0.47
17 0.08
18 0.08
19 -0.12
2 -0.53
20 -0.12
21 0.47
22 0.47
23 -0.15
24 -0.15
25 -0.14
26 -0.14
27 0.14
28 0.14
29 0.15
3 -0.57
30 0.15
31 0.15
32 0.15
33 0.15
34 0.15
4 -0.57
41 0.45
42 0.45
5 -0.57
6 -0.57
9 0.09

> <PUBCHEM_EFFECTIVE_ROTOR_COUNT>
1

> <PUBCHEM_PHARMACOPHORE_FEATURES>
10
1 1 donor
1 2 donor
1 3 acceptor
1 4 acceptor
1 5 acceptor
1 6 acceptor
6 10 12 16 20 22 26 rings
6 7 9 11 13 17 23 rings
6 8 10 12 14 18 24 rings
6 9 11 15 19 21 25 rings

> <PUBCHEM_HEAVY_ATOM_COUNT>
28

> <PUBCHEM_ATOM_DEF_STEREO_COUNT>
0

> <PUBCHEM_ATOM_UDEF_STEREO_COUNT>
0

> <PUBCHEM_BOND_DEF_STEREO_COUNT>
0

> <PUBCHEM_BOND_UDEF_STEREO_COUNT>
0

> <PUBCHEM_ISOTOPIC_ATOM_COUNT>
0

> <PUBCHEM_COMPONENT_COUNT>
1

> <PUBCHEM_CACTVS_TAUTO_COUNT>
147

> <PUBCHEM_CONFORMER_ID>
0009A8C000000001

> <PUBCHEM_MMFF94_ENERGY>
95.3434

> <PUBCHEM_FEATURE_SELFOVERLAP>
50.791

> <PUBCHEM_SHAPE_FINGERPRINT>
10319926 262 17346308260015462066
11578080 2 18050246449829498637
11595378 159 18272930496894723745
11640471 11 18339936917324418456
11725454 13 15553300528552355191
12236239 1 18410574006626287973
12553582 1 17773874375882576535
12596602 18 18411136952305867002
12788726 201 18272092746829390995
13009979 54 18340193099275932138
13583140 156 18187659019834032409
13726171 33 17560817540528076408
13911987 19 17168718551953001236
13947920 75 18130235942720248756
13965767 371 17836950904867013289
14081887 123 17489586740752920385
14739800 52 17916576696054781368
14787075 74 17617669086163302175
17138139 8 17832695047543236758
17349148 13 18113894970479265906
1813 80 18044661889054821222
20511986 3 18410003325974969881
20600515 1 17345460660745470799
20645477 70 17095522907224060812
20691752 17 18192418886657913745
20715895 44 17760649162467287733
20739085 24 18116155459286506466
21033648 29 15697997470465984007
21133410 230 16533983945022768968
21427221 339 18194971738098609904
21756936 100 18048070572780192524
23557571 272 16916788525810612277
23559900 14 17202787924366868516
238918 7 16100785571946937096
392239 28 18125706023274728562
4340502 62 17896339041904128979
474 4 18114471149132587540
5265222 85 17203328970857011606
57527573 199 15404974039486616642
6034566 193 16592551489418923884
6287921 2 18197777709037751798
7097593 13 18052533266463679058
77492 1 18410573998036353428
7808743 9 17703797976573981816
9849439 229 17341828729274536745

> <PUBCHEM_SHAPE_MULTIPOLES>
541.01
8.69
2.74
2.43
0
0
-0.26
0
-1.43
0
-1.1
0
0
-4.34

> <PUBCHEM_SHAPE_SELFOVERLAP>
1233.743

> <PUBCHEM_SHAPE_VOLUME>
277.4

> <PUBCHEM_COORDINATE_TYPE>
2
5
10

$$$$
