68229
  -OEChem-09192011353D

 29 31  0     0  0  0  0  0  0999 V2000
   -2.5391   -0.8760   -0.0026 O   0  0  0  0  0  0  0  0  0  0  0  0
    1.8580    1.1976   -0.0009 O   0  0  0  0  0  0  0  0  0  0  0  0
    3.9569    2.1150    0.0003 O   0  0  0  0  0  0  0  0  0  0  0  0
   -3.2119    0.4002    0.0009 C   0  0  0  0  0  0  0  0  0  0  0  0
   -0.3634    0.2253   -0.0015 C   0  0  0  0  0  0  0  0  0  0  0  0
   -1.1728   -0.9131   -0.0014 C   0  0  0  0  0  0  0  0  0  0  0  0
   -2.3175    1.6157   -0.0013 C   0  0  0  0  0  0  0  0  0  0  0  0
   -4.0905    0.4212    1.2572 C   0  0  0  0  0  0  0  0  0  0  0  0
   -4.0989    0.4230   -1.2495 C   0  0  0  0  0  0  0  0  0  0  0  0
   -0.9852    1.5407   -0.0024 C   0  0  0  0  0  0  0  0  0  0  0  0
    1.0284    0.0507   -0.0006 C   0  0  0  0  0  0  0  0  0  0  0  0
    1.6125   -1.2166    0.0001 C   0  0  0  0  0  0  0  0  0  0  0  0
   -0.5993   -2.1897   -0.0011 C   0  0  0  0  0  0  0  0  0  0  0  0
    0.7882   -2.3420   -0.0003 C   0  0  0  0  0  0  0  0  0  0  0  0
    3.0618   -1.3309    0.0012 C   0  0  0  0  0  0  0  0  0  0  0  0
    3.8268   -0.2372    0.0014 C   0  0  0  0  0  0  0  0  0  0  0  0
    3.2461    1.1162    0.0005 C   0  0  0  0  0  0  0  0  0  0  0  0
   -2.7866    2.5967   -0.0014 H   0  0  0  0  0  0  0  0  0  0  0  0
   -4.7019    1.3285    1.3161 H   0  0  0  0  0  0  0  0  0  0  0  0
   -3.4766    0.3606    2.1640 H   0  0  0  0  0  0  0  0  0  0  0  0
   -4.7597   -0.4469    1.2803 H   0  0  0  0  0  0  0  0  0  0  0  0
   -4.7108    1.3302   -1.3029 H   0  0  0  0  0  0  0  0  0  0  0  0
   -4.7682   -0.4451   -1.2695 H   0  0  0  0  0  0  0  0  0  0  0  0
   -3.4910    0.3639   -2.1604 H   0  0  0  0  0  0  0  0  0  0  0  0
   -0.3766    2.4366   -0.0037 H   0  0  0  0  0  0  0  0  0  0  0  0
   -1.2314   -3.0744   -0.0015 H   0  0  0  0  0  0  0  0  0  0  0  0
    1.2108   -3.3437    0.0001 H   0  0  0  0  0  0  0  0  0  0  0  0
    3.5107   -2.3182    0.0018 H   0  0  0  0  0  0  0  0  0  0  0  0
    4.9083   -0.3182    0.0023 H   0  0  0  0  0  0  0  0  0  0  0  0
  1  4  1  0  0  0  0
  1  6  1  0  0  0  0
  2 11  1  0  0  0  0
  2 17  1  0  0  0  0
  3 17  2  0  0  0  0
  4  7  1  0  0  0  0
  4  8  1  0  0  0  0
  4  9  1  0  0  0  0
  5  6  2  0  0  0  0
  5 10  1  0  0  0  0
  5 11  1  0  0  0  0
  6 13  1  0  0  0  0
  7 10  2  0  0  0  0
  7 18  1  0  0  0  0
  8 19  1  0  0  0  0
  8 20  1  0  0  0  0
  8 21  1  0  0  0  0
  9 22  1  0  0  0  0
  9 23  1  0  0  0  0
  9 24  1  0  0  0  0
 10 25  1  0  0  0  0
 11 12  2  0  0  0  0
 12 14  1  0  0  0  0
 12 15  1  0  0  0  0
 13 14  2  0  0  0  0
 13 26  1  0  0  0  0
 14 27  1  0  0  0  0
 15 16  2  0  0  0  0
 15 28  1  0  0  0  0
 16 17  1  0  0  0  0
 16 29  1  0  0  0  0
M  END
> <PUBCHEM_COMPOUND_CID>
68229

> <PUBCHEM_CONFORMER_RMSD>
0.4

> <PUBCHEM_CONFORMER_DIVERSEORDER>
1

> <PUBCHEM_MMFF94_PARTIAL_CHARGES>
21
1 -0.36
10 -0.18
11 0.08
12 0.03
13 -0.15
14 -0.15
15 -0.18
16 -0.14
17 0.71
18 0.15
2 -0.23
25 0.15
26 0.15
27 0.15
28 0.15
29 0.15
3 -0.57
4 0.42
5 0.03
6 0.08
7 -0.29

> <PUBCHEM_EFFECTIVE_ROTOR_COUNT>
0.4

> <PUBCHEM_PHARMACOPHORE_FEATURES>
6
1 1 acceptor
1 3 acceptor
3 4 8 9 hydrophobe
6 1 4 5 6 7 10 rings
6 2 11 12 15 16 17 rings
6 5 6 11 12 13 14 rings

> <PUBCHEM_HEAVY_ATOM_COUNT>
17

> <PUBCHEM_ATOM_DEF_STEREO_COUNT>
0

> <PUBCHEM_ATOM_UDEF_STEREO_COUNT>
0

> <PUBCHEM_BOND_DEF_STEREO_COUNT>
0

> <PUBCHEM_BOND_UDEF_STEREO_COUNT>
0

> <PUBCHEM_ISOTOPIC_ATOM_COUNT>
0

> <PUBCHEM_COMPONENT_COUNT>
1

> <PUBCHEM_CACTVS_TAUTO_COUNT>
1

> <PUBCHEM_CONFORMER_ID>
00010A8500000001

> <PUBCHEM_MMFF94_ENERGY>
58.3721

> <PUBCHEM_FEATURE_SELFOVERLAP>
30.501

> <PUBCHEM_SHAPE_FINGERPRINT>
10608611 8 18336263435980340500
10967382 1 18410575071973388326
11132069 177 18411409622636563408
11471102 20 18410569552866664038
11543360 7 15841546431069039476
12236239 1 17846498107034707041
12390115 104 17981062009125133864
12403260 363 18338504240867346656
13140716 1 18409733984143636218
13221675 6 18411136900755988911
13380535 76 18411134736282440766
13583140 156 16878211035126857377
13897977 150 18411135857083924903
14144814 61 18410293566763095208
14250199 8 18269553836698745319
14251717 144 18340198609591865511
14897335 6 18411414042421654982
15196674 1 18410575106148497383
15219456 202 18261394416822592057
15309172 13 18410579470120249811
15442244 35 18051693248449223138
15536298 74 18343021077789651790
15775835 57 18343588455442892136
16945 1 18338797788965822119
18186145 218 18342181042089230100
200 152 18201707419724669837
204376 136 18409169947462774609
20510252 161 18197221553574282914
20645477 70 18338790101238002839
21267235 1 18411427176173482070
21501502 16 18340762745278267094
21524375 3 18341889697304430142
22854114 111 18336266756100531186
231179 274 17821999883275078631
2334 1 18266458904471233958
23402539 116 18271515433940582932
23402655 69 18270672070268390717
23463225 33 18335700499212248018
23493267 7 17603581890212680529
23559900 14 18200599215605631236
25 1 18411702062791582510
2748010 2 18338243780991925318
335352 9 18050568439200186974
5104073 3 18410012147621031675
58051976 378 18341890758182081206
6333272 397 18409167710027478090
633830 44 18202010888833270997
69090 78 18413665820465273590
7364860 26 18269557130991733526
81228 2 17833817644656638643
9709674 26 18340772550319624758

> <PUBCHEM_SHAPE_MULTIPOLES>
332.24
7.37
2.2
0.79
0.72
0.38
0
-2.62
0
-1.26
0
0.81
-0.04
0

> <PUBCHEM_SHAPE_SELFOVERLAP>
734.393

> <PUBCHEM_SHAPE_VOLUME>
178.6

> <PUBCHEM_COORDINATE_TYPE>
2
5
10

$$$$
