85823872
  -OEChem-09192012013D

 22 24  0     0  0  0  0  0  0999 V2000
    2.4250    1.1510    0.0001 O   0  0  0  0  0  0  0  0  0  0  0  0
    4.4975    0.1356   -0.0003 O   0  0  0  0  0  0  0  0  0  0  0  0
    1.1190   -0.7628    0.0002 C   0  0  0  0  0  0  0  0  0  0  0  0
    1.1489    0.6157    0.0002 C   0  0  0  0  0  0  0  0  0  0  0  0
    2.5050   -1.2576   -0.0003 C   0  0  0  0  0  0  0  0  0  0  0  0
   -1.2804   -0.7196    0.0002 C   0  0  0  0  0  0  0  0  0  0  0  0
   -1.2438    0.7056    0.0001 C   0  0  0  0  0  0  0  0  0  0  0  0
   -0.0794   -1.4510    0.0003 C   0  0  0  0  0  0  0  0  0  0  0  0
   -0.0073    1.3729    0.0002 C   0  0  0  0  0  0  0  0  0  0  0  0
    3.2773    0.0483   -0.0001 C   0  0  0  0  0  0  0  0  0  0  0  0
   -2.5234   -1.3712    0.0001 C   0  0  0  0  0  0  0  0  0  0  0  0
   -2.4511    1.4209    0.0000 C   0  0  0  0  0  0  0  0  0  0  0  0
   -3.7117   -0.6396   -0.0003 C   0  0  0  0  0  0  0  0  0  0  0  0
   -3.6755    0.7518   -0.0003 C   0  0  0  0  0  0  0  0  0  0  0  0
    2.7313   -1.8213    0.9077 H   0  0  0  0  0  0  0  0  0  0  0  0
    2.7308   -1.8207   -0.9088 H   0  0  0  0  0  0  0  0  0  0  0  0
   -0.0825   -2.5375    0.0003 H   0  0  0  0  0  0  0  0  0  0  0  0
    0.0490    2.4576    0.0002 H   0  0  0  0  0  0  0  0  0  0  0  0
   -2.5784   -2.4580    0.0001 H   0  0  0  0  0  0  0  0  0  0  0  0
   -2.4497    2.5090    0.0000 H   0  0  0  0  0  0  0  0  0  0  0  0
   -4.6665   -1.1575   -0.0005 H   0  0  0  0  0  0  0  0  0  0  0  0
   -4.6022    1.3185   -0.0005 H   0  0  0  0  0  0  0  0  0  0  0  0
  1  4  1  0  0  0  0
  1 10  1  0  0  0  0
  2 10  2  0  0  0  0
  3  4  1  0  0  0  0
  3  5  1  0  0  0  0
  3  8  2  0  0  0  0
  4  9  2  0  0  0  0
  5 10  1  0  0  0  0
  5 15  1  0  0  0  0
  5 16  1  0  0  0  0
  6  7  1  0  0  0  0
  6  8  1  0  0  0  0
  6 11  2  0  0  0  0
  7  9  1  0  0  0  0
  7 12  2  0  0  0  0
  8 17  1  0  0  0  0
  9 18  1  0  0  0  0
 11 13  1  0  0  0  0
 11 19  1  0  0  0  0
 12 14  1  0  0  0  0
 12 20  1  0  0  0  0
 13 14  2  0  0  0  0
 13 21  1  0  0  0  0
 14 22  1  0  0  0  0
M  END
> <PUBCHEM_COMPOUND_CID>
85823872

> <PUBCHEM_CONFORMER_RMSD>
0.4

> <PUBCHEM_CONFORMER_DIVERSEORDER>
1

> <PUBCHEM_MMFF94_PARTIAL_CHARGES>
18
1 -0.23
10 0.66
11 -0.15
12 -0.15
13 -0.15
14 -0.15
17 0.15
18 0.15
19 0.15
2 -0.57
20 0.15
21 0.15
22 0.15
3 -0.14
4 0.08
5 0.2
8 -0.15
9 -0.15

> <PUBCHEM_EFFECTIVE_ROTOR_COUNT>
0.4

> <PUBCHEM_PHARMACOPHORE_FEATURES>
4
1 2 acceptor
5 1 3 4 5 10 rings
6 3 4 6 7 8 9 rings
6 6 7 11 12 13 14 rings

> <PUBCHEM_HEAVY_ATOM_COUNT>
14

> <PUBCHEM_ATOM_DEF_STEREO_COUNT>
0

> <PUBCHEM_ATOM_UDEF_STEREO_COUNT>
0

> <PUBCHEM_BOND_DEF_STEREO_COUNT>
0

> <PUBCHEM_BOND_UDEF_STEREO_COUNT>
0

> <PUBCHEM_ISOTOPIC_ATOM_COUNT>
0

> <PUBCHEM_COMPONENT_COUNT>
1

> <PUBCHEM_CACTVS_TAUTO_COUNT>
2

> <PUBCHEM_CONFORMER_ID>
051D918000000001

> <PUBCHEM_MMFF94_ENERGY>
37.174

> <PUBCHEM_FEATURE_SELFOVERLAP>
20.425

> <PUBCHEM_SHAPE_FINGERPRINT>
10608611 8 18411696590866279281
10967382 1 18410856533959864455
11132069 177 18411976957698846344
11401426 45 18412819200796115372
11471102 20 18411132506998923679
12032990 46 18411425011451780231
13221675 6 18410575084684340351
13380535 76 18410575076110509335
14144814 61 18410573963761088819
14325111 11 18410855442969463073
15196674 1 18410575058893307623
15219456 202 18201444627291421782
15309172 13 18343591745709945091
15442244 35 18122624959638929818
15536298 74 18342456993986281606
15775835 57 18335704909885107233
16945 1 18338799043074868231
18186145 218 18338801108795875748
18522853 276 18413107268595241225
193761 8 17689999354858529351
200 152 18060410327290233757
20201158 50 18412263926012737415
20510252 161 18201159853980294513
20645477 70 18200029525899113103
21267235 1 18410302423054594951
21501502 16 18338514119202619139
23402539 116 18342729728271690758
23402655 69 18269824338619720285
23463225 33 18335983094969668614
23559900 14 18342737369873221238
2748010 2 18411139108532495175
3312278 4 18411702080029240307
335352 9 17978510836524825687
474 4 16807022154629170868
5104073 3 18410292484441912938
528886 8 18411132528489597403
53812653 166 18342734122213203528
54173680 148 18120095241055516475
6333449 129 18412542107034167333
69090 78 18272646857476132927
7364860 26 18196935684888628840
8809292 202 18188494691309416587
9709674 26 18411987965800843974

> <PUBCHEM_SHAPE_MULTIPOLES>
276.37
6.62
1.6
0.6
2.02
0.05
0
-0.2
0
-0.45
0
-0.05
0.01
0

> <PUBCHEM_SHAPE_SELFOVERLAP>
627.171

> <PUBCHEM_SHAPE_VOLUME>
145.4

> <PUBCHEM_COORDINATE_TYPE>
2
5
10

$$$$
