44577222
  -OEChem-10022013043D

 42 43  0     1  0  0  0  0  0999 V2000
    1.1432   -0.5431    0.2683 O   0  0  0  0  0  0  0  0  0  0  0  0
    0.0973    1.5127   -0.0827 O   0  0  0  0  0  0  0  0  0  0  0  0
    4.8677    1.1825    0.1360 O   0  0  0  0  0  0  0  0  0  0  0  0
    4.5968   -1.6785   -0.1760 O   0  0  0  0  0  0  0  0  0  0  0  0
    2.5452    2.5717   -1.0287 O   0  0  0  0  0  0  0  0  0  0  0  0
    0.6995   -3.2555    0.3025 O   0  0  0  0  0  0  0  0  0  0  0  0
   -1.6419    1.1638    2.0609 O   0  0  0  0  0  0  0  0  0  0  0  0
   -5.1219   -1.9326   -0.4897 O   0  0  0  0  0  0  0  0  0  0  0  0
    3.7103    0.5503   -0.4127 C   0  0  1  0  0  0  0  0  0  0  0  0
    3.5521   -0.8130    0.2607 C   0  0  1  0  0  0  0  0  0  0  0  0
    2.4855    1.4325   -0.1708 C   0  0  2  0  0  0  0  0  0  0  0  0
    2.1989   -1.4374   -0.0880 C   0  0  1  0  0  0  0  0  0  0  0  0
    1.1894    0.6778   -0.4664 C   0  0  1  0  0  0  0  0  0  0  0  0
    1.9689   -2.7438    0.6651 C   0  0  0  0  0  0  0  0  0  0  0  0
   -1.1586    1.0069   -0.2791 C   0  0  0  0  0  0  0  0  0  0  0  0
   -2.0290    0.8337    0.7971 C   0  0  0  0  0  0  0  0  0  0  0  0
   -1.5662    0.6630   -1.5679 C   0  0  0  0  0  0  0  0  0  0  0  0
   -3.3069    0.3167    0.5843 C   0  0  0  0  0  0  0  0  0  0  0  0
   -3.7144   -0.0275   -0.7046 C   0  0  0  0  0  0  0  0  0  0  0  0
   -2.8440    0.1456   -1.7808 C   0  0  0  0  0  0  0  0  0  0  0  0
   -5.0802   -0.5814   -0.9319 C   0  0  0  0  0  0  0  0  0  0  0  0
   -2.5919    0.9558    3.1044 C   0  0  0  0  0  0  0  0  0  0  0  0
    3.9049    0.4358   -1.4856 H   0  0  0  0  0  0  0  0  0  0  0  0
    3.6528   -0.7012    1.3473 H   0  0  0  0  0  0  0  0  0  0  0  0
    2.4822    1.8113    0.8582 H   0  0  0  0  0  0  0  0  0  0  0  0
    2.1277   -1.6493   -1.1636 H   0  0  0  0  0  0  0  0  0  0  0  0
    1.1260    0.4675   -1.5421 H   0  0  0  0  0  0  0  0  0  0  0  0
    1.9632   -2.5744    1.7470 H   0  0  0  0  0  0  0  0  0  0  0  0
    2.7314   -3.4890    0.4193 H   0  0  0  0  0  0  0  0  0  0  0  0
    4.7180    1.3141    1.0877 H   0  0  0  0  0  0  0  0  0  0  0  0
    4.5080   -1.7953   -1.1373 H   0  0  0  0  0  0  0  0  0  0  0  0
    2.5487    2.2567   -1.9487 H   0  0  0  0  0  0  0  0  0  0  0  0
    0.5718   -4.0833    0.7965 H   0  0  0  0  0  0  0  0  0  0  0  0
   -0.9110    0.8075   -2.4222 H   0  0  0  0  0  0  0  0  0  0  0  0
   -4.0271    0.1584    1.3801 H   0  0  0  0  0  0  0  0  0  0  0  0
   -3.1488   -0.1159   -2.7906 H   0  0  0  0  0  0  0  0  0  0  0  0
   -5.8273   -0.0013   -0.3789 H   0  0  0  0  0  0  0  0  0  0  0  0
   -5.3548   -0.5536   -1.9920 H   0  0  0  0  0  0  0  0  0  0  0  0
   -3.4809    1.5819    2.9722 H   0  0  0  0  0  0  0  0  0  0  0  0
   -2.8405   -0.1048    3.2185 H   0  0  0  0  0  0  0  0  0  0  0  0
   -2.1174    1.2724    4.0392 H   0  0  0  0  0  0  0  0  0  0  0  0
   -6.0263   -2.2550   -0.6438 H   0  0  0  0  0  0  0  0  0  0  0  0
  1 12  1  0  0  0  0
  1 13  1  0  0  0  0
  2 13  1  0  0  0  0
  2 15  1  0  0  0  0
  3  9  1  0  0  0  0
  3 30  1  0  0  0  0
  4 10  1  0  0  0  0
  4 31  1  0  0  0  0
  5 11  1  0  0  0  0
  5 32  1  0  0  0  0
  6 14  1  0  0  0  0
  6 33  1  0  0  0  0
  7 16  1  0  0  0  0
  7 22  1  0  0  0  0
  8 21  1  0  0  0  0
  8 42  1  0  0  0  0
  9 10  1  0  0  0  0
  9 11  1  0  0  0  0
  9 23  1  0  0  0  0
 10 12  1  0  0  0  0
 10 24  1  0  0  0  0
 11 13  1  0  0  0  0
 11 25  1  0  0  0  0
 12 14  1  0  0  0  0
 12 26  1  0  0  0  0
 13 27  1  0  0  0  0
 14 28  1  0  0  0  0
 14 29  1  0  0  0  0
 15 16  2  0  0  0  0
 15 17  1  0  0  0  0
 16 18  1  0  0  0  0
 17 20  2  0  0  0  0
 17 34  1  0  0  0  0
 18 19  2  0  0  0  0
 18 35  1  0  0  0  0
 19 20  1  0  0  0  0
 19 21  1  0  0  0  0
 20 36  1  0  0  0  0
 21 37  1  0  0  0  0
 21 38  1  0  0  0  0
 22 39  1  0  0  0  0
 22 40  1  0  0  0  0
 22 41  1  0  0  0  0
M  END
> <PUBCHEM_COMPOUND_CID>
44577222

> <PUBCHEM_CONFORMER_RMSD>
0.8

> <PUBCHEM_CONFORMER_DIVERSEORDER>
1
97
89
11
43
98
27
47
111
80
55
88
6
44
94
83
76
17
15
109
34
54
49
38
103
87
107
64
110
45
22
52
96
61
73
81
99
12
93
62
82
100
58
90
60
91
40
68
57
29
67
21
10
51
105
4
72
78
84
71
86
23
75
70
56
13
2
28
65
63
14
25
59
24
108
92
37
85
53
77
106
33
69
36
8
66
35
20
16
26
50
39
101
18
46
74
3
102
31
42
48
5
104
19
7
79
32
41
9
30
95

> <PUBCHEM_MMFF94_PARTIAL_CHARGES>
30
1 -0.56
10 0.28
11 0.28
12 0.28
13 0.56
14 0.28
15 0.08
16 0.08
17 -0.15
18 -0.15
19 -0.14
2 -0.36
20 -0.15
21 0.42
22 0.28
3 -0.68
30 0.4
31 0.4
32 0.4
33 0.4
34 0.15
35 0.15
36 0.15
4 -0.68
42 0.4
5 -0.68
6 -0.68
7 -0.36
8 -0.68
9 0.28

> <PUBCHEM_EFFECTIVE_ROTOR_COUNT>
6.2

> <PUBCHEM_PHARMACOPHORE_FEATURES>
15
1 1 acceptor
1 2 acceptor
1 3 acceptor
1 3 donor
1 4 acceptor
1 4 donor
1 5 acceptor
1 5 donor
1 6 acceptor
1 6 donor
1 7 acceptor
1 8 acceptor
1 8 donor
6 1 9 10 11 12 13 rings
6 15 16 17 18 19 20 rings

> <PUBCHEM_HEAVY_ATOM_COUNT>
22

> <PUBCHEM_ATOM_DEF_STEREO_COUNT>
5

> <PUBCHEM_ATOM_UDEF_STEREO_COUNT>
0

> <PUBCHEM_BOND_DEF_STEREO_COUNT>
0

> <PUBCHEM_BOND_UDEF_STEREO_COUNT>
0

> <PUBCHEM_ISOTOPIC_ATOM_COUNT>
0

> <PUBCHEM_COMPONENT_COUNT>
1

> <PUBCHEM_CACTVS_TAUTO_COUNT>
1

> <PUBCHEM_CONFORMER_ID>
02A831C600000001

> <PUBCHEM_MMFF94_ENERGY>
76.4807

> <PUBCHEM_FEATURE_SELFOVERLAP>
76.193

> <PUBCHEM_SHAPE_FINGERPRINT>
10366900 7 17385726859323603302
11582403 64 16378547983089802349
11615757 297 18412544284398009108
12236239 1 18060420222299180949
12596599 1 17986402087365131391
12596602 18 17917711326769624113
12788726 201 17561089107557812667
13009979 54 17772749368944108130
13583140 156 16805322232321943016
13862211 1 18262795139488216762
13911987 19 18042982037093040172
13965767 371 17198572263478647200
14787075 74 17557411390949050857
14844126 61 16099370509003528234
15375358 24 17240484701756995385
15375462 189 17988069093422180463
15635459 17 17967813795362305690
16752209 62 16988270972747459725
17138139 8 17912345826238679783
200 152 18412821395872751805
20028762 73 18342731897827281166
20645477 70 18113896074359928220
23526113 38 17531525352303976448
23557571 272 16515980154849957485
23559900 14 18262225712249112781
23598288 3 17702943622206903573
23598291 2 18057900055880756600
23598294 1 16917072109948672321
238 59 18186236229779636122
2871803 45 18334287643644626126
312423 11 17988374705862185660
33382 64 18336266864308585755
33824 294 18333725819283904918
4409770 3 15387492427206858685
602551 16 15841258346063691183
77492 1 18060707173412025776
9709674 26 17822010874217643213

> <PUBCHEM_SHAPE_MULTIPOLES>
405.8
9.43
2.47
1.73
1.09
1.69
1.36
2.17
-1.54
-2
0.18
2.34
-0.74
-1.35

> <PUBCHEM_SHAPE_SELFOVERLAP>
845.398

> <PUBCHEM_SHAPE_VOLUME>
228.6

> <PUBCHEM_COORDINATE_TYPE>
2
5
10

$$$$
