102033307
  -OEChem-10022014433D

 52 53  0     1  0  0  0  0  0999 V2000
    0.9842   -0.8266    0.3817 O   0  0  0  0  0  0  0  0  0  0  0  0
   -2.6180   -2.3970   -1.4515 O   0  0  0  0  0  0  0  0  0  0  0  0
    0.2163   -2.9173    2.1724 O   0  0  0  0  0  0  0  0  0  0  0  0
   -2.0259   -3.9376    0.8953 O   0  0  0  0  0  0  0  0  0  0  0  0
   -3.7578    0.7358   -0.2701 O   0  0  0  0  0  0  0  0  0  0  0  0
   -4.2267   -0.4962   -2.1673 O   0  0  0  0  0  0  0  0  0  0  0  0
    1.7031   -1.5442   -1.6840 O   0  0  0  0  0  0  0  0  0  0  0  0
    6.2429    0.7731   -1.9741 O   0  0  0  0  0  0  0  0  0  0  0  0
    4.4107    2.0515    2.2623 O   0  0  0  0  0  0  0  0  0  0  0  0
    6.4614    2.1753    0.4044 O   0  0  0  0  0  0  0  0  0  0  0  0
   -2.6354   -1.3004   -0.5458 C   0  0  2  0  0  0  0  0  0  0  0  0
   -1.2474   -0.6622   -0.4622 C   0  0  0  0  0  0  0  0  0  0  0  0
   -0.2270   -1.5676    0.2312 C   0  0  2  0  0  0  0  0  0  0  0  0
   -3.1281   -1.7796    0.8276 C   0  0  0  0  0  0  0  0  0  0  0  0
   -0.7273   -2.0079    1.6089 C   0  0  1  0  0  0  0  0  0  0  0  0
   -2.1080   -2.6697    1.5473 C   0  0  2  0  0  0  0  0  0  0  0  0
   -3.6320   -0.3303   -1.1109 C   0  0  0  0  0  0  0  0  0  0  0  0
    1.8600   -0.9059   -0.6548 C   0  0  0  0  0  0  0  0  0  0  0  0
   -4.6828    1.7439   -0.6897 C   0  0  0  0  0  0  0  0  0  0  0  0
   -4.7047    2.8548    0.3508 C   0  0  0  0  0  0  0  0  0  0  0  0
    3.0726   -0.0955   -0.3760 C   0  0  0  0  0  0  0  0  0  0  0  0
   -5.6862    3.9607   -0.0264 C   0  0  0  0  0  0  0  0  0  0  0  0
    3.1796    0.6083    0.8236 C   0  0  0  0  0  0  0  0  0  0  0  0
    4.1040   -0.0370   -1.3131 C   0  0  0  0  0  0  0  0  0  0  0  0
   -5.7369    5.0468    1.0362 C   0  0  0  0  0  0  0  0  0  0  0  0
    5.2423    0.7253   -1.0508 C   0  0  0  0  0  0  0  0  0  0  0  0
    4.3179    1.3705    1.0860 C   0  0  0  0  0  0  0  0  0  0  0  0
    5.3493    1.4290    0.1488 C   0  0  0  0  0  0  0  0  0  0  0  0
   -1.2860    0.2990    0.0680 H   0  0  0  0  0  0  0  0  0  0  0  0
   -0.8861   -0.4230   -1.4711 H   0  0  0  0  0  0  0  0  0  0  0  0
   -0.0426   -2.4691   -0.3684 H   0  0  0  0  0  0  0  0  0  0  0  0
   -4.0675   -2.3352    0.7089 H   0  0  0  0  0  0  0  0  0  0  0  0
   -3.3414   -0.9240    1.4807 H   0  0  0  0  0  0  0  0  0  0  0  0
   -0.7623   -1.1350    2.2730 H   0  0  0  0  0  0  0  0  0  0  0  0
   -2.4522   -2.8764    2.5675 H   0  0  0  0  0  0  0  0  0  0  0  0
   -3.4814   -2.8428   -1.4121 H   0  0  0  0  0  0  0  0  0  0  0  0
   -0.1151   -3.1766    3.0491 H   0  0  0  0  0  0  0  0  0  0  0  0
   -2.9171   -4.3264    0.8960 H   0  0  0  0  0  0  0  0  0  0  0  0
   -5.6801    1.2995   -0.7881 H   0  0  0  0  0  0  0  0  0  0  0  0
   -4.3670    2.1431   -1.6606 H   0  0  0  0  0  0  0  0  0  0  0  0
   -3.6940    3.2656    0.4667 H   0  0  0  0  0  0  0  0  0  0  0  0
   -4.9684    2.4294    1.3273 H   0  0  0  0  0  0  0  0  0  0  0  0
   -5.3947    4.4061   -0.9846 H   0  0  0  0  0  0  0  0  0  0  0  0
   -6.6901    3.5401   -0.1560 H   0  0  0  0  0  0  0  0  0  0  0  0
    2.3929    0.5821    1.5730 H   0  0  0  0  0  0  0  0  0  0  0  0
    4.0267   -0.5834   -2.2500 H   0  0  0  0  0  0  0  0  0  0  0  0
   -4.7543    5.5103    1.1704 H   0  0  0  0  0  0  0  0  0  0  0  0
   -6.4447    5.8292    0.7450 H   0  0  0  0  0  0  0  0  0  0  0  0
   -6.0591    4.6387    1.9995 H   0  0  0  0  0  0  0  0  0  0  0  0
    5.9956    0.2261   -2.7394 H   0  0  0  0  0  0  0  0  0  0  0  0
    3.6065    1.8944    2.7862 H   0  0  0  0  0  0  0  0  0  0  0  0
    6.3587    2.5896    1.2788 H   0  0  0  0  0  0  0  0  0  0  0  0
  1 13  1  0  0  0  0
  1 18  1  0  0  0  0
  2 11  1  0  0  0  0
  2 36  1  0  0  0  0
  3 15  1  0  0  0  0
  3 37  1  0  0  0  0
  4 16  1  0  0  0  0
  4 38  1  0  0  0  0
  5 17  1  0  0  0  0
  5 19  1  0  0  0  0
  6 17  2  0  0  0  0
  7 18  2  0  0  0  0
  8 26  1  0  0  0  0
  8 50  1  0  0  0  0
  9 27  1  0  0  0  0
  9 51  1  0  0  0  0
 10 28  1  0  0  0  0
 10 52  1  0  0  0  0
 11 12  1  0  0  0  0
 11 14  1  0  0  0  0
 11 17  1  0  0  0  0
 12 13  1  0  0  0  0
 12 29  1  0  0  0  0
 12 30  1  0  0  0  0
 13 15  1  0  0  0  0
 13 31  1  0  0  0  0
 14 16  1  0  0  0  0
 14 32  1  0  0  0  0
 14 33  1  0  0  0  0
 15 16  1  0  0  0  0
 15 34  1  0  0  0  0
 16 35  1  0  0  0  0
 18 21  1  0  0  0  0
 19 20  1  0  0  0  0
 19 39  1  0  0  0  0
 19 40  1  0  0  0  0
 20 22  1  0  0  0  0
 20 41  1  0  0  0  0
 20 42  1  0  0  0  0
 21 23  2  0  0  0  0
 21 24  1  0  0  0  0
 22 25  1  0  0  0  0
 22 43  1  0  0  0  0
 22 44  1  0  0  0  0
 23 27  1  0  0  0  0
 23 45  1  0  0  0  0
 24 26  2  0  0  0  0
 24 46  1  0  0  0  0
 25 47  1  0  0  0  0
 25 48  1  0  0  0  0
 25 49  1  0  0  0  0
 26 28  1  0  0  0  0
 27 28  2  0  0  0  0
M  END
> <PUBCHEM_COMPOUND_CID>
102033307

> <PUBCHEM_CONFORMER_RMSD>
1

> <PUBCHEM_CONFORMER_DIVERSEORDER>
1
24
79
15
16
54
63
37
62
52
45
86
49
71
56
67
72
80
73
40
33
74
22
84
23
47
68
66
28
21
48
35
76
44
38
32
39
14
41
25
17
10
77
83
61
29
30
9
53
27
18
75
60
85
42
78
46
12
58
5
64
31
19
57
7
69
20
36
34
65
26
11
50
8
81
59
70
82
51
43
55
3
6
4
13
2

> <PUBCHEM_MMFF94_PARTIAL_CHARGES>
31
1 -0.43
10 -0.53
11 0.34
13 0.28
15 0.28
16 0.28
17 0.66
18 0.63
19 0.28
2 -0.68
21 0.09
23 -0.15
24 -0.15
26 0.08
27 0.08
28 0.08
3 -0.68
36 0.4
37 0.4
38 0.4
4 -0.68
45 0.15
46 0.15
5 -0.43
50 0.45
51 0.45
52 0.45
6 -0.57
7 -0.57
8 -0.53
9 -0.53

> <PUBCHEM_EFFECTIVE_ROTOR_COUNT>
9.2

> <PUBCHEM_PHARMACOPHORE_FEATURES>
14
1 10 donor
1 2 acceptor
1 2 donor
1 25 hydrophobe
1 3 acceptor
1 3 donor
1 4 acceptor
1 4 donor
1 6 acceptor
1 7 acceptor
1 8 donor
1 9 donor
6 11 12 13 14 15 16 rings
6 21 23 24 26 27 28 rings

> <PUBCHEM_HEAVY_ATOM_COUNT>
28

> <PUBCHEM_ATOM_DEF_STEREO_COUNT>
4

> <PUBCHEM_ATOM_UDEF_STEREO_COUNT>
0

> <PUBCHEM_BOND_DEF_STEREO_COUNT>
0

> <PUBCHEM_BOND_UDEF_STEREO_COUNT>
0

> <PUBCHEM_ISOTOPIC_ATOM_COUNT>
0

> <PUBCHEM_COMPONENT_COUNT>
1

> <PUBCHEM_CACTVS_TAUTO_COUNT>
9

> <PUBCHEM_CONFORMER_ID>
0614E79B00000001

> <PUBCHEM_MMFF94_ENERGY>
61.1139

> <PUBCHEM_FEATURE_SELFOVERLAP>
71.085

> <PUBCHEM_SHAPE_FINGERPRINT>
10291535 26 18338796827066890067
10937287 8 18265893567238325467
11135609 201 18409730630602119417
12107183 9 18041543747192775650
12236239 1 15792564322287397538
12390115 104 18113343015652989811
12633257 1 17458615770325705004
13583140 156 18197212770999626338
13944108 23 17263004654679935713
14068700 675 17244698211120861559
14251764 38 18268423714723629560
14251764 75 18195530294860364673
14347329 18 18335423499934741020
14565420 104 18043818572463329841
14848178 5 8646470917935123329
14950920 106 13551194364086104901
15320291 9 18196080265011868977
15513586 35 16735538522360906229
16120349 67 18339372855027266857
17844677 252 18045222889182163036
19438510 23 18338237064111318121
21033648 144 17273134833420915564
21033648 29 18200027486406383952
21033650 10 18411981398800668554
21133410 62 18196668298201514673
21401589 2 18408889516848964849
21424621 283 18336830801698140733
21585480 29 12903840490516160041
21756936 100 18408325480163374307
22393880 68 17703784855796935198
23559900 14 18187366532898869478
23569914 152 17125940686217136980
2838139 119 18272922813055884308
341906 21 18042115621966684042
38570 142 18194131720158383933
469060 322 17750251330010215307
497634 4 16486421034900211119
508706 21 18339921622845858513
5104073 3 17749104483078781074
5283173 99 18272365399494811512
57634706 229 18115329815842048176
6712543 237 14635163270292492673
7288768 16 18041286470087872249
9849439 229 18261951826548205289

> <PUBCHEM_SHAPE_MULTIPOLES>
517.53
15.13
4.85
1.85
7
2.82
0.11
21.07
-2.12
-9.64
2.61
0.74
-0.63
-0.05

> <PUBCHEM_SHAPE_SELFOVERLAP>
1084.387

> <PUBCHEM_SHAPE_VOLUME>
289.3

> <PUBCHEM_COORDINATE_TYPE>
2
5
10

$$$$
