21672692
  -OEChem-10022012143D

 82 86  0     1  0  0  0  0  0999 V2000
   -6.8887    1.2594   -0.1546 O   0  0  0  0  0  0  0  0  0  0  0  0
    4.8927   -2.7163    1.1249 O   0  0  0  0  0  0  0  0  0  0  0  0
   -5.3010   -0.8198   -2.3751 O   0  0  0  0  0  0  0  0  0  0  0  0
    3.6536   -1.0597    2.0824 O   0  0  0  0  0  0  0  0  0  0  0  0
   -0.4851   -0.9161    0.2025 C   0  0  1  0  0  0  0  0  0  0  0  0
    0.9455   -0.8406   -0.5748 C   0  0  1  0  0  0  0  0  0  0  0  0
   -1.1499    0.5221    0.1908 C   0  0  1  0  0  0  0  0  0  0  0  0
    1.8531    0.2420    0.1410 C   0  0  1  0  0  0  0  0  0  0  0  0
   -2.6686    0.6101    0.6754 C   0  0  2  0  0  0  0  0  0  0  0  0
    3.2753    0.2668   -0.4625 C   0  0  2  0  0  0  0  0  0  0  0  0
   -3.4849   -0.4491   -0.1599 C   0  0  1  0  0  0  0  0  0  0  0  0
    3.9509   -1.1101   -0.3335 C   0  0  1  0  0  0  0  0  0  0  0  0
   -1.4482   -1.9241   -0.4847 C   0  0  0  0  0  0  0  0  0  0  0  0
   -0.2115    1.5801    0.8144 C   0  0  0  0  0  0  0  0  0  0  0  0
    1.6944   -2.2211   -0.5875 C   0  0  0  0  0  0  0  0  0  0  0  0
    1.1764    1.6169    0.1689 C   0  0  0  0  0  0  0  0  0  0  0  0
   -2.8988   -1.8650    0.0067 C   0  0  0  0  0  0  0  0  0  0  0  0
    3.1512   -2.1653   -1.0964 C   0  0  0  0  0  0  0  0  0  0  0  0
   -5.0529   -0.3646   -0.0430 C   0  0  1  0  0  0  0  0  0  0  0  0
    4.3394    1.2320    0.0953 C   0  0  1  0  0  0  0  0  0  0  0  0
   -3.2285    2.0245    0.3219 C   0  0  0  0  0  0  0  0  0  0  0  0
   -0.2706   -1.4296    1.6580 C   0  0  0  0  0  0  0  0  0  0  0  0
    0.7422   -0.4659   -2.0827 C   0  0  0  0  0  0  0  0  0  0  0  0
    5.3469   -0.8137   -0.8779 C   0  0  0  0  0  0  0  0  0  0  0  0
    5.6814    0.5820   -0.3197 C   0  0  0  0  0  0  0  0  0  0  0  0
   -2.8008    0.4306    2.2067 C   0  0  0  0  0  0  0  0  0  0  0  0
   -5.4860    1.0962   -0.3648 C   0  0  2  0  0  0  0  0  0  0  0  0
   -4.7454    2.1537    0.4459 C   0  0  0  0  0  0  0  0  0  0  0  0
    4.1284   -1.5972    1.0929 C   0  0  0  0  0  0  0  0  0  0  0  0
   -5.7125   -1.2812   -1.1111 C   0  0  0  0  0  0  0  0  0  0  0  0
   -5.6067   -0.8320    1.3177 C   0  0  0  0  0  0  0  0  0  0  0  0
    4.2395    2.6335   -0.4149 C   0  0  0  0  0  0  0  0  0  0  0  0
    4.0834    3.7056    0.6226 C   0  0  0  0  0  0  0  0  0  0  0  0
    4.2860    2.9163   -1.7252 C   0  0  0  0  0  0  0  0  0  0  0  0
   -1.2211    0.8065   -0.8664 H   0  0  0  0  0  0  0  0  0  0  0  0
    1.9390   -0.0340    1.1900 H   0  0  0  0  0  0  0  0  0  0  0  0
    3.1708    0.4892   -1.5308 H   0  0  0  0  0  0  0  0  0  0  0  0
   -3.2744   -0.1838   -1.2088 H   0  0  0  0  0  0  0  0  0  0  0  0
   -1.0787   -2.9490   -0.3571 H   0  0  0  0  0  0  0  0  0  0  0  0
   -1.4847   -1.7474   -1.5633 H   0  0  0  0  0  0  0  0  0  0  0  0
   -0.0883    1.4108    1.8883 H   0  0  0  0  0  0  0  0  0  0  0  0
   -0.6398    2.5821    0.7118 H   0  0  0  0  0  0  0  0  0  0  0  0
    1.7310   -2.6496    0.4166 H   0  0  0  0  0  0  0  0  0  0  0  0
    1.1425   -2.9425   -1.2023 H   0  0  0  0  0  0  0  0  0  0  0  0
    1.1078    2.0396   -0.8394 H   0  0  0  0  0  0  0  0  0  0  0  0
    1.7658    2.3109    0.7636 H   0  0  0  0  0  0  0  0  0  0  0  0
   -2.9736   -2.2160    1.0390 H   0  0  0  0  0  0  0  0  0  0  0  0
   -3.4537   -2.5917   -0.5927 H   0  0  0  0  0  0  0  0  0  0  0  0
    3.1612   -1.9483   -2.1707 H   0  0  0  0  0  0  0  0  0  0  0  0
    3.5990   -3.1614   -0.9942 H   0  0  0  0  0  0  0  0  0  0  0  0
    4.2866    1.2431    1.1914 H   0  0  0  0  0  0  0  0  0  0  0  0
   -2.9505    2.2819   -0.7088 H   0  0  0  0  0  0  0  0  0  0  0  0
   -2.7747    2.7877    0.9651 H   0  0  0  0  0  0  0  0  0  0  0  0
    0.2050   -2.4131    1.6808 H   0  0  0  0  0  0  0  0  0  0  0  0
   -1.2052   -1.5793    2.1948 H   0  0  0  0  0  0  0  0  0  0  0  0
    0.3324   -0.7576    2.2712 H   0  0  0  0  0  0  0  0  0  0  0  0
    1.6843   -0.3730   -2.6280 H   0  0  0  0  0  0  0  0  0  0  0  0
    0.1837   -1.2380   -2.6198 H   0  0  0  0  0  0  0  0  0  0  0  0
    0.2216    0.4813   -2.2300 H   0  0  0  0  0  0  0  0  0  0  0  0
    6.1207   -1.5404   -0.6116 H   0  0  0  0  0  0  0  0  0  0  0  0
    5.3225   -0.7604   -1.9740 H   0  0  0  0  0  0  0  0  0  0  0  0
    6.3166    0.4791    0.5694 H   0  0  0  0  0  0  0  0  0  0  0  0
    6.2638    1.1533   -1.0504 H   0  0  0  0  0  0  0  0  0  0  0  0
   -2.9851   -0.6036    2.5010 H   0  0  0  0  0  0  0  0  0  0  0  0
   -3.6236    1.0125    2.6297 H   0  0  0  0  0  0  0  0  0  0  0  0
   -1.9139    0.7735    2.7442 H   0  0  0  0  0  0  0  0  0  0  0  0
   -5.3012    1.3233   -1.4217 H   0  0  0  0  0  0  0  0  0  0  0  0
   -5.0474    3.1507    0.0990 H   0  0  0  0  0  0  0  0  0  0  0  0
   -5.0650    2.1218    1.4931 H   0  0  0  0  0  0  0  0  0  0  0  0
   -5.4514   -2.3359   -0.9953 H   0  0  0  0  0  0  0  0  0  0  0  0
   -6.8057   -1.2135   -1.0662 H   0  0  0  0  0  0  0  0  0  0  0  0
   -6.6995   -0.9219    1.2916 H   0  0  0  0  0  0  0  0  0  0  0  0
   -5.2174   -1.8175    1.5922 H   0  0  0  0  0  0  0  0  0  0  0  0
   -5.3806   -0.1397    2.1289 H   0  0  0  0  0  0  0  0  0  0  0  0
   -7.1203    2.1710   -0.4009 H   0  0  0  0  0  0  0  0  0  0  0  0
    3.3373    3.4565    1.3794 H   0  0  0  0  0  0  0  0  0  0  0  0
    5.0373    3.8534    1.1410 H   0  0  0  0  0  0  0  0  0  0  0  0
    3.7942    4.6638    0.1780 H   0  0  0  0  0  0  0  0  0  0  0  0
    5.0200   -3.0465    2.0396 H   0  0  0  0  0  0  0  0  0  0  0  0
    4.2117    3.9399   -2.0784 H   0  0  0  0  0  0  0  0  0  0  0  0
    4.4070    2.1475   -2.4804 H   0  0  0  0  0  0  0  0  0  0  0  0
   -5.7225   -1.3878   -3.0422 H   0  0  0  0  0  0  0  0  0  0  0  0
  1 27  1  0  0  0  0
  1 75  1  0  0  0  0
  2 29  1  0  0  0  0
  2 79  1  0  0  0  0
  3 30  1  0  0  0  0
  3 82  1  0  0  0  0
  4 29  2  0  0  0  0
  5  6  1  0  0  0  0
  5  7  1  0  0  0  0
  5 13  1  0  0  0  0
  5 22  1  0  0  0  0
  6  8  1  0  0  0  0
  6 15  1  0  0  0  0
  6 23  1  0  0  0  0
  7  9  1  0  0  0  0
  7 14  1  0  0  0  0
  7 35  1  0  0  0  0
  8 10  1  0  0  0  0
  8 16  1  0  0  0  0
  8 36  1  0  0  0  0
  9 11  1  0  0  0  0
  9 21  1  0  0  0  0
  9 26  1  0  0  0  0
 10 12  1  0  0  0  0
 10 20  1  0  0  0  0
 10 37  1  0  0  0  0
 11 17  1  0  0  0  0
 11 19  1  0  0  0  0
 11 38  1  0  0  0  0
 12 18  1  0  0  0  0
 12 24  1  0  0  0  0
 12 29  1  0  0  0  0
 13 17  1  0  0  0  0
 13 39  1  0  0  0  0
 13 40  1  0  0  0  0
 14 16  1  0  0  0  0
 14 41  1  0  0  0  0
 14 42  1  0  0  0  0
 15 18  1  0  0  0  0
 15 43  1  0  0  0  0
 15 44  1  0  0  0  0
 16 45  1  0  0  0  0
 16 46  1  0  0  0  0
 17 47  1  0  0  0  0
 17 48  1  0  0  0  0
 18 49  1  0  0  0  0
 18 50  1  0  0  0  0
 19 27  1  0  0  0  0
 19 30  1  0  0  0  0
 19 31  1  0  0  0  0
 20 25  1  0  0  0  0
 20 32  1  0  0  0  0
 20 51  1  0  0  0  0
 21 28  1  0  0  0  0
 21 52  1  0  0  0  0
 21 53  1  0  0  0  0
 22 54  1  0  0  0  0
 22 55  1  0  0  0  0
 22 56  1  0  0  0  0
 23 57  1  0  0  0  0
 23 58  1  0  0  0  0
 23 59  1  0  0  0  0
 24 25  1  0  0  0  0
 24 60  1  0  0  0  0
 24 61  1  0  0  0  0
 25 62  1  0  0  0  0
 25 63  1  0  0  0  0
 26 64  1  0  0  0  0
 26 65  1  0  0  0  0
 26 66  1  0  0  0  0
 27 28  1  0  0  0  0
 27 67  1  0  0  0  0
 28 68  1  0  0  0  0
 28 69  1  0  0  0  0
 30 70  1  0  0  0  0
 30 71  1  0  0  0  0
 31 72  1  0  0  0  0
 31 73  1  0  0  0  0
 31 74  1  0  0  0  0
 32 33  1  0  0  0  0
 32 34  2  0  0  0  0
 33 76  1  0  0  0  0
 33 77  1  0  0  0  0
 33 78  1  0  0  0  0
 34 80  1  0  0  0  0
 34 81  1  0  0  0  0
M  END
> <PUBCHEM_COMPOUND_CID>
21672692

> <PUBCHEM_CONFORMER_RMSD>
0.8

> <PUBCHEM_CONFORMER_DIVERSEORDER>
1
2

> <PUBCHEM_MMFF94_PARTIAL_CHARGES>
17
1 -0.68
12 0.06
2 -0.65
20 0.14
27 0.28
29 0.66
3 -0.68
30 0.28
32 -0.28
33 0.14
34 -0.3
4 -0.57
75 0.4
79 0.5
80 0.15
81 0.15
82 0.4

> <PUBCHEM_EFFECTIVE_ROTOR_COUNT>
5.6

> <PUBCHEM_PHARMACOPHORE_FEATURES>
12
1 1 acceptor
1 1 donor
1 2 acceptor
1 3 acceptor
1 3 donor
1 4 acceptor
3 2 4 29 anion
5 10 12 20 24 25 rings
6 5 6 7 8 14 16 rings
6 5 7 9 11 13 17 rings
6 6 8 10 12 15 18 rings
6 9 11 19 21 27 28 rings

> <PUBCHEM_HEAVY_ATOM_COUNT>
34

> <PUBCHEM_ATOM_DEF_STEREO_COUNT>
11

> <PUBCHEM_ATOM_UDEF_STEREO_COUNT>
0

> <PUBCHEM_BOND_DEF_STEREO_COUNT>
0

> <PUBCHEM_BOND_UDEF_STEREO_COUNT>
0

> <PUBCHEM_ISOTOPIC_ATOM_COUNT>
0

> <PUBCHEM_COMPONENT_COUNT>
1

> <PUBCHEM_CACTVS_TAUTO_COUNT>
1

> <PUBCHEM_CONFORMER_ID>
014AB2F400000001

> <PUBCHEM_MMFF94_ENERGY>
161.7359

> <PUBCHEM_FEATURE_SELFOVERLAP>
61.047

> <PUBCHEM_SHAPE_FINGERPRINT>
10595046 47 18412545439918434501
10906281 52 17916605197219730515
11089746 13 18334859415903763982
12107183 9 17976820891690592032
12166972 35 18130790023624005130
12236239 1 18114183003903088595
12403260 363 18340204094228237664
12788726 201 17632026260255046313
13224815 77 17704358749205447050
13533116 47 17968093075980259970
13583140 156 17968109615645713128
13782708 43 17821728295271411675
13811026 1 18409728491259772203
13878862 14 18262220175645904628
14528608 73 18342179989838359284
14790565 3 18342180023997397180
14856354 85 16128381506307698005
15082195 135 18202569471073938654
15183329 4 18341892979044137565
15788980 27 18413388713976737555
15799311 1 15697731345528095735
17349148 13 18273215283333397915
17844677 252 18336273374793048337
18681886 176 18202282503324588522
20511986 3 18341885333733578596
20715895 44 18268148647938026489
21033648 144 18261949751503787468
21033648 29 16443056205942505653
21315764 268 18260545580940370765
22149856 69 17703803509341230475
22393880 68 18128547135746373692
23522609 53 17701285687664025705
23559900 14 18201165343307331206
2838139 119 18342738558835552365
3004659 81 18411702067334320248
335352 9 18412550890912305142
3411729 13 18336264647999965912
34797466 226 17918002684539786741
3493558 16 18411991255761876665
350125 39 18410577297368191924
3680242 22 18338239249869850882
4015057 19 18408605893967022449
4058900 60 17823991237084688004
4073 2 18041287676530642178
4098825 35 18412543220148303805
4325135 7 18202565064479600013
4340502 62 17822291335888176922
5104073 3 18408892823715417929
5283173 99 18336265639689161285
6036956 94 16248274774735688532
6086070 43 17971172769099074924
67856867 119 18412542119729392528
8988823 20 18113333098852915754

> <PUBCHEM_SHAPE_MULTIPOLES>
676.23
14.85
3.11
1.6
9.56
1.54
-0.01
2.65
1.84
-3.46
0.02
0.24
-0.36
-1.3

> <PUBCHEM_SHAPE_SELFOVERLAP>
1438.404

> <PUBCHEM_SHAPE_VOLUME>
374.8

> <PUBCHEM_COORDINATE_TYPE>
2
5
10

$$$$
