10736338
  -OEChem-10022013053D

 46 47  0     1  0  0  0  0  0999 V2000
   -1.6230   -0.9191   -0.2350 O   0  0  0  0  0  0  0  0  0  0  0  0
    0.0094    0.6029   -0.9156 O   0  0  0  0  0  0  0  0  0  0  0  0
   -4.5408    1.9695   -0.3301 O   0  0  0  0  0  0  0  0  0  0  0  0
   -5.0058   -0.4972    1.1034 O   0  0  0  0  0  0  0  0  0  0  0  0
   -1.6994    2.7333   -0.1743 O   0  0  0  0  0  0  0  0  0  0  0  0
   -1.9810   -3.4277    0.8053 O   0  0  0  0  0  0  0  0  0  0  0  0
    1.0309   -1.9571   -1.1848 O   0  0  0  0  0  0  0  0  0  0  0  0
    1.4653    2.5233    0.4501 O   0  0  0  0  0  0  0  0  0  0  0  0
    6.0530   -0.4436    0.3487 O   0  0  0  0  0  0  0  0  0  0  0  0
   -3.5029    1.1927    0.2699 C   0  0  1  0  0  0  0  0  0  0  0  0
   -3.9177   -0.2775    0.2096 C   0  0  1  0  0  0  0  0  0  0  0  0
   -2.1919    1.4289   -0.4802 C   0  0  2  0  0  0  0  0  0  0  0  0
   -2.7507   -1.1875    0.6000 C   0  0  1  0  0  0  0  0  0  0  0  0
   -1.1282    0.4084   -0.0756 C   0  0  1  0  0  0  0  0  0  0  0  0
   -3.1047   -2.6621    0.4349 C   0  0  0  0  0  0  0  0  0  0  0  0
    1.2277    0.2891   -0.3787 C   0  0  0  0  0  0  0  0  0  0  0  0
    1.7348   -1.0006   -0.5176 C   0  0  0  0  0  0  0  0  0  0  0  0
    1.9537    1.2598    0.3069 C   0  0  0  0  0  0  0  0  0  0  0  0
    2.9757   -1.3215    0.0325 C   0  0  0  0  0  0  0  0  0  0  0  0
    3.1947    0.9389    0.8570 C   0  0  0  0  0  0  0  0  0  0  0  0
    3.7057   -0.3519    0.7198 C   0  0  0  0  0  0  0  0  0  0  0  0
    5.0328   -0.6948    1.3073 C   0  0  0  0  0  0  0  0  0  0  0  0
    1.2627   -2.0725   -2.5874 C   0  0  0  0  0  0  0  0  0  0  0  0
    1.7997    3.4665   -0.5662 C   0  0  0  0  0  0  0  0  0  0  0  0
   -3.4202    1.5360    1.3084 H   0  0  0  0  0  0  0  0  0  0  0  0
   -4.2707   -0.5154   -0.8014 H   0  0  0  0  0  0  0  0  0  0  0  0
   -2.3633    1.4006   -1.5628 H   0  0  0  0  0  0  0  0  0  0  0  0
   -2.4566   -1.0243    1.6459 H   0  0  0  0  0  0  0  0  0  0  0  0
   -0.8385    0.5646    0.9737 H   0  0  0  0  0  0  0  0  0  0  0  0
   -3.3490   -2.9019   -0.6053 H   0  0  0  0  0  0  0  0  0  0  0  0
   -3.9470   -2.9499    1.0704 H   0  0  0  0  0  0  0  0  0  0  0  0
   -5.3610    1.7871    0.1597 H   0  0  0  0  0  0  0  0  0  0  0  0
   -4.6999   -0.2955    2.0041 H   0  0  0  0  0  0  0  0  0  0  0  0
   -1.5307    2.7756    0.7824 H   0  0  0  0  0  0  0  0  0  0  0  0
   -1.2402   -3.1639    0.2330 H   0  0  0  0  0  0  0  0  0  0  0  0
    3.3697   -2.3290   -0.0781 H   0  0  0  0  0  0  0  0  0  0  0  0
    3.7601    1.6988    1.3912 H   0  0  0  0  0  0  0  0  0  0  0  0
    5.2334   -0.0962    2.2028 H   0  0  0  0  0  0  0  0  0  0  0  0
    5.0733   -1.7500    1.5991 H   0  0  0  0  0  0  0  0  0  0  0  0
    0.6236   -2.8705   -2.9753 H   0  0  0  0  0  0  0  0  0  0  0  0
    2.3074   -2.3338   -2.7831 H   0  0  0  0  0  0  0  0  0  0  0  0
    1.0060   -1.1392   -3.0983 H   0  0  0  0  0  0  0  0  0  0  0  0
    1.3307    4.4216   -0.3143 H   0  0  0  0  0  0  0  0  0  0  0  0
    1.4201    3.1362   -1.5382 H   0  0  0  0  0  0  0  0  0  0  0  0
    2.8837    3.6101   -0.6144 H   0  0  0  0  0  0  0  0  0  0  0  0
    6.8997   -0.6778    0.7658 H   0  0  0  0  0  0  0  0  0  0  0  0
  1 13  1  0  0  0  0
  1 14  1  0  0  0  0
  2 14  1  0  0  0  0
  2 16  1  0  0  0  0
  3 10  1  0  0  0  0
  3 32  1  0  0  0  0
  4 11  1  0  0  0  0
  4 33  1  0  0  0  0
  5 12  1  0  0  0  0
  5 34  1  0  0  0  0
  6 15  1  0  0  0  0
  6 35  1  0  0  0  0
  7 17  1  0  0  0  0
  7 23  1  0  0  0  0
  8 18  1  0  0  0  0
  8 24  1  0  0  0  0
  9 22  1  0  0  0  0
  9 46  1  0  0  0  0
 10 11  1  0  0  0  0
 10 12  1  0  0  0  0
 10 25  1  0  0  0  0
 11 13  1  0  0  0  0
 11 26  1  0  0  0  0
 12 14  1  0  0  0  0
 12 27  1  0  0  0  0
 13 15  1  0  0  0  0
 13 28  1  0  0  0  0
 14 29  1  0  0  0  0
 15 30  1  0  0  0  0
 15 31  1  0  0  0  0
 16 17  2  0  0  0  0
 16 18  1  0  0  0  0
 17 19  1  0  0  0  0
 18 20  2  0  0  0  0
 19 21  2  0  0  0  0
 19 36  1  0  0  0  0
 20 21  1  0  0  0  0
 20 37  1  0  0  0  0
 21 22  1  0  0  0  0
 22 38  1  0  0  0  0
 22 39  1  0  0  0  0
 23 40  1  0  0  0  0
 23 41  1  0  0  0  0
 23 42  1  0  0  0  0
 24 43  1  0  0  0  0
 24 44  1  0  0  0  0
 24 45  1  0  0  0  0
M  END
> <PUBCHEM_COMPOUND_CID>
10736338

> <PUBCHEM_CONFORMER_RMSD>
0.8

> <PUBCHEM_CONFORMER_DIVERSEORDER>
1
52
7
74
51
75
78
63
22
9
53
6
48
70
68
77
56
15
61
25
12
72
44
28
42
79
50
30
38
24
45
71
4
60
20
66
40
19
54
67
69
41
59
73
3
64
33
46
10
31
5
36
57
35
32
23
37
2
26
65
34
8
55
58
14
76
29
11
39
47
49
13
21
27
16
43
62
18
17

> <PUBCHEM_MMFF94_PARTIAL_CHARGES>
31
1 -0.56
10 0.28
11 0.28
12 0.28
13 0.28
14 0.56
15 0.28
16 0.08
17 0.08
18 0.08
19 -0.15
2 -0.36
20 -0.15
21 -0.14
22 0.42
23 0.28
24 0.28
3 -0.68
32 0.4
33 0.4
34 0.4
35 0.4
36 0.15
37 0.15
4 -0.68
46 0.4
5 -0.68
6 -0.68
7 -0.36
8 -0.36
9 -0.68

> <PUBCHEM_EFFECTIVE_ROTOR_COUNT>
7.2

> <PUBCHEM_PHARMACOPHORE_FEATURES>
16
1 1 acceptor
1 2 acceptor
1 3 acceptor
1 3 donor
1 4 acceptor
1 4 donor
1 5 acceptor
1 5 donor
1 6 acceptor
1 6 donor
1 7 acceptor
1 8 acceptor
1 9 acceptor
1 9 donor
6 1 10 11 12 13 14 rings
6 16 17 18 19 20 21 rings

> <PUBCHEM_HEAVY_ATOM_COUNT>
24

> <PUBCHEM_ATOM_DEF_STEREO_COUNT>
5

> <PUBCHEM_ATOM_UDEF_STEREO_COUNT>
0

> <PUBCHEM_BOND_DEF_STEREO_COUNT>
0

> <PUBCHEM_BOND_UDEF_STEREO_COUNT>
0

> <PUBCHEM_ISOTOPIC_ATOM_COUNT>
0

> <PUBCHEM_COMPONENT_COUNT>
1

> <PUBCHEM_CACTVS_TAUTO_COUNT>
1

> <PUBCHEM_CONFORMER_ID>
00A3D2D200000001

> <PUBCHEM_MMFF94_ENERGY>
93.8728

> <PUBCHEM_FEATURE_SELFOVERLAP>
81.277

> <PUBCHEM_SHAPE_FINGERPRINT>
10366900 7 17988631969918253985
10616163 171 18122631810222335177
10906281 52 18270410381826535580
12251169 10 18410009948587160730
12633257 1 18411144653414376371
13004483 165 17981314905321086495
13140716 1 18341050842915005401
13402501 40 18341049618843908227
14178342 30 18200324216421296808
14223421 5 18266746951079924605
14341114 176 18409168839667466568
14790565 3 17759244381680534836
14955137 171 18201443601643440292
15209289 33 17894627050301262018
15238133 3 18336554815352206404
15375358 24 18342737369266585871
1601671 61 18343023277140143364
17492 89 18045219594357276251
17804303 29 18334859406918430789
1813 80 16009033813779969222
20600515 1 18188498977465037308
20681677 274 18190738824395079120
21033648 29 17631712942527758378
22182313 1 18058453101866161452
23402539 116 18338785746056632069
23559900 14 18337101375557451889
2748010 2 18056486036571754332
4409770 3 17535164680300881348
5104073 3 18411416249840005008
59554788 248 17845939653126354150
7097593 13 18187916275168238874
81228 2 17767140708569901464
9709674 26 18341899593204544471

> <PUBCHEM_SHAPE_MULTIPOLES>
441.08
9.44
3.35
1.26
1.94
0.68
-0.67
-1.15
3.88
-1.23
-0.48
0.66
-0.81
0.84

> <PUBCHEM_SHAPE_SELFOVERLAP>
917.409

> <PUBCHEM_SHAPE_VOLUME>
249.7

> <PUBCHEM_COORDINATE_TYPE>
2
5
10

$$$$
