101711082
  -OEChem-10022014323D

 22 23  0     1  0  0  0  0  0999 V2000
   -0.7715    1.3424   -0.8845 O   0  0  0  0  0  0  0  0  0  0  0  0
   -1.9116   -1.1332    1.3772 O   0  0  0  0  0  0  0  0  0  0  0  0
    2.4411    0.7899    0.7972 O   0  0  0  0  0  0  0  0  0  0  0  0
    2.4151   -1.4867   -0.7358 O   0  0  0  0  0  0  0  0  0  0  0  0
   -2.4595   -0.1807   -1.2925 O   0  0  0  0  0  0  0  0  0  0  0  0
   -0.9502   -0.4451    0.6229 C   0  0  1  0  0  0  0  0  0  0  0  0
    0.2315    1.4741    0.1427 C   0  0  1  0  0  0  0  0  0  0  0  0
   -0.4187    0.7865    1.3288 C   0  0  0  0  0  0  0  0  0  0  0  0
    0.2035   -1.3871    0.2420 C   0  0  0  0  0  0  0  0  0  0  0  0
    1.5160    0.7436   -0.2863 C   0  0  2  0  0  0  0  0  0  0  0  0
    1.2229   -0.7140   -0.6892 C   0  0  1  0  0  0  0  0  0  0  0  0
   -1.5185    0.2104   -0.6225 C   0  0  0  0  0  0  0  0  0  0  0  0
    0.4175    2.5315    0.3557 H   0  0  0  0  0  0  0  0  0  0  0  0
    0.2587    0.5630    2.1583 H   0  0  0  0  0  0  0  0  0  0  0  0
   -1.2438    1.3896    1.7298 H   0  0  0  0  0  0  0  0  0  0  0  0
   -0.1869   -2.2928   -0.2410 H   0  0  0  0  0  0  0  0  0  0  0  0
    0.7012   -1.7511    1.1511 H   0  0  0  0  0  0  0  0  0  0  0  0
    1.9823    1.2501   -1.1393 H   0  0  0  0  0  0  0  0  0  0  0  0
    0.8103   -0.7098   -1.7062 H   0  0  0  0  0  0  0  0  0  0  0  0
   -2.5726   -0.4924    1.6896 H   0  0  0  0  0  0  0  0  0  0  0  0
    2.6066    1.7262    1.0012 H   0  0  0  0  0  0  0  0  0  0  0  0
    2.1707   -2.3887   -1.0045 H   0  0  0  0  0  0  0  0  0  0  0  0
  1  7  1  0  0  0  0
  1 12  1  0  0  0  0
  2  6  1  0  0  0  0
  2 20  1  0  0  0  0
  3 10  1  0  0  0  0
  3 21  1  0  0  0  0
  4 11  1  0  0  0  0
  4 22  1  0  0  0  0
  5 12  2  0  0  0  0
  6  8  1  0  0  0  0
  6  9  1  0  0  0  0
  6 12  1  0  0  0  0
  7  8  1  0  0  0  0
  7 10  1  0  0  0  0
  7 13  1  0  0  0  0
  8 14  1  0  0  0  0
  8 15  1  0  0  0  0
  9 11  1  0  0  0  0
  9 16  1  0  0  0  0
  9 17  1  0  0  0  0
 10 11  1  0  0  0  0
 10 18  1  0  0  0  0
 11 19  1  0  0  0  0
M  END
> <PUBCHEM_COMPOUND_CID>
101711082

> <PUBCHEM_CONFORMER_RMSD>
0.4

> <PUBCHEM_CONFORMER_DIVERSEORDER>
1
2

> <PUBCHEM_MMFF94_PARTIAL_CHARGES>
13
1 -0.43
10 0.28
11 0.28
12 0.66
2 -0.68
20 0.4
21 0.4
22 0.4
3 -0.68
4 -0.68
5 -0.57
6 0.34
7 0.28

> <PUBCHEM_EFFECTIVE_ROTOR_COUNT>
1

> <PUBCHEM_PHARMACOPHORE_FEATURES>
8
1 2 acceptor
1 2 donor
1 3 acceptor
1 3 donor
1 4 acceptor
1 4 donor
1 5 acceptor
8 1 6 7 8 9 10 11 12 rings

> <PUBCHEM_HEAVY_ATOM_COUNT>
12

> <PUBCHEM_ATOM_DEF_STEREO_COUNT>
4

> <PUBCHEM_ATOM_UDEF_STEREO_COUNT>
0

> <PUBCHEM_BOND_DEF_STEREO_COUNT>
0

> <PUBCHEM_BOND_UDEF_STEREO_COUNT>
0

> <PUBCHEM_ISOTOPIC_ATOM_COUNT>
0

> <PUBCHEM_COMPONENT_COUNT>
1

> <PUBCHEM_CACTVS_TAUTO_COUNT>
1

> <PUBCHEM_CONFORMER_ID>
060FFCEA00000001

> <PUBCHEM_MMFF94_ENERGY>
31.0599

> <PUBCHEM_FEATURE_SELFOVERLAP>
40.61

> <PUBCHEM_SHAPE_FINGERPRINT>
12138202 97 17822558512401872302
12423570 1 17755874364917085889
13024252 1 11388381389258796174
137420 1 17270925797921525661
16945 1 18199753720141640848
20653085 51 15430899599998384766
21040471 1 17386276580777798397
21922407 69 16845578603777323618
23236772 104 16055756645067244208
241688 4 18196935465929244640
2748010 2 18335711558526318390
29004967 10 18339930418927928329
369184 2 17346597422344945810
5084963 1 17969245406872930242

> <PUBCHEM_SHAPE_MULTIPOLES>
217.61
2.76
1.55
1.25
0.5
0.06
-0.13
0.57
0.37
0.44
-0.04
-0.56
0
0.46

> <PUBCHEM_SHAPE_SELFOVERLAP>
467.747

> <PUBCHEM_SHAPE_VOLUME>
119.8

> <PUBCHEM_COORDINATE_TYPE>
2
5
10

$$$$
