22298372
  -OEChem-11232014133D

 37 37  0     1  0  0  0  0  0999 V2000
   -2.1280   -0.0019    0.0602 O   0  0  0  0  0  0  0  0  0  0  0  0
   -4.1125    1.1046   -1.6485 O   0  0  0  0  0  0  0  0  0  0  0  0
   -4.7660   -2.3255   -0.0558 O   0  0  0  0  0  0  0  0  0  0  0  0
    4.5875    2.0991    0.0159 O   0  0  0  0  0  0  0  0  0  0  0  0
   -4.1909    2.0356    1.8659 O   0  0  0  0  0  0  0  0  0  0  0  0
   -3.2288   -1.8598   -1.6588 O   0  0  0  0  0  0  0  0  0  0  0  0
   -3.5119    3.1771    0.0273 O   0  0  0  0  0  0  0  0  0  0  0  0
    6.5385    0.1272   -0.1610 O   0  0  0  0  0  0  0  0  0  0  0  0
   -1.5610   -2.0966    0.8529 O   0  0  0  0  0  0  0  0  0  0  0  0
   -3.5109   -0.3066    0.1950 C   0  0  1  0  0  0  0  0  0  0  0  0
   -4.3173    0.9109   -0.2598 C   0  0  1  0  0  0  0  0  0  0  0  0
   -3.7902   -1.5630   -0.6122 C   0  0  0  0  0  0  0  0  0  0  0  0
    2.5691   -0.9154    0.3256 C   0  0  0  0  0  0  0  0  0  0  0  0
   -3.9713    2.1608    0.5343 C   0  0  0  0  0  0  0  0  0  0  0  0
    2.9103    0.4254    0.2526 C   0  0  0  0  0  0  0  0  0  0  0  0
   -1.2636   -0.9918    0.4269 C   0  0  0  0  0  0  0  0  0  0  0  0
    1.1551   -1.2918    0.4990 C   0  0  0  0  0  0  0  0  0  0  0  0
    4.2488    0.7816    0.0883 C   0  0  0  0  0  0  0  0  0  0  0  0
    3.5299   -1.9097    0.2388 C   0  0  0  0  0  0  0  0  0  0  0  0
    0.1150   -0.4933    0.2199 C   0  0  0  0  0  0  0  0  0  0  0  0
    5.2278   -0.2079   -0.0008 C   0  0  0  0  0  0  0  0  0  0  0  0
    4.8685   -1.5537    0.0744 C   0  0  0  0  0  0  0  0  0  0  0  0
    4.6019    2.6944   -1.2801 C   0  0  0  0  0  0  0  0  0  0  0  0
   -3.7054   -0.5119    1.2556 H   0  0  0  0  0  0  0  0  0  0  0  0
   -5.3891    0.7248   -0.1291 H   0  0  0  0  0  0  0  0  0  0  0  0
    2.1796    1.2239    0.3401 H   0  0  0  0  0  0  0  0  0  0  0  0
    0.9848   -2.2993    0.8719 H   0  0  0  0  0  0  0  0  0  0  0  0
    3.2654   -2.9623    0.2942 H   0  0  0  0  0  0  0  0  0  0  0  0
    0.2192    0.5089   -0.1791 H   0  0  0  0  0  0  0  0  0  0  0  0
   -3.1568    1.2091   -1.7962 H   0  0  0  0  0  0  0  0  0  0  0  0
    5.6211   -2.3347    0.0060 H   0  0  0  0  0  0  0  0  0  0  0  0
   -4.9502   -3.1289   -0.5878 H   0  0  0  0  0  0  0  0  0  0  0  0
   -3.9462    2.8495    2.3558 H   0  0  0  0  0  0  0  0  0  0  0  0
    7.0704   -0.6859   -0.2035 H   0  0  0  0  0  0  0  0  0  0  0  0
    3.6048    2.6566   -1.7303 H   0  0  0  0  0  0  0  0  0  0  0  0
    5.3263    2.1906   -1.9280 H   0  0  0  0  0  0  0  0  0  0  0  0
    4.8977    3.7415   -1.1729 H   0  0  0  0  0  0  0  0  0  0  0  0
  1 10  1  0  0  0  0
  1 16  1  0  0  0  0
  2 11  1  0  0  0  0
  2 30  1  0  0  0  0
  3 12  1  0  0  0  0
  3 32  1  0  0  0  0
  4 18  1  0  0  0  0
  4 23  1  0  0  0  0
  5 14  1  0  0  0  0
  5 33  1  0  0  0  0
  6 12  2  0  0  0  0
  7 14  2  0  0  0  0
  8 21  1  0  0  0  0
  8 34  1  0  0  0  0
  9 16  2  0  0  0  0
 10 11  1  0  0  0  0
 10 12  1  0  0  0  0
 10 24  1  0  0  0  0
 11 14  1  0  0  0  0
 11 25  1  0  0  0  0
 13 15  2  0  0  0  0
 13 17  1  0  0  0  0
 13 19  1  0  0  0  0
 15 18  1  0  0  0  0
 15 26  1  0  0  0  0
 16 20  1  0  0  0  0
 17 20  2  0  0  0  0
 17 27  1  0  0  0  0
 18 21  2  0  0  0  0
 19 22  2  0  0  0  0
 19 28  1  0  0  0  0
 20 29  1  0  0  0  0
 21 22  1  0  0  0  0
 22 31  1  0  0  0  0
 23 35  1  0  0  0  0
 23 36  1  0  0  0  0
 23 37  1  0  0  0  0
M  END
> <PUBCHEM_COMPOUND_CID>
22298372

> <PUBCHEM_CONFORMER_RMSD>
0.8

> <PUBCHEM_CONFORMER_DIVERSEORDER>
2
215
54
77
5
216
264
209
34
260
241
141
250
81
51
113
191
281
229
217
192
132
184
90
279
103
86
139
78
109
94
263
110
147
291
210
199
120
214
24
218
275
287
106
73
146
157
185
251
148
276
249
149
154
290
45
262
83
82
108
273
101
27
145
64
189
270
293
172
95
104
118
53
150
219
142
30
163
261
31
205
228
22
87
111
200
69
119
89
292
246
274
9
114
188
155
6
59
123
4
42
267
66
195
236
13
207
48
49
280
235
124
226
68
240
225
278
15
37
127
7
137
268
40
105
271
80
12
255
162
88
136
244
97
143
3
277
128
284
182
121
178
63
239
71
85
56
179
117
252
213
168
62
135
26
57
170
65
100
266
206
18
131
203
297
17
238
208
23
187
298
265
96
160
156
161
144
11
259
222
227
122
302
164
98
175
38
39
79
282
254
19
232
33
193
242
116
173
133
169
32
76
35
36
112
1
67
8
181
286
126
10
257
159
91
20
151
115
299
177
295
92
253
180
166
60
58
129
272
52
245
93
288
176
212
237
167
74
231
269
300
224
294
171
84
190
305
130
44
61
140
221
296
196
186
283
204
55
75
153
174
29
223
197
125
303
14
43
134
256
289
99
102
21
25
285
107
46
230
198
301
220
243
70
47
183
201
41
138
248
211
304
194
165
247
50
234
28
233
258
158
202
16
152
72

> <PUBCHEM_MMFF94_PARTIAL_CHARGES>
32
1 -0.43
10 0.34
11 0.34
12 0.66
13 0.03
14 0.66
15 -0.15
16 0.71
17 -0.18
18 0.08
19 -0.15
2 -0.68
20 -0.14
21 0.08
22 -0.15
23 0.28
26 0.15
27 0.15
28 0.15
29 0.15
3 -0.65
30 0.4
31 0.15
32 0.5
33 0.5
34 0.45
4 -0.36
5 -0.65
6 -0.57
7 -0.57
8 -0.53
9 -0.57

> <PUBCHEM_EFFECTIVE_ROTOR_COUNT>
8

> <PUBCHEM_PHARMACOPHORE_FEATURES>
12
1 2 acceptor
1 2 donor
1 3 acceptor
1 4 acceptor
1 5 acceptor
1 6 acceptor
1 7 acceptor
1 8 donor
1 9 acceptor
3 3 6 12 anion
3 5 7 14 anion
6 13 15 18 19 21 22 rings

> <PUBCHEM_HEAVY_ATOM_COUNT>
23

> <PUBCHEM_ATOM_DEF_STEREO_COUNT>
0

> <PUBCHEM_ATOM_UDEF_STEREO_COUNT>
2

> <PUBCHEM_BOND_DEF_STEREO_COUNT>
1

> <PUBCHEM_BOND_UDEF_STEREO_COUNT>
0

> <PUBCHEM_ISOTOPIC_ATOM_COUNT>
0

> <PUBCHEM_COMPONENT_COUNT>
1

> <PUBCHEM_CACTVS_TAUTO_COUNT>
3

> <PUBCHEM_CONFORMER_ID>
01543F0400000002

> <PUBCHEM_MMFF94_ENERGY>
60.4878

> <PUBCHEM_FEATURE_SELFOVERLAP>
61.025

> <PUBCHEM_SHAPE_FINGERPRINT>
10595046 47 18411697724885312502
11089746 13 18259980483930322226
11405975 8 18336825295239006722
12107183 9 17905885881792422474
13073987 5 18407758127642160874
13167823 11 18413103961629159486
14251764 38 18410296912785627828
14528608 73 18337109068371133342
14848178 96 18333729143783874776
15064981 194 18336558174512419749
15183329 4 18338516340233545578
15196674 1 18409448098435517552
17834072 33 18412260675060305918
17844677 252 18409173229050215634
17959699 21 18409730651538729528
1813 80 13901908937919215146
20567600 9 18114761420682680980
21033648 29 16298376955242392270
21315763 129 18409447012135936690
21623110 236 18261114105861744357
21709351 56 18410290307426490038
221357 26 18271519892343450411
23402539 116 18410287000096008446
23402655 69 18341892966101538114
23559900 14 17986672576264216386
245318 6 16881900051690068364
268830 7 18114455695629201642
3472631 163 18340205168545191765
4214541 1 18412261718388952411
497634 4 18334289886208496015
5104073 3 18261109660459453562
543358 83 18337111173052924858
6327066 14 18122340186792532821
633830 44 18261108552231582202
90127 26 18261684726600057850

> <PUBCHEM_SHAPE_MULTIPOLES>
420.51
14.72
3.01
1.07
7.51
1.58
-0.15
4.07
-1.47
-1.48
-0.18
-1.11
0.29
-1.83

> <PUBCHEM_SHAPE_SELFOVERLAP>
878.636

> <PUBCHEM_SHAPE_VOLUME>
236

> <PUBCHEM_COORDINATE_TYPE>
2
5
10

$$$$
