5317750
  -OEChem-11232015093D

 33 35  0     0  0  0  0  0  0999 V2000
    0.6763    2.1619    0.1980 O   0  0  0  0  0  0  0  0  0  0  0  0
    4.7209   -1.5527   -0.3738 O   0  0  0  0  0  0  0  0  0  0  0  0
   -0.3520   -1.7459   -0.3678 O   0  0  0  0  0  0  0  0  0  0  0  0
    5.3021    1.1377   -0.0058 O   0  0  0  0  0  0  0  0  0  0  0  0
   -6.5844   -0.6511    0.0651 O   0  0  0  0  0  0  0  0  0  0  0  0
    1.3572   -0.1441   -0.1327 C   0  0  0  0  0  0  0  0  0  0  0  0
   -1.0762    0.4915    0.0048 C   0  0  0  0  0  0  0  0  0  0  0  0
    1.6493    1.2067    0.0520 C   0  0  0  0  0  0  0  0  0  0  0  0
   -0.0526   -0.5742   -0.1778 C   0  0  0  0  0  0  0  0  0  0  0  0
   -2.5175    0.1930    0.0200 C   0  0  0  0  0  0  0  0  0  0  0  0
    2.3906   -1.0736   -0.2769 C   0  0  0  0  0  0  0  0  0  0  0  0
    2.9762    1.6360    0.0933 C   0  0  0  0  0  0  0  0  0  0  0  0
    3.7169   -0.6419   -0.2345 C   0  0  0  0  0  0  0  0  0  0  0  0
   -0.6330    1.7462    0.1753 C   0  0  0  0  0  0  0  0  0  0  0  0
    4.0094    0.7099   -0.0500 C   0  0  0  0  0  0  0  0  0  0  0  0
   -3.2541    0.2305   -1.1657 C   0  0  0  0  0  0  0  0  0  0  0  0
   -3.1527   -0.1292    1.2212 C   0  0  0  0  0  0  0  0  0  0  0  0
   -4.6198   -0.0528   -1.1503 C   0  0  0  0  0  0  0  0  0  0  0  0
   -4.5184   -0.4126    1.2367 C   0  0  0  0  0  0  0  0  0  0  0  0
   -5.2521   -0.3745    0.0508 C   0  0  0  0  0  0  0  0  0  0  0  0
    5.2138   -2.1608    0.8182 C   0  0  0  0  0  0  0  0  0  0  0  0
    2.1768   -2.1294   -0.4224 H   0  0  0  0  0  0  0  0  0  0  0  0
    3.2059    2.6888    0.2373 H   0  0  0  0  0  0  0  0  0  0  0  0
   -1.2842    2.5994    0.3213 H   0  0  0  0  0  0  0  0  0  0  0  0
   -2.7756    0.4784   -2.1102 H   0  0  0  0  0  0  0  0  0  0  0  0
   -2.5946   -0.1641    2.1538 H   0  0  0  0  0  0  0  0  0  0  0  0
   -5.1800   -0.0199   -2.0810 H   0  0  0  0  0  0  0  0  0  0  0  0
   -5.0052   -0.6627    2.1753 H   0  0  0  0  0  0  0  0  0  0  0  0
    5.8858    0.3754   -0.1616 H   0  0  0  0  0  0  0  0  0  0  0  0
    6.0347   -2.8303    0.5470 H   0  0  0  0  0  0  0  0  0  0  0  0
    4.4266   -2.7496    1.2994 H   0  0  0  0  0  0  0  0  0  0  0  0
    5.5940   -1.4047    1.5125 H   0  0  0  0  0  0  0  0  0  0  0  0
   -6.9312   -0.5781   -0.8406 H   0  0  0  0  0  0  0  0  0  0  0  0
  1  8  1  0  0  0  0
  1 14  1  0  0  0  0
  2 13  1  0  0  0  0
  2 21  1  0  0  0  0
  3  9  2  0  0  0  0
  4 15  1  0  0  0  0
  4 29  1  0  0  0  0
  5 20  1  0  0  0  0
  5 33  1  0  0  0  0
  6  8  1  0  0  0  0
  6  9  1  0  0  0  0
  6 11  2  0  0  0  0
  7  9  1  0  0  0  0
  7 10  1  0  0  0  0
  7 14  2  0  0  0  0
  8 12  2  0  0  0  0
 10 16  2  0  0  0  0
 10 17  1  0  0  0  0
 11 13  1  0  0  0  0
 11 22  1  0  0  0  0
 12 15  1  0  0  0  0
 12 23  1  0  0  0  0
 13 15  2  0  0  0  0
 14 24  1  0  0  0  0
 16 18  1  0  0  0  0
 16 25  1  0  0  0  0
 17 19  2  0  0  0  0
 17 26  1  0  0  0  0
 18 20  2  0  0  0  0
 18 27  1  0  0  0  0
 19 20  1  0  0  0  0
 19 28  1  0  0  0  0
 21 30  1  0  0  0  0
 21 31  1  0  0  0  0
 21 32  1  0  0  0  0
M  END
> <PUBCHEM_COMPOUND_CID>
5317750

> <PUBCHEM_CONFORMER_RMSD>
0.6

> <PUBCHEM_CONFORMER_DIVERSEORDER>
1
2
3

> <PUBCHEM_MMFF94_PARTIAL_CHARGES>
30
1 -0.16
10 0.03
11 -0.15
12 -0.15
13 0.08
14 -0.07
15 0.08
16 -0.15
17 -0.15
18 -0.15
19 -0.15
2 -0.36
20 0.08
21 0.28
22 0.15
23 0.15
24 0.15
25 0.15
26 0.15
27 0.15
28 0.15
29 0.45
3 -0.57
33 0.45
4 -0.53
5 -0.53
6 0.09
7 -0.01
8 0.08
9 0.47

> <PUBCHEM_EFFECTIVE_ROTOR_COUNT>
2

> <PUBCHEM_PHARMACOPHORE_FEATURES>
8
1 1 acceptor
1 2 acceptor
1 3 acceptor
1 4 donor
1 5 donor
6 1 6 7 8 9 14 rings
6 10 16 17 18 19 20 rings
6 6 8 11 12 13 15 rings

> <PUBCHEM_HEAVY_ATOM_COUNT>
21

> <PUBCHEM_ATOM_DEF_STEREO_COUNT>
0

> <PUBCHEM_ATOM_UDEF_STEREO_COUNT>
0

> <PUBCHEM_BOND_DEF_STEREO_COUNT>
0

> <PUBCHEM_BOND_UDEF_STEREO_COUNT>
0

> <PUBCHEM_ISOTOPIC_ATOM_COUNT>
0

> <PUBCHEM_COMPONENT_COUNT>
1

> <PUBCHEM_CACTVS_TAUTO_COUNT>
10

> <PUBCHEM_CONFORMER_ID>
0051247600000001

> <PUBCHEM_MMFF94_ENERGY>
73.7807

> <PUBCHEM_FEATURE_SELFOVERLAP>
40.625

> <PUBCHEM_SHAPE_FINGERPRINT>
10 15 18115580582747215088
10912923 1 17561083630825683025
11471102 20 18411418427657214700
11796584 16 17022621991725045226
12107183 9 17054453751335123499
12236239 1 17632580457386520145
12616971 3 18060415824658462189
13140716 1 18270959154451537530
13533116 47 18342737403932357450
13544653 18 18408889529127523389
13685833 64 18408327696450947243
13760787 5 18342175570121696404
13862211 1 18412260606056083486
14386348 63 18113339730287526777
14573314 32 17313100834948787495
15196674 1 18411700946042219188
15788980 27 18410008827938280781
17349148 13 18131072631839150299
17844677 252 18261115149222097805
17862501 102 17775567537515094961
1813 80 18200609019966234412
19489759 90 16660360381463576101
200 152 18273494572556909289
20028762 73 18131628980486776607
20645477 70 18409166584915176366
21033648 29 18188474857235008477
21033650 10 15430878683713381732
21065201 7 17022617589663147513
21267235 1 18341055125662232614
21279426 13 18189893128260252477
21641784 216 18189071857663279660
21682296 61 18268153058917204654
2297311 6 16805045108257496205
23175994 123 18187087269518891477
23402539 116 18202279165327930125
23557571 272 17167855370447539285
23559900 14 17458347450406566522
26918003 58 18334579070445540545
2871803 45 18187364303135037872
3004659 81 18040435460925623146
3411729 13 15768630149184477880
345986 75 17988639636803915624
34797466 226 16443357489092153039
34934 24 18270112547972937556
3545911 37 18409167744883121108
4340502 62 17312817204183201410
465052 167 18411142441258662542
5104073 3 18341328882266312376
5281201 14 17967253095898037916
542803 24 17060341829375047369
602551 16 14764053606134550085

> <PUBCHEM_SHAPE_MULTIPOLES>
402.82
12.92
1.79
0.94
4.91
0.1
-0.05
-4.42
-0.59
-2.52
-0.18
0.91
-0.12
0

> <PUBCHEM_SHAPE_SELFOVERLAP>
893.815

> <PUBCHEM_SHAPE_VOLUME>
215.4

> <PUBCHEM_COORDINATE_TYPE>
2
5
10

$$$$
