64695
  -OEChem-11232011553D

 41 43  0     1  0  0  0  0  0999 V2000
    0.1057    0.3864    0.2955 O   0  0  0  0  0  0  0  0  0  0  0  0
   -0.0324    2.6566   -0.0653 O   0  0  0  0  0  0  0  0  0  0  0  0
   -3.6639   -1.0598   -0.6805 N   0  0  0  0  0  0  0  0  0  0  0  0
   -3.2023   -1.3792    0.6755 C   0  0  2  0  0  0  0  0  0  0  0  0
   -3.5198    0.3982   -0.7649 C   0  0  1  0  0  0  0  0  0  0  0  0
   -4.0469   -0.3788    1.4758 C   0  0  0  0  0  0  0  0  0  0  0  0
   -4.2577    0.8032    0.5183 C   0  0  0  0  0  0  0  0  0  0  0  0
   -1.6945   -1.1168    0.8564 C   0  0  0  0  0  0  0  0  0  0  0  0
   -2.0445    0.8425   -0.7314 C   0  0  0  0  0  0  0  0  0  0  0  0
   -1.3000    0.3232    0.5059 C   0  0  0  0  0  0  0  0  0  0  0  0
   -3.0509   -1.8199   -1.7539 C   0  0  0  0  0  0  0  0  0  0  0  0
    0.6146    1.6220    0.0161 C   0  0  0  0  0  0  0  0  0  0  0  0
    2.0928    1.5344   -0.1600 C   0  0  0  0  0  0  0  0  0  0  0  0
    2.8413    0.2698   -0.0551 C   0  0  0  0  0  0  0  0  0  0  0  0
    2.7458    2.6716   -0.4474 C   0  0  0  0  0  0  0  0  0  0  0  0
    3.3578   -0.1132    1.1724 C   0  0  0  0  0  0  0  0  0  0  0  0
    3.0147   -0.5122   -1.1857 C   0  0  0  0  0  0  0  0  0  0  0  0
    4.0668   -1.3103    1.2718 C   0  0  0  0  0  0  0  0  0  0  0  0
    3.7237   -1.7094   -1.0861 C   0  0  0  0  0  0  0  0  0  0  0  0
    4.2497   -2.1084    0.1427 C   0  0  0  0  0  0  0  0  0  0  0  0
   -3.4459   -2.4084    0.9605 H   0  0  0  0  0  0  0  0  0  0  0  0
   -4.0218    0.8092   -1.6476 H   0  0  0  0  0  0  0  0  0  0  0  0
   -3.5689   -0.0681    2.4106 H   0  0  0  0  0  0  0  0  0  0  0  0
   -5.0207   -0.8151    1.7309 H   0  0  0  0  0  0  0  0  0  0  0  0
   -5.3307    0.9233    0.3233 H   0  0  0  0  0  0  0  0  0  0  0  0
   -3.8917    1.7438    0.9429 H   0  0  0  0  0  0  0  0  0  0  0  0
   -1.4035   -1.3198    1.8952 H   0  0  0  0  0  0  0  0  0  0  0  0
   -1.1089   -1.8240    0.2555 H   0  0  0  0  0  0  0  0  0  0  0  0
   -1.5299    0.5269   -1.6476 H   0  0  0  0  0  0  0  0  0  0  0  0
   -2.0483    1.9368   -0.7586 H   0  0  0  0  0  0  0  0  0  0  0  0
   -1.5387    0.9593    1.3688 H   0  0  0  0  0  0  0  0  0  0  0  0
   -1.9679   -1.6914   -1.8363 H   0  0  0  0  0  0  0  0  0  0  0  0
   -3.4946   -1.5366   -2.7146 H   0  0  0  0  0  0  0  0  0  0  0  0
   -3.2511   -2.8884   -1.6184 H   0  0  0  0  0  0  0  0  0  0  0  0
    2.2395    3.6266   -0.5433 H   0  0  0  0  0  0  0  0  0  0  0  0
    3.8219    2.6821   -0.5970 H   0  0  0  0  0  0  0  0  0  0  0  0
    3.2209    0.4989    2.0599 H   0  0  0  0  0  0  0  0  0  0  0  0
    2.6086   -0.2133   -2.1484 H   0  0  0  0  0  0  0  0  0  0  0  0
    4.4760   -1.6213    2.2286 H   0  0  0  0  0  0  0  0  0  0  0  0
    3.8657   -2.3312   -1.9652 H   0  0  0  0  0  0  0  0  0  0  0  0
    4.8015   -3.0406    0.2201 H   0  0  0  0  0  0  0  0  0  0  0  0
  1 10  1  0  0  0  0
  1 12  1  0  0  0  0
  2 12  2  0  0  0  0
  3  4  1  0  0  0  0
  3  5  1  0  0  0  0
  3 11  1  0  0  0  0
  4  6  1  0  0  0  0
  4  8  1  0  0  0  0
  4 21  1  0  0  0  0
  5  7  1  0  0  0  0
  5  9  1  0  0  0  0
  5 22  1  0  0  0  0
  6  7  1  0  0  0  0
  6 23  1  0  0  0  0
  6 24  1  0  0  0  0
  7 25  1  0  0  0  0
  7 26  1  0  0  0  0
  8 10  1  0  0  0  0
  8 27  1  0  0  0  0
  8 28  1  0  0  0  0
  9 10  1  0  0  0  0
  9 29  1  0  0  0  0
  9 30  1  0  0  0  0
 10 31  1  0  0  0  0
 11 32  1  0  0  0  0
 11 33  1  0  0  0  0
 11 34  1  0  0  0  0
 12 13  1  0  0  0  0
 13 14  1  0  0  0  0
 13 15  2  0  0  0  0
 14 16  2  0  0  0  0
 14 17  1  0  0  0  0
 15 35  1  0  0  0  0
 15 36  1  0  0  0  0
 16 18  1  0  0  0  0
 16 37  1  0  0  0  0
 17 19  2  0  0  0  0
 17 38  1  0  0  0  0
 18 20  2  0  0  0  0
 18 39  1  0  0  0  0
 19 20  1  0  0  0  0
 19 40  1  0  0  0  0
 20 41  1  0  0  0  0
M  END
> <PUBCHEM_COMPOUND_CID>
64695

> <PUBCHEM_CONFORMER_RMSD>
0.8

> <PUBCHEM_CONFORMER_DIVERSEORDER>
1
50
26
29
52
4
56
36
47
48
6
43
17
35
44
20
30
37
31
46
49
3
38
41
55
34
8
54
42
15
14
33
45
39
5
28
25
2
13
16
40
53
22
19
9
18
32
11
51
21
27
12
24
23
10
7

> <PUBCHEM_MMFF94_PARTIAL_CHARGES>
23
1 -0.43
10 0.28
11 0.27
12 0.71
13 -0.01
14 0.03
15 -0.3
16 -0.15
17 -0.15
18 -0.15
19 -0.15
2 -0.57
20 -0.15
3 -0.81
35 0.15
36 0.15
37 0.15
38 0.15
39 0.15
4 0.27
40 0.15
41 0.15
5 0.27

> <PUBCHEM_EFFECTIVE_ROTOR_COUNT>
5.2

> <PUBCHEM_PHARMACOPHORE_FEATURES>
5
1 15 hydrophobe
1 2 acceptor
1 3 cation
6 14 16 17 18 19 20 rings
8 3 4 5 6 7 8 9 10 rings

> <PUBCHEM_HEAVY_ATOM_COUNT>
20

> <PUBCHEM_ATOM_DEF_STEREO_COUNT>
0

> <PUBCHEM_ATOM_UDEF_STEREO_COUNT>
2

> <PUBCHEM_BOND_DEF_STEREO_COUNT>
0

> <PUBCHEM_BOND_UDEF_STEREO_COUNT>
0

> <PUBCHEM_ISOTOPIC_ATOM_COUNT>
0

> <PUBCHEM_COMPONENT_COUNT>
1

> <PUBCHEM_CACTVS_TAUTO_COUNT>
1

> <PUBCHEM_CONFORMER_ID>
0000FCB700000001

> <PUBCHEM_MMFF94_ENERGY>
58.279

> <PUBCHEM_FEATURE_SELFOVERLAP>
25.371

> <PUBCHEM_SHAPE_FINGERPRINT>
10062212 137 18343861130522457479
10498660 4 9583511014792850490
11405975 8 18410294705309581185
11578080 2 17774134886770942481
116883 192 18339364050513225516
12173636 292 12035719934238751593
12363563 72 18409452449406245394
12553582 1 18337399253351667918
12596599 1 17917439721601808182
12633257 1 18412549803520960687
12707595 3 18334299755868924130
12788726 201 18269005201945713872
13224815 77 17846499261505320414
13296908 3 18187928421182498105
13533116 47 18270400628609570411
14252887 29 18413106161073901824
14341114 328 14836107867578756802
14848160 33 18335699464125285574
14866123 147 17690282607909704400
15885798 251 18409453548485642489
16752209 62 17969775285398831024
17492 89 18269838773372247423
17818456 19 17988094274668341825
1813 80 18187091624119721284
18186145 218 17240480325195753465
19141452 34 18130785633977615231
19862831 5 17603867775830478378
20281475 54 18272089434939808653
20626108 58 18129082563048312338
20645477 70 18335418014686081774
20681651 13 17631174276235032059
21250096 35 18410291380962442586
212916 134 16486712276943373707
21403212 168 18195817263405916641
22646028 28 18410856534244616722
22854114 59 10087637096032908563
23503953 91 17988926673652504163
235170 7 15719113556532568310
23559900 14 18408037408069632160
2637199 183 7853575764042769162
3004659 81 17894635808103704642
314173 41 18334021570805533186
463206 1 18187642445297158194
5104073 3 18411426141582061473
5161694 15 17385437726225161326
5281201 14 17168146762287075044
633830 44 17894908551163885329
7064713 232 17275102812478259622
7808743 9 10374709708633281786
9709674 26 18261957460938363426
9882013 296 12535340203495265570

> <PUBCHEM_SHAPE_MULTIPOLES>
394.87
9.7
2.47
1.35
0.45
0.92
0.1
-4.3
-0.69
-1.8
0.44
0.34
-0.61
-0.41

> <PUBCHEM_SHAPE_SELFOVERLAP>
845.496

> <PUBCHEM_SHAPE_VOLUME>
219.9

> <PUBCHEM_COORDINATE_TYPE>
2
5
10

$$$$
