16760075
  -OEChem-11232014533D

 76 80  0     1  0  0  0  0  0999 V2000
    3.2480   -0.3473    0.7046 O   0  0  0  0  0  0  0  0  0  0  0  0
    1.4446   -2.4244    0.4863 O   0  0  0  0  0  0  0  0  0  0  0  0
    0.6025   -4.6168    0.1467 O   0  0  0  0  0  0  0  0  0  0  0  0
    5.4563   -2.8427   -0.8154 O   0  0  0  0  0  0  0  0  0  0  0  0
    3.4049    1.9687    0.9398 O   0  0  0  0  0  0  0  0  0  0  0  0
    7.2432   -0.6568   -0.1953 O   0  0  0  0  0  0  0  0  0  0  0  0
    5.8524    1.9249   -0.4801 O   0  0  0  0  0  0  0  0  0  0  0  0
   -1.3493   -4.0227    2.1709 O   0  0  0  0  0  0  0  0  0  0  0  0
   -2.8816   -2.3967    0.5117 O   0  0  0  0  0  0  0  0  0  0  0  0
   -2.1597   -3.4953   -2.0217 O   0  0  0  0  0  0  0  0  0  0  0  0
   -1.2775    1.7384    0.1921 O   0  0  0  0  0  0  0  0  0  0  0  0
    1.1557    5.8731   -0.5717 O   0  0  0  0  0  0  0  0  0  0  0  0
   -1.3938    5.6462   -1.0520 O   0  0  0  0  0  0  0  0  0  0  0  0
   -6.9265   -0.9797    0.2121 O   0  0  0  0  0  0  0  0  0  0  0  0
    3.5985   -1.5114   -0.0459 C   0  0  1  0  0  0  0  0  0  0  0  0
    5.1126   -1.7289    0.0047 C   0  0  2  0  0  0  0  0  0  0  0  0
    5.8558   -0.4881   -0.4907 C   0  0  1  0  0  0  0  0  0  0  0  0
    5.3395    0.7768    0.1952 C   0  0  2  0  0  0  0  0  0  0  0  0
   -0.7137   -2.9997    1.4027 C   0  0  1  0  0  0  0  0  0  0  0  0
    0.6831   -3.4955    1.0332 C   0  0  2  0  0  0  0  0  0  0  0  0
   -1.5370   -2.7017    0.1485 C   0  0  1  0  0  0  0  0  0  0  0  0
   -1.5319   -3.8961   -0.8063 C   0  0  2  0  0  0  0  0  0  0  0  0
    3.8127    0.8439    0.1616 C   0  0  1  0  0  0  0  0  0  0  0  0
    2.8383   -2.6906    0.5527 C   0  0  0  0  0  0  0  0  0  0  0  0
   -0.0904   -4.3491   -1.0766 C   0  0  2  0  0  0  0  0  0  0  0  0
   -0.0392   -5.6284   -1.9072 C   0  0  0  0  0  0  0  0  0  0  0  0
    2.2440    2.5861    0.5622 C   0  0  0  0  0  0  0  0  0  0  0  0
    1.0469    1.8698    0.5501 C   0  0  0  0  0  0  0  0  0  0  0  0
   -0.1393    2.5027    0.1761 C   0  0  0  0  0  0  0  0  0  0  0  0
    2.2595    3.9310    0.1910 C   0  0  0  0  0  0  0  0  0  0  0  0
   -0.1174    3.8443   -0.2162 C   0  0  0  0  0  0  0  0  0  0  0  0
   -2.4736    2.5198    0.3383 C   0  0  1  0  0  0  0  0  0  0  0  0
   -2.5742    3.5783   -0.7585 C   0  0  0  0  0  0  0  0  0  0  0  0
    1.0801    4.5638   -0.2035 C   0  0  0  0  0  0  0  0  0  0  0  0
   -1.3669    4.4767   -0.6873 C   0  0  0  0  0  0  0  0  0  0  0  0
   -3.6638    1.5843    0.3052 C   0  0  0  0  0  0  0  0  0  0  0  0
   -4.4885    1.4640    1.4237 C   0  0  0  0  0  0  0  0  0  0  0  0
   -3.9355    0.8430   -0.8447 C   0  0  0  0  0  0  0  0  0  0  0  0
   -5.5848    0.6023    1.3925 C   0  0  0  0  0  0  0  0  0  0  0  0
   -5.0318   -0.0189   -0.8760 C   0  0  0  0  0  0  0  0  0  0  0  0
   -5.8564   -0.1393    0.2425 C   0  0  0  0  0  0  0  0  0  0  0  0
   -7.1461   -1.7078   -0.9951 C   0  0  0  0  0  0  0  0  0  0  0  0
    3.2530   -1.3767   -1.0800 H   0  0  0  0  0  0  0  0  0  0  0  0
    5.4312   -1.9652    1.0274 H   0  0  0  0  0  0  0  0  0  0  0  0
    5.7846   -0.3994   -1.5810 H   0  0  0  0  0  0  0  0  0  0  0  0
    5.7029    0.8290    1.2284 H   0  0  0  0  0  0  0  0  0  0  0  0
   -0.6651   -2.1002    2.0272 H   0  0  0  0  0  0  0  0  0  0  0  0
    1.1685   -3.8601    1.9474 H   0  0  0  0  0  0  0  0  0  0  0  0
   -1.1383   -1.8167   -0.3634 H   0  0  0  0  0  0  0  0  0  0  0  0
   -2.1278   -4.7135   -0.3834 H   0  0  0  0  0  0  0  0  0  0  0  0
    3.4693    0.9750   -0.8755 H   0  0  0  0  0  0  0  0  0  0  0  0
    3.1235   -2.8164    1.6044 H   0  0  0  0  0  0  0  0  0  0  0  0
    3.0654   -3.6126    0.0059 H   0  0  0  0  0  0  0  0  0  0  0  0
    0.4540   -3.5756   -1.6337 H   0  0  0  0  0  0  0  0  0  0  0  0
   -0.5358   -6.4533   -1.3846 H   0  0  0  0  0  0  0  0  0  0  0  0
   -0.5151   -5.4936   -2.8830 H   0  0  0  0  0  0  0  0  0  0  0  0
    0.9997   -5.9376   -2.0668 H   0  0  0  0  0  0  0  0  0  0  0  0
    5.1644   -2.6492   -1.7226 H   0  0  0  0  0  0  0  0  0  0  0  0
    7.3413   -0.7212    0.7699 H   0  0  0  0  0  0  0  0  0  0  0  0
    5.5374    1.8998   -1.3997 H   0  0  0  0  0  0  0  0  0  0  0  0
   -0.8320   -4.1431    2.9854 H   0  0  0  0  0  0  0  0  0  0  0  0
   -2.8555   -1.6359    1.1169 H   0  0  0  0  0  0  0  0  0  0  0  0
   -1.6245   -2.7866   -2.4180 H   0  0  0  0  0  0  0  0  0  0  0  0
    1.0167    0.8276    0.8546 H   0  0  0  0  0  0  0  0  0  0  0  0
    3.1962    4.4833    0.2021 H   0  0  0  0  0  0  0  0  0  0  0  0
   -2.4333    3.0099    1.3224 H   0  0  0  0  0  0  0  0  0  0  0  0
   -3.4763    4.1850   -0.6213 H   0  0  0  0  0  0  0  0  0  0  0  0
   -2.5874    3.1451   -1.7650 H   0  0  0  0  0  0  0  0  0  0  0  0
   -4.2898    2.0348    2.3269 H   0  0  0  0  0  0  0  0  0  0  0  0
   -3.2972    0.9132   -1.7213 H   0  0  0  0  0  0  0  0  0  0  0  0
    0.2723    6.2248   -0.7600 H   0  0  0  0  0  0  0  0  0  0  0  0
   -6.2236    0.5125    2.2669 H   0  0  0  0  0  0  0  0  0  0  0  0
   -5.1824   -0.5678   -1.7993 H   0  0  0  0  0  0  0  0  0  0  0  0
   -7.3605   -1.0386   -1.8353 H   0  0  0  0  0  0  0  0  0  0  0  0
   -6.3169   -2.3907   -1.2093 H   0  0  0  0  0  0  0  0  0  0  0  0
   -8.0374   -2.3253   -0.8427 H   0  0  0  0  0  0  0  0  0  0  0  0
  1 15  1  0  0  0  0
  1 23  1  0  0  0  0
  2 20  1  0  0  0  0
  2 24  1  0  0  0  0
  3 20  1  0  0  0  0
  3 25  1  0  0  0  0
  4 16  1  0  0  0  0
  4 58  1  0  0  0  0
  5 23  1  0  0  0  0
  5 27  1  0  0  0  0
  6 17  1  0  0  0  0
  6 59  1  0  0  0  0
  7 18  1  0  0  0  0
  7 60  1  0  0  0  0
  8 19  1  0  0  0  0
  8 61  1  0  0  0  0
  9 21  1  0  0  0  0
  9 62  1  0  0  0  0
 10 22  1  0  0  0  0
 10 63  1  0  0  0  0
 11 29  1  0  0  0  0
 11 32  1  0  0  0  0
 12 34  1  0  0  0  0
 12 71  1  0  0  0  0
 13 35  2  0  0  0  0
 14 41  1  0  0  0  0
 14 42  1  0  0  0  0
 15 16  1  0  0  0  0
 15 24  1  0  0  0  0
 15 43  1  0  0  0  0
 16 17  1  0  0  0  0
 16 44  1  0  0  0  0
 17 18  1  0  0  0  0
 17 45  1  0  0  0  0
 18 23  1  0  0  0  0
 18 46  1  0  0  0  0
 19 20  1  0  0  0  0
 19 21  1  0  0  0  0
 19 47  1  0  0  0  0
 20 48  1  0  0  0  0
 21 22  1  0  0  0  0
 21 49  1  0  0  0  0
 22 25  1  0  0  0  0
 22 50  1  0  0  0  0
 23 51  1  0  0  0  0
 24 52  1  0  0  0  0
 24 53  1  0  0  0  0
 25 26  1  0  0  0  0
 25 54  1  0  0  0  0
 26 55  1  0  0  0  0
 26 56  1  0  0  0  0
 26 57  1  0  0  0  0
 27 28  1  0  0  0  0
 27 30  2  0  0  0  0
 28 29  2  0  0  0  0
 28 64  1  0  0  0  0
 29 31  1  0  0  0  0
 30 34  1  0  0  0  0
 30 65  1  0  0  0  0
 31 34  2  0  0  0  0
 31 35  1  0  0  0  0
 32 33  1  0  0  0  0
 32 36  1  0  0  0  0
 32 66  1  0  0  0  0
 33 35  1  0  0  0  0
 33 67  1  0  0  0  0
 33 68  1  0  0  0  0
 36 37  2  0  0  0  0
 36 38  1  0  0  0  0
 37 39  1  0  0  0  0
 37 69  1  0  0  0  0
 38 40  2  0  0  0  0
 38 70  1  0  0  0  0
 39 41  2  0  0  0  0
 39 72  1  0  0  0  0
 40 41  1  0  0  0  0
 40 73  1  0  0  0  0
 42 74  1  0  0  0  0
 42 75  1  0  0  0  0
 42 76  1  0  0  0  0
M  END
> <PUBCHEM_COMPOUND_CID>
16760075

> <PUBCHEM_CONFORMER_RMSD>
1.4

> <PUBCHEM_CONFORMER_DIVERSEORDER>
1
62
67
76
78
99
93
24
73
59
131
7
47
21
158
4
42
146
61
118
124
34
154
90
160
102
112
122
46
55
116
70
44
126
57
49
103
18
22
81
97
132
121
66
147
100
96
74
75
136
39
68
29
85
79
120
155
31
144
140
141
65
12
135
98
64
20
101
95
134
159
153
138
19
51
48
82
45
137
152
129
26
36
10
117
133
40
113
83
41
88
145
86
17
105
149
114
84
156
109
80
77
63
127
32
107
143
58
150
151
23
14
50
123
72
128
25
119
56
87
110
11
89
54
27
125
92
104
130
60
2
91
30
148
35
69
94
53
71
13
111
157
106
38
37
142
8
16
5
108
115
33
52
9
3
139
15
43
6
28

> <PUBCHEM_MMFF94_PARTIAL_CHARGES>
54
1 -0.56
10 -0.68
11 -0.36
12 -0.53
13 -0.57
14 -0.36
15 0.28
16 0.28
17 0.28
18 0.28
19 0.28
2 -0.56
20 0.56
21 0.28
22 0.28
23 0.56
24 0.28
25 0.28
27 0.08
28 -0.15
29 0.08
3 -0.56
30 -0.15
31 0.09
32 0.42
33 0.06
34 0.08
35 0.42
36 -0.14
37 -0.15
38 -0.15
39 -0.15
4 -0.68
40 -0.15
41 0.08
42 0.28
5 -0.36
58 0.4
59 0.4
6 -0.68
60 0.4
61 0.4
62 0.4
63 0.4
64 0.15
65 0.15
69 0.15
7 -0.68
70 0.15
71 0.45
72 0.15
73 0.15
8 -0.68
9 -0.68

> <PUBCHEM_EFFECTIVE_ROTOR_COUNT>
10

> <PUBCHEM_PHARMACOPHORE_FEATURES>
25
1 1 acceptor
1 10 acceptor
1 10 donor
1 11 acceptor
1 12 donor
1 13 acceptor
1 14 acceptor
1 2 acceptor
1 3 acceptor
1 4 acceptor
1 4 donor
1 5 acceptor
1 6 acceptor
1 6 donor
1 7 acceptor
1 7 donor
1 8 acceptor
1 8 donor
1 9 acceptor
1 9 donor
6 1 15 16 17 18 23 rings
6 11 29 31 32 33 35 rings
6 27 28 29 30 31 34 rings
6 3 19 20 21 22 25 rings
6 36 37 38 39 40 41 rings

> <PUBCHEM_HEAVY_ATOM_COUNT>
42

> <PUBCHEM_ATOM_DEF_STEREO_COUNT>
11

> <PUBCHEM_ATOM_UDEF_STEREO_COUNT>
0

> <PUBCHEM_BOND_DEF_STEREO_COUNT>
0

> <PUBCHEM_BOND_UDEF_STEREO_COUNT>
0

> <PUBCHEM_ISOTOPIC_ATOM_COUNT>
0

> <PUBCHEM_COMPONENT_COUNT>
1

> <PUBCHEM_CACTVS_TAUTO_COUNT>
9

> <PUBCHEM_CONFORMER_ID>
00FFBD0B00000001

> <PUBCHEM_MMFF94_ENERGY>
140.3548

> <PUBCHEM_FEATURE_SELFOVERLAP>
127.044

> <PUBCHEM_SHAPE_FINGERPRINT>
10462674 296 17765432441611047926
11136131 41 17899971639408031314
11227688 84 18267007376475224357
11513181 2 17476930515866716612
13383661 66 17844259423587401150
1361 2 18409729590608175537
14143925 63 18410583863792692526
14394314 77 18337959974502412593
14415361 349 18126851723012889348
144659 178 18262805189152494620
15001296 14 18190730033092831507
15320291 9 17690269834792912928
15320467 1 18410011035234979202
15538507 32 18338524131431250028
15721738 15 16037148738387544023
15961568 22 18339364042350805687
16112460 7 18342465837007193241
16628084 112 18336824178563457030
19319366 153 17822009809424872938
19611394 137 18115324370557474835
20028762 73 18343582962659807471
20764821 26 18265610060014122428
21133410 62 18041825256492547967
21792965 11 17467917363692397039
3882209 13 17476320231305721922
463206 1 18409735092646222240
50677037 204 18270945947031086814
5309563 4 18336826395046046297
6608658 132 18339912737007137055
9961470 85 18123183769544525937

> <PUBCHEM_SHAPE_MULTIPOLES>
782.17
13.66
9.25
1.29
0.28
1
-0.03
-2.8
0.6
-0.25
2.87
0.99
-1.23
-0.07

> <PUBCHEM_SHAPE_SELFOVERLAP>
1685.104

> <PUBCHEM_SHAPE_VOLUME>
425.3

> <PUBCHEM_COORDINATE_TYPE>
2
5
10

$$$$
