9578304
  -OEChem-11232016162D

251257  0     1  0  0  0  0  0999 V2000
   10.6603   -1.6911    0.0000 P   0  0  3  0  0  0  0  0  0  0  0  0
   24.5498   12.5124    0.0000 O   0  0  0  0  0  0  0  0  0  0  0  0
   22.7846    7.3089    0.0000 O   0  0  0  0  0  0  0  0  0  0  0  0
   20.9456   16.0261    0.0000 O   0  0  0  0  0  0  0  0  0  0  0  0
   21.0526    7.3089    0.0000 O   0  0  0  0  0  0  0  0  0  0  0  0
   21.5807   17.6911    0.0000 O   0  0  0  0  0  0  0  0  0  0  0  0
   22.7846    5.3089    0.0000 O   0  0  0  0  0  0  0  0  0  0  0  0
   21.0526    4.3089    0.0000 O   0  0  0  0  0  0  0  0  0  0  0  0
   19.3205    5.3089    0.0000 O   0  0  0  0  0  0  0  0  0  0  0  0
   18.4545    6.8089    0.0000 O   0  0  0  0  0  0  0  0  0  0  0  0
   15.8564    5.3089    0.0000 O   0  0  0  0  0  0  0  0  0  0  0  0
   15.8564    7.3089    0.0000 O   0  0  0  0  0  0  0  0  0  0  0  0
   14.1244    7.3089    0.0000 O   0  0  0  0  0  0  0  0  0  0  0  0
   13.2583    3.8089    0.0000 O   0  0  0  0  0  0  0  0  0  0  0  0
   12.3923   10.3089    0.0000 O   0  0  0  0  0  0  0  0  0  0  0  0
   11.5263    2.8089    0.0000 O   0  0  0  0  0  0  0  0  0  0  0  0
   11.5263   12.8089    0.0000 O   0  0  0  0  0  0  0  0  0  0  0  0
   10.6603   11.3089    0.0000 O   0  0  0  0  0  0  0  0  0  0  0  0
   10.6603   -0.6911    0.0000 O   0  0  0  0  0  0  0  0  0  0  0  0
   10.6603   -2.6911    0.0000 O   0  0  0  0  0  0  0  0  0  0  0  0
    9.6602   -1.6911    0.0000 O   0  0  0  0  0  0  0  0  0  0  0  0
   11.6603   -1.6911    0.0000 O   0  0  0  0  0  0  0  0  0  0  0  0
    8.9282   -4.6911    0.0000 O   0  0  0  0  0  0  0  0  0  0  0  0
   10.6603   -5.6911    0.0000 O   0  0  0  0  0  0  0  0  0  0  0  0
    9.7942   -6.1911    0.0000 O   0  0  0  0  0  0  0  0  0  0  0  0
   12.3923   -5.6911    0.0000 O   0  0  0  0  0  0  0  0  0  0  0  0
   14.1244    4.3089    0.0000 N   0  0  0  0  0  0  0  0  0  0  0  0
   13.2583    9.8089    0.0000 N   0  0  0  0  0  0  0  0  0  0  0  0
   12.3923    1.3089    0.0000 N   0  0  0  0  0  0  0  0  0  0  0  0
   23.6818   13.0091    0.0000 C   0  0  3  0  0  0  0  0  0  0  0  0
   23.6857   12.0091    0.0000 C   0  0  3  0  0  0  0  0  0  0  0  0
   22.8216   11.5058    0.0000 C   0  0  3  0  0  0  0  0  0  0  0  0
   22.8139   13.5057    0.0000 C   0  0  3  0  0  0  0  0  0  0  0  0
   22.8095   10.4642    0.0000 C   0  0  3  0  0  0  0  0  0  0  0  0
   23.7096    9.9399    0.0000 C   0  0  3  0  0  0  0  0  0  0  0  0
   21.9536   12.0024    0.0000 C   0  0  0  0  0  0  0  0  0  0  0  0
   21.9498   13.0024    0.0000 C   0  0  0  0  0  0  0  0  0  0  0  0
   23.0193   14.4784    0.0000 C   0  0  3  0  0  0  0  0  0  0  0  0
   24.5976   11.5058    0.0000 C   0  0  0  0  0  0  0  0  0  0  0  0
   24.4163   13.6790    0.0000 C   0  0  0  0  0  0  0  0  0  0  0  0
   24.6097   10.4642    0.0000 C   0  0  0  0  0  0  0  0  0  0  0  0
   24.0076   14.5852    0.0000 C   0  0  0  0  0  0  0  0  0  0  0  0
   21.8596    9.9399    0.0000 C   0  0  0  0  0  0  0  0  0  0  0  0
   23.7221    8.8550    0.0000 C   0  0  0  0  0  0  0  0  0  0  0  0
   21.9459   14.0024    0.0000 C   0  0  0  0  0  0  0  0  0  0  0  0
   21.9454   10.9675    0.0000 C   0  0  0  0  0  0  0  0  0  0  0  0
   21.8471    8.8550    0.0000 C   0  0  0  0  0  0  0  0  0  0  0  0
   22.7846    8.3089    0.0000 C   0  0  3  0  0  0  0  0  0  0  0  0
   22.3486   15.2201    0.0000 C   0  0  0  0  0  0  0  0  0  0  0  0
   21.3543   15.1134    0.0000 C   0  0  0  0  0  0  0  0  0  0  0  0
   22.5545   16.1987    0.0000 C   0  0  0  0  0  0  0  0  0  0  0  0
   21.9186    6.8089    0.0000 C   0  0  3  0  0  0  0  0  0  0  0  0
   21.6874   16.6968    0.0000 C   0  0  0  0  0  0  0  0  0  0  0  0
   21.9186    5.8089    0.0000 C   0  0  3  0  0  0  0  0  0  0  0  0
   21.0526    5.3089    0.0000 C   0  0  3  0  0  0  0  0  0  0  0  0
   20.1865    6.8089    0.0000 C   0  0  3  0  0  0  0  0  0  0  0  0
   20.1865    5.8089    0.0000 C   0  0  3  0  0  0  0  0  0  0  0  0
   19.3205    7.3089    0.0000 C   0  0  0  0  0  0  0  0  0  0  0  0
   18.4545    5.8089    0.0000 C   0  0  3  0  0  0  0  0  0  0  0  0
   17.5885    5.3089    0.0000 C   0  0  0  0  0  0  0  0  0  0  0  0
   16.7224    5.8089    0.0000 C   0  0  3  0  0  0  0  0  0  0  0  0
   17.5885    7.3089    0.0000 C   0  0  3  0  0  0  0  0  0  0  0  0
   16.7224    6.8089    0.0000 C   0  0  3  0  0  0  0  0  0  0  0  0
   17.5885    8.3089    0.0000 C   0  0  0  0  0  0  0  0  0  0  0  0
   14.9904    6.8089    0.0000 C   0  0  3  0  0  0  0  0  0  0  0  0
   14.9904    5.8089    0.0000 C   0  0  0  0  0  0  0  0  0  0  0  0
   14.1244    8.3089    0.0000 C   0  0  3  0  0  0  0  0  0  0  0  0
   14.1244    5.3089    0.0000 C   0  0  0  0  0  0  0  0  0  0  0  0
   14.9904    8.8089    0.0000 C   0  0  0  0  0  0  0  0  0  0  0  0
   13.2583    8.8089    0.0000 C   0  0  0  0  0  0  0  0  0  0  0  0
   13.2583    2.8089    0.0000 C   0  0  0  0  0  0  0  0  0  0  0  0
   12.3923    2.3089    0.0000 C   0  0  0  0  0  0  0  0  0  0  0  0
   12.3923   11.3089    0.0000 C   0  0  0  0  0  0  0  0  0  0  0  0
   11.5263   11.8089    0.0000 C   0  0  0  0  0  0  0  0  0  0  0  0
   11.5263    0.8089    0.0000 C   0  0  0  0  0  0  0  0  0  0  0  0
   11.5263   -0.1911    0.0000 C   0  0  0  0  0  0  0  0  0  0  0  0
    9.7942   -3.1911    0.0000 C   0  0  0  0  0  0  0  0  0  0  0  0
    9.7942   -4.1911    0.0000 C   0  0  3  0  0  0  0  0  0  0  0  0
   10.6603   -4.6911    0.0000 C   0  0  0  0  0  0  0  0  0  0  0  0
    8.9282   -5.6911    0.0000 C   0  0  0  0  0  0  0  0  0  0  0  0
    8.0622   -6.1911    0.0000 C   0  0  0  0  0  0  0  0  0  0  0  0
   11.5263   -6.1911    0.0000 C   0  0  0  0  0  0  0  0  0  0  0  0
    8.0622   -7.1911    0.0000 C   0  0  0  0  0  0  0  0  0  0  0  0
    5.4641  -10.6911    0.0000 C   0  0  0  0  0  0  0  0  0  0  0  0
    6.3301  -10.1911    0.0000 C   0  0  0  0  0  0  0  0  0  0  0  0
    5.4641  -11.6911    0.0000 C   0  0  0  0  0  0  0  0  0  0  0  0
    7.1962   -7.6911    0.0000 C   0  0  0  0  0  0  0  0  0  0  0  0
    6.3301   -9.1911    0.0000 C   0  0  0  0  0  0  0  0  0  0  0  0
   14.1244  -11.6911    0.0000 C   0  0  0  0  0  0  0  0  0  0  0  0
    7.1962   -8.6911    0.0000 C   0  0  0  0  0  0  0  0  0  0  0  0
   14.9904  -12.1911    0.0000 C   0  0  0  0  0  0  0  0  0  0  0  0
    4.5981  -12.1911    0.0000 C   0  0  0  0  0  0  0  0  0  0  0  0
   14.1244  -10.6911    0.0000 C   0  0  0  0  0  0  0  0  0  0  0  0
   14.9904  -13.1911    0.0000 C   0  0  0  0  0  0  0  0  0  0  0  0
   13.2583  -10.1911    0.0000 C   0  0  0  0  0  0  0  0  0  0  0  0
    4.5981  -13.1911    0.0000 C   0  0  0  0  0  0  0  0  0  0  0  0
   11.5263   -7.1911    0.0000 C   0  0  0  0  0  0  0  0  0  0  0  0
   15.8564  -13.6911    0.0000 C   0  0  0  0  0  0  0  0  0  0  0  0
   13.2583   -9.1911    0.0000 C   0  0  0  0  0  0  0  0  0  0  0  0
   12.3923   -8.6911    0.0000 C   0  0  0  0  0  0  0  0  0  0  0  0
   12.3923   -7.6911    0.0000 C   0  0  0  0  0  0  0  0  0  0  0  0
    3.7320  -13.6911    0.0000 C   0  0  0  0  0  0  0  0  0  0  0  0
   15.8564  -14.6911    0.0000 C   0  0  0  0  0  0  0  0  0  0  0  0
    3.7320  -14.6911    0.0000 C   0  0  0  0  0  0  0  0  0  0  0  0
   16.7224  -15.1911    0.0000 C   0  0  0  0  0  0  0  0  0  0  0  0
    2.8660  -15.1911    0.0000 C   0  0  0  0  0  0  0  0  0  0  0  0
   16.7224  -16.1911    0.0000 C   0  0  0  0  0  0  0  0  0  0  0  0
    2.8660  -16.1911    0.0000 C   0  0  0  0  0  0  0  0  0  0  0  0
   17.5885  -16.6911    0.0000 C   0  0  0  0  0  0  0  0  0  0  0  0
    2.0000  -16.6911    0.0000 C   0  0  0  0  0  0  0  0  0  0  0  0
   17.5885  -17.6911    0.0000 C   0  0  0  0  0  0  0  0  0  0  0  0
   24.2190   12.3253    0.0000 H   0  0  0  0  0  0  0  0  0  0  0  0
   23.3573   11.1937    0.0000 H   0  0  0  0  0  0  0  0  0  0  0  0
   24.2489    9.6341    0.0000 H   0  0  0  0  0  0  0  0  0  0  0  0
   21.3426   12.1077    0.0000 H   0  0  0  0  0  0  0  0  0  0  0  0
   21.7438   11.4190    0.0000 H   0  0  0  0  0  0  0  0  0  0  0  0
   21.7355   13.5842    0.0000 H   0  0  0  0  0  0  0  0  0  0  0  0
   21.3396   12.8924    0.0000 H   0  0  0  0  0  0  0  0  0  0  0  0
   23.2400   15.0577    0.0000 H   0  0  0  0  0  0  0  0  0  0  0  0
   25.2097   11.4067    0.0000 H   0  0  0  0  0  0  0  0  0  0  0  0
   24.7999   12.0918    0.0000 H   0  0  0  0  0  0  0  0  0  0  0  0
   24.7836   13.1796    0.0000 H   0  0  0  0  0  0  0  0  0  0  0  0
   24.9515   13.9918    0.0000 H   0  0  0  0  0  0  0  0  0  0  0  0
   24.8255    9.8830    0.0000 H   0  0  0  0  0  0  0  0  0  0  0  0
   25.2193   10.5773    0.0000 H   0  0  0  0  0  0  0  0  0  0  0  0
   24.5965   14.7793    0.0000 H   0  0  0  0  0  0  0  0  0  0  0  0
   23.8766   15.1912    0.0000 H   0  0  0  0  0  0  0  0  0  0  0  0
   21.6573   10.5260    0.0000 H   0  0  0  0  0  0  0  0  0  0  0  0
   21.2476    9.8409    0.0000 H   0  0  0  0  0  0  0  0  0  0  0  0
   23.9379    8.2738    0.0000 H   0  0  0  0  0  0  0  0  0  0  0  0
   24.3317    8.9681    0.0000 H   0  0  0  0  0  0  0  0  0  0  0  0
   22.2539   14.5405    0.0000 H   0  0  0  0  0  0  0  0  0  0  0  0
   21.4078   14.3103    0.0000 H   0  0  0  0  0  0  0  0  0  0  0  0
   21.6380   13.4643    0.0000 H   0  0  0  0  0  0  0  0  0  0  0  0
   22.2575   11.5033    0.0000 H   0  0  0  0  0  0  0  0  0  0  0  0
   21.4097   11.2796    0.0000 H   0  0  0  0  0  0  0  0  0  0  0  0
   21.6334   10.4318    0.0000 H   0  0  0  0  0  0  0  0  0  0  0  0
   21.2375    8.9681    0.0000 H   0  0  0  0  0  0  0  0  0  0  0  0
   21.6313    8.2738    0.0000 H   0  0  0  0  0  0  0  0  0  0  0  0
   22.2471    7.9999    0.0000 H   0  0  0  0  0  0  0  0  0  0  0  0
   25.0855   12.8245    0.0000 H   0  0  0  0  0  0  0  0  0  0  0  0
   20.7651   14.9206    0.0000 H   0  0  0  0  0  0  0  0  0  0  0  0
   21.4845   14.5073    0.0000 H   0  0  0  0  0  0  0  0  0  0  0  0
   23.1203   16.4520    0.0000 H   0  0  0  0  0  0  0  0  0  0  0  0
   22.4555    6.4989    0.0000 H   0  0  0  0  0  0  0  0  0  0  0  0
   21.9186    5.1889    0.0000 H   0  0  0  0  0  0  0  0  0  0  0  0
   20.5156    4.9989    0.0000 H   0  0  0  0  0  0  0  0  0  0  0  0
   20.1865    7.4289    0.0000 H   0  0  0  0  0  0  0  0  0  0  0  0
   20.1865    5.1889    0.0000 H   0  0  0  0  0  0  0  0  0  0  0  0
   23.3215    5.6189    0.0000 H   0  0  0  0  0  0  0  0  0  0  0  0
   19.6305    7.8458    0.0000 H   0  0  0  0  0  0  0  0  0  0  0  0
   18.7836    7.6189    0.0000 H   0  0  0  0  0  0  0  0  0  0  0  0
   19.0105    6.7719    0.0000 H   0  0  0  0  0  0  0  0  0  0  0  0
   21.5895    3.9989    0.0000 H   0  0  0  0  0  0  0  0  0  0  0  0
   18.4545    5.1889    0.0000 H   0  0  0  0  0  0  0  0  0  0  0  0
   17.1899    4.8339    0.0000 H   0  0  0  0  0  0  0  0  0  0  0  0
   17.9870    4.8339    0.0000 H   0  0  0  0  0  0  0  0  0  0  0  0
   16.1855    6.1189    0.0000 H   0  0  0  0  0  0  0  0  0  0  0  0
   18.1254    7.6189    0.0000 H   0  0  0  0  0  0  0  0  0  0  0  0
   16.7224    7.4289    0.0000 H   0  0  0  0  0  0  0  0  0  0  0  0
   18.2085    8.3089    0.0000 H   0  0  0  0  0  0  0  0  0  0  0  0
   17.5885    8.9289    0.0000 H   0  0  0  0  0  0  0  0  0  0  0  0
   16.9685    8.3089    0.0000 H   0  0  0  0  0  0  0  0  0  0  0  0
   15.8564    4.6889    0.0000 H   0  0  0  0  0  0  0  0  0  0  0  0
   14.4534    6.4989    0.0000 H   0  0  0  0  0  0  0  0  0  0  0  0
   15.2024    5.2263    0.0000 H   0  0  0  0  0  0  0  0  0  0  0  0
   15.6010    5.9165    0.0000 H   0  0  0  0  0  0  0  0  0  0  0  0
   14.6613    7.9989    0.0000 H   0  0  0  0  0  0  0  0  0  0  0  0
   13.5874    5.6189    0.0000 H   0  0  0  0  0  0  0  0  0  0  0  0
   15.3004    8.2719    0.0000 H   0  0  0  0  0  0  0  0  0  0  0  0
   15.5273    9.1189    0.0000 H   0  0  0  0  0  0  0  0  0  0  0  0
   14.6804    9.3458    0.0000 H   0  0  0  0  0  0  0  0  0  0  0  0
   12.7214    8.4989    0.0000 H   0  0  0  0  0  0  0  0  0  0  0  0
   13.4704    2.2263    0.0000 H   0  0  0  0  0  0  0  0  0  0  0  0
   13.8689    2.9165    0.0000 H   0  0  0  0  0  0  0  0  0  0  0  0
   13.0029   11.2012    0.0000 H   0  0  0  0  0  0  0  0  0  0  0  0
   12.6044   11.8915    0.0000 H   0  0  0  0  0  0  0  0  0  0  0  0
   12.9292    0.9989    0.0000 H   0  0  0  0  0  0  0  0  0  0  0  0
   11.3142    1.3915    0.0000 H   0  0  0  0  0  0  0  0  0  0  0  0
   10.9157    0.7012    0.0000 H   0  0  0  0  0  0  0  0  0  0  0  0
   10.9893   13.1189    0.0000 H   0  0  0  0  0  0  0  0  0  0  0  0
   11.7383   -0.7737    0.0000 H   0  0  0  0  0  0  0  0  0  0  0  0
   12.1369   -0.0835    0.0000 H   0  0  0  0  0  0  0  0  0  0  0  0
    9.3503   -1.1542    0.0000 H   0  0  0  0  0  0  0  0  0  0  0  0
    9.5822   -2.6085    0.0000 H   0  0  0  0  0  0  0  0  0  0  0  0
    9.1836   -3.2988    0.0000 H   0  0  0  0  0  0  0  0  0  0  0  0
    9.7942   -4.8111    0.0000 H   0  0  0  0  0  0  0  0  0  0  0  0
   11.2708   -4.7988    0.0000 H   0  0  0  0  0  0  0  0  0  0  0  0
   10.8723   -4.1085    0.0000 H   0  0  0  0  0  0  0  0  0  0  0  0
    7.8501   -5.6085    0.0000 H   0  0  0  0  0  0  0  0  0  0  0  0
    7.4516   -6.2988    0.0000 H   0  0  0  0  0  0  0  0  0  0  0  0
    8.2742   -7.7737    0.0000 H   0  0  0  0  0  0  0  0  0  0  0  0
    8.6728   -7.0835    0.0000 H   0  0  0  0  0  0  0  0  0  0  0  0
    5.2520  -10.1085    0.0000 H   0  0  0  0  0  0  0  0  0  0  0  0
    4.8535  -10.7988    0.0000 H   0  0  0  0  0  0  0  0  0  0  0  0
    6.5422  -10.7737    0.0000 H   0  0  0  0  0  0  0  0  0  0  0  0
    6.9407  -10.0835    0.0000 H   0  0  0  0  0  0  0  0  0  0  0  0
    5.6762  -12.2737    0.0000 H   0  0  0  0  0  0  0  0  0  0  0  0
    6.0747  -11.5835    0.0000 H   0  0  0  0  0  0  0  0  0  0  0  0
    6.1181   -8.6085    0.0000 H   0  0  0  0  0  0  0  0  0  0  0  0
    5.7196   -9.2988    0.0000 H   0  0  0  0  0  0  0  0  0  0  0  0
   13.5138  -11.5835    0.0000 H   0  0  0  0  0  0  0  0  0  0  0  0
   13.9123  -12.2737    0.0000 H   0  0  0  0  0  0  0  0  0  0  0  0
   15.6010  -12.2988    0.0000 H   0  0  0  0  0  0  0  0  0  0  0  0
   15.2024  -11.6085    0.0000 H   0  0  0  0  0  0  0  0  0  0  0  0
    6.9841   -7.1085    0.0000 H   0  0  0  0  0  0  0  0  0  0  0  0
    6.5856   -7.7988    0.0000 H   0  0  0  0  0  0  0  0  0  0  0  0
    4.3860  -11.6085    0.0000 H   0  0  0  0  0  0  0  0  0  0  0  0
    3.9875  -12.2988    0.0000 H   0  0  0  0  0  0  0  0  0  0  0  0
    7.4082   -9.2737    0.0000 H   0  0  0  0  0  0  0  0  0  0  0  0
    7.8067   -8.5835    0.0000 H   0  0  0  0  0  0  0  0  0  0  0  0
   14.7349  -10.7988    0.0000 H   0  0  0  0  0  0  0  0  0  0  0  0
   14.3364  -10.1085    0.0000 H   0  0  0  0  0  0  0  0  0  0  0  0
   14.3798  -13.0835    0.0000 H   0  0  0  0  0  0  0  0  0  0  0  0
   14.7783  -13.7737    0.0000 H   0  0  0  0  0  0  0  0  0  0  0  0
   12.6477  -10.0835    0.0000 H   0  0  0  0  0  0  0  0  0  0  0  0
   13.0463  -10.7737    0.0000 H   0  0  0  0  0  0  0  0  0  0  0  0
    4.8101  -13.7737    0.0000 H   0  0  0  0  0  0  0  0  0  0  0  0
    5.2087  -13.0835    0.0000 H   0  0  0  0  0  0  0  0  0  0  0  0
   16.4670  -13.7988    0.0000 H   0  0  0  0  0  0  0  0  0  0  0  0
   16.0685  -13.1085    0.0000 H   0  0  0  0  0  0  0  0  0  0  0  0
   13.8689   -9.2988    0.0000 H   0  0  0  0  0  0  0  0  0  0  0  0
   13.4704   -8.6085    0.0000 H   0  0  0  0  0  0  0  0  0  0  0  0
   10.9157   -7.0835    0.0000 H   0  0  0  0  0  0  0  0  0  0  0  0
   11.3142   -7.7737    0.0000 H   0  0  0  0  0  0  0  0  0  0  0  0
   11.7817   -8.5835    0.0000 H   0  0  0  0  0  0  0  0  0  0  0  0
   12.1803   -9.2737    0.0000 H   0  0  0  0  0  0  0  0  0  0  0  0
    3.5200  -13.1085    0.0000 H   0  0  0  0  0  0  0  0  0  0  0  0
    3.1215  -13.7988    0.0000 H   0  0  0  0  0  0  0  0  0  0  0  0
   15.2458  -14.5835    0.0000 H   0  0  0  0  0  0  0  0  0  0  0  0
   15.6444  -15.2737    0.0000 H   0  0  0  0  0  0  0  0  0  0  0  0
   13.0029   -7.7988    0.0000 H   0  0  0  0  0  0  0  0  0  0  0  0
   12.6044   -7.1085    0.0000 H   0  0  0  0  0  0  0  0  0  0  0  0
    3.9441  -15.2737    0.0000 H   0  0  0  0  0  0  0  0  0  0  0  0
    4.3426  -14.5835    0.0000 H   0  0  0  0  0  0  0  0  0  0  0  0
   17.3330  -15.2988    0.0000 H   0  0  0  0  0  0  0  0  0  0  0  0
   16.9345  -14.6085    0.0000 H   0  0  0  0  0  0  0  0  0  0  0  0
    2.6540  -14.6085    0.0000 H   0  0  0  0  0  0  0  0  0  0  0  0
    2.2554  -15.2988    0.0000 H   0  0  0  0  0  0  0  0  0  0  0  0
   16.1119  -16.0835    0.0000 H   0  0  0  0  0  0  0  0  0  0  0  0
   16.5104  -16.7737    0.0000 H   0  0  0  0  0  0  0  0  0  0  0  0
    3.0781  -16.7737    0.0000 H   0  0  0  0  0  0  0  0  0  0  0  0
    3.4766  -16.0835    0.0000 H   0  0  0  0  0  0  0  0  0  0  0  0
   18.1990  -16.7988    0.0000 H   0  0  0  0  0  0  0  0  0  0  0  0
   17.8005  -16.1085    0.0000 H   0  0  0  0  0  0  0  0  0  0  0  0
    1.6900  -16.1542    0.0000 H   0  0  0  0  0  0  0  0  0  0  0  0
    1.4631  -17.0011    0.0000 H   0  0  0  0  0  0  0  0  0  0  0  0
    2.3100  -17.2281    0.0000 H   0  0  0  0  0  0  0  0  0  0  0  0
   16.9685  -17.6911    0.0000 H   0  0  0  0  0  0  0  0  0  0  0  0
   17.5885  -18.3111    0.0000 H   0  0  0  0  0  0  0  0  0  0  0  0
   18.2085  -17.6911    0.0000 H   0  0  0  0  0  0  0  0  0  0  0  0
  1 19  1  0  0  0  0
  1 20  1  0  0  0  0
  1 21  1  0  0  0  0
  1 22  2  0  0  0  0
  2 30  1  0  0  0  0
  2141  1  0  0  0  0
  3 48  1  0  0  0  0
  3 52  1  0  0  0  0
  4 50  1  0  0  0  0
  4 53  1  0  0  0  0
  5 52  1  0  0  0  0
  5 56  1  0  0  0  0
  6 53  2  0  0  0  0
  7 54  1  0  0  0  0
  7150  1  0  0  0  0
  8 55  1  0  0  0  0
  8154  1  0  0  0  0
  9 57  1  0  0  0  0
  9 59  1  0  0  0  0
 10 59  1  0  0  0  0
 10 62  1  0  0  0  0
 11 61  1  0  0  0  0
 11164  1  0  0  0  0
 12 63  1  0  0  0  0
 12 65  1  0  0  0  0
 13 65  1  0  0  0  0
 13 67  1  0  0  0  0
 14 27  1  0  0  0  0
 14 71  1  0  0  0  0
 15 28  1  0  0  0  0
 15 73  1  0  0  0  0
 16 72  2  0  0  0  0
 17 74  1  0  0  0  0
 17181  1  0  0  0  0
 18 74  2  0  0  0  0
 19 76  1  0  0  0  0
 20 77  1  0  0  0  0
 21184  1  0  0  0  0
 23 78  1  0  0  0  0
 23 80  1  0  0  0  0
 24 79  1  0  0  0  0
 24 82  1  0  0  0  0
 25 80  2  0  0  0  0
 26 82  2  0  0  0  0
 27 68  2  0  0  0  0
 28 70  2  0  0  0  0
 29 72  1  0  0  0  0
 29 75  1  0  0  0  0
 29178  1  0  0  0  0
 30 31  1  0  0  0  0
 30 33  1  0  0  0  0
 30 40  1  0  0  0  0
 31 32  1  0  0  0  0
 31 39  1  0  0  0  0
 31112  1  0  0  0  0
 32 34  1  0  0  0  0
 32 36  1  0  0  0  0
 32113  1  0  0  0  0
 33 37  1  0  0  0  0
 33 38  1  0  0  0  0
 33 45  1  0  0  0  0
 34 35  1  0  0  0  0
 34 43  1  0  0  0  0
 34 46  1  0  0  0  0
 35 41  1  0  0  0  0
 35 44  1  0  0  0  0
 35114  1  0  0  0  0
 36 37  1  0  0  0  0
 36115  1  0  0  0  0
 36116  1  0  0  0  0
 37117  1  0  0  0  0
 37118  1  0  0  0  0
 38 42  1  0  0  0  0
 38 49  1  0  0  0  0
 38119  1  0  0  0  0
 39 41  1  0  0  0  0
 39120  1  0  0  0  0
 39121  1  0  0  0  0
 40 42  1  0  0  0  0
 40122  1  0  0  0  0
 40123  1  0  0  0  0
 41124  1  0  0  0  0
 41125  1  0  0  0  0
 42126  1  0  0  0  0
 42127  1  0  0  0  0
 43 47  1  0  0  0  0
 43128  1  0  0  0  0
 43129  1  0  0  0  0
 44 48  1  0  0  0  0
 44130  1  0  0  0  0
 44131  1  0  0  0  0
 45132  1  0  0  0  0
 45133  1  0  0  0  0
 45134  1  0  0  0  0
 46135  1  0  0  0  0
 46136  1  0  0  0  0
 46137  1  0  0  0  0
 47 48  1  0  0  0  0
 47138  1  0  0  0  0
 47139  1  0  0  0  0
 48140  1  0  0  0  0
 49 50  1  0  0  0  0
 49 51  2  0  0  0  0
 50142  1  0  0  0  0
 50143  1  0  0  0  0
 51 53  1  0  0  0  0
 51144  1  0  0  0  0
 52 54  1  0  0  0  0
 52145  1  0  0  0  0
 54 55  1  0  0  0  0
 54146  1  0  0  0  0
 55 57  1  0  0  0  0
 55147  1  0  0  0  0
 56 57  1  0  0  0  0
 56 58  1  0  0  0  0
 56148  1  0  0  0  0
 57149  1  0  0  0  0
 58151  1  0  0  0  0
 58152  1  0  0  0  0
 58153  1  0  0  0  0
 59 60  1  0  0  0  0
 59155  1  0  0  0  0
 60 61  1  0  0  0  0
 60156  1  0  0  0  0
 60157  1  0  0  0  0
 61 63  1  0  0  0  0
 61158  1  0  0  0  0
 62 63  1  0  0  0  0
 62 64  1  0  0  0  0
 62159  1  0  0  0  0
 63160  1  0  0  0  0
 64161  1  0  0  0  0
 64162  1  0  0  0  0
 64163  1  0  0  0  0
 65 66  1  0  0  0  0
 65165  1  0  0  0  0
 66 68  1  0  0  0  0
 66166  1  0  0  0  0
 66167  1  0  0  0  0
 67 69  1  0  0  0  0
 67 70  1  0  0  0  0
 67168  1  0  0  0  0
 68169  1  0  0  0  0
 69170  1  0  0  0  0
 69171  1  0  0  0  0
 69172  1  0  0  0  0
 70173  1  0  0  0  0
 71 72  1  0  0  0  0
 71174  1  0  0  0  0
 71175  1  0  0  0  0
 73 74  1  0  0  0  0
 73176  1  0  0  0  0
 73177  1  0  0  0  0
 75 76  1  0  0  0  0
 75179  1  0  0  0  0
 75180  1  0  0  0  0
 76182  1  0  0  0  0
 76183  1  0  0  0  0
 77 78  1  0  0  0  0
 77185  1  0  0  0  0
 77186  1  0  0  0  0
 78 79  1  0  0  0  0
 78187  1  0  0  0  0
 79188  1  0  0  0  0
 79189  1  0  0  0  0
 80 81  1  0  0  0  0
 81 83  1  0  0  0  0
 81190  1  0  0  0  0
 81191  1  0  0  0  0
 82 97  1  0  0  0  0
 83 87  1  0  0  0  0
 83192  1  0  0  0  0
 83193  1  0  0  0  0
 84 85  1  0  0  0  0
 84 86  1  0  0  0  0
 84194  1  0  0  0  0
 84195  1  0  0  0  0
 85 88  1  0  0  0  0
 85196  1  0  0  0  0
 85197  1  0  0  0  0
 86 92  1  0  0  0  0
 86198  1  0  0  0  0
 86199  1  0  0  0  0
 87 90  1  0  0  0  0
 87206  1  0  0  0  0
 87207  1  0  0  0  0
 88 90  1  0  0  0  0
 88200  1  0  0  0  0
 88201  1  0  0  0  0
 89 91  1  0  0  0  0
 89 93  1  0  0  0  0
 89202  1  0  0  0  0
 89203  1  0  0  0  0
 90210  1  0  0  0  0
 90211  1  0  0  0  0
 91 94  1  0  0  0  0
 91204  1  0  0  0  0
 91205  1  0  0  0  0
 92 96  1  0  0  0  0
 92208  1  0  0  0  0
 92209  1  0  0  0  0
 93 95  1  0  0  0  0
 93212  1  0  0  0  0
 93213  1  0  0  0  0
 94 98  1  0  0  0  0
 94214  1  0  0  0  0
 94215  1  0  0  0  0
 95 99  1  0  0  0  0
 95216  1  0  0  0  0
 95217  1  0  0  0  0
 96102  1  0  0  0  0
 96218  1  0  0  0  0
 96219  1  0  0  0  0
 97101  1  0  0  0  0
 97224  1  0  0  0  0
 97225  1  0  0  0  0
 98103  1  0  0  0  0
 98220  1  0  0  0  0
 98221  1  0  0  0  0
 99100  1  0  0  0  0
 99222  1  0  0  0  0
 99223  1  0  0  0  0
100101  1  0  0  0  0
100226  1  0  0  0  0
100227  1  0  0  0  0
101232  1  0  0  0  0
101233  1  0  0  0  0
102104  1  0  0  0  0
102228  1  0  0  0  0
102229  1  0  0  0  0
103105  1  0  0  0  0
103230  1  0  0  0  0
103231  1  0  0  0  0
104106  1  0  0  0  0
104234  1  0  0  0  0
104235  1  0  0  0  0
105107  1  0  0  0  0
105236  1  0  0  0  0
105237  1  0  0  0  0
106108  1  0  0  0  0
106238  1  0  0  0  0
106239  1  0  0  0  0
107109  1  0  0  0  0
107240  1  0  0  0  0
107241  1  0  0  0  0
108110  1  0  0  0  0
108242  1  0  0  0  0
108243  1  0  0  0  0
109111  1  0  0  0  0
109244  1  0  0  0  0
109245  1  0  0  0  0
110246  1  0  0  0  0
110247  1  0  0  0  0
110248  1  0  0  0  0
111249  1  0  0  0  0
111250  1  0  0  0  0
111251  1  0  0  0  0
M  END
> <PUBCHEM_COMPOUND_CID>
9578304

> <PUBCHEM_COMPOUND_CANONICALIZED>
1

> <PUBCHEM_CACTVS_COMPLEXITY>
2890

> <PUBCHEM_CACTVS_HBOND_ACCEPTOR>
27

> <PUBCHEM_CACTVS_HBOND_DONOR>
7

> <PUBCHEM_CACTVS_ROTATABLE_BOND>
58

> <PUBCHEM_CACTVS_SUBSKEYS>
AAADcfB/PgIAAAAAAAAAAAAAAAAAAYIAAAA0aMECAAAAAGDAAAAAHgAUCCAAD1TxgAcCCALQBxCoQjHzGIYAAAAgAAAACIF4AEgTFBIAIQAiUAAFlgCfIQPI6PyPgAAAAAAAAADAAAYAADAAAYAADAAAAA==

> <PUBCHEM_IUPAC_OPENEYE_NAME>
2-[(E)-2-[(3E)-3-[2-[2-[2,3-di(hexadecanoyloxy)propoxy-hydroxy-phosphoryl]oxyethylamino]-2-oxo-ethoxy]imino-1-[6-[4,5-dihydroxy-6-[[14-hydroxy-10,13-dimethyl-17-(5-oxo-2H-furan-3-yl)-1,2,3,4,5,6,7,8,9,11,12,15,16,17-tetradecahydrocyclopenta[a]phenanthren-3-yl]oxy]-2-methyl-tetrahydropyran-3-yl]oxy-4-hydroxy-2-methyl-tetrahydropyran-3-yl]oxy-propoxy]propylideneamino]oxyacetic acid

> <PUBCHEM_IUPAC_CAS_NAME>
2-[(E)-2-[(3E)-3-[2-[2-[2,3-bis(1-oxohexadecoxy)propoxy-hydroxyphosphoryl]oxyethylamino]-2-oxoethoxy]imino-1-[[6-[[4,5-dihydroxy-6-[[14-hydroxy-10,13-dimethyl-17-(5-oxo-2H-furan-3-yl)-1,2,3,4,5,6,7,8,9,11,12,15,16,17-tetradecahydrocyclopenta[a]phenanthren-3-yl]oxy]-2-methyl-3-oxanyl]oxy]-4-hydroxy-2-methyl-3-oxanyl]oxy]propoxy]propylideneamino]oxyacetic acid

> <PUBCHEM_IUPAC_NAME_MARKUP>
2-[(<I>E</I>)-2-[(3<I>E</I>)-3-[2-[2-[2,3-di(hexadecanoyloxy)propoxy-hydroxyphosphoryl]oxyethylamino]-2-oxoethoxy]imino-1-[6-[4,5-dihydroxy-6-[[14-hydroxy-10,13-dimethyl-17-(5-oxo-2<I>H</I>-furan-3-yl)-1,2,3,4,5,6,7,8,9,11,12,15,16,17-tetradecahydrocyclopenta[a]phenanthren-3-yl]oxy]-2-methyloxan-3-yl]oxy-4-hydroxy-2-methyloxan-3-yl]oxypropoxy]propylideneamino]oxyacetic acid

> <PUBCHEM_IUPAC_NAME>
2-[(E)-2-[(3E)-3-[2-[2-[2,3-di(hexadecanoyloxy)propoxy-hydroxyphosphoryl]oxyethylamino]-2-oxoethoxy]imino-1-[6-[4,5-dihydroxy-6-[[14-hydroxy-10,13-dimethyl-17-(5-oxo-2H-furan-3-yl)-1,2,3,4,5,6,7,8,9,11,12,15,16,17-tetradecahydrocyclopenta[a]phenanthren-3-yl]oxy]-2-methyloxan-3-yl]oxy-4-hydroxy-2-methyloxan-3-yl]oxypropoxy]propylideneamino]oxyacetic acid

> <PUBCHEM_IUPAC_SYSTEMATIC_NAME>
2-[(E)-2-[(3E)-3-[2-[2-[2,3-di(hexadecanoyloxy)propoxy-oxidanyl-phosphoryl]oxyethylamino]-2-oxidanylidene-ethoxy]imino-1-[6-[6-[[10,13-dimethyl-14-oxidanyl-17-(5-oxidanylidene-2H-furan-3-yl)-1,2,3,4,5,6,7,8,9,11,12,15,16,17-tetradecahydrocyclopenta[a]phenanthren-3-yl]oxy]-2-methyl-4,5-bis(oxidanyl)oxan-3-yl]oxy-2-methyl-4-oxidanyl-oxan-3-yl]oxy-propoxy]propylideneamino]oxyethanoic acid

> <PUBCHEM_IUPAC_TRADITIONAL_NAME>
2-[(E)-2-[(3E)-3-[2-[2-[2,3-di(hexadecanoyloxy)propoxy-hydroxy-phosphoryl]oxyethylamino]-2-keto-ethyl]oximino-1-[6-[4,5-dihydroxy-6-[[14-hydroxy-17-(5-keto-2H-furan-3-yl)-10,13-dimethyl-1,2,3,4,5,6,7,8,9,11,12,15,16,17-tetradecahydrocyclopenta[a]phenanthren-3-yl]oxy]-2-methyl-tetrahydropyran-3-yl]oxy-4-hydroxy-2-methyl-tetrahydropyran-3-yl]oxy-propoxy]propylideneamino]oxyacetic acid

> <PUBCHEM_IUPAC_INCHI>
InChI=1S/C82H140N3O25P/c1-8-10-12-14-16-18-20-22-24-26-28-30-32-34-70(90)99-53-63(107-71(91)35-33-31-29-27-25-23-21-19-17-15-13-11-9-2)54-103-111(96,97)102-47-46-83-68(87)55-100-84-45-41-73(104-57(3)51-85-101-56-69(88)89)109-77-58(4)105-74(50-67(77)86)110-78-59(5)106-79(76(94)75(78)93)108-62-38-42-80(6)61(49-62)36-37-66-65(80)39-43-81(7)64(40-44-82(66,81)95)60-48-72(92)98-52-60/h45,48,51,57-59,61-67,73-79,86,93-95H,8-44,46-47,49-50,52-56H2,1-7H3,(H,83,87)(H,88,89)(H,96,97)/b84-45+,85-51+

> <PUBCHEM_IUPAC_INCHIKEY>
RMZOQEGPACTFRL-QLBADTJSSA-N

> <PUBCHEM_XLOGP3>
14.7

> <PUBCHEM_EXACT_MASS>
1597.951354

> <PUBCHEM_MOLECULAR_FORMULA>
C82H140N3O25P

> <PUBCHEM_MOLECULAR_WEIGHT>
1599

> <PUBCHEM_OPENEYE_CAN_SMILES>
CCCCCCCCCCCCCCCC(=O)OCC(COP(=O)(O)OCCNC(=O)CON=CCC(OC1C(OC(CC1O)OC2C(OC(C(C2O)O)OC3CCC4(C(C3)CCC5C4CCC6(C5(CCC6C7=CC(=O)OC7)O)C)C)C)C)OC(C)C=NOCC(=O)O)OC(=O)CCCCCCCCCCCCCCC

> <PUBCHEM_OPENEYE_ISO_SMILES>
CCCCCCCCCCCCCCCC(=O)OCC(COP(=O)(O)OCCNC(=O)CO/N=C/CC(OC1C(OC(CC1O)OC2C(OC(C(C2O)O)OC3CCC4(C(C3)CCC5C4CCC6(C5(CCC6C7=CC(=O)OC7)O)C)C)C)C)OC(C)/C=N/OCC(=O)O)OC(=O)CCCCCCCCCCCCCCC

> <PUBCHEM_CACTVS_TPSA>
381

> <PUBCHEM_MONOISOTOPIC_WEIGHT>
1597.951354

> <PUBCHEM_TOTAL_CHARGE>
0

> <PUBCHEM_HEAVY_ATOM_COUNT>
111

> <PUBCHEM_ATOM_DEF_STEREO_COUNT>
0

> <PUBCHEM_ATOM_UDEF_STEREO_COUNT>
20

> <PUBCHEM_BOND_DEF_STEREO_COUNT>
2

> <PUBCHEM_BOND_UDEF_STEREO_COUNT>
0

> <PUBCHEM_ISOTOPIC_ATOM_COUNT>
0

> <PUBCHEM_COMPONENT_COUNT>
1

> <PUBCHEM_CACTVS_TAUTO_COUNT>
-1

> <PUBCHEM_COORDINATE_TYPE>
1
5
255

> <PUBCHEM_BONDANNOTATIONS>
61  11  3
63  12  3
30  2  3
48  3  3
52  3  3
31  39  3
32  36  3
33  45  3
34  46  3
35  41  3
38  49  3
56  58  3
62  64  3
65  66  3
67  69  3
54  7  3
78  79  3
55  8  3
57  9  3
59  9  3

$$$$
