42640297
  -OEChem-08262015533D

 60 64  0     1  0  0  0  0  0999 V2000
   -3.1168    0.1042   -0.8674 O   0  0  0  0  0  0  0  0  0  0  0  0
    4.3096    1.6309   -1.8644 O   0  0  0  0  0  0  0  0  0  0  0  0
   -3.1612   -1.3457   -2.6639 O   0  0  0  0  0  0  0  0  0  0  0  0
    5.0573   -0.8802   -0.9479 O   0  0  0  0  0  0  0  0  0  0  0  0
    1.6086   -1.6388    2.7056 O   0  0  0  0  0  0  0  0  0  0  0  0
   -0.4913    2.2819    0.2311 N   0  0  2  0  0  0  0  0  0  0  0  0
   -1.9399    2.6037    0.3720 C   0  0  2  0  0  0  0  0  0  0  0  0
   -0.3269    0.9312   -0.3744 C   0  0  1  0  0  0  0  0  0  0  0  0
   -2.7070    2.4938   -0.9628 C   0  0  0  0  0  0  0  0  0  0  0  0
   -2.4968    1.1482   -1.6570 C   0  0  1  0  0  0  0  0  0  0  0  0
   -2.1263    4.0235    0.9368 C   0  0  0  0  0  0  0  0  0  0  0  0
   -0.9945    0.8941   -1.7680 C   0  0  0  0  0  0  0  0  0  0  0  0
    0.1618    2.3636    1.5550 C   0  0  0  0  0  0  0  0  0  0  0  0
   -1.4186    4.1881    2.2750 C   0  0  0  0  0  0  0  0  0  0  0  0
    0.0370    3.7636    2.1570 C   0  0  0  0  0  0  0  0  0  0  0  0
    1.1140    0.4221   -0.5152 C   0  0  0  0  0  0  0  0  0  0  0  0
    1.4912   -0.8763   -0.0633 C   0  0  0  0  0  0  0  0  0  0  0  0
    2.0802    1.2416   -1.1289 C   0  0  0  0  0  0  0  0  0  0  0  0
   -3.3394   -1.0974   -1.4779 C   0  0  0  0  0  0  0  0  0  0  0  0
    0.5228   -1.7981    0.5594 C   0  0  0  0  0  0  0  0  0  0  0  0
    2.8286   -1.2841   -0.2156 C   0  0  0  0  0  0  0  0  0  0  0  0
    3.3978    0.8099   -1.2726 C   0  0  0  0  0  0  0  0  0  0  0  0
   -3.8155   -2.1247   -0.4715 C   0  0  0  0  0  0  0  0  0  0  0  0
    3.7720   -0.4483   -0.8134 C   0  0  0  0  0  0  0  0  0  0  0  0
   -2.8594   -3.3202   -0.3566 C   0  0  0  0  0  0  0  0  0  0  0  0
   -0.5551   -2.3078   -0.1857 C   0  0  0  0  0  0  0  0  0  0  0  0
   -1.6146   -2.9861    0.4307 C   0  0  0  0  0  0  0  0  0  0  0  0
    0.5876   -2.1012    1.9264 C   0  0  0  0  0  0  0  0  0  0  0  0
   -1.5332   -3.2624    1.7990 C   0  0  0  0  0  0  0  0  0  0  0  0
   -0.4262   -2.8422    2.5372 C   0  0  0  0  0  0  0  0  0  0  0  0
    5.9544   -0.5867    0.1214 C   0  0  0  0  0  0  0  0  0  0  0  0
   -2.3962    1.8948    1.0788 H   0  0  0  0  0  0  0  0  0  0  0  0
   -0.8679    0.2512    0.2896 H   0  0  0  0  0  0  0  0  0  0  0  0
   -3.7775    2.6373   -0.7691 H   0  0  0  0  0  0  0  0  0  0  0  0
   -2.3864    3.2970   -1.6392 H   0  0  0  0  0  0  0  0  0  0  0  0
   -2.9644    1.1780   -2.6483 H   0  0  0  0  0  0  0  0  0  0  0  0
   -3.1936    4.2401    1.0664 H   0  0  0  0  0  0  0  0  0  0  0  0
   -1.7354    4.7645    0.2270 H   0  0  0  0  0  0  0  0  0  0  0  0
   -0.5447    1.6473   -2.4291 H   0  0  0  0  0  0  0  0  0  0  0  0
   -0.8182   -0.0756   -2.2455 H   0  0  0  0  0  0  0  0  0  0  0  0
    1.2325    2.1478    1.4746 H   0  0  0  0  0  0  0  0  0  0  0  0
   -0.2652    1.6239    2.2453 H   0  0  0  0  0  0  0  0  0  0  0  0
   -1.9202    3.5747    3.0334 H   0  0  0  0  0  0  0  0  0  0  0  0
   -1.4819    5.2293    2.6094 H   0  0  0  0  0  0  0  0  0  0  0  0
    0.5799    4.4825    1.5302 H   0  0  0  0  0  0  0  0  0  0  0  0
    0.5081    3.7835    3.1463 H   0  0  0  0  0  0  0  0  0  0  0  0
    1.7963    2.2275   -1.4911 H   0  0  0  0  0  0  0  0  0  0  0  0
    3.1385   -2.2707    0.1257 H   0  0  0  0  0  0  0  0  0  0  0  0
   -3.9693   -1.6501    0.5049 H   0  0  0  0  0  0  0  0  0  0  0  0
   -4.7994   -2.4655   -0.8150 H   0  0  0  0  0  0  0  0  0  0  0  0
   -2.5725   -3.6894   -1.3492 H   0  0  0  0  0  0  0  0  0  0  0  0
   -3.3821   -4.1494    0.1363 H   0  0  0  0  0  0  0  0  0  0  0  0
   -0.6107   -2.1046   -1.2529 H   0  0  0  0  0  0  0  0  0  0  0  0
   -2.3389   -3.7894    2.3036 H   0  0  0  0  0  0  0  0  0  0  0  0
   -0.3870   -3.0654    3.6003 H   0  0  0  0  0  0  0  0  0  0  0  0
    3.8721    2.4617   -2.1179 H   0  0  0  0  0  0  0  0  0  0  0  0
    1.4750   -1.9397    3.6206 H   0  0  0  0  0  0  0  0  0  0  0  0
    6.9376   -0.9903   -0.1356 H   0  0  0  0  0  0  0  0  0  0  0  0
    5.6134   -1.0591    1.0482 H   0  0  0  0  0  0  0  0  0  0  0  0
    6.0458    0.4948    0.2624 H   0  0  0  0  0  0  0  0  0  0  0  0
  1 10  1  0  0  0  0
  1 19  1  0  0  0  0
  2 22  1  0  0  0  0
  2 56  1  0  0  0  0
  3 19  2  0  0  0  0
  4 24  1  0  0  0  0
  4 31  1  0  0  0  0
  5 28  1  0  0  0  0
  5 57  1  0  0  0  0
  6  7  1  0  0  0  0
  6  8  1  0  0  0  0
  6 13  1  0  0  0  0
  7  9  1  0  0  0  0
  7 11  1  0  0  0  0
  7 32  1  0  0  0  0
  8 12  1  0  0  0  0
  8 16  1  0  0  0  0
  8 33  1  0  0  0  0
  9 10  1  0  0  0  0
  9 34  1  0  0  0  0
  9 35  1  0  0  0  0
 10 12  1  0  0  0  0
 10 36  1  0  0  0  0
 11 14  1  0  0  0  0
 11 37  1  0  0  0  0
 11 38  1  0  0  0  0
 12 39  1  0  0  0  0
 12 40  1  0  0  0  0
 13 15  1  0  0  0  0
 13 41  1  0  0  0  0
 13 42  1  0  0  0  0
 14 15  1  0  0  0  0
 14 43  1  0  0  0  0
 14 44  1  0  0  0  0
 15 45  1  0  0  0  0
 15 46  1  0  0  0  0
 16 17  1  0  0  0  0
 16 18  2  0  0  0  0
 17 20  1  0  0  0  0
 17 21  2  0  0  0  0
 18 22  1  0  0  0  0
 18 47  1  0  0  0  0
 19 23  1  0  0  0  0
 20 26  1  0  0  0  0
 20 28  2  0  0  0  0
 21 24  1  0  0  0  0
 21 48  1  0  0  0  0
 22 24  2  0  0  0  0
 23 25  1  0  0  0  0
 23 49  1  0  0  0  0
 23 50  1  0  0  0  0
 25 27  1  0  0  0  0
 25 51  1  0  0  0  0
 25 52  1  0  0  0  0
 26 27  2  0  0  0  0
 26 53  1  0  0  0  0
 27 29  1  0  0  0  0
 28 30  1  0  0  0  0
 29 30  2  0  0  0  0
 29 54  1  0  0  0  0
 30 55  1  0  0  0  0
 31 58  1  0  0  0  0
 31 59  1  0  0  0  0
 31 60  1  0  0  0  0
M  END
> <PUBCHEM_COMPOUND_CID>
42640297

> <PUBCHEM_CONFORMER_RMSD>
0.8

> <PUBCHEM_CONFORMER_DIVERSEORDER>
1

> <PUBCHEM_MMFF94_PARTIAL_CHARGES>
31
1 -0.43
10 0.28
13 0.27
16 -0.14
18 -0.15
19 0.66
2 -0.53
21 -0.15
22 0.08
23 0.06
24 0.08
25 0.14
26 -0.15
27 -0.14
28 0.08
29 -0.15
3 -0.57
30 -0.15
31 0.28
4 -0.36
47 0.15
48 0.15
5 -0.53
53 0.15
54 0.15
55 0.15
56 0.45
57 0.45
6 -0.81
7 0.27
8 0.41

> <PUBCHEM_EFFECTIVE_ROTOR_COUNT>
2.8

> <PUBCHEM_PHARMACOPHORE_FEATURES>
9
1 2 donor
1 3 acceptor
1 4 acceptor
1 5 donor
1 6 cation
6 16 17 18 21 22 24 rings
6 20 26 27 28 29 30 rings
6 6 7 11 13 14 15 rings
6 6 7 8 9 10 12 rings

> <PUBCHEM_HEAVY_ATOM_COUNT>
31

> <PUBCHEM_ATOM_DEF_STEREO_COUNT>
3

> <PUBCHEM_ATOM_UDEF_STEREO_COUNT>
0

> <PUBCHEM_BOND_DEF_STEREO_COUNT>
0

> <PUBCHEM_BOND_UDEF_STEREO_COUNT>
0

> <PUBCHEM_ISOTOPIC_ATOM_COUNT>
0

> <PUBCHEM_COMPONENT_COUNT>
1

> <PUBCHEM_CACTVS_TAUTO_COUNT>
3

> <PUBCHEM_CONFORMER_ID>
028AA3A900000001

> <PUBCHEM_MMFF94_ENERGY>
88.7301

> <PUBCHEM_FEATURE_SELFOVERLAP>
45.691

> <PUBCHEM_SHAPE_FINGERPRINT>
1100329 8 18342181050848710289
11007060 377 17822014195087258276
11578080 2 17418373618969081602
12035759 4 18040424495404838870
121448 382 18334574590768263772
12156800 1 18264465399885538136
12160290 23 18047790115266962964
12788726 201 18198893730909489309
13032168 30 18337951199345669420
131258 38 16745693714628526242
13134695 92 17909283711966552902
13965767 371 15747798346159034049
14114206 34 18267280111246053573
14251740 79 18186521020714075710
14400156 260 16767011712859519381
14787075 74 18194943348502264548
15420108 30 17686613546799162752
17138139 8 18267844160853189469
17974551 9 17398714514579172259
17980427 23 15980367539545377842
18603816 31 14346337057807124352
19319366 153 18264492772023357601
20775438 99 16755757609162267943
22907989 373 17901141734184581444
23419403 2 17619078664486514601
23558518 356 18265911172093351222
23559900 14 18115023143178156206
3380486 145 17909554196506945106
3380486 77 16820489690120599615
3493558 16 17462289354744197628
35225 105 17692303686544098469
392239 28 17692199211485547971
469060 322 16154579565008950419
50150288 127 17547911503100782428
513532 50 17617351306340475455
5171179 24 17985542505716854041
57527585 103 17678770936269266890
59755656 520 18120667838000622750
6287921 2 16758023101704919979
6376802 137 18343016735619907472
70251023 43 17842820386384134607
7226269 152 18116138051794209210
9896288 288 17840044943646329561

> <PUBCHEM_SHAPE_MULTIPOLES>
603.64
7.06
5.43
2.46
10.08
2.82
0.93
-1.57
-4.18
-5.27
4.1
-0.64
0.14
-1.33

> <PUBCHEM_SHAPE_SELFOVERLAP>
1313.122

> <PUBCHEM_SHAPE_VOLUME>
325.7

> <PUBCHEM_COORDINATE_TYPE>
2
5
10

$$$$
