132515141
  -OEChem-08262015133D

 49 50  0     1  0  0  0  0  0999 V2000
    2.9860    0.8817   -0.0953 O   0  0  0  0  0  0  0  0  0  0  0  0
    1.2028   -0.5033    0.4929 O   0  0  0  0  0  0  0  0  0  0  0  0
    5.3648   -2.3440   -0.9917 O   0  0  0  0  0  0  0  0  0  0  0  0
    6.5622    0.2541   -0.5762 O   0  0  0  0  0  0  0  0  0  0  0  0
    2.9989   -2.6771    0.7322 O   0  0  0  0  0  0  0  0  0  0  0  0
    3.8866    3.4757    0.0310 O   0  0  0  0  0  0  0  0  0  0  0  0
   -1.2452   -1.3146    1.6050 O   0  0  0  0  0  0  0  0  0  0  0  0
   -5.9865   -1.4886   -0.6491 O   0  0  0  0  0  0  0  0  0  0  0  0
   -7.1149    1.0221   -0.2632 O   0  0  0  0  0  0  0  0  0  0  0  0
    4.8064   -1.3394   -0.1435 C   0  0  1  0  0  0  0  0  0  0  0  0
    5.1636    0.0266   -0.7297 C   0  0  1  0  0  0  0  0  0  0  0  0
    3.2914   -1.5272   -0.0613 C   0  0  2  0  0  0  0  0  0  0  0  0
    4.3891    1.1408   -0.0217 C   0  0  1  0  0  0  0  0  0  0  0  0
    2.6150   -0.3167    0.5820 C   0  0  1  0  0  0  0  0  0  0  0  0
    4.6402    2.5004   -0.6661 C   0  0  0  0  0  0  0  0  0  0  0  0
    0.5152    0.3046    1.4351 C   0  0  0  0  0  0  0  0  0  0  0  0
   -0.9886    0.0632    1.3250 C   0  0  1  0  0  0  0  0  0  0  0  0
   -1.4921    0.3753   -0.0882 C   0  0  0  0  0  0  0  0  0  0  0  0
   -2.9924    0.5447   -0.1364 C   0  0  0  0  0  0  0  0  0  0  0  0
   -3.8116   -0.5588   -0.3746 C   0  0  0  0  0  0  0  0  0  0  0  0
   -3.5586    1.8045    0.0582 C   0  0  0  0  0  0  0  0  0  0  0  0
   -5.1970   -0.4026   -0.4180 C   0  0  0  0  0  0  0  0  0  0  0  0
   -4.9440    1.9608    0.0145 C   0  0  0  0  0  0  0  0  0  0  0  0
   -5.7633    0.8573   -0.2235 C   0  0  0  0  0  0  0  0  0  0  0  0
   -5.3281   -2.7397   -0.8375 C   0  0  0  0  0  0  0  0  0  0  0  0
    5.2721   -1.4767    0.8395 H   0  0  0  0  0  0  0  0  0  0  0  0
    4.9471    0.0342   -1.8050 H   0  0  0  0  0  0  0  0  0  0  0  0
    2.8731   -1.7157   -1.0572 H   0  0  0  0  0  0  0  0  0  0  0  0
    4.6757    1.2094    1.0366 H   0  0  0  0  0  0  0  0  0  0  0  0
    2.9050   -0.2503    1.6401 H   0  0  0  0  0  0  0  0  0  0  0  0
    4.3072    2.5051   -1.7094 H   0  0  0  0  0  0  0  0  0  0  0  0
    5.6980    2.7766   -0.6226 H   0  0  0  0  0  0  0  0  0  0  0  0
    0.7420    1.3631    1.2628 H   0  0  0  0  0  0  0  0  0  0  0  0
    0.8438    0.0294    2.4446 H   0  0  0  0  0  0  0  0  0  0  0  0
    4.9568   -2.2590   -1.8703 H   0  0  0  0  0  0  0  0  0  0  0  0
    6.7625    0.2629    0.3753 H   0  0  0  0  0  0  0  0  0  0  0  0
    3.3618   -2.5297    1.6222 H   0  0  0  0  0  0  0  0  0  0  0  0
   -1.5098    0.6633    2.0790 H   0  0  0  0  0  0  0  0  0  0  0  0
   -1.0331    1.3019   -0.4571 H   0  0  0  0  0  0  0  0  0  0  0  0
   -1.2005   -0.4126   -0.7950 H   0  0  0  0  0  0  0  0  0  0  0  0
    4.0579    4.3314   -0.3979 H   0  0  0  0  0  0  0  0  0  0  0  0
   -0.7326   -1.8480    0.9736 H   0  0  0  0  0  0  0  0  0  0  0  0
   -3.3150   -1.5126   -0.5179 H   0  0  0  0  0  0  0  0  0  0  0  0
   -2.9310    2.6715    0.2470 H   0  0  0  0  0  0  0  0  0  0  0  0
   -5.3719    2.9478    0.1684 H   0  0  0  0  0  0  0  0  0  0  0  0
   -7.3243    1.9591   -0.1077 H   0  0  0  0  0  0  0  0  0  0  0  0
   -6.1067   -3.4903   -1.0094 H   0  0  0  0  0  0  0  0  0  0  0  0
   -4.7829   -3.0487    0.0610 H   0  0  0  0  0  0  0  0  0  0  0  0
   -4.6929   -2.7317   -1.7298 H   0  0  0  0  0  0  0  0  0  0  0  0
  1 13  1  0  0  0  0
  1 14  1  0  0  0  0
  2 14  1  0  0  0  0
  2 16  1  0  0  0  0
  3 10  1  0  0  0  0
  3 35  1  0  0  0  0
  4 11  1  0  0  0  0
  4 36  1  0  0  0  0
  5 12  1  0  0  0  0
  5 37  1  0  0  0  0
  6 15  1  0  0  0  0
  6 41  1  0  0  0  0
  7 17  1  0  0  0  0
  7 42  1  0  0  0  0
  8 22  1  0  0  0  0
  8 25  1  0  0  0  0
  9 24  1  0  0  0  0
  9 46  1  0  0  0  0
 10 11  1  0  0  0  0
 10 12  1  0  0  0  0
 10 26  1  0  0  0  0
 11 13  1  0  0  0  0
 11 27  1  0  0  0  0
 12 14  1  0  0  0  0
 12 28  1  0  0  0  0
 13 15  1  0  0  0  0
 13 29  1  0  0  0  0
 14 30  1  0  0  0  0
 15 31  1  0  0  0  0
 15 32  1  0  0  0  0
 16 17  1  0  0  0  0
 16 33  1  0  0  0  0
 16 34  1  0  0  0  0
 17 18  1  0  0  0  0
 17 38  1  0  0  0  0
 18 19  1  0  0  0  0
 18 39  1  0  0  0  0
 18 40  1  0  0  0  0
 19 20  2  0  0  0  0
 19 21  1  0  0  0  0
 20 22  1  0  0  0  0
 20 43  1  0  0  0  0
 21 23  2  0  0  0  0
 21 44  1  0  0  0  0
 22 24  2  0  0  0  0
 23 24  1  0  0  0  0
 23 45  1  0  0  0  0
 25 47  1  0  0  0  0
 25 48  1  0  0  0  0
 25 49  1  0  0  0  0
M  END
> <PUBCHEM_COMPOUND_CID>
132515141

> <PUBCHEM_CONFORMER_RMSD>
1.2

> <PUBCHEM_CONFORMER_DIVERSEORDER>
1
47
112
25
4
61
54
49
63
7
34
26
18
23
65
109
64
50
107
3
87
27
41
44
100
12
90
57
105
89
17
5
94
51
33
74
68
99
39
108
95
13
62
82
73
58
92
35
55
67
115
98
14
106
52
80
45
111
24
116
46
84
8
21
6
2
48
93
20
40
103
70
91
32
81
71
75
38
86
15
102
22
43
29
42
37
59
56
85
11
28
96
97
10
60
72
79
110
31
76
9
53
78
66
88
69
83
30
113
101
16
77
36
104
114
19

> <PUBCHEM_MMFF94_PARTIAL_CHARGES>
34
1 -0.56
10 0.28
11 0.28
12 0.28
13 0.28
14 0.56
15 0.28
16 0.28
17 0.28
18 0.14
19 -0.14
2 -0.56
20 -0.15
21 -0.15
22 0.08
23 -0.15
24 0.08
25 0.28
3 -0.68
35 0.4
36 0.4
37 0.4
4 -0.68
41 0.4
42 0.4
43 0.15
44 0.15
45 0.15
46 0.45
5 -0.68
6 -0.68
7 -0.68
8 -0.36
9 -0.53

> <PUBCHEM_EFFECTIVE_ROTOR_COUNT>
8.2

> <PUBCHEM_PHARMACOPHORE_FEATURES>
16
1 1 acceptor
1 2 acceptor
1 3 acceptor
1 3 donor
1 4 acceptor
1 4 donor
1 5 acceptor
1 5 donor
1 6 acceptor
1 6 donor
1 7 acceptor
1 7 donor
1 8 acceptor
1 9 donor
6 1 10 11 12 13 14 rings
6 19 20 21 22 23 24 rings

> <PUBCHEM_HEAVY_ATOM_COUNT>
25

> <PUBCHEM_ATOM_DEF_STEREO_COUNT>
5

> <PUBCHEM_ATOM_UDEF_STEREO_COUNT>
1

> <PUBCHEM_BOND_DEF_STEREO_COUNT>
0

> <PUBCHEM_BOND_UDEF_STEREO_COUNT>
0

> <PUBCHEM_ISOTOPIC_ATOM_COUNT>
0

> <PUBCHEM_COMPONENT_COUNT>
1

> <PUBCHEM_CACTVS_TAUTO_COUNT>
7

> <PUBCHEM_CONFORMER_ID>
07E6054500000001

> <PUBCHEM_MMFF94_ENERGY>
74.6885

> <PUBCHEM_FEATURE_SELFOVERLAP>
81.269

> <PUBCHEM_SHAPE_FINGERPRINT>
10595046 47 18410854373796984445
10670039 82 15502938498523695406
10693767 8 18199477563511590078
11089746 13 18040433296135336776
11524674 6 16200429187693268687
12107183 9 17618503177608056609
12236239 1 18131071498189284808
12730499 353 18040443165680227834
12788726 201 17489595523903045089
12821665 9 18263365965857154029
13167823 11 18341890783915221559
13533116 47 18411140238267695268
1361 2 18261955253488684060
13668630 136 17561091302059280254
13782708 43 16773218717889937543
14528608 73 18335139803926733540
14681490 219 18335701620173222108
14933364 13 18408606942302792277
15003188 100 18260833734802060572
15183329 4 18341613689815624257
15250474 111 18337938018492705211
15537594 2 15841549660868531725
16993438 75 18116158950911179603
17834072 33 18410573980872321109
17844677 252 18411705352884425697
1813 80 14477244872568459313
18681886 176 18272365361525901682
221357 26 18335702698420646236
23522609 53 17773058504000828929
23536379 177 18342176635495144721
23559900 14 18272641368776960705
2838139 119 17312819381304605676
29717793 49 18131355172331591462
3004659 81 18271804579998091322
34797466 226 18272657852613665765
4073 2 18187088394240972130
4325135 7 18409729564964686117
44317340 157 18341615944700030001
497634 4 18410571765492564773
53794403 172 17387425733785970492

> <PUBCHEM_SHAPE_MULTIPOLES>
461.66
18.39
2.82
1.02
6.17
0.19
-0.29
0.13
6.09
-1.49
0.45
-0.13
-0.25
-0.77

> <PUBCHEM_SHAPE_SELFOVERLAP>
953.139

> <PUBCHEM_SHAPE_VOLUME>
263

> <PUBCHEM_COORDINATE_TYPE>
2
5
10

$$$$
