21668725
  -OEChem-08262015223D

 64 66  0     1  0  0  0  0  0999 V2000
    1.7901    1.5175    0.4445 O   0  0  0  0  0  0  0  0  0  0  0  0
   -0.1837    0.2854    0.6177 O   0  0  0  0  0  0  0  0  0  0  0  0
   -0.2637    5.0713    0.5832 O   0  0  0  0  0  0  0  0  0  0  0  0
   -1.6563    2.5787   -0.1436 O   0  0  0  0  0  0  0  0  0  0  0  0
    2.4634    5.0232   -0.3742 O   0  0  0  0  0  0  0  0  0  0  0  0
    4.4685    1.3045   -0.1357 O   0  0  0  0  0  0  0  0  0  0  0  0
   -2.1304   -4.0246   -0.5218 O   0  0  0  0  0  0  0  0  0  0  0  0
    4.5767   -2.1831   -1.2708 O   0  0  0  0  0  0  0  0  0  0  0  0
   -5.7065   -0.2858    1.3009 O   0  0  0  0  0  0  0  0  0  0  0  0
    4.9364   -3.1979    1.2920 O   0  0  0  0  0  0  0  0  0  0  0  0
   -6.1469    0.6984   -1.2612 O   0  0  0  0  0  0  0  0  0  0  0  0
    0.3331    3.9416   -0.0555 C   0  0  2  0  0  0  0  0  0  0  0  0
   -0.3512    2.6630    0.4281 C   0  0  2  0  0  0  0  0  0  0  0  0
    1.8228    3.9361    0.2884 C   0  0  1  0  0  0  0  0  0  0  0  0
    0.4351    1.4199    0.0119 C   0  0  1  0  0  0  0  0  0  0  0  0
    2.4760    2.6224   -0.1471 C   0  0  1  0  0  0  0  0  0  0  0  0
   -0.0210   -0.8777   -0.1790 C   0  0  2  0  0  0  0  0  0  0  0  0
   -1.2288   -1.8361    0.0115 C   0  0  1  0  0  0  0  0  0  0  0  0
    3.9353    2.5452    0.2900 C   0  0  0  0  0  0  0  0  0  0  0  0
    1.3060   -1.4978    0.2109 C   0  0  0  0  0  0  0  0  0  0  0  0
   -2.5514   -1.1560   -0.3270 C   0  0  0  0  0  0  0  0  0  0  0  0
   -1.0565   -3.1324   -0.8051 C   0  0  0  0  0  0  0  0  0  0  0  0
    2.3466   -1.5590   -0.7160 C   0  0  0  0  0  0  0  0  0  0  0  0
    1.4866   -2.0069    1.4969 C   0  0  0  0  0  0  0  0  0  0  0  0
   -3.5397   -1.0277    0.6489 C   0  0  0  0  0  0  0  0  0  0  0  0
   -2.7725   -0.6622   -1.6127 C   0  0  0  0  0  0  0  0  0  0  0  0
    3.5679   -2.1293   -0.3569 C   0  0  0  0  0  0  0  0  0  0  0  0
    2.7078   -2.5776    1.8559 C   0  0  0  0  0  0  0  0  0  0  0  0
   -4.7491   -0.4053    0.3394 C   0  0  0  0  0  0  0  0  0  0  0  0
   -3.9820   -0.0401   -1.9224 C   0  0  0  0  0  0  0  0  0  0  0  0
    3.7485   -2.6386    0.9291 C   0  0  0  0  0  0  0  0  0  0  0  0
   -4.9703    0.0885   -0.9464 C   0  0  0  0  0  0  0  0  0  0  0  0
    4.3105   -1.6405   -2.5627 C   0  0  0  0  0  0  0  0  0  0  0  0
   -5.4013   -0.8170    2.5890 C   0  0  0  0  0  0  0  0  0  0  0  0
    0.1810    4.0841   -1.1319 H   0  0  0  0  0  0  0  0  0  0  0  0
   -0.4837    2.6862    1.5162 H   0  0  0  0  0  0  0  0  0  0  0  0
    1.9524    4.0884    1.3669 H   0  0  0  0  0  0  0  0  0  0  0  0
    0.4055    1.3405   -1.0835 H   0  0  0  0  0  0  0  0  0  0  0  0
    2.4436    2.5082   -1.2393 H   0  0  0  0  0  0  0  0  0  0  0  0
    0.0082   -0.6169   -1.2452 H   0  0  0  0  0  0  0  0  0  0  0  0
   -1.2889   -2.1229    1.0701 H   0  0  0  0  0  0  0  0  0  0  0  0
    4.5297    3.3521   -0.1489 H   0  0  0  0  0  0  0  0  0  0  0  0
    4.0180    2.5863    1.3812 H   0  0  0  0  0  0  0  0  0  0  0  0
   -0.1306   -3.6511   -0.5403 H   0  0  0  0  0  0  0  0  0  0  0  0
   -1.0438   -2.9388   -1.8829 H   0  0  0  0  0  0  0  0  0  0  0  0
   -0.1605    4.9649    1.5442 H   0  0  0  0  0  0  0  0  0  0  0  0
   -1.5612    2.5448   -1.1109 H   0  0  0  0  0  0  0  0  0  0  0  0
    2.3660    4.8903   -1.3326 H   0  0  0  0  0  0  0  0  0  0  0  0
    2.1516   -1.1464   -1.6998 H   0  0  0  0  0  0  0  0  0  0  0  0
    0.6935   -1.9581    2.2376 H   0  0  0  0  0  0  0  0  0  0  0  0
   -3.3156   -1.4288    1.6313 H   0  0  0  0  0  0  0  0  0  0  0  0
   -2.0186   -0.7530   -2.3894 H   0  0  0  0  0  0  0  0  0  0  0  0
    5.3943    1.2727    0.1596 H   0  0  0  0  0  0  0  0  0  0  0  0
    2.8359   -2.9680    2.8619 H   0  0  0  0  0  0  0  0  0  0  0  0
   -1.9841   -4.8246   -1.0547 H   0  0  0  0  0  0  0  0  0  0  0  0
   -4.1411    0.3401   -2.9279 H   0  0  0  0  0  0  0  0  0  0  0  0
    4.8774   -3.4949    2.2162 H   0  0  0  0  0  0  0  0  0  0  0  0
   -6.1207    0.9754   -2.1931 H   0  0  0  0  0  0  0  0  0  0  0  0
    5.2206   -1.7667   -3.1585 H   0  0  0  0  0  0  0  0  0  0  0  0
    4.1091   -0.5649   -2.5161 H   0  0  0  0  0  0  0  0  0  0  0  0
    3.5159   -2.1924   -3.0766 H   0  0  0  0  0  0  0  0  0  0  0  0
   -5.2553   -1.9021    2.5543 H   0  0  0  0  0  0  0  0  0  0  0  0
   -4.5559   -0.2958    3.0510 H   0  0  0  0  0  0  0  0  0  0  0  0
   -6.2726   -0.6347    3.2268 H   0  0  0  0  0  0  0  0  0  0  0  0
  1 15  1  0  0  0  0
  1 16  1  0  0  0  0
  2 15  1  0  0  0  0
  2 17  1  0  0  0  0
  3 12  1  0  0  0  0
  3 46  1  0  0  0  0
  4 13  1  0  0  0  0
  4 47  1  0  0  0  0
  5 14  1  0  0  0  0
  5 48  1  0  0  0  0
  6 19  1  0  0  0  0
  6 53  1  0  0  0  0
  7 22  1  0  0  0  0
  7 55  1  0  0  0  0
  8 27  1  0  0  0  0
  8 33  1  0  0  0  0
  9 29  1  0  0  0  0
  9 34  1  0  0  0  0
 10 31  1  0  0  0  0
 10 57  1  0  0  0  0
 11 32  1  0  0  0  0
 11 58  1  0  0  0  0
 12 13  1  0  0  0  0
 12 14  1  0  0  0  0
 12 35  1  0  0  0  0
 13 15  1  0  0  0  0
 13 36  1  0  0  0  0
 14 16  1  0  0  0  0
 14 37  1  0  0  0  0
 15 38  1  0  0  0  0
 16 19  1  0  0  0  0
 16 39  1  0  0  0  0
 17 18  1  0  0  0  0
 17 20  1  0  0  0  0
 17 40  1  0  0  0  0
 18 21  1  0  0  0  0
 18 22  1  0  0  0  0
 18 41  1  0  0  0  0
 19 42  1  0  0  0  0
 19 43  1  0  0  0  0
 20 23  2  0  0  0  0
 20 24  1  0  0  0  0
 21 25  2  0  0  0  0
 21 26  1  0  0  0  0
 22 44  1  0  0  0  0
 22 45  1  0  0  0  0
 23 27  1  0  0  0  0
 23 49  1  0  0  0  0
 24 28  2  0  0  0  0
 24 50  1  0  0  0  0
 25 29  1  0  0  0  0
 25 51  1  0  0  0  0
 26 30  2  0  0  0  0
 26 52  1  0  0  0  0
 27 31  2  0  0  0  0
 28 31  1  0  0  0  0
 28 54  1  0  0  0  0
 29 32  2  0  0  0  0
 30 32  1  0  0  0  0
 30 56  1  0  0  0  0
 33 59  1  0  0  0  0
 33 60  1  0  0  0  0
 33 61  1  0  0  0  0
 34 62  1  0  0  0  0
 34 63  1  0  0  0  0
 34 64  1  0  0  0  0
M  END
> <PUBCHEM_COMPOUND_CID>
21668725

> <PUBCHEM_CONFORMER_RMSD>
1

> <PUBCHEM_CONFORMER_DIVERSEORDER>
2
12
65
18
59
54
28
67
72
62
79
19
16
61
21
77
13
29
52
14
57
74
38
75
31
68
7
53
78
26
39
33
9
42
41
58
40
37
55
32
8
23
46
48
64
24
76
47
35
66
27
6
60
25
69
4
30
34
20
71
5
49
51
63
56
43
10
22
73
50
15
1
45
11
3
70
44
36
17

> <PUBCHEM_MMFF94_PARTIAL_CHARGES>
47
1 -0.56
10 -0.53
11 -0.53
12 0.28
13 0.28
14 0.28
15 0.56
16 0.28
17 0.42
18 0.14
19 0.28
2 -0.56
20 -0.14
21 -0.14
22 0.28
23 -0.15
24 -0.15
25 -0.15
26 -0.15
27 0.08
28 -0.15
29 0.08
3 -0.68
30 -0.15
31 0.08
32 0.08
33 0.28
34 0.28
4 -0.68
46 0.4
47 0.4
48 0.4
49 0.15
5 -0.68
50 0.15
51 0.15
52 0.15
53 0.4
54 0.15
55 0.4
56 0.15
57 0.45
58 0.45
6 -0.68
7 -0.68
8 -0.36
9 -0.36

> <PUBCHEM_EFFECTIVE_ROTOR_COUNT>
10.2

> <PUBCHEM_PHARMACOPHORE_FEATURES>
19
1 1 acceptor
1 10 donor
1 11 donor
1 2 acceptor
1 3 acceptor
1 3 donor
1 4 acceptor
1 4 donor
1 5 acceptor
1 5 donor
1 6 acceptor
1 6 donor
1 7 acceptor
1 7 donor
1 8 acceptor
1 9 acceptor
6 1 12 13 14 15 16 rings
6 20 23 24 27 28 31 rings
6 21 25 26 29 30 32 rings

> <PUBCHEM_HEAVY_ATOM_COUNT>
34

> <PUBCHEM_ATOM_DEF_STEREO_COUNT>
7

> <PUBCHEM_ATOM_UDEF_STEREO_COUNT>
0

> <PUBCHEM_BOND_DEF_STEREO_COUNT>
0

> <PUBCHEM_BOND_UDEF_STEREO_COUNT>
0

> <PUBCHEM_ISOTOPIC_ATOM_COUNT>
0

> <PUBCHEM_COMPONENT_COUNT>
1

> <PUBCHEM_CACTVS_TAUTO_COUNT>
8

> <PUBCHEM_CONFORMER_ID>
014AA37500000002

> <PUBCHEM_MMFF94_ENERGY>
115.4847

> <PUBCHEM_FEATURE_SELFOVERLAP>
96.496

> <PUBCHEM_SHAPE_FINGERPRINT>
10074138 170 17180775499656820826
11578080 2 17533185713957851206
12160290 23 17551784824666283449
12422481 6 18121747712959119208
12553582 1 18340488863477045519
12788726 201 18192158100865657054
13140716 1 17906167708982922249
13583140 156 18113329821883079323
13590594 115 18338797797434242968
13782708 43 17967257507710789219
14363568 33 18336558191412447441
14466204 15 18050270759560359984
14955137 171 18338816528140652427
15081414 286 18340494455624457784
15198563 99 18052548677223043212
15475509 8 17843708580693067767
15775530 1 17610082404788524154
16112460 7 18270966713926775553
1813 80 18201717297580050143
19319366 153 18040725766202854202
20600515 1 18272642433544215290
20642791 35 18412271657518294862
20739085 24 18269854067992797089
21133665 82 17906731759487720924
21421861 104 18335699460020053976
22122407 14 18339368453556174841
22149856 69 16036336594374476416
23559900 14 18131637794255266982
244849 19 17749964357296070003
3298306 158 18191865841151895012
376196 1 17482832659930745208
469060 322 18198065768483553851
513202 73 17767974133899424039
59755656 215 18411133663115642980

> <PUBCHEM_SHAPE_MULTIPOLES>
635.14
10.89
6.01
1.72
9.67
7.12
0.04
-4.45
0.1
-6.66
-0.65
0.7
-1.27
0.06

> <PUBCHEM_SHAPE_SELFOVERLAP>
1344.284

> <PUBCHEM_SHAPE_VOLUME>
353.1

> <PUBCHEM_COORDINATE_TYPE>
2
5
10

$$$$
