101473393
  -OEChem-08262015513D

 60 64  0     1  0  0  0  0  0999 V2000
    3.0599   -0.2313   -0.5769 O   0  0  0  0  0  0  0  0  0  0  0  0
   -1.2312    1.2871    1.6163 O   0  0  0  0  0  0  0  0  0  0  0  0
   -3.7332    2.1490    1.3061 O   0  0  0  0  0  0  0  0  0  0  0  0
    3.5762    0.9827   -2.4755 O   0  0  0  0  0  0  0  0  0  0  0  0
   -5.3833    1.1304   -0.6550 O   0  0  0  0  0  0  0  0  0  0  0  0
   -0.1452   -2.3788    0.1355 N   0  0  2  0  0  0  0  0  0  0  0  0
    0.8646   -3.1760   -0.5914 C   0  0  1  0  0  0  0  0  0  0  0  0
   -0.0670   -0.9193   -0.1609 C   0  0  1  0  0  0  0  0  0  0  0  0
    2.2420   -2.4965   -0.5608 C   0  0  0  0  0  0  0  0  0  0  0  0
    0.9148   -4.6489   -0.1508 C   0  0  0  0  0  0  0  0  0  0  0  0
    2.2099   -1.1505   -1.3032 C   0  0  1  0  0  0  0  0  0  0  0  0
    0.7794   -0.5966   -1.4196 C   0  0  0  0  0  0  0  0  0  0  0  0
   -0.1378   -2.5914    1.5952 C   0  0  0  0  0  0  0  0  0  0  0  0
    0.9627   -4.8248    1.3578 C   0  0  0  0  0  0  0  0  0  0  0  0
   -0.1912   -4.0634    1.9889 C   0  0  0  0  0  0  0  0  0  0  0  0
   -1.4638   -0.3044   -0.2668 C   0  0  0  0  0  0  0  0  0  0  0  0
   -1.9490    0.7169    0.5818 C   0  0  0  0  0  0  0  0  0  0  0  0
   -2.3395   -0.7990   -1.2552 C   0  0  0  0  0  0  0  0  0  0  0  0
    3.6825    0.7647   -1.2758 C   0  0  0  0  0  0  0  0  0  0  0  0
   -3.2667    1.1826    0.4614 C   0  0  0  0  0  0  0  0  0  0  0  0
   -3.6423   -0.3135   -1.3856 C   0  0  0  0  0  0  0  0  0  0  0  0
   -4.1069    0.6736   -0.5245 C   0  0  0  0  0  0  0  0  0  0  0  0
    4.5194    1.6131   -0.3370 C   0  0  0  0  0  0  0  0  0  0  0  0
    3.8676    2.9647   -0.0207 C   0  0  0  0  0  0  0  0  0  0  0  0
   -0.0658    1.9428    1.2849 C   0  0  0  0  0  0  0  0  0  0  0  0
    2.4752    2.7920    0.5322 C   0  0  0  0  0  0  0  0  0  0  0  0
    0.0896    2.6939    0.1185 C   0  0  0  0  0  0  0  0  0  0  0  0
    1.0096    1.7597    2.1569 C   0  0  0  0  0  0  0  0  0  0  0  0
    1.3637    3.1090   -0.2605 C   0  0  0  0  0  0  0  0  0  0  0  0
    2.2810    2.1787    1.7767 C   0  0  0  0  0  0  0  0  0  0  0  0
   -6.1752    0.5538   -1.6920 C   0  0  0  0  0  0  0  0  0  0  0  0
    0.5493   -3.2180   -1.6438 H   0  0  0  0  0  0  0  0  0  0  0  0
    0.4721   -0.4532    0.6656 H   0  0  0  0  0  0  0  0  0  0  0  0
    2.5880   -2.3631    0.4721 H   0  0  0  0  0  0  0  0  0  0  0  0
    2.9920   -3.1383   -1.0404 H   0  0  0  0  0  0  0  0  0  0  0  0
    0.0172   -5.1568   -0.5294 H   0  0  0  0  0  0  0  0  0  0  0  0
    1.7713   -5.1566   -0.6099 H   0  0  0  0  0  0  0  0  0  0  0  0
    2.6195   -1.2945   -2.3111 H   0  0  0  0  0  0  0  0  0  0  0  0
    0.3061   -1.0313   -2.3098 H   0  0  0  0  0  0  0  0  0  0  0  0
    0.8069    0.4842   -1.5903 H   0  0  0  0  0  0  0  0  0  0  0  0
   -1.0053   -2.0907    2.0421 H   0  0  0  0  0  0  0  0  0  0  0  0
    0.7575   -2.1447    2.0477 H   0  0  0  0  0  0  0  0  0  0  0  0
    1.9179   -4.4590    1.7521 H   0  0  0  0  0  0  0  0  0  0  0  0
    0.8937   -5.8880    1.6130 H   0  0  0  0  0  0  0  0  0  0  0  0
   -1.1467   -4.5000    1.6724 H   0  0  0  0  0  0  0  0  0  0  0  0
   -0.1420   -4.1559    3.0798 H   0  0  0  0  0  0  0  0  0  0  0  0
   -2.0122   -1.5845   -1.9334 H   0  0  0  0  0  0  0  0  0  0  0  0
   -4.2359   -0.7600   -2.1760 H   0  0  0  0  0  0  0  0  0  0  0  0
    4.7127    1.0464    0.5822 H   0  0  0  0  0  0  0  0  0  0  0  0
    5.4983    1.7650   -0.8062 H   0  0  0  0  0  0  0  0  0  0  0  0
    3.8372    3.5791   -0.9291 H   0  0  0  0  0  0  0  0  0  0  0  0
    4.4799    3.5130    0.7052 H   0  0  0  0  0  0  0  0  0  0  0  0
   -4.6568    2.3443    1.0707 H   0  0  0  0  0  0  0  0  0  0  0  0
   -0.7472    2.8908   -0.5450 H   0  0  0  0  0  0  0  0  0  0  0  0
    0.8819    1.2065    3.0834 H   0  0  0  0  0  0  0  0  0  0  0  0
    1.4929    3.6051   -1.2191 H   0  0  0  0  0  0  0  0  0  0  0  0
    3.1297    1.9461    2.4147 H   0  0  0  0  0  0  0  0  0  0  0  0
   -7.1583    1.0345   -1.6515 H   0  0  0  0  0  0  0  0  0  0  0  0
   -6.3381   -0.5168   -1.5276 H   0  0  0  0  0  0  0  0  0  0  0  0
   -5.7589    0.7652   -2.6829 H   0  0  0  0  0  0  0  0  0  0  0  0
  1 11  1  0  0  0  0
  1 19  1  0  0  0  0
  2 17  1  0  0  0  0
  2 25  1  0  0  0  0
  3 20  1  0  0  0  0
  3 53  1  0  0  0  0
  4 19  2  0  0  0  0
  5 22  1  0  0  0  0
  5 31  1  0  0  0  0
  6  7  1  0  0  0  0
  6  8  1  0  0  0  0
  6 13  1  0  0  0  0
  7  9  1  0  0  0  0
  7 10  1  0  0  0  0
  7 32  1  0  0  0  0
  8 12  1  0  0  0  0
  8 16  1  0  0  0  0
  8 33  1  0  0  0  0
  9 11  1  0  0  0  0
  9 34  1  0  0  0  0
  9 35  1  0  0  0  0
 10 14  1  0  0  0  0
 10 36  1  0  0  0  0
 10 37  1  0  0  0  0
 11 12  1  0  0  0  0
 11 38  1  0  0  0  0
 12 39  1  0  0  0  0
 12 40  1  0  0  0  0
 13 15  1  0  0  0  0
 13 41  1  0  0  0  0
 13 42  1  0  0  0  0
 14 15  1  0  0  0  0
 14 43  1  0  0  0  0
 14 44  1  0  0  0  0
 15 45  1  0  0  0  0
 15 46  1  0  0  0  0
 16 17  2  0  0  0  0
 16 18  1  0  0  0  0
 17 20  1  0  0  0  0
 18 21  2  0  0  0  0
 18 47  1  0  0  0  0
 19 23  1  0  0  0  0
 20 22  2  0  0  0  0
 21 22  1  0  0  0  0
 21 48  1  0  0  0  0
 23 24  1  0  0  0  0
 23 49  1  0  0  0  0
 23 50  1  0  0  0  0
 24 26  1  0  0  0  0
 24 51  1  0  0  0  0
 24 52  1  0  0  0  0
 25 27  2  0  0  0  0
 25 28  1  0  0  0  0
 26 29  2  0  0  0  0
 26 30  1  0  0  0  0
 27 29  1  0  0  0  0
 27 54  1  0  0  0  0
 28 30  2  0  0  0  0
 28 55  1  0  0  0  0
 29 56  1  0  0  0  0
 30 57  1  0  0  0  0
 31 58  1  0  0  0  0
 31 59  1  0  0  0  0
 31 60  1  0  0  0  0
M  END
> <PUBCHEM_COMPOUND_CID>
101473393

> <PUBCHEM_CONFORMER_RMSD>
0.8

> <PUBCHEM_CONFORMER_DIVERSEORDER>
1
2

> <PUBCHEM_MMFF94_PARTIAL_CHARGES>
33
1 -0.43
11 0.28
13 0.27
16 -0.14
17 0.08
18 -0.15
19 0.66
2 -0.17
20 0.08
21 -0.15
22 0.08
23 0.06
24 0.14
25 0.08
26 -0.14
27 -0.15
28 -0.15
29 -0.15
3 -0.53
30 -0.15
31 0.28
4 -0.57
47 0.15
48 0.15
5 -0.36
53 0.45
54 0.15
55 0.15
56 0.15
57 0.15
6 -0.81
7 0.27
8 0.41

> <PUBCHEM_EFFECTIVE_ROTOR_COUNT>
3

> <PUBCHEM_PHARMACOPHORE_FEATURES>
9
1 2 acceptor
1 3 donor
1 4 acceptor
1 5 acceptor
1 6 cation
6 16 17 18 20 21 22 rings
6 25 26 27 28 29 30 rings
6 6 7 10 13 14 15 rings
6 6 7 8 9 11 12 rings

> <PUBCHEM_HEAVY_ATOM_COUNT>
31

> <PUBCHEM_ATOM_DEF_STEREO_COUNT>
3

> <PUBCHEM_ATOM_UDEF_STEREO_COUNT>
0

> <PUBCHEM_BOND_DEF_STEREO_COUNT>
0

> <PUBCHEM_BOND_UDEF_STEREO_COUNT>
0

> <PUBCHEM_ISOTOPIC_ATOM_COUNT>
0

> <PUBCHEM_COMPONENT_COUNT>
1

> <PUBCHEM_CACTVS_TAUTO_COUNT>
6

> <PUBCHEM_CONFORMER_ID>
060C5C7100000001

> <PUBCHEM_MMFF94_ENERGY>
99.993

> <PUBCHEM_FEATURE_SELFOVERLAP>
45.71

> <PUBCHEM_SHAPE_FINGERPRINT>
10290309 65 17910417288034566838
10675989 125 18342173345403406105
10721379 63 18197763437267148097
1100329 8 18410290285989070166
11370993 70 18268991058491755532
12156800 1 13967146381915958874
13004483 165 16821927816479420618
133893 2 18269832030732113097
14068700 675 17615960015829857707
14117953 113 16325984270872595613
14931854 50 18130797749964878564
17492 54 18411710893566311172
17909252 39 16913964000824872503
18681886 176 17986383391367717823
19026451 147 18196080050241573375
19319366 153 18411978049027306511
20567600 347 18270947059717662721
20600515 1 17113507352351961315
20691752 17 18410581677464908184
22182313 1 17697057073444108652
22907989 373 17472700702845029029
23366157 5 18266166254664625257
238 59 18413395340594297802
25147074 1 17775005632046381017
27425 322 17243008214293170452
3380486 145 16896807358724301319
35225 105 17609472166891336442
4058900 60 18335427858735748220
4066623 53 17467326956256568221
437795 51 18340781424655384107
4409770 3 17762334021521289570
474 4 18412260644668169109
484989 97 18267314298806167767
508706 21 17835804471053415558
57527358 35 15720541899926157728
57527585 103 17693148167725686446
59755656 215 18127964412037652847
70251023 43 17841164246515099447
7471813 234 17833264225394058471
9981440 41 17698427060389014856

> <PUBCHEM_SHAPE_MULTIPOLES>
603.64
7.91
5.68
1.95
8.54
7.71
0.27
-7.52
-4.45
-3.16
2.7
-0.27
0.16
0.34

> <PUBCHEM_SHAPE_SELFOVERLAP>
1310.26

> <PUBCHEM_SHAPE_VOLUME>
326.5

> <PUBCHEM_COORDINATE_TYPE>
2
5
10

$$$$
