100955863
  -OEChem-08262015273D

 30 30  0     1  0  0  0  0  0999 V2000
    3.2245    0.3390    2.3318 O   0  0  0  0  0  0  0  0  0  0  0  0
    2.0391    0.3635   -1.7207 O   0  0  0  0  0  0  0  0  0  0  0  0
   -2.7786   -1.6450    0.0839 O   0  0  0  0  0  0  0  0  0  0  0  0
    2.9940   -1.1912   -0.3155 O   0  0  0  0  0  0  0  0  0  0  0  0
   -4.0149    0.7967   -0.4007 O   0  0  0  0  0  0  0  0  0  0  0  0
    1.5668    0.5775    0.5866 C   0  0  1  0  0  0  0  0  0  0  0  0
    0.0705    0.6329    0.3214 C   0  0  0  0  0  0  0  0  0  0  0  0
    1.8936   -0.0124    1.9662 C   0  0  0  0  0  0  0  0  0  0  0  0
   -0.6817   -0.5419    0.3212 C   0  0  0  0  0  0  0  0  0  0  0  0
   -0.5500    1.8584    0.0791 C   0  0  0  0  0  0  0  0  0  0  0  0
    2.2908   -0.2069   -0.5041 C   0  0  0  0  0  0  0  0  0  0  0  0
   -2.0545   -0.4910    0.0791 C   0  0  0  0  0  0  0  0  0  0  0  0
   -1.9227    1.9091   -0.1634 C   0  0  0  0  0  0  0  0  0  0  0  0
   -2.6750    0.7345   -0.1633 C   0  0  0  0  0  0  0  0  0  0  0  0
    2.6657   -0.2684   -2.8415 C   0  0  0  0  0  0  0  0  0  0  0  0
   -2.0676   -2.8547    0.3400 C   0  0  0  0  0  0  0  0  0  0  0  0
    1.9899    1.5913    0.5497 H   0  0  0  0  0  0  0  0  0  0  0  0
    1.8039   -1.1040    1.9873 H   0  0  0  0  0  0  0  0  0  0  0  0
    1.2258    0.4014    2.7303 H   0  0  0  0  0  0  0  0  0  0  0  0
   -0.1487   -1.4670    0.5113 H   0  0  0  0  0  0  0  0  0  0  0  0
    0.0232    2.7815    0.0759 H   0  0  0  0  0  0  0  0  0  0  0  0
   -2.3934    2.8705   -0.3507 H   0  0  0  0  0  0  0  0  0  0  0  0
    3.3880   -0.0417    3.2115 H   0  0  0  0  0  0  0  0  0  0  0  0
   -4.2679    1.7244   -0.5468 H   0  0  0  0  0  0  0  0  0  0  0  0
    2.3852    0.2829   -3.7429 H   0  0  0  0  0  0  0  0  0  0  0  0
    2.3158   -1.3006   -2.9381 H   0  0  0  0  0  0  0  0  0  0  0  0
    3.7541   -0.2366   -2.7347 H   0  0  0  0  0  0  0  0  0  0  0  0
   -2.7977   -3.6702    0.3062 H   0  0  0  0  0  0  0  0  0  0  0  0
   -1.6309   -2.8620    1.3445 H   0  0  0  0  0  0  0  0  0  0  0  0
   -1.3265   -3.0606   -0.4399 H   0  0  0  0  0  0  0  0  0  0  0  0
  1  8  1  0  0  0  0
  1 23  1  0  0  0  0
  2 11  1  0  0  0  0
  2 15  1  0  0  0  0
  3 12  1  0  0  0  0
  3 16  1  0  0  0  0
  4 11  2  0  0  0  0
  5 14  1  0  0  0  0
  5 24  1  0  0  0  0
  6  7  1  0  0  0  0
  6  8  1  0  0  0  0
  6 11  1  0  0  0  0
  6 17  1  0  0  0  0
  7  9  2  0  0  0  0
  7 10  1  0  0  0  0
  8 18  1  0  0  0  0
  8 19  1  0  0  0  0
  9 12  1  0  0  0  0
  9 20  1  0  0  0  0
 10 13  2  0  0  0  0
 10 21  1  0  0  0  0
 12 14  2  0  0  0  0
 13 14  1  0  0  0  0
 13 22  1  0  0  0  0
 15 25  1  0  0  0  0
 15 26  1  0  0  0  0
 15 27  1  0  0  0  0
 16 28  1  0  0  0  0
 16 29  1  0  0  0  0
 16 30  1  0  0  0  0
M  END
> <PUBCHEM_COMPOUND_CID>
100955863

> <PUBCHEM_CONFORMER_RMSD>
0.6

> <PUBCHEM_CONFORMER_DIVERSEORDER>
2
41
45
22
50
43
56
24
26
33
21
62
7
47
48
53
54
5
14
31
59
32
3
38
63
60
19
15
52
1
39
25
49
30
28
12
46
36
55
44
61
29
16
51
40
42
64
6
34
37
8
13
58
20
10
35
17
9
57
11
18
27
23
4

> <PUBCHEM_MMFF94_PARTIAL_CHARGES>
21
1 -0.68
10 -0.15
11 0.66
12 0.08
13 -0.15
14 0.08
15 0.28
16 0.28
2 -0.43
20 0.15
21 0.15
22 0.15
23 0.4
24 0.45
3 -0.36
4 -0.57
5 -0.53
6 0.2
7 -0.14
8 0.28
9 -0.15

> <PUBCHEM_EFFECTIVE_ROTOR_COUNT>
5

> <PUBCHEM_PHARMACOPHORE_FEATURES>
6
1 1 acceptor
1 1 donor
1 3 acceptor
1 4 acceptor
1 5 donor
6 7 9 10 12 13 14 rings

> <PUBCHEM_HEAVY_ATOM_COUNT>
16

> <PUBCHEM_ATOM_DEF_STEREO_COUNT>
1

> <PUBCHEM_ATOM_UDEF_STEREO_COUNT>
0

> <PUBCHEM_BOND_DEF_STEREO_COUNT>
0

> <PUBCHEM_BOND_UDEF_STEREO_COUNT>
0

> <PUBCHEM_ISOTOPIC_ATOM_COUNT>
0

> <PUBCHEM_COMPONENT_COUNT>
1

> <PUBCHEM_CACTVS_TAUTO_COUNT>
7

> <PUBCHEM_CONFORMER_ID>
060476D700000002

> <PUBCHEM_MMFF94_ENERGY>
46.4565

> <PUBCHEM_FEATURE_SELFOVERLAP>
30.448

> <PUBCHEM_SHAPE_FINGERPRINT>
107287 299 17346314955463145336
11031198 65 14490486248426151650
11471102 22 16559031567169429036
11582403 64 16402458804877073120
12202030 40 17775017811465486215
12553582 1 18047478008753127299
12716758 59 18340202995006558915
13083527 12 17405113697574141203
13538477 17 18040429992904539897
14115302 16 17968365797617876945
14817 1 18266719360046640852
15219456 202 17846486046096698784
15375462 175 18337962190330276401
16752209 62 18263079929715111965
16945 1 18409163286411889649
19049666 15 17702949102062674272
19765921 60 17096953436208112164
20279233 1 18202274818789352155
20600515 1 18339342107214379585
20645476 183 17240207612274255571
20645477 70 16773788173848276557
20715346 28 17846498183558167427
21061003 4 16557929839317410222
22112679 90 17894346670536033844
232386 152 18188757452849491210
23419403 2 16889985838361398300
23526113 38 17560528279007206902
23557571 272 18270970153530148272
23559900 14 18412824660580542634
23598291 2 17168137897490490906
2748010 2 18201722911313029759
77492 1 17530682095568103368
81228 2 18342174462532051489
88987 49 18335696156731292913
9981440 41 17248114402796920852

> <PUBCHEM_SHAPE_MULTIPOLES>
299.93
5.55
2.01
1.9
0.59
0.99
-0.45
0.64
-0.74
2.1
0.09
-3.19
0.01
0.52

> <PUBCHEM_SHAPE_SELFOVERLAP>
617.092

> <PUBCHEM_SHAPE_VOLUME>
172.9

> <PUBCHEM_COORDINATE_TYPE>
2
5
10

$$$$
