71577010
  -OEChem-08262015293D

 38 38  0     1  0  0  0  0  0999 V2000
    0.5356   -0.7369    2.4845 O   0  0  0  0  0  0  0  0  0  0  0  0
    2.4363    2.6890   -1.7587 O   0  0  0  0  0  0  0  0  0  0  0  0
    2.0958   -1.4726   -2.3865 O   0  0  0  0  0  0  0  0  0  0  0  0
    3.5899   -1.7233    0.4377 O   0  0  0  0  0  0  0  0  0  0  0  0
    3.3902   -0.0143    1.9139 O   0  0  0  0  0  0  0  0  0  0  0  0
   -3.5310   -1.5288   -0.7460 O   0  0  0  0  0  0  0  0  0  0  0  0
   -4.7146    0.9756   -0.5158 O   0  0  0  0  0  0  0  0  0  0  0  0
    1.5861   -0.4020    0.3093 C   0  0  2  0  0  0  0  0  0  0  0  0
    1.7751    0.4882   -0.9603 C   0  0  0  0  0  0  0  0  0  0  0  0
    0.5717    0.1439    1.3537 C   0  0  1  0  0  0  0  0  0  0  0  0
    2.6468   -0.2109   -2.0325 C   0  0  0  0  0  0  0  0  0  0  0  0
    2.3999    1.8535   -0.6066 C   0  0  0  0  0  0  0  0  0  0  0  0
   -0.8424    0.3634    0.8517 C   0  0  0  0  0  0  0  0  0  0  0  0
    2.9299   -0.6719    0.9890 C   0  0  0  0  0  0  0  0  0  0  0  0
   -1.5492   -0.6915    0.2744 C   0  0  0  0  0  0  0  0  0  0  0  0
   -1.4365    1.6200    0.9682 C   0  0  0  0  0  0  0  0  0  0  0  0
   -2.8503   -0.4899   -0.1863 C   0  0  0  0  0  0  0  0  0  0  0  0
   -2.7376    1.8217    0.5072 C   0  0  0  0  0  0  0  0  0  0  0  0
   -3.4445    0.7668   -0.0699 C   0  0  0  0  0  0  0  0  0  0  0  0
   -2.8513   -2.7801   -0.8269 C   0  0  0  0  0  0  0  0  0  0  0  0
    1.2182   -1.3899    0.0002 H   0  0  0  0  0  0  0  0  0  0  0  0
    0.7913    0.6532   -1.4180 H   0  0  0  0  0  0  0  0  0  0  0  0
    0.9556    1.0903    1.7520 H   0  0  0  0  0  0  0  0  0  0  0  0
    3.4252    1.7434   -0.2398 H   0  0  0  0  0  0  0  0  0  0  0  0
    2.6795    0.3970   -2.9432 H   0  0  0  0  0  0  0  0  0  0  0  0
    3.6775   -0.3536   -1.6944 H   0  0  0  0  0  0  0  0  0  0  0  0
    1.8098    2.3746    0.1516 H   0  0  0  0  0  0  0  0  0  0  0  0
   -1.0460   -1.6501    0.2200 H   0  0  0  0  0  0  0  0  0  0  0  0
   -0.8985    2.4516    1.4151 H   0  0  0  0  0  0  0  0  0  0  0  0
   -0.2340   -0.5022    3.0307 H   0  0  0  0  0  0  0  0  0  0  0  0
    2.6762   -1.8574   -3.0651 H   0  0  0  0  0  0  0  0  0  0  0  0
    2.8356    3.5329   -1.4866 H   0  0  0  0  0  0  0  0  0  0  0  0
   -3.1884    2.8057    0.6040 H   0  0  0  0  0  0  0  0  0  0  0  0
    4.4553   -1.8800    0.8721 H   0  0  0  0  0  0  0  0  0  0  0  0
   -4.9590    1.9028   -0.3528 H   0  0  0  0  0  0  0  0  0  0  0  0
   -3.5378   -3.4888   -1.3019 H   0  0  0  0  0  0  0  0  0  0  0  0
   -2.6210   -3.1796    0.1667 H   0  0  0  0  0  0  0  0  0  0  0  0
   -1.9657   -2.7184   -1.4687 H   0  0  0  0  0  0  0  0  0  0  0  0
  1 10  1  0  0  0  0
  1 30  1  0  0  0  0
  2 12  1  0  0  0  0
  2 32  1  0  0  0  0
  3 11  1  0  0  0  0
  3 31  1  0  0  0  0
  4 14  1  0  0  0  0
  4 34  1  0  0  0  0
  5 14  2  0  0  0  0
  6 17  1  0  0  0  0
  6 20  1  0  0  0  0
  7 19  1  0  0  0  0
  7 35  1  0  0  0  0
  8  9  1  0  0  0  0
  8 10  1  0  0  0  0
  8 14  1  0  0  0  0
  8 21  1  0  0  0  0
  9 11  1  0  0  0  0
  9 12  1  0  0  0  0
  9 22  1  0  0  0  0
 10 13  1  0  0  0  0
 10 23  1  0  0  0  0
 11 25  1  0  0  0  0
 11 26  1  0  0  0  0
 12 24  1  0  0  0  0
 12 27  1  0  0  0  0
 13 15  2  0  0  0  0
 13 16  1  0  0  0  0
 15 17  1  0  0  0  0
 15 28  1  0  0  0  0
 16 18  2  0  0  0  0
 16 29  1  0  0  0  0
 17 19  2  0  0  0  0
 18 19  1  0  0  0  0
 18 33  1  0  0  0  0
 20 36  1  0  0  0  0
 20 37  1  0  0  0  0
 20 38  1  0  0  0  0
M  END
> <PUBCHEM_COMPOUND_CID>
71577010

> <PUBCHEM_CONFORMER_RMSD>
0.8

> <PUBCHEM_CONFORMER_DIVERSEORDER>
1
155
123
150
174
82
55
71
102
153
167
75
24
121
59
18
166
191
181
52
173
76
14
47
61
169
92
50
31
190
188
143
118
60
68
56
180
171
116
63
172
161
46
34
179
125
39
159
148
48
192
96
93
53
26
57
38
90
30
66
81
2
15
157
163
65
37
33
139
77
98
168
183
101
19
146
156
99
149
136
83
141
184
87
135
35
107
42
189
45
78
154
85
120
152
108
175
109
138
186
160
80
128
112
114
103
170
21
185
49
177
95
158
110
124
126
74
145
130
162
147
3
94
187
133
84
113
106
129
8
6
100
122
4
69
86
40
29
62
165
131
43
111
88
5
79
72
25
20
144
105
11
178
17
117
32
91
9
51
73
164
97
41
54
22
142
23
119
67
115
64
44
36
137
10
16
151
132
27
7
140
134
182
176
127
12
28
13
104
89
70
58

> <PUBCHEM_MMFF94_PARTIAL_CHARGES>
27
1 -0.68
10 0.42
11 0.28
12 0.28
13 -0.14
14 0.66
15 -0.15
16 -0.15
17 0.08
18 -0.15
19 0.08
2 -0.68
20 0.28
28 0.15
29 0.15
3 -0.68
30 0.4
31 0.4
32 0.4
33 0.15
34 0.5
35 0.45
4 -0.65
5 -0.57
6 -0.36
7 -0.53
8 0.06

> <PUBCHEM_EFFECTIVE_ROTOR_COUNT>
7

> <PUBCHEM_PHARMACOPHORE_FEATURES>
12
1 1 acceptor
1 1 donor
1 2 acceptor
1 2 donor
1 3 acceptor
1 3 donor
1 4 acceptor
1 5 acceptor
1 6 acceptor
1 7 donor
3 4 5 14 anion
6 13 15 16 17 18 19 rings

> <PUBCHEM_HEAVY_ATOM_COUNT>
20

> <PUBCHEM_ATOM_DEF_STEREO_COUNT>
0

> <PUBCHEM_ATOM_UDEF_STEREO_COUNT>
2

> <PUBCHEM_BOND_DEF_STEREO_COUNT>
0

> <PUBCHEM_BOND_UDEF_STEREO_COUNT>
0

> <PUBCHEM_ISOTOPIC_ATOM_COUNT>
0

> <PUBCHEM_COMPONENT_COUNT>
1

> <PUBCHEM_CACTVS_TAUTO_COUNT>
3

> <PUBCHEM_CONFORMER_ID>
04442DB200000001

> <PUBCHEM_MMFF94_ENERGY>
59.0602

> <PUBCHEM_FEATURE_SELFOVERLAP>
60.96

> <PUBCHEM_SHAPE_FINGERPRINT>
10366900 7 16917058954041812449
11578080 2 17392708783788054944
12202030 40 17131841975180947295
12363563 72 15338285519361125372
12553582 1 17770500047616703183
13134695 92 17168134612367932648
13296908 3 15267066908603715625
14115302 16 18343015567256985865
14181834 199 17385997412594093152
14252887 29 13973964315669556557
15375358 24 17060044948313800899
15635459 17 15626507172402694877
16945 1 18190478072672683313
17980427 23 18266719437635971408
1813 80 17098054919584761682
18186145 218 16442780232713392859
18981168 100 15575294197282256366
19049666 15 16988284157943390411
20279233 1 17132110238933103539
20645476 183 18187917332241656107
21486144 27 15502387728812447821
21639500 275 16950279619859378456
23175994 123 14924782277620024466
23419403 2 16888855471841769888
23526113 38 16845282800958733355
23557571 272 18060135465988250081
23559900 14 17988932149820352156
23598291 2 18186800266475678487
3082319 5 18260550056185068287
474 4 17676766573515544160
5262128 65 18196963065336627372
568465 68 16415185823587605610
5895379 119 18195533597252417172
6438718 38 16953638464800246717
6669772 16 15984249881687847856
74978 22 17968388895814903496
7615 1 18333448772186270429
77492 1 18113615664450470673
81228 2 16916237559043021833
9709674 26 17489584511459275903
9981440 41 17682402795069448632

> <PUBCHEM_SHAPE_MULTIPOLES>
370.51
7.13
2.31
1.97
3.05
0.48
-0.02
0.63
-1.37
0.96
-0.93
-2.33
0.03
-0.81

> <PUBCHEM_SHAPE_SELFOVERLAP>
758.566

> <PUBCHEM_SHAPE_VOLUME>
213.2

> <PUBCHEM_COORDINATE_TYPE>
2
5
10

$$$$
