54707974
  -OEChem-08262016453D

 20 20  0     0  0  0  0  0  0999 V2000
    1.9643    1.7562   -0.4120 O   0  0  0  0  0  0  0  0  0  0  0  0
    0.9472   -2.9312    0.1696 O   0  0  0  0  0  0  0  0  0  0  0  0
    2.7660   -0.8777   -0.1680 O   0  5  0  0  0  0  0  0  0  0  0  0
   -2.8718    1.6498   -0.1079 O   0  0  0  0  0  0  0  0  0  0  0  0
   -3.5394   -0.5049    0.1710 O   0  0  0  0  0  0  0  0  0  0  0  0
   -1.2095    0.0027   -0.0258 C   0  0  0  0  0  0  0  0  0  0  0  0
    1.0863    0.7225   -0.2443 C   0  0  0  0  0  0  0  0  0  0  0  0
   -0.2747    1.0239   -0.1956 C   0  0  0  0  0  0  0  0  0  0  0  0
   -0.7834   -1.3199    0.0952 C   0  0  0  0  0  0  0  0  0  0  0  0
    1.5124   -0.6001   -0.1232 C   0  0  0  0  0  0  0  0  0  0  0  0
    0.5775   -1.6213    0.0465 C   0  0  0  0  0  0  0  0  0  0  0  0
   -2.6287    0.3169    0.0249 C   0  0  0  0  0  0  0  0  0  0  0  0
    2.4539    2.3829    0.7696 C   0  0  0  0  0  0  0  0  0  0  0  0
   -0.5720    2.0648   -0.2945 H   0  0  0  0  0  0  0  0  0  0  0  0
   -1.5024   -2.1250    0.2279 H   0  0  0  0  0  0  0  0  0  0  0  0
    3.1611    3.1632    0.4751 H   0  0  0  0  0  0  0  0  0  0  0  0
    2.9754    1.6651    1.4103 H   0  0  0  0  0  0  0  0  0  0  0  0
    1.6327    2.8495    1.3233 H   0  0  0  0  0  0  0  0  0  0  0  0
    1.9174   -2.9784    0.1164 H   0  0  0  0  0  0  0  0  0  0  0  0
   -3.8312    1.8511   -0.0722 H   0  0  0  0  0  0  0  0  0  0  0  0
  1  7  1  0  0  0  0
  1 13  1  0  0  0  0
  2 11  1  0  0  0  0
  2 19  1  0  0  0  0
  3 10  1  0  0  0  0
  4 12  1  0  0  0  0
  4 20  1  0  0  0  0
  5 12  2  0  0  0  0
  6  8  1  0  0  0  0
  6  9  2  0  0  0  0
  6 12  1  0  0  0  0
  7  8  2  0  0  0  0
  7 10  1  0  0  0  0
  8 14  1  0  0  0  0
  9 11  1  0  0  0  0
  9 15  1  0  0  0  0
 10 11  2  0  0  0  0
 13 16  1  0  0  0  0
 13 17  1  0  0  0  0
 13 18  1  0  0  0  0
M  CHG  1   3  -1
M  END
> <PUBCHEM_COMPOUND_CID>
54707974

> <PUBCHEM_CONFORMER_RMSD>
0.6

> <PUBCHEM_CONFORMER_DIVERSEORDER>
1
4
3
2

> <PUBCHEM_MMFF94_PARTIAL_CHARGES>
17
1 -0.36
10 -0.17
11 0.08
12 0.63
13 0.28
14 0.15
15 0.15
19 0.45
2 -0.53
20 0.5
3 -0.83
4 -0.65
5 -0.57
6 0.09
7 0.08
8 -0.15
9 -0.15

> <PUBCHEM_EFFECTIVE_ROTOR_COUNT>
2

> <PUBCHEM_PHARMACOPHORE_FEATURES>
6
1 1 acceptor
1 2 donor
1 4 acceptor
1 5 acceptor
3 4 5 12 anion
6 6 7 8 9 10 11 rings

> <PUBCHEM_HEAVY_ATOM_COUNT>
13

> <PUBCHEM_ATOM_DEF_STEREO_COUNT>
0

> <PUBCHEM_ATOM_UDEF_STEREO_COUNT>
0

> <PUBCHEM_BOND_DEF_STEREO_COUNT>
0

> <PUBCHEM_BOND_UDEF_STEREO_COUNT>
0

> <PUBCHEM_ISOTOPIC_ATOM_COUNT>
0

> <PUBCHEM_COMPONENT_COUNT>
1

> <PUBCHEM_CACTVS_TAUTO_COUNT>
3

> <PUBCHEM_CONFORMER_ID>
0342C70600000001

> <PUBCHEM_MMFF94_ENERGY>
54.438

> <PUBCHEM_FEATURE_SELFOVERLAP>
30.504

> <PUBCHEM_SHAPE_FINGERPRINT>
1 1 18410856559655782966
13380535 76 18196367246092915206
14325111 11 18410294739637553885
14648413 74 18264208019875830121
15775835 57 18201163272895483521
16945 1 18338514136366631559
17990270 104 18264770956844213619
193761 8 18122064466559938398
20511035 2 18261966257321639806
20645477 70 18343018883420280999
21040471 1 18192999441929681572
21524375 3 18199465652564249620
2334 1 18265898149235265654
23402539 116 17550937526487660447
23552423 10 18409731720985508039
241688 4 17545604452774391450
2748010 2 18264216978792539670
305870 269 18337099146564195296
3071541 236 17758659436528872370
53812653 166 18338514127887414824
63268167 104 18193281780189485577
7364860 26 18341894039326144030
81228 2 17402335265792065674

> <PUBCHEM_SHAPE_MULTIPOLES>
238.19
4.27
2.57
0.66
2.26
0.7
0.03
-1.88
0.29
-1.45
0.3
-0.15
-0.12
0.31

> <PUBCHEM_SHAPE_SELFOVERLAP>
505.585

> <PUBCHEM_SHAPE_VOLUME>
133.9

> <PUBCHEM_COORDINATE_TYPE>
2
5
10

$$$$
