5315615
  -OEChem-08262016023D

 42 43  0     1  0  0  0  0  0999 V2000
   -0.9533   -1.0742   -0.3217 O   0  0  0  0  0  0  0  0  0  0  0  0
   -2.5489   -4.1160    0.4107 O   0  0  0  0  0  0  0  0  0  0  0  0
   -3.3453    3.5948   -0.6779 O   0  0  0  0  0  0  0  0  0  0  0  0
   -5.5458    3.4703    1.0161 O   0  0  0  0  0  0  0  0  0  0  0  0
   -1.0892   -3.6571   -1.2661 O   0  0  0  0  0  0  0  0  0  0  0  0
    0.1826   -2.3983    1.1927 O   0  0  0  0  0  0  0  0  0  0  0  0
    7.3054   -0.2762    0.5685 O   0  0  0  0  0  0  0  0  0  0  0  0
    7.0544    2.2497   -0.5623 O   0  0  0  0  0  0  0  0  0  0  0  0
   -3.2536   -1.2746   -1.0035 C   0  0  0  0  0  0  0  0  0  0  0  0
   -2.1549   -1.8161   -0.0864 C   0  0  1  0  0  0  0  0  0  0  0  0
   -3.8643   -0.0030   -0.4647 C   0  0  0  0  0  0  0  0  0  0  0  0
   -3.3169    1.2182   -0.8238 C   0  0  0  0  0  0  0  0  0  0  0  0
   -4.9609   -0.0811    0.3787 C   0  0  0  0  0  0  0  0  0  0  0  0
   -1.8625   -3.2696   -0.4000 C   0  0  0  0  0  0  0  0  0  0  0  0
   -3.8813    2.3929   -0.3263 C   0  0  0  0  0  0  0  0  0  0  0  0
   -5.5251    1.0935    0.8764 C   0  0  0  0  0  0  0  0  0  0  0  0
   -4.9855    2.3304    0.5238 C   0  0  0  0  0  0  0  0  0  0  0  0
    0.1331   -1.4806    0.3893 C   0  0  0  0  0  0  0  0  0  0  0  0
    3.6714   -0.0059    0.2786 C   0  0  0  0  0  0  0  0  0  0  0  0
    1.2657   -0.6028    0.0168 C   0  0  0  0  0  0  0  0  0  0  0  0
    2.4838   -0.7930    0.5708 C   0  0  0  0  0  0  0  0  0  0  0  0
    4.9362   -0.5196    0.5645 C   0  0  0  0  0  0  0  0  0  0  0  0
    3.5454    1.2625   -0.2877 C   0  0  0  0  0  0  0  0  0  0  0  0
    6.0754    0.2350    0.2839 C   0  0  0  0  0  0  0  0  0  0  0  0
    4.6845    2.0173   -0.5680 C   0  0  0  0  0  0  0  0  0  0  0  0
    5.9495    1.5036   -0.2824 C   0  0  0  0  0  0  0  0  0  0  0  0
   -4.0488   -2.0214   -1.1295 H   0  0  0  0  0  0  0  0  0  0  0  0
   -2.8571   -1.0881   -2.0106 H   0  0  0  0  0  0  0  0  0  0  0  0
   -2.4249   -1.7175    0.9728 H   0  0  0  0  0  0  0  0  0  0  0  0
   -2.4560    1.2630   -1.4857 H   0  0  0  0  0  0  0  0  0  0  0  0
   -5.3866   -1.0398    0.6605 H   0  0  0  0  0  0  0  0  0  0  0  0
   -6.3847    1.0303    1.5383 H   0  0  0  0  0  0  0  0  0  0  0  0
    1.0688    0.1654   -0.7225 H   0  0  0  0  0  0  0  0  0  0  0  0
    2.6222   -1.5993    1.2881 H   0  0  0  0  0  0  0  0  0  0  0  0
    5.0476   -1.5081    1.0052 H   0  0  0  0  0  0  0  0  0  0  0  0
    2.5815    1.7114   -0.5089 H   0  0  0  0  0  0  0  0  0  0  0  0
    4.5725    3.0059   -1.0054 H   0  0  0  0  0  0  0  0  0  0  0  0
   -2.3505   -5.0555    0.2101 H   0  0  0  0  0  0  0  0  0  0  0  0
   -2.5886    3.4436   -1.2700 H   0  0  0  0  0  0  0  0  0  0  0  0
   -6.2981    3.2333    1.5852 H   0  0  0  0  0  0  0  0  0  0  0  0
    7.9765    0.3794    0.3103 H   0  0  0  0  0  0  0  0  0  0  0  0
    6.7748    3.0967   -0.9499 H   0  0  0  0  0  0  0  0  0  0  0  0
  1 10  1  0  0  0  0
  1 18  1  0  0  0  0
  2 14  1  0  0  0  0
  2 38  1  0  0  0  0
  3 15  1  0  0  0  0
  3 39  1  0  0  0  0
  4 17  1  0  0  0  0
  4 40  1  0  0  0  0
  5 14  2  0  0  0  0
  6 18  2  0  0  0  0
  7 24  1  0  0  0  0
  7 41  1  0  0  0  0
  8 26  1  0  0  0  0
  8 42  1  0  0  0  0
  9 10  1  0  0  0  0
  9 11  1  0  0  0  0
  9 27  1  0  0  0  0
  9 28  1  0  0  0  0
 10 14  1  0  0  0  0
 10 29  1  0  0  0  0
 11 12  2  0  0  0  0
 11 13  1  0  0  0  0
 12 15  1  0  0  0  0
 12 30  1  0  0  0  0
 13 16  2  0  0  0  0
 13 31  1  0  0  0  0
 15 17  2  0  0  0  0
 16 17  1  0  0  0  0
 16 32  1  0  0  0  0
 18 20  1  0  0  0  0
 19 21  1  0  0  0  0
 19 22  2  0  0  0  0
 19 23  1  0  0  0  0
 20 21  2  0  0  0  0
 20 33  1  0  0  0  0
 21 34  1  0  0  0  0
 22 24  1  0  0  0  0
 22 35  1  0  0  0  0
 23 25  2  0  0  0  0
 23 36  1  0  0  0  0
 24 26  2  0  0  0  0
 25 26  1  0  0  0  0
 25 37  1  0  0  0  0
M  END
> <PUBCHEM_COMPOUND_CID>
5315615

> <PUBCHEM_CONFORMER_RMSD>
1

> <PUBCHEM_CONFORMER_DIVERSEORDER>
1
141
185
267
51
209
95
41
25
177
72
217
85
68
140
188
212
159
152
125
201
244
251
3
238
261
220
77
47
63
117
266
145
213
92
8
223
160
255
45
37
272
78
228
249
61
46
112
172
257
142
229
24
82
258
161
138
57
53
128
260
193
149
234
292
111
214
123
133
275
131
280
180
144
252
147
14
22
264
290
277
191
171
121
237
64
199
246
202
66
12
26
150
56
247
7
226
100
69
250
233
239
88
19
120
281
113
33
129
116
154
28
210
263
158
215
289
134
236
91
286
30
122
65
110
179
248
259
106
169
52
288
11
227
187
157
79
74
38
208
182
96
243
225
2
55
186
189
39
13
279
89
221
107
54
269
93
59
216
276
104
84
278
148
268
70
195
143
32
211
60
18
176
196
168
49
235
34
17
137
203
10
9
265
119
21
222
241
282
50
167
173
245
184
20
166
151
124
156
108
198
27
80
109
190
146
76
4
200
274
83
42
291
207
35
287
165
283
62
99
75
44
115
127
163
23
224
40
205
230
270
136
126
262
132
15
178
139
130
5
114
162
31
97
36
219
16
284
29
232
90
105
67
86
73
6
197
155
102
231
218
94
285
204
183
256
175
98
71
192
240
271
103
87
135
242
48
273
206
58
101
43
118
253
170
153
164
174
181
81
194
254

> <PUBCHEM_MMFF94_PARTIAL_CHARGES>
39
1 -0.43
10 0.34
11 -0.14
12 -0.15
13 -0.15
14 0.66
15 0.08
16 -0.15
17 0.08
18 0.71
19 0.03
2 -0.65
20 -0.14
21 -0.18
22 -0.15
23 -0.15
24 0.08
25 -0.15
26 0.08
3 -0.53
30 0.15
31 0.15
32 0.15
33 0.15
34 0.15
35 0.15
36 0.15
37 0.15
38 0.5
39 0.45
4 -0.53
40 0.45
41 0.45
42 0.45
5 -0.57
6 -0.57
7 -0.53
8 -0.53
9 0.14

> <PUBCHEM_EFFECTIVE_ROTOR_COUNT>
7

> <PUBCHEM_PHARMACOPHORE_FEATURES>
10
1 2 acceptor
1 3 donor
1 4 donor
1 5 acceptor
1 6 acceptor
1 7 donor
1 8 donor
3 2 5 14 anion
6 11 12 13 15 16 17 rings
6 19 22 23 24 25 26 rings

> <PUBCHEM_HEAVY_ATOM_COUNT>
26

> <PUBCHEM_ATOM_DEF_STEREO_COUNT>
0

> <PUBCHEM_ATOM_UDEF_STEREO_COUNT>
1

> <PUBCHEM_BOND_DEF_STEREO_COUNT>
1

> <PUBCHEM_BOND_UDEF_STEREO_COUNT>
0

> <PUBCHEM_ISOTOPIC_ATOM_COUNT>
0

> <PUBCHEM_COMPONENT_COUNT>
1

> <PUBCHEM_CACTVS_TAUTO_COUNT>
180

> <PUBCHEM_CONFORMER_ID>
00511C1F00000001

> <PUBCHEM_MMFF94_ENERGY>
65.2672

> <PUBCHEM_FEATURE_SELFOVERLAP>
50.814

> <PUBCHEM_SHAPE_FINGERPRINT>
100830 39 18408321107633459376
10165383 225 18131636660842206787
10411042 1 17762618791382507823
10595046 47 18191019209173185574
10670039 82 18412254047709275985
12107183 9 18263070025731842802
12390115 104 18343028757344164345
13167372 99 18408884040918747048
13177829 73 18409726257950709328
13785724 45 17760924040263540498
14251757 5 18342738550224505937
14251764 75 18126574414487005257
14257110 125 18410290286030579669
14347329 18 18341606014719564440
14713325 29 18337674234380707363
14790565 3 18337107848014709248
15064981 194 18044383948514000471
15163728 17 18129952178336000111
15183329 4 18261101990138271070
15289351 153 18050279565330675336
15338160 23 18336273435381604587
15604295 49 18127969927214524200
15876981 60 18192149519615751271
16126227 98 18342461439409380137
17844677 252 18263928920306164910
18393751 57 18261402114000306771
19611394 137 17970080027057520547
20101258 96 17905332071766997971
20691028 202 18412822460893487169
21365058 113 16762552016202245839
21756936 100 18342168964836664911
23569943 247 16445001203974995890
25019877 29 18059303140756964863
2838139 119 18272927237151786836
3610482 184 18115038523091968734
397830 11 11025793258825623566
4015057 19 12966837001035082226
4073 2 18041281088805619394
4197921 191 18187925127280133692
50677037 204 18190170377127145164
5283173 99 18341610469011983224
59755656 520 17385443228505711690
6126387 218 18201714030497275898
6299153 45 18336542695518623098
6327066 14 18337666409297862725
636775 72 18196086862714183728
6700243 42 17480338928761703102
7226269 152 18059856147133004160
7808743 9 18411134744972433435

> <PUBCHEM_SHAPE_MULTIPOLES>
488.11
17.54
4.34
0.95
22.61
1.43
0.01
-14.67
-1.74
-6.14
0.37
-0.48
0.08
-1.71

> <PUBCHEM_SHAPE_SELFOVERLAP>
1046.899

> <PUBCHEM_SHAPE_VOLUME>
267.8

> <PUBCHEM_COORDINATE_TYPE>
2
5
10

$$$$
