132515142
  -OEChem-08262015133D

 64 66  0     1  0  0  0  0  0999 V2000
   -1.5089    1.6482   -0.5665 O   0  0  0  0  0  0  0  0  0  0  0  0
   -3.3043    0.7795    0.6444 O   0  0  0  0  0  0  0  0  0  0  0  0
   -1.0741    4.7686    2.0679 O   0  0  0  0  0  0  0  0  0  0  0  0
    0.1497    4.9134   -0.5468 O   0  0  0  0  0  0  0  0  0  0  0  0
   -3.6118    3.2774    1.9381 O   0  0  0  0  0  0  0  0  0  0  0  0
    1.2106    1.6202   -1.1078 O   0  0  0  0  0  0  0  0  0  0  0  0
   -5.3265   -3.4343   -0.6456 O   0  0  0  0  0  0  0  0  0  0  0  0
    2.6149    1.2131   -2.8859 O   0  0  0  0  0  0  0  0  0  0  0  0
    0.1136   -2.9420   -1.6095 O   0  0  0  0  0  0  0  0  0  0  0  0
    0.7239   -3.9769    0.8971 O   0  0  0  0  0  0  0  0  0  0  0  0
    2.8306   -1.4722    2.3981 O   0  0  0  0  0  0  0  0  0  0  0  0
    6.7213   -0.3209   -0.1468 O   0  0  0  0  0  0  0  0  0  0  0  0
    5.5781   -1.5527    2.0546 O   0  0  0  0  0  0  0  0  0  0  0  0
   -1.5925    4.1093    0.9117 C   0  0  1  0  0  0  0  0  0  0  0  0
   -0.4137    3.7309    0.0148 C   0  0  1  0  0  0  0  0  0  0  0  0
   -2.3801    2.8716    1.3418 C   0  0  2  0  0  0  0  0  0  0  0  0
   -0.8662    2.8009   -1.1134 C   0  0  1  0  0  0  0  0  0  0  0  0
   -2.6996    1.9729    0.1472 C   0  0  1  0  0  0  0  0  0  0  0  0
    0.3120    2.3160   -1.9523 C   0  0  0  0  0  0  0  0  0  0  0  0
   -4.0332    0.1086   -0.3716 C   0  0  0  0  0  0  0  0  0  0  0  0
   -4.2374   -1.3612    0.0252 C   0  0  2  0  0  0  0  0  0  0  0  0
   -2.9041   -2.0623    0.2566 C   0  0  0  0  0  0  0  0  0  0  0  0
   -5.0894   -2.0840   -1.0299 C   0  0  0  0  0  0  0  0  0  0  0  0
   -1.9906   -2.1858   -0.7903 C   0  0  0  0  0  0  0  0  0  0  0  0
   -2.5974   -2.5810    1.5147 C   0  0  0  0  0  0  0  0  0  0  0  0
    2.3296    1.1153   -1.7025 C   0  0  0  0  0  0  0  0  0  0  0  0
   -0.7704   -2.8277   -0.5791 C   0  0  0  0  0  0  0  0  0  0  0  0
   -1.3773   -3.2229    1.7259 C   0  0  0  0  0  0  0  0  0  0  0  0
    3.1855    0.4118   -0.7140 C   0  0  0  0  0  0  0  0  0  0  0  0
   -0.4637   -3.3462    0.6789 C   0  0  0  0  0  0  0  0  0  0  0  0
    4.5684    0.3718   -0.8912 C   0  0  0  0  0  0  0  0  0  0  0  0
    2.6061   -0.2084    0.3928 C   0  0  0  0  0  0  0  0  0  0  0  0
    3.4095   -0.8688    1.3224 C   0  0  0  0  0  0  0  0  0  0  0  0
    5.3720   -0.2883    0.0385 C   0  0  0  0  0  0  0  0  0  0  0  0
    4.7924   -0.9087    1.1452 C   0  0  0  0  0  0  0  0  0  0  0  0
   -0.2773   -2.3848   -2.8630 C   0  0  0  0  0  0  0  0  0  0  0  0
   -2.2452    4.8355    0.4133 H   0  0  0  0  0  0  0  0  0  0  0  0
    0.3639    3.2589    0.6269 H   0  0  0  0  0  0  0  0  0  0  0  0
   -1.8282    2.3113    2.1059 H   0  0  0  0  0  0  0  0  0  0  0  0
   -1.5633    3.3182   -1.7859 H   0  0  0  0  0  0  0  0  0  0  0  0
   -3.4095    2.4805   -0.5215 H   0  0  0  0  0  0  0  0  0  0  0  0
    0.8213    3.1587   -2.4333 H   0  0  0  0  0  0  0  0  0  0  0  0
   -0.0501    1.6256   -2.7237 H   0  0  0  0  0  0  0  0  0  0  0  0
   -3.5140    0.1773   -1.3359 H   0  0  0  0  0  0  0  0  0  0  0  0
   -5.0049    0.6047   -0.4820 H   0  0  0  0  0  0  0  0  0  0  0  0
   -4.7872   -1.3837    0.9763 H   0  0  0  0  0  0  0  0  0  0  0  0
   -0.5053    4.1406    2.5452 H   0  0  0  0  0  0  0  0  0  0  0  0
   -0.5313    5.3401   -1.0943 H   0  0  0  0  0  0  0  0  0  0  0  0
   -4.1180    3.7768    1.2748 H   0  0  0  0  0  0  0  0  0  0  0  0
   -6.0609   -1.5881   -1.1325 H   0  0  0  0  0  0  0  0  0  0  0  0
   -4.6066   -2.0889   -2.0130 H   0  0  0  0  0  0  0  0  0  0  0  0
   -2.2745   -1.7668   -1.7486 H   0  0  0  0  0  0  0  0  0  0  0  0
   -3.2981   -2.4928    2.3405 H   0  0  0  0  0  0  0  0  0  0  0  0
   -1.1509   -3.6223    2.7109 H   0  0  0  0  0  0  0  0  0  0  0  0
   -5.8743   -3.8364   -1.3410 H   0  0  0  0  0  0  0  0  0  0  0  0
    5.0224    0.8573   -1.7519 H   0  0  0  0  0  0  0  0  0  0  0  0
    1.5281   -0.1959    0.5364 H   0  0  0  0  0  0  0  0  0  0  0  0
    0.7641   -4.2642    1.8254 H   0  0  0  0  0  0  0  0  0  0  0  0
    0.5434   -2.5658   -3.5650 H   0  0  0  0  0  0  0  0  0  0  0  0
   -0.4047   -1.2985   -2.7993 H   0  0  0  0  0  0  0  0  0  0  0  0
   -1.1607   -2.8873   -3.2714 H   0  0  0  0  0  0  0  0  0  0  0  0
    1.8669   -1.3492    2.3515 H   0  0  0  0  0  0  0  0  0  0  0  0
    6.9413    0.1590   -0.9637 H   0  0  0  0  0  0  0  0  0  0  0  0
    5.0050   -1.9200    2.7499 H   0  0  0  0  0  0  0  0  0  0  0  0
  1 17  1  0  0  0  0
  1 18  1  0  0  0  0
  2 18  1  0  0  0  0
  2 20  1  0  0  0  0
  3 14  1  0  0  0  0
  3 47  1  0  0  0  0
  4 15  1  0  0  0  0
  4 48  1  0  0  0  0
  5 16  1  0  0  0  0
  5 49  1  0  0  0  0
  6 19  1  0  0  0  0
  6 26  1  0  0  0  0
  7 23  1  0  0  0  0
  7 55  1  0  0  0  0
  8 26  2  0  0  0  0
  9 27  1  0  0  0  0
  9 36  1  0  0  0  0
 10 30  1  0  0  0  0
 10 58  1  0  0  0  0
 11 33  1  0  0  0  0
 11 62  1  0  0  0  0
 12 34  1  0  0  0  0
 12 63  1  0  0  0  0
 13 35  1  0  0  0  0
 13 64  1  0  0  0  0
 14 15  1  0  0  0  0
 14 16  1  0  0  0  0
 14 37  1  0  0  0  0
 15 17  1  0  0  0  0
 15 38  1  0  0  0  0
 16 18  1  0  0  0  0
 16 39  1  0  0  0  0
 17 19  1  0  0  0  0
 17 40  1  0  0  0  0
 18 41  1  0  0  0  0
 19 42  1  0  0  0  0
 19 43  1  0  0  0  0
 20 21  1  0  0  0  0
 20 44  1  0  0  0  0
 20 45  1  0  0  0  0
 21 22  1  0  0  0  0
 21 23  1  0  0  0  0
 21 46  1  0  0  0  0
 22 24  2  0  0  0  0
 22 25  1  0  0  0  0
 23 50  1  0  0  0  0
 23 51  1  0  0  0  0
 24 27  1  0  0  0  0
 24 52  1  0  0  0  0
 25 28  2  0  0  0  0
 25 53  1  0  0  0  0
 26 29  1  0  0  0  0
 27 30  2  0  0  0  0
 28 30  1  0  0  0  0
 28 54  1  0  0  0  0
 29 31  2  0  0  0  0
 29 32  1  0  0  0  0
 31 34  1  0  0  0  0
 31 56  1  0  0  0  0
 32 33  2  0  0  0  0
 32 57  1  0  0  0  0
 33 35  1  0  0  0  0
 34 35  2  0  0  0  0
 36 59  1  0  0  0  0
 36 60  1  0  0  0  0
 36 61  1  0  0  0  0
M  END
> <PUBCHEM_COMPOUND_CID>
132515142

> <PUBCHEM_CONFORMER_RMSD>
1.2

> <PUBCHEM_CONFORMER_DIVERSEORDER>
1
69
20
78
39
96
42
37
109
126
7
81
68
127
101
82
100
61
92
48
45
128
76
95
63
97
121
67
106
47
103
24
75
65
40
53
120
5
118
60
83
70
135
123
15
112
18
36
71
62
33
77
130
84
91
88
131
55
113
2
114
26
122
29
57
108
41
104
87
12
133
43
74
94
99
119
105
49
13
116
125
56
72
98
59
86
93
19
10
50
79
132
44
51
16
134
102
124
22
27
11
30
58
85
32
3
64
80
90
14
117
21
115
28
54
129
107
46
34
4
35
110
66
9
31
8
89
52
17
25
6
111
23
38
73

> <PUBCHEM_MMFF94_PARTIAL_CHARGES>
49
1 -0.56
10 -0.53
11 -0.53
12 -0.53
13 -0.53
14 0.28
15 0.28
16 0.28
17 0.28
18 0.56
19 0.28
2 -0.56
20 0.28
21 0.14
22 -0.14
23 0.28
24 -0.15
25 -0.15
26 0.63
27 0.08
28 -0.15
29 0.09
3 -0.68
30 0.08
31 -0.15
32 -0.15
33 0.08
34 0.08
35 0.08
36 0.28
4 -0.68
47 0.4
48 0.4
49 0.4
5 -0.68
52 0.15
53 0.15
54 0.15
55 0.4
56 0.15
57 0.15
58 0.45
6 -0.43
62 0.45
63 0.45
64 0.45
7 -0.68
8 -0.57
9 -0.36

> <PUBCHEM_EFFECTIVE_ROTOR_COUNT>
11.2

> <PUBCHEM_PHARMACOPHORE_FEATURES>
19
1 1 acceptor
1 10 donor
1 11 donor
1 12 donor
1 13 donor
1 2 acceptor
1 3 acceptor
1 3 donor
1 4 acceptor
1 4 donor
1 5 acceptor
1 5 donor
1 7 acceptor
1 7 donor
1 8 acceptor
1 9 acceptor
6 1 14 15 16 17 18 rings
6 22 24 25 27 28 30 rings
6 29 31 32 33 34 35 rings

> <PUBCHEM_HEAVY_ATOM_COUNT>
36

> <PUBCHEM_ATOM_DEF_STEREO_COUNT>
5

> <PUBCHEM_ATOM_UDEF_STEREO_COUNT>
1

> <PUBCHEM_BOND_DEF_STEREO_COUNT>
0

> <PUBCHEM_BOND_UDEF_STEREO_COUNT>
0

> <PUBCHEM_ISOTOPIC_ATOM_COUNT>
0

> <PUBCHEM_COMPONENT_COUNT>
1

> <PUBCHEM_CACTVS_TAUTO_COUNT>
98

> <PUBCHEM_CONFORMER_ID>
07E6054600000001

> <PUBCHEM_MMFF94_ENERGY>
106.956

> <PUBCHEM_FEATURE_SELFOVERLAP>
96.499

> <PUBCHEM_SHAPE_FINGERPRINT>
114674 6 16464477217902810363
11513181 2 18127971914713458414
12156800 1 17248420942479856522
12522641 33 17465643608275797373
12788726 201 18338811107637964020
14068700 675 18270676584389580349
14394314 77 18335419080018007761
14725015 67 18337672048621518711
15297060 5 18270685259748804378
17974551 9 17608375958299223599
19319366 153 17179425771650377180
20775438 99 16901277947750344439
35225 105 18126821868589082384
56638632 33 18199175355567244072
6287921 2 17689160010790403793

> <PUBCHEM_SHAPE_MULTIPOLES>
664.56
10.24
6.53
2.27
9.87
5.35
-0.45
-6.08
1.52
-5.78
1.93
0.9
-0.12
-2.85

> <PUBCHEM_SHAPE_SELFOVERLAP>
1410.892

> <PUBCHEM_SHAPE_VOLUME>
367.9

> <PUBCHEM_COORDINATE_TYPE>
2
5
10

$$$$
