21668726
  -OEChem-08262015233D

 64 66  0     1  0  0  0  0  0999 V2000
    1.0517    2.0089   -0.3577 O   0  0  0  0  0  0  0  0  0  0  0  0
   -0.2497    0.2586    0.4708 O   0  0  0  0  0  0  0  0  0  0  0  0
   -0.6060    4.6696    2.2955 O   0  0  0  0  0  0  0  0  0  0  0  0
   -1.9884    2.1455    1.6643 O   0  0  0  0  0  0  0  0  0  0  0  0
    0.8211    5.6484   -0.0199 O   0  0  0  0  0  0  0  0  0  0  0  0
    2.6990    2.7272   -2.4378 O   0  0  0  0  0  0  0  0  0  0  0  0
    0.2904   -4.1923   -1.4108 O   0  0  0  0  0  0  0  0  0  0  0  0
   -4.8379   -1.9788    1.3576 O   0  0  0  0  0  0  0  0  0  0  0  0
    4.3223   -2.5952    1.9554 O   0  0  0  0  0  0  0  0  0  0  0  0
   -6.2387   -0.9116   -0.7932 O   0  0  0  0  0  0  0  0  0  0  0  0
    5.7559   -1.4204   -0.1163 O   0  0  0  0  0  0  0  0  0  0  0  0
   -0.5113    3.9561    1.0616 C   0  0  2  0  0  0  0  0  0  0  0  0
   -0.6360    2.4562    1.3302 C   0  0  2  0  0  0  0  0  0  0  0  0
    0.8357    4.2937    0.4224 C   0  0  1  0  0  0  0  0  0  0  0  0
   -0.2462    1.6368    0.1000 C   0  0  1  0  0  0  0  0  0  0  0  0
    1.1166    3.3754   -0.7694 C   0  0  1  0  0  0  0  0  0  0  0  0
   -0.5835   -0.5712   -0.6309 C   0  0  1  0  0  0  0  0  0  0  0  0
    0.1163   -1.9518   -0.4965 C   0  0  2  0  0  0  0  0  0  0  0  0
    2.5061    3.6149   -1.3516 C   0  0  0  0  0  0  0  0  0  0  0  0
   -2.0959   -0.6642   -0.6712 C   0  0  0  0  0  0  0  0  0  0  0  0
    1.6313   -1.8103   -0.3908 C   0  0  0  0  0  0  0  0  0  0  0  0
   -0.2614   -2.9010   -1.6510 C   0  0  0  0  0  0  0  0  0  0  0  0
   -2.7847   -1.2851    0.3708 C   0  0  0  0  0  0  0  0  0  0  0  0
   -2.7988   -0.1287   -1.7503 C   0  0  0  0  0  0  0  0  0  0  0  0
    2.2975   -2.2707    0.7449 C   0  0  0  0  0  0  0  0  0  0  0  0
    2.3507   -1.2208   -1.4303 C   0  0  0  0  0  0  0  0  0  0  0  0
   -4.1765   -1.3703    0.3338 C   0  0  0  0  0  0  0  0  0  0  0  0
   -4.1907   -0.2142   -1.7875 C   0  0  0  0  0  0  0  0  0  0  0  0
    3.6831   -2.1417    0.8412 C   0  0  0  0  0  0  0  0  0  0  0  0
    3.7363   -1.0915   -1.3339 C   0  0  0  0  0  0  0  0  0  0  0  0
   -4.8795   -0.8348   -0.7454 C   0  0  0  0  0  0  0  0  0  0  0  0
    4.4025   -1.5521   -0.1982 C   0  0  0  0  0  0  0  0  0  0  0  0
   -4.0451   -2.4997    2.4226 C   0  0  0  0  0  0  0  0  0  0  0  0
    3.5138   -3.1850    2.9716 C   0  0  0  0  0  0  0  0  0  0  0  0
   -1.3400    4.3125    0.4386 H   0  0  0  0  0  0  0  0  0  0  0  0
   -0.0231    2.1681    2.1924 H   0  0  0  0  0  0  0  0  0  0  0  0
    1.6321    4.2026    1.1712 H   0  0  0  0  0  0  0  0  0  0  0  0
   -0.9771    1.8256   -0.6975 H   0  0  0  0  0  0  0  0  0  0  0  0
    0.3822    3.5334   -1.5710 H   0  0  0  0  0  0  0  0  0  0  0  0
   -0.2272   -0.1115   -1.5639 H   0  0  0  0  0  0  0  0  0  0  0  0
   -0.2150   -2.4268    0.4367 H   0  0  0  0  0  0  0  0  0  0  0  0
    2.6196    4.6416   -1.7123 H   0  0  0  0  0  0  0  0  0  0  0  0
    3.2818    3.4042   -0.6078 H   0  0  0  0  0  0  0  0  0  0  0  0
    0.1080   -2.5405   -2.6167 H   0  0  0  0  0  0  0  0  0  0  0  0
   -1.3455   -3.0263   -1.7256 H   0  0  0  0  0  0  0  0  0  0  0  0
    0.1081    4.3611    2.8788 H   0  0  0  0  0  0  0  0  0  0  0  0
   -2.5489    2.3808    0.9052 H   0  0  0  0  0  0  0  0  0  0  0  0
    0.1265    5.7366   -0.6948 H   0  0  0  0  0  0  0  0  0  0  0  0
   -2.1942   -1.6697    1.1943 H   0  0  0  0  0  0  0  0  0  0  0  0
   -2.2764    0.3572   -2.5699 H   0  0  0  0  0  0  0  0  0  0  0  0
    1.6901   -2.7203    1.5228 H   0  0  0  0  0  0  0  0  0  0  0  0
    1.8537   -0.8566   -2.3249 H   0  0  0  0  0  0  0  0  0  0  0  0
    3.5923    2.8891   -2.7860 H   0  0  0  0  0  0  0  0  0  0  0  0
   -4.7258    0.2071   -2.6343 H   0  0  0  0  0  0  0  0  0  0  0  0
    0.0296   -4.7570   -2.1583 H   0  0  0  0  0  0  0  0  0  0  0  0
    4.2843   -0.6296   -2.1508 H   0  0  0  0  0  0  0  0  0  0  0  0
   -6.5513   -0.4889   -1.6115 H   0  0  0  0  0  0  0  0  0  0  0  0
    6.0818   -0.9905   -0.9256 H   0  0  0  0  0  0  0  0  0  0  0  0
   -4.7333   -2.9510    3.1450 H   0  0  0  0  0  0  0  0  0  0  0  0
   -3.5071   -1.7053    2.9514 H   0  0  0  0  0  0  0  0  0  0  0  0
   -3.3791   -3.2982    2.0780 H   0  0  0  0  0  0  0  0  0  0  0  0
    2.8099   -2.4622    3.3982 H   0  0  0  0  0  0  0  0  0  0  0  0
    3.0162   -4.0936    2.6155 H   0  0  0  0  0  0  0  0  0  0  0  0
    4.1856   -3.4885    3.7814 H   0  0  0  0  0  0  0  0  0  0  0  0
  1 15  1  0  0  0  0
  1 16  1  0  0  0  0
  2 15  1  0  0  0  0
  2 17  1  0  0  0  0
  3 12  1  0  0  0  0
  3 46  1  0  0  0  0
  4 13  1  0  0  0  0
  4 47  1  0  0  0  0
  5 14  1  0  0  0  0
  5 48  1  0  0  0  0
  6 19  1  0  0  0  0
  6 53  1  0  0  0  0
  7 22  1  0  0  0  0
  7 55  1  0  0  0  0
  8 27  1  0  0  0  0
  8 33  1  0  0  0  0
  9 29  1  0  0  0  0
  9 34  1  0  0  0  0
 10 31  1  0  0  0  0
 10 57  1  0  0  0  0
 11 32  1  0  0  0  0
 11 58  1  0  0  0  0
 12 13  1  0  0  0  0
 12 14  1  0  0  0  0
 12 35  1  0  0  0  0
 13 15  1  0  0  0  0
 13 36  1  0  0  0  0
 14 16  1  0  0  0  0
 14 37  1  0  0  0  0
 15 38  1  0  0  0  0
 16 19  1  0  0  0  0
 16 39  1  0  0  0  0
 17 18  1  0  0  0  0
 17 20  1  0  0  0  0
 17 40  1  0  0  0  0
 18 21  1  0  0  0  0
 18 22  1  0  0  0  0
 18 41  1  0  0  0  0
 19 42  1  0  0  0  0
 19 43  1  0  0  0  0
 20 23  2  0  0  0  0
 20 24  1  0  0  0  0
 21 25  2  0  0  0  0
 21 26  1  0  0  0  0
 22 44  1  0  0  0  0
 22 45  1  0  0  0  0
 23 27  1  0  0  0  0
 23 49  1  0  0  0  0
 24 28  2  0  0  0  0
 24 50  1  0  0  0  0
 25 29  1  0  0  0  0
 25 51  1  0  0  0  0
 26 30  2  0  0  0  0
 26 52  1  0  0  0  0
 27 31  2  0  0  0  0
 28 31  1  0  0  0  0
 28 54  1  0  0  0  0
 29 32  2  0  0  0  0
 30 32  1  0  0  0  0
 30 56  1  0  0  0  0
 33 59  1  0  0  0  0
 33 60  1  0  0  0  0
 33 61  1  0  0  0  0
 34 62  1  0  0  0  0
 34 63  1  0  0  0  0
 34 64  1  0  0  0  0
M  END
> <PUBCHEM_COMPOUND_CID>
21668726

> <PUBCHEM_CONFORMER_RMSD>
1

> <PUBCHEM_CONFORMER_DIVERSEORDER>
2
39
77
74
58
52
35
36
26
12
24
78
61
46
41
37
73
19
64
50
51
13
71
47
29
43
25
18
23
48
60
45
72
54
11
34
6
7
10
27
68
63
3
15
28
59
69
75
44
31
65
9
30
55
42
67
32
76
56
16
53
5
4
57
20
21
1
17
66
70
22
38
8
62
40
14
49
33

> <PUBCHEM_MMFF94_PARTIAL_CHARGES>
47
1 -0.56
10 -0.53
11 -0.53
12 0.28
13 0.28
14 0.28
15 0.56
16 0.28
17 0.42
18 0.14
19 0.28
2 -0.56
20 -0.14
21 -0.14
22 0.28
23 -0.15
24 -0.15
25 -0.15
26 -0.15
27 0.08
28 -0.15
29 0.08
3 -0.68
30 -0.15
31 0.08
32 0.08
33 0.28
34 0.28
4 -0.68
46 0.4
47 0.4
48 0.4
49 0.15
5 -0.68
50 0.15
51 0.15
52 0.15
53 0.4
54 0.15
55 0.4
56 0.15
57 0.45
58 0.45
6 -0.68
7 -0.68
8 -0.36
9 -0.36

> <PUBCHEM_EFFECTIVE_ROTOR_COUNT>
10.2

> <PUBCHEM_PHARMACOPHORE_FEATURES>
19
1 1 acceptor
1 10 donor
1 11 donor
1 2 acceptor
1 3 acceptor
1 3 donor
1 4 acceptor
1 4 donor
1 5 acceptor
1 5 donor
1 6 acceptor
1 6 donor
1 7 acceptor
1 7 donor
1 8 acceptor
1 9 acceptor
6 1 12 13 14 15 16 rings
6 20 23 24 27 28 31 rings
6 21 25 26 29 30 32 rings

> <PUBCHEM_HEAVY_ATOM_COUNT>
34

> <PUBCHEM_ATOM_DEF_STEREO_COUNT>
7

> <PUBCHEM_ATOM_UDEF_STEREO_COUNT>
0

> <PUBCHEM_BOND_DEF_STEREO_COUNT>
0

> <PUBCHEM_BOND_UDEF_STEREO_COUNT>
0

> <PUBCHEM_ISOTOPIC_ATOM_COUNT>
0

> <PUBCHEM_COMPONENT_COUNT>
1

> <PUBCHEM_CACTVS_TAUTO_COUNT>
8

> <PUBCHEM_CONFORMER_ID>
014AA37600000002

> <PUBCHEM_MMFF94_ENERGY>
115.4902

> <PUBCHEM_FEATURE_SELFOVERLAP>
96.496

> <PUBCHEM_SHAPE_FINGERPRINT>
10074138 170 17759223120905884168
10165383 225 17760103095771149581
10305334 12 16551113116645059160
10670039 82 18199472065747384734
1100329 8 18124317374764992276
11115154 58 17628038280648819637
11456790 92 18115022988649010793
11578080 2 17896052095328974053
12160290 23 17767686057509752609
12788726 201 18193266404096153555
131258 38 16960482027452258891
13140716 1 18270972245074083849
13583140 156 18040712601716550895
13636023 51 17968660557477392047
13911987 19 18412818079836649494
140371 6 18196097634016498909
14856354 85 15802477188706441154
14955137 171 18341621437773635422
15927050 60 17765152056896368294
1813 80 18059859450078762695
21033648 29 17417518121682182667
21120745 212 18268997496906253544
21304303 282 17184152091228650573
23558518 356 17617934730039012719
23559900 14 17385438860772170471
3187 122 18197480853618747202
3298306 158 17976826702591588452
3886686 26 16680321714081743994
404807 14 15945388389658743771
4058900 60 17903935687446571405
469060 322 18272093734444977283
5252454 2 17834122218304947797
6004065 56 18270662239505397455
81228 2 17907861704387586239

> <PUBCHEM_SHAPE_MULTIPOLES>
635.14
9.29
6.78
2.29
4.59
10.16
-0.93
-9.65
-0.5
-4.08
-2.16
-0.22
-0.67
-1.84

> <PUBCHEM_SHAPE_SELFOVERLAP>
1343.41

> <PUBCHEM_SHAPE_VOLUME>
353.5

> <PUBCHEM_COORDINATE_TYPE>
2
5
10

$$$$
