76315743
  -OEChem-08262016063D

 74 79  0     1  0  0  0  0  0999 V2000
   11.0859   -1.5568    1.6920 Cl  0  0  0  0  0  0  0  0  0  0  0  0
   -4.6637    0.3813   -0.3695 O   0  0  0  0  0  0  0  0  0  0  0  0
   -0.4859    1.8546   -2.0598 O   0  0  0  0  0  0  0  0  0  0  0  0
    3.2141   -4.2506   -2.1371 O   0  0  0  0  0  0  0  0  0  0  0  0
   -5.5661    4.1391    1.0069 O   0  0  0  0  0  0  0  0  0  0  0  0
    5.4658    1.9764    1.7297 O   0  0  0  0  0  0  0  0  0  0  0  0
   -3.2458    4.9936    0.1905 O   0  0  0  0  0  0  0  0  0  0  0  0
    0.4887    1.2854   -0.0127 O   0  0  0  0  0  0  0  0  0  0  0  0
   -9.1173   -3.8311    0.9564 O   0  0  0  0  0  0  0  0  0  0  0  0
   -9.1489   -2.1064   -1.2233 O   0  0  0  0  0  0  0  0  0  0  0  0
    4.7229    0.5671    0.1219 N   0  0  0  0  0  0  0  0  0  0  0  0
    2.9512    0.6316   -1.2614 C   0  0  0  0  0  0  0  0  0  0  0  0
    3.4037   -0.7071   -1.2002 C   0  0  0  0  0  0  0  0  0  0  0  0
    3.7626    1.3818   -0.4477 C   0  0  0  0  0  0  0  0  0  0  0  0
    4.5053   -0.7378   -0.3337 C   0  0  0  0  0  0  0  0  0  0  0  0
   -5.5428    0.5605    0.7518 C   0  0  1  0  0  0  0  0  0  0  0  0
   -6.2997    1.8832    0.6489 C   0  0  0  0  0  0  0  0  0  0  0  0
    1.7864    1.1416   -2.0697 C   0  0  0  0  0  0  0  0  0  0  0  0
   -4.0162    2.7117   -0.0580 C   0  0  0  0  0  0  0  0  0  0  0  0
    2.9654   -1.9010   -1.8105 C   0  0  0  0  0  0  0  0  0  0  0  0
   -3.7767    1.4154   -0.5232 C   0  0  0  0  0  0  0  0  0  0  0  0
   -6.4987   -0.6127    0.8034 C   0  0  0  0  0  0  0  0  0  0  0  0
   -5.3069    3.0151    0.5936 C   0  0  0  0  0  0  0  0  0  0  0  0
    5.1831   -1.9452   -0.0767 C   0  0  0  0  0  0  0  0  0  0  0  0
    3.6631    2.8390   -0.1949 C   0  0  0  0  0  0  0  0  0  0  0  0
    5.7133    0.9992    1.0307 C   0  0  0  0  0  0  0  0  0  0  0  0
    3.6360   -3.0971   -1.5484 C   0  0  0  0  0  0  0  0  0  0  0  0
    4.7306   -3.1162   -0.6936 C   0  0  0  0  0  0  0  0  0  0  0  0
    0.5627    1.4184   -1.2271 C   0  0  0  0  0  0  0  0  0  0  0  0
   -2.5951    1.1319   -1.2092 C   0  0  0  0  0  0  0  0  0  0  0  0
   -3.0638    3.7163   -0.2465 C   0  0  0  0  0  0  0  0  0  0  0  0
   -1.6433    2.1340   -1.4000 C   0  0  0  0  0  0  0  0  0  0  0  0
   -1.8753    3.4217   -0.9154 C   0  0  0  0  0  0  0  0  0  0  0  0
   -7.3961   -0.8271   -0.2427 C   0  0  0  0  0  0  0  0  0  0  0  0
   -6.4824   -1.4786    1.8969 C   0  0  0  0  0  0  0  0  0  0  0  0
    7.0374    0.3682    1.1934 C   0  0  0  0  0  0  0  0  0  0  0  0
   -8.2771   -1.9075   -0.1955 C   0  0  0  0  0  0  0  0  0  0  0  0
   -7.3633   -2.5591    1.9442 C   0  0  0  0  0  0  0  0  0  0  0  0
   -8.2606   -2.7735    0.8980 C   0  0  0  0  0  0  0  0  0  0  0  0
    7.9166    0.3027    0.1124 C   0  0  0  0  0  0  0  0  0  0  0  0
    7.4103   -0.1614    2.4288 C   0  0  0  0  0  0  0  0  0  0  0  0
    9.1685   -0.2927    0.2667 C   0  0  0  0  0  0  0  0  0  0  0  0
    8.6621   -0.7569    2.5832 C   0  0  0  0  0  0  0  0  0  0  0  0
    2.0845   -4.1605   -3.0035 C   0  0  0  0  0  0  0  0  0  0  0  0
    9.5412   -0.8225    1.5021 C   0  0  0  0  0  0  0  0  0  0  0  0
   -9.0357   -4.6679    2.1087 C   0  0  0  0  0  0  0  0  0  0  0  0
   -4.9259    0.5575    1.6627 H   0  0  0  0  0  0  0  0  0  0  0  0
   -6.9465    2.0213    1.5225 H   0  0  0  0  0  0  0  0  0  0  0  0
   -6.9096    1.9531   -0.2587 H   0  0  0  0  0  0  0  0  0  0  0  0
    2.0719    2.0656   -2.5848 H   0  0  0  0  0  0  0  0  0  0  0  0
    1.5100    0.4082   -2.8348 H   0  0  0  0  0  0  0  0  0  0  0  0
    2.1076   -1.8293   -2.4678 H   0  0  0  0  0  0  0  0  0  0  0  0
    6.0274   -2.0037    0.5983 H   0  0  0  0  0  0  0  0  0  0  0  0
    2.9789    3.3345   -0.8900 H   0  0  0  0  0  0  0  0  0  0  0  0
    3.2888    3.0309    0.8159 H   0  0  0  0  0  0  0  0  0  0  0  0
    4.6353    3.3284   -0.3144 H   0  0  0  0  0  0  0  0  0  0  0  0
    5.2468   -4.0521   -0.4925 H   0  0  0  0  0  0  0  0  0  0  0  0
   -2.4102    0.1291   -1.5866 H   0  0  0  0  0  0  0  0  0  0  0  0
   -1.1302    4.1992   -1.0672 H   0  0  0  0  0  0  0  0  0  0  0  0
   -7.4058   -0.1628   -1.1031 H   0  0  0  0  0  0  0  0  0  0  0  0
   -5.7889   -1.3237    2.7191 H   0  0  0  0  0  0  0  0  0  0  0  0
   -7.2943   -3.1894    2.8240 H   0  0  0  0  0  0  0  0  0  0  0  0
    7.6392    0.7143   -0.8546 H   0  0  0  0  0  0  0  0  0  0  0  0
    6.7328   -0.1182    3.2776 H   0  0  0  0  0  0  0  0  0  0  0  0
   -4.0691    5.0657    0.6970 H   0  0  0  0  0  0  0  0  0  0  0  0
    9.8434   -0.3363   -0.5842 H   0  0  0  0  0  0  0  0  0  0  0  0
    8.9389   -1.1660    3.5514 H   0  0  0  0  0  0  0  0  0  0  0  0
    1.8873   -5.1689   -3.3822 H   0  0  0  0  0  0  0  0  0  0  0  0
    2.2931   -3.5289   -3.8738 H   0  0  0  0  0  0  0  0  0  0  0  0
    1.1863   -3.8421   -2.4634 H   0  0  0  0  0  0  0  0  0  0  0  0
   -9.0181   -1.4102   -1.8898 H   0  0  0  0  0  0  0  0  0  0  0  0
   -9.7860   -5.4563    1.9880 H   0  0  0  0  0  0  0  0  0  0  0  0
   -9.2929   -4.1220    3.0229 H   0  0  0  0  0  0  0  0  0  0  0  0
   -8.0618   -5.1642    2.1791 H   0  0  0  0  0  0  0  0  0  0  0  0
  1 45  1  0  0  0  0
  2 16  1  0  0  0  0
  2 21  1  0  0  0  0
  3 29  1  0  0  0  0
  3 32  1  0  0  0  0
  4 27  1  0  0  0  0
  4 44  1  0  0  0  0
  5 23  2  0  0  0  0
  6 26  2  0  0  0  0
  7 31  1  0  0  0  0
  7 65  1  0  0  0  0
  8 29  2  0  0  0  0
  9 39  1  0  0  0  0
  9 46  1  0  0  0  0
 10 37  1  0  0  0  0
 10 71  1  0  0  0  0
 11 14  1  0  0  0  0
 11 15  1  0  0  0  0
 11 26  1  0  0  0  0
 12 13  1  0  0  0  0
 12 14  2  0  0  0  0
 12 18  1  0  0  0  0
 13 15  2  0  0  0  0
 13 20  1  0  0  0  0
 14 25  1  0  0  0  0
 15 24  1  0  0  0  0
 16 17  1  0  0  0  0
 16 22  1  0  0  0  0
 16 47  1  0  0  0  0
 17 23  1  0  0  0  0
 17 48  1  0  0  0  0
 17 49  1  0  0  0  0
 18 29  1  0  0  0  0
 18 50  1  0  0  0  0
 18 51  1  0  0  0  0
 19 21  1  0  0  0  0
 19 23  1  0  0  0  0
 19 31  2  0  0  0  0
 20 27  2  0  0  0  0
 20 52  1  0  0  0  0
 21 30  2  0  0  0  0
 22 34  2  0  0  0  0
 22 35  1  0  0  0  0
 24 28  2  0  0  0  0
 24 53  1  0  0  0  0
 25 54  1  0  0  0  0
 25 55  1  0  0  0  0
 25 56  1  0  0  0  0
 26 36  1  0  0  0  0
 27 28  1  0  0  0  0
 28 57  1  0  0  0  0
 30 32  1  0  0  0  0
 30 58  1  0  0  0  0
 31 33  1  0  0  0  0
 32 33  2  0  0  0  0
 33 59  1  0  0  0  0
 34 37  1  0  0  0  0
 34 60  1  0  0  0  0
 35 38  2  0  0  0  0
 35 61  1  0  0  0  0
 36 40  2  0  0  0  0
 36 41  1  0  0  0  0
 37 39  2  0  0  0  0
 38 39  1  0  0  0  0
 38 62  1  0  0  0  0
 40 42  1  0  0  0  0
 40 63  1  0  0  0  0
 41 43  2  0  0  0  0
 41 64  1  0  0  0  0
 42 45  2  0  0  0  0
 42 66  1  0  0  0  0
 43 45  1  0  0  0  0
 43 67  1  0  0  0  0
 44 68  1  0  0  0  0
 44 69  1  0  0  0  0
 44 70  1  0  0  0  0
 46 72  1  0  0  0  0
 46 73  1  0  0  0  0
 46 74  1  0  0  0  0
M  END
> <PUBCHEM_COMPOUND_CID>
76315743

> <PUBCHEM_CONFORMER_RMSD>
1.2

> <PUBCHEM_CONFORMER_DIVERSEORDER>
3
273
238
181
270
152
245
262
170
89
257
189
216
198
30
274
151
272
261
218
174
94
135
192
141
118
99
287
196
213
57
159
219
230
239
26
65
77
153
100
41
165
282
206
63
231
31
243
278
200
264
75
88
250
147
258
166
171
226
107
119
38
144
55
263
113
233
180
217
127
253
269
123
279
53
237
143
27
268
81
66
56
275
163
157
142
244
114
242
199
71
276
256
221
95
45
131
36
130
40
84
240
211
125
190
139
267
67
37
140
87
160
25
49
222
126
111
286
161
134
223
79
158
266
120
128
44
208
148
185
155
212
220
169
116
70
69
183
133
241
122
281
229
277
149
20
184
145
164
76
112
83
78
62
194
16
19
156
43
175
188
106
225
115
201
90
214
172
137
132
91
197
10
82
138
80
280
28
9
52
35
215
204
5
50
191
85
284
179
255
150
39
210
202
193
121
108
271
42
228
162
73
224
6
178
68
173
34
64
168
252
209
234
47
248
236
32
14
48
102
93
12
86
235
124
8
103
13
254
167
249
2
98
259
232
72
154
74
117
15
11
247
23
61
109
24
195
21
186
136
187
105
110
203
207
29
129
251
283
4
260
265
92
7
205
54
101
17
59
285
182
176
146
51
1
97
33
96
177
46
22
60
227
18
246
104
58

> <PUBCHEM_MMFF94_PARTIAL_CHARGES>
59
1 -0.18
10 -0.53
11 0.29
12 -0.18
14 -0.33
15 -0.15
16 0.42
17 0.06
18 0.24
19 0.09
2 -0.36
20 -0.15
21 0.08
22 -0.14
23 0.42
24 -0.15
25 0.18
26 0.49
27 0.08
28 -0.15
29 0.66
3 -0.23
30 -0.15
31 0.08
32 0.08
33 -0.15
34 -0.15
35 -0.15
36 0.09
37 0.08
38 -0.15
39 0.08
4 -0.36
40 -0.15
41 -0.15
42 -0.15
43 -0.15
44 0.28
45 0.18
46 0.28
5 -0.57
52 0.15
53 0.15
57 0.15
58 0.15
59 0.15
6 -0.57
60 0.15
61 0.15
62 0.15
63 0.15
64 0.15
65 0.45
66 0.15
67 0.15
7 -0.53
71 0.45
8 -0.57
9 -0.36

> <PUBCHEM_EFFECTIVE_ROTOR_COUNT>
9.6

> <PUBCHEM_PHARMACOPHORE_FEATURES>
14
1 10 donor
1 2 acceptor
1 4 acceptor
1 5 acceptor
1 6 acceptor
1 7 donor
1 8 acceptor
1 9 acceptor
5 11 12 13 14 15 rings
6 13 15 20 24 27 28 rings
6 19 21 30 31 32 33 rings
6 2 16 17 19 21 23 rings
6 22 34 35 37 38 39 rings
6 36 40 41 42 43 45 rings

> <PUBCHEM_HEAVY_ATOM_COUNT>
46

> <PUBCHEM_ATOM_DEF_STEREO_COUNT>
1

> <PUBCHEM_ATOM_UDEF_STEREO_COUNT>
0

> <PUBCHEM_BOND_DEF_STEREO_COUNT>
0

> <PUBCHEM_BOND_UDEF_STEREO_COUNT>
0

> <PUBCHEM_ISOTOPIC_ATOM_COUNT>
0

> <PUBCHEM_COMPONENT_COUNT>
1

> <PUBCHEM_CACTVS_TAUTO_COUNT>
27

> <PUBCHEM_CONFORMER_ID>
048C7C5F00000003

> <PUBCHEM_MMFF94_ENERGY>
156.6445

> <PUBCHEM_FEATURE_SELFOVERLAP>
71.171

> <PUBCHEM_SHAPE_FINGERPRINT>
10100884 174 18115026419584874811
10533779 47 17275107190226119598
10952577 141 9943538414386803331
11103572 95 18270410400192834139
11399510 152 18131067095885145921
11621639 179 10015598185208291403
117089 54 18411429401509568181
12013929 94 18409451410494028464
13782708 43 18338245890485343549
13811026 1 18334575750562466527
15320295 40 17604142714162337397
15347590 135 17918274259579982962
19301679 30 18339375127871802535
19303781 99 18263640840091857103
20105231 36 18115302273693911346
21792965 184 18270403922464573270
21987483 16 18044378455272382449
23569914 152 11098667716192745768
23569943 247 17972611146444727843
3178227 256 18272360946784908888
397830 11 18342175505782128756
3986486 107 8934999278817351522
4093350 32 16701731650406919862
4144715 1 18054798277660505324
4408954 87 18130222760912567790
4461854 278 18272932760865423894
4760202 70 17531537581031222276
4874694 18 18342170013162217237
50009960 94 18113057147008813189
50742298 180 18116440417571891651
5937810 71 11095881579528842057

> <PUBCHEM_SHAPE_MULTIPOLES>
890.72
35.34
5.77
2.33
2.43
1
0.18
29.97
-26.13
-12.65
0.73
2.61
2.04
4.15

> <PUBCHEM_SHAPE_SELFOVERLAP>
1972.293

> <PUBCHEM_SHAPE_VOLUME>
476.5

> <PUBCHEM_COORDINATE_TYPE>
2
5
10

$$$$
