53648305
  -OEChem-08262016333D

 36 36  0     0  0  0  0  0  0999 V2000
   -3.3200    0.6112    0.2799 O   0  0  0  0  0  0  0  0  0  0  0  0
   -2.0152   -0.7808   -0.9985 O   0  0  0  0  0  0  0  0  0  0  0  0
    4.3285    0.3966    1.5229 O   0  0  0  0  0  0  0  0  0  0  0  0
    2.4309   -2.6045   -0.5084 O   0  0  0  0  0  0  0  0  0  0  0  0
    4.5289   -1.8515   -0.0632 O   0  0  0  0  0  0  0  0  0  0  0  0
   -1.4983    1.4643   -0.7237 N   0  0  0  0  0  0  0  0  0  0  0  0
   -4.1934   -0.4805    0.5706 C   0  0  0  0  0  0  0  0  0  0  0  0
   -4.7792   -0.9979   -0.7424 C   0  0  0  0  0  0  0  0  0  0  0  0
   -3.3895   -1.5719    1.2760 C   0  0  0  0  0  0  0  0  0  0  0  0
   -5.3001    0.0456    1.4819 C   0  0  0  0  0  0  0  0  0  0  0  0
   -0.3001    1.5029   -1.5298 C   0  0  0  0  0  0  0  0  0  0  0  0
    0.9302    1.2048   -0.7225 C   0  0  0  0  0  0  0  0  0  0  0  0
   -2.2526    0.3267   -0.5273 C   0  0  0  0  0  0  0  0  0  0  0  0
    1.5505   -0.0400   -0.8306 C   0  0  0  0  0  0  0  0  0  0  0  0
    1.4523    2.1719    0.1365 C   0  0  0  0  0  0  0  0  0  0  0  0
    2.6929   -0.3174   -0.0802 C   0  0  0  0  0  0  0  0  0  0  0  0
    3.2151    0.6497    0.7786 C   0  0  0  0  0  0  0  0  0  0  0  0
    2.5948    1.8945    0.8870 C   0  0  0  0  0  0  0  0  0  0  0  0
    3.3243   -1.6236   -0.2068 C   0  0  0  0  0  0  0  0  0  0  0  0
   -5.6441   -1.6431   -0.5472 H   0  0  0  0  0  0  0  0  0  0  0  0
   -4.0919   -1.6002   -1.3417 H   0  0  0  0  0  0  0  0  0  0  0  0
   -6.0153   -0.7387    1.7501 H   0  0  0  0  0  0  0  0  0  0  0  0
   -4.8787    0.4607    2.4047 H   0  0  0  0  0  0  0  0  0  0  0  0
   -5.8472    0.8622    0.9969 H   0  0  0  0  0  0  0  0  0  0  0  0
   -4.0627   -2.2875    1.7632 H   0  0  0  0  0  0  0  0  0  0  0  0
   -2.7397   -1.1442    2.0483 H   0  0  0  0  0  0  0  0  0  0  0  0
   -2.7558   -2.1694    0.6158 H   0  0  0  0  0  0  0  0  0  0  0  0
   -5.1158   -0.1683   -1.3750 H   0  0  0  0  0  0  0  0  0  0  0  0
   -0.2268    2.5044   -1.9687 H   0  0  0  0  0  0  0  0  0  0  0  0
   -0.4048    0.7955   -2.3607 H   0  0  0  0  0  0  0  0  0  0  0  0
   -1.7964    2.3198   -0.2648 H   0  0  0  0  0  0  0  0  0  0  0  0
    1.1365   -0.7787   -1.5129 H   0  0  0  0  0  0  0  0  0  0  0  0
    0.9773    3.1450    0.2291 H   0  0  0  0  0  0  0  0  0  0  0  0
    2.9902    2.6572    1.5526 H   0  0  0  0  0  0  0  0  0  0  0  0
    4.5395    1.1821    2.0563 H   0  0  0  0  0  0  0  0  0  0  0  0
    2.8647   -3.4804   -0.5920 H   0  0  0  0  0  0  0  0  0  0  0  0
  1  7  1  0  0  0  0
  1 13  1  0  0  0  0
  2 13  2  0  0  0  0
  3 17  1  0  0  0  0
  3 35  1  0  0  0  0
  4 19  1  0  0  0  0
  4 36  1  0  0  0  0
  5 19  2  0  0  0  0
  6 11  1  0  0  0  0
  6 13  1  0  0  0  0
  6 31  1  0  0  0  0
  7  8  1  0  0  0  0
  7  9  1  0  0  0  0
  7 10  1  0  0  0  0
  8 20  1  0  0  0  0
  8 21  1  0  0  0  0
  8 28  1  0  0  0  0
  9 25  1  0  0  0  0
  9 26  1  0  0  0  0
  9 27  1  0  0  0  0
 10 22  1  0  0  0  0
 10 23  1  0  0  0  0
 10 24  1  0  0  0  0
 11 12  1  0  0  0  0
 11 29  1  0  0  0  0
 11 30  1  0  0  0  0
 12 14  2  0  0  0  0
 12 15  1  0  0  0  0
 14 16  1  0  0  0  0
 14 32  1  0  0  0  0
 15 18  2  0  0  0  0
 15 33  1  0  0  0  0
 16 17  2  0  0  0  0
 16 19  1  0  0  0  0
 17 18  1  0  0  0  0
 18 34  1  0  0  0  0
M  END
> <PUBCHEM_COMPOUND_CID>
53648305

> <PUBCHEM_CONFORMER_RMSD>
0.8

> <PUBCHEM_CONFORMER_DIVERSEORDER>
1
17
28
18
53
9
11
56
55
44
3
16
5
57
23
10
50
29
12
27
20
19
43
40
41
8
54
6
46
33
42
7
32
45
22
15
26
31
36
37
35
13
2
4
14
52
48
49
30
25
21
38
51
39
24
47
34

> <PUBCHEM_MMFF94_PARTIAL_CHARGES>
22
1 -0.43
11 0.44
12 -0.14
13 0.78
14 -0.15
15 -0.15
16 0.09
17 0.08
18 -0.15
19 0.63
2 -0.57
3 -0.53
31 0.37
32 0.15
33 0.15
34 0.15
35 0.45
36 0.5
4 -0.65
5 -0.57
6 -0.73
7 0.28

> <PUBCHEM_EFFECTIVE_ROTOR_COUNT>
6

> <PUBCHEM_PHARMACOPHORE_FEATURES>
8
1 2 acceptor
1 3 donor
1 4 acceptor
1 5 acceptor
1 6 donor
3 4 5 19 anion
4 7 8 9 10 hydrophobe
6 12 14 15 16 17 18 rings

> <PUBCHEM_HEAVY_ATOM_COUNT>
19

> <PUBCHEM_ATOM_DEF_STEREO_COUNT>
0

> <PUBCHEM_ATOM_UDEF_STEREO_COUNT>
0

> <PUBCHEM_BOND_DEF_STEREO_COUNT>
0

> <PUBCHEM_BOND_UDEF_STEREO_COUNT>
0

> <PUBCHEM_ISOTOPIC_ATOM_COUNT>
0

> <PUBCHEM_COMPONENT_COUNT>
1

> <PUBCHEM_CACTVS_TAUTO_COUNT>
8

> <PUBCHEM_CONFORMER_ID>
03329BB100000001

> <PUBCHEM_MMFF94_ENERGY>
50.4136

> <PUBCHEM_FEATURE_SELFOVERLAP>
40.652

> <PUBCHEM_SHAPE_FINGERPRINT>
10064457 181 18057322992796675954
10366900 7 18270121352218453785
10670039 82 13757813541084275520
11128504 68 10953456345452050273
114674 6 18334296444180906482
11543360 7 11386369266174786193
117890 22 18335428992775815443
12251169 10 18201997771892515589
12363563 72 17385723603738665653
12553582 1 18260274074524303197
12596599 1 17968103061831431747
12596602 18 16845288384104981739
12633257 1 18268977830086799386
12670546 177 8286199418849995049
12670546 56 17704349974814114657
12892183 10 18131353016195004177
13103583 49 17916315934776203202
13533116 47 18341897454653442963
13583140 156 17703494593596717769
13675066 3 18335140903992437701
13911882 115 18335707173918441370
14251758 9 17968099677872423133
14252887 29 18334010618396582128
14341114 328 17132119060806609219
14386348 63 18040433304324448379
14957384 54 15123499341790429200
15142526 21 17126468837860592968
15422964 175 18336260159162977908
15475509 84 17560243492589983264
15527383 91 18201722825608700068
15885798 251 18040439901890373165
1813 80 17385730196634804357
193927 3 17748834020551002553
20403669 9 18113333107205486771
20645477 70 18187917447820456581
21065198 48 17917712443888349885
21065199 12 18413107277533588849
21673915 165 18270111443581358335
22224240 67 18199173170056014008
231179 274 11312056543480607236
23227448 37 10159397809531757953
23559900 14 18114186358166837709
3082319 5 13190332465969490605
314173 41 17603595161529587129
314173 85 18040996237367259949
316301 35 18186799171481155674
341906 21 15267350621606345875
3737641 26 17983306928269478814
458136 41 18268146651163505204
5352402 22 18410857650566764024
7097593 13 18202564007669959069
7808743 9 13398337049220251968
960060 61 13479130233355611691
9709674 26 18334010627271009021

> <PUBCHEM_SHAPE_MULTIPOLES>
356.68
10.44
2.23
1.33
8.02
0.47
0.17
4.21
3.83
-2.13
-0.2
0.46
-0.18
0.84

> <PUBCHEM_SHAPE_SELFOVERLAP>
740.34

> <PUBCHEM_SHAPE_VOLUME>
203.1

> <PUBCHEM_COORDINATE_TYPE>
2
5
10

$$$$
