52769447
  -OEChem-08262015462D

  0  0  0     0  0  0  0  0  0999 V2000
M  END
> <PUBCHEM_COMPOUND_ID_TYPE>
0

> <PUBCHEM_SUBS_AUTO_STRUCTURE>
Deposited Substance chemical structure was generated via Synonym "CID5316415" to be CID 5316415

> <PUBCHEM_SUBSTANCE_ID>
52769447

> <PUBCHEM_SUBSTANCE_VERSION>
2

> <PUBCHEM_EXT_DATASOURCE_NAME>
NextBio

> <PUBCHEM_EXT_DATASOURCE_REGID>
5316415

> <PUBCHEM_SUBSTANCE_SYNONYM>
CID5316415
Decinine

> <PUBCHEM_XREF_EXT_ID>
5316415

> <PUBCHEM_EXT_DATASOURCE_URL>
http://www.nextbio.com/

> <PUBCHEM_EXT_SUBSTANCE_URL>
http://www.nextbio.com/b/search/ov/Decinine?id=7325497&type=compound&synonym=Decinine

> <PUBCHEM_CID_ASSOCIATIONS>
5316415  1

$$$$
