53583422
  -OEChem-08262015492D

  0  0  0     0  0  0  0  0  0999 V2000
M  END
> <PUBCHEM_COMPOUND_ID_TYPE>
0

> <PUBCHEM_SUBS_AUTO_STRUCTURE>
Deposited Substance chemical structure was generated via Synonym "CID5316747" to be CID 5316747

> <PUBCHEM_SUBSTANCE_ID>
53583422

> <PUBCHEM_SUBSTANCE_VERSION>
2

> <PUBCHEM_EXT_DATASOURCE_NAME>
NextBio

> <PUBCHEM_EXT_DATASOURCE_REGID>
5316747

> <PUBCHEM_SUBSTANCE_SYNONYM>
CID5316747
Dihydroverticillatine

> <PUBCHEM_XREF_EXT_ID>
5316747

> <PUBCHEM_EXT_DATASOURCE_URL>
http://www.nextbio.com/

> <PUBCHEM_EXT_SUBSTANCE_URL>
http://www.nextbio.com/b/search/ov/Dihydroverticillatine?id=7211379&type=compound&synonym=Dihydroverticillatine

> <PUBCHEM_CID_ASSOCIATIONS>
5316747  1

$$$$
