100984956
  -OEChem-11202001413D

 58 61  0     1  0  0  0  0  0999 V2000
    3.6429   -0.3382   -0.6864 O   0  0  0  0  0  0  0  0  0  0  0  0
    1.4514    0.4580   -0.6030 O   0  0  0  0  0  0  0  0  0  0  0  0
    2.6020   -3.7877    1.2846 O   0  0  0  0  0  0  0  0  0  0  0  0
    5.3816   -3.0130    1.1126 O   0  0  0  0  0  0  0  0  0  0  0  0
    0.8754   -1.4059    1.4469 O   0  0  0  0  0  0  0  0  0  0  0  0
    6.2324    0.4096   -1.2257 O   0  0  0  0  0  0  0  0  0  0  0  0
   -1.4664    0.9530   -0.5366 O   0  0  0  0  0  0  0  0  0  0  0  0
   -2.5935   -0.5625   -2.4807 O   0  0  0  0  0  0  0  0  0  0  0  0
   -4.8334   -2.0954   -1.9473 O   0  0  0  0  0  0  0  0  0  0  0  0
   -2.9672    1.0757    3.2491 O   0  0  0  0  0  0  0  0  0  0  0  0
   -4.8621   -0.6007    2.5538 O   0  0  0  0  0  0  0  0  0  0  0  0
    3.0434   -2.4328    1.1852 C   0  0  1  0  0  0  0  0  0  0  0  0
    4.3301   -2.4140    0.3598 C   0  0  1  0  0  0  0  0  0  0  0  0
    1.9516   -1.5888    0.5272 C   0  0  2  0  0  0  0  0  0  0  0  0
    4.7214   -0.9796   -0.0034 C   0  0  1  0  0  0  0  0  0  0  0  0
    2.4791   -0.2110    0.1273 C   0  0  1  0  0  0  0  0  0  0  0  0
    5.9365   -0.9420   -0.9248 C   0  0  0  0  0  0  0  0  0  0  0  0
    1.4204    1.8223   -0.5059 C   0  0  0  0  0  0  0  0  0  0  0  0
    0.3029    2.4852    0.0012 C   0  0  0  0  0  0  0  0  0  0  0  0
    2.5335    2.5514   -0.9243 C   0  0  0  0  0  0  0  0  0  0  0  0
   -0.8880    1.7365    0.4505 C   0  0  0  0  0  0  0  0  0  0  0  0
    0.2984    3.8772    0.0901 C   0  0  0  0  0  0  0  0  0  0  0  0
    2.5291    3.9435   -0.8355 C   0  0  0  0  0  0  0  0  0  0  0  0
    1.4116    4.6064   -0.3283 C   0  0  0  0  0  0  0  0  0  0  0  0
   -1.3351    1.8122    1.7141 C   0  0  0  0  0  0  0  0  0  0  0  0
   -2.5765    0.2131   -0.2168 C   0  0  0  0  0  0  0  0  0  0  0  0
   -3.1419    0.2098    1.0574 C   0  0  0  0  0  0  0  0  0  0  0  0
   -2.5258    1.0330    2.1091 C   0  0  0  0  0  0  0  0  0  0  0  0
   -3.1405   -0.5600   -1.2317 C   0  0  0  0  0  0  0  0  0  0  0  0
   -4.2731   -0.5641    1.3263 C   0  0  0  0  0  0  0  0  0  0  0  0
   -4.2705   -1.3342   -0.9672 C   0  0  0  0  0  0  0  0  0  0  0  0
   -4.8353   -1.3362    0.3090 C   0  0  0  0  0  0  0  0  0  0  0  0
   -1.5886   -1.5390   -2.7445 C   0  0  0  0  0  0  0  0  0  0  0  0
   -5.8461   -1.4819   -2.7423 C   0  0  0  0  0  0  0  0  0  0  0  0
    3.2324   -2.0973    2.2117 H   0  0  0  0  0  0  0  0  0  0  0  0
    4.1944   -3.0147   -0.5479 H   0  0  0  0  0  0  0  0  0  0  0  0
    1.5368   -2.1085   -0.3447 H   0  0  0  0  0  0  0  0  0  0  0  0
    4.9603   -0.3960    0.8962 H   0  0  0  0  0  0  0  0  0  0  0  0
    2.7216    0.3697    1.0298 H   0  0  0  0  0  0  0  0  0  0  0  0
    5.7260   -1.4551   -1.8691 H   0  0  0  0  0  0  0  0  0  0  0  0
    6.8128   -1.3969   -0.4531 H   0  0  0  0  0  0  0  0  0  0  0  0
    2.4076   -4.1091    0.3877 H   0  0  0  0  0  0  0  0  0  0  0  0
    5.5191   -2.4793    1.9138 H   0  0  0  0  0  0  0  0  0  0  0  0
    1.2193   -0.9340    2.2244 H   0  0  0  0  0  0  0  0  0  0  0  0
    7.0049    0.4099   -1.8162 H   0  0  0  0  0  0  0  0  0  0  0  0
    3.4083    2.0630   -1.3416 H   0  0  0  0  0  0  0  0  0  0  0  0
   -0.5644    4.4144    0.4767 H   0  0  0  0  0  0  0  0  0  0  0  0
    3.3938    4.5117   -1.1658 H   0  0  0  0  0  0  0  0  0  0  0  0
    1.4074    5.6904   -0.2614 H   0  0  0  0  0  0  0  0  0  0  0  0
   -0.8579    2.4223    2.4730 H   0  0  0  0  0  0  0  0  0  0  0  0
   -5.7155   -1.9421    0.5108 H   0  0  0  0  0  0  0  0  0  0  0  0
   -4.3889   -0.0268    3.1755 H   0  0  0  0  0  0  0  0  0  0  0  0
   -1.2446   -1.4068   -3.7739 H   0  0  0  0  0  0  0  0  0  0  0  0
   -1.9964   -2.5493   -2.6391 H   0  0  0  0  0  0  0  0  0  0  0  0
   -0.7354   -1.4071   -2.0715 H   0  0  0  0  0  0  0  0  0  0  0  0
   -6.1892   -2.2104   -3.4819 H   0  0  0  0  0  0  0  0  0  0  0  0
   -6.6969   -1.1880   -2.1194 H   0  0  0  0  0  0  0  0  0  0  0  0
   -5.4471   -0.6095   -3.2694 H   0  0  0  0  0  0  0  0  0  0  0  0
  1 15  1  0  0  0  0
  1 16  1  0  0  0  0
  2 16  1  0  0  0  0
  2 18  1  0  0  0  0
  3 12  1  0  0  0  0
  3 42  1  0  0  0  0
  4 13  1  0  0  0  0
  4 43  1  0  0  0  0
  5 14  1  0  0  0  0
  5 44  1  0  0  0  0
  6 17  1  0  0  0  0
  6 45  1  0  0  0  0
  7 21  1  0  0  0  0
  7 26  1  0  0  0  0
  8 29  1  0  0  0  0
  8 33  1  0  0  0  0
  9 31  1  0  0  0  0
  9 34  1  0  0  0  0
 10 28  2  0  0  0  0
 11 30  1  0  0  0  0
 11 52  1  0  0  0  0
 12 13  1  0  0  0  0
 12 14  1  0  0  0  0
 12 35  1  0  0  0  0
 13 15  1  0  0  0  0
 13 36  1  0  0  0  0
 14 16  1  0  0  0  0
 14 37  1  0  0  0  0
 15 17  1  0  0  0  0
 15 38  1  0  0  0  0
 16 39  1  0  0  0  0
 17 40  1  0  0  0  0
 17 41  1  0  0  0  0
 18 19  1  0  0  0  0
 18 20  2  0  0  0  0
 19 21  1  0  0  0  0
 19 22  2  0  0  0  0
 20 23  1  0  0  0  0
 20 46  1  0  0  0  0
 21 25  2  0  0  0  0
 22 24  1  0  0  0  0
 22 47  1  0  0  0  0
 23 24  2  0  0  0  0
 23 48  1  0  0  0  0
 24 49  1  0  0  0  0
 25 28  1  0  0  0  0
 25 50  1  0  0  0  0
 26 27  2  0  0  0  0
 26 29  1  0  0  0  0
 27 28  1  0  0  0  0
 27 30  1  0  0  0  0
 29 31  2  0  0  0  0
 30 32  2  0  0  0  0
 31 32  1  0  0  0  0
 32 51  1  0  0  0  0
 33 53  1  0  0  0  0
 33 54  1  0  0  0  0
 33 55  1  0  0  0  0
 34 56  1  0  0  0  0
 34 57  1  0  0  0  0
 34 58  1  0  0  0  0
M  END
> <PUBCHEM_COMPOUND_CID>
100984956

> <PUBCHEM_CONFORMER_RMSD>
1

> <PUBCHEM_CONFORMER_DIVERSEORDER>
1
67
119
8
99
29
111
92
12
68
31
123
24
66
74
39
141
120
47
131
58
62
112
106
18
83
49
7
105
32
116
132
42
107
20
122
71
94
75
48
17
16
121
114
110
43
90
3
79
100
23
102
44
69
65
108
55
133
15
115
135
85
72
125
56
124
130
40
73
37
51
14
60
138
26
113
93
19
88
109
97
139
82
140
25
64
22
50
95
76
78
129
128
53
80
103
27
81
91
77
9
34
10
11
36
13
98
52
61
41
117
46
28
57
5
4
89
87
45
101
35
21
59
118
6
126
33
96
84
54
137
2
127
86
136
63
134
70
38
104
30

> <PUBCHEM_MMFF94_PARTIAL_CHARGES>
45
1 -0.56
10 -0.57
11 -0.53
12 0.28
13 0.28
14 0.28
15 0.28
16 0.56
17 0.28
18 0.08
19 0.03
2 -0.36
20 -0.15
21 0.05
22 -0.15
23 -0.15
24 -0.15
25 -0.14
26 0.08
27 0.09
28 0.47
29 0.08
3 -0.68
30 0.08
31 0.08
32 -0.15
33 0.28
34 0.28
4 -0.68
42 0.4
43 0.4
44 0.4
45 0.4
46 0.15
47 0.15
48 0.15
49 0.15
5 -0.68
50 0.15
51 0.15
52 0.45
6 -0.68
7 -0.16
8 -0.36
9 -0.36

> <PUBCHEM_EFFECTIVE_ROTOR_COUNT>
7.2

> <PUBCHEM_PHARMACOPHORE_FEATURES>
19
1 1 acceptor
1 10 acceptor
1 11 donor
1 2 acceptor
1 3 acceptor
1 3 donor
1 4 acceptor
1 4 donor
1 5 acceptor
1 5 donor
1 6 acceptor
1 6 donor
1 7 acceptor
1 8 acceptor
1 9 acceptor
6 1 12 13 14 15 16 rings
6 18 19 20 22 23 24 rings
6 26 27 29 30 31 32 rings
6 7 21 25 26 27 28 rings

> <PUBCHEM_HEAVY_ATOM_COUNT>
34

> <PUBCHEM_ATOM_DEF_STEREO_COUNT>
5

> <PUBCHEM_ATOM_UDEF_STEREO_COUNT>
0

> <PUBCHEM_BOND_DEF_STEREO_COUNT>
0

> <PUBCHEM_BOND_UDEF_STEREO_COUNT>
0

> <PUBCHEM_ISOTOPIC_ATOM_COUNT>
0

> <PUBCHEM_COMPONENT_COUNT>
1

> <PUBCHEM_CACTVS_TAUTO_COUNT>
4

> <PUBCHEM_CONFORMER_ID>
0604E87C00000001

> <PUBCHEM_MMFF94_ENERGY>
132.8339

> <PUBCHEM_FEATURE_SELFOVERLAP>
96.536

> <PUBCHEM_SHAPE_FINGERPRINT>
10622 236 18129935784635936999
11552529 35 17984135955783448632
11578080 2 17986931068902887297
12107183 9 18267887007706072993
12166972 35 18129361826733901743
12422481 6 17630336224815256606
12553582 1 18409167684431793106
13009979 54 17846222188943928105
13383661 66 16823341299197937235
13911987 19 17896057554174411452
14068700 675 18130489886666272407
14747281 78 16878489186147372045
14767858 380 18188789318203656996
14840074 17 18272657818121805062
14844126 61 17758390782309193568
1813 80 18343581828593204388
19315092 285 18199176481480905391
19319366 153 17694497452865045653
20511986 3 17916869148493120529
20600515 1 16056610845775790593
21033650 10 12469216575587937166
21133410 171 17103353495725310987
23559900 14 17313380162752931237
23598288 3 18047477716489180980
244849 19 17822288050586569069
24771293 8 18342455993876346864
46194498 28 16733846309424587356
463206 1 18260838089387482082
469060 322 18269826545494652795
4756261 7 11595163350355986599
513202 73 17982177721142885886
57527295 17 17895177875831096445
613672 6 18188197715706057826
6669772 16 18048321330266859668
70251023 43 18335409193240234149

> <PUBCHEM_SHAPE_MULTIPOLES>
635.14
12.11
4.59
2.45
2.09
3.84
0.09
-10.52
-2.75
5.42
0
-3.99
-0.84
-3.75

> <PUBCHEM_SHAPE_SELFOVERLAP>
1382.638

> <PUBCHEM_SHAPE_VOLUME>
342.4

> <PUBCHEM_COORDINATE_TYPE>
2
5
10

$$$$
