91884987
  -OEChem-11202001443D

 55 57  0     1  0  0  0  0  0999 V2000
   -4.6592    2.4542    0.1096 O   0  0  0  0  0  0  0  0  0  0  0  0
    1.7242   -0.3379   -1.4607 O   0  0  0  0  0  0  0  0  0  0  0  0
   -5.7018    0.1256   -0.9425 O   0  0  0  0  0  0  0  0  0  0  0  0
    5.9547    1.0788   -0.3398 O   0  0  0  0  0  0  0  0  0  0  0  0
    4.9411   -0.6711   -1.4306 O   0  0  0  0  0  0  0  0  0  0  0  0
   -1.0302    0.0643   -0.2273 C   0  0  2  0  0  0  0  0  0  0  0  0
   -2.2802   -0.5083    0.5580 C   0  0  1  0  0  0  0  0  0  0  0  0
   -3.6634    0.2019    0.3017 C   0  0  1  0  0  0  0  0  0  0  0  0
    0.2652   -0.5820    0.4225 C   0  0  1  0  0  0  0  0  0  0  0  0
   -0.9961    1.6049   -0.0540 C   0  0  0  0  0  0  0  0  0  0  0  0
   -3.4682    1.7404    0.4397 C   0  0  1  0  0  0  0  0  0  0  0  0
   -2.3287   -2.0525    0.4793 C   0  0  0  0  0  0  0  0  0  0  0  0
   -2.3144    2.2918   -0.3913 C   0  0  0  0  0  0  0  0  0  0  0  0
   -1.0516   -0.2587   -1.7430 C   0  0  0  0  0  0  0  0  0  0  0  0
   -1.0419   -2.6867    1.0128 C   0  0  0  0  0  0  0  0  0  0  0  0
    0.1822   -2.1061    0.3509 C   0  0  0  0  0  0  0  0  0  0  0  0
    1.5946    0.0026   -0.0865 C   0  0  1  0  0  0  0  0  0  0  0  0
   -4.3261   -0.1702   -1.0411 C   0  0  0  0  0  0  0  0  0  0  0  0
   -4.6749   -0.2287    1.4023 C   0  0  0  0  0  0  0  0  0  0  0  0
    2.7676   -0.5795    0.6931 C   0  0  0  0  0  0  0  0  0  0  0  0
    1.0779   -2.9121   -0.2423 C   0  0  0  0  0  0  0  0  0  0  0  0
    3.9869    0.2710    0.5529 C   0  0  0  0  0  0  0  0  0  0  0  0
    4.4019    1.2693    1.3284 C   0  0  0  0  0  0  0  0  0  0  0  0
    4.9788    0.1405   -0.5220 C   0  0  0  0  0  0  0  0  0  0  0  0
    5.6615    1.8483    0.8299 C   0  0  0  0  0  0  0  0  0  0  0  0
   -2.0642   -0.2865    1.6170 H   0  0  0  0  0  0  0  0  0  0  0  0
    0.2304   -0.3307    1.4946 H   0  0  0  0  0  0  0  0  0  0  0  0
   -0.2181    2.0520   -0.6836 H   0  0  0  0  0  0  0  0  0  0  0  0
   -0.7343    1.8496    0.9841 H   0  0  0  0  0  0  0  0  0  0  0  0
   -3.2590    1.9674    1.4941 H   0  0  0  0  0  0  0  0  0  0  0  0
   -2.4887   -2.3814   -0.5535 H   0  0  0  0  0  0  0  0  0  0  0  0
   -3.1629   -2.4469    1.0678 H   0  0  0  0  0  0  0  0  0  0  0  0
   -2.2161    3.3693   -0.2068 H   0  0  0  0  0  0  0  0  0  0  0  0
   -2.5356    2.2075   -1.4614 H   0  0  0  0  0  0  0  0  0  0  0  0
   -0.8779   -1.3164   -1.9588 H   0  0  0  0  0  0  0  0  0  0  0  0
   -0.3145    0.3287   -2.2983 H   0  0  0  0  0  0  0  0  0  0  0  0
   -2.0016   -0.0048   -2.2067 H   0  0  0  0  0  0  0  0  0  0  0  0
   -1.0994   -3.7732    0.8751 H   0  0  0  0  0  0  0  0  0  0  0  0
   -0.9708   -2.5147    2.0944 H   0  0  0  0  0  0  0  0  0  0  0  0
    1.5909    1.0935    0.0007 H   0  0  0  0  0  0  0  0  0  0  0  0
   -4.2347   -1.2351   -1.2671 H   0  0  0  0  0  0  0  0  0  0  0  0
   -3.9336    0.4058   -1.8795 H   0  0  0  0  0  0  0  0  0  0  0  0
   -5.5642    0.4112    1.4378 H   0  0  0  0  0  0  0  0  0  0  0  0
   -4.2162   -0.1656    2.3963 H   0  0  0  0  0  0  0  0  0  0  0  0
   -5.0163   -1.2606    1.2660 H   0  0  0  0  0  0  0  0  0  0  0  0
    2.5186   -0.6253    1.7617 H   0  0  0  0  0  0  0  0  0  0  0  0
    3.0783   -1.5826    0.4037 H   0  0  0  0  0  0  0  0  0  0  0  0
   -4.4907    3.3989    0.2667 H   0  0  0  0  0  0  0  0  0  0  0  0
    1.9334   -2.6044   -0.8215 H   0  0  0  0  0  0  0  0  0  0  0  0
    0.9218   -3.9883   -0.2273 H   0  0  0  0  0  0  0  0  0  0  0  0
    2.5193    0.1032   -1.8035 H   0  0  0  0  0  0  0  0  0  0  0  0
   -6.1119   -0.1162   -1.7903 H   0  0  0  0  0  0  0  0  0  0  0  0
    3.8852    1.6175    2.2112 H   0  0  0  0  0  0  0  0  0  0  0  0
    5.5494    2.8997    0.5513 H   0  0  0  0  0  0  0  0  0  0  0  0
    6.4783    1.7382    1.5485 H   0  0  0  0  0  0  0  0  0  0  0  0
  1 11  1  0  0  0  0
  1 48  1  0  0  0  0
  2 17  1  0  0  0  0
  2 51  1  0  0  0  0
  3 18  1  0  0  0  0
  3 52  1  0  0  0  0
  4 24  1  0  0  0  0
  4 25  1  0  0  0  0
  5 24  2  0  0  0  0
  6  7  1  0  0  0  0
  6  9  1  0  0  0  0
  6 10  1  0  0  0  0
  6 14  1  0  0  0  0
  7  8  1  0  0  0  0
  7 12  1  0  0  0  0
  7 26  1  0  0  0  0
  8 11  1  0  0  0  0
  8 18  1  0  0  0  0
  8 19  1  0  0  0  0
  9 16  1  0  0  0  0
  9 17  1  0  0  0  0
  9 27  1  0  0  0  0
 10 13  1  0  0  0  0
 10 28  1  0  0  0  0
 10 29  1  0  0  0  0
 11 13  1  0  0  0  0
 11 30  1  0  0  0  0
 12 15  1  0  0  0  0
 12 31  1  0  0  0  0
 12 32  1  0  0  0  0
 13 33  1  0  0  0  0
 13 34  1  0  0  0  0
 14 35  1  0  0  0  0
 14 36  1  0  0  0  0
 14 37  1  0  0  0  0
 15 16  1  0  0  0  0
 15 38  1  0  0  0  0
 15 39  1  0  0  0  0
 16 21  2  0  0  0  0
 17 20  1  0  0  0  0
 17 40  1  0  0  0  0
 18 41  1  0  0  0  0
 18 42  1  0  0  0  0
 19 43  1  0  0  0  0
 19 44  1  0  0  0  0
 19 45  1  0  0  0  0
 20 22  1  0  0  0  0
 20 46  1  0  0  0  0
 20 47  1  0  0  0  0
 21 49  1  0  0  0  0
 21 50  1  0  0  0  0
 22 23  2  0  0  0  0
 22 24  1  0  0  0  0
 23 25  1  0  0  0  0
 23 53  1  0  0  0  0
 25 54  1  0  0  0  0
 25 55  1  0  0  0  0
M  END
> <PUBCHEM_COMPOUND_CID>
91884987

> <PUBCHEM_CONFORMER_RMSD>
0.8

> <PUBCHEM_CONFORMER_DIVERSEORDER>
2
18
10
13
17
4
7
12
9
3
19
16
14
8
6
11
5
15
1

> <PUBCHEM_MMFF94_PARTIAL_CHARGES>
23
1 -0.68
11 0.28
15 0.14
16 -0.28
17 0.28
18 0.28
2 -0.68
20 0.14
21 -0.3
22 -0.12
23 -0.29
24 0.71
25 0.42
3 -0.68
4 -0.43
48 0.4
49 0.15
5 -0.57
50 0.15
51 0.4
52 0.4
53 0.15
9 0.14

> <PUBCHEM_EFFECTIVE_ROTOR_COUNT>
5.8

> <PUBCHEM_PHARMACOPHORE_FEATURES>
10
1 1 acceptor
1 1 donor
1 2 acceptor
1 2 donor
1 3 acceptor
1 3 donor
1 5 acceptor
5 4 22 23 24 25 rings
6 6 7 8 10 11 13 rings
6 6 7 9 12 15 16 rings

> <PUBCHEM_HEAVY_ATOM_COUNT>
25

> <PUBCHEM_ATOM_DEF_STEREO_COUNT>
6

> <PUBCHEM_ATOM_UDEF_STEREO_COUNT>
0

> <PUBCHEM_BOND_DEF_STEREO_COUNT>
0

> <PUBCHEM_BOND_UDEF_STEREO_COUNT>
0

> <PUBCHEM_ISOTOPIC_ATOM_COUNT>
0

> <PUBCHEM_COMPONENT_COUNT>
1

> <PUBCHEM_CACTVS_TAUTO_COUNT>
1

> <PUBCHEM_CONFORMER_ID>
057A0DBB00000002

> <PUBCHEM_MMFF94_ENERGY>
83.6987

> <PUBCHEM_FEATURE_SELFOVERLAP>
50.771

> <PUBCHEM_SHAPE_FINGERPRINT>
10319926 262 18338222865608639234
10366900 7 18272081712593768619
10411042 1 17688312704212568763
10670039 82 18187655652742962788
10906281 52 18261122846214851093
11578080 2 17680415664141249245
11595378 159 17676478441761349024
12011746 2 18410006650437464181
12173636 292 18409444800127630550
12236239 1 17167579419125298634
12390115 104 18269849639744702657
12403259 415 18341339924479231288
12422481 6 16805880689222504414
12507557 5 17313106367146337221
12596602 18 16877941676495794144
12633257 1 16081090407010674898
12969540 114 18337656590242936359
13140716 1 18119539975225225779
13402501 40 18342737438065547928
13533116 47 18336259042672174794
13544653 18 12324243871120366762
13583140 156 17846221124166851558
14528608 73 18343295955316865620
14787075 74 18272364287214241977
14840074 17 17095533902340365396
15209294 21 18334293158450984930
16945 1 18408893932096541291
17980427 23 17749116573649115517
19784866 170 18335145254366865329
19862831 5 13758359981578834506
20645477 56 18410855499431772512
20645477 70 17060066926268038390
21033648 29 18201148940885211496
21756936 100 18341601660165999176
22182313 1 18265358186237787923
22224240 67 18409173225367061771
23198884 109 16487259897557154632
23227448 37 18341047535890589468
23402539 116 18337945791828824175
23557571 272 18267312104467964202
23559900 14 18339922722647389672
2916195 48 18343299279943624552
34934 24 18269270171842783333
474229 33 18408602573888399219
5104073 3 18189338974531579899
5486654 2 18409163329387676455
59755656 215 18337958896449498390
59755656 520 18408878551702915382
633830 44 18272926103591410534
7808743 9 18265050409513846272
9981440 41 18261114067038169195

> <PUBCHEM_SHAPE_MULTIPOLES>
485.14
12.2
2.59
1.26
9.69
0.74
0.22
-6.69
-0.28
-0.96
-0.45
0.08
0.1
0.92

> <PUBCHEM_SHAPE_SELFOVERLAP>
1020.391

> <PUBCHEM_SHAPE_VOLUME>
270.7

> <PUBCHEM_COORDINATE_TYPE>
2
5
10

$$$$
