6439612
  -OEChem-11202001453D

 76 79  0     1  0  0  0  0  0999 V2000
   -2.0137    0.1256    2.8541 O   0  0  0  0  0  0  0  0  0  0  0  0
   -2.9771   -0.8526    0.5192 O   0  0  0  0  0  0  0  0  0  0  0  0
   -4.6800    0.6847    0.0940 O   0  0  0  0  0  0  0  0  0  0  0  0
   -4.6129   -2.9174   -0.5146 O   0  0  0  0  0  0  0  0  0  0  0  0
    8.0233   -0.8955   -0.7610 O   0  0  0  0  0  0  0  0  0  0  0  0
   -7.4790   -2.3049   -0.2134 O   0  0  0  0  0  0  0  0  0  0  0  0
   -8.0664    0.3272   -1.2541 O   0  0  0  0  0  0  0  0  0  0  0  0
    6.2598   -1.8815    1.5094 O   0  0  0  0  0  0  0  0  0  0  0  0
    8.0295    1.3815   -0.4177 O   0  0  0  0  0  0  0  0  0  0  0  0
   -5.1544    3.3151   -0.5479 O   0  0  0  0  0  0  0  0  0  0  0  0
    1.2670    1.1839    0.2226 C   0  0  2  0  0  0  0  0  0  0  0  0
    0.7677   -0.3114    0.2705 C   0  0  1  0  0  0  0  0  0  0  0  0
   -0.6431   -0.5519    0.9333 C   0  0  1  0  0  0  0  0  0  0  0  0
    2.7768    1.2244   -0.2490 C   0  0  2  0  0  0  0  0  0  0  0  0
    1.1162    1.8148    1.6295 C   0  0  0  0  0  0  0  0  0  0  0  0
   -0.7015    0.1988    2.2974 C   0  0  1  0  0  0  0  0  0  0  0  0
    0.9595   -1.0089   -1.0980 C   0  0  0  0  0  0  0  0  0  0  0  0
   -0.2844    1.6654    2.2147 C   0  0  0  0  0  0  0  0  0  0  0  0
    0.4751    2.0659   -0.7852 C   0  0  0  0  0  0  0  0  0  0  0  0
    2.4085   -0.9336   -1.5877 C   0  0  0  0  0  0  0  0  0  0  0  0
    2.9373    0.4749   -1.5628 C   0  0  0  0  0  0  0  0  0  0  0  0
   -1.8399   -0.1733    0.0349 C   0  0  0  0  0  0  0  0  0  0  0  0
   -0.8129   -2.0677    1.2394 C   0  0  0  0  0  0  0  0  0  0  0  0
    3.8079    0.6980    0.7621 C   0  0  0  0  0  0  0  0  0  0  0  0
    3.4925    1.0423   -2.6450 C   0  0  0  0  0  0  0  0  0  0  0  0
    5.1992    0.9647    0.2900 C   0  0  0  0  0  0  0  0  0  0  0  0
   -4.1358   -0.5822   -0.2688 C   0  0  2  0  0  0  0  0  0  0  0  0
   -5.1512   -1.6954   -0.0104 C   0  0  1  0  0  0  0  0  0  0  0  0
    6.1065    0.0089    0.0812 C   0  0  0  0  0  0  0  0  0  0  0  0
   -6.4834   -1.4043   -0.7014 C   0  0  2  0  0  0  0  0  0  0  0  0
   -5.8319    1.0278   -0.6782 C   0  0  1  0  0  0  0  0  0  0  0  0
   -6.9550    0.0216   -0.4160 C   0  0  1  0  0  0  0  0  0  0  0  0
    5.9402   -1.4581    0.1903 C   0  0  1  0  0  0  0  0  0  0  0  0
    7.4763    0.2975   -0.3850 C   0  0  0  0  0  0  0  0  0  0  0  0
    7.0203   -1.9290   -0.7570 C   0  0  0  0  0  0  0  0  0  0  0  0
   -6.2411    2.4449   -0.2891 C   0  0  0  0  0  0  0  0  0  0  0  0
    1.4670   -0.8221    0.9504 H   0  0  0  0  0  0  0  0  0  0  0  0
    3.0226    2.2849   -0.4160 H   0  0  0  0  0  0  0  0  0  0  0  0
    1.3911    2.8763    1.6030 H   0  0  0  0  0  0  0  0  0  0  0  0
    1.7935    1.3341    2.3425 H   0  0  0  0  0  0  0  0  0  0  0  0
   -0.0316   -0.3072    3.0055 H   0  0  0  0  0  0  0  0  0  0  0  0
    0.6856   -2.0669   -1.0320 H   0  0  0  0  0  0  0  0  0  0  0  0
    0.3067   -0.5678   -1.8583 H   0  0  0  0  0  0  0  0  0  0  0  0
   -1.0207    2.2486    1.6518 H   0  0  0  0  0  0  0  0  0  0  0  0
   -0.2990    2.0999    3.2228 H   0  0  0  0  0  0  0  0  0  0  0  0
    0.9202    3.0663   -0.8528 H   0  0  0  0  0  0  0  0  0  0  0  0
   -0.5629    2.2222   -0.4956 H   0  0  0  0  0  0  0  0  0  0  0  0
    0.4674    1.6512   -1.7969 H   0  0  0  0  0  0  0  0  0  0  0  0
    3.0280   -1.5743   -0.9553 H   0  0  0  0  0  0  0  0  0  0  0  0
    2.4618   -1.3584   -2.5976 H   0  0  0  0  0  0  0  0  0  0  0  0
   -2.0359    0.9004    0.0458 H   0  0  0  0  0  0  0  0  0  0  0  0
   -1.6653   -0.4836   -0.9991 H   0  0  0  0  0  0  0  0  0  0  0  0
    0.0826   -2.4664    1.7311 H   0  0  0  0  0  0  0  0  0  0  0  0
   -0.9733   -2.6546    0.3284 H   0  0  0  0  0  0  0  0  0  0  0  0
   -1.6486   -2.2753    1.9177 H   0  0  0  0  0  0  0  0  0  0  0  0
    3.6410   -0.3556    1.0029 H   0  0  0  0  0  0  0  0  0  0  0  0
    3.7214    1.2397    1.7095 H   0  0  0  0  0  0  0  0  0  0  0  0
   -1.9907    0.5635    3.7219 H   0  0  0  0  0  0  0  0  0  0  0  0
    3.5920    0.4989   -3.5785 H   0  0  0  0  0  0  0  0  0  0  0  0
    3.8611    2.0623   -2.6214 H   0  0  0  0  0  0  0  0  0  0  0  0
    5.4749    2.0069    0.1453 H   0  0  0  0  0  0  0  0  0  0  0  0
   -3.8565   -0.5756   -1.3318 H   0  0  0  0  0  0  0  0  0  0  0  0
   -5.2996   -1.8361    1.0668 H   0  0  0  0  0  0  0  0  0  0  0  0
   -6.4124   -1.5837   -1.7806 H   0  0  0  0  0  0  0  0  0  0  0  0
   -5.5497    1.0362   -1.7399 H   0  0  0  0  0  0  0  0  0  0  0  0
   -7.2990    0.0950    0.6230 H   0  0  0  0  0  0  0  0  0  0  0  0
    4.9636   -1.8545   -0.0829 H   0  0  0  0  0  0  0  0  0  0  0  0
    7.4899   -2.8654   -0.4406 H   0  0  0  0  0  0  0  0  0  0  0  0
    6.6530   -2.0379   -1.7838 H   0  0  0  0  0  0  0  0  0  0  0  0
   -4.4704   -2.8125   -1.4708 H   0  0  0  0  0  0  0  0  0  0  0  0
   -7.1080    2.7848   -0.8636 H   0  0  0  0  0  0  0  0  0  0  0  0
   -6.4688    2.5053    0.7804 H   0  0  0  0  0  0  0  0  0  0  0  0
   -7.5531   -2.1818    0.7483 H   0  0  0  0  0  0  0  0  0  0  0  0
   -7.7680    0.2782   -2.1784 H   0  0  0  0  0  0  0  0  0  0  0  0
    6.2289   -2.8535    1.5203 H   0  0  0  0  0  0  0  0  0  0  0  0
   -5.4348    4.2094   -0.2891 H   0  0  0  0  0  0  0  0  0  0  0  0
  1 16  1  0  0  0  0
  1 58  1  0  0  0  0
  2 22  1  0  0  0  0
  2 27  1  0  0  0  0
  3 27  1  0  0  0  0
  3 31  1  0  0  0  0
  4 28  1  0  0  0  0
  4 70  1  0  0  0  0
  5 34  1  0  0  0  0
  5 35  1  0  0  0  0
  6 30  1  0  0  0  0
  6 73  1  0  0  0  0
  7 32  1  0  0  0  0
  7 74  1  0  0  0  0
  8 33  1  0  0  0  0
  8 75  1  0  0  0  0
  9 34  2  0  0  0  0
 10 36  1  0  0  0  0
 10 76  1  0  0  0  0
 11 12  1  0  0  0  0
 11 14  1  0  0  0  0
 11 15  1  0  0  0  0
 11 19  1  0  0  0  0
 12 13  1  0  0  0  0
 12 17  1  0  0  0  0
 12 37  1  0  0  0  0
 13 16  1  0  0  0  0
 13 22  1  0  0  0  0
 13 23  1  0  0  0  0
 14 21  1  0  0  0  0
 14 24  1  0  0  0  0
 14 38  1  0  0  0  0
 15 18  1  0  0  0  0
 15 39  1  0  0  0  0
 15 40  1  0  0  0  0
 16 18  1  0  0  0  0
 16 41  1  0  0  0  0
 17 20  1  0  0  0  0
 17 42  1  0  0  0  0
 17 43  1  0  0  0  0
 18 44  1  0  0  0  0
 18 45  1  0  0  0  0
 19 46  1  0  0  0  0
 19 47  1  0  0  0  0
 19 48  1  0  0  0  0
 20 21  1  0  0  0  0
 20 49  1  0  0  0  0
 20 50  1  0  0  0  0
 21 25  2  0  0  0  0
 22 51  1  0  0  0  0
 22 52  1  0  0  0  0
 23 53  1  0  0  0  0
 23 54  1  0  0  0  0
 23 55  1  0  0  0  0
 24 26  1  0  0  0  0
 24 56  1  0  0  0  0
 24 57  1  0  0  0  0
 25 59  1  0  0  0  0
 25 60  1  0  0  0  0
 26 29  2  0  0  0  0
 26 61  1  0  0  0  0
 27 28  1  0  0  0  0
 27 62  1  0  0  0  0
 28 30  1  0  0  0  0
 28 63  1  0  0  0  0
 29 33  1  0  0  0  0
 29 34  1  0  0  0  0
 30 32  1  0  0  0  0
 30 64  1  0  0  0  0
 31 32  1  0  0  0  0
 31 36  1  0  0  0  0
 31 65  1  0  0  0  0
 32 66  1  0  0  0  0
 33 35  1  0  0  0  0
 33 67  1  0  0  0  0
 35 68  1  0  0  0  0
 35 69  1  0  0  0  0
 36 71  1  0  0  0  0
 36 72  1  0  0  0  0
M  END
> <PUBCHEM_COMPOUND_CID>
6439612

> <PUBCHEM_CONFORMER_RMSD>
1

> <PUBCHEM_CONFORMER_DIVERSEORDER>
1
132
118
119
26
62
25
156
150
95
171
51
83
113
198
97
152
10
85
42
179
111
158
104
159
71
78
106
137
117
84
88
185
30
120
53
141
98
175
63
149
92
17
73
194
90
103
125
94
136
57
69
151
5
122
39
186
195
59
110
157
191
44
169
32
31
116
142
161
80
143
76
188
154
193
23
86
201
81
134
87
133
130
50
22
162
184
79
183
55
89
121
20
105
28
40
146
131
165
27
37
66
46
163
29
74
199
67
124
4
102
144
35
145
36
18
16
174
147
181
43
109
14
93
177
21
176
127
41
129
11
170
115
8
135
140
77
65
99
166
61
114
19
196
72
64
173
60
153
123
12
13
189
168
139
155
192
100
101
164
68
24
33
167
48
126
187
54
96
138
58
52
148
56
15
82
75
172
6
182
91
180
160
47
3
190
200
108
107
178
197
70
9
45
49
34
112
128
7
38
2

> <PUBCHEM_MMFF94_PARTIAL_CHARGES>
37
1 -0.68
10 -0.68
14 0.14
16 0.28
2 -0.56
20 0.14
21 -0.28
22 0.28
24 0.14
25 -0.3
26 -0.29
27 0.56
28 0.28
29 -0.12
3 -0.56
30 0.28
31 0.28
32 0.28
33 0.42
34 0.71
35 0.28
36 0.28
4 -0.68
5 -0.43
58 0.4
59 0.15
6 -0.68
60 0.15
61 0.15
7 -0.68
70 0.4
73 0.4
74 0.4
75 0.4
76 0.4
8 -0.68
9 -0.57

> <PUBCHEM_EFFECTIVE_ROTOR_COUNT>
9.2

> <PUBCHEM_PHARMACOPHORE_FEATURES>
19
1 1 acceptor
1 1 donor
1 10 acceptor
1 10 donor
1 2 acceptor
1 3 acceptor
1 4 acceptor
1 4 donor
1 6 acceptor
1 6 donor
1 7 acceptor
1 7 donor
1 8 acceptor
1 8 donor
1 9 acceptor
5 5 29 33 34 35 rings
6 11 12 13 15 16 18 rings
6 11 12 14 17 20 21 rings
6 3 27 28 30 31 32 rings

> <PUBCHEM_HEAVY_ATOM_COUNT>
36

> <PUBCHEM_ATOM_DEF_STEREO_COUNT>
10

> <PUBCHEM_ATOM_UDEF_STEREO_COUNT>
1

> <PUBCHEM_BOND_DEF_STEREO_COUNT>
1

> <PUBCHEM_BOND_UDEF_STEREO_COUNT>
0

> <PUBCHEM_ISOTOPIC_ATOM_COUNT>
0

> <PUBCHEM_COMPONENT_COUNT>
1

> <PUBCHEM_CACTVS_TAUTO_COUNT>
1

> <PUBCHEM_CONFORMER_ID>
006242BC00000001

> <PUBCHEM_MMFF94_ENERGY>
113.6479

> <PUBCHEM_FEATURE_SELFOVERLAP>
96.514

> <PUBCHEM_SHAPE_FINGERPRINT>
10165383 225 13045938014956911344
10670039 82 18261105275957324069
10815517 723 17458345195507130140
11115154 58 17749108881210058244
11135926 11 16272211873305625295
11719270 70 17846780702513157726
12166972 35 18340488958403844608
13692114 37 14405178487534388676
13782708 43 18128817624339470827
13811026 1 18273214171417033214
13914758 101 18334859390039008272
14294032 229 17896877660636769077
15131766 46 9582356545692548026
15183329 4 17167860868089664238
15849732 13 18411699911382258870
16090146 7 17603880983092401416
19841028 212 18337387133709093066
21223535 225 16660638510407939765
21304304 249 17704358767055541566
21792961 116 18060701676270339019
22224240 67 11600009851017942396
22956985 138 16771009614488619454
23569943 247 16734932459615250786
249057 3 16226052223361285478
3009799 131 18202563977642007280
3633792 109 18260551139049667800
4098825 35 18409165510809329597
4325135 7 13830134988027341814
4340502 62 13038911032218209812
45266715 3 18059586758817192334
46194498 28 18059011830289223517
474113 269 18271804559045838622
4760202 70 12175031355575388064
5969126 39 15698001808335214737
6009941 240 17988082193310530873
6081469 158 18333731296031891198
6523845 18 14490193816961547185
9689198 14 11097858480213902018

> <PUBCHEM_SHAPE_MULTIPOLES>
682.17
22.78
2.52
1.85
0.59
0.1
-0.54
-4.96
7.29
2.63
0.05
-0.64
0.42
0.04

> <PUBCHEM_SHAPE_SELFOVERLAP>
1431.507

> <PUBCHEM_SHAPE_VOLUME>
381.6

> <PUBCHEM_COORDINATE_TYPE>
2
5
10

$$$$
