5318369
  -OEChem-11202001313D

 40 42  0     0  0  0  0  0  0999 V2000
    0.0554    0.6163    0.0179 O   0  0  0  0  0  0  0  0  0  0  0  0
    2.3859    0.0223   -2.4058 O   0  0  0  0  0  0  0  0  0  0  0  0
    2.4231   -0.1458    2.4001 O   0  0  0  0  0  0  0  0  0  0  0  0
   -4.3646    2.3488    0.0688 O   0  0  0  0  0  0  0  0  0  0  0  0
   -3.7687   -2.3610   -0.0635 O   0  0  0  0  0  0  0  0  0  0  0  0
   -1.2921   -3.2269   -0.0936 O   0  0  0  0  0  0  0  0  0  0  0  0
   -1.8215   -0.9249   -0.0237 C   0  0  0  0  0  0  0  0  0  0  0  0
    0.9287   -0.4605   -0.0056 C   0  0  0  0  0  0  0  0  0  0  0  0
    2.3546   -0.0767   -0.0029 C   0  0  0  0  0  0  0  0  0  0  0  0
   -1.2931    0.3643    0.0122 C   0  0  0  0  0  0  0  0  0  0  0  0
   -0.8982   -2.0695   -0.0580 C   0  0  0  0  0  0  0  0  0  0  0  0
    0.5428   -1.7457   -0.0479 C   0  0  0  0  0  0  0  0  0  0  0  0
   -3.2042   -1.1220   -0.0286 C   0  0  0  0  0  0  0  0  0  0  0  0
    3.0277    0.1494   -1.2090 C   0  0  0  0  0  0  0  0  0  0  0  0
    3.0463    0.0652    1.2055 C   0  0  0  0  0  0  0  0  0  0  0  0
   -2.1471    1.4671    0.0433 C   0  0  0  0  0  0  0  0  0  0  0  0
   -3.5288    1.2745    0.0388 C   0  0  0  0  0  0  0  0  0  0  0  0
   -4.0560   -0.0172    0.0030 C   0  0  0  0  0  0  0  0  0  0  0  0
    4.3745    0.5125   -1.2067 C   0  0  0  0  0  0  0  0  0  0  0  0
    4.3932    0.4281    1.2076 C   0  0  0  0  0  0  0  0  0  0  0  0
    5.0572    0.6519    0.0015 C   0  0  0  0  0  0  0  0  0  0  0  0
    1.7526    1.1882   -2.9268 C   0  0  0  0  0  0  0  0  0  0  0  0
    1.7983    0.9804    3.0112 C   0  0  0  0  0  0  0  0  0  0  0  0
   -5.7659    2.0813    0.0622 C   0  0  0  0  0  0  0  0  0  0  0  0
    1.2484   -2.5685   -0.0736 H   0  0  0  0  0  0  0  0  0  0  0  0
   -1.7389    2.4742    0.0710 H   0  0  0  0  0  0  0  0  0  0  0  0
   -5.1209   -0.2264   -0.0024 H   0  0  0  0  0  0  0  0  0  0  0  0
    4.8989    0.6880   -2.1421 H   0  0  0  0  0  0  0  0  0  0  0  0
    4.9322    0.5381    2.1447 H   0  0  0  0  0  0  0  0  0  0  0  0
    6.1059    0.9345    0.0032 H   0  0  0  0  0  0  0  0  0  0  0  0
   -3.0837   -3.0467   -0.0809 H   0  0  0  0  0  0  0  0  0  0  0  0
    1.1599    1.7052   -2.1666 H   0  0  0  0  0  0  0  0  0  0  0  0
    1.0882    0.8827   -3.7397 H   0  0  0  0  0  0  0  0  0  0  0  0
    2.5077    1.8698   -3.3307 H   0  0  0  0  0  0  0  0  0  0  0  0
    1.1885    0.6225    3.8453 H   0  0  0  0  0  0  0  0  0  0  0  0
    1.1510    1.5149    2.3100 H   0  0  0  0  0  0  0  0  0  0  0  0
    2.5600    1.6617    3.4032 H   0  0  0  0  0  0  0  0  0  0  0  0
   -6.0751    1.5308    0.9572 H   0  0  0  0  0  0  0  0  0  0  0  0
   -6.0762    1.5813   -0.8616 H   0  0  0  0  0  0  0  0  0  0  0  0
   -6.2792    3.0481    0.0894 H   0  0  0  0  0  0  0  0  0  0  0  0
  1  8  1  0  0  0  0
  1 10  1  0  0  0  0
  2 14  1  0  0  0  0
  2 22  1  0  0  0  0
  3 15  1  0  0  0  0
  3 23  1  0  0  0  0
  4 17  1  0  0  0  0
  4 24  1  0  0  0  0
  5 13  1  0  0  0  0
  5 31  1  0  0  0  0
  6 11  2  0  0  0  0
  7 10  1  0  0  0  0
  7 11  1  0  0  0  0
  7 13  2  0  0  0  0
  8  9  1  0  0  0  0
  8 12  2  0  0  0  0
  9 14  2  0  0  0  0
  9 15  1  0  0  0  0
 10 16  2  0  0  0  0
 11 12  1  0  0  0  0
 12 25  1  0  0  0  0
 13 18  1  0  0  0  0
 14 19  1  0  0  0  0
 15 20  2  0  0  0  0
 16 17  1  0  0  0  0
 16 26  1  0  0  0  0
 17 18  2  0  0  0  0
 18 27  1  0  0  0  0
 19 21  2  0  0  0  0
 19 28  1  0  0  0  0
 20 21  1  0  0  0  0
 20 29  1  0  0  0  0
 21 30  1  0  0  0  0
 22 32  1  0  0  0  0
 22 33  1  0  0  0  0
 22 34  1  0  0  0  0
 23 35  1  0  0  0  0
 23 36  1  0  0  0  0
 23 37  1  0  0  0  0
 24 38  1  0  0  0  0
 24 39  1  0  0  0  0
 24 40  1  0  0  0  0
M  END
> <PUBCHEM_COMPOUND_CID>
5318369

> <PUBCHEM_CONFORMER_RMSD>
0.8

> <PUBCHEM_CONFORMER_DIVERSEORDER>
1
5
3
4
2

> <PUBCHEM_MMFF94_PARTIAL_CHARGES>
31
1 -0.16
10 0.08
11 0.47
12 -0.14
13 0.08
14 0.08
15 0.08
16 -0.15
17 0.08
18 -0.15
19 -0.15
2 -0.36
20 -0.15
21 -0.15
22 0.28
23 0.28
24 0.28
25 0.15
26 0.15
27 0.15
28 0.15
29 0.15
3 -0.36
30 0.15
31 0.45
4 -0.36
5 -0.53
6 -0.57
7 0.09
8 0.05
9 0.03

> <PUBCHEM_EFFECTIVE_ROTOR_COUNT>
4

> <PUBCHEM_PHARMACOPHORE_FEATURES>
9
1 1 acceptor
1 2 acceptor
1 3 acceptor
1 4 acceptor
1 5 donor
1 6 acceptor
6 1 7 8 10 11 12 rings
6 7 10 13 16 17 18 rings
6 9 14 15 19 20 21 rings

> <PUBCHEM_HEAVY_ATOM_COUNT>
24

> <PUBCHEM_ATOM_DEF_STEREO_COUNT>
0

> <PUBCHEM_ATOM_UDEF_STEREO_COUNT>
0

> <PUBCHEM_BOND_DEF_STEREO_COUNT>
0

> <PUBCHEM_BOND_UDEF_STEREO_COUNT>
0

> <PUBCHEM_ISOTOPIC_ATOM_COUNT>
0

> <PUBCHEM_COMPONENT_COUNT>
1

> <PUBCHEM_CACTVS_TAUTO_COUNT>
5

> <PUBCHEM_CONFORMER_ID>
005126E100000001

> <PUBCHEM_MMFF94_ENERGY>
105.1164

> <PUBCHEM_FEATURE_SELFOVERLAP>
45.702

> <PUBCHEM_SHAPE_FINGERPRINT>
10319926 262 18198883947158619170
10411042 1 17762618795476982535
10498660 4 18342459218505099521
11552529 35 16444775932385854035
11640471 11 17749682890529472278
11796584 16 18343308037925597982
12236239 1 17822290219375845710
12390115 104 18272382936368247881
12403259 118 17822020791814536301
12403259 415 17989201590092880345
12403814 3 17458340836700366901
12596602 18 17168148936041959745
12788726 201 17752778089093429139
13134695 92 16415484857139429256
13140716 1 17904764732430866107
13583140 156 17632290198600790214
13911987 19 16343430613366363620
13965767 371 17896032144510052340
14294032 229 18335981962143425061
14341114 328 17095531677378766809
15806764 133 17775010140722448153
16752209 62 18337669819153852643
17980427 23 18261107517165284132
18186145 218 17632579353094882155
20511986 3 17822001051480251477
20600515 1 18341043086241648208
20645477 70 15985108470459915812
21033648 29 17846204592352121320
221357 26 16702018626245674297
22149856 69 18121523288835153297
22289505 5 16845007905824707280
23526113 38 17274548611552067912
23557571 272 18201448011762340455
23559900 14 18200883889852533726
238 59 16200146595238797454
3060560 45 15482663581580537932
3472631 163 18410577309715251156
350125 39 18121219775120060630
38570 142 16662650703044629700
474 4 16734960183993051580
495365 180 17417237741573725734
57527295 17 16914838941323315588
7064713 232 18334295336068404805
77492 1 17676763275418140202
7808743 9 18410009927234091889

> <PUBCHEM_SHAPE_MULTIPOLES>
458.69
10.08
2.24
2.02
4.11
1.22
0.13
-5.15
0.23
3.45
-0.13
-3.19
-0.88
-0.29

> <PUBCHEM_SHAPE_SELFOVERLAP>
1006.609

> <PUBCHEM_SHAPE_VOLUME>
247.6

> <PUBCHEM_COORDINATE_TYPE>
2
5
10

$$$$
