5319878
  -OEChem-11202001303D

 44 46  0     0  0  0  0  0  0999 V2000
   -0.2139    0.3202   -0.4154 O   0  0  0  0  0  0  0  0  0  0  0  0
   -2.0160    2.3431   -0.3329 O   0  0  0  0  0  0  0  0  0  0  0  0
   -4.6821    1.8302    0.1966 O   0  0  0  0  0  0  0  0  0  0  0  0
    2.5661    0.0514    1.5730 O   0  0  0  0  0  0  0  0  0  0  0  0
   -3.7780   -2.8095    0.5832 O   0  0  0  0  0  0  0  0  0  0  0  0
    5.1269    0.8758    0.9625 O   0  0  0  0  0  0  0  0  0  0  0  0
   -1.2869   -3.5561    0.2338 O   0  0  0  0  0  0  0  0  0  0  0  0
   -1.9581   -1.2955    0.0822 C   0  0  0  0  0  0  0  0  0  0  0  0
   -1.5229    0.0086   -0.1480 C   0  0  0  0  0  0  0  0  0  0  0  0
    0.7131   -0.7098   -0.4664 C   0  0  0  0  0  0  0  0  0  0  0  0
    2.0906   -0.2632   -0.7560 C   0  0  0  0  0  0  0  0  0  0  0  0
   -2.4339    1.0644   -0.1107 C   0  0  0  0  0  0  0  0  0  0  0  0
   -0.9758   -2.3894    0.0385 C   0  0  0  0  0  0  0  0  0  0  0  0
   -3.3043   -1.5540    0.3504 C   0  0  0  0  0  0  0  0  0  0  0  0
    0.4187   -2.0025   -0.2562 C   0  0  0  0  0  0  0  0  0  0  0  0
   -3.7794    0.8103    0.1567 C   0  0  0  0  0  0  0  0  0  0  0  0
    2.9685    0.1013    0.2697 C   0  0  0  0  0  0  0  0  0  0  0  0
   -4.2134   -0.4961    0.3866 C   0  0  0  0  0  0  0  0  0  0  0  0
    2.5223   -0.2056   -2.0849 C   0  0  0  0  0  0  0  0  0  0  0  0
    4.2649    0.5192   -0.0305 C   0  0  0  0  0  0  0  0  0  0  0  0
    3.8186    0.2123   -2.3850 C   0  0  0  0  0  0  0  0  0  0  0  0
    4.6900    0.5747   -1.3578 C   0  0  0  0  0  0  0  0  0  0  0  0
   -2.2232    3.2833    0.7186 C   0  0  0  0  0  0  0  0  0  0  0  0
   -5.3307    2.1697   -1.0273 C   0  0  0  0  0  0  0  0  0  0  0  0
    2.5962    1.2736    2.3051 C   0  0  0  0  0  0  0  0  0  0  0  0
    5.9425   -0.1561    1.5140 C   0  0  0  0  0  0  0  0  0  0  0  0
    1.1660   -2.7872   -0.2942 H   0  0  0  0  0  0  0  0  0  0  0  0
   -5.2629   -0.6892    0.5958 H   0  0  0  0  0  0  0  0  0  0  0  0
    1.8560   -0.4836   -2.8982 H   0  0  0  0  0  0  0  0  0  0  0  0
    4.1496    0.2559   -3.4184 H   0  0  0  0  0  0  0  0  0  0  0  0
    5.6983    0.9002   -1.5993 H   0  0  0  0  0  0  0  0  0  0  0  0
   -3.0603   -3.4590    0.5313 H   0  0  0  0  0  0  0  0  0  0  0  0
   -2.2593    2.8040    1.7032 H   0  0  0  0  0  0  0  0  0  0  0  0
   -3.1393    3.8525    0.5380 H   0  0  0  0  0  0  0  0  0  0  0  0
   -1.3836    3.9846    0.7127 H   0  0  0  0  0  0  0  0  0  0  0  0
   -4.5981    2.4757   -1.7808 H   0  0  0  0  0  0  0  0  0  0  0  0
   -6.0060    3.0080   -0.8359 H   0  0  0  0  0  0  0  0  0  0  0  0
   -5.9186    1.3234   -1.3967 H   0  0  0  0  0  0  0  0  0  0  0  0
    1.7465    1.2732    2.9944 H   0  0  0  0  0  0  0  0  0  0  0  0
    2.5053    2.1509    1.6551 H   0  0  0  0  0  0  0  0  0  0  0  0
    3.5120    1.3327    2.8996 H   0  0  0  0  0  0  0  0  0  0  0  0
    6.5602    0.2809    2.3033 H   0  0  0  0  0  0  0  0  0  0  0  0
    6.6002   -0.5758    0.7463 H   0  0  0  0  0  0  0  0  0  0  0  0
    5.3234   -0.9458    1.9512 H   0  0  0  0  0  0  0  0  0  0  0  0
  1  9  1  0  0  0  0
  1 10  1  0  0  0  0
  2 12  1  0  0  0  0
  2 23  1  0  0  0  0
  3 16  1  0  0  0  0
  3 24  1  0  0  0  0
  4 17  1  0  0  0  0
  4 25  1  0  0  0  0
  5 14  1  0  0  0  0
  5 32  1  0  0  0  0
  6 20  1  0  0  0  0
  6 26  1  0  0  0  0
  7 13  2  0  0  0  0
  8  9  2  0  0  0  0
  8 13  1  0  0  0  0
  8 14  1  0  0  0  0
  9 12  1  0  0  0  0
 10 11  1  0  0  0  0
 10 15  2  0  0  0  0
 11 17  2  0  0  0  0
 11 19  1  0  0  0  0
 12 16  2  0  0  0  0
 13 15  1  0  0  0  0
 14 18  2  0  0  0  0
 15 27  1  0  0  0  0
 16 18  1  0  0  0  0
 17 20  1  0  0  0  0
 18 28  1  0  0  0  0
 19 21  2  0  0  0  0
 19 29  1  0  0  0  0
 20 22  2  0  0  0  0
 21 22  1  0  0  0  0
 21 30  1  0  0  0  0
 22 31  1  0  0  0  0
 23 33  1  0  0  0  0
 23 34  1  0  0  0  0
 23 35  1  0  0  0  0
 24 36  1  0  0  0  0
 24 37  1  0  0  0  0
 24 38  1  0  0  0  0
 25 39  1  0  0  0  0
 25 40  1  0  0  0  0
 25 41  1  0  0  0  0
 26 42  1  0  0  0  0
 26 43  1  0  0  0  0
 26 44  1  0  0  0  0
M  END
> <PUBCHEM_COMPOUND_CID>
5319878

> <PUBCHEM_CONFORMER_RMSD>
0.8

> <PUBCHEM_CONFORMER_DIVERSEORDER>
3
9
12
4
8
7
6
1
10
11
2
5

> <PUBCHEM_MMFF94_PARTIAL_CHARGES>
32
1 -0.16
10 0.05
11 0.03
12 0.08
13 0.47
14 0.08
15 -0.14
16 0.08
17 0.08
18 -0.15
19 -0.15
2 -0.36
20 0.08
21 -0.15
22 -0.15
23 0.28
24 0.28
25 0.28
26 0.28
27 0.15
28 0.15
29 0.15
3 -0.36
30 0.15
31 0.15
32 0.45
4 -0.36
5 -0.53
6 -0.36
7 -0.57
8 0.09
9 0.08

> <PUBCHEM_EFFECTIVE_ROTOR_COUNT>
5

> <PUBCHEM_PHARMACOPHORE_FEATURES>
10
1 1 acceptor
1 2 acceptor
1 3 acceptor
1 4 acceptor
1 5 donor
1 6 acceptor
1 7 acceptor
6 1 8 9 10 13 15 rings
6 11 17 19 20 21 22 rings
6 8 9 12 14 16 18 rings

> <PUBCHEM_HEAVY_ATOM_COUNT>
26

> <PUBCHEM_ATOM_DEF_STEREO_COUNT>
0

> <PUBCHEM_ATOM_UDEF_STEREO_COUNT>
0

> <PUBCHEM_BOND_DEF_STEREO_COUNT>
0

> <PUBCHEM_BOND_UDEF_STEREO_COUNT>
0

> <PUBCHEM_ISOTOPIC_ATOM_COUNT>
0

> <PUBCHEM_COMPONENT_COUNT>
1

> <PUBCHEM_CACTVS_TAUTO_COUNT>
4

> <PUBCHEM_CONFORMER_ID>
00512CC600000003

> <PUBCHEM_MMFF94_ENERGY>
122.7789

> <PUBCHEM_FEATURE_SELFOVERLAP>
50.794

> <PUBCHEM_SHAPE_FINGERPRINT>
10319926 262 18341323458133917866
10366900 7 18060136501339475857
10411042 1 17833278897398532523
10498660 4 18410862040287409605
11049842 53 18190763963403821526
11595378 159 18113333124237610728
12107183 9 18044644318448842450
12173636 292 18338521833211673135
12236239 1 17458344164746080942
12403259 415 18130516304730606634
12596602 18 17022910093936526377
12616971 3 17022623078546923236
12788726 201 17824841171714393867
13140716 1 18049169053204087635
13402501 40 18060412530181747640
13726171 33 18194990619018378088
13911987 19 16271643524916286488
13965767 371 17680992881612205836
14117953 113 18042122051237652877
14251757 17 17704078348144692552
16752209 62 18334858367868862447
16988056 13 15737952223569941420
17818456 19 18263076635454077706
20510252 161 18341623619848519467
20511986 3 17385715919968554429
20554085 129 18268413669227192969
20645477 70 16343436037735388214
20715895 44 17679010501282079877
21033648 29 17846495954433172424
21792961 116 17774739597634952596
21859007 373 17244128332946569565
23557571 272 18271529804842989847
23559900 14 18269852942690409854
341906 21 18408888442732698348
350125 39 18191594038199071742
3633792 109 17023726997086120431
469060 322 18192458401079055187
5104073 3 18263934241781240419
5265222 85 18267877267046993998
57527295 17 17272307751020073302
7808743 9 18335990813026302484
9849439 229 17979355253061345161
9981440 41 18261678078238707683

> <PUBCHEM_SHAPE_MULTIPOLES>
493.98
11.42
2.92
1.64
4.55
0.68
0.19
-4.52
-0.65
-4.64
-0.54
2.81
-0.48
1.02

> <PUBCHEM_SHAPE_SELFOVERLAP>
1079.702

> <PUBCHEM_SHAPE_VOLUME>
268.4

> <PUBCHEM_COORDINATE_TYPE>
2
5
10

$$$$
