12098358
  -OEChem-11202001263D

 39 41  0     1  0  0  0  0  0999 V2000
   -0.3307   -0.5364   -0.1889 O   0  0  0  0  0  0  0  0  0  0  0  0
    1.6028   -2.4019    0.0915 O   0  0  0  0  0  0  0  0  0  0  0  0
    0.5723    3.4488   -0.5523 O   0  0  0  0  0  0  0  0  0  0  0  0
    3.0981    2.9046   -0.2266 O   0  0  0  0  0  0  0  0  0  0  0  0
    4.2633   -1.6670    0.2360 O   0  0  0  0  0  0  0  0  0  0  0  0
   -3.4514    1.1644    1.9457 O   0  0  0  0  0  0  0  0  0  0  0  0
   -1.2752    0.4695    0.2096 C   0  0  1  0  0  0  0  0  0  0  0  0
   -1.1085    1.7386   -0.6238 C   0  0  0  0  0  0  0  0  0  0  0  0
    1.3390    1.2407   -0.2210 C   0  0  0  0  0  0  0  0  0  0  0  0
    0.9688   -0.1039   -0.1254 C   0  0  0  0  0  0  0  0  0  0  0  0
   -2.6708   -0.0996    0.0643 C   0  0  0  0  0  0  0  0  0  0  0  0
    0.2945    2.2599   -0.4507 C   0  0  0  0  0  0  0  0  0  0  0  0
    1.9507   -1.0856    0.0141 C   0  0  0  0  0  0  0  0  0  0  0  0
    2.6843    1.6095   -0.1437 C   0  0  0  0  0  0  0  0  0  0  0  0
   -3.6900    0.2766    0.9401 C   0  0  0  0  0  0  0  0  0  0  0  0
    3.2949   -0.7196    0.0896 C   0  0  0  0  0  0  0  0  0  0  0  0
   -2.9337   -1.0104   -0.9596 C   0  0  0  0  0  0  0  0  0  0  0  0
    3.6602    0.6251    0.0159 C   0  0  0  0  0  0  0  0  0  0  0  0
   -4.9702   -0.2573    0.7919 C   0  0  0  0  0  0  0  0  0  0  0  0
   -4.2140   -1.5443   -1.1076 C   0  0  0  0  0  0  0  0  0  0  0  0
   -5.2320   -1.1678   -0.2318 C   0  0  0  0  0  0  0  0  0  0  0  0
    1.5210   -3.1224   -1.1359 C   0  0  0  0  0  0  0  0  0  0  0  0
    4.6266   -2.0214    1.5687 C   0  0  0  0  0  0  0  0  0  0  0  0
   -1.0864    0.6773    1.2728 H   0  0  0  0  0  0  0  0  0  0  0  0
   -1.8147    2.5095   -0.2963 H   0  0  0  0  0  0  0  0  0  0  0  0
   -1.2624    1.5478   -1.6924 H   0  0  0  0  0  0  0  0  0  0  0  0
   -2.1631   -1.3109   -1.6644 H   0  0  0  0  0  0  0  0  0  0  0  0
    4.7119    0.8960    0.0756 H   0  0  0  0  0  0  0  0  0  0  0  0
   -5.7731    0.0272    1.4668 H   0  0  0  0  0  0  0  0  0  0  0  0
   -4.4190   -2.2508   -1.9066 H   0  0  0  0  0  0  0  0  0  0  0  0
   -6.2290   -1.5829   -0.3477 H   0  0  0  0  0  0  0  0  0  0  0  0
    4.0670    2.9412   -0.1521 H   0  0  0  0  0  0  0  0  0  0  0  0
   -4.2727    1.3039    2.4475 H   0  0  0  0  0  0  0  0  0  0  0  0
    0.7606   -2.6849   -1.7904 H   0  0  0  0  0  0  0  0  0  0  0  0
    1.2351   -4.1532   -0.9094 H   0  0  0  0  0  0  0  0  0  0  0  0
    2.4913   -3.1321   -1.6423 H   0  0  0  0  0  0  0  0  0  0  0  0
    3.7647   -2.4260    2.1088 H   0  0  0  0  0  0  0  0  0  0  0  0
    5.0296   -1.1534    2.0999 H   0  0  0  0  0  0  0  0  0  0  0  0
    5.4011   -2.7917    1.5193 H   0  0  0  0  0  0  0  0  0  0  0  0
  1  7  1  0  0  0  0
  1 10  1  0  0  0  0
  2 13  1  0  0  0  0
  2 22  1  0  0  0  0
  3 12  2  0  0  0  0
  4 14  1  0  0  0  0
  4 32  1  0  0  0  0
  5 16  1  0  0  0  0
  5 23  1  0  0  0  0
  6 15  1  0  0  0  0
  6 33  1  0  0  0  0
  7  8  1  0  0  0  0
  7 11  1  0  0  0  0
  7 24  1  0  0  0  0
  8 12  1  0  0  0  0
  8 25  1  0  0  0  0
  8 26  1  0  0  0  0
  9 10  2  0  0  0  0
  9 12  1  0  0  0  0
  9 14  1  0  0  0  0
 10 13  1  0  0  0  0
 11 15  1  0  0  0  0
 11 17  2  0  0  0  0
 13 16  2  0  0  0  0
 14 18  2  0  0  0  0
 15 19  2  0  0  0  0
 16 18  1  0  0  0  0
 17 20  1  0  0  0  0
 17 27  1  0  0  0  0
 18 28  1  0  0  0  0
 19 21  1  0  0  0  0
 19 29  1  0  0  0  0
 20 21  2  0  0  0  0
 20 30  1  0  0  0  0
 21 31  1  0  0  0  0
 22 34  1  0  0  0  0
 22 35  1  0  0  0  0
 22 36  1  0  0  0  0
 23 37  1  0  0  0  0
 23 38  1  0  0  0  0
 23 39  1  0  0  0  0
M  END
> <PUBCHEM_COMPOUND_CID>
12098358

> <PUBCHEM_CONFORMER_RMSD>
0.6

> <PUBCHEM_CONFORMER_DIVERSEORDER>
1
6
22
12
16
23
14
5
18
8
11
17
20
19
13
2
9
7
10
15
21
3
4

> <PUBCHEM_MMFF94_PARTIAL_CHARGES>
30
1 -0.36
10 0.08
11 -0.14
12 0.42
13 0.08
14 0.08
15 0.08
16 0.08
17 -0.15
18 -0.15
19 -0.15
2 -0.36
20 -0.15
21 -0.15
22 0.28
23 0.28
27 0.15
28 0.15
29 0.15
3 -0.57
30 0.15
31 0.15
32 0.45
33 0.45
4 -0.53
5 -0.36
6 -0.53
7 0.42
8 0.06
9 0.09

> <PUBCHEM_EFFECTIVE_ROTOR_COUNT>
3.6

> <PUBCHEM_PHARMACOPHORE_FEATURES>
9
1 1 acceptor
1 2 acceptor
1 3 acceptor
1 4 donor
1 5 acceptor
1 6 donor
6 1 7 8 9 10 12 rings
6 11 15 17 19 20 21 rings
6 9 10 13 14 16 18 rings

> <PUBCHEM_HEAVY_ATOM_COUNT>
23

> <PUBCHEM_ATOM_DEF_STEREO_COUNT>
1

> <PUBCHEM_ATOM_UDEF_STEREO_COUNT>
0

> <PUBCHEM_BOND_DEF_STEREO_COUNT>
0

> <PUBCHEM_BOND_UDEF_STEREO_COUNT>
0

> <PUBCHEM_ISOTOPIC_ATOM_COUNT>
0

> <PUBCHEM_COMPONENT_COUNT>
1

> <PUBCHEM_CACTVS_TAUTO_COUNT>
21

> <PUBCHEM_CONFORMER_ID>
00B89B3600000001

> <PUBCHEM_MMFF94_ENERGY>
88.6753

> <PUBCHEM_FEATURE_SELFOVERLAP>
45.713

> <PUBCHEM_SHAPE_FINGERPRINT>
10411042 1 18336260129504362466
10616163 171 18127132094399412263
10622 236 17984396767557337527
10967382 1 18337388365646379084
1100329 8 17907857658655721412
11578080 2 17915432026856122521
12107183 9 17911251520300579473
12236239 1 18059861704809829845
12363563 72 18041283175146465923
12553582 1 18338239267034005982
12633257 1 18408322172585395539
13009979 54 18130517369972186817
13134695 92 18259983807507223644
13140716 1 18338514248373683906
13533116 47 18341050834836598411
13544653 18 18113618971417149821
14117953 113 18270391681860644023
14178342 30 18056195770060849538
14739800 52 17345745442752613648
14790565 3 17975422626591981308
14844126 61 16893418071071499658
17349148 13 18412544331832852419
17357779 13 17895180130715392205
17492 89 18343311362114311839
17818456 19 17701557108132488449
1813 80 18187660058672188887
18222031 100 18412259528045399654
19050596 39 18202846560868083803
200 152 18271522096183808663
20028762 73 18272926137662135630
20511986 3 18131056139887335705
20645477 70 18260541268724230749
20739085 24 18409172125254222284
21267235 1 18411427214817625351
22182313 1 17839737067985457902
2255824 54 18266748059018275221
23402539 116 18262511494587352314
23559900 14 18339073899976441905
2748010 2 17692528910645116654
33824 294 18336263565129994156
4409770 3 16467858671246141495
465052 167 18334016081837887754
474 4 18192715772293624621
5104073 3 18341055189891310633
7064713 232 17846497002484644963
7097593 13 18057615274032292827
8272917 22 18411425046280796437
9709674 26 18410582764476703955
9981440 41 17187275211300795121

> <PUBCHEM_SHAPE_MULTIPOLES>
438.11
9.72
3.18
1.12
6.03
0.71
-0.32
-4.47
-2.42
-3.07
0.76
0.5
-0.26
-1.42

> <PUBCHEM_SHAPE_SELFOVERLAP>
961.003

> <PUBCHEM_SHAPE_VOLUME>
236.4

> <PUBCHEM_COORDINATE_TYPE>
2
5
10

$$$$
