12315160
  -OEChem-09122005043D

 27 28  0     1  0  0  0  0  0999 V2000
    1.7531    1.7397   -0.8103 O   0  0  0  0  0  0  0  0  0  0  0  0
   -0.6317    0.0184    0.3872 C   0  0  1  0  0  0  0  0  0  0  0  0
    0.2700   -1.0152   -0.2400 C   0  0  2  0  0  0  0  0  0  0  0  0
   -0.5668   -1.3745    0.9521 C   0  0  0  0  0  0  0  0  0  0  0  0
    0.2136    1.1272    0.9567 C   0  0  0  0  0  0  0  0  0  0  0  0
   -1.8678    0.4224   -0.3375 C   0  0  0  0  0  0  0  0  0  0  0  0
    1.6455   -0.5238   -0.0735 C   0  0  0  0  0  0  0  0  0  0  0  0
    1.6154    0.9276    0.3507 C   0  0  1  0  0  0  0  0  0  0  0  0
   -2.1048   -0.4546   -1.5736 C   0  0  0  0  0  0  0  0  0  0  0  0
   -3.0968    0.3726    0.5792 C   0  0  0  0  0  0  0  0  0  0  0  0
    2.7703   -1.2397   -0.1910 C   0  0  0  0  0  0  0  0  0  0  0  0
    0.0687   -1.5383   -1.1606 H   0  0  0  0  0  0  0  0  0  0  0  0
   -1.3896   -2.0617    0.7952 H   0  0  0  0  0  0  0  0  0  0  0  0
   -0.0742   -1.5217    1.9074 H   0  0  0  0  0  0  0  0  0  0  0  0
    0.2545    1.0203    2.0475 H   0  0  0  0  0  0  0  0  0  0  0  0
   -0.1810    2.1233    0.7300 H   0  0  0  0  0  0  0  0  0  0  0  0
   -1.7636    1.4535   -0.6987 H   0  0  0  0  0  0  0  0  0  0  0  0
    2.3980    1.1964    1.0671 H   0  0  0  0  0  0  0  0  0  0  0  0
   -2.2274   -1.5155   -1.3325 H   0  0  0  0  0  0  0  0  0  0  0  0
   -3.0275   -0.1400   -2.0763 H   0  0  0  0  0  0  0  0  0  0  0  0
   -1.3036   -0.3389   -2.3114 H   0  0  0  0  0  0  0  0  0  0  0  0
   -3.3198   -0.6469    0.9106 H   0  0  0  0  0  0  0  0  0  0  0  0
   -3.9815    0.7566    0.0602 H   0  0  0  0  0  0  0  0  0  0  0  0
   -2.9374    0.9862    1.4725 H   0  0  0  0  0  0  0  0  0  0  0  0
    3.7420   -0.7906   -0.0162 H   0  0  0  0  0  0  0  0  0  0  0  0
    2.7375   -2.2885   -0.4660 H   0  0  0  0  0  0  0  0  0  0  0  0
    2.6515    1.6055   -1.1579 H   0  0  0  0  0  0  0  0  0  0  0  0
  1  8  1  0  0  0  0
  1 27  1  0  0  0  0
  2  3  1  0  0  0  0
  2  4  1  0  0  0  0
  2  5  1  0  0  0  0
  2  6  1  0  0  0  0
  3  4  1  0  0  0  0
  3  7  1  0  0  0  0
  3 12  1  0  0  0  0
  4 13  1  0  0  0  0
  4 14  1  0  0  0  0
  5  8  1  0  0  0  0
  5 15  1  0  0  0  0
  5 16  1  0  0  0  0
  6  9  1  0  0  0  0
  6 10  1  0  0  0  0
  6 17  1  0  0  0  0
  7  8  1  0  0  0  0
  7 11  2  0  0  0  0
  8 18  1  0  0  0  0
  9 19  1  0  0  0  0
  9 20  1  0  0  0  0
  9 21  1  0  0  0  0
 10 22  1  0  0  0  0
 10 23  1  0  0  0  0
 10 24  1  0  0  0  0
 11 25  1  0  0  0  0
 11 26  1  0  0  0  0
M  END
> <PUBCHEM_COMPOUND_CID>
12315160

> <PUBCHEM_CONFORMER_RMSD>
0.4

> <PUBCHEM_CONFORMER_DIVERSEORDER>
1
3
2

> <PUBCHEM_MMFF94_PARTIAL_CHARGES>
15
1 -0.68
11 -0.3
12 0.1
13 0.1
14 0.1
2 -0.19
25 0.15
26 0.15
27 0.4
3 -0.06
4 -0.2
5 0.09
6 0.09
7 -0.18
8 0.42

> <PUBCHEM_EFFECTIVE_ROTOR_COUNT>
1.6

> <PUBCHEM_PHARMACOPHORE_FEATURES>
4
1 1 acceptor
1 1 donor
3 6 9 10 hydrophobe
6 2 3 4 5 7 8 rings

> <PUBCHEM_HEAVY_ATOM_COUNT>
11

> <PUBCHEM_ATOM_DEF_STEREO_COUNT>
3

> <PUBCHEM_ATOM_UDEF_STEREO_COUNT>
0

> <PUBCHEM_BOND_DEF_STEREO_COUNT>
0

> <PUBCHEM_BOND_UDEF_STEREO_COUNT>
0

> <PUBCHEM_ISOTOPIC_ATOM_COUNT>
0

> <PUBCHEM_COMPONENT_COUNT>
1

> <PUBCHEM_CACTVS_TAUTO_COUNT>
1

> <PUBCHEM_CONFORMER_ID>
00BBEA1800000001

> <PUBCHEM_MMFF94_ENERGY>
30.3676

> <PUBCHEM_FEATURE_SELFOVERLAP>
20.297

> <PUBCHEM_SHAPE_FINGERPRINT>
10353120 184 18266187127509292949
10857977 72 16009039405800352081
12423570 1 15687370471028006778
14128692 85 17775271768660584350
15557651 10 16877664521897064357
16945 1 18260821562358244026
17844478 74 18041009418648044105
21040471 1 18268427008852048432
21501502 16 18264213684610736875
23552423 10 18412820304608238631
241688 4 17690853254713467354
2748010 2 18264778838066886842
29004967 10 18130790014438198739
369184 2 15410605931106583442
5084963 1 18336532889559536159
528886 8 17988355979751988539
68250623 7 18271248338794213743

> <PUBCHEM_SHAPE_MULTIPOLES>
220.51
3.74
1.5
1.12
0.75
0.2
0.19
-0.21
0.46
-0.72
0
0.47
-0.06
-0.28

> <PUBCHEM_SHAPE_SELFOVERLAP>
456.882

> <PUBCHEM_SHAPE_VOLUME>
130.5

> <PUBCHEM_COORDINATE_TYPE>
2
5
10

$$$$
