519872
  -OEChem-09122006023D

 26 25  0     1  0  0  0  0  0999 V2000
   -0.5161   -0.2645   -0.1289 C   0  0  2  0  0  0  0  0  0  0  0  0
    0.7813    0.1358    0.5446 C   0  0  0  0  0  0  0  0  0  0  0  0
   -1.5118    0.8908   -0.1572 C   0  0  0  0  0  0  0  0  0  0  0  0
    2.0197    0.1563    0.0132 C   0  0  0  0  0  0  0  0  0  0  0  0
   -1.1042   -1.4903    0.5386 C   0  0  0  0  0  0  0  0  0  0  0  0
   -1.9808    1.4829    1.1462 C   0  0  0  0  0  0  0  0  0  0  0  0
    3.2008    0.5638    0.8543 C   0  0  0  0  0  0  0  0  0  0  0  0
    2.3654   -0.1914   -1.4073 C   0  0  0  0  0  0  0  0  0  0  0  0
   -1.9637    1.3800   -1.3247 C   0  0  0  0  0  0  0  0  0  0  0  0
   -1.2908   -2.6635   -0.0789 C   0  0  0  0  0  0  0  0  0  0  0  0
   -0.3104   -0.5410   -1.1682 H   0  0  0  0  0  0  0  0  0  0  0  0
    0.6882    0.4092    1.5963 H   0  0  0  0  0  0  0  0  0  0  0  0
   -1.3777   -1.4196    1.5893 H   0  0  0  0  0  0  0  0  0  0  0  0
   -2.7130    2.2831    0.9900 H   0  0  0  0  0  0  0  0  0  0  0  0
   -1.1450    1.9169    1.7029 H   0  0  0  0  0  0  0  0  0  0  0  0
   -2.4629    0.7247    1.7703 H   0  0  0  0  0  0  0  0  0  0  0  0
    3.6871    1.4451    0.4233 H   0  0  0  0  0  0  0  0  0  0  0  0
    2.9173    0.8116    1.8826 H   0  0  0  0  0  0  0  0  0  0  0  0
    3.9320   -0.2500    0.8993 H   0  0  0  0  0  0  0  0  0  0  0  0
    2.8754    0.6527   -1.8842 H   0  0  0  0  0  0  0  0  0  0  0  0
    1.5064   -0.4376   -2.0324 H   0  0  0  0  0  0  0  0  0  0  0  0
    3.0409   -1.0532   -1.4262 H   0  0  0  0  0  0  0  0  0  0  0  0
   -1.6384    0.9710   -2.2755 H   0  0  0  0  0  0  0  0  0  0  0  0
   -2.6703    2.2027   -1.3582 H   0  0  0  0  0  0  0  0  0  0  0  0
   -1.7101   -3.5064    0.4597 H   0  0  0  0  0  0  0  0  0  0  0  0
   -1.0319   -2.8045   -1.1223 H   0  0  0  0  0  0  0  0  0  0  0  0
  1  2  1  0  0  0  0
  1  3  1  0  0  0  0
  1  5  1  0  0  0  0
  1 11  1  0  0  0  0
  2  4  2  0  0  0  0
  2 12  1  0  0  0  0
  3  6  1  0  0  0  0
  3  9  2  0  0  0  0
  4  7  1  0  0  0  0
  4  8  1  0  0  0  0
  5 10  2  0  0  0  0
  5 13  1  0  0  0  0
  6 14  1  0  0  0  0
  6 15  1  0  0  0  0
  6 16  1  0  0  0  0
  7 17  1  0  0  0  0
  7 18  1  0  0  0  0
  7 19  1  0  0  0  0
  8 20  1  0  0  0  0
  8 21  1  0  0  0  0
  8 22  1  0  0  0  0
  9 23  1  0  0  0  0
  9 24  1  0  0  0  0
 10 25  1  0  0  0  0
 10 26  1  0  0  0  0
M  END
> <PUBCHEM_COMPOUND_CID>
519872

> <PUBCHEM_CONFORMER_RMSD>
0.6

> <PUBCHEM_CONFORMER_DIVERSEORDER>
1
19
20
17
21
15
11
18
3
10
6
16
22
13
14
12
8
7
4
9
5
2

> <PUBCHEM_MMFF94_PARTIAL_CHARGES>
16
1 0.41
10 -0.3
12 0.15
13 0.15
2 -0.29
23 0.15
24 0.15
25 0.15
26 0.15
3 -0.28
4 -0.28
5 -0.29
6 0.14
7 0.14
8 0.14
9 -0.3

> <PUBCHEM_EFFECTIVE_ROTOR_COUNT>
3

> <PUBCHEM_PHARMACOPHORE_FEATURES>
3
1 10 hydrophobe
3 4 7 8 hydrophobe
4 1 2 3 5 hydrophobe

> <PUBCHEM_HEAVY_ATOM_COUNT>
10

> <PUBCHEM_ATOM_DEF_STEREO_COUNT>
0

> <PUBCHEM_ATOM_UDEF_STEREO_COUNT>
1

> <PUBCHEM_BOND_DEF_STEREO_COUNT>
0

> <PUBCHEM_BOND_UDEF_STEREO_COUNT>
0

> <PUBCHEM_ISOTOPIC_ATOM_COUNT>
0

> <PUBCHEM_COMPONENT_COUNT>
1

> <PUBCHEM_CACTVS_TAUTO_COUNT>
1

> <PUBCHEM_CONFORMER_ID>
0007EEC000000001

> <PUBCHEM_MMFF94_ENERGY>
11.8974

> <PUBCHEM_FEATURE_SELFOVERLAP>
15.235

> <PUBCHEM_SHAPE_FINGERPRINT>
1 1 17901935345061319039
12138202 97 18340192059983004046
12423570 1 13241060298858980419
12716758 59 18412547583101846866
12932741 1 18060146448652116380
12932764 1 18040720277307749304
15310529 11 16343412934373430205
15775835 57 18114734941365067104
15852999 172 18268971142791246302
18380122 1 17771628129266139858
18534176 82 18271515498597142184
20645464 45 18272089379284491000
20653085 51 16701469939714787561
20711985 344 18265065788868677358
21028194 46 18189333468172645305
21040471 1 18335137531862601698
21930827 45 18341348724619248846
23402539 116 18199726142214720781
305870 269 17978506434283801288
3248919 1 18202842158637381608
5084963 1 17896610491773068793
59915604 170 17344312705828531833
81228 2 18264777729933793115

> <PUBCHEM_SHAPE_MULTIPOLES>
205.8
3.99
2.08
1.26
3.23
1.54
0.27
-1.23
-0.08
-1.98
-0.07
0.08
-0.4
0.33

> <PUBCHEM_SHAPE_SELFOVERLAP>
383.076

> <PUBCHEM_SHAPE_VOLUME>
131

> <PUBCHEM_COORDINATE_TYPE>
2
5
10

$$$$
