5379096
  -OEChem-09122009223D

 38 40  0     0  0  0  0  0  0999 V2000
   -0.0840    0.4880    0.0620 O   0  0  0  0  0  0  0  0  0  0  0  0
    5.4328    0.6334   -0.1786 O   0  0  0  0  0  0  0  0  0  0  0  0
    4.1729   -1.7812   -0.3544 O   0  0  0  0  0  0  0  0  0  0  0  0
    3.9634    2.9570    0.1130 O   0  0  0  0  0  0  0  0  0  0  0  0
    1.8916   -3.0493   -0.3669 O   0  0  0  0  0  0  0  0  0  0  0  0
   -4.8519    1.8174   -0.7975 O   0  0  0  0  0  0  0  0  0  0  0  0
   -6.3644   -0.2356    0.3086 O   0  0  0  0  0  0  0  0  0  0  0  0
    2.0240   -0.6998   -0.1506 C   0  0  0  0  0  0  0  0  0  0  0  0
    1.2863    0.4735   -0.0032 C   0  0  0  0  0  0  0  0  0  0  0  0
   -0.7625   -0.7178   -0.0308 C   0  0  0  0  0  0  0  0  0  0  0  0
   -2.2308   -0.5882    0.0567 C   0  0  0  0  0  0  0  0  0  0  0  0
    3.4187   -0.6547   -0.2103 C   0  0  0  0  0  0  0  0  0  0  0  0
    1.3082   -1.9817   -0.2401 C   0  0  0  0  0  0  0  0  0  0  0  0
   -0.1653   -1.9124   -0.1674 C   0  0  0  0  0  0  0  0  0  0  0  0
    1.9409    1.7021    0.0859 C   0  0  0  0  0  0  0  0  0  0  0  0
    4.0710    0.5757   -0.1214 C   0  0  0  0  0  0  0  0  0  0  0  0
    3.3339    1.7516    0.0265 C   0  0  0  0  0  0  0  0  0  0  0  0
   -2.8631    0.5647   -0.4154 C   0  0  0  0  0  0  0  0  0  0  0  0
   -2.9944   -1.6179    0.6123 C   0  0  0  0  0  0  0  0  0  0  0  0
   -4.2501    0.6871   -0.3327 C   0  0  0  0  0  0  0  0  0  0  0  0
   -4.3813   -1.4956    0.6951 C   0  0  0  0  0  0  0  0  0  0  0  0
   -5.0092   -0.3430    0.2225 C   0  0  0  0  0  0  0  0  0  0  0  0
    6.1361    0.5383    1.0575 C   0  0  0  0  0  0  0  0  0  0  0  0
   -5.0226    2.8884    0.1289 C   0  0  0  0  0  0  0  0  0  0  0  0
   -0.6984   -2.8521   -0.2520 H   0  0  0  0  0  0  0  0  0  0  0  0
    1.3687    2.6193    0.2010 H   0  0  0  0  0  0  0  0  0  0  0  0
   -2.2902    1.3756   -0.8601 H   0  0  0  0  0  0  0  0  0  0  0  0
   -2.5416   -2.5216    1.0114 H   0  0  0  0  0  0  0  0  0  0  0  0
   -4.9607   -2.3034    1.1343 H   0  0  0  0  0  0  0  0  0  0  0  0
    3.6095   -2.5681   -0.4048 H   0  0  0  0  0  0  0  0  0  0  0  0
    4.9200    2.8147    0.0094 H   0  0  0  0  0  0  0  0  0  0  0  0
    5.9574   -0.4340    1.5273 H   0  0  0  0  0  0  0  0  0  0  0  0
    7.2055    0.6344    0.8511 H   0  0  0  0  0  0  0  0  0  0  0  0
    5.8383    1.3424    1.7379 H   0  0  0  0  0  0  0  0  0  0  0  0
   -6.7207   -1.0418    0.7200 H   0  0  0  0  0  0  0  0  0  0  0  0
   -5.5222    3.7123   -0.3881 H   0  0  0  0  0  0  0  0  0  0  0  0
   -5.6467    2.5741    0.9713 H   0  0  0  0  0  0  0  0  0  0  0  0
   -4.0513    3.2401    0.4912 H   0  0  0  0  0  0  0  0  0  0  0  0
  1  9  1  0  0  0  0
  1 10  1  0  0  0  0
  2 16  1  0  0  0  0
  2 23  1  0  0  0  0
  3 12  1  0  0  0  0
  3 30  1  0  0  0  0
  4 17  1  0  0  0  0
  4 31  1  0  0  0  0
  5 13  2  0  0  0  0
  6 20  1  0  0  0  0
  6 24  1  0  0  0  0
  7 22  1  0  0  0  0
  7 35  1  0  0  0  0
  8  9  2  0  0  0  0
  8 12  1  0  0  0  0
  8 13  1  0  0  0  0
  9 15  1  0  0  0  0
 10 11  1  0  0  0  0
 10 14  2  0  0  0  0
 11 18  2  0  0  0  0
 11 19  1  0  0  0  0
 12 16  2  0  0  0  0
 13 14  1  0  0  0  0
 14 25  1  0  0  0  0
 15 17  2  0  0  0  0
 15 26  1  0  0  0  0
 16 17  1  0  0  0  0
 18 20  1  0  0  0  0
 18 27  1  0  0  0  0
 19 21  2  0  0  0  0
 19 28  1  0  0  0  0
 20 22  2  0  0  0  0
 21 22  1  0  0  0  0
 21 29  1  0  0  0  0
 23 32  1  0  0  0  0
 23 33  1  0  0  0  0
 23 34  1  0  0  0  0
 24 36  1  0  0  0  0
 24 37  1  0  0  0  0
 24 38  1  0  0  0  0
M  END
> <PUBCHEM_COMPOUND_CID>
5379096

> <PUBCHEM_CONFORMER_RMSD>
0.6

> <PUBCHEM_CONFORMER_DIVERSEORDER>
5
4
12
3
10
7
8
1
2
11
6
9

> <PUBCHEM_MMFF94_PARTIAL_CHARGES>
32
1 -0.16
10 0.05
11 0.03
12 0.08
13 0.47
14 -0.14
15 -0.15
16 0.08
17 0.08
18 -0.15
19 -0.15
2 -0.36
20 0.08
21 -0.15
22 0.08
23 0.28
24 0.28
25 0.15
26 0.15
27 0.15
28 0.15
29 0.15
3 -0.53
30 0.45
31 0.45
35 0.45
4 -0.53
5 -0.57
6 -0.36
7 -0.53
8 0.09
9 0.08

> <PUBCHEM_EFFECTIVE_ROTOR_COUNT>
3

> <PUBCHEM_PHARMACOPHORE_FEATURES>
10
1 1 acceptor
1 2 acceptor
1 3 donor
1 4 donor
1 5 acceptor
1 6 acceptor
1 7 donor
6 1 8 9 10 13 14 rings
6 11 18 19 20 21 22 rings
6 8 9 12 15 16 17 rings

> <PUBCHEM_HEAVY_ATOM_COUNT>
24

> <PUBCHEM_ATOM_DEF_STEREO_COUNT>
0

> <PUBCHEM_ATOM_UDEF_STEREO_COUNT>
0

> <PUBCHEM_BOND_DEF_STEREO_COUNT>
0

> <PUBCHEM_BOND_UDEF_STEREO_COUNT>
0

> <PUBCHEM_ISOTOPIC_ATOM_COUNT>
0

> <PUBCHEM_COMPONENT_COUNT>
1

> <PUBCHEM_CACTVS_TAUTO_COUNT>
69

> <PUBCHEM_CONFORMER_ID>
0052141800000005

> <PUBCHEM_MMFF94_ENERGY>
93.9856

> <PUBCHEM_FEATURE_SELFOVERLAP>
50.776

> <PUBCHEM_SHAPE_FINGERPRINT>
10 15 18187649149392063761
10411042 1 17835524826018402102
11405975 8 18334012761727428051
11578080 2 16372671965354467999
11595378 159 16298659491445543357
12107183 9 17829601769541701353
12236239 1 17346883342586732823
12403259 118 18335975471545227560
12403259 415 18341893043110392680
12507560 40 18408889520980518655
12596602 18 14996572836234910773
13073987 5 18334576794297593955
13140716 1 18123464154095181578
13402501 40 18408321086085023357
13785724 45 17977097956280189434
14341114 176 18334866026021936801
14466204 15 18410569583100643184
14790565 3 18264495164389180948
15081414 286 18272663333134210488
15196674 1 18410012104824312631
1601671 61 18408040702225022300
17844677 252 18411427189453866941
19784866 9 18410852161967981050
200 152 18060700589669999907
20645477 56 18259988141957075325
20645477 70 18131075896019914782
21033648 29 18272358806572332544
21065198 57 18408325484215871891
21279426 13 18267306434678201294
21315763 129 18408884065965844689
21315764 268 18261949756004943941
21421861 104 17604981512785721074
21452121 103 18411695479002382778
21709351 56 18411695521376809333
23559900 14 18267303119117156755
23569914 152 16478543776726395973
2838139 119 18341041999466703100
335352 9 18338797815110166286
350125 39 18409449206964887060
3545911 37 18409732872084190057
3680242 22 18262234405072626402
38695281 34 18202282506865890478
4072396 5 18411127031728232058
4073 2 18040723592553237794
4214541 1 18408041806131837533
42630746 31 18343586256936867702
5104073 3 18188495662340985731
543358 83 18268150868161409210
59755656 215 18411704262289468670
8272917 22 18343025471288378014
9709674 26 18409454665752295111
9995097 60 18411138030326814185

> <PUBCHEM_SHAPE_MULTIPOLES>
452.82
13.84
2.78
0.74
3.7
0.54
-0.06
5.51
-1.7
0.03
0.11
-0.03
-0.02
0.98

> <PUBCHEM_SHAPE_SELFOVERLAP>
1001.596

> <PUBCHEM_SHAPE_VOLUME>
242.9

> <PUBCHEM_COORDINATE_TYPE>
2
5
10

$$$$
