102246304
  -OEChem-09122010243D

 61 66  0     1  0  0  0  0  0999 V2000
    1.2239   -1.3842   -2.0662 O   0  0  0  0  0  0  0  0  0  0  0  0
   -2.5778   -1.8466    0.2164 O   0  0  0  0  0  0  0  0  0  0  0  0
   -0.4697    3.6866    0.2799 O   0  0  0  0  0  0  0  0  0  0  0  0
   -4.4346   -3.1327   -0.2151 O   0  0  0  0  0  0  0  0  0  0  0  0
    1.5578   -0.2427    0.0911 C   0  0  1  0  0  0  0  0  0  0  0  0
    2.8385   -0.2125    0.9103 C   0  0  2  0  0  0  0  0  0  0  0  0
    3.9984   -0.6347    0.0508 C   0  0  1  0  0  0  0  0  0  0  0  0
    0.2934   -0.8135    0.8197 C   0  0  2  0  0  0  0  0  0  0  0  0
    3.6292   -1.4497    1.2634 C   0  0  0  0  0  0  0  0  0  0  0  0
   -0.3528    1.3046    0.3026 C   0  0  1  0  0  0  0  0  0  0  0  0
   -0.8646   -0.1285    0.0152 C   0  0  2  0  0  0  0  0  0  0  0  0
    1.0978    1.2143   -0.2808 C   0  0  0  0  0  0  0  0  0  0  0  0
    3.4932   -1.0953   -1.2929 C   0  0  0  0  0  0  0  0  0  0  0  0
    1.9820   -0.9775   -1.1956 C   0  0  0  0  0  0  0  0  0  0  0  0
    5.2684    0.1544    0.0668 C   0  0  0  0  0  0  0  0  0  0  0  0
   -1.1868    2.5161   -0.1725 C   0  0  1  0  0  0  0  0  0  0  0  0
    0.1658   -0.0506    2.1246 C   0  0  0  0  0  0  0  0  0  0  0  0
   -0.1849    1.2056    1.8205 C   0  0  0  0  0  0  0  0  0  0  0  0
   -2.3181   -0.4409    0.4278 C   0  0  1  0  0  0  0  0  0  0  0  0
    0.2105   -2.3183    0.9896 C   0  0  0  0  0  0  0  0  0  0  0  0
   -3.3299    0.2643   -0.4658 C   0  0  2  0  0  0  0  0  0  0  0  0
   -2.5871    2.5915    0.4755 C   0  0  0  0  0  0  0  0  0  0  0  0
   -3.6993    1.6880   -0.0581 C   0  0  0  0  0  0  0  0  0  0  0  0
    5.1400    1.4539   -0.7062 C   0  0  0  0  0  0  0  0  0  0  0  0
    6.4502   -0.6617   -0.4887 C   0  0  0  0  0  0  0  0  0  0  0  0
   -1.2614    2.6489   -1.7002 C   0  0  0  0  0  0  0  0  0  0  0  0
   -4.4472   -0.7276   -0.4425 C   0  0  0  0  0  0  0  0  0  0  0  0
   -3.8767   -2.0536   -0.1389 C   0  0  0  0  0  0  0  0  0  0  0  0
   -5.7582   -0.5576   -0.6304 C   0  0  0  0  0  0  0  0  0  0  0  0
    2.9404    0.6385    1.5708 H   0  0  0  0  0  0  0  0  0  0  0  0
    4.2670   -1.3987    2.1386 H   0  0  0  0  0  0  0  0  0  0  0  0
    3.2095   -2.4326    1.0964 H   0  0  0  0  0  0  0  0  0  0  0  0
   -0.7740   -0.3803   -1.0493 H   0  0  0  0  0  0  0  0  0  0  0  0
    1.0954    1.3469   -1.3681 H   0  0  0  0  0  0  0  0  0  0  0  0
    1.7474    1.9877    0.1460 H   0  0  0  0  0  0  0  0  0  0  0  0
    3.7660   -2.1391   -1.4747 H   0  0  0  0  0  0  0  0  0  0  0  0
    3.8264   -0.4727   -2.1254 H   0  0  0  0  0  0  0  0  0  0  0  0
    5.5157    0.4155    1.1047 H   0  0  0  0  0  0  0  0  0  0  0  0
    0.4098   -0.4197    3.1086 H   0  0  0  0  0  0  0  0  0  0  0  0
   -0.2756    2.0170    2.5263 H   0  0  0  0  0  0  0  0  0  0  0  0
   -2.5032   -0.2380    1.4898 H   0  0  0  0  0  0  0  0  0  0  0  0
    0.1382   -2.8289    0.0246 H   0  0  0  0  0  0  0  0  0  0  0  0
   -0.6568   -2.6112    1.5908 H   0  0  0  0  0  0  0  0  0  0  0  0
    1.0830   -2.7124    1.5165 H   0  0  0  0  0  0  0  0  0  0  0  0
   -2.9645    0.2707   -1.5001 H   0  0  0  0  0  0  0  0  0  0  0  0
   -2.9537    3.6262    0.4054 H   0  0  0  0  0  0  0  0  0  0  0  0
   -2.5005    2.4321    1.5577 H   0  0  0  0  0  0  0  0  0  0  0  0
   -4.4881    1.6681    0.7063 H   0  0  0  0  0  0  0  0  0  0  0  0
   -4.1570    2.1800   -0.9273 H   0  0  0  0  0  0  0  0  0  0  0  0
    6.3064   -0.9158   -1.5443 H   0  0  0  0  0  0  0  0  0  0  0  0
    6.5653   -1.5987    0.0666 H   0  0  0  0  0  0  0  0  0  0  0  0
    6.0356    2.0704   -0.5692 H   0  0  0  0  0  0  0  0  0  0  0  0
    7.3850   -0.0981   -0.4005 H   0  0  0  0  0  0  0  0  0  0  0  0
    4.2828    2.0399   -0.3585 H   0  0  0  0  0  0  0  0  0  0  0  0
    5.0205    1.2971   -1.7825 H   0  0  0  0  0  0  0  0  0  0  0  0
   -0.2945    2.9478   -2.1205 H   0  0  0  0  0  0  0  0  0  0  0  0
   -1.9613    3.4440   -1.9840 H   0  0  0  0  0  0  0  0  0  0  0  0
   -1.5743    1.7294   -2.1965 H   0  0  0  0  0  0  0  0  0  0  0  0
   -0.9409    4.4737   -0.0429 H   0  0  0  0  0  0  0  0  0  0  0  0
   -6.1693    0.4212   -0.8525 H   0  0  0  0  0  0  0  0  0  0  0  0
   -6.4558   -1.3865   -0.5731 H   0  0  0  0  0  0  0  0  0  0  0  0
  1 14  2  0  0  0  0
  2 19  1  0  0  0  0
  2 28  1  0  0  0  0
  3 16  1  0  0  0  0
  3 59  1  0  0  0  0
  4 28  2  0  0  0  0
  5  6  1  0  0  0  0
  5  8  1  0  0  0  0
  5 12  1  0  0  0  0
  5 14  1  0  0  0  0
  6  7  1  0  0  0  0
  6  9  1  0  0  0  0
  6 30  1  0  0  0  0
  7  9  1  0  0  0  0
  7 13  1  0  0  0  0
  7 15  1  0  0  0  0
  8 11  1  0  0  0  0
  8 17  1  0  0  0  0
  8 20  1  0  0  0  0
  9 31  1  0  0  0  0
  9 32  1  0  0  0  0
 10 11  1  0  0  0  0
 10 12  1  0  0  0  0
 10 16  1  0  0  0  0
 10 18  1  0  0  0  0
 11 19  1  0  0  0  0
 11 33  1  0  0  0  0
 12 34  1  0  0  0  0
 12 35  1  0  0  0  0
 13 14  1  0  0  0  0
 13 36  1  0  0  0  0
 13 37  1  0  0  0  0
 15 24  1  0  0  0  0
 15 25  1  0  0  0  0
 15 38  1  0  0  0  0
 16 22  1  0  0  0  0
 16 26  1  0  0  0  0
 17 18  2  0  0  0  0
 17 39  1  0  0  0  0
 18 40  1  0  0  0  0
 19 21  1  0  0  0  0
 19 41  1  0  0  0  0
 20 42  1  0  0  0  0
 20 43  1  0  0  0  0
 20 44  1  0  0  0  0
 21 23  1  0  0  0  0
 21 27  1  0  0  0  0
 21 45  1  0  0  0  0
 22 23  1  0  0  0  0
 22 46  1  0  0  0  0
 22 47  1  0  0  0  0
 23 48  1  0  0  0  0
 23 49  1  0  0  0  0
 24 52  1  0  0  0  0
 24 54  1  0  0  0  0
 24 55  1  0  0  0  0
 25 50  1  0  0  0  0
 25 51  1  0  0  0  0
 25 53  1  0  0  0  0
 26 56  1  0  0  0  0
 26 57  1  0  0  0  0
 26 58  1  0  0  0  0
 27 28  1  0  0  0  0
 27 29  2  0  0  0  0
 29 60  1  0  0  0  0
 29 61  1  0  0  0  0
M  END
> <PUBCHEM_COMPOUND_CID>
102246304

> <PUBCHEM_CONFORMER_RMSD>
0.6

> <PUBCHEM_CONFORMER_DIVERSEORDER>
1
15
16
12
7
20
14
9
6
18
17
4
5
2
3
13
11
10
19
8

> <PUBCHEM_MMFF94_PARTIAL_CHARGES>
29
1 -0.57
10 0.14
13 0.16
14 0.45
15 0.09
16 0.28
17 -0.29
18 -0.29
19 0.28
2 -0.43
21 0.14
27 -0.12
28 0.71
29 -0.3
3 -0.68
30 0.1
31 0.1
32 0.1
39 0.15
4 -0.57
40 0.15
5 0.16
59 0.4
6 -0.19
60 0.15
61 0.15
7 -0.19
8 0.14
9 -0.2

> <PUBCHEM_EFFECTIVE_ROTOR_COUNT>
2.4

> <PUBCHEM_PHARMACOPHORE_FEATURES>
9
1 1 acceptor
1 3 acceptor
1 3 donor
1 4 acceptor
3 15 24 25 hydrophobe
5 2 19 21 27 28 rings
6 5 6 7 9 13 14 rings
7 10 11 16 19 21 22 23 rings
7 5 8 10 11 12 17 18 rings

> <PUBCHEM_HEAVY_ATOM_COUNT>
29

> <PUBCHEM_ATOM_DEF_STEREO_COUNT>
4

> <PUBCHEM_ATOM_UDEF_STEREO_COUNT>
5

> <PUBCHEM_BOND_DEF_STEREO_COUNT>
0

> <PUBCHEM_BOND_UDEF_STEREO_COUNT>
0

> <PUBCHEM_ISOTOPIC_ATOM_COUNT>
0

> <PUBCHEM_COMPONENT_COUNT>
1

> <PUBCHEM_CACTVS_TAUTO_COUNT>
2

> <PUBCHEM_CONFORMER_ID>
061827A000000001

> <PUBCHEM_MMFF94_ENERGY>
123.3758

> <PUBCHEM_FEATURE_SELFOVERLAP>
45.72

> <PUBCHEM_SHAPE_FINGERPRINT>
10863032 1 18195805176618527482
10906281 52 18267606717290340001
11315181 36 17458357347103168022
11578080 2 12749313937016198123
121448 382 18114467772892517907
12156800 1 15360466074913762276
12166972 35 17313387871844862902
12173636 292 17691684481194008341
12236239 1 17530960259246510563
12403260 363 18333732386837351280
12553582 1 18336531777806753795
12670546 177 18412547587507668404
12788726 201 18335699403716091168
13140716 1 18335990826222388993
13224815 77 18131354059993116370
13544653 18 17632583751072860143
13583140 156 18053630661352768050
13782708 43 17560533815674005694
14787075 74 18187643656492791314
14790565 3 17764311635403997745
15295992 7 12180139695256301118
15439362 3 17826796133901938581
16087824 20 18337671894567756973
16945 1 18265338304754410473
17349148 13 16877666747259926744
17357779 13 18200859739288344901
17492 89 18337952264846368018
17980427 23 17604447227433392780
1813 80 18340222872268399771
192875 21 17167870750809503948
19319366 153 17749660819162894467
20511986 3 17749936795910603958
20691752 17 17530960315160479529
20775438 99 16970807768835261887
21033648 29 17060042731773274355
21033650 10 18044679515505021940
21267235 1 18409450323819621995
21285901 2 18201158759048366919
22182313 1 17986647407602680376
23352939 185 18271529783421512056
23402539 116 18408321094643134086
23419403 2 17845635053855882793
23557571 272 18272370836743839140
23559900 14 18270109253501393857
25147074 1 17895749570385366802
329604 57 18410576227129719596
335352 9 18410287026646138133
3633792 109 17241315881440821586
4280585 95 18336255838367537333
4325135 7 18410575076411014508
469060 322 18115893870102861401
5385378 56 8285657441253665141
6669772 16 17547293766613228660

> <PUBCHEM_SHAPE_MULTIPOLES>
573.33
10.71
3
1.44
5.81
1.28
0.11
-3.56
-2.87
-2.96
-0.18
0.56
-0.02
-0.29

> <PUBCHEM_SHAPE_SELFOVERLAP>
1277.953

> <PUBCHEM_SHAPE_VOLUME>
311

> <PUBCHEM_COORDINATE_TYPE>
2
5
10

$$$$
