576906
  -OEChem-09122006163D

 27 28  0     1  0  0  0  0  0999 V2000
    1.5334   -1.9245    0.6386 O   0  0  0  0  0  0  0  0  0  0  0  0
   -1.6575   -0.0830   -0.2953 C   0  0  0  0  0  0  0  0  0  0  0  0
   -0.6117   -0.9092    0.4101 C   0  0  2  0  0  0  0  0  0  0  0  0
   -1.0870    0.3817    1.0197 C   0  0  1  0  0  0  0  0  0  0  0  0
    0.7799   -1.0018   -0.1542 C   0  0  1  0  0  0  0  0  0  0  0  0
   -0.1710    1.5664    1.0615 C   0  0  0  0  0  0  0  0  0  0  0  0
   -3.0563   -0.6038   -0.2775 C   0  0  0  0  0  0  0  0  0  0  0  0
   -1.3238    0.6350   -1.5599 C   0  0  0  0  0  0  0  0  0  0  0  0
    1.5744    0.2852   -0.2218 C   0  0  0  0  0  0  0  0  0  0  0  0
    1.1325    1.4295    0.3293 C   0  0  0  0  0  0  0  0  0  0  0  0
    2.8871    0.2246   -0.9506 C   0  0  0  0  0  0  0  0  0  0  0  0
   -0.9375   -1.8407    0.8601 H   0  0  0  0  0  0  0  0  0  0  0  0
   -1.7242    0.3323    1.8951 H   0  0  0  0  0  0  0  0  0  0  0  0
    0.6990   -1.4339   -1.1595 H   0  0  0  0  0  0  0  0  0  0  0  0
    0.0607    1.7887    2.1104 H   0  0  0  0  0  0  0  0  0  0  0  0
   -0.7062    2.4409    0.6724 H   0  0  0  0  0  0  0  0  0  0  0  0
   -3.7747    0.2158   -0.3873 H   0  0  0  0  0  0  0  0  0  0  0  0
   -3.2158   -1.3095   -1.0999 H   0  0  0  0  0  0  0  0  0  0  0  0
   -3.2957   -1.1272    0.6551 H   0  0  0  0  0  0  0  0  0  0  0  0
   -2.0080    1.4819   -1.6913 H   0  0  0  0  0  0  0  0  0  0  0  0
   -0.3211    1.0369   -1.6724 H   0  0  0  0  0  0  0  0  0  0  0  0
   -1.4779   -0.0363   -2.4134 H   0  0  0  0  0  0  0  0  0  0  0  0
    1.7381    2.3296    0.2588 H   0  0  0  0  0  0  0  0  0  0  0  0
    2.2598   -2.2642    0.0883 H   0  0  0  0  0  0  0  0  0  0  0  0
    3.5857   -0.4419   -0.4357 H   0  0  0  0  0  0  0  0  0  0  0  0
    3.3628    1.2085   -1.0238 H   0  0  0  0  0  0  0  0  0  0  0  0
    2.7378   -0.1452   -1.9702 H   0  0  0  0  0  0  0  0  0  0  0  0
  1  5  1  0  0  0  0
  1 24  1  0  0  0  0
  2  3  1  0  0  0  0
  2  4  1  0  0  0  0
  2  7  1  0  0  0  0
  2  8  1  0  0  0  0
  3  4  1  0  0  0  0
  3  5  1  0  0  0  0
  3 12  1  0  0  0  0
  4  6  1  0  0  0  0
  4 13  1  0  0  0  0
  5  9  1  0  0  0  0
  5 14  1  0  0  0  0
  6 10  1  0  0  0  0
  6 15  1  0  0  0  0
  6 16  1  0  0  0  0
  7 17  1  0  0  0  0
  7 18  1  0  0  0  0
  7 19  1  0  0  0  0
  8 20  1  0  0  0  0
  8 21  1  0  0  0  0
  8 22  1  0  0  0  0
  9 10  2  0  0  0  0
  9 11  1  0  0  0  0
 10 23  1  0  0  0  0
 11 25  1  0  0  0  0
 11 26  1  0  0  0  0
 11 27  1  0  0  0  0
M  END
> <PUBCHEM_COMPOUND_CID>
576906

> <PUBCHEM_CONFORMER_RMSD>
0.4

> <PUBCHEM_CONFORMER_DIVERSEORDER>
1
5
2
6
4
8
3
7

> <PUBCHEM_MMFF94_PARTIAL_CHARGES>
15
1 -0.68
10 -0.29
11 0.14
12 0.1
13 0.1
2 -0.19
23 0.15
24 0.4
3 -0.19
4 -0.19
5 0.51
6 0.23
7 0.09
8 0.09
9 -0.28

> <PUBCHEM_EFFECTIVE_ROTOR_COUNT>
0.6

> <PUBCHEM_PHARMACOPHORE_FEATURES>
4
1 1 acceptor
1 1 donor
3 2 7 8 hydrophobe
7 2 3 4 5 6 9 10 rings

> <PUBCHEM_HEAVY_ATOM_COUNT>
11

> <PUBCHEM_ATOM_DEF_STEREO_COUNT>
0

> <PUBCHEM_ATOM_UDEF_STEREO_COUNT>
3

> <PUBCHEM_BOND_DEF_STEREO_COUNT>
0

> <PUBCHEM_BOND_UDEF_STEREO_COUNT>
0

> <PUBCHEM_ISOTOPIC_ATOM_COUNT>
0

> <PUBCHEM_COMPONENT_COUNT>
1

> <PUBCHEM_CACTVS_TAUTO_COUNT>
1

> <PUBCHEM_CONFORMER_ID>
0008CD8A00000001

> <PUBCHEM_MMFF94_ENERGY>
24.4291

> <PUBCHEM_FEATURE_SELFOVERLAP>
20.297

> <PUBCHEM_SHAPE_FINGERPRINT>
10353120 184 18202014234475748236
12138202 97 16660646314331880395
12423570 1 16268318493567020473
12897270 3 18186799222782859855
13024252 1 13262968497570769396
137420 1 8879931084690051713
13839132 238 16443336525319754110
14128692 85 17417809612231833887
16945 1 18335139838370829033
18185500 45 18271810055822638538
20653085 51 17096653093202414012
23419403 2 15814725816447015840
23552423 10 18411707568781218608
29004967 10 18131066077903569089
369184 2 18131078133897971760
5084963 1 18261398900589042716
528886 8 17489594484214938822

> <PUBCHEM_SHAPE_MULTIPOLES>
220.51
3.39
1.54
1.19
0.14
0.01
-0.27
0.55
-1.02
-0.47
0.5
0.15
-0.18
-0.11

> <PUBCHEM_SHAPE_SELFOVERLAP>
455.398

> <PUBCHEM_SHAPE_VOLUME>
127.8

> <PUBCHEM_COORDINATE_TYPE>
2
5
10

$$$$
