14034284
  -OEChem-09122009593D

 42 44  0     0  0  0  0  0  0999 V2000
   -0.3401    0.6026   -0.2383 O   0  0  0  0  0  0  0  0  0  0  0  0
   -5.8453    0.1687   -0.3785 O   0  0  0  0  0  0  0  0  0  0  0  0
   -4.3774   -1.9860    0.4285 O   0  0  0  0  0  0  0  0  0  0  0  0
    4.1835    2.6259    0.5845 O   0  0  0  0  0  0  0  0  0  0  0  0
    5.0367   -1.9876   -0.3775 O   0  0  0  0  0  0  0  0  0  0  0  0
   -1.9931   -2.9510    0.8744 O   0  0  0  0  0  0  0  0  0  0  0  0
   -4.5884    2.5202   -1.1079 O   0  0  0  0  0  0  0  0  0  0  0  0
    5.9776    0.5767    0.0808 O   0  0  0  0  0  0  0  0  0  0  0  0
   -2.3337   -0.7401    0.1125 C   0  0  0  0  0  0  0  0  0  0  0  0
   -1.7031    0.4470   -0.2562 C   0  0  0  0  0  0  0  0  0  0  0  0
    0.4413   -0.4664    0.1728 C   0  0  0  0  0  0  0  0  0  0  0  0
    1.8923   -0.1932    0.1489 C   0  0  0  0  0  0  0  0  0  0  0  0
   -1.5072   -1.8793    0.5400 C   0  0  0  0  0  0  0  0  0  0  0  0
   -3.7262   -0.8419    0.0743 C   0  0  0  0  0  0  0  0  0  0  0  0
   -0.0468   -1.6605    0.5449 C   0  0  0  0  0  0  0  0  0  0  0  0
   -2.4637    1.5421   -0.6666 C   0  0  0  0  0  0  0  0  0  0  0  0
   -4.4845    0.2552   -0.3363 C   0  0  0  0  0  0  0  0  0  0  0  0
    2.7972   -1.2268   -0.1049 C   0  0  0  0  0  0  0  0  0  0  0  0
    2.3668    1.1006    0.3797 C   0  0  0  0  0  0  0  0  0  0  0  0
   -3.8549    1.4446   -0.7060 C   0  0  0  0  0  0  0  0  0  0  0  0
    3.7374    1.3590    0.3570 C   0  0  0  0  0  0  0  0  0  0  0  0
    4.1678   -0.9685   -0.1276 C   0  0  0  0  0  0  0  0  0  0  0  0
    4.6379    0.3243    0.1033 C   0  0  0  0  0  0  0  0  0  0  0  0
   -6.5532    0.5348    0.8032 C   0  0  0  0  0  0  0  0  0  0  0  0
    3.1972    3.6249    0.8359 C   0  0  0  0  0  0  0  0  0  0  0  0
    5.3818   -2.2253   -1.7408 C   0  0  0  0  0  0  0  0  0  0  0  0
    0.5653   -2.4904    0.8780 H   0  0  0  0  0  0  0  0  0  0  0  0
   -1.9752    2.4696   -0.9549 H   0  0  0  0  0  0  0  0  0  0  0  0
    2.4629   -2.2409   -0.3095 H   0  0  0  0  0  0  0  0  0  0  0  0
    1.6323    1.8720    0.5850 H   0  0  0  0  0  0  0  0  0  0  0  0
   -3.7473   -2.6702    0.7002 H   0  0  0  0  0  0  0  0  0  0  0  0
   -5.5275    2.2675   -1.1197 H   0  0  0  0  0  0  0  0  0  0  0  0
    6.4491   -0.2613   -0.0664 H   0  0  0  0  0  0  0  0  0  0  0  0
   -6.2964   -0.1372    1.6282 H   0  0  0  0  0  0  0  0  0  0  0  0
   -7.6242    0.4462    0.6020 H   0  0  0  0  0  0  0  0  0  0  0  0
   -6.3351    1.5703    1.0829 H   0  0  0  0  0  0  0  0  0  0  0  0
    2.6404    3.4207    1.7568 H   0  0  0  0  0  0  0  0  0  0  0  0
    2.5396    3.7709   -0.0280 H   0  0  0  0  0  0  0  0  0  0  0  0
    3.7291    4.5695    0.9912 H   0  0  0  0  0  0  0  0  0  0  0  0
    5.8316   -1.3341   -2.1897 H   0  0  0  0  0  0  0  0  0  0  0  0
    4.4972   -2.5265   -2.3110 H   0  0  0  0  0  0  0  0  0  0  0  0
    6.1117   -3.0389   -1.7724 H   0  0  0  0  0  0  0  0  0  0  0  0
  1 10  1  0  0  0  0
  1 11  1  0  0  0  0
  2 17  1  0  0  0  0
  2 24  1  0  0  0  0
  3 14  1  0  0  0  0
  3 31  1  0  0  0  0
  4 21  1  0  0  0  0
  4 25  1  0  0  0  0
  5 22  1  0  0  0  0
  5 26  1  0  0  0  0
  6 13  2  0  0  0  0
  7 20  1  0  0  0  0
  7 32  1  0  0  0  0
  8 23  1  0  0  0  0
  8 33  1  0  0  0  0
  9 10  2  0  0  0  0
  9 13  1  0  0  0  0
  9 14  1  0  0  0  0
 10 16  1  0  0  0  0
 11 12  1  0  0  0  0
 11 15  2  0  0  0  0
 12 18  2  0  0  0  0
 12 19  1  0  0  0  0
 13 15  1  0  0  0  0
 14 17  2  0  0  0  0
 15 27  1  0  0  0  0
 16 20  2  0  0  0  0
 16 28  1  0  0  0  0
 17 20  1  0  0  0  0
 18 22  1  0  0  0  0
 18 29  1  0  0  0  0
 19 21  2  0  0  0  0
 19 30  1  0  0  0  0
 21 23  1  0  0  0  0
 22 23  2  0  0  0  0
 24 34  1  0  0  0  0
 24 35  1  0  0  0  0
 24 36  1  0  0  0  0
 25 37  1  0  0  0  0
 25 38  1  0  0  0  0
 25 39  1  0  0  0  0
 26 40  1  0  0  0  0
 26 41  1  0  0  0  0
 26 42  1  0  0  0  0
M  END
> <PUBCHEM_COMPOUND_CID>
14034284

> <PUBCHEM_CONFORMER_RMSD>
0.8

> <PUBCHEM_CONFORMER_DIVERSEORDER>
1
3
2

> <PUBCHEM_MMFF94_PARTIAL_CHARGES>
33
1 -0.16
10 0.08
11 0.05
12 0.03
13 0.47
14 0.08
15 -0.14
16 -0.15
17 0.08
18 -0.15
19 -0.15
2 -0.36
20 0.08
21 0.08
22 0.08
23 0.08
24 0.28
25 0.28
26 0.28
27 0.15
28 0.15
29 0.15
3 -0.53
30 0.15
31 0.45
32 0.45
33 0.45
4 -0.36
5 -0.36
6 -0.57
7 -0.53
8 -0.53
9 0.09

> <PUBCHEM_EFFECTIVE_ROTOR_COUNT>
4

> <PUBCHEM_PHARMACOPHORE_FEATURES>
11
1 1 acceptor
1 2 acceptor
1 3 donor
1 4 acceptor
1 5 acceptor
1 6 acceptor
1 7 donor
1 8 donor
6 1 9 10 11 13 15 rings
6 12 18 19 21 22 23 rings
6 9 10 14 16 17 20 rings

> <PUBCHEM_HEAVY_ATOM_COUNT>
26

> <PUBCHEM_ATOM_DEF_STEREO_COUNT>
0

> <PUBCHEM_ATOM_UDEF_STEREO_COUNT>
0

> <PUBCHEM_BOND_DEF_STEREO_COUNT>
0

> <PUBCHEM_BOND_UDEF_STEREO_COUNT>
0

> <PUBCHEM_ISOTOPIC_ATOM_COUNT>
0

> <PUBCHEM_COMPONENT_COUNT>
1

> <PUBCHEM_CACTVS_TAUTO_COUNT>
57

> <PUBCHEM_CONFORMER_ID>
00D6256C00000001

> <PUBCHEM_MMFF94_ENERGY>
109.1507

> <PUBCHEM_FEATURE_SELFOVERLAP>
55.852

> <PUBCHEM_SHAPE_FINGERPRINT>
10319926 262 18190161542774238032
11405975 8 18335977640667229682
11578080 2 17058067046970069322
11595378 159 16805866438384158004
12236239 1 15051727573678840479
12390115 104 18265339400583162845
12403259 415 18260543394917951101
13402501 40 18409164394281311004
13533116 47 18202565072958901024
13544592 145 18409452457938326766
14341114 176 18410859845390335677
14790565 3 18339362960103404289
15042514 8 18115034134010607227
15183329 4 18336828593884724498
15196674 1 18409165554017367883
15961568 22 17677612141440169356
17349148 13 15698004028843777662
17844677 252 18341898463200831957
200 152 17489867120149084115
20645477 56 18333447668564135761
20645477 70 17988928838791301454
21033648 29 18261096470636479317
21065198 57 18409728504044557754
21133410 127 17824815878589535972
21236236 1 18338515348344377347
21267235 1 18261401022856924151
21279426 13 18267020566076774708
21792961 116 18264224534753440942
221357 26 18341331111195959268
2215653 11 18342459218742444062
22289505 5 18413388727310064972
23227448 37 18338510966764994471
23559900 14 18413105070015064882
2747138 104 17968390022019527425
3004659 81 18042128649109700470
3298306 158 18339925905155515382
350125 39 18408325501126644280
3545911 37 18409166623448439208
4015057 19 18271512200131148913
4073 2 18187650253705320970
4214541 1 18408321090173924416
495365 180 17917137399502098282
5104073 3 18335418010512506123
5281201 14 18413109468072093004
59755656 215 18262520286638803279
633830 44 18338221713454993143
90127 26 18260271862341800090
9709674 26 18410856611506841030
9995097 60 18341047519053391048

> <PUBCHEM_SHAPE_MULTIPOLES>
488.11
14.5
3.05
0.94
2.77
1.19
0.19
1.34
1.57
-2.27
-0.32
-0.14
-0.09
2.64

> <PUBCHEM_SHAPE_SELFOVERLAP>
1074.689

> <PUBCHEM_SHAPE_VOLUME>
263.5

> <PUBCHEM_COORDINATE_TYPE>
2
5
10

$$$$
