527143
  -OEChem-09122009543D

 27 27  0     1  0  0  0  0  0999 V2000
   -2.9456   -1.4837   -0.7768 O   0  0  0  0  0  0  0  0  0  0  0  0
   -0.4617    0.0500   -0.1627 C   0  0  1  0  0  0  0  0  0  0  0  0
    0.3764    1.3062   -0.4264 C   0  0  0  0  0  0  0  0  0  0  0  0
    0.1995   -0.8088    0.9284 C   0  0  0  0  0  0  0  0  0  0  0  0
    1.7983    0.9433   -0.8663 C   0  0  0  0  0  0  0  0  0  0  0  0
    2.4174   -0.1679   -0.0570 C   0  0  0  0  0  0  0  0  0  0  0  0
   -1.8685    0.4041    0.2149 C   0  0  0  0  0  0  0  0  0  0  0  0
    1.6856   -0.9419    0.7624 C   0  0  0  0  0  0  0  0  0  0  0  0
    3.8959   -0.3614   -0.2209 C   0  0  0  0  0  0  0  0  0  0  0  0
   -2.9567   -0.0642   -0.7092 C   0  0  0  0  0  0  0  0  0  0  0  0
   -2.1407    1.1244    1.3135 C   0  0  0  0  0  0  0  0  0  0  0  0
   -0.4726   -0.5366   -1.0926 H   0  0  0  0  0  0  0  0  0  0  0  0
    0.4418    1.9271    0.4771 H   0  0  0  0  0  0  0  0  0  0  0  0
   -0.0908    1.9282   -1.2003 H   0  0  0  0  0  0  0  0  0  0  0  0
   -0.2456   -1.8119    0.9079 H   0  0  0  0  0  0  0  0  0  0  0  0
    0.0221   -0.4105    1.9345 H   0  0  0  0  0  0  0  0  0  0  0  0
    2.4207    1.8438   -0.8005 H   0  0  0  0  0  0  0  0  0  0  0  0
    1.7853    0.6383   -1.9202 H   0  0  0  0  0  0  0  0  0  0  0  0
    2.1697   -1.7211    1.3453 H   0  0  0  0  0  0  0  0  0  0  0  0
    4.2731   -1.1940    0.3820 H   0  0  0  0  0  0  0  0  0  0  0  0
    4.4336    0.5420    0.0844 H   0  0  0  0  0  0  0  0  0  0  0  0
    4.1363   -0.5724   -1.2680 H   0  0  0  0  0  0  0  0  0  0  0  0
   -3.9480    0.2536   -0.3689 H   0  0  0  0  0  0  0  0  0  0  0  0
   -2.7952    0.3383   -1.7149 H   0  0  0  0  0  0  0  0  0  0  0  0
   -3.1623    1.3829    1.5737 H   0  0  0  0  0  0  0  0  0  0  0  0
   -1.3640    1.4794    1.9817 H   0  0  0  0  0  0  0  0  0  0  0  0
   -3.6471   -1.7454   -1.3973 H   0  0  0  0  0  0  0  0  0  0  0  0
  1 10  1  0  0  0  0
  1 27  1  0  0  0  0
  2  3  1  0  0  0  0
  2  4  1  0  0  0  0
  2  7  1  0  0  0  0
  2 12  1  0  0  0  0
  3  5  1  0  0  0  0
  3 13  1  0  0  0  0
  3 14  1  0  0  0  0
  4  8  1  0  0  0  0
  4 15  1  0  0  0  0
  4 16  1  0  0  0  0
  5  6  1  0  0  0  0
  5 17  1  0  0  0  0
  5 18  1  0  0  0  0
  6  8  2  0  0  0  0
  6  9  1  0  0  0  0
  7 10  1  0  0  0  0
  7 11  2  0  0  0  0
  8 19  1  0  0  0  0
  9 20  1  0  0  0  0
  9 21  1  0  0  0  0
  9 22  1  0  0  0  0
 10 23  1  0  0  0  0
 10 24  1  0  0  0  0
 11 25  1  0  0  0  0
 11 26  1  0  0  0  0
M  END
> <PUBCHEM_COMPOUND_CID>
527143

> <PUBCHEM_CONFORMER_RMSD>
0.6

> <PUBCHEM_CONFORMER_DIVERSEORDER>
1
9
4
2
7
10
6
5
12
11
3
8

> <PUBCHEM_MMFF94_PARTIAL_CHARGES>
14
1 -0.68
10 0.42
11 -0.3
19 0.15
2 0.14
25 0.15
26 0.15
27 0.4
4 0.14
5 0.14
6 -0.28
7 -0.28
8 -0.29
9 0.14

> <PUBCHEM_EFFECTIVE_ROTOR_COUNT>
2.8

> <PUBCHEM_PHARMACOPHORE_FEATURES>
4
1 1 acceptor
1 1 donor
1 11 hydrophobe
6 2 3 4 5 6 8 rings

> <PUBCHEM_HEAVY_ATOM_COUNT>
11

> <PUBCHEM_ATOM_DEF_STEREO_COUNT>
0

> <PUBCHEM_ATOM_UDEF_STEREO_COUNT>
1

> <PUBCHEM_BOND_DEF_STEREO_COUNT>
0

> <PUBCHEM_BOND_UDEF_STEREO_COUNT>
0

> <PUBCHEM_ISOTOPIC_ATOM_COUNT>
0

> <PUBCHEM_COMPONENT_COUNT>
1

> <PUBCHEM_CACTVS_TAUTO_COUNT>
1

> <PUBCHEM_CONFORMER_ID>
00080B2700000001

> <PUBCHEM_MMFF94_ENERGY>
9.8433

> <PUBCHEM_FEATURE_SELFOVERLAP>
20.297

> <PUBCHEM_SHAPE_FINGERPRINT>
10857977 72 16487249993520831857
11401426 45 18113607985265242500
11769659 78 17988921128865952094
124424 183 15719665507343295800
12716758 59 16987454009452940513
12897270 3 17821441374407473095
12932741 1 15936414471930543621
12932764 1 18336828602152652336
14128692 85 18339633551073200415
14993402 34 18408037411952987086
15775835 57 18114179718194675727
16945 1 17749396948923923416
19026448 4 16988563472867977480
19026448 5 17989492888102869096
20201158 50 17167861933030459816
20715346 28 16226621800048597012
21293036 1 17821727251715203534
23402655 69 17604694583290111245
2748010 2 17606983938107869496
29004967 10 17240776038121140040
3248919 1 17846778468681257052
5084963 1 18335698364328736717
63268167 104 18186518791335528392

> <PUBCHEM_SHAPE_MULTIPOLES>
220.51
5.32
1.29
1.08
1.27
0.02
0.18
-0.78
-0.95
-0.11
-0.04
-0.66
0.01
-0.79

> <PUBCHEM_SHAPE_SELFOVERLAP>
434.589

> <PUBCHEM_SHAPE_VOLUME>
131.7

> <PUBCHEM_COORDINATE_TYPE>
2
5
10

$$$$
