12304105
  -OEChem-09122005413D

 40 41  0     1  0  0  0  0  0999 V2000
    4.2828   -0.4533    1.4066 O   0  0  0  0  0  0  0  0  0  0  0  0
   -1.2536   -0.9863   -0.2087 C   0  0  1  0  0  0  0  0  0  0  0  0
   -0.9105    0.4134    0.3911 C   0  0  1  0  0  0  0  0  0  0  0  0
   -0.0978   -1.9688    0.1089 C   0  0  0  0  0  0  0  0  0  0  0  0
    0.4544    0.9313   -0.1072 C   0  0  0  0  0  0  0  0  0  0  0  0
   -2.5531   -1.5166    0.4608 C   0  0  0  0  0  0  0  0  0  0  0  0
    1.5794   -0.0664    0.2070 C   0  0  1  0  0  0  0  0  0  0  0  0
    1.2733   -1.4633   -0.3449 C   0  0  0  0  0  0  0  0  0  0  0  0
   -2.0909    1.3621    0.2330 C   0  0  0  0  0  0  0  0  0  0  0  0
   -3.7282   -0.5371    0.3680 C   0  0  0  0  0  0  0  0  0  0  0  0
   -1.4654   -0.9322   -1.7423 C   0  0  0  0  0  0  0  0  0  0  0  0
   -3.3618    0.8570    0.8764 C   0  0  0  0  0  0  0  0  0  0  0  0
    2.8889    0.4404   -0.3156 C   0  0  0  0  0  0  0  0  0  0  0  0
   -2.0645    2.5414   -0.4069 C   0  0  0  0  0  0  0  0  0  0  0  0
    3.9557    0.7359    0.7003 C   0  0  0  0  0  0  0  0  0  0  0  0
    3.0912    0.6425   -1.6264 C   0  0  0  0  0  0  0  0  0  0  0  0
   -0.7913    0.2833    1.4790 H   0  0  0  0  0  0  0  0  0  0  0  0
   -0.2923   -2.9453   -0.3523 H   0  0  0  0  0  0  0  0  0  0  0  0
   -0.0553   -2.1452    1.1922 H   0  0  0  0  0  0  0  0  0  0  0  0
    0.4014    1.1421   -1.1819 H   0  0  0  0  0  0  0  0  0  0  0  0
    0.6817    1.8873    0.3846 H   0  0  0  0  0  0  0  0  0  0  0  0
   -2.3599   -1.7178    1.5231 H   0  0  0  0  0  0  0  0  0  0  0  0
   -2.8467   -2.4751    0.0148 H   0  0  0  0  0  0  0  0  0  0  0  0
    1.6384   -0.1527    1.3010 H   0  0  0  0  0  0  0  0  0  0  0  0
    2.0393   -2.1713   -0.0021 H   0  0  0  0  0  0  0  0  0  0  0  0
    1.3156   -1.4830   -1.4399 H   0  0  0  0  0  0  0  0  0  0  0  0
   -4.5695   -0.9265    0.9535 H   0  0  0  0  0  0  0  0  0  0  0  0
   -4.0800   -0.4725   -0.6683 H   0  0  0  0  0  0  0  0  0  0  0  0
   -1.7230   -1.9243   -2.1311 H   0  0  0  0  0  0  0  0  0  0  0  0
   -2.2731   -0.2522   -2.0289 H   0  0  0  0  0  0  0  0  0  0  0  0
   -0.5712   -0.5997   -2.2768 H   0  0  0  0  0  0  0  0  0  0  0  0
   -3.2154    0.8229    1.9635 H   0  0  0  0  0  0  0  0  0  0  0  0
   -4.2031    1.5365    0.6959 H   0  0  0  0  0  0  0  0  0  0  0  0
   -1.1686    2.9248   -0.8804 H   0  0  0  0  0  0  0  0  0  0  0  0
   -2.9532    3.1606   -0.4764 H   0  0  0  0  0  0  0  0  0  0  0  0
    4.8700    1.1187    0.2347 H   0  0  0  0  0  0  0  0  0  0  0  0
    3.5973    1.4838    1.4156 H   0  0  0  0  0  0  0  0  0  0  0  0
    4.0405    1.0184   -1.9945 H   0  0  0  0  0  0  0  0  0  0  0  0
    2.3265    0.4419   -2.3687 H   0  0  0  0  0  0  0  0  0  0  0  0
    4.9580   -0.2176    2.0655 H   0  0  0  0  0  0  0  0  0  0  0  0
  1 15  1  0  0  0  0
  1 40  1  0  0  0  0
  2  3  1  0  0  0  0
  2  4  1  0  0  0  0
  2  6  1  0  0  0  0
  2 11  1  0  0  0  0
  3  5  1  0  0  0  0
  3  9  1  0  0  0  0
  3 17  1  0  0  0  0
  4  8  1  0  0  0  0
  4 18  1  0  0  0  0
  4 19  1  0  0  0  0
  5  7  1  0  0  0  0
  5 20  1  0  0  0  0
  5 21  1  0  0  0  0
  6 10  1  0  0  0  0
  6 22  1  0  0  0  0
  6 23  1  0  0  0  0
  7  8  1  0  0  0  0
  7 13  1  0  0  0  0
  7 24  1  0  0  0  0
  8 25  1  0  0  0  0
  8 26  1  0  0  0  0
  9 12  1  0  0  0  0
  9 14  2  0  0  0  0
 10 12  1  0  0  0  0
 10 27  1  0  0  0  0
 10 28  1  0  0  0  0
 11 29  1  0  0  0  0
 11 30  1  0  0  0  0
 11 31  1  0  0  0  0
 12 32  1  0  0  0  0
 12 33  1  0  0  0  0
 13 15  1  0  0  0  0
 13 16  2  0  0  0  0
 14 34  1  0  0  0  0
 14 35  1  0  0  0  0
 15 36  1  0  0  0  0
 15 37  1  0  0  0  0
 16 38  1  0  0  0  0
 16 39  1  0  0  0  0
M  END
> <PUBCHEM_COMPOUND_CID>
12304105

> <PUBCHEM_CONFORMER_RMSD>
0.6

> <PUBCHEM_CONFORMER_DIVERSEORDER>
1
7
2
5
3
4
6

> <PUBCHEM_MMFF94_PARTIAL_CHARGES>
14
1 -0.68
12 0.14
13 -0.28
14 -0.3
15 0.42
16 -0.3
3 0.14
34 0.15
35 0.15
38 0.15
39 0.15
40 0.4
7 0.14
9 -0.28

> <PUBCHEM_EFFECTIVE_ROTOR_COUNT>
3.4

> <PUBCHEM_PHARMACOPHORE_FEATURES>
5
1 1 acceptor
1 1 donor
1 16 hydrophobe
6 2 3 4 5 7 8 rings
6 2 3 6 9 10 12 rings

> <PUBCHEM_HEAVY_ATOM_COUNT>
16

> <PUBCHEM_ATOM_DEF_STEREO_COUNT>
3

> <PUBCHEM_ATOM_UDEF_STEREO_COUNT>
0

> <PUBCHEM_BOND_DEF_STEREO_COUNT>
0

> <PUBCHEM_BOND_UDEF_STEREO_COUNT>
0

> <PUBCHEM_ISOTOPIC_ATOM_COUNT>
0

> <PUBCHEM_COMPONENT_COUNT>
1

> <PUBCHEM_CACTVS_TAUTO_COUNT>
1

> <PUBCHEM_CONFORMER_ID>
00BBBEE900000001

> <PUBCHEM_MMFF94_ENERGY>
34.8434

> <PUBCHEM_FEATURE_SELFOVERLAP>
25.386

> <PUBCHEM_SHAPE_FINGERPRINT>
10608611 8 18340771429332764057
10922523 26 18201729422615261126
11132069 177 18343309171194875617
11680986 33 18051129185957042094
11715629 250 18131351899355638806
12251169 10 18186518795973270176
12403814 3 18407759235843592505
12932764 1 17775006803838794406
13024252 1 11386358245325432935
13140716 1 18123754415836560147
13214271 11 18341331188468401759
13221675 6 18412549829179741159
13296908 3 17632585950285785980
13380535 21 18269572562645372855
13380535 76 18411420596394386931
13538477 17 18042129915396318474
13581323 91 18409164420172265072
13675066 3 18342173345903714986
14614273 12 18409726227653946661
15219456 202 17561090193831071558
15309172 13 17632306652947282015
15375462 478 18259704518679182117
15536298 74 18200880569547784678
15775835 57 18201164277891255721
16945 1 18410583894057747431
1741750 31 18128538167512002033
17846911 113 18342738524406891377
18186145 218 17703239416345901976
19422 9 17894353306265566738
200 152 17603857940445132059
20279233 1 17060624408258651524
20510252 161 18272093807169218968
20525323 117 18341606036015065254
20645477 56 17703789249537636664
21339142 126 18341603845813813927
21486144 27 16845298258466702100
21501502 16 18267310833199621651
21524375 3 18413389812955699819
2306618 200 17676753332268007677
2334 1 17691690403826496863
23402539 116 18269544087012369535
23463225 33 18260830384521600970
23557571 272 17274544346755090142
23559900 14 18130801040431540124
23598291 2 17748832904038684980
2748010 2 18196102044652454231
43471831 8 18408325462556737643
474 4 16881335989471862396
53812653 166 18202562878030088008
5706482 22 18411411787490036563
69090 78 17489587878692400735
7097593 13 17896026647162728458
7364860 26 18056482751186146686
77492 1 17822296820382000548
81228 2 17984696976774541511
90316 7 18187364320157236029

> <PUBCHEM_SHAPE_MULTIPOLES>
323.4
6.71
2
1.21
4.29
0.31
-0.36
1.15
1.75
-1.33
-0.17
0.61
-0.07
-0.23

> <PUBCHEM_SHAPE_SELFOVERLAP>
659.601

> <PUBCHEM_SHAPE_VOLUME>
185.9

> <PUBCHEM_COORDINATE_TYPE>
2
5
10

$$$$
