5315406
  -OEChem-09122004453D

 29 28  0     0  0  0  0  0  0999 V2000
   -3.0517   -0.9904    0.5495 O   0  0  0  0  0  0  0  0  0  0  0  0
    1.6394   -0.3728    0.0185 C   0  0  0  0  0  0  0  0  0  0  0  0
   -2.3325    0.1189   -0.0029 C   0  0  0  0  0  0  0  0  0  0  0  0
    0.2126    0.1096    0.2745 C   0  0  0  0  0  0  0  0  0  0  0  0
   -0.9227   -0.3685   -0.2629 C   0  0  0  0  0  0  0  0  0  0  0  0
    1.7384   -1.5271   -1.0020 C   0  0  0  0  0  0  0  0  0  0  0  0
    2.1827   -0.8994    1.3646 C   0  0  0  0  0  0  0  0  0  0  0  0
    2.4428    0.7918   -0.5508 C   0  0  0  0  0  0  0  0  0  0  0  0
   -2.4580    1.2855    0.9836 C   0  0  0  0  0  0  0  0  0  0  0  0
   -2.9917    0.4919   -1.3354 C   0  0  0  0  0  0  0  0  0  0  0  0
    3.5408    1.3606   -0.0367 C   0  0  0  0  0  0  0  0  0  0  0  0
    0.1417    0.9380    0.9778 H   0  0  0  0  0  0  0  0  0  0  0  0
   -0.8589   -1.2026   -0.9585 H   0  0  0  0  0  0  0  0  0  0  0  0
    1.3402   -1.2404   -1.9831 H   0  0  0  0  0  0  0  0  0  0  0  0
    2.7813   -1.8325   -1.1529 H   0  0  0  0  0  0  0  0  0  0  0  0
    1.1891   -2.4134   -0.6627 H   0  0  0  0  0  0  0  0  0  0  0  0
    3.2104   -1.2693    1.2675 H   0  0  0  0  0  0  0  0  0  0  0  0
    1.5733   -1.7320    1.7376 H   0  0  0  0  0  0  0  0  0  0  0  0
    2.1785   -0.1225    2.1390 H   0  0  0  0  0  0  0  0  0  0  0  0
    2.0776    1.2018   -1.4928 H   0  0  0  0  0  0  0  0  0  0  0  0
   -3.5105    1.5501    1.1403 H   0  0  0  0  0  0  0  0  0  0  0  0
   -1.9340    2.1795    0.6293 H   0  0  0  0  0  0  0  0  0  0  0  0
   -2.0664    1.0129    1.9706 H   0  0  0  0  0  0  0  0  0  0  0  0
   -2.4747    1.3254   -1.8233 H   0  0  0  0  0  0  0  0  0  0  0  0
   -3.0024   -0.3607   -2.0252 H   0  0  0  0  0  0  0  0  0  0  0  0
   -4.0401    0.7764   -1.1874 H   0  0  0  0  0  0  0  0  0  0  0  0
   -3.9790   -0.7211    0.6654 H   0  0  0  0  0  0  0  0  0  0  0  0
    4.0165    2.1874   -0.5539 H   0  0  0  0  0  0  0  0  0  0  0  0
    3.9903    1.0301    0.8916 H   0  0  0  0  0  0  0  0  0  0  0  0
  1  3  1  0  0  0  0
  1 27  1  0  0  0  0
  2  4  1  0  0  0  0
  2  6  1  0  0  0  0
  2  7  1  0  0  0  0
  2  8  1  0  0  0  0
  3  5  1  0  0  0  0
  3  9  1  0  0  0  0
  3 10  1  0  0  0  0
  4  5  2  0  0  0  0
  4 12  1  0  0  0  0
  5 13  1  0  0  0  0
  6 14  1  0  0  0  0
  6 15  1  0  0  0  0
  6 16  1  0  0  0  0
  7 17  1  0  0  0  0
  7 18  1  0  0  0  0
  7 19  1  0  0  0  0
  8 11  2  0  0  0  0
  8 20  1  0  0  0  0
  9 21  1  0  0  0  0
  9 22  1  0  0  0  0
  9 23  1  0  0  0  0
 10 24  1  0  0  0  0
 10 25  1  0  0  0  0
 10 26  1  0  0  0  0
 11 28  1  0  0  0  0
 11 29  1  0  0  0  0
M  END
> <PUBCHEM_COMPOUND_CID>
5315406

> <PUBCHEM_CONFORMER_RMSD>
0.6

> <PUBCHEM_CONFORMER_DIVERSEORDER>
1
8
4
7
2
10
9
13
5
11
3
12
6

> <PUBCHEM_MMFF94_PARTIAL_CHARGES>
13
1 -0.68
11 -0.3
12 0.15
13 0.15
2 0.28
20 0.15
27 0.4
28 0.15
29 0.15
3 0.42
4 -0.29
5 -0.29
8 -0.29

> <PUBCHEM_EFFECTIVE_ROTOR_COUNT>
3

> <PUBCHEM_PHARMACOPHORE_FEATURES>
5
1 1 acceptor
1 1 donor
1 11 hydrophobe
3 2 6 7 hydrophobe
3 3 9 10 hydrophobe

> <PUBCHEM_HEAVY_ATOM_COUNT>
11

> <PUBCHEM_ATOM_DEF_STEREO_COUNT>
0

> <PUBCHEM_ATOM_UDEF_STEREO_COUNT>
0

> <PUBCHEM_BOND_DEF_STEREO_COUNT>
1

> <PUBCHEM_BOND_UDEF_STEREO_COUNT>
0

> <PUBCHEM_ISOTOPIC_ATOM_COUNT>
0

> <PUBCHEM_COMPONENT_COUNT>
1

> <PUBCHEM_CACTVS_TAUTO_COUNT>
1

> <PUBCHEM_CONFORMER_ID>
00511B4E00000001

> <PUBCHEM_MMFF94_ENERGY>
21.9658

> <PUBCHEM_FEATURE_SELFOVERLAP>
25.374

> <PUBCHEM_SHAPE_FINGERPRINT>
12897270 3 18130790087500024460
12932764 1 17676497094434809811
14325111 11 18410578383197968742
14390081 3 18411140246561840788
15775835 57 17821445755247708659
16945 1 17775276196782298955
170605 34 18335706082833230620
18186145 218 18260272910472101426
20279233 1 17095241419235750369
20653085 51 18192989310487205685
20711983 171 17632021849154872905
20715346 28 16805606927975180923
21524375 3 18045508766437386620
21730867 7 17530963579530270626
23552423 10 18058172717521298519
23557571 272 17968101927743871949
3248919 1 18342734074968556539
369184 2 17749388144341128425
74978 22 18189897513411324907
8030462 33 17632572725917886237

> <PUBCHEM_SHAPE_MULTIPOLES>
220.51
5.92
1.4
1.19
0.97
0.01
-0.05
1.48
0.3
-0.65
0.02
0.16
-0.1
-0.21

> <PUBCHEM_SHAPE_SELFOVERLAP>
415.205

> <PUBCHEM_SHAPE_VOLUME>
139

> <PUBCHEM_COORDINATE_TYPE>
2
5
10

$$$$
