44258704
  -OEChem-09092013203D

 38 40  0     0  0  0  0  0  0999 V2000
    0.4571    0.5159   -0.2199 O   0  0  0  0  0  0  0  0  0  0  0  0
   -0.9421   -2.9026    0.0719 O   0  0  0  0  0  0  0  0  0  0  0  0
    2.1767    2.6059   -0.3587 O   0  0  0  0  0  0  0  0  0  0  0  0
    1.7642   -3.3221    0.1681 O   0  0  0  0  0  0  0  0  0  0  0  0
    4.9093    2.1870   -0.2455 O   0  0  0  0  0  0  0  0  0  0  0  0
   -4.1709    2.0524    1.5509 O   0  0  0  0  0  0  0  0  0  0  0  0
   -5.7898    1.1227   -0.5082 O   0  0  0  0  0  0  0  0  0  0  0  0
    2.3092   -1.0386   -0.0278 C   0  0  0  0  0  0  0  0  0  0  0  0
    1.8000    0.2507   -0.1581 C   0  0  0  0  0  0  0  0  0  0  0  0
   -0.4313   -0.5460   -0.1581 C   0  0  0  0  0  0  0  0  0  0  0  0
   -0.0730   -1.8384   -0.0215 C   0  0  0  0  0  0  0  0  0  0  0  0
    1.3714   -2.1688    0.0497 C   0  0  0  0  0  0  0  0  0  0  0  0
   -1.8326   -0.1068   -0.2474 C   0  0  0  0  0  0  0  0  0  0  0  0
    2.6686    1.3403   -0.2314 C   0  0  0  0  0  0  0  0  0  0  0  0
    3.6894   -1.2495    0.0295 C   0  0  0  0  0  0  0  0  0  0  0  0
    4.0470    1.1342   -0.1741 C   0  0  0  0  0  0  0  0  0  0  0  0
    4.5562   -0.1584   -0.0438 C   0  0  0  0  0  0  0  0  0  0  0  0
   -2.3491    0.7749    0.7023 C   0  0  0  0  0  0  0  0  0  0  0  0
   -2.6450   -0.5726   -1.2811 C   0  0  0  0  0  0  0  0  0  0  0  0
   -3.6777    1.1910    0.6178 C   0  0  0  0  0  0  0  0  0  0  0  0
   -3.9737   -0.1565   -1.3657 C   0  0  0  0  0  0  0  0  0  0  0  0
   -4.4900    0.7253   -0.4161 C   0  0  0  0  0  0  0  0  0  0  0  0
   -1.2820   -3.1592    1.4214 C   0  0  0  0  0  0  0  0  0  0  0  0
    1.9081    3.3193    0.8461 C   0  0  0  0  0  0  0  0  0  0  0  0
    4.1046   -2.2482    0.1310 H   0  0  0  0  0  0  0  0  0  0  0  0
    5.6285   -0.3304    0.0016 H   0  0  0  0  0  0  0  0  0  0  0  0
   -1.7185    1.1375    1.5115 H   0  0  0  0  0  0  0  0  0  0  0  0
   -2.2596   -1.2553   -2.0347 H   0  0  0  0  0  0  0  0  0  0  0  0
   -4.5952   -0.5263   -2.1768 H   0  0  0  0  0  0  0  0  0  0  0  0
   -1.9624   -4.0158    1.4431 H   0  0  0  0  0  0  0  0  0  0  0  0
   -1.8010   -2.3076    1.8745 H   0  0  0  0  0  0  0  0  0  0  0  0
   -0.3980   -3.4172    2.0149 H   0  0  0  0  0  0  0  0  0  0  0  0
    5.8214    1.8541   -0.1891 H   0  0  0  0  0  0  0  0  0  0  0  0
    1.5237    4.3078    0.5801 H   0  0  0  0  0  0  0  0  0  0  0  0
    2.8240    3.4464    1.4317 H   0  0  0  0  0  0  0  0  0  0  0  0
    1.1511    2.7991    1.4417 H   0  0  0  0  0  0  0  0  0  0  0  0
   -3.4678    2.2665    2.1879 H   0  0  0  0  0  0  0  0  0  0  0  0
   -6.1961    0.6998   -1.2841 H   0  0  0  0  0  0  0  0  0  0  0  0
  1  9  1  0  0  0  0
  1 10  1  0  0  0  0
  2 11  1  0  0  0  0
  2 23  1  0  0  0  0
  3 14  1  0  0  0  0
  3 24  1  0  0  0  0
  4 12  2  0  0  0  0
  5 16  1  0  0  0  0
  5 33  1  0  0  0  0
  6 20  1  0  0  0  0
  6 37  1  0  0  0  0
  7 22  1  0  0  0  0
  7 38  1  0  0  0  0
  8  9  2  0  0  0  0
  8 12  1  0  0  0  0
  8 15  1  0  0  0  0
  9 14  1  0  0  0  0
 10 11  2  0  0  0  0
 10 13  1  0  0  0  0
 11 12  1  0  0  0  0
 13 18  2  0  0  0  0
 13 19  1  0  0  0  0
 14 16  2  0  0  0  0
 15 17  2  0  0  0  0
 15 25  1  0  0  0  0
 16 17  1  0  0  0  0
 17 26  1  0  0  0  0
 18 20  1  0  0  0  0
 18 27  1  0  0  0  0
 19 21  2  0  0  0  0
 19 28  1  0  0  0  0
 20 22  2  0  0  0  0
 21 22  1  0  0  0  0
 21 29  1  0  0  0  0
 23 30  1  0  0  0  0
 23 31  1  0  0  0  0
 23 32  1  0  0  0  0
 24 34  1  0  0  0  0
 24 35  1  0  0  0  0
 24 36  1  0  0  0  0
M  END
> <PUBCHEM_COMPOUND_CID>
44258704

> <PUBCHEM_CONFORMER_RMSD>
0.6

> <PUBCHEM_CONFORMER_DIVERSEORDER>
1
4
10
11
9
12
5
8
3
2
7
6

> <PUBCHEM_MMFF94_PARTIAL_CHARGES>
32
1 -0.16
10 0.05
11 0.09
12 0.47
13 0.03
14 0.08
15 -0.15
16 0.08
17 -0.15
18 -0.15
19 -0.15
2 -0.36
20 0.08
21 -0.15
22 0.08
23 0.28
24 0.28
25 0.15
26 0.15
27 0.15
28 0.15
29 0.15
3 -0.36
33 0.45
37 0.45
38 0.45
4 -0.57
5 -0.53
6 -0.53
7 -0.53
8 0.09
9 0.08

> <PUBCHEM_EFFECTIVE_ROTOR_COUNT>
3

> <PUBCHEM_PHARMACOPHORE_FEATURES>
10
1 1 acceptor
1 2 acceptor
1 3 acceptor
1 4 acceptor
1 5 donor
1 6 donor
1 7 donor
6 1 8 9 10 11 12 rings
6 13 18 19 20 21 22 rings
6 8 9 14 15 16 17 rings

> <PUBCHEM_HEAVY_ATOM_COUNT>
24

> <PUBCHEM_ATOM_DEF_STEREO_COUNT>
0

> <PUBCHEM_ATOM_UDEF_STEREO_COUNT>
0

> <PUBCHEM_BOND_DEF_STEREO_COUNT>
0

> <PUBCHEM_BOND_UDEF_STEREO_COUNT>
0

> <PUBCHEM_ISOTOPIC_ATOM_COUNT>
0

> <PUBCHEM_COMPONENT_COUNT>
1

> <PUBCHEM_CACTVS_TAUTO_COUNT>
68

> <PUBCHEM_CONFORMER_ID>
02A3559000000001

> <PUBCHEM_MMFF94_ENERGY>
87.0552

> <PUBCHEM_FEATURE_SELFOVERLAP>
50.791

> <PUBCHEM_SHAPE_FINGERPRINT>
10411042 1 17688868636126085498
10906281 52 18341345426796398764
10967382 1 18410010997081537310
1100329 8 18335979792704833978
11578080 2 16842747520081110858
12107183 9 17478897082723273689
12236239 1 18059288773890288149
12390115 104 18191603045388770916
12633257 1 18260818285757211186
12644460 14 18115021896931141882
12769317 202 18264471919772675149
13140716 1 18335418015234870578
13583140 156 16443335511712889488
14787075 74 18268709592790515103
14790565 3 18410302402018063228
15196674 1 18409447020356788182
15420108 30 16618728202670220056
15475509 8 17698464134663232846
1813 80 17695913228552454678
20510252 161 17762619890244282362
21033648 144 18262507212721184572
21033648 29 17822555166902346277
21033650 10 17416434037360655856
21041028 32 17760930636799809570
21049683 118 18043223903954466361
21524375 3 18411417319386886383
22182937 141 18337114586939962899
23558518 356 17755015633793957722
23559900 14 18341894139112718188
23845131 108 18187083949630790147
25 1 18408318882766664126
2748010 2 18192152822498355094
335352 9 18409448077583355574
3380486 145 17112133499725953699
350125 39 18119820363132208922
392239 28 18267039395925537803
404807 14 15403618367583260486
4340502 62 18260555494331330243
474 4 18411135814366451499
5104073 3 18116425024766980664
633830 44 18270403789193875559
8272917 22 18339642226717468399
84936 182 18201150048401328009
9709674 26 18341054128686754550
9981440 41 17552896826254427920

> <PUBCHEM_SHAPE_MULTIPOLES>
452.82
9.64
3.51
1.02
4.16
0.92
0.11
-5.9
-1.09
-1.77
1.23
1.07
-0.01
-0.37

> <PUBCHEM_SHAPE_SELFOVERLAP>
1001.922

> <PUBCHEM_SHAPE_VOLUME>
242.7

> <PUBCHEM_COORDINATE_TYPE>
2
5
10

$$$$
