6424476
  -OEChem-09092009173D

 45 45  0     0  0  0  0  0  0999 V2000
   -0.9148    1.5012    0.2995 O   0  0  0  0  0  0  0  0  0  0  0  0
   -2.7514    2.3001   -0.8354 O   0  0  0  0  0  0  0  0  0  0  0  0
   -1.3808   -0.6190   -2.0819 O   0  0  0  0  0  0  0  0  0  0  0  0
   -0.1833   -1.7897   -0.5027 O   0  0  0  0  0  0  0  0  0  0  0  0
    3.3552    1.1527    0.6046 C   0  0  0  0  0  0  0  0  0  0  0  0
    4.1350   -0.0662    0.1031 C   0  0  0  0  0  0  0  0  0  0  0  0
    1.9634    1.2831   -0.0183 C   0  0  0  0  0  0  0  0  0  0  0  0
    5.5537   -0.1565    0.6693 C   0  0  0  0  0  0  0  0  0  0  0  0
    1.2404    2.5260    0.4986 C   0  0  0  0  0  0  0  0  0  0  0  0
    6.3095   -1.3488    0.0807 C   0  0  0  0  0  0  0  0  0  0  0  0
   -0.1613    2.6433   -0.0833 C   0  0  0  0  0  0  0  0  0  0  0  0
    7.7328   -1.4225    0.6101 C   0  0  0  0  0  0  0  0  0  0  0  0
   -2.2011    1.4555   -0.1459 C   0  0  0  0  0  0  0  0  0  0  0  0
   -2.8771    0.2191    0.3216 C   0  0  0  0  0  0  0  0  0  0  0  0
   -2.3967   -1.0443   -0.0234 C   0  0  0  0  0  0  0  0  0  0  0  0
   -4.0144    0.3384    1.1204 C   0  0  0  0  0  0  0  0  0  0  0  0
   -3.0535   -2.1881    0.4306 C   0  0  0  0  0  0  0  0  0  0  0  0
   -4.6712   -0.8053    1.5746 C   0  0  0  0  0  0  0  0  0  0  0  0
   -4.1908   -2.0685    1.2296 C   0  0  0  0  0  0  0  0  0  0  0  0
   -1.2120   -1.2020   -0.8568 C   0  0  0  0  0  0  0  0  0  0  0  0
   -0.2818   -0.7083   -2.9952 C   0  0  0  0  0  0  0  0  0  0  0  0
    3.9321    2.0598    0.3853 H   0  0  0  0  0  0  0  0  0  0  0  0
    3.2624    1.0930    1.6961 H   0  0  0  0  0  0  0  0  0  0  0  0
    4.1873   -0.0261   -0.9922 H   0  0  0  0  0  0  0  0  0  0  0  0
    3.5816   -0.9781    0.3596 H   0  0  0  0  0  0  0  0  0  0  0  0
    1.3872    0.3818    0.2168 H   0  0  0  0  0  0  0  0  0  0  0  0
    2.0529    1.3367   -1.1098 H   0  0  0  0  0  0  0  0  0  0  0  0
    5.5084   -0.2465    1.7612 H   0  0  0  0  0  0  0  0  0  0  0  0
    6.0965    0.7694    0.4432 H   0  0  0  0  0  0  0  0  0  0  0  0
    1.1715    2.4673    1.5918 H   0  0  0  0  0  0  0  0  0  0  0  0
    1.8149    3.4254    0.2495 H   0  0  0  0  0  0  0  0  0  0  0  0
    6.3383   -1.2697   -1.0123 H   0  0  0  0  0  0  0  0  0  0  0  0
    5.7843   -2.2794    0.3253 H   0  0  0  0  0  0  0  0  0  0  0  0
   -0.6432    3.5475    0.3059 H   0  0  0  0  0  0  0  0  0  0  0  0
   -0.1128    2.7059   -1.1768 H   0  0  0  0  0  0  0  0  0  0  0  0
    7.7407   -1.5324    1.6993 H   0  0  0  0  0  0  0  0  0  0  0  0
    8.2539   -2.2826    0.1780 H   0  0  0  0  0  0  0  0  0  0  0  0
    8.2950   -0.5195    0.3515 H   0  0  0  0  0  0  0  0  0  0  0  0
   -4.3981    1.3170    1.3973 H   0  0  0  0  0  0  0  0  0  0  0  0
   -2.6908   -3.1786    0.1681 H   0  0  0  0  0  0  0  0  0  0  0  0
   -5.5564   -0.7124    2.1968 H   0  0  0  0  0  0  0  0  0  0  0  0
   -4.7024   -2.9590    1.5829 H   0  0  0  0  0  0  0  0  0  0  0  0
    0.6021   -0.2233   -2.5715 H   0  0  0  0  0  0  0  0  0  0  0  0
   -0.0723   -1.7559   -3.2305 H   0  0  0  0  0  0  0  0  0  0  0  0
   -0.5611   -0.1887   -3.9154 H   0  0  0  0  0  0  0  0  0  0  0  0
  1 11  1  0  0  0  0
  1 13  1  0  0  0  0
  2 13  2  0  0  0  0
  3 20  1  0  0  0  0
  3 21  1  0  0  0  0
  4 20  2  0  0  0  0
  5  6  1  0  0  0  0
  5  7  1  0  0  0  0
  5 22  1  0  0  0  0
  5 23  1  0  0  0  0
  6  8  1  0  0  0  0
  6 24  1  0  0  0  0
  6 25  1  0  0  0  0
  7  9  1  0  0  0  0
  7 26  1  0  0  0  0
  7 27  1  0  0  0  0
  8 10  1  0  0  0  0
  8 28  1  0  0  0  0
  8 29  1  0  0  0  0
  9 11  1  0  0  0  0
  9 30  1  0  0  0  0
  9 31  1  0  0  0  0
 10 12  1  0  0  0  0
 10 32  1  0  0  0  0
 10 33  1  0  0  0  0
 11 34  1  0  0  0  0
 11 35  1  0  0  0  0
 12 36  1  0  0  0  0
 12 37  1  0  0  0  0
 12 38  1  0  0  0  0
 13 14  1  0  0  0  0
 14 15  1  0  0  0  0
 14 16  2  0  0  0  0
 15 17  2  0  0  0  0
 15 20  1  0  0  0  0
 16 18  1  0  0  0  0
 16 39  1  0  0  0  0
 17 19  1  0  0  0  0
 17 40  1  0  0  0  0
 18 19  2  0  0  0  0
 18 41  1  0  0  0  0
 19 42  1  0  0  0  0
 21 43  1  0  0  0  0
 21 44  1  0  0  0  0
 21 45  1  0  0  0  0
M  END
> <PUBCHEM_COMPOUND_CID>
6424476

> <PUBCHEM_CONFORMER_RMSD>
1.2

> <PUBCHEM_CONFORMER_DIVERSEORDER>
2
48
46
47
68
40
63
33
64
69
61
3
10
32
45
58
8
27
79
76
9
17
14
7
25
50
54
12
74
28
67
81
78
35
66
31
16
24
19
36
59
30
13
70
4
83
77
26
38
52
5
21
34
44
18
23
53
41
37
75
15
6
62
29
56
11
60
80
71
82
1
22
51
73
20
43
42
39
65
57
55
49
72

> <PUBCHEM_MMFF94_PARTIAL_CHARGES>
18
1 -0.43
11 0.28
13 0.63
14 0.09
15 0.09
16 -0.15
17 -0.15
18 -0.15
19 -0.15
2 -0.57
20 0.63
21 0.28
3 -0.43
39 0.15
4 -0.57
40 0.15
41 0.15
42 0.15

> <PUBCHEM_EFFECTIVE_ROTOR_COUNT>
11

> <PUBCHEM_PHARMACOPHORE_FEATURES>
6
1 12 hydrophobe
1 2 acceptor
1 4 acceptor
3 5 7 9 hydrophobe
3 6 8 10 hydrophobe
6 14 15 16 17 18 19 rings

> <PUBCHEM_HEAVY_ATOM_COUNT>
21

> <PUBCHEM_ATOM_DEF_STEREO_COUNT>
0

> <PUBCHEM_ATOM_UDEF_STEREO_COUNT>
0

> <PUBCHEM_BOND_DEF_STEREO_COUNT>
0

> <PUBCHEM_BOND_UDEF_STEREO_COUNT>
0

> <PUBCHEM_ISOTOPIC_ATOM_COUNT>
0

> <PUBCHEM_COMPONENT_COUNT>
1

> <PUBCHEM_CACTVS_TAUTO_COUNT>
1

> <PUBCHEM_CONFORMER_ID>
0062079C00000002

> <PUBCHEM_MMFF94_ENERGY>
41.8306

> <PUBCHEM_FEATURE_SELFOVERLAP>
30.46

> <PUBCHEM_SHAPE_FINGERPRINT>
11578080 2 16662033726486951855
11756154 5 18187646955455469562
12422481 6 17918001555311742110
12633257 1 18270411601660154855
12839892 36 17129597984166900735
13551218 46 18341615957473824250
14251764 30 17531251698747899394
14420673 8 18409736144512017322
16110190 28 18201439220671186616
1813 80 16879064333622992349
21095088 737 10881672499507271182
21403212 168 18201447922375357097
23559900 14 18339629084898810184
56633871 153 18270684293365993875
60111433 81 14390038959617590080
6786 2 11505260296015553541
7970288 3 18335419118920646850
84936 31 16270554892239815181
999808 66 18408890612208303618

> <PUBCHEM_SHAPE_MULTIPOLES>
408.69
13.53
2.77
1.63
30.37
1.13
-1.46
-9.08
6.69
-0.8
0.21
-1.26
-0.6
0.61

> <PUBCHEM_SHAPE_SELFOVERLAP>
817.806

> <PUBCHEM_SHAPE_VOLUME>
241.3

> <PUBCHEM_COORDINATE_TYPE>
2
5
10

$$$$
