93344
  -OEChem-09092012233D

 53 54  0     1  0  0  0  0  0999 V2000
    0.6674   -2.6005    0.6089 O   0  0  0  0  0  0  0  0  0  0  0  0
    3.1622   -1.6626   -0.3811 C   0  0  0  0  0  0  0  0  0  0  0  0
    1.2935    2.9589   -0.1447 C   0  0  0  0  0  0  0  0  0  0  0  0
    2.0250   -0.7506   -0.0569 C   0  0  0  0  0  0  0  0  0  0  0  0
    1.1226    1.4445    0.0596 C   0  0  0  0  0  0  0  0  0  0  0  0
   -0.2328   -0.3903    0.7241 C   0  0  0  0  0  0  0  0  0  0  0  0
    2.1794    0.6232   -0.2435 C   0  0  0  0  0  0  0  0  0  0  0  0
    0.8188   -1.2573    0.4269 C   0  0  0  0  0  0  0  0  0  0  0  0
   -0.0783    0.9833    0.5372 C   0  0  0  0  0  0  0  0  0  0  0  0
   -1.5314   -0.9138    1.2429 C   0  0  2  0  0  0  0  0  0  0  0  0
    4.3950   -0.8628   -0.9029 C   0  0  0  0  0  0  0  0  0  0  0  0
    2.7643   -2.6897   -1.4850 C   0  0  0  0  0  0  0  0  0  0  0  0
    3.6951   -2.5192    0.8141 C   0  0  0  0  0  0  0  0  0  0  0  0
    1.0984    3.6901    1.2011 C   0  0  0  0  0  0  0  0  0  0  0  0
    0.2439    3.4684   -1.1562 C   0  0  0  0  0  0  0  0  0  0  0  0
    2.6832    3.3638   -0.6866 C   0  0  0  0  0  0  0  0  0  0  0  0
   -2.7070   -0.6433    0.2967 C   0  0  0  0  0  0  0  0  0  0  0  0
   -1.8057   -0.4633    2.6987 C   0  0  0  0  0  0  0  0  0  0  0  0
   -2.8924   -1.4832   -0.7755 C   0  0  0  0  0  0  0  0  0  0  0  0
   -3.5275    0.4277    0.5594 C   0  0  0  0  0  0  0  0  0  0  0  0
   -3.9620   -1.2374   -1.6364 C   0  0  0  0  0  0  0  0  0  0  0  0
   -4.5973    0.6733   -0.3014 C   0  0  0  0  0  0  0  0  0  0  0  0
   -4.8144   -0.1592   -1.3993 C   0  0  0  0  0  0  0  0  0  0  0  0
    3.1001    1.0380   -0.6135 H   0  0  0  0  0  0  0  0  0  0  0  0
   -0.8912    1.6610    0.7727 H   0  0  0  0  0  0  0  0  0  0  0  0
   -1.5116   -2.0075    1.3209 H   0  0  0  0  0  0  0  0  0  0  0  0
    5.2165   -1.5489   -1.1478 H   0  0  0  0  0  0  0  0  0  0  0  0
    4.1777   -0.3205   -1.8311 H   0  0  0  0  0  0  0  0  0  0  0  0
    4.7943   -0.1722   -0.1503 H   0  0  0  0  0  0  0  0  0  0  0  0
    2.3464   -2.1764   -2.3594 H   0  0  0  0  0  0  0  0  0  0  0  0
    3.6399   -3.2558   -1.8253 H   0  0  0  0  0  0  0  0  0  0  0  0
    2.0282   -3.4253   -1.1497 H   0  0  0  0  0  0  0  0  0  0  0  0
    4.5737   -3.1070    0.5237 H   0  0  0  0  0  0  0  0  0  0  0  0
    3.9852   -1.8701    1.6487 H   0  0  0  0  0  0  0  0  0  0  0  0
    2.9487   -3.2228    1.1936 H   0  0  0  0  0  0  0  0  0  0  0  0
    1.2596    4.7689    1.0908 H   0  0  0  0  0  0  0  0  0  0  0  0
    0.0889    3.5602    1.6060 H   0  0  0  0  0  0  0  0  0  0  0  0
    1.8052    3.3237    1.9552 H   0  0  0  0  0  0  0  0  0  0  0  0
   -0.7827    3.3331   -0.7987 H   0  0  0  0  0  0  0  0  0  0  0  0
    0.3730    4.5393   -1.3529 H   0  0  0  0  0  0  0  0  0  0  0  0
    0.3309    2.9415   -2.1140 H   0  0  0  0  0  0  0  0  0  0  0  0
    2.7460    4.4522   -0.8130 H   0  0  0  0  0  0  0  0  0  0  0  0
    3.4916    3.0864    0.0003 H   0  0  0  0  0  0  0  0  0  0  0  0
    2.8858    2.9271   -1.6719 H   0  0  0  0  0  0  0  0  0  0  0  0
   -2.7645   -0.8513    3.0609 H   0  0  0  0  0  0  0  0  0  0  0  0
   -1.8062    0.6252    2.8197 H   0  0  0  0  0  0  0  0  0  0  0  0
   -1.0218   -0.8497    3.3614 H   0  0  0  0  0  0  0  0  0  0  0  0
    0.2642   -2.7517    1.4800 H   0  0  0  0  0  0  0  0  0  0  0  0
   -2.2323   -2.3234   -0.9670 H   0  0  0  0  0  0  0  0  0  0  0  0
   -3.3820    1.1053    1.3923 H   0  0  0  0  0  0  0  0  0  0  0  0
   -4.1307   -1.8853   -2.4917 H   0  0  0  0  0  0  0  0  0  0  0  0
   -5.2591    1.5151   -0.1195 H   0  0  0  0  0  0  0  0  0  0  0  0
   -5.6466    0.0328   -2.0702 H   0  0  0  0  0  0  0  0  0  0  0  0
  1  8  1  0  0  0  0
  1 48  1  0  0  0  0
  2  4  1  0  0  0  0
  2 11  1  0  0  0  0
  2 12  1  0  0  0  0
  2 13  1  0  0  0  0
  3  5  1  0  0  0  0
  3 14  1  0  0  0  0
  3 15  1  0  0  0  0
  3 16  1  0  0  0  0
  4  7  2  0  0  0  0
  4  8  1  0  0  0  0
  5  7  1  0  0  0  0
  5  9  2  0  0  0  0
  6  8  2  0  0  0  0
  6  9  1  0  0  0  0
  6 10  1  0  0  0  0
  7 24  1  0  0  0  0
  9 25  1  0  0  0  0
 10 17  1  0  0  0  0
 10 18  1  0  0  0  0
 10 26  1  0  0  0  0
 11 27  1  0  0  0  0
 11 28  1  0  0  0  0
 11 29  1  0  0  0  0
 12 30  1  0  0  0  0
 12 31  1  0  0  0  0
 12 32  1  0  0  0  0
 13 33  1  0  0  0  0
 13 34  1  0  0  0  0
 13 35  1  0  0  0  0
 14 36  1  0  0  0  0
 14 37  1  0  0  0  0
 14 38  1  0  0  0  0
 15 39  1  0  0  0  0
 15 40  1  0  0  0  0
 15 41  1  0  0  0  0
 16 42  1  0  0  0  0
 16 43  1  0  0  0  0
 16 44  1  0  0  0  0
 17 19  2  0  0  0  0
 17 20  1  0  0  0  0
 18 45  1  0  0  0  0
 18 46  1  0  0  0  0
 18 47  1  0  0  0  0
 19 21  1  0  0  0  0
 19 49  1  0  0  0  0
 20 22  2  0  0  0  0
 20 50  1  0  0  0  0
 21 23  2  0  0  0  0
 21 51  1  0  0  0  0
 22 23  1  0  0  0  0
 22 52  1  0  0  0  0
 23 53  1  0  0  0  0
M  END
> <PUBCHEM_COMPOUND_CID>
93344

> <PUBCHEM_CONFORMER_RMSD>
0.6

> <PUBCHEM_CONFORMER_DIVERSEORDER>
4
18
12
10
6
7
14
5
3
17
13
9
11
15
2
16
1
8

> <PUBCHEM_MMFF94_PARTIAL_CHARGES>
24
1 -0.53
10 0.29
17 -0.14
19 -0.15
2 0.14
20 -0.15
21 -0.15
22 -0.15
23 -0.15
24 0.15
25 0.15
3 0.14
4 -0.14
48 0.45
49 0.15
5 -0.14
50 0.15
51 0.15
52 0.15
53 0.15
6 -0.14
7 -0.15
8 0.08
9 -0.15

> <PUBCHEM_EFFECTIVE_ROTOR_COUNT>
4

> <PUBCHEM_PHARMACOPHORE_FEATURES>
6
1 1 donor
1 18 hydrophobe
4 2 11 12 13 hydrophobe
4 3 14 15 16 hydrophobe
6 17 19 20 21 22 23 rings
6 4 5 6 7 8 9 rings

> <PUBCHEM_HEAVY_ATOM_COUNT>
23

> <PUBCHEM_ATOM_DEF_STEREO_COUNT>
0

> <PUBCHEM_ATOM_UDEF_STEREO_COUNT>
1

> <PUBCHEM_BOND_DEF_STEREO_COUNT>
0

> <PUBCHEM_BOND_UDEF_STEREO_COUNT>
0

> <PUBCHEM_ISOTOPIC_ATOM_COUNT>
0

> <PUBCHEM_COMPONENT_COUNT>
1

> <PUBCHEM_CACTVS_TAUTO_COUNT>
3

> <PUBCHEM_CONFORMER_ID>
00016CA000000004

> <PUBCHEM_MMFF94_ENERGY>
95.9794

> <PUBCHEM_FEATURE_SELFOVERLAP>
30.446

> <PUBCHEM_SHAPE_FINGERPRINT>
10165383 225 17180012846488197769
10906281 52 18261964032861149800
10930396 42 18120339222032552024
11477941 20 17619114622765153366
11578080 2 17314818349278366837
11582403 64 17178516415695119681
116883 192 18196374719293955388
12160290 23 17543932108863803600
12553582 1 18267042586669805498
12730499 353 18120659290973739483
12788726 201 18119252757755940234
13004483 165 18124023542793233714
13009979 54 17632028480521022715
13134695 92 18335700524918774478
13149001 5 18187938312471478251
133893 2 18267883832954477328
13681431 1 18338811073494646200
13757389 114 16245742999426527034
13899415 180 18264749017876842414
13911987 19 18189072970386434318
14115302 16 17632572752157519707
14250199 8 18410571825379026301
14251757 17 16733562566715733220
14347332 77 17979642230534532406
14508225 48 18265341603790135652
15210252 30 17604153623047473996
167882 2 18265051521593903612
16945 1 18194139609913008552
17357779 13 18335990761581335076
17818456 19 17630621024344477049
17980427 23 17561086899274768112
1813 80 18271246010605447855
18186145 218 17894905248581837675
18335252 114 18268419137311794429
20567600 299 18342171223799987137
20626108 58 18200008708150677771
21029758 11 18410579461720128320
21285901 2 17983299231318202399
21524375 3 17546746201437486920
221357 26 18261946354917950765
22182313 1 17824833471101093947
22393880 68 18056201516373878421
23114952 82 18335133254254848173
23402539 116 18341049610644941950
23419403 2 17751670803167879297
23559900 14 18201145650544480459
23598291 2 18273219694644658053
238 59 18194402414403139239
23929065 36 17976518535247591368
25222932 49 15479543317725203415
26353 1 18267039275049184140
340366 18 18271799108626338743
350125 39 17544496596299277456
352729 6 17545043061867822192
4017518 198 17842278357828711628
4280585 95 18342458093672353542
46194498 28 18337662092749988815
474 4 18043239348725914357
5281201 14 18335415807658506335
532947 4 18268153235395641248
5969126 39 18196372516624923526
6049 1 17677914494035737603
6287921 2 17971479752366481229
6438718 38 17837226878121973585
6992083 37 17843703087614168211
7164475 11 17975976458545617022
7364860 26 18341895254902407968
7399639 24 17613166582106260707
7471813 234 18272084976769244480
7615 1 17631750338581066601
81228 2 17976274438933466272
84936 182 18128252496378714521
9971528 1 18343292656950689992
9981440 41 17690829482033028977

> <PUBCHEM_SHAPE_MULTIPOLES>
467.46
7.91
4.1
1.62
5.89
3.93
-0.52
-3.63
3.28
-4.74
0.55
1.01
-0.31
-0.17

> <PUBCHEM_SHAPE_SELFOVERLAP>
989.198

> <PUBCHEM_SHAPE_VOLUME>
266.2

> <PUBCHEM_COORDINATE_TYPE>
2
5
10

$$$$
