6441969
  -OEChem-09092012343D

 38 37  0     1  0  0  0  0  0999 V2000
   -1.9810   -2.3922   -1.0970 O   0  0  0  0  0  0  0  0  0  0  0  0
   -1.0609   -0.5179    0.1896 C   0  0  1  0  0  0  0  0  0  0  0  0
   -2.3061   -0.5089    1.1366 C   0  0  0  0  0  0  0  0  0  0  0  0
    0.0002   -1.4577    0.8594 C   0  0  0  0  0  0  0  0  0  0  0  0
   -1.4575   -1.0733   -1.2049 C   0  0  0  0  0  0  0  0  0  0  0  0
   -0.4888    0.9013    0.1431 C   0  0  0  0  0  0  0  0  0  0  0  0
   -3.4240    0.4540    0.7466 C   0  0  0  0  0  0  0  0  0  0  0  0
    1.2762   -1.6459    0.0764 C   0  0  0  0  0  0  0  0  0  0  0  0
   -0.2612    1.6583   -0.9429 C   0  0  0  0  0  0  0  0  0  0  0  0
    2.4389   -0.9781    0.2034 C   0  0  0  0  0  0  0  0  0  0  0  0
    0.2988    3.0552   -0.9734 C   0  0  0  0  0  0  0  0  0  0  0  0
    3.6162   -1.3319   -0.6670 C   0  0  0  0  0  0  0  0  0  0  0  0
    2.6999    0.1462    1.1649 C   0  0  0  0  0  0  0  0  0  0  0  0
    0.6494    3.6909    0.3651 C   0  0  0  0  0  0  0  0  0  0  0  0
   -2.7282   -1.5194    1.2091 H   0  0  0  0  0  0  0  0  0  0  0  0
   -1.9871   -0.2465    2.1549 H   0  0  0  0  0  0  0  0  0  0  0  0
    0.2372   -1.0897    1.8661 H   0  0  0  0  0  0  0  0  0  0  0  0
   -0.4318   -2.4523    1.0328 H   0  0  0  0  0  0  0  0  0  0  0  0
   -0.6089   -1.1047   -1.8976 H   0  0  0  0  0  0  0  0  0  0  0  0
   -2.2283   -0.4554   -1.6765 H   0  0  0  0  0  0  0  0  0  0  0  0
   -0.2580    1.3217    1.1202 H   0  0  0  0  0  0  0  0  0  0  0  0
   -3.8426    0.2105   -0.2337 H   0  0  0  0  0  0  0  0  0  0  0  0
   -3.0828    1.4931    0.7325 H   0  0  0  0  0  0  0  0  0  0  0  0
   -4.2384    0.3873    1.4759 H   0  0  0  0  0  0  0  0  0  0  0  0
    1.2223   -2.4349   -0.6728 H   0  0  0  0  0  0  0  0  0  0  0  0
   -0.4899    1.2575   -1.9267 H   0  0  0  0  0  0  0  0  0  0  0  0
   -0.4280    3.6987   -1.4835 H   0  0  0  0  0  0  0  0  0  0  0  0
    1.2003    3.0428   -1.5978 H   0  0  0  0  0  0  0  0  0  0  0  0
   -1.2350   -2.9972   -0.9493 H   0  0  0  0  0  0  0  0  0  0  0  0
    3.9206   -0.4646   -1.2622 H   0  0  0  0  0  0  0  0  0  0  0  0
    3.3926   -2.1486   -1.3615 H   0  0  0  0  0  0  0  0  0  0  0  0
    4.4640   -1.6450   -0.0489 H   0  0  0  0  0  0  0  0  0  0  0  0
    2.9226    1.0665    0.6154 H   0  0  0  0  0  0  0  0  0  0  0  0
    1.8639    0.3509    1.8361 H   0  0  0  0  0  0  0  0  0  0  0  0
    3.5632   -0.0934    1.7950 H   0  0  0  0  0  0  0  0  0  0  0  0
    1.0438    4.7002    0.2078 H   0  0  0  0  0  0  0  0  0  0  0  0
   -0.2324    3.7747    1.0089 H   0  0  0  0  0  0  0  0  0  0  0  0
    1.4141    3.1141    0.8945 H   0  0  0  0  0  0  0  0  0  0  0  0
  1  5  1  0  0  0  0
  1 29  1  0  0  0  0
  2  3  1  0  0  0  0
  2  4  1  0  0  0  0
  2  5  1  0  0  0  0
  2  6  1  0  0  0  0
  3  7  1  0  0  0  0
  3 15  1  0  0  0  0
  3 16  1  0  0  0  0
  4  8  1  0  0  0  0
  4 17  1  0  0  0  0
  4 18  1  0  0  0  0
  5 19  1  0  0  0  0
  5 20  1  0  0  0  0
  6  9  2  0  0  0  0
  6 21  1  0  0  0  0
  7 22  1  0  0  0  0
  7 23  1  0  0  0  0
  7 24  1  0  0  0  0
  8 10  2  0  0  0  0
  8 25  1  0  0  0  0
  9 11  1  0  0  0  0
  9 26  1  0  0  0  0
 10 12  1  0  0  0  0
 10 13  1  0  0  0  0
 11 14  1  0  0  0  0
 11 27  1  0  0  0  0
 11 28  1  0  0  0  0
 12 30  1  0  0  0  0
 12 31  1  0  0  0  0
 12 32  1  0  0  0  0
 13 33  1  0  0  0  0
 13 34  1  0  0  0  0
 13 35  1  0  0  0  0
 14 36  1  0  0  0  0
 14 37  1  0  0  0  0
 14 38  1  0  0  0  0
M  END
> <PUBCHEM_COMPOUND_CID>
6441969

> <PUBCHEM_CONFORMER_RMSD>
0.6

> <PUBCHEM_CONFORMER_DIVERSEORDER>
1
220
90
196
280
282
102
26
108
222
154
13
218
204
137
200
248
209
301
275
37
67
146
84
202
289
150
264
115
292
278
207
309
241
243
38
175
317
312
29
201
230
251
139
302
36
155
254
178
261
71
143
265
53
129
105
22
100
87
229
260
269
198
183
144
136
141
315
305
253
126
313
270
109
239
181
246
83
306
238
6
225
190
89
221
276
111
272
294
9
49
156
186
271
63
291
262
316
82
267
199
10
274
148
240
187
295
55
57
76
194
266
166
214
210
237
290
122
27
132
228
258
300
233
320
106
93
69
303
117
208
101
51
161
279
60
234
41
61
20
250
321
52
310
224
252
130
65
235
32
242
31
318
277
165
7
205
14
213
120
173
192
40
249
124
70
151
94
98
15
74
138
64
189
171
268
16
195
255
134
232
133
45
226
162
56
179
307
103
299
135
58
287
47
257
293
174
121
215
4
304
206
203
211
296
158
73
145
185
263
219
236
34
197
24
119
114
78
2
212
96
314
85
142
177
54
50
193
5
182
68
311
273
176
125
188
245
259
46
231
21
75
107
91
3
113
285
95
152
160
92
319
110
17
297
191
153
140
66
81
256
169
42
28
128
86
18
288
284
72
286
43
39
88
283
244
247
159
8
281
11
77
23
118
104
308
112
123
19
172
167
33
163
99
12
30
62
184
217
157
44
79
223
127
35
180
25
170
80
147
164
216
59
227
48
298
97
149
131
116
168

> <PUBCHEM_MMFF94_PARTIAL_CHARGES>
15
1 -0.68
10 -0.28
11 0.14
12 0.14
13 0.14
2 0.14
21 0.15
25 0.15
26 0.15
29 0.4
4 0.14
5 0.28
6 -0.29
8 -0.29
9 -0.29

> <PUBCHEM_EFFECTIVE_ROTOR_COUNT>
6

> <PUBCHEM_PHARMACOPHORE_FEATURES>
6
1 1 acceptor
1 1 donor
1 14 hydrophobe
1 7 hydrophobe
3 10 12 13 hydrophobe
5 2 3 4 6 8 hydrophobe

> <PUBCHEM_HEAVY_ATOM_COUNT>
14

> <PUBCHEM_ATOM_DEF_STEREO_COUNT>
0

> <PUBCHEM_ATOM_UDEF_STEREO_COUNT>
1

> <PUBCHEM_BOND_DEF_STEREO_COUNT>
1

> <PUBCHEM_BOND_UDEF_STEREO_COUNT>
0

> <PUBCHEM_ISOTOPIC_ATOM_COUNT>
0

> <PUBCHEM_COMPONENT_COUNT>
1

> <PUBCHEM_CACTVS_TAUTO_COUNT>
1

> <PUBCHEM_CONFORMER_ID>
00624BF100000001

> <PUBCHEM_MMFF94_ENERGY>
20.1595

> <PUBCHEM_FEATURE_SELFOVERLAP>
30.448

> <PUBCHEM_SHAPE_FINGERPRINT>
100427 49 18334292110574046548
12423570 1 13240156156803817871
12932764 1 18269264682568909930
13380536 261 17552636263784522239
14181834 199 17828746675728195804
14817 1 15525776900745841846
14993402 34 18342452600398203319
15490181 8 17759522565904356921
16945 1 17917150502830542547
19868273 325 18409724058626922854
20723712 36 17983611578794130201
21061003 4 18186807993085109235
21339142 126 18266732494236259290
21524375 3 17110709078142894084
22802520 49 17907581333381260822
23402539 116 18335419058928078766
23419403 2 16833120144812695915
2748010 2 18336814338835300568
305870 269 17904209474584419625
45790113 53 17838617756010164870
5845 1 10555855073457399092
68419 9 17770794707999996127
6992083 37 18272940405537347291
7364860 26 18194697087703853561
81228 2 18117834400361780576

> <PUBCHEM_SHAPE_MULTIPOLES>
282.24
4.4
3.52
1.25
1.89
4.28
-0.08
-2.22
0.67
-0.26
-0.74
-0.22
-0.13
0.01

> <PUBCHEM_SHAPE_SELFOVERLAP>
526.845

> <PUBCHEM_SHAPE_VOLUME>
176.8

> <PUBCHEM_COORDINATE_TYPE>
2
5
10

$$$$
