94477
  -OEChem-09092009093D

 21 21  0     0  0  0  0  0  0999 V2000
   -2.1960    2.0266    0.0589 O   0  0  0  0  0  0  0  0  0  0  0  0
   -3.2438   -0.5724    0.4001 O   0  0  0  0  0  0  0  0  0  0  0  0
    0.7091   -0.1724   -0.4324 N   0  0  0  0  0  0  0  0  0  0  0  0
    4.3127    0.2634    0.3968 N   0  0  0  0  0  0  0  0  0  0  0  0
    2.1383   -0.0303   -0.6880 C   0  0  0  0  0  0  0  0  0  0  0  0
    2.8787    0.1474    0.6313 C   0  0  0  0  0  0  0  0  0  0  0  0
   -0.1118    0.9408   -0.3161 C   0  0  0  0  0  0  0  0  0  0  0  0
    0.1390   -1.4198   -0.2223 C   0  0  0  0  0  0  0  0  0  0  0  0
   -1.4235    0.8952   -0.0431 C   0  0  0  0  0  0  0  0  0  0  0  0
   -1.1538   -1.6321    0.0567 C   0  0  0  0  0  0  0  0  0  0  0  0
   -2.0488   -0.4462    0.1581 C   0  0  0  0  0  0  0  0  0  0  0  0
    2.5169   -0.9106   -1.2246 H   0  0  0  0  0  0  0  0  0  0  0  0
    2.3224    0.8280   -1.3479 H   0  0  0  0  0  0  0  0  0  0  0  0
    2.5286    1.0472    1.1492 H   0  0  0  0  0  0  0  0  0  0  0  0
    2.6901   -0.7032    1.2963 H   0  0  0  0  0  0  0  0  0  0  0  0
    0.3985    1.8861   -0.4681 H   0  0  0  0  0  0  0  0  0  0  0  0
    0.8337   -2.2489   -0.3022 H   0  0  0  0  0  0  0  0  0  0  0  0
   -1.5649   -2.6211    0.2118 H   0  0  0  0  0  0  0  0  0  0  0  0
    4.6574   -0.5846   -0.0513 H   0  0  0  0  0  0  0  0  0  0  0  0
    4.7971    0.3310    1.2908 H   0  0  0  0  0  0  0  0  0  0  0  0
   -3.1032    1.7402    0.2625 H   0  0  0  0  0  0  0  0  0  0  0  0
  1  9  1  0  0  0  0
  1 21  1  0  0  0  0
  2 11  2  0  0  0  0
  3  5  1  0  0  0  0
  3  7  1  0  0  0  0
  3  8  1  0  0  0  0
  4  6  1  0  0  0  0
  4 19  1  0  0  0  0
  4 20  1  0  0  0  0
  5  6  1  0  0  0  0
  5 12  1  0  0  0  0
  5 13  1  0  0  0  0
  6 14  1  0  0  0  0
  6 15  1  0  0  0  0
  7  9  2  0  0  0  0
  7 16  1  0  0  0  0
  8 10  2  0  0  0  0
  8 17  1  0  0  0  0
  9 11  1  0  0  0  0
 10 11  1  0  0  0  0
 10 18  1  0  0  0  0
M  END
> <PUBCHEM_COMPOUND_CID>
94477

> <PUBCHEM_CONFORMER_RMSD>
0.4

> <PUBCHEM_CONFORMER_DIVERSEORDER>
1
9
5
7
4
6
2
10
8
3

> <PUBCHEM_MMFF94_PARTIAL_CHARGES>
17
1 -0.53
10 -0.14
11 0.54
16 0.15
17 0.15
18 0.15
19 0.36
2 -0.57
20 0.36
21 0.45
3 -0.57
4 -0.99
5 0.37
6 0.27
7 -0.05
8 -0.05
9 0.09

> <PUBCHEM_EFFECTIVE_ROTOR_COUNT>
2

> <PUBCHEM_PHARMACOPHORE_FEATURES>
6
1 1 donor
1 2 acceptor
1 3 cation
1 4 cation
1 4 donor
6 3 7 8 9 10 11 rings

> <PUBCHEM_HEAVY_ATOM_COUNT>
11

> <PUBCHEM_ATOM_DEF_STEREO_COUNT>
0

> <PUBCHEM_ATOM_UDEF_STEREO_COUNT>
0

> <PUBCHEM_BOND_DEF_STEREO_COUNT>
0

> <PUBCHEM_BOND_UDEF_STEREO_COUNT>
0

> <PUBCHEM_ISOTOPIC_ATOM_COUNT>
0

> <PUBCHEM_COMPONENT_COUNT>
1

> <PUBCHEM_CACTVS_TAUTO_COUNT>
2

> <PUBCHEM_CONFORMER_ID>
0001710D00000001

> <PUBCHEM_MMFF94_ENERGY>
15.1443

> <PUBCHEM_FEATURE_SELFOVERLAP>
30.446

> <PUBCHEM_SHAPE_FINGERPRINT>
10857977 72 18411699915138934665
12932764 1 17704347775796140454
13024252 1 13262390051375233831
14325111 11 18411418367532830324
15219456 202 18059298656404522358
15310529 11 14620526588002067623
16945 1 18337684091108371471
17846911 113 18342455945660502337
20510252 161 18343586222112912432
20645464 45 18060422412937918350
20871998 184 18200035173643905127
21040471 1 18265343810838933551
22445834 79 17895464865487799754
23402539 116 18341602750787200695
2748010 2 18193572059986433167
369184 2 18201998837133932582
53812653 166 18271525299607211761
6333449 129 18341328916240759165
75552 356 18408321111864973760

> <PUBCHEM_SHAPE_MULTIPOLES>
204.67
5.2
1.57
0.73
4.59
0.14
-0.02
0.6
1.19
-1.18
-0.02
0.24
-0.01
0.12

> <PUBCHEM_SHAPE_SELFOVERLAP>
413.572

> <PUBCHEM_SHAPE_VOLUME>
119.5

> <PUBCHEM_COORDINATE_TYPE>
2
5
10

$$$$
