137276
  -OEChem-09092008383D

 29 28  0     1  0  0  0  0  0999 V2000
    1.4104   -1.9836    0.9911 O   0  0  0  0  0  0  0  0  0  0  0  0
   -1.5103   -0.4087   -1.5877 O   0  0  0  0  0  0  0  0  0  0  0  0
    3.0215   -1.4953   -0.5118 O   0  0  0  0  0  0  0  0  0  0  0  0
   -0.1825   -0.0443    0.2795 N   0  0  0  0  0  0  0  0  0  0  0  0
   -3.6169   -1.0743    0.0629 N   0  0  0  0  0  0  0  0  0  0  0  0
    1.7698    1.3464   -0.2371 C   0  0  0  0  0  0  0  0  0  0  0  0
    1.0882   -0.0281   -0.4088 C   0  0  1  0  0  0  0  0  0  0  0  0
    2.2339    1.5870    1.2021 C   0  0  0  0  0  0  0  0  0  0  0  0
    0.9020    2.5143   -0.7161 C   0  0  0  0  0  0  0  0  0  0  0  0
   -2.5739   -0.1933    0.5821 C   0  0  1  0  0  0  0  0  0  0  0  0
   -1.3906   -0.2358   -0.3766 C   0  0  0  0  0  0  0  0  0  0  0  0
    1.9493   -1.2155    0.0125 C   0  0  0  0  0  0  0  0  0  0  0  0
   -3.1009    1.2308    0.7079 C   0  0  0  0  0  0  0  0  0  0  0  0
    2.6747    1.3381   -0.8603 H   0  0  0  0  0  0  0  0  0  0  0  0
    0.8936   -0.1835   -1.4775 H   0  0  0  0  0  0  0  0  0  0  0  0
   -0.1771    0.0482    1.2910 H   0  0  0  0  0  0  0  0  0  0  0  0
    2.7700    2.5397    1.2763 H   0  0  0  0  0  0  0  0  0  0  0  0
    2.9183    0.8029    1.5404 H   0  0  0  0  0  0  0  0  0  0  0  0
    1.3902    1.6284    1.8986 H   0  0  0  0  0  0  0  0  0  0  0  0
    0.0189    2.6513   -0.0837 H   0  0  0  0  0  0  0  0  0  0  0  0
    1.4718    3.4496   -0.6973 H   0  0  0  0  0  0  0  0  0  0  0  0
    0.5649    2.3499   -1.7449 H   0  0  0  0  0  0  0  0  0  0  0  0
   -2.2708   -0.5612    1.5684 H   0  0  0  0  0  0  0  0  0  0  0  0
   -3.9696    1.2728    1.3735 H   0  0  0  0  0  0  0  0  0  0  0  0
   -3.3950    1.6397   -0.2657 H   0  0  0  0  0  0  0  0  0  0  0  0
   -2.3305    1.8928    1.1185 H   0  0  0  0  0  0  0  0  0  0  0  0
   -3.2472   -2.0164   -0.0571 H   0  0  0  0  0  0  0  0  0  0  0  0
   -3.9167   -0.7586   -0.8587 H   0  0  0  0  0  0  0  0  0  0  0  0
    1.9841   -2.7470    1.2154 H   0  0  0  0  0  0  0  0  0  0  0  0
  1 12  1  0  0  0  0
  1 29  1  0  0  0  0
  2 11  2  0  0  0  0
  3 12  2  0  0  0  0
  4  7  1  0  0  0  0
  4 11  1  0  0  0  0
  4 16  1  0  0  0  0
  5 10  1  0  0  0  0
  5 27  1  0  0  0  0
  5 28  1  0  0  0  0
  6  7  1  0  0  0  0
  6  8  1  0  0  0  0
  6  9  1  0  0  0  0
  6 14  1  0  0  0  0
  7 12  1  0  0  0  0
  7 15  1  0  0  0  0
  8 17  1  0  0  0  0
  8 18  1  0  0  0  0
  8 19  1  0  0  0  0
  9 20  1  0  0  0  0
  9 21  1  0  0  0  0
  9 22  1  0  0  0  0
 10 11  1  0  0  0  0
 10 13  1  0  0  0  0
 10 23  1  0  0  0  0
 13 24  1  0  0  0  0
 13 25  1  0  0  0  0
 13 26  1  0  0  0  0
M  END
> <PUBCHEM_COMPOUND_CID>
137276

> <PUBCHEM_CONFORMER_RMSD>
0.6

> <PUBCHEM_CONFORMER_DIVERSEORDER>
3
60
87
146
100
54
92
139
110
44
45
107
98
25
19
116
141
130
64
131
24
120
144
30
95
143
117
126
121
145
17
94
114
80
75
13
28
74
15
119
41
82
113
106
97
134
109
136
63
132
129
127
96
115
61
138
66
125
43
133
72
70
101
22
11
90
35
39
103
62
27
89
137
55
86
104
1
37
118
58
10
33
102
59
93
99
78
20
38
56
31
140
108
69
9
52
67
79
26
71
81
40
7
53
135
123
65
112
32
8
77
18
48
12
84
142
68
5
42
36
83
47
128
122
46
51
6
2
29
57
73
76
4
91
34
23
14
85
16
105
49
124
111
88
21
50

> <PUBCHEM_MMFF94_PARTIAL_CHARGES>
13
1 -0.65
10 0.33
11 0.57
12 0.66
16 0.37
2 -0.57
27 0.36
28 0.36
29 0.5
3 -0.57
4 -0.73
5 -0.99
7 0.36

> <PUBCHEM_EFFECTIVE_ROTOR_COUNT>
5

> <PUBCHEM_PHARMACOPHORE_FEATURES>
8
1 1 acceptor
1 2 acceptor
1 3 acceptor
1 4 donor
1 5 cation
1 5 donor
3 1 3 12 anion
3 6 8 9 hydrophobe

> <PUBCHEM_HEAVY_ATOM_COUNT>
13

> <PUBCHEM_ATOM_DEF_STEREO_COUNT>
0

> <PUBCHEM_ATOM_UDEF_STEREO_COUNT>
2

> <PUBCHEM_BOND_DEF_STEREO_COUNT>
0

> <PUBCHEM_BOND_UDEF_STEREO_COUNT>
0

> <PUBCHEM_ISOTOPIC_ATOM_COUNT>
0

> <PUBCHEM_COMPONENT_COUNT>
1

> <PUBCHEM_CACTVS_TAUTO_COUNT>
2

> <PUBCHEM_CONFORMER_ID>
0002183C00000003

> <PUBCHEM_MMFF94_ENERGY>
16.3024

> <PUBCHEM_FEATURE_SELFOVERLAP>
40.658

> <PUBCHEM_SHAPE_FINGERPRINT>
12423570 1 15582940291562840820
12696612 119 18408605885176432557
12932764 1 18040716931354061411
15490181 8 17976538639461943780
15775835 57 17774164642135056793
161256 15 18338794520812156092
16945 1 18126281076103149765
17841504 4 18409170991319273179
20559304 39 18341336698806096985
20645477 70 18411698812002792015
20653091 64 18411422804033593680
20671657 1 18265906924154313828
20708731 107 18261967335310692132
20871998 22 18269560425331746486
21061003 4 18263632975194360938
21130352 189 18265332811501983157
21524375 3 17980201108309869284
230 275 18270119148604825200
23552423 10 18409172142549804505
23598291 2 18271813397555075791
2748010 2 18263626403799478756
305870 269 18271519922361041024
3248919 1 18115025324467673777
528862 383 18339076094166796167
7364860 26 18202284727426570928
81228 2 17617928146106751480

> <PUBCHEM_SHAPE_MULTIPOLES>
239.96
5.01
2.21
1.09
3.62
0.56
0.05
-0.64
-0.76
-1.57
-0.08
-0.04
0.12
-0.16

> <PUBCHEM_SHAPE_SELFOVERLAP>
457.094

> <PUBCHEM_SHAPE_VOLUME>
148

> <PUBCHEM_COORDINATE_TYPE>
2
5
10

$$$$
