8054
  -OEChem-09092009133D

 18 17  0     0  0  0  0  0  0999 V2000
    0.8505   -0.5181   -0.0003 O   0  0  0  0  0  0  0  0  0  0  0  0
   -2.6608    0.4499    0.0140 O   0  0  0  0  0  0  0  0  0  0  0  0
    2.2982    1.2821   -0.0033 O   0  0  0  0  0  0  0  0  0  0  0  0
   -0.2681    0.3746   -0.0038 C   0  0  0  0  0  0  0  0  0  0  0  0
   -1.5490   -0.4374   -0.0032 C   0  0  0  0  0  0  0  0  0  0  0  0
    2.0763    0.0789   -0.0004 C   0  0  0  0  0  0  0  0  0  0  0  0
   -3.8923   -0.2585   -0.0070 C   0  0  0  0  0  0  0  0  0  0  0  0
    3.1453   -0.9716    0.0040 C   0  0  0  0  0  0  0  0  0  0  0  0
   -0.2334    1.0193    0.8828 H   0  0  0  0  0  0  0  0  0  0  0  0
   -0.2320    1.0159   -0.8927 H   0  0  0  0  0  0  0  0  0  0  0  0
   -1.5763   -1.0927    0.8758 H   0  0  0  0  0  0  0  0  0  0  0  0
   -1.5864   -1.0751   -0.8948 H   0  0  0  0  0  0  0  0  0  0  0  0
   -3.9796   -0.9024    0.8735 H   0  0  0  0  0  0  0  0  0  0  0  0
   -3.9761   -0.8551   -0.9205 H   0  0  0  0  0  0  0  0  0  0  0  0
   -4.7082    0.4689    0.0105 H   0  0  0  0  0  0  0  0  0  0  0  0
    3.0606   -1.5907   -0.8926 H   0  0  0  0  0  0  0  0  0  0  0  0
    3.0595   -1.5842    0.9050 H   0  0  0  0  0  0  0  0  0  0  0  0
    4.1272   -0.4897    0.0028 H   0  0  0  0  0  0  0  0  0  0  0  0
  1  4  1  0  0  0  0
  1  6  1  0  0  0  0
  2  5  1  0  0  0  0
  2  7  1  0  0  0  0
  3  6  2  0  0  0  0
  4  5  1  0  0  0  0
  4  9  1  0  0  0  0
  4 10  1  0  0  0  0
  5 11  1  0  0  0  0
  5 12  1  0  0  0  0
  6  8  1  0  0  0  0
  7 13  1  0  0  0  0
  7 14  1  0  0  0  0
  7 15  1  0  0  0  0
  8 16  1  0  0  0  0
  8 17  1  0  0  0  0
  8 18  1  0  0  0  0
M  END
> <PUBCHEM_COMPOUND_CID>
8054

> <PUBCHEM_CONFORMER_RMSD>
0.6

> <PUBCHEM_CONFORMER_DIVERSEORDER>
2
23
25
12
20
7
6
19
28
14
5
26
31
3
27
30
15
29
22
4
33
1
13
11
10
8
17
16
32
24
21
9
18

> <PUBCHEM_MMFF94_PARTIAL_CHARGES>
8
1 -0.43
2 -0.56
3 -0.57
4 0.28
5 0.28
6 0.66
7 0.28
8 0.06

> <PUBCHEM_EFFECTIVE_ROTOR_COUNT>
4

> <PUBCHEM_PHARMACOPHORE_FEATURES>
2
1 2 acceptor
1 3 acceptor

> <PUBCHEM_HEAVY_ATOM_COUNT>
8

> <PUBCHEM_ATOM_DEF_STEREO_COUNT>
0

> <PUBCHEM_ATOM_UDEF_STEREO_COUNT>
0

> <PUBCHEM_BOND_DEF_STEREO_COUNT>
0

> <PUBCHEM_BOND_UDEF_STEREO_COUNT>
0

> <PUBCHEM_ISOTOPIC_ATOM_COUNT>
0

> <PUBCHEM_COMPONENT_COUNT>
1

> <PUBCHEM_CACTVS_TAUTO_COUNT>
1

> <PUBCHEM_CONFORMER_ID>
00001F7600000002

> <PUBCHEM_MMFF94_ENERGY>
10.7919

> <PUBCHEM_FEATURE_SELFOVERLAP>
10.149

> <PUBCHEM_SHAPE_FINGERPRINT>
11062470 55 9583516521077800999
12932764 1 17313093159821123971
14325111 11 18410856577157314339
14390081 3 18410009957435779041
3248919 1 17203618085620510087
5460574 1 9223232944671204227

> <PUBCHEM_SHAPE_MULTIPOLES>
147.03
6.34
0.98
0.58
3.44
0.1
0
-0.82
0
-0.66
0
0.01
-0.02
-0.01

> <PUBCHEM_SHAPE_SELFOVERLAP>
264.13

> <PUBCHEM_SHAPE_VOLUME>
95.5

> <PUBCHEM_COORDINATE_TYPE>
2
5
10

$$$$
