9562678
  -OEChem-09092012253D

 41 41  0     0  0  0  0  0  0999 V2000
    4.1766   -1.9938   -0.0903 O   0  0  0  0  0  0  0  0  0  0  0  0
    2.5124    0.1830    0.1169 N   0  0  0  0  0  0  0  0  0  0  0  0
    3.8496    0.3038   -0.0251 N   0  0  0  0  0  0  0  0  0  0  0  0
    5.9627   -0.5601   -0.2635 N   0  0  0  0  0  0  0  0  0  0  0  0
   -2.3355   -1.3531    0.1081 C   0  0  0  0  0  0  0  0  0  0  0  0
   -3.8355   -1.3552    0.5117 C   0  0  0  0  0  0  0  0  0  0  0  0
   -4.6519   -0.3703   -0.3056 C   0  0  0  0  0  0  0  0  0  0  0  0
   -1.7948    0.0858   -0.0660 C   0  0  0  0  0  0  0  0  0  0  0  0
   -4.1256    1.0418   -0.0977 C   0  0  0  0  0  0  0  0  0  0  0  0
   -2.6155    1.1642   -0.1314 C   0  0  0  0  0  0  0  0  0  0  0  0
   -2.1705   -2.1311   -1.2176 C   0  0  0  0  0  0  0  0  0  0  0  0
   -1.5919   -2.1236    1.2266 C   0  0  0  0  0  0  0  0  0  0  0  0
   -0.3505    0.2051   -0.1814 C   0  0  0  0  0  0  0  0  0  0  0  0
   -2.1729    2.6048   -0.2464 C   0  0  0  0  0  0  0  0  0  0  0  0
    0.3285    1.1969    0.3857 C   0  0  0  0  0  0  0  0  0  0  0  0
    1.8093    1.2745    0.2113 C   0  0  0  0  0  0  0  0  0  0  0  0
    2.3887    2.6729    0.1871 C   0  0  0  0  0  0  0  0  0  0  0  0
    4.6169   -0.8455   -0.1225 C   0  0  0  0  0  0  0  0  0  0  0  0
   -3.9387   -1.0939    1.5743 H   0  0  0  0  0  0  0  0  0  0  0  0
   -4.2613   -2.3607    0.4025 H   0  0  0  0  0  0  0  0  0  0  0  0
   -5.7055   -0.4169   -0.0065 H   0  0  0  0  0  0  0  0  0  0  0  0
   -4.6175   -0.6329   -1.3692 H   0  0  0  0  0  0  0  0  0  0  0  0
   -4.4768    1.4216    0.8703 H   0  0  0  0  0  0  0  0  0  0  0  0
   -4.5738    1.6781   -0.8706 H   0  0  0  0  0  0  0  0  0  0  0  0
   -2.6136   -1.5934   -2.0630 H   0  0  0  0  0  0  0  0  0  0  0  0
   -1.1169   -2.3092   -1.4594 H   0  0  0  0  0  0  0  0  0  0  0  0
   -2.6522   -3.1141   -1.1598 H   0  0  0  0  0  0  0  0  0  0  0  0
   -2.0419   -3.1098    1.3909 H   0  0  0  0  0  0  0  0  0  0  0  0
   -0.5376   -2.2900    0.9788 H   0  0  0  0  0  0  0  0  0  0  0  0
   -1.6282   -1.5770    2.1762 H   0  0  0  0  0  0  0  0  0  0  0  0
    0.1551   -0.5383   -0.7896 H   0  0  0  0  0  0  0  0  0  0  0  0
   -2.9295    3.1967   -0.7756 H   0  0  0  0  0  0  0  0  0  0  0  0
   -1.2646    2.7358   -0.8399 H   0  0  0  0  0  0  0  0  0  0  0  0
   -2.0546    3.0539    0.7446 H   0  0  0  0  0  0  0  0  0  0  0  0
   -0.1030    1.9469    1.0358 H   0  0  0  0  0  0  0  0  0  0  0  0
    1.6019    3.4290    0.2638 H   0  0  0  0  0  0  0  0  0  0  0  0
    3.0739    2.8025    1.0297 H   0  0  0  0  0  0  0  0  0  0  0  0
    2.9230    2.8350   -0.7535 H   0  0  0  0  0  0  0  0  0  0  0  0
    4.2694    1.2250   -0.0548 H   0  0  0  0  0  0  0  0  0  0  0  0
    6.6512   -1.3004   -0.3473 H   0  0  0  0  0  0  0  0  0  0  0  0
    6.3038    0.3949   -0.2877 H   0  0  0  0  0  0  0  0  0  0  0  0
  1 18  2  0  0  0  0
  2  3  1  0  0  0  0
  2 16  2  0  0  0  0
  3 18  1  0  0  0  0
  3 39  1  0  0  0  0
  4 18  1  0  0  0  0
  4 40  1  0  0  0  0
  4 41  1  0  0  0  0
  5  6  1  0  0  0  0
  5  8  1  0  0  0  0
  5 11  1  0  0  0  0
  5 12  1  0  0  0  0
  6  7  1  0  0  0  0
  6 19  1  0  0  0  0
  6 20  1  0  0  0  0
  7  9  1  0  0  0  0
  7 21  1  0  0  0  0
  7 22  1  0  0  0  0
  8 10  2  0  0  0  0
  8 13  1  0  0  0  0
  9 10  1  0  0  0  0
  9 23  1  0  0  0  0
  9 24  1  0  0  0  0
 10 14  1  0  0  0  0
 11 25  1  0  0  0  0
 11 26  1  0  0  0  0
 11 27  1  0  0  0  0
 12 28  1  0  0  0  0
 12 29  1  0  0  0  0
 12 30  1  0  0  0  0
 13 15  2  0  0  0  0
 13 31  1  0  0  0  0
 14 32  1  0  0  0  0
 14 33  1  0  0  0  0
 14 34  1  0  0  0  0
 15 16  1  0  0  0  0
 15 35  1  0  0  0  0
 16 17  1  0  0  0  0
 17 36  1  0  0  0  0
 17 37  1  0  0  0  0
 17 38  1  0  0  0  0
M  END
> <PUBCHEM_COMPOUND_CID>
9562678

> <PUBCHEM_CONFORMER_RMSD>
0.6

> <PUBCHEM_CONFORMER_DIVERSEORDER>
1
6
3
8
12
10
5
2
11
9
7
13
4

> <PUBCHEM_MMFF94_PARTIAL_CHARGES>
19
1 -0.57
10 -0.28
13 -0.15
14 0.14
15 -0.14
16 0.37
17 0.06
18 0.69
2 -0.51
3 -0.37
31 0.15
35 0.15
39 0.37
4 -0.8
40 0.37
41 0.37
5 0.14
8 -0.14
9 0.14

> <PUBCHEM_EFFECTIVE_ROTOR_COUNT>
4.8

> <PUBCHEM_PHARMACOPHORE_FEATURES>
6
1 1 acceptor
1 2 acceptor
1 3 donor
1 4 donor
3 5 11 12 hydrophobe
6 5 6 7 8 9 10 rings

> <PUBCHEM_HEAVY_ATOM_COUNT>
18

> <PUBCHEM_ATOM_DEF_STEREO_COUNT>
0

> <PUBCHEM_ATOM_UDEF_STEREO_COUNT>
0

> <PUBCHEM_BOND_DEF_STEREO_COUNT>
2

> <PUBCHEM_BOND_UDEF_STEREO_COUNT>
0

> <PUBCHEM_ISOTOPIC_ATOM_COUNT>
0

> <PUBCHEM_COMPONENT_COUNT>
1

> <PUBCHEM_CACTVS_TAUTO_COUNT>
3

> <PUBCHEM_CONFORMER_ID>
0091EA3600000001

> <PUBCHEM_MMFF94_ENERGY>
48.946

> <PUBCHEM_FEATURE_SELFOVERLAP>
30.503

> <PUBCHEM_SHAPE_FINGERPRINT>
10616163 171 18411139125950130878
11315181 36 18131072628129732736
11458722 379 18333731299498625067
12555020 224 18340476829521624719
12633257 1 17845668035188978627
13288520 33 18410857650656538836
14251731 8 18409167688420779348
14251740 79 18410578344648908089
14251751 93 18262794069154545553
14790565 3 17331121589973840848
14866123 147 17479181860382050856
15042514 8 18337956813654142627
15099037 51 18411980243665286951
15196674 1 18410574028127543377
15352361 1 18411982434383580822
17492 89 18194400223827932503
17804303 29 18410577288029047461
17834072 8 18334007290102532255
17834074 16 18410011048262318792
1813 80 17458059382977258572
18186145 218 17531798168632009649
200 152 17775563152411514389
20645477 70 18201159944406384900
20681651 13 17272576298124454851
20871999 31 18334014952313820420
21250096 35 18342457015666586658
21267235 1 18408891758737536115
221490 88 18336552741183377440
2215653 11 18341325621926828047
23175994 123 17561365071358662393
23402539 116 18273207591595824693
23559900 14 18338510945348790824
23622692 118 17915446392977765630
3004659 81 18114465544817814978
335352 9 18410855439334288429
4214541 1 18410575059125767004
4921388 177 16588598607139798242
5104073 3 18412546547840799009
559249 180 18264483993009925578
58051976 100 18409448102429772158
59755656 215 18335979749791447629
8809292 202 18408605876559981369
9709674 26 18192148411118295906

> <PUBCHEM_SHAPE_MULTIPOLES>
349.62
10.36
2.72
0.82
12.49
0.58
0.01
-3.28
-0.87
-0.27
0.04
-0.42
-0.36
0.42

> <PUBCHEM_SHAPE_SELFOVERLAP>
700.622

> <PUBCHEM_SHAPE_VOLUME>
206

> <PUBCHEM_COORDINATE_TYPE>
2
5
10

$$$$
