44146331
  -OEChem-09092012432D

 69 63  0     1  0  0  0  0  0999 V2000
   13.2217    0.0000    0.0000 Ca  0  2  0  0  0  0  0  0  0  0  0  0
    9.8026    2.5472    0.0000 K   0  3  0  0  0  0  0  0  0  0  0  0
   11.8557    4.0388    0.0000 Na  0  3  0  0  0  0  0  0  0  0  0  0
   12.0632    9.1588    0.0000 O   0  0  0  0  0  0  0  0  0  0  0  0
   11.1972    6.6588    0.0000 O   0  0  0  0  0  0  0  0  0  0  0  0
   13.7953    8.1588    0.0000 O   0  0  0  0  0  0  0  0  0  0  0  0
    3.1350    3.4844    0.0000 O   0  0  0  0  0  0  0  0  0  0  0  0
    4.0010    5.9844    0.0000 O   0  0  0  0  0  0  0  0  0  0  0  0
   10.3312    9.1588    0.0000 O   0  0  0  0  0  0  0  0  0  0  0  0
    2.2690    5.9844    0.0000 O   0  0  0  0  0  0  0  0  0  0  0  0
    4.8671    3.4844    0.0000 O   0  0  0  0  0  0  0  0  0  0  0  0
   12.2217    0.0000    0.0000 O   0  5  0  0  0  0  0  0  0  0  0  0
   13.5307    0.9511    0.0000 O   0  5  0  0  0  0  0  0  0  0  0  0
   10.7537    2.2382    0.0000 O   0  5  0  0  0  0  0  0  0  0  0  0
    0.5369    4.9844    0.0000 O   0  0  0  0  0  0  0  0  0  0  0  0
    9.2674    0.9000    0.0000 O   0  0  0  0  0  0  0  0  0  0  0  0
   11.8557    3.0388    0.0000 O   0  5  0  0  0  0  0  0  0  0  0  0
    8.5991    8.1588    0.0000 O   0  0  0  0  0  0  0  0  0  0  0  0
    1.4030    3.4844    0.0000 O   0  0  0  0  0  0  0  0  0  0  0  0
    6.5991    4.4844    0.0000 O   0  0  0  0  0  0  0  0  0  0  0  0
   13.5877    4.0388    0.0000 O   0  0  0  0  0  0  0  0  0  0  0  0
   12.0632    8.1588    0.0000 C   0  0  2  0  0  0  0  0  0  0  0  0
   11.1972    7.6588    0.0000 C   0  0  1  0  0  0  0  0  0  0  0  0
   12.9292    7.6588    0.0000 C   0  0  1  0  0  0  0  0  0  0  0  0
    3.1350    4.4844    0.0000 C   0  0  1  0  0  0  0  0  0  0  0  0
    4.0010    4.9844    0.0000 C   0  0  1  0  0  0  0  0  0  0  0  0
   10.3312    8.1588    0.0000 C   0  0  2  0  0  0  0  0  0  0  0  0
    2.2690    4.9844    0.0000 C   0  0  1  0  0  0  0  0  0  0  0  0
    4.8671    4.4844    0.0000 C   0  0  2  0  0  0  0  0  0  0  0  0
   12.9292    6.6588    0.0000 C   0  0  0  0  0  0  0  0  0  0  0  0
   11.9127    0.9511    0.0000 C   0  0  1  0  0  0  0  0  0  0  0  0
   12.7217    1.5388    0.0000 C   0  0  1  0  0  0  0  0  0  0  0  0
   10.9616    1.2601    0.0000 C   0  0  1  0  0  0  0  0  0  0  0  0
    9.4651    7.6588    0.0000 C   0  0  0  0  0  0  0  0  0  0  0  0
   12.7217    2.5388    0.0000 C   0  0  2  0  0  0  0  0  0  0  0  0
    1.4030    4.4844    0.0000 C   0  0  0  0  0  0  0  0  0  0  0  0
   10.2185    0.5909    0.0000 C   0  0  0  0  0  0  0  0  0  0  0  0
    5.7331    4.9844    0.0000 C   0  0  0  0  0  0  0  0  0  0  0  0
   13.5877    3.0388    0.0000 C   0  0  0  0  0  0  0  0  0  0  0  0
   11.5263    8.4688    0.0000 H   0  0  0  0  0  0  0  0  0  0  0  0
   11.7341    7.3488    0.0000 H   0  0  0  0  0  0  0  0  0  0  0  0
   13.4662    7.3488    0.0000 H   0  0  0  0  0  0  0  0  0  0  0  0
    3.6720    4.1744    0.0000 H   0  0  0  0  0  0  0  0  0  0  0  0
    3.4641    5.2944    0.0000 H   0  0  0  0  0  0  0  0  0  0  0  0
    9.7942    8.4688    0.0000 H   0  0  0  0  0  0  0  0  0  0  0  0
    2.8059    5.2944    0.0000 H   0  0  0  0  0  0  0  0  0  0  0  0
    5.4040    4.1744    0.0000 H   0  0  0  0  0  0  0  0  0  0  0  0
   12.3092    6.6588    0.0000 H   0  0  0  0  0  0  0  0  0  0  0  0
   12.9292    6.0388    0.0000 H   0  0  0  0  0  0  0  0  0  0  0  0
   13.5492    6.6588    0.0000 H   0  0  0  0  0  0  0  0  0  0  0  0
   11.4743    0.5127    0.0000 H   0  0  0  0  0  0  0  0  0  0  0  0
   13.2741    1.8203    0.0000 H   0  0  0  0  0  0  0  0  0  0  0  0
   11.4224    1.6749    0.0000 H   0  0  0  0  0  0  0  0  0  0  0  0
   12.6002    9.4688    0.0000 H   0  0  0  0  0  0  0  0  0  0  0  0
   10.6603    6.3488    0.0000 H   0  0  0  0  0  0  0  0  0  0  0  0
   12.7217    3.1588    0.0000 H   0  0  0  0  0  0  0  0  0  0  0  0
    9.4651    7.0388    0.0000 H   0  0  0  0  0  0  0  0  0  0  0  0
   14.3322    7.8488    0.0000 H   0  0  0  0  0  0  0  0  0  0  0  0
    2.5981    3.1744    0.0000 H   0  0  0  0  0  0  0  0  0  0  0  0
    4.5380    6.2944    0.0000 H   0  0  0  0  0  0  0  0  0  0  0  0
    9.9274    0.0435    0.0000 H   0  0  0  0  0  0  0  0  0  0  0  0
   10.7070    0.2092    0.0000 H   0  0  0  0  0  0  0  0  0  0  0  0
    5.7331    5.6044    0.0000 H   0  0  0  0  0  0  0  0  0  0  0  0
    9.7942    9.4688    0.0000 H   0  0  0  0  0  0  0  0  0  0  0  0
    1.7320    6.2944    0.0000 H   0  0  0  0  0  0  0  0  0  0  0  0
    5.4040    3.1744    0.0000 H   0  0  0  0  0  0  0  0  0  0  0  0
   14.1247    2.7288    0.0000 H   0  0  0  0  0  0  0  0  0  0  0  0
    0.0000    4.6744    0.0000 H   0  0  0  0  0  0  0  0  0  0  0  0
    8.8067    0.4851    0.0000 H   0  0  0  0  0  0  0  0  0  0  0  0
 22  4  1  1  0  0  0
  4 54  1  0  0  0  0
 23  5  1  6  0  0  0
  5 55  1  0  0  0  0
 24  6  1  6  0  0  0
  6 58  1  0  0  0  0
 25  7  1  6  0  0  0
  7 59  1  0  0  0  0
 26  8  1  6  0  0  0
  8 60  1  0  0  0  0
 27  9  1  6  0  0  0
  9 64  1  0  0  0  0
 28 10  1  1  0  0  0
 10 65  1  0  0  0  0
 29 11  1  6  0  0  0
 11 66  1  0  0  0  0
 31 12  1  6  0  0  0
 32 13  1  1  0  0  0
 33 14  1  1  0  0  0
 15 36  1  0  0  0  0
 15 68  1  0  0  0  0
 16 37  1  0  0  0  0
 16 69  1  0  0  0  0
 35 17  1  1  0  0  0
 18 34  2  0  0  0  0
 19 36  2  0  0  0  0
 20 38  2  0  0  0  0
 21 39  2  0  0  0  0
 22 23  1  0  0  0  0
 22 24  1  0  0  0  0
 22 40  1  0  0  0  0
 23 27  1  0  0  0  0
 23 41  1  0  0  0  0
 24 30  1  0  0  0  0
 24 42  1  0  0  0  0
 25 26  1  0  0  0  0
 25 28  1  0  0  0  0
 25 43  1  0  0  0  0
 26 29  1  0  0  0  0
 26 44  1  0  0  0  0
 27 34  1  0  0  0  0
 27 45  1  0  0  0  0
 28 36  1  0  0  0  0
 28 46  1  0  0  0  0
 29 38  1  0  0  0  0
 29 47  1  0  0  0  0
 30 48  1  0  0  0  0
 30 49  1  0  0  0  0
 30 50  1  0  0  0  0
 31 32  1  0  0  0  0
 31 33  1  0  0  0  0
 31 51  1  0  0  0  0
 32 35  1  0  0  0  0
 32 52  1  0  0  0  0
 33 37  1  0  0  0  0
 33 53  1  0  0  0  0
 34 57  1  0  0  0  0
 35 39  1  0  0  0  0
 35 56  1  0  0  0  0
 37 61  1  0  0  0  0
 37 62  1  0  0  0  0
 38 63  1  0  0  0  0
 39 67  1  0  0  0  0
M  CHG  7   1   2   2   1   3   1  12  -1  13  -1  14  -1  17  -1
M  END
> <PUBCHEM_COMPOUND_CID>
44146331

> <PUBCHEM_COMPOUND_CANONICALIZED>
1

> <PUBCHEM_CACTVS_COMPLEXITY>
456

> <PUBCHEM_CACTVS_HBOND_ACCEPTOR>
18

> <PUBCHEM_CACTVS_HBOND_DONOR>
10

> <PUBCHEM_CACTVS_ROTATABLE_BOND>
14

> <PUBCHEM_CACTVS_SUBSKEYS>
AAADceB4PiAAQAgAAAAAAAAAAAAAAAAAAAAAAAAAAAAAAAAAAAAAGgAACAAACBSggAICCAAAAgAIAAiQiAIAAAAAAAAAAAFAAAABEBYAAAAAQAAFIAABAAHKbARAAAAAAAAAAAAAAAAAAAAAAAAAAAAAAA==

> <PUBCHEM_IUPAC_OPENEYE_NAME>
calcium;potassium;sodium;(2R,3R,4S,5R)-1-hydroxy-6-oxo-hexane-2,3,4,5-tetrolate;(2R,3S,4S,5R)-2,3,4,5-tetrahydroxyhexanal;(2S,3S,4S,5R)-2,3,4,5-tetrahydroxy-6-oxo-hexanoic acid

> <PUBCHEM_IUPAC_CAS_NAME>
calcium;potassium;sodium;(2R,3R,4S,5R)-1-hydroxy-6-oxohexane-2,3,4,5-tetrolate;(2R,3S,4S,5R)-2,3,4,5-tetrahydroxyhexanal;(2S,3S,4S,5R)-2,3,4,5-tetrahydroxy-6-oxohexanoic acid

> <PUBCHEM_IUPAC_NAME_MARKUP>
calcium;potassium;sodium;(2<I>R</I>,3<I>R</I>,4<I>S</I>,5<I>R</I>)-1-hydroxy-6-oxohexane-2,3,4,5-tetrolate;(2<I>R</I>,3<I>S</I>,4<I>S</I>,5<I>R</I>)-2,3,4,5-tetrahydroxyhexanal;(2<I>S</I>,3<I>S</I>,4<I>S</I>,5<I>R</I>)-2,3,4,5-tetrahydroxy-6-oxohexanoic acid

> <PUBCHEM_IUPAC_NAME>
calcium;potassium;sodium;(2R,3R,4S,5R)-1-hydroxy-6-oxohexane-2,3,4,5-tetrolate;(2R,3S,4S,5R)-2,3,4,5-tetrahydroxyhexanal;(2S,3S,4S,5R)-2,3,4,5-tetrahydroxy-6-oxohexanoic acid

> <PUBCHEM_IUPAC_SYSTEMATIC_NAME>
calcium;potassium;sodium;(2R,3R,4S,5R)-1-oxidanyl-6-oxidanylidene-hexane-2,3,4,5-tetrolate;(2R,3S,4S,5R)-2,3,4,5-tetrakis(oxidanyl)hexanal;(2S,3S,4S,5R)-2,3,4,5-tetrakis(oxidanyl)-6-oxidanylidene-hexanoic acid

> <PUBCHEM_IUPAC_TRADITIONAL_NAME>
calcium;potassium;sodium;(2R,3R,4S,5R)-1-hydroxy-6-keto-hexane-2,3,4,5-tetrolate;(2R,3S,4S,5R)-2,3,4,5-tetrahydroxyhexanal;(2S,3S,4S,5R)-2,3,4,5-tetrahydroxy-6-keto-hexanoic acid

> <PUBCHEM_IUPAC_INCHI>
InChI=1S/C6H10O7.C6H8O6.C6H12O5.Ca.K.Na/c7-1-2(8)3(9)4(10)5(11)6(12)13;7-1-3(9)5(11)6(12)4(10)2-8;1-3(8)5(10)6(11)4(9)2-7;;;/h1-5,8-11H,(H,12,13);1,3-6,8H,2H2;2-6,8-11H,1H3;;;/q;-4;;+2;2*+1/t2-,3+,4-,5-;3-,4+,5+,6+;3-,4+,5+,6-;;;/m001.../s1

> <PUBCHEM_IUPAC_INCHIKEY>
PQMVPOYJUUMDMF-SIHYRIGXSA-N

> <PUBCHEM_EXACT_MASS>
636.059281

> <PUBCHEM_MOLECULAR_FORMULA>
C18H30CaKNaO18

> <PUBCHEM_MOLECULAR_WEIGHT>
636.6

> <PUBCHEM_OPENEYE_CAN_SMILES>
CC(C(C(C(C=O)O)O)O)O.C(C(C(C(C(C=O)[O-])[O-])[O-])[O-])O.C(=O)C(C(C(C(C(=O)O)O)O)O)O.[Na+].[K+].[Ca+2]

> <PUBCHEM_OPENEYE_ISO_SMILES>
C[C@H]([C@@H]([C@@H]([C@H](C=O)O)O)O)O.C([C@H]([C@H]([C@@H]([C@H](C=O)[O-])[O-])[O-])[O-])O.C(=O)[C@@H]([C@H]([C@@H]([C@@H](C(=O)O)O)O)O)O.[Na+].[K+].[Ca+2]

> <PUBCHEM_CACTVS_TPSA>
363

> <PUBCHEM_MONOISOTOPIC_WEIGHT>
636.059281

> <PUBCHEM_TOTAL_CHARGE>
0

> <PUBCHEM_HEAVY_ATOM_COUNT>
39

> <PUBCHEM_ATOM_DEF_STEREO_COUNT>
12

> <PUBCHEM_ATOM_UDEF_STEREO_COUNT>
0

> <PUBCHEM_BOND_DEF_STEREO_COUNT>
0

> <PUBCHEM_BOND_UDEF_STEREO_COUNT>
0

> <PUBCHEM_ISOTOPIC_ATOM_COUNT>
0

> <PUBCHEM_COMPONENT_COUNT>
6

> <PUBCHEM_CACTVS_TAUTO_COUNT>
-1

> <PUBCHEM_COORDINATE_TYPE>
1
5
255

> <PUBCHEM_BONDANNOTATIONS>
28  10  5
29  11  6
31  12  6
32  13  5
33  14  5
35  17  5
22  4  5
23  5  6
24  6  6
25  7  6
26  8  6
27  9  6

$$$$
