13092557
  -OEChem-09062010413D

 43 44  0     1  0  0  0  0  0999 V2000
   -0.8059   -0.3058    0.6069 O   0  0  0  0  0  0  0  0  0  0  0  0
   -4.2532   -0.6548   -0.7241 O   0  0  0  0  0  0  0  0  0  0  0  0
   -0.3754    0.8924   -0.0492 C   0  0  1  0  0  0  0  0  0  0  0  0
    1.1451    0.7250   -0.2186 C   0  0  1  0  0  0  0  0  0  0  0  0
   -1.0114    1.0457   -1.4393 C   0  0  0  0  0  0  0  0  0  0  0  0
   -2.1984   -0.6522    0.6278 C   0  0  0  0  0  0  0  0  0  0  0  0
   -2.5166    0.8366   -1.4094 C   0  0  0  0  0  0  0  0  0  0  0  0
   -2.8381   -0.5087   -0.7697 C   0  0  2  0  0  0  0  0  0  0  0  0
    1.8475    0.6392    1.1401 C   0  0  0  0  0  0  0  0  0  0  0  0
    1.4661   -0.5194   -1.0620 C   0  0  0  0  0  0  0  0  0  0  0  0
   -0.6038    2.1306    0.8275 C   0  0  0  0  0  0  0  0  0  0  0  0
    3.3661    0.5275    0.9728 C   0  0  0  0  0  0  0  0  0  0  0  0
   -2.2132   -2.1363    1.0456 C   0  0  0  0  0  0  0  0  0  0  0  0
   -2.9509    0.1243    1.7192 C   0  0  0  0  0  0  0  0  0  0  0  0
    2.9160   -0.9045   -1.0202 C   0  0  0  0  0  0  0  0  0  0  0  0
    3.7881   -0.4273   -0.1157 C   0  0  0  0  0  0  0  0  0  0  0  0
    5.2379   -0.8123   -0.1317 C   0  0  0  0  0  0  0  0  0  0  0  0
    1.5434    1.6040   -0.7477 H   0  0  0  0  0  0  0  0  0  0  0  0
   -0.6414    0.3029   -2.1495 H   0  0  0  0  0  0  0  0  0  0  0  0
   -0.7769    2.0285   -1.8657 H   0  0  0  0  0  0  0  0  0  0  0  0
   -3.0206    1.6507   -0.8765 H   0  0  0  0  0  0  0  0  0  0  0  0
   -2.9182    0.8694   -2.4300 H   0  0  0  0  0  0  0  0  0  0  0  0
   -2.4462   -1.2969   -1.4262 H   0  0  0  0  0  0  0  0  0  0  0  0
    1.4894   -0.2331    1.7023 H   0  0  0  0  0  0  0  0  0  0  0  0
    1.6608    1.5181    1.7647 H   0  0  0  0  0  0  0  0  0  0  0  0
    1.2446   -0.3272   -2.1169 H   0  0  0  0  0  0  0  0  0  0  0  0
    0.8808   -1.3939   -0.7571 H   0  0  0  0  0  0  0  0  0  0  0  0
   -0.4744    1.9122    1.8927 H   0  0  0  0  0  0  0  0  0  0  0  0
    0.0536    2.9604    0.5441 H   0  0  0  0  0  0  0  0  0  0  0  0
   -1.6231    2.5128    0.7239 H   0  0  0  0  0  0  0  0  0  0  0  0
    3.7974    0.2134    1.9309 H   0  0  0  0  0  0  0  0  0  0  0  0
    3.7800    1.5175    0.7430 H   0  0  0  0  0  0  0  0  0  0  0  0
   -3.2307   -2.5377    1.0936 H   0  0  0  0  0  0  0  0  0  0  0  0
   -1.6346   -2.7443    0.3401 H   0  0  0  0  0  0  0  0  0  0  0  0
   -1.7401   -2.2709    2.0256 H   0  0  0  0  0  0  0  0  0  0  0  0
   -3.9281   -0.3231    1.9323 H   0  0  0  0  0  0  0  0  0  0  0  0
   -2.3727    0.1458    2.6499 H   0  0  0  0  0  0  0  0  0  0  0  0
   -3.1344    1.1627    1.4357 H   0  0  0  0  0  0  0  0  0  0  0  0
    3.2536   -1.6073   -1.7775 H   0  0  0  0  0  0  0  0  0  0  0  0
   -4.5867   -0.5905   -1.6352 H   0  0  0  0  0  0  0  0  0  0  0  0
    5.5084   -1.3134    0.8034 H   0  0  0  0  0  0  0  0  0  0  0  0
    5.8649    0.0781   -0.2434 H   0  0  0  0  0  0  0  0  0  0  0  0
    5.4758   -1.4930   -0.9559 H   0  0  0  0  0  0  0  0  0  0  0  0
  1  3  1  0  0  0  0
  1  6  1  0  0  0  0
  2  8  1  0  0  0  0
  2 40  1  0  0  0  0
  3  4  1  0  0  0  0
  3  5  1  0  0  0  0
  3 11  1  0  0  0  0
  4  9  1  0  0  0  0
  4 10  1  0  0  0  0
  4 18  1  0  0  0  0
  5  7  1  0  0  0  0
  5 19  1  0  0  0  0
  5 20  1  0  0  0  0
  6  8  1  0  0  0  0
  6 13  1  0  0  0  0
  6 14  1  0  0  0  0
  7  8  1  0  0  0  0
  7 21  1  0  0  0  0
  7 22  1  0  0  0  0
  8 23  1  0  0  0  0
  9 12  1  0  0  0  0
  9 24  1  0  0  0  0
  9 25  1  0  0  0  0
 10 15  1  0  0  0  0
 10 26  1  0  0  0  0
 10 27  1  0  0  0  0
 11 28  1  0  0  0  0
 11 29  1  0  0  0  0
 11 30  1  0  0  0  0
 12 16  1  0  0  0  0
 12 31  1  0  0  0  0
 12 32  1  0  0  0  0
 13 33  1  0  0  0  0
 13 34  1  0  0  0  0
 13 35  1  0  0  0  0
 14 36  1  0  0  0  0
 14 37  1  0  0  0  0
 14 38  1  0  0  0  0
 15 16  2  0  0  0  0
 15 39  1  0  0  0  0
 16 17  1  0  0  0  0
 17 41  1  0  0  0  0
 17 42  1  0  0  0  0
 17 43  1  0  0  0  0
M  END
> <PUBCHEM_COMPOUND_CID>
13092557

> <PUBCHEM_CONFORMER_RMSD>
0.6

> <PUBCHEM_CONFORMER_DIVERSEORDER>
2
6
13
10
11
9
15
8
7
4
3
14
12
5
1

> <PUBCHEM_MMFF94_PARTIAL_CHARGES>
12
1 -0.56
10 0.14
12 0.14
15 -0.29
16 -0.28
17 0.14
2 -0.68
3 0.28
39 0.15
40 0.4
6 0.28
8 0.28

> <PUBCHEM_EFFECTIVE_ROTOR_COUNT>
3

> <PUBCHEM_PHARMACOPHORE_FEATURES>
6
1 1 acceptor
1 2 acceptor
1 2 donor
3 6 13 14 hydrophobe
6 1 3 5 6 7 8 rings
6 4 9 10 12 15 16 rings

> <PUBCHEM_HEAVY_ATOM_COUNT>
17

> <PUBCHEM_ATOM_DEF_STEREO_COUNT>
2

> <PUBCHEM_ATOM_UDEF_STEREO_COUNT>
1

> <PUBCHEM_BOND_DEF_STEREO_COUNT>
0

> <PUBCHEM_BOND_UDEF_STEREO_COUNT>
0

> <PUBCHEM_ISOTOPIC_ATOM_COUNT>
0

> <PUBCHEM_COMPONENT_COUNT>
1

> <PUBCHEM_CACTVS_TAUTO_COUNT>
1

> <PUBCHEM_CONFORMER_ID>
00C7C6CD00000002

> <PUBCHEM_MMFF94_ENERGY>
49.1285

> <PUBCHEM_FEATURE_SELFOVERLAP>
30.446

> <PUBCHEM_SHAPE_FINGERPRINT>
10062212 137 15647042776976313768
10366900 7 18273216396120428162
10751810 167 16588025705852399570
11471102 22 17775286062707156830
11543360 7 17603595136218635158
12202030 40 18338519775722027299
12251169 10 16128657457117825572
12500047 106 17895745202139706822
12507557 5 14692565507765039570
12507560 40 14189308023119007100
12714826 92 17749395879403200905
13024252 1 13045953391050782469
13296908 3 17968097572531021320
13296909 8 15339120121854051513
13693222 15 17775565334244318820
13965767 371 14330640342865065290
14115302 16 17676487271807674319
14386348 63 18411418418956653222
14943859 89 12540691513882052109
15309172 13 16773793684575913732
15375358 24 18410001143988638996
15375462 189 16558744599209180222
15375462 478 16558752342866403321
15775835 57 11891326552134958843
16752209 62 17677036984824759561
16945 1 17967812751943546613
17844478 74 18059860545559063072
1813 80 17274837839583538780
19422 9 15913607285430146460
19862831 5 15574715802716070486
200 152 17203317905908251189
20279233 1 18408319990873403662
20281475 54 18336558199833576890
20645476 183 15430031063522610595
20871999 31 17603865593818299884
21061003 4 18343022215560645264
21119208 17 16225763012763554070
22445834 79 16415761911972248110
23402539 116 18411132494282950356
23557571 272 18186795860240646916
23559900 14 18114174247044689328
26918003 58 17418087741566450487
27216 239 10015576212044926079
2748010 2 17315914648803309685
296302 2 18273215330493707112
3082319 5 15719109171433736394
3286 77 16988553641424125688
4175511 318 16370997495266022991
474 4 16054317389216485832
559249 180 16952233336643544458
77492 1 15769771394471423628
81228 2 18268722627214678313

> <PUBCHEM_SHAPE_MULTIPOLES>
338.11
7.67
1.57
1.51
6.17
0.07
-0.07
2.82
0.45
-0.85
-0.3
-0.68
-0.18
0.78

> <PUBCHEM_SHAPE_SELFOVERLAP>
690.289

> <PUBCHEM_SHAPE_VOLUME>
194.8

> <PUBCHEM_COORDINATE_TYPE>
2
5
10

$$$$
