6430796
  -OEChem-09062010043D

 28 29  0     1  0  0  0  0  0999 V2000
    1.8448   -0.6196   -1.0241 O   0  0  0  0  0  0  0  0  0  0  0  0
   -0.6258   -2.1885    0.3668 O   0  0  0  0  0  0  0  0  0  0  0  0
    2.0237    0.3541    0.0097 C   0  0  2  0  0  0  0  0  0  0  0  0
    1.3745   -0.9708    0.2899 C   0  0  1  0  0  0  0  0  0  0  0  0
    1.1879    1.5861   -0.1009 C   0  0  0  0  0  0  0  0  0  0  0  0
   -0.8561    0.2290    0.5334 C   0  0  2  0  0  0  0  0  0  0  0  0
   -0.2781    1.2867   -0.4163 C   0  0  0  0  0  0  0  0  0  0  0  0
   -0.0981   -1.0831    0.3731 C   0  0  0  0  0  0  0  0  0  0  0  0
    3.4504    0.5446    0.3825 C   0  0  0  0  0  0  0  0  0  0  0  0
   -2.3462    0.0319    0.2661 C   0  0  0  0  0  0  0  0  0  0  0  0
   -3.1051    1.3425    0.4625 C   0  0  0  0  0  0  0  0  0  0  0  0
   -2.5719   -0.5130   -1.1426 C   0  0  0  0  0  0  0  0  0  0  0  0
    1.9405   -1.7130    0.8406 H   0  0  0  0  0  0  0  0  0  0  0  0
    1.5964    2.2457   -0.8756 H   0  0  0  0  0  0  0  0  0  0  0  0
    1.2404    2.1368    0.8466 H   0  0  0  0  0  0  0  0  0  0  0  0
   -0.7154    0.5509    1.5737 H   0  0  0  0  0  0  0  0  0  0  0  0
   -0.8182    2.2359   -0.3543 H   0  0  0  0  0  0  0  0  0  0  0  0
   -0.3314    0.9489   -1.4579 H   0  0  0  0  0  0  0  0  0  0  0  0
    3.9444    1.2257   -0.3183 H   0  0  0  0  0  0  0  0  0  0  0  0
    3.5281    0.9738    1.3867 H   0  0  0  0  0  0  0  0  0  0  0  0
    4.0092   -0.3977    0.3787 H   0  0  0  0  0  0  0  0  0  0  0  0
   -2.7391   -0.7005    0.9833 H   0  0  0  0  0  0  0  0  0  0  0  0
   -2.9451    2.0556   -0.3519 H   0  0  0  0  0  0  0  0  0  0  0  0
   -4.1828    1.1437    0.4937 H   0  0  0  0  0  0  0  0  0  0  0  0
   -2.8352    1.8222    1.4091 H   0  0  0  0  0  0  0  0  0  0  0  0
   -2.3305    0.2214   -1.9179 H   0  0  0  0  0  0  0  0  0  0  0  0
   -3.6356   -0.7497   -1.2701 H   0  0  0  0  0  0  0  0  0  0  0  0
   -2.0263   -1.4309   -1.3677 H   0  0  0  0  0  0  0  0  0  0  0  0
  1  3  1  0  0  0  0
  1  4  1  0  0  0  0
  2  8  2  0  0  0  0
  3  4  1  0  0  0  0
  3  5  1  0  0  0  0
  3  9  1  0  0  0  0
  4  8  1  0  0  0  0
  4 13  1  0  0  0  0
  5  7  1  0  0  0  0
  5 14  1  0  0  0  0
  5 15  1  0  0  0  0
  6  7  1  0  0  0  0
  6  8  1  0  0  0  0
  6 10  1  0  0  0  0
  6 16  1  0  0  0  0
  7 17  1  0  0  0  0
  7 18  1  0  0  0  0
  9 19  1  0  0  0  0
  9 20  1  0  0  0  0
  9 21  1  0  0  0  0
 10 11  1  0  0  0  0
 10 12  1  0  0  0  0
 10 22  1  0  0  0  0
 11 23  1  0  0  0  0
 11 24  1  0  0  0  0
 11 25  1  0  0  0  0
 12 26  1  0  0  0  0
 12 27  1  0  0  0  0
 12 28  1  0  0  0  0
M  END
> <PUBCHEM_COMPOUND_CID>
6430796

> <PUBCHEM_CONFORMER_RMSD>
0.4

> <PUBCHEM_CONFORMER_DIVERSEORDER>
1
2
4
3

> <PUBCHEM_MMFF94_PARTIAL_CHARGES>
9
1 -0.3
13 0.1
2 -0.57
3 -0.04
4 0.05
5 0.09
6 0.06
8 0.51
9 0.09

> <PUBCHEM_EFFECTIVE_ROTOR_COUNT>
1.8

> <PUBCHEM_PHARMACOPHORE_FEATURES>
4
1 1 acceptor
1 2 acceptor
3 10 11 12 hydrophobe
7 1 3 4 5 6 7 8 rings

> <PUBCHEM_HEAVY_ATOM_COUNT>
12

> <PUBCHEM_ATOM_DEF_STEREO_COUNT>
3

> <PUBCHEM_ATOM_UDEF_STEREO_COUNT>
0

> <PUBCHEM_BOND_DEF_STEREO_COUNT>
0

> <PUBCHEM_BOND_UDEF_STEREO_COUNT>
0

> <PUBCHEM_ISOTOPIC_ATOM_COUNT>
0

> <PUBCHEM_COMPONENT_COUNT>
1

> <PUBCHEM_CACTVS_TAUTO_COUNT>
3

> <PUBCHEM_CONFORMER_ID>
0062204C00000001

> <PUBCHEM_MMFF94_ENERGY>
23.0474

> <PUBCHEM_FEATURE_SELFOVERLAP>
20.297

> <PUBCHEM_SHAPE_FINGERPRINT>
10980938 120 18192437368403023633
12491281 212 17489320662949129601
13380535 76 18411979191414415914
14325111 11 18411139125585835217
15775835 57 18340769256321976825
16945 1 18410015476347240216
193761 8 17759809538481560208
21040471 1 18335710459040914946
21501502 16 18046913954681198748
23235685 24 18410291419427328568
23380061 330 18410566288644046200
23402539 116 18341598348039299844
23402655 69 18267289960059853965
23559900 14 18410866456473580686
2748010 2 18046059359368775772
305870 269 18261949631249880131
369184 2 14923947868300366637
5084963 1 18272649056209147065
528886 8 18408601440096102537
53812653 166 18411699872284473832
63268167 104 18340205193924488289

> <PUBCHEM_SHAPE_MULTIPOLES>
235.22
4.5
1.69
0.89
0.1
0.27
0.15
-1.16
-0.05
-0.23
-0.11
-0.23
0.07
-0.2

> <PUBCHEM_SHAPE_SELFOVERLAP>
482.259

> <PUBCHEM_SHAPE_VOLUME>
137.2

> <PUBCHEM_COORDINATE_TYPE>
2
5
10

$$$$
