15694364
  -OEChem-09102010593D

 74 78  0     1  0  0  0  0  0999 V2000
    4.6922    0.4690    0.9344 O   0  0  0  0  0  0  0  0  0  0  0  0
   -2.3954   -0.0178   -1.2134 O   0  0  0  0  0  0  0  0  0  0  0  0
    4.8975   -1.5592    1.9155 O   0  0  0  0  0  0  0  0  0  0  0  0
   -1.3780   -4.6385   -0.2824 O   0  0  0  0  0  0  0  0  0  0  0  0
   -3.3988    0.7866    0.7334 O   0  0  0  0  0  0  0  0  0  0  0  0
   -0.1595   -4.1535    1.6252 O   0  0  0  0  0  0  0  0  0  0  0  0
    5.4675    4.5767    0.6184 O   0  0  0  0  0  0  0  0  0  0  0  0
   -4.0523    1.6890   -2.7462 O   0  0  0  0  0  0  0  0  0  0  0  0
   -6.5919    2.2794   -1.3742 O   0  0  0  0  0  0  0  0  0  0  0  0
   -6.0965    3.1923    1.3235 O   0  0  0  0  0  0  0  0  0  0  0  0
   -4.9897    0.2916    2.9502 O   0  0  0  0  0  0  0  0  0  0  0  0
    2.2258   -0.3723   -0.1438 C   0  0  1  0  0  0  0  0  0  0  0  0
    1.2360   -0.9160   -1.2604 C   0  0  1  0  0  0  0  0  0  0  0  0
    0.8250   -2.4367   -1.1414 C   0  0  1  0  0  0  0  0  0  0  0  0
    3.4131   -1.3587    0.0023 C   0  0  2  0  0  0  0  0  0  0  0  0
    2.0835   -3.2929   -0.8370 C   0  0  0  0  0  0  0  0  0  0  0  0
    2.9369   -2.7778    0.3115 C   0  0  0  0  0  0  0  0  0  0  0  0
   -0.0139   -0.0328   -1.4935 C   0  0  0  0  0  0  0  0  0  0  0  0
    2.8119    1.0028   -0.5902 C   0  0  0  0  0  0  0  0  0  0  0  0
   -0.3254   -2.6042   -0.1607 C   0  0  0  0  0  0  0  0  0  0  0  0
    1.5447   -0.1521    1.2321 C   0  0  0  0  0  0  0  0  0  0  0  0
   -1.1729   -0.2685   -0.5176 C   0  0  2  0  0  0  0  0  0  0  0  0
    0.2858   -2.9421   -2.5096 C   0  0  0  0  0  0  0  0  0  0  0  0
    4.3091    1.1753   -0.2681 C   0  0  1  0  0  0  0  0  0  0  0  0
    4.4001   -0.8561    1.0433 C   0  0  0  0  0  0  0  0  0  0  0  0
   -1.2215   -1.6365    0.0949 C   0  0  0  0  0  0  0  0  0  0  0  0
   -0.5939   -3.8772    0.5201 C   0  0  0  0  0  0  0  0  0  0  0  0
    4.6981    2.6297   -0.1815 C   0  0  0  0  0  0  0  0  0  0  0  0
   -3.1070    1.0743   -0.6321 C   0  0  2  0  0  0  0  0  0  0  0  0
   -4.3984    1.2708   -1.4261 C   0  0  1  0  0  0  0  0  0  0  0  0
    4.5688    3.6017   -1.1963 C   0  0  0  0  0  0  0  0  0  0  0  0
    5.2481    3.2660    0.9018 C   0  0  0  0  0  0  0  0  0  0  0  0
   -5.2947    2.3260   -0.7780 C   0  0  2  0  0  0  0  0  0  0  0  0
   -4.0909    1.8545    1.3827 C   0  0  1  0  0  0  0  0  0  0  0  0
   -5.4538    2.0719    0.7211 C   0  0  1  0  0  0  0  0  0  0  0  0
    5.0514    4.7729   -0.6603 C   0  0  0  0  0  0  0  0  0  0  0  0
   -1.7299   -5.9209    0.2471 C   0  0  0  0  0  0  0  0  0  0  0  0
   -4.2311    1.4834    2.8557 C   0  0  0  0  0  0  0  0  0  0  0  0
    1.8170   -0.8458   -2.1943 H   0  0  0  0  0  0  0  0  0  0  0  0
    3.9729   -1.4082   -0.9433 H   0  0  0  0  0  0  0  0  0  0  0  0
    1.8015   -4.3331   -0.6304 H   0  0  0  0  0  0  0  0  0  0  0  0
    2.7166   -3.3357   -1.7347 H   0  0  0  0  0  0  0  0  0  0  0  0
    3.8028   -3.4420    0.4280 H   0  0  0  0  0  0  0  0  0  0  0  0
    2.3920   -2.8266    1.2600 H   0  0  0  0  0  0  0  0  0  0  0  0
   -0.3706   -0.2041   -2.5188 H   0  0  0  0  0  0  0  0  0  0  0  0
    0.2492    1.0318   -1.4844 H   0  0  0  0  0  0  0  0  0  0  0  0
    2.2316    1.8150   -0.1313 H   0  0  0  0  0  0  0  0  0  0  0  0
    2.6918    1.1502   -1.6719 H   0  0  0  0  0  0  0  0  0  0  0  0
    0.7986    0.6443    1.1915 H   0  0  0  0  0  0  0  0  0  0  0  0
    1.0678   -1.0538    1.6197 H   0  0  0  0  0  0  0  0  0  0  0  0
    2.2605    0.1719    1.9955 H   0  0  0  0  0  0  0  0  0  0  0  0
   -1.0546    0.4396    0.3094 H   0  0  0  0  0  0  0  0  0  0  0  0
    0.1179   -4.0258   -2.4974 H   0  0  0  0  0  0  0  0  0  0  0  0
   -0.6640   -2.4718   -2.7874 H   0  0  0  0  0  0  0  0  0  0  0  0
    1.0006   -2.7362   -3.3150 H   0  0  0  0  0  0  0  0  0  0  0  0
    4.9040    0.7408   -1.0838 H   0  0  0  0  0  0  0  0  0  0  0  0
   -2.0389   -1.8215    0.7892 H   0  0  0  0  0  0  0  0  0  0  0  0
   -2.4752    1.9707   -0.7044 H   0  0  0  0  0  0  0  0  0  0  0  0
   -4.9399    0.3214   -1.5225 H   0  0  0  0  0  0  0  0  0  0  0  0
    4.1756    3.4731   -2.1946 H   0  0  0  0  0  0  0  0  0  0  0  0
    5.5317    2.9537    1.8965 H   0  0  0  0  0  0  0  0  0  0  0  0
   -4.9070    3.3339   -0.9675 H   0  0  0  0  0  0  0  0  0  0  0  0
   -3.4823    2.7667    1.3256 H   0  0  0  0  0  0  0  0  0  0  0  0
   -6.1071    1.2039    0.8688 H   0  0  0  0  0  0  0  0  0  0  0  0
    5.1617    5.7786   -1.0386 H   0  0  0  0  0  0  0  0  0  0  0  0
   -0.8300   -6.5196    0.4179 H   0  0  0  0  0  0  0  0  0  0  0  0
   -2.3571   -6.4318   -0.4882 H   0  0  0  0  0  0  0  0  0  0  0  0
   -2.2990   -5.8045    1.1744 H   0  0  0  0  0  0  0  0  0  0  0  0
   -3.2467    1.2887    3.2940 H   0  0  0  0  0  0  0  0  0  0  0  0
   -4.7284    2.2730    3.4269 H   0  0  0  0  0  0  0  0  0  0  0  0
   -3.4684    1.0088   -3.1235 H   0  0  0  0  0  0  0  0  0  0  0  0
   -6.9539    1.3866   -1.2426 H   0  0  0  0  0  0  0  0  0  0  0  0
   -5.5251    3.9693    1.1990 H   0  0  0  0  0  0  0  0  0  0  0  0
   -5.0597    0.0701    3.8943 H   0  0  0  0  0  0  0  0  0  0  0  0
  1 24  1  0  0  0  0
  1 25  1  0  0  0  0
  2 22  1  0  0  0  0
  2 29  1  0  0  0  0
  3 25  2  0  0  0  0
  4 27  1  0  0  0  0
  4 37  1  0  0  0  0
  5 29  1  0  0  0  0
  5 34  1  0  0  0  0
  6 27  2  0  0  0  0
  7 32  1  0  0  0  0
  7 36  1  0  0  0  0
  8 30  1  0  0  0  0
  8 71  1  0  0  0  0
  9 33  1  0  0  0  0
  9 72  1  0  0  0  0
 10 35  1  0  0  0  0
 10 73  1  0  0  0  0
 11 38  1  0  0  0  0
 11 74  1  0  0  0  0
 12 13  1  0  0  0  0
 12 15  1  0  0  0  0
 12 19  1  0  0  0  0
 12 21  1  0  0  0  0
 13 14  1  0  0  0  0
 13 18  1  0  0  0  0
 13 39  1  0  0  0  0
 14 16  1  0  0  0  0
 14 20  1  0  0  0  0
 14 23  1  0  0  0  0
 15 17  1  0  0  0  0
 15 25  1  0  0  0  0
 15 40  1  0  0  0  0
 16 17  1  0  0  0  0
 16 41  1  0  0  0  0
 16 42  1  0  0  0  0
 17 43  1  0  0  0  0
 17 44  1  0  0  0  0
 18 22  1  0  0  0  0
 18 45  1  0  0  0  0
 18 46  1  0  0  0  0
 19 24  1  0  0  0  0
 19 47  1  0  0  0  0
 19 48  1  0  0  0  0
 20 26  2  0  0  0  0
 20 27  1  0  0  0  0
 21 49  1  0  0  0  0
 21 50  1  0  0  0  0
 21 51  1  0  0  0  0
 22 26  1  0  0  0  0
 22 52  1  0  0  0  0
 23 53  1  0  0  0  0
 23 54  1  0  0  0  0
 23 55  1  0  0  0  0
 24 28  1  0  0  0  0
 24 56  1  0  0  0  0
 26 57  1  0  0  0  0
 28 31  1  0  0  0  0
 28 32  2  0  0  0  0
 29 30  1  0  0  0  0
 29 58  1  0  0  0  0
 30 33  1  0  0  0  0
 30 59  1  0  0  0  0
 31 36  2  0  0  0  0
 31 60  1  0  0  0  0
 32 61  1  0  0  0  0
 33 35  1  0  0  0  0
 33 62  1  0  0  0  0
 34 35  1  0  0  0  0
 34 38  1  0  0  0  0
 34 63  1  0  0  0  0
 35 64  1  0  0  0  0
 36 65  1  0  0  0  0
 37 66  1  0  0  0  0
 37 67  1  0  0  0  0
 37 68  1  0  0  0  0
 38 69  1  0  0  0  0
 38 70  1  0  0  0  0
M  END
> <PUBCHEM_COMPOUND_CID>
15694364

> <PUBCHEM_CONFORMER_RMSD>
1

> <PUBCHEM_CONFORMER_DIVERSEORDER>
6
62
30
21
50
55
16
69
34
12
68
8
11
73
26
43
3
5
35
49
54
64
39
36
58
63
44
28
33
32
13
47
27
72
10
9
2
52
40
66
45
15
70
4
1
60
53
65
71
42
38
19
67
57
7
22
14
46
23
17
29
37
48
31
20
25
74
24
59
61
56
41
18
51

> <PUBCHEM_MMFF94_PARTIAL_CHARGES>
38
1 -0.43
10 -0.68
11 -0.68
14 0.14
15 0.06
2 -0.56
20 -0.12
22 0.42
24 0.46
25 0.66
26 -0.29
27 0.71
28 -0.18
29 0.56
3 -0.57
30 0.28
31 -0.15
32 -0.01
33 0.28
34 0.28
35 0.28
36 -0.01
37 0.28
38 0.28
4 -0.43
5 -0.56
57 0.15
6 -0.57
60 0.15
61 0.15
65 0.15
7 -0.28
71 0.4
72 0.4
73 0.4
74 0.4
8 -0.68
9 -0.68

> <PUBCHEM_EFFECTIVE_ROTOR_COUNT>
8.6

> <PUBCHEM_PHARMACOPHORE_FEATURES>
18
1 10 acceptor
1 10 donor
1 11 acceptor
1 11 donor
1 2 acceptor
1 3 acceptor
1 5 acceptor
1 6 acceptor
1 7 acceptor
1 8 acceptor
1 8 donor
1 9 acceptor
1 9 donor
5 7 28 31 32 36 rings
6 1 12 15 19 24 25 rings
6 12 13 14 15 16 17 rings
6 13 14 18 20 22 26 rings
6 5 29 30 33 34 35 rings

> <PUBCHEM_HEAVY_ATOM_COUNT>
38

> <PUBCHEM_ATOM_DEF_STEREO_COUNT>
11

> <PUBCHEM_ATOM_UDEF_STEREO_COUNT>
0

> <PUBCHEM_BOND_DEF_STEREO_COUNT>
0

> <PUBCHEM_BOND_UDEF_STEREO_COUNT>
0

> <PUBCHEM_ISOTOPIC_ATOM_COUNT>
0

> <PUBCHEM_COMPONENT_COUNT>
1

> <PUBCHEM_CACTVS_TAUTO_COUNT>
1

> <PUBCHEM_CONFORMER_ID>
00EF7A1C00000006

> <PUBCHEM_MMFF94_ENERGY>
116.8581

> <PUBCHEM_FEATURE_SELFOVERLAP>
91.485

> <PUBCHEM_SHAPE_FINGERPRINT>
102385 1 18339081592237612702
10675989 125 18341048506516684360
10816530 23 18408605885181779418
10937287 8 18340764970387681932
10985338 15 17983333475261381543
11135609 201 18129669745180909424
11285246 1 11671519879891626844
12608794 3 18118373238806619638
12788726 201 17981872344235206135
14251764 75 18339928224585463364
14849402 71 18267871584040129726
16096371 109 18263932029645989105
19246450 95 17756387558413381664
19309040 13 17845949480106719613
20511986 3 17415258556720379313
21033650 10 15267348396750034643
21716022 299 14834722340956657550
22122407 14 18267024964593609017
23536364 44 11527681738934484477
376196 1 18412826875950594830
4173938 306 17240757343119939901
44880168 125 12758247438838020840
474 4 18270113505334114647
57724786 102 18412827958577836628
6034566 193 18340492282323663301
6058803 2 18122602085413660374
9896288 288 18048319144154450574

> <PUBCHEM_SHAPE_MULTIPOLES>
717.46
13.75
7.13
2.12
5.69
4.51
0.39
-22.29
3.13
-2.81
0.13
2.56
-0.39
-0.7

> <PUBCHEM_SHAPE_SELFOVERLAP>
1538.991

> <PUBCHEM_SHAPE_VOLUME>
390.8

> <PUBCHEM_COORDINATE_TYPE>
2
5
10

$$$$
