167718
  -OEChem-09102011203D

 51 53  0     1  0  0  0  0  0999 V2000
    3.0711    3.4632    0.3397 O   0  0  0  0  0  0  0  0  0  0  0  0
    0.5421    3.1985   -0.7791 O   0  0  0  0  0  0  0  0  0  0  0  0
   -3.1142    2.1801    0.8389 O   0  0  0  0  0  0  0  0  0  0  0  0
   -5.0887    0.8841   -0.6256 O   0  0  0  0  0  0  0  0  0  0  0  0
    1.7464   -2.8635   -0.2797 N   0  3  0  0  0  0  0  0  0  0  0  0
    0.7262   -1.6794   -0.2926 C   0  0  2  0  0  0  0  0  0  0  0  0
    2.7211   -2.6944    0.8889 C   0  0  0  0  0  0  0  0  0  0  0  0
    1.3801   -0.3172   -0.1374 C   0  0  0  0  0  0  0  0  0  0  0  0
    3.4896   -1.3806    0.8001 C   0  0  0  0  0  0  0  0  0  0  0  0
   -0.3568   -1.8469    0.7869 C   0  0  0  0  0  0  0  0  0  0  0  0
    2.6584   -0.1817    0.4292 C   0  0  0  0  0  0  0  0  0  0  0  0
    2.5008   -2.9048   -1.6207 C   0  0  0  0  0  0  0  0  0  0  0  0
    1.0516   -4.2236   -0.1407 C   0  0  0  0  0  0  0  0  0  0  0  0
    0.6825    0.8340   -0.5410 C   0  0  0  0  0  0  0  0  0  0  0  0
   -1.6133   -1.1184    0.4130 C   0  0  0  0  0  0  0  0  0  0  0  0
    3.2143    1.0988    0.5786 C   0  0  0  0  0  0  0  0  0  0  0  0
    1.2427    2.1006   -0.3813 C   0  0  0  0  0  0  0  0  0  0  0  0
    2.5081    2.2332    0.1808 C   0  0  0  0  0  0  0  0  0  0  0  0
   -1.7837    0.2056    0.8027 C   0  0  0  0  0  0  0  0  0  0  0  0
   -2.5973   -1.7731   -0.3197 C   0  0  0  0  0  0  0  0  0  0  0  0
   -2.9526    0.8831    0.4555 C   0  0  0  0  0  0  0  0  0  0  0  0
   -3.7660   -1.0958   -0.6669 C   0  0  0  0  0  0  0  0  0  0  0  0
   -3.9436    0.2324   -0.2795 C   0  0  0  0  0  0  0  0  0  0  0  0
    3.8616    3.9587   -0.7393 C   0  0  0  0  0  0  0  0  0  0  0  0
   -6.1802    0.8072    0.2894 C   0  0  0  0  0  0  0  0  0  0  0  0
    0.2689   -1.7362   -1.2903 H   0  0  0  0  0  0  0  0  0  0  0  0
    3.4050   -3.5512    0.8872 H   0  0  0  0  0  0  0  0  0  0  0  0
    2.1260   -2.7290    1.8092 H   0  0  0  0  0  0  0  0  0  0  0  0
    4.2948   -1.4790    0.0611 H   0  0  0  0  0  0  0  0  0  0  0  0
    3.9722   -1.2027    1.7693 H   0  0  0  0  0  0  0  0  0  0  0  0
   -0.0010   -1.4981    1.7661 H   0  0  0  0  0  0  0  0  0  0  0  0
   -0.6554   -2.8842    0.9519 H   0  0  0  0  0  0  0  0  0  0  0  0
    3.2843   -3.6653   -1.5520 H   0  0  0  0  0  0  0  0  0  0  0  0
    1.7840   -3.1635   -2.4063 H   0  0  0  0  0  0  0  0  0  0  0  0
    2.9385   -1.9260   -1.8276 H   0  0  0  0  0  0  0  0  0  0  0  0
    0.7309   -4.3678    0.8940 H   0  0  0  0  0  0  0  0  0  0  0  0
    0.2100   -4.2564   -0.8385 H   0  0  0  0  0  0  0  0  0  0  0  0
    1.7774   -5.0053   -0.3882 H   0  0  0  0  0  0  0  0  0  0  0  0
   -0.2519    0.7439   -1.0874 H   0  0  0  0  0  0  0  0  0  0  0  0
    4.2105    1.2090    1.0020 H   0  0  0  0  0  0  0  0  0  0  0  0
   -1.0461    0.6988    1.4306 H   0  0  0  0  0  0  0  0  0  0  0  0
   -2.4686   -2.8065   -0.6301 H   0  0  0  0  0  0  0  0  0  0  0  0
   -4.5333   -1.6084   -1.2410 H   0  0  0  0  0  0  0  0  0  0  0  0
   -0.3196    2.9156   -1.1304 H   0  0  0  0  0  0  0  0  0  0  0  0
    3.2596    4.0484   -1.6491 H   0  0  0  0  0  0  0  0  0  0  0  0
    4.7191    3.3024   -0.9191 H   0  0  0  0  0  0  0  0  0  0  0  0
    4.2316    4.9505   -0.4656 H   0  0  0  0  0  0  0  0  0  0  0  0
   -2.3242    2.4671    1.3283 H   0  0  0  0  0  0  0  0  0  0  0  0
   -6.5005   -0.2317    0.4173 H   0  0  0  0  0  0  0  0  0  0  0  0
   -7.0140    1.3820   -0.1229 H   0  0  0  0  0  0  0  0  0  0  0  0
   -5.9033    1.2371    1.2571 H   0  0  0  0  0  0  0  0  0  0  0  0
  1 18  1  0  0  0  0
  1 24  1  0  0  0  0
  2 17  1  0  0  0  0
  2 44  1  0  0  0  0
  3 21  1  0  0  0  0
  3 48  1  0  0  0  0
  4 23  1  0  0  0  0
  4 25  1  0  0  0  0
  5  6  1  0  0  0  0
  5  7  1  0  0  0  0
  5 12  1  0  0  0  0
  5 13  1  0  0  0  0
  6  8  1  0  0  0  0
  6 10  1  0  0  0  0
  6 26  1  0  0  0  0
  7  9  1  0  0  0  0
  7 27  1  0  0  0  0
  7 28  1  0  0  0  0
  8 11  1  0  0  0  0
  8 14  2  0  0  0  0
  9 11  1  0  0  0  0
  9 29  1  0  0  0  0
  9 30  1  0  0  0  0
 10 15  1  0  0  0  0
 10 31  1  0  0  0  0
 10 32  1  0  0  0  0
 11 16  2  0  0  0  0
 12 33  1  0  0  0  0
 12 34  1  0  0  0  0
 12 35  1  0  0  0  0
 13 36  1  0  0  0  0
 13 37  1  0  0  0  0
 13 38  1  0  0  0  0
 14 17  1  0  0  0  0
 14 39  1  0  0  0  0
 15 19  2  0  0  0  0
 15 20  1  0  0  0  0
 16 18  1  0  0  0  0
 16 40  1  0  0  0  0
 17 18  2  0  0  0  0
 19 21  1  0  0  0  0
 19 41  1  0  0  0  0
 20 22  2  0  0  0  0
 20 42  1  0  0  0  0
 21 23  2  0  0  0  0
 22 23  1  0  0  0  0
 22 43  1  0  0  0  0
 24 45  1  0  0  0  0
 24 46  1  0  0  0  0
 24 47  1  0  0  0  0
 25 49  1  0  0  0  0
 25 50  1  0  0  0  0
 25 51  1  0  0  0  0
M  CHG  1   5   1
M  END
> <PUBCHEM_COMPOUND_CID>
167718

> <PUBCHEM_CONFORMER_RMSD>
0.8

> <PUBCHEM_CONFORMER_DIVERSEORDER>
3
8
13
2
7
10
1
14
12
9
5
4
6
11

> <PUBCHEM_MMFF94_PARTIAL_CHARGES>
32
1 -0.36
10 0.14
11 -0.14
12 0.5
13 0.5
14 -0.15
15 -0.14
16 -0.15
17 0.08
18 0.08
19 -0.15
2 -0.53
20 -0.15
21 0.08
22 -0.15
23 0.08
24 0.28
25 0.28
3 -0.53
39 0.15
4 -0.36
40 0.15
41 0.15
42 0.15
43 0.15
44 0.45
48 0.45
5 -1.01
6 0.65
7 0.5
8 -0.14
9 0.14

> <PUBCHEM_EFFECTIVE_ROTOR_COUNT>
4.8

> <PUBCHEM_PHARMACOPHORE_FEATURES>
8
1 1 acceptor
1 2 donor
1 3 donor
1 4 acceptor
1 5 cation
6 15 19 20 21 22 23 rings
6 5 6 7 8 9 11 rings
6 8 11 14 16 17 18 rings

> <PUBCHEM_HEAVY_ATOM_COUNT>
25

> <PUBCHEM_ATOM_DEF_STEREO_COUNT>
1

> <PUBCHEM_ATOM_UDEF_STEREO_COUNT>
0

> <PUBCHEM_BOND_DEF_STEREO_COUNT>
0

> <PUBCHEM_BOND_UDEF_STEREO_COUNT>
0

> <PUBCHEM_ISOTOPIC_ATOM_COUNT>
0

> <PUBCHEM_COMPONENT_COUNT>
1

> <PUBCHEM_CACTVS_TAUTO_COUNT>
26

> <PUBCHEM_CONFORMER_ID>
00028F2600000003

> <PUBCHEM_MMFF94_ENERGY>
110.0997

> <PUBCHEM_FEATURE_SELFOVERLAP>
40.616

> <PUBCHEM_SHAPE_FINGERPRINT>
10411042 1 17905606601386166226
10906281 52 18335433326730022762
10967382 1 18410009892884649618
11370993 70 18267015253049339529
116883 192 18123185702005437246
12553582 1 18050294669379500342
12633257 1 18041543806831544650
12788726 201 17541955182631096178
13140716 1 18335420209377531474
13583140 156 18041003886915180075
138480 1 18266177236431705778
13944108 23 18263650575812760396
14790565 3 18336549425838468052
14955137 171 17620790209407521555
15081414 286 18267305326550492190
15420108 30 18197479917753947202
17492 89 18413105074326759375
17818456 19 17343509895316436345
17980427 23 18127380480668278762
19591789 44 18336828710307686476
20157964 124 18410285909685856029
20715895 44 18268701711530788685
20739085 24 18260543459348008204
21033648 144 18115294708984956469
21033648 29 17983010356055533016
21033650 10 15553906424580173475
21197605 99 18192436483888122491
21860390 5 18341894048090334494
22393880 68 18269280217032544516
2255824 54 18411419501330642266
23419403 2 17606370243226804662
23558518 356 17970911295922874363
23559900 14 18271800220310698562
23929065 36 16903260375942023272
3091708 16 9361232640388795314
345986 75 16955603262389371546
352729 6 17905895034283223114
4409770 3 16680632858549356502
474 4 18409727387273894227
495365 180 18342448283417929336
5104073 3 18334295392535651547
5939293 188 18410288078285878122
6443956 14 18337952264587021750
67856867 119 18341038688241843371
7364860 26 18413108342305514026
7832392 63 18124880062366998131
81228 2 17614013888980664042
8272917 22 18412263938844690567
84936 182 18272085053925688496
9709674 26 18411983559581213959
9981440 41 18120931964976736489

> <PUBCHEM_SHAPE_MULTIPOLES>
486.03
8.81
4.91
1
12.81
0.32
0.11
4.64
-0.04
-6.4
0.9
-0.32
-0.28
-0.52

> <PUBCHEM_SHAPE_SELFOVERLAP>
1036.903

> <PUBCHEM_SHAPE_VOLUME>
271.5

> <PUBCHEM_COORDINATE_TYPE>
2
5
10

$$$$
