188289
  -OEChem-09102011033D

 48 52  0     1  0  0  0  0  0999 V2000
   -2.0667    2.2576   -0.5184 O   0  0  0  0  0  0  0  0  0  0  0  0
    2.1299   -1.1258   -0.9060 O   0  0  0  0  0  0  0  0  0  0  0  0
   -4.5748   -0.3820   -0.5541 O   0  0  0  0  0  0  0  0  0  0  0  0
   -3.8850    1.9592   -1.8831 O   0  0  0  0  0  0  0  0  0  0  0  0
    1.1661   -3.1018   -1.2799 O   0  0  0  0  0  0  0  0  0  0  0  0
    5.4790    1.9442   -0.2721 O   0  0  0  0  0  0  0  0  0  0  0  0
   -0.8620    0.2706    0.1455 C   0  0  2  0  0  0  0  0  0  0  0  0
   -2.0951   -0.6106   -0.3243 C   0  0  1  0  0  0  0  0  0  0  0  0
    0.1675   -0.4369    1.1026 C   0  0  1  0  0  0  0  0  0  0  0  0
    0.3916   -1.9014    0.6699 C   0  0  1  0  0  0  0  0  0  0  0  0
   -2.2164   -1.9149    0.4900 C   0  0  0  0  0  0  0  0  0  0  0  0
   -3.3915    0.2753   -0.1680 C   0  0  2  0  0  0  0  0  0  0  0  0
   -1.4079    1.6478    0.6373 C   0  0  2  0  0  0  0  0  0  0  0  0
   -0.9191   -2.7200    0.6049 C   0  0  0  0  0  0  0  0  0  0  0  0
    1.5463    0.2644    1.0614 C   0  0  0  0  0  0  0  0  0  0  0  0
   -1.9221   -1.0126   -1.8158 C   0  0  0  0  0  0  0  0  0  0  0  0
   -0.2440   -0.4072    2.5984 C   0  0  0  0  0  0  0  0  0  0  0  0
   -3.5341    0.7805    1.2506 C   0  0  0  0  0  0  0  0  0  0  0  0
   -2.4845    1.4948    1.6788 C   0  0  0  0  0  0  0  0  0  0  0  0
    2.2212    0.1863   -0.3031 C   0  0  1  0  0  0  0  0  0  0  0  0
   -3.1749    1.5701   -0.9662 C   0  0  0  0  0  0  0  0  0  0  0  0
    1.2246   -2.0793   -0.5982 C   0  0  0  0  0  0  0  0  0  0  0  0
    3.6623    0.6358   -0.2355 C   0  0  0  0  0  0  0  0  0  0  0  0
    4.7887   -0.1763    0.0088 C   0  0  0  0  0  0  0  0  0  0  0  0
    4.1265    1.9144   -0.4000 C   0  0  0  0  0  0  0  0  0  0  0  0
    5.8741    0.6681   -0.0234 C   0  0  0  0  0  0  0  0  0  0  0  0
   -0.3247    0.5057   -0.7812 H   0  0  0  0  0  0  0  0  0  0  0  0
    1.0221   -2.3896    1.4299 H   0  0  0  0  0  0  0  0  0  0  0  0
   -2.9887   -2.5626    0.0530 H   0  0  0  0  0  0  0  0  0  0  0  0
   -2.5859   -1.7060    1.4987 H   0  0  0  0  0  0  0  0  0  0  0  0
   -0.6174    2.3279    0.9641 H   0  0  0  0  0  0  0  0  0  0  0  0
   -0.9921   -3.3264    1.5180 H   0  0  0  0  0  0  0  0  0  0  0  0
   -0.8972   -3.4504   -0.2118 H   0  0  0  0  0  0  0  0  0  0  0  0
    2.2036   -0.2158    1.8019 H   0  0  0  0  0  0  0  0  0  0  0  0
    1.4652    1.3131    1.3748 H   0  0  0  0  0  0  0  0  0  0  0  0
   -1.8166   -0.1364   -2.4642 H   0  0  0  0  0  0  0  0  0  0  0  0
   -1.0385   -1.6331   -1.9773 H   0  0  0  0  0  0  0  0  0  0  0  0
   -2.7884   -1.5810   -2.1725 H   0  0  0  0  0  0  0  0  0  0  0  0
    0.4575   -0.9906    3.2079 H   0  0  0  0  0  0  0  0  0  0  0  0
   -0.2223    0.6119    2.9995 H   0  0  0  0  0  0  0  0  0  0  0  0
   -1.2343   -0.8205    2.7886 H   0  0  0  0  0  0  0  0  0  0  0  0
   -4.3955    0.5716    1.8712 H   0  0  0  0  0  0  0  0  0  0  0  0
   -2.4155    1.9258    2.6677 H   0  0  0  0  0  0  0  0  0  0  0  0
    1.7200    0.8648   -1.0037 H   0  0  0  0  0  0  0  0  0  0  0  0
   -5.3309    0.1980   -0.3602 H   0  0  0  0  0  0  0  0  0  0  0  0
    4.8170   -1.2415    0.1885 H   0  0  0  0  0  0  0  0  0  0  0  0
    3.6558    2.8657   -0.6020 H   0  0  0  0  0  0  0  0  0  0  0  0
    6.9370    0.5246    0.1053 H   0  0  0  0  0  0  0  0  0  0  0  0
  1 13  1  0  0  0  0
  1 21  1  0  0  0  0
  2 20  1  0  0  0  0
  2 22  1  0  0  0  0
  3 12  1  0  0  0  0
  3 45  1  0  0  0  0
  4 21  2  0  0  0  0
  5 22  2  0  0  0  0
  6 25  1  0  0  0  0
  6 26  1  0  0  0  0
  7  8  1  0  0  0  0
  7  9  1  0  0  0  0
  7 13  1  0  0  0  0
  7 27  1  0  0  0  0
  8 11  1  0  0  0  0
  8 12  1  0  0  0  0
  8 16  1  0  0  0  0
  9 10  1  0  0  0  0
  9 15  1  0  0  0  0
  9 17  1  0  0  0  0
 10 14  1  0  0  0  0
 10 22  1  0  0  0  0
 10 28  1  0  0  0  0
 11 14  1  0  0  0  0
 11 29  1  0  0  0  0
 11 30  1  0  0  0  0
 12 18  1  0  0  0  0
 12 21  1  0  0  0  0
 13 19  1  0  0  0  0
 13 31  1  0  0  0  0
 14 32  1  0  0  0  0
 14 33  1  0  0  0  0
 15 20  1  0  0  0  0
 15 34  1  0  0  0  0
 15 35  1  0  0  0  0
 16 36  1  0  0  0  0
 16 37  1  0  0  0  0
 16 38  1  0  0  0  0
 17 39  1  0  0  0  0
 17 40  1  0  0  0  0
 17 41  1  0  0  0  0
 18 19  2  0  0  0  0
 18 42  1  0  0  0  0
 19 43  1  0  0  0  0
 20 23  1  0  0  0  0
 20 44  1  0  0  0  0
 23 24  1  0  0  0  0
 23 25  2  0  0  0  0
 24 26  2  0  0  0  0
 24 46  1  0  0  0  0
 25 47  1  0  0  0  0
 26 48  1  0  0  0  0
M  END
> <PUBCHEM_COMPOUND_CID>
188289

> <PUBCHEM_CONFORMER_RMSD>
0.6

> <PUBCHEM_CONFORMER_DIVERSEORDER>
7
5
3
1
4
8
6
2

> <PUBCHEM_MMFF94_PARTIAL_CHARGES>
24
1 -0.43
10 0.06
12 0.48
13 0.42
18 -0.29
19 -0.29
2 -0.43
20 0.46
21 0.66
22 0.66
23 -0.18
24 -0.15
25 -0.01
26 -0.01
3 -0.68
4 -0.57
42 0.15
43 0.15
45 0.4
46 0.15
47 0.15
48 0.15
5 -0.57
6 -0.28

> <PUBCHEM_EFFECTIVE_ROTOR_COUNT>
2.2

> <PUBCHEM_PHARMACOPHORE_FEATURES>
9
1 3 acceptor
1 3 donor
1 4 acceptor
1 5 acceptor
1 6 acceptor
5 6 23 24 25 26 rings
6 2 9 10 15 20 22 rings
6 7 8 9 10 11 14 rings
8 1 7 8 12 13 18 19 21 rings

> <PUBCHEM_HEAVY_ATOM_COUNT>
26

> <PUBCHEM_ATOM_DEF_STEREO_COUNT>
7

> <PUBCHEM_ATOM_UDEF_STEREO_COUNT>
0

> <PUBCHEM_BOND_DEF_STEREO_COUNT>
0

> <PUBCHEM_BOND_UDEF_STEREO_COUNT>
0

> <PUBCHEM_ISOTOPIC_ATOM_COUNT>
0

> <PUBCHEM_COMPONENT_COUNT>
1

> <PUBCHEM_CACTVS_TAUTO_COUNT>
1

> <PUBCHEM_CONFORMER_ID>
0002DF8100000007

> <PUBCHEM_MMFF94_ENERGY>
94.9281

> <PUBCHEM_FEATURE_SELFOVERLAP>
45.751

> <PUBCHEM_SHAPE_FINGERPRINT>
10498660 4 18335134242113260853
10863032 1 18271814454196443975
10948715 1 18260825973258086371
11370993 70 18410855447623178806
11552529 35 14563109086041392240
11725454 13 17749663009031017012
11961588 58 17968921029916254205
121448 382 18187365462591871179
12403814 3 18334866021500434761
12788726 201 15768946631827798667
13103583 49 8430031039962593733
13583140 156 17386011684649352296
13911987 19 17202493380305718160
14142880 1 17988382419428199577
14713325 29 18338243785397903050
14787075 74 18411416250383271011
15183329 4 18335989701710798222
15420108 30 16259006451288982434
15463212 79 18261102032634640554
15840311 113 17980215089294139937
16945 1 17692248539601906851
17349148 13 17916590830654469410
17492 54 18189314910109498639
18981168 100 18042689386489572647
200 152 16559037090729428504
20775438 99 16043607204752998871
20775530 9 11526505308300217844
21033648 144 18337670940404334044
21033648 29 16443331118478590164
21033650 10 17201111182510236280
21524375 3 18410295826338074418
22907989 373 18124884718243058596
22950370 63 8214144058374304936
23175994 123 11095878268082578921
23227448 37 18335423512165340037
23402539 116 18337104670055512350
23559900 14 18272094868986262422
2838139 119 18041264496513427268
4017518 198 17703789186227192430
4028521 119 18409163303190890644
4371632 12 14545336713676892104
469060 322 18118986899122530611
474 4 18411140208297271890
633830 44 18056208968421477425
9981440 41 18334856134470213818

> <PUBCHEM_SHAPE_MULTIPOLES>
499.85
9.17
2.68
1.61
11.9
1.06
-0.38
-5.72
2.04
-0.37
0.54
-1.28
-0.02
0.28

> <PUBCHEM_SHAPE_SELFOVERLAP>
1113.293

> <PUBCHEM_SHAPE_VOLUME>
262.4

> <PUBCHEM_COORDINATE_TYPE>
2
5
10

$$$$
