101862379
  -OEChem-09102011123D

 51 54  0     1  0  0  0  0  0999 V2000
   -2.3828   -1.2566   -1.6167 O   0  0  0  0  0  0  0  0  0  0  0  0
   -4.5415   -0.3909    1.1733 O   0  0  0  0  0  0  0  0  0  0  0  0
   -4.4992   -0.3824   -1.5932 O   0  0  0  0  0  0  0  0  0  0  0  0
    1.3528    3.7631    0.6428 O   0  0  0  0  0  0  0  0  0  0  0  0
    1.8184    2.5876   -1.2906 O   0  0  0  0  0  0  0  0  0  0  0  0
    5.3871   -2.3313    0.8404 O   0  0  0  0  0  0  0  0  0  0  0  0
   -2.1000    0.0810    0.9030 C   0  0  2  0  0  0  0  0  0  0  0  0
   -0.8465   -0.5552    0.1616 C   0  0  2  0  0  0  0  0  0  0  0  0
    0.0929    0.4652   -0.5791 C   0  0  2  0  0  0  0  0  0  0  0  0
   -3.3560   -0.7998    0.5341 C   0  0  1  0  0  0  0  0  0  0  0  0
   -2.3277    1.5624    0.5224 C   0  0  0  0  0  0  0  0  0  0  0  0
   -1.3524   -1.7445   -0.7135 C   0  0  1  0  0  0  0  0  0  0  0  0
    0.2410    1.7231    0.3204 C   0  0  2  0  0  0  0  0  0  0  0  0
   -1.0820    2.4433    0.6073 C   0  0  0  0  0  0  0  0  0  0  0  0
   -1.8752    0.0318    2.4399 C   0  0  0  0  0  0  0  0  0  0  0  0
   -3.0932   -2.2636    0.8225 C   0  0  0  0  0  0  0  0  0  0  0  0
   -0.3594    0.8360   -2.0078 C   0  0  0  0  0  0  0  0  0  0  0  0
   -2.0241   -2.7577    0.1814 C   0  0  0  0  0  0  0  0  0  0  0  0
   -3.5096   -0.7750   -0.9908 C   0  0  0  0  0  0  0  0  0  0  0  0
    1.4512   -0.2027   -0.7264 C   0  0  0  0  0  0  0  0  0  0  0  0
    1.2298    2.7195   -0.2260 C   0  0  0  0  0  0  0  0  0  0  0  0
    2.1601   -0.6726    0.3117 C   0  0  0  0  0  0  0  0  0  0  0  0
    3.4808   -1.3170    0.2168 C   0  0  0  0  0  0  0  0  0  0  0  0
    2.2665    4.7900    0.2448 C   0  0  0  0  0  0  0  0  0  0  0  0
    4.2522   -1.5677   -0.9431 C   0  0  0  0  0  0  0  0  0  0  0  0
    4.2145   -1.8000    1.2753 C   0  0  0  0  0  0  0  0  0  0  0  0
    5.4023   -2.1860   -0.5107 C   0  0  0  0  0  0  0  0  0  0  0  0
   -0.2600   -1.0294    0.9598 H   0  0  0  0  0  0  0  0  0  0  0  0
   -3.1118    2.0008    1.1541 H   0  0  0  0  0  0  0  0  0  0  0  0
   -2.7282    1.6350   -0.4935 H   0  0  0  0  0  0  0  0  0  0  0  0
   -0.5584   -2.2122   -1.3024 H   0  0  0  0  0  0  0  0  0  0  0  0
    0.6545    1.4093    1.2893 H   0  0  0  0  0  0  0  0  0  0  0  0
   -1.2232    3.2967   -0.0695 H   0  0  0  0  0  0  0  0  0  0  0  0
   -1.0292    2.8805    1.6137 H   0  0  0  0  0  0  0  0  0  0  0  0
   -1.7239   -0.9913    2.8003 H   0  0  0  0  0  0  0  0  0  0  0  0
   -2.7352    0.4449    2.9788 H   0  0  0  0  0  0  0  0  0  0  0  0
   -0.9939    0.6068    2.7403 H   0  0  0  0  0  0  0  0  0  0  0  0
   -3.6917   -2.8493    1.5078 H   0  0  0  0  0  0  0  0  0  0  0  0
   -1.3368    1.3207   -2.0281 H   0  0  0  0  0  0  0  0  0  0  0  0
   -0.4313   -0.0540   -2.6444 H   0  0  0  0  0  0  0  0  0  0  0  0
    0.3238    1.4998   -2.5420 H   0  0  0  0  0  0  0  0  0  0  0  0
   -1.6753   -3.7753    0.2868 H   0  0  0  0  0  0  0  0  0  0  0  0
    1.8523   -0.3076   -1.7320 H   0  0  0  0  0  0  0  0  0  0  0  0
   -5.2457   -1.0268    0.9600 H   0  0  0  0  0  0  0  0  0  0  0  0
    1.7811   -0.5673    1.3247 H   0  0  0  0  0  0  0  0  0  0  0  0
    2.2724    5.5596    1.0213 H   0  0  0  0  0  0  0  0  0  0  0  0
    1.9403    5.2429   -0.6963 H   0  0  0  0  0  0  0  0  0  0  0  0
    3.2767    4.3810    0.1477 H   0  0  0  0  0  0  0  0  0  0  0  0
    4.0156   -1.3338   -1.9714 H   0  0  0  0  0  0  0  0  0  0  0  0
    4.0544   -1.8414    2.3434 H   0  0  0  0  0  0  0  0  0  0  0  0
    6.2813   -2.5645   -1.0115 H   0  0  0  0  0  0  0  0  0  0  0  0
  1 12  1  0  0  0  0
  1 19  1  0  0  0  0
  2 10  1  0  0  0  0
  2 44  1  0  0  0  0
  3 19  2  0  0  0  0
  4 21  1  0  0  0  0
  4 24  1  0  0  0  0
  5 21  2  0  0  0  0
  6 26  1  0  0  0  0
  6 27  1  0  0  0  0
  7  8  1  0  0  0  0
  7 10  1  0  0  0  0
  7 11  1  0  0  0  0
  7 15  1  0  0  0  0
  8  9  1  0  0  0  0
  8 12  1  0  0  0  0
  8 28  1  0  0  0  0
  9 13  1  0  0  0  0
  9 17  1  0  0  0  0
  9 20  1  0  0  0  0
 10 16  1  0  0  0  0
 10 19  1  0  0  0  0
 11 14  1  0  0  0  0
 11 29  1  0  0  0  0
 11 30  1  0  0  0  0
 12 18  1  0  0  0  0
 12 31  1  0  0  0  0
 13 14  1  0  0  0  0
 13 21  1  0  0  0  0
 13 32  1  0  0  0  0
 14 33  1  0  0  0  0
 14 34  1  0  0  0  0
 15 35  1  0  0  0  0
 15 36  1  0  0  0  0
 15 37  1  0  0  0  0
 16 18  2  0  0  0  0
 16 38  1  0  0  0  0
 17 39  1  0  0  0  0
 17 40  1  0  0  0  0
 17 41  1  0  0  0  0
 18 42  1  0  0  0  0
 20 22  2  0  0  0  0
 20 43  1  0  0  0  0
 22 23  1  0  0  0  0
 22 45  1  0  0  0  0
 23 25  1  0  0  0  0
 23 26  2  0  0  0  0
 24 46  1  0  0  0  0
 24 47  1  0  0  0  0
 24 48  1  0  0  0  0
 25 27  2  0  0  0  0
 25 49  1  0  0  0  0
 26 50  1  0  0  0  0
 27 51  1  0  0  0  0
M  END
> <PUBCHEM_COMPOUND_CID>
101862379

> <PUBCHEM_CONFORMER_RMSD>
0.8

> <PUBCHEM_CONFORMER_DIVERSEORDER>
1
10
13
5
14
12
11
4
6
3
7
2
8
9

> <PUBCHEM_MMFF94_PARTIAL_CHARGES>
29
1 -0.43
10 0.48
12 0.42
13 0.06
16 -0.29
18 -0.29
19 0.66
2 -0.68
20 -0.29
21 0.66
22 -0.1
23 -0.05
24 0.28
25 -0.15
26 -0.01
27 -0.01
3 -0.57
38 0.15
4 -0.43
42 0.15
43 0.15
44 0.4
45 0.15
49 0.15
5 -0.57
50 0.15
51 0.15
6 -0.28
9 0.14

> <PUBCHEM_EFFECTIVE_ROTOR_COUNT>
5

> <PUBCHEM_PHARMACOPHORE_FEATURES>
8
1 2 acceptor
1 2 donor
1 3 acceptor
1 5 acceptor
1 6 acceptor
5 6 23 25 26 27 rings
6 7 8 9 11 13 14 rings
8 1 7 8 10 12 16 18 19 rings

> <PUBCHEM_HEAVY_ATOM_COUNT>
27

> <PUBCHEM_ATOM_DEF_STEREO_COUNT>
6

> <PUBCHEM_ATOM_UDEF_STEREO_COUNT>
0

> <PUBCHEM_BOND_DEF_STEREO_COUNT>
1

> <PUBCHEM_BOND_UDEF_STEREO_COUNT>
0

> <PUBCHEM_ISOTOPIC_ATOM_COUNT>
0

> <PUBCHEM_COMPONENT_COUNT>
1

> <PUBCHEM_CACTVS_TAUTO_COUNT>
2

> <PUBCHEM_CONFORMER_ID>
06124BEB00000001

> <PUBCHEM_MMFF94_ENERGY>
97.1582

> <PUBCHEM_FEATURE_SELFOVERLAP>
40.613

> <PUBCHEM_SHAPE_FINGERPRINT>
10863032 1 18194404631123131087
1100329 8 18339366249425886761
11370993 144 16915667969355334402
11578080 2 17967524701251146188
12166972 35 18201146733150655999
12553582 1 18409452449396150682
12714826 92 17895187745449606582
12788726 201 17902213530098167330
13140716 1 18339371880439001387
13533116 47 18192435397182262019
13540713 4 17969775475068520807
13540713 5 17987524887012123595
13544653 18 18409163316481805486
14068700 675 18059560382900001215
14142880 1 17914622644436733065
14955137 171 18194988286618222619
15042514 8 18122068602665795746
16945 1 18411707582294043335
17349148 13 17846502551656173119
17980427 23 17704353260200579393
1813 80 18341339911694627870
18222031 100 18342734105344876118
192875 21 18273213106048619103
20101258 96 18339366245700332896
20600515 1 18200887179486245568
20775530 9 17972889330015564403
21033648 29 17560228111953166002
21033650 10 12469487025574042326
21650355 55 18266742381324548424
23175994 123 18409444769788676447
23366157 5 18190749828312794508
23419403 2 17557385934651682593
23559900 14 18338790212516612850
3027735 51 18122615068329721399
314173 85 18341328903820360302
3178227 256 18121235190591980881
43471831 8 17835523000313623768
4409770 3 17901382290876441932
469060 322 17843651462429465910
5104073 3 18124620775908803315
7097593 13 18340494468614601432
90316 7 18268717099928787232
9981440 41 17546159066317799360

> <PUBCHEM_SHAPE_MULTIPOLES>
520.43
8.61
4.26
1.57
7.48
5.58
0
-8.19
0.57
3.87
0.48
-0.83
-0.14
-0.5

> <PUBCHEM_SHAPE_SELFOVERLAP>
1139.326

> <PUBCHEM_SHAPE_VOLUME>
278.6

> <PUBCHEM_COORDINATE_TYPE>
2
5
10

$$$$
