24721165
  -OEChem-09102011053D

 48 52  0     1  0  0  0  0  0999 V2000
   -2.5286    2.3169   -0.0349 O   0  0  0  0  0  0  0  0  0  0  0  0
    2.7700   -1.4662   -0.0525 O   0  0  0  0  0  0  0  0  0  0  0  0
   -4.7827   -0.5279   -0.3433 O   0  0  0  0  0  0  0  0  0  0  0  0
   -4.5254    2.1215   -1.1444 O   0  0  0  0  0  0  0  0  0  0  0  0
    1.8391   -3.5214    0.0593 O   0  0  0  0  0  0  0  0  0  0  0  0
    5.5241    2.1269   -0.6216 O   0  0  0  0  0  0  0  0  0  0  0  0
   -1.0709    0.3975   -0.0967 C   0  0  2  0  0  0  0  0  0  0  0  0
   -2.2922   -0.5077   -0.5622 C   0  0  1  0  0  0  0  0  0  0  0  0
    0.1893   -0.3675    0.4508 C   0  0  1  0  0  0  0  0  0  0  0  0
    0.3808   -1.6344   -0.4195 C   0  0  2  0  0  0  0  0  0  0  0  0
   -2.1625   -1.9687   -0.0703 C   0  0  0  0  0  0  0  0  0  0  0  0
   -3.6047    0.1595    0.0048 C   0  0  2  0  0  0  0  0  0  0  0  0
   -1.6227    1.5382    0.8100 C   0  0  2  0  0  0  0  0  0  0  0  0
   -0.7981   -2.6168   -0.3222 C   0  0  0  0  0  0  0  0  0  0  0  0
    1.4421    0.5596    0.3071 C   0  0  0  0  0  0  0  0  0  0  0  0
   -2.3562   -0.5507   -2.1147 C   0  0  0  0  0  0  0  0  0  0  0  0
    0.0948   -0.7470    1.9506 C   0  0  0  0  0  0  0  0  0  0  0  0
   -3.5270    0.2996    1.5096 C   0  0  0  0  0  0  0  0  0  0  0  0
   -2.4738    1.0105    1.9343 C   0  0  0  0  0  0  0  0  0  0  0  0
    2.5927   -0.0942   -0.4718 C   0  0  1  0  0  0  0  0  0  0  0  0
   -3.6367    1.6205   -0.4696 C   0  0  0  0  0  0  0  0  0  0  0  0
    1.7074   -2.3143   -0.1093 C   0  0  0  0  0  0  0  0  0  0  0  0
    3.8588    0.6528   -0.2958 C   0  0  0  0  0  0  0  0  0  0  0  0
    4.8315    0.4564    0.7133 C   0  0  0  0  0  0  0  0  0  0  0  0
    4.3265    1.6798   -1.0825 C   0  0  0  0  0  0  0  0  0  0  0  0
    5.8243    1.3772    0.4714 C   0  0  0  0  0  0  0  0  0  0  0  0
   -0.7314    0.9046   -1.0141 H   0  0  0  0  0  0  0  0  0  0  0  0
    0.4519   -1.3386   -1.4752 H   0  0  0  0  0  0  0  0  0  0  0  0
   -2.9378   -2.5951   -0.5318 H   0  0  0  0  0  0  0  0  0  0  0  0
   -2.3741   -2.0283    1.0024 H   0  0  0  0  0  0  0  0  0  0  0  0
   -0.8405    2.2116    1.1705 H   0  0  0  0  0  0  0  0  0  0  0  0
   -0.6285   -3.3622    0.4651 H   0  0  0  0  0  0  0  0  0  0  0  0
   -0.8421   -3.1926   -1.2564 H   0  0  0  0  0  0  0  0  0  0  0  0
    1.8002    0.8487    1.3051 H   0  0  0  0  0  0  0  0  0  0  0  0
    1.1901    1.5104   -0.1802 H   0  0  0  0  0  0  0  0  0  0  0  0
   -2.4423    0.4526   -2.5453 H   0  0  0  0  0  0  0  0  0  0  0  0
   -1.4659   -1.0099   -2.5529 H   0  0  0  0  0  0  0  0  0  0  0  0
   -3.2224   -1.1283   -2.4562 H   0  0  0  0  0  0  0  0  0  0  0  0
   -0.7734   -1.3611    2.1908 H   0  0  0  0  0  0  0  0  0  0  0  0
    0.9781   -1.3113    2.2718 H   0  0  0  0  0  0  0  0  0  0  0  0
    0.0552    0.1429    2.5879 H   0  0  0  0  0  0  0  0  0  0  0  0
   -4.2420   -0.1520    2.1847 H   0  0  0  0  0  0  0  0  0  0  0  0
   -2.2592    1.1999    2.9767 H   0  0  0  0  0  0  0  0  0  0  0  0
    2.3536   -0.1128   -1.5437 H   0  0  0  0  0  0  0  0  0  0  0  0
   -5.5348   -0.1032    0.1036 H   0  0  0  0  0  0  0  0  0  0  0  0
    4.8161   -0.2623    1.5202 H   0  0  0  0  0  0  0  0  0  0  0  0
    3.9472    2.1839   -1.9597 H   0  0  0  0  0  0  0  0  0  0  0  0
    6.7586    1.6147    0.9588 H   0  0  0  0  0  0  0  0  0  0  0  0
  1 13  1  0  0  0  0
  1 21  1  0  0  0  0
  2 20  1  0  0  0  0
  2 22  1  0  0  0  0
  3 12  1  0  0  0  0
  3 45  1  0  0  0  0
  4 21  2  0  0  0  0
  5 22  2  0  0  0  0
  6 25  1  0  0  0  0
  6 26  1  0  0  0  0
  7  8  1  0  0  0  0
  7  9  1  0  0  0  0
  7 13  1  0  0  0  0
  7 27  1  0  0  0  0
  8 11  1  0  0  0  0
  8 12  1  0  0  0  0
  8 16  1  0  0  0  0
  9 10  1  0  0  0  0
  9 15  1  0  0  0  0
  9 17  1  0  0  0  0
 10 14  1  0  0  0  0
 10 22  1  0  0  0  0
 10 28  1  0  0  0  0
 11 14  1  0  0  0  0
 11 29  1  0  0  0  0
 11 30  1  0  0  0  0
 12 18  1  0  0  0  0
 12 21  1  0  0  0  0
 13 19  1  0  0  0  0
 13 31  1  0  0  0  0
 14 32  1  0  0  0  0
 14 33  1  0  0  0  0
 15 20  1  0  0  0  0
 15 34  1  0  0  0  0
 15 35  1  0  0  0  0
 16 36  1  0  0  0  0
 16 37  1  0  0  0  0
 16 38  1  0  0  0  0
 17 39  1  0  0  0  0
 17 40  1  0  0  0  0
 17 41  1  0  0  0  0
 18 19  2  0  0  0  0
 18 42  1  0  0  0  0
 19 43  1  0  0  0  0
 20 23  1  0  0  0  0
 20 44  1  0  0  0  0
 23 24  1  0  0  0  0
 23 25  2  0  0  0  0
 24 26  2  0  0  0  0
 24 46  1  0  0  0  0
 25 47  1  0  0  0  0
 26 48  1  0  0  0  0
M  END
> <PUBCHEM_COMPOUND_CID>
24721165

> <PUBCHEM_CONFORMER_RMSD>
0.6

> <PUBCHEM_CONFORMER_DIVERSEORDER>
1
2

> <PUBCHEM_MMFF94_PARTIAL_CHARGES>
24
1 -0.43
10 0.06
12 0.48
13 0.42
18 -0.29
19 -0.29
2 -0.43
20 0.46
21 0.66
22 0.66
23 -0.18
24 -0.15
25 -0.01
26 -0.01
3 -0.68
4 -0.57
42 0.15
43 0.15
45 0.4
46 0.15
47 0.15
48 0.15
5 -0.57
6 -0.28

> <PUBCHEM_EFFECTIVE_ROTOR_COUNT>
2.2

> <PUBCHEM_PHARMACOPHORE_FEATURES>
9
1 3 acceptor
1 3 donor
1 4 acceptor
1 5 acceptor
1 6 acceptor
5 6 23 24 25 26 rings
6 2 9 10 15 20 22 rings
6 7 8 9 10 11 14 rings
8 1 7 8 12 13 18 19 21 rings

> <PUBCHEM_HEAVY_ATOM_COUNT>
26

> <PUBCHEM_ATOM_DEF_STEREO_COUNT>
7

> <PUBCHEM_ATOM_UDEF_STEREO_COUNT>
0

> <PUBCHEM_BOND_DEF_STEREO_COUNT>
0

> <PUBCHEM_BOND_UDEF_STEREO_COUNT>
0

> <PUBCHEM_ISOTOPIC_ATOM_COUNT>
0

> <PUBCHEM_COMPONENT_COUNT>
1

> <PUBCHEM_CACTVS_TAUTO_COUNT>
1

> <PUBCHEM_CONFORMER_ID>
0179370D00000001

> <PUBCHEM_MMFF94_ENERGY>
93.8058

> <PUBCHEM_FEATURE_SELFOVERLAP>
45.708

> <PUBCHEM_SHAPE_FINGERPRINT>
10411042 1 17330554757807931246
10498660 4 18341613707006289716
10670039 82 18335437746605247020
10863032 1 18265897960873980479
10948715 1 18333732394662641731
11370993 70 18410291398057935174
11578080 2 16952232249705400567
11961588 58 18115009837153480989
121448 382 18341611581071331234
12173636 292 18412547604249636046
12403814 3 17749383797538826119
12422481 6 18042109991438560840
12788726 201 16701189551491514609
13140716 1 18124884713800430929
13224815 77 18342175531487979338
13631057 29 18128531751152745023
14341114 176 8286193972572805860
14713325 29 18265340688424765290
14767858 380 18270384110038828087
14787075 74 18341893017757339571
14790565 3 17838906932491232065
15183329 4 18410304610368868204
15463212 79 18337100293626587450
15840311 113 18049450236962474429
16087824 20 18340767148738545471
16945 1 18198318793765641679
17349148 13 18334292072388748512
17980427 23 17531254963155192125
18222031 100 10953740040847848696
19784866 34 18413109467956249658
204376 136 18410017654212209394
20715895 44 17903343815315098349
21033650 10 17558864804194029512
22393880 68 18270688554252483742
22950370 63 9583525334757004196
23175994 123 9655574097909382369
23227448 37 18338802315713523020
23366157 5 18189620441172335698
23402539 116 18270675476288174124
23559900 14 18058727984374728854
23569917 315 18411702110649146470
283562 15 18194682789710817523
2838139 119 17895739708950999485
34934 24 18341046333257548545
350125 39 18195532712240409497
4340502 62 17458350719404284403
469060 322 18121236512729277443
474 4 18334296461708083858
5104073 3 18189622652879267305
6034566 193 18190480417967816316
67856867 119 18337664201289111458
6786 2 12459129664003625723
9981440 41 18335699477073868434

> <PUBCHEM_SHAPE_MULTIPOLES>
499.85
10.18
2.77
1.4
10.7
1.53
-0.2
-7.16
1.25
0.39
0.31
-0.94
-0.25
-0.43

> <PUBCHEM_SHAPE_SELFOVERLAP>
1114.47

> <PUBCHEM_SHAPE_VOLUME>
263.1

> <PUBCHEM_COORDINATE_TYPE>
2
5
10

$$$$
