9912297
  -OEChem-09102011273D

 77 80  0     1  0  0  0  0  0999 V2000
    0.2843    1.1858    0.9917 O   0  0  0  0  0  0  0  0  0  0  0  0
   -2.4564   -2.8066   -0.5738 O   0  0  0  0  0  0  0  0  0  0  0  0
   -5.1323   -2.0341   -0.7810 O   0  0  0  0  0  0  0  0  0  0  0  0
    4.9547   -1.3125    2.4812 O   0  0  0  0  0  0  0  0  0  0  0  0
    6.9829    1.9982   -0.3464 O   0  0  0  0  0  0  0  0  0  0  0  0
   -6.7488    2.1893   -1.0627 O   0  0  0  0  0  0  0  0  0  0  0  0
   -0.2489   -0.8303   -0.3239 C   0  0  1  0  0  0  0  0  0  0  0  0
    0.5072   -0.2397    0.8969 C   0  0  1  0  0  0  0  0  0  0  0  0
   -1.7216   -0.6287    0.1152 C   0  0  2  0  0  0  0  0  0  0  0  0
    2.5559    0.2128   -0.5827 C   0  0  2  0  0  0  0  0  0  0  0  0
    4.0764   -0.1379   -0.8275 C   0  0  2  0  0  0  0  0  0  0  0  0
    0.1478   -0.0328   -1.5768 C   0  0  0  0  0  0  0  0  0  0  0  0
    2.0062   -0.3686    0.7315 C   0  0  0  0  0  0  0  0  0  0  0  0
   -0.2304   -0.8866    2.0811 C   0  0  0  0  0  0  0  0  0  0  0  0
   -1.7040   -0.9731    1.6229 C   0  0  0  0  0  0  0  0  0  0  0  0
    1.6636   -0.1107   -1.8217 C   0  0  0  0  0  0  0  0  0  0  0  0
    4.8800    0.0310    0.4898 C   0  0  1  0  0  0  0  0  0  0  0  0
   -2.7769   -1.4115   -0.6558 C   0  0  2  0  0  0  0  0  0  0  0  0
    0.0507   -2.3393   -0.5480 C   0  0  0  0  0  0  0  0  0  0  0  0
    4.7114    0.7817   -1.9093 C   0  0  0  0  0  0  0  0  0  0  0  0
    2.7878   -0.8614    1.7043 C   0  0  0  0  0  0  0  0  0  0  0  0
    5.0195    1.4960    0.9367 C   0  0  0  0  0  0  0  0  0  0  0  0
    4.2547   -1.6013   -1.3173 C   0  0  0  0  0  0  0  0  0  0  0  0
    4.2632   -0.7817    1.6132 C   0  0  0  0  0  0  0  0  0  0  0  0
    4.8607    2.2423   -1.4754 C   0  0  0  0  0  0  0  0  0  0  0  0
   -4.2028   -1.2074   -0.0737 C   0  0  1  0  0  0  0  0  0  0  0  0
    5.6201    2.3759   -0.1572 C   0  0  2  0  0  0  0  0  0  0  0  0
   -2.7359   -1.0185   -2.1421 C   0  0  0  0  0  0  0  0  0  0  0  0
   -4.7065    0.2477   -0.1302 C   0  0  0  0  0  0  0  0  0  0  0  0
   -6.1401    0.3833    0.4144 C   0  0  0  0  0  0  0  0  0  0  0  0
   -6.7310    1.8053    0.3138 C   0  0  0  0  0  0  0  0  0  0  0  0
   -8.1780    1.7963    0.8184 C   0  0  0  0  0  0  0  0  0  0  0  0
   -5.9137    2.8372    1.0945 C   0  0  0  0  0  0  0  0  0  0  0  0
   -1.9537    0.4405    0.0216 H   0  0  0  0  0  0  0  0  0  0  0  0
    2.4787    1.3000   -0.4495 H   0  0  0  0  0  0  0  0  0  0  0  0
   -0.1461    1.0196   -1.4811 H   0  0  0  0  0  0  0  0  0  0  0  0
   -0.3257   -0.3992   -2.4868 H   0  0  0  0  0  0  0  0  0  0  0  0
   -0.1508   -0.2967    3.0010 H   0  0  0  0  0  0  0  0  0  0  0  0
    0.1395   -1.8960    2.2935 H   0  0  0  0  0  0  0  0  0  0  0  0
   -2.0861   -1.9762    1.8418 H   0  0  0  0  0  0  0  0  0  0  0  0
   -2.3221   -0.2612    2.1819 H   0  0  0  0  0  0  0  0  0  0  0  0
    1.8809   -1.1113   -2.2062 H   0  0  0  0  0  0  0  0  0  0  0  0
    1.9091    0.5823   -2.6351 H   0  0  0  0  0  0  0  0  0  0  0  0
    5.8857   -0.3855    0.3397 H   0  0  0  0  0  0  0  0  0  0  0  0
   -0.3017   -2.9787    0.2671 H   0  0  0  0  0  0  0  0  0  0  0  0
   -0.3343   -2.7046   -1.5049 H   0  0  0  0  0  0  0  0  0  0  0  0
    1.1296   -2.5248   -0.5931 H   0  0  0  0  0  0  0  0  0  0  0  0
    4.1279    0.7465   -2.8363 H   0  0  0  0  0  0  0  0  0  0  0  0
    5.7019    0.3933   -2.1813 H   0  0  0  0  0  0  0  0  0  0  0  0
    2.3872   -1.2569    2.6303 H   0  0  0  0  0  0  0  0  0  0  0  0
    4.0471    1.9023    1.2395 H   0  0  0  0  0  0  0  0  0  0  0  0
    5.6605    1.5320    1.8273 H   0  0  0  0  0  0  0  0  0  0  0  0
    5.3111   -1.8953   -1.3016 H   0  0  0  0  0  0  0  0  0  0  0  0
    3.7075   -2.3166   -0.6956 H   0  0  0  0  0  0  0  0  0  0  0  0
    3.9178   -1.7275   -2.3514 H   0  0  0  0  0  0  0  0  0  0  0  0
   -0.5747    1.3573    1.4108 H   0  0  0  0  0  0  0  0  0  0  0  0
    5.4004    2.7805   -2.2641 H   0  0  0  0  0  0  0  0  0  0  0  0
    3.8755    2.7123   -1.3864 H   0  0  0  0  0  0  0  0  0  0  0  0
   -4.2244   -1.5631    0.9631 H   0  0  0  0  0  0  0  0  0  0  0  0
    5.6202    3.4219    0.1663 H   0  0  0  0  0  0  0  0  0  0  0  0
   -3.6600   -1.3201   -2.6501 H   0  0  0  0  0  0  0  0  0  0  0  0
   -2.6335    0.0609   -2.2907 H   0  0  0  0  0  0  0  0  0  0  0  0
   -1.9579   -1.5570   -2.6889 H   0  0  0  0  0  0  0  0  0  0  0  0
   -3.1392   -3.2958   -1.0641 H   0  0  0  0  0  0  0  0  0  0  0  0
   -4.0401    0.8921    0.4492 H   0  0  0  0  0  0  0  0  0  0  0  0
   -4.6992    0.6006   -1.1673 H   0  0  0  0  0  0  0  0  0  0  0  0
   -5.8781   -2.2201   -0.1860 H   0  0  0  0  0  0  0  0  0  0  0  0
    7.0246    1.0861   -0.6736 H   0  0  0  0  0  0  0  0  0  0  0  0
   -6.1615    0.0447    1.4579 H   0  0  0  0  0  0  0  0  0  0  0  0
   -6.7960   -0.2851   -0.1568 H   0  0  0  0  0  0  0  0  0  0  0  0
   -8.6368    2.7861    0.7123 H   0  0  0  0  0  0  0  0  0  0  0  0
   -8.2359    1.4994    1.8707 H   0  0  0  0  0  0  0  0  0  0  0  0
   -8.7931    1.1079    0.2276 H   0  0  0  0  0  0  0  0  0  0  0  0
   -6.3977    3.8203    1.0632 H   0  0  0  0  0  0  0  0  0  0  0  0
   -5.7960    2.5467    2.1434 H   0  0  0  0  0  0  0  0  0  0  0  0
   -4.9218    2.9799    0.6532 H   0  0  0  0  0  0  0  0  0  0  0  0
   -7.1290    3.0825   -1.1210 H   0  0  0  0  0  0  0  0  0  0  0  0
  1  8  1  0  0  0  0
  1 56  1  0  0  0  0
  2 18  1  0  0  0  0
  2 64  1  0  0  0  0
  3 26  1  0  0  0  0
  3 67  1  0  0  0  0
  4 24  2  0  0  0  0
  5 27  1  0  0  0  0
  5 68  1  0  0  0  0
  6 31  1  0  0  0  0
  6 77  1  0  0  0  0
  7  8  1  0  0  0  0
  7  9  1  0  0  0  0
  7 12  1  0  0  0  0
  7 19  1  0  0  0  0
  8 13  1  0  0  0  0
  8 14  1  0  0  0  0
  9 15  1  0  0  0  0
  9 18  1  0  0  0  0
  9 34  1  0  0  0  0
 10 11  1  0  0  0  0
 10 13  1  0  0  0  0
 10 16  1  0  0  0  0
 10 35  1  0  0  0  0
 11 17  1  0  0  0  0
 11 20  1  0  0  0  0
 11 23  1  0  0  0  0
 12 16  1  0  0  0  0
 12 36  1  0  0  0  0
 12 37  1  0  0  0  0
 13 21  2  0  0  0  0
 14 15  1  0  0  0  0
 14 38  1  0  0  0  0
 14 39  1  0  0  0  0
 15 40  1  0  0  0  0
 15 41  1  0  0  0  0
 16 42  1  0  0  0  0
 16 43  1  0  0  0  0
 17 22  1  0  0  0  0
 17 24  1  0  0  0  0
 17 44  1  0  0  0  0
 18 26  1  0  0  0  0
 18 28  1  0  0  0  0
 19 45  1  0  0  0  0
 19 46  1  0  0  0  0
 19 47  1  0  0  0  0
 20 25  1  0  0  0  0
 20 48  1  0  0  0  0
 20 49  1  0  0  0  0
 21 24  1  0  0  0  0
 21 50  1  0  0  0  0
 22 27  1  0  0  0  0
 22 51  1  0  0  0  0
 22 52  1  0  0  0  0
 23 53  1  0  0  0  0
 23 54  1  0  0  0  0
 23 55  1  0  0  0  0
 25 27  1  0  0  0  0
 25 57  1  0  0  0  0
 25 58  1  0  0  0  0
 26 29  1  0  0  0  0
 26 59  1  0  0  0  0
 27 60  1  0  0  0  0
 28 61  1  0  0  0  0
 28 62  1  0  0  0  0
 28 63  1  0  0  0  0
 29 30  1  0  0  0  0
 29 65  1  0  0  0  0
 29 66  1  0  0  0  0
 30 31  1  0  0  0  0
 30 69  1  0  0  0  0
 30 70  1  0  0  0  0
 31 32  1  0  0  0  0
 31 33  1  0  0  0  0
 32 71  1  0  0  0  0
 32 72  1  0  0  0  0
 32 73  1  0  0  0  0
 33 74  1  0  0  0  0
 33 75  1  0  0  0  0
 33 76  1  0  0  0  0
M  END
> <PUBCHEM_COMPOUND_CID>
9912297

> <PUBCHEM_CONFORMER_RMSD>
1

> <PUBCHEM_CONFORMER_DIVERSEORDER>
1
2
6
7
4
3
8
5

> <PUBCHEM_MMFF94_PARTIAL_CHARGES>
22
1 -0.68
10 0.14
13 -0.28
17 0.06
18 0.28
2 -0.68
21 -0.14
24 0.49
26 0.28
27 0.28
3 -0.68
31 0.28
4 -0.57
5 -0.68
50 0.15
56 0.4
6 -0.68
64 0.4
67 0.4
68 0.4
77 0.4
8 0.42

> <PUBCHEM_EFFECTIVE_ROTOR_COUNT>
6.8

> <PUBCHEM_PHARMACOPHORE_FEATURES>
16
1 1 acceptor
1 1 donor
1 2 acceptor
1 2 donor
1 3 acceptor
1 3 donor
1 4 acceptor
1 5 acceptor
1 5 donor
1 6 acceptor
1 6 donor
3 31 32 33 hydrophobe
5 7 8 9 14 15 rings
6 10 11 13 17 21 24 rings
6 11 17 20 22 25 27 rings
6 7 8 10 12 13 16 rings

> <PUBCHEM_HEAVY_ATOM_COUNT>
33

> <PUBCHEM_ATOM_DEF_STEREO_COUNT>
9

> <PUBCHEM_ATOM_UDEF_STEREO_COUNT>
0

> <PUBCHEM_BOND_DEF_STEREO_COUNT>
0

> <PUBCHEM_BOND_UDEF_STEREO_COUNT>
0

> <PUBCHEM_ISOTOPIC_ATOM_COUNT>
0

> <PUBCHEM_COMPONENT_COUNT>
1

> <PUBCHEM_CACTVS_TAUTO_COUNT>
5

> <PUBCHEM_CONFORMER_ID>
00973FE900000001

> <PUBCHEM_MMFF94_ENERGY>
126.5314

> <PUBCHEM_FEATURE_SELFOVERLAP>
81.341

> <PUBCHEM_SHAPE_FINGERPRINT>
10 15 18408610266981733793
10554248 39 18268978822335424223
10693767 8 13110695908459774964
10906281 52 17532102746881176292
11456790 92 17385994058378376360
11475781 23 17131824344250514073
11646440 116 16153423969719309684
117089 54 11886225957431100973
12011746 2 15984832579346663438
12166972 35 10519984867942647443
12236239 1 18334008423874028762
12422481 6 17677045729557522807
12788726 201 18272936020354841072
13533116 47 17603578609121488546
13690498 29 17201915045800666119
13911987 19 16128664058925717181
14849402 71 17676779776804344037
15082195 135 17489877042030388856
15183329 4 17703794700093949513
15238133 3 18341607114078230467
15392192 104 15647922390995397793
15475509 35 11025789929715019308
1577012 14 18335137596825174975
15840311 113 18113901524921262245
16994733 274 18268428109055409448
17349148 13 15719941540907808966
17913733 40 16370721522326885841
18222031 100 12967133804512123762
19958102 18 16415205542230496765
20511986 3 17917427657428602726
21033648 29 17561073730952536871
21130935 74 17530964683358433347
21424621 283 18335141998902902937
21521239 73 13182733737031345069
22122407 14 18262248827388878345
22149856 69 15719680849330649493
2215653 11 15195290841150476054
23081809 10 18334286591773452667
23559900 14 15123228901033250530
23569914 152 14688382785192286797
23569943 247 17097187472991828587
24771293 8 17822292461249126452
2748736 6 18341890750114886189
3633792 109 18131080303399931526
3663271 9 18040154041646279315
3918712 181 18271525304456846673
392239 28 15791736347271276927
394071 54 16950280745705468404
397830 11 13190349001788655303
4093350 32 18334861597879428330
4098825 35 18341898476454707150
4340502 62 16805322210503968458
465052 167 11963390756291118126
5104073 3 16950563323913508378
59682541 52 16056600885677889917
6328613 192 18411138047987192649

> <PUBCHEM_SHAPE_MULTIPOLES>
643.91
18.33
2.59
1.99
20.63
0.81
-0.22
15.04
-0.55
1.67
0.26
-1.77
-0.39
-2

> <PUBCHEM_SHAPE_SELFOVERLAP>
1361.127

> <PUBCHEM_SHAPE_VOLUME>
358.2

> <PUBCHEM_COORDINATE_TYPE>
2
5
10

$$$$
