101862378
  -OEChem-09102011113D

 51 54  0     1  0  0  0  0  0999 V2000
    2.9912   -0.0196    1.1441 O   0  0  0  0  0  0  0  0  0  0  0  0
    3.1679   -1.9513   -1.9246 O   0  0  0  0  0  0  0  0  0  0  0  0
    4.3660    0.1950   -0.6751 O   0  0  0  0  0  0  0  0  0  0  0  0
    0.6529    3.9564   -0.4623 O   0  0  0  0  0  0  0  0  0  0  0  0
   -1.2284    3.1208    0.5862 O   0  0  0  0  0  0  0  0  0  0  0  0
   -5.7199   -1.7852   -0.1033 O   0  0  0  0  0  0  0  0  0  0  0  0
    1.1377   -1.1926   -0.7107 C   0  0  2  0  0  0  0  0  0  0  0  0
    0.6923   -0.8060    0.7657 C   0  0  2  0  0  0  0  0  0  0  0  0
   -0.1075    0.5453    0.8540 C   0  0  2  0  0  0  0  0  0  0  0  0
    2.6696   -1.5710   -0.6626 C   0  0  1  0  0  0  0  0  0  0  0  0
    0.8407   -0.0802   -1.7530 C   0  0  0  0  0  0  0  0  0  0  0  0
    1.9624   -0.8947    1.6757 C   0  0  1  0  0  0  0  0  0  0  0  0
    0.6589    1.6846    0.1259 C   0  0  1  0  0  0  0  0  0  0  0  0
    1.1023    1.3545   -1.3060 C   0  0  0  0  0  0  0  0  0  0  0  0
    0.3291   -2.4364   -1.1800 C   0  0  0  0  0  0  0  0  0  0  0  0
    2.9198   -2.6448    0.3777 C   0  0  0  0  0  0  0  0  0  0  0  0
   -0.3489    0.9373    2.3292 C   0  0  0  0  0  0  0  0  0  0  0  0
    2.5216   -2.2970    1.6095 C   0  0  0  0  0  0  0  0  0  0  0  0
    3.4456   -0.3754   -0.1057 C   0  0  0  0  0  0  0  0  0  0  0  0
   -1.4888    0.3221    0.2618 C   0  0  0  0  0  0  0  0  0  0  0  0
   -0.1034    2.9855    0.1243 C   0  0  0  0  0  0  0  0  0  0  0  0
   -2.3461   -0.6054    0.7152 C   0  0  0  0  0  0  0  0  0  0  0  0
   -3.6885   -0.8620    0.1670 C   0  0  0  0  0  0  0  0  0  0  0  0
    0.0464    5.2509   -0.5307 C   0  0  0  0  0  0  0  0  0  0  0  0
   -4.3338   -0.2110   -0.9113 C   0  0  0  0  0  0  0  0  0  0  0  0
   -4.5727   -1.8111    0.6246 C   0  0  0  0  0  0  0  0  0  0  0  0
   -5.5665   -0.8087   -1.0358 C   0  0  0  0  0  0  0  0  0  0  0  0
    0.0424   -1.6079    1.1439 H   0  0  0  0  0  0  0  0  0  0  0  0
   -0.2104   -0.1391   -2.0644 H   0  0  0  0  0  0  0  0  0  0  0  0
    1.4040   -0.2668   -2.6763 H   0  0  0  0  0  0  0  0  0  0  0  0
    1.7724   -0.6189    2.7157 H   0  0  0  0  0  0  0  0  0  0  0  0
    1.5595    1.9067    0.7142 H   0  0  0  0  0  0  0  0  0  0  0  0
    2.1704    1.5792   -1.4057 H   0  0  0  0  0  0  0  0  0  0  0  0
    0.6138    2.0111   -2.0384 H   0  0  0  0  0  0  0  0  0  0  0  0
    0.4503   -3.2890   -0.5038 H   0  0  0  0  0  0  0  0  0  0  0  0
    0.6439   -2.7579   -2.1792 H   0  0  0  0  0  0  0  0  0  0  0  0
   -0.7432   -2.2206   -1.2304 H   0  0  0  0  0  0  0  0  0  0  0  0
    3.3444   -3.6115    0.1424 H   0  0  0  0  0  0  0  0  0  0  0  0
    0.5514    1.3761    2.7749 H   0  0  0  0  0  0  0  0  0  0  0  0
   -0.6098    0.0649    2.9412 H   0  0  0  0  0  0  0  0  0  0  0  0
   -1.1579    1.6623    2.4663 H   0  0  0  0  0  0  0  0  0  0  0  0
    2.5967   -2.9437    2.4723 H   0  0  0  0  0  0  0  0  0  0  0  0
   -1.7775    0.9259   -0.5945 H   0  0  0  0  0  0  0  0  0  0  0  0
    4.0780   -2.2752   -1.8125 H   0  0  0  0  0  0  0  0  0  0  0  0
   -2.0736   -1.2243    1.5661 H   0  0  0  0  0  0  0  0  0  0  0  0
    0.7503    5.9308   -1.0179 H   0  0  0  0  0  0  0  0  0  0  0  0
   -0.1634    5.6244    0.4761 H   0  0  0  0  0  0  0  0  0  0  0  0
   -0.8704    5.2081   -1.1265 H   0  0  0  0  0  0  0  0  0  0  0  0
   -3.9625    0.5935   -1.5304 H   0  0  0  0  0  0  0  0  0  0  0  0
   -4.5421   -2.5467    1.4159 H   0  0  0  0  0  0  0  0  0  0  0  0
   -6.4045   -0.6623   -1.7014 H   0  0  0  0  0  0  0  0  0  0  0  0
  1 12  1  0  0  0  0
  1 19  1  0  0  0  0
  2 10  1  0  0  0  0
  2 44  1  0  0  0  0
  3 19  2  0  0  0  0
  4 21  1  0  0  0  0
  4 24  1  0  0  0  0
  5 21  2  0  0  0  0
  6 26  1  0  0  0  0
  6 27  1  0  0  0  0
  7  8  1  0  0  0  0
  7 10  1  0  0  0  0
  7 11  1  0  0  0  0
  7 15  1  0  0  0  0
  8  9  1  0  0  0  0
  8 12  1  0  0  0  0
  8 28  1  0  0  0  0
  9 13  1  0  0  0  0
  9 17  1  0  0  0  0
  9 20  1  0  0  0  0
 10 16  1  0  0  0  0
 10 19  1  0  0  0  0
 11 14  1  0  0  0  0
 11 29  1  0  0  0  0
 11 30  1  0  0  0  0
 12 18  1  0  0  0  0
 12 31  1  0  0  0  0
 13 14  1  0  0  0  0
 13 21  1  0  0  0  0
 13 32  1  0  0  0  0
 14 33  1  0  0  0  0
 14 34  1  0  0  0  0
 15 35  1  0  0  0  0
 15 36  1  0  0  0  0
 15 37  1  0  0  0  0
 16 18  2  0  0  0  0
 16 38  1  0  0  0  0
 17 39  1  0  0  0  0
 17 40  1  0  0  0  0
 17 41  1  0  0  0  0
 18 42  1  0  0  0  0
 20 22  2  0  0  0  0
 20 43  1  0  0  0  0
 22 23  1  0  0  0  0
 22 45  1  0  0  0  0
 23 25  1  0  0  0  0
 23 26  2  0  0  0  0
 24 46  1  0  0  0  0
 24 47  1  0  0  0  0
 24 48  1  0  0  0  0
 25 27  2  0  0  0  0
 25 49  1  0  0  0  0
 26 50  1  0  0  0  0
 27 51  1  0  0  0  0
M  END
> <PUBCHEM_COMPOUND_CID>
101862378

> <PUBCHEM_CONFORMER_RMSD>
0.8

> <PUBCHEM_CONFORMER_DIVERSEORDER>
1
7
12
9
8
2
10
4
6
5
11
3

> <PUBCHEM_MMFF94_PARTIAL_CHARGES>
29
1 -0.43
10 0.48
12 0.42
13 0.06
16 -0.29
18 -0.29
19 0.66
2 -0.68
20 -0.29
21 0.66
22 -0.1
23 -0.05
24 0.28
25 -0.15
26 -0.01
27 -0.01
3 -0.57
38 0.15
4 -0.43
42 0.15
43 0.15
44 0.4
45 0.15
49 0.15
5 -0.57
50 0.15
51 0.15
6 -0.28
9 0.14

> <PUBCHEM_EFFECTIVE_ROTOR_COUNT>
5

> <PUBCHEM_PHARMACOPHORE_FEATURES>
8
1 2 acceptor
1 2 donor
1 3 acceptor
1 5 acceptor
1 6 acceptor
5 6 23 25 26 27 rings
6 7 8 9 11 13 14 rings
8 1 7 8 10 12 16 18 19 rings

> <PUBCHEM_HEAVY_ATOM_COUNT>
27

> <PUBCHEM_ATOM_DEF_STEREO_COUNT>
6

> <PUBCHEM_ATOM_UDEF_STEREO_COUNT>
0

> <PUBCHEM_BOND_DEF_STEREO_COUNT>
1

> <PUBCHEM_BOND_UDEF_STEREO_COUNT>
0

> <PUBCHEM_ISOTOPIC_ATOM_COUNT>
0

> <PUBCHEM_COMPONENT_COUNT>
1

> <PUBCHEM_CACTVS_TAUTO_COUNT>
2

> <PUBCHEM_CONFORMER_ID>
06124BEA00000001

> <PUBCHEM_MMFF94_ENERGY>
96.5758

> <PUBCHEM_FEATURE_SELFOVERLAP>
40.649

> <PUBCHEM_SHAPE_FINGERPRINT>
10863032 1 18051416167630101682
10930396 42 18044916100180822816
1100329 8 18121780796981169730
11578080 2 17604693470551235908
12363563 72 18411139113249825899
12553582 1 18337687321245765595
12788726 201 17973736778844557633
13004483 165 18265884779229179891
13134695 92 18335125514776294247
133893 2 18196112133858011881
13544653 18 17917711275620569099
13583140 156 14620224166670490203
13681431 1 18339932605361954105
13911987 19 17970371380184269788
13955234 65 18192715772746799073
14787075 74 18188217610252619398
14863182 85 16845301578603270015
14955137 171 18337953518881015338
15664445 248 18411427232292796220
16945 1 18270947008426066050
17357779 13 18058436643598962013
17492 54 18193575556253491876
1813 80 18343588430147920075
20626108 58 18342168969316326643
20691752 17 18269858444248363162
21033648 29 17561069286189153475
21304303 282 17109278656644464693
21756936 100 13396904394407725266
23419403 2 17680390546824335516
23557571 272 18268421356685720865
23559900 14 17911799072611985046
238 59 18048333424398418537
314173 41 18410013277640885659
3298306 158 17758125078141689692
46194498 28 17603867862247068663
54040823 5 18334292088941312171
5895379 119 14204164603260191151
633830 44 10809346641833465827
6669772 16 17763191632086085700
6786 2 8955673335466458293
70251023 43 18266470819180219474
7164475 11 18119243969962903714
7495541 125 18187931750346927875
81228 2 18125168134624322953

> <PUBCHEM_SHAPE_MULTIPOLES>
520.43
7.95
4.33
1.66
12.12
7.46
-0.21
-7.22
1.49
-0.78
0.53
-0.75
-0.4
-0.23

> <PUBCHEM_SHAPE_SELFOVERLAP>
1139.728

> <PUBCHEM_SHAPE_VOLUME>
277.4

> <PUBCHEM_COORDINATE_TYPE>
2
5
10

$$$$
