10358881
  -OEChem-09102011163D

 42 45  0     0  0  0  0  0  0999 V2000
    4.5022    1.5601   -0.0313 O   0  0  0  0  0  0  0  0  0  0  0  0
   -5.9076   -0.2301   -0.0101 O   0  0  0  0  0  0  0  0  0  0  0  0
   -4.4788   -2.5022    0.7021 O   0  0  0  0  0  0  0  0  0  0  0  0
    6.1161   -0.6488   -0.2678 O   0  0  0  0  0  0  0  0  0  0  0  0
    0.3348    1.1197    0.0747 N   0  3  0  0  0  0  0  0  0  0  0  0
   -0.4872    2.3456    0.2385 C   0  0  0  0  0  0  0  0  0  0  0  0
   -1.7299    2.2509   -0.6260 C   0  0  0  0  0  0  0  0  0  0  0  0
   -0.2428   -0.1155    0.0140 C   0  0  0  0  0  0  0  0  0  0  0  0
   -2.4655    0.9888   -0.2773 C   0  0  0  0  0  0  0  0  0  0  0  0
   -1.7173   -0.1617    0.0459 C   0  0  0  0  0  0  0  0  0  0  0  0
    1.6799    1.2639    0.0426 C   0  0  0  0  0  0  0  0  0  0  0  0
    0.5831   -1.2459   -0.1091 C   0  0  0  0  0  0  0  0  0  0  0  0
    2.5349    0.1691   -0.0727 C   0  0  0  0  0  0  0  0  0  0  0  0
    1.9750   -1.1150   -0.1521 C   0  0  0  0  0  0  0  0  0  0  0  0
   -3.8671    0.9568   -0.3049 C   0  0  0  0  0  0  0  0  0  0  0  0
   -2.4314   -1.3267    0.3789 C   0  0  0  0  0  0  0  0  0  0  0  0
   -4.5466   -0.2126    0.0196 C   0  0  0  0  0  0  0  0  0  0  0  0
    3.9308    0.3211   -0.1110 C   0  0  0  0  0  0  0  0  0  0  0  0
   -3.8294   -1.3519    0.3670 C   0  0  0  0  0  0  0  0  0  0  0  0
    2.8234   -2.2290   -0.2736 C   0  0  0  0  0  0  0  0  0  0  0  0
    4.7619   -0.7928   -0.2301 C   0  0  0  0  0  0  0  0  0  0  0  0
    4.2085   -2.0669   -0.3120 C   0  0  0  0  0  0  0  0  0  0  0  0
    4.8171    2.0410    1.2718 C   0  0  0  0  0  0  0  0  0  0  0  0
   -6.5642    0.9822   -0.3771 C   0  0  0  0  0  0  0  0  0  0  0  0
    0.1034    3.2199   -0.0531 H   0  0  0  0  0  0  0  0  0  0  0  0
   -0.7228    2.4140    1.3076 H   0  0  0  0  0  0  0  0  0  0  0  0
   -1.4636    2.2247   -1.6893 H   0  0  0  0  0  0  0  0  0  0  0  0
   -2.3568    3.1325   -0.4528 H   0  0  0  0  0  0  0  0  0  0  0  0
    2.0432    2.2831    0.1119 H   0  0  0  0  0  0  0  0  0  0  0  0
    0.1467   -2.2391   -0.1871 H   0  0  0  0  0  0  0  0  0  0  0  0
   -4.3664    1.8789   -0.5835 H   0  0  0  0  0  0  0  0  0  0  0  0
   -1.9085   -2.2376    0.6623 H   0  0  0  0  0  0  0  0  0  0  0  0
    2.4105   -3.2335   -0.3379 H   0  0  0  0  0  0  0  0  0  0  0  0
    4.8425   -2.9445   -0.4054 H   0  0  0  0  0  0  0  0  0  0  0  0
   -5.4367   -2.3415    0.6419 H   0  0  0  0  0  0  0  0  0  0  0  0
    6.5263   -1.5267   -0.3518 H   0  0  0  0  0  0  0  0  0  0  0  0
    3.9290    2.0598    1.9112 H   0  0  0  0  0  0  0  0  0  0  0  0
    5.1986    3.0613    1.1770 H   0  0  0  0  0  0  0  0  0  0  0  0
    5.5932    1.4209    1.7313 H   0  0  0  0  0  0  0  0  0  0  0  0
   -6.3238    1.2764   -1.4045 H   0  0  0  0  0  0  0  0  0  0  0  0
   -6.3663    1.7826    0.3438 H   0  0  0  0  0  0  0  0  0  0  0  0
   -7.6413    0.7868   -0.3468 H   0  0  0  0  0  0  0  0  0  0  0  0
  1 18  1  0  0  0  0
  1 23  1  0  0  0  0
  2 17  1  0  0  0  0
  2 24  1  0  0  0  0
  3 19  1  0  0  0  0
  3 35  1  0  0  0  0
  4 21  1  0  0  0  0
  4 36  1  0  0  0  0
  5  6  1  0  0  0  0
  5  8  2  0  0  0  0
  5 11  1  0  0  0  0
  6  7  1  0  0  0  0
  6 25  1  0  0  0  0
  6 26  1  0  0  0  0
  7  9  1  0  0  0  0
  7 27  1  0  0  0  0
  7 28  1  0  0  0  0
  8 10  1  0  0  0  0
  8 12  1  0  0  0  0
  9 10  1  0  0  0  0
  9 15  2  0  0  0  0
 10 16  2  0  0  0  0
 11 13  2  0  0  0  0
 11 29  1  0  0  0  0
 12 14  2  0  0  0  0
 12 30  1  0  0  0  0
 13 14  1  0  0  0  0
 13 18  1  0  0  0  0
 14 20  1  0  0  0  0
 15 17  1  0  0  0  0
 15 31  1  0  0  0  0
 16 19  1  0  0  0  0
 16 32  1  0  0  0  0
 17 19  2  0  0  0  0
 18 21  2  0  0  0  0
 20 22  2  0  0  0  0
 20 33  1  0  0  0  0
 21 22  1  0  0  0  0
 22 34  1  0  0  0  0
 23 37  1  0  0  0  0
 23 38  1  0  0  0  0
 23 39  1  0  0  0  0
 24 40  1  0  0  0  0
 24 41  1  0  0  0  0
 24 42  1  0  0  0  0
M  CHG  1   5   1
M  END
> <PUBCHEM_COMPOUND_CID>
10358881

> <PUBCHEM_CONFORMER_RMSD>
0.6

> <PUBCHEM_CONFORMER_DIVERSEORDER>
1
2

> <PUBCHEM_MMFF94_PARTIAL_CHARGES>
29
1 -0.36
11 0.21
12 -0.15
15 -0.15
16 -0.15
17 0.08
18 0.08
19 0.08
2 -0.36
20 -0.15
21 0.08
22 -0.15
23 0.28
24 0.28
29 0.15
3 -0.53
30 0.15
31 0.15
32 0.15
33 0.15
34 0.15
35 0.45
36 0.45
4 -0.53
5 -0.21
6 0.49
7 0.14
8 0.36
9 -0.14

> <PUBCHEM_EFFECTIVE_ROTOR_COUNT>
2.4

> <PUBCHEM_PHARMACOPHORE_FEATURES>
8
1 1 acceptor
1 2 acceptor
1 3 donor
1 4 donor
6 13 14 18 20 21 22 rings
6 5 6 7 8 9 10 rings
6 5 8 11 12 13 14 rings
6 9 10 15 16 17 19 rings

> <PUBCHEM_HEAVY_ATOM_COUNT>
24

> <PUBCHEM_ATOM_DEF_STEREO_COUNT>
0

> <PUBCHEM_ATOM_UDEF_STEREO_COUNT>
0

> <PUBCHEM_BOND_DEF_STEREO_COUNT>
0

> <PUBCHEM_BOND_UDEF_STEREO_COUNT>
0

> <PUBCHEM_ISOTOPIC_ATOM_COUNT>
0

> <PUBCHEM_COMPONENT_COUNT>
1

> <PUBCHEM_CACTVS_TAUTO_COUNT>
8

> <PUBCHEM_CONFORMER_ID>
009E106100000001

> <PUBCHEM_MMFF94_ENERGY>
95.3615

> <PUBCHEM_FEATURE_SELFOVERLAP>
40.676

> <PUBCHEM_SHAPE_FINGERPRINT>
10 15 18340194272872298288
10835480 77 18410848884945422397
10906281 52 18269856250094548541
11135609 12 17823996721662661627
12107183 9 17619916054165322610
12236239 1 17561362894400657885
12403259 226 18265610992813745228
12403259 415 18336256869096846276
12516196 113 18272930531607928849
12596602 18 15410599411488795951
12788726 201 18189050911133513897
13140716 1 17835234924256782144
13402501 40 18410013238764510355
13533116 47 18273214166610155130
13544653 18 18336273404767940689
13685833 64 18335707157007746891
14341114 176 18410299107661303529
14386348 63 18408887339057822447
14790565 3 17761776161801245125
15196674 1 18410294730778496455
15352361 1 18409732867699733911
15788980 27 17894354388491895107
15927050 60 17549827024513450996
15961568 22 17604152631559167612
17349148 13 16515687732196781450
17492 89 18124032330391578790
17844677 252 18342746190950382104
1813 80 17240484719116239229
19141452 34 18341896307791835815
200 152 18059853930845008651
20645477 70 18272934878067535326
21236236 1 18269556049134845417
21267235 1 18340212899396575614
21279426 13 18265049138076848317
21792934 111 18340193095181275609
221357 26 18342459193120040764
221490 88 18335990860154521307
23402539 116 18334292089241816887
23557571 272 18338239262644067333
23559900 14 18408882936320841632
239999 70 18272656740681249286
2871803 45 18334858281768835554
3004659 81 18187646886324028590
335352 9 18408604752180519693
34934 24 18412257371982411975
350125 39 18411702084973144884
3545911 37 18335422348218399774
4073 2 18186806919190538483
4214541 1 18337392638695707349
5104073 3 18411700958847636896
5283173 99 18187640242031273253
59755656 215 18336267847006855118
59755656 520 16298389058988032651
9709674 26 18197501722954924998

> <PUBCHEM_SHAPE_MULTIPOLES>
465.45
13.54
2.5
0.74
4.42
0.06
-0.08
-1.07
-0.05
-0.72
-0.23
-0.16
0.11
1.5

> <PUBCHEM_SHAPE_SELFOVERLAP>
1041.894

> <PUBCHEM_SHAPE_VOLUME>
247.1

> <PUBCHEM_COORDINATE_TYPE>
2
5
10

$$$$
