56678199
  -OEChem-09102011042D

 46 50  0     1  0  0  0  0  0999 V2000
    8.1439    1.2362    0.0000 O   0  0  0  0  0  0  0  0  0  0  0  0
    7.2626    3.6769    0.0000 O   0  0  0  0  0  0  0  0  0  0  0  0
    3.3552   -1.3275    0.0000 O   0  0  0  0  0  0  0  0  0  0  0  0
    9.2688    2.7022    0.0000 O   0  0  0  0  0  0  0  0  0  0  0  0
    2.0000   -0.1305    0.0000 O   0  0  0  0  0  0  0  0  0  0  0  0
    4.8532   -4.0596    0.0000 O   0  0  0  0  0  0  0  0  0  0  0  0
    5.3723    1.1530    0.0000 C   0  0  3  0  0  0  0  0  0  0  0  0
    5.0302    2.0927    0.0000 C   0  0  3  0  0  0  0  0  0  0  0  0
    4.7151    0.3449    0.0000 C   0  0  3  0  0  0  0  0  0  0  0  0
    7.0038    2.7110    0.0000 C   0  0  3  0  0  0  0  0  0  0  0  0
    6.7450    1.7450    0.0000 C   0  0  3  0  0  0  0  0  0  0  0  0
    4.0074    2.2894    0.0000 C   0  0  0  0  0  0  0  0  0  0  0  0
    3.6879    0.5178    0.0000 C   0  0  0  0  0  0  0  0  0  0  0  0
    5.1097   -0.6658    0.0000 C   0  0  0  0  0  0  0  0  0  0  0  0
    4.6882    3.0324    0.0000 C   0  0  0  0  0  0  0  0  0  0  0  0
    3.3317    1.4966    0.0000 C   0  0  0  0  0  0  0  0  0  0  0  0
    5.7012    0.1788    0.0000 C   0  0  0  0  0  0  0  0  0  0  0  0
    6.6332    4.0596    0.0000 C   0  0  0  0  0  0  0  0  0  0  0  0
    5.7672    3.5596    0.0000 C   0  0  0  0  0  0  0  0  0  0  0  0
    8.4027    2.2022    0.0000 C   0  0  0  0  0  0  0  0  0  0  0  0
    4.4252   -1.5076    0.0000 C   0  0  3  0  0  0  0  0  0  0  0  0
    2.9841   -0.3079    0.0000 C   0  0  0  0  0  0  0  0  0  0  0  0
    4.7780   -2.4433    0.0000 C   0  0  0  0  0  0  0  0  0  0  0  0
    5.7424   -2.7078    0.0000 C   0  0  0  0  0  0  0  0  0  0  0  0
    4.2284   -3.2788    0.0000 C   0  0  0  0  0  0  0  0  0  0  0  0
    5.7888   -3.7068    0.0000 C   0  0  0  0  0  0  0  0  0  0  0  0
    5.7463    0.6586    0.0000 H   0  0  0  0  0  0  0  0  0  0  0  0
    7.1504    2.2141    0.0000 H   0  0  0  0  0  0  0  0  0  0  0  0
    4.2269    2.8692    0.0000 H   0  0  0  0  0  0  0  0  0  0  0  0
    3.4736    2.6049    0.0000 H   0  0  0  0  0  0  0  0  0  0  0  0
    5.5167   -1.1336    0.0000 H   0  0  0  0  0  0  0  0  0  0  0  0
    5.6401   -0.3449    0.0000 H   0  0  0  0  0  0  0  0  0  0  0  0
    5.2708    3.2445    0.0000 H   0  0  0  0  0  0  0  0  0  0  0  0
    4.4762    3.6150    0.0000 H   0  0  0  0  0  0  0  0  0  0  0  0
    4.1056    2.8204    0.0000 H   0  0  0  0  0  0  0  0  0  0  0  0
    2.7215    1.6067    0.0000 H   0  0  0  0  0  0  0  0  0  0  0  0
    5.5983   -0.4326    0.0000 H   0  0  0  0  0  0  0  0  0  0  0  0
    6.3126    0.0759    0.0000 H   0  0  0  0  0  0  0  0  0  0  0  0
    5.8042    0.7902    0.0000 H   0  0  0  0  0  0  0  0  0  0  0  0
    6.8686    4.6332    0.0000 H   0  0  0  0  0  0  0  0  0  0  0  0
    5.1707    3.7288    0.0000 H   0  0  0  0  0  0  0  0  0  0  0  0
    4.0312   -1.9864    0.0000 H   0  0  0  0  0  0  0  0  0  0  0  0
    7.8615    3.8374    0.0000 H   0  0  0  0  0  0  0  0  0  0  0  0
    6.2265   -2.3205    0.0000 H   0  0  0  0  0  0  0  0  0  0  0  0
    3.6091   -3.3076    0.0000 H   0  0  0  0  0  0  0  0  0  0  0  0
    6.3068   -4.0475    0.0000 H   0  0  0  0  0  0  0  0  0  0  0  0
  1 11  1  0  0  0  0
  1 20  1  0  0  0  0
  2 10  1  0  0  0  0
  2 43  1  0  0  0  0
  3 21  1  0  0  0  0
  3 22  1  0  0  0  0
  4 20  2  0  0  0  0
  5 22  2  0  0  0  0
  6 25  1  0  0  0  0
  6 26  1  0  0  0  0
  7  8  1  0  0  0  0
  7  9  1  0  0  0  0
  7 11  1  0  0  0  0
  7 27  1  0  0  0  0
  8 10  1  0  0  0  0
  8 12  1  0  0  0  0
  8 15  1  0  0  0  0
  9 13  1  0  0  0  0
  9 14  1  0  0  0  0
  9 17  1  0  0  0  0
 10 18  1  0  0  0  0
 10 20  1  0  0  0  0
 11 19  1  0  0  0  0
 11 28  1  0  0  0  0
 12 16  1  0  0  0  0
 12 29  1  0  0  0  0
 12 30  1  0  0  0  0
 13 16  2  0  0  0  0
 13 22  1  0  0  0  0
 14 21  1  0  0  0  0
 14 31  1  0  0  0  0
 14 32  1  0  0  0  0
 15 33  1  0  0  0  0
 15 34  1  0  0  0  0
 15 35  1  0  0  0  0
 16 36  1  0  0  0  0
 17 37  1  0  0  0  0
 17 38  1  0  0  0  0
 17 39  1  0  0  0  0
 18 19  2  0  0  0  0
 18 40  1  0  0  0  0
 19 41  1  0  0  0  0
 21 23  1  0  0  0  0
 21 42  1  0  0  0  0
 23 24  1  0  0  0  0
 23 25  2  0  0  0  0
 24 26  2  0  0  0  0
 24 44  1  0  0  0  0
 25 45  1  0  0  0  0
 26 46  1  0  0  0  0
M  END
> <PUBCHEM_COMPOUND_CID>
56678199

> <PUBCHEM_COMPOUND_CANONICALIZED>
1

> <PUBCHEM_CACTVS_COMPLEXITY>
755

> <PUBCHEM_CACTVS_HBOND_ACCEPTOR>
6

> <PUBCHEM_CACTVS_HBOND_DONOR>
1

> <PUBCHEM_CACTVS_ROTATABLE_BOND>
1

> <PUBCHEM_CACTVS_SUBSKEYS>
AAADceB4OAAAAAAAAAAAAAAAAAAAASAAAAAkSIECAAAAAACBgAAAGgAACAAAD1SgmAIyDIAABkCIAijSiAICCAAkIAAIiAFGCMgNJxYENQqCWSCl4BELOYPK7PzPgAAAAAAAAAAAAAAAAAAAAAAAAAAAAA==

> <PUBCHEM_IUPAC_OPENEYE_NAME>
5-(3-furyl)-12-hydroxy-3,11-dimethyl-6,14-dioxatetracyclo[10.2.2.02,11.03,8]hexadeca-8,15-diene-7,13-dione

> <PUBCHEM_IUPAC_CAS_NAME>
5-(3-furanyl)-12-hydroxy-3,11-dimethyl-6,14-dioxatetracyclo[10.2.2.02,11.03,8]hexadeca-8,15-diene-7,13-dione

> <PUBCHEM_IUPAC_NAME_MARKUP>
5-(furan-3-yl)-12-hydroxy-3,11-dimethyl-6,14-dioxatetracyclo[10.2.2.0<SUP>2,11</SUP>.0<SUP>3,8</SUP>]hexadeca-8,15-diene-7,13-dione

> <PUBCHEM_IUPAC_NAME>
5-(furan-3-yl)-12-hydroxy-3,11-dimethyl-6,14-dioxatetracyclo[10.2.2.02,11.03,8]hexadeca-8,15-diene-7,13-dione

> <PUBCHEM_IUPAC_SYSTEMATIC_NAME>
5-(furan-3-yl)-3,11-dimethyl-12-oxidanyl-6,14-dioxatetracyclo[10.2.2.02,11.03,8]hexadeca-8,15-diene-7,13-dione

> <PUBCHEM_IUPAC_TRADITIONAL_NAME>
5-(3-furyl)-12-hydroxy-3,11-dimethyl-6,14-dioxatetracyclo[10.2.2.02,11.03,8]hexadeca-8,15-diene-7,13-quinone

> <PUBCHEM_IUPAC_INCHI>
InChI=1S/C20H20O6/c1-18-9-14(11-5-8-24-10-11)25-16(21)12(18)3-6-19(2)15(18)13-4-7-20(19,23)17(22)26-13/h3-5,7-8,10,13-15,23H,6,9H2,1-2H3

> <PUBCHEM_IUPAC_INCHIKEY>
KVIOMDMYQSLLQA-UHFFFAOYSA-N

> <PUBCHEM_XLOGP3_AA>
2.2

> <PUBCHEM_EXACT_MASS>
356.125988

> <PUBCHEM_MOLECULAR_FORMULA>
C20H20O6

> <PUBCHEM_MOLECULAR_WEIGHT>
356.4

> <PUBCHEM_OPENEYE_CAN_SMILES>
CC12CC=C3C(=O)OC(CC3(C1C4C=CC2(C(=O)O4)O)C)C5=COC=C5

> <PUBCHEM_OPENEYE_ISO_SMILES>
CC12CC=C3C(=O)OC(CC3(C1C4C=CC2(C(=O)O4)O)C)C5=COC=C5

> <PUBCHEM_CACTVS_TPSA>
86

> <PUBCHEM_MONOISOTOPIC_WEIGHT>
356.125988

> <PUBCHEM_TOTAL_CHARGE>
0

> <PUBCHEM_HEAVY_ATOM_COUNT>
26

> <PUBCHEM_ATOM_DEF_STEREO_COUNT>
0

> <PUBCHEM_ATOM_UDEF_STEREO_COUNT>
6

> <PUBCHEM_BOND_DEF_STEREO_COUNT>
0

> <PUBCHEM_BOND_UDEF_STEREO_COUNT>
0

> <PUBCHEM_ISOTOPIC_ATOM_COUNT>
0

> <PUBCHEM_COMPONENT_COUNT>
1

> <PUBCHEM_CACTVS_TAUTO_COUNT>
-1

> <PUBCHEM_COORDINATE_TYPE>
1
5
255

> <PUBCHEM_BONDANNOTATIONS>
11  19  3
10  2  3
21  23  3
23  24  8
23  25  8
24  26  8
6  25  8
6  26  8
7  11  3
8  15  3
9  17  3

$$$$
