184514
  -OEChem-09102011062D

 69 74  0     1  0  0  0  0  0999 V2000
    5.3841   -0.2638    0.0000 O   0  0  0  0  0  0  0  0  0  0  0  0
    6.8671   -2.3932    0.0000 O   0  0  0  0  0  0  0  0  0  0  0  0
    9.3461    3.4519    0.0000 O   0  0  0  0  0  0  0  0  0  0  0  0
    4.6770   -1.9710    0.0000 O   0  0  0  0  0  0  0  0  0  0  0  0
   10.9649    2.6465    0.0000 O   0  0  0  0  0  0  0  0  0  0  0  0
    5.1350   -2.3932    0.0000 O   0  0  0  0  0  0  0  0  0  0  0  0
    6.8671   -4.3932    0.0000 O   0  0  0  0  0  0  0  0  0  0  0  0
    6.3796    5.1202    0.0000 O   0  0  0  0  0  0  0  0  0  0  0  0
    5.1350   -5.3932    0.0000 O   0  0  0  0  0  0  0  0  0  0  0  0
    3.4030   -4.3932    0.0000 O   0  0  0  0  0  0  0  0  0  0  0  0
    2.5369   -2.8932    0.0000 O   0  0  0  0  0  0  0  0  0  0  0  0
    8.0398    0.5339    0.0000 C   0  0  3  0  0  0  0  0  0  0  0  0
    8.6134   -0.2853    0.0000 C   0  0  3  0  0  0  0  0  0  0  0  0
    8.4654    1.4846    0.0000 C   0  0  3  0  0  0  0  0  0  0  0  0
    9.5023    1.5834    0.0000 C   0  0  3  0  0  0  0  0  0  0  0  0
    6.8671   -1.3933    0.0000 C   0  0  3  0  0  0  0  0  0  0  0  0
    9.6523   -0.2105    0.0000 C   0  0  0  0  0  0  0  0  0  0  0  0
    6.8671   -0.3933    0.0000 C   0  0  3  0  0  0  0  0  0  0  0  0
   10.0998    0.7301    0.0000 C   0  0  0  0  0  0  0  0  0  0  0  0
    7.8227    2.3587    0.0000 C   0  0  0  0  0  0  0  0  0  0  0  0
    9.1869   -1.1044    0.0000 C   0  0  0  0  0  0  0  0  0  0  0  0
    7.4699    1.3898    0.0000 C   0  0  0  0  0  0  0  0  0  0  0  0
    7.5741   -2.6000    0.0000 C   0  0  0  0  0  0  0  0  0  0  0  0
    8.2812   -1.8929    0.0000 C   0  0  0  0  0  0  0  0  0  0  0  0
    5.3841   -1.2638    0.0000 C   0  0  0  0  0  0  0  0  0  0  0  0
    8.2660    3.3490    0.0000 C   0  0  3  0  0  0  0  0  0  0  0  0
    9.9684    2.5631    0.0000 C   0  0  0  0  0  0  0  0  0  0  0  0
    6.0010   -2.8932    0.0000 C   0  0  3  0  0  0  0  0  0  0  0  0
    7.6830    4.1615    0.0000 C   0  0  0  0  0  0  0  0  0  0  0  0
    6.0010   -3.8932    0.0000 C   0  0  3  0  0  0  0  0  0  0  0  0
    5.1350   -4.3932    0.0000 C   0  0  3  0  0  0  0  0  0  0  0  0
    4.2690   -2.8932    0.0000 C   0  0  3  0  0  0  0  0  0  0  0  0
    7.9976    5.1107    0.0000 C   0  0  0  0  0  0  0  0  0  0  0  0
    6.6830    4.1674    0.0000 C   0  0  0  0  0  0  0  0  0  0  0  0
    4.2690   -3.8932    0.0000 C   0  0  3  0  0  0  0  0  0  0  0  0
    7.1920    5.7032    0.0000 C   0  0  0  0  0  0  0  0  0  0  0  0
    3.4030   -2.3932    0.0000 C   0  0  0  0  0  0  0  0  0  0  0  0
    7.5505    0.9147    0.0000 H   0  0  0  0  0  0  0  0  0  0  0  0
   10.1202    1.6350    0.0000 H   0  0  0  0  0  0  0  0  0  0  0  0
    9.5903   -0.8274    0.0000 H   0  0  0  0  0  0  0  0  0  0  0  0
   10.2495   -0.3771    0.0000 H   0  0  0  0  0  0  0  0  0  0  0  0
    6.5969   -0.9513    0.0000 H   0  0  0  0  0  0  0  0  0  0  0  0
   10.6058    0.3719    0.0000 H   0  0  0  0  0  0  0  0  0  0  0  0
   10.5393    1.1674    0.0000 H   0  0  0  0  0  0  0  0  0  0  0  0
    7.3085    2.7052    0.0000 H   0  0  0  0  0  0  0  0  0  0  0  0
    7.3934    1.9114    0.0000 H   0  0  0  0  0  0  0  0  0  0  0  0
    8.6790   -1.4600    0.0000 H   0  0  0  0  0  0  0  0  0  0  0  0
    9.5425   -1.6123    0.0000 H   0  0  0  0  0  0  0  0  0  0  0  0
    9.6948   -0.7488    0.0000 H   0  0  0  0  0  0  0  0  0  0  0  0
    7.4111    2.0070    0.0000 H   0  0  0  0  0  0  0  0  0  0  0  0
    6.8527    1.3310    0.0000 H   0  0  0  0  0  0  0  0  0  0  0  0
    7.5287    0.7726    0.0000 H   0  0  0  0  0  0  0  0  0  0  0  0
    7.4951   -3.2150    0.0000 H   0  0  0  0  0  0  0  0  0  0  0  0
    8.9011   -1.9020    0.0000 H   0  0  0  0  0  0  0  0  0  0  0  0
    7.6491    3.2867    0.0000 H   0  0  0  0  0  0  0  0  0  0  0  0
    6.0010   -2.2732    0.0000 H   0  0  0  0  0  0  0  0  0  0  0  0
    6.0010   -4.5132    0.0000 H   0  0  0  0  0  0  0  0  0  0  0  0
    4.5981   -4.7032    0.0000 H   0  0  0  0  0  0  0  0  0  0  0  0
    4.2690   -2.2732    0.0000 H   0  0  0  0  0  0  0  0  0  0  0  0
    8.5884    5.2988    0.0000 H   0  0  0  0  0  0  0  0  0  0  0  0
    6.3156    3.6680    0.0000 H   0  0  0  0  0  0  0  0  0  0  0  0
    4.2690   -4.5132    0.0000 H   0  0  0  0  0  0  0  0  0  0  0  0
    6.8671   -5.0132    0.0000 H   0  0  0  0  0  0  0  0  0  0  0  0
    7.1957    6.3232    0.0000 H   0  0  0  0  0  0  0  0  0  0  0  0
    3.8015   -1.9183    0.0000 H   0  0  0  0  0  0  0  0  0  0  0  0
    3.0044   -1.9183    0.0000 H   0  0  0  0  0  0  0  0  0  0  0  0
    4.5981   -5.7032    0.0000 H   0  0  0  0  0  0  0  0  0  0  0  0
    3.4030   -5.0132    0.0000 H   0  0  0  0  0  0  0  0  0  0  0  0
    2.0000   -2.5832    0.0000 H   0  0  0  0  0  0  0  0  0  0  0  0
  1 18  1  0  0  0  0
  1 25  1  0  0  0  0
  2 16  1  0  0  0  0
  2 28  1  0  0  0  0
  3 26  1  0  0  0  0
  3 27  1  0  0  0  0
  4 25  2  0  0  0  0
  5 27  2  0  0  0  0
  6 28  1  0  0  0  0
  6 32  1  0  0  0  0
  7 30  1  0  0  0  0
  7 63  1  0  0  0  0
  8 34  1  0  0  0  0
  8 36  1  0  0  0  0
  9 31  1  0  0  0  0
  9 67  1  0  0  0  0
 10 35  1  0  0  0  0
 10 68  1  0  0  0  0
 11 37  1  0  0  0  0
 11 69  1  0  0  0  0
 12 13  1  0  0  0  0
 12 14  1  0  0  0  0
 12 18  1  0  0  0  0
 12 38  1  0  0  0  0
 13 16  1  0  0  0  0
 13 17  1  0  0  0  0
 13 21  1  0  0  0  0
 14 15  1  0  0  0  0
 14 20  1  0  0  0  0
 14 22  1  0  0  0  0
 15 19  1  0  0  0  0
 15 27  1  0  0  0  0
 15 39  1  0  0  0  0
 16 23  1  0  0  0  0
 16 25  1  0  0  0  0
 17 19  1  0  0  0  0
 17 40  1  0  0  0  0
 17 41  1  0  0  0  0
 18 24  1  0  0  0  0
 18 42  1  0  0  0  0
 19 43  1  0  0  0  0
 19 44  1  0  0  0  0
 20 26  1  0  0  0  0
 20 45  1  0  0  0  0
 20 46  1  0  0  0  0
 21 47  1  0  0  0  0
 21 48  1  0  0  0  0
 21 49  1  0  0  0  0
 22 50  1  0  0  0  0
 22 51  1  0  0  0  0
 22 52  1  0  0  0  0
 23 24  2  0  0  0  0
 23 53  1  0  0  0  0
 24 54  1  0  0  0  0
 26 29  1  0  0  0  0
 26 55  1  0  0  0  0
 28 30  1  0  0  0  0
 28 56  1  0  0  0  0
 29 33  1  0  0  0  0
 29 34  2  0  0  0  0
 30 31  1  0  0  0  0
 30 57  1  0  0  0  0
 31 35  1  0  0  0  0
 31 58  1  0  0  0  0
 32 35  1  0  0  0  0
 32 37  1  0  0  0  0
 32 59  1  0  0  0  0
 33 36  2  0  0  0  0
 33 60  1  0  0  0  0
 34 61  1  0  0  0  0
 35 62  1  0  0  0  0
 36 64  1  0  0  0  0
 37 65  1  0  0  0  0
 37 66  1  0  0  0  0
M  END
> <PUBCHEM_COMPOUND_CID>
184514

> <PUBCHEM_COMPOUND_CANONICALIZED>
1

> <PUBCHEM_CACTVS_COMPLEXITY>
986

> <PUBCHEM_CACTVS_HBOND_ACCEPTOR>
11

> <PUBCHEM_CACTVS_HBOND_DONOR>
4

> <PUBCHEM_CACTVS_ROTATABLE_BOND>
4

> <PUBCHEM_CACTVS_SUBSKEYS>
AAADcfB4PAAAAAAAAAAAAAAAAAAAASAAAAA0SJECAAAAAACRgAAAGgAACAAAD1SwmAMyDIAABkCIAijSiAICCAAkIAAIiAFGCMgdNxYENQ6iWSCl4BEPKYPK7PzPgAAAAAAAAACAAAQAACAAAAAAAAAAAA==

> <PUBCHEM_IUPAC_OPENEYE_NAME>
5-(3-furyl)-3,11-dimethyl-12-[3,4,5-trihydroxy-6-(hydroxymethyl)tetrahydropyran-2-yl]oxy-6,14-dioxatetracyclo[10.2.2.02,11.03,8]hexadec-15-ene-7,13-dione

> <PUBCHEM_IUPAC_CAS_NAME>
5-(3-furanyl)-3,11-dimethyl-12-[[3,4,5-trihydroxy-6-(hydroxymethyl)-2-oxanyl]oxy]-6,14-dioxatetracyclo[10.2.2.02,11.03,8]hexadec-15-ene-7,13-dione

> <PUBCHEM_IUPAC_NAME_MARKUP>
5-(furan-3-yl)-3,11-dimethyl-12-[3,4,5-trihydroxy-6-(hydroxymethyl)oxan-2-yl]oxy-6,14-dioxatetracyclo[10.2.2.0<SUP>2,11</SUP>.0<SUP>3,8</SUP>]hexadec-15-ene-7,13-dione

> <PUBCHEM_IUPAC_NAME>
5-(furan-3-yl)-3,11-dimethyl-12-[3,4,5-trihydroxy-6-(hydroxymethyl)oxan-2-yl]oxy-6,14-dioxatetracyclo[10.2.2.02,11.03,8]hexadec-15-ene-7,13-dione

> <PUBCHEM_IUPAC_SYSTEMATIC_NAME>
5-(furan-3-yl)-12-[6-(hydroxymethyl)-3,4,5-tris(oxidanyl)oxan-2-yl]oxy-3,11-dimethyl-6,14-dioxatetracyclo[10.2.2.02,11.03,8]hexadec-15-ene-7,13-dione

> <PUBCHEM_IUPAC_TRADITIONAL_NAME>
5-(3-furyl)-3,11-dimethyl-12-(3,4,5-trihydroxy-6-methylol-tetrahydropyran-2-yl)oxy-6,14-dioxatetracyclo[10.2.2.02,11.03,8]hexadec-15-ene-7,13-quinone

> <PUBCHEM_IUPAC_INCHI>
InChI=1S/C26H32O11/c1-24-9-15(12-5-8-33-11-12)34-21(31)13(24)3-6-25(2)20(24)14-4-7-26(25,23(32)36-14)37-22-19(30)18(29)17(28)16(10-27)35-22/h4-5,7-8,11,13-20,22,27-30H,3,6,9-10H2,1-2H3

> <PUBCHEM_IUPAC_INCHIKEY>
ZHUNNEPKAYTEID-UHFFFAOYSA-N

> <PUBCHEM_XLOGP3_AA>
0.6

> <PUBCHEM_EXACT_MASS>
520.194462

> <PUBCHEM_MOLECULAR_FORMULA>
C26H32O11

> <PUBCHEM_MOLECULAR_WEIGHT>
520.5

> <PUBCHEM_OPENEYE_CAN_SMILES>
CC12CCC3C(=O)OC(CC3(C1C4C=CC2(C(=O)O4)OC5C(C(C(C(O5)CO)O)O)O)C)C6=COC=C6

> <PUBCHEM_OPENEYE_ISO_SMILES>
CC12CCC3C(=O)OC(CC3(C1C4C=CC2(C(=O)O4)OC5C(C(C(C(O5)CO)O)O)O)C)C6=COC=C6

> <PUBCHEM_CACTVS_TPSA>
165

> <PUBCHEM_MONOISOTOPIC_WEIGHT>
520.194462

> <PUBCHEM_TOTAL_CHARGE>
0

> <PUBCHEM_HEAVY_ATOM_COUNT>
37

> <PUBCHEM_ATOM_DEF_STEREO_COUNT>
0

> <PUBCHEM_ATOM_UDEF_STEREO_COUNT>
12

> <PUBCHEM_BOND_DEF_STEREO_COUNT>
0

> <PUBCHEM_BOND_UDEF_STEREO_COUNT>
0

> <PUBCHEM_ISOTOPIC_ATOM_COUNT>
0

> <PUBCHEM_COMPONENT_COUNT>
1

> <PUBCHEM_CACTVS_TAUTO_COUNT>
-1

> <PUBCHEM_COORDINATE_TYPE>
1
5
255

> <PUBCHEM_BONDANNOTATIONS>
35  10  3
12  18  3
13  21  3
14  22  3
15  19  3
18  24  3
16  2  3
28  2  3
26  29  3
29  33  8
29  34  8
32  37  3
33  36  8
30  7  3
8  34  8
8  36  8
31  9  3

$$$$
