101607218
  -OEChem-09102011072D

 49 53  0     1  0  0  0  0  0999 V2000
    8.1439    1.2362    0.0000 O   0  0  0  0  0  0  0  0  0  0  0  0
    3.6762    3.2330    0.0000 O   0  0  0  0  0  0  0  0  0  0  0  0
    3.3552   -1.3275    0.0000 O   0  0  0  0  0  0  0  0  0  0  0  0
    7.2626    3.6769    0.0000 O   0  0  0  0  0  0  0  0  0  0  0  0
    9.2688    2.7022    0.0000 O   0  0  0  0  0  0  0  0  0  0  0  0
    2.0000   -0.1305    0.0000 O   0  0  0  0  0  0  0  0  0  0  0  0
    5.7888   -3.7068    0.0000 O   0  0  0  0  0  0  0  0  0  0  0  0
    5.3723    1.1530    0.0000 C   0  0  2  0  0  0  0  0  0  0  0  0
    5.0302    2.0927    0.0000 C   0  0  1  0  0  0  0  0  0  0  0  0
    4.7151    0.3449    0.0000 C   0  0  1  0  0  0  0  0  0  0  0  0
    3.6879    0.5178    0.0000 C   0  0  1  0  0  0  0  0  0  0  0  0
    4.0074    2.2894    0.0000 C   0  0  2  0  0  0  0  0  0  0  0  0
    7.0038    2.7110    0.0000 C   0  0  2  0  0  0  0  0  0  0  0  0
    6.7450    1.7450    0.0000 C   0  0  1  0  0  0  0  0  0  0  0  0
    3.3317    1.4966    0.0000 C   0  0  0  0  0  0  0  0  0  0  0  0
    5.1097   -0.6658    0.0000 C   0  0  0  0  0  0  0  0  0  0  0  0
    4.6882    3.0324    0.0000 C   0  0  0  0  0  0  0  0  0  0  0  0
    5.5850   -0.1484    0.0000 C   0  0  0  0  0  0  0  0  0  0  0  0
    6.6332    4.0596    0.0000 C   0  0  0  0  0  0  0  0  0  0  0  0
    5.7672    3.5596    0.0000 C   0  0  0  0  0  0  0  0  0  0  0  0
    8.4027    2.2022    0.0000 C   0  0  0  0  0  0  0  0  0  0  0  0
    4.4252   -1.5076    0.0000 C   0  0  1  0  0  0  0  0  0  0  0  0
    2.9841   -0.3079    0.0000 C   0  0  0  0  0  0  0  0  0  0  0  0
    4.7780   -2.4433    0.0000 C   0  0  0  0  0  0  0  0  0  0  0  0
    4.2284   -3.2788    0.0000 C   0  0  0  0  0  0  0  0  0  0  0  0
    5.7424   -2.7078    0.0000 C   0  0  0  0  0  0  0  0  0  0  0  0
    4.8532   -4.0596    0.0000 C   0  0  0  0  0  0  0  0  0  0  0  0
    5.9186    0.5019    0.0000 H   0  0  0  0  0  0  0  0  0  0  0  0
    2.8514    0.6687    0.0000 H   0  0  0  0  0  0  0  0  0  0  0  0
    3.3978    2.4029    0.0000 H   0  0  0  0  0  0  0  0  0  0  0  0
    6.5250    0.9240    0.0000 H   0  0  0  0  0  0  0  0  0  0  0  0
    2.9356    1.9736    0.0000 H   0  0  0  0  0  0  0  0  0  0  0  0
    2.7940    1.1880    0.0000 H   0  0  0  0  0  0  0  0  0  0  0  0
    5.5167   -1.1336    0.0000 H   0  0  0  0  0  0  0  0  0  0  0  0
    5.6401   -0.3449    0.0000 H   0  0  0  0  0  0  0  0  0  0  0  0
    5.2708    3.2445    0.0000 H   0  0  0  0  0  0  0  0  0  0  0  0
    4.4762    3.6150    0.0000 H   0  0  0  0  0  0  0  0  0  0  0  0
    4.1056    2.8204    0.0000 H   0  0  0  0  0  0  0  0  0  0  0  0
    5.2791   -0.6878    0.0000 H   0  0  0  0  0  0  0  0  0  0  0  0
    6.1243   -0.4543    0.0000 H   0  0  0  0  0  0  0  0  0  0  0  0
    5.8908    0.3909    0.0000 H   0  0  0  0  0  0  0  0  0  0  0  0
    6.8686    4.6332    0.0000 H   0  0  0  0  0  0  0  0  0  0  0  0
    5.1707    3.7288    0.0000 H   0  0  0  0  0  0  0  0  0  0  0  0
    4.0312   -1.9864    0.0000 H   0  0  0  0  0  0  0  0  0  0  0  0
    3.0669    3.3477    0.0000 H   0  0  0  0  0  0  0  0  0  0  0  0
    7.8615    3.8374    0.0000 H   0  0  0  0  0  0  0  0  0  0  0  0
    3.6091   -3.3076    0.0000 H   0  0  0  0  0  0  0  0  0  0  0  0
    6.2265   -2.3205    0.0000 H   0  0  0  0  0  0  0  0  0  0  0  0
    4.6892   -4.6575    0.0000 H   0  0  0  0  0  0  0  0  0  0  0  0
  1 14  1  0  0  0  0
  1 21  1  0  0  0  0
 12  2  1  6  0  0  0
  2 45  1  0  0  0  0
  3 22  1  0  0  0  0
  3 23  1  0  0  0  0
 13  4  1  6  0  0  0
  4 46  1  0  0  0  0
  5 21  2  0  0  0  0
  6 23  2  0  0  0  0
  7 26  1  0  0  0  0
  7 27  1  0  0  0  0
  8  9  1  0  0  0  0
  8 10  1  0  0  0  0
  8 14  1  0  0  0  0
  8 28  1  6  0  0  0
  9 12  1  0  0  0  0
  9 13  1  0  0  0  0
  9 17  1  6  0  0  0
 10 11  1  0  0  0  0
 10 16  1  0  0  0  0
 10 18  1  1  0  0  0
 11 15  1  0  0  0  0
 11 23  1  0  0  0  0
 11 29  1  1  0  0  0
 12 15  1  0  0  0  0
 12 30  1  0  0  0  0
 13 19  1  0  0  0  0
 13 21  1  0  0  0  0
 14 20  1  0  0  0  0
 14 31  1  6  0  0  0
 15 32  1  0  0  0  0
 15 33  1  0  0  0  0
 16 22  1  0  0  0  0
 16 34  1  0  0  0  0
 16 35  1  0  0  0  0
 17 36  1  0  0  0  0
 17 37  1  0  0  0  0
 17 38  1  0  0  0  0
 18 39  1  0  0  0  0
 18 40  1  0  0  0  0
 18 41  1  0  0  0  0
 19 20  2  0  0  0  0
 19 42  1  0  0  0  0
 20 43  1  0  0  0  0
 22 24  1  1  0  0  0
 22 44  1  0  0  0  0
 24 25  1  0  0  0  0
 24 26  2  0  0  0  0
 25 27  2  0  0  0  0
 25 47  1  0  0  0  0
 26 48  1  0  0  0  0
 27 49  1  0  0  0  0
M  END
> <PUBCHEM_COMPOUND_CID>
101607218

> <PUBCHEM_COMPOUND_CANONICALIZED>
1

> <PUBCHEM_CACTVS_COMPLEXITY>
734

> <PUBCHEM_CACTVS_HBOND_ACCEPTOR>
7

> <PUBCHEM_CACTVS_HBOND_DONOR>
2

> <PUBCHEM_CACTVS_ROTATABLE_BOND>
1

> <PUBCHEM_CACTVS_SUBSKEYS>
AAADceB4OAAAAAAAAAAAAAAAAAAAASAAAAA0SIECAAAAAACRgAAAGgAACAAAD1SgmAIyDIAABkCIAijSiAICCAAkIAAIiAFGCMgNNxYENQqCWSCl4BELOYPK7PzPgAAAAAAAAADAAAYAADAAAAAAAAAAAA==

> <PUBCHEM_IUPAC_OPENEYE_NAME>
(1R,2S,3S,5S,8R,10S,11S,12S)-5-(3-furyl)-10,12-dihydroxy-3,11-dimethyl-6,14-dioxatetracyclo[10.2.2.02,11.03,8]hexadec-15-ene-7,13-dione

> <PUBCHEM_IUPAC_CAS_NAME>
(1R,2S,3S,5S,8R,10S,11S,12S)-5-(3-furanyl)-10,12-dihydroxy-3,11-dimethyl-6,14-dioxatetracyclo[10.2.2.02,11.03,8]hexadec-15-ene-7,13-dione

> <PUBCHEM_IUPAC_NAME_MARKUP>
(1<I>R</I>,2<I>S</I>,3<I>S</I>,5<I>S</I>,8<I>R</I>,10<I>S</I>,11<I>S</I>,12<I>S</I>)-5-(furan-3-yl)-10,12-dihydroxy-3,11-dimethyl-6,14-dioxatetracyclo[10.2.2.0<SUP>2,11</SUP>.0<SUP>3,8</SUP>]hexadec-15-ene-7,13-dione

> <PUBCHEM_IUPAC_NAME>
(1R,2S,3S,5S,8R,10S,11S,12S)-5-(furan-3-yl)-10,12-dihydroxy-3,11-dimethyl-6,14-dioxatetracyclo[10.2.2.02,11.03,8]hexadec-15-ene-7,13-dione

> <PUBCHEM_IUPAC_SYSTEMATIC_NAME>
(1R,2S,3S,5S,8R,10S,11S,12S)-5-(furan-3-yl)-3,11-dimethyl-10,12-bis(oxidanyl)-6,14-dioxatetracyclo[10.2.2.02,11.03,8]hexadec-15-ene-7,13-dione

> <PUBCHEM_IUPAC_TRADITIONAL_NAME>
(1R,2S,3S,5S,8R,10S,11S,12S)-5-(3-furyl)-10,12-dihydroxy-3,11-dimethyl-6,14-dioxatetracyclo[10.2.2.02,11.03,8]hexadec-15-ene-7,13-quinone

> <PUBCHEM_IUPAC_INCHI>
InChI=1S/C20H22O7/c1-18-8-13(10-4-6-25-9-10)26-16(22)11(18)7-14(21)19(2)15(18)12-3-5-20(19,24)17(23)27-12/h3-6,9,11-15,21,24H,7-8H2,1-2H3/t11-,12+,13-,14-,15-,18+,19+,20+/m0/s1

> <PUBCHEM_IUPAC_INCHIKEY>
DONJVJVFKRSFIY-LOQSJSJLSA-N

> <PUBCHEM_XLOGP3_AA>
1.2

> <PUBCHEM_EXACT_MASS>
374.136553

> <PUBCHEM_MOLECULAR_FORMULA>
C20H22O7

> <PUBCHEM_MOLECULAR_WEIGHT>
374.4

> <PUBCHEM_OPENEYE_CAN_SMILES>
CC12CC(OC(=O)C1CC(C3(C2C4C=CC3(C(=O)O4)O)C)O)C5=COC=C5

> <PUBCHEM_OPENEYE_ISO_SMILES>
C[C@@]12C[C@H](OC(=O)[C@@H]1C[C@@H]([C@@]3([C@H]2[C@H]4C=C[C@]3(C(=O)O4)O)C)O)C5=COC=C5

> <PUBCHEM_CACTVS_TPSA>
106

> <PUBCHEM_MONOISOTOPIC_WEIGHT>
374.136553

> <PUBCHEM_TOTAL_CHARGE>
0

> <PUBCHEM_HEAVY_ATOM_COUNT>
27

> <PUBCHEM_ATOM_DEF_STEREO_COUNT>
8

> <PUBCHEM_ATOM_UDEF_STEREO_COUNT>
0

> <PUBCHEM_BOND_DEF_STEREO_COUNT>
0

> <PUBCHEM_BOND_UDEF_STEREO_COUNT>
0

> <PUBCHEM_ISOTOPIC_ATOM_COUNT>
0

> <PUBCHEM_COMPONENT_COUNT>
1

> <PUBCHEM_CACTVS_TAUTO_COUNT>
-1

> <PUBCHEM_COORDINATE_TYPE>
1
5
255

> <PUBCHEM_BONDANNOTATIONS>
10  18  5
11  29  5
14  31  6
12  2  6
22  24  5
24  25  8
24  26  8
25  27  8
13  4  6
7  26  8
7  27  8
8  28  6
9  17  6

$$$$
