6857439
  -OEChem-09012012093D

 73 78  0     1  0  0  0  0  0999 V2000
   -3.0908   -0.8519   -0.2877 O   0  0  0  0  0  0  0  0  0  0  0  0
   -4.5289    0.3701    1.1519 O   0  0  0  0  0  0  0  0  0  0  0  0
   -0.1843    0.8969   -0.1308 C   0  0  1  0  0  0  0  0  0  0  0  0
    0.4110   -0.4581    0.3275 C   0  0  2  0  0  0  0  0  0  0  0  0
   -1.5915    0.8149    0.5328 C   0  0  2  0  0  0  0  0  0  0  0  0
    1.8207   -0.7122   -0.2160 C   0  0  1  0  0  0  0  0  0  0  0  0
    2.7588    0.4332    0.2894 C   0  0  1  0  0  0  0  0  0  0  0  0
   -1.9329   -0.6906    0.5257 C   0  0  2  0  0  0  0  0  0  0  0  0
    4.2455    0.2251   -0.1842 C   0  0  2  0  0  0  0  0  0  0  0  0
   -0.7071   -1.4443    0.0076 C   0  0  0  0  0  0  0  0  0  0  0  0
    0.7133    2.0086    0.4333 C   0  0  0  0  0  0  0  0  0  0  0  0
    2.1788    1.8412   -0.0109 C   0  0  0  0  0  0  0  0  0  0  0  0
   -2.7953    1.4675   -0.1562 C   0  0  1  0  0  0  0  0  0  0  0  0
    4.7006   -1.1841    0.3159 C   0  0  1  0  0  0  0  0  0  0  0  0
    2.3488   -2.0901    0.2085 C   0  0  0  0  0  0  0  0  0  0  0  0
   -3.8668    0.3585   -0.1214 C   0  0  1  0  0  0  0  0  0  0  0  0
    3.8017   -2.3101   -0.2073 C   0  0  0  0  0  0  0  0  0  0  0  0
   -0.2616    1.0385   -1.6727 C   0  0  0  0  0  0  0  0  0  0  0  0
    5.1822    1.2810    0.4686 C   0  0  0  0  0  0  0  0  0  0  0  0
    6.1813   -1.4711    0.0311 C   0  0  0  0  0  0  0  0  0  0  0  0
    4.3555    0.3600   -1.7247 C   0  0  0  0  0  0  0  0  0  0  0  0
   -3.1999    2.7830    0.4983 C   0  0  0  0  0  0  0  0  0  0  0  0
   -4.8584    0.4716   -1.2819 C   0  0  0  0  0  0  0  0  0  0  0  0
    6.6714    1.0080    0.2375 C   0  0  0  0  0  0  0  0  0  0  0  0
    7.0755   -0.4015    0.6525 C   0  0  0  0  0  0  0  0  0  0  0  0
   -5.8683   -0.6790   -1.2713 C   0  0  0  0  0  0  0  0  0  0  0  0
   -5.8773   -0.0975    1.1679 C   0  0  0  0  0  0  0  0  0  0  0  0
   -6.1352   -1.2021    0.1464 C   0  0  1  0  0  0  0  0  0  0  0  0
   -7.5469   -1.7655    0.2705 C   0  0  0  0  0  0  0  0  0  0  0  0
    0.5011   -0.4426    1.4274 H   0  0  0  0  0  0  0  0  0  0  0  0
   -1.5170    1.1382    1.5802 H   0  0  0  0  0  0  0  0  0  0  0  0
    1.7862   -0.7096   -1.3094 H   0  0  0  0  0  0  0  0  0  0  0  0
    2.7726    0.3575    1.3887 H   0  0  0  0  0  0  0  0  0  0  0  0
   -2.1771   -1.0259    1.5420 H   0  0  0  0  0  0  0  0  0  0  0  0
   -0.7820   -1.6714   -1.0607 H   0  0  0  0  0  0  0  0  0  0  0  0
   -0.5812   -2.3946    0.5365 H   0  0  0  0  0  0  0  0  0  0  0  0
    0.6810    1.9989    1.5305 H   0  0  0  0  0  0  0  0  0  0  0  0
    0.3452    2.9940    0.1232 H   0  0  0  0  0  0  0  0  0  0  0  0
    2.2568    2.0682   -1.0784 H   0  0  0  0  0  0  0  0  0  0  0  0
    2.7693    2.6042    0.5085 H   0  0  0  0  0  0  0  0  0  0  0  0
   -2.5735    1.6835   -1.2038 H   0  0  0  0  0  0  0  0  0  0  0  0
    4.5966   -1.1904    1.4126 H   0  0  0  0  0  0  0  0  0  0  0  0
    1.7325   -2.8817   -0.2332 H   0  0  0  0  0  0  0  0  0  0  0  0
    2.2680   -2.1991    1.2977 H   0  0  0  0  0  0  0  0  0  0  0  0
    4.1394   -3.2729    0.1954 H   0  0  0  0  0  0  0  0  0  0  0  0
    3.8717   -2.3899   -1.2980 H   0  0  0  0  0  0  0  0  0  0  0  0
    0.7018    0.8902   -2.1665 H   0  0  0  0  0  0  0  0  0  0  0  0
   -0.9578    0.3237   -2.1228 H   0  0  0  0  0  0  0  0  0  0  0  0
   -0.5903    2.0461   -1.9528 H   0  0  0  0  0  0  0  0  0  0  0  0
    4.9996    1.3101    1.5510 H   0  0  0  0  0  0  0  0  0  0  0  0
    4.9576    2.2843    0.0880 H   0  0  0  0  0  0  0  0  0  0  0  0
    6.3677   -1.5373   -1.0465 H   0  0  0  0  0  0  0  0  0  0  0  0
    6.4573   -2.4465    0.4507 H   0  0  0  0  0  0  0  0  0  0  0  0
    5.3611    0.1376   -2.0922 H   0  0  0  0  0  0  0  0  0  0  0  0
    3.6767   -0.3102   -2.2575 H   0  0  0  0  0  0  0  0  0  0  0  0
    4.1277    1.3802   -2.0505 H   0  0  0  0  0  0  0  0  0  0  0  0
   -4.0929    3.1973    0.0197 H   0  0  0  0  0  0  0  0  0  0  0  0
   -3.4126    2.6621    1.5655 H   0  0  0  0  0  0  0  0  0  0  0  0
   -2.3947    3.5190    0.4022 H   0  0  0  0  0  0  0  0  0  0  0  0
   -4.3408    0.4724   -2.2484 H   0  0  0  0  0  0  0  0  0  0  0  0
   -5.4087    1.4175   -1.2026 H   0  0  0  0  0  0  0  0  0  0  0  0
    7.2637    1.7360    0.8044 H   0  0  0  0  0  0  0  0  0  0  0  0
    6.9223    1.1657   -0.8176 H   0  0  0  0  0  0  0  0  0  0  0  0
    8.1191   -0.5844    0.3723 H   0  0  0  0  0  0  0  0  0  0  0  0
    7.0244   -0.4815    1.7457 H   0  0  0  0  0  0  0  0  0  0  0  0
   -6.7932   -0.3356   -1.7510 H   0  0  0  0  0  0  0  0  0  0  0  0
   -5.4952   -1.5062   -1.8883 H   0  0  0  0  0  0  0  0  0  0  0  0
   -6.5374    0.7609    0.9941 H   0  0  0  0  0  0  0  0  0  0  0  0
   -6.0812   -0.4553    2.1827 H   0  0  0  0  0  0  0  0  0  0  0  0
   -5.4268   -2.0180    0.3420 H   0  0  0  0  0  0  0  0  0  0  0  0
   -7.7098   -2.1868    1.2681 H   0  0  0  0  0  0  0  0  0  0  0  0
   -8.3018   -0.9893    0.1049 H   0  0  0  0  0  0  0  0  0  0  0  0
   -7.7121   -2.5625   -0.4620 H   0  0  0  0  0  0  0  0  0  0  0  0
  1  8  1  0  0  0  0
  1 16  1  0  0  0  0
  2 16  1  0  0  0  0
  2 27  1  0  0  0  0
  3  4  1  0  0  0  0
  3  5  1  0  0  0  0
  3 11  1  0  0  0  0
  3 18  1  0  0  0  0
  4  6  1  0  0  0  0
  4 10  1  0  0  0  0
  4 30  1  0  0  0  0
  5  8  1  0  0  0  0
  5 13  1  0  0  0  0
  5 31  1  0  0  0  0
  6  7  1  0  0  0  0
  6 15  1  0  0  0  0
  6 32  1  0  0  0  0
  7  9  1  0  0  0  0
  7 12  1  0  0  0  0
  7 33  1  0  0  0  0
  8 10  1  0  0  0  0
  8 34  1  0  0  0  0
  9 14  1  0  0  0  0
  9 19  1  0  0  0  0
  9 21  1  0  0  0  0
 10 35  1  0  0  0  0
 10 36  1  0  0  0  0
 11 12  1  0  0  0  0
 11 37  1  0  0  0  0
 11 38  1  0  0  0  0
 12 39  1  0  0  0  0
 12 40  1  0  0  0  0
 13 16  1  0  0  0  0
 13 22  1  0  0  0  0
 13 41  1  0  0  0  0
 14 17  1  0  0  0  0
 14 20  1  0  0  0  0
 14 42  1  0  0  0  0
 15 17  1  0  0  0  0
 15 43  1  0  0  0  0
 15 44  1  0  0  0  0
 16 23  1  0  0  0  0
 17 45  1  0  0  0  0
 17 46  1  0  0  0  0
 18 47  1  0  0  0  0
 18 48  1  0  0  0  0
 18 49  1  0  0  0  0
 19 24  1  0  0  0  0
 19 50  1  0  0  0  0
 19 51  1  0  0  0  0
 20 25  1  0  0  0  0
 20 52  1  0  0  0  0
 20 53  1  0  0  0  0
 21 54  1  0  0  0  0
 21 55  1  0  0  0  0
 21 56  1  0  0  0  0
 22 57  1  0  0  0  0
 22 58  1  0  0  0  0
 22 59  1  0  0  0  0
 23 26  1  0  0  0  0
 23 60  1  0  0  0  0
 23 61  1  0  0  0  0
 24 25  1  0  0  0  0
 24 62  1  0  0  0  0
 24 63  1  0  0  0  0
 25 64  1  0  0  0  0
 25 65  1  0  0  0  0
 26 28  1  0  0  0  0
 26 66  1  0  0  0  0
 26 67  1  0  0  0  0
 27 28  1  0  0  0  0
 27 68  1  0  0  0  0
 27 69  1  0  0  0  0
 28 29  1  0  0  0  0
 28 70  1  0  0  0  0
 29 71  1  0  0  0  0
 29 72  1  0  0  0  0
 29 73  1  0  0  0  0
M  END
> <PUBCHEM_COMPOUND_CID>
6857439

> <PUBCHEM_CONFORMER_RMSD>
0.8

> <PUBCHEM_CONFORMER_DIVERSEORDER>
1

> <PUBCHEM_MMFF94_PARTIAL_CHARGES>
5
1 -0.56
16 0.56
2 -0.56
27 0.28
8 0.28

> <PUBCHEM_EFFECTIVE_ROTOR_COUNT>
3.2

> <PUBCHEM_PHARMACOPHORE_FEATURES>
8
1 1 acceptor
1 2 acceptor
5 1 5 8 13 16 rings
5 3 4 5 8 10 rings
6 2 16 23 26 27 28 rings
6 3 4 6 7 11 12 rings
6 6 7 9 14 15 17 rings
6 9 14 19 20 24 25 rings

> <PUBCHEM_HEAVY_ATOM_COUNT>
29

> <PUBCHEM_ATOM_DEF_STEREO_COUNT>
9

> <PUBCHEM_ATOM_UDEF_STEREO_COUNT>
2

> <PUBCHEM_BOND_DEF_STEREO_COUNT>
0

> <PUBCHEM_BOND_UDEF_STEREO_COUNT>
0

> <PUBCHEM_ISOTOPIC_ATOM_COUNT>
0

> <PUBCHEM_COMPONENT_COUNT>
1

> <PUBCHEM_CACTVS_TAUTO_COUNT>
1

> <PUBCHEM_CONFORMER_ID>
0068A2DF00000001

> <PUBCHEM_MMFF94_ENERGY>
110.0814

> <PUBCHEM_FEATURE_SELFOVERLAP>
41.014

> <PUBCHEM_SHAPE_FINGERPRINT>
10 15 18188203300018052152
10299344 5 17989207062113596307
10595046 47 18412544280071399834
11646440 116 18202005442978296312
11719270 70 18334008389788889458
11963148 33 18335413595097416434
12107183 9 17548983256348818618
12166972 35 17968098659532670917
12236239 1 17703791413852935792
12516196 113 18201719557033287920
12596602 18 17632300051292346370
13073987 5 18341612573155775920
13533116 47 18342457088233092568
13685833 64 18410012147694799427
13782708 43 18042403530799623010
13862211 1 18410575084668360193
13914758 101 15502646079479495749
14170010 4 18409165549474435232
14251764 18 18201720677813815760
14347332 77 18411136914189549573
14394314 77 18271814488693976329
14849402 71 17917147333292852608
14856354 85 15554161562875667877
15183329 4 18343016692237756382
15196674 1 18339361855847922448
15788980 27 16587746421509463500
15849732 13 17967248723805914279
15927050 60 17623847234059167948
17349148 13 18343588434321613385
17492 89 18122905322820945642
17844677 252 18342742896758062336
17857418 61 18413387635654862805
1813 80 17313110722143026884
18335252 114 8142091935375937850
18608769 82 18338796826988262563
19319366 153 18333726923360129546
19377110 9 18060423495074478971
19489759 90 15213018237403196533
20028762 73 18344145908377193495
21033648 29 18114166550252720757
21130935 74 18272654506612920818
21150785 3 17095240350005275479
21236236 1 18339923719138038857
21267235 1 18413112740847858294
21279426 13 18266741277433641956
21521721 280 18131068285996846504
21623969 137 18409451379653764882
22149856 69 18271538511000305339
22224240 67 18411695522252443954
23522609 53 18124629507034619857
23559900 14 18339071717700980697
23569917 315 18333736801727284818
23569943 247 17976826385345264642
24771750 20 17900553576799776068
3004659 81 18113899339062353322
335352 9 18410575127655080118
3383291 50 18334295391982510651
34797466 226 17346605196715994420
350125 39 18413389822078514513
3545911 37 18410292527481385706
3633792 109 18261663801772592885
4073 2 18259991456917545243
4093350 32 16271928255694511160
4325135 7 18413668015182967015
4340502 62 18413108368761035614
46194498 28 17676766560656899812
465052 167 18272654553714590702
5104073 3 18265337209437426352
542803 24 16773795891851584264
59682541 35 18341331192736820578
59755656 215 18335703802738866182
6086070 43 16988263310789951041
9996256 80 18342739610980986610

> <PUBCHEM_SHAPE_MULTIPOLES>
585.07
18.32
2.21
1.09
3.86
0.21
0.35
-5.87
-1.36
-0.11
-0.2
0.53
0.17
-0.05

> <PUBCHEM_SHAPE_SELFOVERLAP>
1254.115

> <PUBCHEM_SHAPE_VOLUME>
322.7

> <PUBCHEM_COORDINATE_TYPE>
2
5
10

$$$$
