22295359
  -OEChem-09012011453D

 75 79  0     1  0  0  0  0  0999 V2000
    2.6421   -0.6913   -0.9056 O   0  0  0  0  0  0  0  0  0  0  0  0
    8.1521    0.5343    0.0801 O   0  0  0  0  0  0  0  0  0  0  0  0
   -0.1059    0.7943    0.0554 C   0  0  1  0  0  0  0  0  0  0  0  0
   -0.8554   -0.3111   -0.7264 C   0  0  2  0  0  0  0  0  0  0  0  0
   -2.0842   -0.8497    0.0149 C   0  0  1  0  0  0  0  0  0  0  0  0
    1.0526    1.0740   -0.9450 C   0  0  2  0  0  0  0  0  0  0  0  0
   -3.0740    0.3334    0.2693 C   0  0  1  0  0  0  0  0  0  0  0  0
   -4.3883   -0.1441    0.9942 C   0  0  2  0  0  0  0  0  0  0  0  0
    1.4000   -0.3220   -1.4999 C   0  0  2  0  0  0  0  0  0  0  0  0
    0.2629   -1.2745   -1.1130 C   0  0  0  0  0  0  0  0  0  0  0  0
   -1.0734    1.9717    0.2392 C   0  0  0  0  0  0  0  0  0  0  0  0
   -2.3697    1.5393    0.9492 C   0  0  0  0  0  0  0  0  0  0  0  0
   -5.0403   -1.3099    0.1768 C   0  0  2  0  0  0  0  0  0  0  0  0
    2.3790    1.6123   -0.4096 C   0  0  1  0  0  0  0  0  0  0  0  0
   -2.7601   -1.9808   -0.7709 C   0  0  0  0  0  0  0  0  0  0  0  0
   -4.0493   -2.4521   -0.1044 C   0  0  0  0  0  0  0  0  0  0  0  0
    0.4028    0.3258    1.4443 C   0  0  0  0  0  0  0  0  0  0  0  0
    3.3951    0.5254   -0.7830 C   0  0  1  0  0  0  0  0  0  0  0  0
   -5.4347    0.9986    1.1436 C   0  0  0  0  0  0  0  0  0  0  0  0
   -5.6852   -0.8291   -1.1421 C   0  0  0  0  0  0  0  0  0  0  0  0
   -4.0822   -0.6353    2.4333 C   0  0  0  0  0  0  0  0  0  0  0  0
   -6.0350    1.4691   -0.1765 C   0  0  0  0  0  0  0  0  0  0  0  0
    2.7461    2.9663   -1.0088 C   0  0  0  0  0  0  0  0  0  0  0  0
   -6.6745    0.3089   -0.9249 C   0  0  0  0  0  0  0  0  0  0  0  0
    4.4875    0.3360    0.2541 C   0  0  0  0  0  0  0  0  0  0  0  0
    5.4508   -0.7861   -0.1444 C   0  0  0  0  0  0  0  0  0  0  0  0
    6.5313   -1.0768    0.9171 C   0  0  2  0  0  0  0  0  0  0  0  0
    7.4210    0.1336    1.2302 C   0  0  0  0  0  0  0  0  0  0  0  0
    7.3891   -2.2600    0.4528 C   0  0  0  0  0  0  0  0  0  0  0  0
   -1.2269    0.1227   -1.6705 H   0  0  0  0  0  0  0  0  0  0  0  0
   -1.7631   -1.2748    0.9706 H   0  0  0  0  0  0  0  0  0  0  0  0
    0.6703    1.6922   -1.7687 H   0  0  0  0  0  0  0  0  0  0  0  0
   -3.3656    0.7014   -0.7241 H   0  0  0  0  0  0  0  0  0  0  0  0
    1.5316   -0.2871   -2.5884 H   0  0  0  0  0  0  0  0  0  0  0  0
    0.5448   -1.9398   -0.2900 H   0  0  0  0  0  0  0  0  0  0  0  0
   -0.0255   -1.9025   -1.9623 H   0  0  0  0  0  0  0  0  0  0  0  0
   -1.3390    2.3981   -0.7370 H   0  0  0  0  0  0  0  0  0  0  0  0
   -0.5936    2.7783    0.8065 H   0  0  0  0  0  0  0  0  0  0  0  0
   -2.1461    1.3118    1.9958 H   0  0  0  0  0  0  0  0  0  0  0  0
   -3.0394    2.4060    0.9575 H   0  0  0  0  0  0  0  0  0  0  0  0
   -5.8551   -1.7354    0.7809 H   0  0  0  0  0  0  0  0  0  0  0  0
    2.3509    1.7469    0.6743 H   0  0  0  0  0  0  0  0  0  0  0  0
   -2.9684   -1.6554   -1.7970 H   0  0  0  0  0  0  0  0  0  0  0  0
   -2.0788   -2.8362   -0.8527 H   0  0  0  0  0  0  0  0  0  0  0  0
   -4.5245   -3.2126   -0.7363 H   0  0  0  0  0  0  0  0  0  0  0  0
   -3.7997   -2.9594    0.8353 H   0  0  0  0  0  0  0  0  0  0  0  0
   -0.3882   -0.1018    2.0654 H   0  0  0  0  0  0  0  0  0  0  0  0
    0.8094    1.1672    2.0163 H   0  0  0  0  0  0  0  0  0  0  0  0
    1.1888   -0.4315    1.3706 H   0  0  0  0  0  0  0  0  0  0  0  0
    3.8443    0.7313   -1.7636 H   0  0  0  0  0  0  0  0  0  0  0  0
   -6.2607    0.6451    1.7773 H   0  0  0  0  0  0  0  0  0  0  0  0
   -5.0096    1.8559    1.6763 H   0  0  0  0  0  0  0  0  0  0  0  0
   -6.2099   -1.6665   -1.6185 H   0  0  0  0  0  0  0  0  0  0  0  0
   -4.9230   -0.4995   -1.8564 H   0  0  0  0  0  0  0  0  0  0  0  0
   -3.3194   -1.4167    2.4656 H   0  0  0  0  0  0  0  0  0  0  0  0
   -3.7415    0.1848    3.0737 H   0  0  0  0  0  0  0  0  0  0  0  0
   -4.9826   -1.0500    2.9023 H   0  0  0  0  0  0  0  0  0  0  0  0
   -6.7941    2.2347    0.0216 H   0  0  0  0  0  0  0  0  0  0  0  0
   -5.2685    1.9435   -0.7991 H   0  0  0  0  0  0  0  0  0  0  0  0
    2.8061    2.9193   -2.1015 H   0  0  0  0  0  0  0  0  0  0  0  0
    1.9959    3.7188   -0.7443 H   0  0  0  0  0  0  0  0  0  0  0  0
    3.7155    3.3080   -0.6319 H   0  0  0  0  0  0  0  0  0  0  0  0
   -7.0546    0.6574   -1.8918 H   0  0  0  0  0  0  0  0  0  0  0  0
   -7.5382   -0.0617   -0.3591 H   0  0  0  0  0  0  0  0  0  0  0  0
    4.0397    0.0794    1.2223 H   0  0  0  0  0  0  0  0  0  0  0  0
    5.0282    1.2799    0.3755 H   0  0  0  0  0  0  0  0  0  0  0  0
    4.8837   -1.7093   -0.3178 H   0  0  0  0  0  0  0  0  0  0  0  0
    5.9270   -0.5299   -1.0994 H   0  0  0  0  0  0  0  0  0  0  0  0
    6.0275   -1.3704    1.8471 H   0  0  0  0  0  0  0  0  0  0  0  0
    6.8372    0.9837    1.5940 H   0  0  0  0  0  0  0  0  0  0  0  0
    8.1424   -0.1279    2.0125 H   0  0  0  0  0  0  0  0  0  0  0  0
    7.8887   -2.0505   -0.4990 H   0  0  0  0  0  0  0  0  0  0  0  0
    6.7716   -3.1545    0.3172 H   0  0  0  0  0  0  0  0  0  0  0  0
    8.1577   -2.4978    1.1958 H   0  0  0  0  0  0  0  0  0  0  0  0
    8.7023    1.2924    0.3410 H   0  0  0  0  0  0  0  0  0  0  0  0
  1  9  1  0  0  0  0
  1 18  1  0  0  0  0
  2 28  1  0  0  0  0
  2 75  1  0  0  0  0
  3  4  1  0  0  0  0
  3  6  1  0  0  0  0
  3 11  1  0  0  0  0
  3 17  1  0  0  0  0
  4  5  1  0  0  0  0
  4 10  1  0  0  0  0
  4 30  1  0  0  0  0
  5  7  1  0  0  0  0
  5 15  1  0  0  0  0
  5 31  1  0  0  0  0
  6  9  1  0  0  0  0
  6 14  1  0  0  0  0
  6 32  1  0  0  0  0
  7  8  1  0  0  0  0
  7 12  1  0  0  0  0
  7 33  1  0  0  0  0
  8 13  1  0  0  0  0
  8 19  1  0  0  0  0
  8 21  1  0  0  0  0
  9 10  1  0  0  0  0
  9 34  1  0  0  0  0
 10 35  1  0  0  0  0
 10 36  1  0  0  0  0
 11 12  1  0  0  0  0
 11 37  1  0  0  0  0
 11 38  1  0  0  0  0
 12 39  1  0  0  0  0
 12 40  1  0  0  0  0
 13 16  1  0  0  0  0
 13 20  1  0  0  0  0
 13 41  1  0  0  0  0
 14 18  1  0  0  0  0
 14 23  1  0  0  0  0
 14 42  1  0  0  0  0
 15 16  1  0  0  0  0
 15 43  1  0  0  0  0
 15 44  1  0  0  0  0
 16 45  1  0  0  0  0
 16 46  1  0  0  0  0
 17 47  1  0  0  0  0
 17 48  1  0  0  0  0
 17 49  1  0  0  0  0
 18 25  1  0  0  0  0
 18 50  1  0  0  0  0
 19 22  1  0  0  0  0
 19 51  1  0  0  0  0
 19 52  1  0  0  0  0
 20 24  1  0  0  0  0
 20 53  1  0  0  0  0
 20 54  1  0  0  0  0
 21 55  1  0  0  0  0
 21 56  1  0  0  0  0
 21 57  1  0  0  0  0
 22 24  1  0  0  0  0
 22 58  1  0  0  0  0
 22 59  1  0  0  0  0
 23 60  1  0  0  0  0
 23 61  1  0  0  0  0
 23 62  1  0  0  0  0
 24 63  1  0  0  0  0
 24 64  1  0  0  0  0
 25 26  1  0  0  0  0
 25 65  1  0  0  0  0
 25 66  1  0  0  0  0
 26 27  1  0  0  0  0
 26 67  1  0  0  0  0
 26 68  1  0  0  0  0
 27 28  1  0  0  0  0
 27 29  1  0  0  0  0
 27 69  1  0  0  0  0
 28 70  1  0  0  0  0
 28 71  1  0  0  0  0
 29 72  1  0  0  0  0
 29 73  1  0  0  0  0
 29 74  1  0  0  0  0
M  END
> <PUBCHEM_COMPOUND_CID>
22295359

> <PUBCHEM_CONFORMER_RMSD>
0.8

> <PUBCHEM_CONFORMER_DIVERSEORDER>
1
11
21
33
12
42
6
13
50
37
3
34
36
28
45
32
10
7
30
44
2
19
17
14
27
41
48
24
20
47
8
16
49
15
23
22
18
35
39
40
26
29
31
43
9
25
5
46
38
4

> <PUBCHEM_MMFF94_PARTIAL_CHARGES>
6
1 -0.56
18 0.28
2 -0.68
28 0.28
75 0.4
9 0.28

> <PUBCHEM_EFFECTIVE_ROTOR_COUNT>
6.4

> <PUBCHEM_PHARMACOPHORE_FEATURES>
9
1 1 acceptor
1 2 acceptor
1 2 donor
1 29 hydrophobe
5 1 6 9 14 18 rings
5 3 4 6 9 10 rings
6 3 4 5 7 11 12 rings
6 5 7 8 13 15 16 rings
6 8 13 19 20 22 24 rings

> <PUBCHEM_HEAVY_ATOM_COUNT>
29

> <PUBCHEM_ATOM_DEF_STEREO_COUNT>
8

> <PUBCHEM_ATOM_UDEF_STEREO_COUNT>
3

> <PUBCHEM_BOND_DEF_STEREO_COUNT>
0

> <PUBCHEM_BOND_UDEF_STEREO_COUNT>
0

> <PUBCHEM_ISOTOPIC_ATOM_COUNT>
0

> <PUBCHEM_COMPONENT_COUNT>
1

> <PUBCHEM_CACTVS_TAUTO_COUNT>
1

> <PUBCHEM_CONFORMER_ID>
0154333F00000001

> <PUBCHEM_MMFF94_ENERGY>
98.5214

> <PUBCHEM_FEATURE_SELFOVERLAP>
46.1

> <PUBCHEM_SHAPE_FINGERPRINT>
10 15 17489582373282779426
10674148 151 14056998300402750492
11315181 36 18410856581573607609
11456790 92 18342752819129107313
11719270 70 18131351899825520926
11796584 16 17022905665930758954
12236239 1 18260831518224201004
12422481 6 18343585144313354908
12596602 18 18272087180867994946
13533116 47 18259987102691287560
13583140 156 17894638080299484689
13631057 29 12247380312354036189
13782708 43 16805610304114953186
13914758 101 18187642470807705957
14251764 18 18272650156406395148
14347424 109 18343294869766105026
15021287 119 17894355475198203941
15183329 4 18409174311418560204
15301273 46 17917998265952154854
15461852 350 16917063395180460589
15788980 27 18260835933862024965
15849732 13 18342736317468960532
17093844 174 18335417980727270203
17349148 13 17917719032637317749
17857418 61 18410856564193382138
1813 80 17749399118578688910
18335252 98 11312055478608786733
19611394 137 11671198891315805821
20105231 36 10881687871143255601
20511986 3 18201147823818985727
21130935 74 17417818301088545326
21150785 3 11383826069503306905
23198884 109 8862941684679287658
23402539 116 18413672418073052109
23522609 53 18044688410362083316
23559900 14 17987819430888741879
23569917 315 18272374191652485711
23569943 247 16806147874853564994
23622692 88 18413671322988234524
249057 3 18186238429145763589
350125 39 18341613741698480564
392239 28 17489875946354136464
4098825 35 10953732284147669680
4258327 124 13901328439283251624
4325135 7 14333404558420993101
5104073 3 18199762499281504945
5265222 85 11963686516397633760
53794403 172 9870874984989734698
559249 180 18409448090135986567
67856867 119 18340488988389682764
7226269 152 18273215283375524921

> <PUBCHEM_SHAPE_MULTIPOLES>
585.07
19.32
2.23
1.46
24.94
0.22
0.43
-4.97
4.09
0.31
-0.34
-0.77
-0.08
-1.07

> <PUBCHEM_SHAPE_SELFOVERLAP>
1227.064

> <PUBCHEM_SHAPE_VOLUME>
331

> <PUBCHEM_COORDINATE_TYPE>
2
5
10

$$$$
