12312990
  -OEChem-11202013553D

 81 85  0     1  0  0  0  0  0999 V2000
   -6.8422   -1.4411    0.5973 O   0  0  0  0  0  0  0  0  0  0  0  0
    1.6613   -0.2250   -0.2939 C   0  0  2  0  0  0  0  0  0  0  0  0
    0.8660    1.1420   -0.3886 C   0  0  1  0  0  0  0  0  0  0  0  0
    3.2008   -0.0173   -0.6637 C   0  0  1  0  0  0  0  0  0  0  0  0
    3.9322    1.2266   -0.0531 C   0  0  1  0  0  0  0  0  0  0  0  0
   -1.2625   -0.4329   -0.4326 C   0  0  2  0  0  0  0  0  0  0  0  0
   -2.8298   -0.3574   -0.6901 C   0  0  2  0  0  0  0  0  0  0  0  0
   -0.6417    0.9245   -0.0726 C   0  0  0  0  0  0  0  0  0  0  0  0
    1.0356   -1.2559   -1.2930 C   0  0  0  0  0  0  0  0  0  0  0  0
    1.5588    2.1442    0.5792 C   0  0  0  0  0  0  0  0  0  0  0  0
    3.0078    2.4442    0.2066 C   0  0  0  0  0  0  0  0  0  0  0  0
   -3.4445    0.3265    0.5859 C   0  0  2  0  0  0  0  0  0  0  0  0
   -0.4771   -1.1557   -1.5364 C   0  0  0  0  0  0  0  0  0  0  0  0
    4.0840   -1.3071   -0.6280 C   0  0  0  0  0  0  0  0  0  0  0  0
    4.6771    0.8730    1.2559 C   0  0  0  0  0  0  0  0  0  0  0  0
    5.0715   -1.5570    0.5493 C   0  0  0  0  0  0  0  0  0  0  0  0
    1.5438   -0.8288    1.1314 C   0  0  0  0  0  0  0  0  0  0  0  0
   -5.0035    0.2024    0.7974 C   0  0  0  0  0  0  0  0  0  0  0  0
    0.8953    1.7719   -1.8145 C   0  0  0  0  0  0  0  0  0  0  0  0
   -3.4005   -1.7920   -0.8297 C   0  0  0  0  0  0  0  0  0  0  0  0
    5.6867   -0.2594    1.0950 C   0  0  0  0  0  0  0  0  0  0  0  0
   -2.8894    1.7553    0.7535 C   0  0  0  0  0  0  0  0  0  0  0  0
   -1.4209    1.8839    0.4666 C   0  0  0  0  0  0  0  0  0  0  0  0
    4.9975    1.7201   -1.0818 C   0  0  0  0  0  0  0  0  0  0  0  0
   -3.1127    0.4176   -2.0004 C   0  0  0  0  0  0  0  0  0  0  0  0
   -5.4244   -1.2813    0.5824 C   0  0  2  0  0  0  0  0  0  0  0  0
   -4.9181   -1.8612   -0.7339 C   0  0  0  0  0  0  0  0  0  0  0  0
    4.4220   -2.3368    1.7085 C   0  0  0  0  0  0  0  0  0  0  0  0
    6.2182   -2.4557    0.0225 C   0  0  0  0  0  0  0  0  0  0  0  0
   -5.3394    0.5885    2.2654 C   0  0  0  0  0  0  0  0  0  0  0  0
   -5.8520    1.1442   -0.0845 C   0  0  0  0  0  0  0  0  0  0  0  0
    3.1495    0.2033   -1.7412 H   0  0  0  0  0  0  0  0  0  0  0  0
   -1.1516   -1.0655    0.4577 H   0  0  0  0  0  0  0  0  0  0  0  0
    1.2534   -2.2783   -0.9586 H   0  0  0  0  0  0  0  0  0  0  0  0
    1.5212   -1.1732   -2.2744 H   0  0  0  0  0  0  0  0  0  0  0  0
    1.5072    1.7927    1.6158 H   0  0  0  0  0  0  0  0  0  0  0  0
    1.0416    3.1111    0.5748 H   0  0  0  0  0  0  0  0  0  0  0  0
    2.9877    3.0913   -0.6802 H   0  0  0  0  0  0  0  0  0  0  0  0
    3.4390    3.0835    0.9889 H   0  0  0  0  0  0  0  0  0  0  0  0
   -3.0225   -0.2430    1.4322 H   0  0  0  0  0  0  0  0  0  0  0  0
   -0.6387   -0.6717   -2.5044 H   0  0  0  0  0  0  0  0  0  0  0  0
   -0.8558   -2.1766   -1.6640 H   0  0  0  0  0  0  0  0  0  0  0  0
    3.4712   -2.2021   -0.7796 H   0  0  0  0  0  0  0  0  0  0  0  0
    4.6932   -1.2532   -1.5434 H   0  0  0  0  0  0  0  0  0  0  0  0
    3.9722    0.6313    2.0550 H   0  0  0  0  0  0  0  0  0  0  0  0
    5.2249    1.7545    1.6167 H   0  0  0  0  0  0  0  0  0  0  0  0
    0.5335   -0.8075    1.5403 H   0  0  0  0  0  0  0  0  0  0  0  0
    1.8454   -1.8791    1.1426 H   0  0  0  0  0  0  0  0  0  0  0  0
    2.1498   -0.2921    1.8587 H   0  0  0  0  0  0  0  0  0  0  0  0
    1.9056    1.8921   -2.2120 H   0  0  0  0  0  0  0  0  0  0  0  0
    0.3421    1.1917   -2.5558 H   0  0  0  0  0  0  0  0  0  0  0  0
    0.4408    2.7709   -1.8035 H   0  0  0  0  0  0  0  0  0  0  0  0
   -2.9788   -2.4334   -0.0445 H   0  0  0  0  0  0  0  0  0  0  0  0
   -3.0971   -2.2362   -1.7853 H   0  0  0  0  0  0  0  0  0  0  0  0
    6.5033    0.0753    0.4440 H   0  0  0  0  0  0  0  0  0  0  0  0
    6.1626   -0.4475    2.0668 H   0  0  0  0  0  0  0  0  0  0  0  0
   -3.0558    2.0972    1.7809 H   0  0  0  0  0  0  0  0  0  0  0  0
   -3.4092    2.4583    0.0952 H   0  0  0  0  0  0  0  0  0  0  0  0
   -1.0144    2.8630    0.6950 H   0  0  0  0  0  0  0  0  0  0  0  0
    5.6885    0.9293   -1.3878 H   0  0  0  0  0  0  0  0  0  0  0  0
    4.5204    2.0863   -1.9987 H   0  0  0  0  0  0  0  0  0  0  0  0
    5.5914    2.5440   -0.6693 H   0  0  0  0  0  0  0  0  0  0  0  0
   -2.6923    1.4270   -1.9961 H   0  0  0  0  0  0  0  0  0  0  0  0
   -2.6902   -0.1012   -2.8673 H   0  0  0  0  0  0  0  0  0  0  0  0
   -4.1764    0.5115   -2.2118 H   0  0  0  0  0  0  0  0  0  0  0  0
   -5.0278   -1.8871    1.4079 H   0  0  0  0  0  0  0  0  0  0  0  0
   -5.3905   -1.3620   -1.5873 H   0  0  0  0  0  0  0  0  0  0  0  0
   -5.2324   -2.9101   -0.8129 H   0  0  0  0  0  0  0  0  0  0  0  0
    5.1834   -2.7193    2.3996 H   0  0  0  0  0  0  0  0  0  0  0  0
    3.7597   -1.7147    2.3112 H   0  0  0  0  0  0  0  0  0  0  0  0
    3.8569   -3.2009    1.3429 H   0  0  0  0  0  0  0  0  0  0  0  0
    6.7574   -1.9730   -0.8008 H   0  0  0  0  0  0  0  0  0  0  0  0
    6.9502   -2.6714    0.8094 H   0  0  0  0  0  0  0  0  0  0  0  0
    5.8311   -3.4121   -0.3475 H   0  0  0  0  0  0  0  0  0  0  0  0
   -5.1502    1.6491    2.4604 H   0  0  0  0  0  0  0  0  0  0  0  0
   -6.3958    0.4043    2.4929 H   0  0  0  0  0  0  0  0  0  0  0  0
   -4.7461    0.0029    2.9765 H   0  0  0  0  0  0  0  0  0  0  0  0
   -5.5366    2.1876    0.0034 H   0  0  0  0  0  0  0  0  0  0  0  0
   -5.8364    0.8717   -1.1390 H   0  0  0  0  0  0  0  0  0  0  0  0
   -6.9062    1.1182    0.2182 H   0  0  0  0  0  0  0  0  0  0  0  0
   -7.0340   -2.3919    0.5280 H   0  0  0  0  0  0  0  0  0  0  0  0
  1 26  1  0  0  0  0
  1 81  1  0  0  0  0
  2  3  1  0  0  0  0
  2  4  1  0  0  0  0
  2  9  1  0  0  0  0
  2 17  1  0  0  0  0
  3  8  1  0  0  0  0
  3 10  1  0  0  0  0
  3 19  1  0  0  0  0
  4  5  1  0  0  0  0
  4 14  1  0  0  0  0
  4 32  1  0  0  0  0
  5 11  1  0  0  0  0
  5 15  1  0  0  0  0
  5 24  1  0  0  0  0
  6  7  1  0  0  0  0
  6  8  1  0  0  0  0
  6 13  1  0  0  0  0
  6 33  1  0  0  0  0
  7 12  1  0  0  0  0
  7 20  1  0  0  0  0
  7 25  1  0  0  0  0
  8 23  2  0  0  0  0
  9 13  1  0  0  0  0
  9 34  1  0  0  0  0
  9 35  1  0  0  0  0
 10 11  1  0  0  0  0
 10 36  1  0  0  0  0
 10 37  1  0  0  0  0
 11 38  1  0  0  0  0
 11 39  1  0  0  0  0
 12 18  1  0  0  0  0
 12 22  1  0  0  0  0
 12 40  1  0  0  0  0
 13 41  1  0  0  0  0
 13 42  1  0  0  0  0
 14 16  1  0  0  0  0
 14 43  1  0  0  0  0
 14 44  1  0  0  0  0
 15 21  1  0  0  0  0
 15 45  1  0  0  0  0
 15 46  1  0  0  0  0
 16 21  1  0  0  0  0
 16 28  1  0  0  0  0
 16 29  1  0  0  0  0
 17 47  1  0  0  0  0
 17 48  1  0  0  0  0
 17 49  1  0  0  0  0
 18 26  1  0  0  0  0
 18 30  1  0  0  0  0
 18 31  1  0  0  0  0
 19 50  1  0  0  0  0
 19 51  1  0  0  0  0
 19 52  1  0  0  0  0
 20 27  1  0  0  0  0
 20 53  1  0  0  0  0
 20 54  1  0  0  0  0
 21 55  1  0  0  0  0
 21 56  1  0  0  0  0
 22 23  1  0  0  0  0
 22 57  1  0  0  0  0
 22 58  1  0  0  0  0
 23 59  1  0  0  0  0
 24 60  1  0  0  0  0
 24 61  1  0  0  0  0
 24 62  1  0  0  0  0
 25 63  1  0  0  0  0
 25 64  1  0  0  0  0
 25 65  1  0  0  0  0
 26 27  1  0  0  0  0
 26 66  1  0  0  0  0
 27 67  1  0  0  0  0
 27 68  1  0  0  0  0
 28 69  1  0  0  0  0
 28 70  1  0  0  0  0
 28 71  1  0  0  0  0
 29 72  1  0  0  0  0
 29 73  1  0  0  0  0
 29 74  1  0  0  0  0
 30 75  1  0  0  0  0
 30 76  1  0  0  0  0
 30 77  1  0  0  0  0
 31 78  1  0  0  0  0
 31 79  1  0  0  0  0
 31 80  1  0  0  0  0
M  END
> <PUBCHEM_COMPOUND_CID>
12312990

> <PUBCHEM_CONFORMER_RMSD>
0.8

> <PUBCHEM_CONFORMER_DIVERSEORDER>
1
2

> <PUBCHEM_MMFF94_PARTIAL_CHARGES>
9
1 -0.68
22 0.14
23 -0.29
26 0.28
3 0.14
59 0.15
6 0.14
8 -0.28
81 0.4

> <PUBCHEM_EFFECTIVE_ROTOR_COUNT>
2.6

> <PUBCHEM_PHARMACOPHORE_FEATURES>
9
1 1 acceptor
1 1 donor
3 16 28 29 hydrophobe
3 18 30 31 hydrophobe
6 2 3 4 5 10 11 rings
6 2 3 6 8 9 13 rings
6 4 5 14 15 16 21 rings
6 6 7 8 12 22 23 rings
6 7 12 18 20 26 27 rings

> <PUBCHEM_HEAVY_ATOM_COUNT>
31

> <PUBCHEM_ATOM_DEF_STEREO_COUNT>
8

> <PUBCHEM_ATOM_UDEF_STEREO_COUNT>
0

> <PUBCHEM_BOND_DEF_STEREO_COUNT>
0

> <PUBCHEM_BOND_UDEF_STEREO_COUNT>
0

> <PUBCHEM_ISOTOPIC_ATOM_COUNT>
0

> <PUBCHEM_COMPONENT_COUNT>
1

> <PUBCHEM_CACTVS_TAUTO_COUNT>
1

> <PUBCHEM_CONFORMER_ID>
00BBE19E00000001

> <PUBCHEM_MMFF94_ENERGY>
154.9609

> <PUBCHEM_FEATURE_SELFOVERLAP>
45.736

> <PUBCHEM_SHAPE_FINGERPRINT>
10 15 17989205958116902627
10319926 262 17560809783747748292
11456790 92 18201450160385485121
117089 54 17835522627285524010
11719270 70 18130788941092182743
12107183 9 18197786487897651153
12166972 35 18040720264138102180
12236239 1 18409169917625032233
12422481 6 18130230358808842669
12596602 18 18410854369275118979
12616971 3 18343576343798706510
12633257 1 18201436965111671237
12788726 201 17775016669252508536
12839892 36 18060419101386550455
13140716 1 18201152268909696559
13224815 77 18272089421970569325
13533116 47 18335701671822618626
13583140 156 18041545967052284357
13782708 43 17385722482578252027
13914758 101 18261104163666036085
14341114 176 18412262843717811250
14341114 328 18343589559539669975
14739800 52 17130412704755002360
14849402 71 18198899404783548488
14955137 171 18201721709054372832
15183329 4 18273497887891821501
15238133 3 16916795045708287049
15250474 111 18199740508875597094
15788980 27 17967808336516745412
15799311 1 18261124014050297330
16992610 120 18051131699927778336
17349148 13 18334019397209287468
17492 89 18193271898050551322
17844677 252 17967813838238203997
17857418 61 18412260640388928513
17980427 23 16343408596514769177
1813 80 17821728334358536772
18222031 100 15357699690899533862
19377110 9 18343018921658105600
1979834 28 17418380177473767638
19841028 212 18261387906069832243
20028762 73 18342175557448661526
20739085 24 18410578387967898076
21033648 29 17749935739560139813
21130935 74 18343865515225488458
21267235 1 18413110533667236942
21792934 111 18273218587149647201
21859007 373 18191302668372462197
23522609 53 18123783990734401641
23559900 14 18341886407322382904
23569943 247 17897159135112242427
2838139 119 13542172858037000274
3004659 81 18409735049801414502
345986 75 18267570318202162560
34797466 226 16009032834015216476
350125 39 18272371983637588488
3633792 109 18338785755411490487
3680242 22 18343026579331560858
392239 28 18343028783077162139
4073 2 18116156760170694842
4093350 32 16630527376277029176
460360 51 18265046942947516636
46194498 28 16805604832284576268
465052 167 18411141320852154686
5104073 3 18202565098427985971
513202 73 17895471423728800141
6086070 43 18129643280267859237
86090 222 17023476230977955890

> <PUBCHEM_SHAPE_MULTIPOLES>
632.1
15.37
2.54
1.61
5.06
0.04
0.03
5.81
4.97
-1.88
0.07
0.45
0.03
-1.28

> <PUBCHEM_SHAPE_SELFOVERLAP>
1334.058

> <PUBCHEM_SHAPE_VOLUME>
350.9

> <PUBCHEM_COORDINATE_TYPE>
2
5
10

$$$$
