3081416
  -OEChem-11202014153D

 37 40  0     1  0  0  0  0  0999 V2000
    1.9836    1.1073    0.8905 O   0  0  0  0  0  0  0  0  0  0  0  0
    3.1858   -1.4056   -0.2134 O   0  0  0  0  0  0  0  0  0  0  0  0
    0.9651    1.1701   -1.2257 O   0  0  0  0  0  0  0  0  0  0  0  0
    0.2507   -1.4458   -1.1108 O   0  0  0  0  0  0  0  0  0  0  0  0
    3.9537    1.9957   -1.2679 O   0  0  0  0  0  0  0  0  0  0  0  0
    1.9307   -2.9597    0.9074 O   0  0  0  0  0  0  0  0  0  0  0  0
   -2.3646    2.0070    0.7374 N   0  0  0  0  0  0  0  0  0  0  0  0
    1.6436    0.3546   -0.2847 C   0  0  1  0  0  0  0  0  0  0  0  0
    2.9484   -0.1497   -0.8651 C   0  0  1  0  0  0  0  0  0  0  0  0
    0.8932   -0.9284    0.0481 C   0  0  1  0  0  0  0  0  0  0  0  0
    3.9588    0.8705   -0.3982 C   0  0  2  0  0  0  0  0  0  0  0  0
   -0.0928   -0.8142    1.1983 C   0  0  0  0  0  0  0  0  0  0  0  0
    3.4071    1.2897    0.9491 C   0  0  0  0  0  0  0  0  0  0  0  0
    2.0236   -1.8905    0.3241 C   0  0  0  0  0  0  0  0  0  0  0  0
   -1.2067    0.1529    0.8900 C   0  0  0  0  0  0  0  0  0  0  0  0
   -2.4289   -0.1753    0.2786 C   0  0  0  0  0  0  0  0  0  0  0  0
   -1.1749    1.4828    1.1663 C   0  0  0  0  0  0  0  0  0  0  0  0
   -3.1502    1.0173    0.1910 C   0  0  0  0  0  0  0  0  0  0  0  0
   -3.0124   -1.3587   -0.2158 C   0  0  0  0  0  0  0  0  0  0  0  0
   -4.4311    1.0859   -0.3686 C   0  0  0  0  0  0  0  0  0  0  0  0
   -4.2930   -1.3053   -0.7781 C   0  0  0  0  0  0  0  0  0  0  0  0
   -4.9896   -0.1007   -0.8523 C   0  0  0  0  0  0  0  0  0  0  0  0
    2.9363   -0.2951   -1.9505 H   0  0  0  0  0  0  0  0  0  0  0  0
    4.9818    0.4921   -0.3146 H   0  0  0  0  0  0  0  0  0  0  0  0
    0.4133   -0.5160    2.1255 H   0  0  0  0  0  0  0  0  0  0  0  0
   -0.5359   -1.7964    1.4110 H   0  0  0  0  0  0  0  0  0  0  0  0
    3.7812    0.6435    1.7500 H   0  0  0  0  0  0  0  0  0  0  0  0
    3.6184    2.3329    1.2010 H   0  0  0  0  0  0  0  0  0  0  0  0
    1.6268    1.6637   -1.7386 H   0  0  0  0  0  0  0  0  0  0  0  0
   -0.1754   -2.2865   -0.8710 H   0  0  0  0  0  0  0  0  0  0  0  0
    4.2549    1.6898   -2.1404 H   0  0  0  0  0  0  0  0  0  0  0  0
   -0.4343    2.1179    1.6312 H   0  0  0  0  0  0  0  0  0  0  0  0
   -2.6295    2.9795    0.8123 H   0  0  0  0  0  0  0  0  0  0  0  0
   -2.4870   -2.3078   -0.1635 H   0  0  0  0  0  0  0  0  0  0  0  0
   -4.9742    2.0231   -0.4269 H   0  0  0  0  0  0  0  0  0  0  0  0
   -4.7485   -2.2151   -1.1601 H   0  0  0  0  0  0  0  0  0  0  0  0
   -5.9832   -0.0821   -1.2929 H   0  0  0  0  0  0  0  0  0  0  0  0
  1  8  1  0  0  0  0
  1 13  1  0  0  0  0
  2  9  1  0  0  0  0
  2 14  1  0  0  0  0
  3  8  1  0  0  0  0
  3 29  1  0  0  0  0
  4 10  1  0  0  0  0
  4 30  1  0  0  0  0
  5 11  1  0  0  0  0
  5 31  1  0  0  0  0
  6 14  2  0  0  0  0
  7 17  1  0  0  0  0
  7 18  1  0  0  0  0
  7 33  1  0  0  0  0
  8  9  1  0  0  0  0
  8 10  1  0  0  0  0
  9 11  1  0  0  0  0
  9 23  1  0  0  0  0
 10 12  1  0  0  0  0
 10 14  1  0  0  0  0
 11 13  1  0  0  0  0
 11 24  1  0  0  0  0
 12 15  1  0  0  0  0
 12 25  1  0  0  0  0
 12 26  1  0  0  0  0
 13 27  1  0  0  0  0
 13 28  1  0  0  0  0
 15 16  1  0  0  0  0
 15 17  2  0  0  0  0
 16 18  1  0  0  0  0
 16 19  2  0  0  0  0
 17 32  1  0  0  0  0
 18 20  2  0  0  0  0
 19 21  1  0  0  0  0
 19 34  1  0  0  0  0
 20 22  1  0  0  0  0
 20 35  1  0  0  0  0
 21 22  2  0  0  0  0
 21 36  1  0  0  0  0
 22 37  1  0  0  0  0
M  END
> <PUBCHEM_COMPOUND_CID>
3081416

> <PUBCHEM_CONFORMER_RMSD>
0.6

> <PUBCHEM_CONFORMER_DIVERSEORDER>
1
22
2
29
16
33
5
7
13
32
19
30
27
11
18
25
21
23
12
6
31
8
3
14
17
26
24
10
28
20
15
9
4

> <PUBCHEM_MMFF94_PARTIAL_CHARGES>
30
1 -0.56
10 0.34
11 0.28
12 0.18
13 0.28
14 0.66
15 -0.18
17 -0.3
18 -0.15
19 -0.15
2 -0.43
20 -0.15
21 -0.15
22 -0.15
29 0.4
3 -0.68
30 0.4
31 0.4
32 0.15
33 0.27
34 0.15
35 0.15
36 0.15
37 0.15
4 -0.68
5 -0.68
6 -0.57
7 0.03
8 0.56
9 0.28

> <PUBCHEM_EFFECTIVE_ROTOR_COUNT>
3

> <PUBCHEM_PHARMACOPHORE_FEATURES>
14
1 1 acceptor
1 3 acceptor
1 3 donor
1 4 acceptor
1 4 donor
1 5 acceptor
1 5 donor
1 6 acceptor
1 7 cation
1 7 donor
5 1 8 9 11 13 rings
5 2 8 9 10 14 rings
5 7 15 16 17 18 rings
6 16 18 19 20 21 22 rings

> <PUBCHEM_HEAVY_ATOM_COUNT>
22

> <PUBCHEM_ATOM_DEF_STEREO_COUNT>
3

> <PUBCHEM_ATOM_UDEF_STEREO_COUNT>
1

> <PUBCHEM_BOND_DEF_STEREO_COUNT>
0

> <PUBCHEM_BOND_UDEF_STEREO_COUNT>
0

> <PUBCHEM_ISOTOPIC_ATOM_COUNT>
0

> <PUBCHEM_COMPONENT_COUNT>
1

> <PUBCHEM_CACTVS_TAUTO_COUNT>
1

> <PUBCHEM_CONFORMER_ID>
002F04C800000001

> <PUBCHEM_MMFF94_ENERGY>
49.5329

> <PUBCHEM_FEATURE_SELFOVERLAP>
71.856

> <PUBCHEM_SHAPE_FINGERPRINT>
10498660 4 18342175587502311297
10759866 29 18412261735664092151
10863032 1 18342455924322802769
11370993 70 18260263083597867539
11578080 2 18048566292919653641
12553582 1 17703498978921727511
12707595 3 16343694439746896731
12788726 201 17632022927719283201
128620 24 17561080323795875553
13009979 54 17842560634909070490
13224815 77 18060699485647042643
14787075 74 17771055283238882080
15196674 1 18343300358154099231
15848702 105 18271242832456106226
15852999 172 17676212398217121810
16945 1 18335994171600648042
17349148 13 18113052748635300105
17492 89 18340769235138057327
17959699 21 18261387794268241685
18186145 218 17676768674197390739
18681886 176 18130780132240969314
192875 21 18187082892335417101
19862831 5 18334574616643549675
200 152 18342737416542731631
20645477 70 18342177726285281143
20715895 44 17978500937432966469
20871999 31 18343294895361984743
21501502 16 18269839718174673705
22393880 68 18343023254937177116
2255824 54 18261395481917024610
22950370 63 10519720998437666644
23184049 59 7925642093669715337
23227448 37 17556849536228178936
23402539 116 18342733052602855380
23402655 69 18411703153750205509
23419403 2 17760611839031602562
23557571 272 17988932192854511793
23559900 14 17772750476903102727
2871803 45 18272087223026363401
296302 2 17748826345227997861
3004659 81 18340198579938791303
3082319 5 18343021056267394555
312423 11 18200884971751976755
3286 77 18272927190081154968
4028521 119 18410009936166586477
474 4 18113623408139472028
5104073 3 18412826855029341395
57096353 35 18343021111970113765
603831 33 18343578551586132119
633830 44 17748830683208289833
67856867 119 18409719647811483242
7615 1 18199188382349842873
9709674 26 18200599094666201607
9981440 41 18189615110922074314

> <PUBCHEM_SHAPE_MULTIPOLES>
412.55
8.7
2.21
1.18
4.48
0.64
-0.01
-1.48
-2.59
-0.93
0.3
-0.32
-0.15
-0.85

> <PUBCHEM_SHAPE_SELFOVERLAP>
930.668

> <PUBCHEM_SHAPE_VOLUME>
217.8

> <PUBCHEM_COORDINATE_TYPE>
2
5
10

$$$$
