6443299
  -OEChem-11202014173D

 97 99  0     1  0  0  0  0  0999 V2000
   -9.0494    0.4979   -1.3311 O   0  0  0  0  0  0  0  0  0  0  0  0
   -9.8200   -0.5669   -0.7193 C   0  0  2  0  0  0  0  0  0  0  0  0
  -10.4044   -1.1265    1.7873 C   0  0  0  0  0  0  0  0  0  0  0  0
   -9.9905   -0.1411    0.7131 C   0  0  0  0  0  0  0  0  0  0  0  0
   -9.0094   -1.8642   -0.8031 C   0  0  0  0  0  0  0  0  0  0  0  0
   -9.5976   -2.4392    1.5904 C   0  0  0  0  0  0  0  0  0  0  0  0
   -9.5472   -2.9405    0.1414 C   0  0  0  0  0  0  0  0  0  0  0  0
   -9.6082    1.1342    0.8324 C   0  0  0  0  0  0  0  0  0  0  0  0
   -9.1275    1.6555   -0.4749 C   0  0  1  0  0  0  0  0  0  0  0  0
  -11.1295   -0.6542   -1.5102 C   0  0  0  0  0  0  0  0  0  0  0  0
  -11.9170   -1.4088    1.7221 C   0  0  0  0  0  0  0  0  0  0  0  0
  -10.1044   -0.5993    3.2093 C   0  0  0  0  0  0  0  0  0  0  0  0
   -7.7754    2.2767   -0.3935 C   0  0  0  0  0  0  0  0  0  0  0  0
   10.9927    1.5312   -0.2205 C   0  0  0  0  0  0  0  0  0  0  0  0
   10.8973    0.0022    0.1210 C   0  0  1  0  0  0  0  0  0  0  0  0
   10.5258    2.3591    1.0001 C   0  0  0  0  0  0  0  0  0  0  0  0
   -7.7899    3.7660   -0.1827 C   0  0  0  0  0  0  0  0  0  0  0  0
   -6.6703    1.5128   -0.4894 C   0  0  0  0  0  0  0  0  0  0  0  0
   11.3136    2.0453    2.2751 C   0  0  0  0  0  0  0  0  0  0  0  0
   11.5191   -0.3296    1.4715 C   0  0  0  0  0  0  0  0  0  0  0  0
   12.4535    1.8971   -0.5829 C   0  0  0  0  0  0  0  0  0  0  0  0
   10.1247    1.9048   -1.4420 C   0  0  0  0  0  0  0  0  0  0  0  0
   11.6923    0.6025    2.4258 C   0  0  0  0  0  0  0  0  0  0  0  0
    9.4867   -0.5256    0.0805 C   0  0  0  0  0  0  0  0  0  0  0  0
   11.9493   -1.7545    1.6864 C   0  0  0  0  0  0  0  0  0  0  0  0
   -5.2876    1.9384   -0.4406 C   0  0  0  0  0  0  0  0  0  0  0  0
    9.0739   -1.4800   -0.7674 C   0  0  0  0  0  0  0  0  0  0  0  0
   -4.2344    1.1107   -0.5443 C   0  0  0  0  0  0  0  0  0  0  0  0
    7.7121   -1.9851   -0.8447 C   0  0  0  0  0  0  0  0  0  0  0  0
   -2.8171    1.4808   -0.4686 C   0  0  0  0  0  0  0  0  0  0  0  0
    7.6326   -3.4802   -1.0099 C   0  0  0  0  0  0  0  0  0  0  0  0
    6.5907   -1.2427   -0.7516 C   0  0  0  0  0  0  0  0  0  0  0  0
   -2.4963    2.9392   -0.2553 C   0  0  0  0  0  0  0  0  0  0  0  0
   -1.8940    0.5033   -0.5959 C   0  0  0  0  0  0  0  0  0  0  0  0
    5.2185   -1.7098   -0.8238 C   0  0  0  0  0  0  0  0  0  0  0  0
   -0.4506    0.6357   -0.5561 C   0  0  0  0  0  0  0  0  0  0  0  0
    4.1641   -0.8830   -0.7187 C   0  0  0  0  0  0  0  0  0  0  0  0
    2.7464   -1.2558   -0.7854 C   0  0  0  0  0  0  0  0  0  0  0  0
    0.3791   -0.4122   -0.6949 C   0  0  0  0  0  0  0  0  0  0  0  0
    1.8226   -0.2788   -0.6579 C   0  0  0  0  0  0  0  0  0  0  0  0
    2.4256   -2.7154   -0.9916 C   0  0  0  0  0  0  0  0  0  0  0  0
   -7.9579   -1.6663   -0.5558 H   0  0  0  0  0  0  0  0  0  0  0  0
   -8.9975   -2.2408   -1.8335 H   0  0  0  0  0  0  0  0  0  0  0  0
  -10.0078   -3.2326    2.2281 H   0  0  0  0  0  0  0  0  0  0  0  0
   -8.5623   -2.2836    1.9257 H   0  0  0  0  0  0  0  0  0  0  0  0
   -8.8980   -3.8223    0.0890 H   0  0  0  0  0  0  0  0  0  0  0  0
  -10.5416   -3.2679   -0.1806 H   0  0  0  0  0  0  0  0  0  0  0  0
   -9.6099    1.7084    1.7476 H   0  0  0  0  0  0  0  0  0  0  0  0
   -9.8577    2.3422   -0.9177 H   0  0  0  0  0  0  0  0  0  0  0  0
  -11.7352    0.2497   -1.3754 H   0  0  0  0  0  0  0  0  0  0  0  0
  -11.7392   -1.5172   -1.2355 H   0  0  0  0  0  0  0  0  0  0  0  0
  -10.9213   -0.7247   -2.5847 H   0  0  0  0  0  0  0  0  0  0  0  0
  -12.2349   -2.0352    2.5641 H   0  0  0  0  0  0  0  0  0  0  0  0
  -12.4960   -0.4790    1.7669 H   0  0  0  0  0  0  0  0  0  0  0  0
  -12.2102   -1.9393    0.8138 H   0  0  0  0  0  0  0  0  0  0  0  0
  -10.3452   -1.3540    3.9674 H   0  0  0  0  0  0  0  0  0  0  0  0
   -9.0448   -0.3439    3.3290 H   0  0  0  0  0  0  0  0  0  0  0  0
  -10.6947    0.2951    3.4407 H   0  0  0  0  0  0  0  0  0  0  0  0
   11.4878   -0.5232   -0.6445 H   0  0  0  0  0  0  0  0  0  0  0  0
    9.4612    2.1696    1.1906 H   0  0  0  0  0  0  0  0  0  0  0  0
   10.6032    3.4334    0.7889 H   0  0  0  0  0  0  0  0  0  0  0  0
   -6.7993    4.2092   -0.0664 H   0  0  0  0  0  0  0  0  0  0  0  0
   -8.3584    4.0135    0.7203 H   0  0  0  0  0  0  0  0  0  0  0  0
   -8.2690    4.2598   -1.0349 H   0  0  0  0  0  0  0  0  0  0  0  0
   -6.7812    0.4375   -0.6143 H   0  0  0  0  0  0  0  0  0  0  0  0
   12.2331    2.6428    2.2923 H   0  0  0  0  0  0  0  0  0  0  0  0
   10.7231    2.3573    3.1445 H   0  0  0  0  0  0  0  0  0  0  0  0
   12.7730    1.3700   -1.4894 H   0  0  0  0  0  0  0  0  0  0  0  0
   12.5519    2.9719   -0.7744 H   0  0  0  0  0  0  0  0  0  0  0  0
   13.1649    1.6400    0.2074 H   0  0  0  0  0  0  0  0  0  0  0  0
   10.3781    1.2856   -2.3099 H   0  0  0  0  0  0  0  0  0  0  0  0
    9.0552    1.7839   -1.2392 H   0  0  0  0  0  0  0  0  0  0  0  0
   10.2776    2.9526   -1.7258 H   0  0  0  0  0  0  0  0  0  0  0  0
   12.1518    0.3254    3.3712 H   0  0  0  0  0  0  0  0  0  0  0  0
    8.7782   -0.0923    0.7838 H   0  0  0  0  0  0  0  0  0  0  0  0
   12.6726   -2.0516    0.9201 H   0  0  0  0  0  0  0  0  0  0  0  0
   12.4250   -1.8983    2.6624 H   0  0  0  0  0  0  0  0  0  0  0  0
   11.0902   -2.4306    1.6356 H   0  0  0  0  0  0  0  0  0  0  0  0
   -5.1131    2.9991   -0.3006 H   0  0  0  0  0  0  0  0  0  0  0  0
    9.7847   -1.9272   -1.4585 H   0  0  0  0  0  0  0  0  0  0  0  0
   -4.4358    0.0487   -0.6855 H   0  0  0  0  0  0  0  0  0  0  0  0
    8.5434   -3.9713   -0.6458 H   0  0  0  0  0  0  0  0  0  0  0  0
    6.8128   -3.9259   -0.4382 H   0  0  0  0  0  0  0  0  0  0  0  0
    7.5147   -3.7408   -2.0671 H   0  0  0  0  0  0  0  0  0  0  0  0
    6.7004   -0.1658   -0.6237 H   0  0  0  0  0  0  0  0  0  0  0  0
   -2.9288    3.2937    0.6872 H   0  0  0  0  0  0  0  0  0  0  0  0
   -2.8964    3.5446   -1.0765 H   0  0  0  0  0  0  0  0  0  0  0  0
   -1.4268    3.1527   -0.2049 H   0  0  0  0  0  0  0  0  0  0  0  0
   -2.2418   -0.5194   -0.7482 H   0  0  0  0  0  0  0  0  0  0  0  0
    5.0599   -2.7698   -0.9855 H   0  0  0  0  0  0  0  0  0  0  0  0
   -0.0289    1.6242   -0.4091 H   0  0  0  0  0  0  0  0  0  0  0  0
    4.3616    0.1781   -0.5655 H   0  0  0  0  0  0  0  0  0  0  0  0
   -0.0423   -1.4007   -0.8424 H   0  0  0  0  0  0  0  0  0  0  0  0
    2.1699    0.7447   -0.5105 H   0  0  0  0  0  0  0  0  0  0  0  0
    2.8380   -3.3180   -0.1746 H   0  0  0  0  0  0  0  0  0  0  0  0
    1.3561   -2.9315   -1.0269 H   0  0  0  0  0  0  0  0  0  0  0  0
    2.8472   -3.0705   -1.9387 H   0  0  0  0  0  0  0  0  0  0  0  0
  1  2  1  0  0  0  0
  1  9  1  0  0  0  0
  2  4  1  0  0  0  0
  2  5  1  0  0  0  0
  2 10  1  0  0  0  0
  3  4  1  0  0  0  0
  3  6  1  0  0  0  0
  3 11  1  0  0  0  0
  3 12  1  0  0  0  0
  4  8  2  0  0  0  0
  5  7  1  0  0  0  0
  5 42  1  0  0  0  0
  5 43  1  0  0  0  0
  6  7  1  0  0  0  0
  6 44  1  0  0  0  0
  6 45  1  0  0  0  0
  7 46  1  0  0  0  0
  7 47  1  0  0  0  0
  8  9  1  0  0  0  0
  8 48  1  0  0  0  0
  9 13  1  0  0  0  0
  9 49  1  0  0  0  0
 10 50  1  0  0  0  0
 10 51  1  0  0  0  0
 10 52  1  0  0  0  0
 11 53  1  0  0  0  0
 11 54  1  0  0  0  0
 11 55  1  0  0  0  0
 12 56  1  0  0  0  0
 12 57  1  0  0  0  0
 12 58  1  0  0  0  0
 13 17  1  0  0  0  0
 13 18  2  0  0  0  0
 14 15  1  0  0  0  0
 14 16  1  0  0  0  0
 14 21  1  0  0  0  0
 14 22  1  0  0  0  0
 15 20  1  0  0  0  0
 15 24  1  0  0  0  0
 15 59  1  0  0  0  0
 16 19  1  0  0  0  0
 16 60  1  0  0  0  0
 16 61  1  0  0  0  0
 17 62  1  0  0  0  0
 17 63  1  0  0  0  0
 17 64  1  0  0  0  0
 18 26  1  0  0  0  0
 18 65  1  0  0  0  0
 19 23  1  0  0  0  0
 19 66  1  0  0  0  0
 19 67  1  0  0  0  0
 20 23  2  0  0  0  0
 20 25  1  0  0  0  0
 21 68  1  0  0  0  0
 21 69  1  0  0  0  0
 21 70  1  0  0  0  0
 22 71  1  0  0  0  0
 22 72  1  0  0  0  0
 22 73  1  0  0  0  0
 23 74  1  0  0  0  0
 24 27  2  0  0  0  0
 24 75  1  0  0  0  0
 25 76  1  0  0  0  0
 25 77  1  0  0  0  0
 25 78  1  0  0  0  0
 26 28  2  0  0  0  0
 26 79  1  0  0  0  0
 27 29  1  0  0  0  0
 27 80  1  0  0  0  0
 28 30  1  0  0  0  0
 28 81  1  0  0  0  0
 29 31  1  0  0  0  0
 29 32  2  0  0  0  0
 30 33  1  0  0  0  0
 30 34  2  0  0  0  0
 31 82  1  0  0  0  0
 31 83  1  0  0  0  0
 31 84  1  0  0  0  0
 32 35  1  0  0  0  0
 32 85  1  0  0  0  0
 33 86  1  0  0  0  0
 33 87  1  0  0  0  0
 33 88  1  0  0  0  0
 34 36  1  0  0  0  0
 34 89  1  0  0  0  0
 35 37  2  0  0  0  0
 35 90  1  0  0  0  0
 36 39  2  0  0  0  0
 36 91  1  0  0  0  0
 37 38  1  0  0  0  0
 37 92  1  0  0  0  0
 38 40  2  0  0  0  0
 38 41  1  0  0  0  0
 39 40  1  0  0  0  0
 39 93  1  0  0  0  0
 40 94  1  0  0  0  0
 41 95  1  0  0  0  0
 41 96  1  0  0  0  0
 41 97  1  0  0  0  0
M  END
> <PUBCHEM_COMPOUND_CID>
6443299

> <PUBCHEM_CONFORMER_RMSD>
1.6

> <PUBCHEM_CONFORMER_DIVERSEORDER>
1
101
14
82
18
30
16
59
58
74
39
66
89
79
71
19
43
44
50
53
57
61
92
28
64
67
23
10
96
65
41
100
25
4
52
88
15
70
86
21
35
73
2
97
98
9
22
75
81
54
36
31
95
40
45
78
62
7
60
90
12
55
34
80
17
11
69
56
26
13
84
5
91
93
94
87
83
29
38
85
63
77
6
20
46
37
32
68
24
48
99
72
8
3
47
27
49
33
76
42
51

> <PUBCHEM_MMFF94_PARTIAL_CHARGES>
45
1 -0.56
13 -0.28
15 0.28
17 0.14
18 -0.15
19 0.14
2 0.42
20 -0.28
23 -0.29
24 -0.29
25 0.14
26 -0.15
27 -0.15
28 -0.15
29 -0.14
3 0.14
30 -0.14
31 0.14
32 -0.15
33 0.14
34 -0.15
35 -0.15
36 -0.15
37 -0.15
38 -0.14
39 -0.15
4 -0.28
40 -0.15
41 0.14
48 0.15
65 0.15
74 0.15
75 0.15
79 0.15
8 -0.29
80 0.15
81 0.15
85 0.15
89 0.15
9 0.56
90 0.15
91 0.15
92 0.15
93 0.15
94 0.15

> <PUBCHEM_EFFECTIVE_ROTOR_COUNT>
11

> <PUBCHEM_PHARMACOPHORE_FEATURES>
10
1 1 acceptor
1 17 hydrophobe
1 31 hydrophobe
1 33 hydrophobe
1 41 hydrophobe
3 14 21 22 hydrophobe
3 3 11 12 hydrophobe
5 1 2 4 8 9 rings
6 14 15 16 19 20 23 rings
6 2 3 4 5 6 7 rings

> <PUBCHEM_HEAVY_ATOM_COUNT>
41

> <PUBCHEM_ATOM_DEF_STEREO_COUNT>
0

> <PUBCHEM_ATOM_UDEF_STEREO_COUNT>
3

> <PUBCHEM_BOND_DEF_STEREO_COUNT>
8

> <PUBCHEM_BOND_UDEF_STEREO_COUNT>
0

> <PUBCHEM_ISOTOPIC_ATOM_COUNT>
0

> <PUBCHEM_COMPONENT_COUNT>
1

> <PUBCHEM_CACTVS_TAUTO_COUNT>
1

> <PUBCHEM_CONFORMER_ID>
0062512300000001

> <PUBCHEM_MMFF94_ENERGY>
95.8551

> <PUBCHEM_FEATURE_SELFOVERLAP>
50.854

> <PUBCHEM_SHAPE_FINGERPRINT>
10209105 3 8430319039764487180
11409948 8 18412544314705392768
11621639 148 18411138030759760324
12013929 2 8790880787362941197
12013929 94 18342457041763613791
12559415 86 10231761110208704327
131240 100 18412544305930926488
13740195 50 18410011026708536630
14344974 52 18413386532317733878
15065858 18 18335984164395504806
16728433 110 18272649034961560228
17686467 74 18410293584481710413
4173938 188 18410012130504679787
44426699 60 18412827997659764788
5381727 24 17821729433606075600

> <PUBCHEM_SHAPE_MULTIPOLES>
837.89
72.91
3.58
1.92
53.53
0.32
1.65
0
29.38
-0.78
-0.4
-0.26
-0.36
4.85

> <PUBCHEM_SHAPE_SELFOVERLAP>
1718.291

> <PUBCHEM_SHAPE_VOLUME>
484.2

> <PUBCHEM_COORDINATE_TYPE>
2
5
10

$$$$
