135413566
  -OEChem-11202014113D

 37 38  0     1  0  0  0  0  0999 V2000
    1.1270    0.8441   -0.4545 O   0  0  0  0  0  0  0  0  0  0  0  0
   -0.4199   -0.7819   -1.0930 O   0  0  0  0  0  0  0  0  0  0  0  0
    4.1306   -1.9417   -0.1651 O   0  0  0  0  0  0  0  0  0  0  0  0
    4.4434    0.6450    1.0864 O   0  0  0  0  0  0  0  0  0  0  0  0
    1.3091   -2.7873   -0.0948 O   0  0  0  0  0  0  0  0  0  0  0  0
    1.3514    3.4493    0.3925 O   0  0  0  0  0  0  0  0  0  0  0  0
   -1.4995    1.7358   -1.4720 O   0  0  0  0  0  0  0  0  0  0  0  0
   -3.3426    1.1824   -0.2051 N   0  0  0  0  0  0  0  0  0  0  0  0
   -3.5544   -0.9456    0.7570 N   0  0  0  0  0  0  0  0  0  0  0  0
   -1.8337   -2.5760    0.4222 N   0  0  0  0  0  0  0  0  0  0  0  0
   -5.2242    0.6671    1.0685 N   0  0  0  0  0  0  0  0  0  0  0  0
    3.0391   -1.1558    0.3158 C   0  0  1  0  0  0  0  0  0  0  0  0
    3.4124    0.3183    0.1584 C   0  0  1  0  0  0  0  0  0  0  0  0
    1.7783   -1.4953   -0.4794 C   0  0  2  0  0  0  0  0  0  0  0  0
    2.1992    1.2161    0.4132 C   0  0  1  0  0  0  0  0  0  0  0  0
    0.6641   -0.4828   -0.2141 C   0  0  1  0  0  0  0  0  0  0  0  0
    2.5174    2.6841    0.1478 C   0  0  0  0  0  0  0  0  0  0  0  0
   -1.6112   -0.4433   -0.5473 C   0  0  0  0  0  0  0  0  0  0  0  0
   -2.3337   -1.3100    0.2065 C   0  0  0  0  0  0  0  0  0  0  0  0
   -2.1270    0.9273   -0.7951 C   0  0  0  0  0  0  0  0  0  0  0  0
   -4.0258    0.2502    0.5520 C   0  0  0  0  0  0  0  0  0  0  0  0
    2.9179   -1.4170    1.3736 H   0  0  0  0  0  0  0  0  0  0  0  0
    3.8115    0.4919   -0.8484 H   0  0  0  0  0  0  0  0  0  0  0  0
    2.0022   -1.5464   -1.5515 H   0  0  0  0  0  0  0  0  0  0  0  0
    1.8540    1.1273    1.4524 H   0  0  0  0  0  0  0  0  0  0  0  0
    0.3430   -0.5676    0.8355 H   0  0  0  0  0  0  0  0  0  0  0  0
    2.8037    2.8383   -0.8979 H   0  0  0  0  0  0  0  0  0  0  0  0
    3.3184    3.0459    0.7996 H   0  0  0  0  0  0  0  0  0  0  0  0
    4.2526   -1.7444   -1.1094 H   0  0  0  0  0  0  0  0  0  0  0  0
    4.0946    0.5077    1.9837 H   0  0  0  0  0  0  0  0  0  0  0  0
    1.1345   -2.7718    0.8618 H   0  0  0  0  0  0  0  0  0  0  0  0
    1.5751    4.3786    0.2136 H   0  0  0  0  0  0  0  0  0  0  0  0
   -3.7568    2.1009   -0.3327 H   0  0  0  0  0  0  0  0  0  0  0  0
   -2.3742   -3.2263    0.9781 H   0  0  0  0  0  0  0  0  0  0  0  0
   -0.9592   -2.8605    0.0002 H   0  0  0  0  0  0  0  0  0  0  0  0
   -5.7943    0.0501    1.6366 H   0  0  0  0  0  0  0  0  0  0  0  0
   -5.5766    1.6028    0.8988 H   0  0  0  0  0  0  0  0  0  0  0  0
  1 15  1  0  0  0  0
  1 16  1  0  0  0  0
  2 16  1  0  0  0  0
  2 18  1  0  0  0  0
  3 12  1  0  0  0  0
  3 29  1  0  0  0  0
  4 13  1  0  0  0  0
  4 30  1  0  0  0  0
  5 14  1  0  0  0  0
  5 31  1  0  0  0  0
  6 17  1  0  0  0  0
  6 32  1  0  0  0  0
  7 20  2  0  0  0  0
  8 20  1  0  0  0  0
  8 21  1  0  0  0  0
  8 33  1  0  0  0  0
  9 19  1  0  0  0  0
  9 21  2  0  0  0  0
 10 19  1  0  0  0  0
 10 34  1  0  0  0  0
 10 35  1  0  0  0  0
 11 21  1  0  0  0  0
 11 36  1  0  0  0  0
 11 37  1  0  0  0  0
 12 13  1  0  0  0  0
 12 14  1  0  0  0  0
 12 22  1  0  0  0  0
 13 15  1  0  0  0  0
 13 23  1  0  0  0  0
 14 16  1  0  0  0  0
 14 24  1  0  0  0  0
 15 17  1  0  0  0  0
 15 25  1  0  0  0  0
 16 26  1  0  0  0  0
 17 27  1  0  0  0  0
 17 28  1  0  0  0  0
 18 19  2  0  0  0  0
 18 20  1  0  0  0  0
M  END
> <PUBCHEM_COMPOUND_CID>
135413566

> <PUBCHEM_CONFORMER_RMSD>
0.6

> <PUBCHEM_CONFORMER_DIVERSEORDER>
1
64
50
77
73
18
43
39
69
62
59
48
7
72
65
66
52
49
60
22
28
38
53
41
55
34
78
17
56
57
10
11
23
68
35
6
61
42
44
58
36
71
54
21
76
47
26
67
40
3
16
27
74
51
29
5
15
24
46
12
14
33
9
8
20
75
19
2
30
31
4
32
45
70
37
13
25
63

> <PUBCHEM_MMFF94_PARTIAL_CHARGES>
30
1 -0.56
10 -0.9
11 -0.85
12 0.28
13 0.28
14 0.28
15 0.28
16 0.56
17 0.28
18 0.09
19 0.27
2 -0.36
20 0.62
21 0.56
29 0.4
3 -0.68
30 0.4
31 0.4
32 0.4
33 0.37
34 0.4
35 0.4
36 0.4
37 0.4
4 -0.68
5 -0.68
6 -0.68
7 -0.57
8 -0.49
9 -0.62

> <PUBCHEM_EFFECTIVE_ROTOR_COUNT>
4.2

> <PUBCHEM_PHARMACOPHORE_FEATURES>
17
1 1 acceptor
1 10 cation
1 10 donor
1 11 donor
1 2 acceptor
1 3 acceptor
1 3 donor
1 4 acceptor
1 4 donor
1 5 acceptor
1 5 donor
1 6 acceptor
1 6 donor
1 7 acceptor
1 8 donor
6 1 12 13 14 15 16 rings
6 8 9 18 19 20 21 rings

> <PUBCHEM_HEAVY_ATOM_COUNT>
21

> <PUBCHEM_ATOM_DEF_STEREO_COUNT>
5

> <PUBCHEM_ATOM_UDEF_STEREO_COUNT>
0

> <PUBCHEM_BOND_DEF_STEREO_COUNT>
0

> <PUBCHEM_BOND_UDEF_STEREO_COUNT>
0

> <PUBCHEM_ISOTOPIC_ATOM_COUNT>
0

> <PUBCHEM_COMPONENT_COUNT>
1

> <PUBCHEM_CACTVS_TAUTO_COUNT>
-1

> <PUBCHEM_CONFORMER_ID>
08123F3E00000001

> <PUBCHEM_MMFF94_ENERGY>
67.8619

> <PUBCHEM_FEATURE_SELFOVERLAP>
86.389

> <PUBCHEM_SHAPE_FINGERPRINT>
10366900 7 18186805806904622315
10608611 8 18408880741613535565
10967382 1 18411132503088987254
12251169 10 18410013255959885501
12633257 1 18335413595085587345
13140716 1 18264768933613657577
14223421 5 18264204879869465398
14341114 176 18411708668398400121
14790565 3 18193846070622057524
14866123 147 16321185988948725658
15219456 202 18409726240222278934
15653759 3 18113335288827131997
1601671 61 18411420639971709860
16945 1 18409439280582829030
17804303 29 18334582304223721975
1813 80 16660649569885189207
18219364 16 18335686239652151053
18785283 64 18263086663918130264
19049666 15 18046058259735783319
20681677 76 18335972134476841173
21041028 32 18269556035743320484
21501502 16 18341047540196054455
22854114 111 18342457049398512508
23559900 14 18412543210556205179
2748010 2 18340751660368245726
3472631 163 14836110062053539305
350125 39 18195244653247658422
474 4 18342455975751660251
49207404 50 18264496267715111083
5104073 3 18410575097733059267
7097593 13 18334847325439418282
7364860 26 18411703209621547852
8809292 202 18261956254284830482
9709674 26 18410858801834965767

> <PUBCHEM_SHAPE_MULTIPOLES>
371.16
8.17
2.93
0.95
3.3
0.73
0.09
0.59
-2.82
-1.9
-0.1
0.38
0.18
0.61

> <PUBCHEM_SHAPE_SELFOVERLAP>
780.435

> <PUBCHEM_SHAPE_VOLUME>
203.6

> <PUBCHEM_COORDINATE_TYPE>
2
5
10

$$$$
