15599640
  -OEChem-11202014173D

 76 79  0     1  0  0  0  0  0999 V2000
    8.1886   -0.7632   -0.2573 O   0  0  0  0  0  0  0  0  0  0  0  0
    3.9948    0.1472   -0.3966 C   0  0  2  0  0  0  0  0  0  0  0  0
    2.6257    0.6624    0.2034 C   0  0  2  0  0  0  0  0  0  0  0  0
   -0.3623    0.7898   -0.0976 C   0  0  2  0  0  0  0  0  0  0  0  0
    0.3205   -0.0104    1.0357 C   0  0  2  0  0  0  0  0  0  0  0  0
    4.5043   -1.0063    0.5232 C   0  0  1  0  0  0  0  0  0  0  0  0
    1.6949   -0.4784    0.6435 C   0  0  0  0  0  0  0  0  0  0  0  0
    1.9199    1.7180   -0.7036 C   0  0  0  0  0  0  0  0  0  0  0  0
    0.4734    2.0634   -0.2994 C   0  0  0  0  0  0  0  0  0  0  0  0
    5.0423    1.2938   -0.3827 C   0  0  0  0  0  0  0  0  0  0  0  0
    3.5238   -2.1900    0.5342 C   0  0  0  0  0  0  0  0  0  0  0  0
    5.9272   -1.4738    0.1882 C   0  0  0  0  0  0  0  0  0  0  0  0
   -1.7403    0.9382    0.5147 C   0  0  0  0  0  0  0  0  0  0  0  0
   -0.7758   -0.9455    1.5578 C   0  0  0  0  0  0  0  0  0  0  0  0
    2.1070   -1.7523    0.7566 C   0  0  0  0  0  0  0  0  0  0  0  0
    3.8175   -0.3474   -1.8572 C   0  0  0  0  0  0  0  0  0  0  0  0
    6.4565    0.8254   -0.7233 C   0  0  0  0  0  0  0  0  0  0  0  0
    6.9146   -0.3096    0.1878 C   0  0  2  0  0  0  0  0  0  0  0  0
   -0.5116    0.0068   -1.4234 C   0  0  0  0  0  0  0  0  0  0  0  0
   -1.9723   -0.0487    1.3984 C   0  0  0  0  0  0  0  0  0  0  0  0
   -2.6950    1.9980    0.0968 C   0  0  1  0  0  0  0  0  0  0  0  0
   -4.1443    1.4640    0.1273 C   0  0  0  0  0  0  0  0  0  0  0  0
   -2.5163    3.2380    0.9799 C   0  0  0  0  0  0  0  0  0  0  0  0
   -4.3848    0.2810   -0.8222 C   0  0  0  0  0  0  0  0  0  0  0  0
   -5.8435   -0.2370   -0.7968 C   0  0  1  0  0  0  0  0  0  0  0  0
   -6.0134   -1.3018   -1.9045 C   0  0  0  0  0  0  0  0  0  0  0  0
   -6.2737   -0.7361    0.5782 C   0  0  0  0  0  0  0  0  0  0  0  0
   -7.4514   -1.7732   -2.0814 C   0  0  0  0  0  0  0  0  0  0  0  0
   -5.5407   -1.9029    1.1809 C   0  0  0  0  0  0  0  0  0  0  0  0
   -7.2856   -0.1496    1.2395 C   0  0  0  0  0  0  0  0  0  0  0  0
    2.8644    1.1928    1.1390 H   0  0  0  0  0  0  0  0  0  0  0  0
    0.5119    0.6817    1.8780 H   0  0  0  0  0  0  0  0  0  0  0  0
    4.5457   -0.6109    1.5509 H   0  0  0  0  0  0  0  0  0  0  0  0
    1.8966    1.3821   -1.7442 H   0  0  0  0  0  0  0  0  0  0  0  0
    2.5061    2.6449   -0.7020 H   0  0  0  0  0  0  0  0  0  0  0  0
    0.0267    2.7065   -1.0672 H   0  0  0  0  0  0  0  0  0  0  0  0
    0.5062    2.6539    0.6248 H   0  0  0  0  0  0  0  0  0  0  0  0
    4.7565    2.0854   -1.0853 H   0  0  0  0  0  0  0  0  0  0  0  0
    5.0645    1.7575    0.6124 H   0  0  0  0  0  0  0  0  0  0  0  0
    3.5793   -2.7636   -0.3982 H   0  0  0  0  0  0  0  0  0  0  0  0
    3.8072   -2.8756    1.3424 H   0  0  0  0  0  0  0  0  0  0  0  0
    6.2589   -2.2200    0.9221 H   0  0  0  0  0  0  0  0  0  0  0  0
    5.9565   -1.9956   -0.7760 H   0  0  0  0  0  0  0  0  0  0  0  0
   -0.8965   -1.8601    0.9693 H   0  0  0  0  0  0  0  0  0  0  0  0
   -0.6071   -1.2069    2.6068 H   0  0  0  0  0  0  0  0  0  0  0  0
    1.4156   -2.5251    1.0788 H   0  0  0  0  0  0  0  0  0  0  0  0
    2.9450   -0.9984   -1.9691 H   0  0  0  0  0  0  0  0  0  0  0  0
    4.6852   -0.9088   -2.2150 H   0  0  0  0  0  0  0  0  0  0  0  0
    3.6914    0.4907   -2.5511 H   0  0  0  0  0  0  0  0  0  0  0  0
    7.1550    1.6669   -0.6345 H   0  0  0  0  0  0  0  0  0  0  0  0
    6.5140    0.5154   -1.7741 H   0  0  0  0  0  0  0  0  0  0  0  0
    7.0392    0.0671    1.2094 H   0  0  0  0  0  0  0  0  0  0  0  0
   -0.9865    0.6318   -2.1890 H   0  0  0  0  0  0  0  0  0  0  0  0
    0.4474   -0.3302   -1.8264 H   0  0  0  0  0  0  0  0  0  0  0  0
   -1.1329   -0.8891   -1.3084 H   0  0  0  0  0  0  0  0  0  0  0  0
   -2.8788   -0.1950    1.9650 H   0  0  0  0  0  0  0  0  0  0  0  0
   -2.4814    2.2872   -0.9402 H   0  0  0  0  0  0  0  0  0  0  0  0
   -4.8143    2.2808   -0.1736 H   0  0  0  0  0  0  0  0  0  0  0  0
   -4.4359    1.2116    1.1533 H   0  0  0  0  0  0  0  0  0  0  0  0
   -2.6887    3.0058    2.0370 H   0  0  0  0  0  0  0  0  0  0  0  0
   -3.2317    4.0157    0.6907 H   0  0  0  0  0  0  0  0  0  0  0  0
   -1.5158    3.6685    0.8870 H   0  0  0  0  0  0  0  0  0  0  0  0
    8.0866   -1.1090   -1.1605 H   0  0  0  0  0  0  0  0  0  0  0  0
   -3.7052   -0.5507   -0.6126 H   0  0  0  0  0  0  0  0  0  0  0  0
   -4.1460    0.6128   -1.8416 H   0  0  0  0  0  0  0  0  0  0  0  0
   -6.4824    0.6128   -1.0784 H   0  0  0  0  0  0  0  0  0  0  0  0
   -5.3708   -2.1688   -1.7094 H   0  0  0  0  0  0  0  0  0  0  0  0
   -5.6787   -0.8794   -2.8606 H   0  0  0  0  0  0  0  0  0  0  0  0
   -7.5186   -2.4602   -2.9311 H   0  0  0  0  0  0  0  0  0  0  0  0
   -7.8131   -2.3046   -1.1962 H   0  0  0  0  0  0  0  0  0  0  0  0
   -8.1196   -0.9284   -2.2762 H   0  0  0  0  0  0  0  0  0  0  0  0
   -4.4687   -1.7108    1.2455 H   0  0  0  0  0  0  0  0  0  0  0  0
   -5.6939   -2.8040    0.5792 H   0  0  0  0  0  0  0  0  0  0  0  0
   -5.8909   -2.1258    2.1947 H   0  0  0  0  0  0  0  0  0  0  0  0
   -7.8241    0.6927    0.8182 H   0  0  0  0  0  0  0  0  0  0  0  0
   -7.5997   -0.4978    2.2178 H   0  0  0  0  0  0  0  0  0  0  0  0
  1 18  1  0  0  0  0
  1 63  1  0  0  0  0
  2  3  1  0  0  0  0
  2  6  1  0  0  0  0
  2 10  1  0  0  0  0
  2 16  1  0  0  0  0
  3  7  1  0  0  0  0
  3  8  1  0  0  0  0
  3 31  1  0  0  0  0
  4  5  1  0  0  0  0
  4  9  1  0  0  0  0
  4 13  1  0  0  0  0
  4 19  1  0  0  0  0
  5  7  1  0  0  0  0
  5 14  1  0  0  0  0
  5 32  1  0  0  0  0
  6 11  1  0  0  0  0
  6 12  1  0  0  0  0
  6 33  1  0  0  0  0
  7 15  2  0  0  0  0
  8  9  1  0  0  0  0
  8 34  1  0  0  0  0
  8 35  1  0  0  0  0
  9 36  1  0  0  0  0
  9 37  1  0  0  0  0
 10 17  1  0  0  0  0
 10 38  1  0  0  0  0
 10 39  1  0  0  0  0
 11 15  1  0  0  0  0
 11 40  1  0  0  0  0
 11 41  1  0  0  0  0
 12 18  1  0  0  0  0
 12 42  1  0  0  0  0
 12 43  1  0  0  0  0
 13 20  2  0  0  0  0
 13 21  1  0  0  0  0
 14 20  1  0  0  0  0
 14 44  1  0  0  0  0
 14 45  1  0  0  0  0
 15 46  1  0  0  0  0
 16 47  1  0  0  0  0
 16 48  1  0  0  0  0
 16 49  1  0  0  0  0
 17 18  1  0  0  0  0
 17 50  1  0  0  0  0
 17 51  1  0  0  0  0
 18 52  1  0  0  0  0
 19 53  1  0  0  0  0
 19 54  1  0  0  0  0
 19 55  1  0  0  0  0
 20 56  1  0  0  0  0
 21 22  1  0  0  0  0
 21 23  1  0  0  0  0
 21 57  1  0  0  0  0
 22 24  1  0  0  0  0
 22 58  1  0  0  0  0
 22 59  1  0  0  0  0
 23 60  1  0  0  0  0
 23 61  1  0  0  0  0
 23 62  1  0  0  0  0
 24 25  1  0  0  0  0
 24 64  1  0  0  0  0
 24 65  1  0  0  0  0
 25 26  1  0  0  0  0
 25 27  1  0  0  0  0
 25 66  1  0  0  0  0
 26 28  1  0  0  0  0
 26 67  1  0  0  0  0
 26 68  1  0  0  0  0
 27 29  1  0  0  0  0
 27 30  2  0  0  0  0
 28 69  1  0  0  0  0
 28 70  1  0  0  0  0
 28 71  1  0  0  0  0
 29 72  1  0  0  0  0
 29 73  1  0  0  0  0
 29 74  1  0  0  0  0
 30 75  1  0  0  0  0
 30 76  1  0  0  0  0
M  END
> <PUBCHEM_COMPOUND_CID>
15599640

> <PUBCHEM_CONFORMER_RMSD>
1

> <PUBCHEM_CONFORMER_DIVERSEORDER>
2
14
22
8
9
15
4
12
7
20
21
16
5
19
13
18
17
10
6
23
11
1
3

> <PUBCHEM_MMFF94_PARTIAL_CHARGES>
21
1 -0.68
11 0.14
13 -0.28
14 0.14
15 -0.29
18 0.28
20 -0.29
21 0.14
25 0.14
27 -0.28
29 0.14
3 0.14
30 -0.3
4 0.14
46 0.15
5 0.14
56 0.15
63 0.4
7 -0.28
75 0.15
76 0.15

> <PUBCHEM_EFFECTIVE_ROTOR_COUNT>
7.6

> <PUBCHEM_PHARMACOPHORE_FEATURES>
9
1 1 acceptor
1 1 donor
1 23 hydrophobe
1 28 hydrophobe
5 4 5 13 14 20 rings
6 2 3 6 7 11 15 rings
6 2 6 10 12 17 18 rings
6 21 22 24 25 26 27 hydrophobe
6 3 4 5 7 8 9 rings

> <PUBCHEM_HEAVY_ATOM_COUNT>
30

> <PUBCHEM_ATOM_DEF_STEREO_COUNT>
8

> <PUBCHEM_ATOM_UDEF_STEREO_COUNT>
0

> <PUBCHEM_BOND_DEF_STEREO_COUNT>
0

> <PUBCHEM_BOND_UDEF_STEREO_COUNT>
0

> <PUBCHEM_ISOTOPIC_ATOM_COUNT>
0

> <PUBCHEM_COMPONENT_COUNT>
1

> <PUBCHEM_CACTVS_TAUTO_COUNT>
1

> <PUBCHEM_CONFORMER_ID>
00EE081800000002

> <PUBCHEM_MMFF94_ENERGY>
77.2726

> <PUBCHEM_FEATURE_SELFOVERLAP>
45.77

> <PUBCHEM_SHAPE_FINGERPRINT>
10 15 12391516386602059551
10299344 5 18202565090423723655
10595046 47 18411136892551033408
11089746 13 12251905910328577319
11135926 11 17967811635727213091
11963148 33 18059846260166385799
12107698 1 18343021103217161817
12166972 35 18409732876174351736
12236239 1 18271805679725866848
12788726 201 18271806796380291545
13533116 47 18411138073567300152
13673619 4 17131824404949618689
13690498 29 18336531778118029645
13782708 43 17846779568499015526
13914758 101 14706920744292970200
14068700 675 18131348635481603057
14767858 380 18334573551254283407
14856354 85 18201717392781468407
15082195 135 17605292842138427196
15131766 46 15432314874339711054
15142383 8 13398636017356094626
15183329 4 18335413591244735559
15461852 350 18260275135861389862
17349148 13 18260555506746772697
19958102 18 17967811643953273827
21150785 3 18413671322840547740
21267235 1 18408610248915816480
22393880 68 17240472625184503067
23522609 53 17986137247356467017
23559900 14 18115871969875338129
23569917 315 18041006111687673402
23569943 247 17554905269897449086
23576562 1 15502952941924017142
335352 9 18187089443505306446
34797466 226 17203613701245274120
3633792 109 17821723914641841317
397830 11 16127795478962485891
4015057 19 17822021929416802433
4325135 7 18334297560808469459
4340502 62 16415478230083863540
474113 269 15937233518911566594
484989 97 17895486941240075235
4938544 92 16630254615498526729
5104073 3 13110694783315200534
54039377 194 18411699920441951543
59755656 215 17822014169222820786
6004065 56 18335980965193943236

> <PUBCHEM_SHAPE_MULTIPOLES>
611.52
20.34
2.3
1.55
2.81
0.88
0.46
-9.05
4.62
1.13
-0.31
2.21
-0.53
-1.72

> <PUBCHEM_SHAPE_SELFOVERLAP>
1273.207

> <PUBCHEM_SHAPE_VOLUME>
347.7

> <PUBCHEM_COORDINATE_TYPE>
2
5
10

$$$$
