145925703
  -OEChem-11202013362D

301313  0     1  0  0  0  0  0999 V2000
    4.0751   10.4470    0.0000 O   0  0  0  0  0  0  0  0  0  0  0  0
   26.1167    3.3100    0.0000 O   0  0  0  0  0  0  0  0  0  0  0  0
   21.3479   19.4715    0.0000 O   0  0  0  0  0  0  0  0  0  0  0  0
    2.3430   10.4536    0.0000 O   0  0  0  0  0  0  0  0  0  0  0  0
   24.3846    3.3100    0.0000 O   0  0  0  0  0  0  0  0  0  0  0  0
   19.6158   19.4782    0.0000 O   0  0  0  0  0  0  0  0  0  0  0  0
    4.0828   12.4469    0.0000 O   0  0  0  0  0  0  0  0  0  0  0  0
   26.1167    1.3100    0.0000 O   0  0  0  0  0  0  0  0  0  0  0  0
   21.3556   21.4715    0.0000 O   0  0  0  0  0  0  0  0  0  0  0  0
    2.3546   13.4536    0.0000 O   0  0  0  0  0  0  0  0  0  0  0  0
   24.3846    0.3100    0.0000 O   0  0  0  0  0  0  0  0  0  0  0  0
   19.6274   22.4782    0.0000 O   0  0  0  0  0  0  0  0  0  0  0  0
    0.6187   12.4603    0.0000 O   0  0  0  0  0  0  0  0  0  0  0  0
   22.6526    1.3100    0.0000 O   0  0  0  0  0  0  0  0  0  0  0  0
   17.8915   21.4848    0.0000 O   0  0  0  0  0  0  0  0  0  0  0  0
    0.6071    9.4603    0.0000 O   0  0  0  0  0  0  0  0  0  0  0  0
   21.7866    2.8100    0.0000 O   0  0  0  0  0  0  0  0  0  0  0  0
   17.8800   18.4849    0.0000 O   0  0  0  0  0  0  0  0  0  0  0  0
    9.4682   13.4993    0.0000 C   0  0  1  0  0  0  0  0  0  0  0  0
   26.1460    9.5069    0.0000 C   0  0  1  0  0  0  0  0  0  0  0  0
   26.7410   22.5238    0.0000 C   0  0  1  0  0  0  0  0  0  0  0  0
    9.4682   12.4993    0.0000 C   0  0  2  0  0  0  0  0  0  0  0  0
   27.0139    9.0102    0.0000 C   0  0  2  0  0  0  0  0  0  0  0  0
   26.7410   21.5238    0.0000 C   0  0  2  0  0  0  0  0  0  0  0  0
    8.6021   11.9993    0.0000 C   0  0  1  0  0  0  0  0  0  0  0  0
   27.0178    8.0102    0.0000 C   0  0  1  0  0  0  0  0  0  0  0  0
   25.8749   21.0238    0.0000 C   0  0  1  0  0  0  0  0  0  0  0  0
    7.7361   12.4993    0.0000 C   0  0  1  0  0  0  0  0  0  0  0  0
   26.1537    7.5069    0.0000 C   0  0  1  0  0  0  0  0  0  0  0  0
   25.0089   21.5238    0.0000 C   0  0  1  0  0  0  0  0  0  0  0  0
   10.4144   13.8040    0.0000 C   0  0  2  0  0  0  0  0  0  0  0  0
   26.3514   10.4795    0.0000 C   0  0  2  0  0  0  0  0  0  0  0  0
   27.6872   22.8286    0.0000 C   0  0  2  0  0  0  0  0  0  0  0  0
    8.6021   13.9993    0.0000 C   0  0  0  0  0  0  0  0  0  0  0  0
   25.2819    9.0035    0.0000 C   0  0  0  0  0  0  0  0  0  0  0  0
   25.8749   23.0238    0.0000 C   0  0  0  0  0  0  0  0  0  0  0  0
    6.8261   11.9924    0.0000 C   0  0  2  0  0  0  0  0  0  0  0  0
   26.1416    6.4653    0.0000 C   0  0  2  0  0  0  0  0  0  0  0  0
   10.4144   12.1946    0.0000 C   0  0  0  0  0  0  0  0  0  0  0  0
   27.7483    9.6801    0.0000 C   0  0  0  0  0  0  0  0  0  0  0  0
   24.0989   21.0170    0.0000 C   0  0  2  0  0  0  0  0  0  0  0  0
   27.6872   21.2191    0.0000 C   0  0  0  0  0  0  0  0  0  0  0  0
    7.7361   13.4993    0.0000 C   0  0  0  0  0  0  0  0  0  0  0  0
   25.2857    8.0036    0.0000 C   0  0  0  0  0  0  0  0  0  0  0  0
   25.0089   22.5238    0.0000 C   0  0  0  0  0  0  0  0  0  0  0  0
   10.9980   12.9993    0.0000 C   0  0  0  0  0  0  0  0  0  0  0  0
   27.3397   10.5864    0.0000 C   0  0  0  0  0  0  0  0  0  0  0  0
   28.2708   22.0238    0.0000 C   0  0  0  0  0  0  0  0  0  0  0  0
    8.6182   10.9578    0.0000 C   0  0  0  0  0  0  0  0  0  0  0  0
   27.9297    7.5069    0.0000 C   0  0  0  0  0  0  0  0  0  0  0  0
   25.8910   19.9823    0.0000 C   0  0  0  0  0  0  0  0  0  0  0  0
   10.7250   14.7545    0.0000 C   0  0  1  0  0  0  0  0  0  0  0  0
   25.6807   11.2212    0.0000 C   0  0  1  0  0  0  0  0  0  0  0  0
    9.4682   14.4993    0.0000 C   0  0  0  0  0  0  0  0  0  0  0  0
   25.2780   10.0035    0.0000 C   0  0  0  0  0  0  0  0  0  0  0  0
   27.9979   23.7791    0.0000 C   0  0  1  0  0  0  0  0  0  0  0  0
   26.7410   23.5238    0.0000 C   0  0  0  0  0  0  0  0  0  0  0  0
    6.8181   10.9508    0.0000 C   0  0  0  0  0  0  0  0  0  0  0  0
   27.0417    5.9410    0.0000 C   0  0  0  0  0  0  0  0  0  0  0  0
   24.0909   19.9754    0.0000 C   0  0  0  0  0  0  0  0  0  0  0  0
    5.8993   12.5565    0.0000 C   0  0  0  0  0  0  0  0  0  0  0  0
   25.1917    5.9410    0.0000 C   0  0  0  0  0  0  0  0  0  0  0  0
   23.1721   21.5811    0.0000 C   0  0  0  0  0  0  0  0  0  0  0  0
    7.7202   10.4300    0.0000 C   0  0  0  0  0  0  0  0  0  0  0  0
   27.9417    6.4653    0.0000 C   0  0  0  0  0  0  0  0  0  0  0  0
   24.9930   19.4546    0.0000 C   0  0  0  0  0  0  0  0  0  0  0  0
    6.8338   12.9924    0.0000 C   0  0  0  0  0  0  0  0  0  0  0  0
   25.2775    6.9687    0.0000 C   0  0  0  0  0  0  0  0  0  0  0  0
   24.1066   22.0170    0.0000 C   0  0  0  0  0  0  0  0  0  0  0  0
    5.8826   10.4011    0.0000 C   0  0  0  0  0  0  0  0  0  0  0  0
   27.0542    4.8561    0.0000 C   0  0  0  0  0  0  0  0  0  0  0  0
   23.1555   19.4257    0.0000 C   0  0  0  0  0  0  0  0  0  0  0  0
    4.9514   12.0286    0.0000 C   0  0  0  0  0  0  0  0  0  0  0  0
   25.1792    4.8561    0.0000 C   0  0  0  0  0  0  0  0  0  0  0  0
   22.2242   21.0531    0.0000 C   0  0  0  0  0  0  0  0  0  0  0  0
   11.7035   14.9608    0.0000 C   0  0  0  0  0  0  0  0  0  0  0  0
   25.9877   12.1729    0.0000 C   0  0  0  0  0  0  0  0  0  0  0  0
   28.9764   23.9853    0.0000 C   0  0  0  0  0  0  0  0  0  0  0  0
    4.9430   10.9436    0.0000 C   0  0  2  0  0  0  0  0  0  0  0  0
   26.1167    4.3100    0.0000 C   0  0  2  0  0  0  0  0  0  0  0  0
   22.2158   19.9682    0.0000 C   0  0  2  0  0  0  0  0  0  0  0  0
   10.0572   15.4988    0.0000 C   0  0  0  0  0  0  0  0  0  0  0  0
   24.7030   11.0112    0.0000 C   0  0  0  0  0  0  0  0  0  0  0  0
   27.3300   24.5234    0.0000 C   0  0  0  0  0  0  0  0  0  0  0  0
   12.0142   15.9113    0.0000 C   0  0  0  0  0  0  0  0  0  0  0  0
   25.3170   12.9146    0.0000 C   0  0  0  0  0  0  0  0  0  0  0  0
   29.2870   24.9358    0.0000 C   0  0  0  0  0  0  0  0  0  0  0  0
   12.9927   16.1175    0.0000 C   0  0  2  0  0  0  0  0  0  0  0  0
   25.6240   13.8664    0.0000 C   0  0  2  0  0  0  0  0  0  0  0  0
   30.2655   25.1420    0.0000 C   0  0  1  0  0  0  0  0  0  0  0  0
    3.2110   10.9503    0.0000 C   0  0  3  0  0  0  0  0  0  0  0  0
   25.2507    2.8100    0.0000 C   0  0  3  0  0  0  0  0  0  0  0  0
   20.4838   19.9748    0.0000 C   0  0  3  0  0  0  0  0  0  0  0  0
   13.3034   17.0680    0.0000 C   0  0  0  0  0  0  0  0  0  0  0  0
   24.9533   14.6081    0.0000 C   0  0  0  0  0  0  0  0  0  0  0  0
   13.6606   15.3732    0.0000 C   0  0  0  0  0  0  0  0  0  0  0  0
   26.6017   14.0763    0.0000 C   0  0  0  0  0  0  0  0  0  0  0  0
   30.9334   24.3977    0.0000 C   0  0  0  0  0  0  0  0  0  0  0  0
   30.5762   26.0926    0.0000 C   0  0  0  0  0  0  0  0  0  0  0  0
    3.2148   11.9503    0.0000 C   0  0  1  0  0  0  0  0  0  0  0  0
   25.2507    1.8100    0.0000 C   0  0  1  0  0  0  0  0  0  0  0  0
   20.4876   20.9748    0.0000 C   0  0  1  0  0  0  0  0  0  0  0  0
   14.2819   17.2742    0.0000 C   0  0  0  0  0  0  0  0  0  0  0  0
   12.6355   17.8123    0.0000 C   0  0  0  0  0  0  0  0  0  0  0  0
   25.2603   15.5598    0.0000 C   0  0  0  0  0  0  0  0  0  0  0  0
   23.9756   14.3981    0.0000 C   0  0  0  0  0  0  0  0  0  0  0  0
   14.6391   15.5794    0.0000 C   0  0  0  0  0  0  0  0  0  0  0  0
   26.9087   15.0281    0.0000 C   0  0  0  0  0  0  0  0  0  0  0  0
    2.3507   12.4536    0.0000 C   0  0  2  0  0  0  0  0  0  0  0  0
   24.3846    1.3100    0.0000 C   0  0  2  0  0  0  0  0  0  0  0  0
   19.6236   21.4782    0.0000 C   0  0  2  0  0  0  0  0  0  0  0  0
    1.4789   10.9570    0.0000 C   0  0  1  0  0  0  0  0  0  0  0  0
   23.5186    2.8100    0.0000 C   0  0  1  0  0  0  0  0  0  0  0  0
   31.9119   24.6040    0.0000 C   0  0  0  0  0  0  0  0  0  0  0  0
   18.7518   19.9815    0.0000 C   0  0  1  0  0  0  0  0  0  0  0  0
    1.4828   11.9570    0.0000 C   0  0  1  0  0  0  0  0  0  0  0  0
   23.5186    1.8100    0.0000 C   0  0  1  0  0  0  0  0  0  0  0  0
   18.7556   20.9815    0.0000 C   0  0  1  0  0  0  0  0  0  0  0  0
   31.5547   26.2988    0.0000 C   0  0  0  0  0  0  0  0  0  0  0  0
   29.9083   26.8369    0.0000 C   0  0  0  0  0  0  0  0  0  0  0  0
    0.6110   10.4603    0.0000 C   0  0  0  0  0  0  0  0  0  0  0  0
   22.6526    3.3100    0.0000 C   0  0  0  0  0  0  0  0  0  0  0  0
   17.8838   19.4849    0.0000 C   0  0  0  0  0  0  0  0  0  0  0  0
    9.5581   11.6541    0.0000 H   0  0  0  0  0  0  0  0  0  0  0  0
   27.7922    8.6685    0.0000 H   0  0  0  0  0  0  0  0  0  0  0  0
   26.8309   20.6786    0.0000 H   0  0  0  0  0  0  0  0  0  0  0  0
    9.3415   11.5800    0.0000 H   0  0  0  0  0  0  0  0  0  0  0  0
   27.7489    8.4437    0.0000 H   0  0  0  0  0  0  0  0  0  0  0  0
   26.6143   20.6045    0.0000 H   0  0  0  0  0  0  0  0  0  0  0  0
    8.4722   12.9243    0.0000 H   0  0  0  0  0  0  0  0  0  0  0  0
   26.8881    7.0790    0.0000 H   0  0  0  0  0  0  0  0  0  0  0  0
   25.7450   21.9488    0.0000 H   0  0  0  0  0  0  0  0  0  0  0  0
   11.2541   13.9359    0.0000 H   0  0  0  0  0  0  0  0  0  0  0  0
   26.6540   11.2738    0.0000 H   0  0  0  0  0  0  0  0  0  0  0  0
   28.5269   22.9604    0.0000 H   0  0  0  0  0  0  0  0  0  0  0  0
    9.0006   14.4742    0.0000 H   0  0  0  0  0  0  0  0  0  0  0  0
    8.2036   14.4742    0.0000 H   0  0  0  0  0  0  0  0  0  0  0  0
   25.0676    9.5853    0.0000 H   0  0  0  0  0  0  0  0  0  0  0  0
   24.6717    8.8935    0.0000 H   0  0  0  0  0  0  0  0  0  0  0  0
   26.2735   23.4988    0.0000 H   0  0  0  0  0  0  0  0  0  0  0  0
   25.4764   23.4988    0.0000 H   0  0  0  0  0  0  0  0  0  0  0  0
   10.1633   11.6277    0.0000 H   0  0  0  0  0  0  0  0  0  0  0  0
   10.9518   11.8853    0.0000 H   0  0  0  0  0  0  0  0  0  0  0  0
   28.1157    9.1807    0.0000 H   0  0  0  0  0  0  0  0  0  0  0  0
   28.2836    9.9930    0.0000 H   0  0  0  0  0  0  0  0  0  0  0  0
   27.4362   20.6522    0.0000 H   0  0  0  0  0  0  0  0  0  0  0  0
   28.2246   20.9099    0.0000 H   0  0  0  0  0  0  0  0  0  0  0  0
    7.5240   14.0819    0.0000 H   0  0  0  0  0  0  0  0  0  0  0  0
    7.1255   13.3916    0.0000 H   0  0  0  0  0  0  0  0  0  0  0  0
   24.6747    8.1088    0.0000 H   0  0  0  0  0  0  0  0  0  0  0  0
   25.0759    7.4201    0.0000 H   0  0  0  0  0  0  0  0  0  0  0  0
   24.7969   23.1064    0.0000 H   0  0  0  0  0  0  0  0  0  0  0  0
   24.3983   22.4162    0.0000 H   0  0  0  0  0  0  0  0  0  0  0  0
   11.4588   12.5846    0.0000 H   0  0  0  0  0  0  0  0  0  0  0  0
   11.4588   13.4140    0.0000 H   0  0  0  0  0  0  0  0  0  0  0  0
   27.9286   10.7804    0.0000 H   0  0  0  0  0  0  0  0  0  0  0  0
   27.2087   11.1923    0.0000 H   0  0  0  0  0  0  0  0  0  0  0  0
   28.7317   21.6091    0.0000 H   0  0  0  0  0  0  0  0  0  0  0  0
   28.7317   22.4386    0.0000 H   0  0  0  0  0  0  0  0  0  0  0  0
    8.8362   10.3774    0.0000 H   0  0  0  0  0  0  0  0  0  0  0  0
    9.2273   11.0733    0.0000 H   0  0  0  0  0  0  0  0  0  0  0  0
   28.5417    7.4079    0.0000 H   0  0  0  0  0  0  0  0  0  0  0  0
   28.1320    8.0930    0.0000 H   0  0  0  0  0  0  0  0  0  0  0  0
   26.1090   19.4019    0.0000 H   0  0  0  0  0  0  0  0  0  0  0  0
   26.5002   20.0978    0.0000 H   0  0  0  0  0  0  0  0  0  0  0  0
   10.1184   14.6267    0.0000 H   0  0  0  0  0  0  0  0  0  0  0  0
   25.4904   10.6311    0.0000 H   0  0  0  0  0  0  0  0  0  0  0  0
   10.0882   14.4993    0.0000 H   0  0  0  0  0  0  0  0  0  0  0  0
    9.4682   15.1193    0.0000 H   0  0  0  0  0  0  0  0  0  0  0  0
    8.8482   14.4993    0.0000 H   0  0  0  0  0  0  0  0  0  0  0  0
   25.5859   10.5417    0.0000 H   0  0  0  0  0  0  0  0  0  0  0  0
   24.7399   10.3115    0.0000 H   0  0  0  0  0  0  0  0  0  0  0  0
   24.9701    9.4654    0.0000 H   0  0  0  0  0  0  0  0  0  0  0  0
   27.3912   23.6512    0.0000 H   0  0  0  0  0  0  0  0  0  0  0  0
   27.3610   23.5238    0.0000 H   0  0  0  0  0  0  0  0  0  0  0  0
   26.7410   24.1438    0.0000 H   0  0  0  0  0  0  0  0  0  0  0  0
   26.1210   23.5238    0.0000 H   0  0  0  0  0  0  0  0  0  0  0  0
    6.3075   13.0232    0.0000 H   0  0  0  0  0  0  0  0  0  0  0  0
    5.5093   13.0386    0.0000 H   0  0  0  0  0  0  0  0  0  0  0  0
   24.9894    6.5271    0.0000 H   0  0  0  0  0  0  0  0  0  0  0  0
   24.5797    5.8420    0.0000 H   0  0  0  0  0  0  0  0  0  0  0  0
   23.5803   22.0477    0.0000 H   0  0  0  0  0  0  0  0  0  0  0  0
   22.7822   22.0631    0.0000 H   0  0  0  0  0  0  0  0  0  0  0  0
    7.7225    9.8100    0.0000 H   0  0  0  0  0  0  0  0  0  0  0  0
   28.4811    6.1595    0.0000 H   0  0  0  0  0  0  0  0  0  0  0  0
   24.9954   18.8346    0.0000 H   0  0  0  0  0  0  0  0  0  0  0  0
    7.4538   12.9876    0.0000 H   0  0  0  0  0  0  0  0  0  0  0  0
    6.8386   13.6124    0.0000 H   0  0  0  0  0  0  0  0  0  0  0  0
    6.2138   12.9972    0.0000 H   0  0  0  0  0  0  0  0  0  0  0  0
   25.5896    7.5044    0.0000 H   0  0  0  0  0  0  0  0  0  0  0  0
   24.7418    7.2807    0.0000 H   0  0  0  0  0  0  0  0  0  0  0  0
   24.9655    6.4329    0.0000 H   0  0  0  0  0  0  0  0  0  0  0  0
   24.7266   22.0122    0.0000 H   0  0  0  0  0  0  0  0  0  0  0  0
   24.1114   22.6369    0.0000 H   0  0  0  0  0  0  0  0  0  0  0  0
   23.4866   22.0217    0.0000 H   0  0  0  0  0  0  0  0  0  0  0  0
    5.4853    9.9252    0.0000 H   0  0  0  0  0  0  0  0  0  0  0  0
    6.2836    9.9282    0.0000 H   0  0  0  0  0  0  0  0  0  0  0  0
   27.2700    4.2749    0.0000 H   0  0  0  0  0  0  0  0  0  0  0  0
   27.6638    4.9693    0.0000 H   0  0  0  0  0  0  0  0  0  0  0  0
   22.7582   18.9497    0.0000 H   0  0  0  0  0  0  0  0  0  0  0  0
   23.5564   18.9528    0.0000 H   0  0  0  0  0  0  0  0  0  0  0  0
    4.7468   12.6139    0.0000 H   0  0  0  0  0  0  0  0  0  0  0  0
    4.3397   11.9272    0.0000 H   0  0  0  0  0  0  0  0  0  0  0  0
   24.5696    4.9693    0.0000 H   0  0  0  0  0  0  0  0  0  0  0  0
   24.9634    4.2749    0.0000 H   0  0  0  0  0  0  0  0  0  0  0  0
   22.0196   21.6384    0.0000 H   0  0  0  0  0  0  0  0  0  0  0  0
   21.6125   20.9517    0.0000 H   0  0  0  0  0  0  0  0  0  0  0  0
   11.7241   14.3411    0.0000 H   0  0  0  0  0  0  0  0  0  0  0  0
   12.3174   14.8734    0.0000 H   0  0  0  0  0  0  0  0  0  0  0  0
   26.5357   11.8830    0.0000 H   0  0  0  0  0  0  0  0  0  0  0  0
   26.3684   12.6623    0.0000 H   0  0  0  0  0  0  0  0  0  0  0  0
   28.9969   23.3656    0.0000 H   0  0  0  0  0  0  0  0  0  0  0  0
   29.5902   23.8980    0.0000 H   0  0  0  0  0  0  0  0  0  0  0  0
    4.4079   11.2567    0.0000 H   0  0  0  0  0  0  0  0  0  0  0  0
   25.5792    4.0010    0.0000 H   0  0  0  0  0  0  0  0  0  0  0  0
   21.6807   20.2813    0.0000 H   0  0  0  0  0  0  0  0  0  0  0  0
   10.5187   15.9129    0.0000 H   0  0  0  0  0  0  0  0  0  0  0  0
    9.6431   15.9603    0.0000 H   0  0  0  0  0  0  0  0  0  0  0  0
    9.5957   15.0848    0.0000 H   0  0  0  0  0  0  0  0  0  0  0  0
   24.5728   11.6174    0.0000 H   0  0  0  0  0  0  0  0  0  0  0  0
   24.0968   10.8810    0.0000 H   0  0  0  0  0  0  0  0  0  0  0  0
   24.8332   10.4050    0.0000 H   0  0  0  0  0  0  0  0  0  0  0  0
   27.7915   24.9375    0.0000 H   0  0  0  0  0  0  0  0  0  0  0  0
   26.9159   24.9849    0.0000 H   0  0  0  0  0  0  0  0  0  0  0  0
   26.8685   24.1093    0.0000 H   0  0  0  0  0  0  0  0  0  0  0  0
   11.9936   16.5309    0.0000 H   0  0  0  0  0  0  0  0  0  0  0  0
   11.4004   15.9986    0.0000 H   0  0  0  0  0  0  0  0  0  0  0  0
   24.7689   13.2046    0.0000 H   0  0  0  0  0  0  0  0  0  0  0  0
   24.9363   12.4253    0.0000 H   0  0  0  0  0  0  0  0  0  0  0  0
   29.2665   25.5555    0.0000 H   0  0  0  0  0  0  0  0  0  0  0  0
   28.6732   25.0232    0.0000 H   0  0  0  0  0  0  0  0  0  0  0  0
   12.8001   15.5282    0.0000 H   0  0  0  0  0  0  0  0  0  0  0  0
   26.0398   13.4065    0.0000 H   0  0  0  0  0  0  0  0  0  0  0  0
   29.8515   25.6035    0.0000 H   0  0  0  0  0  0  0  0  0  0  0  0
    3.7491   11.2582    0.0000 H   0  0  0  0  0  0  0  0  0  0  0  0
   25.2507    3.4300    0.0000 H   0  0  0  0  0  0  0  0  0  0  0  0
   20.4814   19.3548    0.0000 H   0  0  0  0  0  0  0  0  0  0  0  0
   13.4960   17.6573    0.0000 H   0  0  0  0  0  0  0  0  0  0  0  0
   24.7629   14.0180    0.0000 H   0  0  0  0  0  0  0  0  0  0  0  0
   13.1342   15.0456    0.0000 H   0  0  0  0  0  0  0  0  0  0  0  0
   13.8918   14.7979    0.0000 H   0  0  0  0  0  0  0  0  0  0  0  0
   26.6246   13.4568    0.0000 H   0  0  0  0  0  0  0  0  0  0  0  0
   27.2158   13.9914    0.0000 H   0  0  0  0  0  0  0  0  0  0  0  0
   30.4070   24.0701    0.0000 H   0  0  0  0  0  0  0  0  0  0  0  0
   31.1646   23.8225    0.0000 H   0  0  0  0  0  0  0  0  0  0  0  0
    3.2172   12.5703    0.0000 H   0  0  0  0  0  0  0  0  0  0  0  0
   25.2507    1.1900    0.0000 H   0  0  0  0  0  0  0  0  0  0  0  0
   20.4900   21.5948    0.0000 H   0  0  0  0  0  0  0  0  0  0  0  0
   14.4097   16.6676    0.0000 H   0  0  0  0  0  0  0  0  0  0  0  0
   14.8885   17.4021    0.0000 H   0  0  0  0  0  0  0  0  0  0  0  0
   14.1540   17.8809    0.0000 H   0  0  0  0  0  0  0  0  0  0  0  0
   13.0970   18.2264    0.0000 H   0  0  0  0  0  0  0  0  0  0  0  0
   12.2215   18.2738    0.0000 H   0  0  0  0  0  0  0  0  0  0  0  0
   12.1741   17.3983    0.0000 H   0  0  0  0  0  0  0  0  0  0  0  0
   25.8503   15.3694    0.0000 H   0  0  0  0  0  0  0  0  0  0  0  0
   25.4506   16.1498    0.0000 H   0  0  0  0  0  0  0  0  0  0  0  0
   24.6702   15.7501    0.0000 H   0  0  0  0  0  0  0  0  0  0  0  0
   23.8454   15.0043    0.0000 H   0  0  0  0  0  0  0  0  0  0  0  0
   23.3694   14.2679    0.0000 H   0  0  0  0  0  0  0  0  0  0  0  0
   24.1058   13.7919    0.0000 H   0  0  0  0  0  0  0  0  0  0  0  0
   14.7669   14.9727    0.0000 H   0  0  0  0  0  0  0  0  0  0  0  0
   15.2457   15.7073    0.0000 H   0  0  0  0  0  0  0  0  0  0  0  0
   14.5112   16.1861    0.0000 H   0  0  0  0  0  0  0  0  0  0  0  0
   27.4987   14.8377    0.0000 H   0  0  0  0  0  0  0  0  0  0  0  0
   27.0990   15.6181    0.0000 H   0  0  0  0  0  0  0  0  0  0  0  0
   26.3186   15.2184    0.0000 H   0  0  0  0  0  0  0  0  0  0  0  0
    1.8150   12.7657    0.0000 H   0  0  0  0  0  0  0  0  0  0  0  0
   23.8477    1.0000    0.0000 H   0  0  0  0  0  0  0  0  0  0  0  0
   20.1617   21.7861    0.0000 H   0  0  0  0  0  0  0  0  0  0  0  0
    1.4766   10.3370    0.0000 H   0  0  0  0  0  0  0  0  0  0  0  0
   23.5186    3.4300    0.0000 H   0  0  0  0  0  0  0  0  0  0  0  0
   32.0397   23.9973    0.0000 H   0  0  0  0  0  0  0  0  0  0  0  0
   32.5186   24.7318    0.0000 H   0  0  0  0  0  0  0  0  0  0  0  0
   31.7840   25.2106    0.0000 H   0  0  0  0  0  0  0  0  0  0  0  0
   18.7494   19.3615    0.0000 H   0  0  0  0  0  0  0  0  0  0  0  0
    0.9447   11.6490    0.0000 H   0  0  0  0  0  0  0  0  0  0  0  0
   22.9817    2.1200    0.0000 H   0  0  0  0  0  0  0  0  0  0  0  0
   18.7580   21.6015    0.0000 H   0  0  0  0  0  0  0  0  0  0  0  0
   31.6826   25.6921    0.0000 H   0  0  0  0  0  0  0  0  0  0  0  0
   32.1614   26.4266    0.0000 H   0  0  0  0  0  0  0  0  0  0  0  0
   31.4268   26.9055    0.0000 H   0  0  0  0  0  0  0  0  0  0  0  0
   30.1010   27.4262    0.0000 H   0  0  0  0  0  0  0  0  0  0  0  0
   29.3017   26.7090    0.0000 H   0  0  0  0  0  0  0  0  0  0  0  0
    4.0852   13.0669    0.0000 H   0  0  0  0  0  0  0  0  0  0  0  0
   26.1167    0.6900    0.0000 H   0  0  0  0  0  0  0  0  0  0  0  0
   21.3580   22.0915    0.0000 H   0  0  0  0  0  0  0  0  0  0  0  0
    0.4012   11.0437    0.0000 H   0  0  0  0  0  0  0  0  0  0  0  0
    0.0000   10.3550    0.0000 H   0  0  0  0  0  0  0  0  0  0  0  0
   23.0511    3.7850    0.0000 H   0  0  0  0  0  0  0  0  0  0  0  0
   22.2541    3.7850    0.0000 H   0  0  0  0  0  0  0  0  0  0  0  0
   17.6740   20.0683    0.0000 H   0  0  0  0  0  0  0  0  0  0  0  0
   17.2728   19.3795    0.0000 H   0  0  0  0  0  0  0  0  0  0  0  0
    1.8189   13.7657    0.0000 H   0  0  0  0  0  0  0  0  0  0  0  0
   23.8477    0.0000    0.0000 H   0  0  0  0  0  0  0  0  0  0  0  0
   19.0917   22.7902    0.0000 H   0  0  0  0  0  0  0  0  0  0  0  0
    0.0806   12.1524    0.0000 H   0  0  0  0  0  0  0  0  0  0  0  0
   22.6526    0.6900    0.0000 H   0  0  0  0  0  0  0  0  0  0  0  0
   17.3534   21.1769    0.0000 H   0  0  0  0  0  0  0  0  0  0  0  0
    0.0690    9.1524    0.0000 H   0  0  0  0  0  0  0  0  0  0  0  0
   21.2496    3.1200    0.0000 H   0  0  0  0  0  0  0  0  0  0  0  0
   17.3418   18.1769    0.0000 H   0  0  0  0  0  0  0  0  0  0  0  0
 79  1  1  1  0  0  0
  1 91  1  0  0  0  0
 80  2  1  1  0  0  0
  2 92  1  0  0  0  0
 81  3  1  1  0  0  0
  3 93  1  0  0  0  0
  4 91  1  0  0  0  0
  4112  1  0  0  0  0
  5 92  1  0  0  0  0
  5113  1  0  0  0  0
  6 93  1  0  0  0  0
  6115  1  0  0  0  0
100  7  1  1  0  0  0
  7284  1  0  0  0  0
101  8  1  6  0  0  0
  8285  1  0  0  0  0
102  9  1  1  0  0  0
  9286  1  0  0  0  0
109 10  1  6  0  0  0
 10293  1  0  0  0  0
110 11  1  1  0  0  0
 11294  1  0  0  0  0
111 12  1  6  0  0  0
 12295  1  0  0  0  0
116 13  1  1  0  0  0
 13296  1  0  0  0  0
117 14  1  6  0  0  0
 14297  1  0  0  0  0
118 15  1  1  0  0  0
 15298  1  0  0  0  0
 16121  1  0  0  0  0
 16299  1  0  0  0  0
 17122  1  0  0  0  0
 17300  1  0  0  0  0
 18123  1  0  0  0  0
 18301  1  0  0  0  0
 19 22  1  0  0  0  0
 19 31  1  0  0  0  0
 19 34  1  0  0  0  0
 19 54  1  1  0  0  0
 20 23  1  0  0  0  0
 20 32  1  0  0  0  0
 20 35  1  0  0  0  0
 20 55  1  1  0  0  0
 21 24  1  0  0  0  0
 21 33  1  0  0  0  0
 21 36  1  0  0  0  0
 21 57  1  1  0  0  0
 22 25  1  0  0  0  0
 22 39  1  0  0  0  0
 22124  1  6  0  0  0
 23 26  1  0  0  0  0
 23 40  1  0  0  0  0
 23125  1  6  0  0  0
 24 27  1  0  0  0  0
 24 42  1  0  0  0  0
 24126  1  6  0  0  0
 25 28  1  0  0  0  0
 25 49  1  0  0  0  0
 25127  1  1  0  0  0
 26 29  1  0  0  0  0
 26 50  1  0  0  0  0
 26128  1  1  0  0  0
 27 30  1  0  0  0  0
 27 51  1  0  0  0  0
 27129  1  1  0  0  0
 28 37  1  0  0  0  0
 28 43  1  0  0  0  0
 28130  1  6  0  0  0
 29 38  1  0  0  0  0
 29 44  1  0  0  0  0
 29131  1  6  0  0  0
 30 41  1  0  0  0  0
 30 45  1  0  0  0  0
 30132  1  6  0  0  0
 31 46  1  0  0  0  0
 31 52  1  0  0  0  0
 31133  1  6  0  0  0
 32 47  1  0  0  0  0
 32 53  1  0  0  0  0
 32134  1  6  0  0  0
 33 48  1  0  0  0  0
 33 56  1  0  0  0  0
 33135  1  6  0  0  0
 34 43  1  0  0  0  0
 34136  1  0  0  0  0
 34137  1  0  0  0  0
 35 44  1  0  0  0  0
 35138  1  0  0  0  0
 35139  1  0  0  0  0
 36 45  1  0  0  0  0
 36140  1  0  0  0  0
 36141  1  0  0  0  0
 37 58  1  0  0  0  0
 37 61  1  0  0  0  0
 37 67  1  1  0  0  0
 38 59  1  0  0  0  0
 38 62  1  0  0  0  0
 38 68  1  1  0  0  0
 39 46  1  0  0  0  0
 39142  1  0  0  0  0
 39143  1  0  0  0  0
 40 47  1  0  0  0  0
 40144  1  0  0  0  0
 40145  1  0  0  0  0
 41 60  1  0  0  0  0
 41 63  1  0  0  0  0
 41 69  1  1  0  0  0
 42 48  1  0  0  0  0
 42146  1  0  0  0  0
 42147  1  0  0  0  0
 43148  1  0  0  0  0
 43149  1  0  0  0  0
 44150  1  0  0  0  0
 44151  1  0  0  0  0
 45152  1  0  0  0  0
 45153  1  0  0  0  0
 46154  1  0  0  0  0
 46155  1  0  0  0  0
 47156  1  0  0  0  0
 47157  1  0  0  0  0
 48158  1  0  0  0  0
 48159  1  0  0  0  0
 49 64  1  0  0  0  0
 49160  1  0  0  0  0
 49161  1  0  0  0  0
 50 65  1  0  0  0  0
 50162  1  0  0  0  0
 50163  1  0  0  0  0
 51 66  1  0  0  0  0
 51164  1  0  0  0  0
 51165  1  0  0  0  0
 52 76  1  0  0  0  0
 52 82  1  6  0  0  0
 52166  1  0  0  0  0
 53 77  1  0  0  0  0
 53 83  1  6  0  0  0
 53167  1  0  0  0  0
 54168  1  0  0  0  0
 54169  1  0  0  0  0
 54170  1  0  0  0  0
 55171  1  0  0  0  0
 55172  1  0  0  0  0
 55173  1  0  0  0  0
 56 78  1  0  0  0  0
 56 84  1  6  0  0  0
 56174  1  0  0  0  0
 57175  1  0  0  0  0
 57176  1  0  0  0  0
 57177  1  0  0  0  0
 58 64  2  0  0  0  0
 58 70  1  0  0  0  0
 59 65  2  0  0  0  0
 59 71  1  0  0  0  0
 60 66  2  0  0  0  0
 60 72  1  0  0  0  0
 61 73  1  0  0  0  0
 61178  1  0  0  0  0
 61179  1  0  0  0  0
 62 74  1  0  0  0  0
 62180  1  0  0  0  0
 62181  1  0  0  0  0
 63 75  1  0  0  0  0
 63182  1  0  0  0  0
 63183  1  0  0  0  0
 64184  1  0  0  0  0
 65185  1  0  0  0  0
 66186  1  0  0  0  0
 67187  1  0  0  0  0
 67188  1  0  0  0  0
 67189  1  0  0  0  0
 68190  1  0  0  0  0
 68191  1  0  0  0  0
 68192  1  0  0  0  0
 69193  1  0  0  0  0
 69194  1  0  0  0  0
 69195  1  0  0  0  0
 70 79  1  0  0  0  0
 70196  1  0  0  0  0
 70197  1  0  0  0  0
 71 80  1  0  0  0  0
 71198  1  0  0  0  0
 71199  1  0  0  0  0
 72 81  1  0  0  0  0
 72200  1  0  0  0  0
 72201  1  0  0  0  0
 73 79  1  0  0  0  0
 73202  1  0  0  0  0
 73203  1  0  0  0  0
 74 80  1  0  0  0  0
 74204  1  0  0  0  0
 74205  1  0  0  0  0
 75 81  1  0  0  0  0
 75206  1  0  0  0  0
 75207  1  0  0  0  0
 76 85  1  0  0  0  0
 76208  1  0  0  0  0
 76209  1  0  0  0  0
 77 86  1  0  0  0  0
 77210  1  0  0  0  0
 77211  1  0  0  0  0
 78 87  1  0  0  0  0
 78212  1  0  0  0  0
 78213  1  0  0  0  0
 79214  1  0  0  0  0
 80215  1  0  0  0  0
 81216  1  0  0  0  0
 82217  1  0  0  0  0
 82218  1  0  0  0  0
 82219  1  0  0  0  0
 83220  1  0  0  0  0
 83221  1  0  0  0  0
 83222  1  0  0  0  0
 84223  1  0  0  0  0
 84224  1  0  0  0  0
 84225  1  0  0  0  0
 88 85  1  6  0  0  0
 85226  1  0  0  0  0
 85227  1  0  0  0  0
 89 86  1  6  0  0  0
 86228  1  0  0  0  0
 86229  1  0  0  0  0
 90 87  1  6  0  0  0
 87230  1  0  0  0  0
 87231  1  0  0  0  0
 88 94  1  0  0  0  0
 88 96  1  0  0  0  0
 88232  1  0  0  0  0
 89 95  1  0  0  0  0
 89 97  1  0  0  0  0
 89233  1  0  0  0  0
 90 98  1  0  0  0  0
 90 99  1  0  0  0  0
 90234  1  0  0  0  0
 91100  1  0  0  0  0
 91235  1  0  0  0  0
 92101  1  0  0  0  0
 92236  1  0  0  0  0
 93102  1  0  0  0  0
 93237  1  0  0  0  0
 94103  1  0  0  0  0
 94104  1  0  0  0  0
 94238  1  0  0  0  0
 95105  1  0  0  0  0
 95106  1  0  0  0  0
 95239  1  0  0  0  0
 96107  1  0  0  0  0
 96240  1  0  0  0  0
 96241  1  0  0  0  0
 97108  1  0  0  0  0
 97242  1  0  0  0  0
 97243  1  0  0  0  0
 98114  1  0  0  0  0
 98244  1  0  0  0  0
 98245  1  0  0  0  0
 99119  1  0  0  0  0
 99120  2  0  0  0  0
100109  1  0  0  0  0
100246  1  0  0  0  0
101110  1  0  0  0  0
101247  1  0  0  0  0
102111  1  0  0  0  0
102248  1  0  0  0  0
103249  1  0  0  0  0
103250  1  0  0  0  0
103251  1  0  0  0  0
104252  1  0  0  0  0
104253  1  0  0  0  0
104254  1  0  0  0  0
105255  1  0  0  0  0
105256  1  0  0  0  0
105257  1  0  0  0  0
106258  1  0  0  0  0
106259  1  0  0  0  0
106260  1  0  0  0  0
107261  1  0  0  0  0
107262  1  0  0  0  0
107263  1  0  0  0  0
108264  1  0  0  0  0
108265  1  0  0  0  0
108266  1  0  0  0  0
109116  1  0  0  0  0
109267  1  0  0  0  0
110117  1  0  0  0  0
110268  1  0  0  0  0
111118  1  0  0  0  0
111269  1  0  0  0  0
112116  1  0  0  0  0
112121  1  6  0  0  0
112270  1  0  0  0  0
113117  1  0  0  0  0
113122  1  1  0  0  0
113271  1  0  0  0  0
114272  1  0  0  0  0
114273  1  0  0  0  0
114274  1  0  0  0  0
115118  1  0  0  0  0
115123  1  6  0  0  0
115275  1  0  0  0  0
116276  1  0  0  0  0
117277  1  0  0  0  0
118278  1  0  0  0  0
119279  1  0  0  0  0
119280  1  0  0  0  0
119281  1  0  0  0  0
120282  1  0  0  0  0
120283  1  0  0  0  0
121287  1  0  0  0  0
121288  1  0  0  0  0
122289  1  0  0  0  0
122290  1  0  0  0  0
123291  1  0  0  0  0
123292  1  0  0  0  0
M  END
> <PUBCHEM_COMPOUND_CID>
145925703

> <PUBCHEM_COMPOUND_CANONICALIZED>
1

> <PUBCHEM_CACTVS_COMPLEXITY>
1880

> <PUBCHEM_CACTVS_HBOND_ACCEPTOR>
18

> <PUBCHEM_CACTVS_HBOND_DONOR>
12

> <PUBCHEM_CACTVS_ROTATABLE_BOND>
27

> <PUBCHEM_CACTVS_SUBSKEYS>
AAADcfB8PgAAAAAAAAAAAAAAAAAAAYMGAAA0aNGDAAAAAGCAAAAAGgAACAAADxSwgAMCCAAABgCAAiBCAAAAAAAgAAAACAAAAAgREAIAAQAiQAAFwAAPAAPA4PwPgAAAAAAAAADAAAQAACAAAQAACAAAAA==

> <PUBCHEM_IUPAC_OPENEYE_NAME>
(3R,4S,5S,6R)-2-[[(3S,8S,9S,10R,13R,14S,17R)-17-[(1R,4R)-4-ethyl-1,5-dimethyl-hex-5-enyl]-10,13-dimethyl-2,3,4,7,8,9,11,12,14,15,16,17-dodecahydro-1H-cyclopenta[a]phenanthren-3-yl]oxy]-6-(hydroxymethyl)tetrahydropyran-3,4,5-triol;(3R,4S,5S,6R)-2-[[(3S,8S,9S,10R,13R,14S,17R)-17-[(1R,4R)-4-ethyl-1,5-dimethyl-hexyl]-10,13-dimethyl-2,3,4,7,8,9,11,12,14,15,16,17-dodecahydro-1H-cyclopenta[a]phenanthren-3-yl]oxy]-6-(hydroxymethyl)tetrahydropyran-3,4,5-triol

> <PUBCHEM_IUPAC_CAS_NAME>
(3R,4S,5S,6R)-2-[[(3S,8S,9S,10R,13R,14S,17R)-17-[(2R,5R)-5-ethyl-6-methylheptan-2-yl]-10,13-dimethyl-2,3,4,7,8,9,11,12,14,15,16,17-dodecahydro-1H-cyclopenta[a]phenanthren-3-yl]oxy]-6-(hydroxymethyl)oxane-3,4,5-triol;(3R,4S,5S,6R)-2-[[(3S,8S,9S,10R,13R,14S,17R)-17-[(2R,5R)-5-ethyl-6-methylhept-6-en-2-yl]-10,13-dimethyl-2,3,4,7,8,9,11,12,14,15,16,17-dodecahydro-1H-cyclopenta[a]phenanthren-3-yl]oxy]-6-(hydroxymethyl)oxane-3,4,5-triol

> <PUBCHEM_IUPAC_NAME_MARKUP>
(3<I>R</I>,4<I>S</I>,5<I>S</I>,6<I>R</I>)-2-[[(3<I>S</I>,8<I>S</I>,9<I>S</I>,10<I>R</I>,13<I>R</I>,14<I>S</I>,17<I>R</I>)-17-[(2<I>R</I>,5<I>R</I>)-5-ethyl-6-methylheptan-2-yl]-10,13-dimethyl-2,3,4,7,8,9,11,12,14,15,16,17-dodecahydro-1<I>H</I>-cyclopenta[a]phenanthren-3-yl]oxy]-6-(hydroxymethyl)oxane-3,4,5-triol;(3<I>R</I>,4<I>S</I>,5<I>S</I>,6<I>R</I>)-2-[[(3<I>S</I>,8<I>S</I>,9<I>S</I>,10<I>R</I>,13<I>R</I>,14<I>S</I>,17<I>R</I>)-17-[(2<I>R</I>,5<I>R</I>)-5-ethyl-6-methylhept-6-en-2-yl]-10,13-dimethyl-2,3,4,7,8,9,11,12,14,15,16,17-dodecahydro-1<I>H</I>-cyclopenta[a]phenanthren-3-yl]oxy]-6-(hydroxymethyl)oxane-3,4,5-triol

> <PUBCHEM_IUPAC_NAME>
(3R,4S,5S,6R)-2-[[(3S,8S,9S,10R,13R,14S,17R)-17-[(2R,5R)-5-ethyl-6-methylheptan-2-yl]-10,13-dimethyl-2,3,4,7,8,9,11,12,14,15,16,17-dodecahydro-1H-cyclopenta[a]phenanthren-3-yl]oxy]-6-(hydroxymethyl)oxane-3,4,5-triol;(3R,4S,5S,6R)-2-[[(3S,8S,9S,10R,13R,14S,17R)-17-[(2R,5R)-5-ethyl-6-methylhept-6-en-2-yl]-10,13-dimethyl-2,3,4,7,8,9,11,12,14,15,16,17-dodecahydro-1H-cyclopenta[a]phenanthren-3-yl]oxy]-6-(hydroxymethyl)oxane-3,4,5-triol

> <PUBCHEM_IUPAC_SYSTEMATIC_NAME>
(3R,4S,5S,6R)-2-[[(3S,8S,9S,10R,13R,14S,17R)-17-[(2R,5R)-5-ethyl-6-methyl-heptan-2-yl]-10,13-dimethyl-2,3,4,7,8,9,11,12,14,15,16,17-dodecahydro-1H-cyclopenta[a]phenanthren-3-yl]oxy]-6-(hydroxymethyl)oxane-3,4,5-triol;(3R,4S,5S,6R)-2-[[(3S,8S,9S,10R,13R,14S,17R)-17-[(2R,5R)-5-ethyl-6-methyl-hept-6-en-2-yl]-10,13-dimethyl-2,3,4,7,8,9,11,12,14,15,16,17-dodecahydro-1H-cyclopenta[a]phenanthren-3-yl]oxy]-6-(hydroxymethyl)oxane-3,4,5-triol

> <PUBCHEM_IUPAC_TRADITIONAL_NAME>
(3R,4S,5S,6R)-2-[[(3S,8S,9S,10R,13R,14S,17R)-17-[(1R,4R)-4-ethyl-1,5-dimethyl-hex-5-enyl]-10,13-dimethyl-2,3,4,7,8,9,11,12,14,15,16,17-dodecahydro-1H-cyclopenta[a]phenanthren-3-yl]oxy]-6-methylol-tetrahydropyran-3,4,5-triol;(3R,4S,5S,6R)-2-[[(3S,8S,9S,10R,13R,14S,17R)-17-[(1R,4R)-4-ethyl-1,5-dimethyl-hexyl]-10,13-dimethyl-2,3,4,7,8,9,11,12,14,15,16,17-dodecahydro-1H-cyclopenta[a]phenanthren-3-yl]oxy]-6-methylol-tetrahydropyran-3,4,5-triol

> <PUBCHEM_IUPAC_INCHI>
InChI=1S/2C35H60O6.C35H58O6/c3*1-7-22(20(2)3)9-8-21(4)26-12-13-27-25-11-10-23-18-24(14-16-34(23,5)28(25)15-17-35(26,27)6)40-33-32(39)31(38)30(37)29(19-36)41-33/h2*10,20-22,24-33,36-39H,7-9,11-19H2,1-6H3;10,21-22,24-33,36-39H,2,7-9,11-19H2,1,3-6H3/t3*21-,22-,24+,25+,26-,27+,28+,29-,30-,31+,32-,33?,34+,35-/m111/s1

> <PUBCHEM_IUPAC_INCHIKEY>
OHVYCELRHUJPFH-CZVRGWHYSA-N

> <PUBCHEM_EXACT_MASS>
1728.304674

> <PUBCHEM_MOLECULAR_FORMULA>
C105H178O18

> <PUBCHEM_MOLECULAR_WEIGHT>
1728.5

> <PUBCHEM_OPENEYE_CAN_SMILES>
CCC(CCC(C)C1CCC2C1(CCC3C2CC=C4C3(CCC(C4)OC5C(C(C(C(O5)CO)O)O)O)C)C)C(C)C.CCC(CCC(C)C1CCC2C1(CCC3C2CC=C4C3(CCC(C4)OC5C(C(C(C(O5)CO)O)O)O)C)C)C(C)C.CCC(CCC(C)C1CCC2C1(CCC3C2CC=C4C3(CCC(C4)OC5C(C(C(C(O5)CO)O)O)O)C)C)C(=C)C

> <PUBCHEM_OPENEYE_ISO_SMILES>
CC[C@H](CC[C@@H](C)[C@H]1CC[C@@H]2[C@@]1(CC[C@H]3[C@H]2CC=C4[C@@]3(CC[C@@H](C4)OC5[C@@H]([C@H]([C@@H]([C@H](O5)CO)O)O)O)C)C)C(C)C.CC[C@H](CC[C@@H](C)[C@H]1CC[C@@H]2[C@@]1(CC[C@H]3[C@H]2CC=C4[C@@]3(CC[C@@H](C4)OC5[C@@H]([C@H]([C@@H]([C@H](O5)CO)O)O)O)C)C)C(C)C.CC[C@H](CC[C@@H](C)[C@H]1CC[C@@H]2[C@@]1(CC[C@H]3[C@H]2CC=C4[C@@]3(CC[C@@H](C4)OC5[C@@H]([C@H]([C@@H]([C@H](O5)CO)O)O)O)C)C)C(=C)C

> <PUBCHEM_CACTVS_TPSA>
298

> <PUBCHEM_MONOISOTOPIC_WEIGHT>
1727.301319

> <PUBCHEM_TOTAL_CHARGE>
0

> <PUBCHEM_HEAVY_ATOM_COUNT>
123

> <PUBCHEM_ATOM_DEF_STEREO_COUNT>
39

> <PUBCHEM_ATOM_UDEF_STEREO_COUNT>
3

> <PUBCHEM_BOND_DEF_STEREO_COUNT>
0

> <PUBCHEM_BOND_UDEF_STEREO_COUNT>
0

> <PUBCHEM_ISOTOPIC_ATOM_COUNT>
0

> <PUBCHEM_COMPONENT_COUNT>
3

> <PUBCHEM_CACTVS_TAUTO_COUNT>
-1

> <PUBCHEM_COORDINATE_TYPE>
1
5
255

> <PUBCHEM_BONDANNOTATIONS>
79  1  5
91  1  3
109  10  6
110  11  5
112  121  6
113  122  5
115  123  6
111  12  6
116  13  5
117  14  6
118  15  5
19  54  5
80  2  5
92  2  3
20  55  5
21  57  5
22  124  6
23  125  6
24  126  6
25  127  5
26  128  5
27  129  5
28  130  6
29  131  6
81  3  5
93  3  3
30  132  6
31  133  6
32  134  6
33  135  6
37  67  5
38  68  5
41  69  5
52  82  6
53  83  6
56  84  6
100  7  5
101  8  6
88  85  6
89  86  6
90  87  6
102  9  5

$$$$
