14526924
  -OEChem-11202013532D

 78 83  0     1  0  0  0  0  0999 V2000
    7.5330    1.2367    0.0000 O   0  0  0  0  0  0  0  0  0  0  0  0
    2.1233   -2.5993    0.0000 O   0  0  0  0  0  0  0  0  0  0  0  0
    6.7804    1.1331    0.0000 C   0  0  3  0  0  0  0  0  0  0  0  0
    7.6464    0.6331    0.0000 C   0  0  3  0  0  0  0  0  0  0  0  0
    5.8704    0.6262    0.0000 C   0  0  3  0  0  0  0  0  0  0  0  0
    8.5124    1.1331    0.0000 C   0  0  3  0  0  0  0  0  0  0  0  0
    8.5124    2.1331    0.0000 C   0  0  3  0  0  0  0  0  0  0  0  0
    5.8623   -0.4154    0.0000 C   0  0  3  0  0  0  0  0  0  0  0  0
    6.7804    2.1331    0.0000 C   0  0  0  0  0  0  0  0  0  0  0  0
    4.9269   -0.9651    0.0000 C   0  0  3  0  0  0  0  0  0  0  0  0
    7.6464    2.6331    0.0000 C   0  0  0  0  0  0  0  0  0  0  0  0
    9.4064    0.5984    0.0000 C   0  0  3  0  0  0  0  0  0  0  0  0
    4.9435    1.1903    0.0000 C   0  0  0  0  0  0  0  0  0  0  0  0
    7.9330    1.9295    0.0000 C   0  0  0  0  0  0  0  0  0  0  0  0
    3.9873   -0.4226    0.0000 C   0  0  3  0  0  0  0  0  0  0  0  0
    9.4064    2.6677    0.0000 C   0  0  0  0  0  0  0  0  0  0  0  0
    7.6624   -0.4084    0.0000 C   0  0  0  0  0  0  0  0  0  0  0  0
    6.1376    1.8991    0.0000 C   0  0  0  0  0  0  0  0  0  0  0  0
    3.9956    0.6624    0.0000 C   0  0  0  0  0  0  0  0  0  0  0  0
    6.7644   -0.9362    0.0000 C   0  0  0  0  0  0  0  0  0  0  0  0
   10.3124    1.1123    0.0000 C   0  0  3  0  0  0  0  0  0  0  0  0
    5.5356    1.5685    0.0000 C   0  0  0  0  0  0  0  0  0  0  0  0
   10.3124    2.1539    0.0000 C   0  0  0  0  0  0  0  0  0  0  0  0
    4.9443   -2.0951    0.0000 C   0  0  0  0  0  0  0  0  0  0  0  0
    2.9999   -0.9725    0.0000 C   0  0  0  0  0  0  0  0  0  0  0  0
    5.7929   -1.4651    0.0000 C   0  0  0  0  0  0  0  0  0  0  0  0
    9.3948   -0.4015    0.0000 C   0  0  0  0  0  0  0  0  0  0  0  0
    3.9700   -2.6677    0.0000 C   0  0  0  0  0  0  0  0  0  0  0  0
    2.9912   -2.1026    0.0000 C   0  0  0  0  0  0  0  0  0  0  0  0
   11.1765    0.6089    0.0000 C   0  0  0  0  0  0  0  0  0  0  0  0
    2.0000   -0.9610    0.0000 C   0  0  0  0  0  0  0  0  0  0  0  0
    2.5100   -0.1008    0.0000 C   0  0  0  0  0  0  0  0  0  0  0  0
    8.5076    0.5131    0.0000 H   0  0  0  0  0  0  0  0  0  0  0  0
    5.8647   -1.0354    0.0000 H   0  0  0  0  0  0  0  0  0  0  0  0
    6.5683    2.7157    0.0000 H   0  0  0  0  0  0  0  0  0  0  0  0
    6.1698    2.0254    0.0000 H   0  0  0  0  0  0  0  0  0  0  0  0
    8.0449    3.1080    0.0000 H   0  0  0  0  0  0  0  0  0  0  0  0
    7.2479    3.1080    0.0000 H   0  0  0  0  0  0  0  0  0  0  0  0
    9.9403    0.2833    0.0000 H   0  0  0  0  0  0  0  0  0  0  0  0
    5.3517    1.6570    0.0000 H   0  0  0  0  0  0  0  0  0  0  0  0
    4.5536    1.6724    0.0000 H   0  0  0  0  0  0  0  0  0  0  0  0
    7.9016    2.5487    0.0000 H   0  0  0  0  0  0  0  0  0  0  0  0
    7.3302    2.0747    0.0000 H   0  0  0  0  0  0  0  0  0  0  0  0
    3.4540   -0.1064    0.0000 H   0  0  0  0  0  0  0  0  0  0  0  0
    9.8000    3.1468    0.0000 H   0  0  0  0  0  0  0  0  0  0  0  0
    9.0018    3.1375    0.0000 H   0  0  0  0  0  0  0  0  0  0  0  0
    8.2029   -0.7122    0.0000 H   0  0  0  0  0  0  0  0  0  0  0  0
    6.6125    2.2976    0.0000 H   0  0  0  0  0  0  0  0  0  0  0  0
    5.7390    2.3741    0.0000 H   0  0  0  0  0  0  0  0  0  0  0  0
    5.6626    1.5006    0.0000 H   0  0  0  0  0  0  0  0  0  0  0  0
    3.7911    1.2476    0.0000 H   0  0  0  0  0  0  0  0  0  0  0  0
    3.3840    0.5610    0.0000 H   0  0  0  0  0  0  0  0  0  0  0  0
    6.7668   -1.5562    0.0000 H   0  0  0  0  0  0  0  0  0  0  0  0
   10.3088    0.4923    0.0000 H   0  0  0  0  0  0  0  0  0  0  0  0
    6.1198    1.7761    0.0000 H   0  0  0  0  0  0  0  0  0  0  0  0
    5.3280    2.1528    0.0000 H   0  0  0  0  0  0  0  0  0  0  0  0
    4.9514    1.3610    0.0000 H   0  0  0  0  0  0  0  0  0  0  0  0
   10.9233    2.0478    0.0000 H   0  0  0  0  0  0  0  0  0  0  0  0
   10.5215    2.7376    0.0000 H   0  0  0  0  0  0  0  0  0  0  0  0
    5.1624   -2.6755    0.0000 H   0  0  0  0  0  0  0  0  0  0  0  0
    5.5535   -1.9796    0.0000 H   0  0  0  0  0  0  0  0  0  0  0  0
    5.4829   -2.0020    0.0000 H   0  0  0  0  0  0  0  0  0  0  0  0
    6.3299   -1.7751    0.0000 H   0  0  0  0  0  0  0  0  0  0  0  0
    6.1029   -0.9282    0.0000 H   0  0  0  0  0  0  0  0  0  0  0  0
    8.7748   -0.3944    0.0000 H   0  0  0  0  0  0  0  0  0  0  0  0
    9.3876   -1.0215    0.0000 H   0  0  0  0  0  0  0  0  0  0  0  0
   10.0148   -0.4087    0.0000 H   0  0  0  0  0  0  0  0  0  0  0  0
    3.5727   -3.1437    0.0000 H   0  0  0  0  0  0  0  0  0  0  0  0
    4.3709   -3.1406    0.0000 H   0  0  0  0  0  0  0  0  0  0  0  0
   10.8645    0.0732    0.0000 H   0  0  0  0  0  0  0  0  0  0  0  0
   11.7123    0.2969    0.0000 H   0  0  0  0  0  0  0  0  0  0  0  0
   11.4886    1.1447    0.0000 H   0  0  0  0  0  0  0  0  0  0  0  0
    2.0072   -0.3410    0.0000 H   0  0  0  0  0  0  0  0  0  0  0  0
    1.3800   -0.9538    0.0000 H   0  0  0  0  0  0  0  0  0  0  0  0
    1.9928   -1.5809    0.0000 H   0  0  0  0  0  0  0  0  0  0  0  0
    3.0505    0.2030    0.0000 H   0  0  0  0  0  0  0  0  0  0  0  0
    2.2062    0.4397    0.0000 H   0  0  0  0  0  0  0  0  0  0  0  0
    1.9695   -0.4045    0.0000 H   0  0  0  0  0  0  0  0  0  0  0  0
  1  4  1  0  0  0  0
  1 14  1  0  0  0  0
  2 29  2  0  0  0  0
  3  4  1  0  0  0  0
  3  5  1  0  0  0  0
  3  9  1  0  0  0  0
  3 18  1  0  0  0  0
  4  6  1  0  0  0  0
  4 17  1  0  0  0  0
  5  8  1  0  0  0  0
  5 13  1  0  0  0  0
  5 22  1  0  0  0  0
  6  7  1  0  0  0  0
  6 12  1  0  0  0  0
  6 33  1  0  0  0  0
  7 11  1  0  0  0  0
  7 14  1  0  0  0  0
  7 16  1  0  0  0  0
  8 10  1  0  0  0  0
  8 20  1  0  0  0  0
  8 34  1  0  0  0  0
  9 11  1  0  0  0  0
  9 35  1  0  0  0  0
  9 36  1  0  0  0  0
 10 15  1  0  0  0  0
 10 24  1  0  0  0  0
 10 26  1  0  0  0  0
 11 37  1  0  0  0  0
 11 38  1  0  0  0  0
 12 21  1  0  0  0  0
 12 27  1  0  0  0  0
 12 39  1  0  0  0  0
 13 19  1  0  0  0  0
 13 40  1  0  0  0  0
 13 41  1  0  0  0  0
 14 42  1  0  0  0  0
 14 43  1  0  0  0  0
 15 19  1  0  0  0  0
 15 25  1  0  0  0  0
 15 44  1  0  0  0  0
 16 23  1  0  0  0  0
 16 45  1  0  0  0  0
 16 46  1  0  0  0  0
 17 20  2  0  0  0  0
 17 47  1  0  0  0  0
 18 48  1  0  0  0  0
 18 49  1  0  0  0  0
 18 50  1  0  0  0  0
 19 51  1  0  0  0  0
 19 52  1  0  0  0  0
 20 53  1  0  0  0  0
 21 23  1  0  0  0  0
 21 30  1  0  0  0  0
 21 54  1  0  0  0  0
 22 55  1  0  0  0  0
 22 56  1  0  0  0  0
 22 57  1  0  0  0  0
 23 58  1  0  0  0  0
 23 59  1  0  0  0  0
 24 28  1  0  0  0  0
 24 60  1  0  0  0  0
 24 61  1  0  0  0  0
 25 29  1  0  0  0  0
 25 31  1  0  0  0  0
 25 32  1  0  0  0  0
 26 62  1  0  0  0  0
 26 63  1  0  0  0  0
 26 64  1  0  0  0  0
 27 65  1  0  0  0  0
 27 66  1  0  0  0  0
 27 67  1  0  0  0  0
 28 29  1  0  0  0  0
 28 68  1  0  0  0  0
 28 69  1  0  0  0  0
 30 70  1  0  0  0  0
 30 71  1  0  0  0  0
 30 72  1  0  0  0  0
 31 73  1  0  0  0  0
 31 74  1  0  0  0  0
 31 75  1  0  0  0  0
 32 76  1  0  0  0  0
 32 77  1  0  0  0  0
 32 78  1  0  0  0  0
M  END
> <PUBCHEM_COMPOUND_CID>
14526924

> <PUBCHEM_COMPOUND_CANONICALIZED>
1

> <PUBCHEM_CACTVS_COMPLEXITY>
887

> <PUBCHEM_CACTVS_HBOND_ACCEPTOR>
2

> <PUBCHEM_CACTVS_HBOND_DONOR>
0

> <PUBCHEM_CACTVS_ROTATABLE_BOND>
0

> <PUBCHEM_CACTVS_SUBSKEYS>
AAADcfB4MAAAAAAAAAAAAAAAAAAAASAAAAAwYMGCBIAAAEjAAAAAGgAAAAAAD0SggAICAAAABACIAKBSAAAAAAAgAAAICAEAAAgABBIAIQACEAAEgAAIIAOIyPCPgAAAAAAAAACAAAYAADAAAAAAAAAAAA==

> <PUBCHEM_IUPAC_OPENEYE_NAME>
4,5,9,9,13,19,20-heptamethyl-24-oxahexacyclo[15.5.2.01,18.04,17.05,14.08,13]tetracos-15-en-10-one

> <PUBCHEM_IUPAC_CAS_NAME>
4,5,9,9,13,19,20-heptamethyl-24-oxahexacyclo[15.5.2.01,18.04,17.05,14.08,13]tetracos-15-en-10-one

> <PUBCHEM_IUPAC_NAME_MARKUP>
4,5,9,9,13,19,20-heptamethyl-24-oxahexacyclo[15.5.2.0<SUP>1,18</SUP>.0<SUP>4,17</SUP>.0<SUP>5,14</SUP>.0<SUP>8,13</SUP>]tetracos-15-en-10-one

> <PUBCHEM_IUPAC_NAME>
4,5,9,9,13,19,20-heptamethyl-24-oxahexacyclo[15.5.2.01,18.04,17.05,14.08,13]tetracos-15-en-10-one

> <PUBCHEM_IUPAC_SYSTEMATIC_NAME>
4,5,9,9,13,19,20-heptamethyl-24-oxahexacyclo[15.5.2.01,18.04,17.05,14.08,13]tetracos-15-en-10-one

> <PUBCHEM_IUPAC_TRADITIONAL_NAME>
4,5,9,9,13,19,20-heptamethyl-24-oxahexacyclo[15.5.2.01,18.04,17.05,14.08,13]tetracos-15-en-10-one

> <PUBCHEM_IUPAC_INCHI>
InChI=1S/C30H46O2/c1-19-8-14-29-17-16-28(7)27(6)13-9-21-25(3,4)23(31)11-12-26(21,5)22(27)10-15-30(28,32-18-29)24(29)20(19)2/h10,15,19-22,24H,8-9,11-14,16-18H2,1-7H3

> <PUBCHEM_IUPAC_INCHIKEY>
PKMBOLUTQNQQBP-UHFFFAOYSA-N

> <PUBCHEM_XLOGP3_AA>
7.1

> <PUBCHEM_EXACT_MASS>
438.349781

> <PUBCHEM_MOLECULAR_FORMULA>
C30H46O2

> <PUBCHEM_MOLECULAR_WEIGHT>
438.7

> <PUBCHEM_OPENEYE_CAN_SMILES>
CC1CCC23CCC4(C5(CCC6C(C(=O)CCC6(C5C=CC4(C2C1C)OC3)C)(C)C)C)C

> <PUBCHEM_OPENEYE_ISO_SMILES>
CC1CCC23CCC4(C5(CCC6C(C(=O)CCC6(C5C=CC4(C2C1C)OC3)C)(C)C)C)C

> <PUBCHEM_CACTVS_TPSA>
26.3

> <PUBCHEM_MONOISOTOPIC_WEIGHT>
438.349781

> <PUBCHEM_TOTAL_CHARGE>
0

> <PUBCHEM_HEAVY_ATOM_COUNT>
32

> <PUBCHEM_ATOM_DEF_STEREO_COUNT>
0

> <PUBCHEM_ATOM_UDEF_STEREO_COUNT>
10

> <PUBCHEM_BOND_DEF_STEREO_COUNT>
0

> <PUBCHEM_BOND_UDEF_STEREO_COUNT>
0

> <PUBCHEM_ISOTOPIC_ATOM_COUNT>
0

> <PUBCHEM_COMPONENT_COUNT>
1

> <PUBCHEM_CACTVS_TAUTO_COUNT>
-1

> <PUBCHEM_COORDINATE_TYPE>
1
5
255

> <PUBCHEM_BONDANNOTATIONS>
10  26  3
12  27  3
15  19  3
21  30  3
3  18  3
4  17  3
5  22  3
6  12  3
7  16  3
8  20  3

$$$$
