11106485
  -OEChem-08262006523D

 39 41  0     1  0  0  0  0  0999 V2000
   -0.7880    0.5014   -0.1483 C   0  0  1  0  0  0  0  0  0  0  0  0
   -0.4490   -0.8320    0.5998 C   0  0  2  0  0  0  0  0  0  0  0  0
    0.8989   -1.3415    0.0001 C   0  0  0  0  0  0  0  0  0  0  0  0
    1.4002   -0.1086   -0.8255 C   0  0  1  0  0  0  0  0  0  0  0  0
    0.0910    0.4397   -1.4090 C   0  0  0  0  0  0  0  0  0  0  0  0
   -2.3033    0.4361   -0.4582 C   0  0  1  0  0  0  0  0  0  0  0  0
   -1.7084   -1.6890    0.4617 C   0  0  0  0  0  0  0  0  0  0  0  0
   -0.3199    1.7229    0.6787 C   0  0  0  0  0  0  0  0  0  0  0  0
   -2.8261   -0.6535    0.4844 C   0  0  0  0  0  0  0  0  0  0  0  0
    2.0284    1.0171   -0.0130 C   0  0  0  0  0  0  0  0  0  0  0  0
    1.1708    1.6625    1.0528 C   0  0  0  0  0  0  0  0  0  0  0  0
    0.7418   -2.5581   -0.9400 C   0  0  0  0  0  0  0  0  0  0  0  0
    1.8772   -1.7770    1.1055 C   0  0  0  0  0  0  0  0  0  0  0  0
   -3.0891    1.7329   -0.3302 C   0  0  0  0  0  0  0  0  0  0  0  0
    3.2755    1.4470   -0.2588 C   0  0  0  0  0  0  0  0  0  0  0  0
   -0.3275   -0.6228    1.6719 H   0  0  0  0  0  0  0  0  0  0  0  0
    2.0748   -0.4214   -1.6316 H   0  0  0  0  0  0  0  0  0  0  0  0
    0.2089    1.4180   -1.8903 H   0  0  0  0  0  0  0  0  0  0  0  0
   -0.3183   -0.2399   -2.1641 H   0  0  0  0  0  0  0  0  0  0  0  0
   -2.4438    0.0754   -1.4866 H   0  0  0  0  0  0  0  0  0  0  0  0
   -1.8013   -2.4142    1.2756 H   0  0  0  0  0  0  0  0  0  0  0  0
   -1.7540   -2.2336   -0.4856 H   0  0  0  0  0  0  0  0  0  0  0  0
   -0.9071    1.8134    1.6007 H   0  0  0  0  0  0  0  0  0  0  0  0
   -0.4936    2.6415    0.1035 H   0  0  0  0  0  0  0  0  0  0  0  0
   -3.7772   -1.0728    0.1421 H   0  0  0  0  0  0  0  0  0  0  0  0
   -2.9672   -0.2650    1.5004 H   0  0  0  0  0  0  0  0  0  0  0  0
    1.2781    1.0944    1.9836 H   0  0  0  0  0  0  0  0  0  0  0  0
    1.5191    2.6779    1.2793 H   0  0  0  0  0  0  0  0  0  0  0  0
    0.0724   -2.3611   -1.7821 H   0  0  0  0  0  0  0  0  0  0  0  0
    1.7110   -2.8453   -1.3650 H   0  0  0  0  0  0  0  0  0  0  0  0
    0.3536   -3.4291   -0.3999 H   0  0  0  0  0  0  0  0  0  0  0  0
    1.5025   -2.6662    1.6257 H   0  0  0  0  0  0  0  0  0  0  0  0
    2.8589   -2.0233    0.6853 H   0  0  0  0  0  0  0  0  0  0  0  0
    2.0284   -1.0081    1.8671 H   0  0  0  0  0  0  0  0  0  0  0  0
   -3.0775    2.1217    0.6928 H   0  0  0  0  0  0  0  0  0  0  0  0
   -2.6852    2.5001   -0.9983 H   0  0  0  0  0  0  0  0  0  0  0  0
   -4.1370    1.5706   -0.6053 H   0  0  0  0  0  0  0  0  0  0  0  0
    3.8862    0.9954   -1.0332 H   0  0  0  0  0  0  0  0  0  0  0  0
    3.7142    2.2584    0.3123 H   0  0  0  0  0  0  0  0  0  0  0  0
  1  2  1  0  0  0  0
  1  5  1  0  0  0  0
  1  6  1  0  0  0  0
  1  8  1  0  0  0  0
  2  3  1  0  0  0  0
  2  7  1  0  0  0  0
  2 16  1  0  0  0  0
  3  4  1  0  0  0  0
  3 12  1  0  0  0  0
  3 13  1  0  0  0  0
  4  5  1  0  0  0  0
  4 10  1  0  0  0  0
  4 17  1  0  0  0  0
  5 18  1  0  0  0  0
  5 19  1  0  0  0  0
  6  9  1  0  0  0  0
  6 14  1  0  0  0  0
  6 20  1  0  0  0  0
  7  9  1  0  0  0  0
  7 21  1  0  0  0  0
  7 22  1  0  0  0  0
  8 11  1  0  0  0  0
  8 23  1  0  0  0  0
  8 24  1  0  0  0  0
  9 25  1  0  0  0  0
  9 26  1  0  0  0  0
 10 11  1  0  0  0  0
 10 15  2  0  0  0  0
 11 27  1  0  0  0  0
 11 28  1  0  0  0  0
 12 29  1  0  0  0  0
 12 30  1  0  0  0  0
 12 31  1  0  0  0  0
 13 32  1  0  0  0  0
 13 33  1  0  0  0  0
 13 34  1  0  0  0  0
 14 35  1  0  0  0  0
 14 36  1  0  0  0  0
 14 37  1  0  0  0  0
 15 38  1  0  0  0  0
 15 39  1  0  0  0  0
M  END
> <PUBCHEM_COMPOUND_CID>
11106485

> <PUBCHEM_CONFORMER_RMSD>
0.6

> <PUBCHEM_CONFORMER_DIVERSEORDER>
1

> <PUBCHEM_MMFF94_PARTIAL_CHARGES>
6
10 -0.28
11 0.14
15 -0.3
38 0.15
39 0.15
4 0.14

> <PUBCHEM_EFFECTIVE_ROTOR_COUNT>
1.4

> <PUBCHEM_PHARMACOPHORE_FEATURES>
3
3 3 12 13 hydrophobe
5 1 2 6 7 9 rings
8 1 2 3 4 5 8 10 11 rings

> <PUBCHEM_HEAVY_ATOM_COUNT>
15

> <PUBCHEM_ATOM_DEF_STEREO_COUNT>
4

> <PUBCHEM_ATOM_UDEF_STEREO_COUNT>
0

> <PUBCHEM_BOND_DEF_STEREO_COUNT>
0

> <PUBCHEM_BOND_UDEF_STEREO_COUNT>
0

> <PUBCHEM_ISOTOPIC_ATOM_COUNT>
0

> <PUBCHEM_COMPONENT_COUNT>
1

> <PUBCHEM_CACTVS_TAUTO_COUNT>
1

> <PUBCHEM_CONFORMER_ID>
00A978B500000001

> <PUBCHEM_MMFF94_ENERGY>
63.762

> <PUBCHEM_FEATURE_SELFOVERLAP>
15.278

> <PUBCHEM_SHAPE_FINGERPRINT>
10863032 1 18333448733478667864
10948715 1 18335701671569742140
12138202 97 18261661662588560077
12326174 3 17775298135427735478
12423570 1 15078759857047194582
12524768 44 18337398119390572647
13024252 1 17826225487192113484
13140716 1 18190184486304695571
13380535 21 18337121089763003065
13380535 76 18408879629369947607
13380536 237 18261938700689915479
13464514 151 18269562641134158861
14181834 199 18189047599338980647
14761567 1 18123777286284125718
14817 1 17904477759731862518
15001771 113 17908718232155763079
15219456 202 18408608049792158589
15490181 7 18053366971234106576
15557651 10 18266737081081632524
15775835 57 18267028430014070507
15852999 172 17897698012210967647
16945 1 18042409208207804971
17990270 104 18267585714995597951
20511035 2 18334852814101511391
20645476 183 17678470881553410956
21501502 16 18336255778364608683
22344851 262 17676492760628315500
22344851 341 18187086122129413018
2334 1 18409167705822168507
23419403 2 17040294261893341512
23559900 14 18268147544748772294
241688 4 16971678014585479010
25 1 18340769252043061181
2748010 2 18411989086733969558
5084963 1 17699573846204937449
528886 8 16558764449994186349
5337951 7 18268144249790892405
53812653 166 18340209682218112129
7364860 26 18269558247477261838
81228 2 17116623896654887642

> <PUBCHEM_SHAPE_MULTIPOLES>
308.69
3.93
2.48
1.12
0.95
0.74
-0.07
-1.47
0.01
-0.49
0.15
-0.23
0.09
0.22

> <PUBCHEM_SHAPE_SELFOVERLAP>
657.358

> <PUBCHEM_SHAPE_VOLUME>
171.4

> <PUBCHEM_COORDINATE_TYPE>
2
5
10

$$$$
