91750097
  -OEChem-08262006193D

 42 44  0     1  0  0  0  0  0999 V2000
    2.0629    0.1547   -1.6884 O   0  0  0  0  0  0  0  0  0  0  0  0
   -1.0116   -0.2467    0.3511 C   0  0  2  0  0  0  0  0  0  0  0  0
   -0.3056    1.1359    0.4241 C   0  0  1  0  0  0  0  0  0  0  0  0
    0.9349   -1.4363   -0.2435 C   0  0  1  0  0  0  0  0  0  0  0  0
   -0.4508   -1.0937   -0.7980 C   0  0  0  0  0  0  0  0  0  0  0  0
    1.2583    1.1172    0.4050 C   0  0  0  0  0  0  0  0  0  0  0  0
   -2.4840    0.1703    0.2032 C   0  0  1  0  0  0  0  0  0  0  0  0
   -0.7001   -1.1272    1.5675 C   0  0  0  0  0  0  0  0  0  0  0  0
    1.8310   -0.1591   -0.3070 C   0  0  2  0  0  0  0  0  0  0  0  0
    0.5957   -1.8692    1.1999 C   0  0  0  0  0  0  0  0  0  0  0  0
   -1.0044    1.9076   -0.7090 C   0  0  0  0  0  0  0  0  0  0  0  0
   -2.4403    1.3728   -0.7528 C   0  0  0  0  0  0  0  0  0  0  0  0
    1.5655   -2.5998   -1.0194 C   0  0  0  0  0  0  0  0  0  0  0  0
    1.8271    2.4121   -0.2348 C   0  0  0  0  0  0  0  0  0  0  0  0
    1.7779    1.1642    1.8701 C   0  0  0  0  0  0  0  0  0  0  0  0
   -3.4563   -0.9028   -0.2680 C   0  0  0  0  0  0  0  0  0  0  0  0
   -0.6209    1.6282    1.3575 H   0  0  0  0  0  0  0  0  0  0  0  0
   -1.0397   -2.0109   -0.9315 H   0  0  0  0  0  0  0  0  0  0  0  0
   -0.4395   -0.5891   -1.7666 H   0  0  0  0  0  0  0  0  0  0  0  0
   -2.8388    0.5290    1.1801 H   0  0  0  0  0  0  0  0  0  0  0  0
   -1.4946   -1.8645    1.7331 H   0  0  0  0  0  0  0  0  0  0  0  0
   -0.6054   -0.5568    2.4960 H   0  0  0  0  0  0  0  0  0  0  0  0
    2.8175   -0.3977    0.1087 H   0  0  0  0  0  0  0  0  0  0  0  0
    1.4138   -1.6785    1.8992 H   0  0  0  0  0  0  0  0  0  0  0  0
    0.3995   -2.9479    1.2534 H   0  0  0  0  0  0  0  0  0  0  0  0
   -0.5307    1.7339   -1.6803 H   0  0  0  0  0  0  0  0  0  0  0  0
   -0.9937    2.9875   -0.5273 H   0  0  0  0  0  0  0  0  0  0  0  0
   -3.1556    2.1397   -0.4356 H   0  0  0  0  0  0  0  0  0  0  0  0
   -2.6992    1.0926   -1.7804 H   0  0  0  0  0  0  0  0  0  0  0  0
    1.6980   -2.3537   -2.0783 H   0  0  0  0  0  0  0  0  0  0  0  0
    0.9395   -3.4981   -0.9732 H   0  0  0  0  0  0  0  0  0  0  0  0
    2.5465   -2.8560   -0.6048 H   0  0  0  0  0  0  0  0  0  0  0  0
    1.4739    2.0960    2.3628 H   0  0  0  0  0  0  0  0  0  0  0  0
    1.4103    0.3514    2.4935 H   0  0  0  0  0  0  0  0  0  0  0  0
    1.5431    2.5361   -1.2838 H   0  0  0  0  0  0  0  0  0  0  0  0
    1.4748    3.3018    0.3006 H   0  0  0  0  0  0  0  0  0  0  0  0
    2.9230    2.4171   -0.1952 H   0  0  0  0  0  0  0  0  0  0  0  0
    2.8733    1.1270    1.8994 H   0  0  0  0  0  0  0  0  0  0  0  0
   -3.2228   -1.2519   -1.2788 H   0  0  0  0  0  0  0  0  0  0  0  0
   -4.4772   -0.5060   -0.2878 H   0  0  0  0  0  0  0  0  0  0  0  0
   -3.4482   -1.7667    0.4031 H   0  0  0  0  0  0  0  0  0  0  0  0
    1.2381    0.4760   -2.0845 H   0  0  0  0  0  0  0  0  0  0  0  0
  1  9  1  0  0  0  0
  1 42  1  0  0  0  0
  2  3  1  0  0  0  0
  2  5  1  0  0  0  0
  2  7  1  0  0  0  0
  2  8  1  0  0  0  0
  3  6  1  0  0  0  0
  3 11  1  0  0  0  0
  3 17  1  0  0  0  0
  4  5  1  0  0  0  0
  4  9  1  0  0  0  0
  4 10  1  0  0  0  0
  4 13  1  0  0  0  0
  5 18  1  0  0  0  0
  5 19  1  0  0  0  0
  6  9  1  0  0  0  0
  6 14  1  0  0  0  0
  6 15  1  0  0  0  0
  7 12  1  0  0  0  0
  7 16  1  0  0  0  0
  7 20  1  0  0  0  0
  8 10  1  0  0  0  0
  8 21  1  0  0  0  0
  8 22  1  0  0  0  0
  9 23  1  0  0  0  0
 10 24  1  0  0  0  0
 10 25  1  0  0  0  0
 11 12  1  0  0  0  0
 11 26  1  0  0  0  0
 11 27  1  0  0  0  0
 12 28  1  0  0  0  0
 12 29  1  0  0  0  0
 13 30  1  0  0  0  0
 13 31  1  0  0  0  0
 13 32  1  0  0  0  0
 14 35  1  0  0  0  0
 14 36  1  0  0  0  0
 14 37  1  0  0  0  0
 15 33  1  0  0  0  0
 15 34  1  0  0  0  0
 15 38  1  0  0  0  0
 16 39  1  0  0  0  0
 16 40  1  0  0  0  0
 16 41  1  0  0  0  0
M  END
> <PUBCHEM_COMPOUND_CID>
91750097

> <PUBCHEM_CONFORMER_RMSD>
0.6

> <PUBCHEM_CONFORMER_DIVERSEORDER>
1
2

> <PUBCHEM_MMFF94_PARTIAL_CHARGES>
3
1 -0.68
42 0.4
9 0.28

> <PUBCHEM_EFFECTIVE_ROTOR_COUNT>
1.6

> <PUBCHEM_PHARMACOPHORE_FEATURES>
5
1 1 acceptor
1 1 donor
3 6 14 15 hydrophobe
5 2 3 7 11 12 rings
8 2 3 4 5 6 8 9 10 rings

> <PUBCHEM_HEAVY_ATOM_COUNT>
16

> <PUBCHEM_ATOM_DEF_STEREO_COUNT>
4

> <PUBCHEM_ATOM_UDEF_STEREO_COUNT>
1

> <PUBCHEM_BOND_DEF_STEREO_COUNT>
0

> <PUBCHEM_BOND_UDEF_STEREO_COUNT>
0

> <PUBCHEM_ISOTOPIC_ATOM_COUNT>
0

> <PUBCHEM_COMPONENT_COUNT>
1

> <PUBCHEM_CACTVS_TAUTO_COUNT>
1

> <PUBCHEM_CONFORMER_ID>
0577FED100000001

> <PUBCHEM_MMFF94_ENERGY>
80.3754

> <PUBCHEM_FEATURE_SELFOVERLAP>
25.447

> <PUBCHEM_SHAPE_FINGERPRINT>
10863032 1 18196931067840347102
10948715 1 18121214539407454601
12423570 1 18270662255872337411
12524768 44 18190749819659309441
13024252 1 16231921575085791184
13299463 15 18338531767133463805
141345 1 14925669652054246144
144361 1 17695920207804828940
14713566 1 17328592717434615754
14761567 1 17534647931057273339
14817 1 16592544896216505194
15001771 113 17766568949384939214
15881359 60 17550109607185399139
161256 15 18411417293806889037
16945 1 18341065046224023599
17990270 104 18268985397824481895
20511035 2 18050261714290259781
21501502 16 18336828581046918501
21524375 3 18193828473581181640
22344851 341 18191016811884725715
22802520 49 18263385679271726259
2334 1 17906737251515431135
23419403 2 16191095209328970914
23559900 14 18337388233145880082
241688 4 17905894677795481192
2748010 2 17905345252657099526
5084963 1 18410013234326923489
5845 1 16768470772623709670
7364860 26 18201708514419097195

> <PUBCHEM_SHAPE_MULTIPOLES>
323.4
3.48
2.58
1.43
2.49
0.13
0.31
-0.31
-0.53
-1.1
-0.34
-0.63
0.18
0.62

> <PUBCHEM_SHAPE_SELFOVERLAP>
688.046

> <PUBCHEM_SHAPE_VOLUME>
182.5

> <PUBCHEM_COORDINATE_TYPE>
2
5
10

$$$$
