6427714
  -OEChem-08262005373D

 44 44  0     1  0  0  0  0  0999 V2000
   -1.4246    0.7997   -0.0342 C   0  0  2  0  0  0  0  0  0  0  0  0
   -2.9100    0.3542   -0.0881 C   0  0  0  0  0  0  0  0  0  0  0  0
   -0.4968   -0.3673    0.3634 C   0  0  0  0  0  0  0  0  0  0  0  0
   -3.0841   -0.9681   -0.8162 C   0  0  0  0  0  0  0  0  0  0  0  0
   -1.3438    1.9556    0.9872 C   0  0  0  0  0  0  0  0  0  0  0  0
   -0.9173   -1.6562    0.3511 C   0  0  0  0  0  0  0  0  0  0  0  0
   -2.2992   -2.0652   -0.1107 C   0  0  0  0  0  0  0  0  0  0  0  0
    0.9140    0.0129    0.7567 C   0  0  0  0  0  0  0  0  0  0  0  0
   -1.0077    1.3406   -1.4199 C   0  0  0  0  0  0  0  0  0  0  0  0
    1.8708    0.0708   -0.4421 C   0  0  2  0  0  0  0  0  0  0  0  0
   -2.2807    3.0760    0.6033 C   0  0  0  0  0  0  0  0  0  0  0  0
   -0.0881   -2.8293    0.8115 C   0  0  0  0  0  0  0  0  0  0  0  0
    1.8296   -1.2666   -1.1911 C   0  0  0  0  0  0  0  0  0  0  0  0
    3.3013    0.4444   -0.0701 C   0  0  0  0  0  0  0  0  0  0  0  0
    4.0554   -0.4451    0.8801 C   0  0  0  0  0  0  0  0  0  0  0  0
    3.8810    1.5436   -0.5808 C   0  0  0  0  0  0  0  0  0  0  0  0
   -3.5357    1.0935   -0.6017 H   0  0  0  0  0  0  0  0  0  0  0  0
   -3.3136    0.2481    0.9285 H   0  0  0  0  0  0  0  0  0  0  0  0
   -2.7451   -0.8755   -1.8551 H   0  0  0  0  0  0  0  0  0  0  0  0
   -4.1448   -1.2413   -0.8557 H   0  0  0  0  0  0  0  0  0  0  0  0
   -0.3447    2.4009    1.0218 H   0  0  0  0  0  0  0  0  0  0  0  0
   -1.5778    1.6039    1.9996 H   0  0  0  0  0  0  0  0  0  0  0  0
   -2.2240   -2.9236   -0.7895 H   0  0  0  0  0  0  0  0  0  0  0  0
   -2.8663   -2.4022    0.7667 H   0  0  0  0  0  0  0  0  0  0  0  0
    1.2976   -0.6802    1.5112 H   0  0  0  0  0  0  0  0  0  0  0  0
    0.9549    0.9624    1.2937 H   0  0  0  0  0  0  0  0  0  0  0  0
   -0.7190    0.5315   -2.1008 H   0  0  0  0  0  0  0  0  0  0  0  0
   -1.8273    1.8735   -1.9157 H   0  0  0  0  0  0  0  0  0  0  0  0
   -0.1731    2.0459   -1.3548 H   0  0  0  0  0  0  0  0  0  0  0  0
    1.5193    0.8277   -1.1475 H   0  0  0  0  0  0  0  0  0  0  0  0
   -2.1035    3.4722   -0.3996 H   0  0  0  0  0  0  0  0  0  0  0  0
   -3.3352    2.8036    0.6995 H   0  0  0  0  0  0  0  0  0  0  0  0
   -2.1286    3.9150    1.2933 H   0  0  0  0  0  0  0  0  0  0  0  0
    0.8615   -2.5850    1.2854 H   0  0  0  0  0  0  0  0  0  0  0  0
    0.1195   -3.4950   -0.0332 H   0  0  0  0  0  0  0  0  0  0  0  0
   -0.6540   -3.4041    1.5541 H   0  0  0  0  0  0  0  0  0  0  0  0
    2.5559   -1.2493   -2.0142 H   0  0  0  0  0  0  0  0  0  0  0  0
    0.8627   -1.4607   -1.6628 H   0  0  0  0  0  0  0  0  0  0  0  0
    2.1085   -2.1129   -0.5583 H   0  0  0  0  0  0  0  0  0  0  0  0
    5.0791   -0.0913    1.0456 H   0  0  0  0  0  0  0  0  0  0  0  0
    3.5633   -0.4773    1.8565 H   0  0  0  0  0  0  0  0  0  0  0  0
    4.1260   -1.4640    0.4883 H   0  0  0  0  0  0  0  0  0  0  0  0
    3.3532    2.1967   -1.2678 H   0  0  0  0  0  0  0  0  0  0  0  0
    4.8987    1.8179   -0.3232 H   0  0  0  0  0  0  0  0  0  0  0  0
  1  2  1  0  0  0  0
  1  3  1  0  0  0  0
  1  5  1  0  0  0  0
  1  9  1  0  0  0  0
  2  4  1  0  0  0  0
  2 17  1  0  0  0  0
  2 18  1  0  0  0  0
  3  6  2  0  0  0  0
  3  8  1  0  0  0  0
  4  7  1  0  0  0  0
  4 19  1  0  0  0  0
  4 20  1  0  0  0  0
  5 11  1  0  0  0  0
  5 21  1  0  0  0  0
  5 22  1  0  0  0  0
  6  7  1  0  0  0  0
  6 12  1  0  0  0  0
  7 23  1  0  0  0  0
  7 24  1  0  0  0  0
  8 10  1  0  0  0  0
  8 25  1  0  0  0  0
  8 26  1  0  0  0  0
  9 27  1  0  0  0  0
  9 28  1  0  0  0  0
  9 29  1  0  0  0  0
 10 13  1  0  0  0  0
 10 14  1  0  0  0  0
 10 30  1  0  0  0  0
 11 31  1  0  0  0  0
 11 32  1  0  0  0  0
 11 33  1  0  0  0  0
 12 34  1  0  0  0  0
 12 35  1  0  0  0  0
 12 36  1  0  0  0  0
 13 37  1  0  0  0  0
 13 38  1  0  0  0  0
 13 39  1  0  0  0  0
 14 15  1  0  0  0  0
 14 16  2  0  0  0  0
 15 40  1  0  0  0  0
 15 41  1  0  0  0  0
 15 42  1  0  0  0  0
 16 43  1  0  0  0  0
 16 44  1  0  0  0  0
M  END
> <PUBCHEM_COMPOUND_CID>
6427714

> <PUBCHEM_CONFORMER_RMSD>
0.6

> <PUBCHEM_CONFORMER_DIVERSEORDER>
1
17
24
37
26
39
10
3
32
27
35
5
14
20
29
2
28
38
31
30
33
36
9
21
15
34
23
6
11
19
18
13
25
4
7
22
8
12
16

> <PUBCHEM_MMFF94_PARTIAL_CHARGES>
12
1 0.14
10 0.14
12 0.14
14 -0.28
15 0.14
16 -0.3
3 -0.28
43 0.15
44 0.15
6 -0.28
7 0.14
8 0.14

> <PUBCHEM_EFFECTIVE_ROTOR_COUNT>
4.8

> <PUBCHEM_PHARMACOPHORE_FEATURES>
3
1 11 hydrophobe
1 13 hydrophobe
6 1 2 3 4 6 7 rings

> <PUBCHEM_HEAVY_ATOM_COUNT>
16

> <PUBCHEM_ATOM_DEF_STEREO_COUNT>
0

> <PUBCHEM_ATOM_UDEF_STEREO_COUNT>
2

> <PUBCHEM_BOND_DEF_STEREO_COUNT>
0

> <PUBCHEM_BOND_UDEF_STEREO_COUNT>
0

> <PUBCHEM_ISOTOPIC_ATOM_COUNT>
0

> <PUBCHEM_COMPONENT_COUNT>
1

> <PUBCHEM_CACTVS_TAUTO_COUNT>
1

> <PUBCHEM_CONFORMER_ID>
0062144200000001

> <PUBCHEM_MMFF94_ENERGY>
38.0737

> <PUBCHEM_FEATURE_SELFOVERLAP>
15.223

> <PUBCHEM_SHAPE_FINGERPRINT>
12162725 195 18409729565091396852
12173636 292 18412543184765516780
12532896 13 18267594498440705385
13024252 1 13190335781842374975
13027679 85 18051981612669508033
14123255 52 18051415067665527433
14142880 1 18334293120007919021
14614273 12 18114736019696978469
15490181 7 18050017596928338785
15775835 57 17967248676529391180
16945 1 18343029903689092647
17134986 127 17834400020963618829
18186145 218 18125446306570651132
192875 21 18338501015542222716
20510252 161 18411705421302813121
20525323 117 18411986870588867100
20671657 1 17762342409666193747
20871999 31 18266168616759670095
21029758 11 18124028190200808711
21041028 32 18122641706301895147
21501502 16 18340489976215920814
21524375 3 18197215849768159713
2306618 200 18114730573409707557
23402539 116 18339348747312297174
23419403 2 17691091122908392581
23557571 272 18193290799795120950
23558518 356 18339649919051309527
23559900 14 18340480158368932288
2748010 2 18049454642722187221
305870 269 18048317747619971664
353137 74 18408599241151981087
53812653 8 18339077090989384865
6992083 37 18040436560205090500
7364860 26 17763462811835737818
81228 2 18338250343775384587
9709674 26 18342463642701391478

> <PUBCHEM_SHAPE_MULTIPOLES>
329.27
5.9
2.89
1.13
5.58
0.26
-0.15
1.29
-0.33
-2.01
0.63
0.09
0.08
-0.59

> <PUBCHEM_SHAPE_SELFOVERLAP>
650.051

> <PUBCHEM_SHAPE_VOLUME>
198.9

> <PUBCHEM_COORDINATE_TYPE>
2
5
10

$$$$
