6151409
  -OEChem-08262006373D

 55 56  0     1  0  0  0  0  0999 V2000
   -0.3621   -2.6141    1.0563 O   0  0  0  0  0  0  0  0  0  0  0  0
    0.9273    0.2068    0.6468 C   0  0  2  0  0  0  0  0  0  0  0  0
    1.8810   -0.1831   -0.5465 C   0  0  1  0  0  0  0  0  0  0  0  0
   -0.5374   -0.2849    0.2547 C   0  0  1  0  0  0  0  0  0  0  0  0
    3.3174    0.4528   -0.5410 C   0  0  0  0  0  0  0  0  0  0  0  0
   -0.6067   -1.8084   -0.0986 C   0  0  1  0  0  0  0  0  0  0  0  0
    0.9365    1.7564    0.7871 C   0  0  0  0  0  0  0  0  0  0  0  0
    1.8618   -1.7024   -0.7976 C   0  0  0  0  0  0  0  0  0  0  0  0
    0.4538   -2.1819   -1.1468 C   0  0  0  0  0  0  0  0  0  0  0  0
    3.1999    1.9798   -0.3147 C   0  0  0  0  0  0  0  0  0  0  0  0
    2.3337    2.3681    0.8741 C   0  0  0  0  0  0  0  0  0  0  0  0
    1.3521   -0.3952    2.0089 C   0  0  0  0  0  0  0  0  0  0  0  0
   -1.6184    0.1222    1.2761 C   0  0  0  0  0  0  0  0  0  0  0  0
    3.9819    0.2648   -1.9318 C   0  0  0  0  0  0  0  0  0  0  0  0
    4.2840   -0.1690    0.4836 C   0  0  0  0  0  0  0  0  0  0  0  0
   -1.9839   -2.2188   -0.6467 C   0  0  0  0  0  0  0  0  0  0  0  0
   -2.9756   -0.2767    0.7932 C   0  0  0  0  0  0  0  0  0  0  0  0
   -3.8123    0.4281    0.0031 C   0  0  0  0  0  0  0  0  0  0  0  0
   -5.1602   -0.0737   -0.4445 C   0  0  0  0  0  0  0  0  0  0  0  0
   -3.3897    1.7472   -0.4656 C   0  0  0  0  0  0  0  0  0  0  0  0
   -4.0832    2.5819   -1.2502 C   0  0  0  0  0  0  0  0  0  0  0  0
    1.4052    0.2591   -1.4383 H   0  0  0  0  0  0  0  0  0  0  0  0
   -0.7795    0.2462   -0.6797 H   0  0  0  0  0  0  0  0  0  0  0  0
    0.3816    2.0660    1.6803 H   0  0  0  0  0  0  0  0  0  0  0  0
    0.4183    2.2035   -0.0716 H   0  0  0  0  0  0  0  0  0  0  0  0
    2.2432   -2.2566    0.0653 H   0  0  0  0  0  0  0  0  0  0  0  0
    2.5101   -1.9665   -1.6388 H   0  0  0  0  0  0  0  0  0  0  0  0
    0.1740   -1.7553   -2.1194 H   0  0  0  0  0  0  0  0  0  0  0  0
    0.4954   -3.2711   -1.2777 H   0  0  0  0  0  0  0  0  0  0  0  0
    2.7693    2.4469   -1.2112 H   0  0  0  0  0  0  0  0  0  0  0  0
    4.1962    2.4235   -0.1917 H   0  0  0  0  0  0  0  0  0  0  0  0
    2.2396    3.4606    0.9029 H   0  0  0  0  0  0  0  0  0  0  0  0
    2.8250    2.0866    1.8106 H   0  0  0  0  0  0  0  0  0  0  0  0
    0.5814   -0.2544    2.7720 H   0  0  0  0  0  0  0  0  0  0  0  0
    1.5715   -1.4627    1.9587 H   0  0  0  0  0  0  0  0  0  0  0  0
    2.2375    0.0849    2.4247 H   0  0  0  0  0  0  0  0  0  0  0  0
   -1.4594   -0.3941    2.2297 H   0  0  0  0  0  0  0  0  0  0  0  0
   -1.5865    1.1862    1.5212 H   0  0  0  0  0  0  0  0  0  0  0  0
    3.3207    0.5989   -2.7392 H   0  0  0  0  0  0  0  0  0  0  0  0
    4.9085    0.8468   -2.0062 H   0  0  0  0  0  0  0  0  0  0  0  0
    4.2477   -0.7796   -2.1227 H   0  0  0  0  0  0  0  0  0  0  0  0
    4.0305    0.0674    1.5156 H   0  0  0  0  0  0  0  0  0  0  0  0
    4.3338   -1.2578    0.3857 H   0  0  0  0  0  0  0  0  0  0  0  0
    5.3023    0.2106    0.3318 H   0  0  0  0  0  0  0  0  0  0  0  0
   -2.4105   -1.4955   -1.3467 H   0  0  0  0  0  0  0  0  0  0  0  0
   -1.8534   -3.1242   -1.2599 H   0  0  0  0  0  0  0  0  0  0  0  0
   -2.6816   -2.5863    0.1076 H   0  0  0  0  0  0  0  0  0  0  0  0
   -0.4312   -3.5488    0.7969 H   0  0  0  0  0  0  0  0  0  0  0  0
   -3.3839   -1.1755    1.2524 H   0  0  0  0  0  0  0  0  0  0  0  0
   -5.3648   -1.0742   -0.0474 H   0  0  0  0  0  0  0  0  0  0  0  0
   -5.9600    0.5857   -0.0913 H   0  0  0  0  0  0  0  0  0  0  0  0
   -5.2087   -0.1437   -1.5364 H   0  0  0  0  0  0  0  0  0  0  0  0
   -2.4087    2.1097   -0.1733 H   0  0  0  0  0  0  0  0  0  0  0  0
   -3.6558    3.5375   -1.5370 H   0  0  0  0  0  0  0  0  0  0  0  0
   -5.0738    2.3523   -1.6251 H   0  0  0  0  0  0  0  0  0  0  0  0
  1  6  1  0  0  0  0
  1 48  1  0  0  0  0
  2  3  1  0  0  0  0
  2  4  1  0  0  0  0
  2  7  1  0  0  0  0
  2 12  1  0  0  0  0
  3  5  1  0  0  0  0
  3  8  1  0  0  0  0
  3 22  1  0  0  0  0
  4  6  1  0  0  0  0
  4 13  1  0  0  0  0
  4 23  1  0  0  0  0
  5 10  1  0  0  0  0
  5 14  1  0  0  0  0
  5 15  1  0  0  0  0
  6  9  1  0  0  0  0
  6 16  1  0  0  0  0
  7 11  1  0  0  0  0
  7 24  1  0  0  0  0
  7 25  1  0  0  0  0
  8  9  1  0  0  0  0
  8 26  1  0  0  0  0
  8 27  1  0  0  0  0
  9 28  1  0  0  0  0
  9 29  1  0  0  0  0
 10 11  1  0  0  0  0
 10 30  1  0  0  0  0
 10 31  1  0  0  0  0
 11 32  1  0  0  0  0
 11 33  1  0  0  0  0
 12 34  1  0  0  0  0
 12 35  1  0  0  0  0
 12 36  1  0  0  0  0
 13 17  1  0  0  0  0
 13 37  1  0  0  0  0
 13 38  1  0  0  0  0
 14 39  1  0  0  0  0
 14 40  1  0  0  0  0
 14 41  1  0  0  0  0
 15 42  1  0  0  0  0
 15 43  1  0  0  0  0
 15 44  1  0  0  0  0
 16 45  1  0  0  0  0
 16 46  1  0  0  0  0
 16 47  1  0  0  0  0
 17 18  2  0  0  0  0
 17 49  1  0  0  0  0
 18 19  1  0  0  0  0
 18 20  1  0  0  0  0
 19 50  1  0  0  0  0
 19 51  1  0  0  0  0
 19 52  1  0  0  0  0
 20 21  2  0  0  0  0
 20 53  1  0  0  0  0
 21 54  1  0  0  0  0
 21 55  1  0  0  0  0
M  END
> <PUBCHEM_COMPOUND_CID>
6151409

> <PUBCHEM_CONFORMER_RMSD>
0.8

> <PUBCHEM_CONFORMER_DIVERSEORDER>
5
3
4
2
1

> <PUBCHEM_MMFF94_PARTIAL_CHARGES>
13
1 -0.68
13 0.14
17 -0.29
18 -0.14
19 0.14
20 -0.15
21 -0.3
48 0.4
49 0.15
53 0.15
54 0.15
55 0.15
6 0.28

> <PUBCHEM_EFFECTIVE_ROTOR_COUNT>
4.6

> <PUBCHEM_PHARMACOPHORE_FEATURES>
7
1 1 acceptor
1 1 donor
1 19 hydrophobe
1 21 hydrophobe
3 5 14 15 hydrophobe
6 2 3 4 6 8 9 rings
6 2 3 5 7 10 11 rings

> <PUBCHEM_HEAVY_ATOM_COUNT>
21

> <PUBCHEM_ATOM_DEF_STEREO_COUNT>
0

> <PUBCHEM_ATOM_UDEF_STEREO_COUNT>
0

> <PUBCHEM_BOND_DEF_STEREO_COUNT>
1

> <PUBCHEM_BOND_UDEF_STEREO_COUNT>
0

> <PUBCHEM_ISOTOPIC_ATOM_COUNT>
0

> <PUBCHEM_COMPONENT_COUNT>
1

> <PUBCHEM_CACTVS_TAUTO_COUNT>
1

> <PUBCHEM_CONFORMER_ID>
005DDCF100000005

> <PUBCHEM_MMFF94_ENERGY>
91.9095

> <PUBCHEM_FEATURE_SELFOVERLAP>
35.535

> <PUBCHEM_SHAPE_FINGERPRINT>
10498660 4 18188204304634548773
10646746 165 18259983760410224157
10764073 3 16318034866095721617
10871710 139 16822503462441422453
10948715 1 18260831500886160722
11370993 70 18342173379751614045
11552529 35 16516826937601318371
11796584 16 12463577244625605541
12173636 292 18042123318084199155
12403259 415 18413111683911649585
12403260 363 18411975862667010033
12592029 89 18410015424765805347
12596602 18 15285653122206451229
12670546 177 18131631222954602639
12730499 353 18336832975363081817
12788726 201 15651603667251911659
13140716 1 18129390465327742674
13464514 151 18191872210688706089
13544653 18 8718830860073861825
13583140 156 18114751519949243466
14251751 93 18341889706105056349
14251757 17 18059307473534420999
15099037 51 18342746212836181566
15163728 17 17824284629909641805
16945 1 18058748943471670490
17134986 127 18413102883391453349
17349148 13 17561087968974961922
18186145 218 18130797762501035464
18219364 16 18270136693651361003
19868273 293 18339084890323069962
200 152 15410906136678174246
20233049 118 18408602543971496536
21069387 34 16128112086771593180
21524375 3 18410856577099564979
221357 26 18272089366690174757
22182313 1 17985558989917023328
22393880 68 18341888568023268429
23114952 82 18124881153530933957
231179 274 18408324362923147230
23227448 37 18270398420721879103
2334 1 17841440533397480984
23493267 7 18040444290687151225
23526113 38 18270134417366705747
23557571 272 17822306716545826579
23559900 14 17846509158043549628
238 59 18198038323595202469
25 1 18342465806984561067
26918003 58 10159702361014360861
2748010 2 17914063246305110160
3060560 45 18343861117236525276
3323516 105 18272937098412477557
3524813 1 18408884023296078101
495365 180 17346026900686312256
633830 44 17560816410924796097
81228 2 17620465148902594811

> <PUBCHEM_SHAPE_MULTIPOLES>
426.3
8.2
2.73
1.48
4.86
0.04
0.08
-3.94
-2.73
0.64
-0.43
-0.62
-0.01
0.89

> <PUBCHEM_SHAPE_SELFOVERLAP>
865.361

> <PUBCHEM_SHAPE_VOLUME>
246.3

> <PUBCHEM_COORDINATE_TYPE>
2
5
10

$$$$
