11220007
  -OEChem-08262006353D

 55 56  0     1  0  0  0  0  0999 V2000
    1.5114    2.2077    1.0957 O   0  0  0  0  0  0  0  0  0  0  0  0
   -0.9327   -0.3955   -0.3769 C   0  0  1  0  0  0  0  0  0  0  0  0
   -2.1360    0.2564    0.4058 C   0  0  2  0  0  0  0  0  0  0  0  0
    0.4040    0.2311    0.2118 C   0  0  2  0  0  0  0  0  0  0  0  0
   -3.5437   -0.4052    0.1942 C   0  0  0  0  0  0  0  0  0  0  0  0
    0.4479    1.7943    0.2147 C   0  0  1  0  0  0  0  0  0  0  0  0
   -0.9493   -1.9274   -0.0955 C   0  0  0  0  0  0  0  0  0  0  0  0
   -2.1242    1.7928    0.2723 C   0  0  0  0  0  0  0  0  0  0  0  0
   -0.8317    2.3761    0.8346 C   0  0  0  0  0  0  0  0  0  0  0  0
   -3.4255   -1.9309    0.4321 C   0  0  0  0  0  0  0  0  0  0  0  0
   -2.3000   -2.5985   -0.3447 C   0  0  0  0  0  0  0  0  0  0  0  0
   -1.0108   -0.1954   -1.9099 C   0  0  0  0  0  0  0  0  0  0  0  0
    1.6995   -0.3917   -0.3474 C   0  0  0  0  0  0  0  0  0  0  0  0
   -4.1747   -0.1227   -1.1812 C   0  0  0  0  0  0  0  0  0  0  0  0
   -4.5462    0.1288    1.2518 C   0  0  0  0  0  0  0  0  0  0  0  0
    0.7386    2.4572   -1.1380 C   0  0  0  0  0  0  0  0  0  0  0  0
    2.9256    0.2938    0.2466 C   0  0  0  0  0  0  0  0  0  0  0  0
    4.2137   -0.3020   -0.2807 C   0  0  0  0  0  0  0  0  0  0  0  0
    4.8424   -1.4270    0.3995 C   0  0  0  0  0  0  0  0  0  0  0  0
    4.7701    0.1911   -1.4011 C   0  0  0  0  0  0  0  0  0  0  0  0
    4.4217   -2.0330    1.5164 C   0  0  0  0  0  0  0  0  0  0  0  0
   -1.9147    0.0643    1.4697 H   0  0  0  0  0  0  0  0  0  0  0  0
    0.4124   -0.0554    1.2770 H   0  0  0  0  0  0  0  0  0  0  0  0
   -0.6675   -2.1089    0.9503 H   0  0  0  0  0  0  0  0  0  0  0  0
   -0.1985   -2.4368   -0.7114 H   0  0  0  0  0  0  0  0  0  0  0  0
   -2.9491    2.2367    0.8382 H   0  0  0  0  0  0  0  0  0  0  0  0
   -2.2643    2.1109   -0.7643 H   0  0  0  0  0  0  0  0  0  0  0  0
   -0.8423    3.4682    0.7226 H   0  0  0  0  0  0  0  0  0  0  0  0
   -0.8234    2.2086    1.9210 H   0  0  0  0  0  0  0  0  0  0  0  0
   -4.3728   -2.4283    0.1870 H   0  0  0  0  0  0  0  0  0  0  0  0
   -3.2534   -2.1181    1.5011 H   0  0  0  0  0  0  0  0  0  0  0  0
   -2.5371   -2.6157   -1.4129 H   0  0  0  0  0  0  0  0  0  0  0  0
   -2.2327   -3.6500   -0.0390 H   0  0  0  0  0  0  0  0  0  0  0  0
   -0.0423   -0.3125   -2.3998 H   0  0  0  0  0  0  0  0  0  0  0  0
   -1.6522   -0.9314   -2.3978 H   0  0  0  0  0  0  0  0  0  0  0  0
   -1.4004    0.7827   -2.1926 H   0  0  0  0  0  0  0  0  0  0  0  0
    1.7327   -1.4599   -0.1052 H   0  0  0  0  0  0  0  0  0  0  0  0
    1.7466   -0.3173   -1.4371 H   0  0  0  0  0  0  0  0  0  0  0  0
   -3.6551   -0.6131   -2.0031 H   0  0  0  0  0  0  0  0  0  0  0  0
   -5.2073   -0.4920   -1.2150 H   0  0  0  0  0  0  0  0  0  0  0  0
   -4.2131    0.9500   -1.3953 H   0  0  0  0  0  0  0  0  0  0  0  0
   -4.8169    1.1738    1.0704 H   0  0  0  0  0  0  0  0  0  0  0  0
   -5.4791   -0.4476    1.2350 H   0  0  0  0  0  0  0  0  0  0  0  0
   -4.1348    0.0560    2.2646 H   0  0  0  0  0  0  0  0  0  0  0  0
    1.6009    2.0191   -1.6472 H   0  0  0  0  0  0  0  0  0  0  0  0
   -0.1095    2.4164   -1.8223 H   0  0  0  0  0  0  0  0  0  0  0  0
    0.9859    3.5166   -0.9946 H   0  0  0  0  0  0  0  0  0  0  0  0
    2.9193    0.2768    1.3416 H   0  0  0  0  0  0  0  0  0  0  0  0
    3.0013    1.3353   -0.0723 H   0  0  0  0  0  0  0  0  0  0  0  0
    1.3229    1.8645    1.9860 H   0  0  0  0  0  0  0  0  0  0  0  0
    5.7582   -1.8092   -0.0494 H   0  0  0  0  0  0  0  0  0  0  0  0
    4.3185    1.0182   -1.9402 H   0  0  0  0  0  0  0  0  0  0  0  0
    5.6873   -0.2163   -1.8154 H   0  0  0  0  0  0  0  0  0  0  0  0
    4.9881   -2.8638    1.9256 H   0  0  0  0  0  0  0  0  0  0  0  0
    3.5234   -1.7425    2.0475 H   0  0  0  0  0  0  0  0  0  0  0  0
  1  6  1  0  0  0  0
  1 50  1  0  0  0  0
  2  3  1  0  0  0  0
  2  4  1  0  0  0  0
  2  7  1  0  0  0  0
  2 12  1  0  0  0  0
  3  5  1  0  0  0  0
  3  8  1  0  0  0  0
  3 22  1  0  0  0  0
  4  6  1  0  0  0  0
  4 13  1  0  0  0  0
  4 23  1  0  0  0  0
  5 10  1  0  0  0  0
  5 14  1  0  0  0  0
  5 15  1  0  0  0  0
  6  9  1  0  0  0  0
  6 16  1  0  0  0  0
  7 11  1  0  0  0  0
  7 24  1  0  0  0  0
  7 25  1  0  0  0  0
  8  9  1  0  0  0  0
  8 26  1  0  0  0  0
  8 27  1  0  0  0  0
  9 28  1  0  0  0  0
  9 29  1  0  0  0  0
 10 11  1  0  0  0  0
 10 30  1  0  0  0  0
 10 31  1  0  0  0  0
 11 32  1  0  0  0  0
 11 33  1  0  0  0  0
 12 34  1  0  0  0  0
 12 35  1  0  0  0  0
 12 36  1  0  0  0  0
 13 17  1  0  0  0  0
 13 37  1  0  0  0  0
 13 38  1  0  0  0  0
 14 39  1  0  0  0  0
 14 40  1  0  0  0  0
 14 41  1  0  0  0  0
 15 42  1  0  0  0  0
 15 43  1  0  0  0  0
 15 44  1  0  0  0  0
 16 45  1  0  0  0  0
 16 46  1  0  0  0  0
 16 47  1  0  0  0  0
 17 18  1  0  0  0  0
 17 48  1  0  0  0  0
 17 49  1  0  0  0  0
 18 19  1  0  0  0  0
 18 20  2  0  0  0  0
 19 21  2  0  0  0  0
 19 51  1  0  0  0  0
 20 52  1  0  0  0  0
 20 53  1  0  0  0  0
 21 54  1  0  0  0  0
 21 55  1  0  0  0  0
M  END
> <PUBCHEM_COMPOUND_CID>
11220007

> <PUBCHEM_CONFORMER_RMSD>
0.8

> <PUBCHEM_CONFORMER_DIVERSEORDER>
1
5
3
6
2
4

> <PUBCHEM_MMFF94_PARTIAL_CHARGES>
13
1 -0.68
17 0.14
18 -0.14
19 -0.15
20 -0.3
21 -0.3
50 0.4
51 0.15
52 0.15
53 0.15
54 0.15
55 0.15
6 0.28

> <PUBCHEM_EFFECTIVE_ROTOR_COUNT>
5.6

> <PUBCHEM_PHARMACOPHORE_FEATURES>
8
1 1 acceptor
1 1 donor
1 20 hydrophobe
1 21 hydrophobe
3 5 14 15 hydrophobe
4 13 17 18 19 hydrophobe
6 2 3 4 6 8 9 rings
6 2 3 5 7 10 11 rings

> <PUBCHEM_HEAVY_ATOM_COUNT>
21

> <PUBCHEM_ATOM_DEF_STEREO_COUNT>
4

> <PUBCHEM_ATOM_UDEF_STEREO_COUNT>
0

> <PUBCHEM_BOND_DEF_STEREO_COUNT>
0

> <PUBCHEM_BOND_UDEF_STEREO_COUNT>
0

> <PUBCHEM_ISOTOPIC_ATOM_COUNT>
0

> <PUBCHEM_COMPONENT_COUNT>
1

> <PUBCHEM_CACTVS_TAUTO_COUNT>
1

> <PUBCHEM_CONFORMER_ID>
00AB342700000001

> <PUBCHEM_MMFF94_ENERGY>
87.6186

> <PUBCHEM_FEATURE_SELFOVERLAP>
40.79

> <PUBCHEM_SHAPE_FINGERPRINT>
10062212 137 18272090538989172359
11045515 52 17603585214496528964
11578080 2 17969198141138179332
11680986 33 18127404768607909297
12011746 2 18413108342801113645
12236239 1 18113905936095274726
12553582 1 18341894095493236142
12633257 1 18271814527073705659
12714826 92 17822275882089294101
12760667 363 18341607054392189526
12788726 201 18341344301167119568
13140716 1 18269843171655557235
13862211 1 18341890792737420479
14115302 16 18334584580561507836
15042514 8 18267024942812005504
15099037 51 18411698781842549087
15209289 33 18343867705911458139
15375462 189 18260266356505294210
15537594 2 18261121789510588634
16752209 62 18265881497731507153
16945 1 18413112766649148237
17349148 13 17917713547642314559
17804303 29 18271531973854299857
17977361 122 18411978035825555267
1813 80 18114194016246292972
18222031 100 17989484138974945046
19784866 135 18337665326443553066
200 152 17240484680820073176
20281475 54 18334574668019691806
20291156 8 18408885157219730434
20600515 1 18342469144063588364
21029758 27 18334305270311857885
21267235 1 18340218456609567751
21501502 16 18124884718322231767
22950370 63 18334300880987111266
2334 1 17980764058436987135
23366157 5 18119247513364099016
23402539 116 18201432550212319181
23557571 272 17702401571406017940
23559900 14 18343581884776204888
2748010 2 18125721442391741751
3004659 81 18113615660736264954
335352 9 18413110559162636797
350125 39 18337117881902701683
5104073 3 18272654605433637787
559249 180 18044368327929025586
7097593 13 18053662761400085699

> <PUBCHEM_SHAPE_MULTIPOLES>
426.3
9.19
2.68
1.33
6.89
0.32
-0.25
-4.54
0.85
-0.18
0.45
0.18
0.08
-0.99

> <PUBCHEM_SHAPE_SELFOVERLAP>
862.641

> <PUBCHEM_SHAPE_VOLUME>
248

> <PUBCHEM_COORDINATE_TYPE>
2
5
10

$$$$
