6552024
  -OEChem-08262005053D

 39 41  0     1  0  0  0  0  0999 V2000
   -0.7970   -0.6329   -0.1620 C   0  0  2  0  0  0  0  0  0  0  0  0
   -0.7322    0.8934    0.0631 C   0  0  2  0  0  0  0  0  0  0  0  0
    0.7369    1.3105   -0.1344 C   0  0  0  0  0  0  0  0  0  0  0  0
    1.3240    0.0623   -0.9174 C   0  0  2  0  0  0  0  0  0  0  0  0
    0.0523   -0.6992   -1.4291 C   0  0  0  0  0  0  0  0  0  0  0  0
   -2.3166   -0.8581   -0.1045 C   0  0  1  0  0  0  0  0  0  0  0  0
   -1.5959    1.1083    1.2826 C   0  0  0  0  0  0  0  0  0  0  0  0
   -0.1203   -1.5464    0.9250 C   0  0  0  0  0  0  0  0  0  0  0  0
   -2.7742    0.1381    1.0108 C   0  0  0  0  0  0  0  0  0  0  0  0
    2.0812   -0.8730    0.0009 C   0  0  0  0  0  0  0  0  0  0  0  0
    1.4368    1.6988    1.1756 C   0  0  0  0  0  0  0  0  0  0  0  0
    0.8067    2.5431   -1.0644 C   0  0  0  0  0  0  0  0  0  0  0  0
    1.3819   -1.6154    0.8737 C   0  0  0  0  0  0  0  0  0  0  0  0
   -3.0564   -0.6241   -1.4206 C   0  0  0  0  0  0  0  0  0  0  0  0
    3.5729   -0.9054   -0.0996 C   0  0  0  0  0  0  0  0  0  0  0  0
   -1.2876    1.3864   -0.7518 H   0  0  0  0  0  0  0  0  0  0  0  0
    1.9503    0.3512   -1.7690 H   0  0  0  0  0  0  0  0  0  0  0  0
   -0.3989   -0.1621   -2.2718 H   0  0  0  0  0  0  0  0  0  0  0  0
    0.2620   -1.7236   -1.7568 H   0  0  0  0  0  0  0  0  0  0  0  0
   -2.5556   -1.8812    0.2109 H   0  0  0  0  0  0  0  0  0  0  0  0
   -1.9408    2.1431    1.3710 H   0  0  0  0  0  0  0  0  0  0  0  0
   -1.0875    0.8455    2.2151 H   0  0  0  0  0  0  0  0  0  0  0  0
   -0.4751   -2.5753    0.7764 H   0  0  0  0  0  0  0  0  0  0  0  0
   -0.4227   -1.2592    1.9371 H   0  0  0  0  0  0  0  0  0  0  0  0
   -3.0228   -0.4027    1.9311 H   0  0  0  0  0  0  0  0  0  0  0  0
   -3.6685    0.6937    0.7074 H   0  0  0  0  0  0  0  0  0  0  0  0
    1.3563    0.9273    1.9462 H   0  0  0  0  0  0  0  0  0  0  0  0
    2.5000    1.9030    1.0093 H   0  0  0  0  0  0  0  0  0  0  0  0
    0.9926    2.6083    1.5975 H   0  0  0  0  0  0  0  0  0  0  0  0
    0.3515    2.3414   -2.0407 H   0  0  0  0  0  0  0  0  0  0  0  0
    0.2835    3.3996   -0.6241 H   0  0  0  0  0  0  0  0  0  0  0  0
    1.8469    2.8382   -1.2433 H   0  0  0  0  0  0  0  0  0  0  0  0
    1.8845   -2.2898    1.5599 H   0  0  0  0  0  0  0  0  0  0  0  0
   -2.7019   -1.3172   -2.1903 H   0  0  0  0  0  0  0  0  0  0  0  0
   -4.1296   -0.7988   -1.2872 H   0  0  0  0  0  0  0  0  0  0  0  0
   -2.9353    0.3953   -1.7978 H   0  0  0  0  0  0  0  0  0  0  0  0
    4.0176   -1.5886    0.6314 H   0  0  0  0  0  0  0  0  0  0  0  0
    3.9910    0.0905    0.0764 H   0  0  0  0  0  0  0  0  0  0  0  0
    3.8776   -1.2379   -1.0970 H   0  0  0  0  0  0  0  0  0  0  0  0
  1  2  1  0  0  0  0
  1  5  1  0  0  0  0
  1  6  1  0  0  0  0
  1  8  1  0  0  0  0
  2  3  1  0  0  0  0
  2  7  1  0  0  0  0
  2 16  1  0  0  0  0
  3  4  1  0  0  0  0
  3 11  1  0  0  0  0
  3 12  1  0  0  0  0
  4  5  1  0  0  0  0
  4 10  1  0  0  0  0
  4 17  1  0  0  0  0
  5 18  1  0  0  0  0
  5 19  1  0  0  0  0
  6  9  1  0  0  0  0
  6 14  1  0  0  0  0
  6 20  1  0  0  0  0
  7  9  1  0  0  0  0
  7 21  1  0  0  0  0
  7 22  1  0  0  0  0
  8 13  1  0  0  0  0
  8 23  1  0  0  0  0
  8 24  1  0  0  0  0
  9 25  1  0  0  0  0
  9 26  1  0  0  0  0
 10 13  2  0  0  0  0
 10 15  1  0  0  0  0
 11 27  1  0  0  0  0
 11 28  1  0  0  0  0
 11 29  1  0  0  0  0
 12 30  1  0  0  0  0
 12 31  1  0  0  0  0
 12 32  1  0  0  0  0
 13 33  1  0  0  0  0
 14 34  1  0  0  0  0
 14 35  1  0  0  0  0
 14 36  1  0  0  0  0
 15 37  1  0  0  0  0
 15 38  1  0  0  0  0
 15 39  1  0  0  0  0
M  END
> <PUBCHEM_COMPOUND_CID>
6552024

> <PUBCHEM_CONFORMER_RMSD>
0.6

> <PUBCHEM_CONFORMER_DIVERSEORDER>
1

> <PUBCHEM_MMFF94_PARTIAL_CHARGES>
6
10 -0.28
13 -0.29
15 0.14
33 0.15
4 0.14
8 0.14

> <PUBCHEM_EFFECTIVE_ROTOR_COUNT>
1.2

> <PUBCHEM_PHARMACOPHORE_FEATURES>
3
3 3 11 12 hydrophobe
5 1 2 6 7 9 rings
8 1 2 3 4 5 8 10 13 rings

> <PUBCHEM_HEAVY_ATOM_COUNT>
15

> <PUBCHEM_ATOM_DEF_STEREO_COUNT>
4

> <PUBCHEM_ATOM_UDEF_STEREO_COUNT>
0

> <PUBCHEM_BOND_DEF_STEREO_COUNT>
0

> <PUBCHEM_BOND_UDEF_STEREO_COUNT>
0

> <PUBCHEM_ISOTOPIC_ATOM_COUNT>
0

> <PUBCHEM_COMPONENT_COUNT>
1

> <PUBCHEM_CACTVS_TAUTO_COUNT>
1

> <PUBCHEM_CONFORMER_ID>
0063F9D800000001

> <PUBCHEM_MMFF94_ENERGY>
74.4849

> <PUBCHEM_FEATURE_SELFOVERLAP>
15.285

> <PUBCHEM_SHAPE_FINGERPRINT>
10863032 1 16845569807800313770
11132069 177 18271240496347175826
12423570 1 11737004541878952331
12491281 212 17632031770550068840
13024252 1 17314802801808004366
13132413 78 18264780873712787964
13172582 1 18200042732891327675
14181834 199 18200300151751159964
14761567 1 17979650248435775965
14817 1 11678859321944295268
14993402 34 18272645740510439974
15490181 8 17758395557975111984
15557651 10 14691429608957657474
15852999 172 17760342771577236193
16945 1 18261398840396391766
19010151 120 18337096900143260150
20511035 2 18198916991903575656
20653091 64 18339088188704868579
21501502 16 17989209286568987289
22112679 90 17774730848058478897
22344851 262 17703518679340602175
23236772 104 18342179933834869027
23388829 49 18341612594393137957
23402539 116 18339922606931374414
23419403 2 15684400892190587959
23526113 38 17168694220568012779
23557571 272 15339124537365203427
23559900 14 18334306392368934782
241688 4 18336824204195786160
2748010 2 18189614011088640340
5084963 1 18410856607053358405
528886 8 16443059469970210527
568465 68 17314539000415917714
63268167 104 18408886264872906317

> <PUBCHEM_SHAPE_MULTIPOLES>
308.69
3.96
2.06
1.4
0.25
0.99
0.1
-1.26
0.16
-0.85
-0.06
0.44
0.13
-0.44

> <PUBCHEM_SHAPE_SELFOVERLAP>
659.345

> <PUBCHEM_SHAPE_VOLUME>
169.4

> <PUBCHEM_COORDINATE_TYPE>
2
5
10

$$$$
