13969536
  -OEChem-08262006333D

 52 54  0     1  0  0  0  0  0999 V2000
   -1.0500    0.6649    0.1975 C   0  0  1  0  0  0  0  0  0  0  0  0
   -1.8996   -0.5738   -0.2672 C   0  0  2  0  0  0  0  0  0  0  0  0
    0.4180    0.4666   -0.3854 C   0  0  2  0  0  0  0  0  0  0  0  0
   -3.4658   -0.4541   -0.1786 C   0  0  0  0  0  0  0  0  0  0  0  0
   -1.6572    1.9623   -0.3938 C   0  0  0  0  0  0  0  0  0  0  0  0
   -1.3230   -1.8686    0.3469 C   0  0  0  0  0  0  0  0  0  0  0  0
    0.9473   -0.9535   -0.2224 C   0  0  0  0  0  0  0  0  0  0  0  0
   -3.9170    0.9175   -0.7369 C   0  0  0  0  0  0  0  0  0  0  0  0
    1.4298    1.5061    0.1513 C   0  0  0  0  0  0  0  0  0  0  0  0
   -3.1556    2.0979   -0.1477 C   0  0  0  0  0  0  0  0  0  0  0  0
   -0.9924    0.8004    1.7406 C   0  0  0  0  0  0  0  0  0  0  0  0
    3.3695   -0.1552   -0.0077 C   0  0  1  0  0  0  0  0  0  0  0  0
    2.3921   -1.1899   -0.6010 C   0  0  0  0  0  0  0  0  0  0  0  0
    0.1607   -1.9790    0.1484 C   0  0  0  0  0  0  0  0  0  0  0  0
    2.8588    1.2629   -0.3393 C   0  0  0  0  0  0  0  0  0  0  0  0
   -4.0604   -0.6594    1.2291 C   0  0  0  0  0  0  0  0  0  0  0  0
   -4.1109   -1.5433   -1.0770 C   0  0  0  0  0  0  0  0  0  0  0  0
    3.5236   -0.3589    1.5103 C   0  0  0  0  0  0  0  0  0  0  0  0
    4.7306   -0.3426   -0.6340 C   0  0  0  0  0  0  0  0  0  0  0  0
    5.8016    0.3996   -0.3331 C   0  0  0  0  0  0  0  0  0  0  0  0
   -1.7043   -0.6482   -1.3513 H   0  0  0  0  0  0  0  0  0  0  0  0
    0.3605    0.6236   -1.4737 H   0  0  0  0  0  0  0  0  0  0  0  0
   -1.4847    1.9887   -1.4779 H   0  0  0  0  0  0  0  0  0  0  0  0
   -1.1543    2.8462    0.0163 H   0  0  0  0  0  0  0  0  0  0  0  0
   -1.7836   -2.7395   -0.1314 H   0  0  0  0  0  0  0  0  0  0  0  0
   -1.5365   -1.9415    1.4179 H   0  0  0  0  0  0  0  0  0  0  0  0
   -4.9915    1.0627   -0.5665 H   0  0  0  0  0  0  0  0  0  0  0  0
   -3.7785    0.9318   -1.8268 H   0  0  0  0  0  0  0  0  0  0  0  0
    1.4493    1.5119    1.2453 H   0  0  0  0  0  0  0  0  0  0  0  0
    1.1260    2.5124   -0.1593 H   0  0  0  0  0  0  0  0  0  0  0  0
   -3.3645    2.1998    0.9221 H   0  0  0  0  0  0  0  0  0  0  0  0
   -3.5113    3.0220   -0.6192 H   0  0  0  0  0  0  0  0  0  0  0  0
   -0.5450    1.7549    2.0399 H   0  0  0  0  0  0  0  0  0  0  0  0
   -1.9746    0.7857    2.2061 H   0  0  0  0  0  0  0  0  0  0  0  0
   -0.4008    0.0064    2.2067 H   0  0  0  0  0  0  0  0  0  0  0  0
    2.7075   -2.2033   -0.3171 H   0  0  0  0  0  0  0  0  0  0  0  0
    2.4423   -1.1549   -1.6992 H   0  0  0  0  0  0  0  0  0  0  0  0
    0.5841   -2.9749    0.2511 H   0  0  0  0  0  0  0  0  0  0  0  0
    2.8871    1.4282   -1.4254 H   0  0  0  0  0  0  0  0  0  0  0  0
    3.5062    2.0292    0.1058 H   0  0  0  0  0  0  0  0  0  0  0  0
   -3.7260   -1.5965    1.6835 H   0  0  0  0  0  0  0  0  0  0  0  0
   -3.8344    0.1556    1.9157 H   0  0  0  0  0  0  0  0  0  0  0  0
   -5.1556   -0.7088    1.1794 H   0  0  0  0  0  0  0  0  0  0  0  0
   -5.1969   -1.4068   -1.1438 H   0  0  0  0  0  0  0  0  0  0  0  0
   -3.7150   -1.5059   -2.0981 H   0  0  0  0  0  0  0  0  0  0  0  0
   -3.9361   -2.5503   -0.6847 H   0  0  0  0  0  0  0  0  0  0  0  0
    4.0066   -1.3176    1.7364 H   0  0  0  0  0  0  0  0  0  0  0  0
    4.1221    0.4333    1.9747 H   0  0  0  0  0  0  0  0  0  0  0  0
    2.5560   -0.3654    2.0232 H   0  0  0  0  0  0  0  0  0  0  0  0
    4.8562   -1.1310   -1.3729 H   0  0  0  0  0  0  0  0  0  0  0  0
    6.7512    0.2075   -0.8215 H   0  0  0  0  0  0  0  0  0  0  0  0
    5.7663    1.2046    0.3917 H   0  0  0  0  0  0  0  0  0  0  0  0
  1  2  1  0  0  0  0
  1  3  1  0  0  0  0
  1  5  1  0  0  0  0
  1 11  1  0  0  0  0
  2  4  1  0  0  0  0
  2  6  1  0  0  0  0
  2 21  1  0  0  0  0
  3  7  1  0  0  0  0
  3  9  1  0  0  0  0
  3 22  1  0  0  0  0
  4  8  1  0  0  0  0
  4 16  1  0  0  0  0
  4 17  1  0  0  0  0
  5 10  1  0  0  0  0
  5 23  1  0  0  0  0
  5 24  1  0  0  0  0
  6 14  1  0  0  0  0
  6 25  1  0  0  0  0
  6 26  1  0  0  0  0
  7 13  1  0  0  0  0
  7 14  2  0  0  0  0
  8 10  1  0  0  0  0
  8 27  1  0  0  0  0
  8 28  1  0  0  0  0
  9 15  1  0  0  0  0
  9 29  1  0  0  0  0
  9 30  1  0  0  0  0
 10 31  1  0  0  0  0
 10 32  1  0  0  0  0
 11 33  1  0  0  0  0
 11 34  1  0  0  0  0
 11 35  1  0  0  0  0
 12 13  1  0  0  0  0
 12 15  1  0  0  0  0
 12 18  1  0  0  0  0
 12 19  1  0  0  0  0
 13 36  1  0  0  0  0
 13 37  1  0  0  0  0
 14 38  1  0  0  0  0
 15 39  1  0  0  0  0
 15 40  1  0  0  0  0
 16 41  1  0  0  0  0
 16 42  1  0  0  0  0
 16 43  1  0  0  0  0
 17 44  1  0  0  0  0
 17 45  1  0  0  0  0
 17 46  1  0  0  0  0
 18 47  1  0  0  0  0
 18 48  1  0  0  0  0
 18 49  1  0  0  0  0
 19 20  2  0  0  0  0
 19 50  1  0  0  0  0
 20 51  1  0  0  0  0
 20 52  1  0  0  0  0
M  END
> <PUBCHEM_COMPOUND_CID>
13969536

> <PUBCHEM_CONFORMER_RMSD>
0.6

> <PUBCHEM_CONFORMER_DIVERSEORDER>
2
1

> <PUBCHEM_MMFF94_PARTIAL_CHARGES>
12
12 0.14
13 0.14
14 -0.29
19 -0.29
20 -0.3
3 0.14
38 0.15
50 0.15
51 0.15
52 0.15
6 0.14
7 -0.28

> <PUBCHEM_EFFECTIVE_ROTOR_COUNT>
2.8

> <PUBCHEM_PHARMACOPHORE_FEATURES>
5
1 20 hydrophobe
3 4 16 17 hydrophobe
6 1 2 3 6 7 14 rings
6 1 2 4 5 8 10 rings
6 3 7 9 12 13 15 rings

> <PUBCHEM_HEAVY_ATOM_COUNT>
20

> <PUBCHEM_ATOM_DEF_STEREO_COUNT>
4

> <PUBCHEM_ATOM_UDEF_STEREO_COUNT>
0

> <PUBCHEM_BOND_DEF_STEREO_COUNT>
0

> <PUBCHEM_BOND_UDEF_STEREO_COUNT>
0

> <PUBCHEM_ISOTOPIC_ATOM_COUNT>
0

> <PUBCHEM_COMPONENT_COUNT>
1

> <PUBCHEM_CACTVS_TAUTO_COUNT>
1

> <PUBCHEM_CONFORMER_ID>
00D5288000000002

> <PUBCHEM_MMFF94_ENERGY>
67.9165

> <PUBCHEM_FEATURE_SELFOVERLAP>
25.404

> <PUBCHEM_SHAPE_FINGERPRINT>
10062212 137 18262509312981005027
10366900 7 18409727399884749442
10498660 4 18337955593413808860
10646746 165 18335981982694646748
10759866 29 18040435465120311762
11132069 177 18273207603863333387
11315181 36 17989210339706250272
12011746 2 18410575085132551694
12236239 1 17676487246786872086
12390115 104 18199204900731259609
12403259 226 18341606070533325457
12403259 415 18343860030636511064
12403260 363 18409158935208994724
12403814 3 18409452488319310049
12592029 89 18260830358609606779
12788726 201 18339640014793909169
13140716 1 18193847169579167427
13224815 77 18130783464623381387
13288520 33 18413672417545440477
13583140 156 16732982059036245195
13862211 1 18410851079689223134
14787075 74 18201152268946489802
15196674 1 18410012092213762878
16752209 62 18410567401177849378
16945 1 18410291428122823091
17349148 13 18413105065567116614
17804303 29 18410575106275357804
18186145 218 17917991676422640282
200 152 17775283867535776500
20510252 161 18342742888199393128
21033648 29 17417796332409369472
21267235 1 18410582815720600687
23402539 116 18410288120739282887
23402655 69 18341329994135099941
23493267 7 17821442465687888681
23557571 272 17989211451406486943
23559900 14 18272081742912240744
2748010 2 18195532480449578959
296302 2 16732704934892995290
34934 24 18262796242877625741
350125 39 18410300224063176297
5104073 3 18336827490093512688
59755656 215 18409445882570451527
69090 78 18273212023326873302
9709674 26 18412269436582671366

> <PUBCHEM_SHAPE_MULTIPOLES>
411.59
9.5
2.01
1.13
6.93
0.14
0.41
-0.03
-1.26
-1.37
-0.16
-0.24
-0.05
-0.03

> <PUBCHEM_SHAPE_SELFOVERLAP>
855.704

> <PUBCHEM_SHAPE_VOLUME>
232.2

> <PUBCHEM_COORDINATE_TYPE>
2
5
10

$$$$
