6428399
  -OEChem-08262006303D

 40 42  0     1  0  0  0  0  0999 V2000
    3.5400    1.2022   -0.3413 O   0  0  0  0  0  0  0  0  0  0  0  0
   -1.1515    0.4355    0.2358 C   0  0  1  0  0  0  0  0  0  0  0  0
   -0.5844   -0.9987    0.4494 C   0  0  2  0  0  0  0  0  0  0  0  0
    0.9670   -1.1654    0.2734 C   0  0  0  0  0  0  0  0  0  0  0  0
    0.8241    1.2735   -0.7117 C   0  0  2  0  0  0  0  0  0  0  0  0
   -0.6369    1.0388   -1.0772 C   0  0  0  0  0  0  0  0  0  0  0  0
   -2.6651    0.1790    0.2950 C   0  0  2  0  0  0  0  0  0  0  0  0
   -0.6126    1.4341    1.2680 C   0  0  0  0  0  0  0  0  0  0  0  0
    1.5439   -0.0934   -0.7095 C   0  0  1  0  0  0  0  0  0  0  0  0
   -1.4830   -1.8325   -0.4813 C   0  0  0  0  0  0  0  0  0  0  0  0
    0.6977    1.9573    0.6587 C   0  0  0  0  0  0  0  0  0  0  0  0
   -2.8527   -1.1440   -0.4646 C   0  0  0  0  0  0  0  0  0  0  0  0
    1.6310   -1.1043    1.6769 C   0  0  0  0  0  0  0  0  0  0  0  0
    1.3221   -2.5757   -0.2657 C   0  0  0  0  0  0  0  0  0  0  0  0
   -3.5662    1.2828   -0.2417 C   0  0  0  0  0  0  0  0  0  0  0  0
    3.0266    0.1108   -0.5642 C   0  0  0  0  0  0  0  0  0  0  0  0
   -0.8419   -1.3147    1.4723 H   0  0  0  0  0  0  0  0  0  0  0  0
    1.2988    1.9482   -1.4340 H   0  0  0  0  0  0  0  0  0  0  0  0
   -1.1237    1.9957   -1.3027 H   0  0  0  0  0  0  0  0  0  0  0  0
   -0.7592    0.3928   -1.9515 H   0  0  0  0  0  0  0  0  0  0  0  0
   -2.9438    0.0077    1.3447 H   0  0  0  0  0  0  0  0  0  0  0  0
   -0.4610    0.9855    2.2543 H   0  0  0  0  0  0  0  0  0  0  0  0
   -1.3025    2.2748    1.4061 H   0  0  0  0  0  0  0  0  0  0  0  0
    1.4306   -0.4872   -1.7311 H   0  0  0  0  0  0  0  0  0  0  0  0
   -1.5614   -2.8715   -0.1445 H   0  0  0  0  0  0  0  0  0  0  0  0
   -1.1017   -1.8464   -1.5081 H   0  0  0  0  0  0  0  0  0  0  0  0
    0.6096    3.0422    0.5183 H   0  0  0  0  0  0  0  0  0  0  0  0
    1.5605    1.8024    1.3099 H   0  0  0  0  0  0  0  0  0  0  0  0
   -3.1988   -0.9847   -1.4924 H   0  0  0  0  0  0  0  0  0  0  0  0
   -3.6006   -1.7689    0.0361 H   0  0  0  0  0  0  0  0  0  0  0  0
    2.7111   -1.2812    1.6269 H   0  0  0  0  0  0  0  0  0  0  0  0
    1.4813   -0.1527    2.1851 H   0  0  0  0  0  0  0  0  0  0  0  0
    1.2199   -1.8817    2.3328 H   0  0  0  0  0  0  0  0  0  0  0  0
    0.8727   -3.3594    0.3550 H   0  0  0  0  0  0  0  0  0  0  0  0
    0.9760   -2.7216   -1.2940 H   0  0  0  0  0  0  0  0  0  0  0  0
    2.4046   -2.7455   -0.2677 H   0  0  0  0  0  0  0  0  0  0  0  0
   -4.6188    1.0121   -0.1051 H   0  0  0  0  0  0  0  0  0  0  0  0
   -3.3939    2.2256    0.2857 H   0  0  0  0  0  0  0  0  0  0  0  0
   -3.4099    1.4552   -1.3113 H   0  0  0  0  0  0  0  0  0  0  0  0
    3.6562   -0.7847   -0.6980 H   0  0  0  0  0  0  0  0  0  0  0  0
  1 16  2  0  0  0  0
  2  3  1  0  0  0  0
  2  6  1  0  0  0  0
  2  7  1  0  0  0  0
  2  8  1  0  0  0  0
  3  4  1  0  0  0  0
  3 10  1  0  0  0  0
  3 17  1  0  0  0  0
  4  9  1  0  0  0  0
  4 13  1  0  0  0  0
  4 14  1  0  0  0  0
  5  6  1  0  0  0  0
  5  9  1  0  0  0  0
  5 11  1  0  0  0  0
  5 18  1  0  0  0  0
  6 19  1  0  0  0  0
  6 20  1  0  0  0  0
  7 12  1  0  0  0  0
  7 15  1  0  0  0  0
  7 21  1  0  0  0  0
  8 11  1  0  0  0  0
  8 22  1  0  0  0  0
  8 23  1  0  0  0  0
  9 16  1  0  0  0  0
  9 24  1  0  0  0  0
 10 12  1  0  0  0  0
 10 25  1  0  0  0  0
 10 26  1  0  0  0  0
 11 27  1  0  0  0  0
 11 28  1  0  0  0  0
 12 29  1  0  0  0  0
 12 30  1  0  0  0  0
 13 31  1  0  0  0  0
 13 32  1  0  0  0  0
 13 33  1  0  0  0  0
 14 34  1  0  0  0  0
 14 35  1  0  0  0  0
 14 36  1  0  0  0  0
 15 37  1  0  0  0  0
 15 38  1  0  0  0  0
 15 39  1  0  0  0  0
 16 40  1  0  0  0  0
M  END
> <PUBCHEM_COMPOUND_CID>
6428399

> <PUBCHEM_CONFORMER_RMSD>
0.6

> <PUBCHEM_CONFORMER_DIVERSEORDER>
2
3
5
1
4

> <PUBCHEM_MMFF94_PARTIAL_CHARGES>
4
1 -0.57
16 0.45
40 0.06
9 0.06

> <PUBCHEM_EFFECTIVE_ROTOR_COUNT>
2.6

> <PUBCHEM_PHARMACOPHORE_FEATURES>
4
1 1 acceptor
3 4 13 14 hydrophobe
5 2 3 7 10 12 rings
8 2 3 4 5 6 8 9 11 rings

> <PUBCHEM_HEAVY_ATOM_COUNT>
16

> <PUBCHEM_ATOM_DEF_STEREO_COUNT>
3

> <PUBCHEM_ATOM_UDEF_STEREO_COUNT>
2

> <PUBCHEM_BOND_DEF_STEREO_COUNT>
0

> <PUBCHEM_BOND_UDEF_STEREO_COUNT>
0

> <PUBCHEM_ISOTOPIC_ATOM_COUNT>
0

> <PUBCHEM_COMPONENT_COUNT>
1

> <PUBCHEM_CACTVS_TAUTO_COUNT>
2

> <PUBCHEM_CONFORMER_ID>
006216EF00000002

> <PUBCHEM_MMFF94_ENERGY>
70.1315

> <PUBCHEM_FEATURE_SELFOVERLAP>
20.375

> <PUBCHEM_SHAPE_FINGERPRINT>
10062212 137 18336538387049473586
10863032 1 18413110541296978238
10948715 1 18333735727493836508
10967382 1 18339645538221415485
10980938 120 18336268955239883265
11132069 177 18411414016773164080
11315181 36 18268731531884474852
12382932 28 18412824659805147715
12423570 1 11463707921586912529
12491281 212 18057908907681610528
12524768 44 18262807241777219759
13132413 78 18412548721141839709
13172582 1 18265321816459311611
14181834 199 18115297878417691135
144361 1 18335424568716537291
14614273 12 18334293145618856748
14617773 55 17771349673350797089
14713566 1 18272099304621667576
15001771 113 17979922605223323302
15775835 57 18333453140072993549
15881359 60 17831549030235718295
16945 1 18413102862138071985
19765921 60 18186526518060724440
21501502 16 18334283254541275855
22112679 90 18338218406309232002
22344851 262 17967540081423154197
22344851 341 18194956563921118008
23236772 104 18410020952314511240
2334 1 17979357786996187921
23402539 116 18272646870714222460
23419403 2 16890822321785957504
23559900 14 18201726176332336452
241688 4 16968297016256279778
2748010 2 17690277535775022839
34934 24 18412261718404919589
353137 74 18342186535226054528
528886 8 17967252035141062645
53812653 166 18411981381605059377
53812654 25 18268976627343202747
63268167 104 18336551525443739033
7364860 26 18267867185988564638

> <PUBCHEM_SHAPE_MULTIPOLES>
323.4
4.4
2.29
1.15
0.78
0.62
0.29
-0.66
-0.7
-0.31
0.03
-0.3
-0.08
-0.38

> <PUBCHEM_SHAPE_SELFOVERLAP>
689.354

> <PUBCHEM_SHAPE_VOLUME>
182.4

> <PUBCHEM_COORDINATE_TYPE>
2
5
10

$$$$
