177773
  -OEChem-08262005043D

 39 40  0     1  0  0  0  0  0999 V2000
    0.3466   -1.2729    0.0793 C   0  0  1  0  0  0  0  0  0  0  0  0
   -0.3017    0.0995    0.1985 C   0  0  0  0  0  0  0  0  0  0  0  0
   -0.7897   -2.0970   -0.5783 C   0  0  0  0  0  0  0  0  0  0  0  0
   -1.6311    0.0352   -0.0020 C   0  0  0  0  0  0  0  0  0  0  0  0
   -2.0887   -1.3656   -0.2682 C   0  0  0  0  0  0  0  0  0  0  0  0
    1.5820   -1.3200   -0.8512 C   0  0  0  0  0  0  0  0  0  0  0  0
    0.4943    1.3125    0.5933 C   0  0  0  0  0  0  0  0  0  0  0  0
    0.6680   -1.8421    1.4728 C   0  0  0  0  0  0  0  0  0  0  0  0
   -2.6561    1.1149    0.0649 C   0  0  0  0  0  0  0  0  0  0  0  0
    1.6502    1.6409   -0.3559 C   0  0  0  0  0  0  0  0  0  0  0  0
    2.7977   -0.5806   -0.3723 C   0  0  0  0  0  0  0  0  0  0  0  0
    2.8478    0.7449   -0.1543 C   0  0  0  0  0  0  0  0  0  0  0  0
   -3.3396    1.2916   -1.2907 C   0  0  0  0  0  0  0  0  0  0  0  0
   -3.6897    0.8258    1.1545 C   0  0  0  0  0  0  0  0  0  0  0  0
    4.1102    1.4129    0.3094 C   0  0  0  0  0  0  0  0  0  0  0  0
   -0.8199   -3.1355   -0.2291 H   0  0  0  0  0  0  0  0  0  0  0  0
   -0.6645   -2.1381   -1.6692 H   0  0  0  0  0  0  0  0  0  0  0  0
   -2.5704   -1.7903    0.6192 H   0  0  0  0  0  0  0  0  0  0  0  0
   -2.7752   -1.4483   -1.1149 H   0  0  0  0  0  0  0  0  0  0  0  0
    1.3255   -0.9471   -1.8525 H   0  0  0  0  0  0  0  0  0  0  0  0
    1.8717   -2.3697   -0.9984 H   0  0  0  0  0  0  0  0  0  0  0  0
   -0.1485    2.1967    0.6365 H   0  0  0  0  0  0  0  0  0  0  0  0
    0.8719    1.1758    1.6147 H   0  0  0  0  0  0  0  0  0  0  0  0
   -0.2262   -1.8858    2.1060 H   0  0  0  0  0  0  0  0  0  0  0  0
    1.0655   -2.8605    1.3957 H   0  0  0  0  0  0  0  0  0  0  0  0
    1.4101   -1.2351    2.0024 H   0  0  0  0  0  0  0  0  0  0  0  0
   -2.1885    2.0725    0.3136 H   0  0  0  0  0  0  0  0  0  0  0  0
    1.9508    2.6815   -0.1767 H   0  0  0  0  0  0  0  0  0  0  0  0
    1.3238    1.6035   -1.4030 H   0  0  0  0  0  0  0  0  0  0  0  0
    3.6912   -1.1803   -0.2149 H   0  0  0  0  0  0  0  0  0  0  0  0
   -3.9604    0.4311   -1.5615 H   0  0  0  0  0  0  0  0  0  0  0  0
   -2.6045    1.4478   -2.0882 H   0  0  0  0  0  0  0  0  0  0  0  0
   -3.9961    2.1690   -1.2716 H   0  0  0  0  0  0  0  0  0  0  0  0
   -3.2064    0.6723    2.1259 H   0  0  0  0  0  0  0  0  0  0  0  0
   -4.2911   -0.0617    0.9290 H   0  0  0  0  0  0  0  0  0  0  0  0
   -4.3802    1.6703    1.2579 H   0  0  0  0  0  0  0  0  0  0  0  0
    4.4317    2.1636   -0.4198 H   0  0  0  0  0  0  0  0  0  0  0  0
    4.9325    0.7015    0.4394 H   0  0  0  0  0  0  0  0  0  0  0  0
    3.9444    1.9089    1.2714 H   0  0  0  0  0  0  0  0  0  0  0  0
  1  2  1  0  0  0  0
  1  3  1  0  0  0  0
  1  6  1  0  0  0  0
  1  8  1  0  0  0  0
  2  4  2  0  0  0  0
  2  7  1  0  0  0  0
  3  5  1  0  0  0  0
  3 16  1  0  0  0  0
  3 17  1  0  0  0  0
  4  5  1  0  0  0  0
  4  9  1  0  0  0  0
  5 18  1  0  0  0  0
  5 19  1  0  0  0  0
  6 11  1  0  0  0  0
  6 20  1  0  0  0  0
  6 21  1  0  0  0  0
  7 10  1  0  0  0  0
  7 22  1  0  0  0  0
  7 23  1  0  0  0  0
  8 24  1  0  0  0  0
  8 25  1  0  0  0  0
  8 26  1  0  0  0  0
  9 13  1  0  0  0  0
  9 14  1  0  0  0  0
  9 27  1  0  0  0  0
 10 12  1  0  0  0  0
 10 28  1  0  0  0  0
 10 29  1  0  0  0  0
 11 12  2  0  0  0  0
 11 30  1  0  0  0  0
 12 15  1  0  0  0  0
 13 31  1  0  0  0  0
 13 32  1  0  0  0  0
 13 33  1  0  0  0  0
 14 34  1  0  0  0  0
 14 35  1  0  0  0  0
 14 36  1  0  0  0  0
 15 37  1  0  0  0  0
 15 38  1  0  0  0  0
 15 39  1  0  0  0  0
M  END
> <PUBCHEM_COMPOUND_CID>
177773

> <PUBCHEM_CONFORMER_RMSD>
0.6

> <PUBCHEM_CONFORMER_DIVERSEORDER>
2
9
8
3
10
6
1
4
5
11
7

> <PUBCHEM_MMFF94_PARTIAL_CHARGES>
12
1 0.14
10 0.14
11 -0.29
12 -0.28
15 0.14
2 -0.28
30 0.15
4 -0.28
5 0.14
6 0.14
7 0.14
9 0.14

> <PUBCHEM_EFFECTIVE_ROTOR_COUNT>
2

> <PUBCHEM_PHARMACOPHORE_FEATURES>
3
3 9 13 14 hydrophobe
5 1 2 3 4 5 rings
7 1 2 6 7 10 11 12 rings

> <PUBCHEM_HEAVY_ATOM_COUNT>
15

> <PUBCHEM_ATOM_DEF_STEREO_COUNT>
0

> <PUBCHEM_ATOM_UDEF_STEREO_COUNT>
1

> <PUBCHEM_BOND_DEF_STEREO_COUNT>
0

> <PUBCHEM_BOND_UDEF_STEREO_COUNT>
0

> <PUBCHEM_ISOTOPIC_ATOM_COUNT>
0

> <PUBCHEM_COMPONENT_COUNT>
1

> <PUBCHEM_CACTVS_TAUTO_COUNT>
1

> <PUBCHEM_CONFORMER_ID>
0002B66D00000002

> <PUBCHEM_MMFF94_ENERGY>
30.3111

> <PUBCHEM_FEATURE_SELFOVERLAP>
15.247

> <PUBCHEM_SHAPE_FINGERPRINT>
10062212 137 18341320180625594626
10608611 8 18269835479258470416
10922523 26 18410017649632405692
10967382 1 18341336599926656708
10980938 120 18336266747389296819
11132069 177 18411693305653998304
11543360 7 15410606025685684072
12491281 212 18131082527506980658
12654215 9 18118115879480321932
13140716 1 18412268302690180218
13380535 21 18340779199165966343
13380535 76 18341611537899839470
13571099 52 18333730225909547838
13583140 156 17313095363139710849
13897977 150 18342457053799234724
14289901 80 16588887688862038905
14897335 6 18413384345483093324
15536298 74 18201723933815790094
15775835 57 18408325496820991108
16945 1 18269280058113524846
18186145 218 18340776961435173380
18219364 16 18335423435283235237
19765921 60 18334574646391816458
20645476 183 17677631893909528894
21501502 16 18340208616897326670
21524375 3 18337109072101494039
22344851 341 18408887330162296882
22854114 111 18260270702864212049
231179 274 18114174199114448461
2334 1 18339924938528429574
23402539 116 18122333846724276919
23402655 69 18201147768427730653
23557571 272 17631459027950036046
23558518 356 17976254965230161473
23559900 14 18130792296157979264
25 1 18412549790509276220
2748010 2 18341062877408236998
305870 269 18040707057002805946
3060560 45 18197772207268340719
353137 74 18341052900025291001
528886 8 18202002109819897402
53812653 166 18343302591215521872
63268167 104 18413111640924644128
6333449 129 18271242823734088501
69090 78 18343864441535840151
7364860 26 18194117421917330514
7832392 63 18343868809491173852
81228 2 17688584279336011057

> <PUBCHEM_SHAPE_MULTIPOLES>
308.69
5.84
2.21
1.09
0.21
0.57
-0.13
-3.48
0.06
0.19
0.01
-0.47
0.12
0.1

> <PUBCHEM_SHAPE_SELFOVERLAP>
633.72

> <PUBCHEM_SHAPE_VOLUME>
175.8

> <PUBCHEM_COORDINATE_TYPE>
2
5
10

$$$$
