11009509
  -OEChem-08262006173D

 40 42  0     1  0  0  0  0  0999 V2000
   -2.7024    0.9444   -1.4139 O   0  0  0  0  0  0  0  0  0  0  0  0
   -0.4500   -0.7967    0.2786 C   0  0  1  0  0  0  0  0  0  0  0  0
   -0.5058    0.5639   -0.5019 C   0  0  2  0  0  0  0  0  0  0  0  0
    0.7391    1.3793    0.0051 C   0  0  0  0  0  0  0  0  0  0  0  0
    1.5843    0.3155    0.7786 C   0  0  1  0  0  0  0  0  0  0  0  0
    0.4919   -0.5029    1.4659 C   0  0  0  0  0  0  0  0  0  0  0  0
   -1.8871   -1.0938    0.7514 C   0  0  1  0  0  0  0  0  0  0  0  0
   -1.9119    1.1323   -0.2383 C   0  0  2  0  0  0  0  0  0  0  0  0
    0.2273   -1.9057   -0.5597 C   0  0  0  0  0  0  0  0  0  0  0  0
   -2.5030    0.3062    0.9029 C   0  0  0  0  0  0  0  0  0  0  0  0
    2.3920   -0.6499   -0.0781 C   0  0  0  0  0  0  0  0  0  0  0  0
    1.6280   -1.5109   -1.0572 C   0  0  0  0  0  0  0  0  0  0  0  0
    0.3890    2.5379    0.9689 C   0  0  0  0  0  0  0  0  0  0  0  0
    1.5012    2.0154   -1.1718 C   0  0  0  0  0  0  0  0  0  0  0  0
   -2.7149   -1.9711   -0.1891 C   0  0  0  0  0  0  0  0  0  0  0  0
    3.7221   -0.7638    0.0587 C   0  0  0  0  0  0  0  0  0  0  0  0
   -0.4050    0.3741   -1.5788 H   0  0  0  0  0  0  0  0  0  0  0  0
    2.2309    0.7903    1.5266 H   0  0  0  0  0  0  0  0  0  0  0  0
    0.8722   -1.4181    1.9364 H   0  0  0  0  0  0  0  0  0  0  0  0
    0.0020    0.0734    2.2574 H   0  0  0  0  0  0  0  0  0  0  0  0
   -1.8769   -1.5921    1.7290 H   0  0  0  0  0  0  0  0  0  0  0  0
   -1.9357    2.2018   -0.0262 H   0  0  0  0  0  0  0  0  0  0  0  0
   -0.3777   -2.1646   -1.4363 H   0  0  0  0  0  0  0  0  0  0  0  0
    0.3061   -2.8184    0.0458 H   0  0  0  0  0  0  0  0  0  0  0  0
   -3.5973    0.2772    0.8811 H   0  0  0  0  0  0  0  0  0  0  0  0
   -2.1992    0.7359    1.8642 H   0  0  0  0  0  0  0  0  0  0  0  0
    1.5241   -0.9605   -1.9995 H   0  0  0  0  0  0  0  0  0  0  0  0
    2.1858   -2.4235   -1.3013 H   0  0  0  0  0  0  0  0  0  0  0  0
   -0.1372    3.3468    0.4502 H   0  0  0  0  0  0  0  0  0  0  0  0
   -0.2342    2.2182    1.8084 H   0  0  0  0  0  0  0  0  0  0  0  0
    1.3007    2.9766    1.3920 H   0  0  0  0  0  0  0  0  0  0  0  0
    0.8881    2.7801   -1.6624 H   0  0  0  0  0  0  0  0  0  0  0  0
    2.4243    2.4954   -0.8275 H   0  0  0  0  0  0  0  0  0  0  0  0
    1.7740    1.2890   -1.9419 H   0  0  0  0  0  0  0  0  0  0  0  0
   -2.3266   -2.9950   -0.2025 H   0  0  0  0  0  0  0  0  0  0  0  0
   -3.7551   -2.0246    0.1500 H   0  0  0  0  0  0  0  0  0  0  0  0
   -2.7155   -1.5993   -1.2174 H   0  0  0  0  0  0  0  0  0  0  0  0
   -3.5983    1.2678   -1.2178 H   0  0  0  0  0  0  0  0  0  0  0  0
    4.2705   -0.1579    0.7721 H   0  0  0  0  0  0  0  0  0  0  0  0
    4.2922   -1.4635   -0.5432 H   0  0  0  0  0  0  0  0  0  0  0  0
  1  8  1  0  0  0  0
  1 38  1  0  0  0  0
  2  3  1  0  0  0  0
  2  6  1  0  0  0  0
  2  7  1  0  0  0  0
  2  9  1  0  0  0  0
  3  4  1  0  0  0  0
  3  8  1  0  0  0  0
  3 17  1  0  0  0  0
  4  5  1  0  0  0  0
  4 13  1  0  0  0  0
  4 14  1  0  0  0  0
  5  6  1  0  0  0  0
  5 11  1  0  0  0  0
  5 18  1  0  0  0  0
  6 19  1  0  0  0  0
  6 20  1  0  0  0  0
  7 10  1  0  0  0  0
  7 15  1  0  0  0  0
  7 21  1  0  0  0  0
  8 10  1  0  0  0  0
  8 22  1  0  0  0  0
  9 12  1  0  0  0  0
  9 23  1  0  0  0  0
  9 24  1  0  0  0  0
 10 25  1  0  0  0  0
 10 26  1  0  0  0  0
 11 12  1  0  0  0  0
 11 16  2  0  0  0  0
 12 27  1  0  0  0  0
 12 28  1  0  0  0  0
 13 29  1  0  0  0  0
 13 30  1  0  0  0  0
 13 31  1  0  0  0  0
 14 32  1  0  0  0  0
 14 33  1  0  0  0  0
 14 34  1  0  0  0  0
 15 35  1  0  0  0  0
 15 36  1  0  0  0  0
 15 37  1  0  0  0  0
 16 39  1  0  0  0  0
 16 40  1  0  0  0  0
M  END
> <PUBCHEM_COMPOUND_CID>
11009509

> <PUBCHEM_CONFORMER_RMSD>
0.6

> <PUBCHEM_CONFORMER_DIVERSEORDER>
1

> <PUBCHEM_MMFF94_PARTIAL_CHARGES>
9
1 -0.68
11 -0.28
12 0.14
16 -0.3
38 0.4
39 0.15
40 0.15
5 0.14
8 0.28

> <PUBCHEM_EFFECTIVE_ROTOR_COUNT>
1.4

> <PUBCHEM_PHARMACOPHORE_FEATURES>
5
1 1 acceptor
1 1 donor
3 4 13 14 hydrophobe
5 2 3 7 8 10 rings
8 2 3 4 5 6 9 11 12 rings

> <PUBCHEM_HEAVY_ATOM_COUNT>
16

> <PUBCHEM_ATOM_DEF_STEREO_COUNT>
5

> <PUBCHEM_ATOM_UDEF_STEREO_COUNT>
0

> <PUBCHEM_BOND_DEF_STEREO_COUNT>
0

> <PUBCHEM_BOND_UDEF_STEREO_COUNT>
0

> <PUBCHEM_ISOTOPIC_ATOM_COUNT>
0

> <PUBCHEM_COMPONENT_COUNT>
1

> <PUBCHEM_CACTVS_TAUTO_COUNT>
1

> <PUBCHEM_CONFORMER_ID>
00A7FDE500000001

> <PUBCHEM_MMFF94_ENERGY>
71.012

> <PUBCHEM_FEATURE_SELFOVERLAP>
25.432

> <PUBCHEM_SHAPE_FINGERPRINT>
10353120 184 18119547452151598393
10863032 1 18412263969104809192
12138202 97 18188481359693883071
12382932 28 18271531892308015202
12423570 1 15739390376325202338
12491281 212 17129299749557550049
12524768 44 18197500610400054991
13024252 1 15792596070616486746
13027679 85 18342464724489603633
13140716 1 18411423920577501808
13172582 1 18411424977186864162
13380535 220 18260547848471807468
14181834 199 18262245537706991828
144361 1 18189049965950265429
14614273 12 17758676646679274140
14817 1 17325426317288702144
15490181 7 17621887912400690168
15881359 60 17838018822946909663
16945 1 18198908006958645090
19010151 120 15338535198673798971
20511035 2 18191001573272466689
20588541 1 18267864982253259574
21501502 16 18265345060732412749
22344851 341 18186795920095681016
2334 1 18267589185260256992
23402539 116 18194951951358408950
23419403 2 15106806611986756294
23559900 14 18336540496796333354
2748010 2 18339635741306197656
3060560 45 17902481850138794061
353137 74 17975415715803997944
5084963 1 18262234546584916193
5255222 1 17907865346150763384
528886 8 18271243807339745106
68250623 7 18189628317714426082
7364860 26 18126849532394587696
81228 2 18051421660540183384

> <PUBCHEM_SHAPE_MULTIPOLES>
323.4
4.08
2.37
1.23
0.34
0.61
-0.01
-1.22
-0.28
0.05
-0.27
-0.09
0.22
0.18

> <PUBCHEM_SHAPE_SELFOVERLAP>
690.234

> <PUBCHEM_SHAPE_VOLUME>
184.4

> <PUBCHEM_COORDINATE_TYPE>
2
5
10

$$$$
