81747
  -OEChem-09112002533D

 22 22  0     0  0  0  0  0  0999 V2000
    2.7419   -1.0393    0.0002 O   0  0  0  0  0  0  0  0  0  0  0  0
   -0.3780    2.5733    0.0000 O   0  0  0  0  0  0  0  0  0  0  0  0
   -3.2034   -1.6539    0.0003 O   0  0  0  0  0  0  0  0  0  0  0  0
    1.4562   -0.5924    0.0003 C   0  0  0  0  0  0  0  0  0  0  0  0
   -0.1231    1.2360   -0.0009 C   0  0  0  0  0  0  0  0  0  0  0  0
   -0.9168   -1.0459   -0.0004 C   0  0  0  0  0  0  0  0  0  0  0  0
    1.1943    0.7777   -0.0002 C   0  0  0  0  0  0  0  0  0  0  0  0
    0.4006   -1.5042    0.0001 C   0  0  0  0  0  0  0  0  0  0  0  0
   -1.1786    0.3242   -0.0009 C   0  0  0  0  0  0  0  0  0  0  0  0
   -2.0178   -1.9963    0.0003 C   0  0  0  0  0  0  0  0  0  0  0  0
    3.7722   -0.0523    0.0003 C   0  0  0  0  0  0  0  0  0  0  0  0
   -1.7474    2.9730    0.0009 C   0  0  0  0  0  0  0  0  0  0  0  0
    1.9708    1.5357    0.0001 H   0  0  0  0  0  0  0  0  0  0  0  0
    0.6147   -2.5705    0.0004 H   0  0  0  0  0  0  0  0  0  0  0  0
   -2.2177    0.6357   -0.0010 H   0  0  0  0  0  0  0  0  0  0  0  0
   -1.7483   -3.0662    0.0009 H   0  0  0  0  0  0  0  0  0  0  0  0
    3.7460    0.5572   -0.9094 H   0  0  0  0  0  0  0  0  0  0  0  0
    3.7458    0.5572    0.9100 H   0  0  0  0  0  0  0  0  0  0  0  0
    4.7291   -0.5844    0.0004 H   0  0  0  0  0  0  0  0  0  0  0  0
   -2.2622    2.6463    0.9108 H   0  0  0  0  0  0  0  0  0  0  0  0
   -2.2629    2.6476   -0.9092 H   0  0  0  0  0  0  0  0  0  0  0  0
   -1.7638    4.0679    0.0018 H   0  0  0  0  0  0  0  0  0  0  0  0
  1  4  1  0  0  0  0
  1 11  1  0  0  0  0
  2  5  1  0  0  0  0
  2 12  1  0  0  0  0
  3 10  2  0  0  0  0
  4  7  2  0  0  0  0
  4  8  1  0  0  0  0
  5  7  1  0  0  0  0
  5  9  2  0  0  0  0
  6  8  2  0  0  0  0
  6  9  1  0  0  0  0
  6 10  1  0  0  0  0
  7 13  1  0  0  0  0
  8 14  1  0  0  0  0
  9 15  1  0  0  0  0
 10 16  1  0  0  0  0
 11 17  1  0  0  0  0
 11 18  1  0  0  0  0
 11 19  1  0  0  0  0
 12 20  1  0  0  0  0
 12 21  1  0  0  0  0
 12 22  1  0  0  0  0
M  END
> <PUBCHEM_COMPOUND_CID>
81747

> <PUBCHEM_CONFORMER_RMSD>
0.6

> <PUBCHEM_CONFORMER_DIVERSEORDER>
2
3
1

> <PUBCHEM_MMFF94_PARTIAL_CHARGES>
16
1 -0.36
10 0.42
11 0.28
12 0.28
13 0.15
14 0.15
15 0.15
16 0.06
2 -0.36
3 -0.57
4 0.08
5 0.08
6 0.09
7 -0.15
8 -0.15
9 -0.15

> <PUBCHEM_EFFECTIVE_ROTOR_COUNT>
3

> <PUBCHEM_PHARMACOPHORE_FEATURES>
4
1 1 acceptor
1 2 acceptor
1 3 acceptor
6 4 5 6 7 8 9 rings

> <PUBCHEM_HEAVY_ATOM_COUNT>
12

> <PUBCHEM_ATOM_DEF_STEREO_COUNT>
0

> <PUBCHEM_ATOM_UDEF_STEREO_COUNT>
0

> <PUBCHEM_BOND_DEF_STEREO_COUNT>
0

> <PUBCHEM_BOND_UDEF_STEREO_COUNT>
0

> <PUBCHEM_ISOTOPIC_ATOM_COUNT>
0

> <PUBCHEM_COMPONENT_COUNT>
1

> <PUBCHEM_CACTVS_TAUTO_COUNT>
1

> <PUBCHEM_CONFORMER_ID>
00013F5300000002

> <PUBCHEM_MMFF94_ENERGY>
47.155

> <PUBCHEM_FEATURE_SELFOVERLAP>
20.297

> <PUBCHEM_SHAPE_FINGERPRINT>
1 1 17184752394385849605
13380535 76 17908977717079298878
14648413 74 17615406295824049963
161256 15 18270114759512050784
16945 1 18338517417663473958
193761 8 18122624942301084243
20510252 161 18342455941792777240
20871998 184 18273496753994101086
20871998 22 18270695254206760566
21040471 1 17978509728655345476
21524375 3 17612317350975868288
23530152 11 17762619486754739813
23559900 14 17840029538653933526
241688 4 18410856602621124473
2748010 2 18268137824366817325
3071541 12 17762342813435525333
3071541 158 18044368555171726909
3071541 236 18117824521720332249
54173680 148 18337954493585591859
68521 5 18410014342375666924
7364860 26 17691689308562376603
81228 2 18336837411093399944

> <PUBCHEM_SHAPE_MULTIPOLES>
229.35
4.19
2.95
0.59
2.96
1.9
0
-1.38
0
-2.76
0
0.01
0
0

> <PUBCHEM_SHAPE_SELFOVERLAP>
474.42

> <PUBCHEM_SHAPE_VOLUME>
132.6

> <PUBCHEM_COORDINATE_TYPE>
2
5
10

$$$$
