6429112
  -OEChem-11202020483D

 25 25  0     0  0  0  0  0  0999 V2000
    3.8656    0.8064    0.0007 O   0  0  0  0  0  0  0  0  0  0  0  0
   -2.6235   -0.2478   -0.0021 C   0  0  0  0  0  0  0  0  0  0  0  0
   -1.1246   -0.1781   -0.0015 C   0  0  0  0  0  0  0  0  0  0  0  0
   -0.3995   -1.5034   -0.0032 C   0  0  0  0  0  0  0  0  0  0  0  0
   -0.4675    0.9955    0.0002 C   0  0  0  0  0  0  0  0  0  0  0  0
    1.0305    1.1117    0.0006 C   0  0  0  0  0  0  0  0  0  0  0  0
   -3.1493    0.4135    1.2628 C   0  0  0  0  0  0  0  0  0  0  0  0
   -3.1642    0.4249   -1.2542 C   0  0  0  0  0  0  0  0  0  0  0  0
    1.0994   -1.3911   -0.0026 C   0  0  0  0  0  0  0  0  0  0  0  0
    1.7341   -0.2106   -0.0009 C   0  0  0  0  0  0  0  0  0  0  0  0
    3.1990   -0.2210    0.0002 C   0  0  0  0  0  0  0  0  0  0  0  0
   -2.9489   -1.2955   -0.0052 H   0  0  0  0  0  0  0  0  0  0  0  0
   -0.7004   -2.0750   -0.8894 H   0  0  0  0  0  0  0  0  0  0  0  0
   -0.7009   -2.0775    0.8813 H   0  0  0  0  0  0  0  0  0  0  0  0
   -1.0119    1.9357    0.0010 H   0  0  0  0  0  0  0  0  0  0  0  0
    1.3315    1.6862   -0.8835 H   0  0  0  0  0  0  0  0  0  0  0  0
    1.3310    1.6839    0.8865 H   0  0  0  0  0  0  0  0  0  0  0  0
   -2.9491    1.4902    1.2951 H   0  0  0  0  0  0  0  0  0  0  0  0
   -2.7145   -0.0401    2.1609 H   0  0  0  0  0  0  0  0  0  0  0  0
   -4.2363    0.2885    1.3283 H   0  0  0  0  0  0  0  0  0  0  0  0
   -2.7381   -0.0200   -2.1607 H   0  0  0  0  0  0  0  0  0  0  0  0
   -2.9639    1.5017   -1.2786 H   0  0  0  0  0  0  0  0  0  0  0  0
   -4.2517    0.3001   -1.3092 H   0  0  0  0  0  0  0  0  0  0  0  0
    1.6542   -2.3257   -0.0035 H   0  0  0  0  0  0  0  0  0  0  0  0
    3.6820   -1.2127    0.0001 H   0  0  0  0  0  0  0  0  0  0  0  0
  1 11  2  0  0  0  0
  2  3  1  0  0  0  0
  2  7  1  0  0  0  0
  2  8  1  0  0  0  0
  2 12  1  0  0  0  0
  3  4  1  0  0  0  0
  3  5  2  0  0  0  0
  4  9  1  0  0  0  0
  4 13  1  0  0  0  0
  4 14  1  0  0  0  0
  5  6  1  0  0  0  0
  5 15  1  0  0  0  0
  6 10  1  0  0  0  0
  6 16  1  0  0  0  0
  6 17  1  0  0  0  0
  7 18  1  0  0  0  0
  7 19  1  0  0  0  0
  7 20  1  0  0  0  0
  8 21  1  0  0  0  0
  8 22  1  0  0  0  0
  8 23  1  0  0  0  0
  9 10  2  0  0  0  0
  9 24  1  0  0  0  0
 10 11  1  0  0  0  0
 11 25  1  0  0  0  0
M  END
> <PUBCHEM_COMPOUND_CID>
6429112

> <PUBCHEM_CONFORMER_RMSD>
0.6

> <PUBCHEM_CONFORMER_DIVERSEORDER>
1
3
2

> <PUBCHEM_MMFF94_PARTIAL_CHARGES>
12
1 -0.57
10 -0.12
11 0.5
15 0.15
2 0.14
24 0.15
25 0.06
3 -0.28
4 0.28
5 -0.29
6 0.28
9 -0.29

> <PUBCHEM_EFFECTIVE_ROTOR_COUNT>
2.4

> <PUBCHEM_PHARMACOPHORE_FEATURES>
3
1 1 acceptor
3 2 7 8 hydrophobe
6 3 4 5 6 9 10 rings

> <PUBCHEM_HEAVY_ATOM_COUNT>
11

> <PUBCHEM_ATOM_DEF_STEREO_COUNT>
0

> <PUBCHEM_ATOM_UDEF_STEREO_COUNT>
0

> <PUBCHEM_BOND_DEF_STEREO_COUNT>
0

> <PUBCHEM_BOND_UDEF_STEREO_COUNT>
0

> <PUBCHEM_ISOTOPIC_ATOM_COUNT>
0

> <PUBCHEM_COMPONENT_COUNT>
1

> <PUBCHEM_CACTVS_TAUTO_COUNT>
1

> <PUBCHEM_CONFORMER_ID>
006219B800000001

> <PUBCHEM_MMFF94_ENERGY>
5.7446

> <PUBCHEM_FEATURE_SELFOVERLAP>
15.223

> <PUBCHEM_SHAPE_FINGERPRINT>
10219947 1 18335421257491859284
11062470 55 17748823007822176564
11132069 177 18411972581601866880
11543360 7 15697711623017068840
124424 183 17458332022910458369
12932764 1 17967249810242488859
14325111 11 18410855456002032038
14993402 34 17846489348747123381
15219456 202 17895474713731621559
15775835 57 17846224315126826305
16945 1 18410855447285516390
17844478 74 17894921715212189301
18186145 218 18341899588772089164
19026448 4 16443345360310107106
19026448 5 16486975081211886566
193761 8 17618222149218058950
20201158 50 18333447621251021135
20279233 1 17821730511843320539
20645477 70 18263916644788850015
20711983 171 16415484796461202273
21293036 1 18411410730843646911
23235685 24 18411979169754690306
23402539 116 17775564209147653020
23402655 69 18266440037581963973
2748010 2 18123469650840969364
5084963 1 18263078967483915707
528886 8 18412539920563647323
63268167 104 18341045238035399067

> <PUBCHEM_SHAPE_MULTIPOLES>
220.51
5.7
1.3
0.9
1.32
0.26
0
-1.18
0
0.34
0
-0.94
-0.11
0

> <PUBCHEM_SHAPE_SELFOVERLAP>
441.854

> <PUBCHEM_SHAPE_VOLUME>
130.3

> <PUBCHEM_COORDINATE_TYPE>
2
5
10

$$$$
