51351709
  -OEChem-11202020523D

 39 40  0     1  0  0  0  0  0999 V2000
   -0.3587   -0.9849    0.4354 C   0  0  1  0  0  0  0  0  0  0  0  0
    1.2272    0.7719   -0.6314 C   0  0  2  0  0  0  0  0  0  0  0  0
    0.4887   -2.1078   -0.2261 C   0  0  1  0  0  0  0  0  0  0  0  0
   -0.1887    0.3468   -0.2906 C   0  0  0  0  0  0  0  0  0  0  0  0
    2.0102   -0.3799   -1.2713 C   0  0  0  0  0  0  0  0  0  0  0  0
    1.9428   -1.6658   -0.4532 C   0  0  0  0  0  0  0  0  0  0  0  0
   -1.8433   -1.4138    0.5196 C   0  0  0  0  0  0  0  0  0  0  0  0
    1.9384    1.3265    0.6079 C   0  0  0  0  0  0  0  0  0  0  0  0
   -2.7704   -0.2383    0.8144 C   0  0  0  0  0  0  0  0  0  0  0  0
   -1.2325    1.1357   -0.6098 C   0  0  0  0  0  0  0  0  0  0  0  0
    0.4776   -3.4028    0.5935 C   0  0  0  0  0  0  0  0  0  0  0  0
   -2.5966    0.8475   -0.2128 C   0  0  0  0  0  0  0  0  0  0  0  0
    1.1706    2.5169    1.1727 C   0  0  0  0  0  0  0  0  0  0  0  0
    3.3720    1.7192    0.2665 C   0  0  0  0  0  0  0  0  0  0  0  0
   -3.6371    1.5288   -0.7147 C   0  0  0  0  0  0  0  0  0  0  0  0
    0.0015   -0.8350    1.4629 H   0  0  0  0  0  0  0  0  0  0  0  0
    1.1890    1.5724   -1.3850 H   0  0  0  0  0  0  0  0  0  0  0  0
    0.0567   -2.3373   -1.2107 H   0  0  0  0  0  0  0  0  0  0  0  0
    1.5674   -0.5859   -2.2566 H   0  0  0  0  0  0  0  0  0  0  0  0
    3.0507   -0.1209   -1.4851 H   0  0  0  0  0  0  0  0  0  0  0  0
    2.4559   -1.5321    0.5064 H   0  0  0  0  0  0  0  0  0  0  0  0
    2.4863   -2.4532   -0.9901 H   0  0  0  0  0  0  0  0  0  0  0  0
   -2.1536   -1.8856   -0.4228 H   0  0  0  0  0  0  0  0  0  0  0  0
   -1.9696   -2.1667    1.3065 H   0  0  0  0  0  0  0  0  0  0  0  0
    1.9869    0.5694    1.4006 H   0  0  0  0  0  0  0  0  0  0  0  0
   -3.8070   -0.5952    0.8422 H   0  0  0  0  0  0  0  0  0  0  0  0
   -2.5437    0.1669    1.8090 H   0  0  0  0  0  0  0  0  0  0  0  0
   -1.0651    2.0555   -1.1651 H   0  0  0  0  0  0  0  0  0  0  0  0
    0.8307   -3.2274    1.6153 H   0  0  0  0  0  0  0  0  0  0  0  0
   -0.5261   -3.8345    0.6475 H   0  0  0  0  0  0  0  0  0  0  0  0
    1.1275   -4.1571    0.1366 H   0  0  0  0  0  0  0  0  0  0  0  0
    0.2060    2.2231    1.5978 H   0  0  0  0  0  0  0  0  0  0  0  0
    1.7345    2.9858    1.9873 H   0  0  0  0  0  0  0  0  0  0  0  0
    0.9977    3.2845    0.4104 H   0  0  0  0  0  0  0  0  0  0  0  0
    3.4194    2.3431   -0.6325 H   0  0  0  0  0  0  0  0  0  0  0  0
    4.0144    0.8452    0.1239 H   0  0  0  0  0  0  0  0  0  0  0  0
    3.8199    2.2918    1.0869 H   0  0  0  0  0  0  0  0  0  0  0  0
   -4.6532    1.3120   -0.4009 H   0  0  0  0  0  0  0  0  0  0  0  0
   -3.5042    2.3174   -1.4487 H   0  0  0  0  0  0  0  0  0  0  0  0
  1  3  1  0  0  0  0
  1  4  1  0  0  0  0
  1  7  1  0  0  0  0
  1 16  1  0  0  0  0
  2  4  1  0  0  0  0
  2  5  1  0  0  0  0
  2  8  1  0  0  0  0
  2 17  1  0  0  0  0
  3  6  1  0  0  0  0
  3 11  1  0  0  0  0
  3 18  1  0  0  0  0
  4 10  2  0  0  0  0
  5  6  1  0  0  0  0
  5 19  1  0  0  0  0
  5 20  1  0  0  0  0
  6 21  1  0  0  0  0
  6 22  1  0  0  0  0
  7  9  1  0  0  0  0
  7 23  1  0  0  0  0
  7 24  1  0  0  0  0
  8 13  1  0  0  0  0
  8 14  1  0  0  0  0
  8 25  1  0  0  0  0
  9 12  1  0  0  0  0
  9 26  1  0  0  0  0
  9 27  1  0  0  0  0
 10 12  1  0  0  0  0
 10 28  1  0  0  0  0
 11 29  1  0  0  0  0
 11 30  1  0  0  0  0
 11 31  1  0  0  0  0
 12 15  2  0  0  0  0
 13 32  1  0  0  0  0
 13 33  1  0  0  0  0
 13 36  1  0  0  0  0
 14 34  1  0  0  0  0
 14 35  1  0  0  0  0
 14 37  1  0  0  0  0
 15 38  1  0  0  0  0
 15 39  1  0  0  0  0
M  END
> <PUBCHEM_COMPOUND_CID>
51351709

> <PUBCHEM_CONFORMER_RMSD>
0.6

> <PUBCHEM_CONFORMER_DIVERSEORDER>
1

> <PUBCHEM_MMFF94_PARTIAL_CHARGES>
10
1 0.14
10 -0.15
12 -0.14
15 -0.3
2 0.14
28 0.15
38 0.15
39 0.15
4 -0.28
9 0.14

> <PUBCHEM_EFFECTIVE_ROTOR_COUNT>
2.2

> <PUBCHEM_PHARMACOPHORE_FEATURES>
3
3 8 13 14 hydrophobe
6 1 2 3 4 5 6 rings
6 1 4 7 9 10 12 rings

> <PUBCHEM_HEAVY_ATOM_COUNT>
15

> <PUBCHEM_ATOM_DEF_STEREO_COUNT>
3

> <PUBCHEM_ATOM_UDEF_STEREO_COUNT>
0

> <PUBCHEM_BOND_DEF_STEREO_COUNT>
0

> <PUBCHEM_BOND_UDEF_STEREO_COUNT>
0

> <PUBCHEM_ISOTOPIC_ATOM_COUNT>
0

> <PUBCHEM_COMPONENT_COUNT>
1

> <PUBCHEM_CACTVS_TAUTO_COUNT>
1

> <PUBCHEM_CONFORMER_ID>
030F909D00000001

> <PUBCHEM_MMFF94_ENERGY>
26.923

> <PUBCHEM_FEATURE_SELFOVERLAP>
15.244

> <PUBCHEM_SHAPE_FINGERPRINT>
1 1 18409445847630178399
12326174 3 17988364771592040324
12423570 1 14905128511204511437
12654215 9 18337670793752434020
12716301 132 18265047119051738064
13140716 1 18409174281137777499
13380535 76 18269550697082738150
13464514 151 18270401572806432896
14617773 55 17260472465987783322
14761567 1 18048338659610118054
14790565 3 12864954595584821786
14817 1 10903068407325910248
15001771 113 17256252544755690134
15219456 202 18410296916853559621
15279308 132 18337682991802400470
15490181 7 18411419557044034263
15852999 172 17823391899719591375
16945 1 17972333818928675039
18186145 218 18272384060948241060
19049666 15 18264209106502763737
20511035 2 18261399948397993918
20645477 70 18129372718760434461
20871998 184 17903925791798800955
21029758 11 17760920745410869191
21041028 32 17330852222841324777
21501502 16 18411129264304013255
21524375 3 18198623430910200950
21947302 44 18342736295282168621
220403 375 18055055808209462112
2334 1 18337680818153420279
23402539 116 17837483425245946847
23419403 2 16764850385839393132
23493267 7 17168445812343703152
23526113 38 18198637540146670766
25 1 18272940435502040828
2748010 2 18335434486007228199
2803657 2 17621613712972043608
305870 269 18335975432732292330
495365 180 18268410366318259805
5255222 1 18262806159624627511
53812653 166 18409172073487455940
7364860 26 18267016163745832475
81228 2 17474660028228280915

> <PUBCHEM_SHAPE_MULTIPOLES>
308.69
4.55
3.15
1.05
2.02
1.85
-0.01
-2.73
-0.3
-1.25
0.81
-0.14
-0.18
1

> <PUBCHEM_SHAPE_SELFOVERLAP>
630.017

> <PUBCHEM_SHAPE_VOLUME>
176.4

> <PUBCHEM_COORDINATE_TYPE>
2
5
10

$$$$
