12444409
  -OEChem-10022010463D

 38 41  0     0  0  0  0  0  0999 V2000
   -0.2966    2.3467    0.3073 O   0  0  0  0  0  0  0  0  0  0  0  0
   -4.5336   -1.0788   -0.2154 O   0  0  0  0  0  0  0  0  0  0  0  0
   -4.9570    1.2914   -0.1189 O   0  0  0  0  0  0  0  0  0  0  0  0
   -1.9314   -2.2145   -0.0741 O   0  0  0  0  0  0  0  0  0  0  0  0
    0.5951   -1.6368    0.1881 O   0  0  0  0  0  0  0  0  0  0  0  0
    3.0261    0.3456   -2.0144 O   0  0  0  0  0  0  0  0  0  0  0  0
   -1.0555    0.0406    0.1192 C   0  0  0  0  0  0  0  0  0  0  0  0
   -1.3031    1.4228    0.1760 C   0  0  0  0  0  0  0  0  0  0  0  0
   -2.1101   -0.8703   -0.0135 C   0  0  0  0  0  0  0  0  0  0  0  0
   -3.3884   -0.3542   -0.0858 C   0  0  0  0  0  0  0  0  0  0  0  0
   -3.6306    0.9996   -0.0302 C   0  0  0  0  0  0  0  0  0  0  0  0
    1.3926    0.6017    0.3251 C   0  0  0  0  0  0  0  0  0  0  0  0
    0.3362   -0.4402    0.2048 C   0  0  0  0  0  0  0  0  0  0  0  0
   -2.6083    1.9170    0.1007 C   0  0  0  0  0  0  0  0  0  0  0  0
    2.8228    0.2570    0.3788 C   0  0  0  0  0  0  0  0  0  0  0  0
    0.9943    1.8820    0.3642 C   0  0  0  0  0  0  0  0  0  0  0  0
   -5.5229   -0.0298   -0.2364 C   0  0  0  0  0  0  0  0  0  0  0  0
    3.5848    0.1421   -0.7872 C   0  0  0  0  0  0  0  0  0  0  0  0
    3.4248    0.0421    1.6215 C   0  0  0  0  0  0  0  0  0  0  0  0
    4.9385   -0.1852   -0.7108 C   0  0  0  0  0  0  0  0  0  0  0  0
    4.7785   -0.2853    1.6978 C   0  0  0  0  0  0  0  0  0  0  0  0
    5.5354   -0.3991    0.5317 C   0  0  0  0  0  0  0  0  0  0  0  0
   -2.5586   -3.0029    0.9387 C   0  0  0  0  0  0  0  0  0  0  0  0
    2.4670   -0.7918   -2.6670 C   0  0  0  0  0  0  0  0  0  0  0  0
   -2.8117    2.9814    0.1435 H   0  0  0  0  0  0  0  0  0  0  0  0
    1.6751    2.7206    0.4453 H   0  0  0  0  0  0  0  0  0  0  0  0
   -6.2198   -0.1883    0.5945 H   0  0  0  0  0  0  0  0  0  0  0  0
   -6.0792   -0.0909   -1.1789 H   0  0  0  0  0  0  0  0  0  0  0  0
    2.8497    0.1255    2.5408 H   0  0  0  0  0  0  0  0  0  0  0  0
    5.5348   -0.2752   -1.6148 H   0  0  0  0  0  0  0  0  0  0  0  0
    5.2433   -0.4520    2.6651 H   0  0  0  0  0  0  0  0  0  0  0  0
    6.5894   -0.6540    0.5912 H   0  0  0  0  0  0  0  0  0  0  0  0
   -1.9490   -3.8980    1.0935 H   0  0  0  0  0  0  0  0  0  0  0  0
   -3.5511   -3.3205    0.6072 H   0  0  0  0  0  0  0  0  0  0  0  0
   -2.6267   -2.4652    1.8907 H   0  0  0  0  0  0  0  0  0  0  0  0
    1.3864   -0.8131   -2.5035 H   0  0  0  0  0  0  0  0  0  0  0  0
    2.9131   -1.7304   -2.3205 H   0  0  0  0  0  0  0  0  0  0  0  0
    2.6512   -0.6944   -3.7406 H   0  0  0  0  0  0  0  0  0  0  0  0
  1  8  1  0  0  0  0
  1 16  1  0  0  0  0
  2 10  1  0  0  0  0
  2 17  1  0  0  0  0
  3 11  1  0  0  0  0
  3 17  1  0  0  0  0
  4  9  1  0  0  0  0
  4 23  1  0  0  0  0
  5 13  2  0  0  0  0
  6 18  1  0  0  0  0
  6 24  1  0  0  0  0
  7  8  1  0  0  0  0
  7  9  2  0  0  0  0
  7 13  1  0  0  0  0
  8 14  2  0  0  0  0
  9 10  1  0  0  0  0
 10 11  2  0  0  0  0
 11 14  1  0  0  0  0
 12 13  1  0  0  0  0
 12 15  1  0  0  0  0
 12 16  2  0  0  0  0
 14 25  1  0  0  0  0
 15 18  1  0  0  0  0
 15 19  2  0  0  0  0
 16 26  1  0  0  0  0
 17 27  1  0  0  0  0
 17 28  1  0  0  0  0
 18 20  2  0  0  0  0
 19 21  1  0  0  0  0
 19 29  1  0  0  0  0
 20 22  1  0  0  0  0
 20 30  1  0  0  0  0
 21 22  2  0  0  0  0
 21 31  1  0  0  0  0
 22 32  1  0  0  0  0
 23 33  1  0  0  0  0
 23 34  1  0  0  0  0
 23 35  1  0  0  0  0
 24 36  1  0  0  0  0
 24 37  1  0  0  0  0
 24 38  1  0  0  0  0
M  END
> <PUBCHEM_COMPOUND_CID>
12444409

> <PUBCHEM_CONFORMER_RMSD>
0.6

> <PUBCHEM_CONFORMER_DIVERSEORDER>
1
5
4
3
6
8
7
2

> <PUBCHEM_MMFF94_PARTIAL_CHARGES>
30
1 -0.16
10 0.08
11 0.08
12 -0.01
13 0.47
14 -0.15
15 0.03
16 -0.07
17 0.56
18 0.08
19 -0.15
2 -0.36
20 -0.15
21 -0.15
22 -0.15
23 0.28
24 0.28
25 0.15
26 0.15
29 0.15
3 -0.36
30 0.15
31 0.15
32 0.15
4 -0.36
5 -0.57
6 -0.36
7 0.09
8 0.08
9 0.08

> <PUBCHEM_EFFECTIVE_ROTOR_COUNT>
3.6

> <PUBCHEM_PHARMACOPHORE_FEATURES>
10
1 1 acceptor
1 2 acceptor
1 3 acceptor
1 4 acceptor
1 5 acceptor
1 6 acceptor
5 2 3 10 11 17 rings
6 1 7 8 12 13 16 rings
6 15 18 19 20 21 22 rings
6 7 8 9 10 11 14 rings

> <PUBCHEM_HEAVY_ATOM_COUNT>
24

> <PUBCHEM_ATOM_DEF_STEREO_COUNT>
0

> <PUBCHEM_ATOM_UDEF_STEREO_COUNT>
0

> <PUBCHEM_BOND_DEF_STEREO_COUNT>
0

> <PUBCHEM_BOND_UDEF_STEREO_COUNT>
0

> <PUBCHEM_ISOTOPIC_ATOM_COUNT>
0

> <PUBCHEM_COMPONENT_COUNT>
1

> <PUBCHEM_CACTVS_TAUTO_COUNT>
1

> <PUBCHEM_CONFORMER_ID>
00BDE2F900000001

> <PUBCHEM_MMFF94_ENERGY>
95.6524

> <PUBCHEM_FEATURE_SELFOVERLAP>
50.951

> <PUBCHEM_SHAPE_FINGERPRINT>
10 15 17774141493395052986
10062212 137 18113616815359573458
10366900 7 16917356939447743848
10906281 52 18271822219302266385
11370993 70 16272205306089801702
11578080 2 13469314815618795025
11646440 116 18131357418884506361
11963148 33 18409721898507423011
12011746 2 18411412904545517445
12236239 1 17749107781887593520
12403814 3 17458340810788261629
12788726 201 18341343227098761104
13140716 1 18267018539094810761
13402501 40 18060420196803417486
13726171 33 17977421465394664764
13862211 1 18411129256225736171
14115302 16 18040436611406931830
14294032 229 17898571965258609813
14386348 63 17918279748738039060
15042514 8 18336263557020315675
15196674 1 18339074999214042385
15375358 24 17918273151583921742
15788980 27 17749389247889442568
16752209 62 18335700516075729777
16988056 13 14801484924835936108
17349148 13 18334573529600007916
17804303 29 18411978091834301081
19141452 34 17561078146363501415
200 152 16588021290589375356
20511986 3 17894620487907841844
20600515 1 18410572902904673292
20645477 70 16559037047895741958
21033648 29 16844993642000557560
21033650 10 18045806506281303884
21267235 1 18410577318811074459
21285901 2 18059301963112862605
21781051 124 18041862670026581419
22182313 1 17988650644488635773
22224240 67 16415183599638161910
23175994 123 17275101747531936609
23402539 116 18342727520980312325
23557571 272 18201444640645782892
23559900 14 18342464742492204372
23569943 247 17558844879392708455
2748010 2 18051409866717951633
2838139 119 16516231948151789677
3004659 81 18259705593048623612
335352 9 18410288125772962181
4340502 62 15410889686768652140
5104073 3 18340769368307703561
59755656 215 18339081484905147486
67856867 119 18115026450113719548
9709674 26 18197775720751963809

> <PUBCHEM_SHAPE_MULTIPOLES>
458.69
11.22
2.08
1.42
0.64
0.58
0.76
0.89
-0.4
-2.36
-0.43
2.33
0.35
0.34

> <PUBCHEM_SHAPE_SELFOVERLAP>
1030.492

> <PUBCHEM_SHAPE_VOLUME>
241.7

> <PUBCHEM_COORDINATE_TYPE>
2
5
10

$$$$
