101418138
  -OEChem-10022010453D

 40 42  0     0  0  0  0  0  0999 V2000
    0.2836   -1.9006    0.7738 O   0  0  0  0  0  0  0  0  0  0  0  0
    4.9037   -1.0785    0.1128 O   0  0  0  0  0  0  0  0  0  0  0  0
    1.7886    2.4071   -0.8371 O   0  0  0  0  0  0  0  0  0  0  0  0
   -0.7074    1.8550   -0.4762 O   0  0  0  0  0  0  0  0  0  0  0  0
   -3.4279   -1.6816   -1.1238 O   0  0  0  0  0  0  0  0  0  0  0  0
    5.1393    2.0354    0.3940 O   0  0  0  0  0  0  0  0  0  0  0  0
    0.9840    0.2779   -0.0353 C   0  0  0  0  0  0  0  0  0  0  0  0
    1.2628   -1.0205    0.3903 C   0  0  0  0  0  0  0  0  0  0  0  0
    3.3416    0.6767   -0.3667 C   0  0  0  0  0  0  0  0  0  0  0  0
    2.0230    1.1313   -0.4157 C   0  0  0  0  0  0  0  0  0  0  0  0
   -1.4470   -0.2473    0.3624 C   0  0  0  0  0  0  0  0  0  0  0  0
   -0.4177    0.7329   -0.0813 C   0  0  0  0  0  0  0  0  0  0  0  0
    3.6206   -0.6224    0.0596 C   0  0  0  0  0  0  0  0  0  0  0  0
    2.5818   -1.4727    0.4384 C   0  0  0  0  0  0  0  0  0  0  0  0
   -2.8790    0.0913    0.4027 C   0  0  0  0  0  0  0  0  0  0  0  0
   -1.0168   -1.4587    0.7464 C   0  0  0  0  0  0  0  0  0  0  0  0
    4.4630    1.5811   -0.7699 C   0  0  0  0  0  0  0  0  0  0  0  0
   -3.8113   -0.6353   -0.3378 C   0  0  0  0  0  0  0  0  0  0  0  0
   -3.2984    1.1578    1.1978 C   0  0  0  0  0  0  0  0  0  0  0  0
   -5.1631   -0.2955   -0.2832 C   0  0  0  0  0  0  0  0  0  0  0  0
   -4.6502    1.4979    1.2524 C   0  0  0  0  0  0  0  0  0  0  0  0
   -5.5825    0.7712    0.5119 C   0  0  0  0  0  0  0  0  0  0  0  0
    5.0962   -2.4188    0.5603 C   0  0  0  0  0  0  0  0  0  0  0  0
   -3.0871   -1.3837   -2.4758 C   0  0  0  0  0  0  0  0  0  0  0  0
    2.7302   -2.4921    0.7785 H   0  0  0  0  0  0  0  0  0  0  0  0
   -1.6678   -2.2493    1.0995 H   0  0  0  0  0  0  0  0  0  0  0  0
    5.1754    1.0461   -1.4085 H   0  0  0  0  0  0  0  0  0  0  0  0
    4.1257    2.4532   -1.3383 H   0  0  0  0  0  0  0  0  0  0  0  0
   -2.5880    1.7332    1.7868 H   0  0  0  0  0  0  0  0  0  0  0  0
   -5.8955   -0.8572   -0.8567 H   0  0  0  0  0  0  0  0  0  0  0  0
   -4.9770    2.3275    1.8724 H   0  0  0  0  0  0  0  0  0  0  0  0
    0.8442    2.6184   -0.7932 H   0  0  0  0  0  0  0  0  0  0  0  0
   -6.6350    1.0357    0.5547 H   0  0  0  0  0  0  0  0  0  0  0  0
    5.8733    2.5994    0.0962 H   0  0  0  0  0  0  0  0  0  0  0  0
    4.7717   -2.5493    1.5983 H   0  0  0  0  0  0  0  0  0  0  0  0
    4.6317   -3.1425   -0.1182 H   0  0  0  0  0  0  0  0  0  0  0  0
    6.1739   -2.6127    0.5394 H   0  0  0  0  0  0  0  0  0  0  0  0
   -2.7602   -2.3091   -2.9579 H   0  0  0  0  0  0  0  0  0  0  0  0
   -2.2693   -0.6580   -2.5238 H   0  0  0  0  0  0  0  0  0  0  0  0
   -3.9601   -0.9996   -3.0130 H   0  0  0  0  0  0  0  0  0  0  0  0
  1  8  1  0  0  0  0
  1 16  1  0  0  0  0
  2 13  1  0  0  0  0
  2 23  1  0  0  0  0
  3 10  1  0  0  0  0
  3 32  1  0  0  0  0
  4 12  2  0  0  0  0
  5 18  1  0  0  0  0
  5 24  1  0  0  0  0
  6 17  1  0  0  0  0
  6 34  1  0  0  0  0
  7  8  1  0  0  0  0
  7 10  2  0  0  0  0
  7 12  1  0  0  0  0
  8 14  2  0  0  0  0
  9 10  1  0  0  0  0
  9 13  2  0  0  0  0
  9 17  1  0  0  0  0
 11 12  1  0  0  0  0
 11 15  1  0  0  0  0
 11 16  2  0  0  0  0
 13 14  1  0  0  0  0
 14 25  1  0  0  0  0
 15 18  1  0  0  0  0
 15 19  2  0  0  0  0
 16 26  1  0  0  0  0
 17 27  1  0  0  0  0
 17 28  1  0  0  0  0
 18 20  2  0  0  0  0
 19 21  1  0  0  0  0
 19 29  1  0  0  0  0
 20 22  1  0  0  0  0
 20 30  1  0  0  0  0
 21 22  2  0  0  0  0
 21 31  1  0  0  0  0
 22 33  1  0  0  0  0
 23 35  1  0  0  0  0
 23 36  1  0  0  0  0
 23 37  1  0  0  0  0
 24 38  1  0  0  0  0
 24 39  1  0  0  0  0
 24 40  1  0  0  0  0
M  END
> <PUBCHEM_COMPOUND_CID>
101418138

> <PUBCHEM_CONFORMER_RMSD>
0.8

> <PUBCHEM_CONFORMER_DIVERSEORDER>
3
5
6
2
7
1
4

> <PUBCHEM_MMFF94_PARTIAL_CHARGES>
32
1 -0.16
10 0.08
11 -0.01
12 0.47
13 0.08
14 -0.15
15 0.03
16 -0.07
17 0.42
18 0.08
19 -0.15
2 -0.36
20 -0.15
21 -0.15
22 -0.15
23 0.28
24 0.28
25 0.15
26 0.15
29 0.15
3 -0.53
30 0.15
31 0.15
32 0.45
33 0.15
34 0.4
4 -0.57
5 -0.36
6 -0.68
7 0.09
8 0.08
9 -0.14

> <PUBCHEM_EFFECTIVE_ROTOR_COUNT>
4

> <PUBCHEM_PHARMACOPHORE_FEATURES>
10
1 1 acceptor
1 2 acceptor
1 3 donor
1 4 acceptor
1 5 acceptor
1 6 acceptor
1 6 donor
6 1 7 8 11 12 16 rings
6 15 18 19 20 21 22 rings
6 7 8 9 10 13 14 rings

> <PUBCHEM_HEAVY_ATOM_COUNT>
24

> <PUBCHEM_ATOM_DEF_STEREO_COUNT>
0

> <PUBCHEM_ATOM_UDEF_STEREO_COUNT>
0

> <PUBCHEM_BOND_DEF_STEREO_COUNT>
0

> <PUBCHEM_BOND_UDEF_STEREO_COUNT>
0

> <PUBCHEM_ISOTOPIC_ATOM_COUNT>
0

> <PUBCHEM_COMPONENT_COUNT>
1

> <PUBCHEM_CACTVS_TAUTO_COUNT>
5

> <PUBCHEM_CONFORMER_ID>
060B849A00000003

> <PUBCHEM_MMFF94_ENERGY>
95.9378

> <PUBCHEM_FEATURE_SELFOVERLAP>
50.777

> <PUBCHEM_SHAPE_FINGERPRINT>
10062212 137 18344143700599803647
10366900 7 14273457007263765185
10595046 47 18271524298742441159
10906281 52 18262253191665727886
11471102 20 18260269654997667376
12107183 9 17693666917653362449
12236239 1 18342458136737329985
12403259 415 17240478087475782847
12553582 1 18115016407846880026
12616971 3 18411133615164062310
12788726 201 18130243561681502384
13073987 5 18410296947044951067
13140716 1 18260557744150564178
13167823 11 18344145899353968919
13533116 47 18410857638351749458
13760787 5 18260267442831105606
13782708 43 16515411772074390643
13862211 1 18188208693821918002
14739800 52 17774430690153918864
14790565 3 18408891711039468569
15081414 286 18113340829804929972
15196674 1 18335144206141715539
15788980 27 18202566167969911083
17349148 13 18408035204382085930
1813 80 18188783729559810622
18186145 218 17530961401660312539
19489759 90 16486973956225802363
200 152 18413105056792513787
20028762 73 18341046328878860894
20511986 3 18342164566658356465
20612939 158 18260831492285501295
20645477 70 18113616781500981914
20739085 24 18114756940393311660
21033648 144 18187640344925664166
21033648 29 16732975419001098495
21033650 10 17486807170905056872
21267235 1 18262809466543944506
22182313 1 17531512218721454804
23402539 116 18411132498546411818
23402655 69 18342741831531735141
23557571 272 15625959624239115361
23559900 14 18261677064836960642
268830 7 18333728018117042160
29717793 49 18202000984643850727
335352 9 18261679190408383510
34797466 226 16630252509936325096
34934 24 18335984285213666760
350125 39 18261960622567341812
474 4 18260833743091256313
5104073 3 18408046221015171530
602551 16 16558460984990675063
633830 44 18335422361156510214
9971528 1 18261112976353618276
9981440 41 17547282766932763913

> <PUBCHEM_SHAPE_MULTIPOLES>
458.69
12.1
2.3
1.23
0.23
0.11
-0.57
0.66
0.82
2.03
-0.11
-1.22
-0.31
-2.16

> <PUBCHEM_SHAPE_SELFOVERLAP>
1010.687

> <PUBCHEM_SHAPE_VOLUME>
248

> <PUBCHEM_COORDINATE_TYPE>
2
5
10

$$$$
