25242923
  -OEChem-10022011472D

 74 74  0     0  0  0  0  0  0999 V2000
   11.5263    7.7500    0.0000 O   0  0  0  0  0  0  0  0  0  0  0  0
    8.0622    7.7500    0.0000 O   0  0  0  0  0  0  0  0  0  0  0  0
    6.3301   -1.2500    0.0000 C   0  0  0  0  0  0  0  0  0  0  0  0
    5.4641   -1.7500    0.0000 C   0  0  0  0  0  0  0  0  0  0  0  0
    6.3301   -0.2500    0.0000 C   0  0  0  0  0  0  0  0  0  0  0  0
    5.4641   -2.7500    0.0000 C   0  0  0  0  0  0  0  0  0  0  0  0
    7.1962    0.2500    0.0000 C   0  0  0  0  0  0  0  0  0  0  0  0
    4.5981   -3.2500    0.0000 C   0  0  0  0  0  0  0  0  0  0  0  0
    7.1962    1.2500    0.0000 C   0  0  0  0  0  0  0  0  0  0  0  0
    4.5981   -4.2500    0.0000 C   0  0  0  0  0  0  0  0  0  0  0  0
    8.0622    1.7500    0.0000 C   0  0  0  0  0  0  0  0  0  0  0  0
    3.7320   -4.7500    0.0000 C   0  0  0  0  0  0  0  0  0  0  0  0
    8.0622    2.7500    0.0000 C   0  0  0  0  0  0  0  0  0  0  0  0
    3.7320   -5.7500    0.0000 C   0  0  0  0  0  0  0  0  0  0  0  0
    8.9282    3.2500    0.0000 C   0  0  0  0  0  0  0  0  0  0  0  0
    2.8660   -6.2500    0.0000 C   0  0  0  0  0  0  0  0  0  0  0  0
    8.9282    4.2500    0.0000 C   0  0  0  0  0  0  0  0  0  0  0  0
    2.8660   -7.2500    0.0000 C   0  0  0  0  0  0  0  0  0  0  0  0
    9.7942    4.7500    0.0000 C   0  0  0  0  0  0  0  0  0  0  0  0
    2.0000   -7.7500    0.0000 C   0  0  0  0  0  0  0  0  0  0  0  0
    9.7942    5.7500    0.0000 C   0  0  0  0  0  0  0  0  0  0  0  0
    2.0000   -8.7500    0.0000 C   0  0  0  0  0  0  0  0  0  0  0  0
    8.9282    6.2500    0.0000 C   0  0  0  0  0  0  0  0  0  0  0  0
   10.6603    6.2500    0.0000 C   0  0  0  0  0  0  0  0  0  0  0  0
   10.6603    7.2500    0.0000 C   0  0  0  0  0  0  0  0  0  0  0  0
    8.9282    7.2500    0.0000 C   0  0  0  0  0  0  0  0  0  0  0  0
    9.7942    7.7500    0.0000 C   0  0  0  0  0  0  0  0  0  0  0  0
    9.7942    8.7500    0.0000 C   0  0  0  0  0  0  0  0  0  0  0  0
    6.5422   -1.8326    0.0000 H   0  0  0  0  0  0  0  0  0  0  0  0
    6.9407   -1.1423    0.0000 H   0  0  0  0  0  0  0  0  0  0  0  0
    5.2520   -1.1674    0.0000 H   0  0  0  0  0  0  0  0  0  0  0  0
    4.8535   -1.8577    0.0000 H   0  0  0  0  0  0  0  0  0  0  0  0
    6.1181    0.3326    0.0000 H   0  0  0  0  0  0  0  0  0  0  0  0
    5.7196   -0.3577    0.0000 H   0  0  0  0  0  0  0  0  0  0  0  0
    5.6762   -3.3326    0.0000 H   0  0  0  0  0  0  0  0  0  0  0  0
    6.0747   -2.6423    0.0000 H   0  0  0  0  0  0  0  0  0  0  0  0
    7.4082   -0.3326    0.0000 H   0  0  0  0  0  0  0  0  0  0  0  0
    7.8067    0.3577    0.0000 H   0  0  0  0  0  0  0  0  0  0  0  0
    4.3860   -2.6674    0.0000 H   0  0  0  0  0  0  0  0  0  0  0  0
    3.9875   -3.3577    0.0000 H   0  0  0  0  0  0  0  0  0  0  0  0
    6.9841    1.8326    0.0000 H   0  0  0  0  0  0  0  0  0  0  0  0
    6.5856    1.1423    0.0000 H   0  0  0  0  0  0  0  0  0  0  0  0
    4.8101   -4.8326    0.0000 H   0  0  0  0  0  0  0  0  0  0  0  0
    5.2087   -4.1423    0.0000 H   0  0  0  0  0  0  0  0  0  0  0  0
    8.2742    1.1674    0.0000 H   0  0  0  0  0  0  0  0  0  0  0  0
    8.6728    1.8577    0.0000 H   0  0  0  0  0  0  0  0  0  0  0  0
    3.5200   -4.1674    0.0000 H   0  0  0  0  0  0  0  0  0  0  0  0
    3.1215   -4.8577    0.0000 H   0  0  0  0  0  0  0  0  0  0  0  0
    7.8501    3.3326    0.0000 H   0  0  0  0  0  0  0  0  0  0  0  0
    7.4516    2.6423    0.0000 H   0  0  0  0  0  0  0  0  0  0  0  0
    3.9441   -6.3326    0.0000 H   0  0  0  0  0  0  0  0  0  0  0  0
    4.3426   -5.6423    0.0000 H   0  0  0  0  0  0  0  0  0  0  0  0
    9.1403    2.6674    0.0000 H   0  0  0  0  0  0  0  0  0  0  0  0
    9.5388    3.3577    0.0000 H   0  0  0  0  0  0  0  0  0  0  0  0
    2.6540   -5.6674    0.0000 H   0  0  0  0  0  0  0  0  0  0  0  0
    2.2554   -6.3577    0.0000 H   0  0  0  0  0  0  0  0  0  0  0  0
    8.7162    4.8326    0.0000 H   0  0  0  0  0  0  0  0  0  0  0  0
    8.3176    4.1423    0.0000 H   0  0  0  0  0  0  0  0  0  0  0  0
    3.0781   -7.8326    0.0000 H   0  0  0  0  0  0  0  0  0  0  0  0
    3.4766   -7.1423    0.0000 H   0  0  0  0  0  0  0  0  0  0  0  0
   10.0063    4.1674    0.0000 H   0  0  0  0  0  0  0  0  0  0  0  0
   10.4048    4.8577    0.0000 H   0  0  0  0  0  0  0  0  0  0  0  0
    1.7880   -7.1674    0.0000 H   0  0  0  0  0  0  0  0  0  0  0  0
    1.3894   -7.8577    0.0000 H   0  0  0  0  0  0  0  0  0  0  0  0
    1.3800   -8.7500    0.0000 H   0  0  0  0  0  0  0  0  0  0  0  0
    2.0000   -9.3700    0.0000 H   0  0  0  0  0  0  0  0  0  0  0  0
    2.6200   -8.7500    0.0000 H   0  0  0  0  0  0  0  0  0  0  0  0
    8.3913    5.9400    0.0000 H   0  0  0  0  0  0  0  0  0  0  0  0
   11.1972    5.9400    0.0000 H   0  0  0  0  0  0  0  0  0  0  0  0
   10.4142    8.7500    0.0000 H   0  0  0  0  0  0  0  0  0  0  0  0
    9.7942    9.3700    0.0000 H   0  0  0  0  0  0  0  0  0  0  0  0
    9.1742    8.7500    0.0000 H   0  0  0  0  0  0  0  0  0  0  0  0
   12.0632    7.4400    0.0000 H   0  0  0  0  0  0  0  0  0  0  0  0
    7.5252    7.4400    0.0000 H   0  0  0  0  0  0  0  0  0  0  0  0
  1 25  1  0  0  0  0
  1 73  1  0  0  0  0
  2 26  1  0  0  0  0
  2 74  1  0  0  0  0
  3  4  1  0  0  0  0
  3  5  1  0  0  0  0
  3 29  1  0  0  0  0
  3 30  1  0  0  0  0
  4  6  1  0  0  0  0
  4 31  1  0  0  0  0
  4 32  1  0  0  0  0
  5  7  1  0  0  0  0
  5 33  1  0  0  0  0
  5 34  1  0  0  0  0
  6  8  1  0  0  0  0
  6 35  1  0  0  0  0
  6 36  1  0  0  0  0
  7  9  1  0  0  0  0
  7 37  1  0  0  0  0
  7 38  1  0  0  0  0
  8 10  1  0  0  0  0
  8 39  1  0  0  0  0
  8 40  1  0  0  0  0
  9 11  1  0  0  0  0
  9 41  1  0  0  0  0
  9 42  1  0  0  0  0
 10 12  1  0  0  0  0
 10 43  1  0  0  0  0
 10 44  1  0  0  0  0
 11 13  1  0  0  0  0
 11 45  1  0  0  0  0
 11 46  1  0  0  0  0
 12 14  1  0  0  0  0
 12 47  1  0  0  0  0
 12 48  1  0  0  0  0
 13 15  1  0  0  0  0
 13 49  1  0  0  0  0
 13 50  1  0  0  0  0
 14 16  1  0  0  0  0
 14 51  1  0  0  0  0
 14 52  1  0  0  0  0
 15 17  1  0  0  0  0
 15 53  1  0  0  0  0
 15 54  1  0  0  0  0
 16 18  1  0  0  0  0
 16 55  1  0  0  0  0
 16 56  1  0  0  0  0
 17 19  1  0  0  0  0
 17 57  1  0  0  0  0
 17 58  1  0  0  0  0
 18 20  1  0  0  0  0
 18 59  1  0  0  0  0
 18 60  1  0  0  0  0
 19 21  1  0  0  0  0
 19 61  1  0  0  0  0
 19 62  1  0  0  0  0
 20 22  1  0  0  0  0
 20 63  1  0  0  0  0
 20 64  1  0  0  0  0
 21 23  2  0  0  0  0
 21 24  1  0  0  0  0
 22 65  1  0  0  0  0
 22 66  1  0  0  0  0
 22 67  1  0  0  0  0
 23 26  1  0  0  0  0
 23 68  1  0  0  0  0
 24 25  2  0  0  0  0
 24 69  1  0  0  0  0
 25 27  1  0  0  0  0
 26 27  2  0  0  0  0
 27 28  1  0  0  0  0
 28 70  1  0  0  0  0
 28 71  1  0  0  0  0
 28 72  1  0  0  0  0
M  END
> <PUBCHEM_COMPOUND_CID>
25242923

> <PUBCHEM_COMPOUND_CANONICALIZED>
1

> <PUBCHEM_CACTVS_COMPLEXITY>
318

> <PUBCHEM_CACTVS_HBOND_ACCEPTOR>
2

> <PUBCHEM_CACTVS_HBOND_DONOR>
2

> <PUBCHEM_CACTVS_ROTATABLE_BOND>
18

> <PUBCHEM_CACTVS_SUBSKEYS>
AAADcfB4MAAAAAAAAAAAAAAAAAAAAAAAAAAwAAAAAAAAAAABAAAAGgAACAAADASAmAAyBoAAAgCAAiBCAAACAAAgIAAAiAAGCIgIJyKCERKAcAAlwBUImAeA4PQOQAABCAAIAACAAAIQABAAAAAAAAAAAA==

> <PUBCHEM_IUPAC_OPENEYE_NAME>
2-methyl-5-nonadecyl-benzene-1,3-diol

> <PUBCHEM_IUPAC_CAS_NAME>
2-methyl-5-nonadecylbenzene-1,3-diol

> <PUBCHEM_IUPAC_NAME_MARKUP>
2-methyl-5-nonadecylbenzene-1,3-diol

> <PUBCHEM_IUPAC_NAME>
2-methyl-5-nonadecylbenzene-1,3-diol

> <PUBCHEM_IUPAC_SYSTEMATIC_NAME>
2-methyl-5-nonadecyl-benzene-1,3-diol

> <PUBCHEM_IUPAC_TRADITIONAL_NAME>
2-methyl-5-nonadecyl-resorcinol

> <PUBCHEM_IUPAC_INCHI>
InChI=1S/C26H46O2/c1-3-4-5-6-7-8-9-10-11-12-13-14-15-16-17-18-19-20-24-21-25(27)23(2)26(28)22-24/h21-22,27-28H,3-20H2,1-2H3

> <PUBCHEM_IUPAC_INCHIKEY>
GBHKLFZDHYFGKG-UHFFFAOYSA-N

> <PUBCHEM_XLOGP3_AA>
11.6

> <PUBCHEM_EXACT_MASS>
390.349781

> <PUBCHEM_MOLECULAR_FORMULA>
C26H46O2

> <PUBCHEM_MOLECULAR_WEIGHT>
390.6

> <PUBCHEM_OPENEYE_CAN_SMILES>
CCCCCCCCCCCCCCCCCCCC1=CC(=C(C(=C1)O)C)O

> <PUBCHEM_OPENEYE_ISO_SMILES>
CCCCCCCCCCCCCCCCCCCC1=CC(=C(C(=C1)O)C)O

> <PUBCHEM_CACTVS_TPSA>
40.5

> <PUBCHEM_MONOISOTOPIC_WEIGHT>
390.349781

> <PUBCHEM_TOTAL_CHARGE>
0

> <PUBCHEM_HEAVY_ATOM_COUNT>
28

> <PUBCHEM_ATOM_DEF_STEREO_COUNT>
0

> <PUBCHEM_ATOM_UDEF_STEREO_COUNT>
0

> <PUBCHEM_BOND_DEF_STEREO_COUNT>
0

> <PUBCHEM_BOND_UDEF_STEREO_COUNT>
0

> <PUBCHEM_ISOTOPIC_ATOM_COUNT>
0

> <PUBCHEM_COMPONENT_COUNT>
1

> <PUBCHEM_CACTVS_TAUTO_COUNT>
-1

> <PUBCHEM_COORDINATE_TYPE>
1
5
255

> <PUBCHEM_BONDANNOTATIONS>
21  23  8
21  24  8
23  26  8
24  25  8
25  27  8
26  27  8

$$$$
