25756094
  -OEChem-09102009013D

 32 33  0     0  0  0  0  0  0999 V2000
    4.6148    1.6796   -0.4645 O   0  0  0  0  0  0  0  0  0  0  0  0
    3.4350   -2.8412    0.5125 O   0  0  0  0  0  0  0  0  0  0  0  0
   -5.7827   -1.2658   -0.9497 O   0  0  0  0  0  0  0  0  0  0  0  0
    1.3472    0.1365    0.1100 C   0  0  0  0  0  0  0  0  0  0  0  0
   -2.5214    0.0347    0.0784 C   0  0  0  0  0  0  0  0  0  0  0  0
    2.3193    1.1002   -0.1587 C   0  0  0  0  0  0  0  0  0  0  0  0
   -0.0758    0.5171    0.1536 C   0  0  0  0  0  0  0  0  0  0  0  0
    1.7220   -1.1879    0.3354 C   0  0  0  0  0  0  0  0  0  0  0  0
    3.6659    0.7395   -0.2020 C   0  0  0  0  0  0  0  0  0  0  0  0
   -1.1170   -0.3381    0.0181 C   0  0  0  0  0  0  0  0  0  0  0  0
    3.0688   -1.5488    0.2919 C   0  0  0  0  0  0  0  0  0  0  0  0
    4.0407   -0.5849    0.0234 C   0  0  0  0  0  0  0  0  0  0  0  0
   -3.4903   -0.8044   -0.4720 C   0  0  0  0  0  0  0  0  0  0  0  0
   -2.8995    1.2313    0.6877 C   0  0  0  0  0  0  0  0  0  0  0  0
   -4.8373   -0.4469   -0.4131 C   0  0  0  0  0  0  0  0  0  0  0  0
   -4.2464    1.5887    0.7464 C   0  0  0  0  0  0  0  0  0  0  0  0
   -5.2154    0.7497    0.1959 C   0  0  0  0  0  0  0  0  0  0  0  0
    5.9723    1.2409   -0.4934 C   0  0  0  0  0  0  0  0  0  0  0  0
    2.0396    2.1361   -0.3379 H   0  0  0  0  0  0  0  0  0  0  0  0
   -0.2444    1.5819    0.2892 H   0  0  0  0  0  0  0  0  0  0  0  0
    0.9918   -1.9578    0.5684 H   0  0  0  0  0  0  0  0  0  0  0  0
   -0.9403   -1.3937   -0.1696 H   0  0  0  0  0  0  0  0  0  0  0  0
    5.0699   -0.9277    0.0034 H   0  0  0  0  0  0  0  0  0  0  0  0
   -3.2088   -1.7397   -0.9509 H   0  0  0  0  0  0  0  0  0  0  0  0
   -2.1848    1.9057    1.1497 H   0  0  0  0  0  0  0  0  0  0  0  0
   -4.5420    2.5177    1.2251 H   0  0  0  0  0  0  0  0  0  0  0  0
   -6.2615    1.0391    0.2494 H   0  0  0  0  0  0  0  0  0  0  0  0
    2.6377   -3.3723    0.6810 H   0  0  0  0  0  0  0  0  0  0  0  0
    6.5901    2.1172   -0.7155 H   0  0  0  0  0  0  0  0  0  0  0  0
    6.1444    0.5171   -1.2972 H   0  0  0  0  0  0  0  0  0  0  0  0
    6.2940    0.8626    0.4828 H   0  0  0  0  0  0  0  0  0  0  0  0
   -6.6586   -0.8634   -0.8196 H   0  0  0  0  0  0  0  0  0  0  0  0
  1  9  1  0  0  0  0
  1 18  1  0  0  0  0
  2 11  1  0  0  0  0
  2 28  1  0  0  0  0
  3 15  1  0  0  0  0
  3 32  1  0  0  0  0
  4  6  1  0  0  0  0
  4  7  1  0  0  0  0
  4  8  2  0  0  0  0
  5 10  1  0  0  0  0
  5 13  2  0  0  0  0
  5 14  1  0  0  0  0
  6  9  2  0  0  0  0
  6 19  1  0  0  0  0
  7 10  2  0  0  0  0
  7 20  1  0  0  0  0
  8 11  1  0  0  0  0
  8 21  1  0  0  0  0
  9 12  1  0  0  0  0
 10 22  1  0  0  0  0
 11 12  2  0  0  0  0
 12 23  1  0  0  0  0
 13 15  1  0  0  0  0
 13 24  1  0  0  0  0
 14 16  2  0  0  0  0
 14 25  1  0  0  0  0
 15 17  2  0  0  0  0
 16 17  1  0  0  0  0
 16 26  1  0  0  0  0
 17 27  1  0  0  0  0
 18 29  1  0  0  0  0
 18 30  1  0  0  0  0
 18 31  1  0  0  0  0
M  END
> <PUBCHEM_COMPOUND_CID>
25756094

> <PUBCHEM_CONFORMER_RMSD>
0.6

> <PUBCHEM_CONFORMER_DIVERSEORDER>
11
1
6
12
2
8
9
3
7
10
4
5

> <PUBCHEM_MMFF94_PARTIAL_CHARGES>
29
1 -0.36
10 -0.18
11 0.08
12 -0.15
13 -0.15
14 -0.15
15 0.08
16 -0.15
17 -0.15
18 0.28
19 0.15
2 -0.53
20 0.15
21 0.15
22 0.15
23 0.15
24 0.15
25 0.15
26 0.15
27 0.15
28 0.45
3 -0.53
32 0.45
4 0.03
5 0.03
6 -0.15
7 -0.18
8 -0.15
9 0.08

> <PUBCHEM_EFFECTIVE_ROTOR_COUNT>
3

> <PUBCHEM_PHARMACOPHORE_FEATURES>
5
1 1 acceptor
1 2 donor
1 3 donor
6 4 6 8 9 11 12 rings
6 5 13 14 15 16 17 rings

> <PUBCHEM_HEAVY_ATOM_COUNT>
18

> <PUBCHEM_ATOM_DEF_STEREO_COUNT>
0

> <PUBCHEM_ATOM_UDEF_STEREO_COUNT>
0

> <PUBCHEM_BOND_DEF_STEREO_COUNT>
1

> <PUBCHEM_BOND_UDEF_STEREO_COUNT>
0

> <PUBCHEM_ISOTOPIC_ATOM_COUNT>
0

> <PUBCHEM_COMPONENT_COUNT>
1

> <PUBCHEM_CACTVS_TAUTO_COUNT>
8

> <PUBCHEM_CONFORMER_ID>
018901BE0000000B

> <PUBCHEM_MMFF94_ENERGY>
61.4911

> <PUBCHEM_FEATURE_SELFOVERLAP>
25.371

> <PUBCHEM_SHAPE_FINGERPRINT>
10595046 47 18412544314573601857
10616163 171 18271245027411696335
10693767 8 18199759059894455142
10912923 1 18343021060551767163
11471102 20 18334296466061125376
12107183 9 17691972561703079721
12236239 1 18272370867019548356
12616999 72 17418098698070149222
13073987 5 18409732842114397321
13167823 11 18342174440930562159
13533116 47 18412258420265792187
13631057 29 18194965369005572803
13760787 19 18272089404780085566
14251718 22 18060139868303529765
14251764 18 18131072637225887505
14528608 73 18412266159670070596
14576447 43 18342171202139858807
15196674 1 18411700950547793339
15242433 33 18412545405437331231
15250474 111 18342725313457676575
17834072 33 18413388739340171045
18186145 218 17385727958698191667
18335252 98 18260555567398678043
18681886 176 17703789254143963712
200 152 18342736334574911441
20279233 1 16225767415194573433
20281475 54 18341044125586121883
20612939 158 18334297535444776006
20645477 70 18336263449224126806
21054139 6 18339637966252504438
21065198 48 18341895160644937225
21267235 1 18341620299628004319
220451 1 18273218595164561899
22646028 1 18342735200476756955
2297311 6 16988852700218738833
23402539 116 18273491265622034589
23402655 69 18412826884503137958
23559900 14 18270953665662532129
29717793 49 18130787811067020743
300161 21 18409726257607980257
3004659 81 18341896234455690206
33824 294 18187364316352574074
34797466 226 16988569064710220680
3545911 37 18335142020177383033
4073 2 18041005063409028507
4214541 1 18341894057070606625
42630746 31 18409448081899336950
474 4 18114186388479658100
5104073 3 18341332210760160019
5281201 14 17749388113917694262
542803 24 17988926660725598953
573450 72 18130220455094332099
633830 44 17895195446468204779
67856867 119 18412537704803589064
7062679 117 18342458188150577439
7164475 11 18265896856930644648
77779 3 18411138004915706625
8272917 22 18338521846239272246
90127 26 17604151411355353053
9709674 26 18341338807851583431
9971528 1 17821733805956590948

> <PUBCHEM_SHAPE_MULTIPOLES>
352.82
13.98
1.9
0.77
3.06
0.69
0
-1.92
-2.12
-1.56
0.2
0.32
0.01
-1.68

> <PUBCHEM_SHAPE_SELFOVERLAP>
757.025

> <PUBCHEM_SHAPE_VOLUME>
195.6

> <PUBCHEM_COORDINATE_TYPE>
2
5
10

$$$$
