11390848
  -OEChem-09102009003D

 32 34  0     0  0  0  0  0  0999 V2000
    1.0124   -2.3939   -0.0957 O   0  0  0  0  0  0  0  0  0  0  0  0
    4.8162    0.3878   -0.1406 O   0  0  0  0  0  0  0  0  0  0  0  0
   -5.0255   -0.1847   -0.0826 O   0  0  0  0  0  0  0  0  0  0  0  0
    0.4116    2.5381   -0.0726 C   0  0  0  0  0  0  0  0  0  0  0  0
   -0.8863    2.3208    0.7053 C   0  0  0  0  0  0  0  0  0  0  0  0
    1.2637    1.2916   -0.0821 C   0  0  0  0  0  0  0  0  0  0  0  0
    0.6430    0.0207   -0.1314 C   0  0  0  0  0  0  0  0  0  0  0  0
   -1.5958    1.0666    0.2546 C   0  0  0  0  0  0  0  0  0  0  0  0
   -0.8384   -0.0625   -0.1382 C   0  0  0  0  0  0  0  0  0  0  0  0
    1.4766   -1.1116   -0.1574 C   0  0  0  0  0  0  0  0  0  0  0  0
    2.6616    1.4083   -0.0999 C   0  0  0  0  0  0  0  0  0  0  0  0
   -2.9975    1.0149    0.2845 C   0  0  0  0  0  0  0  0  0  0  0  0
   -1.5417   -1.2144   -0.5328 C   0  0  0  0  0  0  0  0  0  0  0  0
    3.4608    0.2701   -0.1347 C   0  0  0  0  0  0  0  0  0  0  0  0
    2.8692   -0.9879   -0.1589 C   0  0  0  0  0  0  0  0  0  0  0  0
   -3.6658   -0.1420   -0.1030 C   0  0  0  0  0  0  0  0  0  0  0  0
   -2.9391   -1.2532   -0.5156 C   0  0  0  0  0  0  0  0  0  0  0  0
    0.8750   -2.9687    1.2010 C   0  0  0  0  0  0  0  0  0  0  0  0
    0.9572    3.3756    0.3779 H   0  0  0  0  0  0  0  0  0  0  0  0
    0.1900    2.8085   -1.1130 H   0  0  0  0  0  0  0  0  0  0  0  0
   -1.5299    3.1982    0.5706 H   0  0  0  0  0  0  0  0  0  0  0  0
   -0.6747    2.2268    1.7781 H   0  0  0  0  0  0  0  0  0  0  0  0
    3.1200    2.3945   -0.0836 H   0  0  0  0  0  0  0  0  0  0  0  0
   -3.5678    1.8820    0.6092 H   0  0  0  0  0  0  0  0  0  0  0  0
   -1.0503   -2.0989   -0.9209 H   0  0  0  0  0  0  0  0  0  0  0  0
    3.4964   -1.8765   -0.1698 H   0  0  0  0  0  0  0  0  0  0  0  0
   -3.4470   -2.1588   -0.8376 H   0  0  0  0  0  0  0  0  0  0  0  0
    5.0513    1.3313   -0.1198 H   0  0  0  0  0  0  0  0  0  0  0  0
    0.2703   -2.3305    1.8534 H   0  0  0  0  0  0  0  0  0  0  0  0
    1.8593   -3.1349    1.6498 H   0  0  0  0  0  0  0  0  0  0  0  0
    0.3730   -3.9344    1.0957 H   0  0  0  0  0  0  0  0  0  0  0  0
   -5.3181   -1.0625   -0.3826 H   0  0  0  0  0  0  0  0  0  0  0  0
  1 10  1  0  0  0  0
  1 18  1  0  0  0  0
  2 14  1  0  0  0  0
  2 28  1  0  0  0  0
  3 16  1  0  0  0  0
  3 32  1  0  0  0  0
  4  5  1  0  0  0  0
  4  6  1  0  0  0  0
  4 19  1  0  0  0  0
  4 20  1  0  0  0  0
  5  8  1  0  0  0  0
  5 21  1  0  0  0  0
  5 22  1  0  0  0  0
  6  7  2  0  0  0  0
  6 11  1  0  0  0  0
  7  9  1  0  0  0  0
  7 10  1  0  0  0  0
  8  9  2  0  0  0  0
  8 12  1  0  0  0  0
  9 13  1  0  0  0  0
 10 15  2  0  0  0  0
 11 14  2  0  0  0  0
 11 23  1  0  0  0  0
 12 16  2  0  0  0  0
 12 24  1  0  0  0  0
 13 17  2  0  0  0  0
 13 25  1  0  0  0  0
 14 15  1  0  0  0  0
 15 26  1  0  0  0  0
 16 17  1  0  0  0  0
 17 27  1  0  0  0  0
 18 29  1  0  0  0  0
 18 30  1  0  0  0  0
 18 31  1  0  0  0  0
M  END
> <PUBCHEM_COMPOUND_CID>
11390848

> <PUBCHEM_CONFORMER_RMSD>
0.6

> <PUBCHEM_CONFORMER_DIVERSEORDER>
1
2

> <PUBCHEM_MMFF94_PARTIAL_CHARGES>
23
1 -0.36
10 0.08
11 -0.15
12 -0.15
13 -0.15
14 0.08
15 -0.15
16 0.08
17 -0.15
18 0.28
2 -0.53
23 0.15
24 0.15
25 0.15
26 0.15
27 0.15
28 0.45
3 -0.53
32 0.45
4 0.14
5 0.14
6 -0.14
8 -0.14

> <PUBCHEM_EFFECTIVE_ROTOR_COUNT>
1.4

> <PUBCHEM_PHARMACOPHORE_FEATURES>
6
1 1 acceptor
1 2 donor
1 3 donor
6 4 5 6 7 8 9 rings
6 6 7 10 11 14 15 rings
6 8 9 12 13 16 17 rings

> <PUBCHEM_HEAVY_ATOM_COUNT>
18

> <PUBCHEM_ATOM_DEF_STEREO_COUNT>
0

> <PUBCHEM_ATOM_UDEF_STEREO_COUNT>
0

> <PUBCHEM_BOND_DEF_STEREO_COUNT>
0

> <PUBCHEM_BOND_UDEF_STEREO_COUNT>
0

> <PUBCHEM_ISOTOPIC_ATOM_COUNT>
0

> <PUBCHEM_COMPONENT_COUNT>
1

> <PUBCHEM_CACTVS_TAUTO_COUNT>
32

> <PUBCHEM_CONFORMER_ID>
00ADCF8000000001

> <PUBCHEM_MMFF94_ENERGY>
65.2773

> <PUBCHEM_FEATURE_SELFOVERLAP>
30.49

> <PUBCHEM_SHAPE_FINGERPRINT>
108231 29 18197500825158722712
10967382 1 18411700997460156727
10980938 120 18410013191387767419
11132069 177 18342734130950902432
11471102 20 18410851083925836989
11680986 33 17834676372297280160
11806522 49 18413107290122747261
12553582 1 18340758295681261135
13132413 78 18341894082529395109
13140716 1 18267865167005451385
13221675 6 18413953879784987655
13862211 1 18411976970863556934
14178342 30 18195799675055903392
14223421 5 18195246611599758230
14787075 74 18200307848691451568
14790565 3 18338527420595704108
15196674 1 18340770338421561932
15375462 189 18410009918907635139
15442244 35 18052258388524793922
15536298 74 18201158767527453238
16945 1 18340485539282712340
193761 8 17978509732908251236
19591789 44 18050288364831733491
200 152 18272928328289686573
20510252 161 17916871209707845873
20645476 183 17827092988712651476
20645477 70 18340484474621466223
20905425 154 18198625423911929764
21267235 1 18341623623974714191
21421861 104 17970908847553405147
21501502 16 18123471583507849832
221490 88 18121503719887680235
22445834 79 18339362963827970651
23184049 29 17977943479982742826
2334 1 18195809797734364572
23388829 49 18411983529072935045
23402539 116 18270955843121079038
23463225 33 18411700980343753524
23559900 14 17984417430575672478
25 1 18334572468764509663
2748010 2 16394649446104320452
2871803 45 18410572855622583740
3312278 4 18411983555064031537
335352 9 18413108368249398085
34934 24 18341607084314022677
353137 74 18411416168114007384
43471831 8 18335980866303934170
5104073 3 18341051813408706035
53655031 270 18413389834451440428
537710 114 18412548729589290973
57005193 9 18412255134436020863
7364860 26 18270401568696030126
8809292 202 18263084477547330395

> <PUBCHEM_SHAPE_MULTIPOLES>
352.82
6.74
2.7
0.76
1.55
0.54
0.11
0.09
-0.65
-0.64
0.68
0.03
0.21
-0.52

> <PUBCHEM_SHAPE_SELFOVERLAP>
780.674

> <PUBCHEM_SHAPE_VOLUME>
189.2

> <PUBCHEM_COORDINATE_TYPE>
2
5
10

$$$$
