10466989
  -OEChem-09102009033D

 34 35  0     0  0  0  0  0  0999 V2000
    4.1657   -2.0424   -0.1824 O   0  0  0  0  0  0  0  0  0  0  0  0
    4.1331    2.7305   -0.1285 O   0  0  0  0  0  0  0  0  0  0  0  0
   -5.1149   -2.0464    0.1517 O   0  0  0  0  0  0  0  0  0  0  0  0
   -0.0342    0.3063    0.6695 C   0  0  0  0  0  0  0  0  0  0  0  0
   -0.9038    0.3154   -0.6034 C   0  0  0  0  0  0  0  0  0  0  0  0
    1.4466    0.3196    0.3778 C   0  0  0  0  0  0  0  0  0  0  0  0
   -2.3711    0.3239   -0.3370 C   0  0  0  0  0  0  0  0  0  0  0  0
    2.1214   -0.8822    0.2323 C   0  0  0  0  0  0  0  0  0  0  0  0
    2.1048    1.5336    0.2602 C   0  0  0  0  0  0  0  0  0  0  0  0
   -3.0651   -0.8800   -0.2159 C   0  0  0  0  0  0  0  0  0  0  0  0
   -3.0494    1.5360   -0.2087 C   0  0  0  0  0  0  0  0  0  0  0  0
    3.4898   -0.8699   -0.0376 C   0  0  0  0  0  0  0  0  0  0  0  0
    3.4732    1.5459   -0.0098 C   0  0  0  0  0  0  0  0  0  0  0  0
    4.1658    0.3442   -0.1588 C   0  0  0  0  0  0  0  0  0  0  0  0
   -4.4375   -0.8719    0.0337 C   0  0  0  0  0  0  0  0  0  0  0  0
   -4.4217    1.5441    0.0407 C   0  0  0  0  0  0  0  0  0  0  0  0
   -5.1157    0.3402    0.1618 C   0  0  0  0  0  0  0  0  0  0  0  0
    3.4131   -3.2468   -0.0455 C   0  0  0  0  0  0  0  0  0  0  0  0
   -0.2786   -0.5722    1.2819 H   0  0  0  0  0  0  0  0  0  0  0  0
   -0.2868    1.1706    1.2987 H   0  0  0  0  0  0  0  0  0  0  0  0
   -0.6517   -0.5538   -1.2263 H   0  0  0  0  0  0  0  0  0  0  0  0
   -0.6423    1.1859   -1.2207 H   0  0  0  0  0  0  0  0  0  0  0  0
    1.5435   -1.7943    0.3341 H   0  0  0  0  0  0  0  0  0  0  0  0
    1.5679    2.4716    0.3734 H   0  0  0  0  0  0  0  0  0  0  0  0
   -2.5418   -1.8282   -0.3128 H   0  0  0  0  0  0  0  0  0  0  0  0
   -2.5196    2.4807   -0.2989 H   0  0  0  0  0  0  0  0  0  0  0  0
    5.2324    0.3466   -0.3695 H   0  0  0  0  0  0  0  0  0  0  0  0
   -4.9498    2.4878    0.1412 H   0  0  0  0  0  0  0  0  0  0  0  0
   -6.1847    0.3604    0.3563 H   0  0  0  0  0  0  0  0  0  0  0  0
    5.0708    2.5517   -0.3155 H   0  0  0  0  0  0  0  0  0  0  0  0
    2.6459   -3.3326   -0.8225 H   0  0  0  0  0  0  0  0  0  0  0  0
    2.9971   -3.3494    0.9625 H   0  0  0  0  0  0  0  0  0  0  0  0
    4.1083   -4.0802   -0.1901 H   0  0  0  0  0  0  0  0  0  0  0  0
   -6.0527   -1.8534    0.3230 H   0  0  0  0  0  0  0  0  0  0  0  0
  1 12  1  0  0  0  0
  1 18  1  0  0  0  0
  2 13  1  0  0  0  0
  2 30  1  0  0  0  0
  3 15  1  0  0  0  0
  3 34  1  0  0  0  0
  4  5  1  0  0  0  0
  4  6  1  0  0  0  0
  4 19  1  0  0  0  0
  4 20  1  0  0  0  0
  5  7  1  0  0  0  0
  5 21  1  0  0  0  0
  5 22  1  0  0  0  0
  6  8  1  0  0  0  0
  6  9  2  0  0  0  0
  7 10  2  0  0  0  0
  7 11  1  0  0  0  0
  8 12  2  0  0  0  0
  8 23  1  0  0  0  0
  9 13  1  0  0  0  0
  9 24  1  0  0  0  0
 10 15  1  0  0  0  0
 10 25  1  0  0  0  0
 11 16  2  0  0  0  0
 11 26  1  0  0  0  0
 12 14  1  0  0  0  0
 13 14  2  0  0  0  0
 14 27  1  0  0  0  0
 15 17  2  0  0  0  0
 16 17  1  0  0  0  0
 16 28  1  0  0  0  0
 17 29  1  0  0  0  0
 18 31  1  0  0  0  0
 18 32  1  0  0  0  0
 18 33  1  0  0  0  0
M  END
> <PUBCHEM_COMPOUND_CID>
10466989

> <PUBCHEM_CONFORMER_RMSD>
0.6

> <PUBCHEM_CONFORMER_DIVERSEORDER>
1
59
41
22
7
55
35
29
25
31
10
13
9
36
60
6
32
33
27
24
5
53
21
34
62
2
8
18
28
17
51
4
30
38
23
45
3
54
61
15
56
19
43
47
16
26
12
14
39
20
50
52
46
11
37
49
58
44
57
40
48
42

> <PUBCHEM_MMFF94_PARTIAL_CHARGES>
27
1 -0.36
10 -0.15
11 -0.15
12 0.08
13 0.08
14 -0.15
15 0.08
16 -0.15
17 -0.15
18 0.28
2 -0.53
23 0.15
24 0.15
25 0.15
26 0.15
27 0.15
28 0.15
29 0.15
3 -0.53
30 0.45
34 0.45
4 0.14
5 0.14
6 -0.14
7 -0.14
8 -0.15
9 -0.15

> <PUBCHEM_EFFECTIVE_ROTOR_COUNT>
4

> <PUBCHEM_PHARMACOPHORE_FEATURES>
5
1 1 acceptor
1 2 donor
1 3 donor
6 6 8 9 12 13 14 rings
6 7 10 11 15 16 17 rings

> <PUBCHEM_HEAVY_ATOM_COUNT>
18

> <PUBCHEM_ATOM_DEF_STEREO_COUNT>
0

> <PUBCHEM_ATOM_UDEF_STEREO_COUNT>
0

> <PUBCHEM_BOND_DEF_STEREO_COUNT>
0

> <PUBCHEM_BOND_UDEF_STEREO_COUNT>
0

> <PUBCHEM_ISOTOPIC_ATOM_COUNT>
0

> <PUBCHEM_COMPONENT_COUNT>
1

> <PUBCHEM_CACTVS_TAUTO_COUNT>
80

> <PUBCHEM_CONFORMER_ID>
009FB6AD00000001

> <PUBCHEM_MMFF94_ENERGY>
54.1579

> <PUBCHEM_FEATURE_SELFOVERLAP>
25.371

> <PUBCHEM_SHAPE_FINGERPRINT>
10595046 47 18412544349007375117
10616163 171 18341331209848721711
11405975 8 18340487764286671129
11552529 35 17844810489598520195
12107183 9 17909273477228168745
12616999 72 18335704966310629732
12730499 353 18336556022591061144
12916754 54 18410575063599881057
13167823 11 18412261731521871511
13533116 47 18342453755781290091
13675066 3 17917418796552257843
13955234 65 18413105078752627984
14341114 176 18410300198767853457
15196674 1 18410855464860978987
15250474 111 18200299018043980351
15477762 27 18410856517465713042
15848702 151 18260829293462965837
15961568 22 17313668264880887868
17492 89 18411138013263587203
17834072 33 18410856585615484141
17844677 252 18411144606264999529
1813 80 17022624169616459461
18186145 218 17894624825223300425
20281475 54 18271798034451932551
20645477 70 18410856538581983326
21065198 48 18342741819132331289
21065198 57 18410573942576506541
21065199 12 18410853270016854081
221490 88 18409172103763464066
23557571 272 17458339723760706909
23559900 14 18340199683338899322
239999 70 18201445774807247806
3004659 81 18335984160517528202
312423 11 18130239167866193384
314173 41 18195811756640826582
3268164 11 16588014702589254005
3421961 26 18340483349434999402
3545911 37 18409730676939651133
4073 2 18187089480872940419
4214541 1 18410855426248724681
4990 188 18187082819431164658
5104073 3 18412262826780594441
5281201 14 18333732390430913316
633830 44 18186514385010247587
77779 3 18410573985494537385
7970288 3 17905606601877146938
8272917 22 18413393116318027774
90127 26 18041002804446205961
9709674 26 18334580165551756019
9841814 1 16200423676738492274

> <PUBCHEM_SHAPE_MULTIPOLES>
352.82
12.16
2.64
0.68
7.09
1.07
0.01
1.77
-0.15
-2.9
-0.06
0.04
-0.03
0.14

> <PUBCHEM_SHAPE_SELFOVERLAP>
750.312

> <PUBCHEM_SHAPE_VOLUME>
196.8

> <PUBCHEM_COORDINATE_TYPE>
2
5
10

$$$$
