102115826
  -OEChem-09092004543D

 80 83  0     1  0  0  0  0  0999 V2000
   -0.6274    3.8427    1.7122 O   0  0  0  0  0  0  0  0  0  0  0  0
    0.4325    3.0304   -0.9541 O   0  0  0  0  0  0  0  0  0  0  0  0
    2.5054    1.4445   -0.1183 O   0  0  0  0  0  0  0  0  0  0  0  0
   -3.3960   -0.0267    1.3603 O   0  0  0  0  0  0  0  0  0  0  0  0
   -2.2066   -1.2573   -1.0229 O   0  0  0  0  0  0  0  0  0  0  0  0
   -0.4635   -3.5321   -0.8055 O   0  0  0  0  0  0  0  0  0  0  0  0
    1.4268    0.0007   -2.3051 O   0  0  0  0  0  0  0  0  0  0  0  0
    3.9795   -3.4346    1.6840 O   0  0  0  0  0  0  0  0  0  0  0  0
   -1.3478    2.0800   -2.0784 O   0  0  0  0  0  0  0  0  0  0  0  0
    3.1881    1.9088    2.0393 O   0  0  0  0  0  0  0  0  0  0  0  0
   -4.9610    0.9847   -0.0053 O   0  0  0  0  0  0  0  0  0  0  0  0
   -3.0165   -3.3853   -0.6327 O   0  0  0  0  0  0  0  0  0  0  0  0
    0.1376    0.8294    0.0574 C   0  0  1  0  0  0  0  0  0  0  0  0
   -0.9970   -0.0269    0.7763 C   0  0  1  0  0  0  0  0  0  0  0  0
   -0.0057    2.3767    0.2713 C   0  0  2  0  0  0  0  0  0  0  0  0
    2.1383   -0.9318   -0.2107 C   0  0  2  0  0  0  0  0  0  0  0  0
    1.6300    0.4170    0.3793 C   0  0  1  0  0  0  0  0  0  0  0  0
   -1.3389    2.9870    0.7807 C   0  0  1  0  0  0  0  0  0  0  0  0
   -2.3617    0.7647    0.7721 C   0  0  2  0  0  0  0  0  0  0  0  0
   -1.2620   -1.4209    0.0535 C   0  0  2  0  0  0  0  0  0  0  0  0
   -2.3012    2.0888    1.5140 C   0  0  0  0  0  0  0  0  0  0  0  0
    1.2069   -2.0810    0.1142 C   0  0  0  0  0  0  0  0  0  0  0  0
    0.5690    3.0428    1.5513 C   0  0  0  0  0  0  0  0  0  0  0  0
   -0.0931   -2.1615   -0.6109 C   0  0  1  0  0  0  0  0  0  0  0  0
    3.4477   -1.4008    0.4847 C   0  0  0  0  0  0  0  0  0  0  0  0
    2.4380   -0.8128   -1.7225 C   0  0  0  0  0  0  0  0  0  0  0  0
   -0.6272   -0.3429    2.2531 C   0  0  0  0  0  0  0  0  0  0  0  0
    3.0278   -2.3901    1.5677 C   0  0  1  0  0  0  0  0  0  0  0  0
    1.6990   -2.8811    1.0781 C   0  0  0  0  0  0  0  0  0  0  0  0
    3.7945   -0.1586   -1.9409 C   0  0  0  0  0  0  0  0  0  0  0  0
    2.3762   -2.1856   -2.3741 C   0  0  0  0  0  0  0  0  0  0  0  0
    1.0593   -4.0480    1.7507 C   0  0  0  0  0  0  0  0  0  0  0  0
   -0.3449    2.7795   -2.0324 C   0  0  0  0  0  0  0  0  0  0  0  0
    3.2207    2.1044    0.8319 C   0  0  0  0  0  0  0  0  0  0  0  0
   -4.6513    0.1900    0.8721 C   0  0  0  0  0  0  0  0  0  0  0  0
   -3.0157   -2.3259   -1.2450 C   0  0  0  0  0  0  0  0  0  0  0  0
    0.2226    3.5113   -3.2107 C   0  0  0  0  0  0  0  0  0  0  0  0
    4.0820    3.1383    0.1722 C   0  0  0  0  0  0  0  0  0  0  0  0
   -5.6262   -0.7033    1.5776 C   0  0  0  0  0  0  0  0  0  0  0  0
   -3.9381   -2.0146   -2.3845 C   0  0  0  0  0  0  0  0  0  0  0  0
   -0.0609    0.6258   -0.9850 H   0  0  0  0  0  0  0  0  0  0  0  0
    1.7114    0.3476    1.4685 H   0  0  0  0  0  0  0  0  0  0  0  0
   -1.8637    3.6031    0.0401 H   0  0  0  0  0  0  0  0  0  0  0  0
   -2.6167    0.9728   -0.2738 H   0  0  0  0  0  0  0  0  0  0  0  0
   -1.7137   -2.0806    0.8087 H   0  0  0  0  0  0  0  0  0  0  0  0
   -2.0185    1.9383    2.5615 H   0  0  0  0  0  0  0  0  0  0  0  0
   -3.2903    2.5603    1.5594 H   0  0  0  0  0  0  0  0  0  0  0  0
    0.7273    2.4139    2.4287 H   0  0  0  0  0  0  0  0  0  0  0  0
    1.4149    3.7172    1.4071 H   0  0  0  0  0  0  0  0  0  0  0  0
   -0.0288   -1.7595   -1.6191 H   0  0  0  0  0  0  0  0  0  0  0  0
    4.0368   -0.5833    0.9127 H   0  0  0  0  0  0  0  0  0  0  0  0
    4.1215   -1.9566   -0.1775 H   0  0  0  0  0  0  0  0  0  0  0  0
   -0.3550    0.5530    2.8139 H   0  0  0  0  0  0  0  0  0  0  0  0
    0.2072   -1.0361    2.3490 H   0  0  0  0  0  0  0  0  0  0  0  0
   -1.4663   -0.8084    2.7830 H   0  0  0  0  0  0  0  0  0  0  0  0
    2.9143   -1.9001    2.5413 H   0  0  0  0  0  0  0  0  0  0  0  0
    2.9160   -2.1437   -3.3313 H   0  0  0  0  0  0  0  0  0  0  0  0
    1.3886   -2.5253   -2.6863 H   0  0  0  0  0  0  0  0  0  0  0  0
    2.8772   -2.9743   -1.8038 H   0  0  0  0  0  0  0  0  0  0  0  0
    3.9574   -0.0897   -3.0275 H   0  0  0  0  0  0  0  0  0  0  0  0
    3.8872    0.8809   -1.6405 H   0  0  0  0  0  0  0  0  0  0  0  0
    4.6639   -0.7103   -1.5791 H   0  0  0  0  0  0  0  0  0  0  0  0
    0.2673   -3.9787   -1.2661 H   0  0  0  0  0  0  0  0  0  0  0  0
    1.5412   -4.9790    1.4375 H   0  0  0  0  0  0  0  0  0  0  0  0
   -0.0101   -4.1238    1.5395 H   0  0  0  0  0  0  0  0  0  0  0  0
    1.1586   -3.9571    2.8376 H   0  0  0  0  0  0  0  0  0  0  0  0
    1.6073    0.0707   -3.2581 H   0  0  0  0  0  0  0  0  0  0  0  0
    4.8291   -3.0287    1.9270 H   0  0  0  0  0  0  0  0  0  0  0  0
    0.2167    4.5872   -3.0186 H   0  0  0  0  0  0  0  0  0  0  0  0
   -0.3939    3.3114   -4.0918 H   0  0  0  0  0  0  0  0  0  0  0  0
    1.2382    3.1603   -3.4111 H   0  0  0  0  0  0  0  0  0  0  0  0
    4.9466    2.6590   -0.2921 H   0  0  0  0  0  0  0  0  0  0  0  0
    4.4278    3.8522    0.9253 H   0  0  0  0  0  0  0  0  0  0  0  0
    3.5037    3.6913   -0.5731 H   0  0  0  0  0  0  0  0  0  0  0  0
   -5.3605   -1.7494    1.4053 H   0  0  0  0  0  0  0  0  0  0  0  0
   -6.6304   -0.5292    1.1808 H   0  0  0  0  0  0  0  0  0  0  0  0
   -5.6295   -0.4772    2.6468 H   0  0  0  0  0  0  0  0  0  0  0  0
   -3.3571   -1.8308   -3.2917 H   0  0  0  0  0  0  0  0  0  0  0  0
   -4.5535   -1.1458   -2.1385 H   0  0  0  0  0  0  0  0  0  0  0  0
   -4.5979   -2.8691   -2.5601 H   0  0  0  0  0  0  0  0  0  0  0  0
  1 18  1  0  0  0  0
  1 23  1  0  0  0  0
  2 15  1  0  0  0  0
  2 33  1  0  0  0  0
  3 17  1  0  0  0  0
  3 34  1  0  0  0  0
  4 19  1  0  0  0  0
  4 35  1  0  0  0  0
  5 20  1  0  0  0  0
  5 36  1  0  0  0  0
  6 24  1  0  0  0  0
  6 63  1  0  0  0  0
  7 26  1  0  0  0  0
  7 67  1  0  0  0  0
  8 28  1  0  0  0  0
  8 68  1  0  0  0  0
  9 33  2  0  0  0  0
 10 34  2  0  0  0  0
 11 35  2  0  0  0  0
 12 36  2  0  0  0  0
 13 14  1  0  0  0  0
 13 15  1  0  0  0  0
 13 17  1  0  0  0  0
 13 41  1  0  0  0  0
 14 19  1  0  0  0  0
 14 20  1  0  0  0  0
 14 27  1  0  0  0  0
 15 18  1  0  0  0  0
 15 23  1  0  0  0  0
 16 17  1  0  0  0  0
 16 22  1  0  0  0  0
 16 25  1  0  0  0  0
 16 26  1  0  0  0  0
 17 42  1  0  0  0  0
 18 21  1  0  0  0  0
 18 43  1  0  0  0  0
 19 21  1  0  0  0  0
 19 44  1  0  0  0  0
 20 24  1  0  0  0  0
 20 45  1  0  0  0  0
 21 46  1  0  0  0  0
 21 47  1  0  0  0  0
 22 24  1  0  0  0  0
 22 29  2  0  0  0  0
 23 48  1  0  0  0  0
 23 49  1  0  0  0  0
 24 50  1  0  0  0  0
 25 28  1  0  0  0  0
 25 51  1  0  0  0  0
 25 52  1  0  0  0  0
 26 30  1  0  0  0  0
 26 31  1  0  0  0  0
 27 53  1  0  0  0  0
 27 54  1  0  0  0  0
 27 55  1  0  0  0  0
 28 29  1  0  0  0  0
 28 56  1  0  0  0  0
 29 32  1  0  0  0  0
 30 60  1  0  0  0  0
 30 61  1  0  0  0  0
 30 62  1  0  0  0  0
 31 57  1  0  0  0  0
 31 58  1  0  0  0  0
 31 59  1  0  0  0  0
 32 64  1  0  0  0  0
 32 65  1  0  0  0  0
 32 66  1  0  0  0  0
 33 37  1  0  0  0  0
 34 38  1  0  0  0  0
 35 39  1  0  0  0  0
 36 40  1  0  0  0  0
 37 69  1  0  0  0  0
 37 70  1  0  0  0  0
 37 71  1  0  0  0  0
 38 72  1  0  0  0  0
 38 73  1  0  0  0  0
 38 74  1  0  0  0  0
 39 75  1  0  0  0  0
 39 76  1  0  0  0  0
 39 77  1  0  0  0  0
 40 78  1  0  0  0  0
 40 79  1  0  0  0  0
 40 80  1  0  0  0  0
M  END
> <PUBCHEM_COMPOUND_CID>
102115826

> <PUBCHEM_CONFORMER_RMSD>
1.2

> <PUBCHEM_CONFORMER_DIVERSEORDER>
1
2

> <PUBCHEM_MMFF94_PARTIAL_CHARGES>
36
1 -0.52
10 -0.57
11 -0.57
12 -0.57
15 0.26
16 0.14
17 0.28
18 0.26
19 0.28
2 -0.41
20 0.28
22 -0.28
23 0.26
24 0.42
26 0.28
28 0.42
29 -0.28
3 -0.43
32 0.14
33 0.66
34 0.66
35 0.66
36 0.66
37 0.06
38 0.06
39 0.06
4 -0.43
40 0.06
5 -0.43
6 -0.68
63 0.4
67 0.4
68 0.4
7 -0.68
8 -0.68
9 -0.57

> <PUBCHEM_EFFECTIVE_ROTOR_COUNT>
10.8

> <PUBCHEM_PHARMACOPHORE_FEATURES>
16
1 1 acceptor
1 10 acceptor
1 11 acceptor
1 12 acceptor
1 6 acceptor
1 6 donor
1 7 acceptor
1 7 donor
1 8 acceptor
1 8 donor
1 9 acceptor
3 26 30 31 hydrophobe
4 1 15 18 23 rings
5 16 22 25 28 29 rings
6 13 14 15 18 19 21 rings
7 13 14 16 17 20 22 24 rings

> <PUBCHEM_HEAVY_ATOM_COUNT>
40

> <PUBCHEM_ATOM_DEF_STEREO_COUNT>
10

> <PUBCHEM_ATOM_UDEF_STEREO_COUNT>
0

> <PUBCHEM_BOND_DEF_STEREO_COUNT>
0

> <PUBCHEM_BOND_UDEF_STEREO_COUNT>
0

> <PUBCHEM_ISOTOPIC_ATOM_COUNT>
0

> <PUBCHEM_COMPONENT_COUNT>
1

> <PUBCHEM_CACTVS_TAUTO_COUNT>
16

> <PUBCHEM_CONFORMER_ID>
061629F200000001

> <PUBCHEM_MMFF94_ENERGY>
164.4591

> <PUBCHEM_FEATURE_SELFOVERLAP>
81.683

> <PUBCHEM_SHAPE_FINGERPRINT>
10863032 1 17346329248671123133
1100329 8 18341607101198895811
11513181 2 17632019765863665871
11578080 2 18114732729663060796
12156800 1 16670996914895052465
12160290 23 17978228253815993063
12422481 6 18339059554237229520
12553582 1 18272935981942675823
12788726 201 18198636448829312481
13140716 1 18412541015775449043
133893 2 18119523482514093639
13911987 19 16809309074215881918
14955137 171 18127721329636853435
16945 1 18057049012242270435
19319366 153 18261409848387645731
20600515 1 18046354303706155860
20691752 17 18261667172952602762
20764821 26 18195500676142808045
20905425 154 18201433731460330792
23419403 2 17897989270943713356
23558518 356 17835808873447479075
23559900 14 17489314066138143878
463206 1 18198635504448203737
469060 322 18042950154986026333
57527573 199 16110352031967713129
70251023 43 17985293805408615555

> <PUBCHEM_SHAPE_MULTIPOLES>
752.75
7.23
5.38
2.63
5.78
0.4
1.37
-2.09
-1.27
-1.94
-0.2
-0.2
0.51
-1.33

> <PUBCHEM_SHAPE_SELFOVERLAP>
1608.941

> <PUBCHEM_SHAPE_VOLUME>
410.8

> <PUBCHEM_COORDINATE_TYPE>
2
5
10

$$$$
