15226622
  -OEChem-09092004543D

 97100  0     1  0  0  0  0  0999 V2000
   -2.5493    2.8261    0.2399 O   0  0  0  0  0  0  0  0  0  0  0  0
   -3.7610    1.1727   -1.6260 O   0  0  0  0  0  0  0  0  0  0  0  0
    0.0580   -3.1754   -0.5300 O   0  0  0  0  0  0  0  0  0  0  0  0
    1.6364   -0.8624    1.3152 O   0  0  0  0  0  0  0  0  0  0  0  0
   -4.6387    3.1037    1.1856 O   0  0  0  0  0  0  0  0  0  0  0  0
   -2.3595    2.2236   -3.1320 O   0  0  0  0  0  0  0  0  0  0  0  0
    3.8201   -0.9051    2.0558 O   0  0  0  0  0  0  0  0  0  0  0  0
   -0.2151   -5.3827   -1.1546 O   0  0  0  0  0  0  0  0  0  0  0  0
    3.7501   -0.1296   -2.4827 N   0  0  0  0  0  0  0  0  0  0  0  0
   -1.5025    1.0444    1.5614 C   0  0  2  0  0  0  0  0  0  0  0  0
   -1.2770   -0.4979    1.8813 C   0  0  2  0  0  0  0  0  0  0  0  0
   -3.1259   -2.2823    1.0578 C   0  0  2  0  0  0  0  0  0  0  0  0
   -3.7918   -1.5376   -0.1243 C   0  0  0  0  0  0  0  0  0  0  0  0
   -2.5447   -1.3546    2.1904 C   0  0  0  0  0  0  0  0  0  0  0  0
   -2.6231    1.4062    0.5032 C   0  0  2  0  0  0  0  0  0  0  0  0
   -2.6412   -0.7963   -0.8336 C   0  0  0  0  0  0  0  0  0  0  0  0
   -0.1334    1.6270    1.0650 C   0  0  0  0  0  0  0  0  0  0  0  0
   -2.6276    0.7139   -0.8828 C   0  0  1  0  0  0  0  0  0  0  0  0
   -2.0799   -3.3071    0.5531 C   0  0  0  0  0  0  0  0  0  0  0  0
   -0.1352   -0.6243    2.9108 C   0  0  0  0  0  0  0  0  0  0  0  0
    1.0491    1.3815    2.0127 C   0  0  0  0  0  0  0  0  0  0  0  0
   -1.3379   -2.9357   -0.7527 C   0  0  1  0  0  0  0  0  0  0  0  0
   -1.9084    1.7975    2.8676 C   0  0  0  0  0  0  0  0  0  0  0  0
    1.1929   -0.0834    2.4244 C   0  0  2  0  0  0  0  0  0  0  0  0
   -1.5666   -1.5169   -1.2573 C   0  0  0  0  0  0  0  0  0  0  0  0
   -4.8354   -0.4837    0.3679 C   0  0  0  0  0  0  0  0  0  0  0  0
   -4.6974   -2.5142   -0.9211 C   0  0  0  0  0  0  0  0  0  0  0  0
   -0.4749   -0.9793   -2.1484 C   0  0  0  0  0  0  0  0  0  0  0  0
   -0.2360   -1.0992    4.1638 C   0  0  0  0  0  0  0  0  0  0  0  0
   -3.6336    3.5379    0.6395 C   0  0  0  0  0  0  0  0  0  0  0  0
   -3.4745    1.9191   -2.7306 C   0  0  0  0  0  0  0  0  0  0  0  0
    2.9919   -0.9497    1.1562 C   0  0  0  0  0  0  0  0  0  0  0  0
    0.4771   -4.4487   -0.7728 C   0  0  0  0  0  0  0  0  0  0  0  0
   -3.4176    4.9829    0.3054 C   0  0  0  0  0  0  0  0  0  0  0  0
   -4.7495    2.3265   -3.4048 C   0  0  0  0  0  0  0  0  0  0  0  0
    3.3142   -1.1541   -0.3103 C   0  0  0  0  0  0  0  0  0  0  0  0
    1.9473   -4.5504   -0.5000 C   0  0  0  0  0  0  0  0  0  0  0  0
    3.5266    0.1717   -1.0639 C   0  0  1  0  0  0  0  0  0  0  0  0
    4.6518    1.0181   -0.4914 C   0  0  0  0  0  0  0  0  0  0  0  0
    5.1612   -0.4218   -2.7217 C   0  0  0  0  0  0  0  0  0  0  0  0
    3.3073    0.9873   -3.3132 C   0  0  0  0  0  0  0  0  0  0  0  0
    4.5970    2.4087   -0.5879 C   0  0  0  0  0  0  0  0  0  0  0  0
    5.7391    0.4046    0.1310 C   0  0  0  0  0  0  0  0  0  0  0  0
    5.6295    3.1856   -0.0623 C   0  0  0  0  0  0  0  0  0  0  0  0
    6.7714    1.1815    0.6566 C   0  0  0  0  0  0  0  0  0  0  0  0
    6.7165    2.5721    0.5599 C   0  0  0  0  0  0  0  0  0  0  0  0
   -0.8257   -0.9378    0.9960 H   0  0  0  0  0  0  0  0  0  0  0  0
   -3.9090   -2.8638    1.5680 H   0  0  0  0  0  0  0  0  0  0  0  0
   -3.3221   -0.7334    2.6401 H   0  0  0  0  0  0  0  0  0  0  0  0
   -2.3054   -2.0730    2.9826 H   0  0  0  0  0  0  0  0  0  0  0  0
   -3.5507    1.2500    1.0134 H   0  0  0  0  0  0  0  0  0  0  0  0
    0.1131    1.1891    0.0907 H   0  0  0  0  0  0  0  0  0  0  0  0
   -0.2070    2.7093    0.9038 H   0  0  0  0  0  0  0  0  0  0  0  0
   -1.7072    1.0610   -1.3574 H   0  0  0  0  0  0  0  0  0  0  0  0
   -2.6057   -4.2537    0.3638 H   0  0  0  0  0  0  0  0  0  0  0  0
   -1.3710   -3.5430    1.3574 H   0  0  0  0  0  0  0  0  0  0  0  0
    0.9283    2.0040    2.9077 H   0  0  0  0  0  0  0  0  0  0  0  0
    1.9646    1.7243    1.5160 H   0  0  0  0  0  0  0  0  0  0  0  0
   -1.6941   -3.5873   -1.5629 H   0  0  0  0  0  0  0  0  0  0  0  0
   -2.9056    1.4963    3.2061 H   0  0  0  0  0  0  0  0  0  0  0  0
   -1.2226    1.6151    3.6991 H   0  0  0  0  0  0  0  0  0  0  0  0
   -1.9188    2.8828    2.7214 H   0  0  0  0  0  0  0  0  0  0  0  0
    1.9298   -0.1347    3.2363 H   0  0  0  0  0  0  0  0  0  0  0  0
   -5.7675   -1.0302    0.5941 H   0  0  0  0  0  0  0  0  0  0  0  0
   -4.6690   -0.0588    1.3525 H   0  0  0  0  0  0  0  0  0  0  0  0
   -5.1924    0.2462   -0.3545 H   0  0  0  0  0  0  0  0  0  0  0  0
   -5.4235   -3.0264   -0.2795 H   0  0  0  0  0  0  0  0  0  0  0  0
   -5.2454   -1.9840   -1.7092 H   0  0  0  0  0  0  0  0  0  0  0  0
   -4.1068   -3.2877   -1.4220 H   0  0  0  0  0  0  0  0  0  0  0  0
    0.3687   -0.6215   -1.5530 H   0  0  0  0  0  0  0  0  0  0  0  0
   -0.8214   -0.1716   -2.7987 H   0  0  0  0  0  0  0  0  0  0  0  0
   -0.1146   -1.7650   -2.8221 H   0  0  0  0  0  0  0  0  0  0  0  0
   -1.1685   -1.4453    4.5909 H   0  0  0  0  0  0  0  0  0  0  0  0
    0.6267   -1.1287    4.8224 H   0  0  0  0  0  0  0  0  0  0  0  0
   -3.3053    5.1005   -0.7755 H   0  0  0  0  0  0  0  0  0  0  0  0
   -4.2856    5.5635    0.6306 H   0  0  0  0  0  0  0  0  0  0  0  0
   -2.5336    5.3566    0.8284 H   0  0  0  0  0  0  0  0  0  0  0  0
   -5.3479    2.9381   -2.7249 H   0  0  0  0  0  0  0  0  0  0  0  0
   -4.5164    2.9195   -4.2938 H   0  0  0  0  0  0  0  0  0  0  0  0
   -5.3052    1.4380   -3.7145 H   0  0  0  0  0  0  0  0  0  0  0  0
    4.1574   -1.8507   -0.3746 H   0  0  0  0  0  0  0  0  0  0  0  0
    2.4752   -1.6959   -0.7642 H   0  0  0  0  0  0  0  0  0  0  0  0
    2.5063   -4.0744   -1.3084 H   0  0  0  0  0  0  0  0  0  0  0  0
    2.2305   -5.6055   -0.4436 H   0  0  0  0  0  0  0  0  0  0  0  0
    2.1849   -4.0878    0.4617 H   0  0  0  0  0  0  0  0  0  0  0  0
    2.5876    0.7301   -0.9368 H   0  0  0  0  0  0  0  0  0  0  0  0
    5.8324    0.4416   -2.6500 H   0  0  0  0  0  0  0  0  0  0  0  0
    5.5339   -1.2450   -2.1037 H   0  0  0  0  0  0  0  0  0  0  0  0
    5.2649   -0.7865   -3.7522 H   0  0  0  0  0  0  0  0  0  0  0  0
    3.9118    1.8919   -3.1977 H   0  0  0  0  0  0  0  0  0  0  0  0
    3.3557    0.6995   -4.3701 H   0  0  0  0  0  0  0  0  0  0  0  0
    2.2583    1.2365   -3.1160 H   0  0  0  0  0  0  0  0  0  0  0  0
    3.7497    2.9040   -1.0540 H   0  0  0  0  0  0  0  0  0  0  0  0
    5.8394   -0.6719    0.2149 H   0  0  0  0  0  0  0  0  0  0  0  0
    5.5850    4.2683   -0.1343 H   0  0  0  0  0  0  0  0  0  0  0  0
    7.6203    0.7043    1.1375 H   0  0  0  0  0  0  0  0  0  0  0  0
    7.5204    3.1770    0.9691 H   0  0  0  0  0  0  0  0  0  0  0  0
  1 15  1  0  0  0  0
  1 30  1  0  0  0  0
  2 18  1  0  0  0  0
  2 31  1  0  0  0  0
  3 22  1  0  0  0  0
  3 33  1  0  0  0  0
  4 24  1  0  0  0  0
  4 32  1  0  0  0  0
  5 30  2  0  0  0  0
  6 31  2  0  0  0  0
  7 32  2  0  0  0  0
  8 33  2  0  0  0  0
  9 38  1  0  0  0  0
  9 40  1  0  0  0  0
  9 41  1  0  0  0  0
 10 11  1  0  0  0  0
 10 15  1  0  0  0  0
 10 17  1  0  0  0  0
 10 23  1  0  0  0  0
 11 14  1  0  0  0  0
 11 20  1  0  0  0  0
 11 47  1  0  0  0  0
 12 13  1  0  0  0  0
 12 14  1  0  0  0  0
 12 19  1  0  0  0  0
 12 48  1  0  0  0  0
 13 16  1  0  0  0  0
 13 26  1  0  0  0  0
 13 27  1  0  0  0  0
 14 49  1  0  0  0  0
 14 50  1  0  0  0  0
 15 18  1  0  0  0  0
 15 51  1  0  0  0  0
 16 18  1  0  0  0  0
 16 25  2  0  0  0  0
 17 21  1  0  0  0  0
 17 52  1  0  0  0  0
 17 53  1  0  0  0  0
 18 54  1  0  0  0  0
 19 22  1  0  0  0  0
 19 55  1  0  0  0  0
 19 56  1  0  0  0  0
 20 24  1  0  0  0  0
 20 29  2  0  0  0  0
 21 24  1  0  0  0  0
 21 57  1  0  0  0  0
 21 58  1  0  0  0  0
 22 25  1  0  0  0  0
 22 59  1  0  0  0  0
 23 60  1  0  0  0  0
 23 61  1  0  0  0  0
 23 62  1  0  0  0  0
 24 63  1  0  0  0  0
 25 28  1  0  0  0  0
 26 64  1  0  0  0  0
 26 65  1  0  0  0  0
 26 66  1  0  0  0  0
 27 67  1  0  0  0  0
 27 68  1  0  0  0  0
 27 69  1  0  0  0  0
 28 70  1  0  0  0  0
 28 71  1  0  0  0  0
 28 72  1  0  0  0  0
 29 73  1  0  0  0  0
 29 74  1  0  0  0  0
 30 34  1  0  0  0  0
 31 35  1  0  0  0  0
 32 36  1  0  0  0  0
 33 37  1  0  0  0  0
 34 75  1  0  0  0  0
 34 76  1  0  0  0  0
 34 77  1  0  0  0  0
 35 78  1  0  0  0  0
 35 79  1  0  0  0  0
 35 80  1  0  0  0  0
 36 38  1  0  0  0  0
 36 81  1  0  0  0  0
 36 82  1  0  0  0  0
 37 83  1  0  0  0  0
 37 84  1  0  0  0  0
 37 85  1  0  0  0  0
 38 39  1  0  0  0  0
 38 86  1  0  0  0  0
 39 42  2  0  0  0  0
 39 43  1  0  0  0  0
 40 87  1  0  0  0  0
 40 88  1  0  0  0  0
 40 89  1  0  0  0  0
 41 90  1  0  0  0  0
 41 91  1  0  0  0  0
 41 92  1  0  0  0  0
 42 44  1  0  0  0  0
 42 93  1  0  0  0  0
 43 45  2  0  0  0  0
 43 94  1  0  0  0  0
 44 46  2  0  0  0  0
 44 95  1  0  0  0  0
 45 46  1  0  0  0  0
 45 96  1  0  0  0  0
 46 97  1  0  0  0  0
M  END
> <PUBCHEM_COMPOUND_CID>
15226622

> <PUBCHEM_CONFORMER_RMSD>
1.4

> <PUBCHEM_CONFORMER_DIVERSEORDER>
1
5
3
7
2
4
6

> <PUBCHEM_MMFF94_PARTIAL_CHARGES>
44
1 -0.43
11 0.14
13 0.14
15 0.28
16 -0.28
18 0.42
2 -0.43
20 -0.28
22 0.42
24 0.42
25 -0.28
28 0.14
29 -0.3
3 -0.43
30 0.66
31 0.66
32 0.66
33 0.66
34 0.06
35 0.06
36 0.06
37 0.06
38 0.41
39 -0.14
4 -0.43
40 0.27
41 0.27
42 -0.15
43 -0.15
44 -0.15
45 -0.15
46 -0.15
5 -0.57
6 -0.57
7 -0.57
73 0.15
74 0.15
8 -0.57
9 -0.81
93 0.15
94 0.15
95 0.15
96 0.15
97 0.15

> <PUBCHEM_EFFECTIVE_ROTOR_COUNT>
13.8

> <PUBCHEM_PHARMACOPHORE_FEATURES>
9
1 5 acceptor
1 6 acceptor
1 7 acceptor
1 8 acceptor
1 9 cation
3 13 26 27 hydrophobe
6 10 11 17 20 21 24 rings
6 12 13 16 19 22 25 rings
6 39 42 43 44 45 46 rings

> <PUBCHEM_HEAVY_ATOM_COUNT>
46

> <PUBCHEM_ATOM_DEF_STEREO_COUNT>
7

> <PUBCHEM_ATOM_UDEF_STEREO_COUNT>
1

> <PUBCHEM_BOND_DEF_STEREO_COUNT>
0

> <PUBCHEM_BOND_UDEF_STEREO_COUNT>
0

> <PUBCHEM_ISOTOPIC_ATOM_COUNT>
0

> <PUBCHEM_COMPONENT_COUNT>
1

> <PUBCHEM_CACTVS_TAUTO_COUNT>
1

> <PUBCHEM_CONFORMER_ID>
00E856FE00000001

> <PUBCHEM_MMFF94_ENERGY>
181.7226

> <PUBCHEM_FEATURE_SELFOVERLAP>
45.672

> <PUBCHEM_SHAPE_FINGERPRINT>
11434127 23 18059017301977183140
11578080 2 17978822046204042219
12633257 1 14923936886680940278
13383661 66 14537716114095413548
13617811 41 18340480183906607935
14114206 34 17346595291861903931
14295345 954 18335707083766579262
14932701 244 18188770694307855584
15439362 3 17836931096751819560
15484559 13 15254738974080439368
16067690 210 18340484448483169936
20600515 1 17767997550377210671
20764821 26 17986952942759375227
22907989 373 18201715133348991473
27425 322 17824829936580464513
4066623 53 17191775495313697982
469060 322 18196113224268183738
77296 10 18339921619684579786

> <PUBCHEM_SHAPE_MULTIPOLES>
894.72
12.22
5.52
3.58
18.08
2.1
0.05
-9.24
3.95
-4.07
1.32
-0.98
-0.87
0.96

> <PUBCHEM_SHAPE_SELFOVERLAP>
1874.061

> <PUBCHEM_SHAPE_VOLUME>
500

> <PUBCHEM_COORDINATE_TYPE>
2
5
10

$$$$
