5321656
  -OEChem-09092004453D

 94 97  0     1  0  0  0  0  0999 V2000
   -2.8452   -4.2269    0.6149 O   0  0  0  0  0  0  0  0  0  0  0  0
   -3.3789    1.9588   -0.0975 O   0  0  0  0  0  0  0  0  0  0  0  0
   -1.3344    2.9515    1.2100 O   0  0  0  0  0  0  0  0  0  0  0  0
   -3.1841    0.3400   -2.3136 O   0  0  0  0  0  0  0  0  0  0  0  0
    1.4822   -2.5041   -0.2177 O   0  0  0  0  0  0  0  0  0  0  0  0
    1.5883   -0.1579    2.0048 O   0  0  0  0  0  0  0  0  0  0  0  0
   -5.5267    1.1700    0.2207 O   0  0  0  0  0  0  0  0  0  0  0  0
    0.5518    3.5558    0.0210 O   0  0  0  0  0  0  0  0  0  0  0  0
   -1.9030    2.0097   -3.2665 O   0  0  0  0  0  0  0  0  0  0  0  0
    2.2880   -4.5479   -0.9320 O   0  0  0  0  0  0  0  0  0  0  0  0
    3.3894    0.4147    3.3335 O   0  0  0  0  0  0  0  0  0  0  0  0
   -1.9856    0.5601    1.4157 C   0  0  2  0  0  0  0  0  0  0  0  0
   -1.3047   -0.8536    1.7156 C   0  0  2  0  0  0  0  0  0  0  0  0
   -2.0773   -3.0423    0.3120 C   0  0  1  0  0  0  0  0  0  0  0  0
   -2.6289   -2.4043   -0.9951 C   0  0  0  0  0  0  0  0  0  0  0  0
   -2.2043   -2.1235    1.5929 C   0  0  0  0  0  0  0  0  0  0  0  0
   -2.8624    0.6269    0.0926 C   0  0  2  0  0  0  0  0  0  0  0  0
   -0.8227    1.6284    1.3648 C   0  0  2  0  0  0  0  0  0  0  0  0
   -1.6933   -1.2105   -1.2865 C   0  0  0  0  0  0  0  0  0  0  0  0
   -2.2302    0.2024   -1.2573 C   0  0  1  0  0  0  0  0  0  0  0  0
   -0.6265   -3.5521    0.0979 C   0  0  0  0  0  0  0  0  0  0  0  0
   -0.4979   -0.7503    3.0261 C   0  0  0  0  0  0  0  0  0  0  0  0
    0.0796    1.6347    2.6107 C   0  0  0  0  0  0  0  0  0  0  0  0
    0.2440   -2.7505   -0.8986 C   0  0  1  0  0  0  0  0  0  0  0  0
   -2.9636    0.9269    2.5765 C   0  0  0  0  0  0  0  0  0  0  0  0
    0.6288    0.2581    2.9735 C   0  0  2  0  0  0  0  0  0  0  0  0
   -0.3564   -1.4422   -1.3942 C   0  0  0  0  0  0  0  0  0  0  0  0
   -2.5546   -3.3885   -2.2116 C   0  0  0  0  0  0  0  0  0  0  0  0
   -4.1627   -2.1581   -0.8909 C   0  0  0  0  0  0  0  0  0  0  0  0
    0.6448   -0.4344   -1.9023 C   0  0  0  0  0  0  0  0  0  0  0  0
   -0.7433   -1.4059    4.1730 C   0  0  0  0  0  0  0  0  0  0  0  0
   -4.7302    2.0712   -0.0039 C   0  0  0  0  0  0  0  0  0  0  0  0
   -0.5382    3.8142    0.5131 C   0  0  0  0  0  0  0  0  0  0  0  0
   -2.8894    1.2857   -3.2512 C   0  0  0  0  0  0  0  0  0  0  0  0
    2.4121   -3.4938   -0.3233 C   0  0  0  0  0  0  0  0  0  0  0  0
    2.8735    0.2290    2.2428 C   0  0  0  0  0  0  0  0  0  0  0  0
   -5.1209    3.5017   -0.2212 C   0  0  0  0  0  0  0  0  0  0  0  0
   -1.1994    5.1565    0.4304 C   0  0  0  0  0  0  0  0  0  0  0  0
   -3.9696    1.3173   -4.2896 C   0  0  0  0  0  0  0  0  0  0  0  0
    3.6456   -3.1007    0.4317 C   0  0  0  0  0  0  0  0  0  0  0  0
    3.5478    0.3902    0.9347 C   0  0  0  0  0  0  0  0  0  0  0  0
    4.8329    0.7704    0.8964 C   0  0  0  0  0  0  0  0  0  0  0  0
    5.6145    0.9547   -0.3391 C   0  0  0  0  0  0  0  0  0  0  0  0
    5.1954    0.3529   -1.5257 C   0  0  0  0  0  0  0  0  0  0  0  0
    6.7734    1.7309   -0.3222 C   0  0  0  0  0  0  0  0  0  0  0  0
    5.9353    0.5269   -2.6952 C   0  0  0  0  0  0  0  0  0  0  0  0
    7.5132    1.9050   -1.4918 C   0  0  0  0  0  0  0  0  0  0  0  0
    7.0941    1.3030   -2.6784 C   0  0  0  0  0  0  0  0  0  0  0  0
   -0.5143   -0.9780    0.9819 H   0  0  0  0  0  0  0  0  0  0  0  0
   -3.2526   -1.8618    1.7660 H   0  0  0  0  0  0  0  0  0  0  0  0
   -1.9857   -2.8050    2.4221 H   0  0  0  0  0  0  0  0  0  0  0  0
   -3.6984   -0.0322    0.2818 H   0  0  0  0  0  0  0  0  0  0  0  0
   -0.2002    1.3707    0.4998 H   0  0  0  0  0  0  0  0  0  0  0  0
   -1.4130    0.9128   -1.4021 H   0  0  0  0  0  0  0  0  0  0  0  0
   -0.6627   -4.5875   -0.2725 H   0  0  0  0  0  0  0  0  0  0  0  0
   -0.1308   -3.6456    1.0743 H   0  0  0  0  0  0  0  0  0  0  0  0
    0.9117    2.3306    2.4444 H   0  0  0  0  0  0  0  0  0  0  0  0
   -0.4766    2.0509    3.4608 H   0  0  0  0  0  0  0  0  0  0  0  0
    0.4440   -3.3533   -1.7937 H   0  0  0  0  0  0  0  0  0  0  0  0
   -2.4850    0.9046    3.5592 H   0  0  0  0  0  0  0  0  0  0  0  0
   -3.8077    0.2301    2.6166 H   0  0  0  0  0  0  0  0  0  0  0  0
   -3.3749    1.9352    2.4629 H   0  0  0  0  0  0  0  0  0  0  0  0
    1.1027    0.3323    3.9610 H   0  0  0  0  0  0  0  0  0  0  0  0
   -3.1227   -4.3063   -2.0177 H   0  0  0  0  0  0  0  0  0  0  0  0
   -2.9830   -2.9201   -3.1072 H   0  0  0  0  0  0  0  0  0  0  0  0
   -1.5480   -3.7061   -2.4852 H   0  0  0  0  0  0  0  0  0  0  0  0
   -4.5427   -1.5320   -1.7023 H   0  0  0  0  0  0  0  0  0  0  0  0
   -4.4917   -1.7407    0.0589 H   0  0  0  0  0  0  0  0  0  0  0  0
   -4.7111   -3.1073   -0.9628 H   0  0  0  0  0  0  0  0  0  0  0  0
   -2.4420   -4.6622    1.3854 H   0  0  0  0  0  0  0  0  0  0  0  0
    1.0473    0.1577   -1.0793 H   0  0  0  0  0  0  0  0  0  0  0  0
    0.2084    0.2397   -2.6449 H   0  0  0  0  0  0  0  0  0  0  0  0
    1.4745   -0.9390   -2.4095 H   0  0  0  0  0  0  0  0  0  0  0  0
   -0.1257   -1.2462    5.0516 H   0  0  0  0  0  0  0  0  0  0  0  0
   -1.5702   -2.0932    4.2972 H   0  0  0  0  0  0  0  0  0  0  0  0
   -4.6839    4.1274    0.5610 H   0  0  0  0  0  0  0  0  0  0  0  0
   -6.2098    3.5915   -0.1735 H   0  0  0  0  0  0  0  0  0  0  0  0
   -4.7884    3.8308   -1.2091 H   0  0  0  0  0  0  0  0  0  0  0  0
   -1.3916    5.5384    1.4363 H   0  0  0  0  0  0  0  0  0  0  0  0
   -0.5360    5.8566   -0.0853 H   0  0  0  0  0  0  0  0  0  0  0  0
   -2.1308    5.0751   -0.1354 H   0  0  0  0  0  0  0  0  0  0  0  0
   -4.9216    1.5851   -3.8242 H   0  0  0  0  0  0  0  0  0  0  0  0
   -4.0406    0.3432   -4.7800 H   0  0  0  0  0  0  0  0  0  0  0  0
   -3.7258    2.0706   -5.0441 H   0  0  0  0  0  0  0  0  0  0  0  0
    3.3779   -2.7263    1.4228 H   0  0  0  0  0  0  0  0  0  0  0  0
    4.2016   -2.3524   -0.1344 H   0  0  0  0  0  0  0  0  0  0  0  0
    4.2776   -3.9831    0.5689 H   0  0  0  0  0  0  0  0  0  0  0  0
    2.9621    0.1971    0.0470 H   0  0  0  0  0  0  0  0  0  0  0  0
    5.3714    0.9727    1.8195 H   0  0  0  0  0  0  0  0  0  0  0  0
    4.3095   -0.2723   -1.5842 H   0  0  0  0  0  0  0  0  0  0  0  0
    7.1143    2.2086    0.5932 H   0  0  0  0  0  0  0  0  0  0  0  0
    5.6115    0.0554   -3.6185 H   0  0  0  0  0  0  0  0  0  0  0  0
    8.4156    2.5094   -1.4790 H   0  0  0  0  0  0  0  0  0  0  0  0
    7.6706    1.4379   -3.5889 H   0  0  0  0  0  0  0  0  0  0  0  0
  1 14  1  0  0  0  0
  1 70  1  0  0  0  0
  2 17  1  0  0  0  0
  2 32  1  0  0  0  0
  3 18  1  0  0  0  0
  3 33  1  0  0  0  0
  4 20  1  0  0  0  0
  4 34  1  0  0  0  0
  5 24  1  0  0  0  0
  5 35  1  0  0  0  0
  6 26  1  0  0  0  0
  6 36  1  0  0  0  0
  7 32  2  0  0  0  0
  8 33  2  0  0  0  0
  9 34  2  0  0  0  0
 10 35  2  0  0  0  0
 11 36  2  0  0  0  0
 12 13  1  0  0  0  0
 12 17  1  0  0  0  0
 12 18  1  0  0  0  0
 12 25  1  0  0  0  0
 13 16  1  0  0  0  0
 13 22  1  0  0  0  0
 13 49  1  0  0  0  0
 14 15  1  0  0  0  0
 14 16  1  0  0  0  0
 14 21  1  0  0  0  0
 15 19  1  0  0  0  0
 15 28  1  0  0  0  0
 15 29  1  0  0  0  0
 16 50  1  0  0  0  0
 16 51  1  0  0  0  0
 17 20  1  0  0  0  0
 17 52  1  0  0  0  0
 18 23  1  0  0  0  0
 18 53  1  0  0  0  0
 19 20  1  0  0  0  0
 19 27  2  0  0  0  0
 20 54  1  0  0  0  0
 21 24  1  0  0  0  0
 21 55  1  0  0  0  0
 21 56  1  0  0  0  0
 22 26  1  0  0  0  0
 22 31  2  0  0  0  0
 23 26  1  0  0  0  0
 23 57  1  0  0  0  0
 23 58  1  0  0  0  0
 24 27  1  0  0  0  0
 24 59  1  0  0  0  0
 25 60  1  0  0  0  0
 25 61  1  0  0  0  0
 25 62  1  0  0  0  0
 26 63  1  0  0  0  0
 27 30  1  0  0  0  0
 28 64  1  0  0  0  0
 28 65  1  0  0  0  0
 28 66  1  0  0  0  0
 29 67  1  0  0  0  0
 29 68  1  0  0  0  0
 29 69  1  0  0  0  0
 30 71  1  0  0  0  0
 30 72  1  0  0  0  0
 30 73  1  0  0  0  0
 31 74  1  0  0  0  0
 31 75  1  0  0  0  0
 32 37  1  0  0  0  0
 33 38  1  0  0  0  0
 34 39  1  0  0  0  0
 35 40  1  0  0  0  0
 36 41  1  0  0  0  0
 37 76  1  0  0  0  0
 37 77  1  0  0  0  0
 37 78  1  0  0  0  0
 38 79  1  0  0  0  0
 38 80  1  0  0  0  0
 38 81  1  0  0  0  0
 39 82  1  0  0  0  0
 39 83  1  0  0  0  0
 39 84  1  0  0  0  0
 40 85  1  0  0  0  0
 40 86  1  0  0  0  0
 40 87  1  0  0  0  0
 41 42  2  0  0  0  0
 41 88  1  0  0  0  0
 42 43  1  0  0  0  0
 42 89  1  0  0  0  0
 43 44  2  0  0  0  0
 43 45  1  0  0  0  0
 44 46  1  0  0  0  0
 44 90  1  0  0  0  0
 45 47  2  0  0  0  0
 45 91  1  0  0  0  0
 46 48  2  0  0  0  0
 46 92  1  0  0  0  0
 47 48  1  0  0  0  0
 47 93  1  0  0  0  0
 48 94  1  0  0  0  0
M  END
> <PUBCHEM_COMPOUND_CID>
5321656

> <PUBCHEM_CONFORMER_RMSD>
1.4

> <PUBCHEM_CONFORMER_DIVERSEORDER>
1
2

> <PUBCHEM_MMFF94_PARTIAL_CHARGES>
51
1 -0.68
10 -0.57
11 -0.57
13 0.14
14 0.28
15 0.14
17 0.28
18 0.28
19 -0.28
2 -0.43
20 0.42
22 -0.28
24 0.42
26 0.42
27 -0.28
3 -0.43
30 0.14
31 -0.3
32 0.66
33 0.66
34 0.66
35 0.66
36 0.71
37 0.06
38 0.06
39 0.06
4 -0.43
40 0.06
41 -0.14
42 -0.18
43 0.03
44 -0.15
45 -0.15
46 -0.15
47 -0.15
48 -0.15
5 -0.43
6 -0.43
7 -0.57
70 0.4
74 0.15
75 0.15
8 -0.57
88 0.15
89 0.15
9 -0.57
90 0.15
91 0.15
92 0.15
93 0.15
94 0.15

> <PUBCHEM_EFFECTIVE_ROTOR_COUNT>
13.8

> <PUBCHEM_PHARMACOPHORE_FEATURES>
11
1 1 acceptor
1 1 donor
1 10 acceptor
1 11 acceptor
1 7 acceptor
1 8 acceptor
1 9 acceptor
3 15 28 29 hydrophobe
6 12 13 18 22 23 26 rings
6 14 15 19 21 24 27 rings
6 43 44 45 46 47 48 rings

> <PUBCHEM_HEAVY_ATOM_COUNT>
48

> <PUBCHEM_ATOM_DEF_STEREO_COUNT>
8

> <PUBCHEM_ATOM_UDEF_STEREO_COUNT>
0

> <PUBCHEM_BOND_DEF_STEREO_COUNT>
1

> <PUBCHEM_BOND_UDEF_STEREO_COUNT>
0

> <PUBCHEM_ISOTOPIC_ATOM_COUNT>
0

> <PUBCHEM_COMPONENT_COUNT>
1

> <PUBCHEM_CACTVS_TAUTO_COUNT>
1

> <PUBCHEM_CONFORMER_ID>
005133B800000001

> <PUBCHEM_MMFF94_ENERGY>
173.1018

> <PUBCHEM_FEATURE_SELFOVERLAP>
55.825

> <PUBCHEM_SHAPE_FINGERPRINT>
10032420 55 17823973635786184456
11285246 1 17771880973563653213
11578080 2 18337686229860108299
12156800 1 18269282416683365213
20691752 17 17696433366882954163
20764821 26 17766824049015464792
27425 322 17895191035283636371
469060 322 18124902267585419098
484985 159 16486430870032401530

> <PUBCHEM_SHAPE_MULTIPOLES>
923.26
12.18
5.44
4.04
25.27
0.67
-0.04
-7.75
8.82
-3.47
0.62
-0.97
-0.77
-0.36

> <PUBCHEM_SHAPE_SELFOVERLAP>
1944.707

> <PUBCHEM_SHAPE_VOLUME>
510.5

> <PUBCHEM_COORDINATE_TYPE>
2
5
10

$$$$
