6508206
  -OEChem-09092004073D

 39 39  0     0  0  0  0  0  0999 V2000
   -2.3513   -0.0083   -0.1026 C   0  0  0  0  0  0  0  0  0  0  0  0
   -1.3547    1.0912   -0.5848 C   0  0  0  0  0  0  0  0  0  0  0  0
   -1.7545   -1.0776    0.8072 C   0  0  0  0  0  0  0  0  0  0  0  0
   -3.5383    0.6667    0.6152 C   0  0  0  0  0  0  0  0  0  0  0  0
   -2.9288   -0.7227   -1.3529 C   0  0  0  0  0  0  0  0  0  0  0  0
   -0.4356    1.6298    0.4797 C   0  0  0  0  0  0  0  0  0  0  0  0
    0.8686    1.9416    0.3477 C   0  0  0  0  0  0  0  0  0  0  0  0
    1.6536    1.8862   -0.9468 C   0  0  0  0  0  0  0  0  0  0  0  0
   -0.6642   -1.8522    0.6788 C   0  0  0  0  0  0  0  0  0  0  0  0
    1.9806    0.4971   -1.5120 C   0  0  0  0  0  0  0  0  0  0  0  0
    0.3293   -1.9421   -0.4433 C   0  0  0  0  0  0  0  0  0  0  0  0
    1.7353   -1.5625   -0.0175 C   0  0  0  0  0  0  0  0  0  0  0  0
    2.4251   -0.5031   -0.4860 C   0  0  0  0  0  0  0  0  0  0  0  0
    1.6445    2.4441    1.5385 C   0  0  0  0  0  0  0  0  0  0  0  0
    2.3905   -2.4883    0.9789 C   0  0  0  0  0  0  0  0  0  0  0  0
   -1.9300    1.9400   -0.9794 H   0  0  0  0  0  0  0  0  0  0  0  0
   -0.7847    0.7196   -1.4374 H   0  0  0  0  0  0  0  0  0  0  0  0
   -2.3206   -1.2506    1.7246 H   0  0  0  0  0  0  0  0  0  0  0  0
   -4.3048   -0.0652    0.8983 H   0  0  0  0  0  0  0  0  0  0  0  0
   -3.2194    1.1756    1.5317 H   0  0  0  0  0  0  0  0  0  0  0  0
   -4.0228    1.4117   -0.0267 H   0  0  0  0  0  0  0  0  0  0  0  0
   -3.4371   -0.0068   -2.0099 H   0  0  0  0  0  0  0  0  0  0  0  0
   -2.1521   -1.2129   -1.9481 H   0  0  0  0  0  0  0  0  0  0  0  0
   -3.6613   -1.4890   -1.0716 H   0  0  0  0  0  0  0  0  0  0  0  0
   -0.8936    1.7732    1.4568 H   0  0  0  0  0  0  0  0  0  0  0  0
    1.1177    2.4616   -1.7134 H   0  0  0  0  0  0  0  0  0  0  0  0
    2.6002    2.4266   -0.8077 H   0  0  0  0  0  0  0  0  0  0  0  0
   -0.4889   -2.5541    1.4948 H   0  0  0  0  0  0  0  0  0  0  0  0
    2.7932    0.6085   -2.2424 H   0  0  0  0  0  0  0  0  0  0  0  0
    1.1428    0.1268   -2.1059 H   0  0  0  0  0  0  0  0  0  0  0  0
    0.3476   -2.9816   -0.7967 H   0  0  0  0  0  0  0  0  0  0  0  0
   -0.0056   -1.3664   -1.3043 H   0  0  0  0  0  0  0  0  0  0  0  0
    3.4308   -0.3322   -0.1043 H   0  0  0  0  0  0  0  0  0  0  0  0
    2.5092    1.7998    1.7275 H   0  0  0  0  0  0  0  0  0  0  0  0
    1.0422    2.4632    2.4528 H   0  0  0  0  0  0  0  0  0  0  0  0
    2.0021    3.4628    1.3555 H   0  0  0  0  0  0  0  0  0  0  0  0
    2.3518   -3.5217    0.6189 H   0  0  0  0  0  0  0  0  0  0  0  0
    1.8855   -2.4357    1.9482 H   0  0  0  0  0  0  0  0  0  0  0  0
    3.4447   -2.2414    1.1453 H   0  0  0  0  0  0  0  0  0  0  0  0
  1  2  1  0  0  0  0
  1  3  1  0  0  0  0
  1  4  1  0  0  0  0
  1  5  1  0  0  0  0
  2  6  1  0  0  0  0
  2 16  1  0  0  0  0
  2 17  1  0  0  0  0
  3  9  2  0  0  0  0
  3 18  1  0  0  0  0
  4 19  1  0  0  0  0
  4 20  1  0  0  0  0
  4 21  1  0  0  0  0
  5 22  1  0  0  0  0
  5 23  1  0  0  0  0
  5 24  1  0  0  0  0
  6  7  2  0  0  0  0
  6 25  1  0  0  0  0
  7  8  1  0  0  0  0
  7 14  1  0  0  0  0
  8 10  1  0  0  0  0
  8 26  1  0  0  0  0
  8 27  1  0  0  0  0
  9 11  1  0  0  0  0
  9 28  1  0  0  0  0
 10 13  1  0  0  0  0
 10 29  1  0  0  0  0
 10 30  1  0  0  0  0
 11 12  1  0  0  0  0
 11 31  1  0  0  0  0
 11 32  1  0  0  0  0
 12 13  2  0  0  0  0
 12 15  1  0  0  0  0
 13 33  1  0  0  0  0
 14 34  1  0  0  0  0
 14 35  1  0  0  0  0
 14 36  1  0  0  0  0
 15 37  1  0  0  0  0
 15 38  1  0  0  0  0
 15 39  1  0  0  0  0
M  END
> <PUBCHEM_COMPOUND_CID>
6508206

> <PUBCHEM_CONFORMER_RMSD>
0.4

> <PUBCHEM_CONFORMER_DIVERSEORDER>
1

> <PUBCHEM_MMFF94_PARTIAL_CHARGES>
17
1 0.14
10 0.14
11 0.28
12 -0.28
13 -0.29
14 0.14
15 0.14
18 0.15
2 0.14
25 0.15
28 0.15
3 -0.29
33 0.15
6 -0.29
7 -0.28
8 0.14
9 -0.29

> <PUBCHEM_EFFECTIVE_ROTOR_COUNT>
1

> <PUBCHEM_PHARMACOPHORE_FEATURES>
1
3 1 4 5 hydrophobe

> <PUBCHEM_HEAVY_ATOM_COUNT>
15

> <PUBCHEM_ATOM_DEF_STEREO_COUNT>
0

> <PUBCHEM_ATOM_UDEF_STEREO_COUNT>
0

> <PUBCHEM_BOND_DEF_STEREO_COUNT>
3

> <PUBCHEM_BOND_UDEF_STEREO_COUNT>
0

> <PUBCHEM_ISOTOPIC_ATOM_COUNT>
0

> <PUBCHEM_COMPONENT_COUNT>
1

> <PUBCHEM_CACTVS_TAUTO_COUNT>
1

> <PUBCHEM_CONFORMER_ID>
00634EAE00000001

> <PUBCHEM_MMFF94_ENERGY>
32.5526

> <PUBCHEM_FEATURE_SELFOVERLAP>
5.074

> <PUBCHEM_SHAPE_FINGERPRINT>
104564 63 17979647736064465556
12382932 28 17837772222877678824
12716301 132 17762338415637194208
13897977 150 18262525895870788327
14178342 30 18122906692508889769
14251711 518 17760932835865107207
14761567 1 18262535756957697902
14817 1 9032670511488632092
15775835 57 18339372940820741165
15852999 172 17828172687751008639
16945 1 18186528695625097598
19930374 2 17759212460691916981
20511035 2 18337394949388216639
21501502 16 18335991955888406267
21947302 44 18337387270160738575
2334 1 17905334279047319766
23402539 116 18050551959421909895
23419403 2 17613948055748051812
257057 1 18121480376518932390
2748010 2 17977394046259604198
2803657 2 18055377776185604888
2897 32 18263654969542275884
66348 1 18337964487842406526
81228 2 17545889221938348458

> <PUBCHEM_SHAPE_MULTIPOLES>
308.69
4.42
2.99
1.35
2.67
0
0.09
-0.44
0.28
-2.01
-0.96
-0.28
0.27
-0.27

> <PUBCHEM_SHAPE_SELFOVERLAP>
602.783

> <PUBCHEM_SHAPE_VOLUME>
185.6

> <PUBCHEM_COORDINATE_TYPE>
2
5
10

$$$$
