21673419
  -OEChem-09092005113D

 73 78  0     1  0  0  0  0  0999 V2000
    0.1885    4.1638    0.9407 O   0  0  0  0  0  0  0  0  0  0  0  0
   -1.9774   -1.7985    2.1143 O   0  0  0  0  0  0  0  0  0  0  0  0
    1.4656   -0.4067    0.1957 O   0  0  0  0  0  0  0  0  0  0  0  0
    1.4412    2.0013   -0.7960 O   0  0  0  0  0  0  0  0  0  0  0  0
   -4.1141   -0.0996   -0.1812 O   0  0  0  0  0  0  0  0  0  0  0  0
   -4.0200    2.5084   -0.1041 O   0  0  0  0  0  0  0  0  0  0  0  0
   -0.6091   -2.4105   -3.4741 O   0  0  0  0  0  0  0  0  0  0  0  0
   -4.0676   -0.9787    2.2711 O   0  0  0  0  0  0  0  0  0  0  0  0
    0.1281    2.2195   -2.6838 O   0  0  0  0  0  0  0  0  0  0  0  0
    2.0808   -0.2802    2.4104 O   0  0  0  0  0  0  0  0  0  0  0  0
   -0.5559    0.9586   -0.0096 C   0  0  2  0  0  0  0  0  0  0  0  0
   -2.0396    1.1270    0.5004 C   0  0  2  0  0  0  0  0  0  0  0  0
   -0.6849   -1.5984    0.0433 C   0  0  2  0  0  0  0  0  0  0  0  0
    0.0894   -0.3184    0.5584 C   0  0  1  0  0  0  0  0  0  0  0  0
    0.3107    2.2066    0.1027 C   0  0  2  0  0  0  0  0  0  0  0  0
   -2.7941   -0.2817    0.3135 C   0  0  2  0  0  0  0  0  0  0  0  0
   -2.0093   -1.1874   -0.5812 C   0  0  0  0  0  0  0  0  0  0  0  0
   -2.6349    2.2877   -0.3754 C   0  0  2  0  0  0  0  0  0  0  0  0
   -0.3986    3.5301   -0.2324 C   0  0  1  0  0  0  0  0  0  0  0  0
   -1.0768   -2.5314    1.2253 C   0  0  0  0  0  0  0  0  0  0  0  0
    0.0093   -2.2934   -1.1512 C   0  0  0  0  0  0  0  0  0  0  0  0
   -1.9182    3.6361   -0.1839 C   0  0  0  0  0  0  0  0  0  0  0  0
    0.7642    2.9107    1.3810 C   0  0  0  0  0  0  0  0  0  0  0  0
   -2.1424    1.5376    1.9959 C   0  0  0  0  0  0  0  0  0  0  0  0
   -2.2183   -1.7340   -1.7908 C   0  0  0  0  0  0  0  0  0  0  0  0
   -1.0862   -2.6514   -2.1595 C   0  0  1  0  0  0  0  0  0  0  0  0
   -3.0232   -1.0689    1.6271 C   0  0  0  0  0  0  0  0  0  0  0  0
   -1.8110   -3.8339    0.8399 C   0  0  0  0  0  0  0  0  0  0  0  0
    0.1385   -2.9437    2.0773 C   0  0  0  0  0  0  0  0  0  0  0  0
   -3.3789   -1.6049   -2.7168 C   0  0  0  0  0  0  0  0  0  0  0  0
    1.1083    1.7864   -2.0935 C   0  0  0  0  0  0  0  0  0  0  0  0
    2.3556   -0.3756    1.2243 C   0  0  0  0  0  0  0  0  0  0  0  0
    2.1507    0.9130   -2.7230 C   0  0  0  0  0  0  0  0  0  0  0  0
    3.7472   -0.4732    0.7162 C   0  0  0  0  0  0  0  0  0  0  0  0
    4.6563    0.5540    0.9704 C   0  0  0  0  0  0  0  0  0  0  0  0
    4.1461   -1.5922   -0.0151 C   0  0  0  0  0  0  0  0  0  0  0  0
    5.9638    0.4622    0.4933 C   0  0  0  0  0  0  0  0  0  0  0  0
    5.4537   -1.6839   -0.4921 C   0  0  0  0  0  0  0  0  0  0  0  0
    6.3625   -0.6566   -0.2378 C   0  0  0  0  0  0  0  0  0  0  0  0
   -0.6776    0.7575   -1.0783 H   0  0  0  0  0  0  0  0  0  0  0  0
   -0.0110   -0.2470    1.6439 H   0  0  0  0  0  0  0  0  0  0  0  0
   -2.5665    1.9965   -1.4315 H   0  0  0  0  0  0  0  0  0  0  0  0
   -0.0207    4.0516   -1.1202 H   0  0  0  0  0  0  0  0  0  0  0  0
    0.5722   -3.1836   -0.8511 H   0  0  0  0  0  0  0  0  0  0  0  0
    0.7320   -1.6368   -1.6452 H   0  0  0  0  0  0  0  0  0  0  0  0
   -2.2623    4.3318   -0.9608 H   0  0  0  0  0  0  0  0  0  0  0  0
   -2.2503    4.1035    0.7520 H   0  0  0  0  0  0  0  0  0  0  0  0
    0.3448    2.5657    2.3271 H   0  0  0  0  0  0  0  0  0  0  0  0
    1.8487    3.0016    1.5033 H   0  0  0  0  0  0  0  0  0  0  0  0
   -3.1885    1.5429    2.3239 H   0  0  0  0  0  0  0  0  0  0  0  0
   -1.5856    0.8679    2.6568 H   0  0  0  0  0  0  0  0  0  0  0  0
   -1.7779    2.5451    2.1957 H   0  0  0  0  0  0  0  0  0  0  0  0
   -1.3969   -3.6983   -2.0815 H   0  0  0  0  0  0  0  0  0  0  0  0
   -2.1104   -4.3856    1.7398 H   0  0  0  0  0  0  0  0  0  0  0  0
   -2.7439   -3.6440    0.3002 H   0  0  0  0  0  0  0  0  0  0  0  0
   -1.1816   -4.4948    0.2365 H   0  0  0  0  0  0  0  0  0  0  0  0
   -0.1382   -3.7271    2.7938 H   0  0  0  0  0  0  0  0  0  0  0  0
    0.9607   -3.3274    1.4668 H   0  0  0  0  0  0  0  0  0  0  0  0
    0.4965   -2.1221    2.6997 H   0  0  0  0  0  0  0  0  0  0  0  0
   -4.5757    0.5165    0.4131 H   0  0  0  0  0  0  0  0  0  0  0  0
   -4.3350    3.1939   -0.7177 H   0  0  0  0  0  0  0  0  0  0  0  0
   -3.0404   -1.2765   -3.7049 H   0  0  0  0  0  0  0  0  0  0  0  0
   -4.1229   -0.8805   -2.3842 H   0  0  0  0  0  0  0  0  0  0  0  0
   -3.8789   -2.5721   -2.8300 H   0  0  0  0  0  0  0  0  0  0  0  0
    0.1615   -2.9868   -3.6148 H   0  0  0  0  0  0  0  0  0  0  0  0
    2.1991   -0.0584   -2.2341 H   0  0  0  0  0  0  0  0  0  0  0  0
    1.8964    0.7543   -3.7752 H   0  0  0  0  0  0  0  0  0  0  0  0
    3.1236    1.4097   -2.6773 H   0  0  0  0  0  0  0  0  0  0  0  0
    4.3554    1.4312    1.5371 H   0  0  0  0  0  0  0  0  0  0  0  0
    3.4476   -2.4001   -0.2179 H   0  0  0  0  0  0  0  0  0  0  0  0
    6.6712    1.2623    0.6905 H   0  0  0  0  0  0  0  0  0  0  0  0
    5.7643   -2.5552   -1.0612 H   0  0  0  0  0  0  0  0  0  0  0  0
    7.3805   -0.7279   -0.6095 H   0  0  0  0  0  0  0  0  0  0  0  0
  1 19  1  0  0  0  0
  1 23  1  0  0  0  0
  2 20  1  0  0  0  0
  2 27  1  0  0  0  0
  3 14  1  0  0  0  0
  3 32  1  0  0  0  0
  4 15  1  0  0  0  0
  4 31  1  0  0  0  0
  5 16  1  0  0  0  0
  5 60  1  0  0  0  0
  6 18  1  0  0  0  0
  6 61  1  0  0  0  0
  7 26  1  0  0  0  0
  7 65  1  0  0  0  0
  8 27  2  0  0  0  0
  9 31  2  0  0  0  0
 10 32  2  0  0  0  0
 11 12  1  0  0  0  0
 11 14  1  0  0  0  0
 11 15  1  0  0  0  0
 11 40  1  0  0  0  0
 12 16  1  0  0  0  0
 12 18  1  0  0  0  0
 12 24  1  0  0  0  0
 13 14  1  0  0  0  0
 13 17  1  0  0  0  0
 13 20  1  0  0  0  0
 13 21  1  0  0  0  0
 14 41  1  0  0  0  0
 15 19  1  0  0  0  0
 15 23  1  0  0  0  0
 16 17  1  0  0  0  0
 16 27  1  0  0  0  0
 17 25  2  0  0  0  0
 18 22  1  0  0  0  0
 18 42  1  0  0  0  0
 19 22  1  0  0  0  0
 19 43  1  0  0  0  0
 20 28  1  0  0  0  0
 20 29  1  0  0  0  0
 21 26  1  0  0  0  0
 21 44  1  0  0  0  0
 21 45  1  0  0  0  0
 22 46  1  0  0  0  0
 22 47  1  0  0  0  0
 23 48  1  0  0  0  0
 23 49  1  0  0  0  0
 24 50  1  0  0  0  0
 24 51  1  0  0  0  0
 24 52  1  0  0  0  0
 25 26  1  0  0  0  0
 25 30  1  0  0  0  0
 26 53  1  0  0  0  0
 28 54  1  0  0  0  0
 28 55  1  0  0  0  0
 28 56  1  0  0  0  0
 29 57  1  0  0  0  0
 29 58  1  0  0  0  0
 29 59  1  0  0  0  0
 30 62  1  0  0  0  0
 30 63  1  0  0  0  0
 30 64  1  0  0  0  0
 31 33  1  0  0  0  0
 32 34  1  0  0  0  0
 33 66  1  0  0  0  0
 33 67  1  0  0  0  0
 33 68  1  0  0  0  0
 34 35  2  0  0  0  0
 34 36  1  0  0  0  0
 35 37  1  0  0  0  0
 35 69  1  0  0  0  0
 36 38  2  0  0  0  0
 36 70  1  0  0  0  0
 37 39  2  0  0  0  0
 37 71  1  0  0  0  0
 38 39  1  0  0  0  0
 38 72  1  0  0  0  0
 39 73  1  0  0  0  0
M  END
> <PUBCHEM_COMPOUND_CID>
21673419

> <PUBCHEM_CONFORMER_RMSD>
1

> <PUBCHEM_CONFORMER_DIVERSEORDER>
1
2

> <PUBCHEM_MMFF94_PARTIAL_CHARGES>
40
1 -0.52
10 -0.57
13 0.14
14 0.28
15 0.26
16 0.48
17 -0.28
18 0.28
19 0.26
2 -0.43
20 0.28
23 0.26
25 -0.28
26 0.42
27 0.66
3 -0.43
30 0.14
31 0.66
32 0.63
33 0.06
34 0.09
35 -0.15
36 -0.15
37 -0.15
38 -0.15
39 -0.15
4 -0.41
5 -0.68
6 -0.68
60 0.4
61 0.4
65 0.4
69 0.15
7 -0.68
70 0.15
71 0.15
72 0.15
73 0.15
8 -0.57
9 -0.57

> <PUBCHEM_EFFECTIVE_ROTOR_COUNT>
6.8

> <PUBCHEM_PHARMACOPHORE_FEATURES>
17
1 1 acceptor
1 10 acceptor
1 5 acceptor
1 5 donor
1 6 acceptor
1 6 donor
1 7 acceptor
1 7 donor
1 8 acceptor
1 9 acceptor
3 20 28 29 hydrophobe
4 1 15 19 23 rings
5 13 17 21 25 26 rings
6 11 12 13 14 16 17 rings
6 11 12 15 18 19 22 rings
6 2 13 16 17 20 27 rings
6 34 35 36 37 38 39 rings

> <PUBCHEM_HEAVY_ATOM_COUNT>
39

> <PUBCHEM_ATOM_DEF_STEREO_COUNT>
9

> <PUBCHEM_ATOM_UDEF_STEREO_COUNT>
0

> <PUBCHEM_BOND_DEF_STEREO_COUNT>
0

> <PUBCHEM_BOND_UDEF_STEREO_COUNT>
0

> <PUBCHEM_ISOTOPIC_ATOM_COUNT>
0

> <PUBCHEM_COMPONENT_COUNT>
1

> <PUBCHEM_CACTVS_TAUTO_COUNT>
1

> <PUBCHEM_CONFORMER_ID>
014AB5CB00000001

> <PUBCHEM_MMFF94_ENERGY>
169.1456

> <PUBCHEM_FEATURE_SELFOVERLAP>
88.103

> <PUBCHEM_SHAPE_FINGERPRINT>
10006869 2 17976817589066554169
10906281 52 18121507856158081505
11513181 2 18197772202805165838
11578080 2 16628311782051140888
12156800 1 17249544587391433091
12422481 6 18124626130915122593
12788726 201 18336533933563656682
13140716 1 18123479533782563011
14068700 675 17273112799558549903
14955137 171 18339372953668901803
15361156 5 18341341007528648830
15849732 13 18342738537714026639
16945 1 17034741054316888139
17492 54 18051664708782165653
20600515 1 18189074060648159438
20764821 26 16102773107086404208
21033648 29 18271796904865049936
22121540 332 16407656196188310745
2818148 4 17828503687853574707
35225 105 18052799387259094124
469060 322 15357987758825220986
57527306 92 18261387828232094293
57527358 35 16082236145498116981
70251023 43 17910659183717311678

> <PUBCHEM_SHAPE_MULTIPOLES>
743.91
8.3
4.55
2.64
14.51
2.03
-1.45
-1.99
0.91
-2.81
-0.06
-1.23
-1.19
-0.31

> <PUBCHEM_SHAPE_SELFOVERLAP>
1645.438

> <PUBCHEM_SHAPE_VOLUME>
391.2

> <PUBCHEM_COORDINATE_TYPE>
2
5
10

$$$$
