12303845
  -OEChem-09092005253D

 46 49  0     1  0  0  0  0  0999 V2000
    1.3764    3.8039    0.7067 O   0  0  0  0  0  0  0  0  0  0  0  0
    3.4110    3.0856   -0.0802 O   0  0  0  0  0  0  0  0  0  0  0  0
    3.6818   -3.1222   -0.0505 O   0  0  0  0  0  0  0  0  0  0  0  0
    1.8731   -3.1268    2.0594 O   0  0  0  0  0  0  0  0  0  0  0  0
   -3.8756   -0.9872   -1.8285 O   0  0  0  0  0  0  0  0  0  0  0  0
   -5.4349   -0.8426    0.4681 O   0  0  0  0  0  0  0  0  0  0  0  0
    0.0050    2.3043   -0.4598 C   0  0  1  0  0  0  0  0  0  0  0  0
    1.3362    2.4167   -1.1830 C   0  0  2  0  0  0  0  0  0  0  0  0
   -0.1080    1.0925    0.5202 C   0  0  2  0  0  0  0  0  0  0  0  0
    1.8747    1.1005   -1.7118 C   0  0  0  0  0  0  0  0  0  0  0  0
    0.0105    3.6214    0.3067 C   0  0  0  0  0  0  0  0  0  0  0  0
    0.9178   -0.0184    0.3444 C   0  0  0  0  0  0  0  0  0  0  0  0
    1.8559   -0.0051   -0.6971 C   0  0  0  0  0  0  0  0  0  0  0  0
    2.1924    3.1041   -0.1456 C   0  0  0  0  0  0  0  0  0  0  0  0
   -1.5433    0.5693    0.5028 C   0  0  0  0  0  0  0  0  0  0  0  0
    0.9512   -1.0772    1.2724 C   0  0  0  0  0  0  0  0  0  0  0  0
    2.7697   -1.0643   -0.8247 C   0  0  0  0  0  0  0  0  0  0  0  0
   -2.0605    0.0246   -0.6656 C   0  0  0  0  0  0  0  0  0  0  0  0
   -2.3148    0.6456    1.6553 C   0  0  0  0  0  0  0  0  0  0  0  0
    1.8726   -2.1163    1.1464 C   0  0  0  0  0  0  0  0  0  0  0  0
    2.7795   -2.1124    0.0933 C   0  0  0  0  0  0  0  0  0  0  0  0
   -3.3712   -0.4522   -0.6816 C   0  0  0  0  0  0  0  0  0  0  0  0
   -3.6255    0.1690    1.6393 C   0  0  0  0  0  0  0  0  0  0  0  0
   -4.1537   -0.3800    0.4709 C   0  0  0  0  0  0  0  0  0  0  0  0
    3.2810   -4.2430   -0.8366 C   0  0  0  0  0  0  0  0  0  0  0  0
   -3.7011   -2.3897   -2.0208 C   0  0  0  0  0  0  0  0  0  0  0  0
   -0.8170    2.3107   -1.1847 H   0  0  0  0  0  0  0  0  0  0  0  0
    1.2512    3.1245   -2.0191 H   0  0  0  0  0  0  0  0  0  0  0  0
    0.0933    1.4744    1.5328 H   0  0  0  0  0  0  0  0  0  0  0  0
    2.8999    1.2520   -2.0722 H   0  0  0  0  0  0  0  0  0  0  0  0
    1.2705    0.7793   -2.5695 H   0  0  0  0  0  0  0  0  0  0  0  0
   -0.2756    4.4682   -0.3274 H   0  0  0  0  0  0  0  0  0  0  0  0
   -0.6360    3.6153    1.1894 H   0  0  0  0  0  0  0  0  0  0  0  0
    0.2508   -1.0933    2.1048 H   0  0  0  0  0  0  0  0  0  0  0  0
    3.4840   -1.0663   -1.6456 H   0  0  0  0  0  0  0  0  0  0  0  0
   -1.4569   -0.0397   -1.5674 H   0  0  0  0  0  0  0  0  0  0  0  0
   -1.9168    1.0709    2.5722 H   0  0  0  0  0  0  0  0  0  0  0  0
   -4.2299    0.2280    2.5404 H   0  0  0  0  0  0  0  0  0  0  0  0
    2.5976   -3.7388    1.8431 H   0  0  0  0  0  0  0  0  0  0  0  0
    3.0982   -3.9369   -1.8716 H   0  0  0  0  0  0  0  0  0  0  0  0
    2.3829   -4.7093   -0.4193 H   0  0  0  0  0  0  0  0  0  0  0  0
    4.0923   -4.9759   -0.8267 H   0  0  0  0  0  0  0  0  0  0  0  0
   -5.6503   -1.1511   -0.4288 H   0  0  0  0  0  0  0  0  0  0  0  0
   -4.1633   -2.9546   -1.2051 H   0  0  0  0  0  0  0  0  0  0  0  0
   -2.6367   -2.6352   -2.0910 H   0  0  0  0  0  0  0  0  0  0  0  0
   -4.1872   -2.6698   -2.9594 H   0  0  0  0  0  0  0  0  0  0  0  0
  1 11  1  0  0  0  0
  1 14  1  0  0  0  0
  2 14  2  0  0  0  0
  3 21  1  0  0  0  0
  3 25  1  0  0  0  0
  4 20  1  0  0  0  0
  4 39  1  0  0  0  0
  5 22  1  0  0  0  0
  5 26  1  0  0  0  0
  6 24  1  0  0  0  0
  6 43  1  0  0  0  0
  7  8  1  0  0  0  0
  7  9  1  0  0  0  0
  7 11  1  0  0  0  0
  7 27  1  0  0  0  0
  8 10  1  0  0  0  0
  8 14  1  0  0  0  0
  8 28  1  0  0  0  0
  9 12  1  0  0  0  0
  9 15  1  0  0  0  0
  9 29  1  0  0  0  0
 10 13  1  0  0  0  0
 10 30  1  0  0  0  0
 10 31  1  0  0  0  0
 11 32  1  0  0  0  0
 11 33  1  0  0  0  0
 12 13  1  0  0  0  0
 12 16  2  0  0  0  0
 13 17  2  0  0  0  0
 15 18  2  0  0  0  0
 15 19  1  0  0  0  0
 16 20  1  0  0  0  0
 16 34  1  0  0  0  0
 17 21  1  0  0  0  0
 17 35  1  0  0  0  0
 18 22  1  0  0  0  0
 18 36  1  0  0  0  0
 19 23  2  0  0  0  0
 19 37  1  0  0  0  0
 20 21  2  0  0  0  0
 22 24  2  0  0  0  0
 23 24  1  0  0  0  0
 23 38  1  0  0  0  0
 25 40  1  0  0  0  0
 25 41  1  0  0  0  0
 25 42  1  0  0  0  0
 26 44  1  0  0  0  0
 26 45  1  0  0  0  0
 26 46  1  0  0  0  0
M  END
> <PUBCHEM_COMPOUND_CID>
12303845

> <PUBCHEM_CONFORMER_RMSD>
0.8

> <PUBCHEM_CONFORMER_DIVERSEORDER>
1
8
7
5
4
9
10
6
2
3

> <PUBCHEM_MMFF94_PARTIAL_CHARGES>
32
1 -0.43
10 0.14
11 0.28
12 -0.14
13 -0.14
14 0.66
15 -0.14
16 -0.15
17 -0.15
18 -0.15
19 -0.15
2 -0.57
20 0.08
21 0.08
22 0.08
23 -0.15
24 0.08
25 0.28
26 0.28
3 -0.36
34 0.15
35 0.15
36 0.15
37 0.15
38 0.15
39 0.45
4 -0.53
43 0.45
5 -0.36
6 -0.53
8 0.06
9 0.29

> <PUBCHEM_EFFECTIVE_ROTOR_COUNT>
3.8

> <PUBCHEM_PHARMACOPHORE_FEATURES>
9
1 2 acceptor
1 3 acceptor
1 4 donor
1 5 acceptor
1 6 donor
5 1 7 8 11 14 rings
6 12 13 16 17 20 21 rings
6 15 18 19 22 23 24 rings
6 7 8 9 10 12 13 rings

> <PUBCHEM_HEAVY_ATOM_COUNT>
26

> <PUBCHEM_ATOM_DEF_STEREO_COUNT>
3

> <PUBCHEM_ATOM_UDEF_STEREO_COUNT>
0

> <PUBCHEM_BOND_DEF_STEREO_COUNT>
0

> <PUBCHEM_BOND_UDEF_STEREO_COUNT>
0

> <PUBCHEM_ISOTOPIC_ATOM_COUNT>
0

> <PUBCHEM_COMPONENT_COUNT>
1

> <PUBCHEM_CACTVS_TAUTO_COUNT>
52

> <PUBCHEM_CONFORMER_ID>
00BBBDE500000001

> <PUBCHEM_MMFF94_ENERGY>
92.6955

> <PUBCHEM_FEATURE_SELFOVERLAP>
45.928

> <PUBCHEM_SHAPE_FINGERPRINT>
10291535 26 11172496619236703294
10764073 3 15437003019267507544
11069576 57 17841683465248793503
11578080 2 18129362839909074465
121448 382 17479170212288604865
12160290 23 17252009542295111832
12553582 1 18118123576193923235
12643181 29 17904775719775510700
12788726 201 17467916263858963456
13004483 165 17904747900042063139
13009979 54 17846505811452058467
13140716 1 18191034597845516840
13533116 47 18335433404514129587
13583140 156 18194415592212227025
13681431 1 18260547801290580912
13692114 37 17692242354342962427
13911987 19 17607563307868911764
14787075 74 18261406511967436470
14844126 61 17760921845070391770
15131766 46 14570767021415183678
1813 80 18198073486038825799
20567600 347 17829310733741267051
21421861 104 18409453578645658249
22112679 90 18197796400455271129
2255824 54 18339929323732327789
23419403 2 16088339439833276040
23598288 3 17759825657435890821
238 59 18042117833658758631
3493558 16 14872676911090356981
404807 78 16385604803811185815
474 4 18053392285919860777
5265222 85 15818483745628985358
6438718 38 17471583126705794042
70251023 43 18336272228005131899
7364860 26 18410015471999700904
7471813 234 18337952290256702540
7970288 3 18265060128524554147
81228 2 17613701631619921720

> <PUBCHEM_SHAPE_MULTIPOLES>
499.85
7.44
4.9
1.69
7.69
0.9
0.08
-6
0.86
-6.32
0.26
0.89
-0.86
-1.5

> <PUBCHEM_SHAPE_SELFOVERLAP>
1102.708

> <PUBCHEM_SHAPE_VOLUME>
269.3

> <PUBCHEM_COORDINATE_TYPE>
2
5
10

$$$$
