100991413
  -OEChem-09092005103D

 86 89  0     1  0  0  0  0  0999 V2000
   -4.6205   -1.1376   -0.7066 O   0  0  0  0  0  0  0  0  0  0  0  0
   -3.9695    1.4154   -0.7685 O   0  0  0  0  0  0  0  0  0  0  0  0
    1.5951   -0.7444   -1.3016 O   0  0  0  0  0  0  0  0  0  0  0  0
    2.2519    1.4083   -0.0586 O   0  0  0  0  0  0  0  0  0  0  0  0
    0.4289   -2.9424   -0.0174 O   0  0  0  0  0  0  0  0  0  0  0  0
   -2.8261    0.5402    3.3494 O   0  0  0  0  0  0  0  0  0  0  0  0
   -1.1490    3.0495    2.2673 O   0  0  0  0  0  0  0  0  0  0  0  0
   -4.7177    0.3980   -2.7028 O   0  0  0  0  0  0  0  0  0  0  0  0
    1.0082   -2.5303   -2.6442 O   0  0  0  0  0  0  0  0  0  0  0  0
    2.9634    1.3022    2.1281 O   0  0  0  0  0  0  0  0  0  0  0  0
    2.2159   -2.8650    1.4445 O   0  0  0  0  0  0  0  0  0  0  0  0
   -0.1212    0.9076   -0.6496 C   0  0  2  0  0  0  0  0  0  0  0  0
   -1.5999    1.2694   -0.1218 C   0  0  2  0  0  0  0  0  0  0  0  0
   -3.4350   -0.7595    0.0355 C   0  0  1  0  0  0  0  0  0  0  0  0
   -2.5132   -2.0100    0.0603 C   0  0  0  0  0  0  0  0  0  0  0  0
   -2.8467    0.5104   -0.7299 C   0  0  1  0  0  0  0  0  0  0  0  0
    0.2253   -0.6279   -0.8607 C   0  0  2  0  0  0  0  0  0  0  0  0
    0.8997    1.5571    0.3759 C   0  0  2  0  0  0  0  0  0  0  0  0
   -1.3057   -1.6135    0.9318 C   0  0  0  0  0  0  0  0  0  0  0  0
    0.0764   -1.6016    0.3319 C   0  0  1  0  0  0  0  0  0  0  0  0
   -3.9226   -0.4343    1.4787 C   0  0  0  0  0  0  0  0  0  0  0  0
   -1.6743    2.8163   -0.0756 C   0  0  0  0  0  0  0  0  0  0  0  0
    0.6846    3.0581    0.6517 C   0  0  0  0  0  0  0  0  0  0  0  0
    0.0952    1.5523   -2.0601 C   0  0  0  0  0  0  0  0  0  0  0  0
   -2.9141   -0.6911    2.6197 C   0  0  1  0  0  0  0  0  0  0  0  0
   -0.7618    3.4428    0.9542 C   0  0  2  0  0  0  0  0  0  0  0  0
   -1.5268   -1.1444    2.1896 C   0  0  0  0  0  0  0  0  0  0  0  0
   -3.1955   -3.2457    0.7429 C   0  0  0  0  0  0  0  0  0  0  0  0
   -2.2954   -2.5357   -1.3887 C   0  0  0  0  0  0  0  0  0  0  0  0
   -0.4529   -0.9648    3.2348 C   0  0  0  0  0  0  0  0  0  0  0  0
   -2.3405    3.6192   -0.9243 C   0  0  0  0  0  0  0  0  0  0  0  0
   -4.8159    1.2339   -1.8147 C   0  0  0  0  0  0  0  0  0  0  0  0
    1.8286   -1.7427   -2.1930 C   0  0  0  0  0  0  0  0  0  0  0  0
    3.1812    1.2913    0.9265 C   0  0  0  0  0  0  0  0  0  0  0  0
    1.5249   -3.4473    0.6195 C   0  0  0  0  0  0  0  0  0  0  0  0
   -5.9258    2.2371   -1.7255 C   0  0  0  0  0  0  0  0  0  0  0  0
    3.2822   -1.7439   -2.5581 C   0  0  0  0  0  0  0  0  0  0  0  0
    4.5399    1.1437    0.3464 C   0  0  0  0  0  0  0  0  0  0  0  0
    1.7735   -4.8509    0.1572 C   0  0  0  0  0  0  0  0  0  0  0  0
    5.5153    0.4174    1.0296 C   0  0  0  0  0  0  0  0  0  0  0  0
    4.8404    1.7303   -0.8828 C   0  0  0  0  0  0  0  0  0  0  0  0
    6.7913    0.2776    0.4836 C   0  0  0  0  0  0  0  0  0  0  0  0
    6.1163    1.5907   -1.4289 C   0  0  0  0  0  0  0  0  0  0  0  0
    7.0917    0.8643   -0.7457 C   0  0  0  0  0  0  0  0  0  0  0  0
   -1.6202    1.0063    0.9343 H   0  0  0  0  0  0  0  0  0  0  0  0
   -2.5854    0.2450   -1.7586 H   0  0  0  0  0  0  0  0  0  0  0  0
   -0.3941   -0.9492   -1.6922 H   0  0  0  0  0  0  0  0  0  0  0  0
    0.7575    1.0291    1.3256 H   0  0  0  0  0  0  0  0  0  0  0  0
    0.7918   -1.2191    1.0625 H   0  0  0  0  0  0  0  0  0  0  0  0
   -4.8134   -1.0378    1.7054 H   0  0  0  0  0  0  0  0  0  0  0  0
   -4.3041    0.5941    1.5195 H   0  0  0  0  0  0  0  0  0  0  0  0
    1.3263    3.3640    1.4876 H   0  0  0  0  0  0  0  0  0  0  0  0
    1.0426    3.6331   -0.2129 H   0  0  0  0  0  0  0  0  0  0  0  0
    1.0901    1.3353   -2.4635 H   0  0  0  0  0  0  0  0  0  0  0  0
    0.0133    2.6418   -2.0553 H   0  0  0  0  0  0  0  0  0  0  0  0
   -0.6388    1.1703   -2.7781 H   0  0  0  0  0  0  0  0  0  0  0  0
   -3.3185   -1.4319    3.3199 H   0  0  0  0  0  0  0  0  0  0  0  0
   -0.8380    4.5367    0.9326 H   0  0  0  0  0  0  0  0  0  0  0  0
   -2.0762   -1.7607   -2.1211 H   0  0  0  0  0  0  0  0  0  0  0  0
   -2.4985   -4.0939    0.7669 H   0  0  0  0  0  0  0  0  0  0  0  0
   -3.5096   -3.0775    1.7750 H   0  0  0  0  0  0  0  0  0  0  0  0
   -4.0851   -3.5822    0.1987 H   0  0  0  0  0  0  0  0  0  0  0  0
   -1.5097   -3.2945   -1.4375 H   0  0  0  0  0  0  0  0  0  0  0  0
   -3.2031   -3.0198   -1.7731 H   0  0  0  0  0  0  0  0  0  0  0  0
   -5.1231   -1.7940   -0.1977 H   0  0  0  0  0  0  0  0  0  0  0  0
   -0.8427   -1.2467    4.2197 H   0  0  0  0  0  0  0  0  0  0  0  0
   -0.1280    0.0783    3.2839 H   0  0  0  0  0  0  0  0  0  0  0  0
    0.4171   -1.6043    3.0702 H   0  0  0  0  0  0  0  0  0  0  0  0
   -2.2853    4.6996   -0.8322 H   0  0  0  0  0  0  0  0  0  0  0  0
   -2.8979    3.2479   -1.7733 H   0  0  0  0  0  0  0  0  0  0  0  0
   -3.7025    0.7165    3.7326 H   0  0  0  0  0  0  0  0  0  0  0  0
   -0.5137    3.4404    2.8909 H   0  0  0  0  0  0  0  0  0  0  0  0
   -6.4454    2.1319   -0.7695 H   0  0  0  0  0  0  0  0  0  0  0  0
   -6.6442    2.0538   -2.5297 H   0  0  0  0  0  0  0  0  0  0  0  0
   -5.5261    3.2477   -1.8375 H   0  0  0  0  0  0  0  0  0  0  0  0
    3.5457   -0.7960   -3.0341 H   0  0  0  0  0  0  0  0  0  0  0  0
    3.4780   -2.5560   -3.2640 H   0  0  0  0  0  0  0  0  0  0  0  0
    3.8887   -1.9074   -1.6636 H   0  0  0  0  0  0  0  0  0  0  0  0
    0.8976   -5.4705    0.3659 H   0  0  0  0  0  0  0  0  0  0  0  0
    2.6284   -5.2650    0.6994 H   0  0  0  0  0  0  0  0  0  0  0  0
    2.0022   -4.8544   -0.9113 H   0  0  0  0  0  0  0  0  0  0  0  0
    5.2956   -0.0489    1.9865 H   0  0  0  0  0  0  0  0  0  0  0  0
    4.1034    2.3102   -1.4320 H   0  0  0  0  0  0  0  0  0  0  0  0
    7.5506   -0.2886    1.0150 H   0  0  0  0  0  0  0  0  0  0  0  0
    6.3512    2.0490   -2.3851 H   0  0  0  0  0  0  0  0  0  0  0  0
    8.0852    0.7557   -1.1709 H   0  0  0  0  0  0  0  0  0  0  0  0
  1 14  1  0  0  0  0
  1 65  1  0  0  0  0
  2 16  1  0  0  0  0
  2 32  1  0  0  0  0
  3 17  1  0  0  0  0
  3 33  1  0  0  0  0
  4 18  1  0  0  0  0
  4 34  1  0  0  0  0
  5 20  1  0  0  0  0
  5 35  1  0  0  0  0
  6 25  1  0  0  0  0
  6 71  1  0  0  0  0
  7 26  1  0  0  0  0
  7 72  1  0  0  0  0
  8 32  2  0  0  0  0
  9 33  2  0  0  0  0
 10 34  2  0  0  0  0
 11 35  2  0  0  0  0
 12 13  1  0  0  0  0
 12 17  1  0  0  0  0
 12 18  1  0  0  0  0
 12 24  1  0  0  0  0
 13 16  1  0  0  0  0
 13 22  1  0  0  0  0
 13 45  1  0  0  0  0
 14 15  1  0  0  0  0
 14 16  1  0  0  0  0
 14 21  1  0  0  0  0
 15 19  1  0  0  0  0
 15 28  1  0  0  0  0
 15 29  1  0  0  0  0
 16 46  1  0  0  0  0
 17 20  1  0  0  0  0
 17 47  1  0  0  0  0
 18 23  1  0  0  0  0
 18 48  1  0  0  0  0
 19 20  1  0  0  0  0
 19 27  2  0  0  0  0
 20 49  1  0  0  0  0
 21 25  1  0  0  0  0
 21 50  1  0  0  0  0
 21 51  1  0  0  0  0
 22 26  1  0  0  0  0
 22 31  2  0  0  0  0
 23 26  1  0  0  0  0
 23 52  1  0  0  0  0
 23 53  1  0  0  0  0
 24 54  1  0  0  0  0
 24 55  1  0  0  0  0
 24 56  1  0  0  0  0
 25 27  1  0  0  0  0
 25 57  1  0  0  0  0
 26 58  1  0  0  0  0
 27 30  1  0  0  0  0
 28 60  1  0  0  0  0
 28 61  1  0  0  0  0
 28 62  1  0  0  0  0
 29 59  1  0  0  0  0
 29 63  1  0  0  0  0
 29 64  1  0  0  0  0
 30 66  1  0  0  0  0
 30 67  1  0  0  0  0
 30 68  1  0  0  0  0
 31 69  1  0  0  0  0
 31 70  1  0  0  0  0
 32 36  1  0  0  0  0
 33 37  1  0  0  0  0
 34 38  1  0  0  0  0
 35 39  1  0  0  0  0
 36 73  1  0  0  0  0
 36 74  1  0  0  0  0
 36 75  1  0  0  0  0
 37 76  1  0  0  0  0
 37 77  1  0  0  0  0
 37 78  1  0  0  0  0
 38 40  2  0  0  0  0
 38 41  1  0  0  0  0
 39 79  1  0  0  0  0
 39 80  1  0  0  0  0
 39 81  1  0  0  0  0
 40 42  1  0  0  0  0
 40 82  1  0  0  0  0
 41 43  2  0  0  0  0
 41 83  1  0  0  0  0
 42 44  2  0  0  0  0
 42 84  1  0  0  0  0
 43 44  1  0  0  0  0
 43 85  1  0  0  0  0
 44 86  1  0  0  0  0
M  END
> <PUBCHEM_COMPOUND_CID>
100991413

> <PUBCHEM_CONFORMER_RMSD>
1.2

> <PUBCHEM_CONFORMER_DIVERSEORDER>
1
2

> <PUBCHEM_MMFF94_PARTIAL_CHARGES>
48
1 -0.68
10 -0.57
11 -0.57
13 0.14
14 0.28
15 0.14
16 0.28
17 0.28
18 0.28
19 -0.28
2 -0.43
20 0.42
22 -0.28
25 0.42
26 0.42
27 -0.28
3 -0.43
30 0.14
31 -0.3
32 0.66
33 0.66
34 0.63
35 0.66
36 0.06
37 0.06
38 0.09
39 0.06
4 -0.43
40 -0.15
41 -0.15
42 -0.15
43 -0.15
44 -0.15
5 -0.43
6 -0.68
65 0.4
69 0.15
7 -0.68
70 0.15
71 0.4
72 0.4
8 -0.57
82 0.15
83 0.15
84 0.15
85 0.15
86 0.15
9 -0.57

> <PUBCHEM_EFFECTIVE_ROTOR_COUNT>
10.8

> <PUBCHEM_PHARMACOPHORE_FEATURES>
14
1 1 acceptor
1 1 donor
1 10 acceptor
1 11 acceptor
1 6 acceptor
1 6 donor
1 7 acceptor
1 7 donor
1 8 acceptor
1 9 acceptor
3 15 28 29 hydrophobe
6 12 13 18 22 23 26 rings
6 14 15 19 21 25 27 rings
6 38 40 41 42 43 44 rings

> <PUBCHEM_HEAVY_ATOM_COUNT>
44

> <PUBCHEM_ATOM_DEF_STEREO_COUNT>
9

> <PUBCHEM_ATOM_UDEF_STEREO_COUNT>
0

> <PUBCHEM_BOND_DEF_STEREO_COUNT>
0

> <PUBCHEM_BOND_UDEF_STEREO_COUNT>
0

> <PUBCHEM_ISOTOPIC_ATOM_COUNT>
0

> <PUBCHEM_COMPONENT_COUNT>
1

> <PUBCHEM_CACTVS_TAUTO_COUNT>
8

> <PUBCHEM_CONFORMER_ID>
060501B500000001

> <PUBCHEM_MMFF94_ENERGY>
183.1317

> <PUBCHEM_FEATURE_SELFOVERLAP>
71.069

> <PUBCHEM_SHAPE_FINGERPRINT>
10675989 125 17254830880348119220
10906281 52 18337113375954884013
11007060 377 18201155572557562736
11285246 1 15232772424064377492
11578080 2 18337401421919554427
12156800 1 17265196320529077299
12788726 201 18058438825274147569
13140716 1 18268148849991491097
13636023 20 17773005735747124253
14068700 675 17628921419780627855
20764821 26 18196662795925388026
22121540 332 17473594227994666368
23559900 14 18334849490181640820
3380486 145 18270415987122256079
392239 28 18411992368642968962
460360 51 18266754476184400170
469060 322 17678490573746672897
508706 21 18271257044903809164
5171179 24 17771366188038302534
5265222 85 18115311218776367404
57527295 17 18339908352261668269
57527573 199 17603863360630666981
59755656 215 18340194211587981380
9981440 41 18260270750045906282

> <PUBCHEM_SHAPE_MULTIPOLES>
840.94
11.46
4.67
2.75
14.24
2.14
-0.65
-5.4
3.41
-0.98
0.04
-1.44
0.37
1.54

> <PUBCHEM_SHAPE_SELFOVERLAP>
1787.167

> <PUBCHEM_SHAPE_VOLUME>
458.5

> <PUBCHEM_COORDINATE_TYPE>
2
5
10

$$$$
