44147426
  -OEChem-09092005273D

 49 51  0     1  0  0  0  0  0999 V2000
    4.4988   -0.4300    0.4354 O   0  0  0  0  0  0  0  0  0  0  0  0
    2.2350    2.3004    1.9302 O   0  0  0  0  0  0  0  0  0  0  0  0
    4.2460   -1.0443   -1.7576 O   0  0  0  0  0  0  0  0  0  0  0  0
   -2.7698    1.5824    0.6732 O   0  0  0  0  0  0  0  0  0  0  0  0
   -2.7725   -1.9142    1.6413 O   0  0  0  0  0  0  0  0  0  0  0  0
   -2.7951    2.8956   -1.7764 O   0  0  0  0  0  0  0  0  0  0  0  0
   -3.8603   -2.3167   -0.8846 O   0  0  0  0  0  0  0  0  0  0  0  0
    2.2708    0.0844    0.9544 C   0  0  2  0  0  0  0  0  0  0  0  0
    2.2934   -0.6993   -0.3536 C   0  0  2  0  0  0  0  0  0  0  0  0
    2.1294    1.5876    0.6975 C   0  0  1  0  0  0  0  0  0  0  0  0
    3.6254   -0.2378    1.5537 C   0  0  0  0  0  0  0  0  0  0  0  0
    1.7547   -2.1156   -0.2087 C   0  0  0  0  0  0  0  0  0  0  0  0
    3.7656   -0.7448   -0.6751 C   0  0  0  0  0  0  0  0  0  0  0  0
    0.8130    1.9346    0.0392 C   0  0  0  0  0  0  0  0  0  0  0  0
    0.2590   -2.1696   -0.3853 C   0  0  0  0  0  0  0  0  0  0  0  0
   -0.3887    1.5956    0.6611 C   0  0  0  0  0  0  0  0  0  0  0  0
    0.8003    2.5945   -1.1897 C   0  0  0  0  0  0  0  0  0  0  0  0
   -0.5796   -2.0176    0.7189 C   0  0  0  0  0  0  0  0  0  0  0  0
   -0.2868   -2.3706   -1.6531 C   0  0  0  0  0  0  0  0  0  0  0  0
   -1.6030    1.9167    0.0544 C   0  0  0  0  0  0  0  0  0  0  0  0
   -0.4140    2.9153   -1.7965 C   0  0  0  0  0  0  0  0  0  0  0  0
   -1.9641   -2.0664    0.5554 C   0  0  0  0  0  0  0  0  0  0  0  0
   -1.6712   -2.4197   -1.8166 C   0  0  0  0  0  0  0  0  0  0  0  0
   -1.6156    2.5765   -1.1745 C   0  0  0  0  0  0  0  0  0  0  0  0
   -2.5099   -2.2675   -0.7124 C   0  0  0  0  0  0  0  0  0  0  0  0
   -3.3266    2.5431    1.5684 C   0  0  0  0  0  0  0  0  0  0  0  0
   -2.1343   -1.7129    2.9009 C   0  0  0  0  0  0  0  0  0  0  0  0
    1.4965   -0.2362    1.6572 H   0  0  0  0  0  0  0  0  0  0  0  0
    1.7949   -0.1747   -1.1748 H   0  0  0  0  0  0  0  0  0  0  0  0
    2.9587    1.9391    0.0707 H   0  0  0  0  0  0  0  0  0  0  0  0
    4.0301    0.5502    2.1949 H   0  0  0  0  0  0  0  0  0  0  0  0
    3.6065   -1.1699    2.1294 H   0  0  0  0  0  0  0  0  0  0  0  0
    2.0314   -2.5576    0.7575 H   0  0  0  0  0  0  0  0  0  0  0  0
    2.2132   -2.7775   -0.9564 H   0  0  0  0  0  0  0  0  0  0  0  0
    1.9602    3.2202    1.7743 H   0  0  0  0  0  0  0  0  0  0  0  0
   -0.3925    1.0966    1.6262 H   0  0  0  0  0  0  0  0  0  0  0  0
    1.7283    2.8642   -1.6866 H   0  0  0  0  0  0  0  0  0  0  0  0
   -0.1022   -1.8781    1.6821 H   0  0  0  0  0  0  0  0  0  0  0  0
    0.3560   -2.4875   -2.5216 H   0  0  0  0  0  0  0  0  0  0  0  0
   -0.4094    3.4291   -2.7540 H   0  0  0  0  0  0  0  0  0  0  0  0
   -2.0831   -2.5758   -2.8101 H   0  0  0  0  0  0  0  0  0  0  0  0
   -2.6094    3.3482   -2.6170 H   0  0  0  0  0  0  0  0  0  0  0  0
   -4.0542   -2.4613   -1.8267 H   0  0  0  0  0  0  0  0  0  0  0  0
   -4.2560    2.1342    1.9741 H   0  0  0  0  0  0  0  0  0  0  0  0
   -3.5542    3.4751    1.0417 H   0  0  0  0  0  0  0  0  0  0  0  0
   -2.6388    2.7376    2.3974 H   0  0  0  0  0  0  0  0  0  0  0  0
   -2.9267   -1.6097    3.6496 H   0  0  0  0  0  0  0  0  0  0  0  0
   -1.5592   -0.7812    2.9193 H   0  0  0  0  0  0  0  0  0  0  0  0
   -1.5336   -2.5811    3.1928 H   0  0  0  0  0  0  0  0  0  0  0  0
  1 11  1  0  0  0  0
  1 13  1  0  0  0  0
  2 10  1  0  0  0  0
  2 35  1  0  0  0  0
  3 13  2  0  0  0  0
  4 20  1  0  0  0  0
  4 26  1  0  0  0  0
  5 22  1  0  0  0  0
  5 27  1  0  0  0  0
  6 24  1  0  0  0  0
  6 42  1  0  0  0  0
  7 25  1  0  0  0  0
  7 43  1  0  0  0  0
  8  9  1  0  0  0  0
  8 10  1  0  0  0  0
  8 11  1  0  0  0  0
  8 28  1  0  0  0  0
  9 12  1  0  0  0  0
  9 13  1  0  0  0  0
  9 29  1  0  0  0  0
 10 14  1  0  0  0  0
 10 30  1  0  0  0  0
 11 31  1  0  0  0  0
 11 32  1  0  0  0  0
 12 15  1  0  0  0  0
 12 33  1  0  0  0  0
 12 34  1  0  0  0  0
 14 16  2  0  0  0  0
 14 17  1  0  0  0  0
 15 18  2  0  0  0  0
 15 19  1  0  0  0  0
 16 20  1  0  0  0  0
 16 36  1  0  0  0  0
 17 21  2  0  0  0  0
 17 37  1  0  0  0  0
 18 22  1  0  0  0  0
 18 38  1  0  0  0  0
 19 23  2  0  0  0  0
 19 39  1  0  0  0  0
 20 24  2  0  0  0  0
 21 24  1  0  0  0  0
 21 40  1  0  0  0  0
 22 25  2  0  0  0  0
 23 25  1  0  0  0  0
 23 41  1  0  0  0  0
 26 44  1  0  0  0  0
 26 45  1  0  0  0  0
 26 46  1  0  0  0  0
 27 47  1  0  0  0  0
 27 48  1  0  0  0  0
 27 49  1  0  0  0  0
M  END
> <PUBCHEM_COMPOUND_CID>
44147426

> <PUBCHEM_CONFORMER_RMSD>
0.8

> <PUBCHEM_CONFORMER_DIVERSEORDER>
1
187
192
10
244
279
295
119
133
251
158
107
237
98
229
250
270
67
58
18
117
191
77
104
281
231
344
243
381
135
225
264
272
208
75
346
260
203
20
19
277
352
182
113
151
324
228
360
290
166
390
101
162
76
354
222
358
273
159
288
259
142
245
8
347
72
336
51
406
129
283
57
226
341
118
318
407
266
361
332
48
143
292
338
385
289
291
362
37
368
398
197
265
218
286
357
110
188
254
17
257
325
177
60
249
300
351
293
375
235
9
317
356
343
374
30
219
366
355
252
56
340
63
175
116
125
384
379
221
59
367
239
248
172
209
309
4
322
155
150
241
246
88
326
163
215
275
227
16
121
271
386
337
380
371
238
212
402
130
148
400
377
29
297
294
323
160
382
126
102
112
24
170
164
39
115
372
328
49
408
195
207
44
282
2
261
349
173
40
190
370
263
168
171
401
3
179
232
345
153
27
247
46
255
7
35
313
298
399
50
395
138
147
196
335
204
383
97
388
174
393
128
140
329
127
258
26
391
304
42
154
253
157
149
256
11
176
303
69
405
137
152
64
397
87
276
404
43
136
71
348
330
167
23
210
339
156
73
321
86
310
95
262
403
233
284
90
305
223
242
105
120
331
214
396
91
199
34
62
234
269
230
240
373
78
45
141
387
306
124
287
205
327
146
389
33
84
301
378
12
392
100
103
220
312
307
296
70
183
350
134
364
53
216
83
353
194
267
206
82
308
161
315
268
314
47
178
68
213
198
169
61
189
65
99
114
217
274
285
202
108
394
278
93
365
122
342
311
81
6
319
180
96
369
109
181
132
21
25
359
224
211
320
280
184
193
32
144
131
201
74
15
22
165
363
52
54
186
85
5
236
80
92
333
200
36
28
302
55
94
14
31
334
185
41
145
123
38
376
299
13
66
139
316
111
79
89
106

> <PUBCHEM_MMFF94_PARTIAL_CHARGES>
35
1 -0.43
10 0.42
11 0.28
12 0.14
13 0.66
14 -0.14
15 -0.14
16 -0.15
17 -0.15
18 -0.15
19 -0.15
2 -0.68
20 0.08
21 -0.15
22 0.08
23 -0.15
24 0.08
25 0.08
26 0.28
27 0.28
3 -0.57
35 0.4
36 0.15
37 0.15
38 0.15
39 0.15
4 -0.36
40 0.15
41 0.15
42 0.45
43 0.45
5 -0.36
6 -0.53
7 -0.53
9 0.06

> <PUBCHEM_EFFECTIVE_ROTOR_COUNT>
6.8

> <PUBCHEM_PHARMACOPHORE_FEATURES>
10
1 2 acceptor
1 2 donor
1 3 acceptor
1 4 acceptor
1 5 acceptor
1 6 donor
1 7 donor
5 1 8 9 11 13 rings
6 14 16 17 20 21 24 rings
6 15 18 19 22 23 25 rings

> <PUBCHEM_HEAVY_ATOM_COUNT>
27

> <PUBCHEM_ATOM_DEF_STEREO_COUNT>
2

> <PUBCHEM_ATOM_UDEF_STEREO_COUNT>
1

> <PUBCHEM_BOND_DEF_STEREO_COUNT>
0

> <PUBCHEM_BOND_UDEF_STEREO_COUNT>
0

> <PUBCHEM_ISOTOPIC_ATOM_COUNT>
0

> <PUBCHEM_COMPONENT_COUNT>
1

> <PUBCHEM_CACTVS_TAUTO_COUNT>
16

> <PUBCHEM_CONFORMER_ID>
02A1A2E200000001

> <PUBCHEM_MMFF94_ENERGY>
88.7984

> <PUBCHEM_FEATURE_SELFOVERLAP>
50.748

> <PUBCHEM_SHAPE_FINGERPRINT>
10064457 181 18129669569108426968
104564 63 18340207517591407676
11244481 83 16447553401604981711
11578080 2 17631431518547187081
12156800 1 17763796140247733613
12422481 6 18269295550872965043
12655364 131 10909452048259542533
13140716 1 18411134736535668288
14840074 17 17615957151477087816
17357779 13 18270387403814481086
17492 54 18191859038176750301
20600515 1 17317856373184080352
21197605 99 18341065064485308611
23419403 2 16985710343067600538
238 59 17615950128762024957
3052486 1 18260817177433842886
35225 105 18120065356503661582
469060 322 18113616776736262935
513532 50 16253833695345432647
5282274 181 18269851843089084745
6438718 38 18341612590114267790
7237137 82 18269576991690468902
81228 2 18335409201381581008

> <PUBCHEM_SHAPE_MULTIPOLES>
514.56
6.16
4.51
2.17
3.72
1.33
0.56
-1.2
0.81
-3.63
-1.29
-0.89
-0.11
0.69

> <PUBCHEM_SHAPE_SELFOVERLAP>
1108.683

> <PUBCHEM_SHAPE_VOLUME>
284.8

> <PUBCHEM_COORDINATE_TYPE>
2
5
10

$$$$
