101117774
  -OEChem-09092005183D

 98101  0     1  0  0  0  0  0999 V2000
    1.0823    3.0660    0.3665 O   0  0  0  0  0  0  0  0  0  0  0  0
   -1.5074   -3.4065   -0.8263 O   0  0  0  0  0  0  0  0  0  0  0  0
    5.8746    1.0706   -0.5784 O   0  0  0  0  0  0  0  0  0  0  0  0
    3.6778   -2.9055    1.8731 O   0  0  0  0  0  0  0  0  0  0  0  0
   -2.4095   -0.8757    0.1824 O   0  0  0  0  0  0  0  0  0  0  0  0
    2.6518   -3.9739   -0.2803 O   0  0  0  0  0  0  0  0  0  0  0  0
    0.3404    2.6570   -1.7826 O   0  0  0  0  0  0  0  0  0  0  0  0
   -2.1094   -5.3378    0.2890 O   0  0  0  0  0  0  0  0  0  0  0  0
    5.6994    2.6907   -2.2159 O   0  0  0  0  0  0  0  0  0  0  0  0
   -3.7952   -0.9474    2.0246 O   0  0  0  0  0  0  0  0  0  0  0  0
   -5.9803   -0.7880    0.4773 O   0  0  0  0  0  0  0  0  0  0  0  0
   -3.4397    0.5947   -1.8632 N   0  0  0  0  0  0  0  0  0  0  0  0
    3.1752    0.3059    2.0653 C   0  0  0  0  0  0  0  0  0  0  0  0
    2.8020    1.6705    1.3813 C   0  0  1  0  0  0  0  0  0  0  0  0
    0.7602   -2.4986   -0.6438 C   0  0  1  0  0  0  0  0  0  0  0  0
    3.3212   -0.7581    0.9513 C   0  0  0  0  0  0  0  0  0  0  0  0
    3.9961    2.1148    0.5105 C   0  0  0  0  0  0  0  0  0  0  0  0
    1.5201    1.7020    0.4766 C   0  0  1  0  0  0  0  0  0  0  0  0
   -0.4177   -3.2152    0.0814 C   0  0  1  0  0  0  0  0  0  0  0  0
    0.5032   -0.9773   -0.7990 C   0  0  0  0  0  0  0  0  0  0  0  0
    4.4513    1.0168   -0.4695 C   0  0  2  0  0  0  0  0  0  0  0  0
    2.6906   -2.1109    1.2206 C   0  0  1  0  0  0  0  0  0  0  0  0
    4.0175   -0.4189   -0.1690 C   0  0  0  0  0  0  0  0  0  0  0  0
   -0.0921   -0.2806    0.4040 C   0  0  0  0  0  0  0  0  0  0  0  0
    2.1025   -2.9114    0.0450 C   0  0  0  0  0  0  0  0  0  0  0  0
   -0.9470   -2.4627    1.3114 C   0  0  0  0  0  0  0  0  0  0  0  0
   -1.2691   -0.9905    1.0316 C   0  0  2  0  0  0  0  0  0  0  0  0
    2.1950    0.0003    3.2316 C   0  0  0  0  0  0  0  0  0  0  0  0
    4.5533    0.3978    2.7978 C   0  0  0  0  0  0  0  0  0  0  0  0
    0.3475    0.8827    0.9285 C   0  0  0  0  0  0  0  0  0  0  0  0
    0.8781   -3.0551   -2.0972 C   0  0  0  0  0  0  0  0  0  0  0  0
    4.4089   -1.3886   -1.2561 C   0  0  0  0  0  0  0  0  0  0  0  0
    0.5108    3.3970   -0.8231 C   0  0  0  0  0  0  0  0  0  0  0  0
   -2.2709   -4.5135   -0.6007 C   0  0  0  0  0  0  0  0  0  0  0  0
    6.3615    1.9560   -1.4956 C   0  0  0  0  0  0  0  0  0  0  0  0
   -3.6215   -0.8666    0.8155 C   0  0  0  0  0  0  0  0  0  0  0  0
   -4.7367   -0.7135   -0.2055 C   0  0  2  0  0  0  0  0  0  0  0  0
    0.1065    4.8398   -0.7939 C   0  0  0  0  0  0  0  0  0  0  0  0
   -3.3661   -4.5840   -1.6214 C   0  0  0  0  0  0  0  0  0  0  0  0
    7.8593    1.9036   -1.5002 C   0  0  0  0  0  0  0  0  0  0  0  0
   -4.6325    0.6047   -1.0040 C   0  0  1  0  0  0  0  0  0  0  0  0
   -4.6905    1.8540   -0.1373 C   0  0  0  0  0  0  0  0  0  0  0  0
   -3.4462    1.7565   -2.7471 C   0  0  0  0  0  0  0  0  0  0  0  0
   -3.3859   -0.6427   -2.6358 C   0  0  0  0  0  0  0  0  0  0  0  0
   -5.9191    2.4516    0.1441 C   0  0  0  0  0  0  0  0  0  0  0  0
   -3.5148    2.4016    0.3758 C   0  0  0  0  0  0  0  0  0  0  0  0
   -5.9720    3.5970    0.9386 C   0  0  0  0  0  0  0  0  0  0  0  0
   -3.5675    3.5469    1.1704 C   0  0  0  0  0  0  0  0  0  0  0  0
   -4.7962    4.1446    1.4517 C   0  0  0  0  0  0  0  0  0  0  0  0
    2.6790    2.4339    2.1630 H   0  0  0  0  0  0  0  0  0  0  0  0
    3.7409    3.0204   -0.0558 H   0  0  0  0  0  0  0  0  0  0  0  0
    4.8299    2.4312    1.1501 H   0  0  0  0  0  0  0  0  0  0  0  0
    1.8213    1.3746   -0.5205 H   0  0  0  0  0  0  0  0  0  0  0  0
   -0.0522   -4.1954    0.4173 H   0  0  0  0  0  0  0  0  0  0  0  0
   -0.2235   -0.8212   -1.6097 H   0  0  0  0  0  0  0  0  0  0  0  0
    1.4168   -0.4995   -1.1532 H   0  0  0  0  0  0  0  0  0  0  0  0
    3.9948    1.2443   -1.4443 H   0  0  0  0  0  0  0  0  0  0  0  0
    1.8652   -2.0272    1.9230 H   0  0  0  0  0  0  0  0  0  0  0  0
   -0.2103   -2.5241    2.1189 H   0  0  0  0  0  0  0  0  0  0  0  0
   -1.8528   -2.9603    1.6780 H   0  0  0  0  0  0  0  0  0  0  0  0
   -1.4861   -0.5149    1.9979 H   0  0  0  0  0  0  0  0  0  0  0  0
    4.5675    1.2436    3.4953 H   0  0  0  0  0  0  0  0  0  0  0  0
    4.7529   -0.5125    3.3772 H   0  0  0  0  0  0  0  0  0  0  0  0
    1.1846   -0.2588    2.9236 H   0  0  0  0  0  0  0  0  0  0  0  0
    2.5484   -0.8429    3.8386 H   0  0  0  0  0  0  0  0  0  0  0  0
    2.1152    0.8627    3.9044 H   0  0  0  0  0  0  0  0  0  0  0  0
    5.4063    0.5125    2.1224 H   0  0  0  0  0  0  0  0  0  0  0  0
   -0.1796    1.2893    1.7913 H   0  0  0  0  0  0  0  0  0  0  0  0
    0.0218   -2.7696   -2.7190 H   0  0  0  0  0  0  0  0  0  0  0  0
    0.9331   -4.1502   -2.1053 H   0  0  0  0  0  0  0  0  0  0  0  0
    1.7793   -2.6770   -2.5926 H   0  0  0  0  0  0  0  0  0  0  0  0
    3.6921   -1.3486   -2.0804 H   0  0  0  0  0  0  0  0  0  0  0  0
    4.4990   -2.4132   -0.8923 H   0  0  0  0  0  0  0  0  0  0  0  0
    5.3959   -1.1447   -1.6632 H   0  0  0  0  0  0  0  0  0  0  0  0
    3.2308   -3.6911    2.2322 H   0  0  0  0  0  0  0  0  0  0  0  0
   -4.7433   -1.6043   -0.8357 H   0  0  0  0  0  0  0  0  0  0  0  0
    0.9922    5.4704   -0.6838 H   0  0  0  0  0  0  0  0  0  0  0  0
   -0.5945    5.0128    0.0265 H   0  0  0  0  0  0  0  0  0  0  0  0
   -0.3913    5.0954   -1.7337 H   0  0  0  0  0  0  0  0  0  0  0  0
   -4.1586   -3.8800   -1.3617 H   0  0  0  0  0  0  0  0  0  0  0  0
   -3.7764   -5.5977   -1.6402 H   0  0  0  0  0  0  0  0  0  0  0  0
   -2.9691   -4.3643   -2.6162 H   0  0  0  0  0  0  0  0  0  0  0  0
    8.2426    2.1801   -0.5148 H   0  0  0  0  0  0  0  0  0  0  0  0
    8.2449    2.6149   -2.2362 H   0  0  0  0  0  0  0  0  0  0  0  0
    8.1939    0.9006   -1.7765 H   0  0  0  0  0  0  0  0  0  0  0  0
   -5.5218    0.6399   -1.6533 H   0  0  0  0  0  0  0  0  0  0  0  0
   -6.0081   -0.0831    1.1456 H   0  0  0  0  0  0  0  0  0  0  0  0
   -3.1002   -1.5201   -2.0538 H   0  0  0  0  0  0  0  0  0  0  0  0
   -2.6001   -0.5709   -3.3990 H   0  0  0  0  0  0  0  0  0  0  0  0
   -3.3772    2.7140   -2.2238 H   0  0  0  0  0  0  0  0  0  0  0  0
   -4.3346    1.7813   -3.3897 H   0  0  0  0  0  0  0  0  0  0  0  0
   -2.5673    1.7316   -3.4032 H   0  0  0  0  0  0  0  0  0  0  0  0
   -4.3241   -0.8494   -3.1647 H   0  0  0  0  0  0  0  0  0  0  0  0
   -6.8431    2.0359   -0.2486 H   0  0  0  0  0  0  0  0  0  0  0  0
   -2.5430    1.9575    0.1845 H   0  0  0  0  0  0  0  0  0  0  0  0
   -6.9285    4.0622    1.1579 H   0  0  0  0  0  0  0  0  0  0  0  0
   -2.6521    3.9716    1.5719 H   0  0  0  0  0  0  0  0  0  0  0  0
   -4.8372    5.0359    2.0707 H   0  0  0  0  0  0  0  0  0  0  0  0
  1 18  1  0  0  0  0
  1 33  1  0  0  0  0
  2 19  1  0  0  0  0
  2 34  1  0  0  0  0
  3 21  1  0  0  0  0
  3 35  1  0  0  0  0
  4 22  1  0  0  0  0
  4 75  1  0  0  0  0
  5 27  1  0  0  0  0
  5 36  1  0  0  0  0
  6 25  2  0  0  0  0
  7 33  2  0  0  0  0
  8 34  2  0  0  0  0
  9 35  2  0  0  0  0
 10 36  2  0  0  0  0
 11 37  1  0  0  0  0
 11 87  1  0  0  0  0
 12 41  1  0  0  0  0
 12 43  1  0  0  0  0
 12 44  1  0  0  0  0
 13 14  1  0  0  0  0
 13 16  1  0  0  0  0
 13 28  1  0  0  0  0
 13 29  1  0  0  0  0
 14 17  1  0  0  0  0
 14 18  1  0  0  0  0
 14 50  1  0  0  0  0
 15 19  1  0  0  0  0
 15 20  1  0  0  0  0
 15 25  1  0  0  0  0
 15 31  1  0  0  0  0
 16 22  1  0  0  0  0
 16 23  2  0  0  0  0
 17 21  1  0  0  0  0
 17 51  1  0  0  0  0
 17 52  1  0  0  0  0
 18 30  1  0  0  0  0
 18 53  1  0  0  0  0
 19 26  1  0  0  0  0
 19 54  1  0  0  0  0
 20 24  1  0  0  0  0
 20 55  1  0  0  0  0
 20 56  1  0  0  0  0
 21 23  1  0  0  0  0
 21 57  1  0  0  0  0
 22 25  1  0  0  0  0
 22 58  1  0  0  0  0
 23 32  1  0  0  0  0
 24 27  1  0  0  0  0
 24 30  2  0  0  0  0
 26 27  1  0  0  0  0
 26 59  1  0  0  0  0
 26 60  1  0  0  0  0
 27 61  1  0  0  0  0
 28 64  1  0  0  0  0
 28 65  1  0  0  0  0
 28 66  1  0  0  0  0
 29 62  1  0  0  0  0
 29 63  1  0  0  0  0
 29 67  1  0  0  0  0
 30 68  1  0  0  0  0
 31 69  1  0  0  0  0
 31 70  1  0  0  0  0
 31 71  1  0  0  0  0
 32 72  1  0  0  0  0
 32 73  1  0  0  0  0
 32 74  1  0  0  0  0
 33 38  1  0  0  0  0
 34 39  1  0  0  0  0
 35 40  1  0  0  0  0
 36 37  1  0  0  0  0
 37 41  1  0  0  0  0
 37 76  1  0  0  0  0
 38 77  1  0  0  0  0
 38 78  1  0  0  0  0
 38 79  1  0  0  0  0
 39 80  1  0  0  0  0
 39 81  1  0  0  0  0
 39 82  1  0  0  0  0
 40 83  1  0  0  0  0
 40 84  1  0  0  0  0
 40 85  1  0  0  0  0
 41 42  1  0  0  0  0
 41 86  1  0  0  0  0
 42 45  2  0  0  0  0
 42 46  1  0  0  0  0
 43 90  1  0  0  0  0
 43 91  1  0  0  0  0
 43 92  1  0  0  0  0
 44 88  1  0  0  0  0
 44 89  1  0  0  0  0
 44 93  1  0  0  0  0
 45 47  1  0  0  0  0
 45 94  1  0  0  0  0
 46 48  2  0  0  0  0
 46 95  1  0  0  0  0
 47 49  2  0  0  0  0
 47 96  1  0  0  0  0
 48 49  1  0  0  0  0
 48 97  1  0  0  0  0
 49 98  1  0  0  0  0
M  END
> <PUBCHEM_COMPOUND_CID>
101117774

> <PUBCHEM_CONFORMER_RMSD>
1.4

> <PUBCHEM_CONFORMER_DIVERSEORDER>
1
12
18
5
6
16
15
11
4
14
10
17
8
9
13
7
2
3

> <PUBCHEM_MMFF94_PARTIAL_CHARGES>
51
1 -0.43
10 -0.57
11 -0.68
12 -0.81
13 0.14
15 0.06
16 -0.28
18 0.42
19 0.28
2 -0.43
20 0.14
21 0.42
22 0.48
23 -0.28
24 -0.28
25 0.45
27 0.42
3 -0.43
30 -0.29
32 0.14
33 0.66
34 0.66
35 0.66
36 0.66
37 0.34
38 0.06
39 0.06
4 -0.68
40 0.06
41 0.41
42 -0.14
43 0.27
44 0.27
45 -0.15
46 -0.15
47 -0.15
48 -0.15
49 -0.15
5 -0.43
6 -0.57
68 0.15
7 -0.57
75 0.4
8 -0.57
87 0.4
9 -0.57
94 0.15
95 0.15
96 0.15
97 0.15
98 0.15

> <PUBCHEM_EFFECTIVE_ROTOR_COUNT>
13.8

> <PUBCHEM_PHARMACOPHORE_FEATURES>
14
1 10 acceptor
1 11 acceptor
1 11 donor
1 12 cation
1 4 acceptor
1 4 donor
1 6 acceptor
1 7 acceptor
1 8 acceptor
1 9 acceptor
3 13 28 29 hydrophobe
6 13 14 16 17 21 23 rings
6 15 19 20 24 26 27 rings
6 42 45 46 47 48 49 rings

> <PUBCHEM_HEAVY_ATOM_COUNT>
49

> <PUBCHEM_ATOM_DEF_STEREO_COUNT>
8

> <PUBCHEM_ATOM_UDEF_STEREO_COUNT>
1

> <PUBCHEM_BOND_DEF_STEREO_COUNT>
1

> <PUBCHEM_BOND_UDEF_STEREO_COUNT>
0

> <PUBCHEM_ISOTOPIC_ATOM_COUNT>
0

> <PUBCHEM_COMPONENT_COUNT>
1

> <PUBCHEM_CACTVS_TAUTO_COUNT>
8

> <PUBCHEM_CONFORMER_ID>
0606EF4E00000001

> <PUBCHEM_MMFF94_ENERGY>
145.574

> <PUBCHEM_FEATURE_SELFOVERLAP>
71.069

> <PUBCHEM_SHAPE_FINGERPRINT>
10439779 11 18339912800998772529
10581848 31 18191306189527895308
10675989 125 18118410548944718898
11513181 2 18200594696418775975
1200032 147 18114192912904090064
12422481 6 17983836909620561961
12633046 712 16951392390151703938
12788726 201 17904187479845770690
13692115 46 18126315092724196052
13726171 33 18261124005988344856
14114211 80 18339651048632755879
14664723 55 18188504561455720580
14790565 3 18268153058869173121
15001296 14 18189906322294667173
15297060 5 18272382931367191664
15513586 35 17532939526173916029
15968369 153 17699547432446561975
20764821 26 18264759978786226077
21033648 29 18273205387913397641
4058900 60 18186526510025015858

> <PUBCHEM_SHAPE_MULTIPOLES>
938.85
13.79
6.6
2.41
4.72
3.15
-0.1
-11.52
2.49
-4.7
1.26
1.28
-0.38
-2.8

> <PUBCHEM_SHAPE_SELFOVERLAP>
1977.129

> <PUBCHEM_SHAPE_VOLUME>
521.3

> <PUBCHEM_COORDINATE_TYPE>
2
5
10

$$$$
