14446178
  -OEChem-09092004533D

103106  0     1  0  0  0  0  0999 V2000
   -3.3463   -2.3006   -0.1050 O   0  0  0  0  0  0  0  0  0  0  0  0
   -0.5078   -3.0084   -0.5368 O   0  0  0  0  0  0  0  0  0  0  0  0
   -4.7056   -0.2322    1.1183 O   0  0  0  0  0  0  0  0  0  0  0  0
    2.4559    0.1713   -1.6746 O   0  0  0  0  0  0  0  0  0  0  0  0
    0.1431    3.1286    0.8040 O   0  0  0  0  0  0  0  0  0  0  0  0
   -5.1422   -2.4021   -1.5545 O   0  0  0  0  0  0  0  0  0  0  0  0
    0.0590   -3.3446    1.6774 O   0  0  0  0  0  0  0  0  0  0  0  0
   -4.0891   -0.1355    3.3425 O   0  0  0  0  0  0  0  0  0  0  0  0
    3.7039   -1.7639   -1.8038 O   0  0  0  0  0  0  0  0  0  0  0  0
    0.2138    5.4064    1.1823 O   0  0  0  0  0  0  0  0  0  0  0  0
    6.5913    1.2498   -0.1927 N   0  0  0  0  0  0  0  0  0  0  0  0
   -1.6629   -0.9151   -1.2536 C   0  0  2  0  0  0  0  0  0  0  0  0
   -1.0851    0.5092   -1.6904 C   0  0  2  0  0  0  0  0  0  0  0  0
   -2.6890    2.6757   -1.4854 C   0  0  2  0  0  0  0  0  0  0  0  0
   -3.7633    2.2254   -0.4698 C   0  0  0  0  0  0  0  0  0  0  0  0
   -2.0715    1.5205   -2.3568 C   0  0  0  0  0  0  0  0  0  0  0  0
   -3.0793   -0.9452   -0.5390 C   0  0  2  0  0  0  0  0  0  0  0  0
   -0.5951   -1.6017   -0.3086 C   0  0  2  0  0  0  0  0  0  0  0  0
   -3.0044    1.3739    0.5635 C   0  0  0  0  0  0  0  0  0  0  0  0
   -3.3368   -0.0895    0.7268 C   0  0  1  0  0  0  0  0  0  0  0  0
   -1.5999    3.5397   -0.8020 C   0  0  0  0  0  0  0  0  0  0  0  0
    0.2033    0.2361   -2.5028 C   0  0  0  0  0  0  0  0  0  0  0  0
    0.8242   -1.0222   -0.3858 C   0  0  0  0  0  0  0  0  0  0  0  0
   -1.8559   -1.7809   -2.5523 C   0  0  0  0  0  0  0  0  0  0  0  0
    1.2550   -0.5915   -1.7858 C   0  0  2  0  0  0  0  0  0  0  0  0
   -1.2826    3.1907    0.6715 C   0  0  1  0  0  0  0  0  0  0  0  0
   -1.9326    1.9193    1.1996 C   0  0  0  0  0  0  0  0  0  0  0  0
   -4.4122    3.4422    0.2640 C   0  0  0  0  0  0  0  0  0  0  0  0
   -4.9734    1.6174   -1.2277 C   0  0  0  0  0  0  0  0  0  0  0  0
   -1.2446    1.3068    2.3936 C   0  0  0  0  0  0  0  0  0  0  0  0
    0.4301    0.5786   -3.7840 C   0  0  0  0  0  0  0  0  0  0  0  0
   -4.4091   -2.8913   -0.7057 C   0  0  0  0  0  0  0  0  0  0  0  0
   -0.1702   -3.7617    0.5502 C   0  0  0  0  0  0  0  0  0  0  0  0
   -4.9331   -0.2386    2.4628 C   0  0  0  0  0  0  0  0  0  0  0  0
    3.6185   -0.5479   -1.6977 C   0  0  0  0  0  0  0  0  0  0  0  0
    0.7580    4.3174    1.0593 C   0  0  0  0  0  0  0  0  0  0  0  0
   -4.5635   -4.2795   -0.1626 C   0  0  0  0  0  0  0  0  0  0  0  0
   -0.1175   -5.2088    0.1640 C   0  0  0  0  0  0  0  0  0  0  0  0
    4.7974    0.4005   -1.6139 C   0  0  0  0  0  0  0  0  0  0  0  0
   -6.4010   -0.3932    2.7220 C   0  0  0  0  0  0  0  0  0  0  0  0
    2.2365    4.1005    1.1724 C   0  0  0  0  0  0  0  0  0  0  0  0
    5.2435    0.6696   -0.1649 C   0  0  1  0  0  0  0  0  0  0  0  0
    5.1870   -0.5628    0.7231 C   0  0  0  0  0  0  0  0  0  0  0  0
    6.6307    2.3952   -1.0982 C   0  0  0  0  0  0  0  0  0  0  0  0
    7.0008    1.6426    1.1532 C   0  0  0  0  0  0  0  0  0  0  0  0
    4.0221   -0.8595    1.4308 C   0  0  0  0  0  0  0  0  0  0  0  0
    6.2997   -1.3973    0.8300 C   0  0  0  0  0  0  0  0  0  0  0  0
    3.9700   -1.9904    2.2456 C   0  0  0  0  0  0  0  0  0  0  0  0
    6.2474   -2.5282    1.6448 C   0  0  0  0  0  0  0  0  0  0  0  0
    5.0825   -2.8248    2.3525 C   0  0  0  0  0  0  0  0  0  0  0  0
   -0.7083    1.0061   -0.7977 H   0  0  0  0  0  0  0  0  0  0  0  0
   -3.1831    3.3367   -2.2143 H   0  0  0  0  0  0  0  0  0  0  0  0
   -2.8563    0.9790   -2.8913 H   0  0  0  0  0  0  0  0  0  0  0  0
   -1.5462    2.0760   -3.1405 H   0  0  0  0  0  0  0  0  0  0  0  0
   -3.8065   -0.6691   -1.2946 H   0  0  0  0  0  0  0  0  0  0  0  0
   -0.9195   -1.4341    0.7243 H   0  0  0  0  0  0  0  0  0  0  0  0
   -2.7236   -0.5590    1.4996 H   0  0  0  0  0  0  0  0  0  0  0  0
   -0.6881    3.5407   -1.4132 H   0  0  0  0  0  0  0  0  0  0  0  0
   -1.9422    4.5843   -0.8181 H   0  0  0  0  0  0  0  0  0  0  0  0
    1.5575   -1.7369    0.0049 H   0  0  0  0  0  0  0  0  0  0  0  0
    0.8928   -0.1531    0.2819 H   0  0  0  0  0  0  0  0  0  0  0  0
   -2.2820   -2.7654   -2.3365 H   0  0  0  0  0  0  0  0  0  0  0  0
   -2.5314   -1.2857   -3.2580 H   0  0  0  0  0  0  0  0  0  0  0  0
   -0.9161   -1.9821   -3.0743 H   0  0  0  0  0  0  0  0  0  0  0  0
    1.4193   -1.4948   -2.3906 H   0  0  0  0  0  0  0  0  0  0  0  0
   -1.6536    3.9943    1.3212 H   0  0  0  0  0  0  0  0  0  0  0  0
   -4.8434    4.1481   -0.4564 H   0  0  0  0  0  0  0  0  0  0  0  0
   -5.2227    3.1043    0.9225 H   0  0  0  0  0  0  0  0  0  0  0  0
   -3.7321    4.0196    0.8912 H   0  0  0  0  0  0  0  0  0  0  0  0
   -5.4848    2.3968   -1.8090 H   0  0  0  0  0  0  0  0  0  0  0  0
   -4.7235    0.8560   -1.9618 H   0  0  0  0  0  0  0  0  0  0  0  0
   -5.7232    1.2053   -0.5458 H   0  0  0  0  0  0  0  0  0  0  0  0
   -1.0046    2.0912    3.1209 H   0  0  0  0  0  0  0  0  0  0  0  0
   -1.8415    0.5778    2.9371 H   0  0  0  0  0  0  0  0  0  0  0  0
   -0.3094    0.8258    2.0934 H   0  0  0  0  0  0  0  0  0  0  0  0
    1.3605    0.3034   -4.2727 H   0  0  0  0  0  0  0  0  0  0  0  0
   -0.2863    1.1052   -4.4001 H   0  0  0  0  0  0  0  0  0  0  0  0
   -4.7221   -4.2400    0.9181 H   0  0  0  0  0  0  0  0  0  0  0  0
   -5.4341   -4.7543   -0.6240 H   0  0  0  0  0  0  0  0  0  0  0  0
   -3.6764   -4.8714   -0.4011 H   0  0  0  0  0  0  0  0  0  0  0  0
    0.6505   -5.3602   -0.5986 H   0  0  0  0  0  0  0  0  0  0  0  0
    0.1384   -5.8094    1.0415 H   0  0  0  0  0  0  0  0  0  0  0  0
   -1.0948   -5.5301   -0.2043 H   0  0  0  0  0  0  0  0  0  0  0  0
    5.5987   -0.0782   -2.1946 H   0  0  0  0  0  0  0  0  0  0  0  0
    4.5289    1.3189   -2.1503 H   0  0  0  0  0  0  0  0  0  0  0  0
   -6.7529   -1.3401    2.3046 H   0  0  0  0  0  0  0  0  0  0  0  0
   -6.5804   -0.3996    3.8009 H   0  0  0  0  0  0  0  0  0  0  0  0
   -6.9446    0.4472    2.2830 H   0  0  0  0  0  0  0  0  0  0  0  0
    2.4491    3.4193    2.0002 H   0  0  0  0  0  0  0  0  0  0  0  0
    2.7298    5.0561    1.3714 H   0  0  0  0  0  0  0  0  0  0  0  0
    2.6252    3.6971    0.2337 H   0  0  0  0  0  0  0  0  0  0  0  0
    4.5447    1.4072    0.2592 H   0  0  0  0  0  0  0  0  0  0  0  0
    6.5843    2.0973   -2.1505 H   0  0  0  0  0  0  0  0  0  0  0  0
    5.8395    3.1254   -0.8904 H   0  0  0  0  0  0  0  0  0  0  0  0
    7.5901    2.9194   -1.0048 H   0  0  0  0  0  0  0  0  0  0  0  0
    7.9967    2.1015    1.1206 H   0  0  0  0  0  0  0  0  0  0  0  0
    6.3159    2.3795    1.5906 H   0  0  0  0  0  0  0  0  0  0  0  0
    7.0986    0.8130    1.8578 H   0  0  0  0  0  0  0  0  0  0  0  0
    3.1542   -0.2098    1.3686 H   0  0  0  0  0  0  0  0  0  0  0  0
    7.2130   -1.2121    0.2713 H   0  0  0  0  0  0  0  0  0  0  0  0
    3.0633   -2.2200    2.7978 H   0  0  0  0  0  0  0  0  0  0  0  0
    7.1112   -3.1818    1.7232 H   0  0  0  0  0  0  0  0  0  0  0  0
    5.0413   -3.7061    2.9858 H   0  0  0  0  0  0  0  0  0  0  0  0
  1 17  1  0  0  0  0
  1 32  1  0  0  0  0
  2 18  1  0  0  0  0
  2 33  1  0  0  0  0
  3 20  1  0  0  0  0
  3 34  1  0  0  0  0
  4 25  1  0  0  0  0
  4 35  1  0  0  0  0
  5 26  1  0  0  0  0
  5 36  1  0  0  0  0
  6 32  2  0  0  0  0
  7 33  2  0  0  0  0
  8 34  2  0  0  0  0
  9 35  2  0  0  0  0
 10 36  2  0  0  0  0
 11 42  1  0  0  0  0
 11 44  1  0  0  0  0
 11 45  1  0  0  0  0
 12 13  1  0  0  0  0
 12 17  1  0  0  0  0
 12 18  1  0  0  0  0
 12 24  1  0  0  0  0
 13 16  1  0  0  0  0
 13 22  1  0  0  0  0
 13 51  1  0  0  0  0
 14 15  1  0  0  0  0
 14 16  1  0  0  0  0
 14 21  1  0  0  0  0
 14 52  1  0  0  0  0
 15 19  1  0  0  0  0
 15 28  1  0  0  0  0
 15 29  1  0  0  0  0
 16 53  1  0  0  0  0
 16 54  1  0  0  0  0
 17 20  1  0  0  0  0
 17 55  1  0  0  0  0
 18 23  1  0  0  0  0
 18 56  1  0  0  0  0
 19 20  1  0  0  0  0
 19 27  2  0  0  0  0
 20 57  1  0  0  0  0
 21 26  1  0  0  0  0
 21 58  1  0  0  0  0
 21 59  1  0  0  0  0
 22 25  1  0  0  0  0
 22 31  2  0  0  0  0
 23 25  1  0  0  0  0
 23 60  1  0  0  0  0
 23 61  1  0  0  0  0
 24 62  1  0  0  0  0
 24 63  1  0  0  0  0
 24 64  1  0  0  0  0
 25 65  1  0  0  0  0
 26 27  1  0  0  0  0
 26 66  1  0  0  0  0
 27 30  1  0  0  0  0
 28 67  1  0  0  0  0
 28 68  1  0  0  0  0
 28 69  1  0  0  0  0
 29 70  1  0  0  0  0
 29 71  1  0  0  0  0
 29 72  1  0  0  0  0
 30 73  1  0  0  0  0
 30 74  1  0  0  0  0
 30 75  1  0  0  0  0
 31 76  1  0  0  0  0
 31 77  1  0  0  0  0
 32 37  1  0  0  0  0
 33 38  1  0  0  0  0
 34 40  1  0  0  0  0
 35 39  1  0  0  0  0
 36 41  1  0  0  0  0
 37 78  1  0  0  0  0
 37 79  1  0  0  0  0
 37 80  1  0  0  0  0
 38 81  1  0  0  0  0
 38 82  1  0  0  0  0
 38 83  1  0  0  0  0
 39 42  1  0  0  0  0
 39 84  1  0  0  0  0
 39 85  1  0  0  0  0
 40 86  1  0  0  0  0
 40 87  1  0  0  0  0
 40 88  1  0  0  0  0
 41 89  1  0  0  0  0
 41 90  1  0  0  0  0
 41 91  1  0  0  0  0
 42 43  1  0  0  0  0
 42 92  1  0  0  0  0
 43 46  2  0  0  0  0
 43 47  1  0  0  0  0
 44 93  1  0  0  0  0
 44 94  1  0  0  0  0
 44 95  1  0  0  0  0
 45 96  1  0  0  0  0
 45 97  1  0  0  0  0
 45 98  1  0  0  0  0
 46 48  1  0  0  0  0
 46 99  1  0  0  0  0
 47 49  2  0  0  0  0
 47100  1  0  0  0  0
 48 50  2  0  0  0  0
 48101  1  0  0  0  0
 49 50  1  0  0  0  0
 49102  1  0  0  0  0
 50103  1  0  0  0  0
M  END
> <PUBCHEM_COMPOUND_CID>
14446178

> <PUBCHEM_CONFORMER_RMSD>
1.4

> <PUBCHEM_CONFORMER_DIVERSEORDER>
1
5
4
3
2

> <PUBCHEM_MMFF94_PARTIAL_CHARGES>
49
1 -0.43
10 -0.57
100 0.15
101 0.15
102 0.15
103 0.15
11 -0.81
13 0.14
15 0.14
17 0.28
18 0.28
19 -0.28
2 -0.43
20 0.42
22 -0.28
25 0.42
26 0.42
27 -0.28
3 -0.43
30 0.14
31 -0.3
32 0.66
33 0.66
34 0.66
35 0.66
36 0.66
37 0.06
38 0.06
39 0.06
4 -0.43
40 0.06
41 0.06
42 0.41
43 -0.14
44 0.27
45 0.27
46 -0.15
47 -0.15
48 -0.15
49 -0.15
5 -0.43
50 -0.15
6 -0.57
7 -0.57
76 0.15
77 0.15
8 -0.57
9 -0.57
99 0.15

> <PUBCHEM_EFFECTIVE_ROTOR_COUNT>
15.8

> <PUBCHEM_PHARMACOPHORE_FEATURES>
10
1 10 acceptor
1 11 cation
1 6 acceptor
1 7 acceptor
1 8 acceptor
1 9 acceptor
3 15 28 29 hydrophobe
6 12 13 18 22 23 25 rings
6 14 15 19 21 26 27 rings
6 43 46 47 48 49 50 rings

> <PUBCHEM_HEAVY_ATOM_COUNT>
50

> <PUBCHEM_ATOM_DEF_STEREO_COUNT>
8

> <PUBCHEM_ATOM_UDEF_STEREO_COUNT>
1

> <PUBCHEM_BOND_DEF_STEREO_COUNT>
0

> <PUBCHEM_BOND_UDEF_STEREO_COUNT>
0

> <PUBCHEM_ISOTOPIC_ATOM_COUNT>
0

> <PUBCHEM_COMPONENT_COUNT>
1

> <PUBCHEM_CACTVS_TAUTO_COUNT>
1

> <PUBCHEM_CONFORMER_ID>
00DC6E6200000001

> <PUBCHEM_MMFF94_ENERGY>
184.7243

> <PUBCHEM_FEATURE_SELFOVERLAP>
50.748

> <PUBCHEM_SHAPE_FINGERPRINT>
12422481 6 17532370851324345366
12633046 712 18264745758423776972
12788726 201 18337954596876167806
131258 38 17827946205362223299
14068700 675 18057876043499807783
14747281 78 13469036605355403683
14950920 106 18264193752453207318
15001296 14 18335692811796048168
15513586 35 17628900512096115456
20764821 26 18341332219113119720
22223350 30 17973175203507693563
392239 28 18341617026952296869
469060 322 18408610283592020487
77296 10 17458913630360355160

> <PUBCHEM_SHAPE_MULTIPOLES>
965.3
14.51
6.06
3.02
17.8
0.37
-0.28
-1.96
5.98
-1.94
1.85
-1.01
-0.15
-1.64

> <PUBCHEM_SHAPE_SELFOVERLAP>
2019.1

> <PUBCHEM_SHAPE_VOLUME>
538.4

> <PUBCHEM_COORDINATE_TYPE>
2
5
10

$$$$
