6436208
  -OEChem-09092004152D

113118  0     1  0  0  0  0  0999 V2000
    5.1483   -5.8315    0.0000 O   0  0  0  0  0  0  0  0  0  0  0  0
    6.3178   -4.2219    0.0000 O   0  0  0  0  0  0  0  0  0  0  0  0
    7.0057   -3.3695    0.0000 O   0  0  0  0  0  0  0  0  0  0  0  0
    7.4821   -2.0230    0.0000 O   0  0  0  0  0  0  0  0  0  0  0  0
    2.4962   -3.1749    0.0000 O   0  0  0  0  0  0  0  0  0  0  0  0
    3.5446   -0.3921    0.0000 O   0  0  0  0  0  0  0  0  0  0  0  0
    2.8690   -2.0230    0.0000 O   0  0  0  0  0  0  0  0  0  0  0  0
    7.5875    0.3889    0.0000 O   0  0  0  0  0  0  0  0  0  0  0  0
    7.6038   -5.3822    0.0000 O   0  0  0  0  0  0  0  0  0  0  0  0
    8.4245   -2.3761    0.0000 O   0  0  0  0  0  0  0  0  0  0  0  0
    4.7693    0.8327    0.0000 O   0  0  0  0  0  0  0  0  0  0  0  0
    6.3628    1.6137    0.0000 O   0  0  0  0  0  0  0  0  0  0  0  0
    9.0017    1.8031    0.0000 O   0  0  0  0  0  0  0  0  0  0  0  0
    7.2593    4.9597    0.0000 O   0  0  0  0  0  0  0  0  0  0  0  0
    6.8110    3.2867    0.0000 N   0  0  0  0  0  0  0  0  0  0  0  0
    5.1755   -3.3296    0.0000 C   0  0  2  0  0  0  0  0  0  0  0  0
    5.3274   -4.3601    0.0000 C   0  0  2  0  0  0  0  0  0  0  0  0
    4.2517   -2.9469    0.0000 C   0  0  1  0  0  0  0  0  0  0  0  0
    4.5059   -5.0006    0.0000 C   0  0  1  0  0  0  0  0  0  0  0  0
    6.0994   -2.9469    0.0000 C   0  0  1  0  0  0  0  0  0  0  0  0
    6.4821   -2.0230    0.0000 C   0  0  2  0  0  0  0  0  0  0  0  0
    3.4156   -3.5682    0.0000 C   0  0  2  0  0  0  0  0  0  0  0  0
    3.5436   -4.6020    0.0000 C   0  0  0  0  0  0  0  0  0  0  0  0
    6.0994   -1.0992    0.0000 C   0  0  0  0  0  0  0  0  0  0  0  0
    5.9766   -5.1857    0.0000 C   0  0  0  0  0  0  0  0  0  0  0  0
    3.8690   -2.0230    0.0000 C   0  0  0  0  0  0  0  0  0  0  0  0
    7.1552   -1.2814    0.0000 C   0  0  0  0  0  0  0  0  0  0  0  0
    5.1755   -0.7165    0.0000 C   0  0  0  0  0  0  0  0  0  0  0  0
    3.3278   -2.5642    0.0000 C   0  0  0  0  0  0  0  0  0  0  0  0
    4.2517   -1.0992    0.0000 C   0  0  1  0  0  0  0  0  0  0  0  0
    6.8804   -0.3182    0.0000 C   0  0  1  0  0  0  0  0  0  0  0  0
    5.9172   -0.0434    0.0000 C   0  0  0  0  0  0  0  0  0  0  0  0
    6.3971    0.0116    0.0000 C   0  0  0  0  0  0  0  0  0  0  0  0
    7.2102   -0.8015    0.0000 C   0  0  0  0  0  0  0  0  0  0  0  0
    5.6897    0.9304    0.0000 C   0  0  0  0  0  0  0  0  0  0  0  0
    6.6259   -5.1733    0.0000 C   0  0  0  0  0  0  0  0  0  0  0  0
    8.0019   -3.2825    0.0000 C   0  0  0  0  0  0  0  0  0  0  0  0
    5.9560   -5.9158    0.0000 C   0  0  0  0  0  0  0  0  0  0  0  0
    3.8034    0.5739    0.0000 C   0  0  0  0  0  0  0  0  0  0  0  0
    7.3287    1.3549    0.0000 C   0  0  0  0  0  0  0  0  0  0  0  0
    8.5755   -4.1015    0.0000 C   0  0  0  0  0  0  0  0  0  0  0  0
    8.0358    2.0620    0.0000 C   0  0  1  0  0  0  0  0  0  0  0  0
    3.0963    1.2810    0.0000 C   0  0  0  0  0  0  0  0  0  0  0  0
    9.5717   -4.0143    0.0000 C   0  0  0  0  0  0  0  0  0  0  0  0
    8.1530   -5.0079    0.0000 C   0  0  0  0  0  0  0  0  0  0  0  0
    7.7770    3.0279    0.0000 C   0  0  2  0  0  0  0  0  0  0  0  0
   10.1453   -4.8334    0.0000 C   0  0  0  0  0  0  0  0  0  0  0  0
    8.7266   -5.8270    0.0000 C   0  0  0  0  0  0  0  0  0  0  0  0
    9.7228   -5.7398    0.0000 C   0  0  0  0  0  0  0  0  0  0  0  0
    8.4841    3.7350    0.0000 C   0  0  0  0  0  0  0  0  0  0  0  0
    9.4500    3.4762    0.0000 C   0  0  0  0  0  0  0  0  0  0  0  0
    8.2253    4.7009    0.0000 C   0  0  0  0  0  0  0  0  0  0  0  0
    6.5522    4.2526    0.0000 C   0  0  0  0  0  0  0  0  0  0  0  0
   10.1571    4.1833    0.0000 C   0  0  0  0  0  0  0  0  0  0  0  0
    8.9324    5.4080    0.0000 C   0  0  0  0  0  0  0  0  0  0  0  0
    5.5863    4.5114    0.0000 C   0  0  0  0  0  0  0  0  0  0  0  0
    9.8983    5.1492    0.0000 C   0  0  0  0  0  0  0  0  0  0  0  0
    4.8792    3.8043    0.0000 C   0  0  0  0  0  0  0  0  0  0  0  0
    5.3275    5.4774    0.0000 C   0  0  0  0  0  0  0  0  0  0  0  0
    4.3616    5.7362    0.0000 C   0  0  0  0  0  0  0  0  0  0  0  0
    5.9608   -3.6549    0.0000 H   0  0  0  0  0  0  0  0  0  0  0  0
    3.9897   -5.6758    0.0000 H   0  0  0  0  0  0  0  0  0  0  0  0
    6.6773   -2.7222    0.0000 H   0  0  0  0  0  0  0  0  0  0  0  0
    2.9201   -3.9409    0.0000 H   0  0  0  0  0  0  0  0  0  0  0  0
    2.9243   -4.5717    0.0000 H   0  0  0  0  0  0  0  0  0  0  0  0
    3.4078   -5.2069    0.0000 H   0  0  0  0  0  0  0  0  0  0  0  0
    6.3585   -5.6742    0.0000 H   0  0  0  0  0  0  0  0  0  0  0  0
    6.4645   -4.8032    0.0000 H   0  0  0  0  0  0  0  0  0  0  0  0
    7.5297   -1.7755    0.0000 H   0  0  0  0  0  0  0  0  0  0  0  0
    7.7099   -1.0043    0.0000 H   0  0  0  0  0  0  0  0  0  0  0  0
    3.5650   -1.9914    0.0000 H   0  0  0  0  0  0  0  0  0  0  0  0
    2.7550   -2.3270    0.0000 H   0  0  0  0  0  0  0  0  0  0  0  0
    3.0905   -3.1370    0.0000 H   0  0  0  0  0  0  0  0  0  0  0  0
    4.3726   -0.4911    0.0000 H   0  0  0  0  0  0  0  0  0  0  0  0
    7.4806   -0.4738    0.0000 H   0  0  0  0  0  0  0  0  0  0  0  0
    6.9959   -0.1488    0.0000 H   0  0  0  0  0  0  0  0  0  0  0  0
    6.5575    0.6105    0.0000 H   0  0  0  0  0  0  0  0  0  0  0  0
    5.7982    0.1721    0.0000 H   0  0  0  0  0  0  0  0  0  0  0  0
    7.3707   -1.4004    0.0000 H   0  0  0  0  0  0  0  0  0  0  0  0
    7.8091   -0.6411    0.0000 H   0  0  0  0  0  0  0  0  0  0  0  0
    7.0498   -0.2026    0.0000 H   0  0  0  0  0  0  0  0  0  0  0  0
    7.7921   -1.4861    0.0000 H   0  0  0  0  0  0  0  0  0  0  0  0
    2.0000   -3.5466    0.0000 H   0  0  0  0  0  0  0  0  0  0  0  0
    6.2935    1.0715    0.0000 H   0  0  0  0  0  0  0  0  0  0  0  0
    5.5487    1.5342    0.0000 H   0  0  0  0  0  0  0  0  0  0  0  0
    5.0860    0.7894    0.0000 H   0  0  0  0  0  0  0  0  0  0  0  0
    5.4957   -5.5004    0.0000 H   0  0  0  0  0  0  0  0  0  0  0  0
    5.5406   -6.3761    0.0000 H   0  0  0  0  0  0  0  0  0  0  0  0
    6.4163   -6.3311    0.0000 H   0  0  0  0  0  0  0  0  0  0  0  0
    8.4742    2.5004    0.0000 H   0  0  0  0  0  0  0  0  0  0  0  0
    3.5347    1.7194    0.0000 H   0  0  0  0  0  0  0  0  0  0  0  0
    2.6579    1.7194    0.0000 H   0  0  0  0  0  0  0  0  0  0  0  0
    2.6579    0.8426    0.0000 H   0  0  0  0  0  0  0  0  0  0  0  0
    9.8337   -3.4524    0.0000 H   0  0  0  0  0  0  0  0  0  0  0  0
    7.5353   -5.0620    0.0000 H   0  0  0  0  0  0  0  0  0  0  0  0
    7.6165    3.6268    0.0000 H   0  0  0  0  0  0  0  0  0  0  0  0
   10.7630   -4.7793    0.0000 H   0  0  0  0  0  0  0  0  0  0  0  0
    8.4646   -6.3889    0.0000 H   0  0  0  0  0  0  0  0  0  0  0  0
    9.1622    1.2043    0.0000 H   0  0  0  0  0  0  0  0  0  0  0  0
   10.0784   -6.2476    0.0000 H   0  0  0  0  0  0  0  0  0  0  0  0
    6.3726    2.8483    0.0000 H   0  0  0  0  0  0  0  0  0  0  0  0
    9.6105    2.8773    0.0000 H   0  0  0  0  0  0  0  0  0  0  0  0
    7.6264    4.8614    0.0000 H   0  0  0  0  0  0  0  0  0  0  0  0
   10.7560    4.0228    0.0000 H   0  0  0  0  0  0  0  0  0  0  0  0
    8.7719    6.0069    0.0000 H   0  0  0  0  0  0  0  0  0  0  0  0
   10.3367    5.5876    0.0000 H   0  0  0  0  0  0  0  0  0  0  0  0
    4.4408    4.2427    0.0000 H   0  0  0  0  0  0  0  0  0  0  0  0
    4.4408    3.3659    0.0000 H   0  0  0  0  0  0  0  0  0  0  0  0
    5.3176    3.3659    0.0000 H   0  0  0  0  0  0  0  0  0  0  0  0
    5.7659    5.9158    0.0000 H   0  0  0  0  0  0  0  0  0  0  0  0
    4.5220    6.3351    0.0000 H   0  0  0  0  0  0  0  0  0  0  0  0
    3.7627    5.8967    0.0000 H   0  0  0  0  0  0  0  0  0  0  0  0
    4.2011    5.1373    0.0000 H   0  0  0  0  0  0  0  0  0  0  0  0
  1 19  1  0  0  0  0
  1 25  1  0  0  0  0
 17  2  1  1  0  0  0
  2 36  1  0  0  0  0
 20  3  1  1  0  0  0
  3 37  1  0  0  0  0
 21  4  1  6  0  0  0
  4 82  1  0  0  0  0
 22  5  1  6  0  0  0
  5 83  1  0  0  0  0
 30  6  1  6  0  0  0
  6 39  1  0  0  0  0
  7 26  2  0  0  0  0
 31  8  1  1  0  0  0
  8 40  1  0  0  0  0
  9 36  2  0  0  0  0
 10 37  2  0  0  0  0
 11 39  2  0  0  0  0
 12 40  2  0  0  0  0
 42 13  1  1  0  0  0
 13 99  1  0  0  0  0
 14 53  2  0  0  0  0
 46 15  1  1  0  0  0
 15 53  1  0  0  0  0
 15101  1  0  0  0  0
 16 17  1  0  0  0  0
 16 18  1  0  0  0  0
 16 20  1  0  0  0  0
 16 61  1  1  0  0  0
 17 19  1  0  0  0  0
 17 25  1  0  0  0  0
 18 22  1  0  0  0  0
 18 26  1  0  0  0  0
 18 29  1  6  0  0  0
 19 23  1  0  0  0  0
 19 62  1  1  0  0  0
 20 21  1  0  0  0  0
 20 63  1  0  0  0  0
 21 24  1  0  0  0  0
 21 27  1  0  0  0  0
 22 23  1  0  0  0  0
 22 64  1  0  0  0  0
 23 65  1  0  0  0  0
 23 66  1  0  0  0  0
 24 28  1  0  0  0  0
 24 33  1  0  0  0  0
 24 34  1  0  0  0  0
 25 67  1  0  0  0  0
 25 68  1  0  0  0  0
 26 30  1  0  0  0  0
 27 31  1  0  0  0  0
 27 69  1  0  0  0  0
 27 70  1  0  0  0  0
 28 30  1  0  0  0  0
 28 32  2  0  0  0  0
 29 71  1  0  0  0  0
 29 72  1  0  0  0  0
 29 73  1  0  0  0  0
 30 74  1  0  0  0  0
 31 32  1  0  0  0  0
 31 75  1  0  0  0  0
 32 35  1  0  0  0  0
 33 76  1  0  0  0  0
 33 77  1  0  0  0  0
 33 78  1  0  0  0  0
 34 79  1  0  0  0  0
 34 80  1  0  0  0  0
 34 81  1  0  0  0  0
 35 84  1  0  0  0  0
 35 85  1  0  0  0  0
 35 86  1  0  0  0  0
 36 38  1  0  0  0  0
 37 41  1  0  0  0  0
 38 87  1  0  0  0  0
 38 88  1  0  0  0  0
 38 89  1  0  0  0  0
 39 43  1  0  0  0  0
 40 42  1  0  0  0  0
 41 44  2  0  0  0  0
 41 45  1  0  0  0  0
 42 46  1  0  0  0  0
 42 90  1  0  0  0  0
 43 91  1  0  0  0  0
 43 92  1  0  0  0  0
 43 93  1  0  0  0  0
 44 47  1  0  0  0  0
 44 94  1  0  0  0  0
 45 48  2  0  0  0  0
 45 95  1  0  0  0  0
 46 50  1  0  0  0  0
 46 96  1  0  0  0  0
 47 49  2  0  0  0  0
 47 97  1  0  0  0  0
 48 49  1  0  0  0  0
 48 98  1  0  0  0  0
 49100  1  0  0  0  0
 50 51  2  0  0  0  0
 50 52  1  0  0  0  0
 51 54  1  0  0  0  0
 51102  1  0  0  0  0
 52 55  2  0  0  0  0
 52103  1  0  0  0  0
 53 56  1  0  0  0  0
 54 57  2  0  0  0  0
 54104  1  0  0  0  0
 55 57  1  0  0  0  0
 55105  1  0  0  0  0
 56 58  1  0  0  0  0
 56 59  2  0  0  0  0
 57106  1  0  0  0  0
 58107  1  0  0  0  0
 58108  1  0  0  0  0
 58109  1  0  0  0  0
 59 60  1  0  0  0  0
 59110  1  0  0  0  0
 60111  1  0  0  0  0
 60112  1  0  0  0  0
 60113  1  0  0  0  0
M  END
> <PUBCHEM_COMPOUND_CID>
6436208

> <PUBCHEM_COMPOUND_CANONICALIZED>
1

> <PUBCHEM_CACTVS_COMPLEXITY>
1790

> <PUBCHEM_CACTVS_HBOND_ACCEPTOR>
14

> <PUBCHEM_CACTVS_HBOND_DONOR>
4

> <PUBCHEM_CACTVS_ROTATABLE_BOND>
14

> <PUBCHEM_CACTVS_SUBSKEYS>
AAADcfB+PAAAAAAAAAAAAAAAAABIAAAAAAAwYMEAAAAaIACBQAAAHgAQCAAAD3zhmAYyCILABgCIAqHSGAKCAAAkAAAIiIFIDMgLNj6AtR2GcQhn9gGbqYfa7PzPgAAAAAAAAABCAAYQADCAAAAAAAAAAA==

> <PUBCHEM_IUPAC_OPENEYE_NAME>
[(1S,2S,3R,4S,7R,9S,10S,12R,15S)-4,12-diacetoxy-1,9-dihydroxy-15-[(2R,3S)-2-hydroxy-3-[[(E)-2-methylbut-2-enoyl]amino]-3-phenyl-propanoyl]oxy-10,14,17,17-tetramethyl-11-oxo-6-oxatetracyclo[11.3.1.03,10.04,7]heptadec-13-en-2-yl] benzoate

> <PUBCHEM_IUPAC_CAS_NAME>
benzoic acid [(1S,2S,3R,4S,7R,9S,10S,12R,15S)-4,12-diacetyloxy-1,9-dihydroxy-15-[(2R,3S)-2-hydroxy-3-[[(E)-2-methyl-1-oxobut-2-enyl]amino]-1-oxo-3-phenylpropoxy]-10,14,17,17-tetramethyl-11-oxo-6-oxatetracyclo[11.3.1.03,10.04,7]heptadec-13-en-2-yl] ester

> <PUBCHEM_IUPAC_NAME_MARKUP>
[(1<I>S</I>,2<I>S</I>,3<I>R</I>,4<I>S</I>,7<I>R</I>,9<I>S</I>,10<I>S</I>,12<I>R</I>,15<I>S</I>)-4,12-diacetyloxy-1,9-dihydroxy-15-[(2<I>R</I>,3<I>S</I>)-2-hydroxy-3-[[(<I>E</I>)-2-methylbut-2-enoyl]amino]-3-phenylpropanoyl]oxy-10,14,17,17-tetramethyl-11-oxo-6-oxatetracyclo[11.3.1.0<SUP>3,10</SUP>.0<SUP>4,7</SUP>]heptadec-13-en-2-yl] benzoate

> <PUBCHEM_IUPAC_NAME>
[(1S,2S,3R,4S,7R,9S,10S,12R,15S)-4,12-diacetyloxy-1,9-dihydroxy-15-[(2R,3S)-2-hydroxy-3-[[(E)-2-methylbut-2-enoyl]amino]-3-phenylpropanoyl]oxy-10,14,17,17-tetramethyl-11-oxo-6-oxatetracyclo[11.3.1.03,10.04,7]heptadec-13-en-2-yl] benzoate

> <PUBCHEM_IUPAC_SYSTEMATIC_NAME>
[(1S,2S,3R,4S,7R,9S,10S,12R,15S)-4,12-diacetyloxy-10,14,17,17-tetramethyl-15-[(2R,3S)-3-[[(E)-2-methylbut-2-enoyl]amino]-2-oxidanyl-3-phenyl-propanoyl]oxy-1,9-bis(oxidanyl)-11-oxidanylidene-6-oxatetracyclo[11.3.1.03,10.04,7]heptadec-13-en-2-yl] benzoate

> <PUBCHEM_IUPAC_TRADITIONAL_NAME>
benzoic acid [(1S,2S,3R,4S,7R,9S,10S,12R,15S)-4,12-diacetoxy-1,9-dihydroxy-15-[(2R,3S)-2-hydroxy-3-[[(E)-2-methylbut-2-enoyl]amino]-3-phenyl-propanoyl]oxy-11-keto-10,14,17,17-tetramethyl-6-oxatetracyclo[11.3.1.03,10.04,7]heptadec-13-en-2-yl] ester

> <PUBCHEM_IUPAC_INCHI>
InChI=1S/C45H53NO14/c1-9-23(2)39(52)46-33(27-16-12-10-13-17-27)34(50)41(54)58-29-21-45(55)38(59-40(53)28-18-14-11-15-19-28)36-43(8,30(49)20-31-44(36,22-56-31)60-26(5)48)37(51)35(57-25(4)47)32(24(29)3)42(45,6)7/h9-19,29-31,33-36,38,49-50,55H,20-22H2,1-8H3,(H,46,52)/b23-9+/t29-,30-,31+,33-,34+,35+,36-,38-,43+,44-,45+/m0/s1

> <PUBCHEM_IUPAC_INCHIKEY>
DBXFAPJCZABTDR-WBYYIXQISA-N

> <PUBCHEM_XLOGP3>
2

> <PUBCHEM_EXACT_MASS>
831.346605

> <PUBCHEM_MOLECULAR_FORMULA>
C45H53NO14

> <PUBCHEM_MOLECULAR_WEIGHT>
831.9

> <PUBCHEM_OPENEYE_CAN_SMILES>
CC=C(C)C(=O)NC(C1=CC=CC=C1)C(C(=O)OC2CC3(C(C4C(C(CC5C4(CO5)OC(=O)C)O)(C(=O)C(C(=C2C)C3(C)C)OC(=O)C)C)OC(=O)C6=CC=CC=C6)O)O

> <PUBCHEM_OPENEYE_ISO_SMILES>
C/C=C(\C)/C(=O)N[C@@H](C1=CC=CC=C1)[C@H](C(=O)O[C@H]2C[C@]3([C@H]([C@H]4[C@@]([C@H](C[C@@H]5[C@]4(CO5)OC(=O)C)O)(C(=O)[C@@H](C(=C2C)C3(C)C)OC(=O)C)C)OC(=O)C6=CC=CC=C6)O)O

> <PUBCHEM_CACTVS_TPSA>
221

> <PUBCHEM_MONOISOTOPIC_WEIGHT>
831.346605

> <PUBCHEM_TOTAL_CHARGE>
0

> <PUBCHEM_HEAVY_ATOM_COUNT>
60

> <PUBCHEM_ATOM_DEF_STEREO_COUNT>
11

> <PUBCHEM_ATOM_UDEF_STEREO_COUNT>
0

> <PUBCHEM_BOND_DEF_STEREO_COUNT>
1

> <PUBCHEM_BOND_UDEF_STEREO_COUNT>
0

> <PUBCHEM_ISOTOPIC_ATOM_COUNT>
0

> <PUBCHEM_COMPONENT_COUNT>
1

> <PUBCHEM_CACTVS_TAUTO_COUNT>
-1

> <PUBCHEM_COORDINATE_TYPE>
1
5
255

> <PUBCHEM_BONDANNOTATIONS>
42  13  5
46  15  5
16  61  5
18  29  6
19  62  5
17  2  5
20  3  5
21  4  6
41  44  8
41  45  8
44  47  8
45  48  8
47  49  8
48  49  8
22  5  6
50  51  8
50  52  8
51  54  8
52  55  8
54  57  8
55  57  8
30  6  6
31  8  5

$$$$
