24793433
  -OEChem-09092004282D

130136  0     1  0  0  0  0  0999 V2000
    8.5878   -6.1805    0.0000 O   0  0  0  0  0  0  0  0  0  0  0  0
    9.7448   -4.9181    0.0000 O   0  0  0  0  0  0  0  0  0  0  0  0
   10.5048   -3.5548    0.0000 O   0  0  0  0  0  0  0  0  0  0  0  0
    5.9357   -3.5239    0.0000 O   0  0  0  0  0  0  0  0  0  0  0  0
   10.9216   -2.3721    0.0000 O   0  0  0  0  0  0  0  0  0  0  0  0
    6.3084   -2.3721    0.0000 O   0  0  0  0  0  0  0  0  0  0  0  0
    6.9840   -0.7411    0.0000 O   0  0  0  0  0  0  0  0  0  0  0  0
   11.0270    0.0399    0.0000 O   0  0  0  0  0  0  0  0  0  0  0  0
    5.2544   -5.1164    0.0000 O   0  0  0  0  0  0  0  0  0  0  0  0
   11.0308   -6.0783    0.0000 O   0  0  0  0  0  0  0  0  0  0  0  0
    4.0969   -2.7372    0.0000 O   0  0  0  0  0  0  0  0  0  0  0  0
   10.9532   -5.2278    0.0000 O   0  0  0  0  0  0  0  0  0  0  0  0
    2.4962   -3.9363    0.0000 O   0  0  0  0  0  0  0  0  0  0  0  0
    2.7343   -5.9221    0.0000 O   0  0  0  0  0  0  0  0  0  0  0  0
    9.8022    1.2646    0.0000 O   0  0  0  0  0  0  0  0  0  0  0  0
   12.4412    1.4541    0.0000 O   0  0  0  0  0  0  0  0  0  0  0  0
   10.6988    4.6107    0.0000 O   0  0  0  0  0  0  0  0  0  0  0  0
   10.2505    2.9377    0.0000 N   0  0  0  0  0  0  0  0  0  0  0  0
    8.6150   -3.6786    0.0000 C   0  0  3  0  0  0  0  0  0  0  0  0
    8.7669   -4.7092    0.0000 C   0  0  2  0  0  0  0  0  0  0  0  0
    7.6911   -3.2960    0.0000 C   0  0  1  0  0  0  0  0  0  0  0  0
    7.9454   -5.3496    0.0000 C   0  0  1  0  0  0  0  0  0  0  0  0
    9.5389   -3.2960    0.0000 C   0  0  1  0  0  0  0  0  0  0  0  0
    9.9216   -2.3721    0.0000 C   0  0  2  0  0  0  0  0  0  0  0  0
    6.8551   -3.9173    0.0000 C   0  0  2  0  0  0  0  0  0  0  0  0
    6.9831   -4.9510    0.0000 C   0  0  0  0  0  0  0  0  0  0  0  0
    9.5389   -1.4482    0.0000 C   0  0  0  0  0  0  0  0  0  0  0  0
    9.4160   -5.5348    0.0000 C   0  0  0  0  0  0  0  0  0  0  0  0
    7.3084   -2.3721    0.0000 C   0  0  0  0  0  0  0  0  0  0  0  0
   10.5947   -1.6304    0.0000 C   0  0  0  0  0  0  0  0  0  0  0  0
    8.6150   -1.0655    0.0000 C   0  0  0  0  0  0  0  0  0  0  0  0
    6.7672   -2.9133    0.0000 C   0  0  0  0  0  0  0  0  0  0  0  0
    7.6911   -1.4482    0.0000 C   0  0  1  0  0  0  0  0  0  0  0  0
   10.3199   -0.6672    0.0000 C   0  0  1  0  0  0  0  0  0  0  0  0
    9.3567   -0.3924    0.0000 C   0  0  0  0  0  0  0  0  0  0  0  0
    9.8365   -0.3374    0.0000 C   0  0  0  0  0  0  0  0  0  0  0  0
   10.6497   -1.1506    0.0000 C   0  0  0  0  0  0  0  0  0  0  0  0
    5.1353   -4.1235    0.0000 C   0  0  3  0  0  0  0  0  0  0  0  0
   10.0529   -5.8694    0.0000 C   0  0  0  0  0  0  0  0  0  0  0  0
    9.1292    0.5814    0.0000 C   0  0  0  0  0  0  0  0  0  0  0  0
   11.2119   -4.2619    0.0000 C   0  0  0  0  0  0  0  0  0  0  0  0
    4.2159   -3.7301    0.0000 C   0  0  3  0  0  0  0  0  0  0  0  0
    9.3830   -6.6119    0.0000 C   0  0  0  0  0  0  0  0  0  0  0  0
    3.4156   -4.3297    0.0000 C   0  0  3  0  0  0  0  0  0  0  0  0
   10.7682    1.0058    0.0000 C   0  0  0  0  0  0  0  0  0  0  0  0
   12.1778   -4.0031    0.0000 C   0  0  0  0  0  0  0  0  0  0  0  0
    3.5347   -5.3226    0.0000 C   0  0  3  0  0  0  0  0  0  0  0  0
    4.4540   -5.7159    0.0000 C   0  0  0  0  0  0  0  0  0  0  0  0
   11.4753    1.7129    0.0000 C   0  0  1  0  0  0  0  0  0  0  0  0
   12.4367   -3.0372    0.0000 C   0  0  0  0  0  0  0  0  0  0  0  0
   12.8850   -4.7102    0.0000 C   0  0  0  0  0  0  0  0  0  0  0  0
   11.2164    2.6788    0.0000 C   0  0  2  0  0  0  0  0  0  0  0  0
   13.4026   -2.7783    0.0000 C   0  0  0  0  0  0  0  0  0  0  0  0
   13.8509   -4.4514    0.0000 C   0  0  0  0  0  0  0  0  0  0  0  0
   14.1097   -3.4854    0.0000 C   0  0  0  0  0  0  0  0  0  0  0  0
   11.9235    3.3860    0.0000 C   0  0  0  0  0  0  0  0  0  0  0  0
   12.8895    3.1271    0.0000 C   0  0  0  0  0  0  0  0  0  0  0  0
   11.6647    4.3519    0.0000 C   0  0  0  0  0  0  0  0  0  0  0  0
    9.9917    3.9036    0.0000 C   0  0  0  0  0  0  0  0  0  0  0  0
    9.0258    4.1624    0.0000 C   0  0  0  0  0  0  0  0  0  0  0  0
   13.5966    3.8342    0.0000 C   0  0  0  0  0  0  0  0  0  0  0  0
   12.3718    5.0590    0.0000 C   0  0  0  0  0  0  0  0  0  0  0  0
   13.3378    4.8002    0.0000 C   0  0  0  0  0  0  0  0  0  0  0  0
    8.7670    5.1283    0.0000 C   0  0  0  0  0  0  0  0  0  0  0  0
    7.8010    5.3872    0.0000 C   0  0  0  0  0  0  0  0  0  0  0  0
    7.5422    6.3531    0.0000 C   0  0  0  0  0  0  0  0  0  0  0  0
    6.5763    6.6119    0.0000 C   0  0  0  0  0  0  0  0  0  0  0  0
    9.1543   -3.9845    0.0000 H   0  0  0  0  0  0  0  0  0  0  0  0
    7.4292   -6.0249    0.0000 H   0  0  0  0  0  0  0  0  0  0  0  0
    9.5794   -3.9146    0.0000 H   0  0  0  0  0  0  0  0  0  0  0  0
    6.3596   -4.2899    0.0000 H   0  0  0  0  0  0  0  0  0  0  0  0
    6.3638   -4.9208    0.0000 H   0  0  0  0  0  0  0  0  0  0  0  0
    6.8473   -5.5560    0.0000 H   0  0  0  0  0  0  0  0  0  0  0  0
    9.7979   -6.0232    0.0000 H   0  0  0  0  0  0  0  0  0  0  0  0
    9.9039   -5.1522    0.0000 H   0  0  0  0  0  0  0  0  0  0  0  0
   10.9692   -2.1245    0.0000 H   0  0  0  0  0  0  0  0  0  0  0  0
   11.1493   -1.3533    0.0000 H   0  0  0  0  0  0  0  0  0  0  0  0
    7.0045   -2.3405    0.0000 H   0  0  0  0  0  0  0  0  0  0  0  0
    6.1944   -2.6760    0.0000 H   0  0  0  0  0  0  0  0  0  0  0  0
    6.5300   -3.4861    0.0000 H   0  0  0  0  0  0  0  0  0  0  0  0
    7.8121   -0.8401    0.0000 H   0  0  0  0  0  0  0  0  0  0  0  0
   10.1642   -0.0671    0.0000 H   0  0  0  0  0  0  0  0  0  0  0  0
   10.4354   -0.4979    0.0000 H   0  0  0  0  0  0  0  0  0  0  0  0
    9.9970    0.2615    0.0000 H   0  0  0  0  0  0  0  0  0  0  0  0
    9.2376   -0.1769    0.0000 H   0  0  0  0  0  0  0  0  0  0  0  0
   10.8102   -1.7494    0.0000 H   0  0  0  0  0  0  0  0  0  0  0  0
   11.2486   -0.9901    0.0000 H   0  0  0  0  0  0  0  0  0  0  0  0
   10.4892   -0.5517    0.0000 H   0  0  0  0  0  0  0  0  0  0  0  0
   11.2316   -1.8352    0.0000 H   0  0  0  0  0  0  0  0  0  0  0  0
    5.0615   -3.5079    0.0000 H   0  0  0  0  0  0  0  0  0  0  0  0
    9.7330    0.7224    0.0000 H   0  0  0  0  0  0  0  0  0  0  0  0
    8.9882    1.1851    0.0000 H   0  0  0  0  0  0  0  0  0  0  0  0
    8.5255    0.4403    0.0000 H   0  0  0  0  0  0  0  0  0  0  0  0
    7.1445   -0.1422    0.0000 H   0  0  0  0  0  0  0  0  0  0  0  0
    3.6459   -3.4862    0.0000 H   0  0  0  0  0  0  0  0  0  0  0  0
    8.9226   -6.1966    0.0000 H   0  0  0  0  0  0  0  0  0  0  0  0
    8.9676   -7.0722    0.0000 H   0  0  0  0  0  0  0  0  0  0  0  0
    9.8433   -7.0272    0.0000 H   0  0  0  0  0  0  0  0  0  0  0  0
    2.9194   -4.7014    0.0000 H   0  0  0  0  0  0  0  0  0  0  0  0
    4.0309   -4.9508    0.0000 H   0  0  0  0  0  0  0  0  0  0  0  0
    4.1149   -6.2349    0.0000 H   0  0  0  0  0  0  0  0  0  0  0  0
    4.9063   -6.1400    0.0000 H   0  0  0  0  0  0  0  0  0  0  0  0
    3.5269   -2.4934    0.0000 H   0  0  0  0  0  0  0  0  0  0  0  0
   11.6357    1.1140    0.0000 H   0  0  0  0  0  0  0  0  0  0  0  0
   11.9983   -2.5987    0.0000 H   0  0  0  0  0  0  0  0  0  0  0  0
   12.7245   -5.3090    0.0000 H   0  0  0  0  0  0  0  0  0  0  0  0
    2.0000   -4.3080    0.0000 H   0  0  0  0  0  0  0  0  0  0  0  0
    2.8081   -6.5377    0.0000 H   0  0  0  0  0  0  0  0  0  0  0  0
   11.0560    3.2777    0.0000 H   0  0  0  0  0  0  0  0  0  0  0  0
   13.5631   -2.1795    0.0000 H   0  0  0  0  0  0  0  0  0  0  0  0
   14.2893   -4.8898    0.0000 H   0  0  0  0  0  0  0  0  0  0  0  0
   12.6017    0.8552    0.0000 H   0  0  0  0  0  0  0  0  0  0  0  0
   14.7086   -3.3250    0.0000 H   0  0  0  0  0  0  0  0  0  0  0  0
    9.8121    2.4992    0.0000 H   0  0  0  0  0  0  0  0  0  0  0  0
   13.0499    2.5282    0.0000 H   0  0  0  0  0  0  0  0  0  0  0  0
   11.0659    4.5123    0.0000 H   0  0  0  0  0  0  0  0  0  0  0  0
    8.4081    4.1084    0.0000 H   0  0  0  0  0  0  0  0  0  0  0  0
    8.9717    3.5448    0.0000 H   0  0  0  0  0  0  0  0  0  0  0  0
   14.1955    3.6738    0.0000 H   0  0  0  0  0  0  0  0  0  0  0  0
   12.2114    5.6578    0.0000 H   0  0  0  0  0  0  0  0  0  0  0  0
   13.7762    5.2386    0.0000 H   0  0  0  0  0  0  0  0  0  0  0  0
    9.3846    5.1824    0.0000 H   0  0  0  0  0  0  0  0  0  0  0  0
    8.8210    5.7460    0.0000 H   0  0  0  0  0  0  0  0  0  0  0  0
    7.1834    5.3331    0.0000 H   0  0  0  0  0  0  0  0  0  0  0  0
    7.7470    4.7695    0.0000 H   0  0  0  0  0  0  0  0  0  0  0  0
    8.1598    6.4071    0.0000 H   0  0  0  0  0  0  0  0  0  0  0  0
    7.5962    6.9707    0.0000 H   0  0  0  0  0  0  0  0  0  0  0  0
    6.7368    7.2108    0.0000 H   0  0  0  0  0  0  0  0  0  0  0  0
    5.9774    6.7724    0.0000 H   0  0  0  0  0  0  0  0  0  0  0  0
    6.4158    6.0130    0.0000 H   0  0  0  0  0  0  0  0  0  0  0  0
  1 22  1  0  0  0  0
  1 28  1  0  0  0  0
 20  2  1  1  0  0  0
  2 39  1  0  0  0  0
  3 23  1  0  0  0  0
  3 41  1  0  0  0  0
 25  4  1  6  0  0  0
  4 38  1  0  0  0  0
 24  5  1  6  0  0  0
  5 89  1  0  0  0  0
  6 29  2  0  0  0  0
 33  7  1  6  0  0  0
  7 94  1  0  0  0  0
 34  8  1  1  0  0  0
  8 45  1  0  0  0  0
  9 38  1  0  0  0  0
  9 48  1  0  0  0  0
 10 39  2  0  0  0  0
 11 42  1  0  0  0  0
 11103  1  0  0  0  0
 12 41  2  0  0  0  0
 13 44  1  0  0  0  0
 13107  1  0  0  0  0
 14 47  1  0  0  0  0
 14108  1  0  0  0  0
 15 45  2  0  0  0  0
 49 16  1  1  0  0  0
 16112  1  0  0  0  0
 17 59  2  0  0  0  0
 52 18  1  1  0  0  0
 18 59  1  0  0  0  0
 18114  1  0  0  0  0
 19 20  1  0  0  0  0
 19 21  1  0  0  0  0
 19 23  1  0  0  0  0
 19 68  1  0  0  0  0
 20 22  1  0  0  0  0
 20 28  1  0  0  0  0
 21 25  1  0  0  0  0
 21 29  1  0  0  0  0
 21 32  1  6  0  0  0
 22 26  1  0  0  0  0
 22 69  1  1  0  0  0
 23 24  1  0  0  0  0
 23 70  1  0  0  0  0
 24 27  1  0  0  0  0
 24 30  1  0  0  0  0
 25 26  1  0  0  0  0
 25 71  1  0  0  0  0
 26 72  1  0  0  0  0
 26 73  1  0  0  0  0
 27 31  1  0  0  0  0
 27 36  1  0  0  0  0
 27 37  1  0  0  0  0
 28 74  1  0  0  0  0
 28 75  1  0  0  0  0
 29 33  1  0  0  0  0
 30 34  1  0  0  0  0
 30 76  1  0  0  0  0
 30 77  1  0  0  0  0
 31 33  1  0  0  0  0
 31 35  2  0  0  0  0
 32 78  1  0  0  0  0
 32 79  1  0  0  0  0
 32 80  1  0  0  0  0
 33 81  1  0  0  0  0
 34 35  1  0  0  0  0
 34 82  1  0  0  0  0
 35 40  1  0  0  0  0
 36 83  1  0  0  0  0
 36 84  1  0  0  0  0
 36 85  1  0  0  0  0
 37 86  1  0  0  0  0
 37 87  1  0  0  0  0
 37 88  1  0  0  0  0
 38 42  1  0  0  0  0
 38 90  1  0  0  0  0
 39 43  1  0  0  0  0
 40 91  1  0  0  0  0
 40 92  1  0  0  0  0
 40 93  1  0  0  0  0
 41 46  1  0  0  0  0
 42 44  1  0  0  0  0
 42 95  1  0  0  0  0
 43 96  1  0  0  0  0
 43 97  1  0  0  0  0
 43 98  1  0  0  0  0
 44 47  1  0  0  0  0
 44 99  1  0  0  0  0
 45 49  1  0  0  0  0
 46 50  2  0  0  0  0
 46 51  1  0  0  0  0
 47 48  1  0  0  0  0
 47100  1  0  0  0  0
 48101  1  0  0  0  0
 48102  1  0  0  0  0
 49 52  1  0  0  0  0
 49104  1  0  0  0  0
 50 53  1  0  0  0  0
 50105  1  0  0  0  0
 51 54  2  0  0  0  0
 51106  1  0  0  0  0
 52 56  1  0  0  0  0
 52109  1  0  0  0  0
 53 55  2  0  0  0  0
 53110  1  0  0  0  0
 54 55  1  0  0  0  0
 54111  1  0  0  0  0
 55113  1  0  0  0  0
 56 57  2  0  0  0  0
 56 58  1  0  0  0  0
 57 61  1  0  0  0  0
 57115  1  0  0  0  0
 58 62  2  0  0  0  0
 58116  1  0  0  0  0
 59 60  1  0  0  0  0
 60 64  1  0  0  0  0
 60117  1  0  0  0  0
 60118  1  0  0  0  0
 61 63  2  0  0  0  0
 61119  1  0  0  0  0
 62 63  1  0  0  0  0
 62120  1  0  0  0  0
 63121  1  0  0  0  0
 64 65  1  0  0  0  0
 64122  1  0  0  0  0
 64123  1  0  0  0  0
 65 66  1  0  0  0  0
 65124  1  0  0  0  0
 65125  1  0  0  0  0
 66 67  1  0  0  0  0
 66126  1  0  0  0  0
 66127  1  0  0  0  0
 67128  1  0  0  0  0
 67129  1  0  0  0  0
 67130  1  0  0  0  0
M  END
> <PUBCHEM_COMPOUND_CID>
24793433

> <PUBCHEM_COMPOUND_CANONICALIZED>
1

> <PUBCHEM_CACTVS_COMPLEXITY>
1880

> <PUBCHEM_CACTVS_HBOND_ACCEPTOR>
17

> <PUBCHEM_CACTVS_HBOND_DONOR>
7

> <PUBCHEM_CACTVS_ROTATABLE_BOND>
17

> <PUBCHEM_CACTVS_SUBSKEYS>
AAADcfB+PgAAAAAAAAAAAAAAAABIAAAAAAA0YMECAAAaIACBQAAAHgAQCAAAD3zxmAcyCILABgCIAqHSGAKCAAAkAAAIiIFIDMgbNj6AtRmmcQhn9gGfuYfa7PzPgAAAAAAAAABCAAYQADCAAAAAAAAAAA==

> <PUBCHEM_IUPAC_OPENEYE_NAME>
[(1S,2S,4S,7R,9S,10S,12R,15S)-4-acetoxy-15-[(2R,3S)-3-(hexanoylamino)-2-hydroxy-3-phenyl-propanoyl]oxy-1,12-dihydroxy-10,14,17,17-tetramethyl-11-oxo-9-(3,4,5-trihydroxytetrahydropyran-2-yl)oxy-6-oxatetracyclo[11.3.1.03,10.04,7]heptadec-13-en-2-yl] benzoate

> <PUBCHEM_IUPAC_CAS_NAME>
benzoic acid [(1S,2S,4S,7R,9S,10S,12R,15S)-4-acetyloxy-1,12-dihydroxy-15-[(2R,3S)-2-hydroxy-1-oxo-3-(1-oxohexylamino)-3-phenylpropoxy]-10,14,17,17-tetramethyl-11-oxo-9-[(3,4,5-trihydroxy-2-oxanyl)oxy]-6-oxatetracyclo[11.3.1.03,10.04,7]heptadec-13-en-2-yl] ester

> <PUBCHEM_IUPAC_NAME_MARKUP>
[(1<I>S</I>,2<I>S</I>,4<I>S</I>,7<I>R</I>,9<I>S</I>,10<I>S</I>,12<I>R</I>,15<I>S</I>)-4-acetyloxy-15-[(2<I>R</I>,3<I>S</I>)-3-(hexanoylamino)-2-hydroxy-3-phenylpropanoyl]oxy-1,12-dihydroxy-10,14,17,17-tetramethyl-11-oxo-9-(3,4,5-trihydroxyoxan-2-yl)oxy-6-oxatetracyclo[11.3.1.0<SUP>3,10</SUP>.0<SUP>4,7</SUP>]heptadec-13-en-2-yl] benzoate

> <PUBCHEM_IUPAC_NAME>
[(1S,2S,4S,7R,9S,10S,12R,15S)-4-acetyloxy-15-[(2R,3S)-3-(hexanoylamino)-2-hydroxy-3-phenylpropanoyl]oxy-1,12-dihydroxy-10,14,17,17-tetramethyl-11-oxo-9-(3,4,5-trihydroxyoxan-2-yl)oxy-6-oxatetracyclo[11.3.1.03,10.04,7]heptadec-13-en-2-yl] benzoate

> <PUBCHEM_IUPAC_SYSTEMATIC_NAME>
[(1S,2S,4S,7R,9S,10S,12R,15S)-4-acetyloxy-15-[(2R,3S)-3-(hexanoylamino)-2-oxidanyl-3-phenyl-propanoyl]oxy-10,14,17,17-tetramethyl-1,12-bis(oxidanyl)-11-oxidanylidene-9-[3,4,5-tris(oxidanyl)oxan-2-yl]oxy-6-oxatetracyclo[11.3.1.03,10.04,7]heptadec-13-en-2-yl] benzoate

> <PUBCHEM_IUPAC_TRADITIONAL_NAME>
benzoic acid [(1S,2S,4S,7R,9S,10S,12R,15S)-4-acetoxy-15-[(2R,3S)-3-(caproylamino)-2-hydroxy-3-phenyl-propanoyl]oxy-1,12-dihydroxy-11-keto-10,14,17,17-tetramethyl-9-(3,4,5-trihydroxytetrahydropyran-2-yl)oxy-6-oxatetracyclo[11.3.1.03,10.04,7]heptadec-13-en-2-yl] ester

> <PUBCHEM_IUPAC_INCHI>
InChI=1S/C49H63NO17/c1-7-8-11-20-33(53)50-35(27-16-12-9-13-17-27)38(56)44(60)64-30-22-49(61)42(66-43(59)28-18-14-10-15-19-28)40-47(6,41(58)37(55)34(25(30)2)46(49,4)5)31(21-32-48(40,24-63-32)67-26(3)51)65-45-39(57)36(54)29(52)23-62-45/h9-10,12-19,29-32,35-40,42,45,52,54-57,61H,7-8,11,20-24H2,1-6H3,(H,50,53)/t29?,30-,31-,32+,35-,36?,37+,38+,39?,40?,42-,45?,47+,48-,49+/m0/s1

> <PUBCHEM_IUPAC_INCHIKEY>
XGWGQEYABFGJID-VLHYZFGPSA-N

> <PUBCHEM_XLOGP3>
0.6

> <PUBCHEM_EXACT_MASS>
937.4096

> <PUBCHEM_MOLECULAR_FORMULA>
C49H63NO17

> <PUBCHEM_MOLECULAR_WEIGHT>
938

> <PUBCHEM_OPENEYE_CAN_SMILES>
CCCCCC(=O)NC(C1=CC=CC=C1)C(C(=O)OC2CC3(C(C4C(C(CC5C4(CO5)OC(=O)C)OC6C(C(C(CO6)O)O)O)(C(=O)C(C(=C2C)C3(C)C)O)C)OC(=O)C7=CC=CC=C7)O)O

> <PUBCHEM_OPENEYE_ISO_SMILES>
CCCCCC(=O)N[C@@H](C1=CC=CC=C1)[C@H](C(=O)O[C@H]2C[C@]3([C@H](C4[C@@]([C@H](C[C@@H]5[C@]4(CO5)OC(=O)C)OC6C(C(C(CO6)O)O)O)(C(=O)[C@@H](C(=C2C)C3(C)C)O)C)OC(=O)C7=CC=CC=C7)O)O

> <PUBCHEM_CACTVS_TPSA>
274

> <PUBCHEM_MONOISOTOPIC_WEIGHT>
937.4096

> <PUBCHEM_TOTAL_CHARGE>
0

> <PUBCHEM_HEAVY_ATOM_COUNT>
67

> <PUBCHEM_ATOM_DEF_STEREO_COUNT>
10

> <PUBCHEM_ATOM_UDEF_STEREO_COUNT>
5

> <PUBCHEM_BOND_DEF_STEREO_COUNT>
0

> <PUBCHEM_BOND_UDEF_STEREO_COUNT>
0

> <PUBCHEM_ISOTOPIC_ATOM_COUNT>
0

> <PUBCHEM_COMPONENT_COUNT>
1

> <PUBCHEM_CACTVS_TAUTO_COUNT>
-1

> <PUBCHEM_COORDINATE_TYPE>
1
5
255

> <PUBCHEM_BONDANNOTATIONS>
42  11  3
44  13  3
47  14  3
49  16  5
52  18  5
19  23  3
20  2  5
21  32  6
22  69  5
25  4  6
38  4  3
46  50  8
46  51  8
24  5  6
50  53  8
51  54  8
53  55  8
54  55  8
56  57  8
56  58  8
57  61  8
58  62  8
61  63  8
62  63  8
33  7  6
34  8  5

$$$$
