517973
  -OEChem-09052009423D

 28 28  0     0  0  0  0  0  0999 V2000
   -0.7255    0.0079    0.2513 C   0  0  0  0  0  0  0  0  0  0  0  0
    0.0536    1.2683   -0.1608 C   0  0  0  0  0  0  0  0  0  0  0  0
    0.0477   -1.2636   -0.1373 C   0  0  0  0  0  0  0  0  0  0  0  0
   -2.1178    0.0052   -0.3768 C   0  0  0  0  0  0  0  0  0  0  0  0
    1.4717    1.2744    0.4134 C   0  0  0  0  0  0  0  0  0  0  0  0
    1.4662   -1.2659    0.4363 C   0  0  0  0  0  0  0  0  0  0  0  0
    2.1935   -0.0005    0.0667 C   0  0  0  0  0  0  0  0  0  0  0  0
   -2.8762   -1.2638    0.0054 C   0  0  0  0  0  0  0  0  0  0  0  0
   -2.8997    1.2466    0.0465 C   0  0  0  0  0  0  0  0  0  0  0  0
    3.3866   -0.0087   -0.5447 C   0  0  0  0  0  0  0  0  0  0  0  0
   -0.8274    0.0171    1.3462 H   0  0  0  0  0  0  0  0  0  0  0  0
   -0.4427    2.1754    0.1990 H   0  0  0  0  0  0  0  0  0  0  0  0
    0.1021    1.3382   -1.2554 H   0  0  0  0  0  0  0  0  0  0  0  0
    0.0948   -1.3550   -1.2304 H   0  0  0  0  0  0  0  0  0  0  0  0
   -0.4502   -2.1620    0.2420 H   0  0  0  0  0  0  0  0  0  0  0  0
   -2.0325    0.0230   -1.4714 H   0  0  0  0  0  0  0  0  0  0  0  0
    1.4271    1.3709    1.5055 H   0  0  0  0  0  0  0  0  0  0  0  0
    2.0091    2.1536    0.0389 H   0  0  0  0  0  0  0  0  0  0  0  0
    1.9995   -2.1541    0.0773 H   0  0  0  0  0  0  0  0  0  0  0  0
    1.4218   -1.3427    1.5299 H   0  0  0  0  0  0  0  0  0  0  0  0
   -2.8622   -1.4322    1.0875 H   0  0  0  0  0  0  0  0  0  0  0  0
   -3.9254   -1.1937   -0.3040 H   0  0  0  0  0  0  0  0  0  0  0  0
   -2.4712   -2.1495   -0.4933 H   0  0  0  0  0  0  0  0  0  0  0  0
   -2.8988    1.3721    1.1345 H   0  0  0  0  0  0  0  0  0  0  0  0
   -3.9444    1.1733   -0.2769 H   0  0  0  0  0  0  0  0  0  0  0  0
   -2.5019    2.1574   -0.4107 H   0  0  0  0  0  0  0  0  0  0  0  0
    3.8864   -0.9389   -0.7931 H   0  0  0  0  0  0  0  0  0  0  0  0
    3.8905    0.9147   -0.8099 H   0  0  0  0  0  0  0  0  0  0  0  0
  1  2  1  0  0  0  0
  1  3  1  0  0  0  0
  1  4  1  0  0  0  0
  1 11  1  0  0  0  0
  2  5  1  0  0  0  0
  2 12  1  0  0  0  0
  2 13  1  0  0  0  0
  3  6  1  0  0  0  0
  3 14  1  0  0  0  0
  3 15  1  0  0  0  0
  4  8  1  0  0  0  0
  4  9  1  0  0  0  0
  4 16  1  0  0  0  0
  5  7  1  0  0  0  0
  5 17  1  0  0  0  0
  5 18  1  0  0  0  0
  6  7  1  0  0  0  0
  6 19  1  0  0  0  0
  6 20  1  0  0  0  0
  7 10  2  0  0  0  0
  8 21  1  0  0  0  0
  8 22  1  0  0  0  0
  8 23  1  0  0  0  0
  9 24  1  0  0  0  0
  9 25  1  0  0  0  0
  9 26  1  0  0  0  0
 10 27  1  0  0  0  0
 10 28  1  0  0  0  0
M  END
> <PUBCHEM_COMPOUND_CID>
517973

> <PUBCHEM_CONFORMER_RMSD>
0.4

> <PUBCHEM_CONFORMER_DIVERSEORDER>
1
13
12
4
7
6
9
10
5
8
11
2
3

> <PUBCHEM_MMFF94_PARTIAL_CHARGES>
6
10 -0.3
27 0.15
28 0.15
5 0.14
6 0.14
7 -0.28

> <PUBCHEM_EFFECTIVE_ROTOR_COUNT>
2

> <PUBCHEM_PHARMACOPHORE_FEATURES>
2
3 4 8 9 hydrophobe
6 1 2 3 5 6 7 rings

> <PUBCHEM_HEAVY_ATOM_COUNT>
10

> <PUBCHEM_ATOM_DEF_STEREO_COUNT>
0

> <PUBCHEM_ATOM_UDEF_STEREO_COUNT>
0

> <PUBCHEM_BOND_DEF_STEREO_COUNT>
0

> <PUBCHEM_BOND_UDEF_STEREO_COUNT>
0

> <PUBCHEM_ISOTOPIC_ATOM_COUNT>
0

> <PUBCHEM_COMPONENT_COUNT>
1

> <PUBCHEM_CACTVS_TAUTO_COUNT>
1

> <PUBCHEM_CONFORMER_ID>
0007E75500000001

> <PUBCHEM_MMFF94_ENERGY>
13.3465

> <PUBCHEM_FEATURE_SELFOVERLAP>
10.148

> <PUBCHEM_SHAPE_FINGERPRINT>
10857977 72 18337099159433071611
12032990 46 18412552028308712614
12897270 3 18410007736694808087
12932764 1 18408037403478921473
13380535 21 18338244747659987363
14128692 85 18271243940557467279
14325111 11 18411136956680085132
15775835 57 18335424534398996837
16945 1 18410566279990691201
193761 8 17474670551161802536
19973954 147 18410854408188494777
20201158 50 18410008819100627511
21040471 1 18337667632798766496
21293036 1 18337397131679768572
23235685 24 18333448733610647068
23402655 69 18268696226783783685
23552423 10 18334293210075105341
2748010 2 18339354296315234213
29004967 10 18334857212131880097
3248919 1 17167579401402130017
5084963 1 18271810184708548217
528886 8 18411132507072770201
53812653 166 18341325634959578816
63268167 104 18339362959269343913

> <PUBCHEM_SHAPE_MULTIPOLES>
205.8
4.85
1.57
0.71
0.23
0
-0.01
0
-0.52
0.42
0.1
-0.12
0
-0.02

> <PUBCHEM_SHAPE_SELFOVERLAP>
398.778

> <PUBCHEM_SHAPE_VOLUME>
125.1

> <PUBCHEM_COORDINATE_TYPE>
2
5
10

$$$$
