15560332
  -OEChem-09052010023D

 42 43  0     1  0  0  0  0  0999 V2000
   -2.9474    0.7544   -1.0721 O   0  0  0  0  0  0  0  0  0  0  0  0
   -0.6858   -1.2110   -0.2106 C   0  0  1  0  0  0  0  0  0  0  0  0
   -0.6029    0.3265   -0.5622 C   0  0  1  0  0  0  0  0  0  0  0  0
   -1.8870    1.1314   -0.1798 C   0  0  2  0  0  0  0  0  0  0  0  0
    0.6965    0.9134    0.0299 C   0  0  0  0  0  0  0  0  0  0  0  0
    0.7315   -1.8717   -0.2143 C   0  0  0  0  0  0  0  0  0  0  0  0
   -1.2917   -1.4446    1.1985 C   0  0  0  0  0  0  0  0  0  0  0  0
    1.9526    0.3007   -0.6256 C   0  0  2  0  0  0  0  0  0  0  0  0
   -2.3680    0.8226    1.2431 C   0  0  0  0  0  0  0  0  0  0  0  0
    1.7175   -1.1370   -1.1139 C   0  0  0  0  0  0  0  0  0  0  0  0
   -2.5746   -0.6706    1.4661 C   0  0  0  0  0  0  0  0  0  0  0  0
   -1.5439   -1.9517   -1.2638 C   0  0  0  0  0  0  0  0  0  0  0  0
   -1.7320    2.6492   -0.3481 C   0  0  0  0  0  0  0  0  0  0  0  0
    3.1230    0.3936    0.3111 C   0  0  0  0  0  0  0  0  0  0  0  0
    4.2781    1.2295   -0.1545 C   0  0  0  0  0  0  0  0  0  0  0  0
    3.1342   -0.2345    1.4962 C   0  0  0  0  0  0  0  0  0  0  0  0
   -0.5131    0.4083   -1.6563 H   0  0  0  0  0  0  0  0  0  0  0  0
    0.6823    0.7861    1.1186 H   0  0  0  0  0  0  0  0  0  0  0  0
    0.7522    1.9942   -0.1402 H   0  0  0  0  0  0  0  0  0  0  0  0
    0.6559   -2.9086   -0.5685 H   0  0  0  0  0  0  0  0  0  0  0  0
    1.1236   -1.9713    0.7979 H   0  0  0  0  0  0  0  0  0  0  0  0
   -0.5639   -1.1488    1.9660 H   0  0  0  0  0  0  0  0  0  0  0  0
   -1.4777   -2.5149    1.3555 H   0  0  0  0  0  0  0  0  0  0  0  0
    2.1799    0.8951   -1.5219 H   0  0  0  0  0  0  0  0  0  0  0  0
   -3.3214    1.3291    1.4408 H   0  0  0  0  0  0  0  0  0  0  0  0
   -1.6467    1.2030    1.9771 H   0  0  0  0  0  0  0  0  0  0  0  0
    2.6606   -1.6947   -1.1719 H   0  0  0  0  0  0  0  0  0  0  0  0
    1.3207   -1.1141   -2.1371 H   0  0  0  0  0  0  0  0  0  0  0  0
   -3.3874   -1.0441    0.8336 H   0  0  0  0  0  0  0  0  0  0  0  0
   -2.8882   -0.8399    2.5031 H   0  0  0  0  0  0  0  0  0  0  0  0
   -2.5836   -1.6180   -1.2756 H   0  0  0  0  0  0  0  0  0  0  0  0
   -1.1377   -1.8122   -2.2717 H   0  0  0  0  0  0  0  0  0  0  0  0
   -1.5668   -3.0298   -1.0654 H   0  0  0  0  0  0  0  0  0  0  0  0
   -1.0609    3.0850    0.3980 H   0  0  0  0  0  0  0  0  0  0  0  0
   -1.3544    2.8905   -1.3481 H   0  0  0  0  0  0  0  0  0  0  0  0
   -2.7002    3.1559   -0.2551 H   0  0  0  0  0  0  0  0  0  0  0  0
   -3.7558    1.2245   -0.8057 H   0  0  0  0  0  0  0  0  0  0  0  0
    4.6832    0.8307   -1.0903 H   0  0  0  0  0  0  0  0  0  0  0  0
    3.9559    2.2619   -0.3250 H   0  0  0  0  0  0  0  0  0  0  0  0
    5.0925    1.2522    0.5772 H   0  0  0  0  0  0  0  0  0  0  0  0
    3.9975   -0.1517    2.1503 H   0  0  0  0  0  0  0  0  0  0  0  0
    2.3077   -0.8068    1.8885 H   0  0  0  0  0  0  0  0  0  0  0  0
  1  4  1  0  0  0  0
  1 37  1  0  0  0  0
  2  3  1  0  0  0  0
  2  6  1  0  0  0  0
  2  7  1  0  0  0  0
  2 12  1  0  0  0  0
  3  4  1  0  0  0  0
  3  5  1  0  0  0  0
  3 17  1  0  0  0  0
  4  9  1  0  0  0  0
  4 13  1  0  0  0  0
  5  8  1  0  0  0  0
  5 18  1  0  0  0  0
  5 19  1  0  0  0  0
  6 10  1  0  0  0  0
  6 20  1  0  0  0  0
  6 21  1  0  0  0  0
  7 11  1  0  0  0  0
  7 22  1  0  0  0  0
  7 23  1  0  0  0  0
  8 10  1  0  0  0  0
  8 14  1  0  0  0  0
  8 24  1  0  0  0  0
  9 11  1  0  0  0  0
  9 25  1  0  0  0  0
  9 26  1  0  0  0  0
 10 27  1  0  0  0  0
 10 28  1  0  0  0  0
 11 29  1  0  0  0  0
 11 30  1  0  0  0  0
 12 31  1  0  0  0  0
 12 32  1  0  0  0  0
 12 33  1  0  0  0  0
 13 34  1  0  0  0  0
 13 35  1  0  0  0  0
 13 36  1  0  0  0  0
 14 15  1  0  0  0  0
 14 16  2  0  0  0  0
 15 38  1  0  0  0  0
 15 39  1  0  0  0  0
 15 40  1  0  0  0  0
 16 41  1  0  0  0  0
 16 42  1  0  0  0  0
M  END
> <PUBCHEM_COMPOUND_CID>
15560332

> <PUBCHEM_CONFORMER_RMSD>
0.6

> <PUBCHEM_CONFORMER_DIVERSEORDER>
1
2

> <PUBCHEM_MMFF94_PARTIAL_CHARGES>
9
1 -0.68
14 -0.28
15 0.14
16 -0.3
37 0.4
4 0.28
41 0.15
42 0.15
8 0.14

> <PUBCHEM_EFFECTIVE_ROTOR_COUNT>
2.6

> <PUBCHEM_PHARMACOPHORE_FEATURES>
4
1 1 acceptor
1 1 donor
6 2 3 4 7 9 11 rings
6 2 3 5 6 8 10 rings

> <PUBCHEM_HEAVY_ATOM_COUNT>
16

> <PUBCHEM_ATOM_DEF_STEREO_COUNT>
4

> <PUBCHEM_ATOM_UDEF_STEREO_COUNT>
0

> <PUBCHEM_BOND_DEF_STEREO_COUNT>
0

> <PUBCHEM_BOND_UDEF_STEREO_COUNT>
0

> <PUBCHEM_ISOTOPIC_ATOM_COUNT>
0

> <PUBCHEM_COMPONENT_COUNT>
1

> <PUBCHEM_CACTVS_TAUTO_COUNT>
1

> <PUBCHEM_CONFORMER_ID>
00ED6E8C00000001

> <PUBCHEM_MMFF94_ENERGY>
55.6446

> <PUBCHEM_FEATURE_SELFOVERLAP>
20.327

> <PUBCHEM_SHAPE_FINGERPRINT>
11132069 177 18201154459786096520
12077114 3 18260541199941580300
12251169 10 17895199930245496760
12382932 28 18409174298433613160
12491281 212 15769787818315438088
12824470 246 16226610839318308667
13024252 1 17603861247701786263
13581323 91 18261114088512472280
13764800 53 18409739443009866544
14614273 12 18131066073482384679
14787075 74 16596757194472316040
15061688 2 17896023365760306325
15076042 46 18186241710168422872
15219456 202 18342470209711265462
15309172 13 18342744043719512814
15375462 478 17968383445443375867
15490181 7 18268999686943675831
15775835 57 18060142007202361961
15852999 172 17968933068377041359
15881359 60 18409732902117507571
16945 1 18188507786632656943
18186145 218 17845095056360483172
19049666 15 18121513357593663514
19868273 325 18268148845284618884
20510252 161 18410580608154721112
20511035 2 18047763593591020959
20525323 117 18410575123386603238
20871998 184 18410300241237296589
21524375 3 18120078503541356277
21947302 44 18194401078494178343
22112679 90 17909564083078425567
2306618 200 18131349734655133528
2334 1 17908140228373942724
23402539 116 18270391832147562591
23493267 7 18042422248145240496
23557571 272 17702948187356278271
27216 239 18339927116293458160
2748010 2 18195540185494099693
5706482 22 18336254674341813987
81228 2 17985266519434385494

> <PUBCHEM_SHAPE_MULTIPOLES>
323.4
5.42
2.18
1.38
4.77
0.26
0.32
1.93
0.99
-1.09
-0.48
-0.4
-0.35
0.2

> <PUBCHEM_SHAPE_SELFOVERLAP>
658.474

> <PUBCHEM_SHAPE_VOLUME>
187.3

> <PUBCHEM_COORDINATE_TYPE>
2
5
10

$$$$
