16083120
  -OEChem-09052010292D

155164  0     1  0  0  0  0  0999 V2000
    5.5982    7.6604    0.0000 O   0  0  0  0  0  0  0  0  0  0  0  0
    7.9903    7.6509    0.0000 O   0  0  0  0  0  0  0  0  0  0  0  0
    3.9370    6.5728    0.0000 O   0  0  0  0  0  0  0  0  0  0  0  0
   12.0262    2.3059    0.0000 O   0  0  0  0  0  0  0  0  0  0  0  0
   11.1602    0.8059    0.0000 O   0  0  0  0  0  0  0  0  0  0  0  0
   13.7583    1.3059    0.0000 O   0  0  0  0  0  0  0  0  0  0  0  0
   13.7583   -0.6941    0.0000 O   0  0  0  0  0  0  0  0  0  0  0  0
   12.0262   -1.6941    0.0000 O   0  0  0  0  0  0  0  0  0  0  0  0
    9.4281   -0.1941    0.0000 O   0  0  0  0  0  0  0  0  0  0  0  0
   10.2942   -1.6941    0.0000 O   0  0  0  0  0  0  0  0  0  0  0  0
   12.0262   -3.6941    0.0000 O   0  0  0  0  0  0  0  0  0  0  0  0
   10.2942   -4.6941    0.0000 O   0  0  0  0  0  0  0  0  0  0  0  0
    8.5621   -3.6941    0.0000 O   0  0  0  0  0  0  0  0  0  0  0  0
   12.0262   -5.4262    0.0000 O   0  0  0  0  0  0  0  0  0  0  0  0
    8.5621   -0.6941    0.0000 O   0  0  0  0  0  0  0  0  0  0  0  0
    8.5621   -4.6941    0.0000 O   0  0  0  0  0  0  0  0  0  0  0  0
   14.0262   -3.6941    0.0000 O   0  0  0  0  0  0  0  0  0  0  0  0
   15.0262   -5.4262    0.0000 O   0  0  0  0  0  0  0  0  0  0  0  0
   10.2942   -6.6941    0.0000 O   0  0  0  0  0  0  0  0  0  0  0  0
   14.0263   -7.1582    0.0000 O   0  0  0  0  0  0  0  0  0  0  0  0
    8.5621   -7.6941    0.0000 O   0  0  0  0  0  0  0  0  0  0  0  0
    6.8300   -6.6941    0.0000 O   0  0  0  0  0  0  0  0  0  0  0  0
   12.5263   -8.0242    0.0000 O   0  0  0  0  0  0  0  0  0  0  0  0
    6.6742    5.4297    0.0000 C   0  0  1  0  0  0  0  0  0  0  0  0
    7.5383    5.9330    0.0000 C   0  0  2  0  0  0  0  0  0  0  0  0
    5.9346    6.0939    0.0000 C   0  0  2  0  0  0  0  0  0  0  0  0
    8.4062    5.4363    0.0000 C   0  0  1  0  0  0  0  0  0  0  0  0
    8.4101    4.4363    0.0000 C   0  0  1  0  0  0  0  0  0  0  0  0
    6.3362    7.0032    0.0000 C   0  0  2  0  0  0  0  0  0  0  0  0
    7.3253    6.9040    0.0000 C   0  0  2  0  0  0  0  0  0  0  0  0
    9.3061    3.9051    0.0000 C   0  0  2  0  0  0  0  0  0  0  0  0
    6.6780    4.4297    0.0000 C   0  0  0  0  0  0  0  0  0  0  0  0
    7.5460    3.9330    0.0000 C   0  0  0  0  0  0  0  0  0  0  0  0
    4.9518    6.1968    0.0000 C   0  0  1  0  0  0  0  0  0  0  0  0
   10.2102    4.4225    0.0000 C   0  0  1  0  0  0  0  0  0  0  0  0
    9.2981    5.9744    0.0000 C   0  0  0  0  0  0  0  0  0  0  0  0
    4.7443    7.1630    0.0000 C   0  0  1  0  0  0  0  0  0  0  0  0
   10.2061    5.4641    0.0000 C   0  0  0  0  0  0  0  0  0  0  0  0
    5.8101    4.9263    0.0000 C   0  0  0  0  0  0  0  0  0  0  0  0
    9.2852    2.8203    0.0000 C   0  0  0  0  0  0  0  0  0  0  0  0
   11.1560    3.8909    0.0000 C   0  0  0  0  0  0  0  0  0  0  0  0
    8.4381    3.4085    0.0000 C   0  0  0  0  0  0  0  0  0  0  0  0
   10.2185    2.2670    0.0000 C   0  0  0  0  0  0  0  0  0  0  0  0
    4.2836    5.4528    0.0000 C   0  0  0  0  0  0  0  0  0  0  0  0
    4.6368    8.1572    0.0000 C   0  0  0  0  0  0  0  0  0  0  0  0
   11.1602    2.8059    0.0000 C   0  0  2  0  0  0  0  0  0  0  0  0
    3.7220    8.5612    0.0000 C   0  0  0  0  0  0  0  0  0  0  0  0
    3.0223    6.9768    0.0000 C   0  0  0  0  0  0  0  0  0  0  0  0
    2.9148    7.9710    0.0000 C   0  0  2  0  0  0  0  0  0  0  0  0
    2.0000    8.3750    0.0000 C   0  0  0  0  0  0  0  0  0  0  0  0
   12.0262    1.3059    0.0000 C   0  0  2  0  0  0  0  0  0  0  0  0
   12.8922    0.8059    0.0000 C   0  0  1  0  0  0  0  0  0  0  0  0
   12.8922   -0.1941    0.0000 C   0  0  2  0  0  0  0  0  0  0  0  0
   11.1602   -0.1941    0.0000 C   0  0  1  0  0  0  0  0  0  0  0  0
   12.0262   -0.6941    0.0000 C   0  0  2  0  0  0  0  0  0  0  0  0
   10.2942   -0.6941    0.0000 C   0  0  0  0  0  0  0  0  0  0  0  0
   11.1602   -2.1941    0.0000 C   0  0  2  0  0  0  0  0  0  0  0  0
   11.1602   -3.1941    0.0000 C   0  0  1  0  0  0  0  0  0  0  0  0
   10.2942   -3.6941    0.0000 C   0  0  2  0  0  0  0  0  0  0  0  0
    9.4281   -2.1941    0.0000 C   0  0  1  0  0  0  0  0  0  0  0  0
    9.4281   -3.1941    0.0000 C   0  0  1  0  0  0  0  0  0  0  0  0
    8.5621   -1.6941    0.0000 C   0  0  0  0  0  0  0  0  0  0  0  0
   12.5263   -4.5601    0.0000 C   0  0  2  0  0  0  0  0  0  0  0  0
    9.4281   -5.1941    0.0000 C   0  0  2  0  0  0  0  0  0  0  0  0
   13.5262   -4.5601    0.0000 C   0  0  1  0  0  0  0  0  0  0  0  0
   14.0262   -5.4262    0.0000 C   0  0  2  0  0  0  0  0  0  0  0  0
    9.4281   -6.1941    0.0000 C   0  0  1  0  0  0  0  0  0  0  0  0
   12.5263   -6.2922    0.0000 C   0  0  1  0  0  0  0  0  0  0  0  0
   13.5263   -6.2921    0.0000 C   0  0  1  0  0  0  0  0  0  0  0  0
    8.5621   -6.6941    0.0000 C   0  0  2  0  0  0  0  0  0  0  0  0
    7.6961   -5.1941    0.0000 C   0  0  0  0  0  0  0  0  0  0  0  0
    7.6961   -6.1941    0.0000 C   0  0  1  0  0  0  0  0  0  0  0  0
   12.0262   -7.1582    0.0000 C   0  0  0  0  0  0  0  0  0  0  0  0
    8.2234    6.4361    0.0000 H   0  0  0  0  0  0  0  0  0  0  0  0
    5.5895    5.3171    0.0000 H   0  0  0  0  0  0  0  0  0  0  0  0
    8.3964    6.2863    0.0000 H   0  0  0  0  0  0  0  0  0  0  0  0
    9.1478    4.8585    0.0000 H   0  0  0  0  0  0  0  0  0  0  0  0
    6.6779    7.7815    0.0000 H   0  0  0  0  0  0  0  0  0  0  0  0
    7.9252    6.7471    0.0000 H   0  0  0  0  0  0  0  0  0  0  0  0
    6.0670    4.5350    0.0000 H   0  0  0  0  0  0  0  0  0  0  0  0
    6.4682    3.8462    0.0000 H   0  0  0  0  0  0  0  0  0  0  0  0
    7.1493    3.4565    0.0000 H   0  0  0  0  0  0  0  0  0  0  0  0
    7.9463    3.4596    0.0000 H   0  0  0  0  0  0  0  0  0  0  0  0
    4.3526    6.3563    0.0000 H   0  0  0  0  0  0  0  0  0  0  0  0
   10.9430    4.8531    0.0000 H   0  0  0  0  0  0  0  0  0  0  0  0
    9.6899    6.4550    0.0000 H   0  0  0  0  0  0  0  0  0  0  0  0
    8.8917    6.4427    0.0000 H   0  0  0  0  0  0  0  0  0  0  0  0
   10.8174    5.3604    0.0000 H   0  0  0  0  0  0  0  0  0  0  0  0
   10.4129    6.0486    0.0000 H   0  0  0  0  0  0  0  0  0  0  0  0
    5.4980    5.4621    0.0000 H   0  0  0  0  0  0  0  0  0  0  0  0
    5.2744    4.6143    0.0000 H   0  0  0  0  0  0  0  0  0  0  0  0
    6.1222    4.3906    0.0000 H   0  0  0  0  0  0  0  0  0  0  0  0
    8.6765    2.9382    0.0000 H   0  0  0  0  0  0  0  0  0  0  0  0
    9.0649    2.2408    0.0000 H   0  0  0  0  0  0  0  0  0  0  0  0
   11.7673    3.7871    0.0000 H   0  0  0  0  0  0  0  0  0  0  0  0
   11.3628    4.4754    0.0000 H   0  0  0  0  0  0  0  0  0  0  0  0
    8.1302    3.9466    0.0000 H   0  0  0  0  0  0  0  0  0  0  0  0
    7.9000    3.1006    0.0000 H   0  0  0  0  0  0  0  0  0  0  0  0
    8.7460    2.8704    0.0000 H   0  0  0  0  0  0  0  0  0  0  0  0
    9.8157    1.7957    0.0000 H   0  0  0  0  0  0  0  0  0  0  0  0
   10.6139    1.7895    0.0000 H   0  0  0  0  0  0  0  0  0  0  0  0
    3.8223    5.8671    0.0000 H   0  0  0  0  0  0  0  0  0  0  0  0
    3.8693    4.9916    0.0000 H   0  0  0  0  0  0  0  0  0  0  0  0
    4.7449    5.0385    0.0000 H   0  0  0  0  0  0  0  0  0  0  0  0
    5.2554    8.1158    0.0000 H   0  0  0  0  0  0  0  0  0  0  0  0
    4.7850    8.7592    0.0000 H   0  0  0  0  0  0  0  0  0  0  0  0
   11.1590    2.1859    0.0000 H   0  0  0  0  0  0  0  0  0  0  0  0
    7.7954    8.2394    0.0000 H   0  0  0  0  0  0  0  0  0  0  0  0
    4.0672    9.0762    0.0000 H   0  0  0  0  0  0  0  0  0  0  0  0
    3.2747    8.9905    0.0000 H   0  0  0  0  0  0  0  0  0  0  0  0
    2.4036    7.0182    0.0000 H   0  0  0  0  0  0  0  0  0  0  0  0
    2.8741    6.3747    0.0000 H   0  0  0  0  0  0  0  0  0  0  0  0
    2.8481    8.5874    0.0000 H   0  0  0  0  0  0  0  0  0  0  0  0
    2.2505    8.9421    0.0000 H   0  0  0  0  0  0  0  0  0  0  0  0
    1.4328    8.6255    0.0000 H   0  0  0  0  0  0  0  0  0  0  0  0
    1.7495    7.8078    0.0000 H   0  0  0  0  0  0  0  0  0  0  0  0
   12.5631    1.6159    0.0000 H   0  0  0  0  0  0  0  0  0  0  0  0
   13.4292    0.4959    0.0000 H   0  0  0  0  0  0  0  0  0  0  0  0
   13.4292    0.1159    0.0000 H   0  0  0  0  0  0  0  0  0  0  0  0
   10.6232    0.1159    0.0000 H   0  0  0  0  0  0  0  0  0  0  0  0
   12.5631   -1.0041    0.0000 H   0  0  0  0  0  0  0  0  0  0  0  0
   13.7583    1.9259    0.0000 H   0  0  0  0  0  0  0  0  0  0  0  0
    9.8956   -1.1691    0.0000 H   0  0  0  0  0  0  0  0  0  0  0  0
   10.6927   -1.1691    0.0000 H   0  0  0  0  0  0  0  0  0  0  0  0
   14.2952   -0.3841    0.0000 H   0  0  0  0  0  0  0  0  0  0  0  0
   11.1602   -1.5741    0.0000 H   0  0  0  0  0  0  0  0  0  0  0  0
    9.4281    0.4259    0.0000 H   0  0  0  0  0  0  0  0  0  0  0  0
   11.1602   -3.8141    0.0000 H   0  0  0  0  0  0  0  0  0  0  0  0
    9.7572   -4.0041    0.0000 H   0  0  0  0  0  0  0  0  0  0  0  0
    9.4281   -1.5741    0.0000 H   0  0  0  0  0  0  0  0  0  0  0  0
    8.8912   -2.8841    0.0000 H   0  0  0  0  0  0  0  0  0  0  0  0
    7.9515   -1.5864    0.0000 H   0  0  0  0  0  0  0  0  0  0  0  0
    8.3500   -2.2767    0.0000 H   0  0  0  0  0  0  0  0  0  0  0  0
   12.8363   -4.0232    0.0000 H   0  0  0  0  0  0  0  0  0  0  0  0
    8.0252   -3.3841    0.0000 H   0  0  0  0  0  0  0  0  0  0  0  0
    9.4281   -4.5741    0.0000 H   0  0  0  0  0  0  0  0  0  0  0  0
   14.1462   -4.5601    0.0000 H   0  0  0  0  0  0  0  0  0  0  0  0
   14.3362   -5.9631    0.0000 H   0  0  0  0  0  0  0  0  0  0  0  0
    9.4281   -6.8141    0.0000 H   0  0  0  0  0  0  0  0  0  0  0  0
    8.0252   -0.3841    0.0000 H   0  0  0  0  0  0  0  0  0  0  0  0
   11.9063   -6.2922    0.0000 H   0  0  0  0  0  0  0  0  0  0  0  0
   14.1463   -6.2921    0.0000 H   0  0  0  0  0  0  0  0  0  0  0  0
    8.0252   -7.0041    0.0000 H   0  0  0  0  0  0  0  0  0  0  0  0
   14.6462   -3.6941    0.0000 H   0  0  0  0  0  0  0  0  0  0  0  0
    7.4840   -4.6115    0.0000 H   0  0  0  0  0  0  0  0  0  0  0  0
    7.0855   -5.3018    0.0000 H   0  0  0  0  0  0  0  0  0  0  0  0
    7.1591   -5.8841    0.0000 H   0  0  0  0  0  0  0  0  0  0  0  0
   11.5513   -6.7597    0.0000 H   0  0  0  0  0  0  0  0  0  0  0  0
   11.5513   -7.5568    0.0000 H   0  0  0  0  0  0  0  0  0  0  0  0
   15.3362   -4.8892    0.0000 H   0  0  0  0  0  0  0  0  0  0  0  0
   10.2942   -7.3141    0.0000 H   0  0  0  0  0  0  0  0  0  0  0  0
   14.6462   -7.1582    0.0000 H   0  0  0  0  0  0  0  0  0  0  0  0
    8.0252   -8.0041    0.0000 H   0  0  0  0  0  0  0  0  0  0  0  0
    6.2931   -6.3841    0.0000 H   0  0  0  0  0  0  0  0  0  0  0  0
   12.2162   -8.5612    0.0000 H   0  0  0  0  0  0  0  0  0  0  0  0
  1 29  1  0  0  0  0
 37  1  1  6  0  0  0
 30  2  1  6  0  0  0
  2108  1  0  0  0  0
  3 37  1  0  0  0  0
  3 48  1  0  0  0  0
 46  4  1  1  0  0  0
 51  4  1  1  0  0  0
  5 51  1  0  0  0  0
  5 54  1  0  0  0  0
 52  6  1  6  0  0  0
  6122  1  0  0  0  0
 53  7  1  1  0  0  0
  7125  1  0  0  0  0
 55  8  1  1  0  0  0
 57  8  1  1  0  0  0
  9 56  1  0  0  0  0
  9127  1  0  0  0  0
 10 57  1  0  0  0  0
 10 60  1  0  0  0  0
 58 11  1  6  0  0  0
 63 11  1  1  0  0  0
 59 12  1  1  0  0  0
 64 12  1  1  0  0  0
 61 13  1  6  0  0  0
 13135  1  0  0  0  0
 14 63  1  0  0  0  0
 14 68  1  0  0  0  0
 15 62  1  0  0  0  0
 15140  1  0  0  0  0
 16 64  1  0  0  0  0
 16 71  1  0  0  0  0
 65 17  1  6  0  0  0
 17144  1  0  0  0  0
 66 18  1  1  0  0  0
 18150  1  0  0  0  0
 67 19  1  6  0  0  0
 19151  1  0  0  0  0
 69 20  1  6  0  0  0
 20152  1  0  0  0  0
 70 21  1  1  0  0  0
 21153  1  0  0  0  0
 72 22  1  6  0  0  0
 22154  1  0  0  0  0
 23 73  1  0  0  0  0
 23155  1  0  0  0  0
 24 25  1  0  0  0  0
 24 26  1  0  0  0  0
 24 32  1  0  0  0  0
 24 39  1  1  0  0  0
 25 27  1  0  0  0  0
 25 30  1  0  0  0  0
 25 74  1  6  0  0  0
 26 29  1  0  0  0  0
 26 34  1  0  0  0  0
 26 75  1  6  0  0  0
 27 28  1  0  0  0  0
 27 36  1  0  0  0  0
 27 76  1  1  0  0  0
 28 31  1  0  0  0  0
 28 33  1  0  0  0  0
 28 77  1  6  0  0  0
 29 30  1  0  0  0  0
 29 78  1  6  0  0  0
 30 79  1  0  0  0  0
 31 35  1  0  0  0  0
 31 40  1  0  0  0  0
 31 42  1  1  0  0  0
 32 33  1  0  0  0  0
 32 80  1  0  0  0  0
 32 81  1  0  0  0  0
 33 82  1  0  0  0  0
 33 83  1  0  0  0  0
 34 37  1  0  0  0  0
 34 44  1  6  0  0  0
 34 84  1  0  0  0  0
 35 38  1  0  0  0  0
 35 41  1  0  0  0  0
 35 85  1  6  0  0  0
 36 38  1  0  0  0  0
 36 86  1  0  0  0  0
 36 87  1  0  0  0  0
 37 45  1  0  0  0  0
 38 88  1  0  0  0  0
 38 89  1  0  0  0  0
 39 90  1  0  0  0  0
 39 91  1  0  0  0  0
 39 92  1  0  0  0  0
 40 43  1  0  0  0  0
 40 93  1  0  0  0  0
 40 94  1  0  0  0  0
 41 46  1  0  0  0  0
 41 95  1  0  0  0  0
 41 96  1  0  0  0  0
 42 97  1  0  0  0  0
 42 98  1  0  0  0  0
 42 99  1  0  0  0  0
 43 46  1  0  0  0  0
 43100  1  0  0  0  0
 43101  1  0  0  0  0
 44102  1  0  0  0  0
 44103  1  0  0  0  0
 44104  1  0  0  0  0
 45 47  1  0  0  0  0
 45105  1  0  0  0  0
 45106  1  0  0  0  0
 46107  1  0  0  0  0
 47 49  1  0  0  0  0
 47109  1  0  0  0  0
 47110  1  0  0  0  0
 48 49  1  0  0  0  0
 48111  1  0  0  0  0
 48112  1  0  0  0  0
 49 50  1  6  0  0  0
 49113  1  0  0  0  0
 50114  1  0  0  0  0
 50115  1  0  0  0  0
 50116  1  0  0  0  0
 51 52  1  0  0  0  0
 51117  1  0  0  0  0
 52 53  1  0  0  0  0
 52118  1  0  0  0  0
 53 55  1  0  0  0  0
 53119  1  0  0  0  0
 54 55  1  0  0  0  0
 54 56  1  1  0  0  0
 54120  1  0  0  0  0
 55121  1  0  0  0  0
 56123  1  0  0  0  0
 56124  1  0  0  0  0
 57 58  1  0  0  0  0
 57126  1  0  0  0  0
 58 59  1  0  0  0  0
 58128  1  0  0  0  0
 59 61  1  0  0  0  0
 59129  1  0  0  0  0
 60 61  1  0  0  0  0
 60 62  1  1  0  0  0
 60130  1  0  0  0  0
 61131  1  0  0  0  0
 62132  1  0  0  0  0
 62133  1  0  0  0  0
 63 65  1  0  0  0  0
 63134  1  0  0  0  0
 64 67  1  0  0  0  0
 64136  1  0  0  0  0
 65 66  1  0  0  0  0
 65137  1  0  0  0  0
 66 69  1  0  0  0  0
 66138  1  0  0  0  0
 67 70  1  0  0  0  0
 67139  1  0  0  0  0
 68 69  1  0  0  0  0
 68 73  1  1  0  0  0
 68141  1  0  0  0  0
 69142  1  0  0  0  0
 70 72  1  0  0  0  0
 70143  1  0  0  0  0
 71 72  1  0  0  0  0
 71145  1  0  0  0  0
 71146  1  0  0  0  0
 72147  1  0  0  0  0
 73148  1  0  0  0  0
 73149  1  0  0  0  0
M  END
> <PUBCHEM_COMPOUND_CID>
16083120

> <PUBCHEM_COMPOUND_CANONICALIZED>
1

> <PUBCHEM_CACTVS_COMPLEXITY>
1870

> <PUBCHEM_CACTVS_HBOND_ACCEPTOR>
23

> <PUBCHEM_CACTVS_HBOND_DONOR>
13

> <PUBCHEM_CACTVS_ROTATABLE_BOND>
11

> <PUBCHEM_CACTVS_SUBSKEYS>
AAADcfB8PgAAAAAAAAAAAAAAAAAAAaIAAAA0aNEiQAASAGDAAAAAGgAACAAADxSwgAMCCAAABgAAAAAAAAAAAAAAAAAAAAAAAAAREAIAAAAiQAAFAAAHAAHA4PwPgAAAAAAAAADAAAYAACAAAYAADCAAAA==

> <PUBCHEM_IUPAC_OPENEYE_NAME>
(2S,3R,4S,5S,6R)-2-[(2S,3R,4S,5R,6R)-2-[(2R,3R,4R,5R,6R)-4,5-dihydroxy-2-(hydroxymethyl)-6-[(1R,2S,3R,4R,5'R,6R,7S,8R,9S,12S,13S,16S,18S)-3-hydroxy-5',7,9,13-tetramethyl-spiro[5-oxapentacyclo[10.8.0.02,9.04,8.013,18]icosane-6,2'-tetrahydropyran]-16-yl]oxy-tetrahydropyran-3-yl]oxy-5-hydroxy-6-(hydroxymethyl)-4-[(2S,3R,4S,5R)-3,4,5-trihydroxytetrahydropyran-2-yl]oxy-tetrahydropyran-3-yl]oxy-6-(hydroxymethyl)tetrahydropyran-3,4,5-triol

> <PUBCHEM_IUPAC_CAS_NAME>
(2S,3R,4S,5S,6R)-2-[[(2S,3R,4S,5R,6R)-2-[[(2R,3R,4R,5R,6R)-4,5-dihydroxy-2-(hydroxymethyl)-6-[[(1R,2S,3R,4R,5'R,6R,7S,8R,9S,12S,13S,16S,18S)-3-hydroxy-5',7,9,13-tetramethyl-16-spiro[5-oxapentacyclo[10.8.0.02,9.04,8.013,18]eicosane-6,2'-oxane]yl]oxy]-3-oxanyl]oxy]-5-hydroxy-6-(hydroxymethyl)-4-[[(2S,3R,4S,5R)-3,4,5-trihydroxy-2-oxanyl]oxy]-3-oxanyl]oxy]-6-(hydroxymethyl)oxane-3,4,5-triol

> <PUBCHEM_IUPAC_NAME_MARKUP>
(2<I>S</I>,3<I>R</I>,4<I>S</I>,5<I>S</I>,6<I>R</I>)-2-[(2<I>S</I>,3<I>R</I>,4<I>S</I>,5<I>R</I>,6<I>R</I>)-2-[(2<I>R</I>,3<I>R</I>,4<I>R</I>,5<I>R</I>,6<I>R</I>)-4,5-dihydroxy-2-(hydroxymethyl)-6-[(1<I>R</I>,2<I>S</I>,3<I>R</I>,4<I>R</I>,5&apos;<I>R</I>,6<I>R</I>,7<I>S</I>,8<I>R</I>,9<I>S</I>,12<I>S</I>,13<I>S</I>,16<I>S</I>,18<I>S</I>)-3-hydroxy-5&apos;,7,9,13-tetramethylspiro[5-oxapentacyclo[10.8.0.0<SUP>2,9</SUP>.0<SUP>4,8</SUP>.0<SUP>13,18</SUP>]icosane-6,2&apos;-oxane]-16-yl]oxyoxan-3-yl]oxy-5-hydroxy-6-(hydroxymethyl)-4-[(2<I>S</I>,3<I>R</I>,4<I>S</I>,5<I>R</I>)-3,4,5-trihydroxyoxan-2-yl]oxyoxan-3-yl]oxy-6-(hydroxymethyl)oxane-3,4,5-triol

> <PUBCHEM_IUPAC_NAME>
(2S,3R,4S,5S,6R)-2-[(2S,3R,4S,5R,6R)-2-[(2R,3R,4R,5R,6R)-4,5-dihydroxy-2-(hydroxymethyl)-6-[(1R,2S,3R,4R,5'R,6R,7S,8R,9S,12S,13S,16S,18S)-3-hydroxy-5',7,9,13-tetramethylspiro[5-oxapentacyclo[10.8.0.02,9.04,8.013,18]icosane-6,2'-oxane]-16-yl]oxyoxan-3-yl]oxy-5-hydroxy-6-(hydroxymethyl)-4-[(2S,3R,4S,5R)-3,4,5-trihydroxyoxan-2-yl]oxyoxan-3-yl]oxy-6-(hydroxymethyl)oxane-3,4,5-triol

> <PUBCHEM_IUPAC_SYSTEMATIC_NAME>
(2R,3S,4S,5R,6S)-2-(hydroxymethyl)-6-[(2S,3R,4S,5R,6R)-6-(hydroxymethyl)-2-[(2R,3R,4R,5R,6R)-2-(hydroxymethyl)-4,5-bis(oxidanyl)-6-[(1R,2S,3R,4R,5'R,6R,7S,8R,9S,12S,13S,16S,18S)-5',7,9,13-tetramethyl-3-oxidanyl-spiro[5-oxapentacyclo[10.8.0.02,9.04,8.013,18]icosane-6,2'-oxane]-16-yl]oxy-oxan-3-yl]oxy-5-oxidanyl-4-[(2S,3R,4S,5R)-3,4,5-tris(oxidanyl)oxan-2-yl]oxy-oxan-3-yl]oxy-oxane-3,4,5-triol

> <PUBCHEM_IUPAC_TRADITIONAL_NAME>
(2S,3R,4S,5S,6R)-2-[(2S,3R,4S,5R,6R)-2-[(2R,3R,4R,5R,6R)-4,5-dihydroxy-6-[(1R,2S,3R,4R,5'R,6R,7S,8R,9S,12S,13S,16S,18S)-3-hydroxy-5',7,9,13-tetramethyl-spiro[5-oxapentacyclo[10.8.0.02,9.04,8.013,18]eicosane-6,2'-tetrahydropyran]-16-yl]oxy-2-methylol-tetrahydropyran-3-yl]oxy-5-hydroxy-6-methylol-4-[(2S,3R,4S,5R)-3,4,5-trihydroxytetrahydropyran-2-yl]oxy-tetrahydropyran-3-yl]oxy-6-methylol-tetrahydropyran-3,4,5-triol

> <PUBCHEM_IUPAC_INCHI>
InChI=1S/C50H82O23/c1-19-7-12-50(65-17-19)20(2)29-41(73-50)34(58)30-23-6-5-21-13-22(8-10-48(21,3)24(23)9-11-49(29,30)4)66-45-39(63)36(60)40(28(16-53)69-45)70-47-43(72-46-38(62)35(59)32(56)26(14-51)67-46)42(33(57)27(15-52)68-47)71-44-37(61)31(55)25(54)18-64-44/h19-47,51-63H,5-18H2,1-4H3/t19-,20+,21+,22+,23-,24+,25-,26-,27-,28-,29+,30-,31+,32-,33-,34-,35+,36-,37-,38-,39-,40+,41-,42+,43-,44+,45-,46+,47+,48+,49-,50-/m1/s1

> <PUBCHEM_IUPAC_INCHIKEY>
HVSIYDVSJUTGKS-BWKOVPGSSA-N

> <PUBCHEM_XLOGP3_AA>
-1.3

> <PUBCHEM_EXACT_MASS>
1050.524689

> <PUBCHEM_MOLECULAR_FORMULA>
C50H82O23

> <PUBCHEM_MOLECULAR_WEIGHT>
1051.2

> <PUBCHEM_OPENEYE_CAN_SMILES>
CC1CCC2(C(C3C(O2)C(C4C3(CCC5C4CCC6C5(CCC(C6)OC7C(C(C(C(O7)CO)OC8C(C(C(C(O8)CO)O)OC9C(C(C(CO9)O)O)O)OC2C(C(C(C(O2)CO)O)O)O)O)O)C)C)O)C)OC1

> <PUBCHEM_OPENEYE_ISO_SMILES>
C[C@@H]1CC[C@@]2([C@H]([C@H]3[C@@H](O2)[C@@H]([C@@H]4[C@@]3(CC[C@H]5[C@H]4CC[C@@H]6[C@@]5(CC[C@@H](C6)O[C@H]7[C@@H]([C@H]([C@H]([C@H](O7)CO)O[C@H]8[C@@H]([C@H]([C@@H]([C@H](O8)CO)O)O[C@H]9[C@@H]([C@H]([C@@H](CO9)O)O)O)O[C@H]2[C@@H]([C@H]([C@@H]([C@H](O2)CO)O)O)O)O)O)C)C)O)C)OC1

> <PUBCHEM_CACTVS_TPSA>
355

> <PUBCHEM_MONOISOTOPIC_WEIGHT>
1050.524689

> <PUBCHEM_TOTAL_CHARGE>
0

> <PUBCHEM_HEAVY_ATOM_COUNT>
73

> <PUBCHEM_ATOM_DEF_STEREO_COUNT>
32

> <PUBCHEM_ATOM_UDEF_STEREO_COUNT>
0

> <PUBCHEM_BOND_DEF_STEREO_COUNT>
0

> <PUBCHEM_BOND_UDEF_STEREO_COUNT>
0

> <PUBCHEM_ISOTOPIC_ATOM_COUNT>
0

> <PUBCHEM_COMPONENT_COUNT>
1

> <PUBCHEM_CACTVS_TAUTO_COUNT>
-1

> <PUBCHEM_COORDINATE_TYPE>
1
5
255

> <PUBCHEM_BONDANNOTATIONS>
37  1  6
58  11  6
63  11  5
59  12  5
64  12  5
61  13  6
65  17  6
66  18  5
67  19  6
30  2  6
69  20  6
70  21  5
72  22  6
24  39  5
25  74  6
26  75  6
27  76  5
28  77  6
29  78  6
31  42  5
34  44  6
35  85  6
46  4  5
51  4  5
49  50  6
54  56  5
52  6  6
60  62  5
68  73  5
53  7  5
55  8  5
57  8  5

$$$$
