16083118
  -OEChem-09052010272D

159168  0     1  0  0  0  0  0999 V2000
    5.5982    7.2126    0.0000 O   0  0  0  0  0  0  0  0  0  0  0  0
    7.9903    7.2031    0.0000 O   0  0  0  0  0  0  0  0  0  0  0  0
    3.9370    6.1250    0.0000 O   0  0  0  0  0  0  0  0  0  0  0  0
   12.0262    1.8581    0.0000 O   0  0  0  0  0  0  0  0  0  0  0  0
    5.4440    8.2996    0.0000 O   0  0  0  0  0  0  0  0  0  0  0  0
    2.2150    5.9388    0.0000 O   0  0  0  0  0  0  0  0  0  0  0  0
   11.1602    0.3581    0.0000 O   0  0  0  0  0  0  0  0  0  0  0  0
   13.7583    0.8581    0.0000 O   0  0  0  0  0  0  0  0  0  0  0  0
   13.7583   -1.1419    0.0000 O   0  0  0  0  0  0  0  0  0  0  0  0
   12.0262   -2.1419    0.0000 O   0  0  0  0  0  0  0  0  0  0  0  0
    9.4281   -0.6419    0.0000 O   0  0  0  0  0  0  0  0  0  0  0  0
   10.2942   -2.1419    0.0000 O   0  0  0  0  0  0  0  0  0  0  0  0
   12.0262   -4.1419    0.0000 O   0  0  0  0  0  0  0  0  0  0  0  0
   10.2942   -5.1419    0.0000 O   0  0  0  0  0  0  0  0  0  0  0  0
    8.5621   -4.1419    0.0000 O   0  0  0  0  0  0  0  0  0  0  0  0
   12.0262   -5.8740    0.0000 O   0  0  0  0  0  0  0  0  0  0  0  0
    8.5621   -1.1419    0.0000 O   0  0  0  0  0  0  0  0  0  0  0  0
    8.5621   -5.1419    0.0000 O   0  0  0  0  0  0  0  0  0  0  0  0
   14.0262   -4.1419    0.0000 O   0  0  0  0  0  0  0  0  0  0  0  0
   10.2942   -7.1419    0.0000 O   0  0  0  0  0  0  0  0  0  0  0  0
   15.0262   -5.8740    0.0000 O   0  0  0  0  0  0  0  0  0  0  0  0
   14.0263   -7.6060    0.0000 O   0  0  0  0  0  0  0  0  0  0  0  0
    8.5621   -8.1419    0.0000 O   0  0  0  0  0  0  0  0  0  0  0  0
    6.8300   -7.1419    0.0000 O   0  0  0  0  0  0  0  0  0  0  0  0
   12.0263   -8.6060    0.0000 O   0  0  0  0  0  0  0  0  0  0  0  0
    6.8300   -4.1419    0.0000 O   0  0  0  0  0  0  0  0  0  0  0  0
    6.6742    4.9819    0.0000 C   0  0  1  0  0  0  0  0  0  0  0  0
    7.5383    5.4852    0.0000 C   0  0  2  0  0  0  0  0  0  0  0  0
    8.4062    4.9886    0.0000 C   0  0  1  0  0  0  0  0  0  0  0  0
    5.9346    5.6461    0.0000 C   0  0  2  0  0  0  0  0  0  0  0  0
    8.4101    3.9886    0.0000 C   0  0  1  0  0  0  0  0  0  0  0  0
    6.3362    6.5555    0.0000 C   0  0  2  0  0  0  0  0  0  0  0  0
    7.3253    6.4562    0.0000 C   0  0  2  0  0  0  0  0  0  0  0  0
    9.3061    3.4574    0.0000 C   0  0  2  0  0  0  0  0  0  0  0  0
    6.6780    3.9819    0.0000 C   0  0  0  0  0  0  0  0  0  0  0  0
    7.5460    3.4852    0.0000 C   0  0  0  0  0  0  0  0  0  0  0  0
    4.9518    5.7490    0.0000 C   0  0  1  0  0  0  0  0  0  0  0  0
   10.2102    3.9747    0.0000 C   0  0  1  0  0  0  0  0  0  0  0  0
    9.2981    5.5267    0.0000 C   0  0  0  0  0  0  0  0  0  0  0  0
    4.7443    6.7152    0.0000 C   0  0  1  0  0  0  0  0  0  0  0  0
   10.2061    5.0163    0.0000 C   0  0  0  0  0  0  0  0  0  0  0  0
    5.8101    4.4785    0.0000 C   0  0  0  0  0  0  0  0  0  0  0  0
    9.2852    2.3726    0.0000 C   0  0  0  0  0  0  0  0  0  0  0  0
   11.1560    3.4431    0.0000 C   0  0  0  0  0  0  0  0  0  0  0  0
    8.4381    2.9607    0.0000 C   0  0  0  0  0  0  0  0  0  0  0  0
   10.2185    1.8192    0.0000 C   0  0  0  0  0  0  0  0  0  0  0  0
    4.2836    5.0050    0.0000 C   0  0  0  0  0  0  0  0  0  0  0  0
    4.6368    7.7094    0.0000 C   0  0  2  0  0  0  0  0  0  0  0  0
   11.1602    2.3581    0.0000 C   0  0  2  0  0  0  0  0  0  0  0  0
    3.7220    8.1134    0.0000 C   0  0  0  0  0  0  0  0  0  0  0  0
    2.9148    7.5232    0.0000 C   0  0  2  0  0  0  0  0  0  0  0  0
    3.0223    6.5290    0.0000 C   0  0  0  0  0  0  0  0  0  0  0  0
   12.0262    0.8581    0.0000 C   0  0  2  0  0  0  0  0  0  0  0  0
    2.0000    7.9272    0.0000 C   0  0  0  0  0  0  0  0  0  0  0  0
   12.8922    0.3581    0.0000 C   0  0  1  0  0  0  0  0  0  0  0  0
   12.8922   -0.6419    0.0000 C   0  0  2  0  0  0  0  0  0  0  0  0
   11.1602   -0.6419    0.0000 C   0  0  1  0  0  0  0  0  0  0  0  0
   12.0262   -1.1419    0.0000 C   0  0  2  0  0  0  0  0  0  0  0  0
   10.2942   -1.1419    0.0000 C   0  0  0  0  0  0  0  0  0  0  0  0
   11.1602   -2.6419    0.0000 C   0  0  2  0  0  0  0  0  0  0  0  0
   11.1602   -3.6419    0.0000 C   0  0  1  0  0  0  0  0  0  0  0  0
   10.2942   -4.1419    0.0000 C   0  0  2  0  0  0  0  0  0  0  0  0
    9.4281   -2.6419    0.0000 C   0  0  1  0  0  0  0  0  0  0  0  0
    9.4281   -3.6419    0.0000 C   0  0  1  0  0  0  0  0  0  0  0  0
    8.5621   -2.1419    0.0000 C   0  0  0  0  0  0  0  0  0  0  0  0
   12.5263   -5.0079    0.0000 C   0  0  2  0  0  0  0  0  0  0  0  0
    9.4281   -5.6419    0.0000 C   0  0  2  0  0  0  0  0  0  0  0  0
   13.5262   -5.0079    0.0000 C   0  0  1  0  0  0  0  0  0  0  0  0
    9.4281   -6.6419    0.0000 C   0  0  1  0  0  0  0  0  0  0  0  0
   14.0262   -5.8740    0.0000 C   0  0  2  0  0  0  0  0  0  0  0  0
   12.5263   -6.7400    0.0000 C   0  0  1  0  0  0  0  0  0  0  0  0
   13.5263   -6.7399    0.0000 C   0  0  1  0  0  0  0  0  0  0  0  0
    8.5621   -7.1419    0.0000 C   0  0  2  0  0  0  0  0  0  0  0  0
    7.6961   -5.6419    0.0000 C   0  0  1  0  0  0  0  0  0  0  0  0
    7.6961   -6.6419    0.0000 C   0  0  1  0  0  0  0  0  0  0  0  0
   12.0262   -7.6060    0.0000 C   0  0  0  0  0  0  0  0  0  0  0  0
    6.8300   -5.1419    0.0000 C   0  0  0  0  0  0  0  0  0  0  0  0
    8.2234    5.9884    0.0000 H   0  0  0  0  0  0  0  0  0  0  0  0
    8.3964    5.8385    0.0000 H   0  0  0  0  0  0  0  0  0  0  0  0
    5.5895    4.8693    0.0000 H   0  0  0  0  0  0  0  0  0  0  0  0
    9.1478    4.4107    0.0000 H   0  0  0  0  0  0  0  0  0  0  0  0
    6.6779    7.3337    0.0000 H   0  0  0  0  0  0  0  0  0  0  0  0
    7.1002    7.0339    0.0000 H   0  0  0  0  0  0  0  0  0  0  0  0
    6.0670    4.0872    0.0000 H   0  0  0  0  0  0  0  0  0  0  0  0
    6.4682    3.3985    0.0000 H   0  0  0  0  0  0  0  0  0  0  0  0
    7.1493    3.0088    0.0000 H   0  0  0  0  0  0  0  0  0  0  0  0
    7.9463    3.0118    0.0000 H   0  0  0  0  0  0  0  0  0  0  0  0
    4.3526    5.9085    0.0000 H   0  0  0  0  0  0  0  0  0  0  0  0
   10.9430    4.4053    0.0000 H   0  0  0  0  0  0  0  0  0  0  0  0
    9.6899    6.0072    0.0000 H   0  0  0  0  0  0  0  0  0  0  0  0
    8.8917    5.9949    0.0000 H   0  0  0  0  0  0  0  0  0  0  0  0
   10.8174    4.9126    0.0000 H   0  0  0  0  0  0  0  0  0  0  0  0
   10.4129    5.6008    0.0000 H   0  0  0  0  0  0  0  0  0  0  0  0
    5.4980    5.0143    0.0000 H   0  0  0  0  0  0  0  0  0  0  0  0
    5.2744    4.1665    0.0000 H   0  0  0  0  0  0  0  0  0  0  0  0
    6.1222    3.9428    0.0000 H   0  0  0  0  0  0  0  0  0  0  0  0
    8.6765    2.4904    0.0000 H   0  0  0  0  0  0  0  0  0  0  0  0
    9.0649    1.7930    0.0000 H   0  0  0  0  0  0  0  0  0  0  0  0
   11.7673    3.3394    0.0000 H   0  0  0  0  0  0  0  0  0  0  0  0
   11.3628    4.0276    0.0000 H   0  0  0  0  0  0  0  0  0  0  0  0
    8.1302    3.4988    0.0000 H   0  0  0  0  0  0  0  0  0  0  0  0
    7.9000    2.6528    0.0000 H   0  0  0  0  0  0  0  0  0  0  0  0
    8.7460    2.4226    0.0000 H   0  0  0  0  0  0  0  0  0  0  0  0
    9.8157    1.3479    0.0000 H   0  0  0  0  0  0  0  0  0  0  0  0
   10.6139    1.3417    0.0000 H   0  0  0  0  0  0  0  0  0  0  0  0
    3.8223    5.4193    0.0000 H   0  0  0  0  0  0  0  0  0  0  0  0
    3.8693    4.5438    0.0000 H   0  0  0  0  0  0  0  0  0  0  0  0
    4.7449    4.5908    0.0000 H   0  0  0  0  0  0  0  0  0  0  0  0
    5.2039    7.4589    0.0000 H   0  0  0  0  0  0  0  0  0  0  0  0
   11.1590    1.7381    0.0000 H   0  0  0  0  0  0  0  0  0  0  0  0
    7.7954    7.7917    0.0000 H   0  0  0  0  0  0  0  0  0  0  0  0
    4.0672    8.6284    0.0000 H   0  0  0  0  0  0  0  0  0  0  0  0
    3.2747    8.5427    0.0000 H   0  0  0  0  0  0  0  0  0  0  0  0
    2.4143    7.1573    0.0000 H   0  0  0  0  0  0  0  0  0  0  0  0
    5.3774    8.9160    0.0000 H   0  0  0  0  0  0  0  0  0  0  0  0
   12.5631    1.1681    0.0000 H   0  0  0  0  0  0  0  0  0  0  0  0
    2.2505    8.4943    0.0000 H   0  0  0  0  0  0  0  0  0  0  0  0
    1.4328    8.1777    0.0000 H   0  0  0  0  0  0  0  0  0  0  0  0
    1.7495    7.3600    0.0000 H   0  0  0  0  0  0  0  0  0  0  0  0
   13.4292    0.0481    0.0000 H   0  0  0  0  0  0  0  0  0  0  0  0
   13.4292   -0.3319    0.0000 H   0  0  0  0  0  0  0  0  0  0  0  0
   10.6232   -0.3319    0.0000 H   0  0  0  0  0  0  0  0  0  0  0  0
   12.5631   -1.4519    0.0000 H   0  0  0  0  0  0  0  0  0  0  0  0
   13.7583    1.4781    0.0000 H   0  0  0  0  0  0  0  0  0  0  0  0
    9.8956   -1.6168    0.0000 H   0  0  0  0  0  0  0  0  0  0  0  0
   10.6927   -1.6168    0.0000 H   0  0  0  0  0  0  0  0  0  0  0  0
   14.2952   -0.8319    0.0000 H   0  0  0  0  0  0  0  0  0  0  0  0
   11.1602   -2.0219    0.0000 H   0  0  0  0  0  0  0  0  0  0  0  0
    9.4281   -0.0219    0.0000 H   0  0  0  0  0  0  0  0  0  0  0  0
   11.1602   -4.2619    0.0000 H   0  0  0  0  0  0  0  0  0  0  0  0
    9.7572   -4.4519    0.0000 H   0  0  0  0  0  0  0  0  0  0  0  0
    9.4281   -2.0219    0.0000 H   0  0  0  0  0  0  0  0  0  0  0  0
    8.8912   -3.3319    0.0000 H   0  0  0  0  0  0  0  0  0  0  0  0
    7.9515   -2.0342    0.0000 H   0  0  0  0  0  0  0  0  0  0  0  0
    8.3500   -2.7245    0.0000 H   0  0  0  0  0  0  0  0  0  0  0  0
   12.8363   -4.4709    0.0000 H   0  0  0  0  0  0  0  0  0  0  0  0
    8.0252   -3.8319    0.0000 H   0  0  0  0  0  0  0  0  0  0  0  0
    9.4281   -5.0219    0.0000 H   0  0  0  0  0  0  0  0  0  0  0  0
   14.1462   -5.0079    0.0000 H   0  0  0  0  0  0  0  0  0  0  0  0
    9.4281   -7.2619    0.0000 H   0  0  0  0  0  0  0  0  0  0  0  0
   14.3362   -6.4109    0.0000 H   0  0  0  0  0  0  0  0  0  0  0  0
    8.0252   -0.8319    0.0000 H   0  0  0  0  0  0  0  0  0  0  0  0
   11.9063   -6.7400    0.0000 H   0  0  0  0  0  0  0  0  0  0  0  0
   14.1463   -6.7399    0.0000 H   0  0  0  0  0  0  0  0  0  0  0  0
    8.0252   -7.4519    0.0000 H   0  0  0  0  0  0  0  0  0  0  0  0
    7.6961   -5.0219    0.0000 H   0  0  0  0  0  0  0  0  0  0  0  0
    7.6961   -7.2619    0.0000 H   0  0  0  0  0  0  0  0  0  0  0  0
   14.6462   -4.1419    0.0000 H   0  0  0  0  0  0  0  0  0  0  0  0
   11.6277   -7.1311    0.0000 H   0  0  0  0  0  0  0  0  0  0  0  0
   12.6251   -7.7664    0.0000 H   0  0  0  0  0  0  0  0  0  0  0  0
   10.2942   -7.7619    0.0000 H   0  0  0  0  0  0  0  0  0  0  0  0
   15.3362   -5.3370    0.0000 H   0  0  0  0  0  0  0  0  0  0  0  0
    6.2195   -5.0342    0.0000 H   0  0  0  0  0  0  0  0  0  0  0  0
    6.6180   -5.7245    0.0000 H   0  0  0  0  0  0  0  0  0  0  0  0
   14.6462   -7.6060    0.0000 H   0  0  0  0  0  0  0  0  0  0  0  0
    8.0252   -8.4519    0.0000 H   0  0  0  0  0  0  0  0  0  0  0  0
    6.2931   -6.8319    0.0000 H   0  0  0  0  0  0  0  0  0  0  0  0
   12.5632   -8.9160    0.0000 H   0  0  0  0  0  0  0  0  0  0  0  0
    6.2931   -3.8319    0.0000 H   0  0  0  0  0  0  0  0  0  0  0  0
  1 32  1  0  0  0  0
 40  1  1  6  0  0  0
 33  2  1  6  0  0  0
  2111  1  0  0  0  0
  3 40  1  0  0  0  0
  3 52  1  0  0  0  0
 49  4  1  1  0  0  0
 53  4  1  1  0  0  0
 48  5  1  6  0  0  0
  5115  1  0  0  0  0
  6 52  2  0  0  0  0
  7 53  1  0  0  0  0
  7 57  1  0  0  0  0
 55  8  1  6  0  0  0
  8124  1  0  0  0  0
 56  9  1  1  0  0  0
  9127  1  0  0  0  0
 58 10  1  1  0  0  0
 60 10  1  1  0  0  0
 11 59  1  0  0  0  0
 11129  1  0  0  0  0
 12 60  1  0  0  0  0
 12 63  1  0  0  0  0
 61 13  1  6  0  0  0
 66 13  1  1  0  0  0
 62 14  1  1  0  0  0
 67 14  1  1  0  0  0
 64 15  1  6  0  0  0
 15137  1  0  0  0  0
 16 66  1  0  0  0  0
 16 71  1  0  0  0  0
 17 65  1  0  0  0  0
 17142  1  0  0  0  0
 18 67  1  0  0  0  0
 18 74  1  0  0  0  0
 68 19  1  6  0  0  0
 19148  1  0  0  0  0
 69 20  1  6  0  0  0
 20151  1  0  0  0  0
 70 21  1  1  0  0  0
 21152  1  0  0  0  0
 72 22  1  6  0  0  0
 22155  1  0  0  0  0
 73 23  1  1  0  0  0
 23156  1  0  0  0  0
 75 24  1  6  0  0  0
 24157  1  0  0  0  0
 25 76  1  0  0  0  0
 25158  1  0  0  0  0
 26 77  1  0  0  0  0
 26159  1  0  0  0  0
 27 28  1  0  0  0  0
 27 30  1  0  0  0  0
 27 35  1  0  0  0  0
 27 42  1  1  0  0  0
 28 29  1  0  0  0  0
 28 33  1  0  0  0  0
 28 78  1  6  0  0  0
 29 31  1  0  0  0  0
 29 39  1  0  0  0  0
 29 79  1  1  0  0  0
 30 32  1  0  0  0  0
 30 37  1  0  0  0  0
 30 80  1  6  0  0  0
 31 34  1  0  0  0  0
 31 36  1  0  0  0  0
 31 81  1  6  0  0  0
 32 33  1  0  0  0  0
 32 82  1  6  0  0  0
 33 83  1  0  0  0  0
 34 38  1  0  0  0  0
 34 43  1  0  0  0  0
 34 45  1  1  0  0  0
 35 36  1  0  0  0  0
 35 84  1  0  0  0  0
 35 85  1  0  0  0  0
 36 86  1  0  0  0  0
 36 87  1  0  0  0  0
 37 40  1  0  0  0  0
 37 47  1  6  0  0  0
 37 88  1  0  0  0  0
 38 41  1  0  0  0  0
 38 44  1  0  0  0  0
 38 89  1  6  0  0  0
 39 41  1  0  0  0  0
 39 90  1  0  0  0  0
 39 91  1  0  0  0  0
 40 48  1  0  0  0  0
 41 92  1  0  0  0  0
 41 93  1  0  0  0  0
 42 94  1  0  0  0  0
 42 95  1  0  0  0  0
 42 96  1  0  0  0  0
 43 46  1  0  0  0  0
 43 97  1  0  0  0  0
 43 98  1  0  0  0  0
 44 49  1  0  0  0  0
 44 99  1  0  0  0  0
 44100  1  0  0  0  0
 45101  1  0  0  0  0
 45102  1  0  0  0  0
 45103  1  0  0  0  0
 46 49  1  0  0  0  0
 46104  1  0  0  0  0
 46105  1  0  0  0  0
 47106  1  0  0  0  0
 47107  1  0  0  0  0
 47108  1  0  0  0  0
 48 50  1  0  0  0  0
 48109  1  0  0  0  0
 49110  1  0  0  0  0
 50 51  1  0  0  0  0
 50112  1  0  0  0  0
 50113  1  0  0  0  0
 51 52  1  0  0  0  0
 51 54  1  6  0  0  0
 51114  1  0  0  0  0
 53 55  1  0  0  0  0
 53116  1  0  0  0  0
 54117  1  0  0  0  0
 54118  1  0  0  0  0
 54119  1  0  0  0  0
 55 56  1  0  0  0  0
 55120  1  0  0  0  0
 56 58  1  0  0  0  0
 56121  1  0  0  0  0
 57 58  1  0  0  0  0
 57 59  1  1  0  0  0
 57122  1  0  0  0  0
 58123  1  0  0  0  0
 59125  1  0  0  0  0
 59126  1  0  0  0  0
 60 61  1  0  0  0  0
 60128  1  0  0  0  0
 61 62  1  0  0  0  0
 61130  1  0  0  0  0
 62 64  1  0  0  0  0
 62131  1  0  0  0  0
 63 64  1  0  0  0  0
 63 65  1  1  0  0  0
 63132  1  0  0  0  0
 64133  1  0  0  0  0
 65134  1  0  0  0  0
 65135  1  0  0  0  0
 66 68  1  0  0  0  0
 66136  1  0  0  0  0
 67 69  1  0  0  0  0
 67138  1  0  0  0  0
 68 70  1  0  0  0  0
 68139  1  0  0  0  0
 69 73  1  0  0  0  0
 69140  1  0  0  0  0
 70 72  1  0  0  0  0
 70141  1  0  0  0  0
 71 72  1  0  0  0  0
 71 76  1  1  0  0  0
 71143  1  0  0  0  0
 72144  1  0  0  0  0
 73 75  1  0  0  0  0
 73145  1  0  0  0  0
 74 75  1  0  0  0  0
 74 77  1  1  0  0  0
 74146  1  0  0  0  0
 75147  1  0  0  0  0
 76149  1  0  0  0  0
 76150  1  0  0  0  0
 77153  1  0  0  0  0
 77154  1  0  0  0  0
M  END
> <PUBCHEM_COMPOUND_CID>
16083118

> <PUBCHEM_COMPOUND_CANONICALIZED>
1

> <PUBCHEM_CACTVS_COMPLEXITY>
2050

> <PUBCHEM_CACTVS_HBOND_ACCEPTOR>
26

> <PUBCHEM_CACTVS_HBOND_DONOR>
15

> <PUBCHEM_CACTVS_ROTATABLE_BOND>
12

> <PUBCHEM_CACTVS_SUBSKEYS>
AAADcfB8PgAAAAAAAAAAAAAAAAAAAaIAAAA0aNEiQAASAGDAAAAAGgAACAAADxSwgAMCCAAABgAIAACQCAAAAAAAAAAAAAEAAAAREBIAAAAiQAAFAAAHAAHK7PzPgAAAAAAAAADAAAYAACAAAYAADCAAAA==

> <PUBCHEM_IUPAC_OPENEYE_NAME>
(1R,2S,3R,3'R,4R,5'S,6R,7S,8R,9S,12S,13S,16S,18S)-16-[(2R,3R,4R,5R,6R)-3,4-dihydroxy-5-[(2S,3R,4S,5R,6R)-5-hydroxy-6-(hydroxymethyl)-3,4-bis[[(2S,3R,4S,5S,6R)-3,4,5-trihydroxy-6-(hydroxymethyl)tetrahydropyran-2-yl]oxy]tetrahydropyran-2-yl]oxy-6-(hydroxymethyl)tetrahydropyran-2-yl]oxy-3,5'-dihydroxy-3',7,9,13-tetramethyl-spiro[5-oxapentacyclo[10.8.0.02,9.04,8.013,18]icosane-6,6'-tetrahydropyran]-2'-one

> <PUBCHEM_IUPAC_CAS_NAME>
(1R,2S,3R,3'R,4R,5'S,6R,7S,8R,9S,12S,13S,16S,18S)-16-[[(2R,3R,4R,5R,6R)-3,4-dihydroxy-5-[[(2S,3R,4S,5R,6R)-5-hydroxy-6-(hydroxymethyl)-3,4-bis[[(2S,3R,4S,5S,6R)-3,4,5-trihydroxy-6-(hydroxymethyl)-2-oxanyl]oxy]-2-oxanyl]oxy]-6-(hydroxymethyl)-2-oxanyl]oxy]-3,5'-dihydroxy-3',7,9,13-tetramethyl-2'-spiro[5-oxapentacyclo[10.8.0.02,9.04,8.013,18]eicosane-6,6'-oxane]one

> <PUBCHEM_IUPAC_NAME_MARKUP>
(1<I>R</I>,2<I>S</I>,3<I>R</I>,3&apos;<I>R</I>,4<I>R</I>,5&apos;<I>S</I>,6<I>R</I>,7<I>S</I>,8<I>R</I>,9<I>S</I>,12<I>S</I>,13<I>S</I>,16<I>S</I>,18<I>S</I>)-16-[(2<I>R</I>,3<I>R</I>,4<I>R</I>,5<I>R</I>,6<I>R</I>)-3,4-dihydroxy-5-[(2<I>S</I>,3<I>R</I>,4<I>S</I>,5<I>R</I>,6<I>R</I>)-5-hydroxy-6-(hydroxymethyl)-3,4-bis[[(2<I>S</I>,3<I>R</I>,4<I>S</I>,5<I>S</I>,6<I>R</I>)-3,4,5-trihydroxy-6-(hydroxymethyl)oxan-2-yl]oxy]oxan-2-yl]oxy-6-(hydroxymethyl)oxan-2-yl]oxy-3,5&apos;-dihydroxy-3&apos;,7,9,13-tetramethylspiro[5-oxapentacyclo[10.8.0.0<SUP>2,9</SUP>.0<SUP>4,8</SUP>.0<SUP>13,18</SUP>]icosane-6,6&apos;-oxane]-2&apos;-one

> <PUBCHEM_IUPAC_NAME>
(1R,2S,3R,3'R,4R,5'S,6R,7S,8R,9S,12S,13S,16S,18S)-16-[(2R,3R,4R,5R,6R)-3,4-dihydroxy-5-[(2S,3R,4S,5R,6R)-5-hydroxy-6-(hydroxymethyl)-3,4-bis[[(2S,3R,4S,5S,6R)-3,4,5-trihydroxy-6-(hydroxymethyl)oxan-2-yl]oxy]oxan-2-yl]oxy-6-(hydroxymethyl)oxan-2-yl]oxy-3,5'-dihydroxy-3',7,9,13-tetramethylspiro[5-oxapentacyclo[10.8.0.02,9.04,8.013,18]icosane-6,6'-oxane]-2'-one

> <PUBCHEM_IUPAC_SYSTEMATIC_NAME>
(1R,2S,3R,3'R,4R,5'S,6R,7S,8R,9S,12S,13S,16S,18S)-16-[(2R,3R,4R,5R,6R)-6-(hydroxymethyl)-5-[(2S,3R,4S,5R,6R)-6-(hydroxymethyl)-3,4-bis[[(2S,3R,4S,5S,6R)-6-(hydroxymethyl)-3,4,5-tris(oxidanyl)oxan-2-yl]oxy]-5-oxidanyl-oxan-2-yl]oxy-3,4-bis(oxidanyl)oxan-2-yl]oxy-3',7,9,13-tetramethyl-3,5'-bis(oxidanyl)spiro[5-oxapentacyclo[10.8.0.02,9.04,8.013,18]icosane-6,6'-oxane]-2'-one

> <PUBCHEM_IUPAC_TRADITIONAL_NAME>
(1R,2S,3R,3'R,4R,5'S,6R,7S,8R,9S,12S,13S,16S,18S)-16-[(2R,3R,4R,5R,6R)-3,4-dihydroxy-5-[(2S,3R,4S,5R,6R)-5-hydroxy-6-methylol-3,4-bis[[(2S,3R,4S,5S,6R)-3,4,5-trihydroxy-6-methylol-tetrahydropyran-2-yl]oxy]tetrahydropyran-2-yl]oxy-6-methylol-tetrahydropyran-2-yl]oxy-3,5'-dihydroxy-3',7,9,13-tetramethyl-spiro[5-oxapentacyclo[10.8.0.02,9.04,8.013,18]eicosane-6,6'-tetrahydropyran]-2'-one

> <PUBCHEM_IUPAC_INCHI>
InChI=1S/C51H82O26/c1-17-11-27(56)51(77-44(17)67)18(2)28-41(76-51)33(60)29-21-6-5-19-12-20(7-9-49(19,3)22(21)8-10-50(28,29)4)68-45-39(66)36(63)40(26(16-55)72-45)73-48-43(75-47-38(65)35(62)31(58)24(14-53)70-47)42(32(59)25(15-54)71-48)74-46-37(64)34(61)30(57)23(13-52)69-46/h17-43,45-48,52-66H,5-16H2,1-4H3/t17-,18+,19+,20+,21-,22+,23-,24-,25-,26-,27+,28+,29-,30-,31-,32-,33-,34+,35+,36-,37-,38-,39-,40+,41-,42+,43-,45-,46+,47+,48+,49+,50-,51-/m1/s1

> <PUBCHEM_IUPAC_INCHIKEY>
CEOFBCAKZKYATO-CXLACSAPSA-N

> <PUBCHEM_XLOGP3_AA>
-2.6

> <PUBCHEM_EXACT_MASS>
1110.509433

> <PUBCHEM_MOLECULAR_FORMULA>
C51H82O26

> <PUBCHEM_MOLECULAR_WEIGHT>
1111.2

> <PUBCHEM_OPENEYE_CAN_SMILES>
CC1CC(C2(C(C3C(O2)C(C4C3(CCC5C4CCC6C5(CCC(C6)OC7C(C(C(C(O7)CO)OC8C(C(C(C(O8)CO)O)OC9C(C(C(C(O9)CO)O)O)O)OC2C(C(C(C(O2)CO)O)O)O)O)O)C)C)O)C)OC1=O)O

> <PUBCHEM_OPENEYE_ISO_SMILES>
C[C@@H]1C[C@@H]([C@@]2([C@H]([C@H]3[C@@H](O2)[C@@H]([C@@H]4[C@@]3(CC[C@H]5[C@H]4CC[C@@H]6[C@@]5(CC[C@@H](C6)O[C@H]7[C@@H]([C@H]([C@H]([C@H](O7)CO)O[C@H]8[C@@H]([C@H]([C@@H]([C@H](O8)CO)O)O[C@H]9[C@@H]([C@H]([C@@H]([C@H](O9)CO)O)O)O)O[C@H]2[C@@H]([C@H]([C@@H]([C@H](O2)CO)O)O)O)O)O)C)C)O)C)OC1=O)O

> <PUBCHEM_CACTVS_TPSA>
413

> <PUBCHEM_MONOISOTOPIC_WEIGHT>
1110.509433

> <PUBCHEM_TOTAL_CHARGE>
0

> <PUBCHEM_HEAVY_ATOM_COUNT>
77

> <PUBCHEM_ATOM_DEF_STEREO_COUNT>
34

> <PUBCHEM_ATOM_UDEF_STEREO_COUNT>
0

> <PUBCHEM_BOND_DEF_STEREO_COUNT>
0

> <PUBCHEM_BOND_UDEF_STEREO_COUNT>
0

> <PUBCHEM_ISOTOPIC_ATOM_COUNT>
0

> <PUBCHEM_COMPONENT_COUNT>
1

> <PUBCHEM_CACTVS_TAUTO_COUNT>
-1

> <PUBCHEM_COORDINATE_TYPE>
1
5
255

> <PUBCHEM_BONDANNOTATIONS>
40  1  6
58  10  5
60  10  5
61  13  6
66  13  5
62  14  5
67  14  5
64  15  6
68  19  6
33  2  6
69  20  6
70  21  5
72  22  6
73  23  5
75  24  6
27  42  5
28  78  6
29  79  5
30  80  6
31  81  6
32  82  6
34  45  5
37  47  6
38  89  6
49  4  5
53  4  5
48  5  6
51  54  6
57  59  5
63  65  5
71  76  5
74  77  5
55  8  6
56  9  5

$$$$
