16083119
  -OEChem-09052010282D

171181  0     1  0  0  0  0  0999 V2000
   14.1611    6.9805    0.0000 O   0  0  0  0  0  0  0  0  0  0  0  0
   11.7690    6.9710    0.0000 O   0  0  0  0  0  0  0  0  0  0  0  0
   15.8223    5.8929    0.0000 O   0  0  0  0  0  0  0  0  0  0  0  0
    7.7331    1.6260    0.0000 O   0  0  0  0  0  0  0  0  0  0  0  0
   14.3153    8.0675    0.0000 O   0  0  0  0  0  0  0  0  0  0  0  0
   17.5443    5.7067    0.0000 O   0  0  0  0  0  0  0  0  0  0  0  0
    8.5991    0.1261    0.0000 O   0  0  0  0  0  0  0  0  0  0  0  0
    6.0010    0.6261    0.0000 O   0  0  0  0  0  0  0  0  0  0  0  0
    6.0010   -1.3740    0.0000 O   0  0  0  0  0  0  0  0  0  0  0  0
    7.7331   -2.3739    0.0000 O   0  0  0  0  0  0  0  0  0  0  0  0
    6.8671    2.1261    0.0000 O   0  0  0  0  0  0  0  0  0  0  0  0
   10.3312   -0.8739    0.0000 O   0  0  0  0  0  0  0  0  0  0  0  0
    6.0010   -2.3739    0.0000 O   0  0  0  0  0  0  0  0  0  0  0  0
    4.2690    1.6260    0.0000 O   0  0  0  0  0  0  0  0  0  0  0  0
    4.2690    3.6260    0.0000 O   0  0  0  0  0  0  0  0  0  0  0  0
    7.7331   -4.3740    0.0000 O   0  0  0  0  0  0  0  0  0  0  0  0
    6.0010    4.6260    0.0000 O   0  0  0  0  0  0  0  0  0  0  0  0
    6.0010   -5.3740    0.0000 O   0  0  0  0  0  0  0  0  0  0  0  0
    4.2690   -4.3740    0.0000 O   0  0  0  0  0  0  0  0  0  0  0  0
    8.5991   -2.8739    0.0000 O   0  0  0  0  0  0  0  0  0  0  0  0
    4.2690   -1.3740    0.0000 O   0  0  0  0  0  0  0  0  0  0  0  0
    4.2690   -5.3740    0.0000 O   0  0  0  0  0  0  0  0  0  0  0  0
    9.4651   -5.3740    0.0000 O   0  0  0  0  0  0  0  0  0  0  0  0
    6.0010   -7.3740    0.0000 O   0  0  0  0  0  0  0  0  0  0  0  0
   11.1972   -4.3740    0.0000 O   0  0  0  0  0  0  0  0  0  0  0  0
   11.1972   -2.3739    0.0000 O   0  0  0  0  0  0  0  0  0  0  0  0
    4.2690   -8.3740    0.0000 O   0  0  0  0  0  0  0  0  0  0  0  0
    2.5369   -7.3740    0.0000 O   0  0  0  0  0  0  0  0  0  0  0  0
   13.0851    4.7498    0.0000 C   0  0  1  0  0  0  0  0  0  0  0  0
   12.2210    5.2532    0.0000 C   0  0  2  0  0  0  0  0  0  0  0  0
   11.3531    4.7565    0.0000 C   0  0  1  0  0  0  0  0  0  0  0  0
   13.8247    5.4141    0.0000 C   0  0  2  0  0  0  0  0  0  0  0  0
   11.3492    3.7565    0.0000 C   0  0  1  0  0  0  0  0  0  0  0  0
   13.4231    6.3234    0.0000 C   0  0  2  0  0  0  0  0  0  0  0  0
   12.4340    6.2242    0.0000 C   0  0  2  0  0  0  0  0  0  0  0  0
   10.4532    3.2253    0.0000 C   0  0  2  0  0  0  0  0  0  0  0  0
   13.0813    3.7498    0.0000 C   0  0  0  0  0  0  0  0  0  0  0  0
   12.2133    3.2532    0.0000 C   0  0  0  0  0  0  0  0  0  0  0  0
   14.8075    5.5170    0.0000 C   0  0  1  0  0  0  0  0  0  0  0  0
    9.5491    3.7426    0.0000 C   0  0  1  0  0  0  0  0  0  0  0  0
   10.4612    5.2946    0.0000 C   0  0  0  0  0  0  0  0  0  0  0  0
   15.0150    6.4831    0.0000 C   0  0  1  0  0  0  0  0  0  0  0  0
    9.5532    4.7843    0.0000 C   0  0  0  0  0  0  0  0  0  0  0  0
   13.9492    4.2465    0.0000 C   0  0  0  0  0  0  0  0  0  0  0  0
   10.4741    2.1405    0.0000 C   0  0  0  0  0  0  0  0  0  0  0  0
    8.6033    3.2110    0.0000 C   0  0  0  0  0  0  0  0  0  0  0  0
   11.3212    2.7286    0.0000 C   0  0  0  0  0  0  0  0  0  0  0  0
    9.5408    1.5872    0.0000 C   0  0  0  0  0  0  0  0  0  0  0  0
   15.4757    4.7730    0.0000 C   0  0  0  0  0  0  0  0  0  0  0  0
    8.5991    2.1261    0.0000 C   0  0  2  0  0  0  0  0  0  0  0  0
   15.1225    7.4773    0.0000 C   0  0  2  0  0  0  0  0  0  0  0  0
   16.0373    7.8813    0.0000 C   0  0  0  0  0  0  0  0  0  0  0  0
   16.8445    7.2911    0.0000 C   0  0  2  0  0  0  0  0  0  0  0  0
   16.7370    6.2969    0.0000 C   0  0  0  0  0  0  0  0  0  0  0  0
    7.7331    0.6261    0.0000 C   0  0  2  0  0  0  0  0  0  0  0  0
   17.7593    7.6952    0.0000 C   0  0  0  0  0  0  0  0  0  0  0  0
    6.8671    0.1261    0.0000 C   0  0  1  0  0  0  0  0  0  0  0  0
    6.8671   -0.8739    0.0000 C   0  0  2  0  0  0  0  0  0  0  0  0
    8.5991   -0.8739    0.0000 C   0  0  1  0  0  0  0  0  0  0  0  0
    7.7331   -1.3740    0.0000 C   0  0  2  0  0  0  0  0  0  0  0  0
    9.4651   -1.3740    0.0000 C   0  0  0  0  0  0  0  0  0  0  0  0
    6.0010    1.6260    0.0000 C   0  0  2  0  0  0  0  0  0  0  0  0
    5.1350    2.1261    0.0000 C   0  0  1  0  0  0  0  0  0  0  0  0
    6.8671   -2.8739    0.0000 C   0  0  2  0  0  0  0  0  0  0  0  0
    5.1350    3.1261    0.0000 C   0  0  1  0  0  0  0  0  0  0  0  0
    6.8671    3.1261    0.0000 C   0  0  2  0  0  0  0  0  0  0  0  0
    6.8671   -3.8740    0.0000 C   0  0  1  0  0  0  0  0  0  0  0  0
    6.0010    3.6260    0.0000 C   0  0  2  0  0  0  0  0  0  0  0  0
    6.0010   -4.3740    0.0000 C   0  0  2  0  0  0  0  0  0  0  0  0
    5.1350   -2.8739    0.0000 C   0  0  1  0  0  0  0  0  0  0  0  0
    5.1350   -3.8740    0.0000 C   0  0  1  0  0  0  0  0  0  0  0  0
    7.7331    3.6260    0.0000 C   0  0  0  0  0  0  0  0  0  0  0  0
    4.2690   -2.3739    0.0000 C   0  0  0  0  0  0  0  0  0  0  0  0
    8.5991   -3.8740    0.0000 C   0  0  2  0  0  0  0  0  0  0  0  0
    5.1350   -5.8740    0.0000 C   0  0  2  0  0  0  0  0  0  0  0  0
    9.4651   -4.3740    0.0000 C   0  0  1  0  0  0  0  0  0  0  0  0
    5.1350   -6.8740    0.0000 C   0  0  1  0  0  0  0  0  0  0  0  0
   10.3312   -3.8740    0.0000 C   0  0  2  0  0  0  0  0  0  0  0  0
    9.4651   -2.3739    0.0000 C   0  0  0  0  0  0  0  0  0  0  0  0
   10.3312   -2.8739    0.0000 C   0  0  2  0  0  0  0  0  0  0  0  0
    4.2690   -7.3740    0.0000 C   0  0  2  0  0  0  0  0  0  0  0  0
    3.4030   -5.8740    0.0000 C   0  0  0  0  0  0  0  0  0  0  0  0
    3.4030   -6.8740    0.0000 C   0  0  1  0  0  0  0  0  0  0  0  0
   11.5359    5.7563    0.0000 H   0  0  0  0  0  0  0  0  0  0  0  0
   11.3629    5.6064    0.0000 H   0  0  0  0  0  0  0  0  0  0  0  0
   14.1698    4.6373    0.0000 H   0  0  0  0  0  0  0  0  0  0  0  0
   12.0870    4.1787    0.0000 H   0  0  0  0  0  0  0  0  0  0  0  0
   13.0814    7.1017    0.0000 H   0  0  0  0  0  0  0  0  0  0  0  0
   11.8341    6.0673    0.0000 H   0  0  0  0  0  0  0  0  0  0  0  0
   13.2911    3.1664    0.0000 H   0  0  0  0  0  0  0  0  0  0  0  0
   13.6922    3.8551    0.0000 H   0  0  0  0  0  0  0  0  0  0  0  0
   11.8130    2.7798    0.0000 H   0  0  0  0  0  0  0  0  0  0  0  0
   12.6100    2.7767    0.0000 H   0  0  0  0  0  0  0  0  0  0  0  0
   14.5848    4.9383    0.0000 H   0  0  0  0  0  0  0  0  0  0  0  0
    8.8163    4.1733    0.0000 H   0  0  0  0  0  0  0  0  0  0  0  0
   10.8676    5.7628    0.0000 H   0  0  0  0  0  0  0  0  0  0  0  0
   10.0694    5.7751    0.0000 H   0  0  0  0  0  0  0  0  0  0  0  0
    9.3463    5.3688    0.0000 H   0  0  0  0  0  0  0  0  0  0  0  0
    8.9419    4.6805    0.0000 H   0  0  0  0  0  0  0  0  0  0  0  0
   13.6371    3.7108    0.0000 H   0  0  0  0  0  0  0  0  0  0  0  0
   14.4849    3.9344    0.0000 H   0  0  0  0  0  0  0  0  0  0  0  0
   14.2613    4.7822    0.0000 H   0  0  0  0  0  0  0  0  0  0  0  0
   10.6944    1.5610    0.0000 H   0  0  0  0  0  0  0  0  0  0  0  0
   11.0828    2.2584    0.0000 H   0  0  0  0  0  0  0  0  0  0  0  0
    8.3965    3.7955    0.0000 H   0  0  0  0  0  0  0  0  0  0  0  0
    7.9920    3.1073    0.0000 H   0  0  0  0  0  0  0  0  0  0  0  0
   11.0132    2.1905    0.0000 H   0  0  0  0  0  0  0  0  0  0  0  0
   11.8593    2.4207    0.0000 H   0  0  0  0  0  0  0  0  0  0  0  0
   11.6291    3.2668    0.0000 H   0  0  0  0  0  0  0  0  0  0  0  0
    9.1454    1.1097    0.0000 H   0  0  0  0  0  0  0  0  0  0  0  0
    9.9436    1.1158    0.0000 H   0  0  0  0  0  0  0  0  0  0  0  0
   15.0144    4.3587    0.0000 H   0  0  0  0  0  0  0  0  0  0  0  0
   15.8900    4.3117    0.0000 H   0  0  0  0  0  0  0  0  0  0  0  0
   15.9370    5.1873    0.0000 H   0  0  0  0  0  0  0  0  0  0  0  0
    8.6003    1.5061    0.0000 H   0  0  0  0  0  0  0  0  0  0  0  0
   14.5554    7.2269    0.0000 H   0  0  0  0  0  0  0  0  0  0  0  0
   11.9639    7.5596    0.0000 H   0  0  0  0  0  0  0  0  0  0  0  0
   16.4846    8.3107    0.0000 H   0  0  0  0  0  0  0  0  0  0  0  0
   15.6921    8.3964    0.0000 H   0  0  0  0  0  0  0  0  0  0  0  0
   17.3450    6.9252    0.0000 H   0  0  0  0  0  0  0  0  0  0  0  0
   14.3819    8.6840    0.0000 H   0  0  0  0  0  0  0  0  0  0  0  0
    7.1962    0.9361    0.0000 H   0  0  0  0  0  0  0  0  0  0  0  0
   18.0098    7.1280    0.0000 H   0  0  0  0  0  0  0  0  0  0  0  0
   18.3264    7.9456    0.0000 H   0  0  0  0  0  0  0  0  0  0  0  0
   17.5088    8.2623    0.0000 H   0  0  0  0  0  0  0  0  0  0  0  0
    6.3301   -0.1839    0.0000 H   0  0  0  0  0  0  0  0  0  0  0  0
    7.4040   -1.1840    0.0000 H   0  0  0  0  0  0  0  0  0  0  0  0
    9.1360   -0.5639    0.0000 H   0  0  0  0  0  0  0  0  0  0  0  0
    8.2700   -1.6840    0.0000 H   0  0  0  0  0  0  0  0  0  0  0  0
    9.0666   -1.8489    0.0000 H   0  0  0  0  0  0  0  0  0  0  0  0
    9.8637   -1.8489    0.0000 H   0  0  0  0  0  0  0  0  0  0  0  0
    5.4641    1.3160    0.0000 H   0  0  0  0  0  0  0  0  0  0  0  0
    5.4641   -1.0640    0.0000 H   0  0  0  0  0  0  0  0  0  0  0  0
    4.5981    2.4360    0.0000 H   0  0  0  0  0  0  0  0  0  0  0  0
    7.4040   -3.1840    0.0000 H   0  0  0  0  0  0  0  0  0  0  0  0
   10.8681   -1.1840    0.0000 H   0  0  0  0  0  0  0  0  0  0  0  0
    5.1350    3.7460    0.0000 H   0  0  0  0  0  0  0  0  0  0  0  0
    7.4040    2.8160    0.0000 H   0  0  0  0  0  0  0  0  0  0  0  0
    6.8671   -4.4940    0.0000 H   0  0  0  0  0  0  0  0  0  0  0  0
    5.4641    3.9360    0.0000 H   0  0  0  0  0  0  0  0  0  0  0  0
    5.4641   -4.6840    0.0000 H   0  0  0  0  0  0  0  0  0  0  0  0
    3.7320    1.9360    0.0000 H   0  0  0  0  0  0  0  0  0  0  0  0
    5.1350   -2.2540    0.0000 H   0  0  0  0  0  0  0  0  0  0  0  0
    4.5981   -3.5640    0.0000 H   0  0  0  0  0  0  0  0  0  0  0  0
    8.0431    3.0891    0.0000 H   0  0  0  0  0  0  0  0  0  0  0  0
    8.2700    3.9360    0.0000 H   0  0  0  0  0  0  0  0  0  0  0  0
    7.4231    4.1630    0.0000 H   0  0  0  0  0  0  0  0  0  0  0  0
    4.2690    4.2460    0.0000 H   0  0  0  0  0  0  0  0  0  0  0  0
    6.5380    4.9360    0.0000 H   0  0  0  0  0  0  0  0  0  0  0  0
    3.6584   -2.2663    0.0000 H   0  0  0  0  0  0  0  0  0  0  0  0
    4.0569   -2.9566    0.0000 H   0  0  0  0  0  0  0  0  0  0  0  0
    8.5991   -4.4940    0.0000 H   0  0  0  0  0  0  0  0  0  0  0  0
    3.7320   -4.0640    0.0000 H   0  0  0  0  0  0  0  0  0  0  0  0
    5.1350   -5.2540    0.0000 H   0  0  0  0  0  0  0  0  0  0  0  0
   10.0021   -4.6840    0.0000 H   0  0  0  0  0  0  0  0  0  0  0  0
    3.7320   -1.0640    0.0000 H   0  0  0  0  0  0  0  0  0  0  0  0
    5.1350   -7.4940    0.0000 H   0  0  0  0  0  0  0  0  0  0  0  0
   10.8681   -3.5640    0.0000 H   0  0  0  0  0  0  0  0  0  0  0  0
    9.8637   -1.8990    0.0000 H   0  0  0  0  0  0  0  0  0  0  0  0
    9.0666   -1.8990    0.0000 H   0  0  0  0  0  0  0  0  0  0  0  0
   10.3312   -2.2540    0.0000 H   0  0  0  0  0  0  0  0  0  0  0  0
    3.7320   -7.6840    0.0000 H   0  0  0  0  0  0  0  0  0  0  0  0
    8.9282   -5.6840    0.0000 H   0  0  0  0  0  0  0  0  0  0  0  0
    3.1909   -5.2913    0.0000 H   0  0  0  0  0  0  0  0  0  0  0  0
    2.7924   -5.9816    0.0000 H   0  0  0  0  0  0  0  0  0  0  0  0
    2.8660   -6.5640    0.0000 H   0  0  0  0  0  0  0  0  0  0  0  0
    6.0010   -7.9940    0.0000 H   0  0  0  0  0  0  0  0  0  0  0  0
   11.7341   -4.0640    0.0000 H   0  0  0  0  0  0  0  0  0  0  0  0
   11.1972   -1.7540    0.0000 H   0  0  0  0  0  0  0  0  0  0  0  0
    3.7320   -8.6840    0.0000 H   0  0  0  0  0  0  0  0  0  0  0  0
    2.0000   -7.0640    0.0000 H   0  0  0  0  0  0  0  0  0  0  0  0
  1 34  1  0  0  0  0
 42  1  1  1  0  0  0
 35  2  1  1  0  0  0
  2117  1  0  0  0  0
  3 42  1  0  0  0  0
  3 54  1  0  0  0  0
 50  4  1  6  0  0  0
 55  4  1  6  0  0  0
 51  5  1  1  0  0  0
  5121  1  0  0  0  0
  6 54  2  0  0  0  0
  7 55  1  0  0  0  0
  7 59  1  0  0  0  0
 57  8  1  1  0  0  0
 62  8  1  1  0  0  0
 58  9  1  6  0  0  0
  9133  1  0  0  0  0
 60 10  1  6  0  0  0
 64 10  1  1  0  0  0
 11 62  1  0  0  0  0
 11 66  1  0  0  0  0
 12 61  1  0  0  0  0
 12136  1  0  0  0  0
 13 64  1  0  0  0  0
 13 70  1  0  0  0  0
 63 14  1  6  0  0  0
 14142  1  0  0  0  0
 65 15  1  6  0  0  0
 15148  1  0  0  0  0
 67 16  1  6  0  0  0
 74 16  1  6  0  0  0
 68 17  1  1  0  0  0
 17149  1  0  0  0  0
 69 18  1  1  0  0  0
 75 18  1  1  0  0  0
 71 19  1  6  0  0  0
 19153  1  0  0  0  0
 20 74  1  0  0  0  0
 20 79  1  0  0  0  0
 21 73  1  0  0  0  0
 21156  1  0  0  0  0
 22 75  1  0  0  0  0
 22 82  1  0  0  0  0
 76 23  1  1  0  0  0
 23163  1  0  0  0  0
 77 24  1  6  0  0  0
 24167  1  0  0  0  0
 78 25  1  6  0  0  0
 25168  1  0  0  0  0
 80 26  1  6  0  0  0
 26169  1  0  0  0  0
 81 27  1  1  0  0  0
 27170  1  0  0  0  0
 83 28  1  6  0  0  0
 28171  1  0  0  0  0
 29 30  1  0  0  0  0
 29 32  1  0  0  0  0
 29 37  1  0  0  0  0
 29 44  1  6  0  0  0
 30 31  1  0  0  0  0
 30 35  1  0  0  0  0
 30 84  1  1  0  0  0
 31 33  1  0  0  0  0
 31 41  1  0  0  0  0
 31 85  1  6  0  0  0
 32 34  1  0  0  0  0
 32 39  1  0  0  0  0
 32 86  1  1  0  0  0
 33 36  1  0  0  0  0
 33 38  1  0  0  0  0
 33 87  1  1  0  0  0
 34 35  1  0  0  0  0
 34 88  1  1  0  0  0
 35 89  1  0  0  0  0
 36 40  1  0  0  0  0
 36 45  1  0  0  0  0
 36 47  1  6  0  0  0
 37 38  1  0  0  0  0
 37 90  1  0  0  0  0
 37 91  1  0  0  0  0
 38 92  1  0  0  0  0
 38 93  1  0  0  0  0
 39 42  1  0  0  0  0
 39 49  1  1  0  0  0
 39 94  1  0  0  0  0
 40 43  1  0  0  0  0
 40 46  1  0  0  0  0
 40 95  1  1  0  0  0
 41 43  1  0  0  0  0
 41 96  1  0  0  0  0
 41 97  1  0  0  0  0
 42 51  1  0  0  0  0
 43 98  1  0  0  0  0
 43 99  1  0  0  0  0
 44100  1  0  0  0  0
 44101  1  0  0  0  0
 44102  1  0  0  0  0
 45 48  1  0  0  0  0
 45103  1  0  0  0  0
 45104  1  0  0  0  0
 46 50  1  0  0  0  0
 46105  1  0  0  0  0
 46106  1  0  0  0  0
 47107  1  0  0  0  0
 47108  1  0  0  0  0
 47109  1  0  0  0  0
 48 50  1  0  0  0  0
 48110  1  0  0  0  0
 48111  1  0  0  0  0
 49112  1  0  0  0  0
 49113  1  0  0  0  0
 49114  1  0  0  0  0
 50115  1  0  0  0  0
 51 52  1  0  0  0  0
 51116  1  0  0  0  0
 52 53  1  0  0  0  0
 52118  1  0  0  0  0
 52119  1  0  0  0  0
 53 54  1  0  0  0  0
 53 56  1  1  0  0  0
 53120  1  0  0  0  0
 55 57  1  0  0  0  0
 55122  1  0  0  0  0
 56123  1  0  0  0  0
 56124  1  0  0  0  0
 56125  1  0  0  0  0
 57 58  1  0  0  0  0
 57126  1  0  0  0  0
 58 60  1  0  0  0  0
 58127  1  0  0  0  0
 59 60  1  0  0  0  0
 59 61  1  6  0  0  0
 59128  1  0  0  0  0
 60129  1  0  0  0  0
 61130  1  0  0  0  0
 61131  1  0  0  0  0
 62 63  1  0  0  0  0
 62132  1  0  0  0  0
 63 65  1  0  0  0  0
 63134  1  0  0  0  0
 64 67  1  0  0  0  0
 64135  1  0  0  0  0
 65 68  1  0  0  0  0
 65137  1  0  0  0  0
 66 68  1  0  0  0  0
 66 72  1  6  0  0  0
 66138  1  0  0  0  0
 67 69  1  0  0  0  0
 67139  1  0  0  0  0
 68140  1  0  0  0  0
 69 71  1  0  0  0  0
 69141  1  0  0  0  0
 70 71  1  0  0  0  0
 70 73  1  1  0  0  0
 70143  1  0  0  0  0
 71144  1  0  0  0  0
 72145  1  0  0  0  0
 72146  1  0  0  0  0
 72147  1  0  0  0  0
 73150  1  0  0  0  0
 73151  1  0  0  0  0
 74 76  1  0  0  0  0
 74152  1  0  0  0  0
 75 77  1  0  0  0  0
 75154  1  0  0  0  0
 76 78  1  0  0  0  0
 76155  1  0  0  0  0
 77 81  1  0  0  0  0
 77157  1  0  0  0  0
 78 80  1  0  0  0  0
 78158  1  0  0  0  0
 79 80  1  0  0  0  0
 79159  1  0  0  0  0
 79160  1  0  0  0  0
 80161  1  0  0  0  0
 81 83  1  0  0  0  0
 81162  1  0  0  0  0
 82 83  1  0  0  0  0
 82164  1  0  0  0  0
 82165  1  0  0  0  0
 83166  1  0  0  0  0
M  END
> <PUBCHEM_COMPOUND_CID>
16083119

> <PUBCHEM_COMPOUND_CANONICALIZED>
1

> <PUBCHEM_CACTVS_COMPLEXITY>
2240

> <PUBCHEM_CACTVS_HBOND_ACCEPTOR>
28

> <PUBCHEM_CACTVS_HBOND_DONOR>
15

> <PUBCHEM_CACTVS_ROTATABLE_BOND>
12

> <PUBCHEM_CACTVS_SUBSKEYS>
AAADcfB8PgAAAAAAAAAAAAAAAAAAAaIAAAA0aNEiQAASAGDAAAAAGgAACAAADxSwgAMCCAAABgAIAACQCAAAAAAAAAAAAAEAAAAREBIAAAAiQAAFAAAHAAHK7PzPgAAAAAAAAADAAAYAACAAAYAADCAAAA==

> <PUBCHEM_IUPAC_OPENEYE_NAME>
(1R,2S,3R,3'R,4R,5'S,6R,7S,8R,9S,12S,13S,16S,18S)-3,5'-dihydroxy-16-[(2R,3R,4S,5R,6R)-4-hydroxy-5-[(2S,3R,4S,5R,6R)-5-hydroxy-6-(hydroxymethyl)-4-[(2S,3R,4S,5R)-3,4,5-trihydroxytetrahydropyran-2-yl]oxy-3-[(2S,3R,4S,5S)-3,4,5-trihydroxytetrahydropyran-2-yl]oxy-tetrahydropyran-2-yl]oxy-6-(hydroxymethyl)-3-[(2S,3R,4R,5R,6S)-3,4,5-trihydroxy-6-methyl-tetrahydropyran-2-yl]oxy-tetrahydropyran-2-yl]oxy-3',7,9,13-tetramethyl-spiro[5-oxapentacyclo[10.8.0.02,9.04,8.013,18]icosane-6,6'-tetrahydropyran]-2'-one

> <PUBCHEM_IUPAC_CAS_NAME>
(1R,2S,3R,3'R,4R,5'S,6R,7S,8R,9S,12S,13S,16S,18S)-3,5'-dihydroxy-16-[[(2R,3R,4S,5R,6R)-4-hydroxy-5-[[(2S,3R,4S,5R,6R)-5-hydroxy-6-(hydroxymethyl)-4-[[(2S,3R,4S,5R)-3,4,5-trihydroxy-2-oxanyl]oxy]-3-[[(2S,3R,4S,5S)-3,4,5-trihydroxy-2-oxanyl]oxy]-2-oxanyl]oxy]-6-(hydroxymethyl)-3-[[(2S,3R,4R,5R,6S)-3,4,5-trihydroxy-6-methyl-2-oxanyl]oxy]-2-oxanyl]oxy]-3',7,9,13-tetramethyl-2'-spiro[5-oxapentacyclo[10.8.0.02,9.04,8.013,18]eicosane-6,6'-oxane]one

> <PUBCHEM_IUPAC_NAME_MARKUP>
(1<I>R</I>,2<I>S</I>,3<I>R</I>,3&apos;<I>R</I>,4<I>R</I>,5&apos;<I>S</I>,6<I>R</I>,7<I>S</I>,8<I>R</I>,9<I>S</I>,12<I>S</I>,13<I>S</I>,16<I>S</I>,18<I>S</I>)-3,5&apos;-dihydroxy-16-[(2<I>R</I>,3<I>R</I>,4<I>S</I>,5<I>R</I>,6<I>R</I>)-4-hydroxy-5-[(2<I>S</I>,3<I>R</I>,4<I>S</I>,5<I>R</I>,6<I>R</I>)-5-hydroxy-6-(hydroxymethyl)-4-[(2<I>S</I>,3<I>R</I>,4<I>S</I>,5<I>R</I>)-3,4,5-trihydroxyoxan-2-yl]oxy-3-[(2<I>S</I>,3<I>R</I>,4<I>S</I>,5<I>S</I>)-3,4,5-trihydroxyoxan-2-yl]oxyoxan-2-yl]oxy-6-(hydroxymethyl)-3-[(2<I>S</I>,3<I>R</I>,4<I>R</I>,5<I>R</I>,6<I>S</I>)-3,4,5-trihydroxy-6-methyloxan-2-yl]oxyoxan-2-yl]oxy-3&apos;,7,9,13-tetramethylspiro[5-oxapentacyclo[10.8.0.0<SUP>2,9</SUP>.0<SUP>4,8</SUP>.0<SUP>13,18</SUP>]icosane-6,6&apos;-oxane]-2&apos;-one

> <PUBCHEM_IUPAC_NAME>
(1R,2S,3R,3'R,4R,5'S,6R,7S,8R,9S,12S,13S,16S,18S)-3,5'-dihydroxy-16-[(2R,3R,4S,5R,6R)-4-hydroxy-5-[(2S,3R,4S,5R,6R)-5-hydroxy-6-(hydroxymethyl)-4-[(2S,3R,4S,5R)-3,4,5-trihydroxyoxan-2-yl]oxy-3-[(2S,3R,4S,5S)-3,4,5-trihydroxyoxan-2-yl]oxyoxan-2-yl]oxy-6-(hydroxymethyl)-3-[(2S,3R,4R,5R,6S)-3,4,5-trihydroxy-6-methyloxan-2-yl]oxyoxan-2-yl]oxy-3',7,9,13-tetramethylspiro[5-oxapentacyclo[10.8.0.02,9.04,8.013,18]icosane-6,6'-oxane]-2'-one

> <PUBCHEM_IUPAC_SYSTEMATIC_NAME>
(1R,2S,3R,3'R,4R,5'S,6R,7S,8R,9S,12S,13S,16S,18S)-16-[(2R,3R,4S,5R,6R)-6-(hydroxymethyl)-5-[(2S,3R,4S,5R,6R)-6-(hydroxymethyl)-5-oxidanyl-4-[(2S,3R,4S,5R)-3,4,5-tris(oxidanyl)oxan-2-yl]oxy-3-[(2S,3R,4S,5S)-3,4,5-tris(oxidanyl)oxan-2-yl]oxy-oxan-2-yl]oxy-3-[(2S,3R,4R,5R,6S)-6-methyl-3,4,5-tris(oxidanyl)oxan-2-yl]oxy-4-oxidanyl-oxan-2-yl]oxy-3',7,9,13-tetramethyl-3,5'-bis(oxidanyl)spiro[5-oxapentacyclo[10.8.0.02,9.04,8.013,18]icosane-6,6'-oxane]-2'-one

> <PUBCHEM_IUPAC_TRADITIONAL_NAME>
(1R,2S,3R,3'R,4R,5'S,6R,7S,8R,9S,12S,13S,16S,18S)-3,5'-dihydroxy-16-[(2R,3R,4S,5R,6R)-4-hydroxy-5-[(2S,3R,4S,5R,6R)-5-hydroxy-6-methylol-4-[(2S,3R,4S,5R)-3,4,5-trihydroxytetrahydropyran-2-yl]oxy-3-[(2S,3R,4S,5S)-3,4,5-trihydroxytetrahydropyran-2-yl]oxy-tetrahydropyran-2-yl]oxy-6-methylol-3-[(2S,3R,4R,5R,6S)-3,4,5-trihydroxy-6-methyl-tetrahydropyran-2-yl]oxy-tetrahydropyran-2-yl]oxy-3',7,9,13-tetramethyl-spiro[5-oxapentacyclo[10.8.0.02,9.04,8.013,18]eicosane-6,6'-tetrahydropyran]-2'-one

> <PUBCHEM_IUPAC_INCHI>
InChI=1S/C55H88O28/c1-18-12-29(60)55(83-47(18)71)19(2)30-43(82-55)36(65)31-23-7-6-21-13-22(8-10-53(21,4)24(23)9-11-54(30,31)5)75-51-45(80-50-40(69)37(66)32(61)20(3)74-50)41(70)42(28(15-57)77-51)78-52-46(81-49-39(68)34(63)26(59)17-73-49)44(35(64)27(14-56)76-52)79-48-38(67)33(62)25(58)16-72-48/h18-46,48-52,56-70H,6-17H2,1-5H3/t18-,19+,20+,21+,22+,23-,24+,25-,26+,27-,28-,29+,30+,31-,32+,33+,34+,35-,36-,37-,38-,39-,40-,41+,42+,43-,44+,45-,46-,48+,49+,50+,51-,52+,53+,54-,55-/m1/s1

> <PUBCHEM_IUPAC_INCHIKEY>
ZLDXDSLOWPJHII-IQPMVHIZSA-N

> <PUBCHEM_XLOGP3_AA>
-3.6

> <PUBCHEM_EXACT_MASS>
1196.546212

> <PUBCHEM_MOLECULAR_FORMULA>
C55H88O28

> <PUBCHEM_MOLECULAR_WEIGHT>
1197.3

> <PUBCHEM_OPENEYE_CAN_SMILES>
CC1CC(C2(C(C3C(O2)C(C4C3(CCC5C4CCC6C5(CCC(C6)OC7C(C(C(C(O7)CO)OC8C(C(C(C(O8)CO)O)OC9C(C(C(CO9)O)O)O)OC2C(C(C(CO2)O)O)O)O)OC2C(C(C(C(O2)C)O)O)O)C)C)O)C)OC1=O)O

> <PUBCHEM_OPENEYE_ISO_SMILES>
C[C@@H]1C[C@@H]([C@@]2([C@H]([C@H]3[C@@H](O2)[C@@H]([C@@H]4[C@@]3(CC[C@H]5[C@H]4CC[C@@H]6[C@@]5(CC[C@@H](C6)O[C@H]7[C@@H]([C@H]([C@H]([C@H](O7)CO)O[C@H]8[C@@H]([C@H]([C@@H]([C@H](O8)CO)O)O[C@H]9[C@@H]([C@H]([C@@H](CO9)O)O)O)O[C@H]2[C@@H]([C@H]([C@H](CO2)O)O)O)O)O[C@H]2[C@@H]([C@@H]([C@H]([C@@H](O2)C)O)O)O)C)C)O)C)OC1=O)O

> <PUBCHEM_CACTVS_TPSA>
431

> <PUBCHEM_MONOISOTOPIC_WEIGHT>
1196.546212

> <PUBCHEM_TOTAL_CHARGE>
0

> <PUBCHEM_HEAVY_ATOM_COUNT>
83

> <PUBCHEM_ATOM_DEF_STEREO_COUNT>
37

> <PUBCHEM_ATOM_UDEF_STEREO_COUNT>
0

> <PUBCHEM_BOND_DEF_STEREO_COUNT>
0

> <PUBCHEM_BOND_UDEF_STEREO_COUNT>
0

> <PUBCHEM_ISOTOPIC_ATOM_COUNT>
0

> <PUBCHEM_COMPONENT_COUNT>
1

> <PUBCHEM_CACTVS_TAUTO_COUNT>
-1

> <PUBCHEM_COORDINATE_TYPE>
1
5
255

> <PUBCHEM_BONDANNOTATIONS>
42  1  5
60  10  6
64  10  5
63  14  6
65  15  6
67  16  6
74  16  6
68  17  5
69  18  5
75  18  5
71  19  6
35  2  5
76  23  5
77  24  6
78  25  6
80  26  6
81  27  5
83  28  6
29  44  6
30  84  5
31  85  6
32  86  5
33  87  5
34  88  5
36  47  6
39  49  5
50  4  6
55  4  6
40  95  5
51  5  5
53  56  5
59  61  6
66  72  6
70  73  5
57  8  5
62  8  5
58  9  6

$$$$
