16083121
  -OEChem-09052010282D

170180  0     1  0  0  0  0  0999 V2000
   14.1611    6.9805    0.0000 O   0  0  0  0  0  0  0  0  0  0  0  0
   15.8223    5.8929    0.0000 O   0  0  0  0  0  0  0  0  0  0  0  0
    7.7331    1.6260    0.0000 O   0  0  0  0  0  0  0  0  0  0  0  0
   14.3153    8.0675    0.0000 O   0  0  0  0  0  0  0  0  0  0  0  0
   17.5443    5.7067    0.0000 O   0  0  0  0  0  0  0  0  0  0  0  0
    8.5991    0.1261    0.0000 O   0  0  0  0  0  0  0  0  0  0  0  0
    6.0010    0.6261    0.0000 O   0  0  0  0  0  0  0  0  0  0  0  0
    6.0010   -1.3740    0.0000 O   0  0  0  0  0  0  0  0  0  0  0  0
    7.7331   -2.3739    0.0000 O   0  0  0  0  0  0  0  0  0  0  0  0
    6.8671    2.1261    0.0000 O   0  0  0  0  0  0  0  0  0  0  0  0
   10.3312   -0.8739    0.0000 O   0  0  0  0  0  0  0  0  0  0  0  0
    6.0010   -2.3739    0.0000 O   0  0  0  0  0  0  0  0  0  0  0  0
    4.2690    1.6260    0.0000 O   0  0  0  0  0  0  0  0  0  0  0  0
    4.2690    3.6260    0.0000 O   0  0  0  0  0  0  0  0  0  0  0  0
    7.7331   -4.3740    0.0000 O   0  0  0  0  0  0  0  0  0  0  0  0
    6.0010    4.6260    0.0000 O   0  0  0  0  0  0  0  0  0  0  0  0
    6.0010   -5.3740    0.0000 O   0  0  0  0  0  0  0  0  0  0  0  0
    4.2690   -4.3740    0.0000 O   0  0  0  0  0  0  0  0  0  0  0  0
    8.5991   -2.8739    0.0000 O   0  0  0  0  0  0  0  0  0  0  0  0
    4.2690   -1.3740    0.0000 O   0  0  0  0  0  0  0  0  0  0  0  0
    4.2690   -5.3740    0.0000 O   0  0  0  0  0  0  0  0  0  0  0  0
    9.4651   -5.3740    0.0000 O   0  0  0  0  0  0  0  0  0  0  0  0
    6.0010   -7.3740    0.0000 O   0  0  0  0  0  0  0  0  0  0  0  0
   11.1972   -4.3740    0.0000 O   0  0  0  0  0  0  0  0  0  0  0  0
   11.1972   -2.3739    0.0000 O   0  0  0  0  0  0  0  0  0  0  0  0
    4.2690   -8.3740    0.0000 O   0  0  0  0  0  0  0  0  0  0  0  0
    2.5369   -7.3740    0.0000 O   0  0  0  0  0  0  0  0  0  0  0  0
   13.0851    4.7498    0.0000 C   0  0  1  0  0  0  0  0  0  0  0  0
   12.2210    5.2532    0.0000 C   0  0  2  0  0  0  0  0  0  0  0  0
   11.3531    4.7565    0.0000 C   0  0  1  0  0  0  0  0  0  0  0  0
   13.8247    5.4141    0.0000 C   0  0  2  0  0  0  0  0  0  0  0  0
   11.3492    3.7565    0.0000 C   0  0  1  0  0  0  0  0  0  0  0  0
   10.4532    3.2253    0.0000 C   0  0  2  0  0  0  0  0  0  0  0  0
   13.4231    6.3234    0.0000 C   0  0  2  0  0  0  0  0  0  0  0  0
   12.4340    6.2242    0.0000 C   0  0  0  0  0  0  0  0  0  0  0  0
   13.0813    3.7498    0.0000 C   0  0  0  0  0  0  0  0  0  0  0  0
   12.2133    3.2532    0.0000 C   0  0  0  0  0  0  0  0  0  0  0  0
   14.8075    5.5170    0.0000 C   0  0  1  0  0  0  0  0  0  0  0  0
    9.5491    3.7426    0.0000 C   0  0  1  0  0  0  0  0  0  0  0  0
   10.4612    5.2946    0.0000 C   0  0  0  0  0  0  0  0  0  0  0  0
   15.0150    6.4831    0.0000 C   0  0  1  0  0  0  0  0  0  0  0  0
    9.5532    4.7843    0.0000 C   0  0  0  0  0  0  0  0  0  0  0  0
   13.9492    4.2465    0.0000 C   0  0  0  0  0  0  0  0  0  0  0  0
   10.4741    2.1405    0.0000 C   0  0  0  0  0  0  0  0  0  0  0  0
    8.6033    3.2110    0.0000 C   0  0  0  0  0  0  0  0  0  0  0  0
   11.3212    2.7286    0.0000 C   0  0  0  0  0  0  0  0  0  0  0  0
    9.5408    1.5872    0.0000 C   0  0  0  0  0  0  0  0  0  0  0  0
   15.4757    4.7730    0.0000 C   0  0  0  0  0  0  0  0  0  0  0  0
    8.5991    2.1261    0.0000 C   0  0  2  0  0  0  0  0  0  0  0  0
   15.1225    7.4773    0.0000 C   0  0  2  0  0  0  0  0  0  0  0  0
   16.0373    7.8813    0.0000 C   0  0  0  0  0  0  0  0  0  0  0  0
   16.8445    7.2911    0.0000 C   0  0  2  0  0  0  0  0  0  0  0  0
   16.7370    6.2969    0.0000 C   0  0  0  0  0  0  0  0  0  0  0  0
    7.7331    0.6261    0.0000 C   0  0  2  0  0  0  0  0  0  0  0  0
   17.7593    7.6952    0.0000 C   0  0  0  0  0  0  0  0  0  0  0  0
    6.8671    0.1261    0.0000 C   0  0  1  0  0  0  0  0  0  0  0  0
    6.8671   -0.8739    0.0000 C   0  0  2  0  0  0  0  0  0  0  0  0
    8.5991   -0.8739    0.0000 C   0  0  1  0  0  0  0  0  0  0  0  0
    7.7331   -1.3740    0.0000 C   0  0  2  0  0  0  0  0  0  0  0  0
    9.4651   -1.3740    0.0000 C   0  0  0  0  0  0  0  0  0  0  0  0
    6.0010    1.6260    0.0000 C   0  0  2  0  0  0  0  0  0  0  0  0
    5.1350    2.1261    0.0000 C   0  0  1  0  0  0  0  0  0  0  0  0
    6.8671   -2.8739    0.0000 C   0  0  2  0  0  0  0  0  0  0  0  0
    5.1350    3.1261    0.0000 C   0  0  1  0  0  0  0  0  0  0  0  0
    6.8671   -3.8740    0.0000 C   0  0  1  0  0  0  0  0  0  0  0  0
    6.8671    3.1261    0.0000 C   0  0  2  0  0  0  0  0  0  0  0  0
    6.0010    3.6260    0.0000 C   0  0  2  0  0  0  0  0  0  0  0  0
    6.0010   -4.3740    0.0000 C   0  0  2  0  0  0  0  0  0  0  0  0
    5.1350   -2.8739    0.0000 C   0  0  1  0  0  0  0  0  0  0  0  0
    5.1350   -3.8740    0.0000 C   0  0  1  0  0  0  0  0  0  0  0  0
    7.7331    3.6260    0.0000 C   0  0  0  0  0  0  0  0  0  0  0  0
    4.2690   -2.3739    0.0000 C   0  0  0  0  0  0  0  0  0  0  0  0
    8.5991   -3.8740    0.0000 C   0  0  2  0  0  0  0  0  0  0  0  0
    5.1350   -5.8740    0.0000 C   0  0  2  0  0  0  0  0  0  0  0  0
    9.4651   -4.3740    0.0000 C   0  0  1  0  0  0  0  0  0  0  0  0
    5.1350   -6.8740    0.0000 C   0  0  1  0  0  0  0  0  0  0  0  0
   10.3312   -3.8740    0.0000 C   0  0  2  0  0  0  0  0  0  0  0  0
    9.4651   -2.3739    0.0000 C   0  0  0  0  0  0  0  0  0  0  0  0
   10.3312   -2.8739    0.0000 C   0  0  2  0  0  0  0  0  0  0  0  0
    4.2690   -7.3740    0.0000 C   0  0  2  0  0  0  0  0  0  0  0  0
    3.4030   -5.8740    0.0000 C   0  0  0  0  0  0  0  0  0  0  0  0
    3.4030   -6.8740    0.0000 C   0  0  1  0  0  0  0  0  0  0  0  0
   11.5359    5.7563    0.0000 H   0  0  0  0  0  0  0  0  0  0  0  0
   11.3629    5.6064    0.0000 H   0  0  0  0  0  0  0  0  0  0  0  0
   14.1698    4.6373    0.0000 H   0  0  0  0  0  0  0  0  0  0  0  0
   12.0870    4.1787    0.0000 H   0  0  0  0  0  0  0  0  0  0  0  0
   13.0814    7.1017    0.0000 H   0  0  0  0  0  0  0  0  0  0  0  0
   12.4372    6.8442    0.0000 H   0  0  0  0  0  0  0  0  0  0  0  0
   11.8178    6.2926    0.0000 H   0  0  0  0  0  0  0  0  0  0  0  0
   13.2911    3.1664    0.0000 H   0  0  0  0  0  0  0  0  0  0  0  0
   13.6922    3.8551    0.0000 H   0  0  0  0  0  0  0  0  0  0  0  0
   11.8130    2.7798    0.0000 H   0  0  0  0  0  0  0  0  0  0  0  0
   12.6100    2.7767    0.0000 H   0  0  0  0  0  0  0  0  0  0  0  0
   14.5848    4.9383    0.0000 H   0  0  0  0  0  0  0  0  0  0  0  0
    8.8163    4.1733    0.0000 H   0  0  0  0  0  0  0  0  0  0  0  0
   10.8676    5.7628    0.0000 H   0  0  0  0  0  0  0  0  0  0  0  0
   10.0694    5.7751    0.0000 H   0  0  0  0  0  0  0  0  0  0  0  0
    9.3463    5.3688    0.0000 H   0  0  0  0  0  0  0  0  0  0  0  0
    8.9419    4.6805    0.0000 H   0  0  0  0  0  0  0  0  0  0  0  0
   13.6371    3.7108    0.0000 H   0  0  0  0  0  0  0  0  0  0  0  0
   14.4849    3.9344    0.0000 H   0  0  0  0  0  0  0  0  0  0  0  0
   14.2613    4.7822    0.0000 H   0  0  0  0  0  0  0  0  0  0  0  0
   10.6944    1.5610    0.0000 H   0  0  0  0  0  0  0  0  0  0  0  0
   11.0828    2.2584    0.0000 H   0  0  0  0  0  0  0  0  0  0  0  0
    8.3965    3.7955    0.0000 H   0  0  0  0  0  0  0  0  0  0  0  0
    7.9920    3.1073    0.0000 H   0  0  0  0  0  0  0  0  0  0  0  0
   11.0132    2.1905    0.0000 H   0  0  0  0  0  0  0  0  0  0  0  0
   11.8593    2.4207    0.0000 H   0  0  0  0  0  0  0  0  0  0  0  0
   11.6291    3.2668    0.0000 H   0  0  0  0  0  0  0  0  0  0  0  0
    9.1454    1.1097    0.0000 H   0  0  0  0  0  0  0  0  0  0  0  0
    9.9436    1.1158    0.0000 H   0  0  0  0  0  0  0  0  0  0  0  0
   15.0144    4.3587    0.0000 H   0  0  0  0  0  0  0  0  0  0  0  0
   15.8900    4.3117    0.0000 H   0  0  0  0  0  0  0  0  0  0  0  0
   15.9370    5.1873    0.0000 H   0  0  0  0  0  0  0  0  0  0  0  0
    8.6003    1.5061    0.0000 H   0  0  0  0  0  0  0  0  0  0  0  0
   14.5554    7.2269    0.0000 H   0  0  0  0  0  0  0  0  0  0  0  0
   16.4846    8.3107    0.0000 H   0  0  0  0  0  0  0  0  0  0  0  0
   15.6921    8.3964    0.0000 H   0  0  0  0  0  0  0  0  0  0  0  0
   17.3450    6.9252    0.0000 H   0  0  0  0  0  0  0  0  0  0  0  0
   14.3819    8.6840    0.0000 H   0  0  0  0  0  0  0  0  0  0  0  0
    7.1962    0.9361    0.0000 H   0  0  0  0  0  0  0  0  0  0  0  0
   18.0098    7.1280    0.0000 H   0  0  0  0  0  0  0  0  0  0  0  0
   18.3264    7.9456    0.0000 H   0  0  0  0  0  0  0  0  0  0  0  0
   17.5088    8.2623    0.0000 H   0  0  0  0  0  0  0  0  0  0  0  0
    6.3301   -0.1839    0.0000 H   0  0  0  0  0  0  0  0  0  0  0  0
    7.4040   -1.1840    0.0000 H   0  0  0  0  0  0  0  0  0  0  0  0
    9.1360   -0.5639    0.0000 H   0  0  0  0  0  0  0  0  0  0  0  0
    8.2700   -1.6840    0.0000 H   0  0  0  0  0  0  0  0  0  0  0  0
    9.0666   -1.8489    0.0000 H   0  0  0  0  0  0  0  0  0  0  0  0
    9.8637   -1.8489    0.0000 H   0  0  0  0  0  0  0  0  0  0  0  0
    5.4641    1.3160    0.0000 H   0  0  0  0  0  0  0  0  0  0  0  0
    5.4641   -1.0640    0.0000 H   0  0  0  0  0  0  0  0  0  0  0  0
    4.5981    2.4360    0.0000 H   0  0  0  0  0  0  0  0  0  0  0  0
    7.4040   -3.1840    0.0000 H   0  0  0  0  0  0  0  0  0  0  0  0
   10.8681   -1.1840    0.0000 H   0  0  0  0  0  0  0  0  0  0  0  0
    5.1350    3.7460    0.0000 H   0  0  0  0  0  0  0  0  0  0  0  0
    6.8671   -4.4940    0.0000 H   0  0  0  0  0  0  0  0  0  0  0  0
    7.4040    2.8160    0.0000 H   0  0  0  0  0  0  0  0  0  0  0  0
    5.4641    3.9360    0.0000 H   0  0  0  0  0  0  0  0  0  0  0  0
    5.4641   -4.6840    0.0000 H   0  0  0  0  0  0  0  0  0  0  0  0
    3.7320    1.9360    0.0000 H   0  0  0  0  0  0  0  0  0  0  0  0
    5.1350   -2.2540    0.0000 H   0  0  0  0  0  0  0  0  0  0  0  0
    4.5981   -3.5640    0.0000 H   0  0  0  0  0  0  0  0  0  0  0  0
    8.0431    3.0891    0.0000 H   0  0  0  0  0  0  0  0  0  0  0  0
    8.2700    3.9360    0.0000 H   0  0  0  0  0  0  0  0  0  0  0  0
    7.4231    4.1630    0.0000 H   0  0  0  0  0  0  0  0  0  0  0  0
    4.2690    4.2460    0.0000 H   0  0  0  0  0  0  0  0  0  0  0  0
    6.5380    4.9360    0.0000 H   0  0  0  0  0  0  0  0  0  0  0  0
    3.6584   -2.2663    0.0000 H   0  0  0  0  0  0  0  0  0  0  0  0
    4.0569   -2.9566    0.0000 H   0  0  0  0  0  0  0  0  0  0  0  0
    8.5991   -4.4940    0.0000 H   0  0  0  0  0  0  0  0  0  0  0  0
    3.7320   -4.0640    0.0000 H   0  0  0  0  0  0  0  0  0  0  0  0
    5.1350   -5.2540    0.0000 H   0  0  0  0  0  0  0  0  0  0  0  0
   10.0021   -4.6840    0.0000 H   0  0  0  0  0  0  0  0  0  0  0  0
    3.7320   -1.0640    0.0000 H   0  0  0  0  0  0  0  0  0  0  0  0
    5.1350   -7.4940    0.0000 H   0  0  0  0  0  0  0  0  0  0  0  0
   10.8681   -3.5640    0.0000 H   0  0  0  0  0  0  0  0  0  0  0  0
    9.8637   -1.8990    0.0000 H   0  0  0  0  0  0  0  0  0  0  0  0
    9.0666   -1.8990    0.0000 H   0  0  0  0  0  0  0  0  0  0  0  0
   10.3312   -2.2540    0.0000 H   0  0  0  0  0  0  0  0  0  0  0  0
    3.7320   -7.6840    0.0000 H   0  0  0  0  0  0  0  0  0  0  0  0
    8.9282   -5.6840    0.0000 H   0  0  0  0  0  0  0  0  0  0  0  0
    3.1909   -5.2913    0.0000 H   0  0  0  0  0  0  0  0  0  0  0  0
    2.7924   -5.9816    0.0000 H   0  0  0  0  0  0  0  0  0  0  0  0
    2.8660   -6.5640    0.0000 H   0  0  0  0  0  0  0  0  0  0  0  0
    6.0010   -7.9940    0.0000 H   0  0  0  0  0  0  0  0  0  0  0  0
   11.7341   -4.0640    0.0000 H   0  0  0  0  0  0  0  0  0  0  0  0
   11.1972   -1.7540    0.0000 H   0  0  0  0  0  0  0  0  0  0  0  0
    3.7320   -8.6840    0.0000 H   0  0  0  0  0  0  0  0  0  0  0  0
    2.0000   -7.0640    0.0000 H   0  0  0  0  0  0  0  0  0  0  0  0
  1 34  1  0  0  0  0
 41  1  1  1  0  0  0
  2 41  1  0  0  0  0
  2 53  1  0  0  0  0
 49  3  1  6  0  0  0
 54  3  1  6  0  0  0
 50  4  1  1  0  0  0
  4120  1  0  0  0  0
  5 53  2  0  0  0  0
  6 54  1  0  0  0  0
  6 58  1  0  0  0  0
 56  7  1  1  0  0  0
 61  7  1  1  0  0  0
 57  8  1  6  0  0  0
  8132  1  0  0  0  0
 59  9  1  6  0  0  0
 63  9  1  1  0  0  0
 10 61  1  0  0  0  0
 10 66  1  0  0  0  0
 11 60  1  0  0  0  0
 11135  1  0  0  0  0
 12 63  1  0  0  0  0
 12 69  1  0  0  0  0
 62 13  1  6  0  0  0
 13141  1  0  0  0  0
 64 14  1  6  0  0  0
 14147  1  0  0  0  0
 65 15  1  6  0  0  0
 73 15  1  6  0  0  0
 67 16  1  1  0  0  0
 16148  1  0  0  0  0
 68 17  1  1  0  0  0
 74 17  1  1  0  0  0
 70 18  1  6  0  0  0
 18152  1  0  0  0  0
 19 73  1  0  0  0  0
 19 78  1  0  0  0  0
 20 72  1  0  0  0  0
 20155  1  0  0  0  0
 21 74  1  0  0  0  0
 21 81  1  0  0  0  0
 75 22  1  1  0  0  0
 22162  1  0  0  0  0
 76 23  1  6  0  0  0
 23166  1  0  0  0  0
 77 24  1  6  0  0  0
 24167  1  0  0  0  0
 79 25  1  6  0  0  0
 25168  1  0  0  0  0
 80 26  1  1  0  0  0
 26169  1  0  0  0  0
 82 27  1  6  0  0  0
 27170  1  0  0  0  0
 28 29  1  0  0  0  0
 28 31  1  0  0  0  0
 28 36  1  0  0  0  0
 28 43  1  6  0  0  0
 29 30  1  0  0  0  0
 29 35  1  0  0  0  0
 29 83  1  1  0  0  0
 30 32  1  0  0  0  0
 30 40  1  0  0  0  0
 30 84  1  6  0  0  0
 31 34  1  0  0  0  0
 31 38  1  0  0  0  0
 31 85  1  1  0  0  0
 32 33  1  0  0  0  0
 32 37  1  0  0  0  0
 32 86  1  1  0  0  0
 33 39  1  0  0  0  0
 33 44  1  0  0  0  0
 33 46  1  6  0  0  0
 34 35  1  0  0  0  0
 34 87  1  1  0  0  0
 35 88  1  0  0  0  0
 35 89  1  0  0  0  0
 36 37  1  0  0  0  0
 36 90  1  0  0  0  0
 36 91  1  0  0  0  0
 37 92  1  0  0  0  0
 37 93  1  0  0  0  0
 38 41  1  0  0  0  0
 38 48  1  1  0  0  0
 38 94  1  0  0  0  0
 39 42  1  0  0  0  0
 39 45  1  0  0  0  0
 39 95  1  1  0  0  0
 40 42  1  0  0  0  0
 40 96  1  0  0  0  0
 40 97  1  0  0  0  0
 41 50  1  0  0  0  0
 42 98  1  0  0  0  0
 42 99  1  0  0  0  0
 43100  1  0  0  0  0
 43101  1  0  0  0  0
 43102  1  0  0  0  0
 44 47  1  0  0  0  0
 44103  1  0  0  0  0
 44104  1  0  0  0  0
 45 49  1  0  0  0  0
 45105  1  0  0  0  0
 45106  1  0  0  0  0
 46107  1  0  0  0  0
 46108  1  0  0  0  0
 46109  1  0  0  0  0
 47 49  1  0  0  0  0
 47110  1  0  0  0  0
 47111  1  0  0  0  0
 48112  1  0  0  0  0
 48113  1  0  0  0  0
 48114  1  0  0  0  0
 49115  1  0  0  0  0
 50 51  1  0  0  0  0
 50116  1  0  0  0  0
 51 52  1  0  0  0  0
 51117  1  0  0  0  0
 51118  1  0  0  0  0
 52 53  1  0  0  0  0
 52 55  1  1  0  0  0
 52119  1  0  0  0  0
 54 56  1  0  0  0  0
 54121  1  0  0  0  0
 55122  1  0  0  0  0
 55123  1  0  0  0  0
 55124  1  0  0  0  0
 56 57  1  0  0  0  0
 56125  1  0  0  0  0
 57 59  1  0  0  0  0
 57126  1  0  0  0  0
 58 59  1  0  0  0  0
 58 60  1  6  0  0  0
 58127  1  0  0  0  0
 59128  1  0  0  0  0
 60129  1  0  0  0  0
 60130  1  0  0  0  0
 61 62  1  0  0  0  0
 61131  1  0  0  0  0
 62 64  1  0  0  0  0
 62133  1  0  0  0  0
 63 65  1  0  0  0  0
 63134  1  0  0  0  0
 64 67  1  0  0  0  0
 64136  1  0  0  0  0
 65 68  1  0  0  0  0
 65137  1  0  0  0  0
 66 67  1  0  0  0  0
 66 71  1  6  0  0  0
 66138  1  0  0  0  0
 67139  1  0  0  0  0
 68 70  1  0  0  0  0
 68140  1  0  0  0  0
 69 70  1  0  0  0  0
 69 72  1  1  0  0  0
 69142  1  0  0  0  0
 70143  1  0  0  0  0
 71144  1  0  0  0  0
 71145  1  0  0  0  0
 71146  1  0  0  0  0
 72149  1  0  0  0  0
 72150  1  0  0  0  0
 73 75  1  0  0  0  0
 73151  1  0  0  0  0
 74 76  1  0  0  0  0
 74153  1  0  0  0  0
 75 77  1  0  0  0  0
 75154  1  0  0  0  0
 76 80  1  0  0  0  0
 76156  1  0  0  0  0
 77 79  1  0  0  0  0
 77157  1  0  0  0  0
 78 79  1  0  0  0  0
 78158  1  0  0  0  0
 78159  1  0  0  0  0
 79160  1  0  0  0  0
 80 82  1  0  0  0  0
 80161  1  0  0  0  0
 81 82  1  0  0  0  0
 81163  1  0  0  0  0
 81164  1  0  0  0  0
 82165  1  0  0  0  0
M  END
> <PUBCHEM_COMPOUND_CID>
16083121

> <PUBCHEM_COMPOUND_CANONICALIZED>
1

> <PUBCHEM_CACTVS_COMPLEXITY>
2210

> <PUBCHEM_CACTVS_HBOND_ACCEPTOR>
27

> <PUBCHEM_CACTVS_HBOND_DONOR>
14

> <PUBCHEM_CACTVS_ROTATABLE_BOND>
12

> <PUBCHEM_CACTVS_SUBSKEYS>
AAADcfB8PgAAAAAAAAAAAAAAAAAAAaIAAAA0aNEiQAASAGDAAAAAGgAACAAADxSwgAMCCAAABgAIAACQCAAAAAAAAAAAAAEAAAAREBIAAAAiQAAFAAAHAAHK7PzPgAAAAAAAAADAAAYAACAAAYAADAAAAA==

> <PUBCHEM_IUPAC_OPENEYE_NAME>
(1R,2S,3'R,4S,5'S,6R,7S,8R,9S,12S,13S,16S,18S)-5'-hydroxy-16-[(2R,3R,4S,5R,6R)-4-hydroxy-5-[(2S,3R,4S,5R,6R)-5-hydroxy-6-(hydroxymethyl)-4-[(2S,3R,4S,5R)-3,4,5-trihydroxytetrahydropyran-2-yl]oxy-3-[(2S,3R,4S,5S)-3,4,5-trihydroxytetrahydropyran-2-yl]oxy-tetrahydropyran-2-yl]oxy-6-(hydroxymethyl)-3-[(2S,3R,4R,5R,6S)-3,4,5-trihydroxy-6-methyl-tetrahydropyran-2-yl]oxy-tetrahydropyran-2-yl]oxy-3',7,9,13-tetramethyl-spiro[5-oxapentacyclo[10.8.0.02,9.04,8.013,18]icosane-6,6'-tetrahydropyran]-2'-one

> <PUBCHEM_IUPAC_CAS_NAME>
(1R,2S,3'R,4S,5'S,6R,7S,8R,9S,12S,13S,16S,18S)-5'-hydroxy-16-[[(2R,3R,4S,5R,6R)-4-hydroxy-5-[[(2S,3R,4S,5R,6R)-5-hydroxy-6-(hydroxymethyl)-4-[[(2S,3R,4S,5R)-3,4,5-trihydroxy-2-oxanyl]oxy]-3-[[(2S,3R,4S,5S)-3,4,5-trihydroxy-2-oxanyl]oxy]-2-oxanyl]oxy]-6-(hydroxymethyl)-3-[[(2S,3R,4R,5R,6S)-3,4,5-trihydroxy-6-methyl-2-oxanyl]oxy]-2-oxanyl]oxy]-3',7,9,13-tetramethyl-2'-spiro[5-oxapentacyclo[10.8.0.02,9.04,8.013,18]eicosane-6,6'-oxane]one

> <PUBCHEM_IUPAC_NAME_MARKUP>
(1<I>R</I>,2<I>S</I>,3&apos;<I>R</I>,4<I>S</I>,5&apos;<I>S</I>,6<I>R</I>,7<I>S</I>,8<I>R</I>,9<I>S</I>,12<I>S</I>,13<I>S</I>,16<I>S</I>,18<I>S</I>)-5&apos;-hydroxy-16-[(2<I>R</I>,3<I>R</I>,4<I>S</I>,5<I>R</I>,6<I>R</I>)-4-hydroxy-5-[(2<I>S</I>,3<I>R</I>,4<I>S</I>,5<I>R</I>,6<I>R</I>)-5-hydroxy-6-(hydroxymethyl)-4-[(2<I>S</I>,3<I>R</I>,4<I>S</I>,5<I>R</I>)-3,4,5-trihydroxyoxan-2-yl]oxy-3-[(2<I>S</I>,3<I>R</I>,4<I>S</I>,5<I>S</I>)-3,4,5-trihydroxyoxan-2-yl]oxyoxan-2-yl]oxy-6-(hydroxymethyl)-3-[(2<I>S</I>,3<I>R</I>,4<I>R</I>,5<I>R</I>,6<I>S</I>)-3,4,5-trihydroxy-6-methyloxan-2-yl]oxyoxan-2-yl]oxy-3&apos;,7,9,13-tetramethylspiro[5-oxapentacyclo[10.8.0.0<SUP>2,9</SUP>.0<SUP>4,8</SUP>.0<SUP>13,18</SUP>]icosane-6,6&apos;-oxane]-2&apos;-one

> <PUBCHEM_IUPAC_NAME>
(1R,2S,3'R,4S,5'S,6R,7S,8R,9S,12S,13S,16S,18S)-5'-hydroxy-16-[(2R,3R,4S,5R,6R)-4-hydroxy-5-[(2S,3R,4S,5R,6R)-5-hydroxy-6-(hydroxymethyl)-4-[(2S,3R,4S,5R)-3,4,5-trihydroxyoxan-2-yl]oxy-3-[(2S,3R,4S,5S)-3,4,5-trihydroxyoxan-2-yl]oxyoxan-2-yl]oxy-6-(hydroxymethyl)-3-[(2S,3R,4R,5R,6S)-3,4,5-trihydroxy-6-methyloxan-2-yl]oxyoxan-2-yl]oxy-3',7,9,13-tetramethylspiro[5-oxapentacyclo[10.8.0.02,9.04,8.013,18]icosane-6,6'-oxane]-2'-one

> <PUBCHEM_IUPAC_SYSTEMATIC_NAME>
(1R,2S,3'R,4S,5'S,6R,7S,8R,9S,12S,13S,16S,18S)-16-[(2R,3R,4S,5R,6R)-6-(hydroxymethyl)-5-[(2S,3R,4S,5R,6R)-6-(hydroxymethyl)-5-oxidanyl-4-[(2S,3R,4S,5R)-3,4,5-tris(oxidanyl)oxan-2-yl]oxy-3-[(2S,3R,4S,5S)-3,4,5-tris(oxidanyl)oxan-2-yl]oxy-oxan-2-yl]oxy-3-[(2S,3R,4R,5R,6S)-6-methyl-3,4,5-tris(oxidanyl)oxan-2-yl]oxy-4-oxidanyl-oxan-2-yl]oxy-3',7,9,13-tetramethyl-5'-oxidanyl-spiro[5-oxapentacyclo[10.8.0.02,9.04,8.013,18]icosane-6,6'-oxane]-2'-one

> <PUBCHEM_IUPAC_TRADITIONAL_NAME>
(1R,2S,3'R,4S,5'S,6R,7S,8R,9S,12S,13S,16S,18S)-5'-hydroxy-16-[(2R,3R,4S,5R,6R)-4-hydroxy-5-[(2S,3R,4S,5R,6R)-5-hydroxy-6-methylol-4-[(2S,3R,4S,5R)-3,4,5-trihydroxytetrahydropyran-2-yl]oxy-3-[(2S,3R,4S,5S)-3,4,5-trihydroxytetrahydropyran-2-yl]oxy-tetrahydropyran-2-yl]oxy-6-methylol-3-[(2S,3R,4R,5R,6S)-3,4,5-trihydroxy-6-methyl-tetrahydropyran-2-yl]oxy-tetrahydropyran-2-yl]oxy-3',7,9,13-tetramethyl-spiro[5-oxapentacyclo[10.8.0.02,9.04,8.013,18]eicosane-6,6'-tetrahydropyran]-2'-one

> <PUBCHEM_IUPAC_INCHI>
InChI=1S/C55H88O27/c1-19-12-32(60)55(82-47(19)70)20(2)33-29(81-55)14-26-24-7-6-22-13-23(8-10-53(22,4)25(24)9-11-54(26,33)5)74-51-45(79-50-41(68)38(65)34(61)21(3)73-50)42(69)43(31(16-57)76-51)77-52-46(80-49-40(67)36(63)28(59)18-72-49)44(37(64)30(15-56)75-52)78-48-39(66)35(62)27(58)17-71-48/h19-46,48-52,56-69H,6-18H2,1-5H3/t19-,20+,21+,22+,23+,24-,25+,26+,27-,28+,29+,30-,31-,32+,33+,34+,35+,36+,37-,38-,39-,40-,41-,42+,43+,44+,45-,46-,48+,49+,50+,51-,52+,53+,54+,55-/m1/s1

> <PUBCHEM_IUPAC_INCHIKEY>
JEHDEIWQIITMKD-AWIKYMJCSA-N

> <PUBCHEM_XLOGP3_AA>
-2.6

> <PUBCHEM_EXACT_MASS>
1180.551298

> <PUBCHEM_MOLECULAR_FORMULA>
C55H88O27

> <PUBCHEM_MOLECULAR_WEIGHT>
1181.3

> <PUBCHEM_OPENEYE_CAN_SMILES>
CC1CC(C2(C(C3C(O2)CC4C3(CCC5C4CCC6C5(CCC(C6)OC7C(C(C(C(O7)CO)OC8C(C(C(C(O8)CO)O)OC9C(C(C(CO9)O)O)O)OC2C(C(C(CO2)O)O)O)O)OC2C(C(C(C(O2)C)O)O)O)C)C)C)OC1=O)O

> <PUBCHEM_OPENEYE_ISO_SMILES>
C[C@@H]1C[C@@H]([C@@]2([C@H]([C@H]3[C@@H](O2)C[C@@H]4[C@@]3(CC[C@H]5[C@H]4CC[C@@H]6[C@@]5(CC[C@@H](C6)O[C@H]7[C@@H]([C@H]([C@H]([C@H](O7)CO)O[C@H]8[C@@H]([C@H]([C@@H]([C@H](O8)CO)O)O[C@H]9[C@@H]([C@H]([C@@H](CO9)O)O)O)O[C@H]2[C@@H]([C@H]([C@H](CO2)O)O)O)O)O[C@H]2[C@@H]([C@@H]([C@H]([C@@H](O2)C)O)O)O)C)C)C)OC1=O)O

> <PUBCHEM_CACTVS_TPSA>
411

> <PUBCHEM_MONOISOTOPIC_WEIGHT>
1180.551298

> <PUBCHEM_TOTAL_CHARGE>
0

> <PUBCHEM_HEAVY_ATOM_COUNT>
82

> <PUBCHEM_ATOM_DEF_STEREO_COUNT>
36

> <PUBCHEM_ATOM_UDEF_STEREO_COUNT>
0

> <PUBCHEM_BOND_DEF_STEREO_COUNT>
0

> <PUBCHEM_BOND_UDEF_STEREO_COUNT>
0

> <PUBCHEM_ISOTOPIC_ATOM_COUNT>
0

> <PUBCHEM_COMPONENT_COUNT>
1

> <PUBCHEM_CACTVS_TAUTO_COUNT>
-1

> <PUBCHEM_COORDINATE_TYPE>
1
5
255

> <PUBCHEM_BONDANNOTATIONS>
41  1  5
62  13  6
64  14  6
65  15  6
73  15  6
67  16  5
68  17  5
74  17  5
70  18  6
75  22  5
76  23  6
77  24  6
79  25  6
80  26  5
82  27  6
28  43  6
29  83  5
49  3  6
54  3  6
30  84  6
31  85  5
32  86  5
33  46  6
34  87  5
38  48  5
39  95  5
50  4  5
52  55  5
58  60  6
66  71  6
69  72  5
56  7  5
61  7  5
57  8  6
59  9  6
63  9  5

$$$$
