6474316
  -OEChem-08262007473D

 80 83  0     1  0  0  0  0  0999 V2000
    6.1842    3.2572    1.0980 O   0  0  0  0  0  0  0  0  0  0  0  0
    5.5318    3.3580   -1.0753 O   0  0  0  0  0  0  0  0  0  0  0  0
   -5.4954    0.6342   -2.6771 O   0  0  0  0  0  0  0  0  0  0  0  0
   -7.2210    1.5775   -1.5417 O   0  0  0  0  0  0  0  0  0  0  0  0
    1.8427   -0.1857   -0.2913 C   0  0  2  0  0  0  0  0  0  0  0  0
    3.3079   -0.2848   -0.7069 C   0  0  2  0  0  0  0  0  0  0  0  0
    1.2546   -1.3091    0.5923 C   0  0  2  0  0  0  0  0  0  0  0  0
    2.2374   -0.5904   -1.7077 C   0  0  0  0  0  0  0  0  0  0  0  0
    0.0630   -0.8061    1.4521 C   0  0  1  0  0  0  0  0  0  0  0  0
   -0.8849    0.0649    0.5583 C   0  0  2  0  0  0  0  0  0  0  0  0
    1.3170    1.2341   -0.0959 C   0  0  0  0  0  0  0  0  0  0  0  0
    4.2168   -1.3513   -0.1555 C   0  0  1  0  0  0  0  0  0  0  0  0
   -0.1830    1.3849    0.2168 C   0  0  0  0  0  0  0  0  0  0  0  0
    2.3519   -2.0307    1.3937 C   0  0  0  0  0  0  0  0  0  0  0  0
    4.0576    0.9990   -0.9588 C   0  0  0  0  0  0  0  0  0  0  0  0
   -2.1353    0.1978    1.4690 C   0  0  2  0  0  0  0  0  0  0  0  0
    3.4562   -2.5309    0.4643 C   0  0  0  0  0  0  0  0  0  0  0  0
   -0.9070   -1.9089    1.9259 C   0  0  0  0  0  0  0  0  0  0  0  0
   -2.2609   -1.1973    2.1245 C   0  0  0  0  0  0  0  0  0  0  0  0
    0.5785   -0.0860    2.7371 C   0  0  0  0  0  0  0  0  0  0  0  0
   -1.3034   -0.6118   -0.7835 C   0  0  0  0  0  0  0  0  0  0  0  0
    5.2227   -1.8412   -1.1543 C   0  0  0  0  0  0  0  0  0  0  0  0
   -3.4327    0.6550    0.8119 C   0  0  1  0  0  0  0  0  0  0  0  0
    4.7760    1.5082    0.2809 C   0  0  0  0  0  0  0  0  0  0  0  0
   -4.6015    0.7605    1.8123 C   0  0  0  0  0  0  0  0  0  0  0  0
    6.6631   -1.5867   -0.8220 C   0  0  0  0  0  0  0  0  0  0  0  0
   -3.2221    2.0103    0.1285 C   0  0  0  0  0  0  0  0  0  0  0  0
    4.8554   -2.4705   -2.2805 C   0  0  0  0  0  0  0  0  0  0  0  0
    5.5151    2.7963    0.0126 C   0  0  0  0  0  0  0  0  0  0  0  0
   -5.9775    0.7659    1.1399 C   0  0  0  0  0  0  0  0  0  0  0  0
   -6.2110   -0.5089    0.3750 C   0  0  0  0  0  0  0  0  0  0  0  0
   -6.4377   -0.6298   -0.9465 C   0  0  0  0  0  0  0  0  0  0  0  0
   -6.7013   -1.9158   -1.6725 C   0  0  0  0  0  0  0  0  0  0  0  0
   -6.4571    0.6421   -1.7235 C   0  0  0  0  0  0  0  0  0  0  0  0
    0.8497   -2.0690   -0.0912 H   0  0  0  0  0  0  0  0  0  0  0  0
    2.0547    0.1122   -2.5142 H   0  0  0  0  0  0  0  0  0  0  0  0
    2.0288   -1.6108   -2.0038 H   0  0  0  0  0  0  0  0  0  0  0  0
    1.8799    1.7177    0.7087 H   0  0  0  0  0  0  0  0  0  0  0  0
    1.4877    1.8452   -0.9894 H   0  0  0  0  0  0  0  0  0  0  0  0
    4.7568   -0.9521    0.7078 H   0  0  0  0  0  0  0  0  0  0  0  0
   -0.2875    2.1048    1.0386 H   0  0  0  0  0  0  0  0  0  0  0  0
   -0.6433    1.8678   -0.6506 H   0  0  0  0  0  0  0  0  0  0  0  0
    1.9184   -2.8820    1.9310 H   0  0  0  0  0  0  0  0  0  0  0  0
    2.8036   -1.3670    2.1395 H   0  0  0  0  0  0  0  0  0  0  0  0
    3.4420    1.7939   -1.3894 H   0  0  0  0  0  0  0  0  0  0  0  0
    4.8050    0.8157   -1.7436 H   0  0  0  0  0  0  0  0  0  0  0  0
   -1.9215    0.9213    2.2668 H   0  0  0  0  0  0  0  0  0  0  0  0
    4.1513   -3.1598    1.0359 H   0  0  0  0  0  0  0  0  0  0  0  0
    3.0097   -3.1795   -0.2996 H   0  0  0  0  0  0  0  0  0  0  0  0
   -1.0147   -2.6966    1.1710 H   0  0  0  0  0  0  0  0  0  0  0  0
   -0.5803   -2.4043    2.8466 H   0  0  0  0  0  0  0  0  0  0  0  0
   -3.0583   -1.8016    1.6773 H   0  0  0  0  0  0  0  0  0  0  0  0
   -2.4839   -1.0956    3.1928 H   0  0  0  0  0  0  0  0  0  0  0  0
    1.0415   -0.8030    3.4253 H   0  0  0  0  0  0  0  0  0  0  0  0
   -0.2152    0.3981    3.3112 H   0  0  0  0  0  0  0  0  0  0  0  0
    1.3297    0.6768    2.5236 H   0  0  0  0  0  0  0  0  0  0  0  0
   -1.8347   -1.5556   -0.6252 H   0  0  0  0  0  0  0  0  0  0  0  0
   -1.9558    0.0222   -1.3892 H   0  0  0  0  0  0  0  0  0  0  0  0
   -0.4528   -0.8339   -1.4301 H   0  0  0  0  0  0  0  0  0  0  0  0
   -3.7055   -0.0717    0.0411 H   0  0  0  0  0  0  0  0  0  0  0  0
    4.0726    1.6815    1.1005 H   0  0  0  0  0  0  0  0  0  0  0  0
    5.5489    0.8191    0.6276 H   0  0  0  0  0  0  0  0  0  0  0  0
   -4.5797   -0.0772    2.5191 H   0  0  0  0  0  0  0  0  0  0  0  0
   -4.4930    1.6682    2.4198 H   0  0  0  0  0  0  0  0  0  0  0  0
    6.8735   -0.5137   -0.8002 H   0  0  0  0  0  0  0  0  0  0  0  0
    6.9111   -2.0136    0.1553 H   0  0  0  0  0  0  0  0  0  0  0  0
    7.3379   -2.0383   -1.5572 H   0  0  0  0  0  0  0  0  0  0  0  0
   -2.6946    1.9255   -0.8213 H   0  0  0  0  0  0  0  0  0  0  0  0
   -4.1766    2.4803   -0.1286 H   0  0  0  0  0  0  0  0  0  0  0  0
   -2.6911    2.7149    0.7769 H   0  0  0  0  0  0  0  0  0  0  0  0
    3.8263   -2.6885   -2.5308 H   0  0  0  0  0  0  0  0  0  0  0  0
    5.6020   -2.8133   -2.9904 H   0  0  0  0  0  0  0  0  0  0  0  0
   -6.7450    0.8288    1.9217 H   0  0  0  0  0  0  0  0  0  0  0  0
   -6.0916    1.6732    0.5465 H   0  0  0  0  0  0  0  0  0  0  0  0
    6.6688    4.0878    0.9042 H   0  0  0  0  0  0  0  0  0  0  0  0
   -6.2068   -1.4180    0.9745 H   0  0  0  0  0  0  0  0  0  0  0  0
   -7.6533   -1.8601   -2.2101 H   0  0  0  0  0  0  0  0  0  0  0  0
   -5.9043   -2.1182   -2.3947 H   0  0  0  0  0  0  0  0  0  0  0  0
   -6.7542   -2.7644   -0.9827 H   0  0  0  0  0  0  0  0  0  0  0  0
   -5.4881    1.4655   -3.1978 H   0  0  0  0  0  0  0  0  0  0  0  0
  1 29  1  0  0  0  0
  1 75  1  0  0  0  0
  2 29  2  0  0  0  0
  3 34  1  0  0  0  0
  3 80  1  0  0  0  0
  4 34  2  0  0  0  0
  5  6  1  0  0  0  0
  5  7  1  0  0  0  0
  5  8  1  0  0  0  0
  5 11  1  0  0  0  0
  6  8  1  0  0  0  0
  6 12  1  0  0  0  0
  6 15  1  0  0  0  0
  7  9  1  0  0  0  0
  7 14  1  0  0  0  0
  7 35  1  0  0  0  0
  8 36  1  0  0  0  0
  8 37  1  0  0  0  0
  9 10  1  0  0  0  0
  9 18  1  0  0  0  0
  9 20  1  0  0  0  0
 10 13  1  0  0  0  0
 10 16  1  0  0  0  0
 10 21  1  0  0  0  0
 11 13  1  0  0  0  0
 11 38  1  0  0  0  0
 11 39  1  0  0  0  0
 12 17  1  0  0  0  0
 12 22  1  0  0  0  0
 12 40  1  0  0  0  0
 13 41  1  0  0  0  0
 13 42  1  0  0  0  0
 14 17  1  0  0  0  0
 14 43  1  0  0  0  0
 14 44  1  0  0  0  0
 15 24  1  0  0  0  0
 15 45  1  0  0  0  0
 15 46  1  0  0  0  0
 16 19  1  0  0  0  0
 16 23  1  0  0  0  0
 16 47  1  0  0  0  0
 17 48  1  0  0  0  0
 17 49  1  0  0  0  0
 18 19  1  0  0  0  0
 18 50  1  0  0  0  0
 18 51  1  0  0  0  0
 19 52  1  0  0  0  0
 19 53  1  0  0  0  0
 20 54  1  0  0  0  0
 20 55  1  0  0  0  0
 20 56  1  0  0  0  0
 21 57  1  0  0  0  0
 21 58  1  0  0  0  0
 21 59  1  0  0  0  0
 22 26  1  0  0  0  0
 22 28  2  0  0  0  0
 23 25  1  0  0  0  0
 23 27  1  0  0  0  0
 23 60  1  0  0  0  0
 24 29  1  0  0  0  0
 24 61  1  0  0  0  0
 24 62  1  0  0  0  0
 25 30  1  0  0  0  0
 25 63  1  0  0  0  0
 25 64  1  0  0  0  0
 26 65  1  0  0  0  0
 26 66  1  0  0  0  0
 26 67  1  0  0  0  0
 27 68  1  0  0  0  0
 27 69  1  0  0  0  0
 27 70  1  0  0  0  0
 28 71  1  0  0  0  0
 28 72  1  0  0  0  0
 30 31  1  0  0  0  0
 30 73  1  0  0  0  0
 30 74  1  0  0  0  0
 31 32  2  0  0  0  0
 31 76  1  0  0  0  0
 32 33  1  0  0  0  0
 32 34  1  0  0  0  0
 33 77  1  0  0  0  0
 33 78  1  0  0  0  0
 33 79  1  0  0  0  0
M  END
> <PUBCHEM_COMPOUND_CID>
6474316

> <PUBCHEM_CONFORMER_RMSD>
1

> <PUBCHEM_CONFORMER_DIVERSEORDER>
3
42
30
17
39
11
8
27
22
44
16
34
10
41
6
26
4
24
14
32
37
15
38
23
25
36
21
28
31
43
20
1
40
29
9
18
19
35
33
13
12
5
2
7

> <PUBCHEM_MMFF94_PARTIAL_CHARGES>
28
1 -0.65
11 0.09
12 0.23
15 0.09
2 -0.57
22 -0.28
24 0.06
26 0.14
28 -0.3
29 0.66
3 -0.65
30 0.14
31 -0.29
32 -0.12
33 0.14
34 0.71
36 0.1
37 0.1
4 -0.57
5 -0.19
6 -0.19
7 0.09
71 0.15
72 0.15
75 0.5
76 0.15
8 -0.2
80 0.5

> <PUBCHEM_EFFECTIVE_ROTOR_COUNT>
10.8

> <PUBCHEM_PHARMACOPHORE_FEATURES>
12
1 1 acceptor
1 2 acceptor
1 27 hydrophobe
1 3 acceptor
1 33 hydrophobe
1 4 acceptor
3 1 2 29 anion
3 3 4 34 anion
4 23 25 30 31 hydrophobe
5 9 10 16 18 19 rings
6 5 7 9 10 11 13 rings
7 5 6 7 8 12 14 17 rings

> <PUBCHEM_HEAVY_ATOM_COUNT>
34

> <PUBCHEM_ATOM_DEF_STEREO_COUNT>
7

> <PUBCHEM_ATOM_UDEF_STEREO_COUNT>
1

> <PUBCHEM_BOND_DEF_STEREO_COUNT>
1

> <PUBCHEM_BOND_UDEF_STEREO_COUNT>
0

> <PUBCHEM_ISOTOPIC_ATOM_COUNT>
0

> <PUBCHEM_COMPONENT_COUNT>
1

> <PUBCHEM_CACTVS_TAUTO_COUNT>
1

> <PUBCHEM_CONFORMER_ID>
0062CA4C00000003

> <PUBCHEM_MMFF94_ENERGY>
125.3095

> <PUBCHEM_FEATURE_SELFOVERLAP>
61.11

> <PUBCHEM_SHAPE_FINGERPRINT>
10076449 9 10951783997173116504
11475781 23 17748819722494013741
12107698 1 18341340976999445756
12120059 20 14691993855970149037
12166972 35 17346318163613655610
12236239 1 17988932140998263395
12373685 5 18339071696785287546
12422481 6 10663822983936594073
13782708 43 18341905047406951807
13811026 1 18333732438102672032
13878862 14 18410011048932595804
14856354 85 16773804667361313833
14955137 171 12175622901911260603
15082195 135 18270679912578252392
15183329 4 18410291368399631983
15684393 108 17988070202009300127
15799311 1 16415479354896186519
20775438 99 18411418436258549722
21033648 144 18259992595643047563
21033648 29 17167584886792947729
21223535 225 18118127974171998693
21781051 124 15267071362848714732
21859007 373 17095512989875770412
23081809 10 17560808714580674553
23522609 53 16987743288549038737
23559900 14 18042990769098480254
23569914 152 17179659487287588847
249057 25 17560533802356112752
25222932 49 15123213391415591751
4015057 19 18341902912971580625
439807 62 17418092131735287519
6697151 62 18266750082692118194
6700243 42 15050916138388007976
70251023 43 18199755752489555054
7495541 125 16200145487374657451

> <PUBCHEM_SHAPE_MULTIPOLES>
676.23
18.57
2.89
2.3
15.4
1.33
-0.1
2.76
10.39
-5.74
0.38
2.19
-0.63
0.5

> <PUBCHEM_SHAPE_SELFOVERLAP>
1417.743

> <PUBCHEM_SHAPE_VOLUME>
382.3

> <PUBCHEM_COORDINATE_TYPE>
2
5
10

$$$$
