72188601
  -OEChem-08262007543D

 76 81  0     1  0  0  0  0  0999 V2000
    6.5535    0.2798    0.4053 O   0  0  0  0  0  0  0  0  0  0  0  0
   -5.2619    0.6383    0.5857 O   0  0  0  0  0  0  0  0  0  0  0  0
    7.0287    2.2421   -0.6540 O   0  0  0  0  0  0  0  0  0  0  0  0
   -6.8764    0.8649    2.1507 O   0  0  0  0  0  0  0  0  0  0  0  0
    1.9548    0.3090    0.0615 C   0  0  2  0  0  0  0  0  0  0  0  0
    3.5085    0.4127    0.2603 C   0  0  2  0  0  0  0  0  0  0  0  0
    1.3207   -1.1019   -0.0235 C   0  0  2  0  0  0  0  0  0  0  0  0
    2.8738    0.6768   -1.0849 C   0  0  0  0  0  0  0  0  0  0  0  0
   -0.1765   -1.1102    0.3813 C   0  0  1  0  0  0  0  0  0  0  0  0
   -0.9071    0.0674   -0.3458 C   0  0  2  0  0  0  0  0  0  0  0  0
    4.3461   -0.8619    0.4826 C   0  0  1  0  0  0  0  0  0  0  0  0
    1.0608    1.4407    0.5958 C   0  0  0  0  0  0  0  0  0  0  0  0
    2.1719   -2.1344    0.7210 C   0  0  0  0  0  0  0  0  0  0  0  0
   -0.4399    1.3943    0.2553 C   0  0  0  0  0  0  0  0  0  0  0  0
    3.5817   -2.1539    0.1430 C   0  0  0  0  0  0  0  0  0  0  0  0
   -2.3969   -0.2861   -0.0913 C   0  0  2  0  0  0  0  0  0  0  0  0
   -0.9823   -2.3217   -0.1362 C   0  0  0  0  0  0  0  0  0  0  0  0
    4.0290    1.6071    0.9818 C   0  0  0  0  0  0  0  0  0  0  0  0
   -2.4381   -1.8243   -0.2406 C   0  0  0  0  0  0  0  0  0  0  0  0
    5.7654   -0.7981   -0.1822 C   0  0  0  0  0  0  0  0  0  0  0  0
   -0.3255   -1.1117    1.9345 C   0  0  0  0  0  0  0  0  0  0  0  0
   -0.6539    0.1319   -1.8837 C   0  0  0  0  0  0  0  0  0  0  0  0
   -3.4390    0.4146   -0.9557 C   0  0  1  0  0  0  0  0  0  0  0  0
    5.2464    2.1542    0.8940 C   0  0  0  0  0  0  0  0  0  0  0  0
    6.5801   -2.0585    0.1780 C   0  0  0  0  0  0  0  0  0  0  0  0
    5.7733   -0.6717   -1.7141 C   0  0  0  0  0  0  0  0  0  0  0  0
   -4.8399   -0.0636   -0.6020 C   0  0  2  0  0  0  0  0  0  0  0  0
    6.3075    1.5681    0.0677 C   0  0  0  0  0  0  0  0  0  0  0  0
   -3.3366    1.9311   -0.8013 C   0  0  0  0  0  0  0  0  0  0  0  0
   -5.8188    0.1912   -1.7364 C   0  0  0  0  0  0  0  0  0  0  0  0
   -7.1983   -0.0974   -1.2503 C   0  0  0  0  0  0  0  0  0  0  0  0
   -6.5476    0.5288    1.0177 C   0  0  0  0  0  0  0  0  0  0  0  0
   -7.5427    0.0173    0.0402 C   0  0  0  0  0  0  0  0  0  0  0  0
   -8.9208   -0.2747    0.5454 C   0  0  0  0  0  0  0  0  0  0  0  0
    1.3565   -1.4040   -1.0797 H   0  0  0  0  0  0  0  0  0  0  0  0
    3.0039   -0.0439   -1.8848 H   0  0  0  0  0  0  0  0  0  0  0  0
    2.8527    1.6947   -1.4623 H   0  0  0  0  0  0  0  0  0  0  0  0
    4.5158   -0.8971    1.5707 H   0  0  0  0  0  0  0  0  0  0  0  0
    1.4408    2.4160    0.2640 H   0  0  0  0  0  0  0  0  0  0  0  0
    1.1597    1.4568    1.6879 H   0  0  0  0  0  0  0  0  0  0  0  0
    1.7282   -3.1309    0.6134 H   0  0  0  0  0  0  0  0  0  0  0  0
    2.2296   -1.9122    1.7927 H   0  0  0  0  0  0  0  0  0  0  0  0
   -1.0000    1.6259    1.1703 H   0  0  0  0  0  0  0  0  0  0  0  0
   -0.6410    2.2292   -0.4237 H   0  0  0  0  0  0  0  0  0  0  0  0
    4.1058   -3.0173    0.5682 H   0  0  0  0  0  0  0  0  0  0  0  0
    3.5333   -2.3151   -0.9395 H   0  0  0  0  0  0  0  0  0  0  0  0
   -2.6420   -0.0481    0.9523 H   0  0  0  0  0  0  0  0  0  0  0  0
   -0.9092   -3.1988    0.5160 H   0  0  0  0  0  0  0  0  0  0  0  0
   -0.6320   -2.6406   -1.1250 H   0  0  0  0  0  0  0  0  0  0  0  0
    3.3448    2.1085    1.6615 H   0  0  0  0  0  0  0  0  0  0  0  0
   -2.8611   -2.1444   -1.1996 H   0  0  0  0  0  0  0  0  0  0  0  0
   -3.0457   -2.2688    0.5560 H   0  0  0  0  0  0  0  0  0  0  0  0
   -1.3595   -0.9993    2.2701 H   0  0  0  0  0  0  0  0  0  0  0  0
    0.0178   -2.0638    2.3564 H   0  0  0  0  0  0  0  0  0  0  0  0
    0.2557   -0.3267    2.4208 H   0  0  0  0  0  0  0  0  0  0  0  0
   -0.9679   -0.7824   -2.3968 H   0  0  0  0  0  0  0  0  0  0  0  0
    0.3967    0.2920   -2.1329 H   0  0  0  0  0  0  0  0  0  0  0  0
   -1.1830    0.9621   -2.3590 H   0  0  0  0  0  0  0  0  0  0  0  0
   -3.2645    0.1557   -2.0074 H   0  0  0  0  0  0  0  0  0  0  0  0
    5.4826    3.0697    1.4252 H   0  0  0  0  0  0  0  0  0  0  0  0
    7.6289   -1.9420   -0.1214 H   0  0  0  0  0  0  0  0  0  0  0  0
    5.3321    0.2684   -2.0556 H   0  0  0  0  0  0  0  0  0  0  0  0
    5.2458   -1.4986   -2.1981 H   0  0  0  0  0  0  0  0  0  0  0  0
    6.5891   -2.2202    1.2621 H   0  0  0  0  0  0  0  0  0  0  0  0
    6.1929   -2.9590   -0.3085 H   0  0  0  0  0  0  0  0  0  0  0  0
    6.8032   -0.6635   -2.0917 H   0  0  0  0  0  0  0  0  0  0  0  0
   -4.8544   -1.1341   -0.3677 H   0  0  0  0  0  0  0  0  0  0  0  0
   -3.2197    2.2354    0.2444 H   0  0  0  0  0  0  0  0  0  0  0  0
   -4.2265    2.4413   -1.1841 H   0  0  0  0  0  0  0  0  0  0  0  0
   -2.5086    2.3468   -1.3774 H   0  0  0  0  0  0  0  0  0  0  0  0
   -5.5810   -0.4626   -2.5833 H   0  0  0  0  0  0  0  0  0  0  0  0
   -5.7969    1.2239   -2.0989 H   0  0  0  0  0  0  0  0  0  0  0  0
   -7.9319   -0.4136   -1.9863 H   0  0  0  0  0  0  0  0  0  0  0  0
   -8.8863   -1.0498    1.3180 H   0  0  0  0  0  0  0  0  0  0  0  0
   -9.5825   -0.6302   -0.2516 H   0  0  0  0  0  0  0  0  0  0  0  0
   -9.3723    0.6255    0.9750 H   0  0  0  0  0  0  0  0  0  0  0  0
  1 20  1  0  0  0  0
  1 28  1  0  0  0  0
  2 27  1  0  0  0  0
  2 32  1  0  0  0  0
  3 28  2  0  0  0  0
  4 32  2  0  0  0  0
  5  6  1  0  0  0  0
  5  7  1  0  0  0  0
  5  8  1  0  0  0  0
  5 12  1  0  0  0  0
  6  8  1  0  0  0  0
  6 11  1  0  0  0  0
  6 18  1  0  0  0  0
  7  9  1  0  0  0  0
  7 13  1  0  0  0  0
  7 35  1  0  0  0  0
  8 36  1  0  0  0  0
  8 37  1  0  0  0  0
  9 10  1  0  0  0  0
  9 17  1  0  0  0  0
  9 21  1  0  0  0  0
 10 14  1  0  0  0  0
 10 16  1  0  0  0  0
 10 22  1  0  0  0  0
 11 15  1  0  0  0  0
 11 20  1  0  0  0  0
 11 38  1  0  0  0  0
 12 14  1  0  0  0  0
 12 39  1  0  0  0  0
 12 40  1  0  0  0  0
 13 15  1  0  0  0  0
 13 41  1  0  0  0  0
 13 42  1  0  0  0  0
 14 43  1  0  0  0  0
 14 44  1  0  0  0  0
 15 45  1  0  0  0  0
 15 46  1  0  0  0  0
 16 19  1  0  0  0  0
 16 23  1  0  0  0  0
 16 47  1  0  0  0  0
 17 19  1  0  0  0  0
 17 48  1  0  0  0  0
 17 49  1  0  0  0  0
 18 24  2  0  0  0  0
 18 50  1  0  0  0  0
 19 51  1  0  0  0  0
 19 52  1  0  0  0  0
 20 25  1  0  0  0  0
 20 26  1  0  0  0  0
 21 53  1  0  0  0  0
 21 54  1  0  0  0  0
 21 55  1  0  0  0  0
 22 56  1  0  0  0  0
 22 57  1  0  0  0  0
 22 58  1  0  0  0  0
 23 27  1  0  0  0  0
 23 29  1  0  0  0  0
 23 59  1  0  0  0  0
 24 28  1  0  0  0  0
 24 60  1  0  0  0  0
 25 61  1  0  0  0  0
 25 64  1  0  0  0  0
 25 65  1  0  0  0  0
 26 62  1  0  0  0  0
 26 63  1  0  0  0  0
 26 66  1  0  0  0  0
 27 30  1  0  0  0  0
 27 67  1  0  0  0  0
 29 68  1  0  0  0  0
 29 69  1  0  0  0  0
 29 70  1  0  0  0  0
 30 31  1  0  0  0  0
 30 71  1  0  0  0  0
 30 72  1  0  0  0  0
 31 33  2  0  0  0  0
 31 73  1  0  0  0  0
 32 33  1  0  0  0  0
 33 34  1  0  0  0  0
 34 74  1  0  0  0  0
 34 75  1  0  0  0  0
 34 76  1  0  0  0  0
M  END
> <PUBCHEM_COMPOUND_CID>
72188601

> <PUBCHEM_CONFORMER_RMSD>
0.8

> <PUBCHEM_CONFORMER_DIVERSEORDER>
1
7
10
9
5
11
8
3
2
4
6

> <PUBCHEM_MMFF94_PARTIAL_CHARGES>
25
1 -0.43
11 0.09
12 0.09
18 -0.19
2 -0.43
20 0.28
24 -0.14
27 0.28
28 0.71
3 -0.57
30 0.14
31 -0.29
32 0.71
33 -0.12
34 0.14
36 0.1
37 0.1
4 -0.57
5 -0.19
50 0.15
6 -0.05
60 0.15
7 0.09
73 0.15
8 -0.2

> <PUBCHEM_EFFECTIVE_ROTOR_COUNT>
4.6

> <PUBCHEM_PHARMACOPHORE_FEATURES>
9
1 29 hydrophobe
1 3 acceptor
1 4 acceptor
3 20 25 26 hydrophobe
5 9 10 16 17 19 rings
6 2 27 30 31 32 33 rings
6 5 7 9 10 12 14 rings
7 1 6 11 18 20 24 28 rings
7 5 6 7 8 11 13 15 rings

> <PUBCHEM_HEAVY_ATOM_COUNT>
34

> <PUBCHEM_ATOM_DEF_STEREO_COUNT>
9

> <PUBCHEM_ATOM_UDEF_STEREO_COUNT>
0

> <PUBCHEM_BOND_DEF_STEREO_COUNT>
0

> <PUBCHEM_BOND_UDEF_STEREO_COUNT>
0

> <PUBCHEM_ISOTOPIC_ATOM_COUNT>
0

> <PUBCHEM_COMPONENT_COUNT>
1

> <PUBCHEM_CACTVS_TAUTO_COUNT>
1

> <PUBCHEM_CONFORMER_ID>
044D82B900000001

> <PUBCHEM_MMFF94_ENERGY>
154.432

> <PUBCHEM_FEATURE_SELFOVERLAP>
45.764

> <PUBCHEM_SHAPE_FINGERPRINT>
10 15 17458341970112978577
10299344 5 17917991676981724909
10411042 1 17979071584342776506
10816530 90 17604157029832272132
10906281 52 18202293506139621286
11007060 377 18408038520692742603
11456790 92 18272087175818582472
11578080 2 17201335602581652922
11646440 116 18187365432606480909
12089408 11 17775283864285203541
12166972 35 18411699876600994640
12236239 1 17632856421281932139
12730499 353 18260265222823916466
12788726 201 17418381267957663200
13533116 47 18272366447930801874
13617811 41 17894352180963543588
13782708 43 17604987001200563115
13914758 101 16702308940153660147
14170010 4 18187365428564162612
14251764 18 17989204858932413141
14849402 71 18272090535005883521
14856354 85 16702296885061584773
15183329 4 18273208695085687471
15276724 80 18343580716128680901
15301273 46 17530680996531190309
15461852 350 15985093104206660245
1577012 14 17847061086673273249
15840311 113 18410294730994917565
15849732 13 17385723603706744823
16090146 7 17489317390095301318
18608769 82 18187928421530859171
19319366 153 18187356606327654370
19611394 137 17676781958794968769
21033648 29 18265604567690182048
21267235 1 18339924822870488622
21521721 280 18407760330875578387
21781051 124 17822306707497261371
21792961 116 18041000579785060834
22224240 67 17748826332680816811
23516275 137 17560260058311115887
23522609 53 17917165973588105881
23559900 14 18339633559452430752
23569943 247 18126849291750727839
255183 451 17558279726769748582
2747138 104 17749398061595116961
3009799 131 12103845653194568219
3178227 256 18187089459878145097
335352 9 18411699881623592022
34797466 226 18202566172723593870
350125 39 18408321098721628574
397830 11 17314241131902764633
4073 2 18187646963681497778
4093350 32 17418374693016613222
4098825 35 17274830120904607677
4258327 124 17459204022000461076
4340502 62 17240480299362938874
437795 51 18334856129979450291
5104073 3 18336818797095971554
5265222 85 15912753024898306677
5758199 1 18413671322972273731
59682541 35 17894354410636644945
59755656 215 18260543398848823958
6086070 43 17631731702449242835
6328613 192 18343864437615419235

> <PUBCHEM_SHAPE_MULTIPOLES>
676.23
21.98
2.16
1.41
22.14
0.22
-0.05
-3.99
0.65
-3.38
0.29
1.17
-0.12
0.09

> <PUBCHEM_SHAPE_SELFOVERLAP>
1464.463

> <PUBCHEM_SHAPE_VOLUME>
367.4

> <PUBCHEM_COORDINATE_TYPE>
2
5
10

$$$$
