16211586
  -OEChem-08262008193D

 26 27  0     1  0  0  0  0  0999 V2000
    1.6161   -0.1721    0.1377 C   0  0  0  0  0  0  0  0  0  0  0  0
    0.5584   -0.5992   -0.8495 C   0  0  2  0  0  0  0  0  0  0  0  0
    0.8277    0.8687   -0.6005 C   0  0  1  0  0  0  0  0  0  0  0  0
   -0.7254   -1.2014   -0.3439 C   0  0  0  0  0  0  0  0  0  0  0  0
    3.0374   -0.3674   -0.2733 C   0  0  0  0  0  0  0  0  0  0  0  0
    1.4071   -0.3340    1.6073 C   0  0  0  0  0  0  0  0  0  0  0  0
   -0.2420    1.6112    0.0709 C   0  0  0  0  0  0  0  0  0  0  0  0
   -1.8991   -0.1973   -0.3576 C   0  0  2  0  0  0  0  0  0  0  0  0
   -1.5016    1.1597    0.1777 C   0  0  0  0  0  0  0  0  0  0  0  0
   -3.0787   -0.7681    0.4312 C   0  0  0  0  0  0  0  0  0  0  0  0
    0.8597   -1.0054   -1.8073 H   0  0  0  0  0  0  0  0  0  0  0  0
    1.3221    1.4202   -1.3928 H   0  0  0  0  0  0  0  0  0  0  0  0
   -0.5985   -1.6410    0.6516 H   0  0  0  0  0  0  0  0  0  0  0  0
   -0.9872   -2.0475   -0.9931 H   0  0  0  0  0  0  0  0  0  0  0  0
    3.6880    0.3572    0.2283 H   0  0  0  0  0  0  0  0  0  0  0  0
    3.3799   -1.3736   -0.0082 H   0  0  0  0  0  0  0  0  0  0  0  0
    3.1807   -0.2453   -1.3530 H   0  0  0  0  0  0  0  0  0  0  0  0
    0.3891   -0.1404    1.9558 H   0  0  0  0  0  0  0  0  0  0  0  0
    1.6638   -1.3545    1.9136 H   0  0  0  0  0  0  0  0  0  0  0  0
    2.0627    0.3498    2.1590 H   0  0  0  0  0  0  0  0  0  0  0  0
    0.0013    2.5933    0.4652 H   0  0  0  0  0  0  0  0  0  0  0  0
   -2.2276   -0.0510   -1.3954 H   0  0  0  0  0  0  0  0  0  0  0  0
   -2.2567    1.7902    0.6375 H   0  0  0  0  0  0  0  0  0  0  0  0
   -2.8249   -0.9074    1.4882 H   0  0  0  0  0  0  0  0  0  0  0  0
   -3.9455   -0.0999    0.3798 H   0  0  0  0  0  0  0  0  0  0  0  0
   -3.3828   -1.7387    0.0250 H   0  0  0  0  0  0  0  0  0  0  0  0
  1  2  1  0  0  0  0
  1  3  1  0  0  0  0
  1  5  1  0  0  0  0
  1  6  1  0  0  0  0
  2  3  1  0  0  0  0
  2  4  1  0  0  0  0
  2 11  1  0  0  0  0
  3  7  1  0  0  0  0
  3 12  1  0  0  0  0
  4  8  1  0  0  0  0
  4 13  1  0  0  0  0
  4 14  1  0  0  0  0
  5 15  1  0  0  0  0
  5 16  1  0  0  0  0
  5 17  1  0  0  0  0
  6 18  1  0  0  0  0
  6 19  1  0  0  0  0
  6 20  1  0  0  0  0
  7  9  2  0  0  0  0
  7 21  1  0  0  0  0
  8  9  1  0  0  0  0
  8 10  1  0  0  0  0
  8 22  1  0  0  0  0
  9 23  1  0  0  0  0
 10 24  1  0  0  0  0
 10 25  1  0  0  0  0
 10 26  1  0  0  0  0
M  END
> <PUBCHEM_COMPOUND_CID>
16211586

> <PUBCHEM_CONFORMER_RMSD>
0.4

> <PUBCHEM_CONFORMER_DIVERSEORDER>
1

> <PUBCHEM_MMFF94_PARTIAL_CHARGES>
13
1 -0.19
11 0.1
12 0.1
2 -0.19
21 0.15
23 0.15
3 -0.06
4 0.09
5 0.09
6 0.09
7 -0.19
8 0.14
9 -0.29

> <PUBCHEM_EFFECTIVE_ROTOR_COUNT>
0.6

> <PUBCHEM_PHARMACOPHORE_FEATURES>
2
3 1 5 6 hydrophobe
7 1 2 3 4 7 8 9 rings

> <PUBCHEM_HEAVY_ATOM_COUNT>
10

> <PUBCHEM_ATOM_DEF_STEREO_COUNT>
3

> <PUBCHEM_ATOM_UDEF_STEREO_COUNT>
0

> <PUBCHEM_BOND_DEF_STEREO_COUNT>
0

> <PUBCHEM_BOND_UDEF_STEREO_COUNT>
0

> <PUBCHEM_ISOTOPIC_ATOM_COUNT>
0

> <PUBCHEM_COMPONENT_COUNT>
1

> <PUBCHEM_CACTVS_TAUTO_COUNT>
1

> <PUBCHEM_CONFORMER_ID>
00F75E8200000001

> <PUBCHEM_MMFF94_ENERGY>
25.0061

> <PUBCHEM_FEATURE_SELFOVERLAP>
10.148

> <PUBCHEM_SHAPE_FINGERPRINT>
10219947 1 18273218624833804575
10857977 72 18342731931843062497
12423570 1 8015077859742485212
14128692 85 18041566939319594279
15310529 11 16660636349954681191
16945 1 18273206500046078470
18185500 45 18187640314654820091
20653091 64 18116432746400662465
21040471 1 17908142075215115749
21922407 69 17531805723621895384
23235685 24 18342174410686293701
2748010 2 18127136264442748495
29004967 10 18411140246545802171
5084963 1 17989204845551535079
68250623 7 17831874807847475430

> <PUBCHEM_SHAPE_MULTIPOLES>
205.8
3.69
1.36
1.04
0.4
0.39
-0.33
-1
-0.34
0.41
0.04
-0.36
-0.13
-0.04

> <PUBCHEM_SHAPE_SELFOVERLAP>
422.096

> <PUBCHEM_SHAPE_VOLUME>
120.4

> <PUBCHEM_COORDINATE_TYPE>
2
5
10

$$$$
