52914006
  -OEChem-08262007573D

 78 81  0     1  0  0  0  0  0999 V2000
   -4.0575    4.3155    0.3682 O   0  0  0  0  0  0  0  0  0  0  0  0
   -6.0050    3.1952    0.7016 O   0  0  0  0  0  0  0  0  0  0  0  0
    7.3477    1.5483   -1.8400 O   0  0  0  0  0  0  0  0  0  0  0  0
    6.4238   -0.4722   -1.3796 O   0  0  0  0  0  0  0  0  0  0  0  0
   -1.8892   -0.4699    0.5205 C   0  0  1  0  0  0  0  0  0  0  0  0
   -3.3785   -0.3620    0.2518 C   0  0  2  0  0  0  0  0  0  0  0  0
   -2.8955   -1.3552    1.2584 C   0  0  0  0  0  0  0  0  0  0  0  0
   -1.1044   -0.9050   -0.7331 C   0  0  1  0  0  0  0  0  0  0  0  0
    0.4382   -0.8670   -0.4967 C   0  0  1  0  0  0  0  0  0  0  0  0
   -1.1967    0.5739    1.3768 C   0  0  0  0  0  0  0  0  0  0  0  0
   -3.8991   -0.8268   -1.0919 C   0  0  1  0  0  0  0  0  0  0  0  0
    0.8038   -1.0297    1.0151 C   0  0  2  0  0  0  0  0  0  0  0  0
   -1.6767   -2.1879   -1.3437 C   0  0  0  0  0  0  0  0  0  0  0  0
    0.2243    0.1554    1.8204 C   0  0  0  0  0  0  0  0  0  0  0  0
   -4.0856    0.8515    0.7823 C   0  0  0  0  0  0  0  0  0  0  0  0
   -3.1970   -2.1086   -1.6021 C   0  0  0  0  0  0  0  0  0  0  0  0
    1.3130   -1.9575   -1.1502 C   0  0  0  0  0  0  0  0  0  0  0  0
    2.3148   -1.1793    0.9102 C   0  0  0  0  0  0  0  0  0  0  0  0
    0.9397    0.5021   -1.0909 C   0  0  0  0  0  0  0  0  0  0  0  0
    2.6565   -1.8664   -0.3983 C   0  0  0  0  0  0  0  0  0  0  0  0
   -5.3846   -1.0493   -1.1304 C   0  0  0  0  0  0  0  0  0  0  0  0
    0.3466   -2.3583    1.6806 C   0  0  0  0  0  0  0  0  0  0  0  0
   -4.1185    1.9998   -0.2177 C   0  0  0  0  0  0  0  0  0  0  0  0
    3.2311   -0.7237    1.7728 C   0  0  0  0  0  0  0  0  0  0  0  0
   -5.9178   -2.1145   -0.2189 C   0  0  0  0  0  0  0  0  0  0  0  0
   -6.1879   -0.3364   -1.9340 C   0  0  0  0  0  0  0  0  0  0  0  0
   -4.8359    3.2059    0.3376 C   0  0  0  0  0  0  0  0  0  0  0  0
    4.7135   -0.8253    1.4834 C   0  0  0  0  0  0  0  0  0  0  0  0
    2.8353   -0.0495    3.0569 C   0  0  0  0  0  0  0  0  0  0  0  0
    5.4206    0.5308    1.3561 C   0  0  0  0  0  0  0  0  0  0  0  0
    4.7919    1.4096    0.3071 C   0  0  0  0  0  0  0  0  0  0  0  0
    5.1664    1.5556   -0.9781 C   0  0  0  0  0  0  0  0  0  0  0  0
    4.5165    2.4546   -1.9883 C   0  0  0  0  0  0  0  0  0  0  0  0
    6.3460    0.7466   -1.4061 C   0  0  0  0  0  0  0  0  0  0  0  0
   -2.9469   -2.4135    1.0389 H   0  0  0  0  0  0  0  0  0  0  0  0
   -3.0857   -1.1580    2.3092 H   0  0  0  0  0  0  0  0  0  0  0  0
   -1.3156   -0.1301   -1.4859 H   0  0  0  0  0  0  0  0  0  0  0  0
   -1.7548    0.7975    2.2930 H   0  0  0  0  0  0  0  0  0  0  0  0
   -1.1471    1.5180    0.8230 H   0  0  0  0  0  0  0  0  0  0  0  0
   -3.6336   -0.0544   -1.8270 H   0  0  0  0  0  0  0  0  0  0  0  0
   -1.1758   -2.4063   -2.2946 H   0  0  0  0  0  0  0  0  0  0  0  0
   -1.4732   -3.0422   -0.6866 H   0  0  0  0  0  0  0  0  0  0  0  0
    0.8502    1.0494    1.7279 H   0  0  0  0  0  0  0  0  0  0  0  0
    0.1603   -0.0870    2.8866 H   0  0  0  0  0  0  0  0  0  0  0  0
   -5.1179    0.5767    1.0378 H   0  0  0  0  0  0  0  0  0  0  0  0
   -3.6816    1.2116    1.7335 H   0  0  0  0  0  0  0  0  0  0  0  0
   -3.3747   -2.2010   -2.6826 H   0  0  0  0  0  0  0  0  0  0  0  0
   -3.6272   -3.0178   -1.1684 H   0  0  0  0  0  0  0  0  0  0  0  0
    1.4493   -1.8089   -2.2272 H   0  0  0  0  0  0  0  0  0  0  0  0
    0.8907   -2.9597   -1.0209 H   0  0  0  0  0  0  0  0  0  0  0  0
    0.3830    1.3593   -0.7052 H   0  0  0  0  0  0  0  0  0  0  0  0
    0.8148    0.5078   -2.1809 H   0  0  0  0  0  0  0  0  0  0  0  0
    1.9961    0.7001   -0.8932 H   0  0  0  0  0  0  0  0  0  0  0  0
    3.3618   -1.2751   -0.9915 H   0  0  0  0  0  0  0  0  0  0  0  0
    3.0691   -2.8675   -0.2378 H   0  0  0  0  0  0  0  0  0  0  0  0
    0.7178   -3.2499    1.1638 H   0  0  0  0  0  0  0  0  0  0  0  0
    0.7196   -2.4237    2.7107 H   0  0  0  0  0  0  0  0  0  0  0  0
   -0.7326   -2.4648    1.7421 H   0  0  0  0  0  0  0  0  0  0  0  0
   -3.0939    2.2873   -0.4827 H   0  0  0  0  0  0  0  0  0  0  0  0
   -4.6188    1.7640   -1.1570 H   0  0  0  0  0  0  0  0  0  0  0  0
   -7.0140   -2.1009   -0.1974 H   0  0  0  0  0  0  0  0  0  0  0  0
   -5.5894   -1.9671    0.8134 H   0  0  0  0  0  0  0  0  0  0  0  0
   -5.6276   -3.1164   -0.5448 H   0  0  0  0  0  0  0  0  0  0  0  0
   -5.7994    0.4206   -2.6062 H   0  0  0  0  0  0  0  0  0  0  0  0
   -7.2594   -0.5065   -1.9513 H   0  0  0  0  0  0  0  0  0  0  0  0
    5.1799   -1.3791    2.3094 H   0  0  0  0  0  0  0  0  0  0  0  0
    4.9265   -1.4258    0.5943 H   0  0  0  0  0  0  0  0  0  0  0  0
    3.6730   -0.0993    3.7645 H   0  0  0  0  0  0  0  0  0  0  0  0
    2.0257   -0.5640    3.5762 H   0  0  0  0  0  0  0  0  0  0  0  0
    2.6229    1.0128    2.9154 H   0  0  0  0  0  0  0  0  0  0  0  0
    6.4865    0.3677    1.1608 H   0  0  0  0  0  0  0  0  0  0  0  0
    5.3850    1.0668    2.3130 H   0  0  0  0  0  0  0  0  0  0  0  0
   -4.5413    5.0927    0.7207 H   0  0  0  0  0  0  0  0  0  0  0  0
    3.9343    1.9888    0.6471 H   0  0  0  0  0  0  0  0  0  0  0  0
    3.6332    2.9515   -1.5740 H   0  0  0  0  0  0  0  0  0  0  0  0
    4.1967    1.8748   -2.8600 H   0  0  0  0  0  0  0  0  0  0  0  0
    5.2140    3.2296   -2.3207 H   0  0  0  0  0  0  0  0  0  0  0  0
    8.1322    1.0332   -2.1257 H   0  0  0  0  0  0  0  0  0  0  0  0
  1 27  1  0  0  0  0
  1 73  1  0  0  0  0
  2 27  2  0  0  0  0
  3 34  1  0  0  0  0
  3 78  1  0  0  0  0
  4 34  2  0  0  0  0
  5  6  1  0  0  0  0
  5  7  1  0  0  0  0
  5  8  1  0  0  0  0
  5 10  1  0  0  0  0
  6  7  1  0  0  0  0
  6 11  1  0  0  0  0
  6 15  1  0  0  0  0
  7 35  1  0  0  0  0
  7 36  1  0  0  0  0
  8  9  1  0  0  0  0
  8 13  1  0  0  0  0
  8 37  1  0  0  0  0
  9 12  1  0  0  0  0
  9 17  1  0  0  0  0
  9 19  1  0  0  0  0
 10 14  1  0  0  0  0
 10 38  1  0  0  0  0
 10 39  1  0  0  0  0
 11 16  1  0  0  0  0
 11 21  1  0  0  0  0
 11 40  1  0  0  0  0
 12 14  1  0  0  0  0
 12 18  1  0  0  0  0
 12 22  1  0  0  0  0
 13 16  1  0  0  0  0
 13 41  1  0  0  0  0
 13 42  1  0  0  0  0
 14 43  1  0  0  0  0
 14 44  1  0  0  0  0
 15 23  1  0  0  0  0
 15 45  1  0  0  0  0
 15 46  1  0  0  0  0
 16 47  1  0  0  0  0
 16 48  1  0  0  0  0
 17 20  1  0  0  0  0
 17 49  1  0  0  0  0
 17 50  1  0  0  0  0
 18 20  1  0  0  0  0
 18 24  2  0  0  0  0
 19 51  1  0  0  0  0
 19 52  1  0  0  0  0
 19 53  1  0  0  0  0
 20 54  1  0  0  0  0
 20 55  1  0  0  0  0
 21 25  1  0  0  0  0
 21 26  2  0  0  0  0
 22 56  1  0  0  0  0
 22 57  1  0  0  0  0
 22 58  1  0  0  0  0
 23 27  1  0  0  0  0
 23 59  1  0  0  0  0
 23 60  1  0  0  0  0
 24 28  1  0  0  0  0
 24 29  1  0  0  0  0
 25 61  1  0  0  0  0
 25 62  1  0  0  0  0
 25 63  1  0  0  0  0
 26 64  1  0  0  0  0
 26 65  1  0  0  0  0
 28 30  1  0  0  0  0
 28 66  1  0  0  0  0
 28 67  1  0  0  0  0
 29 68  1  0  0  0  0
 29 69  1  0  0  0  0
 29 70  1  0  0  0  0
 30 31  1  0  0  0  0
 30 71  1  0  0  0  0
 30 72  1  0  0  0  0
 31 32  2  0  0  0  0
 31 74  1  0  0  0  0
 32 33  1  0  0  0  0
 32 34  1  0  0  0  0
 33 75  1  0  0  0  0
 33 76  1  0  0  0  0
 33 77  1  0  0  0  0
M  END
> <PUBCHEM_COMPOUND_CID>
52914006

> <PUBCHEM_CONFORMER_RMSD>
1

> <PUBCHEM_CONFORMER_DIVERSEORDER>
4
99
60
49
69
3
85
86
34
98
108
29
71
112
50
75
93
97
6
105
57
113
115
52
54
63
102
44
91
68
109
82
39
58
65
33
83
73
107
35
51
10
72
101
42
77
36
59
48
104
25
32
45
55
9
100
20
94
114
38
8
87
110
47
80
23
61
56
90
103
12
74
70
30
2
88
7
66
78
62
84
37
89
111
40
43
79
46
15
31
67
95
92
26
76
28
64
17
11
106
5
22
27
24
41
96
21
1
18
81
14
16
13
19
53

> <PUBCHEM_MMFF94_PARTIAL_CHARGES>
34
1 -0.65
10 0.09
11 0.23
12 0.14
15 0.09
18 -0.28
2 -0.57
20 0.14
21 -0.28
23 0.06
24 -0.28
25 0.14
26 -0.3
27 0.66
28 0.14
29 0.14
3 -0.65
30 0.14
31 -0.29
32 -0.12
33 0.14
34 0.71
35 0.1
36 0.1
4 -0.57
5 -0.19
6 -0.19
64 0.15
65 0.15
7 -0.2
73 0.5
74 0.15
78 0.5
8 0.09

> <PUBCHEM_EFFECTIVE_ROTOR_COUNT>
9.6

> <PUBCHEM_PHARMACOPHORE_FEATURES>
12
1 1 acceptor
1 2 acceptor
1 29 hydrophobe
1 3 acceptor
1 33 hydrophobe
1 4 acceptor
3 1 2 27 anion
3 3 4 34 anion
4 24 28 30 31 hydrophobe
5 9 12 17 18 20 rings
6 5 8 9 10 12 14 rings
7 5 6 7 8 11 13 16 rings

> <PUBCHEM_HEAVY_ATOM_COUNT>
34

> <PUBCHEM_ATOM_DEF_STEREO_COUNT>
4

> <PUBCHEM_ATOM_UDEF_STEREO_COUNT>
2

> <PUBCHEM_BOND_DEF_STEREO_COUNT>
2

> <PUBCHEM_BOND_UDEF_STEREO_COUNT>
0

> <PUBCHEM_ISOTOPIC_ATOM_COUNT>
0

> <PUBCHEM_COMPONENT_COUNT>
1

> <PUBCHEM_CACTVS_TAUTO_COUNT>
1

> <PUBCHEM_CONFORMER_ID>
0327675600000004

> <PUBCHEM_MMFF94_ENERGY>
121.1614

> <PUBCHEM_FEATURE_SELFOVERLAP>
61.116

> <PUBCHEM_SHAPE_FINGERPRINT>
10 15 13406794445743713590
10670039 82 18344149198142202812
11578080 2 18129951053086113141
1200032 147 18127427661100225649
12236239 1 18262223500066771867
12403259 415 17345735474222676891
12596602 18 17748817540761650483
12788726 201 18411132563540341371
13383661 66 13323143674059432045
13383665 225 18343028762014087813
13782708 43 15410895201306602926
14294032 229 18272939281052936209
14347332 77 13830144896322104826
14840074 17 17967811682486238518
14856354 85 18269555104105072655
15001296 14 18055625368149616400
15082195 135 18338784642060198045
15183329 4 16916798404910892558
15575132 122 18343585152702991637
17980427 23 18333731291404608341
18603816 31 12247678275208880797
20567600 247 11743834747082199484
21033648 29 17631143369740093347
21033650 10 18271535238050518201
21130935 74 15430304811805742035
21315764 119 18059303076289678726
22122407 14 18113904891706636904
22393880 68 17418366999970582778
23559900 14 16915936464392029474
23569914 152 14688931436935906937
249057 25 18187911868462753840
2838139 119 18335712675861614524
34797466 226 17131264796127312920
3552219 110 18186803617573549293
392239 28 16732976536077691288
394071 54 16805044017230399108
397830 11 12613045993444999348
4058900 60 18334294240736050371
4093350 32 17749100080816696078
4173938 77 17168724036695557356
46194498 28 16557894783815517280
550186 7 17917425385586478605
6608658 132 18409163307802830525

> <PUBCHEM_SHAPE_MULTIPOLES>
676.23
16.31
3.19
2.26
7.72
3.23
0.42
8.39
-6.6
-4.26
-0.14
2.19
-0.17
-3.23

> <PUBCHEM_SHAPE_SELFOVERLAP>
1425.589

> <PUBCHEM_SHAPE_VOLUME>
380.6

> <PUBCHEM_COORDINATE_TYPE>
2
5
10

$$$$
