71591177
  -OEChem-08262007593D

 74 78  0     1  0  0  0  0  0999 V2000
   -1.5651    0.8600    1.5290 O   0  0  0  0  0  0  0  0  0  0  0  0
   -3.4747   -0.3289   -2.4906 O   0  0  0  0  0  0  0  0  0  0  0  0
   -6.3893    1.1021    0.6400 O   0  0  0  0  0  0  0  0  0  0  0  0
    4.9322    0.4731    0.5784 O   0  0  0  0  0  0  0  0  0  0  0  0
   -7.7182    0.0889    2.1446 O   0  0  0  0  0  0  0  0  0  0  0  0
    5.2028    2.5418    1.4470 O   0  0  0  0  0  0  0  0  0  0  0  0
   -1.0200   -0.1216   -0.6586 C   0  0  1  0  0  0  0  0  0  0  0  0
    0.5206    0.0785   -0.5732 C   0  0  1  0  0  0  0  0  0  0  0  0
   -1.4654   -0.3636    0.8021 C   0  0  1  0  0  0  0  0  0  0  0  0
    0.8823   -0.9252    0.5095 C   0  0  0  0  0  0  0  0  0  0  0  0
   -0.3046   -1.1909    1.4052 C   0  0  0  0  0  0  0  0  0  0  0  0
   -1.7629    1.0068   -1.3813 C   0  0  0  0  0  0  0  0  0  0  0  0
    1.2274   -0.2801   -1.9041 C   0  0  0  0  0  0  0  0  0  0  0  0
   -3.2655    0.7832   -1.6219 C   0  0  2  0  0  0  0  0  0  0  0  0
   -4.1433    0.6879   -0.3347 C   0  0  2  0  0  0  0  0  0  0  0  0
    0.9639    1.4918   -0.1319 C   0  0  0  0  0  0  0  0  0  0  0  0
   -2.7889   -1.0806    0.8743 C   0  0  0  0  0  0  0  0  0  0  0  0
    2.0698   -1.5689    0.5329 C   0  0  0  0  0  0  0  0  0  0  0  0
   -3.9720   -0.6569    0.3778 C   0  0  0  0  0  0  0  0  0  0  0  0
    3.0510   -1.2966   -0.5292 C   0  0  0  0  0  0  0  0  0  0  0  0
    2.6499   -0.7202   -1.6801 C   0  0  0  0  0  0  0  0  0  0  0  0
   -5.6209    1.1497   -0.6032 C   0  0  0  0  0  0  0  0  0  0  0  0
    4.4843   -1.7000   -0.3305 C   0  0  2  0  0  0  0  0  0  0  0  0
    2.4247   -2.5938    1.5753 C   0  0  0  0  0  0  0  0  0  0  0  0
   -5.0890   -1.5727    0.5152 C   0  0  0  0  0  0  0  0  0  0  0  0
   -6.3623    0.4406   -1.7494 C   0  0  0  0  0  0  0  0  0  0  0  0
   -5.6551    2.6650   -0.9269 C   0  0  0  0  0  0  0  0  0  0  0  0
    5.3887   -0.4782   -0.4055 C   0  0  2  0  0  0  0  0  0  0  0  0
    4.8969   -2.7484   -1.3585 C   0  0  0  0  0  0  0  0  0  0  0  0
   -6.3473   -1.3035    0.8739 C   0  0  0  0  0  0  0  0  0  0  0  0
   -6.8624    0.0089    1.2677 C   0  0  0  0  0  0  0  0  0  0  0  0
    6.8411   -0.8433   -0.1465 C   0  0  0  0  0  0  0  0  0  0  0  0
    7.6338    0.4132   -0.0211 C   0  0  0  0  0  0  0  0  0  0  0  0
    5.6736    1.5828    0.8442 C   0  0  0  0  0  0  0  0  0  0  0  0
    7.0919    1.5639    0.4024 C   0  0  0  0  0  0  0  0  0  0  0  0
    7.8719    2.8350    0.5278 C   0  0  0  0  0  0  0  0  0  0  0  0
   -1.2025   -1.0500   -1.2237 H   0  0  0  0  0  0  0  0  0  0  0  0
   -0.0826   -0.8852    2.4335 H   0  0  0  0  0  0  0  0  0  0  0  0
   -0.5268   -2.2642    1.3848 H   0  0  0  0  0  0  0  0  0  0  0  0
   -1.6431    1.9522   -0.8391 H   0  0  0  0  0  0  0  0  0  0  0  0
   -1.2856    1.1471   -2.3600 H   0  0  0  0  0  0  0  0  0  0  0  0
    1.2198    0.5873   -2.5756 H   0  0  0  0  0  0  0  0  0  0  0  0
    0.7058   -1.0869   -2.4342 H   0  0  0  0  0  0  0  0  0  0  0  0
   -3.5832    1.6565   -2.1983 H   0  0  0  0  0  0  0  0  0  0  0  0
   -3.7596    1.4348    0.3763 H   0  0  0  0  0  0  0  0  0  0  0  0
    0.6754    2.2474   -0.8704 H   0  0  0  0  0  0  0  0  0  0  0  0
    2.0533    1.5553   -0.0237 H   0  0  0  0  0  0  0  0  0  0  0  0
    0.5439    1.7894    0.8324 H   0  0  0  0  0  0  0  0  0  0  0  0
   -2.7622   -2.0509    1.3711 H   0  0  0  0  0  0  0  0  0  0  0  0
    3.3430   -0.5519   -2.4987 H   0  0  0  0  0  0  0  0  0  0  0  0
   -1.8212    0.6493    2.4434 H   0  0  0  0  0  0  0  0  0  0  0  0
    4.6332   -2.1448    0.6574 H   0  0  0  0  0  0  0  0  0  0  0  0
    3.1891   -2.2075    2.2576 H   0  0  0  0  0  0  0  0  0  0  0  0
    2.7846   -3.5189    1.1117 H   0  0  0  0  0  0  0  0  0  0  0  0
    1.5684   -2.8742    2.1963 H   0  0  0  0  0  0  0  0  0  0  0  0
   -2.9299   -0.1919   -3.2841 H   0  0  0  0  0  0  0  0  0  0  0  0
   -4.8465   -2.6248    0.3620 H   0  0  0  0  0  0  0  0  0  0  0  0
   -6.2935   -0.6479   -1.6999 H   0  0  0  0  0  0  0  0  0  0  0  0
   -5.9691    0.7383   -2.7273 H   0  0  0  0  0  0  0  0  0  0  0  0
   -5.1289    3.2421   -0.1575 H   0  0  0  0  0  0  0  0  0  0  0  0
   -5.2215    2.9089   -1.9002 H   0  0  0  0  0  0  0  0  0  0  0  0
   -6.6887    3.0337   -0.9269 H   0  0  0  0  0  0  0  0  0  0  0  0
   -7.4305    0.6862   -1.7268 H   0  0  0  0  0  0  0  0  0  0  0  0
    5.3077    0.0082   -1.3878 H   0  0  0  0  0  0  0  0  0  0  0  0
    5.0145   -2.3258   -2.3625 H   0  0  0  0  0  0  0  0  0  0  0  0
    4.1559   -3.5544   -1.4184 H   0  0  0  0  0  0  0  0  0  0  0  0
    5.8462   -3.2208   -1.0843 H   0  0  0  0  0  0  0  0  0  0  0  0
   -7.0402   -2.1319    0.9975 H   0  0  0  0  0  0  0  0  0  0  0  0
    7.2464   -1.4320   -0.9760 H   0  0  0  0  0  0  0  0  0  0  0  0
    6.9604   -1.4242    0.7754 H   0  0  0  0  0  0  0  0  0  0  0  0
    8.6852    0.3706   -0.2907 H   0  0  0  0  0  0  0  0  0  0  0  0
    7.8971    3.1700    1.5699 H   0  0  0  0  0  0  0  0  0  0  0  0
    7.4155    3.6228   -0.0805 H   0  0  0  0  0  0  0  0  0  0  0  0
    8.9075    2.7150    0.1923 H   0  0  0  0  0  0  0  0  0  0  0  0
  1  9  1  0  0  0  0
  1 51  1  0  0  0  0
  2 14  1  0  0  0  0
  2 56  1  0  0  0  0
  3 22  1  0  0  0  0
  3 31  1  0  0  0  0
  4 28  1  0  0  0  0
  4 34  1  0  0  0  0
  5 31  2  0  0  0  0
  6 34  2  0  0  0  0
  7  8  1  0  0  0  0
  7  9  1  0  0  0  0
  7 12  1  0  0  0  0
  7 37  1  0  0  0  0
  8 10  1  0  0  0  0
  8 13  1  0  0  0  0
  8 16  1  0  0  0  0
  9 11  1  0  0  0  0
  9 17  1  0  0  0  0
 10 11  1  0  0  0  0
 10 18  2  0  0  0  0
 11 38  1  0  0  0  0
 11 39  1  0  0  0  0
 12 14  1  0  0  0  0
 12 40  1  0  0  0  0
 12 41  1  0  0  0  0
 13 21  1  0  0  0  0
 13 42  1  0  0  0  0
 13 43  1  0  0  0  0
 14 15  1  0  0  0  0
 14 44  1  0  0  0  0
 15 19  1  0  0  0  0
 15 22  1  0  0  0  0
 15 45  1  0  0  0  0
 16 46  1  0  0  0  0
 16 47  1  0  0  0  0
 16 48  1  0  0  0  0
 17 19  2  0  0  0  0
 17 49  1  0  0  0  0
 18 20  1  0  0  0  0
 18 24  1  0  0  0  0
 19 25  1  0  0  0  0
 20 21  2  0  0  0  0
 20 23  1  0  0  0  0
 21 50  1  0  0  0  0
 22 26  1  0  0  0  0
 22 27  1  0  0  0  0
 23 28  1  0  0  0  0
 23 29  1  0  0  0  0
 23 52  1  0  0  0  0
 24 53  1  0  0  0  0
 24 54  1  0  0  0  0
 24 55  1  0  0  0  0
 25 30  2  0  0  0  0
 25 57  1  0  0  0  0
 26 58  1  0  0  0  0
 26 59  1  0  0  0  0
 26 63  1  0  0  0  0
 27 60  1  0  0  0  0
 27 61  1  0  0  0  0
 27 62  1  0  0  0  0
 28 32  1  0  0  0  0
 28 64  1  0  0  0  0
 29 65  1  0  0  0  0
 29 66  1  0  0  0  0
 29 67  1  0  0  0  0
 30 31  1  0  0  0  0
 30 68  1  0  0  0  0
 32 33  1  0  0  0  0
 32 69  1  0  0  0  0
 32 70  1  0  0  0  0
 33 35  2  0  0  0  0
 33 71  1  0  0  0  0
 34 35  1  0  0  0  0
 35 36  1  0  0  0  0
 36 72  1  0  0  0  0
 36 73  1  0  0  0  0
 36 74  1  0  0  0  0
M  END
> <PUBCHEM_COMPOUND_CID>
71591177

> <PUBCHEM_CONFORMER_RMSD>
0.8

> <PUBCHEM_CONFORMER_DIVERSEORDER>
2
136
165
125
123
113
80
62
53
121
149
152
151
173
157
48
73
138
77
49
40
3
166
164
54
98
95
50
150
156
74
32
111
120
55
134
153
22
92
104
1
146
148
130
144
96
19
52
44
81
170
135
82
119
76
142
101
114
106
67
140
109
143
27
64
133
131
172
116
36
102
45
71
161
171
14
12
63
89
132
88
97
68
61
86
155
17
122
41
115
46
87
169
117
158
58
11
15
99
30
128
69
159
9
154
59
85
124
78
91
110
25
163
21
34
79
23
75
13
18
26
129
35
33
100
8
127
83
29
6
56
39
118
90
28
37
103
66
10
139
84
4
24
70
145
174
47
160
72
105
43
108
65
147
167
107
57
20
16
112
126
31
141
94
38
93
168
42
60
51
137
7
162
5

> <PUBCHEM_MMFF94_PARTIAL_CHARGES>
37
1 -0.68
10 -0.28
11 0.14
13 0.14
14 0.28
15 0.14
17 -0.29
18 -0.14
19 -0.14
2 -0.68
20 -0.14
21 -0.29
22 0.28
23 0.14
24 0.14
25 -0.15
28 0.28
3 -0.43
30 -0.14
31 0.71
32 0.14
33 -0.29
34 0.71
35 -0.12
36 0.14
4 -0.43
49 0.15
5 -0.57
50 0.15
51 0.4
56 0.4
57 0.15
6 -0.57
68 0.15
71 0.15
8 0.14
9 0.42

> <PUBCHEM_EFFECTIVE_ROTOR_COUNT>
3.8

> <PUBCHEM_PHARMACOPHORE_FEATURES>
13
1 1 acceptor
1 1 donor
1 2 acceptor
1 2 donor
1 29 hydrophobe
1 5 acceptor
1 6 acceptor
3 22 26 27 hydrophobe
5 7 8 9 10 11 rings
6 4 28 32 33 34 35 rings
6 8 10 13 18 20 21 rings
7 3 15 19 22 25 30 31 rings
7 7 9 12 14 15 17 19 rings

> <PUBCHEM_HEAVY_ATOM_COUNT>
36

> <PUBCHEM_ATOM_DEF_STEREO_COUNT>
3

> <PUBCHEM_ATOM_UDEF_STEREO_COUNT>
4

> <PUBCHEM_BOND_DEF_STEREO_COUNT>
0

> <PUBCHEM_BOND_UDEF_STEREO_COUNT>
0

> <PUBCHEM_ISOTOPIC_ATOM_COUNT>
0

> <PUBCHEM_COMPONENT_COUNT>
1

> <PUBCHEM_CACTVS_TAUTO_COUNT>
1

> <PUBCHEM_CONFORMER_ID>
0444650900000002

> <PUBCHEM_MMFF94_ENERGY>
136.8889

> <PUBCHEM_FEATURE_SELFOVERLAP>
66.068

> <PUBCHEM_SHAPE_FINGERPRINT>
10 15 18040151829316141368
10835480 77 18412542085232465173
10906281 52 16271935912903496143
11181472 205 17130443293527336633
11456790 92 18335972092255493744
11479125 193 17914320536385190672
11497681 19 18057315305449243007
12236239 1 17203607081845693711
12838862 33 17095793357689597341
13560911 43 15864360167753247357
13811026 1 18186799183985670748
13914758 101 11963379739768985087
14118638 360 17603582994283234259
14251764 18 14779269713444765222
14840074 17 17203889669224520516
14849402 71 18342741870160918376
14856354 85 15574720218201154691
150020 25 18408885118391120598
15183329 4 16271927134143544216
15276724 80 18059297552508730801
15328829 1 16486982825069609312
15419008 47 18260827090435465196
1577012 14 16128656336110243095
18608769 82 17894918442731998715
19319366 153 16486972852535811470
19377110 9 16081084853380571505
20157964 124 18202004318345762614
20511986 3 17967523554368231355
21033648 29 18188203312876339824
21130935 74 17749669584552530251
21315759 40 13479141211207858235
21521721 280 18343866615058719890
21814621 53 18263929839017612271
22149856 69 17605007922634712073
23522609 53 16630259068583008225
23559900 14 18186801383230686941
23576562 1 14907602558665116497
24771293 8 18187928434552807436
255183 451 17272585928464902966
3383291 50 17168154463765064531
34797466 226 18272938189513745934
397830 11 18408886260599038319
4093350 32 18060143115736558262
4169191 19 18202285809611085001
4340502 62 18260829298206442718
437795 51 18412543232458075896
44317340 157 18272368659796800290
4625314 4 18272656757898353502
49967989 163 14404601260782978677
504579 68 15698002933463404744
5104073 3 17677328308393589105
5109719 28 18260274083415417976
6328613 192 15051726512584632739

> <PUBCHEM_SHAPE_MULTIPOLES>
705.65
22.37
2.45
1.77
5.09
0.38
-0.38
8.61
4.85
2.86
0.4
-1.29
-0.06
3.12

> <PUBCHEM_SHAPE_SELFOVERLAP>
1525.751

> <PUBCHEM_SHAPE_VOLUME>
382.9

> <PUBCHEM_COORDINATE_TYPE>
2
5
10

$$$$
