138112788
  -OEChem-08262008023D

 72 77  0     1  0  0  0  0  0999 V2000
    2.1082    0.4962    2.6308 O   0  0  0  0  0  0  0  0  0  0  0  0
   -0.6722   -2.2006   -2.3994 O   0  0  0  0  0  0  0  0  0  0  0  0
    0.9200   -3.5736   -0.1932 O   0  0  0  0  0  0  0  0  0  0  0  0
   -0.6589    0.6293   -1.7318 O   0  0  0  0  0  0  0  0  0  0  0  0
    4.2612    2.4425    1.9821 O   0  0  0  0  0  0  0  0  0  0  0  0
   -0.7743    1.8779    1.6126 O   0  0  0  0  0  0  0  0  0  0  0  0
    4.4859    3.3253   -0.2492 O   0  0  0  0  0  0  0  0  0  0  0  0
   -3.1010    0.6212    2.4496 O   0  0  0  0  0  0  0  0  0  0  0  0
   -3.4080   -2.0367    1.5336 O   0  0  0  0  0  0  0  0  0  0  0  0
    3.1234   -3.4643    0.4920 O   0  0  0  0  0  0  0  0  0  0  0  0
   -0.8517    2.8691   -2.2269 O   0  0  0  0  0  0  0  0  0  0  0  0
    0.3890   -0.2022    1.0528 C   0  0  2  0  0  0  0  0  0  0  0  0
    0.7292   -2.0354   -2.1130 C   0  0  1  0  0  0  0  0  0  0  0  0
    1.1911   -0.6696   -2.7467 C   0  0  1  0  0  0  0  0  0  0  0  0
    0.9678   -2.1875   -0.5720 C   0  0  1  0  0  0  0  0  0  0  0  0
   -0.0297   -1.4623    0.3234 C   0  0  0  0  0  0  0  0  0  0  0  0
    1.4367    0.6564    0.4082 C   0  0  0  0  0  0  0  0  0  0  0  0
    0.7218    0.6583   -2.0710 C   0  0  2  0  0  0  0  0  0  0  0  0
    1.5682    1.1259   -0.9048 C   0  0  0  0  0  0  0  0  0  0  0  0
    1.1580   -0.5566    2.3524 C   0  0  0  0  0  0  0  0  0  0  0  0
    2.3359    1.0530    1.4043 C   0  0  0  0  0  0  0  0  0  0  0  0
   -0.8346    0.6575    1.4620 C   0  0  0  0  0  0  0  0  0  0  0  0
    1.3748   -3.2156   -2.8747 C   0  0  0  0  0  0  0  0  0  0  0  0
    2.7015   -0.6245   -3.0468 C   0  0  0  0  0  0  0  0  0  0  0  0
   -1.2666   -1.9654    0.5240 C   0  0  0  0  0  0  0  0  0  0  0  0
    2.6009    2.0597   -1.1631 C   0  0  0  0  0  0  0  0  0  0  0  0
    3.3296    1.9488    1.1308 C   0  0  0  0  0  0  0  0  0  0  0  0
   -2.1147   -0.0434    1.7588 C   0  0  0  0  0  0  0  0  0  0  0  0
    3.4513    2.4474   -0.1388 C   0  0  0  0  0  0  0  0  0  0  0  0
   -2.2628   -1.3001    1.3232 C   0  0  0  0  0  0  0  0  0  0  0  0
    4.9944    3.3191    1.1015 C   0  0  0  0  0  0  0  0  0  0  0  0
    2.0751   -4.0726    0.3243 C   0  0  0  0  0  0  0  0  0  0  0  0
   -1.3284    1.8078   -1.8557 C   0  0  0  0  0  0  0  0  0  0  0  0
    1.8783   -5.5173    0.6709 C   0  0  0  0  0  0  0  0  0  0  0  0
   -2.7537    1.6447   -1.4729 C   0  0  0  0  0  0  0  0  0  0  0  0
   -2.6477    1.0058    3.7346 C   0  0  0  0  0  0  0  0  0  0  0  0
   -3.2937   -2.8222    2.7049 C   0  0  0  0  0  0  0  0  0  0  0  0
   -3.4563    2.7178   -0.9250 C   0  0  0  0  0  0  0  0  0  0  0  0
   -3.3903    0.4183   -1.6630 C   0  0  0  0  0  0  0  0  0  0  0  0
   -4.7958    2.5646   -0.5669 C   0  0  0  0  0  0  0  0  0  0  0  0
   -4.7297    0.2650   -1.3050 C   0  0  0  0  0  0  0  0  0  0  0  0
   -5.4325    1.3380   -0.7569 C   0  0  0  0  0  0  0  0  0  0  0  0
    0.6974   -0.6427   -3.7316 H   0  0  0  0  0  0  0  0  0  0  0  0
    1.9678   -1.7912   -0.3735 H   0  0  0  0  0  0  0  0  0  0  0  0
    0.8470    1.4068   -2.8683 H   0  0  0  0  0  0  0  0  0  0  0  0
    0.4973   -0.6549    3.2218 H   0  0  0  0  0  0  0  0  0  0  0  0
    1.7277   -1.4914    2.2644 H   0  0  0  0  0  0  0  0  0  0  0  0
    1.2699   -3.0882   -3.9589 H   0  0  0  0  0  0  0  0  0  0  0  0
    0.8725   -4.1627   -2.6433 H   0  0  0  0  0  0  0  0  0  0  0  0
    2.4375   -3.3262   -2.6374 H   0  0  0  0  0  0  0  0  0  0  0  0
    2.9876   -1.3826   -3.7824 H   0  0  0  0  0  0  0  0  0  0  0  0
    3.3005   -0.7880   -2.1457 H   0  0  0  0  0  0  0  0  0  0  0  0
    2.9866    0.3373   -3.4861 H   0  0  0  0  0  0  0  0  0  0  0  0
   -1.5727   -2.8881    0.0384 H   0  0  0  0  0  0  0  0  0  0  0  0
    2.7460    2.4659   -2.1604 H   0  0  0  0  0  0  0  0  0  0  0  0
   -0.8009   -2.1439   -3.3615 H   0  0  0  0  0  0  0  0  0  0  0  0
    4.9448    4.3391    1.4999 H   0  0  0  0  0  0  0  0  0  0  0  0
    6.0426    2.9993    1.0803 H   0  0  0  0  0  0  0  0  0  0  0  0
    1.0873   -5.6147    1.4188 H   0  0  0  0  0  0  0  0  0  0  0  0
    2.8053   -5.9190    1.0901 H   0  0  0  0  0  0  0  0  0  0  0  0
    1.6294   -6.0838   -0.2299 H   0  0  0  0  0  0  0  0  0  0  0  0
   -3.5288    1.2086    4.3518 H   0  0  0  0  0  0  0  0  0  0  0  0
   -2.0627    1.9291    3.6938 H   0  0  0  0  0  0  0  0  0  0  0  0
   -2.0746    0.2123    4.2289 H   0  0  0  0  0  0  0  0  0  0  0  0
   -4.2277   -3.3775    2.8341 H   0  0  0  0  0  0  0  0  0  0  0  0
   -3.1492   -2.1974    3.5931 H   0  0  0  0  0  0  0  0  0  0  0  0
   -2.4792   -3.5502    2.6214 H   0  0  0  0  0  0  0  0  0  0  0  0
   -2.9731    3.6784   -0.7668 H   0  0  0  0  0  0  0  0  0  0  0  0
   -2.8727   -0.4301   -2.1009 H   0  0  0  0  0  0  0  0  0  0  0  0
   -5.3426    3.3996   -0.1388 H   0  0  0  0  0  0  0  0  0  0  0  0
   -5.2259   -0.6895   -1.4545 H   0  0  0  0  0  0  0  0  0  0  0  0
   -6.4752    1.2183   -0.4778 H   0  0  0  0  0  0  0  0  0  0  0  0
  1 20  1  0  0  0  0
  1 21  1  0  0  0  0
  2 13  1  0  0  0  0
  2 56  1  0  0  0  0
  3 15  1  0  0  0  0
  3 32  1  0  0  0  0
  4 18  1  0  0  0  0
  4 33  1  0  0  0  0
  5 27  1  0  0  0  0
  5 31  1  0  0  0  0
  6 22  2  0  0  0  0
  7 29  1  0  0  0  0
  7 31  1  0  0  0  0
  8 28  1  0  0  0  0
  8 36  1  0  0  0  0
  9 30  1  0  0  0  0
  9 37  1  0  0  0  0
 10 32  2  0  0  0  0
 11 33  2  0  0  0  0
 12 16  1  0  0  0  0
 12 17  1  0  0  0  0
 12 20  1  0  0  0  0
 12 22  1  0  0  0  0
 13 14  1  0  0  0  0
 13 15  1  0  0  0  0
 13 23  1  0  0  0  0
 14 18  1  0  0  0  0
 14 24  1  0  0  0  0
 14 43  1  0  0  0  0
 15 16  1  0  0  0  0
 15 44  1  0  0  0  0
 16 25  2  0  0  0  0
 17 19  1  0  0  0  0
 17 21  2  0  0  0  0
 18 19  1  0  0  0  0
 18 45  1  0  0  0  0
 19 26  2  0  0  0  0
 20 46  1  0  0  0  0
 20 47  1  0  0  0  0
 21 27  1  0  0  0  0
 22 28  1  0  0  0  0
 23 48  1  0  0  0  0
 23 49  1  0  0  0  0
 23 50  1  0  0  0  0
 24 51  1  0  0  0  0
 24 52  1  0  0  0  0
 24 53  1  0  0  0  0
 25 30  1  0  0  0  0
 25 54  1  0  0  0  0
 26 29  1  0  0  0  0
 26 55  1  0  0  0  0
 27 29  2  0  0  0  0
 28 30  2  0  0  0  0
 31 57  1  0  0  0  0
 31 58  1  0  0  0  0
 32 34  1  0  0  0  0
 33 35  1  0  0  0  0
 34 59  1  0  0  0  0
 34 60  1  0  0  0  0
 34 61  1  0  0  0  0
 35 38  2  0  0  0  0
 35 39  1  0  0  0  0
 36 62  1  0  0  0  0
 36 63  1  0  0  0  0
 36 64  1  0  0  0  0
 37 65  1  0  0  0  0
 37 66  1  0  0  0  0
 37 67  1  0  0  0  0
 38 40  1  0  0  0  0
 38 68  1  0  0  0  0
 39 41  2  0  0  0  0
 39 69  1  0  0  0  0
 40 42  2  0  0  0  0
 40 70  1  0  0  0  0
 41 42  1  0  0  0  0
 41 71  1  0  0  0  0
 42 72  1  0  0  0  0
M  END
> <PUBCHEM_COMPOUND_CID>
138112788

> <PUBCHEM_CONFORMER_RMSD>
1

> <PUBCHEM_CONFORMER_DIVERSEORDER>
1
20
81
39
18
30
89
22
86
96
50
80
38
51
66
69
90
94
46
49
61
56
74
44
45
91
32
43
67
40
11
34
7
101
93
33
77
28
36
58
72
9
2
54
65
26
88
15
75
37
12
68
29
99
8
3
53
4
27
78
48
60
76
84
17
87
35
62
70
102
103
42
16
59
52
95
41
98
57
83
47
100
19
55
63
92
82
21
14
31
10
85
5
73
64
23
79
24
97
6
71
25
13

> <PUBCHEM_MMFF94_PARTIAL_CHARGES>
47
1 -0.36
10 -0.57
11 -0.57
12 0.34
13 0.28
15 0.42
16 -0.28
17 -0.14
18 0.42
19 -0.14
2 -0.68
20 0.28
21 0.08
22 0.49
25 -0.15
26 -0.15
27 0.08
28 0.09
29 0.08
3 -0.43
30 0.08
31 0.56
32 0.66
33 0.63
34 0.06
35 0.09
36 0.28
37 0.28
38 -0.15
39 -0.15
4 -0.43
40 -0.15
41 -0.15
42 -0.15
5 -0.36
54 0.15
55 0.15
56 0.4
6 -0.57
68 0.15
69 0.15
7 -0.36
70 0.15
71 0.15
72 0.15
8 -0.36
9 -0.36

> <PUBCHEM_EFFECTIVE_ROTOR_COUNT>
8.8

> <PUBCHEM_PHARMACOPHORE_FEATURES>
15
1 1 acceptor
1 10 acceptor
1 11 acceptor
1 2 acceptor
1 2 donor
1 5 acceptor
1 6 acceptor
1 7 acceptor
1 8 acceptor
1 9 acceptor
5 1 12 17 20 21 rings
5 5 7 27 29 31 rings
6 12 16 22 25 28 30 rings
6 17 19 21 26 27 29 rings
6 35 38 39 40 41 42 rings

> <PUBCHEM_HEAVY_ATOM_COUNT>
42

> <PUBCHEM_ATOM_DEF_STEREO_COUNT>
0

> <PUBCHEM_ATOM_UDEF_STEREO_COUNT>
5

> <PUBCHEM_BOND_DEF_STEREO_COUNT>
0

> <PUBCHEM_BOND_UDEF_STEREO_COUNT>
0

> <PUBCHEM_ISOTOPIC_ATOM_COUNT>
0

> <PUBCHEM_COMPONENT_COUNT>
1

> <PUBCHEM_CACTVS_TAUTO_COUNT>
-1

> <PUBCHEM_CONFORMER_ID>
083B6F1400000001

> <PUBCHEM_MMFF94_ENERGY>
150.6638

> <PUBCHEM_FEATURE_SELFOVERLAP>
76.395

> <PUBCHEM_SHAPE_FINGERPRINT>
10032420 55 17763514695431038246
11421498 54 17131826586656400469
11578080 2 18263946391874350937
11607047 403 18334847338445574775
11763715 3 17478617806823371758
12156800 1 17823430450918792159
12422481 6 16372382892812920376
12788726 201 17619876867268751214
133893 2 18130227034409398506
15439362 3 18192699068928719468
16114785 44 17836338807818666136
17980427 23 17700977639202122530
17980427 26 17273167689177048268
20600515 1 13984928675913195130
20764821 26 17750252326374445279
20775438 99 18260539027532797383
23419403 2 18056226684908379414
24941158 1 18267316343231102113
35225 105 17698986702933060726
394222 165 17846486007157234740
469060 322 17979351190459463799
5080951 261 17413013650571758752
513532 50 18336832979241292109
57527452 28 17910384323428041839
6287921 2 18191287304909986077
6376802 137 17326326628370400778

> <PUBCHEM_SHAPE_MULTIPOLES>
799.78
7.77
5.23
3.53
4.61
4.94
0.31
-6.43
0.92
-5.27
0.29
0.65
0.41
2.85

> <PUBCHEM_SHAPE_SELFOVERLAP>
1778.82

> <PUBCHEM_SHAPE_VOLUME>
419.5

> <PUBCHEM_COORDINATE_TYPE>
2
5
10

$$$$
