71591176
  -OEChem-08262007583D

 74 78  0     1  0  0  0  0  0999 V2000
   -1.4124    0.4559    2.5854 O   0  0  0  0  0  0  0  0  0  0  0  0
   -4.0659    0.9505   -1.9081 O   0  0  0  0  0  0  0  0  0  0  0  0
   -6.0607   -0.3918   -0.5646 O   0  0  0  0  0  0  0  0  0  0  0  0
    3.9448   -1.2226   -1.1024 O   0  0  0  0  0  0  0  0  0  0  0  0
   -6.5962   -1.8776   -2.1497 O   0  0  0  0  0  0  0  0  0  0  0  0
    3.4299   -2.7281    0.5000 O   0  0  0  0  0  0  0  0  0  0  0  0
    0.3840    2.0166    0.1502 C   0  0  2  0  0  0  0  0  0  0  0  0
   -1.0973    1.5240    0.3984 C   0  0  2  0  0  0  0  0  0  0  0  0
    1.1964    1.2735    1.2500 C   0  0  1  0  0  0  0  0  0  0  0  0
   -0.9850    0.2025    1.2369 C   0  0  1  0  0  0  0  0  0  0  0  0
    0.5189   -0.1038    1.3053 C   0  0  0  0  0  0  0  0  0  0  0  0
   -1.9438    1.4312   -0.8878 C   0  0  0  0  0  0  0  0  0  0  0  0
    2.6906    1.1337    0.9909 C   0  0  0  0  0  0  0  0  0  0  0  0
   -3.4621    1.2906   -0.6623 C   0  0  2  0  0  0  0  0  0  0  0  0
    0.4649    3.5434    0.3405 C   0  0  0  0  0  0  0  0  0  0  0  0
    0.9695    1.7068   -1.2191 C   0  0  0  0  0  0  0  0  0  0  0  0
   -1.7691   -0.9953    0.7554 C   0  0  0  0  0  0  0  0  0  0  0  0
   -3.8769    0.2868    0.4449 C   0  0  2  0  0  0  0  0  0  0  0  0
   -3.0546   -0.9849    0.3355 C   0  0  0  0  0  0  0  0  0  0  0  0
    3.1672    1.1741   -0.2732 C   0  0  0  0  0  0  0  0  0  0  0  0
    2.2424    1.3193   -1.3871 C   0  0  0  0  0  0  0  0  0  0  0  0
   -5.4111    0.0864    0.6393 C   0  0  0  0  0  0  0  0  0  0  0  0
    3.5219    0.9355    2.2289 C   0  0  0  0  0  0  0  0  0  0  0  0
    4.6098    1.0700   -0.6799 C   0  0  1  0  0  0  0  0  0  0  0  0
   -3.6090   -2.2085   -0.2092 C   0  0  0  0  0  0  0  0  0  0  0  0
   -6.0884    1.4520    0.8975 C   0  0  0  0  0  0  0  0  0  0  0  0
   -5.7736   -0.8066    1.8421 C   0  0  0  0  0  0  0  0  0  0  0  0
    4.8229   -0.1660   -1.5511 C   0  0  1  0  0  0  0  0  0  0  0  0
    5.0571    2.3350   -1.4048 C   0  0  0  0  0  0  0  0  0  0  0  0
   -4.7650   -2.4449   -0.8372 C   0  0  0  0  0  0  0  0  0  0  0  0
   -5.8577   -1.5463   -1.2235 C   0  0  0  0  0  0  0  0  0  0  0  0
    6.2652   -0.6496   -1.5877 C   0  0  0  0  0  0  0  0  0  0  0  0
    6.6025   -1.3689   -0.3272 C   0  0  0  0  0  0  0  0  0  0  0  0
    4.2645   -2.0084   -0.0393 C   0  0  0  0  0  0  0  0  0  0  0  0
    5.6751   -1.9801    0.4223 C   0  0  0  0  0  0  0  0  0  0  0  0
    6.0015   -2.7045    1.6906 C   0  0  0  0  0  0  0  0  0  0  0  0
   -1.5873    2.2718    1.0399 H   0  0  0  0  0  0  0  0  0  0  0  0
    1.0462    1.7904    2.2085 H   0  0  0  0  0  0  0  0  0  0  0  0
    0.8343   -0.7241    0.4557 H   0  0  0  0  0  0  0  0  0  0  0  0
    0.7950   -0.6345    2.2245 H   0  0  0  0  0  0  0  0  0  0  0  0
   -1.8007    2.3423   -1.4845 H   0  0  0  0  0  0  0  0  0  0  0  0
   -1.5894    0.6125   -1.5281 H   0  0  0  0  0  0  0  0  0  0  0  0
   -3.8409    2.2819   -0.3864 H   0  0  0  0  0  0  0  0  0  0  0  0
    0.1118    3.8394    1.3350 H   0  0  0  0  0  0  0  0  0  0  0  0
   -0.1523    4.0673   -0.3986 H   0  0  0  0  0  0  0  0  0  0  0  0
    1.4921    3.9126    0.2391 H   0  0  0  0  0  0  0  0  0  0  0  0
    0.3647    1.8600   -2.1074 H   0  0  0  0  0  0  0  0  0  0  0  0
   -1.2106   -1.9300    0.7090 H   0  0  0  0  0  0  0  0  0  0  0  0
   -3.5724    0.7607    1.3893 H   0  0  0  0  0  0  0  0  0  0  0  0
    2.5881    1.1456   -2.4004 H   0  0  0  0  0  0  0  0  0  0  0  0
   -1.2965   -0.3599    3.1024 H   0  0  0  0  0  0  0  0  0  0  0  0
    3.4775    1.8342    2.8531 H   0  0  0  0  0  0  0  0  0  0  0  0
    4.5734    0.7169    2.0438 H   0  0  0  0  0  0  0  0  0  0  0  0
    3.1298    0.0959    2.8129 H   0  0  0  0  0  0  0  0  0  0  0  0
    5.2460    0.9954    0.2044 H   0  0  0  0  0  0  0  0  0  0  0  0
   -3.8207    1.6364   -2.5523 H   0  0  0  0  0  0  0  0  0  0  0  0
   -2.9638   -3.0832   -0.1065 H   0  0  0  0  0  0  0  0  0  0  0  0
   -6.0350    2.1028    0.0182 H   0  0  0  0  0  0  0  0  0  0  0  0
   -5.6417    1.9719    1.7514 H   0  0  0  0  0  0  0  0  0  0  0  0
   -5.4062   -1.8305    1.7501 H   0  0  0  0  0  0  0  0  0  0  0  0
   -5.3757   -0.3924    2.7748 H   0  0  0  0  0  0  0  0  0  0  0  0
   -7.1592    1.3231    1.0980 H   0  0  0  0  0  0  0  0  0  0  0  0
   -6.8622   -0.8946    1.9415 H   0  0  0  0  0  0  0  0  0  0  0  0
    4.5313    0.0454   -2.5874 H   0  0  0  0  0  0  0  0  0  0  0  0
    4.5880    2.4525   -2.3876 H   0  0  0  0  0  0  0  0  0  0  0  0
    6.1406    2.3303   -1.5646 H   0  0  0  0  0  0  0  0  0  0  0  0
    4.8255    3.2292   -0.8142 H   0  0  0  0  0  0  0  0  0  0  0  0
   -4.9190   -3.4665   -1.1859 H   0  0  0  0  0  0  0  0  0  0  0  0
    6.9581    0.1823   -1.7476 H   0  0  0  0  0  0  0  0  0  0  0  0
    6.4063   -1.3508   -2.4193 H   0  0  0  0  0  0  0  0  0  0  0  0
    7.6463   -1.3868   -0.0270 H   0  0  0  0  0  0  0  0  0  0  0  0
    5.7501   -3.7665    1.6031 H   0  0  0  0  0  0  0  0  0  0  0  0
    5.4357   -2.2800    2.5266 H   0  0  0  0  0  0  0  0  0  0  0  0
    7.0653   -2.6341    1.9408 H   0  0  0  0  0  0  0  0  0  0  0  0
  1 10  1  0  0  0  0
  1 51  1  0  0  0  0
  2 14  1  0  0  0  0
  2 56  1  0  0  0  0
  3 22  1  0  0  0  0
  3 31  1  0  0  0  0
  4 28  1  0  0  0  0
  4 34  1  0  0  0  0
  5 31  2  0  0  0  0
  6 34  2  0  0  0  0
  7  8  1  0  0  0  0
  7  9  1  0  0  0  0
  7 15  1  0  0  0  0
  7 16  1  0  0  0  0
  8 10  1  0  0  0  0
  8 12  1  0  0  0  0
  8 37  1  0  0  0  0
  9 11  1  0  0  0  0
  9 13  1  0  0  0  0
  9 38  1  0  0  0  0
 10 11  1  0  0  0  0
 10 17  1  0  0  0  0
 11 39  1  0  0  0  0
 11 40  1  0  0  0  0
 12 14  1  0  0  0  0
 12 41  1  0  0  0  0
 12 42  1  0  0  0  0
 13 20  2  0  0  0  0
 13 23  1  0  0  0  0
 14 18  1  0  0  0  0
 14 43  1  0  0  0  0
 15 44  1  0  0  0  0
 15 45  1  0  0  0  0
 15 46  1  0  0  0  0
 16 21  2  0  0  0  0
 16 47  1  0  0  0  0
 17 19  2  0  0  0  0
 17 48  1  0  0  0  0
 18 19  1  0  0  0  0
 18 22  1  0  0  0  0
 18 49  1  0  0  0  0
 19 25  1  0  0  0  0
 20 21  1  0  0  0  0
 20 24  1  0  0  0  0
 21 50  1  0  0  0  0
 22 26  1  0  0  0  0
 22 27  1  0  0  0  0
 23 52  1  0  0  0  0
 23 53  1  0  0  0  0
 23 54  1  0  0  0  0
 24 28  1  0  0  0  0
 24 29  1  0  0  0  0
 24 55  1  0  0  0  0
 25 30  2  0  0  0  0
 25 57  1  0  0  0  0
 26 58  1  0  0  0  0
 26 59  1  0  0  0  0
 26 62  1  0  0  0  0
 27 60  1  0  0  0  0
 27 61  1  0  0  0  0
 27 63  1  0  0  0  0
 28 32  1  0  0  0  0
 28 64  1  0  0  0  0
 29 65  1  0  0  0  0
 29 66  1  0  0  0  0
 29 67  1  0  0  0  0
 30 31  1  0  0  0  0
 30 68  1  0  0  0  0
 32 33  1  0  0  0  0
 32 69  1  0  0  0  0
 32 70  1  0  0  0  0
 33 35  2  0  0  0  0
 33 71  1  0  0  0  0
 34 35  1  0  0  0  0
 35 36  1  0  0  0  0
 36 72  1  0  0  0  0
 36 73  1  0  0  0  0
 36 74  1  0  0  0  0
M  END
> <PUBCHEM_COMPOUND_CID>
71591176

> <PUBCHEM_CONFORMER_RMSD>
0.8

> <PUBCHEM_CONFORMER_DIVERSEORDER>
1
107
216
220
230
225
178
109
207
295
302
161
174
247
127
54
171
300
285
271
130
226
277
299
243
64
296
269
72
77
129
164
98
176
298
214
18
237
159
81
255
263
275
192
229
158
32
208
284
186
221
170
228
25
169
78
103
233
201
266
80
104
218
97
259
286
252
166
172
82
70
63
231
260
150
181
272
92
267
119
179
93
288
53
210
140
244
61
249
274
236
212
62
227
270
126
138
157
240
89
43
59
188
278
276
35
167
132
206
282
139
87
184
156
162
190
224
239
2
175
280
49
177
257
232
47
281
16
268
110
135
264
187
219
56
242
293
118
168
198
265
90
217
248
273
48
246
151
183
113
12
222
108
91
51
8
223
292
76
71
235
68
185
114
194
4
58
21
57
193
124
29
251
191
197
291
111
15
253
94
125
6
75
297
200
121
45
128
173
65
261
136
133
204
106
60
165
39
141
100
28
34
205
254
5
86
11
99
180
213
3
290
117
79
189
116
131
203
96
37
258
73
149
287
160
215
146
241
13
38
144
30
95
147
19
148
102
294
55
88
256
22
83
17
301
52
112
120
279
7
66
145
40
245
209
26
289
14
143
202
105
46
182
199
152
9
20
283
23
153
155
262
24
122
234
67
44
50
163
142
238
195
137
196
123
154
101
74
250
36
84
10
33
115
41
69
85
42
134
211
31
27

> <PUBCHEM_MMFF94_PARTIAL_CHARGES>
37
1 -0.68
10 0.42
13 -0.28
14 0.28
16 -0.29
17 -0.29
18 0.14
19 -0.14
2 -0.68
20 -0.14
21 -0.15
22 0.28
23 0.14
24 0.14
25 -0.15
28 0.28
3 -0.43
30 -0.14
31 0.71
32 0.14
33 -0.29
34 0.71
35 -0.12
36 0.14
4 -0.43
47 0.15
48 0.15
5 -0.57
50 0.15
51 0.4
56 0.4
57 0.15
6 -0.57
68 0.15
7 0.14
71 0.15
9 0.14

> <PUBCHEM_EFFECTIVE_ROTOR_COUNT>
3.6

> <PUBCHEM_PHARMACOPHORE_FEATURES>
13
1 1 acceptor
1 1 donor
1 2 acceptor
1 2 donor
1 29 hydrophobe
1 5 acceptor
1 6 acceptor
3 22 26 27 hydrophobe
5 7 8 9 10 11 rings
6 4 28 32 33 34 35 rings
6 7 9 13 16 20 21 rings
7 3 18 19 22 25 30 31 rings
7 8 10 12 14 17 18 19 rings

> <PUBCHEM_HEAVY_ATOM_COUNT>
36

> <PUBCHEM_ATOM_DEF_STEREO_COUNT>
3

> <PUBCHEM_ATOM_UDEF_STEREO_COUNT>
5

> <PUBCHEM_BOND_DEF_STEREO_COUNT>
0

> <PUBCHEM_BOND_UDEF_STEREO_COUNT>
0

> <PUBCHEM_ISOTOPIC_ATOM_COUNT>
0

> <PUBCHEM_COMPONENT_COUNT>
1

> <PUBCHEM_CACTVS_TAUTO_COUNT>
1

> <PUBCHEM_CONFORMER_ID>
0444650800000001

> <PUBCHEM_MMFF94_ENERGY>
139.7099

> <PUBCHEM_FEATURE_SELFOVERLAP>
66.144

> <PUBCHEM_SHAPE_FINGERPRINT>
10 15 13542462068265335851
10622 236 17752191796166717106
10670039 82 15647050426560851702
117089 54 17687754148517365955
11796584 16 18059585684473149486
12166972 35 18059578044000935297
12522641 33 18190461748610351820
13782708 43 17846776360364050279
14068700 675 18131349708753428569
14251751 18 18341888576544793314
14347332 77 18334011649267821972
14849402 71 10735877283982954266
14910302 57 18339350950757042405
15001296 14 18335140951184655454
15119646 104 18409730660260662626
15183329 4 18334858320307613831
15352257 5 18342740727799214199
15799311 1 18342750610693009399
17349148 13 17703518761092621881
17857418 61 18412829066657994642
18393751 57 11024109867452606917
19958102 18 17967531289598751303
20028762 73 18272374140439548814
20567600 247 18412822495199880247
20775438 99 17905028601840576255
21033648 29 13326587258994419899
21033650 10 17604148129758142156
21859007 373 14476133167739500921
21987440 362 17323802163059525117
22393880 68 17240758437477289948
23516275 137 17984175632154187539
23522609 53 18055104096559452697
23559900 14 18267586982069161025
23569914 152 17319257980016811271
23569943 247 18339643326509398955
2838139 119 12107790734784273726
3004659 81 18412270523699559270
392239 28 11887955428056950934
397830 11 13110956556944212621
4098825 35 17894919511925712692
439807 62 18113623356615896578
46194498 28 17097794601030842628
463206 1 18338239365939813274
5104073 3 16343703274489291481
513532 50 17022620888878642520
59682541 52 17749105591349011558
6086070 43 17775843519687875593

> <PUBCHEM_SHAPE_MULTIPOLES>
705.65
17.58
3.07
1.94
3.22
0.21
0.26
10.66
-4.15
-1.9
-0.13
0.13
0.07
-1.99

> <PUBCHEM_SHAPE_SELFOVERLAP>
1525.409

> <PUBCHEM_SHAPE_VOLUME>
381.5

> <PUBCHEM_COORDINATE_TYPE>
2
5
10

$$$$
