46882800
  -OEChem-08262007453D

 84 86  0     1  0  0  0  0  0999 V2000
    3.0195    1.0116    2.5946 O   0  0  0  0  0  0  0  0  0  0  0  0
    3.1954   -1.4213   -2.5092 O   0  0  0  0  0  0  0  0  0  0  0  0
    3.0966   -2.6902   -0.6311 O   0  0  0  0  0  0  0  0  0  0  0  0
   -5.2374   -3.0765    1.5331 O   0  0  0  0  0  0  0  0  0  0  0  0
   -5.6655   -2.9749   -0.7317 O   0  0  0  0  0  0  0  0  0  0  0  0
    0.9182    0.1705   -0.1717 C   0  0  1  0  0  0  0  0  0  0  0  0
    0.0855    0.8078    0.9948 C   0  0  1  0  0  0  0  0  0  0  0  0
    2.2973   -0.0171    0.5044 C   0  0  2  0  0  0  0  0  0  0  0  0
    1.0614    1.9119    1.4663 C   0  0  0  0  0  0  0  0  0  0  0  0
    2.4711    1.2925    1.3142 C   0  0  1  0  0  0  0  0  0  0  0  0
   -1.3045    1.1856    0.4931 C   0  0  0  0  0  0  0  0  0  0  0  0
    0.2187   -1.1149   -0.6129 C   0  0  0  0  0  0  0  0  0  0  0  0
   -1.9386    0.3911   -0.4098 C   0  0  0  0  0  0  0  0  0  0  0  0
   -1.2471   -0.8424   -1.0127 C   0  0  0  0  0  0  0  0  0  0  0  0
   -3.3759    0.6923   -0.9061 C   0  0  2  0  0  0  0  0  0  0  0  0
    1.0655    1.1002   -1.4194 C   0  0  0  0  0  0  0  0  0  0  0  0
    3.4797   -0.2915   -0.4202 C   0  0  1  0  0  0  0  0  0  0  0  0
   -0.1724   -0.1276    2.2174 C   0  0  0  0  0  0  0  0  0  0  0  0
   -1.9326    2.4126    1.1060 C   0  0  0  0  0  0  0  0  0  0  0  0
   -4.1062    1.6675    0.0850 C   0  0  1  0  0  0  0  0  0  0  0  0
   -3.2244    2.8659    0.4380 C   0  0  0  0  0  0  0  0  0  0  0  0
   -4.2166   -0.6054   -0.9991 C   0  0  0  0  0  0  0  0  0  0  0  0
    4.8199   -0.3601    0.3346 C   0  0  0  0  0  0  0  0  0  0  0  0
   -3.2740    1.2982   -2.3268 C   0  0  0  0  0  0  0  0  0  0  0  0
    3.2333   -1.5959   -1.1624 C   0  0  0  0  0  0  0  0  0  0  0  0
   -5.4459    2.1575   -0.3892 C   0  0  0  0  0  0  0  0  0  0  0  0
   -4.3513   -1.2482    0.3670 C   0  0  0  0  0  0  0  0  0  0  0  0
    6.0156   -0.6255   -0.5842 C   0  0  0  0  0  0  0  0  0  0  0  0
   -6.6273    1.3069   -0.0277 C   0  0  0  0  0  0  0  0  0  0  0  0
   -5.5774    3.2902   -1.0956 C   0  0  0  0  0  0  0  0  0  0  0  0
   -5.1622   -2.5215    0.2869 C   0  0  0  0  0  0  0  0  0  0  0  0
    7.2942   -0.7126    0.2019 C   0  0  0  0  0  0  0  0  0  0  0  0
    8.4130    0.0182    0.0373 C   0  0  0  0  0  0  0  0  0  0  0  0
    9.6624   -0.1188    0.8603 C   0  0  0  0  0  0  0  0  0  0  0  0
    8.4908    1.0617   -1.0449 C   0  0  0  0  0  0  0  0  0  0  0  0
   -5.9788   -4.2975    1.6198 C   0  0  0  0  0  0  0  0  0  0  0  0
    2.2448   -0.8630    1.2036 H   0  0  0  0  0  0  0  0  0  0  0  0
    0.9871    2.7921    0.8166 H   0  0  0  0  0  0  0  0  0  0  0  0
    0.8565    2.2453    2.4899 H   0  0  0  0  0  0  0  0  0  0  0  0
    3.1320    2.0086    0.8128 H   0  0  0  0  0  0  0  0  0  0  0  0
    0.2437   -1.8664    0.1852 H   0  0  0  0  0  0  0  0  0  0  0  0
    0.7107   -1.5831   -1.4704 H   0  0  0  0  0  0  0  0  0  0  0  0
   -1.8069   -1.7536   -0.7823 H   0  0  0  0  0  0  0  0  0  0  0  0
   -1.2652   -0.7373   -2.1042 H   0  0  0  0  0  0  0  0  0  0  0  0
    1.6872    1.9785   -1.2191 H   0  0  0  0  0  0  0  0  0  0  0  0
    0.1069    1.4799   -1.7841 H   0  0  0  0  0  0  0  0  0  0  0  0
    1.5190    0.5685   -2.2615 H   0  0  0  0  0  0  0  0  0  0  0  0
    3.5773    0.5126   -1.1594 H   0  0  0  0  0  0  0  0  0  0  0  0
    0.7435   -0.5291    2.6585 H   0  0  0  0  0  0  0  0  0  0  0  0
   -0.8120   -0.9808    1.9658 H   0  0  0  0  0  0  0  0  0  0  0  0
   -0.6829    0.4205    3.0195 H   0  0  0  0  0  0  0  0  0  0  0  0
   -1.2344    3.2558    1.0771 H   0  0  0  0  0  0  0  0  0  0  0  0
   -2.1347    2.2051    2.1641 H   0  0  0  0  0  0  0  0  0  0  0  0
   -4.2559    1.1917    1.0599 H   0  0  0  0  0  0  0  0  0  0  0  0
   -2.9401    3.4437   -0.4492 H   0  0  0  0  0  0  0  0  0  0  0  0
   -3.7419    3.5596    1.1140 H   0  0  0  0  0  0  0  0  0  0  0  0
   -3.7434   -1.3165   -1.6898 H   0  0  0  0  0  0  0  0  0  0  0  0
   -5.1855   -0.4302   -1.4695 H   0  0  0  0  0  0  0  0  0  0  0  0
    5.0025    0.5824    0.8637 H   0  0  0  0  0  0  0  0  0  0  0  0
    4.7677   -1.1469    1.0993 H   0  0  0  0  0  0  0  0  0  0  0  0
   -2.7077    2.2352   -2.3358 H   0  0  0  0  0  0  0  0  0  0  0  0
   -2.7684    0.6155   -3.0190 H   0  0  0  0  0  0  0  0  0  0  0  0
   -4.2587    1.4894   -2.7651 H   0  0  0  0  0  0  0  0  0  0  0  0
    3.0875    1.8545    3.0747 H   0  0  0  0  0  0  0  0  0  0  0  0
   -4.8977   -0.6297    1.0791 H   0  0  0  0  0  0  0  0  0  0  0  0
   -3.3818   -1.5080    0.8015 H   0  0  0  0  0  0  0  0  0  0  0  0
    6.0427    0.1528   -1.3511 H   0  0  0  0  0  0  0  0  0  0  0  0
    5.8889   -1.5804   -1.1070 H   0  0  0  0  0  0  0  0  0  0  0  0
   -7.5551    1.8875   -0.1038 H   0  0  0  0  0  0  0  0  0  0  0  0
   -6.7588    0.4430   -0.6768 H   0  0  0  0  0  0  0  0  0  0  0  0
   -6.5696    0.9731    1.0131 H   0  0  0  0  0  0  0  0  0  0  0  0
   -6.5597    3.6173   -1.4245 H   0  0  0  0  0  0  0  0  0  0  0  0
   -4.7513    3.9204   -1.3977 H   0  0  0  0  0  0  0  0  0  0  0  0
    3.0413   -2.2664   -2.9826 H   0  0  0  0  0  0  0  0  0  0  0  0
    7.2992   -1.4676    0.9871 H   0  0  0  0  0  0  0  0  0  0  0  0
    9.9062    0.8328    1.3436 H   0  0  0  0  0  0  0  0  0  0  0  0
    9.5463   -0.8725    1.6461 H   0  0  0  0  0  0  0  0  0  0  0  0
    9.5291    1.2008   -1.3679 H   0  0  0  0  0  0  0  0  0  0  0  0
    7.9369    0.7894   -1.9471 H   0  0  0  0  0  0  0  0  0  0  0  0
   10.5056   -0.4198    0.2305 H   0  0  0  0  0  0  0  0  0  0  0  0
    8.1257    2.0235   -0.6714 H   0  0  0  0  0  0  0  0  0  0  0  0
   -5.9616   -4.6325    2.6603 H   0  0  0  0  0  0  0  0  0  0  0  0
   -5.5152   -5.0672    0.9954 H   0  0  0  0  0  0  0  0  0  0  0  0
   -7.0183   -4.1313    1.3215 H   0  0  0  0  0  0  0  0  0  0  0  0
  1 10  1  0  0  0  0
  1 64  1  0  0  0  0
  2 25  1  0  0  0  0
  2 74  1  0  0  0  0
  3 25  2  0  0  0  0
  4 31  1  0  0  0  0
  4 36  1  0  0  0  0
  5 31  2  0  0  0  0
  6  7  1  0  0  0  0
  6  8  1  0  0  0  0
  6 12  1  0  0  0  0
  6 16  1  0  0  0  0
  7  9  1  0  0  0  0
  7 11  1  0  0  0  0
  7 18  1  0  0  0  0
  8 10  1  0  0  0  0
  8 17  1  0  0  0  0
  8 37  1  0  0  0  0
  9 10  1  0  0  0  0
  9 38  1  0  0  0  0
  9 39  1  0  0  0  0
 10 40  1  0  0  0  0
 11 13  2  0  0  0  0
 11 19  1  0  0  0  0
 12 14  1  0  0  0  0
 12 41  1  0  0  0  0
 12 42  1  0  0  0  0
 13 14  1  0  0  0  0
 13 15  1  0  0  0  0
 14 43  1  0  0  0  0
 14 44  1  0  0  0  0
 15 20  1  0  0  0  0
 15 22  1  0  0  0  0
 15 24  1  0  0  0  0
 16 45  1  0  0  0  0
 16 46  1  0  0  0  0
 16 47  1  0  0  0  0
 17 23  1  0  0  0  0
 17 25  1  0  0  0  0
 17 48  1  0  0  0  0
 18 49  1  0  0  0  0
 18 50  1  0  0  0  0
 18 51  1  0  0  0  0
 19 21  1  0  0  0  0
 19 52  1  0  0  0  0
 19 53  1  0  0  0  0
 20 21  1  0  0  0  0
 20 26  1  0  0  0  0
 20 54  1  0  0  0  0
 21 55  1  0  0  0  0
 21 56  1  0  0  0  0
 22 27  1  0  0  0  0
 22 57  1  0  0  0  0
 22 58  1  0  0  0  0
 23 28  1  0  0  0  0
 23 59  1  0  0  0  0
 23 60  1  0  0  0  0
 24 61  1  0  0  0  0
 24 62  1  0  0  0  0
 24 63  1  0  0  0  0
 26 29  1  0  0  0  0
 26 30  2  0  0  0  0
 27 31  1  0  0  0  0
 27 65  1  0  0  0  0
 27 66  1  0  0  0  0
 28 32  1  0  0  0  0
 28 67  1  0  0  0  0
 28 68  1  0  0  0  0
 29 69  1  0  0  0  0
 29 70  1  0  0  0  0
 29 71  1  0  0  0  0
 30 72  1  0  0  0  0
 30 73  1  0  0  0  0
 32 33  2  0  0  0  0
 32 75  1  0  0  0  0
 33 34  1  0  0  0  0
 33 35  1  0  0  0  0
 34 76  1  0  0  0  0
 34 77  1  0  0  0  0
 34 80  1  0  0  0  0
 35 78  1  0  0  0  0
 35 79  1  0  0  0  0
 35 81  1  0  0  0  0
 36 82  1  0  0  0  0
 36 83  1  0  0  0  0
 36 84  1  0  0  0  0
M  END
> <PUBCHEM_COMPOUND_CID>
46882800

> <PUBCHEM_CONFORMER_RMSD>
1.2

> <PUBCHEM_CONFORMER_DIVERSEORDER>
1
11
13
9
7
17
8
3
10
14
5
16
12
2
15
6
4

> <PUBCHEM_MMFF94_PARTIAL_CHARGES>
31
1 -0.68
10 0.28
11 -0.28
13 -0.28
14 0.14
15 0.14
17 0.06
19 0.14
2 -0.65
20 0.14
25 0.66
26 -0.28
27 0.06
28 0.14
29 0.14
3 -0.57
30 -0.3
31 0.66
32 -0.29
33 -0.28
34 0.14
35 0.14
36 0.28
4 -0.43
5 -0.57
64 0.4
7 0.14
72 0.15
73 0.15
74 0.5
75 0.15

> <PUBCHEM_EFFECTIVE_ROTOR_COUNT>
11.8

> <PUBCHEM_PHARMACOPHORE_FEATURES>
11
1 1 acceptor
1 1 donor
1 2 acceptor
1 3 acceptor
1 5 acceptor
3 2 3 25 anion
3 33 34 35 hydrophobe
4 17 23 28 32 hydrophobe
5 6 7 8 9 10 rings
6 11 13 15 19 20 21 rings
6 6 7 11 12 13 14 rings

> <PUBCHEM_HEAVY_ATOM_COUNT>
36

> <PUBCHEM_ATOM_DEF_STEREO_COUNT>
7

> <PUBCHEM_ATOM_UDEF_STEREO_COUNT>
0

> <PUBCHEM_BOND_DEF_STEREO_COUNT>
0

> <PUBCHEM_BOND_UDEF_STEREO_COUNT>
0

> <PUBCHEM_ISOTOPIC_ATOM_COUNT>
0

> <PUBCHEM_COMPONENT_COUNT>
1

> <PUBCHEM_CACTVS_TAUTO_COUNT>
1

> <PUBCHEM_CONFORMER_ID>
02CB5FF000000001

> <PUBCHEM_MMFF94_ENERGY>
116.6781

> <PUBCHEM_FEATURE_SELFOVERLAP>
55.957

> <PUBCHEM_SHAPE_FINGERPRINT>
10076449 9 18201446934422030594
10290309 65 17988652852371930190
11007060 377 17095524028358367904
12082328 90 18334853918530527542
12373685 5 17967808315633143026
13583140 156 17917426519357065349
13631057 29 18187364367776351483
13782708 43 18412545448329527666
14856354 85 18410576171822932077
15361156 5 18131062719434920261
17686467 74 18114180908228028180
18608769 82 18343021107569781095
19611394 137 18266743656724062058
20505436 4 17459465547228758145
21792961 116 17703794670403516758
2260408 40 15553905350490364862
23559900 14 17774426235866572392
24771750 20 17984424316094517788
25223398 141 18409167748503186655
2838139 119 15936131854940776324
3178227 256 17775289404635169194
335352 9 17774993558344835069
395649 100 18260828219837335519
4073 2 18338520742158604438
4093350 32 16951119553319245224
4098825 35 18334576850058562364
44802255 64 17677321703314234133
4625314 4 18336828590164328596
5265222 85 18270961366718079550
57527295 17 18200293439250214607
6009941 240 18412544275955877901

> <PUBCHEM_SHAPE_MULTIPOLES>
711.52
21.23
3.46
1.82
40.85
2.46
-0.13
3.82
0.62
-9.52
-0.8
0.08
0.02
2.61

> <PUBCHEM_SHAPE_SELFOVERLAP>
1475.3

> <PUBCHEM_SHAPE_VOLUME>
406.3

> <PUBCHEM_COORDINATE_TYPE>
2
5
10

$$$$
