101072554
  -OEChem-08262008013D

 77 80  0     1  0  0  0  0  0999 V2000
    1.9547   -0.6420   -2.9079 O   0  0  0  0  0  0  0  0  0  0  0  0
   -1.2399    0.6431   -1.5528 O   0  0  0  0  0  0  0  0  0  0  0  0
    0.7942   -3.6659   -0.5155 O   0  0  0  0  0  0  0  0  0  0  0  0
   -3.3113   -2.7056    2.3514 O   0  0  0  0  0  0  0  0  0  0  0  0
   -1.0281    1.3119    2.4190 O   0  0  0  0  0  0  0  0  0  0  0  0
   -3.0599   -0.4851    3.2491 O   0  0  0  0  0  0  0  0  0  0  0  0
    1.7911    0.3650    2.7648 O   0  0  0  0  0  0  0  0  0  0  0  0
    4.0555    3.0935   -0.4015 O   0  0  0  0  0  0  0  0  0  0  0  0
    3.8058    2.0858    2.1627 O   0  0  0  0  0  0  0  0  0  0  0  0
    2.9475   -3.4747   -1.3298 O   0  0  0  0  0  0  0  0  0  0  0  0
   -1.6690    2.4930   -2.8637 O   0  0  0  0  0  0  0  0  0  0  0  0
    0.5195   -0.6246   -2.7585 C   0  0  1  0  0  0  0  0  0  0  0  0
    0.1340   -2.0188   -2.1570 C   0  0  1  0  0  0  0  0  0  0  0  0
    0.1244    0.6539   -1.9574 C   0  0  2  0  0  0  0  0  0  0  0  0
    0.6005   -2.2521   -0.6903 C   0  0  1  0  0  0  0  0  0  0  0  0
   -0.3364   -1.7176    0.3866 C   0  0  0  0  0  0  0  0  0  0  0  0
    1.0467    1.0011   -0.7928 C   0  0  0  0  0  0  0  0  0  0  0  0
   -0.0264   -0.4955   -4.1989 C   0  0  0  0  0  0  0  0  0  0  0  0
   -1.3278   -2.4404   -2.3865 C   0  0  0  0  0  0  0  0  0  0  0  0
   -0.1834   -0.4082    0.9247 C   0  0  0  0  0  0  0  0  0  0  0  0
    0.9083    0.4931    0.5164 C   0  0  0  0  0  0  0  0  0  0  0  0
   -1.3910   -2.5353    0.8546 C   0  0  0  0  0  0  0  0  0  0  0  0
    2.1187    1.8808   -1.0671 C   0  0  0  0  0  0  0  0  0  0  0  0
   -1.0957    0.0515    1.9036 C   0  0  0  0  0  0  0  0  0  0  0  0
    1.8542    0.8765    1.4944 C   0  0  0  0  0  0  0  0  0  0  0  0
   -2.2527   -2.0431    1.8113 C   0  0  0  0  0  0  0  0  0  0  0  0
   -2.1106   -0.7815    2.3212 C   0  0  0  0  0  0  0  0  0  0  0  0
    3.0369    2.2472   -0.0851 C   0  0  0  0  0  0  0  0  0  0  0  0
    2.9057    1.7419    1.1986 C   0  0  0  0  0  0  0  0  0  0  0  0
    2.0198   -4.1330   -0.8792 C   0  0  0  0  0  0  0  0  0  0  0  0
   -2.0255    1.6240   -2.0859 C   0  0  0  0  0  0  0  0  0  0  0  0
   -3.8190   -1.7112    3.2643 C   0  0  0  0  0  0  0  0  0  0  0  0
    2.0766   -5.6121   -0.6441 C   0  0  0  0  0  0  0  0  0  0  0  0
   -3.3901    1.4555   -1.5321 C   0  0  0  0  0  0  0  0  0  0  0  0
   -1.7704    2.3264    1.7462 C   0  0  0  0  0  0  0  0  0  0  0  0
    2.5138   -0.8360    3.0070 C   0  0  0  0  0  0  0  0  0  0  0  0
    5.2675    2.5035   -0.8688 C   0  0  0  0  0  0  0  0  0  0  0  0
    3.5114    3.2453    2.9389 C   0  0  0  0  0  0  0  0  0  0  0  0
   -4.2693    2.4491   -1.3095 C   0  0  0  0  0  0  0  0  0  0  0  0
   -4.0523    3.9098   -1.5906 C   0  0  0  0  0  0  0  0  0  0  0  0
   -5.6281    2.1308   -0.7397 C   0  0  0  0  0  0  0  0  0  0  0  0
    0.7005   -2.7472   -2.7584 H   0  0  0  0  0  0  0  0  0  0  0  0
    0.2849    1.4807   -2.6623 H   0  0  0  0  0  0  0  0  0  0  0  0
    1.5746   -1.7754   -0.5349 H   0  0  0  0  0  0  0  0  0  0  0  0
    0.2377   -1.3728   -4.8008 H   0  0  0  0  0  0  0  0  0  0  0  0
    0.4243    0.3646   -4.7084 H   0  0  0  0  0  0  0  0  0  0  0  0
   -1.1130   -0.3695   -4.2203 H   0  0  0  0  0  0  0  0  0  0  0  0
   -1.5148   -3.4387   -1.9767 H   0  0  0  0  0  0  0  0  0  0  0  0
   -1.5613   -2.5058   -3.4537 H   0  0  0  0  0  0  0  0  0  0  0  0
   -2.0383   -1.7452   -1.9332 H   0  0  0  0  0  0  0  0  0  0  0  0
    2.1936   -1.3724   -3.5036 H   0  0  0  0  0  0  0  0  0  0  0  0
   -1.5379   -3.5398    0.4698 H   0  0  0  0  0  0  0  0  0  0  0  0
    2.2460    2.2826   -2.0713 H   0  0  0  0  0  0  0  0  0  0  0  0
   -4.8571   -1.4847    2.9950 H   0  0  0  0  0  0  0  0  0  0  0  0
   -3.8001   -2.1237    4.2795 H   0  0  0  0  0  0  0  0  0  0  0  0
    1.9229   -5.8251    0.4168 H   0  0  0  0  0  0  0  0  0  0  0  0
    3.0616   -5.9879   -0.9356 H   0  0  0  0  0  0  0  0  0  0  0  0
    1.3191   -6.1133   -1.2518 H   0  0  0  0  0  0  0  0  0  0  0  0
   -3.6558    0.4354   -1.2630 H   0  0  0  0  0  0  0  0  0  0  0  0
   -2.8215    2.0397    1.6426 H   0  0  0  0  0  0  0  0  0  0  0  0
   -1.3352    2.5343    0.7652 H   0  0  0  0  0  0  0  0  0  0  0  0
   -1.7187    3.2394    2.3458 H   0  0  0  0  0  0  0  0  0  0  0  0
    2.2855   -1.1736    4.0218 H   0  0  0  0  0  0  0  0  0  0  0  0
    3.5910   -0.6563    2.9356 H   0  0  0  0  0  0  0  0  0  0  0  0
    2.2222   -1.6242    2.3060 H   0  0  0  0  0  0  0  0  0  0  0  0
    5.9825    3.3053   -1.0723 H   0  0  0  0  0  0  0  0  0  0  0  0
    5.0908    1.9480   -1.7953 H   0  0  0  0  0  0  0  0  0  0  0  0
    5.6918    1.8407   -0.1081 H   0  0  0  0  0  0  0  0  0  0  0  0
    4.3136    3.3809    3.6693 H   0  0  0  0  0  0  0  0  0  0  0  0
    2.5663    3.1197    3.4765 H   0  0  0  0  0  0  0  0  0  0  0  0
    3.4652    4.1337    2.3012 H   0  0  0  0  0  0  0  0  0  0  0  0
   -4.3513    4.5073   -0.7222 H   0  0  0  0  0  0  0  0  0  0  0  0
   -3.0106    4.1648   -1.7941 H   0  0  0  0  0  0  0  0  0  0  0  0
   -4.6574    4.2232   -2.4472 H   0  0  0  0  0  0  0  0  0  0  0  0
   -6.4138    2.4624   -1.4266 H   0  0  0  0  0  0  0  0  0  0  0  0
   -5.7687    1.0583   -0.5680 H   0  0  0  0  0  0  0  0  0  0  0  0
   -5.7654    2.6404    0.2196 H   0  0  0  0  0  0  0  0  0  0  0  0
  1 12  1  0  0  0  0
  1 51  1  0  0  0  0
  2 14  1  0  0  0  0
  2 31  1  0  0  0  0
  3 15  1  0  0  0  0
  3 30  1  0  0  0  0
  4 26  1  0  0  0  0
  4 32  1  0  0  0  0
  5 24  1  0  0  0  0
  5 35  1  0  0  0  0
  6 27  1  0  0  0  0
  6 32  1  0  0  0  0
  7 25  1  0  0  0  0
  7 36  1  0  0  0  0
  8 28  1  0  0  0  0
  8 37  1  0  0  0  0
  9 29  1  0  0  0  0
  9 38  1  0  0  0  0
 10 30  2  0  0  0  0
 11 31  2  0  0  0  0
 12 13  1  0  0  0  0
 12 14  1  0  0  0  0
 12 18  1  0  0  0  0
 13 15  1  0  0  0  0
 13 19  1  0  0  0  0
 13 42  1  0  0  0  0
 14 17  1  0  0  0  0
 14 43  1  0  0  0  0
 15 16  1  0  0  0  0
 15 44  1  0  0  0  0
 16 20  1  0  0  0  0
 16 22  2  0  0  0  0
 17 21  1  0  0  0  0
 17 23  2  0  0  0  0
 18 45  1  0  0  0  0
 18 46  1  0  0  0  0
 18 47  1  0  0  0  0
 19 48  1  0  0  0  0
 19 49  1  0  0  0  0
 19 50  1  0  0  0  0
 20 21  1  0  0  0  0
 20 24  2  0  0  0  0
 21 25  2  0  0  0  0
 22 26  1  0  0  0  0
 22 52  1  0  0  0  0
 23 28  1  0  0  0  0
 23 53  1  0  0  0  0
 24 27  1  0  0  0  0
 25 29  1  0  0  0  0
 26 27  2  0  0  0  0
 28 29  2  0  0  0  0
 30 33  1  0  0  0  0
 31 34  1  0  0  0  0
 32 54  1  0  0  0  0
 32 55  1  0  0  0  0
 33 56  1  0  0  0  0
 33 57  1  0  0  0  0
 33 58  1  0  0  0  0
 34 39  2  0  0  0  0
 34 59  1  0  0  0  0
 35 60  1  0  0  0  0
 35 61  1  0  0  0  0
 35 62  1  0  0  0  0
 36 63  1  0  0  0  0
 36 64  1  0  0  0  0
 36 65  1  0  0  0  0
 37 66  1  0  0  0  0
 37 67  1  0  0  0  0
 37 68  1  0  0  0  0
 38 69  1  0  0  0  0
 38 70  1  0  0  0  0
 38 71  1  0  0  0  0
 39 40  1  0  0  0  0
 39 41  1  0  0  0  0
 40 72  1  0  0  0  0
 40 73  1  0  0  0  0
 40 74  1  0  0  0  0
 41 75  1  0  0  0  0
 41 76  1  0  0  0  0
 41 77  1  0  0  0  0
M  END
> <PUBCHEM_COMPOUND_CID>
101072554

> <PUBCHEM_CONFORMER_RMSD>
1.2

> <PUBCHEM_CONFORMER_DIVERSEORDER>
1
10
16
17
6
20
12
4
7
18
2
21
11
9
15
22
13
14
8
19
5
3

> <PUBCHEM_MMFF94_PARTIAL_CHARGES>
40
1 -0.68
10 -0.57
11 -0.57
12 0.28
14 0.42
15 0.42
16 -0.14
17 -0.14
2 -0.43
22 -0.15
23 -0.15
24 0.08
25 0.08
26 0.08
27 0.08
28 0.08
29 0.08
3 -0.43
30 0.66
31 0.71
32 0.56
33 0.06
34 -0.14
35 0.28
36 0.28
37 0.28
38 0.28
39 -0.28
4 -0.36
40 0.14
41 0.14
5 -0.36
51 0.4
52 0.15
53 0.15
59 0.15
6 -0.36
7 -0.36
8 -0.36
9 -0.36

> <PUBCHEM_EFFECTIVE_ROTOR_COUNT>
10.4

> <PUBCHEM_PHARMACOPHORE_FEATURES>
14
1 1 acceptor
1 1 donor
1 10 acceptor
1 11 acceptor
1 4 acceptor
1 5 acceptor
1 6 acceptor
1 7 acceptor
1 8 acceptor
1 9 acceptor
3 39 40 41 hydrophobe
5 4 6 26 27 32 rings
6 16 20 22 24 26 27 rings
6 17 21 23 25 28 29 rings

> <PUBCHEM_HEAVY_ATOM_COUNT>
41

> <PUBCHEM_ATOM_DEF_STEREO_COUNT>
0

> <PUBCHEM_ATOM_UDEF_STEREO_COUNT>
4

> <PUBCHEM_BOND_DEF_STEREO_COUNT>
0

> <PUBCHEM_BOND_UDEF_STEREO_COUNT>
0

> <PUBCHEM_ISOTOPIC_ATOM_COUNT>
0

> <PUBCHEM_COMPONENT_COUNT>
1

> <PUBCHEM_CACTVS_TAUTO_COUNT>
2

> <PUBCHEM_CONFORMER_ID>
06063EAA00000001

> <PUBCHEM_MMFF94_ENERGY>
178.1473

> <PUBCHEM_FEATURE_SELFOVERLAP>
71.22

> <PUBCHEM_SHAPE_FINGERPRINT>
11578080 2 18192457245332178429
12058002 1 18051118207899302120
12156800 1 17168158822724196558
12788726 201 17834084804581049460
133893 2 17916588618018136038
13642711 20 18131350843205667265
15775530 1 18261397715162770987
16114785 44 17838873164861764421
23419403 2 18265635198563551815
25222932 49 13700151772018909161
3493558 16 16840463576853578859
35225 105 17914323834566047862
394222 165 17703208651368436997
469060 322 17980751963877679751
550186 7 18187361077730987365
57527306 92 16672244074941175809
57527452 28 17683524309667008130

> <PUBCHEM_SHAPE_MULTIPOLES>
779.2
7.18
5.58
4.39
3
4.38
0.47
-7.36
0.95
-3.32
-1.02
1.35
0.43
4.31

> <PUBCHEM_SHAPE_SELFOVERLAP>
1672.993

> <PUBCHEM_SHAPE_VOLUME>
430.3

> <PUBCHEM_COORDINATE_TYPE>
2
5
10

$$$$
