101415306
  -OEChem-08262007503D

 84 88  0     1  0  0  0  0  0999 V2000
   -0.7127    2.9283   -1.1640 O   0  0  0  0  0  0  0  0  0  0  0  0
   -5.5939   -1.0692    1.1642 O   0  0  0  0  0  0  0  0  0  0  0  0
    5.8469   -3.2202   -2.7941 O   0  0  0  0  0  0  0  0  0  0  0  0
    5.8039   -3.9674   -0.6496 O   0  0  0  0  0  0  0  0  0  0  0  0
   -1.4661    4.5512    0.2973 O   0  0  0  0  0  0  0  0  0  0  0  0
   -7.8076   -1.3144    1.5467 O   0  0  0  0  0  0  0  0  0  0  0  0
    2.2317   -0.3858    0.6506 C   0  0  2  0  0  0  0  0  0  0  0  0
    3.7851   -0.4122    0.6623 C   0  0  2  0  0  0  0  0  0  0  0  0
    1.5196    0.9451    0.2871 C   0  0  2  0  0  0  0  0  0  0  0  0
    3.0177   -0.3732    1.9553 C   0  0  0  0  0  0  0  0  0  0  0  0
    0.0974    0.7233   -0.3032 C   0  0  1  0  0  0  0  0  0  0  0  0
   -0.6588   -0.3307    0.5804 C   0  0  2  0  0  0  0  0  0  0  0  0
    1.5083   -1.6946    0.3051 C   0  0  0  0  0  0  0  0  0  0  0  0
    4.5757    0.8265    0.2243 C   0  0  1  0  0  0  0  0  0  0  0  0
   -0.0292   -1.7073    0.3627 C   0  0  0  0  0  0  0  0  0  0  0  0
    2.4203    1.8461   -0.5702 C   0  0  0  0  0  0  0  0  0  0  0  0
    4.5047   -1.7062    0.3267 C   0  0  0  0  0  0  0  0  0  0  0  0
   -2.1154   -0.1877    0.0577 C   0  0  2  0  0  0  0  0  0  0  0  0
   -0.8615    1.9375   -0.1616 C   0  0  2  0  0  0  0  0  0  0  0  0
    3.7378    2.1058    0.1484 C   0  0  0  0  0  0  0  0  0  0  0  0
   -2.2829    1.3330   -0.1687 C   0  0  0  0  0  0  0  0  0  0  0  0
    0.1957    0.3329   -1.8126 C   0  0  0  0  0  0  0  0  0  0  0  0
   -0.6349   -0.0377    2.1121 C   0  0  0  0  0  0  0  0  0  0  0  0
    5.7984    1.0959    1.0557 C   0  0  0  0  0  0  0  0  0  0  0  0
   -3.2266   -0.7795    0.9175 C   0  0  1  0  0  0  0  0  0  0  0  0
    4.8325   -1.8136   -1.1502 C   0  0  0  0  0  0  0  0  0  0  0  0
   -4.5865   -0.5383    0.2782 C   0  0  1  0  0  0  0  0  0  0  0  0
    7.1145    1.0221    0.3400 C   0  0  0  0  0  0  0  0  0  0  0  0
   -2.9979   -2.2735    1.1409 C   0  0  0  0  0  0  0  0  0  0  0  0
    5.7174    1.3854    2.3629 C   0  0  0  0  0  0  0  0  0  0  0  0
    5.5297   -3.1107   -1.4805 C   0  0  0  0  0  0  0  0  0  0  0  0
   -1.0527    4.2038   -0.8007 C   0  0  0  0  0  0  0  0  0  0  0  0
   -4.6866   -1.2013   -1.0858 C   0  0  0  0  0  0  0  0  0  0  0  0
   -0.8462    5.1385   -1.9538 C   0  0  0  0  0  0  0  0  0  0  0  0
   -6.0981   -1.1128   -1.5572 C   0  0  0  0  0  0  0  0  0  0  0  0
   -6.8886   -1.1437    0.7523 C   0  0  0  0  0  0  0  0  0  0  0  0
   -7.1345   -1.0453   -0.7096 C   0  0  0  0  0  0  0  0  0  0  0  0
   -8.5565   -0.9503   -1.1663 C   0  0  0  0  0  0  0  0  0  0  0  0
    1.3802    1.4923    1.2301 H   0  0  0  0  0  0  0  0  0  0  0  0
    2.9521    0.5279    2.5506 H   0  0  0  0  0  0  0  0  0  0  0  0
    3.0086   -1.2645    2.5749 H   0  0  0  0  0  0  0  0  0  0  0  0
    1.8145   -1.9983   -0.7026 H   0  0  0  0  0  0  0  0  0  0  0  0
    1.8502   -2.5022    0.9642 H   0  0  0  0  0  0  0  0  0  0  0  0
    4.8909    0.6861   -0.8134 H   0  0  0  0  0  0  0  0  0  0  0  0
   -0.3987   -2.1631   -0.5650 H   0  0  0  0  0  0  0  0  0  0  0  0
   -0.3150   -2.4065    1.1549 H   0  0  0  0  0  0  0  0  0  0  0  0
    1.9250    2.8050   -0.7563 H   0  0  0  0  0  0  0  0  0  0  0  0
    2.6339    1.3901   -1.5435 H   0  0  0  0  0  0  0  0  0  0  0  0
    3.9450   -2.5886    0.6529 H   0  0  0  0  0  0  0  0  0  0  0  0
    5.4365   -1.7458    0.9068 H   0  0  0  0  0  0  0  0  0  0  0  0
   -2.1495   -0.6799   -0.9198 H   0  0  0  0  0  0  0  0  0  0  0  0
   -0.6792    2.3932    0.8202 H   0  0  0  0  0  0  0  0  0  0  0  0
    4.2960    2.8793   -0.3957 H   0  0  0  0  0  0  0  0  0  0  0  0
    3.5238    2.5240    1.1399 H   0  0  0  0  0  0  0  0  0  0  0  0
   -2.8010    1.5305   -1.1142 H   0  0  0  0  0  0  0  0  0  0  0  0
   -2.8697    1.8067    0.6271 H   0  0  0  0  0  0  0  0  0  0  0  0
   -0.7730    0.0887   -2.2561 H   0  0  0  0  0  0  0  0  0  0  0  0
    0.8557   -0.5182   -1.9904 H   0  0  0  0  0  0  0  0  0  0  0  0
    0.5889    1.1616   -2.4118 H   0  0  0  0  0  0  0  0  0  0  0  0
   -1.1181    0.9106    2.3663 H   0  0  0  0  0  0  0  0  0  0  0  0
    0.3753    0.0002    2.5227 H   0  0  0  0  0  0  0  0  0  0  0  0
   -1.1435   -0.8133    2.6907 H   0  0  0  0  0  0  0  0  0  0  0  0
   -3.2542   -0.3027    1.9055 H   0  0  0  0  0  0  0  0  0  0  0  0
    3.9224   -1.7475   -1.7548 H   0  0  0  0  0  0  0  0  0  0  0  0
    5.5276   -1.0359   -1.4750 H   0  0  0  0  0  0  0  0  0  0  0  0
   -4.7838    0.5382    0.1988 H   0  0  0  0  0  0  0  0  0  0  0  0
    7.2811    0.0154   -0.0553 H   0  0  0  0  0  0  0  0  0  0  0  0
    7.1360    1.7330   -0.4924 H   0  0  0  0  0  0  0  0  0  0  0  0
    7.9551    1.2611    1.0000 H   0  0  0  0  0  0  0  0  0  0  0  0
   -2.6603   -2.7889    0.2362 H   0  0  0  0  0  0  0  0  0  0  0  0
   -3.9079   -2.7816    1.4786 H   0  0  0  0  0  0  0  0  0  0  0  0
   -2.2698   -2.4593    1.9325 H   0  0  0  0  0  0  0  0  0  0  0  0
    6.6176    1.5723    2.9410 H   0  0  0  0  0  0  0  0  0  0  0  0
    4.7856    1.4768    2.9016 H   0  0  0  0  0  0  0  0  0  0  0  0
   -4.4114   -2.2604   -1.0777 H   0  0  0  0  0  0  0  0  0  0  0  0
   -4.0557   -0.6899   -1.8193 H   0  0  0  0  0  0  0  0  0  0  0  0
    0.2052    5.1309   -2.2520 H   0  0  0  0  0  0  0  0  0  0  0  0
   -1.4857    4.8423   -2.7890 H   0  0  0  0  0  0  0  0  0  0  0  0
   -1.1154    6.1543   -1.6507 H   0  0  0  0  0  0  0  0  0  0  0  0
    6.3097   -4.0626   -2.9902 H   0  0  0  0  0  0  0  0  0  0  0  0
   -6.2680   -1.1018   -2.6301 H   0  0  0  0  0  0  0  0  0  0  0  0
   -9.1267   -1.8241   -0.8344 H   0  0  0  0  0  0  0  0  0  0  0  0
   -8.6336   -0.8983   -2.2576 H   0  0  0  0  0  0  0  0  0  0  0  0
   -9.0280   -0.0507   -0.7574 H   0  0  0  0  0  0  0  0  0  0  0  0
  1 19  1  0  0  0  0
  1 32  1  0  0  0  0
  2 27  1  0  0  0  0
  2 36  1  0  0  0  0
  3 31  1  0  0  0  0
  3 80  1  0  0  0  0
  4 31  2  0  0  0  0
  5 32  2  0  0  0  0
  6 36  2  0  0  0  0
  7  8  1  0  0  0  0
  7  9  1  0  0  0  0
  7 10  1  0  0  0  0
  7 13  1  0  0  0  0
  8 10  1  0  0  0  0
  8 14  1  0  0  0  0
  8 17  1  0  0  0  0
  9 11  1  0  0  0  0
  9 16  1  0  0  0  0
  9 39  1  0  0  0  0
 10 40  1  0  0  0  0
 10 41  1  0  0  0  0
 11 12  1  0  0  0  0
 11 19  1  0  0  0  0
 11 22  1  0  0  0  0
 12 15  1  0  0  0  0
 12 18  1  0  0  0  0
 12 23  1  0  0  0  0
 13 15  1  0  0  0  0
 13 42  1  0  0  0  0
 13 43  1  0  0  0  0
 14 20  1  0  0  0  0
 14 24  1  0  0  0  0
 14 44  1  0  0  0  0
 15 45  1  0  0  0  0
 15 46  1  0  0  0  0
 16 20  1  0  0  0  0
 16 47  1  0  0  0  0
 16 48  1  0  0  0  0
 17 26  1  0  0  0  0
 17 49  1  0  0  0  0
 17 50  1  0  0  0  0
 18 21  1  0  0  0  0
 18 25  1  0  0  0  0
 18 51  1  0  0  0  0
 19 21  1  0  0  0  0
 19 52  1  0  0  0  0
 20 53  1  0  0  0  0
 20 54  1  0  0  0  0
 21 55  1  0  0  0  0
 21 56  1  0  0  0  0
 22 57  1  0  0  0  0
 22 58  1  0  0  0  0
 22 59  1  0  0  0  0
 23 60  1  0  0  0  0
 23 61  1  0  0  0  0
 23 62  1  0  0  0  0
 24 28  1  0  0  0  0
 24 30  2  0  0  0  0
 25 27  1  0  0  0  0
 25 29  1  0  0  0  0
 25 63  1  0  0  0  0
 26 31  1  0  0  0  0
 26 64  1  0  0  0  0
 26 65  1  0  0  0  0
 27 33  1  0  0  0  0
 27 66  1  0  0  0  0
 28 67  1  0  0  0  0
 28 68  1  0  0  0  0
 28 69  1  0  0  0  0
 29 70  1  0  0  0  0
 29 71  1  0  0  0  0
 29 72  1  0  0  0  0
 30 73  1  0  0  0  0
 30 74  1  0  0  0  0
 32 34  1  0  0  0  0
 33 35  1  0  0  0  0
 33 75  1  0  0  0  0
 33 76  1  0  0  0  0
 34 77  1  0  0  0  0
 34 78  1  0  0  0  0
 34 79  1  0  0  0  0
 35 37  2  0  0  0  0
 35 81  1  0  0  0  0
 36 37  1  0  0  0  0
 37 38  1  0  0  0  0
 38 82  1  0  0  0  0
 38 83  1  0  0  0  0
 38 84  1  0  0  0  0
M  END
> <PUBCHEM_COMPOUND_CID>
101415306

> <PUBCHEM_CONFORMER_RMSD>
1.2

> <PUBCHEM_CONFORMER_DIVERSEORDER>
1
4
6
5
7
2
3

> <PUBCHEM_MMFF94_PARTIAL_CHARGES>
33
1 -0.43
10 -0.2
13 0.09
14 0.23
17 0.09
19 0.28
2 -0.43
24 -0.28
26 0.06
27 0.28
28 0.14
3 -0.65
30 -0.3
31 0.66
32 0.66
33 0.14
34 0.06
35 -0.29
36 0.71
37 -0.12
38 0.14
4 -0.57
40 0.1
41 0.1
5 -0.57
6 -0.57
7 -0.19
73 0.15
74 0.15
8 -0.19
80 0.5
81 0.15
9 0.09

> <PUBCHEM_EFFECTIVE_ROTOR_COUNT>
10.4

> <PUBCHEM_PHARMACOPHORE_FEATURES>
10
1 29 hydrophobe
1 3 acceptor
1 4 acceptor
1 5 acceptor
1 6 acceptor
3 3 4 31 anion
5 11 12 18 19 21 rings
6 2 27 33 35 36 37 rings
6 7 9 11 12 13 15 rings
7 7 8 9 10 14 16 20 rings

> <PUBCHEM_HEAVY_ATOM_COUNT>
38

> <PUBCHEM_ATOM_DEF_STEREO_COUNT>
10

> <PUBCHEM_ATOM_UDEF_STEREO_COUNT>
0

> <PUBCHEM_BOND_DEF_STEREO_COUNT>
0

> <PUBCHEM_BOND_UDEF_STEREO_COUNT>
0

> <PUBCHEM_ISOTOPIC_ATOM_COUNT>
0

> <PUBCHEM_COMPONENT_COUNT>
1

> <PUBCHEM_CACTVS_TAUTO_COUNT>
4

> <PUBCHEM_CONFORMER_ID>
060B798A00000001

> <PUBCHEM_MMFF94_ENERGY>
138.0271

> <PUBCHEM_FEATURE_SELFOVERLAP>
50.887

> <PUBCHEM_SHAPE_FINGERPRINT>
10165383 225 17988359386578835648
102385 1 17903627493535535779
11062273 19 17974574894716041773
11331351 85 18272091600220985013
12236239 1 17846500348807578515
12516196 113 18334571386812306001
12788726 201 17968363585594156353
131258 43 18191049888024017364
13383665 225 18261972773246432044
13533116 47 17917996070791791426
13540713 4 18197486347705273568
13540713 5 17317038040307210554
13617811 41 18261119595082675900
13673619 4 18202005378532914506
13690498 29 18267028258584858678
13782708 43 18130227047389694126
13811026 1 18334287656513638579
13835254 42 18271807895571023712
14117953 113 18335980960318123374
14118638 360 18343303652510066696
14347332 77 18267022765226818926
14415361 349 18130223882009470726
14955137 171 18261965136741390019
15183329 4 18260541256314147587
15198563 99 18261109613368333381
15439362 3 17829322833340159445
15849732 13 18342451595513025719
15927050 60 17615126581836567571
16087824 20 18260821589120201717
21424621 283 8358258155286212599
21583282 1 18268719483588301164
21641784 216 17458345191301534789
23522609 53 17345216543605402489
23559900 14 18261956357147566746
23569943 247 18199472069758229787
24771293 8 18197207251254442752
24771750 20 17465959558701408149
255183 451 17987810609928060790
283562 15 18187356585021233161
3178227 256 18114750438640754235
4046055 4 18261395507724265285
4093350 32 18060704987384695474
46194498 28 18201157642847538638
513202 73 18270680849102565663
57527295 17 17898863336250835650
6004065 56 18264201586283631763
613672 6 18260830440013453683
6523845 18 10663831775138861824
70251023 43 18409455756399071320

> <PUBCHEM_SHAPE_MULTIPOLES>
746.81
18.95
4.45
1.87
20.01
4.98
0.23
-13.75
0.99
-3.19
2.91
-1.12
-0.49
3.53

> <PUBCHEM_SHAPE_SELFOVERLAP>
1586.238

> <PUBCHEM_SHAPE_VOLUME>
412.5

> <PUBCHEM_COORDINATE_TYPE>
2
5
10

$$$$
