100986972
  -OEChem-08262007462D

108111  0     1  0  0  0  0  0999 V2000
    9.8250   -2.3672    0.0000 O   0  0  0  0  0  0  0  0  0  0  0  0
   12.4231    2.2463    0.0000 O   0  0  0  0  0  0  0  0  0  0  0  0
    9.0184   -3.6508    0.0000 O   0  0  0  0  0  0  0  0  0  0  0  0
    9.6530    4.8166    0.0000 O   0  0  0  0  0  0  0  0  0  0  0  0
    5.4074   -2.5369    0.0000 O   0  0  0  0  0  0  0  0  0  0  0  0
    4.0268    0.9808    0.0000 O   0  0  0  0  0  0  0  0  0  0  0  0
    5.9163    4.2534    0.0000 O   0  0  0  0  0  0  0  0  0  0  0  0
   14.8113    3.9545    0.0000 O   0  0  0  0  0  0  0  0  0  0  0  0
   10.9923    2.7470    0.0000 N   0  0  0  0  0  0  0  0  0  0  0  0
    6.9138   -2.3672    0.0000 N   0  0  0  0  0  0  0  0  0  0  0  0
    8.3694    4.0101    0.0000 N   0  0  0  0  0  0  0  0  0  0  0  0
    5.0988   -0.0911    0.0000 N   0  0  0  0  0  0  0  0  0  0  0  0
    5.7466    2.7470    0.0000 N   0  0  0  0  0  0  0  0  0  0  0  0
   11.6400   -0.0911    0.0000 C   0  0  0  0  0  0  0  0  0  0  0  0
   11.2747   -1.0220    0.0000 C   0  0  0  0  0  0  0  0  0  0  0  0
   11.7148    0.9061    0.0000 C   0  0  0  0  0  0  0  0  0  0  0  0
   12.4868    0.4409    0.0000 C   0  0  0  0  0  0  0  0  0  0  0  0
   12.5242   -0.5584    0.0000 C   0  0  0  0  0  0  0  0  0  0  0  0
   12.3070   -1.1614    0.0000 C   0  0  0  0  0  0  0  0  0  0  0  0
   10.6512   -1.8038    0.0000 C   0  0  0  0  0  0  0  0  0  0  0  0
   11.4923    1.8810    0.0000 C   0  0  0  0  0  0  0  0  0  0  0  0
    7.8694   -2.6619    0.0000 C   0  0  2  0  0  0  0  0  0  0  0  0
    7.7204   -3.6508    0.0000 C   0  0  0  0  0  0  0  0  0  0  0  0
   12.6950   -2.1280    0.0000 C   0  0  0  0  0  0  0  0  0  0  0  0
   11.0168   -2.7792    0.0000 C   0  0  0  0  0  0  0  0  0  0  0  0
   12.0455   -2.9424    0.0000 C   0  0  0  0  0  0  0  0  0  0  0  0
    6.7895   -4.0161    0.0000 C   0  0  0  0  0  0  0  0  0  0  0  0
   10.2592    3.4272    0.0000 C   0  0  1  0  0  0  0  0  0  0  0  0
   13.2336   -0.7853    0.0000 C   0  0  0  0  0  0  0  0  0  0  0  0
    8.8694   -2.6619    0.0000 C   0  0  0  0  0  0  0  0  0  0  0  0
   10.8225    4.2534    0.0000 C   0  0  0  0  0  0  0  0  0  0  0  0
    5.4641   -1.0220    0.0000 C   0  0  2  0  0  0  0  0  0  0  0  0
    6.6404   -5.0049    0.0000 C   0  0  0  0  0  0  0  0  0  0  0  0
    6.0077   -3.3926    0.0000 C   0  0  0  0  0  0  0  0  0  0  0  0
   12.4073   -3.8747    0.0000 C   0  0  0  0  0  0  0  0  0  0  0  0
    9.3582    3.8611    0.0000 C   0  0  0  0  0  0  0  0  0  0  0  0
    6.0876   -1.8038    0.0000 C   0  0  0  0  0  0  0  0  0  0  0  0
   11.8197    4.1787    0.0000 C   0  0  0  0  0  0  0  0  0  0  0  0
    4.5981   -1.5220    0.0000 C   0  0  0  0  0  0  0  0  0  0  0  0
    7.3806    3.8611    0.0000 C   0  0  1  0  0  0  0  0  0  0  0  0
    3.7320   -1.0220    0.0000 C   0  0  0  0  0  0  0  0  0  0  0  0
   12.3830    5.0049    0.0000 C   0  0  0  0  0  0  0  0  0  0  0  0
   12.2536    3.2777    0.0000 C   0  0  0  0  0  0  0  0  0  0  0  0
    5.0240    0.9061    0.0000 C   0  0  0  0  0  0  0  0  0  0  0  0
    6.4796    3.4272    0.0000 C   0  0  0  0  0  0  0  0  0  0  0  0
    5.2466    1.8810    0.0000 C   0  0  0  0  0  0  0  0  0  0  0  0
    7.0858    4.8166    0.0000 C   0  0  0  0  0  0  0  0  0  0  0  0
    3.7320   -0.0220    0.0000 C   0  0  0  0  0  0  0  0  0  0  0  0
    2.8660   -1.5220    0.0000 C   0  0  0  0  0  0  0  0  0  0  0  0
   13.3802    4.9302    0.0000 C   0  0  0  0  0  0  0  0  0  0  0  0
   13.2508    3.2030    0.0000 C   0  0  0  0  0  0  0  0  0  0  0  0
   13.8141    4.0292    0.0000 C   0  0  0  0  0  0  0  0  0  0  0  0
    2.8660    0.4780    0.0000 C   0  0  0  0  0  0  0  0  0  0  0  0
    2.0000   -1.0220    0.0000 C   0  0  0  0  0  0  0  0  0  0  0  0
    2.0000   -0.0220    0.0000 C   0  0  0  0  0  0  0  0  0  0  0  0
   12.2593    0.6095    0.0000 H   0  0  0  0  0  0  0  0  0  0  0  0
   11.0965    0.8597    0.0000 H   0  0  0  0  0  0  0  0  0  0  0  0
   12.8166   -0.0841    0.0000 H   0  0  0  0  0  0  0  0  0  0  0  0
   13.0117    0.7707    0.0000 H   0  0  0  0  0  0  0  0  0  0  0  0
   12.1569    0.9659    0.0000 H   0  0  0  0  0  0  0  0  0  0  0  0
   12.2345   -1.1066    0.0000 H   0  0  0  0  0  0  0  0  0  0  0  0
   13.0723   -0.8481    0.0000 H   0  0  0  0  0  0  0  0  0  0  0  0
   12.8139   -0.0103    0.0000 H   0  0  0  0  0  0  0  0  0  0  0  0
    7.3444   -2.9918    0.0000 H   0  0  0  0  0  0  0  0  0  0  0  0
    7.8432   -4.2585    0.0000 H   0  0  0  0  0  0  0  0  0  0  0  0
    8.3402   -3.6353    0.0000 H   0  0  0  0  0  0  0  0  0  0  0  0
   13.3084   -2.2181    0.0000 H   0  0  0  0  0  0  0  0  0  0  0  0
   10.6246   -3.2595    0.0000 H   0  0  0  0  0  0  0  0  0  0  0  0
    6.2124   -4.2426    0.0000 H   0  0  0  0  0  0  0  0  0  0  0  0
   10.8753    3.4966    0.0000 H   0  0  0  0  0  0  0  0  0  0  0  0
   11.4770    3.1336    0.0000 H   0  0  0  0  0  0  0  0  0  0  0  0
   13.4667   -1.3598    0.0000 H   0  0  0  0  0  0  0  0  0  0  0  0
   13.8080   -0.5521    0.0000 H   0  0  0  0  0  0  0  0  0  0  0  0
   13.0004   -0.2108    0.0000 H   0  0  0  0  0  0  0  0  0  0  0  0
   10.9755    4.8543    0.0000 H   0  0  0  0  0  0  0  0  0  0  0  0
   10.2574    4.5084    0.0000 H   0  0  0  0  0  0  0  0  0  0  0  0
    6.6448   -2.9258    0.0000 H   0  0  0  0  0  0  0  0  0  0  0  0
    4.8789   -0.8172    0.0000 H   0  0  0  0  0  0  0  0  0  0  0  0
    6.0274   -4.9125    0.0000 H   0  0  0  0  0  0  0  0  0  0  0  0
    6.5480   -5.6180    0.0000 H   0  0  0  0  0  0  0  0  0  0  0  0
    7.2535   -5.0973    0.0000 H   0  0  0  0  0  0  0  0  0  0  0  0
    6.3942   -2.9079    0.0000 H   0  0  0  0  0  0  0  0  0  0  0  0
    5.5229   -3.0060    0.0000 H   0  0  0  0  0  0  0  0  0  0  0  0
    5.6211   -3.8774    0.0000 H   0  0  0  0  0  0  0  0  0  0  0  0
   11.8293   -4.0990    0.0000 H   0  0  0  0  0  0  0  0  0  0  0  0
   12.6316   -4.4527    0.0000 H   0  0  0  0  0  0  0  0  0  0  0  0
   12.9853   -3.6504    0.0000 H   0  0  0  0  0  0  0  0  0  0  0  0
    4.1996   -1.9970    0.0000 H   0  0  0  0  0  0  0  0  0  0  0  0
    4.9966   -1.9970    0.0000 H   0  0  0  0  0  0  0  0  0  0  0  0
    8.3694    4.6301    0.0000 H   0  0  0  0  0  0  0  0  0  0  0  0
    7.7104    4.3860    0.0000 H   0  0  0  0  0  0  0  0  0  0  0  0
    4.4943   -0.2291    0.0000 H   0  0  0  0  0  0  0  0  0  0  0  0
   12.1140    5.5635    0.0000 H   0  0  0  0  0  0  0  0  0  0  0  0
   11.9044    2.7654    0.0000 H   0  0  0  0  0  0  0  0  0  0  0  0
    4.8846    2.3844    0.0000 H   0  0  0  0  0  0  0  0  0  0  0  0
    5.8237    1.6545    0.0000 H   0  0  0  0  0  0  0  0  0  0  0  0
    7.6783    4.9994    0.0000 H   0  0  0  0  0  0  0  0  0  0  0  0
    6.9031    5.4091    0.0000 H   0  0  0  0  0  0  0  0  0  0  0  0
    6.4934    4.6339    0.0000 H   0  0  0  0  0  0  0  0  0  0  0  0
    5.2618    3.1336    0.0000 H   0  0  0  0  0  0  0  0  0  0  0  0
    4.2690    0.2880    0.0000 H   0  0  0  0  0  0  0  0  0  0  0  0
    2.8660   -2.1420    0.0000 H   0  0  0  0  0  0  0  0  0  0  0  0
   13.7295    5.4425    0.0000 H   0  0  0  0  0  0  0  0  0  0  0  0
   13.5198    2.6444    0.0000 H   0  0  0  0  0  0  0  0  0  0  0  0
    2.8660    1.0980    0.0000 H   0  0  0  0  0  0  0  0  0  0  0  0
    1.4631   -1.3320    0.0000 H   0  0  0  0  0  0  0  0  0  0  0  0
    1.4631    0.2880    0.0000 H   0  0  0  0  0  0  0  0  0  0  0  0
   15.1606    4.4668    0.0000 H   0  0  0  0  0  0  0  0  0  0  0  0
  1 20  1  0  0  0  0
  1 30  1  0  0  0  0
  2 21  2  0  0  0  0
  3 30  2  0  0  0  0
  4 36  2  0  0  0  0
  5 37  2  0  0  0  0
  6 44  2  0  0  0  0
  7 45  2  0  0  0  0
  8 52  1  0  0  0  0
  8108  1  0  0  0  0
  9 21  1  0  0  0  0
  9 28  1  0  0  0  0
  9 71  1  0  0  0  0
 10 22  1  0  0  0  0
 10 37  1  0  0  0  0
 10 77  1  0  0  0  0
 11 36  1  0  0  0  0
 11 40  1  0  0  0  0
 11 90  1  0  0  0  0
 12 32  1  0  0  0  0
 12 44  1  0  0  0  0
 12 92  1  0  0  0  0
 13 45  1  0  0  0  0
 13 46  1  0  0  0  0
 13100  1  0  0  0  0
 14 15  1  0  0  0  0
 14 16  1  0  0  0  0
 14 17  1  0  0  0  0
 14 18  1  0  0  0  0
 15 19  2  0  0  0  0
 15 20  1  0  0  0  0
 16 21  1  0  0  0  0
 16 56  1  0  0  0  0
 16 57  1  0  0  0  0
 17 58  1  0  0  0  0
 17 59  1  0  0  0  0
 17 60  1  0  0  0  0
 18 61  1  0  0  0  0
 18 62  1  0  0  0  0
 18 63  1  0  0  0  0
 19 24  1  0  0  0  0
 19 29  1  0  0  0  0
 20 25  2  0  0  0  0
 22 23  1  1  0  0  0
 22 30  1  0  0  0  0
 22 64  1  0  0  0  0
 23 27  1  0  0  0  0
 23 65  1  0  0  0  0
 23 66  1  0  0  0  0
 24 26  2  0  0  0  0
 24 67  1  0  0  0  0
 25 26  1  0  0  0  0
 25 68  1  0  0  0  0
 26 35  1  0  0  0  0
 27 33  1  0  0  0  0
 27 34  1  0  0  0  0
 27 69  1  0  0  0  0
 28 31  1  6  0  0  0
 28 36  1  0  0  0  0
 28 70  1  0  0  0  0
 29 72  1  0  0  0  0
 29 73  1  0  0  0  0
 29 74  1  0  0  0  0
 31 38  1  0  0  0  0
 31 75  1  0  0  0  0
 31 76  1  0  0  0  0
 32 37  1  0  0  0  0
 32 39  1  6  0  0  0
 32 78  1  0  0  0  0
 33 79  1  0  0  0  0
 33 80  1  0  0  0  0
 33 81  1  0  0  0  0
 34 82  1  0  0  0  0
 34 83  1  0  0  0  0
 34 84  1  0  0  0  0
 35 85  1  0  0  0  0
 35 86  1  0  0  0  0
 35 87  1  0  0  0  0
 38 42  2  0  0  0  0
 38 43  1  0  0  0  0
 39 41  1  0  0  0  0
 39 88  1  0  0  0  0
 39 89  1  0  0  0  0
 40 45  1  0  0  0  0
 40 47  1  1  0  0  0
 40 91  1  0  0  0  0
 41 48  2  0  0  0  0
 41 49  1  0  0  0  0
 42 50  1  0  0  0  0
 42 93  1  0  0  0  0
 43 51  2  0  0  0  0
 43 94  1  0  0  0  0
 44 46  1  0  0  0  0
 46 95  1  0  0  0  0
 46 96  1  0  0  0  0
 47 97  1  0  0  0  0
 47 98  1  0  0  0  0
 47 99  1  0  0  0  0
 48 53  1  0  0  0  0
 48101  1  0  0  0  0
 49 54  2  0  0  0  0
 49102  1  0  0  0  0
 50 52  2  0  0  0  0
 50103  1  0  0  0  0
 51 52  1  0  0  0  0
 51104  1  0  0  0  0
 53 55  2  0  0  0  0
 53105  1  0  0  0  0
 54 55  1  0  0  0  0
 54106  1  0  0  0  0
 55107  1  0  0  0  0
M  END
> <PUBCHEM_COMPOUND_CID>
100986972

> <PUBCHEM_COMPOUND_CANONICALIZED>
1

> <PUBCHEM_CACTVS_COMPLEXITY>
1340

> <PUBCHEM_CACTVS_HBOND_ACCEPTOR>
8

> <PUBCHEM_CACTVS_HBOND_DONOR>
6

> <PUBCHEM_CACTVS_ROTATABLE_BOND>
6

> <PUBCHEM_CACTVS_SUBSKEYS>
AAADcfB/vAAAAAAAAAAAAAAAAAAAAAAAAAAwYMAAAAAAAAABUAAAHgAQCAAADyzBmAQyDoLABgCIAiHSGAACCAAgIAAIiIGOCIgOZjKGsTuXeiCk1hGYuAeY3PLP4AADAAAYAADAAAYAADAAAAAAAAAAAA==

> <PUBCHEM_IUPAC_OPENEYE_NAME>
(4R,7S,13R,16S)-7-benzyl-16-[(4-hydroxyphenyl)methyl]-4-isobutyl-13,20,20,22,24-pentamethyl-2-oxa-5,8,11,14,17-pentazabicyclo[19.4.0]pentacosa-1(25),21,23-triene-3,6,9,12,15,18-hexone

> <PUBCHEM_IUPAC_CAS_NAME>
(4R,7S,13R,16S)-16-[(4-hydroxyphenyl)methyl]-13,20,20,22,24-pentamethyl-4-(2-methylpropyl)-7-(phenylmethyl)-2-oxa-5,8,11,14,17-pentazabicyclo[19.4.0]pentacosa-1(25),21,23-triene-3,6,9,12,15,18-hexone

> <PUBCHEM_IUPAC_NAME_MARKUP>
(4<I>R</I>,7<I>S</I>,13<I>R</I>,16<I>S</I>)-7-benzyl-16-[(4-hydroxyphenyl)methyl]-13,20,20,22,24-pentamethyl-4-(2-methylpropyl)-2-oxa-5,8,11,14,17-pentazabicyclo[19.4.0]pentacosa-1(25),21,23-triene-3,6,9,12,15,18-hexone

> <PUBCHEM_IUPAC_NAME>
(4R,7S,13R,16S)-7-benzyl-16-[(4-hydroxyphenyl)methyl]-13,20,20,22,24-pentamethyl-4-(2-methylpropyl)-2-oxa-5,8,11,14,17-pentazabicyclo[19.4.0]pentacosa-1(25),21,23-triene-3,6,9,12,15,18-hexone

> <PUBCHEM_IUPAC_SYSTEMATIC_NAME>
(4R,7S,13R,16S)-16-[(4-hydroxyphenyl)methyl]-13,20,20,22,24-pentamethyl-4-(2-methylpropyl)-7-(phenylmethyl)-2-oxa-5,8,11,14,17-pentazabicyclo[19.4.0]pentacosa-1(25),21,23-triene-3,6,9,12,15,18-hexone

> <PUBCHEM_IUPAC_TRADITIONAL_NAME>
(4R,7S,13R,16S)-7-benzyl-16-(4-hydroxybenzyl)-4-isobutyl-13,20,20,22,24-pentamethyl-2-oxa-5,8,11,14,17-pentazabicyclo[19.4.0]pentacosa-1(25),21,23-triene-3,6,9,12,15,18-triquinone

> <PUBCHEM_IUPAC_INCHI>
InChI=1S/C42H53N5O8/c1-24(2)17-33-41(54)55-34-19-25(3)18-26(4)37(34)42(6,7)22-35(49)45-31(21-29-13-15-30(48)16-14-29)39(52)44-27(5)38(51)43-23-36(50)46-32(40(53)47-33)20-28-11-9-8-10-12-28/h8-16,18-19,24,27,31-33,48H,17,20-23H2,1-7H3,(H,43,51)(H,44,52)(H,45,49)(H,46,50)(H,47,53)/t27-,31+,32+,33-/m1/s1

> <PUBCHEM_IUPAC_INCHIKEY>
QOTPXCNGVFEMQZ-OUDZLNJNSA-N

> <PUBCHEM_XLOGP3_AA>
5.7

> <PUBCHEM_EXACT_MASS>
755.389414

> <PUBCHEM_MOLECULAR_FORMULA>
C42H53N5O8

> <PUBCHEM_MOLECULAR_WEIGHT>
755.9

> <PUBCHEM_OPENEYE_CAN_SMILES>
CC1C(=O)NCC(=O)NC(C(=O)NC(C(=O)OC2=CC(=CC(=C2C(CC(=O)NC(C(=O)N1)CC3=CC=C(C=C3)O)(C)C)C)C)CC(C)C)CC4=CC=CC=C4

> <PUBCHEM_OPENEYE_ISO_SMILES>
C[C@@H]1C(=O)NCC(=O)N[C@H](C(=O)N[C@@H](C(=O)OC2=CC(=CC(=C2C(CC(=O)N[C@H](C(=O)N1)CC3=CC=C(C=C3)O)(C)C)C)C)CC(C)C)CC4=CC=CC=C4

> <PUBCHEM_CACTVS_TPSA>
192

> <PUBCHEM_MONOISOTOPIC_WEIGHT>
755.389414

> <PUBCHEM_TOTAL_CHARGE>
0

> <PUBCHEM_HEAVY_ATOM_COUNT>
55

> <PUBCHEM_ATOM_DEF_STEREO_COUNT>
4

> <PUBCHEM_ATOM_UDEF_STEREO_COUNT>
0

> <PUBCHEM_BOND_DEF_STEREO_COUNT>
0

> <PUBCHEM_BOND_UDEF_STEREO_COUNT>
0

> <PUBCHEM_ISOTOPIC_ATOM_COUNT>
0

> <PUBCHEM_COMPONENT_COUNT>
1

> <PUBCHEM_CACTVS_TAUTO_COUNT>
-1

> <PUBCHEM_COORDINATE_TYPE>
1
5
255

> <PUBCHEM_BONDANNOTATIONS>
15  19  8
15  20  8
19  24  8
20  25  8
22  23  5
24  26  8
25  26  8
28  31  6
32  39  6
38  42  8
38  43  8
40  47  5
41  48  8
41  49  8
42  50  8
43  51  8
48  53  8
49  54  8
50  52  8
51  52  8
53  55  8
54  55  8

$$$$
