84271
  -OEChem-10012011023D

 26 26  0     0  0  0  0  0  0999 V2000
   -0.1462   -2.5571    0.3170 O   0  0  0  0  0  0  0  0  0  0  0  0
    2.2074    1.6251    0.2903 O   0  0  0  0  0  0  0  0  0  0  0  0
   -2.5402    1.5418   -0.0876 O   0  0  0  0  0  0  0  0  0  0  0  0
    2.2884   -1.1732    0.4401 N   0  0  0  0  0  0  0  0  0  0  0  0
    1.0614   -0.4836    0.3063 C   0  0  0  0  0  0  0  0  0  0  0  0
   -0.1364   -1.1960    0.2468 C   0  0  0  0  0  0  0  0  0  0  0  0
    1.0489    0.9092    0.2335 C   0  0  0  0  0  0  0  0  0  0  0  0
   -1.3593    0.8775    0.0418 C   0  0  0  0  0  0  0  0  0  0  0  0
   -1.3468   -0.5154    0.1145 C   0  0  0  0  0  0  0  0  0  0  0  0
   -0.1615    1.5898    0.1014 C   0  0  0  0  0  0  0  0  0  0  0  0
   -0.0488   -3.2696   -0.9143 C   0  0  0  0  0  0  0  0  0  0  0  0
    2.8601    1.8998   -0.9473 C   0  0  0  0  0  0  0  0  0  0  0  0
   -3.7269    0.7517   -0.1426 C   0  0  0  0  0  0  0  0  0  0  0  0
   -2.2447   -1.1235    0.0751 H   0  0  0  0  0  0  0  0  0  0  0  0
   -0.1730    2.6755    0.0454 H   0  0  0  0  0  0  0  0  0  0  0  0
    2.2950   -2.1816    0.5151 H   0  0  0  0  0  0  0  0  0  0  0  0
    3.1542   -0.6547    0.5053 H   0  0  0  0  0  0  0  0  0  0  0  0
   -0.9186   -3.0611   -1.5453 H   0  0  0  0  0  0  0  0  0  0  0  0
    0.8710   -3.0067   -1.4460 H   0  0  0  0  0  0  0  0  0  0  0  0
   -0.0287   -4.3395   -0.6900 H   0  0  0  0  0  0  0  0  0  0  0  0
    2.2268    2.5292   -1.5807 H   0  0  0  0  0  0  0  0  0  0  0  0
    3.1097    0.9721   -1.4716 H   0  0  0  0  0  0  0  0  0  0  0  0
    3.7863    2.4400   -0.7334 H   0  0  0  0  0  0  0  0  0  0  0  0
   -3.8833    0.1949    0.7875 H   0  0  0  0  0  0  0  0  0  0  0  0
   -3.7368    0.1008   -1.0235 H   0  0  0  0  0  0  0  0  0  0  0  0
   -4.5702    1.4423   -0.2467 H   0  0  0  0  0  0  0  0  0  0  0  0
  1  6  1  0  0  0  0
  1 11  1  0  0  0  0
  2  7  1  0  0  0  0
  2 12  1  0  0  0  0
  3  8  1  0  0  0  0
  3 13  1  0  0  0  0
  4  5  1  0  0  0  0
  4 16  1  0  0  0  0
  4 17  1  0  0  0  0
  5  6  2  0  0  0  0
  5  7  1  0  0  0  0
  6  9  1  0  0  0  0
  7 10  2  0  0  0  0
  8  9  2  0  0  0  0
  8 10  1  0  0  0  0
  9 14  1  0  0  0  0
 10 15  1  0  0  0  0
 11 18  1  0  0  0  0
 11 19  1  0  0  0  0
 11 20  1  0  0  0  0
 12 21  1  0  0  0  0
 12 22  1  0  0  0  0
 12 23  1  0  0  0  0
 13 24  1  0  0  0  0
 13 25  1  0  0  0  0
 13 26  1  0  0  0  0
M  END
> <PUBCHEM_COMPOUND_CID>
84271

> <PUBCHEM_CONFORMER_RMSD>
0.6

> <PUBCHEM_CONFORMER_DIVERSEORDER>
2
1

> <PUBCHEM_MMFF94_PARTIAL_CHARGES>
17
1 -0.36
10 -0.15
11 0.28
12 0.28
13 0.28
14 0.15
15 0.15
16 0.4
17 0.4
2 -0.36
3 -0.36
4 -0.9
5 0.1
6 0.08
7 0.08
8 0.08
9 -0.15

> <PUBCHEM_EFFECTIVE_ROTOR_COUNT>
3

> <PUBCHEM_PHARMACOPHORE_FEATURES>
6
1 1 acceptor
1 2 acceptor
1 3 acceptor
1 4 cation
1 4 donor
6 5 6 7 8 9 10 rings

> <PUBCHEM_HEAVY_ATOM_COUNT>
13

> <PUBCHEM_ATOM_DEF_STEREO_COUNT>
0

> <PUBCHEM_ATOM_UDEF_STEREO_COUNT>
0

> <PUBCHEM_BOND_DEF_STEREO_COUNT>
0

> <PUBCHEM_BOND_UDEF_STEREO_COUNT>
0

> <PUBCHEM_ISOTOPIC_ATOM_COUNT>
0

> <PUBCHEM_COMPONENT_COUNT>
1

> <PUBCHEM_CACTVS_TAUTO_COUNT>
1

> <PUBCHEM_CONFORMER_ID>
0001492F00000002

> <PUBCHEM_MMFF94_ENERGY>
73.9829

> <PUBCHEM_FEATURE_SELFOVERLAP>
30.446

> <PUBCHEM_SHAPE_FINGERPRINT>
1 1 18338513036860142207
11206711 2 17615686666909412310
12138202 97 18196105540840365884
12423570 1 12822712939192094810
13380535 76 18409164437077801728
13380536 305 18337959986859111588
161256 15 17333364602283847202
16945 1 18194686956018180185
17990270 104 17977943484673011363
193761 8 18266174109701010034
20511035 2 18260272961974896346
20645476 183 18041855028841417980
20645477 70 18337101251810177469
20711985 344 17761487389030695546
20871998 184 17978525448088027251
20871998 22 17477199436590970299
21040471 1 18338230578357312136
21524375 3 18334009523032228601
2334 1 18338514243830341873
23419403 2 16964426950269987106
23530152 11 18411980286620442583
23552423 10 18195810652796885813
241688 4 17041482713508418611
2748010 2 18409453604404197473
53812653 217 18123756619028299062
7364860 26 18197496216806487381
81228 2 17761205922617474425

> <PUBCHEM_SHAPE_MULTIPOLES>
244.94
3.96
3.12
0.78
1.26
2.84
-0.12
-3.1
-0.59
-0.21
-0.71
-0.23
0.12
-0.36

> <PUBCHEM_SHAPE_SELFOVERLAP>
502.91

> <PUBCHEM_SHAPE_VOLUME>
143.3

> <PUBCHEM_COORDINATE_TYPE>
2
5
10

$$$$
