38348965
  -OEChem-09302014423D

 34 37  0     1  0  0  0  0  0999 V2000
   -0.7906    1.8889   -0.0807 O   0  0  0  0  0  0  0  0  0  0  0  0
   -1.7215   -1.3166   -1.0225 O   0  0  0  0  0  0  0  0  0  0  0  0
    1.5841    2.1407    0.0630 O   0  0  0  0  0  0  0  0  0  0  0  0
   -3.9945   -1.6474   -0.7416 O   0  0  0  0  0  0  0  0  0  0  0  0
    3.9033   -1.8417    0.6526 O   0  0  0  0  0  0  0  0  0  0  0  0
    5.1479   -0.0601   -0.0595 O   0  0  0  0  0  0  0  0  0  0  0  0
   -0.8543   -0.3762   -0.4264 C   0  0  1  0  0  0  0  0  0  0  0  0
    0.4977    0.0424   -1.0027 C   0  0  2  0  0  0  0  0  0  0  0  0
   -1.6186    0.8972   -0.6355 C   0  0  1  0  0  0  0  0  0  0  0  0
    1.5693   -0.7641   -0.2614 C   0  0  2  0  0  0  0  0  0  0  0  0
    0.5092    1.5869   -0.6912 C   0  0  1  0  0  0  0  0  0  0  0  0
   -3.0170    0.5405   -0.2128 C   0  0  1  0  0  0  0  0  0  0  0  0
   -0.4533   -0.8995    0.9270 C   0  0  0  0  0  0  0  0  0  0  0  0
    0.8568   -1.1522    0.9980 C   0  0  0  0  0  0  0  0  0  0  0  0
   -3.0128   -0.9241   -0.6676 C   0  0  0  0  0  0  0  0  0  0  0  0
    2.7751    0.0602    0.0179 C   0  0  0  0  0  0  0  0  0  0  0  0
   -3.3823    0.7588    1.2390 C   0  0  0  0  0  0  0  0  0  0  0  0
    2.7135    1.3845    0.1673 C   0  0  0  0  0  0  0  0  0  0  0  0
   -4.7890    0.2685    1.5500 C   0  0  0  0  0  0  0  0  0  0  0  0
    4.0770   -0.5866    0.1870 C   0  0  0  0  0  0  0  0  0  0  0  0
    0.5608   -0.1275   -2.0848 H   0  0  0  0  0  0  0  0  0  0  0  0
   -1.6972    1.1179   -1.7158 H   0  0  0  0  0  0  0  0  0  0  0  0
    1.8160   -1.6631   -0.8392 H   0  0  0  0  0  0  0  0  0  0  0  0
    0.5150    2.1184   -1.6527 H   0  0  0  0  0  0  0  0  0  0  0  0
   -3.7243    1.0865   -0.8501 H   0  0  0  0  0  0  0  0  0  0  0  0
   -1.1360   -1.1572    1.7224 H   0  0  0  0  0  0  0  0  0  0  0  0
    1.3331   -1.6059    1.8561 H   0  0  0  0  0  0  0  0  0  0  0  0
   -2.6925    0.2682    1.9272 H   0  0  0  0  0  0  0  0  0  0  0  0
   -3.3270    1.8317    1.4600 H   0  0  0  0  0  0  0  0  0  0  0  0
    3.5505    2.0082    0.4521 H   0  0  0  0  0  0  0  0  0  0  0  0
   -5.5205    0.6837    0.8495 H   0  0  0  0  0  0  0  0  0  0  0  0
   -5.0766    0.5818    2.5592 H   0  0  0  0  0  0  0  0  0  0  0  0
   -4.8535   -0.8228    1.5198 H   0  0  0  0  0  0  0  0  0  0  0  0
    4.7564   -2.3094    0.7791 H   0  0  0  0  0  0  0  0  0  0  0  0
  1  9  1  0  0  0  0
  1 11  1  0  0  0  0
  2  7  1  0  0  0  0
  2 15  1  0  0  0  0
  3 11  1  0  0  0  0
  3 18  1  0  0  0  0
  4 15  2  0  0  0  0
  5 20  1  0  0  0  0
  5 34  1  0  0  0  0
  6 20  2  0  0  0  0
  7  8  1  0  0  0  0
  7  9  1  0  0  0  0
  7 13  1  0  0  0  0
  8 10  1  0  0  0  0
  8 11  1  0  0  0  0
  8 21  1  0  0  0  0
  9 12  1  0  0  0  0
  9 22  1  0  0  0  0
 10 14  1  0  0  0  0
 10 16  1  0  0  0  0
 10 23  1  0  0  0  0
 11 24  1  0  0  0  0
 12 15  1  0  0  0  0
 12 17  1  0  0  0  0
 12 25  1  0  0  0  0
 13 14  2  0  0  0  0
 13 26  1  0  0  0  0
 14 27  1  0  0  0  0
 16 18  2  0  0  0  0
 16 20  1  0  0  0  0
 17 19  1  0  0  0  0
 17 28  1  0  0  0  0
 17 29  1  0  0  0  0
 18 30  1  0  0  0  0
 19 31  1  0  0  0  0
 19 32  1  0  0  0  0
 19 33  1  0  0  0  0
M  END
> <PUBCHEM_COMPOUND_CID>
38348965

> <PUBCHEM_CONFORMER_RMSD>
0.6

> <PUBCHEM_CONFORMER_DIVERSEORDER>
1
2

> <PUBCHEM_MMFF94_PARTIAL_CHARGES>
21
1 -0.56
10 0.28
11 0.56
12 0.06
13 -0.29
14 -0.29
15 0.66
16 -0.12
18 -0.07
2 -0.43
20 0.71
26 0.15
27 0.15
3 -0.36
30 0.15
34 0.5
4 -0.57
5 -0.65
6 -0.57
7 0.42
9 0.28

> <PUBCHEM_EFFECTIVE_ROTOR_COUNT>
2.8

> <PUBCHEM_PHARMACOPHORE_FEATURES>
11
1 1 acceptor
1 19 hydrophobe
1 3 acceptor
1 4 acceptor
1 5 acceptor
1 6 acceptor
3 5 6 20 anion
5 1 7 8 9 11 rings
5 2 7 9 12 15 rings
5 7 8 10 13 14 rings
6 3 8 10 11 16 18 rings

> <PUBCHEM_HEAVY_ATOM_COUNT>
20

> <PUBCHEM_ATOM_DEF_STEREO_COUNT>
6

> <PUBCHEM_ATOM_UDEF_STEREO_COUNT>
0

> <PUBCHEM_BOND_DEF_STEREO_COUNT>
0

> <PUBCHEM_BOND_UDEF_STEREO_COUNT>
0

> <PUBCHEM_ISOTOPIC_ATOM_COUNT>
0

> <PUBCHEM_COMPONENT_COUNT>
1

> <PUBCHEM_CACTVS_TAUTO_COUNT>
2

> <PUBCHEM_CONFORMER_ID>
024928A500000001

> <PUBCHEM_MMFF94_ENERGY>
78.9054

> <PUBCHEM_FEATURE_SELFOVERLAP>
57.082

> <PUBCHEM_SHAPE_FINGERPRINT>
10062212 137 18201434809212265991
10863032 1 18058727038790398592
11132069 177 18338504283917376296
11578080 2 17983823857542867249
12236239 1 18343021116803079539
12251169 10 18272094872605821121
12491281 212 18201168744636358953
12670546 56 17917422163811873233
13140716 1 18338241581963024905
13221675 6 18408601435663887558
13675066 3 18186522081275293277
13760787 5 18114185262876226644
13965767 371 17408558072541578953
14787075 74 18041287646334008592
15196674 1 18410569621581047924
15209289 33 18259707787096560083
15209294 21 17917716751561206569
15309172 13 18411702058718161311
15375462 189 18261391113697375082
15527383 91 18334864909066955745
15536298 74 18270392910247449180
15848702 151 18273217469445618454
16945 1 18341328894644558148
1813 80 18041293075230647982
18186145 218 18410289228956922020
19422 9 18343300413666920783
200 152 18342726447481185639
21267235 1 18411141363232381903
21501502 16 18270401718845513341
22112679 90 18272372014092451117
23402539 116 18410002222241838166
23419403 2 14427899838680461562
23493267 7 15430304798688646429
23557571 272 16271933739702674327
23559900 14 18261386810936930636
25147074 1 18199194056460745565
2748010 2 17826236482192346626
296302 2 15626219126516151264
3286 77 17845644975288208808
34934 24 18189610545414204741
474 4 18120371218331630789
5104073 3 18271241719906453618
9981440 41 17260454298197682825

> <PUBCHEM_SHAPE_MULTIPOLES>
376.37
8.08
1.77
1.13
1.26
0.35
0.18
-1.57
2.03
0.37
-0.05
-1.02
-0.13
-0.77

> <PUBCHEM_SHAPE_SELFOVERLAP>
844.778

> <PUBCHEM_SHAPE_VOLUME>
200.4

> <PUBCHEM_COORDINATE_TYPE>
2
5
10

$$$$
