57509488
  -OEChem-09302014403D

 37 40  0     1  0  0  0  0  0999 V2000
   -1.4466    1.3744   -1.1803 O   0  0  0  0  0  0  0  0  0  0  0  0
   -1.9554   -1.5729   -0.5627 O   0  0  0  0  0  0  0  0  0  0  0  0
    0.7545    2.0836   -0.8009 O   0  0  0  0  0  0  0  0  0  0  0  0
   -4.2080   -1.7128   -0.9370 O   0  0  0  0  0  0  0  0  0  0  0  0
    4.1217   -1.0295   -0.0948 O   0  0  0  0  0  0  0  0  0  0  0  0
    4.3756    1.0166    0.9580 O   0  0  0  0  0  0  0  0  0  0  0  0
   -1.0448   -0.6119   -0.0256 C   0  0  1  0  0  0  0  0  0  0  0  0
    0.1197   -0.3674   -0.9886 C   0  0  2  0  0  0  0  0  0  0  0  0
   -1.7969    0.6928    0.0372 C   0  0  2  0  0  0  0  0  0  0  0  0
    1.4165   -0.7266   -0.2466 C   0  0  2  0  0  0  0  0  0  0  0  0
   -0.0566    1.0892   -1.4296 C   0  0  1  0  0  0  0  0  0  0  0  0
   -3.2624    0.3104    0.0131 C   0  0  1  0  0  0  0  0  0  0  0  0
   -0.4069   -1.1218    1.2157 C   0  0  0  0  0  0  0  0  0  0  0  0
    0.9212   -1.1977    1.0927 C   0  0  0  0  0  0  0  0  0  0  0  0
   -3.2308   -1.0842   -0.5576 C   0  0  0  0  0  0  0  0  0  0  0  0
    2.3500    0.4270   -0.1222 C   0  0  0  0  0  0  0  0  0  0  0  0
   -3.8891    0.2804    1.3983 C   0  0  0  0  0  0  0  0  0  0  0  0
    1.9860    1.6854   -0.3766 C   0  0  0  0  0  0  0  0  0  0  0  0
   -3.9321    1.6641    2.0229 C   0  0  0  0  0  0  0  0  0  0  0  0
    3.7276    0.2009    0.3209 C   0  0  0  0  0  0  0  0  0  0  0  0
    5.4570   -1.4000    0.2639 C   0  0  0  0  0  0  0  0  0  0  0  0
    0.0058   -1.0139   -1.8704 H   0  0  0  0  0  0  0  0  0  0  0  0
   -1.4920    1.3366    0.8666 H   0  0  0  0  0  0  0  0  0  0  0  0
    1.8867   -1.5648   -0.7742 H   0  0  0  0  0  0  0  0  0  0  0  0
    0.1085    1.1801   -2.5092 H   0  0  0  0  0  0  0  0  0  0  0  0
   -3.8268    0.9544   -0.6709 H   0  0  0  0  0  0  0  0  0  0  0  0
   -0.9496   -1.4141    2.1032 H   0  0  0  0  0  0  0  0  0  0  0  0
    1.5729   -1.5626    1.8751 H   0  0  0  0  0  0  0  0  0  0  0  0
   -4.9139   -0.1046    1.3237 H   0  0  0  0  0  0  0  0  0  0  0  0
   -3.3540   -0.4069    2.0643 H   0  0  0  0  0  0  0  0  0  0  0  0
    2.6204    2.5496   -0.2309 H   0  0  0  0  0  0  0  0  0  0  0  0
   -4.4026    2.3885    1.3503 H   0  0  0  0  0  0  0  0  0  0  0  0
   -4.5208    1.6351    2.9460 H   0  0  0  0  0  0  0  0  0  0  0  0
   -2.9377    2.0318    2.2890 H   0  0  0  0  0  0  0  0  0  0  0  0
    5.6484   -2.4025   -0.1279 H   0  0  0  0  0  0  0  0  0  0  0  0
    5.5640   -1.4216    1.3526 H   0  0  0  0  0  0  0  0  0  0  0  0
    6.1753   -0.7052   -0.1817 H   0  0  0  0  0  0  0  0  0  0  0  0
  1  9  1  0  0  0  0
  1 11  1  0  0  0  0
  2  7  1  0  0  0  0
  2 15  1  0  0  0  0
  3 11  1  0  0  0  0
  3 18  1  0  0  0  0
  4 15  2  0  0  0  0
  5 20  1  0  0  0  0
  5 21  1  0  0  0  0
  6 20  2  0  0  0  0
  7  8  1  0  0  0  0
  7  9  1  0  0  0  0
  7 13  1  0  0  0  0
  8 10  1  0  0  0  0
  8 11  1  0  0  0  0
  8 22  1  0  0  0  0
  9 12  1  0  0  0  0
  9 23  1  0  0  0  0
 10 14  1  0  0  0  0
 10 16  1  0  0  0  0
 10 24  1  0  0  0  0
 11 25  1  0  0  0  0
 12 15  1  0  0  0  0
 12 17  1  0  0  0  0
 12 26  1  0  0  0  0
 13 14  2  0  0  0  0
 13 27  1  0  0  0  0
 14 28  1  0  0  0  0
 16 18  2  0  0  0  0
 16 20  1  0  0  0  0
 17 19  1  0  0  0  0
 17 29  1  0  0  0  0
 17 30  1  0  0  0  0
 18 31  1  0  0  0  0
 19 32  1  0  0  0  0
 19 33  1  0  0  0  0
 19 34  1  0  0  0  0
 21 35  1  0  0  0  0
 21 36  1  0  0  0  0
 21 37  1  0  0  0  0
M  END
> <PUBCHEM_COMPOUND_CID>
57509488

> <PUBCHEM_CONFORMER_RMSD>
0.6

> <PUBCHEM_CONFORMER_DIVERSEORDER>
1
6
7
4
10
2
5
8
9
3

> <PUBCHEM_MMFF94_PARTIAL_CHARGES>
21
1 -0.56
10 0.28
11 0.56
12 0.06
13 -0.29
14 -0.29
15 0.66
16 -0.12
18 -0.07
2 -0.43
20 0.71
21 0.28
27 0.15
28 0.15
3 -0.36
31 0.15
4 -0.57
5 -0.43
6 -0.57
7 0.42
9 0.28

> <PUBCHEM_EFFECTIVE_ROTOR_COUNT>
3.8

> <PUBCHEM_PHARMACOPHORE_FEATURES>
9
1 1 acceptor
1 19 hydrophobe
1 3 acceptor
1 4 acceptor
1 6 acceptor
5 1 7 8 9 11 rings
5 2 7 9 12 15 rings
5 7 8 10 13 14 rings
6 3 8 10 11 16 18 rings

> <PUBCHEM_HEAVY_ATOM_COUNT>
21

> <PUBCHEM_ATOM_DEF_STEREO_COUNT>
5

> <PUBCHEM_ATOM_UDEF_STEREO_COUNT>
1

> <PUBCHEM_BOND_DEF_STEREO_COUNT>
0

> <PUBCHEM_BOND_UDEF_STEREO_COUNT>
0

> <PUBCHEM_ISOTOPIC_ATOM_COUNT>
0

> <PUBCHEM_COMPONENT_COUNT>
1

> <PUBCHEM_CACTVS_TAUTO_COUNT>
2

> <PUBCHEM_CONFORMER_ID>
036D867000000001

> <PUBCHEM_MMFF94_ENERGY>
57.5073

> <PUBCHEM_FEATURE_SELFOVERLAP>
46.97

> <PUBCHEM_SHAPE_FINGERPRINT>
10863032 1 17561091271651558879
10948715 1 17417819400483504305
11132069 177 18261384564051583572
12011746 2 17676483925954330007
12236239 1 18412263956726290059
12491281 212 18199203917536741345
12553582 1 17749105587043215354
12670546 56 18059850675317892250
12892183 10 17917987321684517752
13140716 1 17823427178143058896
13583140 156 16056588842252189198
13675066 3 18186523198093410200
13760787 5 17822298997861750710
13862211 1 18040425586632519954
13965767 371 17693687843220000865
14004511 7 18343023280844241010
14289901 80 17703223039503759570
14739800 52 17630884013887830712
15196674 1 18334288777858812100
15209289 33 18186525388542536258
15209294 21 18271813388907417889
15536298 74 18338793515705191956
15848700 24 18260258668808960574
15848702 151 18342738503212006558
16752209 62 17313929854073743884
16945 1 18040436611422801687
17862501 102 18342736359933414583
1813 80 17822869584515035422
18769570 83 16415201100891422376
19010151 120 18262230135906769325
19141452 34 18413388726350144631
200 152 18341883143511176679
20028762 73 18116447023147398723
21029758 27 17167871850305287820
21267235 1 18333453161906915911
23175994 123 16877949338585191317
23184049 59 18334583442410881384
23402539 116 18409722946103818694
23419403 2 15388021193425354815
23493267 7 16200440143463905603
23557571 272 16988295247701890249
23559900 14 17967817185061920262
2748010 2 17825379687482050511
2838139 119 15912477979456425145
296302 2 17275107253700822728
3286 77 18059005202463342584
4175511 318 14979952566676503729
5104073 3 18342454855055593810
568465 68 16733280001181371545
9981440 41 17185586365366252680

> <PUBCHEM_SHAPE_MULTIPOLES>
396.95
8.65
1.85
1.38
5.33
0.27
0.32
-1.45
2.68
-0.2
-0.13
-1.18
0.31
-1.11

> <PUBCHEM_SHAPE_SELFOVERLAP>
881.176

> <PUBCHEM_SHAPE_VOLUME>
213.5

> <PUBCHEM_COORDINATE_TYPE>
2
5
10

$$$$
