5281543
  -OEChem-09302014413D

 35 38  0     1  0  0  0  0  0999 V2000
    0.9909   -1.4662    0.7353 O   0  0  0  0  0  0  0  0  0  0  0  0
    1.9223    1.6674   -0.3862 O   0  0  0  0  0  0  0  0  0  0  0  0
   -0.7469   -2.2766   -0.6548 O   0  0  0  0  0  0  0  0  0  0  0  0
    4.1433    1.4718   -0.9469 O   0  0  0  0  0  0  0  0  0  0  0  0
   -4.0971    0.9249   -0.4472 O   0  0  0  0  0  0  0  0  0  0  0  0
   -4.4792   -1.0490    0.7004 O   0  0  0  0  0  0  0  0  0  0  0  0
    0.0249    0.1380   -0.7573 C   0  0  2  0  0  0  0  0  0  0  0  0
    0.9419    0.8470    0.2489 C   0  0  1  0  0  0  0  0  0  0  0  0
    1.6634   -0.2393    1.0105 C   0  0  2  0  0  0  0  0  0  0  0  0
   -1.4144    0.5953   -0.4372 C   0  0  2  0  0  0  0  0  0  0  0  0
    0.3277   -1.3494   -0.5367 C   0  0  1  0  0  0  0  0  0  0  0  0
    0.0252    1.6635    1.0928 C   0  0  0  0  0  0  0  0  0  0  0  0
   -1.2514    1.5051    0.7412 C   0  0  0  0  0  0  0  0  0  0  0  0
    3.0203   -0.1794    0.4070 C   0  0  0  0  0  0  0  0  0  0  0  0
   -2.3489   -0.5404   -0.2057 C   0  0  0  0  0  0  0  0  0  0  0  0
    3.1424    1.0553   -0.3920 C   0  0  0  0  0  0  0  0  0  0  0  0
   -1.9908   -1.8197   -0.3402 C   0  0  0  0  0  0  0  0  0  0  0  0
    4.0105   -1.0691    0.5043 C   0  0  0  0  0  0  0  0  0  0  0  0
   -3.7623   -0.2788    0.0817 C   0  0  0  0  0  0  0  0  0  0  0  0
    5.3350   -0.9252   -0.1705 C   0  0  0  0  0  0  0  0  0  0  0  0
   -5.4569    1.3249   -0.2474 C   0  0  0  0  0  0  0  0  0  0  0  0
    0.2563    0.4034   -1.7975 H   0  0  0  0  0  0  0  0  0  0  0  0
    1.7107   -0.0765    2.0925 H   0  0  0  0  0  0  0  0  0  0  0  0
   -1.7716    1.1955   -1.2849 H   0  0  0  0  0  0  0  0  0  0  0  0
    1.0686   -1.6612   -1.2836 H   0  0  0  0  0  0  0  0  0  0  0  0
    0.3544    2.2974    1.9042 H   0  0  0  0  0  0  0  0  0  0  0  0
   -2.0697    2.0168    1.2290 H   0  0  0  0  0  0  0  0  0  0  0  0
   -2.6718   -2.6570   -0.2585 H   0  0  0  0  0  0  0  0  0  0  0  0
    3.8587   -1.9620    1.1052 H   0  0  0  0  0  0  0  0  0  0  0  0
    5.9034   -0.0854    0.2404 H   0  0  0  0  0  0  0  0  0  0  0  0
    5.2304   -0.8225   -1.2547 H   0  0  0  0  0  0  0  0  0  0  0  0
    5.9276   -1.8301    0.0043 H   0  0  0  0  0  0  0  0  0  0  0  0
   -6.1358    0.6073   -0.7179 H   0  0  0  0  0  0  0  0  0  0  0  0
   -5.5965    2.3015   -0.7183 H   0  0  0  0  0  0  0  0  0  0  0  0
   -5.6709    1.4164    0.8217 H   0  0  0  0  0  0  0  0  0  0  0  0
  1  9  1  0  0  0  0
  1 11  1  0  0  0  0
  2  8  1  0  0  0  0
  2 16  1  0  0  0  0
  3 11  1  0  0  0  0
  3 17  1  0  0  0  0
  4 16  2  0  0  0  0
  5 19  1  0  0  0  0
  5 21  1  0  0  0  0
  6 19  2  0  0  0  0
  7  8  1  0  0  0  0
  7 10  1  0  0  0  0
  7 11  1  0  0  0  0
  7 22  1  0  0  0  0
  8  9  1  0  0  0  0
  8 12  1  0  0  0  0
  9 14  1  0  0  0  0
  9 23  1  0  0  0  0
 10 13  1  0  0  0  0
 10 15  1  0  0  0  0
 10 24  1  0  0  0  0
 11 25  1  0  0  0  0
 12 13  2  0  0  0  0
 12 26  1  0  0  0  0
 13 27  1  0  0  0  0
 14 16  1  0  0  0  0
 14 18  2  0  0  0  0
 15 17  2  0  0  0  0
 15 19  1  0  0  0  0
 17 28  1  0  0  0  0
 18 20  1  0  0  0  0
 18 29  1  0  0  0  0
 20 30  1  0  0  0  0
 20 31  1  0  0  0  0
 20 32  1  0  0  0  0
 21 33  1  0  0  0  0
 21 34  1  0  0  0  0
 21 35  1  0  0  0  0
M  END
> <PUBCHEM_COMPOUND_CID>
5281543

> <PUBCHEM_CONFORMER_RMSD>
0.6

> <PUBCHEM_CONFORMER_DIVERSEORDER>
1
5
6
3
2
4

> <PUBCHEM_MMFF94_PARTIAL_CHARGES>
24
1 -0.56
10 0.28
11 0.56
12 -0.29
13 -0.29
14 -0.12
15 -0.12
16 0.71
17 -0.07
18 -0.29
19 0.71
2 -0.43
20 0.14
21 0.28
26 0.15
27 0.15
28 0.15
29 0.15
3 -0.36
4 -0.57
5 -0.43
6 -0.57
8 0.42
9 0.42

> <PUBCHEM_EFFECTIVE_ROTOR_COUNT>
2.6

> <PUBCHEM_PHARMACOPHORE_FEATURES>
9
1 1 acceptor
1 20 hydrophobe
1 3 acceptor
1 4 acceptor
1 6 acceptor
5 1 7 8 9 11 rings
5 2 8 9 14 16 rings
5 7 8 10 12 13 rings
6 3 7 10 11 15 17 rings

> <PUBCHEM_HEAVY_ATOM_COUNT>
21

> <PUBCHEM_ATOM_DEF_STEREO_COUNT>
5

> <PUBCHEM_ATOM_UDEF_STEREO_COUNT>
0

> <PUBCHEM_BOND_DEF_STEREO_COUNT>
1

> <PUBCHEM_BOND_UDEF_STEREO_COUNT>
0

> <PUBCHEM_ISOTOPIC_ATOM_COUNT>
0

> <PUBCHEM_COMPONENT_COUNT>
1

> <PUBCHEM_CACTVS_TAUTO_COUNT>
1

> <PUBCHEM_CONFORMER_ID>
0050970700000001

> <PUBCHEM_MMFF94_ENERGY>
62.3729

> <PUBCHEM_FEATURE_SELFOVERLAP>
47.077

> <PUBCHEM_SHAPE_FINGERPRINT>
10062212 137 18271799159559622263
10759866 29 18261114071142692448
10863032 1 18262237844961615290
10948715 1 18187930637438285801
11132069 177 18272923942653317163
12011746 2 18272083855945998711
12119455 92 16487249963239750751
12236239 1 18334012796366688976
12403259 226 18055905731441440371
12403814 3 17894901953940988837
12592029 89 18187362069472599306
12715332 25 18202280320780011142
12788726 201 17917445210886588904
13140716 1 18129094700683802963
13221675 6 18412822499352214763
13675066 3 18340762727792202658
13760787 19 18259983790638220275
13760787 5 18410288142388212063
13862211 1 18272081691045527063
14115302 16 18412543219367562320
14790565 3 18412269419271115057
15099037 51 18342173354034609711
15196674 1 18410572915847142671
15375462 189 18336258024358497091
1601671 61 18412825755275269041
16752209 62 18129936785052028313
16945 1 18339626936538675904
17804303 29 18343017808902821114
18186145 218 17530954808943301426
19422 9 18334855077586141150
19591789 44 18339641264829721855
19784866 9 18336546028043933827
200 152 18410292506191055232
21267235 1 18410581677517382882
23402539 116 17988915661108437471
23493267 7 18186796972594445857
23559900 14 18130785711767340888
2748010 2 17840856692522814633
296302 2 17385445431723486001
3004659 81 18408041797662988478
3084891 72 18131069320588430039
335352 9 18412260605928996151
34934 24 18270956972666082352
350125 39 18410010992549485452
465052 167 18338243777161233707
474 4 17169557522148611988
5104073 3 18335137617846578417
53655031 270 18342174440571632307
59755656 215 18129946655018854054
633830 44 17749386000920494998
9999458 23 17967813829917119070

> <PUBCHEM_SHAPE_MULTIPOLES>
396.95
9.23
1.97
0.93
1.82
0.25
0.07
-0.41
-0.63
0.21
-0.07
-0.2
-0.11
-0.33

> <PUBCHEM_SHAPE_SELFOVERLAP>
888.479

> <PUBCHEM_SHAPE_VOLUME>
210.5

> <PUBCHEM_COORDINATE_TYPE>
2
5
10

$$$$
