261166
  -OEChem-10012009313D

 63 65  0     1  0  0  0  0  0999 V2000
   -2.3321   -2.7927    0.2283 O   0  0  0  0  0  0  0  0  0  0  0  0
    3.0837   -3.1592    1.0749 O   0  0  0  0  0  0  0  0  0  0  0  0
   -1.4439   -2.9029   -1.9015 O   0  0  0  0  0  0  0  0  0  0  0  0
    3.5865    2.8671   -0.7608 O   0  0  0  0  0  0  0  0  0  0  0  0
    5.4617    1.1995    0.4298 O   0  0  0  0  0  0  0  0  0  0  0  0
   -2.2401    1.9417    2.6214 O   0  0  0  0  0  0  0  0  0  0  0  0
   -3.4339    2.3305   -2.0007 O   0  0  0  0  0  0  0  0  0  0  0  0
   -3.8242    3.0593    0.6425 O   0  0  0  0  0  0  0  0  0  0  0  0
   -0.1175   -2.0788   -0.0608 C   0  0  2  0  0  0  0  0  0  0  0  0
    0.2070   -0.7102   -0.7151 C   0  0  2  0  0  0  0  0  0  0  0  0
    1.0426   -3.0699   -0.2207 C   0  0  1  0  0  0  0  0  0  0  0  0
    1.6154   -0.2184   -0.4040 C   0  0  0  0  0  0  0  0  0  0  0  0
    2.5900   -1.0583    0.1547 C   0  0  0  0  0  0  0  0  0  0  0  0
    2.2955   -2.4866    0.4167 C   0  0  0  0  0  0  0  0  0  0  0  0
   -0.8786    0.3044   -0.3494 C   0  0  0  0  0  0  0  0  0  0  0  0
    0.7241   -4.4310    0.4102 C   0  0  0  0  0  0  0  0  0  0  0  0
   -1.3553   -2.6377   -0.7103 C   0  0  0  0  0  0  0  0  0  0  0  0
    1.9896    1.1003   -0.7277 C   0  0  0  0  0  0  0  0  0  0  0  0
    3.8747   -0.5743    0.4435 C   0  0  0  0  0  0  0  0  0  0  0  0
   -1.6742    0.8651   -1.3485 C   0  0  0  0  0  0  0  0  0  0  0  0
   -1.0722    0.6690    0.9830 C   0  0  0  0  0  0  0  0  0  0  0  0
    3.2699    1.5800   -0.4462 C   0  0  0  0  0  0  0  0  0  0  0  0
    4.2089    0.7453    0.1480 C   0  0  0  0  0  0  0  0  0  0  0  0
   -2.0615    1.5941    1.3162 C   0  0  0  0  0  0  0  0  0  0  0  0
   -2.6637    1.7902   -1.0152 C   0  0  0  0  0  0  0  0  0  0  0  0
   -2.8573    2.1546    0.3171 C   0  0  0  0  0  0  0  0  0  0  0  0
   -3.5718   -3.3190   -0.2556 C   0  0  0  0  0  0  0  0  0  0  0  0
   -4.5446   -3.4301    0.8990 C   0  0  0  0  0  0  0  0  0  0  0  0
    3.3455    3.8565    0.2379 C   0  0  0  0  0  0  0  0  0  0  0  0
    6.4520    1.0414   -0.5846 C   0  0  0  0  0  0  0  0  0  0  0  0
   -1.3847    1.3224    3.5798 C   0  0  0  0  0  0  0  0  0  0  0  0
   -3.1708    1.9041   -3.3359 C   0  0  0  0  0  0  0  0  0  0  0  0
   -5.1208    2.5435    0.9341 C   0  0  0  0  0  0  0  0  0  0  0  0
   -0.2999   -1.9533    1.0155 H   0  0  0  0  0  0  0  0  0  0  0  0
    0.1961   -0.8481   -1.8068 H   0  0  0  0  0  0  0  0  0  0  0  0
    1.2670   -3.2352   -1.2831 H   0  0  0  0  0  0  0  0  0  0  0  0
    0.5007   -4.3304    1.4781 H   0  0  0  0  0  0  0  0  0  0  0  0
   -0.1314   -4.9106   -0.0754 H   0  0  0  0  0  0  0  0  0  0  0  0
    1.5744   -5.1154    0.3138 H   0  0  0  0  0  0  0  0  0  0  0  0
    1.2777    1.7706   -1.2046 H   0  0  0  0  0  0  0  0  0  0  0  0
    4.6294   -1.2215    0.8842 H   0  0  0  0  0  0  0  0  0  0  0  0
   -1.4802    0.5453   -2.3664 H   0  0  0  0  0  0  0  0  0  0  0  0
   -0.4196    0.2147    1.7200 H   0  0  0  0  0  0  0  0  0  0  0  0
   -3.4019   -4.3088   -0.6937 H   0  0  0  0  0  0  0  0  0  0  0  0
   -3.9792   -2.6476   -1.0197 H   0  0  0  0  0  0  0  0  0  0  0  0
   -4.1424   -4.0838    1.6801 H   0  0  0  0  0  0  0  0  0  0  0  0
   -4.7097   -2.4500    1.3587 H   0  0  0  0  0  0  0  0  0  0  0  0
   -5.5057   -3.8297    0.5638 H   0  0  0  0  0  0  0  0  0  0  0  0
    2.2803    3.8985    0.4867 H   0  0  0  0  0  0  0  0  0  0  0  0
    3.9336    3.6476    1.1371 H   0  0  0  0  0  0  0  0  0  0  0  0
    3.6501    4.8277   -0.1614 H   0  0  0  0  0  0  0  0  0  0  0  0
    7.3917    1.4601   -0.2140 H   0  0  0  0  0  0  0  0  0  0  0  0
    6.6055   -0.0190   -0.8086 H   0  0  0  0  0  0  0  0  0  0  0  0
    6.1632    1.5798   -1.4928 H   0  0  0  0  0  0  0  0  0  0  0  0
   -1.5339    0.2377    3.6138 H   0  0  0  0  0  0  0  0  0  0  0  0
   -0.3358    1.5957    3.4214 H   0  0  0  0  0  0  0  0  0  0  0  0
   -1.6684    1.7119    4.5632 H   0  0  0  0  0  0  0  0  0  0  0  0
   -2.1638    2.1883   -3.6600 H   0  0  0  0  0  0  0  0  0  0  0  0
   -3.3648    0.8336   -3.4637 H   0  0  0  0  0  0  0  0  0  0  0  0
   -3.8744    2.4333   -3.9871 H   0  0  0  0  0  0  0  0  0  0  0  0
   -5.5304    2.0170    0.0663 H   0  0  0  0  0  0  0  0  0  0  0  0
   -5.0832    1.8711    1.7971 H   0  0  0  0  0  0  0  0  0  0  0  0
   -5.7777    3.3839    1.1747 H   0  0  0  0  0  0  0  0  0  0  0  0
  1 17  1  0  0  0  0
  1 27  1  0  0  0  0
  2 14  2  0  0  0  0
  3 17  2  0  0  0  0
  4 22  1  0  0  0  0
  4 29  1  0  0  0  0
  5 23  1  0  0  0  0
  5 30  1  0  0  0  0
  6 24  1  0  0  0  0
  6 31  1  0  0  0  0
  7 25  1  0  0  0  0
  7 32  1  0  0  0  0
  8 26  1  0  0  0  0
  8 33  1  0  0  0  0
  9 10  1  0  0  0  0
  9 11  1  0  0  0  0
  9 17  1  0  0  0  0
  9 34  1  0  0  0  0
 10 12  1  0  0  0  0
 10 15  1  0  0  0  0
 10 35  1  0  0  0  0
 11 14  1  0  0  0  0
 11 16  1  0  0  0  0
 11 36  1  0  0  0  0
 12 13  1  0  0  0  0
 12 18  2  0  0  0  0
 13 14  1  0  0  0  0
 13 19  2  0  0  0  0
 15 20  2  0  0  0  0
 15 21  1  0  0  0  0
 16 37  1  0  0  0  0
 16 38  1  0  0  0  0
 16 39  1  0  0  0  0
 18 22  1  0  0  0  0
 18 40  1  0  0  0  0
 19 23  1  0  0  0  0
 19 41  1  0  0  0  0
 20 25  1  0  0  0  0
 20 42  1  0  0  0  0
 21 24  2  0  0  0  0
 21 43  1  0  0  0  0
 22 23  2  0  0  0  0
 24 26  1  0  0  0  0
 25 26  2  0  0  0  0
 27 28  1  0  0  0  0
 27 44  1  0  0  0  0
 27 45  1  0  0  0  0
 28 46  1  0  0  0  0
 28 47  1  0  0  0  0
 28 48  1  0  0  0  0
 29 49  1  0  0  0  0
 29 50  1  0  0  0  0
 29 51  1  0  0  0  0
 30 52  1  0  0  0  0
 30 53  1  0  0  0  0
 30 54  1  0  0  0  0
 31 55  1  0  0  0  0
 31 56  1  0  0  0  0
 31 57  1  0  0  0  0
 32 58  1  0  0  0  0
 32 59  1  0  0  0  0
 32 60  1  0  0  0  0
 33 61  1  0  0  0  0
 33 62  1  0  0  0  0
 33 63  1  0  0  0  0
M  END
> <PUBCHEM_COMPOUND_CID>
261166

> <PUBCHEM_CONFORMER_RMSD>
1

> <PUBCHEM_CONFORMER_DIVERSEORDER>
1
4
49
42
41
70
11
48
45
33
29
8
31
52
47
19
46
36
26
50
57
59
54
17
39
58
20
18
40
67
61
15
35
25
55
65
24
23
27
53
38
16
21
7
34
2
56
22
12
14
28
60
51
69
30
68
37
44
13
62
6
64
43
10
5
32
66
63
3
71
9

> <PUBCHEM_MMFF94_PARTIAL_CHARGES>
35
1 -0.43
10 0.29
11 0.06
12 -0.14
13 0.09
14 0.42
15 -0.14
17 0.66
18 -0.15
19 -0.15
2 -0.57
20 -0.15
21 -0.15
22 0.08
23 0.08
24 0.08
25 0.08
26 0.08
27 0.28
29 0.28
3 -0.57
30 0.28
31 0.28
32 0.28
33 0.28
4 -0.36
40 0.15
41 0.15
42 0.15
43 0.15
5 -0.36
6 -0.36
7 -0.36
8 -0.36
9 0.06

> <PUBCHEM_EFFECTIVE_ROTOR_COUNT>
9.6

> <PUBCHEM_PHARMACOPHORE_FEATURES>
10
1 2 acceptor
1 3 acceptor
1 4 acceptor
1 5 acceptor
1 6 acceptor
1 7 acceptor
1 8 acceptor
6 12 13 18 19 22 23 rings
6 15 20 21 24 25 26 rings
6 9 10 11 12 13 14 rings

> <PUBCHEM_HEAVY_ATOM_COUNT>
33

> <PUBCHEM_ATOM_DEF_STEREO_COUNT>
0

> <PUBCHEM_ATOM_UDEF_STEREO_COUNT>
3

> <PUBCHEM_BOND_DEF_STEREO_COUNT>
0

> <PUBCHEM_BOND_UDEF_STEREO_COUNT>
0

> <PUBCHEM_ISOTOPIC_ATOM_COUNT>
0

> <PUBCHEM_COMPONENT_COUNT>
1

> <PUBCHEM_CACTVS_TAUTO_COUNT>
2

> <PUBCHEM_CONFORMER_ID>
0003FC2E00000001

> <PUBCHEM_MMFF94_ENERGY>
137.1814

> <PUBCHEM_FEATURE_SELFOVERLAP>
50.786

> <PUBCHEM_SHAPE_FINGERPRINT>
10190108 129 18044965534204412147
1100329 8 18193834834744732202
11135609 127 17979346461859440749
11582403 64 16808108252846922621
11640471 11 17702102461130098544
11725454 13 17097190754631178301
12156800 1 17901063630388984923
12788726 201 18052552246076621100
13140716 1 18265044748509949946
13583140 156 17532370868271930595
14790565 3 18194407920514425723
15324884 4 17244714360239131623
19319366 153 17700123306573404333
20642791 105 18340762736540490464
20739085 24 17263005758148472218
21033648 144 18335413513803046692
21756936 100 17632309938576145416
22149856 69 14615176137812502977
23419403 2 17342079744136772833
283562 15 18265890435564374358
350125 39 18337392768082660028
392239 28 18057063486519442059
4340502 62 18197792011974660233
469060 322 18115036332389816611
474 4 18127129667214803912
5104073 3 18336813265773673482
5252454 2 18261967292525173540
550186 7 15192799352434949291
59755656 520 18343305838184502036

> <PUBCHEM_SHAPE_MULTIPOLES>
632.17
9.69
5.6
2.11
7.47
3.76
-0.39
-5.57
-0.06
-3.01
-0.31
-2.86
-1.72
-0.51

> <PUBCHEM_SHAPE_SELFOVERLAP>
1346.686

> <PUBCHEM_SHAPE_VOLUME>
352.7

> <PUBCHEM_COORDINATE_TYPE>
2
5
10

$$$$
