101713182
  -OEChem-10012010253D

 86 89  0     1  0  0  0  0  0999 V2000
    5.7611   -3.2831   -1.1626 O   0  0  0  0  0  0  0  0  0  0  0  0
    5.6915   -3.0688    1.1335 O   0  0  0  0  0  0  0  0  0  0  0  0
   -8.5545   -0.0583    1.4314 O   0  0  0  0  0  0  0  0  0  0  0  0
    1.8189    0.4171    0.5653 C   0  0  2  0  0  0  0  0  0  0  0  0
    3.3679    0.5248    0.6433 C   0  0  2  0  0  0  0  0  0  0  0  0
    1.0681    1.3528   -0.4161 C   0  0  2  0  0  0  0  0  0  0  0  0
    2.5108    1.1007    1.7367 C   0  0  0  0  0  0  0  0  0  0  0  0
   -0.2877    0.7605   -0.8834 C   0  0  1  0  0  0  0  0  0  0  0  0
   -1.0621    0.2098    0.3591 C   0  0  2  0  0  0  0  0  0  0  0  0
    4.1186    1.4800   -0.2936 C   0  0  1  0  0  0  0  0  0  0  0  0
    1.1839   -0.9506    0.8585 C   0  0  0  0  0  0  0  0  0  0  0  0
    1.9743    1.8016   -1.5708 C   0  0  0  0  0  0  0  0  0  0  0  0
   -0.3528   -1.0466    0.8663 C   0  0  0  0  0  0  0  0  0  0  0  0
    4.1649   -0.7259    0.9653 C   0  0  0  0  0  0  0  0  0  0  0  0
    3.2158    2.4845   -1.0171 C   0  0  0  0  0  0  0  0  0  0  0  0
   -2.4773   -0.0264   -0.2336 C   0  0  2  0  0  0  0  0  0  0  0  0
   -1.2949    1.7975   -1.4250 C   0  0  0  0  0  0  0  0  0  0  0  0
   -2.6854    1.1799   -1.1772 C   0  0  0  0  0  0  0  0  0  0  0  0
    5.2341    2.2377    0.4352 C   0  0  0  0  0  0  0  0  0  0  0  0
   -0.0655   -0.2837   -2.0216 C   0  0  0  0  0  0  0  0  0  0  0  0
   -1.1664    1.2107    1.5501 C   0  0  0  0  0  0  0  0  0  0  0  0
   -3.6268   -0.2039    0.7520 C   0  0  1  0  0  0  0  0  0  0  0  0
    4.6115   -1.4318   -0.3040 C   0  0  0  0  0  0  0  0  0  0  0  0
    6.3577    2.5902   -0.5338 C   0  0  0  0  0  0  0  0  0  0  0  0
    4.6774    3.4927    1.0991 C   0  0  0  0  0  0  0  0  0  0  0  0
   -5.0045    0.0505    0.1070 C   0  0  0  0  0  0  0  0  0  0  0  0
   -3.5899   -1.6157    1.3465 C   0  0  0  0  0  0  0  0  0  0  0  0
    5.4100   -2.6759    0.0098 C   0  0  0  0  0  0  0  0  0  0  0  0
   -6.1705   -0.1010    1.0898 C   0  0  0  0  0  0  0  0  0  0  0  0
   -7.5415    0.1799    0.4519 C   0  0  1  0  0  0  0  0  0  0  0  0
    6.5270   -4.4848   -1.0291 C   0  0  0  0  0  0  0  0  0  0  0  0
   -7.8523   -0.6627   -0.7666 C   0  0  0  0  0  0  0  0  0  0  0  0
   -7.8153   -2.1586   -0.6194 C   0  0  0  0  0  0  0  0  0  0  0  0
   -8.1461   -0.0931   -1.9466 C   0  0  0  0  0  0  0  0  0  0  0  0
    0.8296    2.2708    0.1389 H   0  0  0  0  0  0  0  0  0  0  0  0
    2.3004    2.1548    1.8387 H   0  0  0  0  0  0  0  0  0  0  0  0
    2.5136    0.6024    2.7015 H   0  0  0  0  0  0  0  0  0  0  0  0
    4.5545    0.9044   -1.1111 H   0  0  0  0  0  0  0  0  0  0  0  0
    1.5224   -1.3266    1.8319 H   0  0  0  0  0  0  0  0  0  0  0  0
    1.5673   -1.6686    0.1241 H   0  0  0  0  0  0  0  0  0  0  0  0
    1.4351    2.5031   -2.2179 H   0  0  0  0  0  0  0  0  0  0  0  0
    2.2855    0.9533   -2.1911 H   0  0  0  0  0  0  0  0  0  0  0  0
   -0.6440   -1.9259    0.2776 H   0  0  0  0  0  0  0  0  0  0  0  0
   -0.6571   -1.2720    1.8949 H   0  0  0  0  0  0  0  0  0  0  0  0
    5.0467   -0.4484    1.5560 H   0  0  0  0  0  0  0  0  0  0  0  0
    3.6178   -1.4210    1.6093 H   0  0  0  0  0  0  0  0  0  0  0  0
    3.7615    2.9566   -1.8425 H   0  0  0  0  0  0  0  0  0  0  0  0
    2.8418    3.2904   -0.3805 H   0  0  0  0  0  0  0  0  0  0  0  0
   -2.4614   -0.9254   -0.8638 H   0  0  0  0  0  0  0  0  0  0  0  0
   -1.1477    2.0281   -2.4858 H   0  0  0  0  0  0  0  0  0  0  0  0
   -1.2135    2.7489   -0.8855 H   0  0  0  0  0  0  0  0  0  0  0  0
   -3.3080    1.9677   -0.7422 H   0  0  0  0  0  0  0  0  0  0  0  0
   -3.1466    0.8617   -2.1187 H   0  0  0  0  0  0  0  0  0  0  0  0
    5.6747    1.6106    1.2178 H   0  0  0  0  0  0  0  0  0  0  0  0
    0.6874   -1.0329   -1.7688 H   0  0  0  0  0  0  0  0  0  0  0  0
    0.2744    0.2085   -2.9405 H   0  0  0  0  0  0  0  0  0  0  0  0
   -0.9748   -0.8229   -2.2982 H   0  0  0  0  0  0  0  0  0  0  0  0
   -1.7251    2.1154    1.2909 H   0  0  0  0  0  0  0  0  0  0  0  0
   -0.1939    1.5324    1.9260 H   0  0  0  0  0  0  0  0  0  0  0  0
   -1.6598    0.7518    2.4144 H   0  0  0  0  0  0  0  0  0  0  0  0
   -3.5547    0.5130    1.5744 H   0  0  0  0  0  0  0  0  0  0  0  0
    5.2983   -0.8225   -0.8959 H   0  0  0  0  0  0  0  0  0  0  0  0
    3.7492   -1.7093   -0.9188 H   0  0  0  0  0  0  0  0  0  0  0  0
    7.1713    3.1013   -0.0073 H   0  0  0  0  0  0  0  0  0  0  0  0
    3.8419    3.3337    1.7725 H   0  0  0  0  0  0  0  0  0  0  0  0
    5.4683    3.9178    1.7327 H   0  0  0  0  0  0  0  0  0  0  0  0
    4.4410    4.2926    0.3894 H   0  0  0  0  0  0  0  0  0  0  0  0
    6.7785    1.6882   -0.9909 H   0  0  0  0  0  0  0  0  0  0  0  0
    6.0186    3.2523   -1.3368 H   0  0  0  0  0  0  0  0  0  0  0  0
   -5.1278   -0.6368   -0.7384 H   0  0  0  0  0  0  0  0  0  0  0  0
   -5.0734    1.0641   -0.2975 H   0  0  0  0  0  0  0  0  0  0  0  0
   -3.7962   -2.3754    0.5847 H   0  0  0  0  0  0  0  0  0  0  0  0
   -4.3214   -1.7359    2.1506 H   0  0  0  0  0  0  0  0  0  0  0  0
   -2.6328   -1.8529    1.8062 H   0  0  0  0  0  0  0  0  0  0  0  0
   -6.0316    0.5775    1.9416 H   0  0  0  0  0  0  0  0  0  0  0  0
   -6.2009   -1.1068    1.5218 H   0  0  0  0  0  0  0  0  0  0  0  0
   -7.5887    1.2477    0.2039 H   0  0  0  0  0  0  0  0  0  0  0  0
    6.7395   -4.8657   -2.0316 H   0  0  0  0  0  0  0  0  0  0  0  0
    5.9550   -5.2393   -0.4807 H   0  0  0  0  0  0  0  0  0  0  0  0
    7.4751   -4.2755   -0.5246 H   0  0  0  0  0  0  0  0  0  0  0  0
   -9.4111    0.1758    1.0344 H   0  0  0  0  0  0  0  0  0  0  0  0
   -8.1182   -2.6685   -1.5405 H   0  0  0  0  0  0  0  0  0  0  0  0
   -6.8067   -2.5028   -0.3720 H   0  0  0  0  0  0  0  0  0  0  0  0
   -8.4981   -2.4825    0.1725 H   0  0  0  0  0  0  0  0  0  0  0  0
   -8.1720    0.9853   -2.0628 H   0  0  0  0  0  0  0  0  0  0  0  0
   -8.3664   -0.6914   -2.8245 H   0  0  0  0  0  0  0  0  0  0  0  0
  1 28  1  0  0  0  0
  1 31  1  0  0  0  0
  2 28  2  0  0  0  0
  3 30  1  0  0  0  0
  3 81  1  0  0  0  0
  4  5  1  0  0  0  0
  4  6  1  0  0  0  0
  4  7  1  0  0  0  0
  4 11  1  0  0  0  0
  5  7  1  0  0  0  0
  5 10  1  0  0  0  0
  5 14  1  0  0  0  0
  6  8  1  0  0  0  0
  6 12  1  0  0  0  0
  6 35  1  0  0  0  0
  7 36  1  0  0  0  0
  7 37  1  0  0  0  0
  8  9  1  0  0  0  0
  8 17  1  0  0  0  0
  8 20  1  0  0  0  0
  9 13  1  0  0  0  0
  9 16  1  0  0  0  0
  9 21  1  0  0  0  0
 10 15  1  0  0  0  0
 10 19  1  0  0  0  0
 10 38  1  0  0  0  0
 11 13  1  0  0  0  0
 11 39  1  0  0  0  0
 11 40  1  0  0  0  0
 12 15  1  0  0  0  0
 12 41  1  0  0  0  0
 12 42  1  0  0  0  0
 13 43  1  0  0  0  0
 13 44  1  0  0  0  0
 14 23  1  0  0  0  0
 14 45  1  0  0  0  0
 14 46  1  0  0  0  0
 15 47  1  0  0  0  0
 15 48  1  0  0  0  0
 16 18  1  0  0  0  0
 16 22  1  0  0  0  0
 16 49  1  0  0  0  0
 17 18  1  0  0  0  0
 17 50  1  0  0  0  0
 17 51  1  0  0  0  0
 18 52  1  0  0  0  0
 18 53  1  0  0  0  0
 19 24  1  0  0  0  0
 19 25  1  0  0  0  0
 19 54  1  0  0  0  0
 20 55  1  0  0  0  0
 20 56  1  0  0  0  0
 20 57  1  0  0  0  0
 21 58  1  0  0  0  0
 21 59  1  0  0  0  0
 21 60  1  0  0  0  0
 22 26  1  0  0  0  0
 22 27  1  0  0  0  0
 22 61  1  0  0  0  0
 23 28  1  0  0  0  0
 23 62  1  0  0  0  0
 23 63  1  0  0  0  0
 24 64  1  0  0  0  0
 24 68  1  0  0  0  0
 24 69  1  0  0  0  0
 25 65  1  0  0  0  0
 25 66  1  0  0  0  0
 25 67  1  0  0  0  0
 26 29  1  0  0  0  0
 26 70  1  0  0  0  0
 26 71  1  0  0  0  0
 27 72  1  0  0  0  0
 27 73  1  0  0  0  0
 27 74  1  0  0  0  0
 29 30  1  0  0  0  0
 29 75  1  0  0  0  0
 29 76  1  0  0  0  0
 30 32  1  0  0  0  0
 30 77  1  0  0  0  0
 31 78  1  0  0  0  0
 31 79  1  0  0  0  0
 31 80  1  0  0  0  0
 32 33  1  0  0  0  0
 32 34  2  0  0  0  0
 33 82  1  0  0  0  0
 33 83  1  0  0  0  0
 33 84  1  0  0  0  0
 34 85  1  0  0  0  0
 34 86  1  0  0  0  0
M  END
> <PUBCHEM_COMPOUND_CID>
101713182

> <PUBCHEM_CONFORMER_RMSD>
1.2

> <PUBCHEM_CONFORMER_DIVERSEORDER>
2
7
5
6
10
3
8
11
9
12
4
13
1

> <PUBCHEM_MMFF94_PARTIAL_CHARGES>
22
1 -0.43
10 0.09
11 0.09
14 0.09
2 -0.57
23 0.06
28 0.66
3 -0.68
30 0.42
31 0.28
32 -0.28
33 0.14
34 -0.3
36 0.1
37 0.1
4 -0.19
5 -0.19
6 0.09
7 -0.2
81 0.4
85 0.15
86 0.15

> <PUBCHEM_EFFECTIVE_ROTOR_COUNT>
11.8

> <PUBCHEM_PHARMACOPHORE_FEATURES>
8
1 2 acceptor
1 27 hydrophobe
1 3 acceptor
1 3 donor
3 19 24 25 hydrophobe
5 8 9 16 17 18 rings
6 4 6 8 9 11 13 rings
7 4 5 6 7 10 12 15 rings

> <PUBCHEM_HEAVY_ATOM_COUNT>
34

> <PUBCHEM_ATOM_DEF_STEREO_COUNT>
8

> <PUBCHEM_ATOM_UDEF_STEREO_COUNT>
1

> <PUBCHEM_BOND_DEF_STEREO_COUNT>
0

> <PUBCHEM_BOND_UDEF_STEREO_COUNT>
0

> <PUBCHEM_ISOTOPIC_ATOM_COUNT>
0

> <PUBCHEM_COMPONENT_COUNT>
1

> <PUBCHEM_CACTVS_TAUTO_COUNT>
2

> <PUBCHEM_CONFORMER_ID>
0610051E00000002

> <PUBCHEM_MMFF94_ENERGY>
128.26

> <PUBCHEM_FEATURE_SELFOVERLAP>
40.679

> <PUBCHEM_SHAPE_FINGERPRINT>
10165383 225 18337392759994625840
10554248 39 18261110820459079079
10816530 90 17023193772637726684
10951579 204 16516235229053012869
11181472 205 18411426098422099121
12236239 1 18342458162665441377
13383665 225 17676784105957383620
13533116 47 18413109459413671208
13540713 4 18042387068327316484
13782708 43 18410573955535462767
13811026 1 18040426689916635000
13835254 42 18335699416617953892
14347424 109 18413388726481838216
14904525 67 9583251509355334027
15131766 46 17772740817364015905
15183329 4 17132116879522313809
1577012 14 18131075944108372401
15840311 113 18261116279573826541
19315958 150 18335709380983070401
20505436 4 17702663423241837828
20771845 65 18059857196175532874
21130935 74 18341334474588050795
21344244 78 17917139517174469272
21781051 124 15195289793389615565
21792938 169 18339909473501930598
22182313 1 17821997710633758060
23081809 10 18060424621062798825
23559900 14 18114188540247444498
23569943 247 18266458707562875523
249057 25 17775013358080058745
255183 451 18339648833141865894
27425 322 17770782618205946948
34797466 226 17603870030767728988
3633792 109 18334293158868002313
4093350 32 18411419522478191043
4516262 110 18268705177190088700
57816373 69 18341896268593960886
70251023 43 18264491694360814016
9831232 110 18269274569167004702
9962374 69 18343292661689457606

> <PUBCHEM_SHAPE_MULTIPOLES>
682.1
21.94
3.61
1.68
38.84
3.01
-0.22
10.08
-1.73
-11.59
-0.76
0.83
-0.15
1.07

> <PUBCHEM_SHAPE_SELFOVERLAP>
1409.572

> <PUBCHEM_SHAPE_VOLUME>
391.7

> <PUBCHEM_COORDINATE_TYPE>
2
5
10

$$$$
