5354503
  -OEChem-09302014373D

 85 88  0     1  0  0  0  0  0999 V2000
    7.3483    0.3347   -0.7711 O   0  0  0  0  0  0  0  0  0  0  0  0
    7.5792    2.5284   -0.0845 O   0  0  0  0  0  0  0  0  0  0  0  0
   -1.2000   -1.1542    0.2979 C   0  0  1  0  0  0  0  0  0  0  0  0
   -0.4049   -0.1140    1.1119 C   0  0  2  0  0  0  0  0  0  0  0  0
    1.0979   -0.4068    1.1653 C   0  0  1  0  0  0  0  0  0  0  0  0
    1.6680   -0.4640   -0.2819 C   0  0  1  0  0  0  0  0  0  0  0  0
   -2.6280   -0.5941    0.5076 C   0  0  2  0  0  0  0  0  0  0  0  0
   -0.6917   -1.0935   -1.1494 C   0  0  0  0  0  0  0  0  0  0  0  0
    3.2127   -0.8029   -0.2823 C   0  0  2  0  0  0  0  0  0  0  0  0
   -1.1804   -0.0086    2.4215 C   0  0  0  0  0  0  0  0  0  0  0  0
    0.8214   -1.3616   -1.2262 C   0  0  0  0  0  0  0  0  0  0  0  0
   -2.6502   -0.1991    2.0031 C   0  0  0  0  0  0  0  0  0  0  0  0
    1.8327    0.6674    1.9810 C   0  0  0  0  0  0  0  0  0  0  0  0
   -3.7816   -1.5078    0.1192 C   0  0  1  0  0  0  0  0  0  0  0  0
   -1.0825   -2.6012    0.8379 C   0  0  0  0  0  0  0  0  0  0  0  0
    3.9503    0.0107    0.7904 C   0  0  0  0  0  0  0  0  0  0  0  0
    3.7909   -0.4417   -1.6833 C   0  0  0  0  0  0  0  0  0  0  0  0
    3.3138    0.6660    1.7767 C   0  0  0  0  0  0  0  0  0  0  0  0
    3.4597   -2.3040    0.0025 C   0  0  0  0  0  0  0  0  0  0  0  0
    5.4581    0.0635    0.7011 C   0  0  0  0  0  0  0  0  0  0  0  0
    5.3171   -0.4568   -1.7576 C   0  0  0  0  0  0  0  0  0  0  0  0
   -5.1608   -0.8539    0.3447 C   0  0  0  0  0  0  0  0  0  0  0  0
    5.9309    0.4506   -0.6974 C   0  0  2  0  0  0  0  0  0  0  0  0
   -3.6528   -1.9207   -1.3524 C   0  0  0  0  0  0  0  0  0  0  0  0
   -5.3870    0.4918   -0.3636 C   0  0  0  0  0  0  0  0  0  0  0  0
   -6.7327    1.2051   -0.0705 C   0  0  2  0  0  0  0  0  0  0  0  0
   -7.9663    0.2972   -0.3775 C   0  0  0  0  0  0  0  0  0  0  0  0
   -6.7911    2.5731   -0.7944 C   0  0  0  0  0  0  0  0  0  0  0  0
    8.0531    1.4563   -0.4355 C   0  0  0  0  0  0  0  0  0  0  0  0
   -8.0502   -0.0858   -1.8606 C   0  0  0  0  0  0  0  0  0  0  0  0
   -9.3032    0.8898    0.0759 C   0  0  0  0  0  0  0  0  0  0  0  0
   -5.6932    3.5480   -0.3904 C   0  0  0  0  0  0  0  0  0  0  0  0
    9.5225    1.1881   -0.5580 C   0  0  0  0  0  0  0  0  0  0  0  0
   -0.5137    0.8657    0.6160 H   0  0  0  0  0  0  0  0  0  0  0  0
    1.2624   -1.3693    1.6625 H   0  0  0  0  0  0  0  0  0  0  0  0
    1.5652    0.5572   -0.6842 H   0  0  0  0  0  0  0  0  0  0  0  0
   -2.6899    0.3326   -0.0789 H   0  0  0  0  0  0  0  0  0  0  0  0
   -0.8960   -0.1068   -1.5845 H   0  0  0  0  0  0  0  0  0  0  0  0
   -1.1658   -1.8278   -1.8007 H   0  0  0  0  0  0  0  0  0  0  0  0
   -0.8806   -0.7893    3.1295 H   0  0  0  0  0  0  0  0  0  0  0  0
   -1.0284    0.9587    2.9110 H   0  0  0  0  0  0  0  0  0  0  0  0
    0.9938   -2.4194   -1.0070 H   0  0  0  0  0  0  0  0  0  0  0  0
    1.1399   -1.2080   -2.2635 H   0  0  0  0  0  0  0  0  0  0  0  0
   -3.1123   -0.9707    2.6294 H   0  0  0  0  0  0  0  0  0  0  0  0
   -3.2190    0.7258    2.1488 H   0  0  0  0  0  0  0  0  0  0  0  0
    1.6246    0.5121    3.0465 H   0  0  0  0  0  0  0  0  0  0  0  0
    1.4596    1.6677    1.7282 H   0  0  0  0  0  0  0  0  0  0  0  0
   -3.7691   -2.4208    0.7275 H   0  0  0  0  0  0  0  0  0  0  0  0
   -1.5124   -2.7082    1.8390 H   0  0  0  0  0  0  0  0  0  0  0  0
   -1.5949   -3.3177    0.1891 H   0  0  0  0  0  0  0  0  0  0  0  0
   -0.0454   -2.9399    0.9077 H   0  0  0  0  0  0  0  0  0  0  0  0
    3.4051   -1.1304   -2.4444 H   0  0  0  0  0  0  0  0  0  0  0  0
    3.4499    0.5614   -1.9739 H   0  0  0  0  0  0  0  0  0  0  0  0
    3.8898    1.2438    2.4956 H   0  0  0  0  0  0  0  0  0  0  0  0
    3.0884   -2.9364   -0.8104 H   0  0  0  0  0  0  0  0  0  0  0  0
    4.5244   -2.5386    0.1063 H   0  0  0  0  0  0  0  0  0  0  0  0
    2.9741   -2.6273    0.9289 H   0  0  0  0  0  0  0  0  0  0  0  0
    5.8775    0.7689    1.4299 H   0  0  0  0  0  0  0  0  0  0  0  0
    5.8782   -0.9110    0.9805 H   0  0  0  0  0  0  0  0  0  0  0  0
    5.6426   -0.1299   -2.7530 H   0  0  0  0  0  0  0  0  0  0  0  0
    5.6994   -1.4793   -1.6490 H   0  0  0  0  0  0  0  0  0  0  0  0
   -5.3168   -0.7096    1.4211 H   0  0  0  0  0  0  0  0  0  0  0  0
   -5.9263   -1.5709    0.0267 H   0  0  0  0  0  0  0  0  0  0  0  0
    5.6156    1.4790   -0.9230 H   0  0  0  0  0  0  0  0  0  0  0  0
   -3.3744   -1.0838   -2.0005 H   0  0  0  0  0  0  0  0  0  0  0  0
   -2.9487   -2.7446   -1.4820 H   0  0  0  0  0  0  0  0  0  0  0  0
   -4.6086   -2.3077   -1.7266 H   0  0  0  0  0  0  0  0  0  0  0  0
   -5.2617    0.3691   -1.4451 H   0  0  0  0  0  0  0  0  0  0  0  0
   -4.5934    1.1703   -0.0411 H   0  0  0  0  0  0  0  0  0  0  0  0
   -6.7550    1.4092    1.0096 H   0  0  0  0  0  0  0  0  0  0  0  0
   -7.8534   -0.6303    0.1960 H   0  0  0  0  0  0  0  0  0  0  0  0
   -7.7501    3.0565   -0.5794 H   0  0  0  0  0  0  0  0  0  0  0  0
   -6.7433    2.4323   -1.8801 H   0  0  0  0  0  0  0  0  0  0  0  0
   -8.8912   -0.7687   -2.0275 H   0  0  0  0  0  0  0  0  0  0  0  0
   -7.1488   -0.6037   -2.1998 H   0  0  0  0  0  0  0  0  0  0  0  0
   -8.2099    0.7878   -2.4997 H   0  0  0  0  0  0  0  0  0  0  0  0
   -9.5916    1.7563   -0.5269 H   0  0  0  0  0  0  0  0  0  0  0  0
   -9.2540    1.2010    1.1245 H   0  0  0  0  0  0  0  0  0  0  0  0
  -10.1031    0.1465   -0.0137 H   0  0  0  0  0  0  0  0  0  0  0  0
   -4.7142    3.2342   -0.7637 H   0  0  0  0  0  0  0  0  0  0  0  0
   -5.8984    4.5368   -0.8141 H   0  0  0  0  0  0  0  0  0  0  0  0
   -5.6381    3.6519    0.6977 H   0  0  0  0  0  0  0  0  0  0  0  0
    9.8105    0.3850    0.1249 H   0  0  0  0  0  0  0  0  0  0  0  0
   10.0796    2.0904   -0.2897 H   0  0  0  0  0  0  0  0  0  0  0  0
    9.7659    0.9226   -1.5898 H   0  0  0  0  0  0  0  0  0  0  0  0
  1 23  1  0  0  0  0
  1 29  1  0  0  0  0
  2 29  2  0  0  0  0
  3  4  1  0  0  0  0
  3  7  1  0  0  0  0
  3  8  1  0  0  0  0
  3 15  1  0  0  0  0
  4  5  1  0  0  0  0
  4 10  1  0  0  0  0
  4 34  1  0  0  0  0
  5  6  1  0  0  0  0
  5 13  1  0  0  0  0
  5 35  1  0  0  0  0
  6  9  1  0  0  0  0
  6 11  1  0  0  0  0
  6 36  1  0  0  0  0
  7 12  1  0  0  0  0
  7 14  1  0  0  0  0
  7 37  1  0  0  0  0
  8 11  1  0  0  0  0
  8 38  1  0  0  0  0
  8 39  1  0  0  0  0
  9 16  1  0  0  0  0
  9 17  1  0  0  0  0
  9 19  1  0  0  0  0
 10 12  1  0  0  0  0
 10 40  1  0  0  0  0
 10 41  1  0  0  0  0
 11 42  1  0  0  0  0
 11 43  1  0  0  0  0
 12 44  1  0  0  0  0
 12 45  1  0  0  0  0
 13 18  1  0  0  0  0
 13 46  1  0  0  0  0
 13 47  1  0  0  0  0
 14 22  1  0  0  0  0
 14 24  1  0  0  0  0
 14 48  1  0  0  0  0
 15 49  1  0  0  0  0
 15 50  1  0  0  0  0
 15 51  1  0  0  0  0
 16 18  2  0  0  0  0
 16 20  1  0  0  0  0
 17 21  1  0  0  0  0
 17 52  1  0  0  0  0
 17 53  1  0  0  0  0
 18 54  1  0  0  0  0
 19 55  1  0  0  0  0
 19 56  1  0  0  0  0
 19 57  1  0  0  0  0
 20 23  1  0  0  0  0
 20 58  1  0  0  0  0
 20 59  1  0  0  0  0
 21 23  1  0  0  0  0
 21 60  1  0  0  0  0
 21 61  1  0  0  0  0
 22 25  1  0  0  0  0
 22 62  1  0  0  0  0
 22 63  1  0  0  0  0
 23 64  1  0  0  0  0
 24 65  1  0  0  0  0
 24 66  1  0  0  0  0
 24 67  1  0  0  0  0
 25 26  1  0  0  0  0
 25 68  1  0  0  0  0
 25 69  1  0  0  0  0
 26 27  1  0  0  0  0
 26 28  1  0  0  0  0
 26 70  1  0  0  0  0
 27 30  1  0  0  0  0
 27 31  1  0  0  0  0
 27 71  1  0  0  0  0
 28 32  1  0  0  0  0
 28 72  1  0  0  0  0
 28 73  1  0  0  0  0
 29 33  1  0  0  0  0
 30 74  1  0  0  0  0
 30 75  1  0  0  0  0
 30 76  1  0  0  0  0
 31 77  1  0  0  0  0
 31 78  1  0  0  0  0
 31 79  1  0  0  0  0
 32 80  1  0  0  0  0
 32 81  1  0  0  0  0
 32 82  1  0  0  0  0
 33 83  1  0  0  0  0
 33 84  1  0  0  0  0
 33 85  1  0  0  0  0
M  END
> <PUBCHEM_COMPOUND_CID>
5354503

> <PUBCHEM_CONFORMER_RMSD>
1

> <PUBCHEM_CONFORMER_DIVERSEORDER>
3
26
36
8
39
18
27
15
28
1
21
38
14
7
10
17
31
22
16
30
29
9
19
37
23
2
32
40
24
5
20
12
35
33
13
6
34
11
4
25

> <PUBCHEM_MMFF94_PARTIAL_CHARGES>
11
1 -0.43
13 0.14
16 -0.28
18 -0.29
2 -0.57
20 0.14
23 0.28
29 0.66
33 0.06
54 0.15
9 0.14

> <PUBCHEM_EFFECTIVE_ROTOR_COUNT>
10

> <PUBCHEM_PHARMACOPHORE_FEATURES>
9
1 2 acceptor
1 24 hydrophobe
1 32 hydrophobe
3 27 30 31 hydrophobe
5 3 4 7 10 12 rings
6 14 22 25 26 27 28 hydrophobe
6 3 4 5 6 8 11 rings
6 5 6 9 13 16 18 rings
6 9 16 17 20 21 23 rings

> <PUBCHEM_HEAVY_ATOM_COUNT>
33

> <PUBCHEM_ATOM_DEF_STEREO_COUNT>
9

> <PUBCHEM_ATOM_UDEF_STEREO_COUNT>
0

> <PUBCHEM_BOND_DEF_STEREO_COUNT>
0

> <PUBCHEM_BOND_UDEF_STEREO_COUNT>
0

> <PUBCHEM_ISOTOPIC_ATOM_COUNT>
0

> <PUBCHEM_COMPONENT_COUNT>
1

> <PUBCHEM_CACTVS_TAUTO_COUNT>
1

> <PUBCHEM_CONFORMER_ID>
0051B40700000003

> <PUBCHEM_MMFF94_ENERGY>
94.4426

> <PUBCHEM_FEATURE_SELFOVERLAP>
45.785

> <PUBCHEM_SHAPE_FINGERPRINT>
10 15 12757156787474113615
10076449 9 17203327832479706615
10190206 1 17917434181721647025
10429389 143 18337392742841019980
10625338 86 18334579027886673197
106641 1 15068343415484369313
11135926 11 16702029686013197735
11181472 205 18260832554150186752
11456790 92 14562528492341057524
11578821 258 17824834571378691860
11607047 74 12174748807263399506
11646440 116 14490192708960335502
12166972 35 13830128394968239211
12838862 33 17060050455300637738
13540713 4 16915081070142161434
13540713 5 16628015923055298427
13726171 33 18121220880035296033
13782708 43 10952048944313519868
13947947 19 15051727625435050884
14068700 675 12607406598364932123
14251764 18 16443068313830086315
14931854 50 17703799111067612174
15131766 46 18049722112676475900
15183329 4 17346597448827146579
15347590 135 13190331357736520813
15439362 3 17981604085843815912
15461852 350 17846494881298205055
15604295 49 18339077202865373460
16728433 281 18270684139259329321
1818759 1 13254800161369111501
18643901 69 12751240298584001137
18681886 176 16128374891826421458
20505436 4 17894341202774297850
21033648 29 18341319084933966458
21150785 3 17775568636773625581
21267235 1 16845020125196470778
21403212 168 15357695288837513163
21424621 283 18186520969358701355
21781055 127 16660937578435617334
21792934 111 13407069302117902823
21792961 116 17917998286841980587
22122407 14 17822308906220070309
22224240 67 14634871938491333787
23559900 14 17203324550238859570
23576562 1 17844520209421765021
249057 3 16845570950150922567
25269216 80 18263919007691074387
3004659 81 17275098436296715251
335352 9 16988847197801084723
3383291 50 8502074307240491645
3633792 109 17775006807928072704
3918712 181 18189047617263395533
4093350 32 17530960272906964026
4098825 35 18336825295170291782
44802255 64 18343301466667749047
504579 68 16773799220667724396
5104073 3 12902087766191387517
54039377 194 14405179595904891181
57527295 17 18271232907104060215
5937810 71 18201726098802035529
9962374 69 12535624982119348680

> <PUBCHEM_SHAPE_MULTIPOLES>
667.39
26.51
2.34
1.8
0.69
1.09
-0.48
19.05
10.85
1.95
0.43
-0.18
-0.14
0.47

> <PUBCHEM_SHAPE_SELFOVERLAP>
1372.89

> <PUBCHEM_SHAPE_VOLUME>
383.3

> <PUBCHEM_COORDINATE_TYPE>
2
5
10

$$$$
