44593505
  -OEChem-10012009243D

 56 59  0     1  0  0  0  0  0999 V2000
   -2.6023    1.1886   -1.9361 O   0  0  0  0  0  0  0  0  0  0  0  0
    1.0743   -0.9547   -0.8382 O   0  0  0  0  0  0  0  0  0  0  0  0
   -0.1974   -0.5929    1.1090 O   0  0  0  0  0  0  0  0  0  0  0  0
    2.4046    0.8577   -0.2142 O   0  0  0  0  0  0  0  0  0  0  0  0
    3.3035   -2.6698   -0.5269 O   0  0  0  0  0  0  0  0  0  0  0  0
    5.8505   -1.2512   -0.9520 O   0  0  0  0  0  0  0  0  0  0  0  0
    5.9509    1.1513    0.6522 O   0  0  0  0  0  0  0  0  0  0  0  0
   -2.7343    3.4842   -1.9279 O   0  0  0  0  0  0  0  0  0  0  0  0
   -3.1378    2.8376    2.3931 O   0  0  0  0  0  0  0  0  0  0  0  0
   -2.0933   -4.7338    0.1493 O   0  0  0  0  0  0  0  0  0  0  0  0
    2.3323    3.3141    1.0172 O   0  0  0  0  0  0  0  0  0  0  0  0
   -2.2706   -4.0245    2.3163 O   0  0  0  0  0  0  0  0  0  0  0  0
   -1.3370   -0.7239   -1.1140 C   0  0  2  0  0  0  0  0  0  0  0  0
   -2.5975    0.1640   -0.9316 C   0  0  2  0  0  0  0  0  0  0  0  0
   -1.8040   -2.1673   -0.8017 C   0  0  2  0  0  0  0  0  0  0  0  0
   -0.0941   -0.3303   -0.2969 C   0  0  2  0  0  0  0  0  0  0  0  0
   -3.7043   -0.8135   -1.1814 C   0  0  0  0  0  0  0  0  0  0  0  0
   -3.2749   -2.0775   -1.0952 C   0  0  0  0  0  0  0  0  0  0  0  0
   -2.7750    0.9202    0.3303 C   0  0  0  0  0  0  0  0  0  0  0  0
   -1.5005   -2.5592    0.6104 C   0  0  0  0  0  0  0  0  0  0  0  0
    2.2468   -0.5566   -0.1284 C   0  0  2  0  0  0  0  0  0  0  0  0
    3.4434   -1.2685   -0.7594 C   0  0  1  0  0  0  0  0  0  0  0  0
   -2.8404    2.2308    0.1070 C   0  0  0  0  0  0  0  0  0  0  0  0
    4.7612   -0.7829   -0.1554 C   0  0  2  0  0  0  0  0  0  0  0  0
    4.8240    0.7440   -0.1193 C   0  0  1  0  0  0  0  0  0  0  0  0
   -0.7785   -1.7909    1.4346 C   0  0  0  0  0  0  0  0  0  0  0  0
    3.5505    1.3256    0.4993 C   0  0  1  0  0  0  0  0  0  0  0  0
   -2.7215    2.4139   -1.3444 C   0  0  0  0  0  0  0  0  0  0  0  0
   -3.0069    3.3456    1.0638 C   0  0  2  0  0  0  0  0  0  0  0  0
   -1.9949   -3.8296    1.1462 C   0  0  0  0  0  0  0  0  0  0  0  0
    3.5389    2.8497    0.4398 C   0  0  0  0  0  0  0  0  0  0  0  0
   -1.8158    4.2998    1.0544 C   0  0  0  0  0  0  0  0  0  0  0  0
   -1.0492   -0.6893   -2.1774 H   0  0  0  0  0  0  0  0  0  0  0  0
   -1.3159   -2.8593   -1.4986 H   0  0  0  0  0  0  0  0  0  0  0  0
    0.0285    0.7539   -0.4075 H   0  0  0  0  0  0  0  0  0  0  0  0
   -4.7318   -0.5363   -1.3723 H   0  0  0  0  0  0  0  0  0  0  0  0
   -3.9176   -2.9386   -1.2156 H   0  0  0  0  0  0  0  0  0  0  0  0
   -2.8443    0.4616    1.3070 H   0  0  0  0  0  0  0  0  0  0  0  0
    2.1561   -0.8613    0.9223 H   0  0  0  0  0  0  0  0  0  0  0  0
    3.4439   -1.1269   -1.8467 H   0  0  0  0  0  0  0  0  0  0  0  0
    4.9121   -1.2040    0.8455 H   0  0  0  0  0  0  0  0  0  0  0  0
    4.9664    1.1312   -1.1357 H   0  0  0  0  0  0  0  0  0  0  0  0
   -0.5805   -2.0179    2.4739 H   0  0  0  0  0  0  0  0  0  0  0  0
    3.4512    1.0269    1.5519 H   0  0  0  0  0  0  0  0  0  0  0  0
   -3.9260    3.8944    0.8300 H   0  0  0  0  0  0  0  0  0  0  0  0
    4.3805    3.2800    0.9907 H   0  0  0  0  0  0  0  0  0  0  0  0
    3.5680    3.1996   -0.5976 H   0  0  0  0  0  0  0  0  0  0  0  0
    3.3001   -2.8174    0.4342 H   0  0  0  0  0  0  0  0  0  0  0  0
    5.7353   -0.9074   -1.8542 H   0  0  0  0  0  0  0  0  0  0  0  0
    5.8277    0.8244    1.5598 H   0  0  0  0  0  0  0  0  0  0  0  0
   -1.6828    4.7871    0.0843 H   0  0  0  0  0  0  0  0  0  0  0  0
   -1.9474    5.0822    1.8104 H   0  0  0  0  0  0  0  0  0  0  0  0
   -0.8880    3.7741    1.3094 H   0  0  0  0  0  0  0  0  0  0  0  0
   -3.3071    3.5933    2.9814 H   0  0  0  0  0  0  0  0  0  0  0  0
   -2.4233   -5.6006    0.4689 H   0  0  0  0  0  0  0  0  0  0  0  0
    2.3421    4.2849    0.9619 H   0  0  0  0  0  0  0  0  0  0  0  0
  1 14  1  0  0  0  0
  1 28  1  0  0  0  0
  2 16  1  0  0  0  0
  2 21  1  0  0  0  0
  3 16  1  0  0  0  0
  3 26  1  0  0  0  0
  4 21  1  0  0  0  0
  4 27  1  0  0  0  0
  5 22  1  0  0  0  0
  5 48  1  0  0  0  0
  6 24  1  0  0  0  0
  6 49  1  0  0  0  0
  7 25  1  0  0  0  0
  7 50  1  0  0  0  0
  8 28  2  0  0  0  0
  9 29  1  0  0  0  0
  9 54  1  0  0  0  0
 10 30  1  0  0  0  0
 10 55  1  0  0  0  0
 11 31  1  0  0  0  0
 11 56  1  0  0  0  0
 12 30  2  0  0  0  0
 13 14  1  0  0  0  0
 13 15  1  0  0  0  0
 13 16  1  0  0  0  0
 13 33  1  0  0  0  0
 14 17  1  0  0  0  0
 14 19  1  0  0  0  0
 15 18  1  0  0  0  0
 15 20  1  0  0  0  0
 15 34  1  0  0  0  0
 16 35  1  0  0  0  0
 17 18  2  0  0  0  0
 17 36  1  0  0  0  0
 18 37  1  0  0  0  0
 19 23  2  0  0  0  0
 19 38  1  0  0  0  0
 20 26  2  0  0  0  0
 20 30  1  0  0  0  0
 21 22  1  0  0  0  0
 21 39  1  0  0  0  0
 22 24  1  0  0  0  0
 22 40  1  0  0  0  0
 23 28  1  0  0  0  0
 23 29  1  0  0  0  0
 24 25  1  0  0  0  0
 24 41  1  0  0  0  0
 25 27  1  0  0  0  0
 25 42  1  0  0  0  0
 26 43  1  0  0  0  0
 27 31  1  0  0  0  0
 27 44  1  0  0  0  0
 29 32  1  0  0  0  0
 29 45  1  0  0  0  0
 31 46  1  0  0  0  0
 31 47  1  0  0  0  0
 32 51  1  0  0  0  0
 32 52  1  0  0  0  0
 32 53  1  0  0  0  0
M  END
> <PUBCHEM_COMPOUND_CID>
44593505

> <PUBCHEM_CONFORMER_RMSD>
1

> <PUBCHEM_CONFORMER_DIVERSEORDER>
1
23
7
20
8
11
30
10
21
18
12
4
29
24
9
13
3
28
17
15
16
2
14
6
25
19
26
27
22
5

> <PUBCHEM_MMFF94_PARTIAL_CHARGES>
40
1 -0.43
10 -0.65
11 -0.68
12 -0.57
14 0.56
15 0.28
16 0.56
17 -0.29
18 -0.29
19 -0.29
2 -0.56
20 -0.12
21 0.56
22 0.28
23 -0.12
24 0.28
25 0.28
26 -0.07
27 0.28
28 0.71
29 0.42
3 -0.36
30 0.71
31 0.28
36 0.15
37 0.15
38 0.15
4 -0.56
43 0.15
48 0.4
49 0.4
5 -0.68
50 0.4
54 0.4
55 0.5
56 0.4
6 -0.68
7 -0.68
8 -0.57
9 -0.68

> <PUBCHEM_EFFECTIVE_ROTOR_COUNT>
6.8

> <PUBCHEM_PHARMACOPHORE_FEATURES>
21
1 10 acceptor
1 11 acceptor
1 11 donor
1 12 acceptor
1 2 acceptor
1 3 acceptor
1 4 acceptor
1 5 acceptor
1 5 donor
1 6 acceptor
1 6 donor
1 7 acceptor
1 7 donor
1 8 acceptor
1 9 acceptor
1 9 donor
3 10 12 30 anion
5 1 14 19 23 28 rings
5 13 14 15 17 18 rings
6 3 13 15 16 20 26 rings
6 4 21 22 24 25 27 rings

> <PUBCHEM_HEAVY_ATOM_COUNT>
32

> <PUBCHEM_ATOM_DEF_STEREO_COUNT>
10

> <PUBCHEM_ATOM_UDEF_STEREO_COUNT>
0

> <PUBCHEM_BOND_DEF_STEREO_COUNT>
0

> <PUBCHEM_BOND_UDEF_STEREO_COUNT>
0

> <PUBCHEM_ISOTOPIC_ATOM_COUNT>
0

> <PUBCHEM_COMPONENT_COUNT>
1

> <PUBCHEM_CACTVS_TAUTO_COUNT>
1

> <PUBCHEM_CONFORMER_ID>
02A8716100000001

> <PUBCHEM_MMFF94_ENERGY>
79.1069

> <PUBCHEM_FEATURE_SELFOVERLAP>
106.947

> <PUBCHEM_SHAPE_FINGERPRINT>
10291535 26 18341328976475686200
12156800 1 16546435703907220873
12293681 160 18265871671642958151
12788726 201 18338219553471922267
14363568 33 17185038804317471920
14713325 29 18131634448396186911
14955137 171 17471012475987605843
15463212 79 18263073323701684043
19311894 1 17984137058993853445
19930381 70 17623274387836549361
20642791 268 17335372770457787355
21033648 29 18188484649755389660
22440779 20 17321040451637711138
22956985 138 16749023108973129138
23557571 272 17898285258557434114
23558518 356 18412548690987014613
23559900 14 18263353866907881510
23845131 108 18118412744158102817
283562 15 18408878513343511391
3380486 145 17906457984463783835
4258327 124 17604161418360193412
497634 4 16343144765226508302
508706 21 18335977640778018756
5309563 4 17764309844032298240
57527585 103 17315364870997718649
6004065 56 17619063280257662247
7288768 16 18268721519366096225
7399639 24 17908418405385092608
9709674 26 18411415159271817022

> <PUBCHEM_SHAPE_MULTIPOLES>
588.11
9.57
5.78
1.66
16.61
0.2
0.33
2
-1.15
-5.73
2.59
-1.82
0.16
1.23

> <PUBCHEM_SHAPE_SELFOVERLAP>
1273.884

> <PUBCHEM_SHAPE_VOLUME>
317.6

> <PUBCHEM_COORDINATE_TYPE>
2
5
10

$$$$
