14313598
  -OEChem-11202007253D

 84 88  0     1  0  0  0  0  0999 V2000
    6.4769   -1.9167   -0.4708 O   0  0  0  0  0  0  0  0  0  0  0  0
   -6.1878   -1.6684   -0.7416 O   0  0  0  0  0  0  0  0  0  0  0  0
   -0.7918    0.9325   -0.3147 C   0  0  1  0  0  0  0  0  0  0  0  0
    0.7165    0.9521    0.3190 C   0  0  1  0  0  0  0  0  0  0  0  0
   -1.4198   -0.4909   -0.0741 C   0  0  1  0  0  0  0  0  0  0  0  0
    1.6153   -0.1808   -0.3538 C   0  0  1  0  0  0  0  0  0  0  0  0
   -2.9818   -0.6735   -0.3372 C   0  0  2  0  0  0  0  0  0  0  0  0
    3.1288   -0.1301    0.1428 C   0  0  2  0  0  0  0  0  0  0  0  0
   -3.7415    0.4859    0.3942 C   0  0  1  0  0  0  0  0  0  0  0  0
    3.7205    1.3076   -0.1612 C   0  0  1  0  0  0  0  0  0  0  0  0
   -1.7077    1.9991    0.3501 C   0  0  0  0  0  0  0  0  0  0  0  0
   -0.5394   -1.5702   -0.7210 C   0  0  0  0  0  0  0  0  0  0  0  0
    1.3821    2.3404    0.1012 C   0  0  0  0  0  0  0  0  0  0  0  0
    0.9105   -1.5431   -0.2294 C   0  0  0  0  0  0  0  0  0  0  0  0
   -3.1917    1.8689   -0.0045 C   0  0  0  0  0  0  0  0  0  0  0  0
    2.8509    2.3991    0.5040 C   0  0  0  0  0  0  0  0  0  0  0  0
    4.1403   -1.2504   -0.3398 C   0  0  1  0  0  0  0  0  0  0  0  0
   -5.3204    0.3875    0.3817 C   0  0  0  0  0  0  0  0  0  0  0  0
   -3.4294   -2.0393    0.2991 C   0  0  0  0  0  0  0  0  0  0  0  0
   -0.7249    1.2865   -1.8310 C   0  0  0  0  0  0  0  0  0  0  0  0
    0.6713    0.7298    1.8699 C   0  0  0  0  0  0  0  0  0  0  0  0
    5.1393    1.4563    0.4368 C   0  0  0  0  0  0  0  0  0  0  0  0
   -3.3148   -0.7415   -1.8460 C   0  0  0  0  0  0  0  0  0  0  0  0
    5.5903   -1.0224    0.2232 C   0  0  2  0  0  0  0  0  0  0  0  0
   -5.7982   -1.0969    0.5042 C   0  0  2  0  0  0  0  0  0  0  0  0
   -4.7279   -1.9953    1.1131 C   0  0  0  0  0  0  0  0  0  0  0  0
    6.1002    0.3924   -0.0580 C   0  0  0  0  0  0  0  0  0  0  0  0
    3.8057    1.6002   -1.6847 C   0  0  0  0  0  0  0  0  0  0  0  0
    3.7273   -2.7002   -0.0160 C   0  0  0  0  0  0  0  0  0  0  0  0
   -5.8443    1.1296    1.6464 C   0  0  0  0  0  0  0  0  0  0  0  0
   -5.9673    1.0939   -0.8279 C   0  0  0  0  0  0  0  0  0  0  0  0
    5.7129   -1.3420    1.7260 C   0  0  0  0  0  0  0  0  0  0  0  0
   -1.3475   -0.6639    1.0063 H   0  0  0  0  0  0  0  0  0  0  0  0
    1.6599    0.0135   -1.4296 H   0  0  0  0  0  0  0  0  0  0  0  0
    3.0979   -0.2484    1.2316 H   0  0  0  0  0  0  0  0  0  0  0  0
   -3.4589    0.3753    1.4544 H   0  0  0  0  0  0  0  0  0  0  0  0
   -1.3766    3.0089    0.0795 H   0  0  0  0  0  0  0  0  0  0  0  0
   -1.6427    1.9399    1.4402 H   0  0  0  0  0  0  0  0  0  0  0  0
   -0.5337   -1.4677   -1.8110 H   0  0  0  0  0  0  0  0  0  0  0  0
   -0.9399   -2.5699   -0.5199 H   0  0  0  0  0  0  0  0  0  0  0  0
    0.8450    3.1100    0.6690 H   0  0  0  0  0  0  0  0  0  0  0  0
    1.3211    2.6490   -0.9439 H   0  0  0  0  0  0  0  0  0  0  0  0
    0.9571   -1.9093    0.8016 H   0  0  0  0  0  0  0  0  0  0  0  0
    1.4127   -2.2698   -0.8632 H   0  0  0  0  0  0  0  0  0  0  0  0
   -3.7246    2.6580    0.5373 H   0  0  0  0  0  0  0  0  0  0  0  0
   -3.3513    2.0748   -1.0665 H   0  0  0  0  0  0  0  0  0  0  0  0
    3.2397    3.3934    0.2452 H   0  0  0  0  0  0  0  0  0  0  0  0
    2.9339    2.3337    1.5955 H   0  0  0  0  0  0  0  0  0  0  0  0
    4.2031   -1.2026   -1.4349 H   0  0  0  0  0  0  0  0  0  0  0  0
   -2.6592   -2.4265    0.9780 H   0  0  0  0  0  0  0  0  0  0  0  0
   -3.5252   -2.8037   -0.4835 H   0  0  0  0  0  0  0  0  0  0  0  0
   -0.3679    2.3074   -1.9944 H   0  0  0  0  0  0  0  0  0  0  0  0
   -0.0789    0.6197   -2.4045 H   0  0  0  0  0  0  0  0  0  0  0  0
   -1.6966    1.2650   -2.3164 H   0  0  0  0  0  0  0  0  0  0  0  0
    0.2239   -0.2221    2.1601 H   0  0  0  0  0  0  0  0  0  0  0  0
    1.6631    0.7356    2.3276 H   0  0  0  0  0  0  0  0  0  0  0  0
    0.1214    1.5261    2.3791 H   0  0  0  0  0  0  0  0  0  0  0  0
    5.0900    1.4207    1.5322 H   0  0  0  0  0  0  0  0  0  0  0  0
    5.5516    2.4437    0.1905 H   0  0  0  0  0  0  0  0  0  0  0  0
   -3.3804    0.2384   -2.3171 H   0  0  0  0  0  0  0  0  0  0  0  0
   -2.5873   -1.3355   -2.4047 H   0  0  0  0  0  0  0  0  0  0  0  0
   -4.2773   -1.2199   -2.0354 H   0  0  0  0  0  0  0  0  0  0  0  0
   -6.6936   -1.1434    1.1360 H   0  0  0  0  0  0  0  0  0  0  0  0
   -5.1057   -3.0211    1.2073 H   0  0  0  0  0  0  0  0  0  0  0  0
   -4.5038   -1.6559    2.1321 H   0  0  0  0  0  0  0  0  0  0  0  0
    6.2934    0.5138   -1.1309 H   0  0  0  0  0  0  0  0  0  0  0  0
    7.0817    0.5383    0.4121 H   0  0  0  0  0  0  0  0  0  0  0  0
    4.2764    2.5744   -1.8640 H   0  0  0  0  0  0  0  0  0  0  0  0
    4.3956    0.8548   -2.2240 H   0  0  0  0  0  0  0  0  0  0  0  0
    2.8274    1.6330   -2.1701 H   0  0  0  0  0  0  0  0  0  0  0  0
    3.1777   -2.7626    0.9278 H   0  0  0  0  0  0  0  0  0  0  0  0
    3.1264   -3.1249   -0.8224 H   0  0  0  0  0  0  0  0  0  0  0  0
    4.5742   -3.3879    0.0594 H   0  0  0  0  0  0  0  0  0  0  0  0
   -5.4528    0.6794    2.5656 H   0  0  0  0  0  0  0  0  0  0  0  0
   -5.5645    2.1876    1.6475 H   0  0  0  0  0  0  0  0  0  0  0  0
   -6.9388    1.0887    1.7012 H   0  0  0  0  0  0  0  0  0  0  0  0
   -5.7626    2.1697   -0.8303 H   0  0  0  0  0  0  0  0  0  0  0  0
   -5.6215    0.6895   -1.7816 H   0  0  0  0  0  0  0  0  0  0  0  0
   -7.0576    0.9795   -0.8036 H   0  0  0  0  0  0  0  0  0  0  0  0
    5.5083   -2.3956    1.9431 H   0  0  0  0  0  0  0  0  0  0  0  0
    6.7394   -1.1674    2.0704 H   0  0  0  0  0  0  0  0  0  0  0  0
    5.0429   -0.7352    2.3407 H   0  0  0  0  0  0  0  0  0  0  0  0
    6.5249   -2.7604    0.0076 H   0  0  0  0  0  0  0  0  0  0  0  0
   -6.5084   -2.5700   -0.5687 H   0  0  0  0  0  0  0  0  0  0  0  0
  1 24  1  0  0  0  0
  1 83  1  0  0  0  0
  2 25  1  0  0  0  0
  2 84  1  0  0  0  0
  3  4  1  0  0  0  0
  3  5  1  0  0  0  0
  3 11  1  0  0  0  0
  3 20  1  0  0  0  0
  4  6  1  0  0  0  0
  4 13  1  0  0  0  0
  4 21  1  0  0  0  0
  5  7  1  0  0  0  0
  5 12  1  0  0  0  0
  5 33  1  0  0  0  0
  6  8  1  0  0  0  0
  6 14  1  0  0  0  0
  6 34  1  0  0  0  0
  7  9  1  0  0  0  0
  7 19  1  0  0  0  0
  7 23  1  0  0  0  0
  8 10  1  0  0  0  0
  8 17  1  0  0  0  0
  8 35  1  0  0  0  0
  9 15  1  0  0  0  0
  9 18  1  0  0  0  0
  9 36  1  0  0  0  0
 10 16  1  0  0  0  0
 10 22  1  0  0  0  0
 10 28  1  0  0  0  0
 11 15  1  0  0  0  0
 11 37  1  0  0  0  0
 11 38  1  0  0  0  0
 12 14  1  0  0  0  0
 12 39  1  0  0  0  0
 12 40  1  0  0  0  0
 13 16  1  0  0  0  0
 13 41  1  0  0  0  0
 13 42  1  0  0  0  0
 14 43  1  0  0  0  0
 14 44  1  0  0  0  0
 15 45  1  0  0  0  0
 15 46  1  0  0  0  0
 16 47  1  0  0  0  0
 16 48  1  0  0  0  0
 17 24  1  0  0  0  0
 17 29  1  0  0  0  0
 17 49  1  0  0  0  0
 18 25  1  0  0  0  0
 18 30  1  0  0  0  0
 18 31  1  0  0  0  0
 19 26  1  0  0  0  0
 19 50  1  0  0  0  0
 19 51  1  0  0  0  0
 20 52  1  0  0  0  0
 20 53  1  0  0  0  0
 20 54  1  0  0  0  0
 21 55  1  0  0  0  0
 21 56  1  0  0  0  0
 21 57  1  0  0  0  0
 22 27  1  0  0  0  0
 22 58  1  0  0  0  0
 22 59  1  0  0  0  0
 23 60  1  0  0  0  0
 23 61  1  0  0  0  0
 23 62  1  0  0  0  0
 24 27  1  0  0  0  0
 24 32  1  0  0  0  0
 25 26  1  0  0  0  0
 25 63  1  0  0  0  0
 26 64  1  0  0  0  0
 26 65  1  0  0  0  0
 27 66  1  0  0  0  0
 27 67  1  0  0  0  0
 28 68  1  0  0  0  0
 28 69  1  0  0  0  0
 28 70  1  0  0  0  0
 29 71  1  0  0  0  0
 29 72  1  0  0  0  0
 29 73  1  0  0  0  0
 30 74  1  0  0  0  0
 30 75  1  0  0  0  0
 30 76  1  0  0  0  0
 31 77  1  0  0  0  0
 31 78  1  0  0  0  0
 31 79  1  0  0  0  0
 32 80  1  0  0  0  0
 32 81  1  0  0  0  0
 32 82  1  0  0  0  0
M  END
> <PUBCHEM_COMPOUND_CID>
14313598

> <PUBCHEM_CONFORMER_RMSD>
0.8

> <PUBCHEM_CONFORMER_DIVERSEORDER>
1

> <PUBCHEM_MMFF94_PARTIAL_CHARGES>
6
1 -0.68
2 -0.68
24 0.28
25 0.28
83 0.4
84 0.4

> <PUBCHEM_EFFECTIVE_ROTOR_COUNT>
2.8

> <PUBCHEM_PHARMACOPHORE_FEATURES>
10
1 1 acceptor
1 1 donor
1 2 acceptor
1 2 donor
3 18 30 31 hydrophobe
6 3 4 5 6 12 14 rings
6 3 5 7 9 11 15 rings
6 4 6 8 10 13 16 rings
6 7 9 18 19 25 26 rings
6 8 10 17 22 24 27 rings

> <PUBCHEM_HEAVY_ATOM_COUNT>
32

> <PUBCHEM_ATOM_DEF_STEREO_COUNT>
11

> <PUBCHEM_ATOM_UDEF_STEREO_COUNT>
0

> <PUBCHEM_BOND_DEF_STEREO_COUNT>
0

> <PUBCHEM_BOND_UDEF_STEREO_COUNT>
0

> <PUBCHEM_ISOTOPIC_ATOM_COUNT>
0

> <PUBCHEM_COMPONENT_COUNT>
1

> <PUBCHEM_CACTVS_TAUTO_COUNT>
1

> <PUBCHEM_CONFORMER_ID>
00DA687E00000001

> <PUBCHEM_MMFF94_ENERGY>
174.2229

> <PUBCHEM_FEATURE_SELFOVERLAP>
50.796

> <PUBCHEM_SHAPE_FINGERPRINT>
11578080 2 16879616078281064839
11719270 70 18272087179961120366
11756154 67 17835528124853881438
12107183 9 17981614762466849241
12166972 35 17748831825648829964
12236239 1 18131634486618031256
12422481 6 18271812297811410815
12516196 113 18202281403048057000
12616971 3 18273210919546294870
12633257 1 17203331160409441727
12788726 201 17489041404487176688
13402501 40 18407761443309206442
13533116 47 18411701023789298600
13782708 43 17530682108500809698
13811026 1 18411132549975334123
14068700 675 16342271766822884127
14341114 176 18410016537056469264
14790565 3 18341899605814892649
14955137 171 18202284667650476184
15131766 46 14259341498872944130
15142383 8 18336542729208662324
15183329 4 18410293605396695233
15196674 1 18411982481068999933
15238133 3 17060064713811625185
15361156 5 18113911488686135238
15788980 27 18113338608847531157
15799311 1 18263098719648314850
15927050 60 17695063688959220892
16110190 28 18343024389162133083
17349148 13 17530688714313134052
17492 89 18194964046403571882
17857418 61 18410011039493003656
1813 80 17313103076816448908
18608769 82 18410013265135518922
1979834 28 17775852298564189782
20028762 73 18272649060510221006
20511986 3 17989194954452764682
21130935 74 18202283606456463746
21267235 1 18341055134352315990
21279426 13 18409448059807133903
21682296 61 18200883868098596414
23522609 53 18195277531075675137
23559900 14 18410568522317547993
23569943 247 17532079506154372762
24771293 8 17987219205974695384
3004659 81 18334577932590332754
335352 9 18412826871686873245
338550 245 18336267924674579326
3411729 13 17058918065429719208
350125 39 18410575080732303500
3633792 109 18337943507977114365
3680242 22 18412270514597863464
392239 28 18341341041365881425
4073 2 18114750428990743771
4098825 35 17676488358941134052
4144715 1 18338248063327579195
460360 51 18199208207787037832
46194498 28 17748826345803323428
463206 1 18339358669145946406
5104073 3 18413109493419995201
59755656 215 18335983073753535526
6081469 158 18186794795499726991
6086070 43 17131818873106107801
7495541 125 18341613745634576320
9996256 80 18342175604935245263

> <PUBCHEM_SHAPE_MULTIPOLES>
646.81
16.03
2.64
1.36
0.55
0.23
-0.03
4.38
2.18
-0.94
0.08
0.38
-0.15
-0.39

> <PUBCHEM_SHAPE_SELFOVERLAP>
1356.412

> <PUBCHEM_SHAPE_VOLUME>
362.6

> <PUBCHEM_COORDINATE_TYPE>
2
5
10

$$$$
