14262780
  -OEChem-11202007243D

 51 54  0     1  0  0  0  0  0999 V2000
    3.0135    0.2964   -2.4804 O   0  0  0  0  0  0  0  0  0  0  0  0
    1.8304   -2.0858   -1.4269 O   0  0  0  0  0  0  0  0  0  0  0  0
   -4.8428    1.1603    0.5682 O   0  0  0  0  0  0  0  0  0  0  0  0
    0.6400    0.6046    0.4334 C   0  0  1  0  0  0  0  0  0  0  0  0
   -0.7672    0.5618   -0.2828 C   0  0  1  0  0  0  0  0  0  0  0  0
    1.3624   -0.7712    0.5860 C   0  0  2  0  0  0  0  0  0  0  0  0
   -1.6269   -0.5248    0.4609 C   0  0  2  0  0  0  0  0  0  0  0  0
    1.6432    1.6687   -0.1016 C   0  0  0  0  0  0  0  0  0  0  0  0
    0.4283   -1.8953    1.0511 C   0  0  0  0  0  0  0  0  0  0  0  0
   -0.9424   -1.9052    0.3727 C   0  0  0  0  0  0  0  0  0  0  0  0
    3.0773    1.0972   -0.1569 C   0  0  2  0  0  0  0  0  0  0  0  0
   -3.1660   -0.5506    0.1549 C   0  0  0  0  0  0  0  0  0  0  0  0
    2.5204   -0.6037    1.6257 C   0  0  0  0  0  0  0  0  0  0  0  0
   -1.4616    1.9356   -0.0883 C   0  0  0  0  0  0  0  0  0  0  0  0
    2.0810   -1.1007   -0.7379 C   0  0  0  0  0  0  0  0  0  0  0  0
    3.1568   -0.0927   -1.1330 C   0  0  1  0  0  0  0  0  0  0  0  0
    3.4020    0.5585    1.2210 C   0  0  0  0  0  0  0  0  0  0  0  0
   -0.6211    0.2960   -1.7983 C   0  0  0  0  0  0  0  0  0  0  0  0
   -2.9084    1.9547   -0.5543 C   0  0  0  0  0  0  0  0  0  0  0  0
   -3.7221    0.8847    0.1327 C   0  0  0  0  0  0  0  0  0  0  0  0
   -3.8927   -1.3067    1.2998 C   0  0  0  0  0  0  0  0  0  0  0  0
   -3.5635   -1.2420   -1.1575 C   0  0  0  0  0  0  0  0  0  0  0  0
    4.3595    1.0601    2.0113 C   0  0  0  0  0  0  0  0  0  0  0  0
    0.4185    0.9232    1.4660 H   0  0  0  0  0  0  0  0  0  0  0  0
   -1.5748   -0.2389    1.5251 H   0  0  0  0  0  0  0  0  0  0  0  0
    1.6186    2.5434    0.5623 H   0  0  0  0  0  0  0  0  0  0  0  0
    1.3710    2.0436   -1.0911 H   0  0  0  0  0  0  0  0  0  0  0  0
    0.2576   -1.7968    2.1318 H   0  0  0  0  0  0  0  0  0  0  0  0
    0.9027   -2.8746    0.9103 H   0  0  0  0  0  0  0  0  0  0  0  0
   -0.8459   -2.2371   -0.6652 H   0  0  0  0  0  0  0  0  0  0  0  0
   -1.5438   -2.6699    0.8740 H   0  0  0  0  0  0  0  0  0  0  0  0
    3.7695    1.8881   -0.4682 H   0  0  0  0  0  0  0  0  0  0  0  0
    3.1236   -1.5200    1.6651 H   0  0  0  0  0  0  0  0  0  0  0  0
    2.1095   -0.4228    2.6267 H   0  0  0  0  0  0  0  0  0  0  0  0
   -0.9124    2.7223   -0.6194 H   0  0  0  0  0  0  0  0  0  0  0  0
   -1.4389    2.2075    0.9758 H   0  0  0  0  0  0  0  0  0  0  0  0
    4.1307   -0.5880   -1.0300 H   0  0  0  0  0  0  0  0  0  0  0  0
    0.0500    1.0128   -2.2786 H   0  0  0  0  0  0  0  0  0  0  0  0
   -0.2365   -0.6990   -2.0218 H   0  0  0  0  0  0  0  0  0  0  0  0
   -1.5621    0.3905   -2.3382 H   0  0  0  0  0  0  0  0  0  0  0  0
   -3.0025    1.8298   -1.6362 H   0  0  0  0  0  0  0  0  0  0  0  0
   -3.3454    2.9294   -0.3068 H   0  0  0  0  0  0  0  0  0  0  0  0
   -3.6047   -2.3609    1.3472 H   0  0  0  0  0  0  0  0  0  0  0  0
   -3.6804   -0.8504    2.2737 H   0  0  0  0  0  0  0  0  0  0  0  0
   -4.9815   -1.2854    1.1684 H   0  0  0  0  0  0  0  0  0  0  0  0
   -4.6555   -1.3097   -1.2424 H   0  0  0  0  0  0  0  0  0  0  0  0
   -3.2357   -0.6988   -2.0435 H   0  0  0  0  0  0  0  0  0  0  0  0
   -3.1726   -2.2625   -1.2157 H   0  0  0  0  0  0  0  0  0  0  0  0
    4.9701    1.8978    1.6925 H   0  0  0  0  0  0  0  0  0  0  0  0
    4.5503    0.6409    2.9934 H   0  0  0  0  0  0  0  0  0  0  0  0
    3.1482   -0.4937   -3.0308 H   0  0  0  0  0  0  0  0  0  0  0  0
  1 16  1  0  0  0  0
  1 51  1  0  0  0  0
  2 15  2  0  0  0  0
  3 20  2  0  0  0  0
  4  5  1  0  0  0  0
  4  6  1  0  0  0  0
  4  8  1  0  0  0  0
  4 24  1  0  0  0  0
  5  7  1  0  0  0  0
  5 14  1  0  0  0  0
  5 18  1  0  0  0  0
  6  9  1  0  0  0  0
  6 13  1  0  0  0  0
  6 15  1  0  0  0  0
  7 10  1  0  0  0  0
  7 12  1  0  0  0  0
  7 25  1  0  0  0  0
  8 11  1  0  0  0  0
  8 26  1  0  0  0  0
  8 27  1  0  0  0  0
  9 10  1  0  0  0  0
  9 28  1  0  0  0  0
  9 29  1  0  0  0  0
 10 30  1  0  0  0  0
 10 31  1  0  0  0  0
 11 16  1  0  0  0  0
 11 17  1  0  0  0  0
 11 32  1  0  0  0  0
 12 20  1  0  0  0  0
 12 21  1  0  0  0  0
 12 22  1  0  0  0  0
 13 17  1  0  0  0  0
 13 33  1  0  0  0  0
 13 34  1  0  0  0  0
 14 19  1  0  0  0  0
 14 35  1  0  0  0  0
 14 36  1  0  0  0  0
 15 16  1  0  0  0  0
 16 37  1  0  0  0  0
 17 23  2  0  0  0  0
 18 38  1  0  0  0  0
 18 39  1  0  0  0  0
 18 40  1  0  0  0  0
 19 20  1  0  0  0  0
 19 41  1  0  0  0  0
 19 42  1  0  0  0  0
 21 43  1  0  0  0  0
 21 44  1  0  0  0  0
 21 45  1  0  0  0  0
 22 46  1  0  0  0  0
 22 47  1  0  0  0  0
 22 48  1  0  0  0  0
 23 49  1  0  0  0  0
 23 50  1  0  0  0  0
M  END
> <PUBCHEM_COMPOUND_CID>
14262780

> <PUBCHEM_CONFORMER_RMSD>
0.6

> <PUBCHEM_CONFORMER_DIVERSEORDER>
1

> <PUBCHEM_MMFF94_PARTIAL_CHARGES>
16
1 -0.68
11 0.14
12 0.06
13 0.14
15 0.45
16 0.34
17 -0.28
19 0.06
2 -0.57
20 0.45
23 -0.3
3 -0.57
49 0.15
50 0.15
51 0.4
6 0.06

> <PUBCHEM_EFFECTIVE_ROTOR_COUNT>
1.6

> <PUBCHEM_PHARMACOPHORE_FEATURES>
8
1 1 acceptor
1 1 donor
1 2 acceptor
1 3 acceptor
3 12 21 22 hydrophobe
6 4 5 6 7 9 10 rings
6 5 7 12 14 19 20 rings
8 4 6 8 11 13 15 16 17 rings

> <PUBCHEM_HEAVY_ATOM_COUNT>
23

> <PUBCHEM_ATOM_DEF_STEREO_COUNT>
6

> <PUBCHEM_ATOM_UDEF_STEREO_COUNT>
0

> <PUBCHEM_BOND_DEF_STEREO_COUNT>
0

> <PUBCHEM_BOND_UDEF_STEREO_COUNT>
0

> <PUBCHEM_ISOTOPIC_ATOM_COUNT>
0

> <PUBCHEM_COMPONENT_COUNT>
1

> <PUBCHEM_CACTVS_TAUTO_COUNT>
6

> <PUBCHEM_CONFORMER_ID>
00D9A1FC00000001

> <PUBCHEM_MMFF94_ENERGY>
86.5242

> <PUBCHEM_FEATURE_SELFOVERLAP>
40.629

> <PUBCHEM_SHAPE_FINGERPRINT>
10498660 4 18260553312018426045
10646746 165 18409446955768612040
10759866 29 16806177695017189274
10863032 1 16271931553205741558
10871710 139 15965657401369871896
10948715 1 17489012890277879930
11132069 177 18342173388589513849
11578080 2 13685165354910684818
11640471 11 16734126702460027254
11715629 250 18272367572726845799
12173636 292 18337387133164819053
12236239 1 17240762909002065688
12403814 3 16660360377400685071
12553582 1 18335426802574362733
12633257 1 18187920707294861481
12788726 201 17172665901212365066
13134695 92 14707203314834624614
13140716 1 17974849780784976907
13224815 77 18040999552970846219
13296908 3 18060420205256156421
13538477 17 17604430833416785290
13583140 156 15841546414268764227
14178342 30 17969496022441112537
14223421 5 18408038498690424097
14289901 80 18060419131651411025
14787075 74 18127118891273961145
15375358 24 18272362087900725649
16752209 62 18334575745971944239
16945 1 18335986475072176234
17349148 13 17240478113271843435
17980427 23 18261943159167130124
18186145 218 17918003766840052371
18915476 22 17203334411979168862
18981168 100 18130216060736185061
19050596 39 18040149617487163785
20645477 70 16702020837900260148
20691752 17 17531247218943963467
20715895 44 16880169158547294253
2334 1 18335419024056098417
23402539 116 18338781403749659184
23419403 2 17833244456350431934
23557571 272 17917704755728137219
23559900 14 18338526231052585758
2748010 2 18337671888926779495
2838139 119 13613662129976841074
296302 2 17418088862278361272
3323516 105 18200607924817924606
34934 24 18271514330561476329
350125 39 17971755471422532450
4409770 3 15370896793871051178
495365 180 17560509604151637787
5104073 3 18410007715425681441
633830 44 18411705400102478133
7097593 13 17387393684549661954
9709674 26 18411983580739117099

> <PUBCHEM_SHAPE_MULTIPOLES>
455.72
7.76
2.05
1.71
2.62
0.11
-0.49
-1.4
1.98
0.87
0.05
-1.6
0.16
0.31

> <PUBCHEM_SHAPE_SELFOVERLAP>
985.895

> <PUBCHEM_SHAPE_VOLUME>
246.6

> <PUBCHEM_COORDINATE_TYPE>
2
5
10

$$$$
