11771639
  -OEChem-11212015533D

 53 55  0     1  0  0  0  0  0999 V2000
    2.1672    0.7734   -0.8350 O   0  0  0  0  0  0  0  0  0  0  0  0
   -3.7098   -0.0510   -0.2055 O   0  0  0  0  0  0  0  0  0  0  0  0
    3.2055    2.6056   -1.7243 O   0  0  0  0  0  0  0  0  0  0  0  0
   -4.0723    2.1729   -0.7152 O   0  0  0  0  0  0  0  0  0  0  0  0
    0.5371   -0.1910    0.7520 C   0  0  1  0  0  0  0  0  0  0  0  0
   -0.0389   -1.1373   -0.3789 C   0  0  2  0  0  0  0  0  0  0  0  0
    2.0830    0.0868    0.4391 C   0  0  1  0  0  0  0  0  0  0  0  0
   -1.6059   -1.3346   -0.4193 C   0  0  0  0  0  0  0  0  0  0  0  0
    2.8767   -1.2597    0.3236 C   0  0  1  0  0  0  0  0  0  0  0  0
   -0.2796    1.1354    0.7197 C   0  0  0  0  0  0  0  0  0  0  0  0
    0.7594   -2.4536   -0.4558 C   0  0  0  0  0  0  0  0  0  0  0  0
   -2.2951    0.0601   -0.3578 C   0  0  2  0  0  0  0  0  0  0  0  0
    2.2404   -2.1999   -0.7103 C   0  0  0  0  0  0  0  0  0  0  0  0
   -1.7896    0.9372    0.7797 C   0  0  0  0  0  0  0  0  0  0  0  0
    2.7484    1.0594    1.4259 C   0  0  0  0  0  0  0  0  0  0  0  0
    0.4257   -0.7987    2.1751 C   0  0  0  0  0  0  0  0  0  0  0  0
   -2.0021   -1.9878   -1.7758 C   0  0  0  0  0  0  0  0  0  0  0  0
   -2.1528   -2.2778    0.6726 C   0  0  0  0  0  0  0  0  0  0  0  0
    3.5765    2.0005    0.5811 C   0  0  0  0  0  0  0  0  0  0  0  0
    4.3628   -1.1071   -0.0332 C   0  0  0  0  0  0  0  0  0  0  0  0
    2.9775    1.8662   -0.7790 C   0  0  0  0  0  0  0  0  0  0  0  0
   -4.3927    1.1301   -0.1608 C   0  0  0  0  0  0  0  0  0  0  0  0
   -5.6215    0.9711    0.6822 C   0  0  0  0  0  0  0  0  0  0  0  0
    0.1788   -0.6155   -1.3248 H   0  0  0  0  0  0  0  0  0  0  0  0
    2.8482   -1.7628    1.2983 H   0  0  0  0  0  0  0  0  0  0  0  0
   -0.0504    1.6967   -0.1945 H   0  0  0  0  0  0  0  0  0  0  0  0
   -0.0012    1.7847    1.5565 H   0  0  0  0  0  0  0  0  0  0  0  0
    0.3950   -3.0834   -1.2729 H   0  0  0  0  0  0  0  0  0  0  0  0
    0.6425   -3.0428    0.4590 H   0  0  0  0  0  0  0  0  0  0  0  0
   -2.0978    0.5761   -1.3087 H   0  0  0  0  0  0  0  0  0  0  0  0
    2.7642   -3.1641   -0.7065 H   0  0  0  0  0  0  0  0  0  0  0  0
    2.3653   -1.7859   -1.7193 H   0  0  0  0  0  0  0  0  0  0  0  0
   -2.0961    0.5249    1.7476 H   0  0  0  0  0  0  0  0  0  0  0  0
   -2.2323    1.9381    0.7595 H   0  0  0  0  0  0  0  0  0  0  0  0
    3.3461    0.5536    2.1919 H   0  0  0  0  0  0  0  0  0  0  0  0
    2.0207    1.6607    1.9769 H   0  0  0  0  0  0  0  0  0  0  0  0
    0.9597   -0.1885    2.9112 H   0  0  0  0  0  0  0  0  0  0  0  0
   -0.5995   -0.8490    2.5385 H   0  0  0  0  0  0  0  0  0  0  0  0
    0.8388   -1.8077    2.2407 H   0  0  0  0  0  0  0  0  0  0  0  0
   -1.5739   -1.4389   -2.6218 H   0  0  0  0  0  0  0  0  0  0  0  0
   -3.0904   -1.9944   -1.9089 H   0  0  0  0  0  0  0  0  0  0  0  0
   -1.6712   -3.0287   -1.8442 H   0  0  0  0  0  0  0  0  0  0  0  0
   -3.2025   -2.5322    0.4801 H   0  0  0  0  0  0  0  0  0  0  0  0
   -2.1299   -1.8372    1.6685 H   0  0  0  0  0  0  0  0  0  0  0  0
   -1.6056   -3.2245    0.7059 H   0  0  0  0  0  0  0  0  0  0  0  0
    4.6281    1.7071    0.5453 H   0  0  0  0  0  0  0  0  0  0  0  0
    3.4894    3.0306    0.9368 H   0  0  0  0  0  0  0  0  0  0  0  0
    4.8377   -2.0905   -0.1282 H   0  0  0  0  0  0  0  0  0  0  0  0
    4.5032   -0.5821   -0.9831 H   0  0  0  0  0  0  0  0  0  0  0  0
    4.9092   -0.5726    0.7484 H   0  0  0  0  0  0  0  0  0  0  0  0
   -5.3381    0.6942    1.7007 H   0  0  0  0  0  0  0  0  0  0  0  0
   -6.2757    0.2130    0.2444 H   0  0  0  0  0  0  0  0  0  0  0  0
   -6.1627    1.9210    0.7172 H   0  0  0  0  0  0  0  0  0  0  0  0
  1  7  1  0  0  0  0
  1 21  1  0  0  0  0
  2 12  1  0  0  0  0
  2 22  1  0  0  0  0
  3 21  2  0  0  0  0
  4 22  2  0  0  0  0
  5  6  1  0  0  0  0
  5  7  1  0  0  0  0
  5 10  1  0  0  0  0
  5 16  1  0  0  0  0
  6  8  1  0  0  0  0
  6 11  1  0  0  0  0
  6 24  1  0  0  0  0
  7  9  1  0  0  0  0
  7 15  1  0  0  0  0
  8 12  1  0  0  0  0
  8 17  1  0  0  0  0
  8 18  1  0  0  0  0
  9 13  1  0  0  0  0
  9 20  1  0  0  0  0
  9 25  1  0  0  0  0
 10 14  1  0  0  0  0
 10 26  1  0  0  0  0
 10 27  1  0  0  0  0
 11 13  1  0  0  0  0
 11 28  1  0  0  0  0
 11 29  1  0  0  0  0
 12 14  1  0  0  0  0
 12 30  1  0  0  0  0
 13 31  1  0  0  0  0
 13 32  1  0  0  0  0
 14 33  1  0  0  0  0
 14 34  1  0  0  0  0
 15 19  1  0  0  0  0
 15 35  1  0  0  0  0
 15 36  1  0  0  0  0
 16 37  1  0  0  0  0
 16 38  1  0  0  0  0
 16 39  1  0  0  0  0
 17 40  1  0  0  0  0
 17 41  1  0  0  0  0
 17 42  1  0  0  0  0
 18 43  1  0  0  0  0
 18 44  1  0  0  0  0
 18 45  1  0  0  0  0
 19 21  1  0  0  0  0
 19 46  1  0  0  0  0
 19 47  1  0  0  0  0
 20 48  1  0  0  0  0
 20 49  1  0  0  0  0
 20 50  1  0  0  0  0
 22 23  1  0  0  0  0
 23 51  1  0  0  0  0
 23 52  1  0  0  0  0
 23 53  1  0  0  0  0
M  END
> <PUBCHEM_COMPOUND_CID>
11771639

> <PUBCHEM_CONFORMER_RMSD>
0.6

> <PUBCHEM_CONFORMER_DIVERSEORDER>
1
3
2

> <PUBCHEM_MMFF94_PARTIAL_CHARGES>
10
1 -0.43
12 0.28
19 0.06
2 -0.43
21 0.66
22 0.66
23 0.06
3 -0.57
4 -0.57
7 0.28

> <PUBCHEM_EFFECTIVE_ROTOR_COUNT>
4

> <PUBCHEM_PHARMACOPHORE_FEATURES>
6
1 3 acceptor
1 4 acceptor
3 8 17 18 hydrophobe
5 1 7 15 19 21 rings
6 5 6 7 9 11 13 rings
6 5 6 8 10 12 14 rings

> <PUBCHEM_HEAVY_ATOM_COUNT>
23

> <PUBCHEM_ATOM_DEF_STEREO_COUNT>
5

> <PUBCHEM_ATOM_UDEF_STEREO_COUNT>
0

> <PUBCHEM_BOND_DEF_STEREO_COUNT>
0

> <PUBCHEM_BOND_UDEF_STEREO_COUNT>
0

> <PUBCHEM_ISOTOPIC_ATOM_COUNT>
0

> <PUBCHEM_COMPONENT_COUNT>
1

> <PUBCHEM_CACTVS_TAUTO_COUNT>
2

> <PUBCHEM_CONFORMER_ID>
00B39EF700000001

> <PUBCHEM_MMFF94_ENERGY>
84.0527

> <PUBCHEM_FEATURE_SELFOVERLAP>
30.466

> <PUBCHEM_SHAPE_FINGERPRINT>
10498660 4 18201722915518586105
10863032 1 18340768242551510878
10948715 1 18407758149005785499
11405975 8 18261108590801664770
11578080 2 16300110933072997734
11640471 11 17753607142387855676
12173636 292 18337666546235675647
12293681 160 17845944034436166376
12633257 1 16661753544390466088
12788726 201 16917079832189543113
13140716 1 18413100675994788202
13836976 161 18272932674432606367
13965767 371 18262778732016742384
14115302 16 17988640774738380018
15163728 17 17606987232538002324
15196674 1 18271802445430883163
15342168 16 17750241463758608549
16752209 62 18127123306362989790
16945 1 18194701284061001074
17980427 23 18119503652766470448
18186145 218 17677038135897262834
19765921 60 18261667168530931473
19862831 5 17632584867837917712
20691752 17 17603857931850130694
20715895 44 18122052110208384557
21503847 285 18040715848753407476
21756936 100 17533792764946833460
22149856 69 18271535256412159499
22393880 68 18059578056969954004
23227448 37 18261394485610614861
2334 1 18270961374843933130
23419403 2 13027464024803124875
23493267 7 18189049957576830066
23557571 272 17559390477482035032
23558518 356 18190172571728618178
23559900 14 18202279161434383066
2748010 2 18271809072433727506
335352 9 18271804580193315822
350125 39 18341334379465650416
474 4 18040996284337463412
495365 180 17774708823191937170
5104073 3 18412259558310742067
633830 44 17967809478920010834
7364860 26 18201718423436195682
7832392 63 18410289237515331564
9709674 26 18343021073263186687
9981440 41 17904196280835179728
9999458 23 18114749234995174711

> <PUBCHEM_SHAPE_MULTIPOLES>
449.85
8.38
2.81
1.41
6.95
0.31
0.12
-4.47
-0.58
-0.87
-0.83
-0.38
-0.11
-0.49

> <PUBCHEM_SHAPE_SELFOVERLAP>
940.169

> <PUBCHEM_SHAPE_VOLUME>
253.2

> <PUBCHEM_COORDINATE_TYPE>
2
5
10

$$$$
