11013229
  -OEChem-11212016293D

 41 43  0     0  0  0  0  0  0999 V2000
    0.9012   -3.0877   -0.0101 O   0  0  0  0  0  0  0  0  0  0  0  0
   -4.2066    2.7185    0.2278 O   0  0  0  0  0  0  0  0  0  0  0  0
   -1.6166    3.6674    0.5458 O   0  0  0  0  0  0  0  0  0  0  0  0
    4.2623    0.7192   -1.7146 O   0  0  0  0  0  0  0  0  0  0  0  0
    5.3768    0.8725    0.8273 O   0  0  0  0  0  0  0  0  0  0  0  0
   -2.8086   -4.6086   -0.4897 O   0  0  0  0  0  0  0  0  0  0  0  0
   -0.9849    0.0696    0.1927 C   0  0  0  0  0  0  0  0  0  0  0  0
    0.0859   -0.8390    0.1784 C   0  0  0  0  0  0  0  0  0  0  0  0
   -2.3051   -0.4137    0.0288 C   0  0  0  0  0  0  0  0  0  0  0  0
    1.4631   -0.3930    0.3434 C   0  0  0  0  0  0  0  0  0  0  0  0
   -0.1416   -2.2046    0.0050 C   0  0  0  0  0  0  0  0  0  0  0  0
   -2.5154   -1.7914   -0.1443 C   0  0  0  0  0  0  0  0  0  0  0  0
   -1.4397   -2.6798   -0.1560 C   0  0  0  0  0  0  0  0  0  0  0  0
   -0.7746    1.4472    0.3660 C   0  0  0  0  0  0  0  0  0  0  0  0
   -3.3759    0.4949    0.0433 C   0  0  0  0  0  0  0  0  0  0  0  0
   -3.1485    1.8605    0.2165 C   0  0  0  0  0  0  0  0  0  0  0  0
   -1.8502    2.3356    0.3775 C   0  0  0  0  0  0  0  0  0  0  0  0
    2.2123   -0.0468   -0.7748 C   0  0  0  0  0  0  0  0  0  0  0  0
    2.0130   -0.3185    1.6176 C   0  0  0  0  0  0  0  0  0  0  0  0
    3.5307    0.3803   -0.6165 C   0  0  0  0  0  0  0  0  0  0  0  0
    3.3314    0.1085    1.7760 C   0  0  0  0  0  0  0  0  0  0  0  0
    4.0902    0.4579    0.6588 C   0  0  0  0  0  0  0  0  0  0  0  0
   -1.7015   -4.1010   -0.3404 C   0  0  0  0  0  0  0  0  0  0  0  0
   -4.6065    3.2708   -1.0248 C   0  0  0  0  0  0  0  0  0  0  0  0
    4.2088    2.0813   -2.1338 C   0  0  0  0  0  0  0  0  0  0  0  0
   -3.5311   -2.1626   -0.2705 H   0  0  0  0  0  0  0  0  0  0  0  0
    0.2206    1.8659    0.4950 H   0  0  0  0  0  0  0  0  0  0  0  0
   -4.3971    0.1384   -0.0802 H   0  0  0  0  0  0  0  0  0  0  0  0
    1.7832   -0.1054   -1.7726 H   0  0  0  0  0  0  0  0  0  0  0  0
    1.4341   -0.5875    2.4976 H   0  0  0  0  0  0  0  0  0  0  0  0
    3.7614    0.1667    2.7721 H   0  0  0  0  0  0  0  0  0  0  0  0
   -0.8171   -4.7598   -0.3428 H   0  0  0  0  0  0  0  0  0  0  0  0
    1.7562   -2.6481    0.1100 H   0  0  0  0  0  0  0  0  0  0  0  0
   -2.4713    4.1310    0.5694 H   0  0  0  0  0  0  0  0  0  0  0  0
   -4.9516    2.4793   -1.6976 H   0  0  0  0  0  0  0  0  0  0  0  0
   -3.7826    3.8232   -1.4875 H   0  0  0  0  0  0  0  0  0  0  0  0
   -5.4341    3.9626   -0.8455 H   0  0  0  0  0  0  0  0  0  0  0  0
    5.7663    1.0352   -0.0489 H   0  0  0  0  0  0  0  0  0  0  0  0
    4.8696    2.2003   -2.9968 H   0  0  0  0  0  0  0  0  0  0  0  0
    4.5516    2.7476   -1.3360 H   0  0  0  0  0  0  0  0  0  0  0  0
    3.1904    2.3483   -2.4333 H   0  0  0  0  0  0  0  0  0  0  0  0
  1 11  1  0  0  0  0
  1 33  1  0  0  0  0
  2 16  1  0  0  0  0
  2 24  1  0  0  0  0
  3 17  1  0  0  0  0
  3 34  1  0  0  0  0
  4 20  1  0  0  0  0
  4 25  1  0  0  0  0
  5 22  1  0  0  0  0
  5 38  1  0  0  0  0
  6 23  2  0  0  0  0
  7  8  2  0  0  0  0
  7  9  1  0  0  0  0
  7 14  1  0  0  0  0
  8 10  1  0  0  0  0
  8 11  1  0  0  0  0
  9 12  2  0  0  0  0
  9 15  1  0  0  0  0
 10 18  2  0  0  0  0
 10 19  1  0  0  0  0
 11 13  2  0  0  0  0
 12 13  1  0  0  0  0
 12 26  1  0  0  0  0
 13 23  1  0  0  0  0
 14 17  2  0  0  0  0
 14 27  1  0  0  0  0
 15 16  2  0  0  0  0
 15 28  1  0  0  0  0
 16 17  1  0  0  0  0
 18 20  1  0  0  0  0
 18 29  1  0  0  0  0
 19 21  2  0  0  0  0
 19 30  1  0  0  0  0
 20 22  2  0  0  0  0
 21 22  1  0  0  0  0
 21 31  1  0  0  0  0
 23 32  1  0  0  0  0
 24 35  1  0  0  0  0
 24 36  1  0  0  0  0
 24 37  1  0  0  0  0
 25 39  1  0  0  0  0
 25 40  1  0  0  0  0
 25 41  1  0  0  0  0
M  END
> <PUBCHEM_COMPOUND_CID>
11013229

> <PUBCHEM_CONFORMER_RMSD>
0.8

> <PUBCHEM_CONFORMER_DIVERSEORDER>
1
2

> <PUBCHEM_MMFF94_PARTIAL_CHARGES>
31
1 -0.53
11 0.08
12 -0.15
13 0.09
14 -0.15
15 -0.15
16 0.08
17 0.08
18 -0.15
19 -0.15
2 -0.36
20 0.08
21 -0.15
22 0.08
23 0.42
24 0.28
25 0.28
26 0.15
27 0.15
28 0.15
29 0.15
3 -0.53
30 0.15
31 0.15
32 0.06
33 0.45
34 0.45
38 0.45
4 -0.36
5 -0.53
6 -0.57

> <PUBCHEM_EFFECTIVE_ROTOR_COUNT>
4

> <PUBCHEM_PHARMACOPHORE_FEATURES>
9
1 1 donor
1 2 acceptor
1 3 donor
1 4 acceptor
1 5 donor
1 6 acceptor
6 10 18 19 20 21 22 rings
6 7 8 9 11 12 13 rings
6 7 9 14 15 16 17 rings

> <PUBCHEM_HEAVY_ATOM_COUNT>
25

> <PUBCHEM_ATOM_DEF_STEREO_COUNT>
0

> <PUBCHEM_ATOM_UDEF_STEREO_COUNT>
0

> <PUBCHEM_BOND_DEF_STEREO_COUNT>
0

> <PUBCHEM_BOND_UDEF_STEREO_COUNT>
0

> <PUBCHEM_ISOTOPIC_ATOM_COUNT>
0

> <PUBCHEM_COMPONENT_COUNT>
1

> <PUBCHEM_CACTVS_TAUTO_COUNT>
92

> <PUBCHEM_CONFORMER_ID>
00A80C6D00000001

> <PUBCHEM_MMFF94_ENERGY>
104.2277

> <PUBCHEM_FEATURE_SELFOVERLAP>
45.698

> <PUBCHEM_SHAPE_FINGERPRINT>
10319926 262 18199727281430581306
10411042 1 17835231621047922171
10498660 4 18341049618717950905
10906281 52 18263377923674094081
1100329 8 18195242441888335219
11640471 11 17822303408914697396
11725454 13 16770939356701304466
12107183 9 18192133907868644098
12173636 292 18340484452698275653
12236239 1 17822562928171688434
12403259 118 17967251966448492457
12553582 1 18050570947620200587
12788726 201 18118127102314619634
13009979 54 18115851040758155002
13140716 1 18050845821690775675
138480 1 16971672517343877203
13965767 371 17969775294400417044
14117953 113 18044934567474416556
14739800 52 18121211254871102248
14790565 3 18340502092635849777
15042514 8 18339080505346648947
15475509 35 12173606402066510405
15842332 3 17968365836547240346
16087824 20 18339636846421639599
16752209 62 18411414046437190347
16945 1 18340481257390397859
16988056 13 16822483069889079101
17818456 19 18337662015498670850
1813 80 17695915809706265390
20715895 44 17391902666214958245
21033650 10 18191047762178702878
2255824 54 17834398917246499579
22907989 373 18265326394826040351
23366157 5 17543074481325308643
23557571 272 18131067194811532424
23558518 356 18334009501964158978
23559900 14 18198341741243199814
23598288 3 18260838140990061523
2748010 2 18267595611148952035
3091708 16 9486544010903494211
350125 39 18051131397717305275
394222 165 17969782978033165027
458136 41 17982466892789966505
469060 322 18338814389583803025
474 4 18042693792751692881
57527295 17 16700346209072319516
6442390 28 18199764561118995009
7164475 11 18265899236516333758
7364860 26 17693931891608639267
77492 1 17822562928171688426
7808743 9 18410854391198783272
84936 182 17768805373332029225
9981440 41 18266172830122366929

> <PUBCHEM_SHAPE_MULTIPOLES>
479.27
8.65
4.79
1.3
6.05
3.37
0.2
-6.96
1.45
-7.17
1.13
1.9
-0.62
-1.04

> <PUBCHEM_SHAPE_SELFOVERLAP>
1063.727

> <PUBCHEM_SHAPE_VOLUME>
258.1

> <PUBCHEM_COORDINATE_TYPE>
2
5
10

$$$$
