44411975
  -OEChem-11212014563D

 86 90  0     1  0  0  0  0  0999 V2000
    6.3230    0.4602   -0.0856 O   0  0  0  0  0  0  0  0  0  0  0  0
   -2.0831    1.2965    2.2067 O   0  0  0  0  0  0  0  0  0  0  0  0
   -1.0449    2.0322    0.3155 O   0  0  0  0  0  0  0  0  0  0  0  0
    6.3383    2.4052    1.1609 O   0  0  0  0  0  0  0  0  0  0  0  0
   -0.0808   -0.8761    0.3304 C   0  0  2  0  0  0  0  0  0  0  0  0
    0.5413   -0.1730   -0.9190 C   0  0  1  0  0  0  0  0  0  0  0  0
    2.1416   -0.3113   -1.1072 C   0  0  2  0  0  0  0  0  0  0  0  0
   -1.5829   -0.3304    0.5632 C   0  0  1  0  0  0  0  0  0  0  0  0
    2.8511   -1.1822    0.0066 C   0  0  2  0  0  0  0  0  0  0  0  0
    0.8074   -0.5266    1.5360 C   0  0  0  0  0  0  0  0  0  0  0  0
    2.2695   -0.9264    1.4192 C   0  0  0  0  0  0  0  0  0  0  0  0
    4.4474   -1.1027    0.0513 C   0  0  0  0  0  0  0  0  0  0  0  0
   -2.4024   -0.3222   -0.7300 C   0  0  0  0  0  0  0  0  0  0  0  0
   -3.9299   -0.2224   -0.6592 C   0  0  1  0  0  0  0  0  0  0  0  0
   -4.5383   -1.1285    0.4456 C   0  0  1  0  0  0  0  0  0  0  0  0
   -0.3260   -0.4771   -2.1664 C   0  0  0  0  0  0  0  0  0  0  0  0
    2.7341    1.1303   -1.0375 C   0  0  0  0  0  0  0  0  0  0  0  0
   -2.3010   -1.1037    1.7062 C   0  0  0  0  0  0  0  0  0  0  0  0
   -3.8136   -0.8644    1.7860 C   0  0  0  0  0  0  0  0  0  0  0  0
   -0.1166   -2.4184    0.1268 C   0  0  0  0  0  0  0  0  0  0  0  0
    4.9033    0.3802    0.0428 C   0  0  2  0  0  0  0  0  0  0  0  0
    2.4412   -0.8856   -2.5151 C   0  0  0  0  0  0  0  0  0  0  0  0
   -1.8064   -0.4060   -1.9344 C   0  0  0  0  0  0  0  0  0  0  0  0
    4.2576    1.2033   -1.0702 C   0  0  0  0  0  0  0  0  0  0  0  0
   -4.3680    1.2568   -0.5388 C   0  0  0  0  0  0  0  0  0  0  0  0
   -6.0602   -0.8699    0.6035 C   0  0  0  0  0  0  0  0  0  0  0  0
   -5.8945    1.4607   -0.4401 C   0  0  0  0  0  0  0  0  0  0  0  0
   -1.5262    1.1284    0.9825 C   0  0  0  0  0  0  0  0  0  0  0  0
   -6.4472    0.6032    0.7132 C   0  0  0  0  0  0  0  0  0  0  0  0
    5.1109   -1.8949   -1.1075 C   0  0  0  0  0  0  0  0  0  0  0  0
    5.0059   -1.7833    1.3369 C   0  0  0  0  0  0  0  0  0  0  0  0
   -4.3874   -2.6201    0.0530 C   0  0  0  0  0  0  0  0  0  0  0  0
   -6.1819    2.9448   -0.1381 C   0  0  0  0  0  0  0  0  0  0  0  0
   -6.5847    1.1106   -1.7721 C   0  0  0  0  0  0  0  0  0  0  0  0
    6.9107    1.5295    0.5263 C   0  0  0  0  0  0  0  0  0  0  0  0
    8.3928    1.4832    0.3087 C   0  0  0  0  0  0  0  0  0  0  0  0
    0.4112    0.9003   -0.7820 H   0  0  0  0  0  0  0  0  0  0  0  0
    2.6332   -2.2321   -0.2190 H   0  0  0  0  0  0  0  0  0  0  0  0
    0.4043   -0.9643    2.4571 H   0  0  0  0  0  0  0  0  0  0  0  0
    0.7960    0.5575    1.7036 H   0  0  0  0  0  0  0  0  0  0  0  0
    2.8424   -0.1508    1.9399 H   0  0  0  0  0  0  0  0  0  0  0  0
    2.4060   -1.8421    2.0101 H   0  0  0  0  0  0  0  0  0  0  0  0
   -4.3293   -0.5855   -1.6171 H   0  0  0  0  0  0  0  0  0  0  0  0
   -0.1108   -1.4752   -2.5631 H   0  0  0  0  0  0  0  0  0  0  0  0
   -0.0909    0.2516   -2.9514 H   0  0  0  0  0  0  0  0  0  0  0  0
    2.3982    1.6193   -0.1130 H   0  0  0  0  0  0  0  0  0  0  0  0
    2.3380    1.7342   -1.8645 H   0  0  0  0  0  0  0  0  0  0  0  0
   -1.8531   -0.9123    2.6898 H   0  0  0  0  0  0  0  0  0  0  0  0
   -2.1663   -2.1815    1.5710 H   0  0  0  0  0  0  0  0  0  0  0  0
   -4.2179   -1.5401    2.5525 H   0  0  0  0  0  0  0  0  0  0  0  0
   -4.0440    0.1389    2.1514 H   0  0  0  0  0  0  0  0  0  0  0  0
   -1.0014   -2.7394   -0.4312 H   0  0  0  0  0  0  0  0  0  0  0  0
   -0.1249   -2.9475    1.0861 H   0  0  0  0  0  0  0  0  0  0  0  0
    0.7314   -2.7987   -0.4429 H   0  0  0  0  0  0  0  0  0  0  0  0
    4.6007    0.8201    1.0023 H   0  0  0  0  0  0  0  0  0  0  0  0
    2.1243   -1.9310   -2.5908 H   0  0  0  0  0  0  0  0  0  0  0  0
    3.4894   -0.8436   -2.7923 H   0  0  0  0  0  0  0  0  0  0  0  0
    1.9449   -0.3122   -3.3042 H   0  0  0  0  0  0  0  0  0  0  0  0
   -2.4186   -0.4146   -2.8335 H   0  0  0  0  0  0  0  0  0  0  0  0
    4.6450    0.9025   -2.0495 H   0  0  0  0  0  0  0  0  0  0  0  0
    4.5602    2.2534   -0.9689 H   0  0  0  0  0  0  0  0  0  0  0  0
   -3.9164    1.7137    0.3466 H   0  0  0  0  0  0  0  0  0  0  0  0
   -3.9782    1.8209   -1.3974 H   0  0  0  0  0  0  0  0  0  0  0  0
   -6.4367   -1.3994    1.4886 H   0  0  0  0  0  0  0  0  0  0  0  0
   -6.5984   -1.3047   -0.2485 H   0  0  0  0  0  0  0  0  0  0  0  0
   -7.5417    0.6802    0.7469 H   0  0  0  0  0  0  0  0  0  0  0  0
   -6.0907    0.9962    1.6736 H   0  0  0  0  0  0  0  0  0  0  0  0
    6.1337   -2.2006   -0.8535 H   0  0  0  0  0  0  0  0  0  0  0  0
    5.2192   -1.3118   -2.0223 H   0  0  0  0  0  0  0  0  0  0  0  0
    4.5552   -2.8107   -1.3348 H   0  0  0  0  0  0  0  0  0  0  0  0
    6.1017   -1.8242    1.3285 H   0  0  0  0  0  0  0  0  0  0  0  0
    4.6389   -2.8123    1.4231 H   0  0  0  0  0  0  0  0  0  0  0  0
    4.7344   -1.2448    2.2500 H   0  0  0  0  0  0  0  0  0  0  0  0
   -4.9565   -2.8446   -0.8568 H   0  0  0  0  0  0  0  0  0  0  0  0
   -4.7645   -3.2743    0.8474 H   0  0  0  0  0  0  0  0  0  0  0  0
   -3.3523   -2.9059   -0.1487 H   0  0  0  0  0  0  0  0  0  0  0  0
   -5.7923    3.5925   -0.9317 H   0  0  0  0  0  0  0  0  0  0  0  0
   -7.2587    3.1298   -0.0531 H   0  0  0  0  0  0  0  0  0  0  0  0
   -5.7167    3.2576    0.8035 H   0  0  0  0  0  0  0  0  0  0  0  0
   -7.6658    1.2793   -1.7083 H   0  0  0  0  0  0  0  0  0  0  0  0
   -6.2006    1.7346   -2.5872 H   0  0  0  0  0  0  0  0  0  0  0  0
   -6.4359    0.0674   -2.0638 H   0  0  0  0  0  0  0  0  0  0  0  0
   -2.0575    2.2337    2.4951 H   0  0  0  0  0  0  0  0  0  0  0  0
    8.8020    0.5662    0.7402 H   0  0  0  0  0  0  0  0  0  0  0  0
    8.8591    2.3396    0.8040 H   0  0  0  0  0  0  0  0  0  0  0  0
    8.6120    1.5372   -0.7607 H   0  0  0  0  0  0  0  0  0  0  0  0
  1 21  1  0  0  0  0
  1 35  1  0  0  0  0
  2 28  1  0  0  0  0
  2 83  1  0  0  0  0
  3 28  2  0  0  0  0
  4 35  2  0  0  0  0
  5  6  1  0  0  0  0
  5  8  1  0  0  0  0
  5 10  1  0  0  0  0
  5 20  1  0  0  0  0
  6  7  1  0  0  0  0
  6 16  1  0  0  0  0
  6 37  1  0  0  0  0
  7  9  1  0  0  0  0
  7 17  1  0  0  0  0
  7 22  1  0  0  0  0
  8 13  1  0  0  0  0
  8 18  1  0  0  0  0
  8 28  1  0  0  0  0
  9 11  1  0  0  0  0
  9 12  1  0  0  0  0
  9 38  1  0  0  0  0
 10 11  1  0  0  0  0
 10 39  1  0  0  0  0
 10 40  1  0  0  0  0
 11 41  1  0  0  0  0
 11 42  1  0  0  0  0
 12 21  1  0  0  0  0
 12 30  1  0  0  0  0
 12 31  1  0  0  0  0
 13 14  1  0  0  0  0
 13 23  2  0  0  0  0
 14 15  1  0  0  0  0
 14 25  1  0  0  0  0
 14 43  1  0  0  0  0
 15 19  1  0  0  0  0
 15 26  1  0  0  0  0
 15 32  1  0  0  0  0
 16 23  1  0  0  0  0
 16 44  1  0  0  0  0
 16 45  1  0  0  0  0
 17 24  1  0  0  0  0
 17 46  1  0  0  0  0
 17 47  1  0  0  0  0
 18 19  1  0  0  0  0
 18 48  1  0  0  0  0
 18 49  1  0  0  0  0
 19 50  1  0  0  0  0
 19 51  1  0  0  0  0
 20 52  1  0  0  0  0
 20 53  1  0  0  0  0
 20 54  1  0  0  0  0
 21 24  1  0  0  0  0
 21 55  1  0  0  0  0
 22 56  1  0  0  0  0
 22 57  1  0  0  0  0
 22 58  1  0  0  0  0
 23 59  1  0  0  0  0
 24 60  1  0  0  0  0
 24 61  1  0  0  0  0
 25 27  1  0  0  0  0
 25 62  1  0  0  0  0
 25 63  1  0  0  0  0
 26 29  1  0  0  0  0
 26 64  1  0  0  0  0
 26 65  1  0  0  0  0
 27 29  1  0  0  0  0
 27 33  1  0  0  0  0
 27 34  1  0  0  0  0
 29 66  1  0  0  0  0
 29 67  1  0  0  0  0
 30 68  1  0  0  0  0
 30 69  1  0  0  0  0
 30 70  1  0  0  0  0
 31 71  1  0  0  0  0
 31 72  1  0  0  0  0
 31 73  1  0  0  0  0
 32 74  1  0  0  0  0
 32 75  1  0  0  0  0
 32 76  1  0  0  0  0
 33 77  1  0  0  0  0
 33 78  1  0  0  0  0
 33 79  1  0  0  0  0
 34 80  1  0  0  0  0
 34 81  1  0  0  0  0
 34 82  1  0  0  0  0
 35 36  1  0  0  0  0
 36 84  1  0  0  0  0
 36 85  1  0  0  0  0
 36 86  1  0  0  0  0
M  END
> <PUBCHEM_COMPOUND_CID>
44411975

> <PUBCHEM_CONFORMER_RMSD>
0.8

> <PUBCHEM_CONFORMER_DIVERSEORDER>
2
4
3
1

> <PUBCHEM_MMFF94_PARTIAL_CHARGES>
15
1 -0.43
13 -0.28
14 0.14
16 0.14
2 -0.65
21 0.28
23 -0.29
28 0.66
3 -0.57
35 0.66
36 0.06
4 -0.57
59 0.15
8 0.2
83 0.5

> <PUBCHEM_EFFECTIVE_ROTOR_COUNT>
5.6

> <PUBCHEM_PHARMACOPHORE_FEATURES>
11
1 2 acceptor
1 3 acceptor
1 4 acceptor
3 12 30 31 hydrophobe
3 2 3 28 anion
3 27 33 34 hydrophobe
6 14 15 25 26 27 29 rings
6 5 6 7 9 10 11 rings
6 5 6 8 13 16 23 rings
6 7 9 12 17 21 24 rings
6 8 13 14 15 18 19 rings

> <PUBCHEM_HEAVY_ATOM_COUNT>
36

> <PUBCHEM_ATOM_DEF_STEREO_COUNT>
7

> <PUBCHEM_ATOM_UDEF_STEREO_COUNT>
1

> <PUBCHEM_BOND_DEF_STEREO_COUNT>
0

> <PUBCHEM_BOND_UDEF_STEREO_COUNT>
0

> <PUBCHEM_ISOTOPIC_ATOM_COUNT>
0

> <PUBCHEM_COMPONENT_COUNT>
1

> <PUBCHEM_CACTVS_TAUTO_COUNT>
1

> <PUBCHEM_CONFORMER_ID>
02A5AC4700000002

> <PUBCHEM_MMFF94_ENERGY>
159.4485

> <PUBCHEM_FEATURE_SELFOVERLAP>
55.99

> <PUBCHEM_SHAPE_FINGERPRINT>
10554248 39 17203049586753985420
10835480 77 18411133623727590637
11505856 67 17058104194306510073
12035758 1 15936415507059957445
12166972 35 17821738229625277692
12236239 1 17967816020466633923
12596602 18 18411418423504951802
12616971 3 15791739602524528855
12633257 1 14923951166861656391
12788726 201 17702099154638024017
13533116 47 18041841684494502618
13690498 29 18270674411611649175
13811026 1 18411698768941881332
13911987 19 16988843882133824573
14028597 1 14634857622706803828
14251764 18 16153428372340154668
14840074 17 16917348134401114957
14849402 71 17677339449618701524
14955137 171 9583512118715665547
15021287 119 15719397230896057965
15131766 46 18057028319966200676
15183329 4 16805328781830616519
15361156 5 13686306810993419875
15840311 113 17824264792299953957
17349148 13 18114189622215673994
19319366 153 17346882217574665542
20511986 3 18040708148172484011
21033648 29 18187080685265052120
21130935 74 17967531238017401187
21792934 111 15864898838493673615
21814621 53 18335147449016298891
22122407 14 18411146860864802616
23522609 53 16734700488362554039
23559900 14 18335141964411399423
23569914 2 17762285432552281277
23569943 247 11886582125713934428
23576562 1 16987420087859908573
24771293 8 17530966934342906044
32027 91 17984438342466274799
3383291 50 13551188883713623040
3633792 109 18059297561594056598
404807 14 17033870820744379603
4073 2 17386015000216411730
4093350 32 18412825760060859782
5104073 3 17676205758134027963
7226269 152 18337954481439382849
999808 66 11097851878464546365

> <PUBCHEM_SHAPE_MULTIPOLES>
717.39
18.6
2.35
1.88
11.54
0.29
-0.41
9.34
2.28
-0.58
0.38
0
-0.11
1.15

> <PUBCHEM_SHAPE_SELFOVERLAP>
1525.318

> <PUBCHEM_SHAPE_VOLUME>
394.9

> <PUBCHEM_COORDINATE_TYPE>
2
5
10

$$$$
