5466561
  -OEChem-11212014363D

 36 35  0     1  0  0  0  0  0999 V2000
   -0.7489    1.6286    0.0186 O   0  0  0  0  0  0  0  0  0  0  0  0
   -1.8443    0.6035    1.7686 O   0  0  0  0  0  0  0  0  0  0  0  0
   -3.3702   -0.4881   -1.8375 O   0  5  0  0  0  0  0  0  0  0  0  0
   -3.7494   -1.0158    0.2678 O   0  0  0  0  0  0  0  0  0  0  0  0
   -3.0083   -0.6856   -0.6690 N   0  3  0  0  0  0  0  0  0  0  0  0
   -1.0580   -1.8569    0.2067 C   0  0  0  0  0  0  0  0  0  0  0  0
   -1.5647   -0.5362   -0.3685 C   0  0  2  0  0  0  0  0  0  0  0  0
    2.8118   -1.8519    0.7794 C   0  0  0  0  0  0  0  0  0  0  0  0
    3.5866   -0.5434    0.9816 C   0  0  0  0  0  0  0  0  0  0  0  0
    0.4256   -2.0259    0.0311 C   0  0  0  0  0  0  0  0  0  0  0  0
    1.3308   -1.6889    0.9614 C   0  0  0  0  0  0  0  0  0  0  0  0
    3.1609    0.6138    0.0684 C   0  0  0  0  0  0  0  0  0  0  0  0
   -1.4239    0.6018    0.6190 C   0  0  0  0  0  0  0  0  0  0  0  0
    3.3724    0.3233   -1.3883 C   0  0  0  0  0  0  0  0  0  0  0  0
   -0.5340    2.7859    0.8328 C   0  0  0  0  0  0  0  0  0  0  0  0
    0.2204    3.8222    0.0273 C   0  0  0  0  0  0  0  0  0  0  0  0
    2.3930    0.3137   -2.2995 C   0  0  0  0  0  0  0  0  0  0  0  0
   -1.5351   -2.7108   -0.2936 H   0  0  0  0  0  0  0  0  0  0  0  0
   -1.3178   -1.9538    1.2695 H   0  0  0  0  0  0  0  0  0  0  0  0
   -1.0647   -0.2960   -1.3147 H   0  0  0  0  0  0  0  0  0  0  0  0
    3.1679   -2.5843    1.5141 H   0  0  0  0  0  0  0  0  0  0  0  0
    3.0422   -2.2701   -0.2078 H   0  0  0  0  0  0  0  0  0  0  0  0
    3.4716   -0.2177    2.0237 H   0  0  0  0  0  0  0  0  0  0  0  0
    4.6560   -0.7458    0.8399 H   0  0  0  0  0  0  0  0  0  0  0  0
    0.7604   -2.4242   -0.9233 H   0  0  0  0  0  0  0  0  0  0  0  0
    0.9930   -1.2867    1.9133 H   0  0  0  0  0  0  0  0  0  0  0  0
    2.1184    0.8869    0.2677 H   0  0  0  0  0  0  0  0  0  0  0  0
    3.7594    1.4965    0.3256 H   0  0  0  0  0  0  0  0  0  0  0  0
    4.3886    0.1157   -1.7132 H   0  0  0  0  0  0  0  0  0  0  0  0
   -1.5000    3.1941    1.1497 H   0  0  0  0  0  0  0  0  0  0  0  0
    0.0512    2.5063    1.7160 H   0  0  0  0  0  0  0  0  0  0  0  0
    1.1811    3.4217   -0.3128 H   0  0  0  0  0  0  0  0  0  0  0  0
   -0.3436    4.0983   -0.8696 H   0  0  0  0  0  0  0  0  0  0  0  0
    0.4031    4.7222    0.6211 H   0  0  0  0  0  0  0  0  0  0  0  0
    2.6124    0.0982   -3.3394 H   0  0  0  0  0  0  0  0  0  0  0  0
    1.3638    0.5200   -2.0284 H   0  0  0  0  0  0  0  0  0  0  0  0
  1 13  1  0  0  0  0
  1 15  1  0  0  0  0
  2 13  2  0  0  0  0
  3  5  1  0  0  0  0
  4  5  2  0  0  0  0
  5  7  1  0  0  0  0
  6  7  1  0  0  0  0
  6 10  1  0  0  0  0
  6 18  1  0  0  0  0
  6 19  1  0  0  0  0
  7 13  1  0  0  0  0
  7 20  1  0  0  0  0
  8  9  1  0  0  0  0
  8 11  1  0  0  0  0
  8 21  1  0  0  0  0
  8 22  1  0  0  0  0
  9 12  1  0  0  0  0
  9 23  1  0  0  0  0
  9 24  1  0  0  0  0
 10 11  2  0  0  0  0
 10 25  1  0  0  0  0
 11 26  1  0  0  0  0
 12 14  1  0  0  0  0
 12 27  1  0  0  0  0
 12 28  1  0  0  0  0
 14 17  2  0  0  0  0
 14 29  1  0  0  0  0
 15 16  1  0  0  0  0
 15 30  1  0  0  0  0
 15 31  1  0  0  0  0
 16 32  1  0  0  0  0
 16 33  1  0  0  0  0
 16 34  1  0  0  0  0
 17 35  1  0  0  0  0
 17 36  1  0  0  0  0
M  CHG  2   3  -1   5   1
M  END
> <PUBCHEM_COMPOUND_CID>
5466561

> <PUBCHEM_CONFORMER_RMSD>
1

> <PUBCHEM_CONFORMER_DIVERSEORDER>
1
68
85
41
73
61
60
13
75
83
3
54
4
48
12
56
19
10
25
6
88
71
44
65
15
35
45
82
63
24
57
22
2
76
23
51
29
43
34
52
20
69
37
55
26
80
53
47
40
87
18
7
11
38
17
90
39
86
79
49
33
42
16
36
81
14
30
5
92
62
9
31
28
32
70
67
74
21
72
66
46
89
50
78
77
59
64
91
84
8
58
27

> <PUBCHEM_MMFF94_PARTIAL_CHARGES>
20
1 -0.43
10 -0.29
11 -0.29
12 0.14
13 0.66
14 -0.29
15 0.28
17 -0.3
2 -0.57
25 0.15
26 0.15
29 0.15
3 -0.52
35 0.15
36 0.15
4 -0.52
5 0.8
6 0.14
7 0.3
8 0.14

> <PUBCHEM_EFFECTIVE_ROTOR_COUNT>
10

> <PUBCHEM_PHARMACOPHORE_FEATURES>
6
1 17 hydrophobe
1 2 acceptor
1 3 acceptor
1 3 anion
1 4 acceptor
5 8 9 11 12 14 hydrophobe

> <PUBCHEM_HEAVY_ATOM_COUNT>
17

> <PUBCHEM_ATOM_DEF_STEREO_COUNT>
0

> <PUBCHEM_ATOM_UDEF_STEREO_COUNT>
1

> <PUBCHEM_BOND_DEF_STEREO_COUNT>
1

> <PUBCHEM_BOND_UDEF_STEREO_COUNT>
0

> <PUBCHEM_ISOTOPIC_ATOM_COUNT>
0

> <PUBCHEM_COMPONENT_COUNT>
1

> <PUBCHEM_CACTVS_TAUTO_COUNT>
2

> <PUBCHEM_CONFORMER_ID>
005369C100000001

> <PUBCHEM_MMFF94_ENERGY>
14.0816

> <PUBCHEM_FEATURE_SELFOVERLAP>
30.531

> <PUBCHEM_SHAPE_FINGERPRINT>
14251751 93 17832458331121402476
15775835 57 18341059510459513882
18785283 64 17973165320877226401
18981168 100 17057529119522253754
192875 21 18261097535898560474
20511035 2 17256262440259925008
20715895 44 17680404681751396917
22802520 49 15266506106334597610
23402539 116 18059561512592678598
23419403 2 15740415327183712794
23557571 272 17917704652590971130
44154327 71 18265071144745500368
5262128 65 17842581779132899060
537710 114 18334295396218870143
81228 2 18200610115230373824

> <PUBCHEM_SHAPE_MULTIPOLES>
321.39
5.9
3.22
1.61
0.48
3.39
-0.78
-1.86
-1.23
-0.31
0.84
0.46
0.11
-1.19

> <PUBCHEM_SHAPE_SELFOVERLAP>
611.79

> <PUBCHEM_SHAPE_VOLUME>
196.8

> <PUBCHEM_COORDINATE_TYPE>
2
5
10

$$$$
