21574226
  -OEChem-11212015533D

 46 48  0     1  0  0  0  0  0999 V2000
   -2.5366    2.1185   -1.5142 O   0  0  0  0  0  0  0  0  0  0  0  0
   -1.6804   -2.2971   -1.1017 O   0  0  0  0  0  0  0  0  0  0  0  0
   -3.3683   -3.1355    0.9003 O   0  0  0  0  0  0  0  0  0  0  0  0
    3.6457   -0.3586    1.7043 O   0  0  0  0  0  0  0  0  0  0  0  0
    0.9186    4.3539   -0.5006 O   0  0  0  0  0  0  0  0  0  0  0  0
    4.7476   -2.0583   -0.1992 O   0  0  0  0  0  0  0  0  0  0  0  0
   -0.3504    0.2370   -1.0541 C   0  0  2  0  0  0  0  0  0  0  0  0
   -0.2003    1.7900   -1.1379 C   0  0  2  0  0  0  0  0  0  0  0  0
   -1.3100   -0.2126    0.0401 C   0  0  0  0  0  0  0  0  0  0  0  0
   -0.3072    2.4635    0.2078 C   0  0  0  0  0  0  0  0  0  0  0  0
    1.0055   -0.3713   -0.8238 C   0  0  0  0  0  0  0  0  0  0  0  0
   -1.5707    0.6121    1.1512 C   0  0  0  0  0  0  0  0  0  0  0  0
   -1.2671    2.3717   -2.0791 C   0  0  0  0  0  0  0  0  0  0  0  0
   -0.9341    1.9284    1.2643 C   0  0  0  0  0  0  0  0  0  0  0  0
   -1.9190   -1.4751   -0.0378 C   0  0  0  0  0  0  0  0  0  0  0  0
   -2.4244    0.1598    2.1655 C   0  0  0  0  0  0  0  0  0  0  0  0
    1.7101   -0.0830    0.3450 C   0  0  0  0  0  0  0  0  0  0  0  0
    1.5585   -1.2243   -1.7789 C   0  0  0  0  0  0  0  0  0  0  0  0
   -2.7742   -1.9116    0.9732 C   0  0  0  0  0  0  0  0  0  0  0  0
    0.3199    3.7757    0.3968 C   0  0  0  0  0  0  0  0  0  0  0  0
   -3.0253   -1.0959    2.0736 C   0  0  0  0  0  0  0  0  0  0  0  0
    2.9675   -0.6476    0.5589 C   0  0  0  0  0  0  0  0  0  0  0  0
    2.8161   -1.7887   -1.5653 C   0  0  0  0  0  0  0  0  0  0  0  0
    3.5205   -1.5005   -0.3963 C   0  0  0  0  0  0  0  0  0  0  0  0
   -2.5524   -2.1722   -2.2215 C   0  0  0  0  0  0  0  0  0  0  0  0
    3.0103    0.5218    2.6292 C   0  0  0  0  0  0  0  0  0  0  0  0
   -0.7274   -0.1037   -2.0257 H   0  0  0  0  0  0  0  0  0  0  0  0
    0.7739    2.0238   -1.5901 H   0  0  0  0  0  0  0  0  0  0  0  0
   -1.2158    1.9060   -3.0689 H   0  0  0  0  0  0  0  0  0  0  0  0
   -1.1459    3.4532   -2.2024 H   0  0  0  0  0  0  0  0  0  0  0  0
   -0.9985    2.4400    2.2194 H   0  0  0  0  0  0  0  0  0  0  0  0
   -2.6325    0.7796    3.0346 H   0  0  0  0  0  0  0  0  0  0  0  0
    1.2629    0.5645    1.0794 H   0  0  0  0  0  0  0  0  0  0  0  0
    1.0225   -1.4592   -2.6946 H   0  0  0  0  0  0  0  0  0  0  0  0
    0.2250    4.2247    1.3998 H   0  0  0  0  0  0  0  0  0  0  0  0
   -3.6869   -1.4255    2.8703 H   0  0  0  0  0  0  0  0  0  0  0  0
    3.2350   -2.4515   -2.3176 H   0  0  0  0  0  0  0  0  0  0  0  0
   -3.2007    2.4847   -2.1226 H   0  0  0  0  0  0  0  0  0  0  0  0
   -3.9246   -3.2656    1.6874 H   0  0  0  0  0  0  0  0  0  0  0  0
   -3.4826   -2.7145   -2.0265 H   0  0  0  0  0  0  0  0  0  0  0  0
   -2.7796   -1.1256   -2.4490 H   0  0  0  0  0  0  0  0  0  0  0  0
   -2.0622   -2.6209   -3.0897 H   0  0  0  0  0  0  0  0  0  0  0  0
    4.9672   -2.6188   -0.9632 H   0  0  0  0  0  0  0  0  0  0  0  0
    2.0852    0.0913    3.0280 H   0  0  0  0  0  0  0  0  0  0  0  0
    2.8599    1.5193    2.2019 H   0  0  0  0  0  0  0  0  0  0  0  0
    3.6925    0.6424    3.4774 H   0  0  0  0  0  0  0  0  0  0  0  0
  1 13  1  0  0  0  0
  1 38  1  0  0  0  0
  2 15  1  0  0  0  0
  2 25  1  0  0  0  0
  3 19  1  0  0  0  0
  3 39  1  0  0  0  0
  4 22  1  0  0  0  0
  4 26  1  0  0  0  0
  5 20  2  0  0  0  0
  6 24  1  0  0  0  0
  6 43  1  0  0  0  0
  7  8  1  0  0  0  0
  7  9  1  0  0  0  0
  7 11  1  0  0  0  0
  7 27  1  0  0  0  0
  8 10  1  0  0  0  0
  8 13  1  0  0  0  0
  8 28  1  0  0  0  0
  9 12  2  0  0  0  0
  9 15  1  0  0  0  0
 10 14  2  0  0  0  0
 10 20  1  0  0  0  0
 11 17  2  0  0  0  0
 11 18  1  0  0  0  0
 12 14  1  0  0  0  0
 12 16  1  0  0  0  0
 13 29  1  0  0  0  0
 13 30  1  0  0  0  0
 14 31  1  0  0  0  0
 15 19  2  0  0  0  0
 16 21  2  0  0  0  0
 16 32  1  0  0  0  0
 17 22  1  0  0  0  0
 17 33  1  0  0  0  0
 18 23  2  0  0  0  0
 18 34  1  0  0  0  0
 19 21  1  0  0  0  0
 20 35  1  0  0  0  0
 21 36  1  0  0  0  0
 22 24  2  0  0  0  0
 23 24  1  0  0  0  0
 23 37  1  0  0  0  0
 25 40  1  0  0  0  0
 25 41  1  0  0  0  0
 25 42  1  0  0  0  0
 26 44  1  0  0  0  0
 26 45  1  0  0  0  0
 26 46  1  0  0  0  0
M  END
> <PUBCHEM_COMPOUND_CID>
21574226

> <PUBCHEM_CONFORMER_RMSD>
0.8

> <PUBCHEM_CONFORMER_DIVERSEORDER>
1
7
4
8
3
6
10
5
9
2

> <PUBCHEM_MMFF94_PARTIAL_CHARGES>
36
1 -0.68
10 -0.12
11 -0.14
12 0.03
13 0.28
14 -0.18
15 0.08
16 -0.15
17 -0.15
18 -0.15
19 0.08
2 -0.36
20 0.5
21 -0.15
22 0.08
23 -0.15
24 0.08
25 0.28
26 0.28
3 -0.53
31 0.15
32 0.15
33 0.15
34 0.15
35 0.06
36 0.15
37 0.15
38 0.4
39 0.45
4 -0.36
43 0.45
5 -0.57
6 -0.53
7 0.29
8 0.14
9 -0.14

> <PUBCHEM_EFFECTIVE_ROTOR_COUNT>
5.4

> <PUBCHEM_PHARMACOPHORE_FEATURES>
10
1 1 acceptor
1 1 donor
1 2 acceptor
1 3 donor
1 4 acceptor
1 5 acceptor
1 6 donor
6 11 17 18 22 23 24 rings
6 7 8 9 10 12 14 rings
6 9 12 15 16 19 21 rings

> <PUBCHEM_HEAVY_ATOM_COUNT>
26

> <PUBCHEM_ATOM_DEF_STEREO_COUNT>
2

> <PUBCHEM_ATOM_UDEF_STEREO_COUNT>
0

> <PUBCHEM_BOND_DEF_STEREO_COUNT>
0

> <PUBCHEM_BOND_UDEF_STEREO_COUNT>
0

> <PUBCHEM_ISOTOPIC_ATOM_COUNT>
0

> <PUBCHEM_COMPONENT_COUNT>
1

> <PUBCHEM_CACTVS_TAUTO_COUNT>
20

> <PUBCHEM_CONFORMER_ID>
0149325200000001

> <PUBCHEM_MMFF94_ENERGY>
92.2766

> <PUBCHEM_FEATURE_SELFOVERLAP>
50.77

> <PUBCHEM_SHAPE_FINGERPRINT>
10165383 225 16467040682050485076
11578080 2 17386284427794033005
12035758 1 18336540535050333577
12633257 1 17274551940178804570
12714826 92 18113908117178953907
12788726 201 17458911427136908801
13004483 165 17202745112238668655
13083527 12 18049713319933363115
13140716 1 18339091410199352926
13149001 5 18188470416223091501
13294875 104 16251358209329693896
133893 2 17827923150140697885
13583140 156 18195226855610514290
13681431 1 18116719723067066029
13911987 19 14857858530889866742
14787075 74 17752225017780448724
14840074 17 17472104733732247256
16752209 62 17750519481470975939
16945 1 17835277499856020079
1813 80 18262529202774508515
20600515 1 17755060486242989729
21421861 104 17837232711088598771
21731516 1 18041857193209698323
22907989 373 18047775722647061820
23419403 2 17271122658000660951
23598288 3 17678764248782965438
3380486 145 18272078435575990881
35225 105 17898003525808391192
394222 165 17475811212934545553
404807 78 15597764130235807391
469060 322 17912050014955962242
5845 1 9004190488500807925
6287921 2 17773602809368744904
81228 2 18339923710283866437
90316 7 18194988282180739323
9981440 41 17625216924857117866

> <PUBCHEM_SHAPE_MULTIPOLES>
499.85
5.76
4.04
2.4
4.6
3.41
0.34
-5.21
2.07
-1.21
-1.23
-0.54
-0.06
1.06

> <PUBCHEM_SHAPE_SELFOVERLAP>
1091.704

> <PUBCHEM_SHAPE_VOLUME>
268.9

> <PUBCHEM_COORDINATE_TYPE>
2
5
10

$$$$
