10043572
  -OEChem-11212016263D

 42 45  0     0  0  0  0  0  0999 V2000
   -0.8386    4.0423   -0.2585 O   0  0  0  0  0  0  0  0  0  0  0  0
   -4.7979   -2.0458   -0.3613 O   0  0  0  0  0  0  0  0  0  0  0  0
    1.0767    5.3176   -0.0842 O   0  0  0  0  0  0  0  0  0  0  0  0
   -2.4766   -3.5026    0.0727 O   0  0  0  0  0  0  0  0  0  0  0  0
    4.0618   -1.6279   -1.5767 O   0  0  0  0  0  0  0  0  0  0  0  0
    4.9256   -2.1228    1.0186 O   0  0  0  0  0  0  0  0  0  0  0  0
    0.1256    1.9555    0.0310 C   0  0  0  0  0  0  0  0  0  0  0  0
    0.1024    0.5773    0.1300 C   0  0  0  0  0  0  0  0  0  0  0  0
   -1.1295   -0.0898    0.0072 C   0  0  0  0  0  0  0  0  0  0  0  0
   -1.0314    2.6741   -0.1840 C   0  0  0  0  0  0  0  0  0  0  0  0
   -2.3228    0.6579   -0.2151 C   0  0  0  0  0  0  0  0  0  0  0  0
    1.2501    2.9009    0.1185 C   0  0  0  0  0  0  0  0  0  0  0  0
   -2.2624    2.0584   -0.3105 C   0  0  0  0  0  0  0  0  0  0  0  0
    1.3545   -0.1235    0.3567 C   0  0  0  0  0  0  0  0  0  0  0  0
   -1.2067   -1.4880    0.1001 C   0  0  0  0  0  0  0  0  0  0  0  0
    0.5318    4.2225   -0.0801 C   0  0  0  0  0  0  0  0  0  0  0  0
   -3.5442   -0.0226   -0.3355 C   0  0  0  0  0  0  0  0  0  0  0  0
   -2.4322   -2.1440   -0.0226 C   0  0  0  0  0  0  0  0  0  0  0  0
   -3.5971   -1.4136   -0.2397 C   0  0  0  0  0  0  0  0  0  0  0  0
    2.1175   -0.5453   -0.7284 C   0  0  0  0  0  0  0  0  0  0  0  0
    1.7836   -0.3688    1.6579 C   0  0  0  0  0  0  0  0  0  0  0  0
    3.3197   -1.2180   -0.5104 C   0  0  0  0  0  0  0  0  0  0  0  0
    2.9858   -1.0416    1.8760 C   0  0  0  0  0  0  0  0  0  0  0  0
    3.7539   -1.4661    0.7917 C   0  0  0  0  0  0  0  0  0  0  0  0
   -5.5448   -2.2539    0.8357 C   0  0  0  0  0  0  0  0  0  0  0  0
    3.7953   -2.9321   -2.0889 C   0  0  0  0  0  0  0  0  0  0  0  0
    1.7190    2.8861    1.1053 H   0  0  0  0  0  0  0  0  0  0  0  0
    1.9705    2.7531   -0.6897 H   0  0  0  0  0  0  0  0  0  0  0  0
   -3.1561    2.6520   -0.4794 H   0  0  0  0  0  0  0  0  0  0  0  0
   -0.3202   -2.0947    0.2689 H   0  0  0  0  0  0  0  0  0  0  0  0
   -4.4650    0.5326   -0.5065 H   0  0  0  0  0  0  0  0  0  0  0  0
    1.7866   -0.3551   -1.7471 H   0  0  0  0  0  0  0  0  0  0  0  0
    1.1961   -0.0441    2.5133 H   0  0  0  0  0  0  0  0  0  0  0  0
    3.3120   -1.2285    2.8956 H   0  0  0  0  0  0  0  0  0  0  0  0
   -1.5777   -3.8414    0.2245 H   0  0  0  0  0  0  0  0  0  0  0  0
   -5.8007   -1.2958    1.2992 H   0  0  0  0  0  0  0  0  0  0  0  0
   -6.4703   -2.7749    0.5758 H   0  0  0  0  0  0  0  0  0  0  0  0
   -4.9804   -2.8732    1.5399 H   0  0  0  0  0  0  0  0  0  0  0  0
    5.0624   -2.2046    1.9781 H   0  0  0  0  0  0  0  0  0  0  0  0
    3.9790   -3.6922   -1.3229 H   0  0  0  0  0  0  0  0  0  0  0  0
    4.4689   -3.1139   -2.9308 H   0  0  0  0  0  0  0  0  0  0  0  0
    2.7627   -3.0000   -2.4457 H   0  0  0  0  0  0  0  0  0  0  0  0
  1 10  1  0  0  0  0
  1 16  1  0  0  0  0
  2 19  1  0  0  0  0
  2 25  1  0  0  0  0
  3 16  2  0  0  0  0
  4 18  1  0  0  0  0
  4 35  1  0  0  0  0
  5 22  1  0  0  0  0
  5 26  1  0  0  0  0
  6 24  1  0  0  0  0
  6 39  1  0  0  0  0
  7  8  1  0  0  0  0
  7 10  2  0  0  0  0
  7 12  1  0  0  0  0
  8  9  2  0  0  0  0
  8 14  1  0  0  0  0
  9 11  1  0  0  0  0
  9 15  1  0  0  0  0
 10 13  1  0  0  0  0
 11 13  2  0  0  0  0
 11 17  1  0  0  0  0
 12 16  1  0  0  0  0
 12 27  1  0  0  0  0
 12 28  1  0  0  0  0
 13 29  1  0  0  0  0
 14 20  2  0  0  0  0
 14 21  1  0  0  0  0
 15 18  2  0  0  0  0
 15 30  1  0  0  0  0
 17 19  2  0  0  0  0
 17 31  1  0  0  0  0
 18 19  1  0  0  0  0
 20 22  1  0  0  0  0
 20 32  1  0  0  0  0
 21 23  2  0  0  0  0
 21 33  1  0  0  0  0
 22 24  2  0  0  0  0
 23 24  1  0  0  0  0
 23 34  1  0  0  0  0
 25 36  1  0  0  0  0
 25 37  1  0  0  0  0
 25 38  1  0  0  0  0
 26 40  1  0  0  0  0
 26 41  1  0  0  0  0
 26 42  1  0  0  0  0
M  END
> <PUBCHEM_COMPOUND_CID>
10043572

> <PUBCHEM_CONFORMER_RMSD>
0.8

> <PUBCHEM_CONFORMER_DIVERSEORDER>
1
2

> <PUBCHEM_MMFF94_PARTIAL_CHARGES>
30
1 -0.23
10 0.08
12 0.2
13 -0.15
15 -0.15
16 0.66
17 -0.15
18 0.08
19 0.08
2 -0.36
20 -0.15
21 -0.15
22 0.08
23 -0.15
24 0.08
25 0.28
26 0.28
29 0.15
3 -0.57
30 0.15
31 0.15
32 0.15
33 0.15
34 0.15
35 0.45
39 0.45
4 -0.53
5 -0.36
6 -0.53
7 -0.14

> <PUBCHEM_EFFECTIVE_ROTOR_COUNT>
3.4

> <PUBCHEM_PHARMACOPHORE_FEATURES>
9
1 2 acceptor
1 3 acceptor
1 4 donor
1 5 acceptor
1 6 donor
5 1 7 10 12 16 rings
6 14 20 21 22 23 24 rings
6 7 8 9 10 11 13 rings
6 9 11 15 17 18 19 rings

> <PUBCHEM_HEAVY_ATOM_COUNT>
26

> <PUBCHEM_ATOM_DEF_STEREO_COUNT>
0

> <PUBCHEM_ATOM_UDEF_STEREO_COUNT>
0

> <PUBCHEM_BOND_DEF_STEREO_COUNT>
0

> <PUBCHEM_BOND_UDEF_STEREO_COUNT>
0

> <PUBCHEM_ISOTOPIC_ATOM_COUNT>
0

> <PUBCHEM_COMPONENT_COUNT>
1

> <PUBCHEM_CACTVS_TAUTO_COUNT>
46

> <PUBCHEM_CONFORMER_ID>
009940B400000001

> <PUBCHEM_MMFF94_ENERGY>
101.5402

> <PUBCHEM_FEATURE_SELFOVERLAP>
45.799

> <PUBCHEM_SHAPE_FINGERPRINT>
10165383 225 17047410206849438088
10319926 262 17907829862196958634
10369192 42 17345172576521266616
10411042 1 18409161117173908339
107951 10 17262446102207841532
1100329 8 18337669724997167441
11578080 2 17242420950598082292
12107183 9 18412554211053965347
12173636 292 17545314186226804020
12236239 1 17387699289021555112
12403259 327 15698000798796736403
12553582 1 18409167697216793011
12788726 201 18261968340528575258
12839892 36 17401745910522289697
13009979 54 17751904844747845554
13140716 1 18411131408020663153
13149001 5 17900783198910420797
13540713 4 17970049240910998037
138480 1 14880588176319342961
14022347 108 18336542733651218979
14790565 3 17979364057681153929
14955137 171 18193302757289813945
15042514 8 18265050224249594505
15420108 30 17479440687753811248
15475509 8 18199755739620328069
15664445 248 18411142471676867954
15927050 60 17689440811816542439
16752209 62 18118677712694519883
1813 80 18341619225981158427
20567600 347 17253709889571908470
20600515 1 18268694048512827281
20693207 138 17557992741133121230
20905425 154 18410855507800810820
21033650 10 17974872579242023570
21133665 82 17761218013864419548
21421861 104 18118680161358979929
22182313 1 17606938841436526397
22849341 161 18267045954171611699
23184049 29 18408876352146623801
23366157 5 17971468748323087013
23557571 272 18199177392114094552
23559900 14 18268708484082064007
3091708 16 9786010274572153601
314173 41 18337956799893800755
38695281 34 17476927221305033796
4409770 3 17900809466872250429
59755656 215 18046341100406982293
6138700 20 18120657100794386124
621550 5 17917718950737351960
6442390 28 17405434303697855137
7364860 26 18122624126436464173
81228 2 18270116812200385449
9841814 1 18189607405550388763
9981440 41 17255673097727890616

> <PUBCHEM_SHAPE_MULTIPOLES>
499.85
8.32
5.48
1.25
1.85
7.6
-0.01
-11.07
-0.03
0.25
0.83
-1.75
-0.99
1.03

> <PUBCHEM_SHAPE_SELFOVERLAP>
1126.286

> <PUBCHEM_SHAPE_VOLUME>
267.3

> <PUBCHEM_COORDINATE_TYPE>
2
5
10

$$$$
