11348702
  -OEChem-11212015553D

 43 46  0     0  0  0  0  0  0999 V2000
    2.2205    4.7145   -0.3430 O   0  0  0  0  0  0  0  0  0  0  0  0
    4.3138   -2.7685   -0.3609 O   0  0  0  0  0  0  0  0  0  0  0  0
    1.7819   -3.8268    0.0484 O   0  0  0  0  0  0  0  0  0  0  0  0
   -4.3462   -0.9113   -1.5973 O   0  0  0  0  0  0  0  0  0  0  0  0
   -5.2906   -1.2930    0.9886 O   0  0  0  0  0  0  0  0  0  0  0  0
   -0.0626    4.2632    0.0037 N   0  0  0  0  0  0  0  0  0  0  0  0
    0.1010    1.9827    0.0668 C   0  0  0  0  0  0  0  0  0  0  0  0
   -0.0956    0.6171    0.1477 C   0  0  0  0  0  0  0  0  0  0  0  0
    1.3781    2.4973   -0.1378 C   0  0  0  0  0  0  0  0  0  0  0  0
    1.0149   -0.2386    0.0197 C   0  0  0  0  0  0  0  0  0  0  0  0
   -0.8942    3.0864    0.1692 C   0  0  0  0  0  0  0  0  0  0  0  0
    2.3185    0.3054   -0.1899 C   0  0  0  0  0  0  0  0  0  0  0  0
    2.4954    1.6963   -0.2689 C   0  0  0  0  0  0  0  0  0  0  0  0
   -1.4445    0.1217    0.3627 C   0  0  0  0  0  0  0  0  0  0  0  0
    1.2805    3.9596   -0.1793 C   0  0  0  0  0  0  0  0  0  0  0  0
    0.8614   -1.6313    0.0953 C   0  0  0  0  0  0  0  0  0  0  0  0
    3.4111   -0.5661   -0.3148 C   0  0  0  0  0  0  0  0  0  0  0  0
    1.9628   -2.4784   -0.0318 C   0  0  0  0  0  0  0  0  0  0  0  0
    3.2333   -1.9478   -0.2363 C   0  0  0  0  0  0  0  0  0  0  0  0
   -2.2592   -0.1608   -0.7298 C   0  0  0  0  0  0  0  0  0  0  0  0
   -1.9129   -0.0676    1.6594 C   0  0  0  0  0  0  0  0  0  0  0  0
   -3.5540   -0.6369   -0.5235 C   0  0  0  0  0  0  0  0  0  0  0  0
   -3.2075   -0.5437    1.8658 C   0  0  0  0  0  0  0  0  0  0  0  0
   -4.0281   -0.8285    0.7743 C   0  0  0  0  0  0  0  0  0  0  0  0
    5.0095   -3.1098    0.8364 C   0  0  0  0  0  0  0  0  0  0  0  0
   -4.2872   -2.2350   -2.1250 C   0  0  0  0  0  0  0  0  0  0  0  0
   -1.6320    3.0672   -0.6369 H   0  0  0  0  0  0  0  0  0  0  0  0
   -1.3725    3.1353    1.1507 H   0  0  0  0  0  0  0  0  0  0  0  0
    3.4760    2.1344   -0.4275 H   0  0  0  0  0  0  0  0  0  0  0  0
   -0.4237    5.2117    0.0204 H   0  0  0  0  0  0  0  0  0  0  0  0
   -0.1095   -2.0948    0.2539 H   0  0  0  0  0  0  0  0  0  0  0  0
    4.4120   -0.1690   -0.4758 H   0  0  0  0  0  0  0  0  0  0  0  0
   -1.8976   -0.0135   -1.7452 H   0  0  0  0  0  0  0  0  0  0  0  0
   -1.2854    0.1497    2.5203 H   0  0  0  0  0  0  0  0  0  0  0  0
   -3.5642   -0.6884    2.8821 H   0  0  0  0  0  0  0  0  0  0  0  0
    2.6382   -4.2634   -0.1009 H   0  0  0  0  0  0  0  0  0  0  0  0
    5.8181   -3.7990    0.5780 H   0  0  0  0  0  0  0  0  0  0  0  0
    5.4448   -2.2150    1.2926 H   0  0  0  0  0  0  0  0  0  0  0  0
    4.3409   -3.6056    1.5473 H   0  0  0  0  0  0  0  0  0  0  0  0
   -5.4438   -1.3634    1.9465 H   0  0  0  0  0  0  0  0  0  0  0  0
   -4.5929   -2.9654   -1.3693 H   0  0  0  0  0  0  0  0  0  0  0  0
   -3.2766   -2.4615   -2.4794 H   0  0  0  0  0  0  0  0  0  0  0  0
   -4.9768   -2.2977   -2.9711 H   0  0  0  0  0  0  0  0  0  0  0  0
  1 15  2  0  0  0  0
  2 19  1  0  0  0  0
  2 25  1  0  0  0  0
  3 18  1  0  0  0  0
  3 36  1  0  0  0  0
  4 22  1  0  0  0  0
  4 26  1  0  0  0  0
  5 24  1  0  0  0  0
  5 40  1  0  0  0  0
  6 11  1  0  0  0  0
  6 15  1  0  0  0  0
  6 30  1  0  0  0  0
  7  8  1  0  0  0  0
  7  9  2  0  0  0  0
  7 11  1  0  0  0  0
  8 10  2  0  0  0  0
  8 14  1  0  0  0  0
  9 13  1  0  0  0  0
  9 15  1  0  0  0  0
 10 12  1  0  0  0  0
 10 16  1  0  0  0  0
 11 27  1  0  0  0  0
 11 28  1  0  0  0  0
 12 13  2  0  0  0  0
 12 17  1  0  0  0  0
 13 29  1  0  0  0  0
 14 20  2  0  0  0  0
 14 21  1  0  0  0  0
 16 18  2  0  0  0  0
 16 31  1  0  0  0  0
 17 19  2  0  0  0  0
 17 32  1  0  0  0  0
 18 19  1  0  0  0  0
 20 22  1  0  0  0  0
 20 33  1  0  0  0  0
 21 23  2  0  0  0  0
 21 34  1  0  0  0  0
 22 24  2  0  0  0  0
 23 24  1  0  0  0  0
 23 35  1  0  0  0  0
 25 37  1  0  0  0  0
 25 38  1  0  0  0  0
 25 39  1  0  0  0  0
 26 41  1  0  0  0  0
 26 42  1  0  0  0  0
 26 43  1  0  0  0  0
M  END
> <PUBCHEM_COMPOUND_CID>
11348702

> <PUBCHEM_CONFORMER_RMSD>
0.8

> <PUBCHEM_CONFORMER_DIVERSEORDER>
1
2

> <PUBCHEM_MMFF94_PARTIAL_CHARGES>
31
1 -0.57
11 0.44
13 -0.15
15 0.54
16 -0.15
17 -0.15
18 0.08
19 0.08
2 -0.36
20 -0.15
21 -0.15
22 0.08
23 -0.15
24 0.08
25 0.28
26 0.28
29 0.15
3 -0.53
30 0.37
31 0.15
32 0.15
33 0.15
34 0.15
35 0.15
36 0.45
4 -0.36
40 0.45
5 -0.53
6 -0.73
7 -0.14
9 0.09

> <PUBCHEM_EFFECTIVE_ROTOR_COUNT>
3.4

> <PUBCHEM_PHARMACOPHORE_FEATURES>
10
1 1 acceptor
1 2 acceptor
1 3 donor
1 4 acceptor
1 5 donor
1 6 donor
5 6 7 9 11 15 rings
6 10 12 16 17 18 19 rings
6 14 20 21 22 23 24 rings
6 7 8 9 10 12 13 rings

> <PUBCHEM_HEAVY_ATOM_COUNT>
26

> <PUBCHEM_ATOM_DEF_STEREO_COUNT>
0

> <PUBCHEM_ATOM_UDEF_STEREO_COUNT>
0

> <PUBCHEM_BOND_DEF_STEREO_COUNT>
0

> <PUBCHEM_BOND_UDEF_STEREO_COUNT>
0

> <PUBCHEM_ISOTOPIC_ATOM_COUNT>
0

> <PUBCHEM_COMPONENT_COUNT>
1

> <PUBCHEM_CACTVS_TAUTO_COUNT>
25

> <PUBCHEM_CONFORMER_ID>
00AD2ADE00000001

> <PUBCHEM_MMFF94_ENERGY>
105.1675

> <PUBCHEM_FEATURE_SELFOVERLAP>
50.862

> <PUBCHEM_SHAPE_FINGERPRINT>
10411042 1 18337398132222967434
10622 236 17773010155512046583
10693767 8 18130793420890447942
1100329 8 18123194773493551816
11101153 10 18335711482303564654
11578080 2 17630864076396194809
11582403 64 16886902833832827781
11725454 13 16956432612036411077
12107183 9 18269010695815034281
12236239 1 17631187453268704937
12363563 72 18335710381858507050
12553582 1 18339373971703062870
12788726 201 17758103809447166169
13004483 165 18051122606235891347
13009979 54 17775294871532522467
13134695 92 18408045117161063940
13140716 1 17907302401083465200
13690498 29 17838357185193315646
138480 1 18410018749249593288
13899415 180 18336819806170386826
13911987 19 18117571832269041868
14790565 3 18049466990928470764
14844126 61 17905318533903337714
15042514 8 17905054650985921152
15131766 46 15653591395728769902
15842332 3 17845105120033093779
15927050 60 17836378407838810406
16087824 20 17761213220432815101
17138139 8 16765616870040573095
17539 30 18050277081583239108
17818456 19 17702684154874830977
1813 80 18200611201819981750
19319366 153 17120550218439770671
19591789 44 17688611763053439776
20101258 96 18194971742583390256
20645477 70 18189615110943107643
21133665 82 15385566404873978230
21796203 349 18121813649038844258
2255824 54 18269563895274665084
23559900 14 18408323311189007595
23569917 315 17838615918581333430
238 59 18119515794343090679
3091708 16 8852627135902689032
46194498 28 17458913768147371223
463206 1 18408322185602432447
474 4 18125167288310206041
5309563 4 18337399253130576875
57527295 17 17823680994185010851
59025328 239 17984667187229329029
6443956 14 18336272275102124421
70251023 43 18337942472531273767
7471813 234 18410849932832371246
81228 2 17974847272535073536

> <PUBCHEM_SHAPE_MULTIPOLES>
500.74
8.39
5.33
1.26
4.16
5.29
0.02
-9.47
0.35
-5.68
0.59
1.94
-0.73
-1.21

> <PUBCHEM_SHAPE_SELFOVERLAP>
1128.101

> <PUBCHEM_SHAPE_VOLUME>
268.3

> <PUBCHEM_COORDINATE_TYPE>
2
5
10

$$$$
