5364724
  -OEChem-11212014343D

 23 22  0     0  0  0  0  0  0999 V2000
    3.3305    0.5830   -0.4593 O   0  0  0  0  0  0  0  0  0  0  0  0
   -0.7732    0.4639   -0.5791 C   0  0  0  0  0  0  0  0  0  0  0  0
   -1.6120    1.2173    0.4627 C   0  0  0  0  0  0  0  0  0  0  0  0
    0.0993   -0.6394   -0.0088 C   0  0  0  0  0  0  0  0  0  0  0  0
   -2.4219    2.3662   -0.1201 C   0  0  0  0  0  0  0  0  0  0  0  0
    1.3734   -0.4432    0.3955 C   0  0  0  0  0  0  0  0  0  0  0  0
   -0.4725   -1.9785    0.1480 C   0  0  0  0  0  0  0  0  0  0  0  0
    2.1802    0.8170    0.3448 C   0  0  0  0  0  0  0  0  0  0  0  0
   -1.7039   -2.3863   -0.1837 C   0  0  0  0  0  0  0  0  0  0  0  0
   -0.1456    1.1901   -1.1104 H   0  0  0  0  0  0  0  0  0  0  0  0
   -1.4255    0.0707   -1.3684 H   0  0  0  0  0  0  0  0  0  0  0  0
   -2.2977    0.5195    0.9578 H   0  0  0  0  0  0  0  0  0  0  0  0
   -0.9526    1.6166    1.2431 H   0  0  0  0  0  0  0  0  0  0  0  0
   -1.7660    3.1093   -0.5844 H   0  0  0  0  0  0  0  0  0  0  0  0
   -2.9981    2.8632    0.6665 H   0  0  0  0  0  0  0  0  0  0  0  0
   -3.1219    2.0031   -0.8791 H   0  0  0  0  0  0  0  0  0  0  0  0
    1.9223   -1.2884    0.8127 H   0  0  0  0  0  0  0  0  0  0  0  0
    0.1842   -2.7337    0.5787 H   0  0  0  0  0  0  0  0  0  0  0  0
    1.6444    1.6806   -0.0538 H   0  0  0  0  0  0  0  0  0  0  0  0
    2.5201    1.0730    1.3530 H   0  0  0  0  0  0  0  0  0  0  0  0
   -1.9938   -3.4185   -0.0135 H   0  0  0  0  0  0  0  0  0  0  0  0
   -2.4518   -1.7329   -0.6159 H   0  0  0  0  0  0  0  0  0  0  0  0
    3.0247    0.4142   -1.3671 H   0  0  0  0  0  0  0  0  0  0  0  0
  1  8  1  0  0  0  0
  1 23  1  0  0  0  0
  2  3  1  0  0  0  0
  2  4  1  0  0  0  0
  2 10  1  0  0  0  0
  2 11  1  0  0  0  0
  3  5  1  0  0  0  0
  3 12  1  0  0  0  0
  3 13  1  0  0  0  0
  4  6  2  0  0  0  0
  4  7  1  0  0  0  0
  5 14  1  0  0  0  0
  5 15  1  0  0  0  0
  5 16  1  0  0  0  0
  6  8  1  0  0  0  0
  6 17  1  0  0  0  0
  7  9  2  0  0  0  0
  7 18  1  0  0  0  0
  8 19  1  0  0  0  0
  8 20  1  0  0  0  0
  9 21  1  0  0  0  0
  9 22  1  0  0  0  0
M  END
> <PUBCHEM_COMPOUND_CID>
5364724

> <PUBCHEM_CONFORMER_RMSD>
0.6

> <PUBCHEM_CONFORMER_DIVERSEORDER>
1
32
14
23
18
30
24
28
26
8
17
20
29
31
6
21
15
9
22
5
25
13
19
10
4
11
27
16
3
7
12
2

> <PUBCHEM_MMFF94_PARTIAL_CHARGES>
12
1 -0.68
17 0.15
18 0.15
2 0.14
21 0.15
22 0.15
23 0.4
4 -0.14
6 -0.29
7 -0.15
8 0.42
9 -0.3

> <PUBCHEM_EFFECTIVE_ROTOR_COUNT>
4

> <PUBCHEM_PHARMACOPHORE_FEATURES>
5
1 1 acceptor
1 1 donor
1 5 hydrophobe
1 9 hydrophobe
4 2 3 4 7 hydrophobe

> <PUBCHEM_HEAVY_ATOM_COUNT>
9

> <PUBCHEM_ATOM_DEF_STEREO_COUNT>
0

> <PUBCHEM_ATOM_UDEF_STEREO_COUNT>
0

> <PUBCHEM_BOND_DEF_STEREO_COUNT>
1

> <PUBCHEM_BOND_UDEF_STEREO_COUNT>
0

> <PUBCHEM_ISOTOPIC_ATOM_COUNT>
0

> <PUBCHEM_COMPONENT_COUNT>
1

> <PUBCHEM_CACTVS_TAUTO_COUNT>
1

> <PUBCHEM_CONFORMER_ID>
0051DBF400000001

> <PUBCHEM_MMFF94_ENERGY>
8.2885

> <PUBCHEM_FEATURE_SELFOVERLAP>
25.406

> <PUBCHEM_SHAPE_FINGERPRINT>
1 1 17977383832853598743
100427 49 17619346953845041553
20711985 344 18338228400798311114
21040471 1 18339635642590378792
21930827 45 18343294877454076440
23552449 1 18195804287296423232
23595355 12 18052253990520636718
81228 2 18266175217712667923

> <PUBCHEM_SHAPE_MULTIPOLES>
179.35
3.67
2.72
0.73
2.18
1.09
0
-2.57
0.25
-2.31
0.04
0.01
-0.05
-0.14

> <PUBCHEM_SHAPE_SELFOVERLAP>
326.703

> <PUBCHEM_SHAPE_VOLUME>
114.8

> <PUBCHEM_COORDINATE_TYPE>
2
5
10

$$$$
