549104
  -OEChem-11212014383D

 31 30  0     0  0  0  0  0  0999 V2000
   -2.8063    1.2273   -0.8800 O   0  0  0  0  0  0  0  0  0  0  0  0
   -1.4713    1.2096    1.0009 O   0  0  0  0  0  0  0  0  0  0  0  0
    2.7753   -0.0452    0.1129 C   0  0  0  0  0  0  0  0  0  0  0  0
    2.2698   -0.6641   -1.1973 C   0  0  0  0  0  0  0  0  0  0  0  0
    3.4406    1.3188   -0.0695 C   0  0  0  0  0  0  0  0  0  0  0  0
    1.5728   -2.0202   -1.0613 C   0  0  0  0  0  0  0  0  0  0  0  0
    3.9114    1.8871    1.2608 C   0  0  0  0  0  0  0  0  0  0  0  0
    0.3540   -1.9383   -0.2467 C   0  0  0  0  0  0  0  0  0  0  0  0
   -1.8961   -1.6580    1.1637 C   0  0  0  0  0  0  0  0  0  0  0  0
   -2.8586   -0.7092    0.4507 C   0  0  0  0  0  0  0  0  0  0  0  0
   -0.6536   -1.8359    0.3982 C   0  0  0  0  0  0  0  0  0  0  0  0
   -2.2743    0.6734    0.2490 C   0  0  0  0  0  0  0  0  0  0  0  0
   -2.3637    2.5545   -1.1814 C   0  0  0  0  0  0  0  0  0  0  0  0
    3.4871   -0.7372    0.5800 H   0  0  0  0  0  0  0  0  0  0  0  0
    1.9383    0.0656    0.8127 H   0  0  0  0  0  0  0  0  0  0  0  0
    1.5826    0.0446   -1.6782 H   0  0  0  0  0  0  0  0  0  0  0  0
    3.1212   -0.7821   -1.8794 H   0  0  0  0  0  0  0  0  0  0  0  0
    2.7336    2.0178   -0.5311 H   0  0  0  0  0  0  0  0  0  0  0  0
    4.2967    1.2263   -0.7476 H   0  0  0  0  0  0  0  0  0  0  0  0
    1.3182   -2.3923   -2.0604 H   0  0  0  0  0  0  0  0  0  0  0  0
    2.2655   -2.7448   -0.6181 H   0  0  0  0  0  0  0  0  0  0  0  0
    3.0712    2.0213    1.9496 H   0  0  0  0  0  0  0  0  0  0  0  0
    4.6421    1.2237    1.7343 H   0  0  0  0  0  0  0  0  0  0  0  0
    4.3854    2.8619    1.1094 H   0  0  0  0  0  0  0  0  0  0  0  0
   -1.6577   -1.2696    2.1608 H   0  0  0  0  0  0  0  0  0  0  0  0
   -2.3848   -2.6286    1.3049 H   0  0  0  0  0  0  0  0  0  0  0  0
   -3.7822   -0.6026    1.0295 H   0  0  0  0  0  0  0  0  0  0  0  0
   -3.1164   -1.1301   -0.5292 H   0  0  0  0  0  0  0  0  0  0  0  0
   -2.6423    3.2390   -0.3745 H   0  0  0  0  0  0  0  0  0  0  0  0
   -2.8581    2.8770   -2.1016 H   0  0  0  0  0  0  0  0  0  0  0  0
   -1.2813    2.5654   -1.3418 H   0  0  0  0  0  0  0  0  0  0  0  0
  1 12  1  0  0  0  0
  1 13  1  0  0  0  0
  2 12  2  0  0  0  0
  3  4  1  0  0  0  0
  3  5  1  0  0  0  0
  3 14  1  0  0  0  0
  3 15  1  0  0  0  0
  4  6  1  0  0  0  0
  4 16  1  0  0  0  0
  4 17  1  0  0  0  0
  5  7  1  0  0  0  0
  5 18  1  0  0  0  0
  5 19  1  0  0  0  0
  6  8  1  0  0  0  0
  6 20  1  0  0  0  0
  6 21  1  0  0  0  0
  7 22  1  0  0  0  0
  7 23  1  0  0  0  0
  7 24  1  0  0  0  0
  8 11  3  0  0  0  0
  9 10  1  0  0  0  0
  9 11  1  0  0  0  0
  9 25  1  0  0  0  0
  9 26  1  0  0  0  0
 10 12  1  0  0  0  0
 10 27  1  0  0  0  0
 10 28  1  0  0  0  0
 13 29  1  0  0  0  0
 13 30  1  0  0  0  0
 13 31  1  0  0  0  0
M  END
> <PUBCHEM_COMPOUND_CID>
549104

> <PUBCHEM_CONFORMER_RMSD>
0.6

> <PUBCHEM_CONFORMER_DIVERSEORDER>
1
49
13
75
167
113
91
171
156
50
39
140
31
8
98
168
136
4
21
142
68
38
19
97
109
35
124
163
33
105
138
65
112
145
47
103
23
157
128
66
62
123
117
7
3
114
34
41
95
169
102
170
96
162
9
160
59
93
30
15
122
101
57
86
147
159
87
155
54
81
137
10
144
85
100
5
143
158
60
165
17
14
40
44
150
6
107
161
119
32
126
55
139
151
36
48
99
166
26
164
89
56
51
153
11
64
149
84
133
70
146
116
20
79
2
152
43
135
154
63
12
132
52
45
118
25
131
28
37
148
46
125
29
76
22
74
16
27
141
108
90
106
82
61
53
80
120
18
69
104
72
115
42
130
71
24
129
77
67
58
111
83
88
92
134
78
121
94
73
110
127

> <PUBCHEM_MMFF94_PARTIAL_CHARGES>
9
1 -0.43
10 0.06
11 -0.2
12 0.66
13 0.28
2 -0.57
6 0.2
8 -0.2
9 0.2

> <PUBCHEM_EFFECTIVE_ROTOR_COUNT>
6

> <PUBCHEM_PHARMACOPHORE_FEATURES>
3
1 2 acceptor
1 7 hydrophobe
5 3 4 5 6 8 hydrophobe

> <PUBCHEM_HEAVY_ATOM_COUNT>
13

> <PUBCHEM_ATOM_DEF_STEREO_COUNT>
0

> <PUBCHEM_ATOM_UDEF_STEREO_COUNT>
0

> <PUBCHEM_BOND_DEF_STEREO_COUNT>
0

> <PUBCHEM_BOND_UDEF_STEREO_COUNT>
0

> <PUBCHEM_ISOTOPIC_ATOM_COUNT>
0

> <PUBCHEM_COMPONENT_COUNT>
1

> <PUBCHEM_CACTVS_TAUTO_COUNT>
1

> <PUBCHEM_CONFORMER_ID>
000860F000000001

> <PUBCHEM_MMFF94_ENERGY>
4.0097

> <PUBCHEM_FEATURE_SELFOVERLAP>
15.223

> <PUBCHEM_SHAPE_FINGERPRINT>
11759241 127 18130226081042839999
12077114 3 18336820983355156578
13294875 104 17608366839972871466
14250199 8 17987521394428232647
20605781 55 18411694379137184102
21041028 32 15960640716290346779
21524375 3 18058172898411390110
21947302 44 18271812259294205810
220403 375 18408599245194026578
23557571 272 18193860333648966379
23590187 152 18339356469827161832
23590187 86 18411980265056045568
2803657 2 17043177065469838280
3187 122 17971193866189448921
3524813 1 18342181102361443840
43658 37 17899685766247152477
5262128 65 17413877522216826343
526903 126 18411133594105937641
8050 44 18412265012612940166
81228 2 18045533982011390947

> <PUBCHEM_SHAPE_MULTIPOLES>
255.8
6.45
2.95
1.3
3.97
0.52
-0.04
4.08
0.99
-0.57
-0.49
0.15
0.21
2.14

> <PUBCHEM_SHAPE_SELFOVERLAP>
472.83

> <PUBCHEM_SHAPE_VOLUME>
159

> <PUBCHEM_COORDINATE_TYPE>
2
5
10

$$$$
