569166
  -OEChem-11212014453D

 39 39  0     0  0  0  0  0  0999 V2000
    4.9450   -0.7325    0.5254 O   0  0  0  0  0  0  0  0  0  0  0  0
   -1.5004    1.1441    0.0547 C   0  0  0  0  0  0  0  0  0  0  0  0
   -2.7381    0.9748    0.9751 C   0  0  0  0  0  0  0  0  0  0  0  0
   -0.9077   -0.2201   -0.3552 C   0  0  0  0  0  0  0  0  0  0  0  0
   -3.6947   -0.0865    0.4570 C   0  0  0  0  0  0  0  0  0  0  0  0
   -2.9922   -1.4346    0.3768 C   0  0  0  0  0  0  0  0  0  0  0  0
   -1.5846   -1.3811   -0.1763 C   0  0  0  0  0  0  0  0  0  0  0  0
   -0.4744    1.9903    0.8400 C   0  0  0  0  0  0  0  0  0  0  0  0
   -1.9145    1.9268   -1.2112 C   0  0  0  0  0  0  0  0  0  0  0  0
    0.4700   -0.1837   -0.9799 C   0  0  0  0  0  0  0  0  0  0  0  0
   -1.0253   -2.7499   -0.4754 C   0  0  0  0  0  0  0  0  0  0  0  0
    1.5371   -0.3254    0.0544 C   0  0  0  0  0  0  0  0  0  0  0  0
    2.7919    0.1636    0.0134 C   0  0  0  0  0  0  0  0  0  0  0  0
    3.8318   -0.0448    1.0808 C   0  0  0  0  0  0  0  0  0  0  0  0
    3.2561    0.9590   -1.1797 C   0  0  0  0  0  0  0  0  0  0  0  0
   -3.2725    1.9275    1.0796 H   0  0  0  0  0  0  0  0  0  0  0  0
   -2.4171    0.6910    1.9872 H   0  0  0  0  0  0  0  0  0  0  0  0
   -4.0817    0.1946   -0.5290 H   0  0  0  0  0  0  0  0  0  0  0  0
   -4.5634   -0.1647    1.1210 H   0  0  0  0  0  0  0  0  0  0  0  0
   -3.6058   -2.1056   -0.2367 H   0  0  0  0  0  0  0  0  0  0  0  0
   -2.9476   -1.8744    1.3816 H   0  0  0  0  0  0  0  0  0  0  0  0
   -0.0888    1.4490    1.7116 H   0  0  0  0  0  0  0  0  0  0  0  0
    0.3745    2.3000    0.2216 H   0  0  0  0  0  0  0  0  0  0  0  0
   -0.9385    2.9125    1.2109 H   0  0  0  0  0  0  0  0  0  0  0  0
   -1.0487    2.2177   -1.8158 H   0  0  0  0  0  0  0  0  0  0  0  0
   -2.5770    1.3388   -1.8557 H   0  0  0  0  0  0  0  0  0  0  0  0
   -2.4416    2.8511   -0.9474 H   0  0  0  0  0  0  0  0  0  0  0  0
    0.5782   -0.9854   -1.7194 H   0  0  0  0  0  0  0  0  0  0  0  0
    0.5754    0.7392   -1.5556 H   0  0  0  0  0  0  0  0  0  0  0  0
   -1.1892   -3.4153    0.3798 H   0  0  0  0  0  0  0  0  0  0  0  0
    0.0486   -2.7634   -0.6708 H   0  0  0  0  0  0  0  0  0  0  0  0
   -1.5335   -3.1794   -1.3450 H   0  0  0  0  0  0  0  0  0  0  0  0
    1.2832   -0.9319    0.9240 H   0  0  0  0  0  0  0  0  0  0  0  0
    3.4485   -0.6294    1.9234 H   0  0  0  0  0  0  0  0  0  0  0  0
    4.1773    0.9188    1.4685 H   0  0  0  0  0  0  0  0  0  0  0  0
    4.2162    0.5788   -1.5453 H   0  0  0  0  0  0  0  0  0  0  0  0
    2.5809    0.9295   -2.0371 H   0  0  0  0  0  0  0  0  0  0  0  0
    3.3945    2.0072   -0.8946 H   0  0  0  0  0  0  0  0  0  0  0  0
    4.6320   -1.6006    0.2179 H   0  0  0  0  0  0  0  0  0  0  0  0
  1 14  1  0  0  0  0
  1 39  1  0  0  0  0
  2  3  1  0  0  0  0
  2  4  1  0  0  0  0
  2  8  1  0  0  0  0
  2  9  1  0  0  0  0
  3  5  1  0  0  0  0
  3 16  1  0  0  0  0
  3 17  1  0  0  0  0
  4  7  2  0  0  0  0
  4 10  1  0  0  0  0
  5  6  1  0  0  0  0
  5 18  1  0  0  0  0
  5 19  1  0  0  0  0
  6  7  1  0  0  0  0
  6 20  1  0  0  0  0
  6 21  1  0  0  0  0
  7 11  1  0  0  0  0
  8 22  1  0  0  0  0
  8 23  1  0  0  0  0
  8 24  1  0  0  0  0
  9 25  1  0  0  0  0
  9 26  1  0  0  0  0
  9 27  1  0  0  0  0
 10 12  1  0  0  0  0
 10 28  1  0  0  0  0
 10 29  1  0  0  0  0
 11 30  1  0  0  0  0
 11 31  1  0  0  0  0
 11 32  1  0  0  0  0
 12 13  2  3  0  0  0
 12 33  1  0  0  0  0
 13 14  1  0  0  0  0
 13 15  1  0  0  0  0
 14 34  1  0  0  0  0
 14 35  1  0  0  0  0
 15 36  1  0  0  0  0
 15 37  1  0  0  0  0
 15 38  1  0  0  0  0
M  END
> <PUBCHEM_COMPOUND_CID>
569166

> <PUBCHEM_CONFORMER_RMSD>
0.6

> <PUBCHEM_CONFORMER_DIVERSEORDER>
2
17
16
20
15
18
6
8
19
11
5
12
14
10
4
9
13
1
3
7

> <PUBCHEM_MMFF94_PARTIAL_CHARGES>
13
1 -0.68
10 0.28
11 0.14
12 -0.29
13 -0.28
14 0.42
15 0.14
2 0.14
33 0.15
39 0.4
4 -0.28
6 0.14
7 -0.28

> <PUBCHEM_EFFECTIVE_ROTOR_COUNT>
3.8

> <PUBCHEM_PHARMACOPHORE_FEATURES>
5
1 1 acceptor
1 1 donor
1 15 hydrophobe
3 2 8 9 hydrophobe
6 2 3 4 5 6 7 rings

> <PUBCHEM_HEAVY_ATOM_COUNT>
15

> <PUBCHEM_ATOM_DEF_STEREO_COUNT>
0

> <PUBCHEM_ATOM_UDEF_STEREO_COUNT>
0

> <PUBCHEM_BOND_DEF_STEREO_COUNT>
0

> <PUBCHEM_BOND_UDEF_STEREO_COUNT>
1

> <PUBCHEM_ISOTOPIC_ATOM_COUNT>
0

> <PUBCHEM_COMPONENT_COUNT>
1

> <PUBCHEM_CACTVS_TAUTO_COUNT>
1

> <PUBCHEM_CONFORMER_ID>
0008AF4E00000002

> <PUBCHEM_MMFF94_ENERGY>
25.725

> <PUBCHEM_FEATURE_SELFOVERLAP>
25.371

> <PUBCHEM_SHAPE_FINGERPRINT>
11132069 177 18272094893990837407
11578080 2 17825641598967806461
12251169 10 18408321081990152254
12403814 3 18186521020708761909
13024252 1 16081087069863322705
13214271 11 17632576028901042449
13296909 8 18261101959414195196
13581323 91 18408603652083244590
13764800 53 18060427897416074080
14420673 8 18050288068785478058
14614273 12 18335985251512730381
15219456 202 17775013336310075902
15375462 189 18260831543846357619
15669948 3 18267591375899507966
16945 1 18129959986744663103
17846911 113 18273497853542586897
1813 80 17313953996649852662
19422 9 18186806919459329530
200 152 16588021329154072640
20279233 1 17132119048037660886
20510252 161 18202286857588165673
20645464 45 17847062177004038286
21501502 16 18054791947083718145
21650355 55 18341046410524424283
2297311 6 18272103699021895630
2306618 200 18335978675596475325
23402539 116 18202273728332097159
23419403 2 17127858548117948665
23559900 14 18129681720113772054
23598291 2 17822017488783913956
23598294 1 18339087102315824930
2748010 2 18196104243849867687
43471831 8 18338240366767588899
5706482 22 18337665309284814783
58807428 26 18269006305810026019
7097593 13 18261384495664799746
77492 1 18040725804487352918
81228 2 18270114763569894631
90316 7 18334294257963190757

> <PUBCHEM_SHAPE_MULTIPOLES>
302.82
6.98
2.17
1.12
7.69
0.56
0.1
0.62
-1.75
-1.6
0.27
0.27
-0.35
-0.31

> <PUBCHEM_SHAPE_SELFOVERLAP>
597.637

> <PUBCHEM_SHAPE_VOLUME>
181.2

> <PUBCHEM_COORDINATE_TYPE>
2
5
10

$$$$
