5365675
  -OEChem-11212014472D

 60 59  0     0  0  0  0  0  0999 V2000
    5.1350    2.4400    0.0000 O   0  0  0  0  0  0  0  0  0  0  0  0
    2.5369    2.9400    0.0000 O   0  0  0  0  0  0  0  0  0  0  0  0
    9.4651    2.9400    0.0000 C   0  0  0  0  0  0  0  0  0  0  0  0
    8.5991    2.4400    0.0000 C   0  0  0  0  0  0  0  0  0  0  0  0
   10.3312    2.4400    0.0000 C   0  0  0  0  0  0  0  0  0  0  0  0
    7.7331    2.9400    0.0000 C   0  0  0  0  0  0  0  0  0  0  0  0
   11.1972    2.9400    0.0000 C   0  0  0  0  0  0  0  0  0  0  0  0
    6.8671    2.4400    0.0000 C   0  0  0  0  0  0  0  0  0  0  0  0
   12.0632    2.4400    0.0000 C   0  0  0  0  0  0  0  0  0  0  0  0
    6.0010    2.9400    0.0000 C   0  0  0  0  0  0  0  0  0  0  0  0
   12.9292    2.9400    0.0000 C   0  0  0  0  0  0  0  0  0  0  0  0
   13.7953   -1.5600    0.0000 C   0  0  0  0  0  0  0  0  0  0  0  0
   12.9292   -2.0600    0.0000 C   0  0  0  0  0  0  0  0  0  0  0  0
   13.7953   -0.5600    0.0000 C   0  0  0  0  0  0  0  0  0  0  0  0
   12.9292   -3.0600    0.0000 C   0  0  0  0  0  0  0  0  0  0  0  0
   13.7953    2.4400    0.0000 C   0  0  0  0  0  0  0  0  0  0  0  0
   13.7953    1.4400    0.0000 C   0  0  0  0  0  0  0  0  0  0  0  0
   14.6613   -0.0600    0.0000 C   0  0  0  0  0  0  0  0  0  0  0  0
   14.6613    0.9400    0.0000 C   0  0  0  0  0  0  0  0  0  0  0  0
    4.2690    2.9400    0.0000 C   0  0  0  0  0  0  0  0  0  0  0  0
   12.0632   -3.5600    0.0000 C   0  0  0  0  0  0  0  0  0  0  0  0
    3.4030    2.4400    0.0000 C   0  0  0  0  0  0  0  0  0  0  0  0
    9.8637    3.4150    0.0000 H   0  0  0  0  0  0  0  0  0  0  0  0
    9.0666    3.4150    0.0000 H   0  0  0  0  0  0  0  0  0  0  0  0
    8.2006    1.9650    0.0000 H   0  0  0  0  0  0  0  0  0  0  0  0
    8.9976    1.9650    0.0000 H   0  0  0  0  0  0  0  0  0  0  0  0
    9.9326    1.9650    0.0000 H   0  0  0  0  0  0  0  0  0  0  0  0
   10.7297    1.9650    0.0000 H   0  0  0  0  0  0  0  0  0  0  0  0
    8.1316    3.4150    0.0000 H   0  0  0  0  0  0  0  0  0  0  0  0
    7.3346    3.4150    0.0000 H   0  0  0  0  0  0  0  0  0  0  0  0
   11.5957    3.4150    0.0000 H   0  0  0  0  0  0  0  0  0  0  0  0
   10.7987    3.4150    0.0000 H   0  0  0  0  0  0  0  0  0  0  0  0
    6.4685    1.9650    0.0000 H   0  0  0  0  0  0  0  0  0  0  0  0
    7.2656    1.9650    0.0000 H   0  0  0  0  0  0  0  0  0  0  0  0
   11.6647    1.9650    0.0000 H   0  0  0  0  0  0  0  0  0  0  0  0
   12.4617    1.9650    0.0000 H   0  0  0  0  0  0  0  0  0  0  0  0
    6.3996    3.4150    0.0000 H   0  0  0  0  0  0  0  0  0  0  0  0
    5.6025    3.4150    0.0000 H   0  0  0  0  0  0  0  0  0  0  0  0
   12.9292    3.5600    0.0000 H   0  0  0  0  0  0  0  0  0  0  0  0
   14.0073   -2.1426    0.0000 H   0  0  0  0  0  0  0  0  0  0  0  0
   14.4058   -1.4523    0.0000 H   0  0  0  0  0  0  0  0  0  0  0  0
   12.7172   -1.4774    0.0000 H   0  0  0  0  0  0  0  0  0  0  0  0
   12.3187   -2.1677    0.0000 H   0  0  0  0  0  0  0  0  0  0  0  0
   13.5832    0.0226    0.0000 H   0  0  0  0  0  0  0  0  0  0  0  0
   13.1847   -0.6677    0.0000 H   0  0  0  0  0  0  0  0  0  0  0  0
   13.1413   -3.6426    0.0000 H   0  0  0  0  0  0  0  0  0  0  0  0
   13.5398   -2.9523    0.0000 H   0  0  0  0  0  0  0  0  0  0  0  0
   14.3322    2.7500    0.0000 H   0  0  0  0  0  0  0  0  0  0  0  0
   13.1847    1.5477    0.0000 H   0  0  0  0  0  0  0  0  0  0  0  0
   13.5832    0.8574    0.0000 H   0  0  0  0  0  0  0  0  0  0  0  0
   15.1982   -0.3700    0.0000 H   0  0  0  0  0  0  0  0  0  0  0  0
   15.1982    1.2500    0.0000 H   0  0  0  0  0  0  0  0  0  0  0  0
    4.6675    3.4150    0.0000 H   0  0  0  0  0  0  0  0  0  0  0  0
    3.8705    3.4150    0.0000 H   0  0  0  0  0  0  0  0  0  0  0  0
   11.7532   -3.0231    0.0000 H   0  0  0  0  0  0  0  0  0  0  0  0
   11.5263   -3.8700    0.0000 H   0  0  0  0  0  0  0  0  0  0  0  0
   12.3732   -4.0969    0.0000 H   0  0  0  0  0  0  0  0  0  0  0  0
    3.0044    1.9650    0.0000 H   0  0  0  0  0  0  0  0  0  0  0  0
    3.8015    1.9650    0.0000 H   0  0  0  0  0  0  0  0  0  0  0  0
    2.0000    2.6300    0.0000 H   0  0  0  0  0  0  0  0  0  0  0  0
  1 10  1  0  0  0  0
  1 20  1  0  0  0  0
  2 22  1  0  0  0  0
  2 60  1  0  0  0  0
  3  4  1  0  0  0  0
  3  5  1  0  0  0  0
  3 23  1  0  0  0  0
  3 24  1  0  0  0  0
  4  6  1  0  0  0  0
  4 25  1  0  0  0  0
  4 26  1  0  0  0  0
  5  7  1  0  0  0  0
  5 27  1  0  0  0  0
  5 28  1  0  0  0  0
  6  8  1  0  0  0  0
  6 29  1  0  0  0  0
  6 30  1  0  0  0  0
  7  9  1  0  0  0  0
  7 31  1  0  0  0  0
  7 32  1  0  0  0  0
  8 10  1  0  0  0  0
  8 33  1  0  0  0  0
  8 34  1  0  0  0  0
  9 11  1  0  0  0  0
  9 35  1  0  0  0  0
  9 36  1  0  0  0  0
 10 37  1  0  0  0  0
 10 38  1  0  0  0  0
 11 16  2  0  0  0  0
 11 39  1  0  0  0  0
 12 13  1  0  0  0  0
 12 14  1  0  0  0  0
 12 40  1  0  0  0  0
 12 41  1  0  0  0  0
 13 15  1  0  0  0  0
 13 42  1  0  0  0  0
 13 43  1  0  0  0  0
 14 18  1  0  0  0  0
 14 44  1  0  0  0  0
 14 45  1  0  0  0  0
 15 21  1  0  0  0  0
 15 46  1  0  0  0  0
 15 47  1  0  0  0  0
 16 17  1  0  0  0  0
 16 48  1  0  0  0  0
 17 19  1  0  0  0  0
 17 49  1  0  0  0  0
 17 50  1  0  0  0  0
 18 19  2  0  0  0  0
 18 51  1  0  0  0  0
 19 52  1  0  0  0  0
 20 22  1  0  0  0  0
 20 53  1  0  0  0  0
 20 54  1  0  0  0  0
 21 55  1  0  0  0  0
 21 56  1  0  0  0  0
 21 57  1  0  0  0  0
 22 58  1  0  0  0  0
 22 59  1  0  0  0  0
M  END
> <PUBCHEM_COMPOUND_CID>
5365675

> <PUBCHEM_COMPOUND_CANONICALIZED>
1

> <PUBCHEM_CACTVS_COMPLEXITY>
246

> <PUBCHEM_CACTVS_HBOND_ACCEPTOR>
2

> <PUBCHEM_CACTVS_HBOND_DONOR>
1

> <PUBCHEM_CACTVS_ROTATABLE_BOND>
17

> <PUBCHEM_CACTVS_SUBSKEYS>
AAADcfB4MAAAAAAAAAAAAAAAAAAAAAAAAAAAAAAAAAAAAAAAAAAAGgAACAAACACggAICAAAABgCAACBCAAAAAAAgAAAICAAAAAgBEAIAAQACAAAEgAALAAOAwKAAAAAAAAAAAAAAAAAAAAAAAAAAAAAAAA==

> <PUBCHEM_IUPAC_OPENEYE_NAME>
2-[(9Z,12Z)-octadeca-9,12-dienoxy]ethanol

> <PUBCHEM_IUPAC_CAS_NAME>
2-[(9Z,12Z)-octadeca-9,12-dienoxy]ethanol

> <PUBCHEM_IUPAC_NAME_MARKUP>
2-[(9<I>Z</I>,12<I>Z</I>)-octadeca-9,12-dienoxy]ethanol

> <PUBCHEM_IUPAC_NAME>
2-[(9Z,12Z)-octadeca-9,12-dienoxy]ethanol

> <PUBCHEM_IUPAC_SYSTEMATIC_NAME>
2-[(9Z,12Z)-octadeca-9,12-dienoxy]ethanol

> <PUBCHEM_IUPAC_TRADITIONAL_NAME>
2-[(9Z,12Z)-octadeca-9,12-dienoxy]ethanol

> <PUBCHEM_IUPAC_INCHI>
InChI=1S/C20H38O2/c1-2-3-4-5-6-7-8-9-10-11-12-13-14-15-16-17-19-22-20-18-21/h6-7,9-10,21H,2-5,8,11-20H2,1H3/b7-6-,10-9-

> <PUBCHEM_IUPAC_INCHIKEY>
LPJRIXGJBNDMDD-HZJYTTRNSA-N

> <PUBCHEM_XLOGP3_AA>
6.6

> <PUBCHEM_EXACT_MASS>
310.28718

> <PUBCHEM_MOLECULAR_FORMULA>
C20H38O2

> <PUBCHEM_MOLECULAR_WEIGHT>
310.5

> <PUBCHEM_OPENEYE_CAN_SMILES>
CCCCCC=CCC=CCCCCCCCCOCCO

> <PUBCHEM_OPENEYE_ISO_SMILES>
CCCCC/C=C\C/C=C\CCCCCCCCOCCO

> <PUBCHEM_CACTVS_TPSA>
29.5

> <PUBCHEM_MONOISOTOPIC_WEIGHT>
310.28718

> <PUBCHEM_TOTAL_CHARGE>
0

> <PUBCHEM_HEAVY_ATOM_COUNT>
22

> <PUBCHEM_ATOM_DEF_STEREO_COUNT>
0

> <PUBCHEM_ATOM_UDEF_STEREO_COUNT>
0

> <PUBCHEM_BOND_DEF_STEREO_COUNT>
2

> <PUBCHEM_BOND_UDEF_STEREO_COUNT>
0

> <PUBCHEM_ISOTOPIC_ATOM_COUNT>
0

> <PUBCHEM_COMPONENT_COUNT>
1

> <PUBCHEM_CACTVS_TAUTO_COUNT>
-1

> <PUBCHEM_COORDINATE_TYPE>
1
5
255

$$$$
