14237625
  -OEChem-08292006093D

 43 44  0     1  0  0  0  0  0999 V2000
    1.0097    0.6851    0.1611 O   0  0  0  0  0  0  0  0  0  0  0  0
   -0.3443   -0.6267   -1.2136 O   0  0  0  0  0  0  0  0  0  0  0  0
    4.4271   -0.8338   -1.5363 O   0  0  0  0  0  0  0  0  0  0  0  0
    4.5714    0.5415    1.0021 O   0  0  0  0  0  0  0  0  0  0  0  0
    1.8760   -2.2878   -1.7782 O   0  0  0  0  0  0  0  0  0  0  0  0
    3.2981    2.2348    2.4996 O   0  0  0  0  0  0  0  0  0  0  0  0
   -1.1897   -2.2066    0.8988 O   0  0  0  0  0  0  0  0  0  0  0  0
   -1.8853    1.5317   -2.0135 O   0  0  0  0  0  0  0  0  0  0  0  0
   -5.0706    0.5188    1.3859 O   0  0  0  0  0  0  0  0  0  0  0  0
    3.3540   -0.7922   -0.5944 C   0  0  1  0  0  0  0  0  0  0  0  0
    3.4293    0.5413    0.1495 C   0  0  1  0  0  0  0  0  0  0  0  0
    2.0233   -0.9400   -1.3319 C   0  0  2  0  0  0  0  0  0  0  0  0
    2.1703    0.7660    0.9902 C   0  0  1  0  0  0  0  0  0  0  0  0
    0.8423   -0.6057   -0.4207 C   0  0  1  0  0  0  0  0  0  0  0  0
    2.1695    2.1417    1.6494 C   0  0  0  0  0  0  0  0  0  0  0  0
   -1.5168   -0.3425   -0.5687 C   0  0  0  0  0  0  0  0  0  0  0  0
   -1.9353   -1.1412    0.4927 C   0  0  0  0  0  0  0  0  0  0  0  0
   -2.2862    0.7444   -0.9766 C   0  0  0  0  0  0  0  0  0  0  0  0
   -3.1308   -0.8515    1.1502 C   0  0  0  0  0  0  0  0  0  0  0  0
   -3.4817    1.0341   -0.3190 C   0  0  0  0  0  0  0  0  0  0  0  0
   -3.9040    0.2361    0.7445 C   0  0  0  0  0  0  0  0  0  0  0  0
   -1.6928   -2.9703    1.9932 C   0  0  0  0  0  0  0  0  0  0  0  0
   -2.7337    2.6230   -2.3645 C   0  0  0  0  0  0  0  0  0  0  0  0
    3.5111   -1.6342    0.0910 H   0  0  0  0  0  0  0  0  0  0  0  0
    3.5604    1.3550   -0.5744 H   0  0  0  0  0  0  0  0  0  0  0  0
    2.0127   -0.3066   -2.2269 H   0  0  0  0  0  0  0  0  0  0  0  0
    2.1095    0.0075    1.7830 H   0  0  0  0  0  0  0  0  0  0  0  0
    0.8006   -1.3587    0.3710 H   0  0  0  0  0  0  0  0  0  0  0  0
    1.2579    2.3002    2.2354 H   0  0  0  0  0  0  0  0  0  0  0  0
    2.2179    2.9413    0.9027 H   0  0  0  0  0  0  0  0  0  0  0  0
    5.2556   -0.7239   -1.0387 H   0  0  0  0  0  0  0  0  0  0  0  0
    4.4626   -0.1749    1.6507 H   0  0  0  0  0  0  0  0  0  0  0  0
    1.8867   -2.8675   -0.9975 H   0  0  0  0  0  0  0  0  0  0  0  0
    3.2132    1.5457    3.1804 H   0  0  0  0  0  0  0  0  0  0  0  0
   -3.5156   -1.4308    1.9829 H   0  0  0  0  0  0  0  0  0  0  0  0
   -4.1235    1.8655   -0.5898 H   0  0  0  0  0  0  0  0  0  0  0  0
   -1.7471   -2.3739    2.9104 H   0  0  0  0  0  0  0  0  0  0  0  0
   -0.9744   -3.7753    2.1807 H   0  0  0  0  0  0  0  0  0  0  0  0
   -2.6475   -3.4477    1.7477 H   0  0  0  0  0  0  0  0  0  0  0  0
   -2.2614    3.1395   -3.2068 H   0  0  0  0  0  0  0  0  0  0  0  0
   -2.8127    3.3515   -1.5503 H   0  0  0  0  0  0  0  0  0  0  0  0
   -3.7129    2.2777   -2.7134 H   0  0  0  0  0  0  0  0  0  0  0  0
   -5.4772    1.3022    0.9775 H   0  0  0  0  0  0  0  0  0  0  0  0
  1 13  1  0  0  0  0
  1 14  1  0  0  0  0
  2 14  1  0  0  0  0
  2 16  1  0  0  0  0
  3 10  1  0  0  0  0
  3 31  1  0  0  0  0
  4 11  1  0  0  0  0
  4 32  1  0  0  0  0
  5 12  1  0  0  0  0
  5 33  1  0  0  0  0
  6 15  1  0  0  0  0
  6 34  1  0  0  0  0
  7 17  1  0  0  0  0
  7 22  1  0  0  0  0
  8 18  1  0  0  0  0
  8 23  1  0  0  0  0
  9 21  1  0  0  0  0
  9 43  1  0  0  0  0
 10 11  1  0  0  0  0
 10 12  1  0  0  0  0
 10 24  1  0  0  0  0
 11 13  1  0  0  0  0
 11 25  1  0  0  0  0
 12 14  1  0  0  0  0
 12 26  1  0  0  0  0
 13 15  1  0  0  0  0
 13 27  1  0  0  0  0
 14 28  1  0  0  0  0
 15 29  1  0  0  0  0
 15 30  1  0  0  0  0
 16 17  2  0  0  0  0
 16 18  1  0  0  0  0
 17 19  1  0  0  0  0
 18 20  2  0  0  0  0
 19 21  2  0  0  0  0
 19 35  1  0  0  0  0
 20 21  1  0  0  0  0
 20 36  1  0  0  0  0
 22 37  1  0  0  0  0
 22 38  1  0  0  0  0
 22 39  1  0  0  0  0
 23 40  1  0  0  0  0
 23 41  1  0  0  0  0
 23 42  1  0  0  0  0
M  END
> <PUBCHEM_COMPOUND_CID>
14237625

> <PUBCHEM_CONFORMER_RMSD>
0.8

> <PUBCHEM_CONFORMER_DIVERSEORDER>
25
178
128
107
164
232
163
173
104
161
155
125
218
58
194
225
174
126
127
231
196
197
84
146
20
205
93
189
136
193
224
210
28
90
129
138
175
241
44
228
188
223
63
212
170
17
119
185
152
134
113
64
77
114
111
123
151
208
91
236
47
216
158
144
222
22
239
217
149
32
110
220
137
87
34
81
46
240
191
14
121
201
117
234
221
213
195
89
242
198
115
48
177
190
130
86
55
233
88
226
154
230
139
215
11
73
100
66
148
74
219
41
97
109
37
96
30
179
45
9
238
132
54
186
150
103
187
159
4
168
142
23
192
95
200
206
162
199
227
13
72
75
8
183
69
79
52
140
101
122
120
180
112
70
211
50
171
143
83
6
157
82
133
116
38
172
207
40
2
62
68
105
18
135
56
98
67
31
15
85
167
237
27
118
145
60
33
106
59
39
202
204
131
43
36
182
49
141
3
214
76
51
5
209
29
7
16
24
94
229
153
99
80
1
10
61
12
181
176
53
92
42
147
166
65
235
71
184
19
78
108
203
21
35
102
26
156
165
160
57
169
124

> <PUBCHEM_MMFF94_PARTIAL_CHARGES>
30
1 -0.56
10 0.28
11 0.28
12 0.28
13 0.28
14 0.56
15 0.28
16 0.08
17 0.08
18 0.08
19 -0.15
2 -0.36
20 -0.15
21 0.08
22 0.28
23 0.28
3 -0.68
31 0.4
32 0.4
33 0.4
34 0.4
35 0.15
36 0.15
4 -0.68
43 0.45
5 -0.68
6 -0.68
7 -0.36
8 -0.36
9 -0.53

> <PUBCHEM_EFFECTIVE_ROTOR_COUNT>
6.2

> <PUBCHEM_PHARMACOPHORE_FEATURES>
15
1 1 acceptor
1 2 acceptor
1 3 acceptor
1 3 donor
1 4 acceptor
1 4 donor
1 5 acceptor
1 5 donor
1 6 acceptor
1 6 donor
1 7 acceptor
1 8 acceptor
1 9 donor
6 1 10 11 12 13 14 rings
6 16 17 18 19 20 21 rings

> <PUBCHEM_HEAVY_ATOM_COUNT>
23

> <PUBCHEM_ATOM_DEF_STEREO_COUNT>
0

> <PUBCHEM_ATOM_UDEF_STEREO_COUNT>
5

> <PUBCHEM_BOND_DEF_STEREO_COUNT>
0

> <PUBCHEM_BOND_UDEF_STEREO_COUNT>
0

> <PUBCHEM_ISOTOPIC_ATOM_COUNT>
0

> <PUBCHEM_COMPONENT_COUNT>
1

> <PUBCHEM_CACTVS_TAUTO_COUNT>
2

> <PUBCHEM_CONFORMER_ID>
00D93FB900000019

> <PUBCHEM_MMFF94_ENERGY>
93.0196

> <PUBCHEM_FEATURE_SELFOVERLAP>
76.216

> <PUBCHEM_SHAPE_FINGERPRINT>
10165383 225 18190198818357451859
10366900 7 18411142441263807575
10369192 42 17693948788422185372
11582403 64 17261246809931590360
11595378 159 16878218736072070380
11640471 11 15841560698918566657
11725454 13 18122029110056517509
12236239 1 15698000686974086599
12553582 1 17458630076819816323
12596602 18 15791745112830250309
12633257 1 18261668280800984073
12670545 47 18337393837081227783
12716301 132 17967805007890795149
12788726 201 16660657236829398157
13134695 92 17845935113841436876
13140716 1 17533234178415992291
13294875 104 17613409191601889861
13583140 156 18119217758215242688
13726171 33 17749970855318871220
15295992 7 18272940439612210379
16752209 62 17385995179190136711
18219364 16 18131060576098020124
19049666 15 18265899042604398135
19930381 70 17270863263598772457
20510252 161 18041853792086100085
20600515 1 17968955200549291645
21033648 29 18334563621316879437
21475661 188 18057895645450965497
21486144 27 18272933842795475481
21639500 275 17703778232925423548
23175994 123 17916041082892309414
23526113 38 18269278954238767358
23559900 14 18115601326711202806
23598288 3 16153699925721008359
23598291 2 15213583330313352566
23598294 1 17313103016686841621
2838139 119 17201929124788150609
474 4 17489300919121528760
5265222 85 17968111793949213854
602551 16 17968384540713128490
6049 1 18411136948216874724
633830 44 17059773433572471508
77492 1 15697996301706962919
81228 2 18044376260802439803
90316 7 17677603328071655829
9981440 41 15621958647929410410

> <PUBCHEM_SHAPE_MULTIPOLES>
420.51
8.3
2.61
2.21
1.55
0.48
-0.56
-1.58
-2.15
-2.51
0.09
1.99
-0.7
2.86

> <PUBCHEM_SHAPE_SELFOVERLAP>
881.723

> <PUBCHEM_SHAPE_VOLUME>
235.6

> <PUBCHEM_COORDINATE_TYPE>
2
5
10

$$$$
