117900
  -OEChem-08292005393D

 39 41  0     0  0  0  0  0  0999 V2000
    0.4298    1.0983   -0.0242 O   0  0  0  0  0  0  0  0  0  0  0  0
    1.9158   -2.2489    0.3954 O   0  0  0  0  0  0  0  0  0  0  0  0
   -3.3099   -1.9582    0.3761 O   0  0  0  0  0  0  0  0  0  0  0  0
   -4.0355    2.6999   -0.1901 O   0  0  0  0  0  0  0  0  0  0  0  0
   -0.8193   -2.7496    0.4633 O   0  0  0  0  0  0  0  0  0  0  0  0
   -1.4013   -0.4816    0.1812 C   0  0  0  0  0  0  0  0  0  0  0  0
   -0.9101    0.8119    0.0191 C   0  0  0  0  0  0  0  0  0  0  0  0
    1.3335    0.0533    0.0865 C   0  0  0  0  0  0  0  0  0  0  0  0
   -0.4473   -1.5935    0.3129 C   0  0  0  0  0  0  0  0  0  0  0  0
    0.9908   -1.2368    0.2555 C   0  0  0  0  0  0  0  0  0  0  0  0
   -2.7785   -0.7139    0.2193 C   0  0  0  0  0  0  0  0  0  0  0  0
   -1.7945    1.8836   -0.1056 C   0  0  0  0  0  0  0  0  0  0  0  0
    2.7371    0.4983    0.0253 C   0  0  0  0  0  0  0  0  0  0  0  0
   -3.1703    1.6559   -0.0683 C   0  0  0  0  0  0  0  0  0  0  0  0
   -3.6610    0.3596    0.0937 C   0  0  0  0  0  0  0  0  0  0  0  0
    3.3993    0.5528   -1.2015 C   0  0  0  0  0  0  0  0  0  0  0  0
    3.4047    0.8659    1.1940 C   0  0  0  0  0  0  0  0  0  0  0  0
    4.7278    0.9745   -1.2597 C   0  0  0  0  0  0  0  0  0  0  0  0
    4.7330    1.2876    1.1359 C   0  0  0  0  0  0  0  0  0  0  0  0
    5.3945    1.3418   -0.0910 C   0  0  0  0  0  0  0  0  0  0  0  0
    2.2617   -2.7923   -0.8642 C   0  0  0  0  0  0  0  0  0  0  0  0
   -3.5714   -2.7056   -0.8102 C   0  0  0  0  0  0  0  0  0  0  0  0
   -5.4288    2.3969   -0.1436 C   0  0  0  0  0  0  0  0  0  0  0  0
   -1.4146    2.8944   -0.2318 H   0  0  0  0  0  0  0  0  0  0  0  0
   -4.7199    0.1246    0.1314 H   0  0  0  0  0  0  0  0  0  0  0  0
    2.8910    0.2809   -2.1234 H   0  0  0  0  0  0  0  0  0  0  0  0
    2.9022    0.8293    2.1576 H   0  0  0  0  0  0  0  0  0  0  0  0
    5.2421    1.0192   -2.2152 H   0  0  0  0  0  0  0  0  0  0  0  0
    5.2523    1.5740    2.0458 H   0  0  0  0  0  0  0  0  0  0  0  0
    6.4286    1.6708   -0.1363 H   0  0  0  0  0  0  0  0  0  0  0  0
    2.7348   -2.0623   -1.5237 H   0  0  0  0  0  0  0  0  0  0  0  0
    1.3866   -3.2262   -1.3610 H   0  0  0  0  0  0  0  0  0  0  0  0
    2.9807   -3.6000   -0.6959 H   0  0  0  0  0  0  0  0  0  0  0  0
   -3.7859   -3.7388   -0.5242 H   0  0  0  0  0  0  0  0  0  0  0  0
   -2.7111   -2.6998   -1.4872 H   0  0  0  0  0  0  0  0  0  0  0  0
   -4.4474   -2.2954   -1.3225 H   0  0  0  0  0  0  0  0  0  0  0  0
   -5.7299    1.7562   -0.9795 H   0  0  0  0  0  0  0  0  0  0  0  0
   -5.9688    3.3428   -0.2563 H   0  0  0  0  0  0  0  0  0  0  0  0
   -5.7178    1.9783    0.8265 H   0  0  0  0  0  0  0  0  0  0  0  0
  1  7  1  0  0  0  0
  1  8  1  0  0  0  0
  2 10  1  0  0  0  0
  2 21  1  0  0  0  0
  3 11  1  0  0  0  0
  3 22  1  0  0  0  0
  4 14  1  0  0  0  0
  4 23  1  0  0  0  0
  5  9  2  0  0  0  0
  6  7  2  0  0  0  0
  6  9  1  0  0  0  0
  6 11  1  0  0  0  0
  7 12  1  0  0  0  0
  8 10  2  0  0  0  0
  8 13  1  0  0  0  0
  9 10  1  0  0  0  0
 11 15  2  0  0  0  0
 12 14  2  0  0  0  0
 12 24  1  0  0  0  0
 13 16  2  0  0  0  0
 13 17  1  0  0  0  0
 14 15  1  0  0  0  0
 15 25  1  0  0  0  0
 16 18  1  0  0  0  0
 16 26  1  0  0  0  0
 17 19  2  0  0  0  0
 17 27  1  0  0  0  0
 18 20  2  0  0  0  0
 18 28  1  0  0  0  0
 19 20  1  0  0  0  0
 19 29  1  0  0  0  0
 20 30  1  0  0  0  0
 21 31  1  0  0  0  0
 21 32  1  0  0  0  0
 21 33  1  0  0  0  0
 22 34  1  0  0  0  0
 22 35  1  0  0  0  0
 22 36  1  0  0  0  0
 23 37  1  0  0  0  0
 23 38  1  0  0  0  0
 23 39  1  0  0  0  0
M  END
> <PUBCHEM_COMPOUND_CID>
117900

> <PUBCHEM_CONFORMER_RMSD>
0.6

> <PUBCHEM_CONFORMER_DIVERSEORDER>
1
6
8
2
7
3
5
4

> <PUBCHEM_MMFF94_PARTIAL_CHARGES>
30
1 -0.16
10 0.09
11 0.08
12 -0.15
13 0.03
14 0.08
15 -0.15
16 -0.15
17 -0.15
18 -0.15
19 -0.15
2 -0.36
20 -0.15
21 0.28
22 0.28
23 0.28
24 0.15
25 0.15
26 0.15
27 0.15
28 0.15
29 0.15
3 -0.36
30 0.15
4 -0.36
5 -0.57
6 0.09
7 0.08
8 0.05
9 0.47

> <PUBCHEM_EFFECTIVE_ROTOR_COUNT>
4

> <PUBCHEM_PHARMACOPHORE_FEATURES>
8
1 1 acceptor
1 2 acceptor
1 3 acceptor
1 4 acceptor
1 5 acceptor
6 1 6 7 8 9 10 rings
6 13 16 17 18 19 20 rings
6 6 7 11 12 14 15 rings

> <PUBCHEM_HEAVY_ATOM_COUNT>
23

> <PUBCHEM_ATOM_DEF_STEREO_COUNT>
0

> <PUBCHEM_ATOM_UDEF_STEREO_COUNT>
0

> <PUBCHEM_BOND_DEF_STEREO_COUNT>
0

> <PUBCHEM_BOND_UDEF_STEREO_COUNT>
0

> <PUBCHEM_ISOTOPIC_ATOM_COUNT>
0

> <PUBCHEM_COMPONENT_COUNT>
1

> <PUBCHEM_CACTVS_TAUTO_COUNT>
1

> <PUBCHEM_CONFORMER_ID>
0001CC8C00000001

> <PUBCHEM_MMFF94_ENERGY>
97.6586

> <PUBCHEM_FEATURE_SELFOVERLAP>
40.642

> <PUBCHEM_SHAPE_FINGERPRINT>
10319926 262 18268972328919749472
10411042 1 17544479012345491338
10493431 412 18409452449670398825
10498660 4 18412829083790696424
10616163 171 18410014376725102503
10646746 165 18412261761850393264
10670039 82 18260838137338555956
1100329 8 17262728677113053896
11963148 33 18120087540243289954
12107183 9 18116981197061548898
12173636 292 18410570648352246157
12236239 1 17604143839918827952
12390115 104 18341626897014392865
12403259 415 18202002183346259072
12403260 363 18263636441285566828
12403814 3 17240758493253686581
12553582 1 18193838369645059707
13140716 1 17758964005592505435
13540713 4 18337688420472757827
13540713 5 18263627520675871283
14790565 3 18263374722884806421
15196674 1 18409449163302700290
15536298 74 18339362950684755270
16087824 20 18411133655395769671
16752209 62 18264772228360027738
16945 1 18264774426924555283
17349148 13 18042121114908232230
17980427 23 17822013163620205836
18186145 218 17917438648318465520
20510252 161 18342741865918016584
20645477 56 18408886209624342153
20691752 17 17240482468759396226
21033648 29 18059280089588391616
21236236 1 18339641238753404305
21279426 13 18342184319750904230
21859007 373 17172348898176244637
22122407 14 15502649451129180870
22149856 69 18118429271588689577
22182313 1 18266199303958283579
22393880 68 18343590624892364342
2334 1 18409168787985459907
23366157 5 17969222244515587130
23402539 116 18337665437912346310
23557571 272 18271257104584737493
23558518 356 18259707804482774683
23559900 14 18198901401610823210
25147074 1 18261939778679578483
2748010 2 18336273331743239427
335352 9 18265333911393289358
34934 24 18410289190592489977
350125 39 18191307061854298044
3545911 37 18410859819620635797
469060 322 18191327042100045777
474 4 17895200973743273056
495365 180 17845360081897163218
5104073 3 18263087617790793337
5265222 85 18196100061516968564
56616090 163 18339648845145916205
59554788 170 18046913671234807453
59554788 62 17676480610366048613
59755656 215 18267307539191658604
7364860 26 18198622134299634402
7808743 9 18408321081558226840
9709674 26 18412545379588659607
9981440 41 18334013921342744386

> <PUBCHEM_SHAPE_MULTIPOLES>
443.98
10.54
3.2
0.96
2.51
1.57
0.07
-6.95
0.91
-3.03
0.3
1.01
-0.02
0.32

> <PUBCHEM_SHAPE_SELFOVERLAP>
973.752

> <PUBCHEM_SHAPE_VOLUME>
239.9

> <PUBCHEM_COORDINATE_TYPE>
2
5
10

$$$$
