5481646
  -OEChem-08292005383D

 37 39  0     0  0  0  0  0  0999 V2000
    0.5194    1.0748    0.0171 O   0  0  0  0  0  0  0  0  0  0  0  0
    1.9514   -2.3113    0.2828 O   0  0  0  0  0  0  0  0  0  0  0  0
   -4.9323    0.2078    0.1827 O   0  0  0  0  0  0  0  0  0  0  0  0
   -3.2562   -1.9394    0.3254 O   0  0  0  0  0  0  0  0  0  0  0  0
   -0.7910   -2.7685    0.3579 O   0  0  0  0  0  0  0  0  0  0  0  0
   -3.9087    2.7662   -0.0419 O   0  0  0  0  0  0  0  0  0  0  0  0
   -1.3367   -0.4814    0.1737 C   0  0  0  0  0  0  0  0  0  0  0  0
   -0.8249    0.8093    0.0608 C   0  0  0  0  0  0  0  0  0  0  0  0
    1.4058    0.0111    0.0758 C   0  0  0  0  0  0  0  0  0  0  0  0
   -0.4007   -1.6135    0.2507 C   0  0  0  0  0  0  0  0  0  0  0  0
    1.0428   -1.2792    0.1939 C   0  0  0  0  0  0  0  0  0  0  0  0
   -2.7172   -0.6920    0.2149 C   0  0  0  0  0  0  0  0  0  0  0  0
   -1.6919    1.9000   -0.0114 C   0  0  0  0  0  0  0  0  0  0  0  0
    2.8163    0.4346    0.0209 C   0  0  0  0  0  0  0  0  0  0  0  0
   -3.5824    0.4006    0.1422 C   0  0  0  0  0  0  0  0  0  0  0  0
   -3.0710    1.6939    0.0293 C   0  0  0  0  0  0  0  0  0  0  0  0
    3.4694    0.5294   -1.2085 C   0  0  0  0  0  0  0  0  0  0  0  0
    3.4998    0.7412    1.1981 C   0  0  0  0  0  0  0  0  0  0  0  0
    4.8045    0.9300   -1.2607 C   0  0  0  0  0  0  0  0  0  0  0  0
    4.8348    1.1420    1.1458 C   0  0  0  0  0  0  0  0  0  0  0  0
    5.4871    1.2364   -0.0837 C   0  0  0  0  0  0  0  0  0  0  0  0
    2.2771   -2.8073   -1.0015 C   0  0  0  0  0  0  0  0  0  0  0  0
   -5.5954    0.0151   -1.0643 C   0  0  0  0  0  0  0  0  0  0  0  0
   -1.2954    2.9084   -0.0992 H   0  0  0  0  0  0  0  0  0  0  0  0
    2.9489    0.3053   -2.1365 H   0  0  0  0  0  0  0  0  0  0  0  0
    3.0046    0.6728    2.1637 H   0  0  0  0  0  0  0  0  0  0  0  0
    5.3117    1.0060   -2.2180 H   0  0  0  0  0  0  0  0  0  0  0  0
    5.3665    1.3809    2.0622 H   0  0  0  0  0  0  0  0  0  0  0  0
   -2.5606   -2.6134    0.3543 H   0  0  0  0  0  0  0  0  0  0  0  0
    6.5264    1.5491   -0.1243 H   0  0  0  0  0  0  0  0  0  0  0  0
   -4.8243    2.4500    0.0454 H   0  0  0  0  0  0  0  0  0  0  0  0
    2.7554   -2.0577   -1.6351 H   0  0  0  0  0  0  0  0  0  0  0  0
    1.3908   -3.2069   -1.5071 H   0  0  0  0  0  0  0  0  0  0  0  0
    2.9851   -3.6320   -0.8739 H   0  0  0  0  0  0  0  0  0  0  0  0
   -6.6663   -0.0901   -0.8698 H   0  0  0  0  0  0  0  0  0  0  0  0
   -5.2380   -0.8971   -1.5522 H   0  0  0  0  0  0  0  0  0  0  0  0
   -5.4433    0.8758   -1.7233 H   0  0  0  0  0  0  0  0  0  0  0  0
  1  8  1  0  0  0  0
  1  9  1  0  0  0  0
  2 11  1  0  0  0  0
  2 22  1  0  0  0  0
  3 15  1  0  0  0  0
  3 23  1  0  0  0  0
  4 12  1  0  0  0  0
  4 29  1  0  0  0  0
  5 10  2  0  0  0  0
  6 16  1  0  0  0  0
  6 31  1  0  0  0  0
  7  8  2  0  0  0  0
  7 10  1  0  0  0  0
  7 12  1  0  0  0  0
  8 13  1  0  0  0  0
  9 11  2  0  0  0  0
  9 14  1  0  0  0  0
 10 11  1  0  0  0  0
 12 15  2  0  0  0  0
 13 16  2  0  0  0  0
 13 24  1  0  0  0  0
 14 17  2  0  0  0  0
 14 18  1  0  0  0  0
 15 16  1  0  0  0  0
 17 19  1  0  0  0  0
 17 25  1  0  0  0  0
 18 20  2  0  0  0  0
 18 26  1  0  0  0  0
 19 21  2  0  0  0  0
 19 27  1  0  0  0  0
 20 21  1  0  0  0  0
 20 28  1  0  0  0  0
 21 30  1  0  0  0  0
 22 32  1  0  0  0  0
 22 33  1  0  0  0  0
 22 34  1  0  0  0  0
 23 35  1  0  0  0  0
 23 36  1  0  0  0  0
 23 37  1  0  0  0  0
M  END
> <PUBCHEM_COMPOUND_CID>
5481646

> <PUBCHEM_CONFORMER_RMSD>
0.6

> <PUBCHEM_CONFORMER_DIVERSEORDER>
1
3
4
2

> <PUBCHEM_MMFF94_PARTIAL_CHARGES>
31
1 -0.16
10 0.47
11 0.09
12 0.08
13 -0.15
14 0.03
15 0.08
16 0.08
17 -0.15
18 -0.15
19 -0.15
2 -0.36
20 -0.15
21 -0.15
22 0.28
23 0.28
24 0.15
25 0.15
26 0.15
27 0.15
28 0.15
29 0.45
3 -0.36
30 0.15
31 0.45
4 -0.53
5 -0.57
6 -0.53
7 0.09
8 0.08
9 0.05

> <PUBCHEM_EFFECTIVE_ROTOR_COUNT>
3

> <PUBCHEM_PHARMACOPHORE_FEATURES>
9
1 1 acceptor
1 2 acceptor
1 3 acceptor
1 4 donor
1 5 acceptor
1 6 donor
6 1 7 8 9 10 11 rings
6 14 17 18 19 20 21 rings
6 7 8 12 13 15 16 rings

> <PUBCHEM_HEAVY_ATOM_COUNT>
23

> <PUBCHEM_ATOM_DEF_STEREO_COUNT>
0

> <PUBCHEM_ATOM_UDEF_STEREO_COUNT>
0

> <PUBCHEM_BOND_DEF_STEREO_COUNT>
0

> <PUBCHEM_BOND_UDEF_STEREO_COUNT>
0

> <PUBCHEM_ISOTOPIC_ATOM_COUNT>
0

> <PUBCHEM_COMPONENT_COUNT>
1

> <PUBCHEM_CACTVS_TAUTO_COUNT>
12

> <PUBCHEM_CONFORMER_ID>
0053A4AE00000001

> <PUBCHEM_MMFF94_ENERGY>
88.4213

> <PUBCHEM_FEATURE_SELFOVERLAP>
45.705

> <PUBCHEM_SHAPE_FINGERPRINT>
10319926 262 18268974540906937216
10366900 7 18272365399621256409
10411042 1 17545041966746919178
10498660 4 18411702049938764432
10646746 165 18412544332080687672
10670039 82 18261122829151261100
10906281 52 18188504539643000297
11963148 33 18263359360119604931
12236239 1 17603864563880872832
12390115 104 18200043841468365145
12403814 3 17313097566547344773
12596602 18 16805604814862263048
12788726 201 17246691643155916330
13140716 1 17976545236273403899
14787075 74 18059004103047024289
14790565 3 17693664710663703513
15196674 1 18338234847960752241
15238133 3 13840542900919482023
15536298 74 18340488850554726575
16087824 20 18411134763476538263
16945 1 18337957899352174419
173720 79 18114449128713727530
200 152 14836132052518274248
20645477 70 16916797258128088908
20691752 17 17459480948084188387
20715895 44 17751062636126378669
22149856 69 18265638553908651523
22182313 1 18266484103050043643
23366157 5 17969507005078936666
23402539 116 18338228379212561991
23559900 14 18054503604322854722
23569914 152 16908064708925895549
2748010 2 18336554798056142987
34934 24 18410849971661370771
350125 39 18192434074226060172
3545911 37 18410296903931565549
469060 322 18191892186755329667
474 4 17676493856250949720
495365 180 17632290182190917482
5104073 3 18264493884498944193
5265222 85 18196662998601247284
58051976 378 18410013238600791901
59755656 215 18411423878429831414
633830 44 18195806259155865333
7364860 26 18199468766880003246
8863177 126 12030919518149133701
9709674 26 18339645542674917583
9981440 41 18333170574196105211

> <PUBCHEM_SHAPE_MULTIPOLES>
438.11
11.04
2.62
0.99
0.05
1.36
-0.13
-5.24
-1.47
0.52
-0.07
-0.9
-0.05
0.44

> <PUBCHEM_SHAPE_SELFOVERLAP>
969.132

> <PUBCHEM_SHAPE_VOLUME>
234.4

> <PUBCHEM_COORDINATE_TYPE>
2
5
10

$$$$
