70697882
  -OEChem-08292006013D

 64 68  0     1  0  0  0  0  0999 V2000
   -2.9629    0.1673    0.2891 O   0  0  0  0  0  0  0  0  0  0  0  0
   -1.5644    1.1465   -1.3014 O   0  0  0  0  0  0  0  0  0  0  0  0
   -5.5793    3.3285    0.1243 O   0  0  0  0  0  0  0  0  0  0  0  0
   -5.6825    1.4915    2.3538 O   0  0  0  0  0  0  0  0  0  0  0  0
   -2.8081    3.6434   -0.8255 O   0  0  0  0  0  0  0  0  0  0  0  0
   -5.0164   -1.6073    0.8576 O   0  0  0  0  0  0  0  0  0  0  0  0
    1.4427   -0.7721   -0.3819 O   0  0  0  0  0  0  0  0  0  0  0  0
    5.9801    0.5681    0.5658 O   0  0  0  0  0  0  0  0  0  0  0  0
    0.3863    3.1049   -1.0151 O   0  0  0  0  0  0  0  0  0  0  0  0
    2.8145    3.8687   -0.5009 O   0  0  0  0  0  0  0  0  0  0  0  0
   -2.0215   -4.2909    1.2936 O   0  0  0  0  0  0  0  0  0  0  0  0
   -3.2851   -4.8643   -1.1153 O   0  0  0  0  0  0  0  0  0  0  0  0
   -4.4472    2.6051    0.6094 C   0  0  1  0  0  0  0  0  0  0  0  0
   -4.9409    1.2663    1.1577 C   0  0  1  0  0  0  0  0  0  0  0  0
   -3.4471    2.4020   -0.5289 C   0  0  2  0  0  0  0  0  0  0  0  0
   -3.7639    0.3358    1.4599 C   0  0  1  0  0  0  0  0  0  0  0  0
   -2.3689    1.3877   -0.1475 C   0  0  1  0  0  0  0  0  0  0  0  0
   -4.2355   -1.0473    1.8975 C   0  0  0  0  0  0  0  0  0  0  0  0
   -0.2716    0.8343   -0.9413 C   0  0  0  0  0  0  0  0  0  0  0  0
    6.3970   -0.7916    0.8035 C   0  0  0  0  0  0  0  0  0  0  0  0
    2.0811    1.5618   -0.4545 C   0  0  0  0  0  0  0  0  0  0  0  0
    2.3900    0.2152   -0.2518 C   0  0  0  0  0  0  0  0  0  0  0  0
    0.1447   -0.4231   -0.7120 C   0  0  0  0  0  0  0  0  0  0  0  0
    0.7064    1.9397   -0.8201 C   0  0  0  0  0  0  0  0  0  0  0  0
    3.6987   -0.1648    0.0947 C   0  0  0  0  0  0  0  0  0  0  0  0
    4.6790    0.8237    0.2332 C   0  0  0  0  0  0  0  0  0  0  0  0
    5.3282   -1.8435    0.6443 C   0  0  0  0  0  0  0  0  0  0  0  0
    3.0640    2.5423   -0.3151 C   0  0  0  0  0  0  0  0  0  0  0  0
    4.0674   -1.5578    0.3135 C   0  0  0  0  0  0  0  0  0  0  0  0
    4.3615    2.1699    0.0289 C   0  0  0  0  0  0  0  0  0  0  0  0
   -0.7534   -1.5871   -0.8146 C   0  0  0  0  0  0  0  0  0  0  0  0
    6.9385   -0.8330    2.2374 C   0  0  0  0  0  0  0  0  0  0  0  0
    7.5343   -1.0726   -0.1857 C   0  0  0  0  0  0  0  0  0  0  0  0
   -0.9689   -2.4013    0.2972 C   0  0  0  0  0  0  0  0  0  0  0  0
   -1.3877   -1.8748   -2.0231 C   0  0  0  0  0  0  0  0  0  0  0  0
   -1.8187   -3.5033    0.2007 C   0  0  0  0  0  0  0  0  0  0  0  0
   -2.2373   -2.9769   -2.1197 C   0  0  0  0  0  0  0  0  0  0  0  0
   -2.4529   -3.7910   -1.0079 C   0  0  0  0  0  0  0  0  0  0  0  0
   -4.0128    3.2181    1.4079 H   0  0  0  0  0  0  0  0  0  0  0  0
   -5.6254    0.8133    0.4309 H   0  0  0  0  0  0  0  0  0  0  0  0
   -3.9642    2.0861   -1.4427 H   0  0  0  0  0  0  0  0  0  0  0  0
   -3.1429    0.7457    2.2675 H   0  0  0  0  0  0  0  0  0  0  0  0
   -1.7540    1.8036    0.6656 H   0  0  0  0  0  0  0  0  0  0  0  0
   -4.8384   -0.9970    2.8093 H   0  0  0  0  0  0  0  0  0  0  0  0
   -3.3810   -1.7058    2.0756 H   0  0  0  0  0  0  0  0  0  0  0  0
   -5.9756    2.8188   -0.6028 H   0  0  0  0  0  0  0  0  0  0  0  0
   -5.0843    1.8923    3.0074 H   0  0  0  0  0  0  0  0  0  0  0  0
   -2.3370    3.9386   -0.0276 H   0  0  0  0  0  0  0  0  0  0  0  0
   -5.2894   -2.4937    1.1494 H   0  0  0  0  0  0  0  0  0  0  0  0
    5.6033   -2.8825    0.8089 H   0  0  0  0  0  0  0  0  0  0  0  0
    3.3297   -2.3443    0.2099 H   0  0  0  0  0  0  0  0  0  0  0  0
    5.1312    2.9308    0.1389 H   0  0  0  0  0  0  0  0  0  0  0  0
    7.9715   -2.0663   -0.0381 H   0  0  0  0  0  0  0  0  0  0  0  0
    7.1775   -1.0040   -1.2205 H   0  0  0  0  0  0  0  0  0  0  0  0
    6.1496   -0.5905    2.9598 H   0  0  0  0  0  0  0  0  0  0  0  0
    7.3488   -1.8160    2.4937 H   0  0  0  0  0  0  0  0  0  0  0  0
    7.7261   -0.0836    2.3793 H   0  0  0  0  0  0  0  0  0  0  0  0
    8.3321   -0.3273   -0.0856 H   0  0  0  0  0  0  0  0  0  0  0  0
   -0.4784   -2.1766    1.2420 H   0  0  0  0  0  0  0  0  0  0  0  0
   -1.2273   -1.2572   -2.9035 H   0  0  0  0  0  0  0  0  0  0  0  0
    1.8832    4.0141   -0.7257 H   0  0  0  0  0  0  0  0  0  0  0  0
   -2.7239   -3.1904   -3.0677 H   0  0  0  0  0  0  0  0  0  0  0  0
   -1.5067   -3.9374    2.0393 H   0  0  0  0  0  0  0  0  0  0  0  0
   -3.6329   -4.9058   -2.0227 H   0  0  0  0  0  0  0  0  0  0  0  0
  1 16  1  0  0  0  0
  1 17  1  0  0  0  0
  2 17  1  0  0  0  0
  2 19  1  0  0  0  0
  3 13  1  0  0  0  0
  3 46  1  0  0  0  0
  4 14  1  0  0  0  0
  4 47  1  0  0  0  0
  5 15  1  0  0  0  0
  5 48  1  0  0  0  0
  6 18  1  0  0  0  0
  6 49  1  0  0  0  0
  7 22  1  0  0  0  0
  7 23  1  0  0  0  0
  8 20  1  0  0  0  0
  8 26  1  0  0  0  0
  9 24  2  0  0  0  0
 10 28  1  0  0  0  0
 10 61  1  0  0  0  0
 11 36  1  0  0  0  0
 11 63  1  0  0  0  0
 12 38  1  0  0  0  0
 12 64  1  0  0  0  0
 13 14  1  0  0  0  0
 13 15  1  0  0  0  0
 13 39  1  0  0  0  0
 14 16  1  0  0  0  0
 14 40  1  0  0  0  0
 15 17  1  0  0  0  0
 15 41  1  0  0  0  0
 16 18  1  0  0  0  0
 16 42  1  0  0  0  0
 17 43  1  0  0  0  0
 18 44  1  0  0  0  0
 18 45  1  0  0  0  0
 19 23  2  0  0  0  0
 19 24  1  0  0  0  0
 20 27  1  0  0  0  0
 20 32  1  0  0  0  0
 20 33  1  0  0  0  0
 21 22  2  0  0  0  0
 21 24  1  0  0  0  0
 21 28  1  0  0  0  0
 22 25  1  0  0  0  0
 23 31  1  0  0  0  0
 25 26  2  0  0  0  0
 25 29  1  0  0  0  0
 26 30  1  0  0  0  0
 27 29  2  0  0  0  0
 27 50  1  0  0  0  0
 28 30  2  0  0  0  0
 29 51  1  0  0  0  0
 30 52  1  0  0  0  0
 31 34  2  0  0  0  0
 31 35  1  0  0  0  0
 32 55  1  0  0  0  0
 32 56  1  0  0  0  0
 32 57  1  0  0  0  0
 33 53  1  0  0  0  0
 33 54  1  0  0  0  0
 33 58  1  0  0  0  0
 34 36  1  0  0  0  0
 34 59  1  0  0  0  0
 35 37  2  0  0  0  0
 35 60  1  0  0  0  0
 36 38  2  0  0  0  0
 37 38  1  0  0  0  0
 37 62  1  0  0  0  0
M  END
> <PUBCHEM_COMPOUND_CID>
70697882

> <PUBCHEM_CONFORMER_RMSD>
1

> <PUBCHEM_CONFORMER_DIVERSEORDER>
1
24
37
26
32
35
11
30
15
21
14
36
16
29
27
10
34
6
23
3
28
31
25
22
13
9
33
17
20
7
5
4
2
8
12
18
19

> <PUBCHEM_MMFF94_PARTIAL_CHARGES>
49
1 -0.56
10 -0.53
11 -0.53
12 -0.53
13 0.28
14 0.28
15 0.28
16 0.28
17 0.56
18 0.28
19 0.09
2 -0.36
20 0.42
21 0.09
22 0.08
23 0.05
24 0.47
25 0.03
26 0.08
27 -0.29
28 0.08
29 -0.18
3 -0.68
30 -0.15
31 0.03
34 -0.15
35 -0.15
36 0.08
37 -0.15
38 0.08
4 -0.68
46 0.4
47 0.4
48 0.4
49 0.4
5 -0.68
50 0.15
51 0.15
52 0.15
59 0.15
6 -0.68
60 0.15
61 0.45
62 0.15
63 0.45
64 0.45
7 -0.16
8 -0.36
9 -0.57

> <PUBCHEM_EFFECTIVE_ROTOR_COUNT>
5.6

> <PUBCHEM_PHARMACOPHORE_FEATURES>
22
1 1 acceptor
1 10 donor
1 11 donor
1 12 donor
1 2 acceptor
1 3 acceptor
1 3 donor
1 4 acceptor
1 4 donor
1 5 acceptor
1 5 donor
1 6 acceptor
1 6 donor
1 7 acceptor
1 8 acceptor
1 9 acceptor
3 20 32 33 hydrophobe
6 1 13 14 15 16 17 rings
6 21 22 25 26 28 30 rings
6 31 34 35 36 37 38 rings
6 7 19 21 22 23 24 rings
6 8 20 25 26 27 29 rings

> <PUBCHEM_HEAVY_ATOM_COUNT>
38

> <PUBCHEM_ATOM_DEF_STEREO_COUNT>
5

> <PUBCHEM_ATOM_UDEF_STEREO_COUNT>
0

> <PUBCHEM_BOND_DEF_STEREO_COUNT>
0

> <PUBCHEM_BOND_UDEF_STEREO_COUNT>
0

> <PUBCHEM_ISOTOPIC_ATOM_COUNT>
0

> <PUBCHEM_COMPONENT_COUNT>
1

> <PUBCHEM_CACTVS_TAUTO_COUNT>
82

> <PUBCHEM_CONFORMER_ID>
0436C39A00000001

> <PUBCHEM_MMFF94_ENERGY>
125.6498

> <PUBCHEM_FEATURE_SELFOVERLAP>
111.785

> <PUBCHEM_SHAPE_FINGERPRINT>
10010297 198 17608397918261546301
10290309 65 18048026377603464302
10653451 467 17979364061922757182
1100329 8 18410852153436315372
11007060 377 18270382928400542581
11387372 6 17821454560026482314
11524674 6 18271241621486169629
12107183 9 18411422795586201058
12422481 6 18412548704151640702
12655364 131 17984413040987428427
131258 38 15944326759716034011
13140716 1 18339919411617871124
13540713 5 18264489662556901228
13583140 156 17821999874627199749
13782708 43 14273730708618884512
14020679 6 18187089438377246978
14725015 67 17620197534007342806
14856354 85 16878521028897591808
14866123 147 18409441492607550350
15361156 5 18261403290673788958
15420108 30 18196647402931741639
15815584 197 18053110523190397805
15927050 60 18339636716359531758
16110190 28 18408887339269033388
16728300 4 17678732337255175251
19246450 95 18192986028699383008
19301679 30 18196941195163391150
21033648 29 18057306323923593096
21703447 108 17767393948647970744
21795232 338 18412262861847135866
22223350 30 18201428237955164224
23522609 53 18189074117353666460
23569914 152 10884161811118311128
24771293 8 18267292301386943656
255183 313 18337948991732278117
3117164 225 18410295830596118592
3504750 166 18058161911368693486
392239 28 18339654368985932553
44880168 125 18268982095644088350
5104073 3 18340753949828563896
5171179 24 17265831524342890231
56633871 153 18410853244653180238
5912855 24 18193280921259752316
6058803 2 18122351438752085388
9896288 288 18122340173733284976

> <PUBCHEM_SHAPE_MULTIPOLES>
711.59
14.95
5.27
1.64
18.67
2.48
-0.36
-1.41
-8.37
-6.45
1.45
-1.33
0.68
-1.9

> <PUBCHEM_SHAPE_SELFOVERLAP>
1574.418

> <PUBCHEM_SHAPE_VOLUME>
377.6

> <PUBCHEM_COORDINATE_TYPE>
2
5
10

$$$$
