466268
  -OEChem-08292006053D

 31 33  0     0  0  0  0  0  0999 V2000
    0.2444    0.6232    0.0378 O   0  0  0  0  0  0  0  0  0  0  0  0
   -4.3103    1.9581    0.1487 O   0  0  0  0  0  0  0  0  0  0  0  0
   -0.7609   -3.3174   -0.2074 O   0  0  0  0  0  0  0  0  0  0  0  0
   -1.4901   -1.0742   -0.0640 C   0  0  0  0  0  0  0  0  0  0  0  0
   -1.0767    0.2544    0.0201 C   0  0  0  0  0  0  0  0  0  0  0  0
    1.2086   -0.3702   -0.0398 C   0  0  0  0  0  0  0  0  0  0  0  0
   -0.4700   -2.1314   -0.1367 C   0  0  0  0  0  0  0  0  0  0  0  0
    2.5954    0.1359   -0.0075 C   0  0  0  0  0  0  0  0  0  0  0  0
    0.9369   -1.6826   -0.1177 C   0  0  0  0  0  0  0  0  0  0  0  0
   -2.0241    1.2759    0.0921 C   0  0  0  0  0  0  0  0  0  0  0  0
   -2.8503   -1.3915   -0.0772 C   0  0  0  0  0  0  0  0  0  0  0  0
   -3.3836    0.9632    0.0789 C   0  0  0  0  0  0  0  0  0  0  0  0
   -3.7955   -0.3677   -0.0055 C   0  0  0  0  0  0  0  0  0  0  0  0
    3.6129   -0.6400    0.5537 C   0  0  0  0  0  0  0  0  0  0  0  0
    2.8966    1.3929   -0.5379 C   0  0  0  0  0  0  0  0  0  0  0  0
    4.9230   -0.1619    0.5845 C   0  0  0  0  0  0  0  0  0  0  0  0
    4.2067    1.8709   -0.5071 C   0  0  0  0  0  0  0  0  0  0  0  0
    5.2198    1.0934    0.0541 C   0  0  0  0  0  0  0  0  0  0  0  0
   -5.6828    1.5690    0.1308 C   0  0  0  0  0  0  0  0  0  0  0  0
    1.6923   -2.4564   -0.1907 H   0  0  0  0  0  0  0  0  0  0  0  0
   -1.7059    2.3133    0.1580 H   0  0  0  0  0  0  0  0  0  0  0  0
   -3.1886   -2.4219   -0.1422 H   0  0  0  0  0  0  0  0  0  0  0  0
   -4.8351   -0.6774   -0.0200 H   0  0  0  0  0  0  0  0  0  0  0  0
    3.4193   -1.6132    0.9968 H   0  0  0  0  0  0  0  0  0  0  0  0
    2.1284    2.0165   -0.9887 H   0  0  0  0  0  0  0  0  0  0  0  0
    5.7114   -0.7648    1.0257 H   0  0  0  0  0  0  0  0  0  0  0  0
    4.4386    2.8477   -0.9214 H   0  0  0  0  0  0  0  0  0  0  0  0
    6.2397    1.4660    0.0788 H   0  0  0  0  0  0  0  0  0  0  0  0
   -5.9498    1.0783   -0.8113 H   0  0  0  0  0  0  0  0  0  0  0  0
   -6.2792    2.4852    0.1937 H   0  0  0  0  0  0  0  0  0  0  0  0
   -5.9400    0.9600    1.0041 H   0  0  0  0  0  0  0  0  0  0  0  0
  1  5  1  0  0  0  0
  1  6  1  0  0  0  0
  2 12  1  0  0  0  0
  2 19  1  0  0  0  0
  3  7  2  0  0  0  0
  4  5  2  0  0  0  0
  4  7  1  0  0  0  0
  4 11  1  0  0  0  0
  5 10  1  0  0  0  0
  6  8  1  0  0  0  0
  6  9  2  0  0  0  0
  7  9  1  0  0  0  0
  8 14  2  0  0  0  0
  8 15  1  0  0  0  0
  9 20  1  0  0  0  0
 10 12  2  0  0  0  0
 10 21  1  0  0  0  0
 11 13  2  0  0  0  0
 11 22  1  0  0  0  0
 12 13  1  0  0  0  0
 13 23  1  0  0  0  0
 14 16  1  0  0  0  0
 14 24  1  0  0  0  0
 15 17  2  0  0  0  0
 15 25  1  0  0  0  0
 16 18  2  0  0  0  0
 16 26  1  0  0  0  0
 17 18  1  0  0  0  0
 17 27  1  0  0  0  0
 18 28  1  0  0  0  0
 19 29  1  0  0  0  0
 19 30  1  0  0  0  0
 19 31  1  0  0  0  0
M  END
> <PUBCHEM_COMPOUND_CID>
466268

> <PUBCHEM_CONFORMER_RMSD>
0.6

> <PUBCHEM_CONFORMER_DIVERSEORDER>
1
2

> <PUBCHEM_MMFF94_PARTIAL_CHARGES>
28
1 -0.16
10 -0.15
11 -0.15
12 0.08
13 -0.15
14 -0.15
15 -0.15
16 -0.15
17 -0.15
18 -0.15
19 0.28
2 -0.36
20 0.15
21 0.15
22 0.15
23 0.15
24 0.15
25 0.15
26 0.15
27 0.15
28 0.15
3 -0.57
4 0.09
5 0.08
6 0.05
7 0.47
8 0.03
9 -0.14

> <PUBCHEM_EFFECTIVE_ROTOR_COUNT>
2

> <PUBCHEM_PHARMACOPHORE_FEATURES>
6
1 1 acceptor
1 2 acceptor
1 3 acceptor
6 1 4 5 6 7 9 rings
6 4 5 10 11 12 13 rings
6 8 14 15 16 17 18 rings

> <PUBCHEM_HEAVY_ATOM_COUNT>
19

> <PUBCHEM_ATOM_DEF_STEREO_COUNT>
0

> <PUBCHEM_ATOM_UDEF_STEREO_COUNT>
0

> <PUBCHEM_BOND_DEF_STEREO_COUNT>
0

> <PUBCHEM_BOND_UDEF_STEREO_COUNT>
0

> <PUBCHEM_ISOTOPIC_ATOM_COUNT>
0

> <PUBCHEM_COMPONENT_COUNT>
1

> <PUBCHEM_CACTVS_TAUTO_COUNT>
1

> <PUBCHEM_CONFORMER_ID>
00071D5C00000001

> <PUBCHEM_MMFF94_ENERGY>
66.5391

> <PUBCHEM_FEATURE_SELFOVERLAP>
30.476

> <PUBCHEM_SHAPE_FINGERPRINT>
10411042 1 17546727513772103095
10493431 412 18411423899682965553
10616163 171 18267024041159387358
12107183 9 18263635174597574522
12173636 292 18339919445460703518
12236239 1 18113897177971162504
12390115 104 18271826617506864225
12403259 415 18060135500400801056
12403814 3 17822284712674053605
12500047 106 18342453789940412498
13583140 156 16805592673115868973
13785724 45 17688586066164765042
138480 1 17618222806354116039
14767858 380 18271508863611233349
14790565 3 18411706469560429833
15042514 8 18121786290171404291
15196674 1 18410293622576551398
17539 30 17842546629147617703
17834072 32 18411421721528092900
18222031 100 10809634752513471401
19784866 9 18337670819437686146
204376 136 18411421683205410827
20510252 161 18272376394447221355
20645477 56 18411421730270858900
20645477 70 16558488430485571110
20715895 44 18192144902452521917
21236236 1 18412262874500188847
21267235 1 18335990865035278330
21524375 3 18410572872765737363
22620623 9 16486110946983010215
23402539 116 18272363187454564524
23559900 14 18201443537145227614
25147074 1 18339905049020847615
293599 30 18412546504848797217
335352 9 18410575051110637894
350125 39 18265616477122550060
3545911 37 18411703162477277116
4214541 1 18409729595008461860
474 4 18337955588918069683
474229 33 18410857689897053731
5104073 3 18260542372857965136
58051976 378 18342176618246820893
59755656 215 18270124496450772558
633830 44 18271526390549861359
69090 78 18408881858537238386
7064713 232 18410290307126095236
7364860 26 18054227631199237303
77779 3 18336265729988417352
7832392 63 18336545031944051244
9709674 26 18341900735734624910
9981440 41 18408887313393904219

> <PUBCHEM_SHAPE_MULTIPOLES>
373.4
10.93
2.46
0.67
1.09
1.22
0
-7.19
-0.91
-1.21
0.24
0.25
-0.03
-0.63

> <PUBCHEM_SHAPE_SELFOVERLAP>
826.731

> <PUBCHEM_SHAPE_VOLUME>
199.6

> <PUBCHEM_COORDINATE_TYPE>
2
5
10

$$$$
