14887327
  -OEChem-08292005443D

 44 46  0     0  0  0  0  0  0999 V2000
   -0.0792    0.6353    0.2762 O   0  0  0  0  0  0  0  0  0  0  0  0
   -1.9555   -2.5376    0.3007 O   0  0  0  0  0  0  0  0  0  0  0  0
    1.9003    2.4824    0.1705 O   0  0  0  0  0  0  0  0  0  0  0  0
    4.5405    1.7000   -0.0887 O   0  0  0  0  0  0  0  0  0  0  0  0
    3.2490   -2.8622   -0.1434 O   0  0  0  0  0  0  0  0  0  0  0  0
    0.6898   -3.3600    0.0544 O   0  0  0  0  0  0  0  0  0  0  0  0
   -2.7083    0.4517   -1.9066 O   0  0  0  0  0  0  0  0  0  0  0  0
    1.5404   -1.1606    0.0693 C   0  0  0  0  0  0  0  0  0  0  0  0
    1.2111    0.1907    0.1480 C   0  0  0  0  0  0  0  0  0  0  0  0
   -1.0985   -0.3017    0.3404 C   0  0  0  0  0  0  0  0  0  0  0  0
   -0.9164   -1.6329    0.2666 C   0  0  0  0  0  0  0  0  0  0  0  0
    0.4624   -2.1596    0.1242 C   0  0  0  0  0  0  0  0  0  0  0  0
    2.2153    1.1579    0.0950 C   0  0  0  0  0  0  0  0  0  0  0  0
   -2.4329    0.3091    0.4768 C   0  0  0  0  0  0  0  0  0  0  0  0
    2.8742   -1.5552   -0.0616 C   0  0  0  0  0  0  0  0  0  0  0  0
    3.5483    0.7678   -0.0359 C   0  0  0  0  0  0  0  0  0  0  0  0
    3.8768   -0.5861   -0.1139 C   0  0  0  0  0  0  0  0  0  0  0  0
   -3.1846    0.6614   -0.6461 C   0  0  0  0  0  0  0  0  0  0  0  0
   -2.9472    0.5364    1.7550 C   0  0  0  0  0  0  0  0  0  0  0  0
   -4.4451    1.2383   -0.4913 C   0  0  0  0  0  0  0  0  0  0  0  0
   -4.2077    1.1133    1.9096 C   0  0  0  0  0  0  0  0  0  0  0  0
   -4.9567    1.4643    0.7864 C   0  0  0  0  0  0  0  0  0  0  0  0
   -1.9860   -3.3138   -0.8817 C   0  0  0  0  0  0  0  0  0  0  0  0
    1.6400    3.1565   -1.0586 C   0  0  0  0  0  0  0  0  0  0  0  0
    5.1230    2.0973    1.1510 C   0  0  0  0  0  0  0  0  0  0  0  0
   -1.9529    1.5072   -2.4965 C   0  0  0  0  0  0  0  0  0  0  0  0
    4.9170   -0.8860   -0.2168 H   0  0  0  0  0  0  0  0  0  0  0  0
   -2.3763    0.2695    2.6413 H   0  0  0  0  0  0  0  0  0  0  0  0
   -5.0348    1.5138   -1.3615 H   0  0  0  0  0  0  0  0  0  0  0  0
   -4.6060    1.2895    2.9045 H   0  0  0  0  0  0  0  0  0  0  0  0
   -5.9381    1.9134    0.9069 H   0  0  0  0  0  0  0  0  0  0  0  0
    2.4740   -3.4425   -0.0936 H   0  0  0  0  0  0  0  0  0  0  0  0
   -1.6598   -2.7599   -1.7705 H   0  0  0  0  0  0  0  0  0  0  0  0
   -3.0245   -3.6164   -1.0516 H   0  0  0  0  0  0  0  0  0  0  0  0
   -1.4034   -4.2320   -0.7640 H   0  0  0  0  0  0  0  0  0  0  0  0
    2.5768    3.3220   -1.5996 H   0  0  0  0  0  0  0  0  0  0  0  0
    1.1917    4.1270   -0.8297 H   0  0  0  0  0  0  0  0  0  0  0  0
    0.9461    2.5879   -1.6847 H   0  0  0  0  0  0  0  0  0  0  0  0
    4.3676    2.5397    1.8079 H   0  0  0  0  0  0  0  0  0  0  0  0
    5.8896    2.8489    0.9440 H   0  0  0  0  0  0  0  0  0  0  0  0
    5.5955    1.2418    1.6441 H   0  0  0  0  0  0  0  0  0  0  0  0
   -1.2196    1.0681   -3.1783 H   0  0  0  0  0  0  0  0  0  0  0  0
   -1.4258    2.1056   -1.7470 H   0  0  0  0  0  0  0  0  0  0  0  0
   -2.6249    2.1532   -3.0692 H   0  0  0  0  0  0  0  0  0  0  0  0
  1  9  1  0  0  0  0
  1 10  1  0  0  0  0
  2 11  1  0  0  0  0
  2 23  1  0  0  0  0
  3 13  1  0  0  0  0
  3 24  1  0  0  0  0
  4 16  1  0  0  0  0
  4 25  1  0  0  0  0
  5 15  1  0  0  0  0
  5 32  1  0  0  0  0
  6 12  2  0  0  0  0
  7 18  1  0  0  0  0
  7 26  1  0  0  0  0
  8  9  2  0  0  0  0
  8 12  1  0  0  0  0
  8 15  1  0  0  0  0
  9 13  1  0  0  0  0
 10 11  2  0  0  0  0
 10 14  1  0  0  0  0
 11 12  1  0  0  0  0
 13 16  2  0  0  0  0
 14 18  1  0  0  0  0
 14 19  2  0  0  0  0
 15 17  2  0  0  0  0
 16 17  1  0  0  0  0
 17 27  1  0  0  0  0
 18 20  2  0  0  0  0
 19 21  1  0  0  0  0
 19 28  1  0  0  0  0
 20 22  1  0  0  0  0
 20 29  1  0  0  0  0
 21 22  2  0  0  0  0
 21 30  1  0  0  0  0
 22 31  1  0  0  0  0
 23 33  1  0  0  0  0
 23 34  1  0  0  0  0
 23 35  1  0  0  0  0
 24 36  1  0  0  0  0
 24 37  1  0  0  0  0
 24 38  1  0  0  0  0
 25 39  1  0  0  0  0
 25 40  1  0  0  0  0
 25 41  1  0  0  0  0
 26 42  1  0  0  0  0
 26 43  1  0  0  0  0
 26 44  1  0  0  0  0
M  END
> <PUBCHEM_COMPOUND_CID>
14887327

> <PUBCHEM_CONFORMER_RMSD>
0.8

> <PUBCHEM_CONFORMER_DIVERSEORDER>
2
4
9
8
1
7
5
6
3

> <PUBCHEM_MMFF94_PARTIAL_CHARGES>
32
1 -0.16
10 0.05
11 0.09
12 0.47
13 0.08
14 0.03
15 0.08
16 0.08
17 -0.15
18 0.08
19 -0.15
2 -0.36
20 -0.15
21 -0.15
22 -0.15
23 0.28
24 0.28
25 0.28
26 0.28
27 0.15
28 0.15
29 0.15
3 -0.36
30 0.15
31 0.15
32 0.45
4 -0.36
5 -0.53
6 -0.57
7 -0.36
8 0.09
9 0.08

> <PUBCHEM_EFFECTIVE_ROTOR_COUNT>
5

> <PUBCHEM_PHARMACOPHORE_FEATURES>
10
1 1 acceptor
1 2 acceptor
1 3 acceptor
1 4 acceptor
1 5 donor
1 6 acceptor
1 7 acceptor
6 1 8 9 10 11 12 rings
6 14 18 19 20 21 22 rings
6 8 9 13 15 16 17 rings

> <PUBCHEM_HEAVY_ATOM_COUNT>
26

> <PUBCHEM_ATOM_DEF_STEREO_COUNT>
0

> <PUBCHEM_ATOM_UDEF_STEREO_COUNT>
0

> <PUBCHEM_BOND_DEF_STEREO_COUNT>
0

> <PUBCHEM_BOND_UDEF_STEREO_COUNT>
0

> <PUBCHEM_ISOTOPIC_ATOM_COUNT>
0

> <PUBCHEM_COMPONENT_COUNT>
1

> <PUBCHEM_CACTVS_TAUTO_COUNT>
4

> <PUBCHEM_CONFORMER_ID>
00E3299F00000002

> <PUBCHEM_MMFF94_ENERGY>
118.7704

> <PUBCHEM_FEATURE_SELFOVERLAP>
50.793

> <PUBCHEM_SHAPE_FINGERPRINT>
10411042 1 17402618446019336827
10967382 1 18338519638504658834
1100329 8 18339079290076762562
11725454 13 16951940926785521895
12236239 1 17632292320198167185
12390115 104 18197230332925246592
12403259 415 18114463344823550621
12403260 363 18049431849615557894
12553582 1 18124034525351930054
12633257 1 18335693949524219768
12788726 201 17620202365343721374
13140716 1 18410293592971372818
13583140 156 16950547900712659345
14142880 1 18337386170955072575
14178342 30 18268705181436700130
14790565 3 18268723722478921992
16945 1 18266739091079192162
1813 80 17411348619835682198
18219364 16 18333730195744679805
20739085 24 18121240695890325184
21033648 144 18341040874512163476
21033648 29 17895470328248512677
21033650 10 16485598471052974912
21756936 100 17775014500372709985
22122407 14 17984719818154758985
22182313 1 18042116570991205876
23227448 37 18410012169417854719
23558518 356 17973164216669789218
23559900 14 18201720640093267466
238 59 17756951607487657527
2748010 2 18409736166461762862
283562 15 18051404372980793066
335352 9 18411986828393789174
34934 24 18409727379000366776
350125 39 18194407916287861555
3524813 1 17896318025996140517
4340502 62 18342188743677716067
469060 322 17531802584486449447
474 4 18342459201467317387
5104073 3 18409451388217352674
633830 44 18131356258631386710
7832392 63 18411705404524097674
81228 2 17828478407860589227
8272917 22 17983586200196134209
9981440 41 16696072694742545912

> <PUBCHEM_SHAPE_MULTIPOLES>
493.98
9.07
3.6
1.45
0.82
2.14
0.41
-5.59
-2.24
1.79
0.62
-1.72
-0.85
0.02

> <PUBCHEM_SHAPE_SELFOVERLAP>
1080.82

> <PUBCHEM_SHAPE_VOLUME>
268.1

> <PUBCHEM_COORDINATE_TYPE>
2
5
10

$$$$
