44577125
  -OEChem-08252014223D

 64 67  0     1  0  0  0  0  0999 V2000
    3.6238    0.4664    0.2784 O   0  0  0  0  0  0  0  0  0  0  0  0
    0.2635    1.8713   -0.0125 O   0  0  0  0  0  0  0  0  0  0  0  0
    1.5664   -0.5113    0.7838 O   0  0  0  0  0  0  0  0  0  0  0  0
    1.9908    4.2345    0.3234 O   0  0  0  0  0  0  0  0  0  0  0  0
    4.5602    3.7959   -0.9262 O   0  0  0  0  0  0  0  0  0  0  0  0
    6.1735   -0.1003   -0.5775 O   0  0  0  0  0  0  0  0  0  0  0  0
   -0.2625    3.2602    1.7463 O   0  0  0  0  0  0  0  0  0  0  0  0
   -0.9614   -1.9736   -0.4287 O   0  0  0  0  0  0  0  0  0  0  0  0
    3.1968   -5.7195   -0.0359 O   0  0  0  0  0  0  0  0  0  0  0  0
   -2.1374   -1.1140   -2.2111 O   0  0  0  0  0  0  0  0  0  0  0  0
   -4.7751   -1.7941   -1.9261 O   0  0  0  0  0  0  0  0  0  0  0  0
    2.3821    2.9969   -0.2729 C   0  0  1  0  0  0  0  0  0  0  0  0
    3.8935    2.8455   -0.0996 C   0  0  1  0  0  0  0  0  0  0  0  0
    1.6302    1.8479    0.3988 C   0  0  2  0  0  0  0  0  0  0  0  0
    4.3457    1.4349   -0.4845 C   0  0  1  0  0  0  0  0  0  0  0  0
    2.2235    0.4933    0.0117 C   0  0  1  0  0  0  0  0  0  0  0  0
    5.8310    1.2231   -0.2091 C   0  0  0  0  0  0  0  0  0  0  0  0
    1.9616   -1.8035    0.5705 C   0  0  0  0  0  0  0  0  0  0  0  0
   -0.5734    2.6190    0.7546 C   0  0  0  0  0  0  0  0  0  0  0  0
    1.3354   -2.5906   -0.3958 C   0  0  0  0  0  0  0  0  0  0  0  0
    3.0033   -2.3323    1.3329 C   0  0  0  0  0  0  0  0  0  0  0  0
   -1.9588    2.5606    0.2239 C   0  0  0  0  0  0  0  0  0  0  0  0
    0.2180   -2.0417   -1.2199 C   0  0  0  0  0  0  0  0  0  0  0  0
    1.7506   -3.9065   -0.5999 C   0  0  0  0  0  0  0  0  0  0  0  0
    3.4185   -3.6482    1.1288 C   0  0  0  0  0  0  0  0  0  0  0  0
    2.7921   -4.4353    0.1624 C   0  0  0  0  0  0  0  0  0  0  0  0
   -3.0442    2.6813    1.0916 C   0  0  0  0  0  0  0  0  0  0  0  0
   -2.1748    2.3865   -1.1430 C   0  0  0  0  0  0  0  0  0  0  0  0
   -4.3457    2.6279    0.5925 C   0  0  0  0  0  0  0  0  0  0  0  0
   -3.4761    2.3332   -1.6423 C   0  0  0  0  0  0  0  0  0  0  0  0
   -4.5616    2.4538   -0.7745 C   0  0  0  0  0  0  0  0  0  0  0  0
   -2.0713   -1.4888   -1.0507 C   0  0  0  0  0  0  0  0  0  0  0  0
   -3.2289   -1.4687   -0.1212 C   0  0  0  0  0  0  0  0  0  0  0  0
   -4.5313   -1.6225   -0.5962 C   0  0  0  0  0  0  0  0  0  0  0  0
   -3.0006   -1.2916    1.2433 C   0  0  0  0  0  0  0  0  0  0  0  0
   -5.6054   -1.5992    0.2933 C   0  0  0  0  0  0  0  0  0  0  0  0
   -4.0747   -1.2682    2.1331 C   0  0  0  0  0  0  0  0  0  0  0  0
   -5.3772   -1.4221    1.6581 C   0  0  0  0  0  0  0  0  0  0  0  0
    2.1130    3.0691   -1.3333 H   0  0  0  0  0  0  0  0  0  0  0  0
    4.1689    3.0652    0.9392 H   0  0  0  0  0  0  0  0  0  0  0  0
    1.6961    1.9449    1.4918 H   0  0  0  0  0  0  0  0  0  0  0  0
    4.1680    1.2410   -1.5511 H   0  0  0  0  0  0  0  0  0  0  0  0
    2.0530    0.2969   -1.0539 H   0  0  0  0  0  0  0  0  0  0  0  0
    6.0501    1.3393    0.8576 H   0  0  0  0  0  0  0  0  0  0  0  0
    6.4495    1.9192   -0.7836 H   0  0  0  0  0  0  0  0  0  0  0  0
    2.1926    4.1894    1.2736 H   0  0  0  0  0  0  0  0  0  0  0  0
    4.3320    3.6018   -1.8513 H   0  0  0  0  0  0  0  0  0  0  0  0
    7.1205   -0.2150   -0.3889 H   0  0  0  0  0  0  0  0  0  0  0  0
    3.4935   -1.7281    2.0915 H   0  0  0  0  0  0  0  0  0  0  0  0
    0.4642   -1.0523   -1.6169 H   0  0  0  0  0  0  0  0  0  0  0  0
    0.0293   -2.6913   -2.0843 H   0  0  0  0  0  0  0  0  0  0  0  0
    1.2627   -4.5236   -1.3506 H   0  0  0  0  0  0  0  0  0  0  0  0
    4.2297   -4.0549    1.7265 H   0  0  0  0  0  0  0  0  0  0  0  0
   -2.8927    2.8130    2.1597 H   0  0  0  0  0  0  0  0  0  0  0  0
   -1.3484    2.2998   -1.8434 H   0  0  0  0  0  0  0  0  0  0  0  0
   -5.1909    2.7189    1.2684 H   0  0  0  0  0  0  0  0  0  0  0  0
   -3.6446    2.1978   -2.7066 H   0  0  0  0  0  0  0  0  0  0  0  0
   -5.5748    2.4101   -1.1630 H   0  0  0  0  0  0  0  0  0  0  0  0
    2.6558   -6.1159   -0.7403 H   0  0  0  0  0  0  0  0  0  0  0  0
   -1.9989   -1.1532    1.6418 H   0  0  0  0  0  0  0  0  0  0  0  0
   -6.6254   -1.7164   -0.0627 H   0  0  0  0  0  0  0  0  0  0  0  0
   -3.8975   -1.1256    3.1950 H   0  0  0  0  0  0  0  0  0  0  0  0
   -6.2135   -1.4021    2.3506 H   0  0  0  0  0  0  0  0  0  0  0  0
   -5.7340   -1.8796   -2.0649 H   0  0  0  0  0  0  0  0  0  0  0  0
  1 15  1  0  0  0  0
  1 16  1  0  0  0  0
  2 14  1  0  0  0  0
  2 19  1  0  0  0  0
  3 16  1  0  0  0  0
  3 18  1  0  0  0  0
  4 12  1  0  0  0  0
  4 46  1  0  0  0  0
  5 13  1  0  0  0  0
  5 47  1  0  0  0  0
  6 17  1  0  0  0  0
  6 48  1  0  0  0  0
  7 19  2  0  0  0  0
  8 23  1  0  0  0  0
  8 32  1  0  0  0  0
  9 26  1  0  0  0  0
  9 59  1  0  0  0  0
 10 32  2  0  0  0  0
 11 34  1  0  0  0  0
 11 64  1  0  0  0  0
 12 13  1  0  0  0  0
 12 14  1  0  0  0  0
 12 39  1  0  0  0  0
 13 15  1  0  0  0  0
 13 40  1  0  0  0  0
 14 16  1  0  0  0  0
 14 41  1  0  0  0  0
 15 17  1  0  0  0  0
 15 42  1  0  0  0  0
 16 43  1  0  0  0  0
 17 44  1  0  0  0  0
 17 45  1  0  0  0  0
 18 20  2  0  0  0  0
 18 21  1  0  0  0  0
 19 22  1  0  0  0  0
 20 23  1  0  0  0  0
 20 24  1  0  0  0  0
 21 25  2  0  0  0  0
 21 49  1  0  0  0  0
 22 27  2  0  0  0  0
 22 28  1  0  0  0  0
 23 50  1  0  0  0  0
 23 51  1  0  0  0  0
 24 26  2  0  0  0  0
 24 52  1  0  0  0  0
 25 26  1  0  0  0  0
 25 53  1  0  0  0  0
 27 29  1  0  0  0  0
 27 54  1  0  0  0  0
 28 30  2  0  0  0  0
 28 55  1  0  0  0  0
 29 31  2  0  0  0  0
 29 56  1  0  0  0  0
 30 31  1  0  0  0  0
 30 57  1  0  0  0  0
 31 58  1  0  0  0  0
 32 33  1  0  0  0  0
 33 34  1  0  0  0  0
 33 35  2  0  0  0  0
 34 36  2  0  0  0  0
 35 37  1  0  0  0  0
 35 60  1  0  0  0  0
 36 38  1  0  0  0  0
 36 61  1  0  0  0  0
 37 38  2  0  0  0  0
 37 62  1  0  0  0  0
 38 63  1  0  0  0  0
M  END
> <PUBCHEM_COMPOUND_CID>
44577125

> <PUBCHEM_CONFORMER_RMSD>
1.2

> <PUBCHEM_CONFORMER_DIVERSEORDER>
1
46
8
30
54
38
14
21
58
45
4
15
52
36
32
34
19
18
49
55
31
25
47
56
35
20
40
29
6
33
59
37
5
41
17
39
12
7
2
42
26
53
48
23
9
22
28
50
51
16
13
10
57
3
24
44
43
27
11

> <PUBCHEM_MMFF94_PARTIAL_CHARGES>
55
1 -0.56
10 -0.57
11 -0.53
12 0.28
13 0.28
14 0.28
15 0.28
16 0.56
17 0.28
18 0.08
19 0.63
2 -0.43
20 -0.14
21 -0.15
22 0.09
23 0.42
24 -0.15
25 -0.15
26 0.08
27 -0.15
28 -0.15
29 -0.15
3 -0.36
30 -0.15
31 -0.15
32 0.63
33 0.09
34 0.08
35 -0.15
36 -0.15
37 -0.15
38 -0.15
4 -0.68
46 0.4
47 0.4
48 0.4
49 0.15
5 -0.68
52 0.15
53 0.15
54 0.15
55 0.15
56 0.15
57 0.15
58 0.15
59 0.45
6 -0.68
60 0.15
61 0.15
62 0.15
63 0.15
64 0.45
7 -0.57
8 -0.43
9 -0.53

> <PUBCHEM_EFFECTIVE_ROTOR_COUNT>
11.2

> <PUBCHEM_PHARMACOPHORE_FEATURES>
16
1 1 acceptor
1 10 acceptor
1 11 donor
1 3 acceptor
1 4 acceptor
1 4 donor
1 5 acceptor
1 5 donor
1 6 acceptor
1 6 donor
1 7 acceptor
1 9 donor
6 1 12 13 14 15 16 rings
6 18 20 21 24 25 26 rings
6 22 27 28 29 30 31 rings
6 33 34 35 36 37 38 rings

> <PUBCHEM_HEAVY_ATOM_COUNT>
38

> <PUBCHEM_ATOM_DEF_STEREO_COUNT>
5

> <PUBCHEM_ATOM_UDEF_STEREO_COUNT>
0

> <PUBCHEM_BOND_DEF_STEREO_COUNT>
0

> <PUBCHEM_BOND_UDEF_STEREO_COUNT>
0

> <PUBCHEM_ISOTOPIC_ATOM_COUNT>
0

> <PUBCHEM_COMPONENT_COUNT>
1

> <PUBCHEM_CACTVS_TAUTO_COUNT>
12

> <PUBCHEM_CONFORMER_ID>
02A8316500000001

> <PUBCHEM_MMFF94_ENERGY>
117.0862

> <PUBCHEM_FEATURE_SELFOVERLAP>
81.26

> <PUBCHEM_SHAPE_FINGERPRINT>
10190108 129 18264229030734308651
1100329 8 18050002195376081867
11135926 11 18337669716169713156
11513181 2 18272649000406819111
12422481 6 18196392351084213505
13140716 1 17978514452993153883
13911987 19 17974561700238151493
140371 6 17764305042164247078
14114211 80 17833288771316336181
14790565 3 18266463294297218516
14840074 17 18195818585838793385
15001296 14 18121494919420582872
15444296 121 17692259530091160998
16112460 7 18196102036463862521
19311894 1 17763743595882019326
19319366 153 18194115446379522086
20028762 73 18271534190722173262
20764821 26 18270399365704549623
21796203 349 17548737021658165976
373842 8 18267298738466312274
469060 322 18115322179796527145
5081480 168 17129330587422554110
5265222 85 18192722369342786508
5309563 4 18121502625198735635
563151 74 16266243638333935778

> <PUBCHEM_SHAPE_MULTIPOLES>
717.46
11.87
6.74
1.53
0.43
2.22
-0.02
0.08
0.09
-5.89
0.14
1.81
0.34
-0.48

> <PUBCHEM_SHAPE_SELFOVERLAP>
1553.698

> <PUBCHEM_SHAPE_VOLUME>
386.3

> <PUBCHEM_COORDINATE_TYPE>
2
5
10

$$$$
