24885970
  -OEChem-08252013173D

 59 63  0     1  0  0  0  0  0999 V2000
   -0.7969    1.6106    0.4584 O   0  0  0  0  0  0  0  0  0  0  0  0
    0.5337    0.1956   -2.5458 O   0  0  0  0  0  0  0  0  0  0  0  0
    0.9972    1.9494    1.9604 O   0  0  0  0  0  0  0  0  0  0  0  0
   -2.4464   -2.3048   -0.4090 O   0  0  0  0  0  0  0  0  0  0  0  0
    3.3271    0.1534   -1.4572 O   0  0  0  0  0  0  0  0  0  0  0  0
    2.4071   -2.2174   -1.4338 O   0  0  0  0  0  0  0  0  0  0  0  0
   -4.6487   -0.0945   -0.8028 O   0  0  0  0  0  0  0  0  0  0  0  0
    0.2681    0.2152   -1.1572 C   0  0  2  0  0  0  0  0  0  0  0  0
    1.3190    0.9429   -0.3075 C   0  0  1  0  0  0  0  0  0  0  0  0
    0.3580   -1.2351   -0.5978 C   0  0  2  0  0  0  0  0  0  0  0  0
   -0.4922   -1.3182    0.7067 C   0  0  2  0  0  0  0  0  0  0  0  0
   -1.0261    0.9737   -0.8155 C   0  0  1  0  0  0  0  0  0  0  0  0
    0.4454    1.0906    0.9738 C   0  0  2  0  0  0  0  0  0  0  0  0
   -2.0030   -1.1176    0.2845 C   0  0  1  0  0  0  0  0  0  0  0  0
   -2.2332    0.0412   -0.7352 C   0  0  1  0  0  0  0  0  0  0  0  0
    2.5150   -0.0441   -0.2886 C   0  0  1  0  0  0  0  0  0  0  0  0
    1.8760   -1.4512   -0.3553 C   0  0  2  0  0  0  0  0  0  0  0  0
    0.0587   -0.2284    1.6761 C   0  0  0  0  0  0  0  0  0  0  0  0
   -3.5646    0.6879   -0.2804 C   0  0  2  0  0  0  0  0  0  0  0  0
   -3.0004   -0.8835    1.4440 C   0  0  0  0  0  0  0  0  0  0  0  0
    1.7233    2.3192   -0.8867 C   0  0  0  0  0  0  0  0  0  0  0  0
   -0.3383   -2.6980    1.3948 C   0  0  0  0  0  0  0  0  0  0  0  0
    3.4652    0.1267    0.8925 C   0  0  0  0  0  0  0  0  0  0  0  0
   -3.5711    0.5152    1.2354 C   0  0  0  0  0  0  0  0  0  0  0  0
   -3.7988    2.1314   -0.7066 C   0  0  0  0  0  0  0  0  0  0  0  0
    4.5910   -0.9033    0.8295 C   0  0  0  0  0  0  0  0  0  0  0  0
    4.0348    1.5432    0.9232 C   0  0  0  0  0  0  0  0  0  0  0  0
    0.0053   -1.9583   -1.3415 H   0  0  0  0  0  0  0  0  0  0  0  0
   -1.2133    1.7636   -1.5518 H   0  0  0  0  0  0  0  0  0  0  0  0
   -2.3811   -0.3703   -1.7440 H   0  0  0  0  0  0  0  0  0  0  0  0
    2.0574   -2.0218    0.5557 H   0  0  0  0  0  0  0  0  0  0  0  0
   -0.6706   -0.0186    2.4663 H   0  0  0  0  0  0  0  0  0  0  0  0
    0.9301   -0.6123    2.2180 H   0  0  0  0  0  0  0  0  0  0  0  0
   -2.5597   -0.9760    2.4396 H   0  0  0  0  0  0  0  0  0  0  0  0
   -3.8152   -1.6181    1.4033 H   0  0  0  0  0  0  0  0  0  0  0  0
    2.3878    2.9144   -0.2680 H   0  0  0  0  0  0  0  0  0  0  0  0
    0.8360    2.9520   -1.0148 H   0  0  0  0  0  0  0  0  0  0  0  0
    2.1528    2.2467   -1.8908 H   0  0  0  0  0  0  0  0  0  0  0  0
   -0.4851   -3.5174    0.6829 H   0  0  0  0  0  0  0  0  0  0  0  0
   -1.0703   -2.8193    2.2005 H   0  0  0  0  0  0  0  0  0  0  0  0
    0.6460   -2.8389    1.8510 H   0  0  0  0  0  0  0  0  0  0  0  0
    2.9451   -0.0386    1.8405 H   0  0  0  0  0  0  0  0  0  0  0  0
   -4.5780    0.5835    1.6614 H   0  0  0  0  0  0  0  0  0  0  0  0
   -2.9409    1.2585    1.7343 H   0  0  0  0  0  0  0  0  0  0  0  0
   -0.2081   -0.2562   -2.9828 H   0  0  0  0  0  0  0  0  0  0  0  0
    0.5678    1.7693    2.8129 H   0  0  0  0  0  0  0  0  0  0  0  0
   -1.9525   -2.3947   -1.2395 H   0  0  0  0  0  0  0  0  0  0  0  0
    3.7046    1.0428   -1.4862 H   0  0  0  0  0  0  0  0  0  0  0  0
    1.9767   -3.0892   -1.4120 H   0  0  0  0  0  0  0  0  0  0  0  0
   -3.7467    2.2264   -1.7969 H   0  0  0  0  0  0  0  0  0  0  0  0
   -3.0766    2.8223   -0.2624 H   0  0  0  0  0  0  0  0  0  0  0  0
   -4.8027    2.4605   -0.4140 H   0  0  0  0  0  0  0  0  0  0  0  0
    5.2045   -0.7903   -0.0707 H   0  0  0  0  0  0  0  0  0  0  0  0
    4.2238   -1.9326    0.8640 H   0  0  0  0  0  0  0  0  0  0  0  0
    5.2602   -0.7836    1.6896 H   0  0  0  0  0  0  0  0  0  0  0  0
    4.4656    1.9056   -0.0113 H   0  0  0  0  0  0  0  0  0  0  0  0
    4.8663    1.5682    1.6414 H   0  0  0  0  0  0  0  0  0  0  0  0
    3.3300    2.2685    1.3280 H   0  0  0  0  0  0  0  0  0  0  0  0
   -4.6335   -0.0135   -1.7718 H   0  0  0  0  0  0  0  0  0  0  0  0
  1 12  1  0  0  0  0
  1 13  1  0  0  0  0
  2  8  1  0  0  0  0
  2 45  1  0  0  0  0
  3 13  1  0  0  0  0
  3 46  1  0  0  0  0
  4 14  1  0  0  0  0
  4 47  1  0  0  0  0
  5 16  1  0  0  0  0
  5 48  1  0  0  0  0
  6 17  1  0  0  0  0
  6 49  1  0  0  0  0
  7 19  1  0  0  0  0
  7 59  1  0  0  0  0
  8  9  1  0  0  0  0
  8 10  1  0  0  0  0
  8 12  1  0  0  0  0
  9 13  1  0  0  0  0
  9 16  1  0  0  0  0
  9 21  1  0  0  0  0
 10 11  1  0  0  0  0
 10 17  1  0  0  0  0
 10 28  1  0  0  0  0
 11 14  1  0  0  0  0
 11 18  1  0  0  0  0
 11 22  1  0  0  0  0
 12 15  1  0  0  0  0
 12 29  1  0  0  0  0
 13 18  1  0  0  0  0
 14 15  1  0  0  0  0
 14 20  1  0  0  0  0
 15 19  1  0  0  0  0
 15 30  1  0  0  0  0
 16 17  1  0  0  0  0
 16 23  1  0  0  0  0
 17 31  1  0  0  0  0
 18 32  1  0  0  0  0
 18 33  1  0  0  0  0
 19 24  1  0  0  0  0
 19 25  1  0  0  0  0
 20 24  1  0  0  0  0
 20 34  1  0  0  0  0
 20 35  1  0  0  0  0
 21 36  1  0  0  0  0
 21 37  1  0  0  0  0
 21 38  1  0  0  0  0
 22 39  1  0  0  0  0
 22 40  1  0  0  0  0
 22 41  1  0  0  0  0
 23 26  1  0  0  0  0
 23 27  1  0  0  0  0
 23 42  1  0  0  0  0
 24 43  1  0  0  0  0
 24 44  1  0  0  0  0
 25 50  1  0  0  0  0
 25 51  1  0  0  0  0
 25 52  1  0  0  0  0
 26 53  1  0  0  0  0
 26 54  1  0  0  0  0
 26 55  1  0  0  0  0
 27 56  1  0  0  0  0
 27 57  1  0  0  0  0
 27 58  1  0  0  0  0
M  END
> <PUBCHEM_COMPOUND_CID>
24885970

> <PUBCHEM_CONFORMER_RMSD>
0.6

> <PUBCHEM_CONFORMER_DIVERSEORDER>
1

> <PUBCHEM_MMFF94_PARTIAL_CHARGES>
20
1 -0.56
12 0.28
13 0.56
14 0.28
16 0.28
17 0.28
19 0.28
2 -0.68
3 -0.68
4 -0.68
45 0.4
46 0.4
47 0.4
48 0.4
49 0.4
5 -0.68
59 0.4
6 -0.68
7 -0.68
8 0.28

> <PUBCHEM_EFFECTIVE_ROTOR_COUNT>
2.4

> <PUBCHEM_PHARMACOPHORE_FEATURES>
17
1 1 acceptor
1 2 acceptor
1 2 donor
1 3 acceptor
1 3 donor
1 4 acceptor
1 4 donor
1 5 acceptor
1 5 donor
1 6 acceptor
1 6 donor
1 7 acceptor
1 7 donor
10 1 8 9 10 11 12 13 16 17 18 rings
3 23 26 27 hydrophobe
5 14 15 19 20 24 rings
9 1 8 10 11 12 13 14 15 18 rings

> <PUBCHEM_HEAVY_ATOM_COUNT>
27

> <PUBCHEM_ATOM_DEF_STEREO_COUNT>
11

> <PUBCHEM_ATOM_UDEF_STEREO_COUNT>
0

> <PUBCHEM_BOND_DEF_STEREO_COUNT>
0

> <PUBCHEM_BOND_UDEF_STEREO_COUNT>
0

> <PUBCHEM_ISOTOPIC_ATOM_COUNT>
0

> <PUBCHEM_COMPONENT_COUNT>
1

> <PUBCHEM_CACTVS_TAUTO_COUNT>
1

> <PUBCHEM_CONFORMER_ID>
017BBAD200000001

> <PUBCHEM_MMFF94_ENERGY>
162.1115

> <PUBCHEM_FEATURE_SELFOVERLAP>
89.719

> <PUBCHEM_SHAPE_FINGERPRINT>
10863032 1 18271523190783388122
10948715 1 18411128130448380441
11132069 177 18410008857813160582
11370993 70 18334570235407558139
11640471 11 14979418221411008971
12011746 2 18411704253805074422
12236239 1 15719395022834396145
12403814 3 17385715902714351413
12422481 6 17026823049629852008
12592029 89 17561075934186305326
12633257 1 18410015441866306256
12788726 201 18337682914620219856
13132413 78 18334289851236528720
13134695 92 17774718662703770097
13140716 1 18114189665592257705
13224815 77 18131356327361477728
13583140 156 17916293021362964834
14223421 5 18271530788717639192
14787075 74 18343011220444172633
16945 1 18411427201937680004
17349148 13 18342167869229373811
17980427 23 18042961167725350172
1813 80 14346068664920572842
18186145 218 18339376183579065071
200 152 16558750083734613614
20691752 17 17169271438587115367
21330990 113 17677607562634999246
21501502 16 18191873541806457135
23402539 116 18336533937610684174
23419403 2 16837939008167328242
23559900 14 18340496599487956262
2748010 2 18192437359322264438
296302 2 17917428765408826248
3286 77 18057315291761928843
4340502 62 18335697187971914769
70251023 43 17058388993524012318
7226269 152 18341607071487487840
9981440 41 16232267951298215612

> <PUBCHEM_SHAPE_MULTIPOLES>
514.56
6.86
2.35
1.69
0.31
0.44
-0.07
-1
0.6
0.16
0.11
-0.44
-0.07
0.61

> <PUBCHEM_SHAPE_SELFOVERLAP>
1150.217

> <PUBCHEM_SHAPE_VOLUME>
274.8

> <PUBCHEM_COORDINATE_TYPE>
2
5
10

$$$$
