476858
  -OEChem-08252014263D

 50 51  0     1  0  0  0  0  0999 V2000
    5.1935    1.9340   -0.5827 O   0  0  0  0  0  0  0  0  0  0  0  0
    6.6135   -0.2620    0.3593 O   0  0  0  0  0  0  0  0  0  0  0  0
   -6.7431   -1.2790   -0.7153 O   0  0  0  0  0  0  0  0  0  0  0  0
   -7.3999    1.2950    0.1032 O   0  0  0  0  0  0  0  0  0  0  0  0
    0.2536   -0.7673   -0.5337 C   0  0  1  0  0  0  0  0  0  0  0  0
   -1.2206   -0.2713   -0.6827 C   0  0  2  0  0  0  0  0  0  0  0  0
    0.9812   -0.1739    0.6979 C   0  0  0  0  0  0  0  0  0  0  0  0
   -2.0887   -0.5551    0.5652 C   0  0  0  0  0  0  0  0  0  0  0  0
    0.3765   -2.2971   -0.4885 C   0  0  0  0  0  0  0  0  0  0  0  0
   -1.8676   -0.8652   -1.9454 C   0  0  0  0  0  0  0  0  0  0  0  0
    2.4876   -0.1938    0.6064 C   0  0  0  0  0  0  0  0  0  0  0  0
   -3.5125   -0.0631    0.4406 C   0  0  0  0  0  0  0  0  0  0  0  0
    3.1490    0.8891    0.0490 C   0  0  0  0  0  0  0  0  0  0  0  0
    3.1825   -1.2954    1.0805 C   0  0  0  0  0  0  0  0  0  0  0  0
   -4.4772   -0.9064   -0.0845 C   0  0  0  0  0  0  0  0  0  0  0  0
   -3.8233    1.2219    0.8532 C   0  0  0  0  0  0  0  0  0  0  0  0
    4.5411    0.8701   -0.0363 C   0  0  0  0  0  0  0  0  0  0  0  0
    4.5746   -1.3144    0.9951 C   0  0  0  0  0  0  0  0  0  0  0  0
   -5.7908   -0.4519   -0.2002 C   0  0  0  0  0  0  0  0  0  0  0  0
   -5.1369    1.6765    0.7375 C   0  0  0  0  0  0  0  0  0  0  0  0
    5.2539   -0.2316    0.4367 C   0  0  0  0  0  0  0  0  0  0  0  0
   -6.1207    0.8396    0.2107 C   0  0  0  0  0  0  0  0  0  0  0  0
    4.3911    3.0199   -1.0423 C   0  0  0  0  0  0  0  0  0  0  0  0
    7.1832   -0.8186   -0.8239 C   0  0  0  0  0  0  0  0  0  0  0  0
    0.7843   -0.4306   -1.4358 H   0  0  0  0  0  0  0  0  0  0  0  0
   -1.1780    0.8176   -0.8263 H   0  0  0  0  0  0  0  0  0  0  0  0
    0.6640    0.8691    0.8348 H   0  0  0  0  0  0  0  0  0  0  0  0
    0.6677   -0.6879    1.6164 H   0  0  0  0  0  0  0  0  0  0  0  0
   -2.1063   -1.6314    0.7793 H   0  0  0  0  0  0  0  0  0  0  0  0
   -1.6387   -0.0913    1.4518 H   0  0  0  0  0  0  0  0  0  0  0  0
   -0.0430   -2.7111    0.4339 H   0  0  0  0  0  0  0  0  0  0  0  0
   -0.1335   -2.7699   -1.3326 H   0  0  0  0  0  0  0  0  0  0  0  0
    1.4202   -2.6162   -0.5576 H   0  0  0  0  0  0  0  0  0  0  0  0
   -2.7590   -0.3001   -2.2362 H   0  0  0  0  0  0  0  0  0  0  0  0
   -2.1559   -1.9123   -1.8106 H   0  0  0  0  0  0  0  0  0  0  0  0
   -1.1779   -0.8105   -2.7951 H   0  0  0  0  0  0  0  0  0  0  0  0
    2.5402    1.7139   -0.3043 H   0  0  0  0  0  0  0  0  0  0  0  0
    2.6659   -2.1405    1.5262 H   0  0  0  0  0  0  0  0  0  0  0  0
   -4.2287   -1.9164   -0.3986 H   0  0  0  0  0  0  0  0  0  0  0  0
   -3.0632    1.8812    1.2621 H   0  0  0  0  0  0  0  0  0  0  0  0
    5.1235   -2.1749    1.3680 H   0  0  0  0  0  0  0  0  0  0  0  0
   -5.3799    2.6851    1.0609 H   0  0  0  0  0  0  0  0  0  0  0  0
   -7.5913   -0.8022   -0.7215 H   0  0  0  0  0  0  0  0  0  0  0  0
   -7.4401    2.2081    0.4357 H   0  0  0  0  0  0  0  0  0  0  0  0
    3.8424    3.4928   -0.2206 H   0  0  0  0  0  0  0  0  0  0  0  0
    3.7332    2.7164   -1.8639 H   0  0  0  0  0  0  0  0  0  0  0  0
    5.0730    3.7761   -1.4449 H   0  0  0  0  0  0  0  0  0  0  0  0
    6.8927   -1.8684   -0.9318 H   0  0  0  0  0  0  0  0  0  0  0  0
    8.2719   -0.7638   -0.7384 H   0  0  0  0  0  0  0  0  0  0  0  0
    6.8723   -0.2499   -1.7059 H   0  0  0  0  0  0  0  0  0  0  0  0
  1 17  1  0  0  0  0
  1 23  1  0  0  0  0
  2 21  1  0  0  0  0
  2 24  1  0  0  0  0
  3 19  1  0  0  0  0
  3 43  1  0  0  0  0
  4 22  1  0  0  0  0
  4 44  1  0  0  0  0
  5  6  1  0  0  0  0
  5  7  1  0  0  0  0
  5  9  1  0  0  0  0
  5 25  1  0  0  0  0
  6  8  1  0  0  0  0
  6 10  1  0  0  0  0
  6 26  1  0  0  0  0
  7 11  1  0  0  0  0
  7 27  1  0  0  0  0
  7 28  1  0  0  0  0
  8 12  1  0  0  0  0
  8 29  1  0  0  0  0
  8 30  1  0  0  0  0
  9 31  1  0  0  0  0
  9 32  1  0  0  0  0
  9 33  1  0  0  0  0
 10 34  1  0  0  0  0
 10 35  1  0  0  0  0
 10 36  1  0  0  0  0
 11 13  2  0  0  0  0
 11 14  1  0  0  0  0
 12 15  2  0  0  0  0
 12 16  1  0  0  0  0
 13 17  1  0  0  0  0
 13 37  1  0  0  0  0
 14 18  2  0  0  0  0
 14 38  1  0  0  0  0
 15 19  1  0  0  0  0
 15 39  1  0  0  0  0
 16 20  2  0  0  0  0
 16 40  1  0  0  0  0
 17 21  2  0  0  0  0
 18 21  1  0  0  0  0
 18 41  1  0  0  0  0
 19 22  2  0  0  0  0
 20 22  1  0  0  0  0
 20 42  1  0  0  0  0
 23 45  1  0  0  0  0
 23 46  1  0  0  0  0
 23 47  1  0  0  0  0
 24 48  1  0  0  0  0
 24 49  1  0  0  0  0
 24 50  1  0  0  0  0
M  END
> <PUBCHEM_COMPOUND_CID>
476858

> <PUBCHEM_CONFORMER_RMSD>
0.8

> <PUBCHEM_CONFORMER_DIVERSEORDER>
22
131
187
62
84
34
191
171
47
80
40
181
183
212
194
200
1
163
104
37
96
197
105
23
49
145
198
167
52
169
132
122
159
58
192
70
76
196
29
129
121
133
109
81
148
54
146
190
89
126
85
25
15
55
139
168
73
101
165
155
158
102
130
149
173
50
106
66
138
72
57
59
201
144
24
120
60
74
110
53
136
172
63
143
160
31
177
193
33
186
91
48
162
27
26
86
119
152
38
195
94
98
30
174
189
111
112
125
92
13
182
28
65
97
46
161
206
184
75
45
127
56
88
175
4
9
203
208
64
180
99
77
179
188
79
118
185
69
42
164
82
157
170
68
178
113
150
78
128
5
44
202
17
71
93
41
90
107
142
16
213
166
18
156
176
10
2
8
199
117
141
154
3
204
114
100
137
11
153
14
51
210
123
134
124
135
6
207
151
115
211
36
95
61
39
140
83
32
108
87
116
21
147
43
12
67
7
103
205
19
35
20
209

> <PUBCHEM_MMFF94_PARTIAL_CHARGES>
28
1 -0.36
11 -0.14
12 -0.14
13 -0.15
14 -0.15
15 -0.15
16 -0.15
17 0.08
18 -0.15
19 0.08
2 -0.36
20 -0.15
21 0.08
22 0.08
23 0.28
24 0.28
3 -0.53
37 0.15
38 0.15
39 0.15
4 -0.53
40 0.15
41 0.15
42 0.15
43 0.45
44 0.45
7 0.14
8 0.14

> <PUBCHEM_EFFECTIVE_ROTOR_COUNT>
7

> <PUBCHEM_PHARMACOPHORE_FEATURES>
9
1 1 acceptor
1 10 hydrophobe
1 2 acceptor
1 3 donor
1 4 donor
1 9 hydrophobe
4 5 6 7 8 hydrophobe
6 11 13 14 17 18 21 rings
6 12 15 16 19 20 22 rings

> <PUBCHEM_HEAVY_ATOM_COUNT>
24

> <PUBCHEM_ATOM_DEF_STEREO_COUNT>
2

> <PUBCHEM_ATOM_UDEF_STEREO_COUNT>
0

> <PUBCHEM_BOND_DEF_STEREO_COUNT>
0

> <PUBCHEM_BOND_UDEF_STEREO_COUNT>
0

> <PUBCHEM_ISOTOPIC_ATOM_COUNT>
0

> <PUBCHEM_COMPONENT_COUNT>
1

> <PUBCHEM_CACTVS_TAUTO_COUNT>
18

> <PUBCHEM_CONFORMER_ID>
000746BA00000016

> <PUBCHEM_MMFF94_ENERGY>
85.1757

> <PUBCHEM_FEATURE_SELFOVERLAP>
45.822

> <PUBCHEM_SHAPE_FINGERPRINT>
10354089 29 18334011684080981298
10591671 39 17917996109498783271
10595046 47 18409728469784923035
10670039 82 17274834510276931576
11045977 3 17385730235120535936
11315181 36 18114183056117643587
11646440 116 15985105236397151315
11796584 16 16774077385042477446
12107183 9 17616809934133262819
12166972 35 18131348635138718601
12236239 1 18412825806550827113
12516196 113 14923946738950957703
12596602 18 18113057151715159729
12730499 353 17167859756257728434
13167372 99 18408885109579912568
13533116 47 17168134595082621354
13673619 4 16805879564674646274
13785724 45 17834674894908457338
14251752 14 17703790297720789782
14251764 18 18334573533958577778
14933364 13 18261112967410041369
15119646 104 10375877368111257692
15183329 4 18410013217120687312
15849732 13 18131631184294563380
15961568 22 18341335496526769893
17844677 252 17967247568333072116
17980427 23 18408610271276974205
200 152 9943811088310918138
20281389 69 18273212010415539305
21033648 29 16298372583361265293
21315759 40 17989488523883625726
22122407 14 18337122227782280681
221357 26 18113898252456960484
22224240 67 16370445566193272330
29717793 49 18273219694818542998
3004659 81 18413671301534393192
314173 85 15502375600035924263
335352 9 18334861628524266350
3545911 37 16702018677584580903
397830 11 16516546536709582473
4073 2 17822016461854480314
4325135 7 18273493473414429847
504579 68 18200863042207990167
5104073 3 17822849918033828032
54446538 1 18410292518991814344
59682541 35 15068634802454541960
59755656 215 17275107189360949934
59755656 520 18408599271043361031

> <PUBCHEM_SHAPE_MULTIPOLES>
470.43
20
2.04
1.14
6.01
1.05
0.26
4.12
0.31
-1.42
0.45
-0.21
-0.13
-1.94

> <PUBCHEM_SHAPE_SELFOVERLAP>
982.961

> <PUBCHEM_SHAPE_VOLUME>
268.5

> <PUBCHEM_COORDINATE_TYPE>
2
5
10

$$$$
