24879104
  -OEChem-08252013393D

 40 41  0     1  0  0  0  0  0999 V2000
    1.0238    0.7208   -0.1655 O   0  0  0  0  0  0  0  0  0  0  0  0
   -0.4780   -1.0643   -0.2107 O   0  0  0  0  0  0  0  0  0  0  0  0
    4.2418   -1.8092   -0.4970 O   0  0  0  0  0  0  0  0  0  0  0  0
    1.6379   -2.8318    0.4273 O   0  0  0  0  0  0  0  0  0  0  0  0
    4.6374    0.9101    0.3998 O   0  0  0  0  0  0  0  0  0  0  0  0
   -2.5022   -0.6099   -2.0112 O   0  0  0  0  0  0  0  0  0  0  0  0
    1.2234    3.4101    0.3673 O   0  0  0  0  0  0  0  0  0  0  0  0
   -5.5259    0.7504    0.7257 O   0  0  0  0  0  0  0  0  0  0  0  0
    3.2526   -1.0528    0.2028 C   0  0  2  0  0  0  0  0  0  0  0  0
    1.8613   -1.5587   -0.1781 C   0  0  2  0  0  0  0  0  0  0  0  0
    3.4288    0.4185   -0.1735 C   0  0  1  0  0  0  0  0  0  0  0  0
    0.7706   -0.6017    0.3031 C   0  0  1  0  0  0  0  0  0  0  0  0
    2.2513    1.2538    0.3347 C   0  0  1  0  0  0  0  0  0  0  0  0
   -1.5501   -0.2218    0.1988 C   0  0  1  0  0  0  0  0  0  0  0  0
   -2.2342    0.3944   -1.0317 C   0  0  2  0  0  0  0  0  0  0  0  0
   -3.5553    1.0481   -0.6330 C   0  0  0  0  0  0  0  0  0  0  0  0
    2.3458    2.7039   -0.1290 C   0  0  0  0  0  0  0  0  0  0  0  0
   -4.5113    0.0386    0.0228 C   0  0  1  0  0  0  0  0  0  0  0  0
   -2.4920   -1.0068    1.0658 C   0  0  0  0  0  0  0  0  0  0  0  0
   -3.8256   -0.8917    0.9815 C   0  0  0  0  0  0  0  0  0  0  0  0
    3.4477   -1.2091    1.2702 H   0  0  0  0  0  0  0  0  0  0  0  0
    1.7898   -1.7072   -1.2621 H   0  0  0  0  0  0  0  0  0  0  0  0
    3.5217    0.5118   -1.2625 H   0  0  0  0  0  0  0  0  0  0  0  0
    0.7124   -0.6076    1.4006 H   0  0  0  0  0  0  0  0  0  0  0  0
    2.2102    1.2507    1.4325 H   0  0  0  0  0  0  0  0  0  0  0  0
   -1.1926    0.6024    0.8331 H   0  0  0  0  0  0  0  0  0  0  0  0
   -1.5635    1.1237   -1.4993 H   0  0  0  0  0  0  0  0  0  0  0  0
   -4.0528    1.4770   -1.5120 H   0  0  0  0  0  0  0  0  0  0  0  0
   -3.3663    1.8873    0.0495 H   0  0  0  0  0  0  0  0  0  0  0  0
    2.3219    2.7661   -1.2221 H   0  0  0  0  0  0  0  0  0  0  0  0
    3.2558    3.1857    0.2412 H   0  0  0  0  0  0  0  0  0  0  0  0
   -5.0058   -0.5660   -0.7465 H   0  0  0  0  0  0  0  0  0  0  0  0
   -2.0664   -1.6832    1.8019 H   0  0  0  0  0  0  0  0  0  0  0  0
   -4.4482   -1.5017    1.6305 H   0  0  0  0  0  0  0  0  0  0  0  0
    4.0841   -1.7046   -1.4508 H   0  0  0  0  0  0  0  0  0  0  0  0
    1.6956   -2.7214    1.3917 H   0  0  0  0  0  0  0  0  0  0  0  0
    4.5595    0.8446    1.3669 H   0  0  0  0  0  0  0  0  0  0  0  0
   -2.9212   -0.1725   -2.7720 H   0  0  0  0  0  0  0  0  0  0  0  0
    1.3016    4.3282    0.0568 H   0  0  0  0  0  0  0  0  0  0  0  0
   -5.9749    1.3282    0.0852 H   0  0  0  0  0  0  0  0  0  0  0  0
  1 12  1  0  0  0  0
  1 13  1  0  0  0  0
  2 12  1  0  0  0  0
  2 14  1  0  0  0  0
  3  9  1  0  0  0  0
  3 35  1  0  0  0  0
  4 10  1  0  0  0  0
  4 36  1  0  0  0  0
  5 11  1  0  0  0  0
  5 37  1  0  0  0  0
  6 15  1  0  0  0  0
  6 38  1  0  0  0  0
  7 17  1  0  0  0  0
  7 39  1  0  0  0  0
  8 18  1  0  0  0  0
  8 40  1  0  0  0  0
  9 10  1  0  0  0  0
  9 11  1  0  0  0  0
  9 21  1  0  0  0  0
 10 12  1  0  0  0  0
 10 22  1  0  0  0  0
 11 13  1  0  0  0  0
 11 23  1  0  0  0  0
 12 24  1  0  0  0  0
 13 17  1  0  0  0  0
 13 25  1  0  0  0  0
 14 15  1  0  0  0  0
 14 19  1  0  0  0  0
 14 26  1  0  0  0  0
 15 16  1  0  0  0  0
 15 27  1  0  0  0  0
 16 18  1  0  0  0  0
 16 28  1  0  0  0  0
 16 29  1  0  0  0  0
 17 30  1  0  0  0  0
 17 31  1  0  0  0  0
 18 20  1  0  0  0  0
 18 32  1  0  0  0  0
 19 20  2  0  0  0  0
 19 33  1  0  0  0  0
 20 34  1  0  0  0  0
M  END
> <PUBCHEM_COMPOUND_CID>
24879104

> <PUBCHEM_CONFORMER_RMSD>
0.8

> <PUBCHEM_CONFORMER_DIVERSEORDER>
1
31
16
9
34
40
12
38
36
19
4
39
24
23
5
13
7
29
25
20
33
11
2
27
28
15
14
8
30
3
32
22
35
10
26
37
6
18
21
17

> <PUBCHEM_MMFF94_PARTIAL_CHARGES>
27
1 -0.56
10 0.28
11 0.28
12 0.56
13 0.28
14 0.42
15 0.28
17 0.28
18 0.42
19 -0.29
2 -0.56
20 -0.29
3 -0.68
33 0.15
34 0.15
35 0.4
36 0.4
37 0.4
38 0.4
39 0.4
4 -0.68
40 0.4
5 -0.68
6 -0.68
7 -0.68
8 -0.68
9 0.28

> <PUBCHEM_EFFECTIVE_ROTOR_COUNT>
5

> <PUBCHEM_PHARMACOPHORE_FEATURES>
16
1 1 acceptor
1 2 acceptor
1 3 acceptor
1 3 donor
1 4 acceptor
1 4 donor
1 5 acceptor
1 5 donor
1 6 acceptor
1 6 donor
1 7 acceptor
1 7 donor
1 8 acceptor
1 8 donor
6 1 9 10 11 12 13 rings
6 14 15 16 18 19 20 rings

> <PUBCHEM_HEAVY_ATOM_COUNT>
20

> <PUBCHEM_ATOM_DEF_STEREO_COUNT>
8

> <PUBCHEM_ATOM_UDEF_STEREO_COUNT>
0

> <PUBCHEM_BOND_DEF_STEREO_COUNT>
0

> <PUBCHEM_BOND_UDEF_STEREO_COUNT>
0

> <PUBCHEM_ISOTOPIC_ATOM_COUNT>
0

> <PUBCHEM_COMPONENT_COUNT>
1

> <PUBCHEM_CACTVS_TAUTO_COUNT>
1

> <PUBCHEM_CONFORMER_ID>
017BA00000000001

> <PUBCHEM_MMFF94_ENERGY>
45.9605

> <PUBCHEM_FEATURE_SELFOVERLAP>
81.271

> <PUBCHEM_SHAPE_FINGERPRINT>
10366900 7 18040155128088453427
10608611 8 18261108582438310181
11045977 3 18187372030319176243
11471102 20 18410856555550680570
11615757 297 18343588438553335867
12236239 1 17561082505539087039
12507557 5 18411983593513119737
12633257 1 18113611317954175457
13134695 92 18412819175585695428
13140716 1 18193269917606014608
14341114 176 18409176489183451665
14866123 147 16318642818759369491
15081414 286 18413672405309911020
15219456 202 18260830401543383459
15653759 3 17603866710641671963
1813 80 17772769181918219886
18186145 218 18412542128203269614
18785283 64 18116440425686708284
19049666 15 17969493814875102759
19930381 70 17978226390011579369
200 152 18201998833287416707
20645476 183 17632008736978265655
20645477 70 18343019948066060374
21041028 32 18267020553165518248
21065198 57 18335425681624893395
21639500 275 18340196518106329100
221357 26 18336543820425689781
22289505 5 18263917748431557653
22854114 111 18412544335853220517
22854114 59 18335704961672758139
23175994 123 18338805506953208519
23557571 272 17023470733234777711
23559900 14 17894636967470412263
23598291 2 18059845182191832103
25 1 18335698373330050038
350125 39 18049727617921942682
474 4 18340484568493347224
49207404 50 18044383948455705145
5104073 3 18335142007445612323
602551 16 16298964150581566411
6049 1 17967809457561258133
633830 44 18270400615244588404
7364860 26 18410013251416985320
81228 2 17329977002848097738
8272917 22 18341900670755837566
9709674 26 18334862765862769195
9971528 1 18201717336814582200

> <PUBCHEM_SHAPE_MULTIPOLES>
364.64
9.41
2.55
1.01
4.9
1.18
0.29
0.52
-0.85
-2.85
-0.28
0.94
-0.12
0.57

> <PUBCHEM_SHAPE_SELFOVERLAP>
747.899

> <PUBCHEM_SHAPE_VOLUME>
206.1

> <PUBCHEM_COORDINATE_TYPE>
2
5
10

$$$$
