44577154
  -OEChem-08252014243D

 64 67  0     1  0  0  0  0  0999 V2000
    1.0888   -0.6470    0.9851 O   0  0  0  0  0  0  0  0  0  0  0  0
    2.8680    1.2586    3.5575 O   0  0  0  0  0  0  0  0  0  0  0  0
    1.4911   -2.7190   -0.0092 O   0  0  0  0  0  0  0  0  0  0  0  0
    4.9127   -0.4732    2.4733 O   0  0  0  0  0  0  0  0  0  0  0  0
    3.7520   -3.0559    1.6591 O   0  0  0  0  0  0  0  0  0  0  0  0
   -0.9107    1.1147    1.6585 O   0  0  0  0  0  0  0  0  0  0  0  0
    0.7304   -0.4982   -2.1275 O   0  0  0  0  0  0  0  0  0  0  0  0
   -1.4726    3.3283    1.3687 O   0  0  0  0  0  0  0  0  0  0  0  0
   -3.7619   -3.7651   -1.3385 O   0  0  0  0  0  0  0  0  0  0  0  0
    2.0458   -0.0535   -3.9637 O   0  0  0  0  0  0  0  0  0  0  0  0
   -0.7619    1.9770   -2.4866 O   0  0  0  0  0  0  0  0  0  0  0  0
    2.7246    0.4907    2.3654 C   0  0  1  0  0  0  0  0  0  0  0  0
    3.5238   -0.8056    2.5000 C   0  0  1  0  0  0  0  0  0  0  0  0
    1.2419    0.1928    2.1307 C   0  0  1  0  0  0  0  0  0  0  0  0
    3.2093   -1.7708    1.3570 C   0  0  2  0  0  0  0  0  0  0  0  0
    1.7014   -1.9228    1.1566 C   0  0  1  0  0  0  0  0  0  0  0  0
    0.4431    1.4673    1.8768 C   0  0  0  0  0  0  0  0  0  0  0  0
    0.1909   -2.9728   -0.3508 C   0  0  0  0  0  0  0  0  0  0  0  0
   -0.3148   -2.5646   -1.5850 C   0  0  0  0  0  0  0  0  0  0  0  0
   -0.6316   -3.6476    0.5513 C   0  0  0  0  0  0  0  0  0  0  0  0
   -1.7709    2.1450    1.4139 C   0  0  0  0  0  0  0  0  0  0  0  0
    0.5507   -1.8399   -2.5622 C   0  0  0  0  0  0  0  0  0  0  0  0
   -1.6430   -2.8310   -1.9171 C   0  0  0  0  0  0  0  0  0  0  0  0
   -1.9599   -3.9141    0.2191 C   0  0  0  0  0  0  0  0  0  0  0  0
   -2.4656   -3.5057   -1.0150 C   0  0  0  0  0  0  0  0  0  0  0  0
   -3.1529    1.6449    1.2032 C   0  0  0  0  0  0  0  0  0  0  0  0
   -4.2439    2.4407    1.5524 C   0  0  0  0  0  0  0  0  0  0  0  0
   -3.3600    0.3795    0.6544 C   0  0  0  0  0  0  0  0  0  0  0  0
    1.5034    0.2898   -2.9248 C   0  0  0  0  0  0  0  0  0  0  0  0
   -5.5422    1.9711    1.3528 C   0  0  0  0  0  0  0  0  0  0  0  0
   -4.6581   -0.0902    0.4547 C   0  0  0  0  0  0  0  0  0  0  0  0
   -5.7492    0.7056    0.8040 C   0  0  0  0  0  0  0  0  0  0  0  0
    1.6126    1.6599   -2.3631 C   0  0  0  0  0  0  0  0  0  0  0  0
    0.4773    2.4459   -2.1669 C   0  0  0  0  0  0  0  0  0  0  0  0
    2.8723    2.1591   -2.0319 C   0  0  0  0  0  0  0  0  0  0  0  0
    0.6014    3.7311   -1.6395 C   0  0  0  0  0  0  0  0  0  0  0  0
    2.9965    3.4445   -1.5045 C   0  0  0  0  0  0  0  0  0  0  0  0
    1.8611    4.2305   -1.3081 C   0  0  0  0  0  0  0  0  0  0  0  0
    3.1294    1.0892    1.5400 H   0  0  0  0  0  0  0  0  0  0  0  0
    3.3417   -1.2776    3.4726 H   0  0  0  0  0  0  0  0  0  0  0  0
    0.7996   -0.3168    2.9977 H   0  0  0  0  0  0  0  0  0  0  0  0
    3.6870   -1.4355    0.4286 H   0  0  0  0  0  0  0  0  0  0  0  0
    1.2665   -2.4303    2.0275 H   0  0  0  0  0  0  0  0  0  0  0  0
    0.8234    1.9741    0.9832 H   0  0  0  0  0  0  0  0  0  0  0  0
    0.5126    2.1443    2.7356 H   0  0  0  0  0  0  0  0  0  0  0  0
    2.4984    0.7419    4.2938 H   0  0  0  0  0  0  0  0  0  0  0  0
    5.1097   -0.0661    1.6124 H   0  0  0  0  0  0  0  0  0  0  0  0
    3.3397   -3.3719    2.4812 H   0  0  0  0  0  0  0  0  0  0  0  0
   -0.2531   -3.9916    1.5095 H   0  0  0  0  0  0  0  0  0  0  0  0
    1.5227   -2.3425   -2.6448 H   0  0  0  0  0  0  0  0  0  0  0  0
    0.0940   -1.8413   -3.5598 H   0  0  0  0  0  0  0  0  0  0  0  0
   -2.0410   -2.5110   -2.8771 H   0  0  0  0  0  0  0  0  0  0  0  0
   -2.5950   -4.4432    0.9243 H   0  0  0  0  0  0  0  0  0  0  0  0
   -4.0992    3.4279    1.9834 H   0  0  0  0  0  0  0  0  0  0  0  0
   -2.5284   -0.2561    0.3618 H   0  0  0  0  0  0  0  0  0  0  0  0
   -3.9434   -3.4085   -2.2250 H   0  0  0  0  0  0  0  0  0  0  0  0
   -6.3918    2.5905    1.6250 H   0  0  0  0  0  0  0  0  0  0  0  0
   -4.8197   -1.0743    0.0246 H   0  0  0  0  0  0  0  0  0  0  0  0
   -6.7599    0.3400    0.6479 H   0  0  0  0  0  0  0  0  0  0  0  0
    3.7642    1.5552   -2.1778 H   0  0  0  0  0  0  0  0  0  0  0  0
   -0.2746    4.3542   -1.4804 H   0  0  0  0  0  0  0  0  0  0  0  0
    3.9771    3.8327   -1.2453 H   0  0  0  0  0  0  0  0  0  0  0  0
    1.9577    5.2309   -0.8964 H   0  0  0  0  0  0  0  0  0  0  0  0
   -1.4241    2.6558   -2.2707 H   0  0  0  0  0  0  0  0  0  0  0  0
  1 14  1  0  0  0  0
  1 16  1  0  0  0  0
  2 12  1  0  0  0  0
  2 46  1  0  0  0  0
  3 16  1  0  0  0  0
  3 18  1  0  0  0  0
  4 13  1  0  0  0  0
  4 47  1  0  0  0  0
  5 15  1  0  0  0  0
  5 48  1  0  0  0  0
  6 17  1  0  0  0  0
  6 21  1  0  0  0  0
  7 22  1  0  0  0  0
  7 29  1  0  0  0  0
  8 21  2  0  0  0  0
  9 25  1  0  0  0  0
  9 56  1  0  0  0  0
 10 29  2  0  0  0  0
 11 34  1  0  0  0  0
 11 64  1  0  0  0  0
 12 13  1  0  0  0  0
 12 14  1  0  0  0  0
 12 39  1  0  0  0  0
 13 15  1  0  0  0  0
 13 40  1  0  0  0  0
 14 17  1  0  0  0  0
 14 41  1  0  0  0  0
 15 16  1  0  0  0  0
 15 42  1  0  0  0  0
 16 43  1  0  0  0  0
 17 44  1  0  0  0  0
 17 45  1  0  0  0  0
 18 19  2  0  0  0  0
 18 20  1  0  0  0  0
 19 22  1  0  0  0  0
 19 23  1  0  0  0  0
 20 24  2  0  0  0  0
 20 49  1  0  0  0  0
 21 26  1  0  0  0  0
 22 50  1  0  0  0  0
 22 51  1  0  0  0  0
 23 25  2  0  0  0  0
 23 52  1  0  0  0  0
 24 25  1  0  0  0  0
 24 53  1  0  0  0  0
 26 27  2  0  0  0  0
 26 28  1  0  0  0  0
 27 30  1  0  0  0  0
 27 54  1  0  0  0  0
 28 31  2  0  0  0  0
 28 55  1  0  0  0  0
 29 33  1  0  0  0  0
 30 32  2  0  0  0  0
 30 57  1  0  0  0  0
 31 32  1  0  0  0  0
 31 58  1  0  0  0  0
 32 59  1  0  0  0  0
 33 34  1  0  0  0  0
 33 35  2  0  0  0  0
 34 36  2  0  0  0  0
 35 37  1  0  0  0  0
 35 60  1  0  0  0  0
 36 38  1  0  0  0  0
 36 61  1  0  0  0  0
 37 38  2  0  0  0  0
 37 62  1  0  0  0  0
 38 63  1  0  0  0  0
M  END
> <PUBCHEM_COMPOUND_CID>
44577154

> <PUBCHEM_CONFORMER_RMSD>
1.2

> <PUBCHEM_CONFORMER_DIVERSEORDER>
1
129
90
7
161
107
8
75
127
35
57
22
131
141
152
154
169
105
81
6
37
181
21
159
168
61
2
48
68
121
95
93
164
51
50
32
146
70
85
145
101
62
143
53
86
30
157
14
3
167
71
180
184
171
100
109
84
106
45
172
29
15
186
165
92
139
153
11
73
118
18
119
182
74
177
124
76
144
42
27
122
63
54
163
179
47
91
46
49
38
185
162
72
97
110
173
40
134
34
125
52
130
13
77
79
115
39
114
96
112
117
148
58
19
123
149
36
120
174
89
55
87
166
43
170
158
160
150
16
10
178
138
176
104
31
147
188
24
12
69
78
111
82
137
175
155
116
187
44
135
83
67
9
99
59
151
108
132
60
66
126
80
33
156
5
56
28
128
94
41
142
17
140
65
113
88
183
98
26
189
133
25
4
64
136
20
102
103
23

> <PUBCHEM_MMFF94_PARTIAL_CHARGES>
55
1 -0.56
10 -0.57
11 -0.53
12 0.28
13 0.28
14 0.28
15 0.28
16 0.56
17 0.28
18 0.08
19 -0.14
2 -0.68
20 -0.15
21 0.63
22 0.42
23 -0.15
24 -0.15
25 0.08
26 0.09
27 -0.15
28 -0.15
29 0.63
3 -0.36
30 -0.15
31 -0.15
32 -0.15
33 0.09
34 0.08
35 -0.15
36 -0.15
37 -0.15
38 -0.15
4 -0.68
46 0.4
47 0.4
48 0.4
49 0.15
5 -0.68
52 0.15
53 0.15
54 0.15
55 0.15
56 0.45
57 0.15
58 0.15
59 0.15
6 -0.43
60 0.15
61 0.15
62 0.15
63 0.15
64 0.45
7 -0.43
8 -0.57
9 -0.53

> <PUBCHEM_EFFECTIVE_ROTOR_COUNT>
11.2

> <PUBCHEM_PHARMACOPHORE_FEATURES>
16
1 1 acceptor
1 10 acceptor
1 11 donor
1 2 acceptor
1 2 donor
1 3 acceptor
1 4 acceptor
1 4 donor
1 5 acceptor
1 5 donor
1 8 acceptor
1 9 donor
6 1 12 13 14 15 16 rings
6 18 19 20 23 24 25 rings
6 26 27 28 30 31 32 rings
6 33 34 35 36 37 38 rings

> <PUBCHEM_HEAVY_ATOM_COUNT>
38

> <PUBCHEM_ATOM_DEF_STEREO_COUNT>
5

> <PUBCHEM_ATOM_UDEF_STEREO_COUNT>
0

> <PUBCHEM_BOND_DEF_STEREO_COUNT>
0

> <PUBCHEM_BOND_UDEF_STEREO_COUNT>
0

> <PUBCHEM_ISOTOPIC_ATOM_COUNT>
0

> <PUBCHEM_COMPONENT_COUNT>
1

> <PUBCHEM_CACTVS_TAUTO_COUNT>
12

> <PUBCHEM_CONFORMER_ID>
02A8318200000001

> <PUBCHEM_MMFF94_ENERGY>
115.2372

> <PUBCHEM_FEATURE_SELFOVERLAP>
81.258

> <PUBCHEM_SHAPE_FINGERPRINT>
11285246 1 17325506882570453605
11421498 54 17541107892604070595
11763715 3 17265506502682878630
12156800 1 17987801959204419604
12741549 16 17183002375696450963
12788726 201 17184770514805827620
13383668 90 17105384165169240618
133893 2 16879056645499585462
14028597 1 17612594831612057039
16067690 210 17046824703743163968
16114785 44 16267377436500356666
20764821 26 17843408642342762199
21304303 282 17614012110727443120
21860390 5 17603882086619603040
238 59 17542845984206166061
3052486 1 18056761155250073961
35225 105 17842804915415951332
469060 322 17680950159703913930
474144 1 18263082266087422833
6376802 137 16052694239339209750

> <PUBCHEM_SHAPE_MULTIPOLES>
717.46
7.88
5.98
3.89
9.16
1.3
-0.56
-2.72
4.55
0.84
-2.13
-4.34
-0.65
-4.64

> <PUBCHEM_SHAPE_SELFOVERLAP>
1550.399

> <PUBCHEM_SHAPE_VOLUME>
388.2

> <PUBCHEM_COORDINATE_TYPE>
2
5
10

$$$$
