101456838
  -OEChem-08252014253D

 55 57  0     1  0  0  0  0  0999 V2000
   -1.0741    0.7176   -0.4017 O   0  0  0  0  0  0  0  0  0  0  0  0
    2.4431   -0.8769   -1.3830 O   0  0  0  0  0  0  0  0  0  0  0  0
    1.6216    1.2754   -0.8136 O   0  0  0  0  0  0  0  0  0  0  0  0
   -0.2831    4.1985   -1.2205 O   0  0  0  0  0  0  0  0  0  0  0  0
   -1.7119    4.4080    1.2835 O   0  0  0  0  0  0  0  0  0  0  0  0
   -2.7216   -0.2579    0.9319 O   0  0  0  0  0  0  0  0  0  0  0  0
    5.0828    0.1823   -0.9696 O   0  0  0  0  0  0  0  0  0  0  0  0
    4.8813    0.1662    1.8059 O   0  0  0  0  0  0  0  0  0  0  0  0
   -3.7744    2.3125    1.4729 O   0  0  0  0  0  0  0  0  0  0  0  0
    2.9355   -1.8974    2.1249 O   0  0  0  0  0  0  0  0  0  0  0  0
   -1.0534   -2.3334    1.7386 O   0  0  0  0  0  0  0  0  0  0  0  0
   -0.6792    1.8197   -1.2205 C   0  0  1  0  0  0  0  0  0  0  0  0
   -0.5959    3.0937   -0.3764 C   0  0  2  0  0  0  0  0  0  0  0  0
   -1.9223    3.3607    0.3352 C   0  0  1  0  0  0  0  0  0  0  0  0
    3.9296    0.7458   -0.3424 C   0  0  1  0  0  0  0  0  0  0  0  0
    2.7378    0.5197   -1.2710 C   0  0  1  0  0  0  0  0  0  0  0  0
    3.6975    0.0815    1.0157 C   0  0  1  0  0  0  0  0  0  0  0  0
   -2.4230    2.1111    1.0597 C   0  0  2  0  0  0  0  0  0  0  0  0
    3.3087   -1.3878    0.8470 C   0  0  2  0  0  0  0  0  0  0  0  0
    2.1384   -1.5139   -0.1382 C   0  0  2  0  0  0  0  0  0  0  0  0
    0.6665    1.4684   -1.8470 C   0  0  0  0  0  0  0  0  0  0  0  0
   -2.3787    0.8847    0.1482 C   0  0  1  0  0  0  0  0  0  0  0  0
    1.8094   -2.9708   -0.4518 C   0  0  0  0  0  0  0  0  0  0  0  0
   -2.7421   -1.4619    0.2825 C   0  0  0  0  0  0  0  0  0  0  0  0
   -1.9053   -2.5010    0.6890 C   0  0  0  0  0  0  0  0  0  0  0  0
   -3.6092   -1.6453   -0.7946 C   0  0  0  0  0  0  0  0  0  0  0  0
   -1.9356   -3.7238    0.0187 C   0  0  0  0  0  0  0  0  0  0  0  0
   -3.6396   -2.8681   -1.4651 C   0  0  0  0  0  0  0  0  0  0  0  0
   -2.8028   -3.9074   -1.0584 C   0  0  0  0  0  0  0  0  0  0  0  0
   -1.4044    1.9428   -2.0360 H   0  0  0  0  0  0  0  0  0  0  0  0
    0.2026    3.0189    0.3713 H   0  0  0  0  0  0  0  0  0  0  0  0
   -2.6753    3.7336   -0.3690 H   0  0  0  0  0  0  0  0  0  0  0  0
    4.1233    1.8146   -0.1958 H   0  0  0  0  0  0  0  0  0  0  0  0
    3.0162    0.8598   -2.2769 H   0  0  0  0  0  0  0  0  0  0  0  0
    2.9097    0.6114    1.5655 H   0  0  0  0  0  0  0  0  0  0  0  0
   -1.8371    1.9337    1.9694 H   0  0  0  0  0  0  0  0  0  0  0  0
    4.1751   -1.9654    0.5038 H   0  0  0  0  0  0  0  0  0  0  0  0
    1.2344   -1.0575    0.2845 H   0  0  0  0  0  0  0  0  0  0  0  0
    1.0145    2.2600   -2.5192 H   0  0  0  0  0  0  0  0  0  0  0  0
    0.5485    0.5433   -2.4251 H   0  0  0  0  0  0  0  0  0  0  0  0
   -3.1110    1.0039   -0.6611 H   0  0  0  0  0  0  0  0  0  0  0  0
    2.6670   -3.4733   -0.9126 H   0  0  0  0  0  0  0  0  0  0  0  0
    0.9880   -3.0286   -1.1741 H   0  0  0  0  0  0  0  0  0  0  0  0
    1.5233   -3.5224    0.4483 H   0  0  0  0  0  0  0  0  0  0  0  0
   -0.9842    4.2731   -1.8902 H   0  0  0  0  0  0  0  0  0  0  0  0
   -1.0617    4.0986    1.9370 H   0  0  0  0  0  0  0  0  0  0  0  0
    5.2317    0.6659   -1.8000 H   0  0  0  0  0  0  0  0  0  0  0  0
    5.1093    1.1077    1.8906 H   0  0  0  0  0  0  0  0  0  0  0  0
   -4.3122    2.4718    0.6786 H   0  0  0  0  0  0  0  0  0  0  0  0
    2.1453   -1.4151    2.4226 H   0  0  0  0  0  0  0  0  0  0  0  0
   -4.2829   -0.8559   -1.1152 H   0  0  0  0  0  0  0  0  0  0  0  0
   -1.2884   -4.5415    0.3245 H   0  0  0  0  0  0  0  0  0  0  0  0
   -4.3178   -3.0127   -2.3010 H   0  0  0  0  0  0  0  0  0  0  0  0
   -2.8269   -4.8597   -1.5801 H   0  0  0  0  0  0  0  0  0  0  0  0
   -0.5534   -3.1563    1.8755 H   0  0  0  0  0  0  0  0  0  0  0  0
  1 12  1  0  0  0  0
  1 22  1  0  0  0  0
  2 16  1  0  0  0  0
  2 20  1  0  0  0  0
  3 16  1  0  0  0  0
  3 21  1  0  0  0  0
  4 13  1  0  0  0  0
  4 45  1  0  0  0  0
  5 14  1  0  0  0  0
  5 46  1  0  0  0  0
  6 22  1  0  0  0  0
  6 24  1  0  0  0  0
  7 15  1  0  0  0  0
  7 47  1  0  0  0  0
  8 17  1  0  0  0  0
  8 48  1  0  0  0  0
  9 18  1  0  0  0  0
  9 49  1  0  0  0  0
 10 19  1  0  0  0  0
 10 50  1  0  0  0  0
 11 25  1  0  0  0  0
 11 55  1  0  0  0  0
 12 13  1  0  0  0  0
 12 21  1  0  0  0  0
 12 30  1  0  0  0  0
 13 14  1  0  0  0  0
 13 31  1  0  0  0  0
 14 18  1  0  0  0  0
 14 32  1  0  0  0  0
 15 16  1  0  0  0  0
 15 17  1  0  0  0  0
 15 33  1  0  0  0  0
 16 34  1  0  0  0  0
 17 19  1  0  0  0  0
 17 35  1  0  0  0  0
 18 22  1  0  0  0  0
 18 36  1  0  0  0  0
 19 20  1  0  0  0  0
 19 37  1  0  0  0  0
 20 23  1  0  0  0  0
 20 38  1  0  0  0  0
 21 39  1  0  0  0  0
 21 40  1  0  0  0  0
 22 41  1  0  0  0  0
 23 42  1  0  0  0  0
 23 43  1  0  0  0  0
 23 44  1  0  0  0  0
 24 25  1  0  0  0  0
 24 26  2  0  0  0  0
 25 27  2  0  0  0  0
 26 28  1  0  0  0  0
 26 51  1  0  0  0  0
 27 29  1  0  0  0  0
 27 52  1  0  0  0  0
 28 29  2  0  0  0  0
 28 53  1  0  0  0  0
 29 54  1  0  0  0  0
M  END
> <PUBCHEM_COMPOUND_CID>
101456838

> <PUBCHEM_CONFORMER_RMSD>
1.4

> <PUBCHEM_CONFORMER_DIVERSEORDER>
1
43
24
8
33
6
18
26
66
22
67
12
61
19
39
51
52
59
64
81
29
56
27
14
42
11
72
36
65
23
37
62
69
71
75
46
4
49
35
17
16
10
54
3
15
31
68
41
28
50
38
77
7
9
78
79
82
58
48
2
30
74
25
45
21
70
44
47
80
76
32
57
34
5
40
20
60
55
73
53
13
63

> <PUBCHEM_MMFF94_PARTIAL_CHARGES>
39
1 -0.56
10 -0.68
11 -0.53
12 0.28
13 0.28
14 0.28
15 0.28
16 0.56
17 0.28
18 0.28
19 0.28
2 -0.56
20 0.28
21 0.28
22 0.56
24 0.08
25 0.08
26 -0.15
27 -0.15
28 -0.15
29 -0.15
3 -0.56
4 -0.68
45 0.4
46 0.4
47 0.4
48 0.4
49 0.4
5 -0.68
50 0.4
51 0.15
52 0.15
53 0.15
54 0.15
55 0.45
6 -0.36
7 -0.68
8 -0.68
9 -0.68

> <PUBCHEM_EFFECTIVE_ROTOR_COUNT>
7.4

> <PUBCHEM_PHARMACOPHORE_FEATURES>
20
1 1 acceptor
1 10 acceptor
1 10 donor
1 11 donor
1 2 acceptor
1 3 acceptor
1 4 acceptor
1 4 donor
1 5 acceptor
1 5 donor
1 6 acceptor
1 7 acceptor
1 7 donor
1 8 acceptor
1 8 donor
1 9 acceptor
1 9 donor
6 1 12 13 14 18 22 rings
6 2 15 16 17 19 20 rings
6 24 25 26 27 28 29 rings

> <PUBCHEM_HEAVY_ATOM_COUNT>
29

> <PUBCHEM_ATOM_DEF_STEREO_COUNT>
10

> <PUBCHEM_ATOM_UDEF_STEREO_COUNT>
0

> <PUBCHEM_BOND_DEF_STEREO_COUNT>
0

> <PUBCHEM_BOND_UDEF_STEREO_COUNT>
0

> <PUBCHEM_ISOTOPIC_ATOM_COUNT>
0

> <PUBCHEM_COMPONENT_COUNT>
1

> <PUBCHEM_CACTVS_TAUTO_COUNT>
2

> <PUBCHEM_CONFORMER_ID>
060C1BC600000001

> <PUBCHEM_MMFF94_ENERGY>
89.2279

> <PUBCHEM_FEATURE_SELFOVERLAP>
101.624

> <PUBCHEM_SHAPE_FINGERPRINT>
10366900 7 18201993296826957628
11552529 35 18413387614354391988
12553582 1 18336840800023257839
12633257 1 18194673770753450978
12788726 201 18410013238869667627
13004483 165 18336816537958588015
14081887 123 18341890796836786754
14178342 30 18411419475613280758
14705955 166 16987741020716414769
14787075 74 17904208379610515252
17627616 140 17040349684346592172
19026451 147 17693655222389564319
21315764 21 16806425024888268287
21421861 104 18049746284203245769
21452121 199 17981042230404713429
23559900 14 17908412899194775423
35225 105 18128544764497060953
392239 28 18194963170103604408
463206 1 18049440645535286359
5265222 85 17617411410149622902
532947 4 16390138570955682493
6287921 2 17188970125954709635

> <PUBCHEM_SHAPE_MULTIPOLES>
532.24
7.86
5.69
1.7
6.17
3.21
0.22
-4.39
0.77
-5.48
0.2
0.53
0.05
-2.16

> <PUBCHEM_SHAPE_SELFOVERLAP>
1118.129

> <PUBCHEM_SHAPE_VOLUME>
297.2

> <PUBCHEM_COORDINATE_TYPE>
2
5
10

$$$$
