44577126
  -OEChem-08252014233D

 64 67  0     1  0  0  0  0  0999 V2000
   -1.7690   -1.2001    0.8288 O   0  0  0  0  0  0  0  0  0  0  0  0
    2.3050   -1.1484    0.3121 O   0  0  0  0  0  0  0  0  0  0  0  0
    1.1889   -1.9320    2.8608 O   0  0  0  0  0  0  0  0  0  0  0  0
   -2.1357   -1.1671   -1.4752 O   0  0  0  0  0  0  0  0  0  0  0  0
    0.5392   -1.9921   -1.8904 O   0  0  0  0  0  0  0  0  0  0  0  0
   -3.0130   -1.6125    3.2449 O   0  0  0  0  0  0  0  0  0  0  0  0
    3.0444   -2.9514   -0.9133 O   0  0  0  0  0  0  0  0  0  0  0  0
   -2.0503    1.9078   -0.7434 O   0  0  0  0  0  0  0  0  0  0  0  0
   -7.3385    0.1252   -0.1652 O   0  0  0  0  0  0  0  0  0  0  0  0
   -0.4530    2.4604   -2.3062 O   0  0  0  0  0  0  0  0  0  0  0  0
    2.0209    2.1072   -1.1820 O   0  0  0  0  0  0  0  0  0  0  0  0
    1.0237   -1.7618    0.4623 C   0  0  1  0  0  0  0  0  0  0  0  0
    0.4449   -1.3244    1.8080 C   0  0  1  0  0  0  0  0  0  0  0  0
    0.1178   -1.3379   -0.6938 C   0  0  2  0  0  0  0  0  0  0  0  0
   -1.0252   -1.7337    1.9257 C   0  0  1  0  0  0  0  0  0  0  0  0
   -1.3386   -1.7187   -0.4275 C   0  0  1  0  0  0  0  0  0  0  0  0
   -1.6572   -1.2061    3.2099 C   0  0  0  0  0  0  0  0  0  0  0  0
   -3.4233   -0.8341   -1.1543 C   0  0  0  0  0  0  0  0  0  0  0  0
    3.2194   -1.8570   -0.4003 C   0  0  0  0  0  0  0  0  0  0  0  0
   -3.8736    0.4796   -1.2846 C   0  0  0  0  0  0  0  0  0  0  0  0
   -4.2887   -1.8256   -0.6919 C   0  0  0  0  0  0  0  0  0  0  0  0
    4.5026   -1.1147   -0.4830 C   0  0  0  0  0  0  0  0  0  0  0  0
   -2.9608    1.5538   -1.7764 C   0  0  0  0  0  0  0  0  0  0  0  0
   -5.1894    0.8020   -0.9525 C   0  0  0  0  0  0  0  0  0  0  0  0
   -5.6045   -1.5032   -0.3598 C   0  0  0  0  0  0  0  0  0  0  0  0
   -6.0549   -0.1893   -0.4901 C   0  0  0  0  0  0  0  0  0  0  0  0
    5.3318   -1.2758   -1.5929 C   0  0  0  0  0  0  0  0  0  0  0  0
    4.8780   -0.2549    0.5491 C   0  0  0  0  0  0  0  0  0  0  0  0
    6.5366   -0.5771   -1.6708 C   0  0  0  0  0  0  0  0  0  0  0  0
    6.0827    0.4439    0.4713 C   0  0  0  0  0  0  0  0  0  0  0  0
    6.9121    0.2828   -0.6387 C   0  0  0  0  0  0  0  0  0  0  0  0
   -0.8271    2.3471   -1.1493 C   0  0  0  0  0  0  0  0  0  0  0  0
    0.0257    2.6825    0.0190 C   0  0  0  0  0  0  0  0  0  0  0  0
    1.4127    2.5494   -0.0454 C   0  0  0  0  0  0  0  0  0  0  0  0
   -0.5779    3.1343    1.1924 C   0  0  0  0  0  0  0  0  0  0  0  0
    2.1961    2.8684    1.0637 C   0  0  0  0  0  0  0  0  0  0  0  0
    0.2056    3.4532    2.3016 C   0  0  0  0  0  0  0  0  0  0  0  0
    1.5926    3.3202    2.2373 C   0  0  0  0  0  0  0  0  0  0  0  0
    1.1385   -2.8546    0.4765 H   0  0  0  0  0  0  0  0  0  0  0  0
    0.5527   -0.2382    1.9149 H   0  0  0  0  0  0  0  0  0  0  0  0
    0.2124   -0.2645   -0.8760 H   0  0  0  0  0  0  0  0  0  0  0  0
   -1.1323   -2.8270    1.9194 H   0  0  0  0  0  0  0  0  0  0  0  0
   -1.4700   -2.8086   -0.4493 H   0  0  0  0  0  0  0  0  0  0  0  0
   -1.6366   -0.1113    3.2325 H   0  0  0  0  0  0  0  0  0  0  0  0
   -1.1500   -1.5963    4.0974 H   0  0  0  0  0  0  0  0  0  0  0  0
    1.0885   -2.8960    2.7829 H   0  0  0  0  0  0  0  0  0  0  0  0
    0.4744   -2.9519   -1.7480 H   0  0  0  0  0  0  0  0  0  0  0  0
   -3.3972   -1.2602    4.0658 H   0  0  0  0  0  0  0  0  0  0  0  0
   -3.9556   -2.8551   -0.5933 H   0  0  0  0  0  0  0  0  0  0  0  0
   -2.4503    1.2016   -2.6819 H   0  0  0  0  0  0  0  0  0  0  0  0
   -3.5249    2.4517   -2.0549 H   0  0  0  0  0  0  0  0  0  0  0  0
   -5.5426    1.8258   -1.0506 H   0  0  0  0  0  0  0  0  0  0  0  0
   -6.2745   -2.2800   -0.0016 H   0  0  0  0  0  0  0  0  0  0  0  0
    5.0519   -1.9394   -2.4068 H   0  0  0  0  0  0  0  0  0  0  0  0
    4.2570   -0.1180    1.4305 H   0  0  0  0  0  0  0  0  0  0  0  0
    7.1820   -0.7019   -2.5354 H   0  0  0  0  0  0  0  0  0  0  0  0
    6.3760    1.1121    1.2758 H   0  0  0  0  0  0  0  0  0  0  0  0
    7.8501    0.8267   -0.6991 H   0  0  0  0  0  0  0  0  0  0  0  0
   -7.4784    1.0759   -0.3156 H   0  0  0  0  0  0  0  0  0  0  0  0
   -1.6546    3.2597    1.2698 H   0  0  0  0  0  0  0  0  0  0  0  0
    3.2777    2.7691    1.0280 H   0  0  0  0  0  0  0  0  0  0  0  0
   -0.2639    3.8071    3.2149 H   0  0  0  0  0  0  0  0  0  0  0  0
    2.2026    3.5685    3.1009 H   0  0  0  0  0  0  0  0  0  0  0  0
    2.9813    2.0660   -1.0333 H   0  0  0  0  0  0  0  0  0  0  0  0
  1 15  1  0  0  0  0
  1 16  1  0  0  0  0
  2 12  1  0  0  0  0
  2 19  1  0  0  0  0
  3 13  1  0  0  0  0
  3 46  1  0  0  0  0
  4 16  1  0  0  0  0
  4 18  1  0  0  0  0
  5 14  1  0  0  0  0
  5 47  1  0  0  0  0
  6 17  1  0  0  0  0
  6 48  1  0  0  0  0
  7 19  2  0  0  0  0
  8 23  1  0  0  0  0
  8 32  1  0  0  0  0
  9 26  1  0  0  0  0
  9 59  1  0  0  0  0
 10 32  2  0  0  0  0
 11 34  1  0  0  0  0
 11 64  1  0  0  0  0
 12 13  1  0  0  0  0
 12 14  1  0  0  0  0
 12 39  1  0  0  0  0
 13 15  1  0  0  0  0
 13 40  1  0  0  0  0
 14 16  1  0  0  0  0
 14 41  1  0  0  0  0
 15 17  1  0  0  0  0
 15 42  1  0  0  0  0
 16 43  1  0  0  0  0
 17 44  1  0  0  0  0
 17 45  1  0  0  0  0
 18 20  2  0  0  0  0
 18 21  1  0  0  0  0
 19 22  1  0  0  0  0
 20 23  1  0  0  0  0
 20 24  1  0  0  0  0
 21 25  2  0  0  0  0
 21 49  1  0  0  0  0
 22 27  2  0  0  0  0
 22 28  1  0  0  0  0
 23 50  1  0  0  0  0
 23 51  1  0  0  0  0
 24 26  2  0  0  0  0
 24 52  1  0  0  0  0
 25 26  1  0  0  0  0
 25 53  1  0  0  0  0
 27 29  1  0  0  0  0
 27 54  1  0  0  0  0
 28 30  2  0  0  0  0
 28 55  1  0  0  0  0
 29 31  2  0  0  0  0
 29 56  1  0  0  0  0
 30 31  1  0  0  0  0
 30 57  1  0  0  0  0
 31 58  1  0  0  0  0
 32 33  1  0  0  0  0
 33 34  1  0  0  0  0
 33 35  2  0  0  0  0
 34 36  2  0  0  0  0
 35 37  1  0  0  0  0
 35 60  1  0  0  0  0
 36 38  1  0  0  0  0
 36 61  1  0  0  0  0
 37 38  2  0  0  0  0
 37 62  1  0  0  0  0
 38 63  1  0  0  0  0
M  END
> <PUBCHEM_COMPOUND_CID>
44577126

> <PUBCHEM_CONFORMER_RMSD>
1.2

> <PUBCHEM_CONFORMER_DIVERSEORDER>
1
43
17
35
18
52
36
7
15
29
23
14
50
24
53
27
20
39
48
25
47
32
34
38
46
2
19
16
8
6
45
28
41
51
3
13
40
9
33
21
10
44
12
37
4
49
42
22
31
5
30
26
11

> <PUBCHEM_MMFF94_PARTIAL_CHARGES>
55
1 -0.56
10 -0.57
11 -0.53
12 0.28
13 0.28
14 0.28
15 0.28
16 0.56
17 0.28
18 0.08
19 0.63
2 -0.43
20 -0.14
21 -0.15
22 0.09
23 0.42
24 -0.15
25 -0.15
26 0.08
27 -0.15
28 -0.15
29 -0.15
3 -0.68
30 -0.15
31 -0.15
32 0.63
33 0.09
34 0.08
35 -0.15
36 -0.15
37 -0.15
38 -0.15
4 -0.36
46 0.4
47 0.4
48 0.4
49 0.15
5 -0.68
52 0.15
53 0.15
54 0.15
55 0.15
56 0.15
57 0.15
58 0.15
59 0.45
6 -0.68
60 0.15
61 0.15
62 0.15
63 0.15
64 0.45
7 -0.57
8 -0.43
9 -0.53

> <PUBCHEM_EFFECTIVE_ROTOR_COUNT>
11.2

> <PUBCHEM_PHARMACOPHORE_FEATURES>
16
1 1 acceptor
1 10 acceptor
1 11 donor
1 3 acceptor
1 3 donor
1 4 acceptor
1 5 acceptor
1 5 donor
1 6 acceptor
1 6 donor
1 7 acceptor
1 9 donor
6 1 12 13 14 15 16 rings
6 18 20 21 24 25 26 rings
6 22 27 28 29 30 31 rings
6 33 34 35 36 37 38 rings

> <PUBCHEM_HEAVY_ATOM_COUNT>
38

> <PUBCHEM_ATOM_DEF_STEREO_COUNT>
5

> <PUBCHEM_ATOM_UDEF_STEREO_COUNT>
0

> <PUBCHEM_BOND_DEF_STEREO_COUNT>
0

> <PUBCHEM_BOND_UDEF_STEREO_COUNT>
0

> <PUBCHEM_ISOTOPIC_ATOM_COUNT>
0

> <PUBCHEM_COMPONENT_COUNT>
1

> <PUBCHEM_CACTVS_TAUTO_COUNT>
12

> <PUBCHEM_CONFORMER_ID>
02A8316600000001

> <PUBCHEM_MMFF94_ENERGY>
117.4078

> <PUBCHEM_FEATURE_SELFOVERLAP>
81.259

> <PUBCHEM_SHAPE_FINGERPRINT>
10032420 55 17896018988887990189
10290309 65 18192142707956329903
11421498 54 15936677169294509853
12166972 35 17489584610270020787
12422481 6 17905565035003483993
12788726 201 18340201874199676666
13402501 40 18335696165558682532
13726171 33 18193554472022132885
14787075 74 18114178588449601743
14955137 171 18131068246914807903
15406563 5 15482378803351809210
15968369 153 18339640156786175564
17909252 39 18202282464416668942
17980427 23 16701477743664894834
19319366 153 17386275507242560835
20691752 17 17459169890158778717
20764821 26 17386852880038247691
21792965 270 17388837536459058668
23352939 185 17988923357663685378
354706 132 17604437275888608102
469060 322 16952567678267076608
5081480 168 17703210871882554481
513202 73 14189305798674153174
5265222 85 17329431056887551100

> <PUBCHEM_SHAPE_MULTIPOLES>
717.46
13.34
3.97
2.61
3.59
3.61
2.12
-5.09
-6.13
1.21
1.09
-0.82
-0.14
1.73

> <PUBCHEM_SHAPE_SELFOVERLAP>
1554.591

> <PUBCHEM_SHAPE_VOLUME>
386.1

> <PUBCHEM_COORDINATE_TYPE>
2
5
10

$$$$
