44577174
  -OEChem-08252014063D

 55 57  0     1  0  0  0  0  0999 V2000
   -2.5456    0.0595    0.4495 O   0  0  0  0  0  0  0  0  0  0  0  0
   -0.5827    0.1876   -0.8053 O   0  0  0  0  0  0  0  0  0  0  0  0
   -3.1677   -3.8393   -0.6815 O   0  0  0  0  0  0  0  0  0  0  0  0
   -5.3419   -2.3056    0.4484 O   0  0  0  0  0  0  0  0  0  0  0  0
   -1.3906   -2.1002   -2.2619 O   0  0  0  0  0  0  0  0  0  0  0  0
   -4.3809    1.5811    1.8174 O   0  0  0  0  0  0  0  0  0  0  0  0
    1.8578    0.2811    0.7640 O   0  0  0  0  0  0  0  0  0  0  0  0
    4.0110   -2.4090    1.6406 O   0  0  0  0  0  0  0  0  0  0  0  0
    5.6478   -0.5229    0.5795 O   0  0  0  0  0  0  0  0  0  0  0  0
    2.3635   -0.7073    2.7898 O   0  0  0  0  0  0  0  0  0  0  0  0
    0.0799    5.6441   -0.3103 O   0  0  0  0  0  0  0  0  0  0  0  0
   -3.2823   -2.4203   -0.7983 C   0  0  1  0  0  0  0  0  0  0  0  0
   -3.9766   -1.8969    0.4591 C   0  0  1  0  0  0  0  0  0  0  0  0
   -1.8902   -1.8086   -0.9571 C   0  0  2  0  0  0  0  0  0  0  0  0
   -3.9065   -0.3693    0.5223 C   0  0  1  0  0  0  0  0  0  0  0  0
   -1.9275   -0.2899   -0.7869 C   0  0  1  0  0  0  0  0  0  0  0  0
   -4.4893    0.1694    1.8250 C   0  0  0  0  0  0  0  0  0  0  0  0
   -0.4106    1.5381   -0.6712 C   0  0  0  0  0  0  0  0  0  0  0  0
    0.3255    2.0617    0.3916 C   0  0  0  0  0  0  0  0  0  0  0  0
    3.4283   -1.4637    0.7670 C   0  0  1  0  0  0  0  0  0  0  0  0
   -0.9817    2.3943   -1.6129 C   0  0  0  0  0  0  0  0  0  0  0  0
    0.9445    1.1600    1.4081 C   0  0  0  0  0  0  0  0  0  0  0  0
    4.1658    0.0065   -1.2260 C   0  0  0  0  0  0  0  0  0  0  0  0
    4.5337   -0.6678    0.0774 C   0  0  0  0  0  0  0  0  0  0  0  0
    3.5853   -1.0098   -2.2029 C   0  0  0  0  0  0  0  0  0  0  0  0
    0.4905    3.4415    0.5128 C   0  0  0  0  0  0  0  0  0  0  0  0
    2.5822   -2.1873   -0.2358 C   0  0  0  0  0  0  0  0  0  0  0  0
    2.5035   -0.6076    1.5783 C   0  0  0  0  0  0  0  0  0  0  0  0
    2.6519   -1.9908   -1.5606 C   0  0  0  0  0  0  0  0  0  0  0  0
   -0.8167    3.7740   -1.4916 C   0  0  0  0  0  0  0  0  0  0  0  0
   -0.0806    4.2976   -0.4286 C   0  0  0  0  0  0  0  0  0  0  0  0
   -3.8951   -2.2360   -1.6885 H   0  0  0  0  0  0  0  0  0  0  0  0
   -3.5100   -2.3381    1.3484 H   0  0  0  0  0  0  0  0  0  0  0  0
   -1.1893   -2.2569   -0.2428 H   0  0  0  0  0  0  0  0  0  0  0  0
   -4.4601    0.0860   -0.3103 H   0  0  0  0  0  0  0  0  0  0  0  0
   -2.4842    0.1574   -1.6206 H   0  0  0  0  0  0  0  0  0  0  0  0
   -3.9265   -0.2033    2.6874 H   0  0  0  0  0  0  0  0  0  0  0  0
   -5.5435   -0.1015    1.9361 H   0  0  0  0  0  0  0  0  0  0  0  0
   -2.6117   -4.0352    0.0919 H   0  0  0  0  0  0  0  0  0  0  0  0
   -5.7684   -1.9080   -0.3299 H   0  0  0  0  0  0  0  0  0  0  0  0
   -1.9985   -1.7089   -2.9122 H   0  0  0  0  0  0  0  0  0  0  0  0
   -4.7524    1.9022    2.6567 H   0  0  0  0  0  0  0  0  0  0  0  0
   -1.5416    2.0070   -2.4593 H   0  0  0  0  0  0  0  0  0  0  0  0
    0.1572    0.5827    1.9089 H   0  0  0  0  0  0  0  0  0  0  0  0
    1.4810    1.7374    2.1709 H   0  0  0  0  0  0  0  0  0  0  0  0
    3.4614    0.8194   -1.0281 H   0  0  0  0  0  0  0  0  0  0  0  0
    5.0636    0.4610   -1.6597 H   0  0  0  0  0  0  0  0  0  0  0  0
    4.3970   -1.5732   -2.6789 H   0  0  0  0  0  0  0  0  0  0  0  0
    3.0575   -0.4743   -3.0003 H   0  0  0  0  0  0  0  0  0  0  0  0
    1.8727   -2.9231    0.1372 H   0  0  0  0  0  0  0  0  0  0  0  0
    1.0639    3.8535    1.3398 H   0  0  0  0  0  0  0  0  0  0  0  0
    2.0128   -2.5763   -2.2154 H   0  0  0  0  0  0  0  0  0  0  0  0
   -1.2602    4.4358   -2.2305 H   0  0  0  0  0  0  0  0  0  0  0  0
    4.5355   -1.9265    2.3028 H   0  0  0  0  0  0  0  0  0  0  0  0
    0.6150    5.8299    0.4804 H   0  0  0  0  0  0  0  0  0  0  0  0
  1 15  1  0  0  0  0
  1 16  1  0  0  0  0
  2 16  1  0  0  0  0
  2 18  1  0  0  0  0
  3 12  1  0  0  0  0
  3 39  1  0  0  0  0
  4 13  1  0  0  0  0
  4 40  1  0  0  0  0
  5 14  1  0  0  0  0
  5 41  1  0  0  0  0
  6 17  1  0  0  0  0
  6 42  1  0  0  0  0
  7 22  1  0  0  0  0
  7 28  1  0  0  0  0
  8 20  1  0  0  0  0
  8 54  1  0  0  0  0
  9 24  2  0  0  0  0
 10 28  2  0  0  0  0
 11 31  1  0  0  0  0
 11 55  1  0  0  0  0
 12 13  1  0  0  0  0
 12 14  1  0  0  0  0
 12 32  1  0  0  0  0
 13 15  1  0  0  0  0
 13 33  1  0  0  0  0
 14 16  1  0  0  0  0
 14 34  1  0  0  0  0
 15 17  1  0  0  0  0
 15 35  1  0  0  0  0
 16 36  1  0  0  0  0
 17 37  1  0  0  0  0
 17 38  1  0  0  0  0
 18 19  2  0  0  0  0
 18 21  1  0  0  0  0
 19 22  1  0  0  0  0
 19 26  1  0  0  0  0
 20 24  1  0  0  0  0
 20 27  1  0  0  0  0
 20 28  1  0  0  0  0
 21 30  2  0  0  0  0
 21 43  1  0  0  0  0
 22 44  1  0  0  0  0
 22 45  1  0  0  0  0
 23 24  1  0  0  0  0
 23 25  1  0  0  0  0
 23 46  1  0  0  0  0
 23 47  1  0  0  0  0
 25 29  1  0  0  0  0
 25 48  1  0  0  0  0
 25 49  1  0  0  0  0
 26 31  2  0  0  0  0
 26 51  1  0  0  0  0
 27 29  2  0  0  0  0
 27 50  1  0  0  0  0
 29 52  1  0  0  0  0
 30 31  1  0  0  0  0
 30 53  1  0  0  0  0
M  END
> <PUBCHEM_COMPOUND_CID>
44577174

> <PUBCHEM_CONFORMER_RMSD>
1.2

> <PUBCHEM_CONFORMER_DIVERSEORDER>
1
154
10
178
163
30
162
49
134
194
152
184
213
107
160
6
61
204
174
81
96
149
87
110
223
19
180
65
193
121
102
129
212
189
211
73
55
173
219
186
166
2
130
118
13
111
15
40
136
5
109
206
124
128
150
168
114
70
54
112
83
181
185
21
137
201
135
28
91
144
171
143
146
9
42
14
92
157
75
77
62
197
225
209
138
94
95
123
59
108
22
17
104
46
35
175
126
53
159
215
205
72
4
167
37
16
131
140
216
27
69
24
41
99
125
78
50
161
165
23
155
198
74
221
68
18
60
117
182
80
8
222
210
64
113
106
79
100
86
145
156
207
169
3
85
220
141
151
170
172
63
71
33
188
31
218
43
116
98
48
51
76
214
122
179
38
101
176
32
224
158
208
195
153
34
90
66
164
200
142
57
93
177
199
105
191
196
148
132
36
12
56
89
11
88
26
84
47
202
7
115
44
97
217
147
187
20
203
45
190
82
133
192
127
39
103
119
183
139
25
58
29
120
67
52

> <PUBCHEM_MMFF94_PARTIAL_CHARGES>
42
1 -0.56
10 -0.57
11 -0.53
12 0.28
13 0.28
14 0.28
15 0.28
16 0.56
17 0.28
18 0.08
19 -0.14
2 -0.36
20 0.54
21 -0.15
22 0.42
23 0.06
24 0.45
25 0.14
26 -0.15
27 -0.29
28 0.66
29 -0.29
3 -0.68
30 -0.15
31 0.08
39 0.4
4 -0.68
40 0.4
41 0.4
42 0.4
43 0.15
5 -0.68
50 0.15
51 0.15
52 0.15
53 0.15
54 0.4
55 0.45
6 -0.68
7 -0.43
8 -0.68
9 -0.57

> <PUBCHEM_EFFECTIVE_ROTOR_COUNT>
8.8

> <PUBCHEM_PHARMACOPHORE_FEATURES>
18
1 1 acceptor
1 10 acceptor
1 11 donor
1 2 acceptor
1 3 acceptor
1 3 donor
1 4 acceptor
1 4 donor
1 5 acceptor
1 5 donor
1 6 acceptor
1 6 donor
1 8 acceptor
1 8 donor
1 9 acceptor
6 1 12 13 14 15 16 rings
6 18 19 21 26 30 31 rings
6 20 23 24 25 27 29 rings

> <PUBCHEM_HEAVY_ATOM_COUNT>
31

> <PUBCHEM_ATOM_DEF_STEREO_COUNT>
5

> <PUBCHEM_ATOM_UDEF_STEREO_COUNT>
1

> <PUBCHEM_BOND_DEF_STEREO_COUNT>
0

> <PUBCHEM_BOND_UDEF_STEREO_COUNT>
0

> <PUBCHEM_ISOTOPIC_ATOM_COUNT>
0

> <PUBCHEM_COMPONENT_COUNT>
1

> <PUBCHEM_CACTVS_TAUTO_COUNT>
6

> <PUBCHEM_CONFORMER_ID>
02A8319600000001

> <PUBCHEM_MMFF94_ENERGY>
72.7234

> <PUBCHEM_FEATURE_SELFOVERLAP>
91.434

> <PUBCHEM_SHAPE_FINGERPRINT>
10369192 42 17273684555181475576
10675989 125 16255864025545701280
10764073 3 16051566105733101801
11135609 12 17985832528301495410
11421498 54 18186237316950122826
12128747 34 16773243885659515027
12160290 23 17982991376489192437
12553582 1 18337377322990230694
12714826 92 18338792304234387532
12788726 201 18116447954858979468
133893 2 17973158723438051757
15664445 248 18268446774808769500
17818456 19 17988089997381509379
17974551 9 17131827673077054595
1813 80 18408891758273176079
20600515 1 18129963224723022685
20739085 24 18269550709988985888
21033648 29 17203328884225026851
21330990 113 17841167562335008897
21421861 104 17982746452243125603
22907989 373 18119249467405355892
23559900 14 18127976515171375871
23598288 3 17971742277483335936
4409770 3 18045490924979819269
57527585 103 16046508287878832958
6287921 2 17841988090003782750
7097593 13 18270119162059218681

> <PUBCHEM_SHAPE_MULTIPOLES>
573.4
9.31
5.27
2.05
0.29
7.11
0.26
-8.58
2.77
-2.72
-1.71
0.73
-0.42
-0.64

> <PUBCHEM_SHAPE_SELFOVERLAP>
1220.465

> <PUBCHEM_SHAPE_VOLUME>
314.2

> <PUBCHEM_COORDINATE_TYPE>
2
5
10

$$$$
