101865246
  -OEChem-08252014033D

 67 71  0     1  0  0  0  0  0999 V2000
   -0.4723    3.9778    0.2792 O   0  0  0  0  0  0  0  0  0  0  0  0
    2.2206    1.5253   -0.1719 O   0  0  0  0  0  0  0  0  0  0  0  0
    2.4657    3.2778   -2.5177 O   0  0  0  0  0  0  0  0  0  0  0  0
    1.7201    5.9834   -1.8613 O   0  0  0  0  0  0  0  0  0  0  0  0
   -1.5141    6.4603    0.8212 O   0  0  0  0  0  0  0  0  0  0  0  0
   -3.0394   -0.4869    0.0606 O   0  0  0  0  0  0  0  0  0  0  0  0
   -0.7898   -0.0287    4.3293 O   0  0  0  0  0  0  0  0  0  0  0  0
    2.1524    0.4895   -2.2358 O   0  0  0  0  0  0  0  0  0  0  0  0
   -2.6586   -1.8174    3.8925 O   0  0  0  0  0  0  0  0  0  0  0  0
   -7.4200   -3.6624   -3.2062 O   0  0  0  0  0  0  0  0  0  0  0  0
    7.9655   -4.9181    0.7385 O   0  0  0  0  0  0  0  0  0  0  0  0
    1.2396    2.4706   -0.5981 C   0  0  2  0  0  0  0  0  0  0  0  0
    1.9469    3.6652   -1.2440 C   0  0  2  0  0  0  0  0  0  0  0  0
    0.9825    4.8309   -1.4622 C   0  0  1  0  0  0  0  0  0  0  0  0
    0.4191    2.9122    0.6234 C   0  0  2  0  0  0  0  0  0  0  0  0
    0.2112    5.1451   -0.1789 C   0  0  1  0  0  0  0  0  0  0  0  0
   -0.4153    1.7780    1.1857 C   0  0  0  0  0  0  0  0  0  0  0  0
   -0.8361    6.2316   -0.4007 C   0  0  0  0  0  0  0  0  0  0  0  0
   -1.3602    1.1423    0.3798 C   0  0  0  0  0  0  0  0  0  0  0  0
   -0.2368    1.3722    2.5091 C   0  0  0  0  0  0  0  0  0  0  0  0
   -2.1267    0.0994    0.9005 C   0  0  0  0  0  0  0  0  0  0  0  0
   -1.0018    0.3291    3.0324 C   0  0  0  0  0  0  0  0  0  0  0  0
   -1.9468   -0.3048    2.2222 C   0  0  0  0  0  0  0  0  0  0  0  0
    2.5806    0.5926   -1.0972 C   0  0  0  0  0  0  0  0  0  0  0  0
   -2.7669   -1.4084    2.7447 C   0  0  0  0  0  0  0  0  0  0  0  0
    3.5961   -0.2893   -0.4785 C   0  0  0  0  0  0  0  0  0  0  0  0
   -3.8216   -1.5204    0.5531 C   0  0  0  0  0  0  0  0  0  0  0  0
   -3.7366   -2.0030    1.8029 C   0  0  0  0  0  0  0  0  0  0  0  0
   -4.7658   -2.0812   -0.4342 C   0  0  0  0  0  0  0  0  0  0  0  0
    4.1169   -1.2987   -1.1907 C   0  0  0  0  0  0  0  0  0  0  0  0
   -6.1367   -2.0629   -0.1766 C   0  0  0  0  0  0  0  0  0  0  0  0
   -4.2870   -2.6303   -1.6236 C   0  0  0  0  0  0  0  0  0  0  0  0
    5.1242   -2.2477   -0.6844 C   0  0  0  0  0  0  0  0  0  0  0  0
   -7.0285   -2.5940   -1.1082 C   0  0  0  0  0  0  0  0  0  0  0  0
   -5.1788   -3.1616   -2.5553 C   0  0  0  0  0  0  0  0  0  0  0  0
   -6.5495   -3.1434   -2.2975 C   0  0  0  0  0  0  0  0  0  0  0  0
    5.9021   -1.9135    0.4241 C   0  0  0  0  0  0  0  0  0  0  0  0
    5.3007   -3.4796   -1.3145 C   0  0  0  0  0  0  0  0  0  0  0  0
    6.8567   -2.8111    0.9024 C   0  0  0  0  0  0  0  0  0  0  0  0
    6.2553   -4.3771   -0.8363 C   0  0  0  0  0  0  0  0  0  0  0  0
    7.0333   -4.0428    0.2721 C   0  0  0  0  0  0  0  0  0  0  0  0
    0.5727    2.0214   -1.3458 H   0  0  0  0  0  0  0  0  0  0  0  0
    2.8102    3.9759   -0.6437 H   0  0  0  0  0  0  0  0  0  0  0  0
    0.2888    4.5882   -2.2764 H   0  0  0  0  0  0  0  0  0  0  0  0
    1.0984    3.2694    1.4098 H   0  0  0  0  0  0  0  0  0  0  0  0
    0.8895    5.4854    0.6154 H   0  0  0  0  0  0  0  0  0  0  0  0
   -1.5790    5.9122   -1.1392 H   0  0  0  0  0  0  0  0  0  0  0  0
   -0.3789    7.1696   -0.7296 H   0  0  0  0  0  0  0  0  0  0  0  0
    1.7226    2.9787   -3.0691 H   0  0  0  0  0  0  0  0  0  0  0  0
    2.3310    6.2135   -1.1405 H   0  0  0  0  0  0  0  0  0  0  0  0
   -1.5189    1.4579   -0.6481 H   0  0  0  0  0  0  0  0  0  0  0  0
    0.4987    1.8651    3.1405 H   0  0  0  0  0  0  0  0  0  0  0  0
   -2.1781    7.1512    0.6562 H   0  0  0  0  0  0  0  0  0  0  0  0
    3.8632   -0.0861    0.5520 H   0  0  0  0  0  0  0  0  0  0  0  0
   -4.3510   -2.8212    2.1620 H   0  0  0  0  0  0  0  0  0  0  0  0
   -1.3774   -0.7571    4.5818 H   0  0  0  0  0  0  0  0  0  0  0  0
    3.7913   -1.4712   -2.2140 H   0  0  0  0  0  0  0  0  0  0  0  0
   -6.5296   -1.6349    0.7425 H   0  0  0  0  0  0  0  0  0  0  0  0
   -3.2214   -2.6546   -1.8387 H   0  0  0  0  0  0  0  0  0  0  0  0
   -8.0953   -2.5762   -0.9025 H   0  0  0  0  0  0  0  0  0  0  0  0
   -4.7931   -3.5873   -3.4778 H   0  0  0  0  0  0  0  0  0  0  0  0
    5.8139   -0.9587    0.9338 H   0  0  0  0  0  0  0  0  0  0  0  0
    4.7025   -3.7573   -2.1790 H   0  0  0  0  0  0  0  0  0  0  0  0
    7.4632   -2.5438    1.7635 H   0  0  0  0  0  0  0  0  0  0  0  0
    6.3832   -5.3336   -1.3360 H   0  0  0  0  0  0  0  0  0  0  0  0
   -6.9170   -3.9987   -3.9677 H   0  0  0  0  0  0  0  0  0  0  0  0
    7.9522   -5.7174    0.1844 H   0  0  0  0  0  0  0  0  0  0  0  0
  1 15  1  0  0  0  0
  1 16  1  0  0  0  0
  2 12  1  0  0  0  0
  2 24  1  0  0  0  0
  3 13  1  0  0  0  0
  3 49  1  0  0  0  0
  4 14  1  0  0  0  0
  4 50  1  0  0  0  0
  5 18  1  0  0  0  0
  5 53  1  0  0  0  0
  6 21  1  0  0  0  0
  6 27  1  0  0  0  0
  7 22  1  0  0  0  0
  7 56  1  0  0  0  0
  8 24  2  0  0  0  0
  9 25  2  0  0  0  0
 10 36  1  0  0  0  0
 10 66  1  0  0  0  0
 11 41  1  0  0  0  0
 11 67  1  0  0  0  0
 12 13  1  0  0  0  0
 12 15  1  0  0  0  0
 12 42  1  0  0  0  0
 13 14  1  0  0  0  0
 13 43  1  0  0  0  0
 14 16  1  0  0  0  0
 14 44  1  0  0  0  0
 15 17  1  0  0  0  0
 15 45  1  0  0  0  0
 16 18  1  0  0  0  0
 16 46  1  0  0  0  0
 17 19  1  0  0  0  0
 17 20  2  0  0  0  0
 18 47  1  0  0  0  0
 18 48  1  0  0  0  0
 19 21  2  0  0  0  0
 19 51  1  0  0  0  0
 20 22  1  0  0  0  0
 20 52  1  0  0  0  0
 21 23  1  0  0  0  0
 22 23  2  0  0  0  0
 23 25  1  0  0  0  0
 24 26  1  0  0  0  0
 25 28  1  0  0  0  0
 26 30  2  0  0  0  0
 26 54  1  0  0  0  0
 27 28  2  0  0  0  0
 27 29  1  0  0  0  0
 28 55  1  0  0  0  0
 29 31  2  0  0  0  0
 29 32  1  0  0  0  0
 30 33  1  0  0  0  0
 30 57  1  0  0  0  0
 31 34  1  0  0  0  0
 31 58  1  0  0  0  0
 32 35  2  0  0  0  0
 32 59  1  0  0  0  0
 33 37  2  0  0  0  0
 33 38  1  0  0  0  0
 34 36  2  0  0  0  0
 34 60  1  0  0  0  0
 35 36  1  0  0  0  0
 35 61  1  0  0  0  0
 37 39  1  0  0  0  0
 37 62  1  0  0  0  0
 38 40  2  0  0  0  0
 38 63  1  0  0  0  0
 39 41  2  0  0  0  0
 39 64  1  0  0  0  0
 40 41  1  0  0  0  0
 40 65  1  0  0  0  0
M  END
> <PUBCHEM_COMPOUND_CID>
101865246

> <PUBCHEM_CONFORMER_RMSD>
1

> <PUBCHEM_CONFORMER_DIVERSEORDER>
1
15
36
25
24
5
11
12
43
50
17
10
29
39
40
27
30
23
38
28
44
14
34
16
13
8
54
18
48
49
20
4
42
32
55
3
21
7
31
56
45
41
57
37
35
26
51
46
22
19
47
53
52
9
6
2
33

> <PUBCHEM_MMFF94_PARTIAL_CHARGES>
60
1 -0.56
10 -0.53
11 -0.53
12 0.28
13 0.28
14 0.28
15 0.42
16 0.28
17 -0.14
18 0.28
19 -0.15
2 -0.43
20 -0.15
21 0.08
22 0.08
23 0.09
24 0.71
25 0.47
26 -0.14
27 0.05
28 -0.14
29 0.03
3 -0.68
30 -0.18
31 -0.15
32 -0.15
33 0.03
34 -0.15
35 -0.15
36 0.08
37 -0.15
38 -0.15
39 -0.15
4 -0.68
40 -0.15
41 0.08
49 0.4
5 -0.68
50 0.4
51 0.15
52 0.15
53 0.4
54 0.15
55 0.15
56 0.45
57 0.15
58 0.15
59 0.15
6 -0.16
60 0.15
61 0.15
62 0.15
63 0.15
64 0.15
65 0.15
66 0.45
67 0.45
7 -0.53
8 -0.57
9 -0.57

> <PUBCHEM_EFFECTIVE_ROTOR_COUNT>
8.2

> <PUBCHEM_PHARMACOPHORE_FEATURES>
18
1 1 acceptor
1 10 donor
1 11 donor
1 3 acceptor
1 3 donor
1 4 acceptor
1 4 donor
1 5 acceptor
1 5 donor
1 6 acceptor
1 7 donor
1 8 acceptor
1 9 acceptor
6 1 12 13 14 15 16 rings
6 17 19 20 21 22 23 rings
6 29 31 32 34 35 36 rings
6 33 37 38 39 40 41 rings
6 6 21 23 25 27 28 rings

> <PUBCHEM_HEAVY_ATOM_COUNT>
41

> <PUBCHEM_ATOM_DEF_STEREO_COUNT>
5

> <PUBCHEM_ATOM_UDEF_STEREO_COUNT>
0

> <PUBCHEM_BOND_DEF_STEREO_COUNT>
1

> <PUBCHEM_BOND_UDEF_STEREO_COUNT>
0

> <PUBCHEM_ISOTOPIC_ATOM_COUNT>
0

> <PUBCHEM_COMPONENT_COUNT>
1

> <PUBCHEM_CACTVS_TAUTO_COUNT>
96

> <PUBCHEM_CONFORMER_ID>
0612571E00000001

> <PUBCHEM_MMFF94_ENERGY>
124.1454

> <PUBCHEM_FEATURE_SELFOVERLAP>
91.398

> <PUBCHEM_SHAPE_FINGERPRINT>
10319688 77 18409735036763824108
10462674 125 17989199318303977598
10622 236 18272099317765350655
11135609 149 18269536382089071053
11227150 75 18272641376761091342
11399510 152 14404639666090680726
11720765 8 18339636862514630221
12633046 712 17898034514466858939
14068700 675 18272652333496443426
14664723 55 9222930592318560490
14674994 50 18051987921876733168
14844126 61 17901400995833309264
15131766 46 13992622994313640726
15968369 26 17902786702079392210
16989713 51 18197225737775048862
17324776 126 18411694370685894014
19304671 126 17751901753109279479
19311894 1 18338511946783448845
19315092 285 17775287196599798090
20691028 202 8790589413062580790
20721686 124 17691112060668894388
20771845 35 18342443838960325488
21133410 58 18338791351148261519
23569914 152 18265870537940495167
25019877 29 16103000022803696459
255183 313 17762360019106961456
3383291 50 17690851064507766096
3882209 13 18333447643232266464
4017518 198 17186168565731632292
50009960 94 16342272848981413807
5223283 242 18335704988122992021
57527293 21 18197518246427335496
59025328 239 18340494451361093648
613672 6 18260272975434844266
6677587 24 17185551117249903005
6697151 62 18187643643286552090

> <PUBCHEM_SHAPE_MULTIPOLES>
779.2
17.12
9.71
3.34
8.18
15.7
2.5
-42.05
-8.43
5.78
-5.32
-4.46
-1.25
-5.45

> <PUBCHEM_SHAPE_SELFOVERLAP>
1713.295

> <PUBCHEM_SHAPE_VOLUME>
415.8

> <PUBCHEM_COORDINATE_TYPE>
2
5
10

$$$$
