44577124
  -OEChem-08252014213D

 67 70  0     1  0  0  0  0  0999 V2000
    0.5936   -1.1792    0.2889 O   0  0  0  0  0  0  0  0  0  0  0  0
    4.0642   -0.0572   -0.0425 O   0  0  0  0  0  0  0  0  0  0  0  0
    2.5469    2.1049   -1.2167 O   0  0  0  0  0  0  0  0  0  0  0  0
   -1.3597   -0.6392   -0.8673 O   0  0  0  0  0  0  0  0  0  0  0  0
    0.1384    1.0653   -2.5580 O   0  0  0  0  0  0  0  0  0  0  0  0
    1.8194   -3.1852    1.7131 O   0  0  0  0  0  0  0  0  0  0  0  0
   -3.5355    0.3082    0.8059 O   0  0  0  0  0  0  0  0  0  0  0  0
    4.3614    2.0383    0.8631 O   0  0  0  0  0  0  0  0  0  0  0  0
   -4.4524    3.6671    1.5263 O   0  0  0  0  0  0  0  0  0  0  0  0
   -3.9797   -5.3884    0.1510 O   0  0  0  0  0  0  0  0  0  0  0  0
   -6.7506    2.4760    0.7128 O   0  0  0  0  0  0  0  0  0  0  0  0
   -3.4819    1.5498    2.7534 O   0  0  0  0  0  0  0  0  0  0  0  0
    2.6499    0.0841    0.0616 C   0  0  1  0  0  0  0  0  0  0  0  0
    2.1129    0.7440   -1.2086 C   0  0  1  0  0  0  0  0  0  0  0  0
    2.0174   -1.2945    0.2664 C   0  0  1  0  0  0  0  0  0  0  0  0
    0.5856    0.6965   -1.2537 C   0  0  2  0  0  0  0  0  0  0  0  0
    0.0636   -0.7074   -0.9477 C   0  0  1  0  0  0  0  0  0  0  0  0
    2.4488   -1.9231    1.5877 C   0  0  0  0  0  0  0  0  0  0  0  0
   -2.0149   -1.8110   -0.6040 C   0  0  0  0  0  0  0  0  0  0  0  0
    4.8006    0.9988    0.3962 C   0  0  0  0  0  0  0  0  0  0  0  0
   -2.8141   -1.9415    0.5317 C   0  0  0  0  0  0  0  0  0  0  0  0
   -1.8761   -2.8827   -1.4861 C   0  0  0  0  0  0  0  0  0  0  0  0
    6.2514    0.7279    0.2342 C   0  0  0  0  0  0  0  0  0  0  0  0
   -2.9729   -0.8056    1.4874 C   0  0  0  0  0  0  0  0  0  0  0  0
   -4.3330    2.5144    0.7179 C   0  0  1  0  0  0  0  0  0  0  0  0
   -3.4746   -3.1435    0.7853 C   0  0  0  0  0  0  0  0  0  0  0  0
   -5.7135    1.3024   -1.0994 C   0  0  0  0  0  0  0  0  0  0  0  0
   -5.7040    2.1528    0.1520 C   0  0  0  0  0  0  0  0  0  0  0  0
   -2.5368   -4.0847   -1.2325 C   0  0  0  0  0  0  0  0  0  0  0  0
   -4.8688    1.9533   -2.1888 C   0  0  0  0  0  0  0  0  0  0  0  0
   -3.3359   -4.2151   -0.0967 C   0  0  0  0  0  0  0  0  0  0  0  0
   -3.3544    2.7928   -0.3821 C   0  0  0  0  0  0  0  0  0  0  0  0
   -3.7386    1.4286    1.5631 C   0  0  0  0  0  0  0  0  0  0  0  0
   -3.5910    2.5480   -1.6793 C   0  0  0  0  0  0  0  0  0  0  0  0
    7.1880    1.6854    0.6237 C   0  0  0  0  0  0  0  0  0  0  0  0
    6.6777   -0.4853   -0.3061 C   0  0  0  0  0  0  0  0  0  0  0  0
    8.5509    1.4298    0.4726 C   0  0  0  0  0  0  0  0  0  0  0  0
    8.0405   -0.7410   -0.4572 C   0  0  0  0  0  0  0  0  0  0  0  0
    8.9772    0.2166   -0.0678 C   0  0  0  0  0  0  0  0  0  0  0  0
    2.3888    0.7076    0.9290 H   0  0  0  0  0  0  0  0  0  0  0  0
    2.5483    0.2785   -2.1006 H   0  0  0  0  0  0  0  0  0  0  0  0
    2.3008   -1.9800   -0.5440 H   0  0  0  0  0  0  0  0  0  0  0  0
    0.1573    1.4251   -0.5550 H   0  0  0  0  0  0  0  0  0  0  0  0
    0.3503   -1.3886   -1.7595 H   0  0  0  0  0  0  0  0  0  0  0  0
    2.1311   -1.3066    2.4352 H   0  0  0  0  0  0  0  0  0  0  0  0
    3.5330   -2.0651    1.6298 H   0  0  0  0  0  0  0  0  0  0  0  0
    2.1661    2.5483   -0.4396 H   0  0  0  0  0  0  0  0  0  0  0  0
    0.5077    0.4296   -3.1946 H   0  0  0  0  0  0  0  0  0  0  0  0
    2.1039   -3.5648    2.5618 H   0  0  0  0  0  0  0  0  0  0  0  0
   -1.2749   -2.7962   -2.3866 H   0  0  0  0  0  0  0  0  0  0  0  0
   -3.6283   -1.0827    2.3220 H   0  0  0  0  0  0  0  0  0  0  0  0
   -1.9918   -0.5376    1.8993 H   0  0  0  0  0  0  0  0  0  0  0  0
   -4.0985   -3.2493    1.6696 H   0  0  0  0  0  0  0  0  0  0  0  0
   -5.3523    0.2985   -0.8588 H   0  0  0  0  0  0  0  0  0  0  0  0
   -6.7457    1.1943   -1.4508 H   0  0  0  0  0  0  0  0  0  0  0  0
   -5.4433    2.7489   -2.6787 H   0  0  0  0  0  0  0  0  0  0  0  0
   -4.6409    1.2048   -2.9561 H   0  0  0  0  0  0  0  0  0  0  0  0
   -2.4283   -4.9147   -1.9254 H   0  0  0  0  0  0  0  0  0  0  0  0
   -2.3952    3.2278   -0.1085 H   0  0  0  0  0  0  0  0  0  0  0  0
   -2.8296    2.8012   -2.4116 H   0  0  0  0  0  0  0  0  0  0  0  0
    6.8764    2.6365    1.0470 H   0  0  0  0  0  0  0  0  0  0  0  0
    5.9838   -1.2591   -0.6220 H   0  0  0  0  0  0  0  0  0  0  0  0
   -5.0686    3.4658    2.2516 H   0  0  0  0  0  0  0  0  0  0  0  0
    9.2804    2.1752    0.7758 H   0  0  0  0  0  0  0  0  0  0  0  0
    8.3731   -1.6856   -0.8778 H   0  0  0  0  0  0  0  0  0  0  0  0
   10.0384    0.0174   -0.1854 H   0  0  0  0  0  0  0  0  0  0  0  0
   -4.4864   -5.3023    0.9768 H   0  0  0  0  0  0  0  0  0  0  0  0
  1 15  1  0  0  0  0
  1 17  1  0  0  0  0
  2 13  1  0  0  0  0
  2 20  1  0  0  0  0
  3 14  1  0  0  0  0
  3 47  1  0  0  0  0
  4 17  1  0  0  0  0
  4 19  1  0  0  0  0
  5 16  1  0  0  0  0
  5 48  1  0  0  0  0
  6 18  1  0  0  0  0
  6 49  1  0  0  0  0
  7 24  1  0  0  0  0
  7 33  1  0  0  0  0
  8 20  2  0  0  0  0
  9 25  1  0  0  0  0
  9 63  1  0  0  0  0
 10 31  1  0  0  0  0
 10 67  1  0  0  0  0
 11 28  2  0  0  0  0
 12 33  2  0  0  0  0
 13 14  1  0  0  0  0
 13 15  1  0  0  0  0
 13 40  1  0  0  0  0
 14 16  1  0  0  0  0
 14 41  1  0  0  0  0
 15 18  1  0  0  0  0
 15 42  1  0  0  0  0
 16 17  1  0  0  0  0
 16 43  1  0  0  0  0
 17 44  1  0  0  0  0
 18 45  1  0  0  0  0
 18 46  1  0  0  0  0
 19 21  2  0  0  0  0
 19 22  1  0  0  0  0
 20 23  1  0  0  0  0
 21 24  1  0  0  0  0
 21 26  1  0  0  0  0
 22 29  2  0  0  0  0
 22 50  1  0  0  0  0
 23 35  2  0  0  0  0
 23 36  1  0  0  0  0
 24 51  1  0  0  0  0
 24 52  1  0  0  0  0
 25 28  1  0  0  0  0
 25 32  1  0  0  0  0
 25 33  1  0  0  0  0
 26 31  2  0  0  0  0
 26 53  1  0  0  0  0
 27 28  1  0  0  0  0
 27 30  1  0  0  0  0
 27 54  1  0  0  0  0
 27 55  1  0  0  0  0
 29 31  1  0  0  0  0
 29 58  1  0  0  0  0
 30 34  1  0  0  0  0
 30 56  1  0  0  0  0
 30 57  1  0  0  0  0
 32 34  2  0  0  0  0
 32 59  1  0  0  0  0
 34 60  1  0  0  0  0
 35 37  1  0  0  0  0
 35 61  1  0  0  0  0
 36 38  2  0  0  0  0
 36 62  1  0  0  0  0
 37 39  2  0  0  0  0
 37 64  1  0  0  0  0
 38 39  1  0  0  0  0
 38 65  1  0  0  0  0
 39 66  1  0  0  0  0
M  END
> <PUBCHEM_COMPOUND_CID>
44577124

> <PUBCHEM_CONFORMER_RMSD>
1.2

> <PUBCHEM_CONFORMER_DIVERSEORDER>
1
6
33
69
41
101
72
45
48
76
71
39
90
115
93
10
73
86
46
16
87
44
43
114
88
97
109
105
96
102
4
21
67
84
9
95
110
103
12
66
65
104
35
80
8
36
25
42
63
49
61
74
89
60
20
56
62
26
59
83
68
82
64
77
14
51
81
19
31
85
113
47
111
75
40
108
15
27
13
99
98
3
53
92
28
94
34
2
55
50
58
11
54
17
30
91
52
106
24
18
107
100
70
5
37
38
57
112
116
7
23
29
32
22
79
78

> <PUBCHEM_MMFF94_PARTIAL_CHARGES>
54
1 -0.56
10 -0.53
11 -0.57
12 -0.57
13 0.28
14 0.28
15 0.28
16 0.28
17 0.56
18 0.28
19 0.08
2 -0.43
20 0.63
21 -0.14
22 -0.15
23 0.09
24 0.42
25 0.54
26 -0.15
27 0.06
28 0.45
29 -0.15
3 -0.68
30 0.14
31 0.08
32 -0.29
33 0.66
34 -0.29
35 -0.15
36 -0.15
37 -0.15
38 -0.15
39 -0.15
4 -0.36
47 0.4
48 0.4
49 0.4
5 -0.68
50 0.15
53 0.15
58 0.15
59 0.15
6 -0.68
60 0.15
61 0.15
62 0.15
63 0.4
64 0.15
65 0.15
66 0.15
67 0.45
7 -0.43
8 -0.57
9 -0.68

> <PUBCHEM_EFFECTIVE_ROTOR_COUNT>
11.8

> <PUBCHEM_PHARMACOPHORE_FEATURES>
18
1 1 acceptor
1 10 donor
1 11 acceptor
1 12 acceptor
1 3 acceptor
1 3 donor
1 4 acceptor
1 5 acceptor
1 5 donor
1 6 acceptor
1 6 donor
1 8 acceptor
1 9 acceptor
1 9 donor
6 1 13 14 15 16 17 rings
6 19 21 22 26 29 31 rings
6 23 35 36 37 38 39 rings
6 25 27 28 30 32 34 rings

> <PUBCHEM_HEAVY_ATOM_COUNT>
39

> <PUBCHEM_ATOM_DEF_STEREO_COUNT>
5

> <PUBCHEM_ATOM_UDEF_STEREO_COUNT>
1

> <PUBCHEM_BOND_DEF_STEREO_COUNT>
0

> <PUBCHEM_BOND_UDEF_STEREO_COUNT>
0

> <PUBCHEM_ISOTOPIC_ATOM_COUNT>
0

> <PUBCHEM_COMPONENT_COUNT>
1

> <PUBCHEM_CACTVS_TAUTO_COUNT>
6

> <PUBCHEM_CONFORMER_ID>
02A8316400000001

> <PUBCHEM_MMFF94_ENERGY>
99.436

> <PUBCHEM_FEATURE_SELFOVERLAP>
91.434

> <PUBCHEM_SHAPE_FINGERPRINT>
100830 39 18341896307496443240
10119406 146 18130232532553022294
10554248 39 14620807024615284944
10580692 12 18413108377577738986
12788726 201 18270102631100069687
13540713 5 17897740974558210484
14068700 675 18046341113666618943
14856354 85 16298681515742340336
15021287 119 17167867491214442420
15183329 4 14764625301216788108
15439362 3 18055640516678546047
21033648 144 18188771626985522253
21814621 53 17561084727118952074
3504750 166 18269554012835271918
4938544 92 18413389860516584966
5028188 123 18337962281563703356
54039377 194 9439392545404503433
563151 40 18333452028251866690
6009941 240 18272653450746557506
6086070 43 17703777146667904472
6677587 24 16669598311273592637
6691757 9 18342181059633076713
9896288 288 18339929310821948802

> <PUBCHEM_SHAPE_MULTIPOLES>
732.17
20.48
5.06
1.81
46.45
5.45
0
-12.24
-2.06
-10.88
-0.22
-2.18
-0.6
-0.51

> <PUBCHEM_SHAPE_SELFOVERLAP>
1577.412

> <PUBCHEM_SHAPE_VOLUME>
396.2

> <PUBCHEM_COORDINATE_TYPE>
2
5
10

$$$$
