76334115
  -OEChem-08252013143D

 59 62  0     1  0  0  0  0  0999 V2000
   -0.0793   -2.2175    0.1782 O   0  0  0  0  0  0  0  0  0  0  0  0
    0.2620   -0.0177    2.7671 O   0  0  0  0  0  0  0  0  0  0  0  0
   -3.4260    0.9673   -0.5549 O   0  0  0  0  0  0  0  0  0  0  0  0
    2.3099    2.1681    0.0169 O   0  0  0  0  0  0  0  0  0  0  0  0
   -0.1613    3.7446   -0.2138 O   0  0  0  0  0  0  0  0  0  0  0  0
    0.2803   -0.1915    1.3487 C   0  0  1  0  0  0  0  0  0  0  0  0
    0.2057    1.1961    0.6706 C   0  0  2  0  0  0  0  0  0  0  0  0
    1.6282   -0.8188    0.8971 C   0  0  2  0  0  0  0  0  0  0  0  0
   -1.2255    1.6470    0.2258 C   0  0  2  0  0  0  0  0  0  0  0  0
   -0.7706   -1.2601    0.9940 C   0  0  1  0  0  0  0  0  0  0  0  0
   -2.0637    0.5008   -0.4178 C   0  0  1  0  0  0  0  0  0  0  0  0
   -2.1206   -0.7882    0.4277 C   0  0  1  0  0  0  0  0  0  0  0  0
    1.8949   -0.1838   -0.4933 C   0  0  1  0  0  0  0  0  0  0  0  0
    1.3199    1.2295   -0.4038 C   0  0  2  0  0  0  0  0  0  0  0  0
   -2.8364   -1.7586   -0.5412 C   0  0  1  0  0  0  0  0  0  0  0  0
    1.2548   -2.2845    0.7028 C   0  0  0  0  0  0  0  0  0  0  0  0
   -1.6579   -0.0154   -1.8087 C   0  0  0  0  0  0  0  0  0  0  0  0
   -2.2148   -1.4482   -1.9080 C   0  0  0  0  0  0  0  0  0  0  0  0
    2.7815   -0.6623    1.8895 C   0  0  0  0  0  0  0  0  0  0  0  0
    3.3351   -0.2623   -0.9955 C   0  0  0  0  0  0  0  0  0  0  0  0
   -1.1527    2.8768   -0.7150 C   0  0  0  0  0  0  0  0  0  0  0  0
   -1.9681    2.1630    1.5000 C   0  0  0  0  0  0  0  0  0  0  0  0
   -2.8520   -3.2348   -0.1750 C   0  0  0  0  0  0  0  0  0  0  0  0
    3.8111   -1.7101   -1.0096 C   0  0  0  0  0  0  0  0  0  0  0  0
    3.4454    0.3604   -2.3820 C   0  0  0  0  0  0  0  0  0  0  0  0
    0.5159    1.9204    1.4408 H   0  0  0  0  0  0  0  0  0  0  0  0
   -1.0321   -1.8237    1.9021 H   0  0  0  0  0  0  0  0  0  0  0  0
   -2.7903   -0.6174    1.2822 H   0  0  0  0  0  0  0  0  0  0  0  0
    1.2815   -0.7188   -1.2300 H   0  0  0  0  0  0  0  0  0  0  0  0
    0.9785    1.5470   -1.3910 H   0  0  0  0  0  0  0  0  0  0  0  0
   -3.8931   -1.4562   -0.5866 H   0  0  0  0  0  0  0  0  0  0  0  0
    1.8567   -2.8663    0.0099 H   0  0  0  0  0  0  0  0  0  0  0  0
    1.2225   -2.8316    1.6534 H   0  0  0  0  0  0  0  0  0  0  0  0
   -0.5794   -0.0475   -1.9478 H   0  0  0  0  0  0  0  0  0  0  0  0
   -2.0713    0.5983   -2.6169 H   0  0  0  0  0  0  0  0  0  0  0  0
   -2.9662   -1.5245   -2.7016 H   0  0  0  0  0  0  0  0  0  0  0  0
   -1.4071   -2.1446   -2.1595 H   0  0  0  0  0  0  0  0  0  0  0  0
    2.9781    0.3972    2.0880 H   0  0  0  0  0  0  0  0  0  0  0  0
    3.7246   -1.1103    1.5822 H   0  0  0  0  0  0  0  0  0  0  0  0
    2.5396   -1.1281    2.8519 H   0  0  0  0  0  0  0  0  0  0  0  0
    4.0047    0.3001   -0.3335 H   0  0  0  0  0  0  0  0  0  0  0  0
   -0.8827    2.5992   -1.7378 H   0  0  0  0  0  0  0  0  0  0  0  0
   -2.1044    3.4174   -0.7602 H   0  0  0  0  0  0  0  0  0  0  0  0
   -2.9652    2.5536    1.2685 H   0  0  0  0  0  0  0  0  0  0  0  0
   -1.4154    2.9769    1.9841 H   0  0  0  0  0  0  0  0  0  0  0  0
   -2.0892    1.3717    2.2462 H   0  0  0  0  0  0  0  0  0  0  0  0
    0.3665   -0.8870    3.1894 H   0  0  0  0  0  0  0  0  0  0  0  0
   -3.4396    1.6740   -1.2218 H   0  0  0  0  0  0  0  0  0  0  0  0
   -1.8770   -3.7153   -0.2805 H   0  0  0  0  0  0  0  0  0  0  0  0
   -3.1953   -3.3734    0.8552 H   0  0  0  0  0  0  0  0  0  0  0  0
   -3.5419   -3.7754   -0.8326 H   0  0  0  0  0  0  0  0  0  0  0  0
    1.8978    3.0487    0.0118 H   0  0  0  0  0  0  0  0  0  0  0  0
    3.1828   -2.3249   -1.6642 H   0  0  0  0  0  0  0  0  0  0  0  0
    3.8906   -2.1978   -0.0408 H   0  0  0  0  0  0  0  0  0  0  0  0
    4.8223   -1.7525   -1.4343 H   0  0  0  0  0  0  0  0  0  0  0  0
    2.7722   -0.1286   -3.0948 H   0  0  0  0  0  0  0  0  0  0  0  0
    4.4657    0.2603   -2.7689 H   0  0  0  0  0  0  0  0  0  0  0  0
    3.2123    1.4292   -2.3741 H   0  0  0  0  0  0  0  0  0  0  0  0
   -0.1182    4.5103   -0.8115 H   0  0  0  0  0  0  0  0  0  0  0  0
  1 10  1  0  0  0  0
  1 16  1  0  0  0  0
  2  6  1  0  0  0  0
  2 47  1  0  0  0  0
  3 11  1  0  0  0  0
  3 48  1  0  0  0  0
  4 14  1  0  0  0  0
  4 52  1  0  0  0  0
  5 21  1  0  0  0  0
  5 59  1  0  0  0  0
  6  7  1  0  0  0  0
  6  8  1  0  0  0  0
  6 10  1  0  0  0  0
  7  9  1  0  0  0  0
  7 14  1  0  0  0  0
  7 26  1  0  0  0  0
  8 13  1  0  0  0  0
  8 16  1  0  0  0  0
  8 19  1  0  0  0  0
  9 11  1  0  0  0  0
  9 21  1  0  0  0  0
  9 22  1  0  0  0  0
 10 12  1  0  0  0  0
 10 27  1  0  0  0  0
 11 12  1  0  0  0  0
 11 17  1  0  0  0  0
 12 15  1  0  0  0  0
 12 28  1  0  0  0  0
 13 14  1  0  0  0  0
 13 20  1  0  0  0  0
 13 29  1  0  0  0  0
 14 30  1  0  0  0  0
 15 18  1  0  0  0  0
 15 23  1  0  0  0  0
 15 31  1  0  0  0  0
 16 32  1  0  0  0  0
 16 33  1  0  0  0  0
 17 18  1  0  0  0  0
 17 34  1  0  0  0  0
 17 35  1  0  0  0  0
 18 36  1  0  0  0  0
 18 37  1  0  0  0  0
 19 38  1  0  0  0  0
 19 39  1  0  0  0  0
 19 40  1  0  0  0  0
 20 24  1  0  0  0  0
 20 25  1  0  0  0  0
 20 41  1  0  0  0  0
 21 42  1  0  0  0  0
 21 43  1  0  0  0  0
 22 44  1  0  0  0  0
 22 45  1  0  0  0  0
 22 46  1  0  0  0  0
 23 49  1  0  0  0  0
 23 50  1  0  0  0  0
 23 51  1  0  0  0  0
 24 53  1  0  0  0  0
 24 54  1  0  0  0  0
 24 55  1  0  0  0  0
 25 56  1  0  0  0  0
 25 57  1  0  0  0  0
 25 58  1  0  0  0  0
M  END
> <PUBCHEM_COMPOUND_CID>
76334115

> <PUBCHEM_CONFORMER_RMSD>
0.8

> <PUBCHEM_CONFORMER_DIVERSEORDER>
1
2

> <PUBCHEM_MMFF94_PARTIAL_CHARGES>
15
1 -0.56
10 0.28
11 0.28
14 0.28
16 0.28
2 -0.68
21 0.28
3 -0.68
4 -0.68
47 0.4
48 0.4
5 -0.68
52 0.4
59 0.4
6 0.28

> <PUBCHEM_EFFECTIVE_ROTOR_COUNT>
3.6

> <PUBCHEM_PHARMACOPHORE_FEATURES>
14
1 1 acceptor
1 2 acceptor
1 2 donor
1 3 acceptor
1 3 donor
1 4 acceptor
1 4 donor
1 5 acceptor
1 5 donor
3 20 24 25 hydrophobe
5 1 6 8 10 16 rings
5 11 12 15 17 18 rings
5 6 7 8 13 14 rings
6 6 7 9 10 11 12 rings

> <PUBCHEM_HEAVY_ATOM_COUNT>
25

> <PUBCHEM_ATOM_DEF_STEREO_COUNT>
9

> <PUBCHEM_ATOM_UDEF_STEREO_COUNT>
1

> <PUBCHEM_BOND_DEF_STEREO_COUNT>
0

> <PUBCHEM_BOND_UDEF_STEREO_COUNT>
0

> <PUBCHEM_ISOTOPIC_ATOM_COUNT>
0

> <PUBCHEM_COMPONENT_COUNT>
1

> <PUBCHEM_CACTVS_TAUTO_COUNT>
1

> <PUBCHEM_CONFORMER_ID>
048CC42300000001

> <PUBCHEM_MMFF94_ENERGY>
138.4337

> <PUBCHEM_FEATURE_SELFOVERLAP>
71.945

> <PUBCHEM_SHAPE_FINGERPRINT>
10863032 1 18271534207406131413
10948715 1 17829911844378854124
11578080 2 17489868249999861856
11582403 64 12614700895636323022
11640471 11 17677334883651012828
12035759 4 18261112920186461294
12156800 1 16533782425093800323
12202030 40 16917055681308465798
12553582 1 18410004425633771007
12714826 92 17560816410961719454
13009979 54 18042385977030927554
13140716 1 18338220648550965313
13583140 156 14346652668893518964
13681431 1 17982993842127136925
14181834 199 17170640450764706930
144361 1 17986685765580618635
14790565 3 18194979439118325113
14817 1 17403114510282416801
16752209 62 18124863578493590829
16945 1 18337384916418316809
17349148 13 17894345588784238290
19765921 60 17313104141894335353
19930381 70 17977955905328203886
20600515 1 18196060392128390873
20645476 183 18047194055389590207
20775530 9 16558467603577795430
20905425 154 17759779817376281465
21731516 1 18057874943365239295
22802520 49 18272371987853142270
22889148 1 17842251702200888853
2334 1 18265040521818369441
23419403 2 16885859427046211795
23557571 272 18200294624070234210
23559900 14 18272084968949235314
2748010 2 18266442382000714521
2818148 4 18337971020651746395
469060 322 15143810723274941168
5262128 65 18198914784253501756
5845 1 17416099871761554777
81228 2 18200015279787529889
90525 40 17833552297371762653

> <PUBCHEM_SHAPE_MULTIPOLES>
485.14
5.14
3.3
1.97
2.46
1.08
0.15
-1.92
-2.25
-1.86
-0.14
0.78
-0.13
-0.59

> <PUBCHEM_SHAPE_SELFOVERLAP>
1045.768

> <PUBCHEM_SHAPE_VOLUME>
269.9

> <PUBCHEM_COORDINATE_TYPE>
2
5
10

$$$$
