24885741
  -OEChem-08252013153D

 58 62  0     1  0  0  0  0  0999 V2000
   -0.9885    1.5989    0.4195 O   0  0  0  0  0  0  0  0  0  0  0  0
    0.4184    0.2627   -2.5626 O   0  0  0  0  0  0  0  0  0  0  0  0
    0.7548    1.9159    1.9845 O   0  0  0  0  0  0  0  0  0  0  0  0
   -2.6038   -2.3032   -0.5678 O   0  0  0  0  0  0  0  0  0  0  0  0
    3.1622    0.1845   -1.4044 O   0  0  0  0  0  0  0  0  0  0  0  0
    2.2866   -2.2149   -1.3928 O   0  0  0  0  0  0  0  0  0  0  0  0
    0.1300    0.2251   -1.1789 C   0  0  2  0  0  0  0  0  0  0  0  0
    1.1490    0.9431   -0.2846 C   0  0  1  0  0  0  0  0  0  0  0  0
    0.2053   -1.2331   -0.6393 C   0  0  2  0  0  0  0  0  0  0  0  0
   -0.6906   -1.3362    0.6342 C   0  0  2  0  0  0  0  0  0  0  0  0
   -1.1741    0.9788   -0.8695 C   0  0  1  0  0  0  0  0  0  0  0  0
    0.2351    1.0706    0.9693 C   0  0  2  0  0  0  0  0  0  0  0  0
   -2.1857   -1.1304    0.1643 C   0  0  1  0  0  0  0  0  0  0  0  0
    2.3488   -0.0389   -0.2414 C   0  0  1  0  0  0  0  0  0  0  0  0
   -2.3809    0.0439   -0.8376 C   0  0  1  0  0  0  0  0  0  0  0  0
    1.7139   -1.4467   -0.3379 C   0  0  2  0  0  0  0  0  0  0  0  0
   -0.1745   -0.2593    1.6384 C   0  0  0  0  0  0  0  0  0  0  0  0
   -3.7266    0.6758   -0.4184 C   0  0  1  0  0  0  0  0  0  0  0  0
   -3.2253   -0.9178    1.2905 C   0  0  0  0  0  0  0  0  0  0  0  0
    1.5598    2.3274   -0.8416 C   0  0  0  0  0  0  0  0  0  0  0  0
   -0.5600   -2.7262    1.3067 C   0  0  0  0  0  0  0  0  0  0  0  0
    3.2649    0.1289    0.9685 C   0  0  0  0  0  0  0  0  0  0  0  0
   -3.7822    0.4844    1.0918 C   0  0  0  0  0  0  0  0  0  0  0  0
   -3.9593    2.1170   -0.8444 C   0  0  0  0  0  0  0  0  0  0  0  0
    4.3946   -0.8974    0.9317 C   0  0  0  0  0  0  0  0  0  0  0  0
    3.8280    1.5468    1.0217 C   0  0  0  0  0  0  0  0  0  0  0  0
   -0.1339   -1.9455   -1.4020 H   0  0  0  0  0  0  0  0  0  0  0  0
   -1.3436    1.7784   -1.5996 H   0  0  0  0  0  0  0  0  0  0  0  0
   -2.5039   -0.3409   -1.8603 H   0  0  0  0  0  0  0  0  0  0  0  0
    1.8608   -2.0160    0.5801 H   0  0  0  0  0  0  0  0  0  0  0  0
   -0.9310   -0.0619    2.4059 H   0  0  0  0  0  0  0  0  0  0  0  0
    0.6793   -0.6498    2.2037 H   0  0  0  0  0  0  0  0  0  0  0  0
   -4.5290    0.0696   -0.8633 H   0  0  0  0  0  0  0  0  0  0  0  0
   -2.8193   -1.0316    2.2988 H   0  0  0  0  0  0  0  0  0  0  0  0
   -4.0432   -1.6454    1.2102 H   0  0  0  0  0  0  0  0  0  0  0  0
    2.0573    2.9664   -0.1135 H   0  0  0  0  0  0  0  0  0  0  0  0
    0.6784    2.9002   -1.1537 H   0  0  0  0  0  0  0  0  0  0  0  0
    2.1906    2.2646   -1.7331 H   0  0  0  0  0  0  0  0  0  0  0  0
   -0.6834   -3.5345    0.5777 H   0  0  0  0  0  0  0  0  0  0  0  0
   -1.3186   -2.8592    2.0853 H   0  0  0  0  0  0  0  0  0  0  0  0
    0.4082   -2.8750    1.7935 H   0  0  0  0  0  0  0  0  0  0  0  0
    2.7170   -0.0449    1.8995 H   0  0  0  0  0  0  0  0  0  0  0  0
   -4.8027    0.5698    1.4790 H   0  0  0  0  0  0  0  0  0  0  0  0
   -3.1678    1.2211    1.6195 H   0  0  0  0  0  0  0  0  0  0  0  0
   -0.2934   -0.2102   -3.0264 H   0  0  0  0  0  0  0  0  0  0  0  0
    0.2987    1.7234    2.8204 H   0  0  0  0  0  0  0  0  0  0  0  0
   -3.5165   -2.1670   -0.8746 H   0  0  0  0  0  0  0  0  0  0  0  0
    3.6548   -0.6313   -1.5950 H   0  0  0  0  0  0  0  0  0  0  0  0
    1.8511   -3.0844   -1.3903 H   0  0  0  0  0  0  0  0  0  0  0  0
   -3.2596    2.8085   -0.3655 H   0  0  0  0  0  0  0  0  0  0  0  0
   -4.9709    2.4353   -0.5700 H   0  0  0  0  0  0  0  0  0  0  0  0
   -3.8583    2.2209   -1.9294 H   0  0  0  0  0  0  0  0  0  0  0  0
    5.0642   -0.7463    0.0785 H   0  0  0  0  0  0  0  0  0  0  0  0
    4.0327   -1.9285    0.9051 H   0  0  0  0  0  0  0  0  0  0  0  0
    5.0099   -0.8076    1.8349 H   0  0  0  0  0  0  0  0  0  0  0  0
    4.1942    1.9076    0.0561 H   0  0  0  0  0  0  0  0  0  0  0  0
    4.6881    1.5755    1.7029 H   0  0  0  0  0  0  0  0  0  0  0  0
    3.1215    2.2599    1.4457 H   0  0  0  0  0  0  0  0  0  0  0  0
  1 11  1  0  0  0  0
  1 12  1  0  0  0  0
  2  7  1  0  0  0  0
  2 45  1  0  0  0  0
  3 12  1  0  0  0  0
  3 46  1  0  0  0  0
  4 13  1  0  0  0  0
  4 47  1  0  0  0  0
  5 14  1  0  0  0  0
  5 48  1  0  0  0  0
  6 16  1  0  0  0  0
  6 49  1  0  0  0  0
  7  8  1  0  0  0  0
  7  9  1  0  0  0  0
  7 11  1  0  0  0  0
  8 12  1  0  0  0  0
  8 14  1  0  0  0  0
  8 20  1  0  0  0  0
  9 10  1  0  0  0  0
  9 16  1  0  0  0  0
  9 27  1  0  0  0  0
 10 13  1  0  0  0  0
 10 17  1  0  0  0  0
 10 21  1  0  0  0  0
 11 15  1  0  0  0  0
 11 28  1  0  0  0  0
 12 17  1  0  0  0  0
 13 15  1  0  0  0  0
 13 19  1  0  0  0  0
 14 16  1  0  0  0  0
 14 22  1  0  0  0  0
 15 18  1  0  0  0  0
 15 29  1  0  0  0  0
 16 30  1  0  0  0  0
 17 31  1  0  0  0  0
 17 32  1  0  0  0  0
 18 23  1  0  0  0  0
 18 24  1  0  0  0  0
 18 33  1  0  0  0  0
 19 23  1  0  0  0  0
 19 34  1  0  0  0  0
 19 35  1  0  0  0  0
 20 36  1  0  0  0  0
 20 37  1  0  0  0  0
 20 38  1  0  0  0  0
 21 39  1  0  0  0  0
 21 40  1  0  0  0  0
 21 41  1  0  0  0  0
 22 25  1  0  0  0  0
 22 26  1  0  0  0  0
 22 42  1  0  0  0  0
 23 43  1  0  0  0  0
 23 44  1  0  0  0  0
 24 50  1  0  0  0  0
 24 51  1  0  0  0  0
 24 52  1  0  0  0  0
 25 53  1  0  0  0  0
 25 54  1  0  0  0  0
 25 55  1  0  0  0  0
 26 56  1  0  0  0  0
 26 57  1  0  0  0  0
 26 58  1  0  0  0  0
M  END
> <PUBCHEM_COMPOUND_CID>
24885741

> <PUBCHEM_CONFORMER_RMSD>
0.6

> <PUBCHEM_CONFORMER_DIVERSEORDER>
1

> <PUBCHEM_MMFF94_PARTIAL_CHARGES>
17
1 -0.56
11 0.28
12 0.56
13 0.28
14 0.28
16 0.28
2 -0.68
3 -0.68
4 -0.68
45 0.4
46 0.4
47 0.4
48 0.4
49 0.4
5 -0.68
6 -0.68
7 0.28

> <PUBCHEM_EFFECTIVE_ROTOR_COUNT>
2.4

> <PUBCHEM_PHARMACOPHORE_FEATURES>
15
1 1 acceptor
1 2 acceptor
1 2 donor
1 3 acceptor
1 3 donor
1 4 acceptor
1 4 donor
1 5 acceptor
1 5 donor
1 6 acceptor
1 6 donor
10 1 7 8 9 10 11 12 14 16 17 rings
3 22 25 26 hydrophobe
5 13 15 18 19 23 rings
9 1 7 9 10 11 12 13 15 17 rings

> <PUBCHEM_HEAVY_ATOM_COUNT>
26

> <PUBCHEM_ATOM_DEF_STEREO_COUNT>
11

> <PUBCHEM_ATOM_UDEF_STEREO_COUNT>
0

> <PUBCHEM_BOND_DEF_STEREO_COUNT>
0

> <PUBCHEM_BOND_UDEF_STEREO_COUNT>
0

> <PUBCHEM_ISOTOPIC_ATOM_COUNT>
0

> <PUBCHEM_COMPONENT_COUNT>
1

> <PUBCHEM_CACTVS_TAUTO_COUNT>
1

> <PUBCHEM_CONFORMER_ID>
017BB9ED00000001

> <PUBCHEM_MMFF94_ENERGY>
149.6301

> <PUBCHEM_FEATURE_SELFOVERLAP>
79.564

> <PUBCHEM_SHAPE_FINGERPRINT>
10863032 1 18272083924412352370
10948715 1 18339349799579290921
11132069 177 18411133649476003030
11370993 70 18335130969221190713
11640471 11 14979416026777666227
12011746 2 18341051818410619254
12403814 3 17458335355815642965
12422481 6 17099445788259792769
12491281 212 17822580507061166325
12592029 89 17822861862116260283
12788726 201 18338244760703762120
13132413 78 18334570231091524425
13134695 92 17774999033995237457
13140716 1 18337112370916108433
13172582 1 18113616793810617386
13224815 77 18131354136970315776
13581323 91 17749391506894352281
13583140 156 17844793970557609944
14223421 5 18271811172688241160
16945 1 18410296908226533087
17349148 13 18342448240420607899
17980427 23 18115017649329877132
1813 80 14635144561192748698
18186145 218 18341061743520858005
20691752 17 17240757359308486563
21330990 113 17678451970290284054
21501502 16 18192716863072418869
23402539 116 18336251371733444230
23419403 2 16694103091654969186
23559900 14 18340778061537651510
2748010 2 18192436268463907271
296302 2 17917709149416377480
3286 77 18057595675922473819
4340502 62 18263637382115623669
7226269 152 18341887446899816712

> <PUBCHEM_SHAPE_MULTIPOLES>
499.85
6.39
2.41
1.7
0.19
0.47
0.11
-1
-1.03
-0.43
-0.04
0.43
-0.12
0.64

> <PUBCHEM_SHAPE_SELFOVERLAP>
1114.727

> <PUBCHEM_SHAPE_VOLUME>
266.2

> <PUBCHEM_COORDINATE_TYPE>
2
5
10

$$$$
