38361549
  -OEChem-08252014173D

 51 53  0     1  0  0  0  0  0999 V2000
   -2.3538   -1.4686    0.4452 O   0  0  0  0  0  0  0  0  0  0  0  0
    1.2134   -0.8289   -0.0190 O   0  0  0  0  0  0  0  0  0  0  0  0
   -1.1008    0.4071    1.0417 O   0  0  0  0  0  0  0  0  0  0  0  0
    1.0279   -3.7681    0.0669 O   0  0  0  0  0  0  0  0  0  0  0  0
   -1.4566   -4.6603   -1.1110 O   0  0  0  0  0  0  0  0  0  0  0  0
   -4.8645   -2.2776   -0.3274 O   0  0  0  0  0  0  0  0  0  0  0  0
    2.5069   -1.8726    1.5737 O   0  0  0  0  0  0  0  0  0  0  0  0
    1.2475    2.7419   -0.4908 O   0  0  0  0  0  0  0  0  0  0  0  0
   -3.5309    5.0345   -0.7301 O   0  0  0  0  0  0  0  0  0  0  0  0
    0.0027   -2.8835   -0.3878 C   0  0  1  0  0  0  0  0  0  0  0  0
   -1.3442   -3.5789   -0.1894 C   0  0  1  0  0  0  0  0  0  0  0  0
    0.0719   -1.5759    0.4010 C   0  0  2  0  0  0  0  0  0  0  0  0
   -2.4992   -2.6002   -0.4146 C   0  0  1  0  0  0  0  0  0  0  0  0
   -1.1729   -0.7195    0.1683 C   0  0  1  0  0  0  0  0  0  0  0  0
   -3.8496   -3.2402   -0.1083 C   0  0  0  0  0  0  0  0  0  0  0  0
   -1.6909    1.5607    0.6027 C   0  0  0  0  0  0  0  0  0  0  0  0
    2.3664   -1.0789    0.6562 C   0  0  0  0  0  0  0  0  0  0  0  0
   -0.9429    2.7262    0.4358 C   0  0  0  0  0  0  0  0  0  0  0  0
   -3.0573    1.5625    0.3216 C   0  0  0  0  0  0  0  0  0  0  0  0
    3.4728   -0.2425    0.1264 C   0  0  0  0  0  0  0  0  0  0  0  0
   -1.5611    3.8934   -0.0123 C   0  0  0  0  0  0  0  0  0  0  0  0
    0.5207    2.7419    0.7311 C   0  0  0  0  0  0  0  0  0  0  0  0
   -3.6754    2.7298   -0.1264 C   0  0  0  0  0  0  0  0  0  0  0  0
   -2.9274    3.8953   -0.2932 C   0  0  0  0  0  0  0  0  0  0  0  0
    4.5100    0.1586    0.9684 C   0  0  0  0  0  0  0  0  0  0  0  0
    3.4745    0.1422   -1.2143 C   0  0  0  0  0  0  0  0  0  0  0  0
    5.5490    0.9445    0.4697 C   0  0  0  0  0  0  0  0  0  0  0  0
    4.5135    0.9280   -1.7131 C   0  0  0  0  0  0  0  0  0  0  0  0
    5.5507    1.3292   -0.8710 C   0  0  0  0  0  0  0  0  0  0  0  0
    0.2008   -2.7059   -1.4514 H   0  0  0  0  0  0  0  0  0  0  0  0
   -1.3943   -4.0036    0.8207 H   0  0  0  0  0  0  0  0  0  0  0  0
    0.1374   -1.7902    1.4772 H   0  0  0  0  0  0  0  0  0  0  0  0
   -2.5199   -2.2470   -1.4547 H   0  0  0  0  0  0  0  0  0  0  0  0
   -1.1892   -0.3713   -0.8753 H   0  0  0  0  0  0  0  0  0  0  0  0
   -3.9052   -3.5503    0.9405 H   0  0  0  0  0  0  0  0  0  0  0  0
   -4.0399   -4.1043   -0.7518 H   0  0  0  0  0  0  0  0  0  0  0  0
    0.8940   -3.9229    1.0175 H   0  0  0  0  0  0  0  0  0  0  0  0
   -1.4258   -4.2926   -2.0107 H   0  0  0  0  0  0  0  0  0  0  0  0
   -5.7139   -2.7042   -0.1221 H   0  0  0  0  0  0  0  0  0  0  0  0
   -3.6658    0.6747    0.4611 H   0  0  0  0  0  0  0  0  0  0  0  0
   -0.9773    4.8015   -0.1430 H   0  0  0  0  0  0  0  0  0  0  0  0
    0.7818    3.6443    1.2958 H   0  0  0  0  0  0  0  0  0  0  0  0
    0.8408    1.8833    1.3293 H   0  0  0  0  0  0  0  0  0  0  0  0
   -4.7409    2.7264   -0.3398 H   0  0  0  0  0  0  0  0  0  0  0  0
    4.5214   -0.1302    2.0161 H   0  0  0  0  0  0  0  0  0  0  0  0
    2.6854   -0.1647   -1.8956 H   0  0  0  0  0  0  0  0  0  0  0  0
    6.3563    1.2575    1.1254 H   0  0  0  0  0  0  0  0  0  0  0  0
    4.5162    1.2259   -2.7575 H   0  0  0  0  0  0  0  0  0  0  0  0
    2.1912    2.7880   -0.2609 H   0  0  0  0  0  0  0  0  0  0  0  0
    6.3597    1.9408   -1.2594 H   0  0  0  0  0  0  0  0  0  0  0  0
   -2.8657    5.7416   -0.7881 H   0  0  0  0  0  0  0  0  0  0  0  0
  1 13  1  0  0  0  0
  1 14  1  0  0  0  0
  2 12  1  0  0  0  0
  2 17  1  0  0  0  0
  3 14  1  0  0  0  0
  3 16  1  0  0  0  0
  4 10  1  0  0  0  0
  4 37  1  0  0  0  0
  5 11  1  0  0  0  0
  5 38  1  0  0  0  0
  6 15  1  0  0  0  0
  6 39  1  0  0  0  0
  7 17  2  0  0  0  0
  8 22  1  0  0  0  0
  8 49  1  0  0  0  0
  9 24  1  0  0  0  0
  9 51  1  0  0  0  0
 10 11  1  0  0  0  0
 10 12  1  0  0  0  0
 10 30  1  0  0  0  0
 11 13  1  0  0  0  0
 11 31  1  0  0  0  0
 12 14  1  0  0  0  0
 12 32  1  0  0  0  0
 13 15  1  0  0  0  0
 13 33  1  0  0  0  0
 14 34  1  0  0  0  0
 15 35  1  0  0  0  0
 15 36  1  0  0  0  0
 16 18  2  0  0  0  0
 16 19  1  0  0  0  0
 17 20  1  0  0  0  0
 18 21  1  0  0  0  0
 18 22  1  0  0  0  0
 19 23  2  0  0  0  0
 19 40  1  0  0  0  0
 20 25  2  0  0  0  0
 20 26  1  0  0  0  0
 21 24  2  0  0  0  0
 21 41  1  0  0  0  0
 22 42  1  0  0  0  0
 22 43  1  0  0  0  0
 23 24  1  0  0  0  0
 23 44  1  0  0  0  0
 25 27  1  0  0  0  0
 25 45  1  0  0  0  0
 26 28  2  0  0  0  0
 26 46  1  0  0  0  0
 27 29  2  0  0  0  0
 27 47  1  0  0  0  0
 28 29  1  0  0  0  0
 28 48  1  0  0  0  0
 29 50  1  0  0  0  0
M  END
> <PUBCHEM_COMPOUND_CID>
38361549

> <PUBCHEM_CONFORMER_RMSD>
1

> <PUBCHEM_CONFORMER_DIVERSEORDER>
1
17
30
43
18
29
19
12
39
34
22
41
15
32
21
26
11
42
35
28
25
4
44
27
31
8
16
20
6
23
37
3
7
5
40
33
13
2
38
24
10
14
36
9

> <PUBCHEM_MMFF94_PARTIAL_CHARGES>
42
1 -0.56
10 0.28
11 0.28
12 0.28
13 0.28
14 0.56
15 0.28
16 0.08
17 0.63
18 -0.14
19 -0.15
2 -0.43
20 0.09
21 -0.15
22 0.42
23 -0.15
24 0.08
25 -0.15
26 -0.15
27 -0.15
28 -0.15
29 -0.15
3 -0.36
37 0.4
38 0.4
39 0.4
4 -0.68
40 0.15
41 0.15
44 0.15
45 0.15
46 0.15
47 0.15
48 0.15
49 0.4
5 -0.68
50 0.15
51 0.45
6 -0.68
7 -0.57
8 -0.68
9 -0.53

> <PUBCHEM_EFFECTIVE_ROTOR_COUNT>
8.2

> <PUBCHEM_PHARMACOPHORE_FEATURES>
15
1 1 acceptor
1 3 acceptor
1 4 acceptor
1 4 donor
1 5 acceptor
1 5 donor
1 6 acceptor
1 6 donor
1 7 acceptor
1 8 acceptor
1 8 donor
1 9 donor
6 1 10 11 12 13 14 rings
6 16 18 19 21 23 24 rings
6 20 25 26 27 28 29 rings

> <PUBCHEM_HEAVY_ATOM_COUNT>
29

> <PUBCHEM_ATOM_DEF_STEREO_COUNT>
5

> <PUBCHEM_ATOM_UDEF_STEREO_COUNT>
0

> <PUBCHEM_BOND_DEF_STEREO_COUNT>
0

> <PUBCHEM_BOND_UDEF_STEREO_COUNT>
0

> <PUBCHEM_ISOTOPIC_ATOM_COUNT>
0

> <PUBCHEM_COMPONENT_COUNT>
1

> <PUBCHEM_CACTVS_TAUTO_COUNT>
3

> <PUBCHEM_CONFORMER_ID>
024959CD00000001

> <PUBCHEM_MMFF94_ENERGY>
89.5224

> <PUBCHEM_FEATURE_SELFOVERLAP>
76.184

> <PUBCHEM_SHAPE_FINGERPRINT>
10411042 1 18050566540820010195
10483366 6 18339352063865618533
10498660 4 18412550881826751256
10670039 82 18337121141814119134
10871710 139 18337118959169015442
10937287 8 18194683670210183524
1100329 8 18050567644737414131
11513181 2 18270684151658265886
12553582 1 18195805391140571746
12788726 201 18335700597965217922
13140716 1 17976540842469599682
138480 1 16826152135927193440
13965767 371 17897160213754817236
14294032 229 18411429383844876777
14790565 3 18196942058863092401
14955137 171 17976561711911181531
15297060 5 18200597973700511824
16087824 20 18410575098845732273
18681886 176 17688865337653726786
19427546 62 17833267524424768441
20511986 3 17821719525581409976
20600515 1 17771090442157632571
20642791 105 18337659850539676488
20642791 35 18195805404119958107
20715895 44 17395004344981717389
21033650 10 18190484786582078406
21049683 271 17826797242229944663
21285901 2 17845110604342886606
22149856 69 17839181815073049337
23366157 5 17111839925836601119
23557571 272 18130796706666898894
23558518 356 18261951826026407922
23559900 14 17768530839244196458
255183 451 17480023433217587111
3052486 1 18336252540318256440
4280585 95 18053937639455106018
463206 1 17831867115355196332
469060 322 18266478657252734427
6287921 2 17547012927196160317
653340 110 18339633546989782080
7808743 9 18410014325876747432
9981440 41 18264770960838286856

> <PUBCHEM_SHAPE_MULTIPOLES>
543.98
9.42
6.68
1.07
10.29
0.67
-0.09
2.87
-1.6
-9.88
-1.33
1.02
0
-0.7

> <PUBCHEM_SHAPE_SELFOVERLAP>
1163.329

> <PUBCHEM_SHAPE_VOLUME>
297.2

> <PUBCHEM_COORDINATE_TYPE>
2
5
10

$$$$
