23928057
  -OEChem-08252014073D

 67 70  0     1  0  0  0  0  0999 V2000
    2.0684   -0.5434    0.1851 O   0  0  0  0  0  0  0  0  0  0  0  0
    2.7830    0.7019   -1.6540 O   0  0  0  0  0  0  0  0  0  0  0  0
    3.8718   -2.2859    2.8544 O   0  0  0  0  0  0  0  0  0  0  0  0
    5.7680   -0.2997    1.9517 O   0  0  0  0  0  0  0  0  0  0  0  0
    5.4698    0.1713   -0.9414 O   0  0  0  0  0  0  0  0  0  0  0  0
    0.0259   -2.1420    1.0954 O   0  0  0  0  0  0  0  0  0  0  0  0
   -0.4613    2.4464   -0.5058 O   0  0  0  0  0  0  0  0  0  0  0  0
   -1.7876    4.3311    2.2020 O   0  0  0  0  0  0  0  0  0  0  0  0
   -1.4115   -2.3060    2.8862 O   0  0  0  0  0  0  0  0  0  0  0  0
   -1.6940   -0.2022   -4.7513 O   0  0  0  0  0  0  0  0  0  0  0  0
   -0.4768    1.6109    2.5856 O   0  0  0  0  0  0  0  0  0  0  0  0
    0.1795    4.4428    0.4642 O   0  0  0  0  0  0  0  0  0  0  0  0
    3.5517   -1.2027    1.9853 C   0  0  1  0  0  0  0  0  0  0  0  0
    4.7654   -0.8777    1.1143 C   0  0  1  0  0  0  0  0  0  0  0  0
    2.3493   -1.5868    1.1198 C   0  0  1  0  0  0  0  0  0  0  0  0
    4.4012    0.1063    0.0026 C   0  0  2  0  0  0  0  0  0  0  0  0
    3.1363   -0.3318   -0.7355 C   0  0  1  0  0  0  0  0  0  0  0  0
    1.0944   -1.8018    1.9599 C   0  0  0  0  0  0  0  0  0  0  0  0
    1.6671    0.4888   -2.4159 C   0  0  0  0  0  0  0  0  0  0  0  0
    0.5796    1.3596   -2.3474 C   0  0  0  0  0  0  0  0  0  0  0  0
    1.6250   -0.6140   -3.2690 C   0  0  0  0  0  0  0  0  0  0  0  0
    0.6071    2.5439   -1.4387 C   0  0  0  0  0  0  0  0  0  0  0  0
   -1.7240    3.2348    1.3092 C   0  0  1  0  0  0  0  0  0  0  0  0
   -1.1813   -2.3702    1.6886 C   0  0  0  0  0  0  0  0  0  0  0  0
   -0.5501    1.1276   -3.1320 C   0  0  0  0  0  0  0  0  0  0  0  0
   -2.8475    1.2945    2.6000 C   0  0  0  0  0  0  0  0  0  0  0  0
   -1.5740    1.9906    2.1754 C   0  0  0  0  0  0  0  0  0  0  0  0
   -3.7195    0.9978    1.3863 C   0  0  0  0  0  0  0  0  0  0  0  0
    0.4953   -0.8460   -4.0535 C   0  0  0  0  0  0  0  0  0  0  0  0
   -2.9462    3.1736    0.4386 C   0  0  0  0  0  0  0  0  0  0  0  0
   -0.5923    0.0247   -3.9850 C   0  0  0  0  0  0  0  0  0  0  0  0
   -0.5599    3.4703    0.3954 C   0  0  0  0  0  0  0  0  0  0  0  0
   -3.8270    2.1630    0.4522 C   0  0  0  0  0  0  0  0  0  0  0  0
   -2.2125   -2.7180    0.6786 C   0  0  0  0  0  0  0  0  0  0  0  0
   -3.2693   -3.5610    1.0224 C   0  0  0  0  0  0  0  0  0  0  0  0
   -2.1241   -2.2021   -0.6142 C   0  0  0  0  0  0  0  0  0  0  0  0
   -4.2379   -3.8880    0.0733 C   0  0  0  0  0  0  0  0  0  0  0  0
   -3.0927   -2.5289   -1.5633 C   0  0  0  0  0  0  0  0  0  0  0  0
   -4.1495   -3.3718   -1.2196 C   0  0  0  0  0  0  0  0  0  0  0  0
    3.3086   -0.3384    2.6155 H   0  0  0  0  0  0  0  0  0  0  0  0
    5.2047   -1.7925    0.6995 H   0  0  0  0  0  0  0  0  0  0  0  0
    2.5450   -2.5120    0.5606 H   0  0  0  0  0  0  0  0  0  0  0  0
    4.2767    1.1169    0.4096 H   0  0  0  0  0  0  0  0  0  0  0  0
    3.3388   -1.2577   -1.2897 H   0  0  0  0  0  0  0  0  0  0  0  0
    0.8362   -0.8784    2.4913 H   0  0  0  0  0  0  0  0  0  0  0  0
    1.2496   -2.6074    2.6865 H   0  0  0  0  0  0  0  0  0  0  0  0
    4.0754   -3.0619    2.3048 H   0  0  0  0  0  0  0  0  0  0  0  0
    5.4132    0.5263    2.3223 H   0  0  0  0  0  0  0  0  0  0  0  0
    5.5967   -0.7174   -1.3153 H   0  0  0  0  0  0  0  0  0  0  0  0
    2.4683   -1.2936   -3.3526 H   0  0  0  0  0  0  0  0  0  0  0  0
    1.5520    2.6219   -0.8900 H   0  0  0  0  0  0  0  0  0  0  0  0
    0.4919    3.4554   -2.0389 H   0  0  0  0  0  0  0  0  0  0  0  0
   -1.3975    1.8072   -3.0802 H   0  0  0  0  0  0  0  0  0  0  0  0
   -3.3684    1.9477    3.3094 H   0  0  0  0  0  0  0  0  0  0  0  0
   -2.5995    0.3641    3.1210 H   0  0  0  0  0  0  0  0  0  0  0  0
   -4.7203    0.7128    1.7298 H   0  0  0  0  0  0  0  0  0  0  0  0
   -3.3153    0.1477    0.8282 H   0  0  0  0  0  0  0  0  0  0  0  0
    0.4697   -1.7046   -4.7190 H   0  0  0  0  0  0  0  0  0  0  0  0
   -3.1170    3.9943   -0.2551 H   0  0  0  0  0  0  0  0  0  0  0  0
   -4.6665    2.1813   -0.2366 H   0  0  0  0  0  0  0  0  0  0  0  0
   -0.9586    4.3604    2.7103 H   0  0  0  0  0  0  0  0  0  0  0  0
   -3.3509   -3.9732    2.0246 H   0  0  0  0  0  0  0  0  0  0  0  0
   -1.3187   -1.5328   -0.9051 H   0  0  0  0  0  0  0  0  0  0  0  0
   -2.3503    0.4935   -4.5739 H   0  0  0  0  0  0  0  0  0  0  0  0
   -5.0606   -4.5446    0.3407 H   0  0  0  0  0  0  0  0  0  0  0  0
   -3.0260   -2.1244   -2.5691 H   0  0  0  0  0  0  0  0  0  0  0  0
   -4.9040   -3.6255   -1.9584 H   0  0  0  0  0  0  0  0  0  0  0  0
  1 15  1  0  0  0  0
  1 17  1  0  0  0  0
  2 17  1  0  0  0  0
  2 19  1  0  0  0  0
  3 13  1  0  0  0  0
  3 47  1  0  0  0  0
  4 14  1  0  0  0  0
  4 48  1  0  0  0  0
  5 16  1  0  0  0  0
  5 49  1  0  0  0  0
  6 18  1  0  0  0  0
  6 24  1  0  0  0  0
  7 22  1  0  0  0  0
  7 32  1  0  0  0  0
  8 23  1  0  0  0  0
  8 61  1  0  0  0  0
  9 24  2  0  0  0  0
 10 31  1  0  0  0  0
 10 64  1  0  0  0  0
 11 27  2  0  0  0  0
 12 32  2  0  0  0  0
 13 14  1  0  0  0  0
 13 15  1  0  0  0  0
 13 40  1  0  0  0  0
 14 16  1  0  0  0  0
 14 41  1  0  0  0  0
 15 18  1  0  0  0  0
 15 42  1  0  0  0  0
 16 17  1  0  0  0  0
 16 43  1  0  0  0  0
 17 44  1  0  0  0  0
 18 45  1  0  0  0  0
 18 46  1  0  0  0  0
 19 20  2  0  0  0  0
 19 21  1  0  0  0  0
 20 22  1  0  0  0  0
 20 25  1  0  0  0  0
 21 29  2  0  0  0  0
 21 50  1  0  0  0  0
 22 51  1  0  0  0  0
 22 52  1  0  0  0  0
 23 27  1  0  0  0  0
 23 30  1  0  0  0  0
 23 32  1  0  0  0  0
 24 34  1  0  0  0  0
 25 31  2  0  0  0  0
 25 53  1  0  0  0  0
 26 27  1  0  0  0  0
 26 28  1  0  0  0  0
 26 54  1  0  0  0  0
 26 55  1  0  0  0  0
 28 33  1  0  0  0  0
 28 56  1  0  0  0  0
 28 57  1  0  0  0  0
 29 31  1  0  0  0  0
 29 58  1  0  0  0  0
 30 33  2  0  0  0  0
 30 59  1  0  0  0  0
 33 60  1  0  0  0  0
 34 35  2  0  0  0  0
 34 36  1  0  0  0  0
 35 37  1  0  0  0  0
 35 62  1  0  0  0  0
 36 38  2  0  0  0  0
 36 63  1  0  0  0  0
 37 39  2  0  0  0  0
 37 65  1  0  0  0  0
 38 39  1  0  0  0  0
 38 66  1  0  0  0  0
 39 67  1  0  0  0  0
M  END
> <PUBCHEM_COMPOUND_CID>
23928057

> <PUBCHEM_CONFORMER_RMSD>
1.4

> <PUBCHEM_CONFORMER_DIVERSEORDER>
1
112
55
81
59
64
114
147
16
171
43
85
153
80
63
38
39
140
166
127
150
10
79
141
94
115
78
62
113
142
88
151
76
9
72
163
110
50
93
161
92
109
152
61
60
73
12
124
108
54
162
154
104
100
137
44
71
122
95
58
97
120
17
66
148
118
31
139
131
105
47
102
138
34
37
169
8
134
155
167
144
119
56
129
128
123
29
98
14
164
111
91
83
49
87
74
96
86
40
42
101
82
6
25
68
89
99
103
69
107
35
126
156
41
75
146
46
159
24
20
52
117
121
77
136
130
143
106
30
149
21
22
158
160
116
170
13
157
165
4
132
3
45
48
33
145
27
135
53
15
36
23
90
57
84
51
67
125
28
19
18
5
133
7
70
26
2
11
168
32
65

> <PUBCHEM_MMFF94_PARTIAL_CHARGES>
54
1 -0.56
10 -0.53
11 -0.57
12 -0.57
13 0.28
14 0.28
15 0.28
16 0.28
17 0.56
18 0.28
19 0.08
2 -0.36
20 -0.14
21 -0.15
22 0.42
23 0.54
24 0.63
25 -0.15
26 0.06
27 0.45
28 0.14
29 -0.15
3 -0.68
30 -0.29
31 0.08
32 0.66
33 -0.29
34 0.09
35 -0.15
36 -0.15
37 -0.15
38 -0.15
39 -0.15
4 -0.68
47 0.4
48 0.4
49 0.4
5 -0.68
50 0.15
53 0.15
58 0.15
59 0.15
6 -0.43
60 0.15
61 0.4
62 0.15
63 0.15
64 0.45
65 0.15
66 0.15
67 0.15
7 -0.43
8 -0.68
9 -0.57

> <PUBCHEM_EFFECTIVE_ROTOR_COUNT>
11.8

> <PUBCHEM_PHARMACOPHORE_FEATURES>
18
1 1 acceptor
1 10 donor
1 11 acceptor
1 12 acceptor
1 2 acceptor
1 3 acceptor
1 3 donor
1 4 acceptor
1 4 donor
1 5 acceptor
1 5 donor
1 8 acceptor
1 8 donor
1 9 acceptor
6 1 13 14 15 16 17 rings
6 19 20 21 25 29 31 rings
6 23 26 27 28 30 33 rings
6 34 35 36 37 38 39 rings

> <PUBCHEM_HEAVY_ATOM_COUNT>
39

> <PUBCHEM_ATOM_DEF_STEREO_COUNT>
5

> <PUBCHEM_ATOM_UDEF_STEREO_COUNT>
1

> <PUBCHEM_BOND_DEF_STEREO_COUNT>
0

> <PUBCHEM_BOND_UDEF_STEREO_COUNT>
0

> <PUBCHEM_ISOTOPIC_ATOM_COUNT>
0

> <PUBCHEM_COMPONENT_COUNT>
1

> <PUBCHEM_CACTVS_TAUTO_COUNT>
6

> <PUBCHEM_CONFORMER_ID>
016D1CF900000001

> <PUBCHEM_MMFF94_ENERGY>
96.5708

> <PUBCHEM_FEATURE_SELFOVERLAP>
91.423

> <PUBCHEM_SHAPE_FINGERPRINT>
10032420 55 17619374416067302093
10079526 769 17821733827796074022
12156800 1 18200890525181496855
13615921 28 18268410495219637005
14068700 675 18265047127351801262
14114206 34 17323287960778190693
14932702 115 17534303887081274190
19315092 285 17900261106806786759
21133410 90 18194097811576042845
21860390 5 17551795149767552330
24941158 1 17260423447768965543
27425 322 17486500291207619897
35225 105 17199068190651562509
469060 322 17385991897935297540
550186 7 17989488493992830670

> <PUBCHEM_SHAPE_MULTIPOLES>
732.17
8.06
5.4
4.63
7.15
2.93
-4.83
-5.39
3.78
-7.1
2.83
0.79
-0.61
-2.75

> <PUBCHEM_SHAPE_SELFOVERLAP>
1574.203

> <PUBCHEM_SHAPE_VOLUME>
397.6

> <PUBCHEM_COORDINATE_TYPE>
2
5
10

$$$$
