24885738
  -OEChem-08252013163D

 59 63  0     1  0  0  0  0  0999 V2000
   -1.2296    1.4643    0.7721 O   0  0  0  0  0  0  0  0  0  0  0  0
   -0.0009    0.9046   -2.5195 O   0  0  0  0  0  0  0  0  0  0  0  0
    0.6156    1.5525    2.2473 O   0  0  0  0  0  0  0  0  0  0  0  0
   -2.7160   -2.2318   -0.9424 O   0  0  0  0  0  0  0  0  0  0  0  0
    2.8278    0.7641   -1.5949 O   0  0  0  0  0  0  0  0  0  0  0  0
    2.0808   -1.6347   -2.0551 O   0  0  0  0  0  0  0  0  0  0  0  0
    5.0526   -1.0037    1.5159 O   0  0  0  0  0  0  0  0  0  0  0  0
   -0.1744    0.5486   -1.1621 C   0  0  2  0  0  0  0  0  0  0  0  0
    0.8751    1.1234   -0.2021 C   0  0  1  0  0  0  0  0  0  0  0  0
    0.0192   -0.9832   -0.9647 C   0  0  2  0  0  0  0  0  0  0  0  0
   -0.7645   -1.4204    0.3119 C   0  0  2  0  0  0  0  0  0  0  0  0
   -1.4864    1.1270   -0.6066 C   0  0  1  0  0  0  0  0  0  0  0  0
    0.0599    0.9139    1.1077 C   0  0  2  0  0  0  0  0  0  0  0  0
   -2.3012   -1.2198    0.0010 C   0  0  1  0  0  0  0  0  0  0  0  0
    2.1235    0.2393   -0.4580 C   0  0  1  0  0  0  0  0  0  0  0  0
   -2.6368    0.1276   -0.7010 C   0  0  1  0  0  0  0  0  0  0  0  0
    1.5563   -1.1540   -0.8203 C   0  0  2  0  0  0  0  0  0  0  0  0
   -0.2252   -0.5541    1.4922 C   0  0  0  0  0  0  0  0  0  0  0  0
   -3.9751    0.5607   -0.0627 C   0  0  1  0  0  0  0  0  0  0  0  0
   -3.2561   -1.3274    1.2138 C   0  0  0  0  0  0  0  0  0  0  0  0
    1.1678    2.6202   -0.4655 C   0  0  0  0  0  0  0  0  0  0  0  0
   -0.5086   -2.9110    0.6500 C   0  0  0  0  0  0  0  0  0  0  0  0
    3.1243    0.2029    0.6945 C   0  0  1  0  0  0  0  0  0  0  0  0
   -3.8988    0.0434    1.3680 C   0  0  0  0  0  0  0  0  0  0  0  0
   -4.3154    2.0407   -0.1428 C   0  0  0  0  0  0  0  0  0  0  0  0
    3.8579   -1.1406    0.7579 C   0  0  0  0  0  0  0  0  0  0  0  0
    4.1281    1.3475    0.5654 C   0  0  0  0  0  0  0  0  0  0  0  0
   -0.3435   -1.5343   -1.8417 H   0  0  0  0  0  0  0  0  0  0  0  0
   -1.7528    2.0534   -1.1284 H   0  0  0  0  0  0  0  0  0  0  0  0
   -2.8219   -0.0340   -1.7728 H   0  0  0  0  0  0  0  0  0  0  0  0
    1.7603   -1.9248   -0.0860 H   0  0  0  0  0  0  0  0  0  0  0  0
   -0.9210   -0.5837    2.3379 H   0  0  0  0  0  0  0  0  0  0  0  0
    0.6997   -0.9919    1.8888 H   0  0  0  0  0  0  0  0  0  0  0  0
   -4.7785    0.0122   -0.5755 H   0  0  0  0  0  0  0  0  0  0  0  0
   -2.7644   -1.6285    2.1422 H   0  0  0  0  0  0  0  0  0  0  0  0
   -4.0391   -2.0744    1.0301 H   0  0  0  0  0  0  0  0  0  0  0  0
    1.8432    3.0443    0.2777 H   0  0  0  0  0  0  0  0  0  0  0  0
    0.2505    3.2159   -0.3816 H   0  0  0  0  0  0  0  0  0  0  0  0
    1.5438    2.8292   -1.4706 H   0  0  0  0  0  0  0  0  0  0  0  0
   -0.6322   -3.5463   -0.2338 H   0  0  0  0  0  0  0  0  0  0  0  0
   -1.2065   -3.2654    1.4162 H   0  0  0  0  0  0  0  0  0  0  0  0
    0.4950   -3.0947    1.0446 H   0  0  0  0  0  0  0  0  0  0  0  0
    2.6296    0.3185    1.6620 H   0  0  0  0  0  0  0  0  0  0  0  0
   -4.8878   -0.0267    1.8324 H   0  0  0  0  0  0  0  0  0  0  0  0
   -3.2825    0.6884    2.0029 H   0  0  0  0  0  0  0  0  0  0  0  0
   -0.7225    0.4964   -3.0273 H   0  0  0  0  0  0  0  0  0  0  0  0
    0.2367    1.1548    3.0485 H   0  0  0  0  0  0  0  0  0  0  0  0
   -3.6563   -2.0949   -1.1492 H   0  0  0  0  0  0  0  0  0  0  0  0
    3.1116    1.6787   -1.4567 H   0  0  0  0  0  0  0  0  0  0  0  0
    1.6802   -2.5043   -2.2252 H   0  0  0  0  0  0  0  0  0  0  0  0
   -3.6159    2.6580    0.4289 H   0  0  0  0  0  0  0  0  0  0  0  0
   -5.3166    2.2225    0.2627 H   0  0  0  0  0  0  0  0  0  0  0  0
   -4.3077    2.3839   -1.1823 H   0  0  0  0  0  0  0  0  0  0  0  0
    3.2571   -1.9063    1.2568 H   0  0  0  0  0  0  0  0  0  0  0  0
    4.1549   -1.4903   -0.2360 H   0  0  0  0  0  0  0  0  0  0  0  0
    4.8426    1.1886   -0.2510 H   0  0  0  0  0  0  0  0  0  0  0  0
    4.7264    1.4231    1.4824 H   0  0  0  0  0  0  0  0  0  0  0  0
    3.6795    2.3317    0.4513 H   0  0  0  0  0  0  0  0  0  0  0  0
    5.4845   -1.8748    1.5300 H   0  0  0  0  0  0  0  0  0  0  0  0
  1 12  1  0  0  0  0
  1 13  1  0  0  0  0
  2  8  1  0  0  0  0
  2 46  1  0  0  0  0
  3 13  1  0  0  0  0
  3 47  1  0  0  0  0
  4 14  1  0  0  0  0
  4 48  1  0  0  0  0
  5 15  1  0  0  0  0
  5 49  1  0  0  0  0
  6 17  1  0  0  0  0
  6 50  1  0  0  0  0
  7 26  1  0  0  0  0
  7 59  1  0  0  0  0
  8  9  1  0  0  0  0
  8 10  1  0  0  0  0
  8 12  1  0  0  0  0
  9 13  1  0  0  0  0
  9 15  1  0  0  0  0
  9 21  1  0  0  0  0
 10 11  1  0  0  0  0
 10 17  1  0  0  0  0
 10 28  1  0  0  0  0
 11 14  1  0  0  0  0
 11 18  1  0  0  0  0
 11 22  1  0  0  0  0
 12 16  1  0  0  0  0
 12 29  1  0  0  0  0
 13 18  1  0  0  0  0
 14 16  1  0  0  0  0
 14 20  1  0  0  0  0
 15 17  1  0  0  0  0
 15 23  1  0  0  0  0
 16 19  1  0  0  0  0
 16 30  1  0  0  0  0
 17 31  1  0  0  0  0
 18 32  1  0  0  0  0
 18 33  1  0  0  0  0
 19 24  1  0  0  0  0
 19 25  1  0  0  0  0
 19 34  1  0  0  0  0
 20 24  1  0  0  0  0
 20 35  1  0  0  0  0
 20 36  1  0  0  0  0
 21 37  1  0  0  0  0
 21 38  1  0  0  0  0
 21 39  1  0  0  0  0
 22 40  1  0  0  0  0
 22 41  1  0  0  0  0
 22 42  1  0  0  0  0
 23 26  1  0  0  0  0
 23 27  1  0  0  0  0
 23 43  1  0  0  0  0
 24 44  1  0  0  0  0
 24 45  1  0  0  0  0
 25 51  1  0  0  0  0
 25 52  1  0  0  0  0
 25 53  1  0  0  0  0
 26 54  1  0  0  0  0
 26 55  1  0  0  0  0
 27 56  1  0  0  0  0
 27 57  1  0  0  0  0
 27 58  1  0  0  0  0
M  END
> <PUBCHEM_COMPOUND_CID>
24885738

> <PUBCHEM_CONFORMER_RMSD>
0.8

> <PUBCHEM_CONFORMER_DIVERSEORDER>
1

> <PUBCHEM_MMFF94_PARTIAL_CHARGES>
20
1 -0.56
12 0.28
13 0.56
14 0.28
15 0.28
17 0.28
2 -0.68
26 0.28
3 -0.68
4 -0.68
46 0.4
47 0.4
48 0.4
49 0.4
5 -0.68
50 0.4
59 0.4
6 -0.68
7 -0.68
8 0.28

> <PUBCHEM_EFFECTIVE_ROTOR_COUNT>
3.4

> <PUBCHEM_PHARMACOPHORE_FEATURES>
17
1 1 acceptor
1 2 acceptor
1 2 donor
1 27 hydrophobe
1 3 acceptor
1 3 donor
1 4 acceptor
1 4 donor
1 5 acceptor
1 5 donor
1 6 acceptor
1 6 donor
1 7 acceptor
1 7 donor
10 1 8 9 10 11 12 13 15 17 18 rings
5 14 16 19 20 24 rings
9 1 8 10 11 12 13 14 16 18 rings

> <PUBCHEM_HEAVY_ATOM_COUNT>
27

> <PUBCHEM_ATOM_DEF_STEREO_COUNT>
11

> <PUBCHEM_ATOM_UDEF_STEREO_COUNT>
1

> <PUBCHEM_BOND_DEF_STEREO_COUNT>
0

> <PUBCHEM_BOND_UDEF_STEREO_COUNT>
0

> <PUBCHEM_ISOTOPIC_ATOM_COUNT>
0

> <PUBCHEM_COMPONENT_COUNT>
1

> <PUBCHEM_CACTVS_TAUTO_COUNT>
1

> <PUBCHEM_CONFORMER_ID>
017BB9EA00000001

> <PUBCHEM_MMFF94_ENERGY>
161.2078

> <PUBCHEM_FEATURE_SELFOVERLAP>
89.717

> <PUBCHEM_SHAPE_FINGERPRINT>
10062212 137 18333725827768416083
10863032 1 18271800267581621360
10948715 1 18341608188020540241
11132069 177 18202002118335991950
11370993 70 18410008802105192741
12403814 3 17894904148574376941
12422481 6 17680141880991613769
12592029 89 18114754728717016251
12633257 1 18272089413391067594
12788726 201 18270694081891925984
13132413 78 18409726257549776267
13140716 1 18334298690807017337
13224815 77 17846787324977641884
13675066 3 18186238433034419121
14787075 74 18130782391008216497
15209289 33 16515404066575883585
15238133 3 16951133846575215357
16945 1 18338524130697403335
17349148 13 18272932730140430958
17492 54 9007054669078367914
1813 80 15574429904187062006
20600515 1 18412546500791252204
20691752 17 17603299354089001015
21330990 113 17969782977695599710
21501502 16 18196093476271761381
23402539 116 18340754971144485012
23419403 2 17839141372657773204
23559900 14 18202015308881983500
2748010 2 18197229039728400295
296302 2 17561083639405120136
3286 77 18057590165395108375
350125 39 18339923835492156363
4340502 62 18339921490255493665
474 4 14404604572392245082
5104073 3 18334011713602635440
7226269 152 18201716215453916448
9981440 41 16523587980751473517

> <PUBCHEM_SHAPE_MULTIPOLES>
514.56
6.99
2.4
1.73
1.43
0.36
0.21
-0.23
-2.08
-0.46
0.03
0.55
-0.04
0.01

> <PUBCHEM_SHAPE_SELFOVERLAP>
1145.099

> <PUBCHEM_SHAPE_VOLUME>
274.1

> <PUBCHEM_COORDINATE_TYPE>
2
5
10

$$$$
