24879215
  -OEChem-08252014012D

 85 92  0     1  0  0  0  0  0999 V2000
    8.8640   -3.0038    0.0000 O   0  0  0  0  0  0  0  0  0  0  0  0
    6.1582   -2.0190    0.0000 O   0  0  0  0  0  0  0  0  0  0  0  0
    8.0893   -0.3477    0.0000 O   0  0  0  0  0  0  0  0  0  0  0  0
    9.0068   -4.6358    0.0000 O   0  0  0  0  0  0  0  0  0  0  0  0
    4.9998   -3.1774    0.0000 O   0  0  0  0  0  0  0  0  0  0  0  0
   10.4331   -2.3294    0.0000 O   0  0  0  0  0  0  0  0  0  0  0  0
   10.8043   -0.3151    0.0000 O   0  0  0  0  0  0  0  0  0  0  0  0
    9.2352    1.0016    0.0000 O   0  0  0  0  0  0  0  0  0  0  0  0
    8.7812   -8.7825    0.0000 O   0  0  0  0  0  0  0  0  0  0  0  0
    2.5071   -6.4989    0.0000 O   0  0  0  0  0  0  0  0  0  0  0  0
    8.0051    4.3105    0.0000 O   0  0  0  0  0  0  0  0  0  0  0  0
    5.7515    1.6297    0.0000 O   0  0  0  0  0  0  0  0  0  0  0  0
    5.1861    3.2845    0.0000 O   0  0  0  0  0  0  0  0  0  0  0  0
    7.9337    8.8925    0.0000 O   0  0  0  0  0  0  0  0  0  0  0  0
    7.0833   -5.1607    0.0000 C   0  0  1  0  0  0  0  0  0  0  0  0
    6.1358   -4.8159    0.0000 C   0  0  2  0  0  0  0  0  0  0  0  0
    7.4243   -4.2118    0.0000 C   0  0  2  0  0  0  0  0  0  0  0  0
    6.4846   -3.8698    0.0000 C   0  0  1  0  0  0  0  0  0  0  0  0
    7.5078   -6.0662    0.0000 C   0  0  0  0  0  0  0  0  0  0  0  0
    5.2287   -5.2366    0.0000 C   0  0  0  0  0  0  0  0  0  0  0  0
    8.3640   -3.8698    0.0000 C   0  0  0  0  0  0  0  0  0  0  0  0
    5.9846   -3.0038    0.0000 C   0  0  0  0  0  0  0  0  0  0  0  0
    8.6903   -2.0190    0.0000 C   0  0  2  0  0  0  0  0  0  0  0  0
    7.9243   -1.3762    0.0000 C   0  0  1  0  0  0  0  0  0  0  0  0
    8.5042   -6.1513    0.0000 C   0  0  0  0  0  0  0  0  0  0  0  0
    6.9359   -6.8865    0.0000 C   0  0  0  0  0  0  0  0  0  0  0  0
    5.1395   -6.2326    0.0000 C   0  0  0  0  0  0  0  0  0  0  0  0
    4.4107   -4.6614    0.0000 C   0  0  0  0  0  0  0  0  0  0  0  0
    9.6745   -1.6778    0.0000 C   0  0  1  0  0  0  0  0  0  0  0  0
    6.9243   -1.3762    0.0000 C   0  0  0  0  0  0  0  0  0  0  0  0
    9.8633   -0.6535    0.0000 C   0  0  2  0  0  0  0  0  0  0  0  0
    9.0654    0.0161    0.0000 C   0  0  1  0  0  0  0  0  0  0  0  0
    8.9286   -7.0567    0.0000 C   0  0  0  0  0  0  0  0  0  0  0  0
    7.3604   -7.7919    0.0000 C   0  0  0  0  0  0  0  0  0  0  0  0
    4.2323   -6.6534    0.0000 C   0  0  0  0  0  0  0  0  0  0  0  0
    3.5035   -5.0821    0.0000 C   0  0  0  0  0  0  0  0  0  0  0  0
    8.3568   -7.8770    0.0000 C   0  0  0  0  0  0  0  0  0  0  0  0
    3.4143   -6.0781    0.0000 C   0  0  0  0  0  0  0  0  0  0  0  0
    8.4667    1.6414    0.0000 C   0  0  0  0  0  0  0  0  0  0  0  0
    8.6397    2.6686    0.0000 C   0  0  0  0  0  0  0  0  0  0  0  0
    7.4879    1.2851    0.0000 C   0  0  0  0  0  0  0  0  0  0  0  0
    7.8315    3.3257    0.0000 C   0  0  0  0  0  0  0  0  0  0  0  0
    6.6951    1.9608    0.0000 C   0  0  0  0  0  0  0  0  0  0  0  0
    6.8918    2.9837    0.0000 C   0  0  0  0  0  0  0  0  0  0  0  0
    6.1258    3.6265    0.0000 C   0  0  0  0  0  0  0  0  0  0  0  0
    7.2391    4.9533    0.0000 C   0  0  0  0  0  0  0  0  0  0  0  0
    6.2994    4.6113    0.0000 C   0  0  0  0  0  0  0  0  0  0  0  0
    7.4127    5.9381    0.0000 C   0  0  0  0  0  0  0  0  0  0  0  0
    6.6467    6.5809    0.0000 C   0  0  0  0  0  0  0  0  0  0  0  0
    8.3524    6.2801    0.0000 C   0  0  0  0  0  0  0  0  0  0  0  0
    6.8204    7.5657    0.0000 C   0  0  0  0  0  0  0  0  0  0  0  0
    8.5261    7.2650    0.0000 C   0  0  0  0  0  0  0  0  0  0  0  0
    7.7600    7.9077    0.0000 C   0  0  0  0  0  0  0  0  0  0  0  0
    6.6649   -5.6183    0.0000 H   0  0  0  0  0  0  0  0  0  0  0  0
    6.1622   -5.4353    0.0000 H   0  0  0  0  0  0  0  0  0  0  0  0
    8.0266   -4.8116    0.0000 H   0  0  0  0  0  0  0  0  0  0  0  0
    5.6377   -3.9422    0.0000 H   0  0  0  0  0  0  0  0  0  0  0  0
    9.4232   -2.4496    0.0000 H   0  0  0  0  0  0  0  0  0  0  0  0
    7.3729   -0.7293    0.0000 H   0  0  0  0  0  0  0  0  0  0  0  0
   10.2591   -1.4714    0.0000 H   0  0  0  0  0  0  0  0  0  0  0  0
    8.8588   -5.6427    0.0000 H   0  0  0  0  0  0  0  0  0  0  0  0
    6.3182   -6.8337    0.0000 H   0  0  0  0  0  0  0  0  0  0  0  0
    5.6466   -6.5893    0.0000 H   0  0  0  0  0  0  0  0  0  0  0  0
    4.4660   -4.0438    0.0000 H   0  0  0  0  0  0  0  0  0  0  0  0
    7.1021   -0.7822    0.0000 H   0  0  0  0  0  0  0  0  0  0  0  0
    6.4063   -1.0355    0.0000 H   0  0  0  0  0  0  0  0  0  0  0  0
   10.3359   -1.0547    0.0000 H   0  0  0  0  0  0  0  0  0  0  0  0
    9.6476    0.2293    0.0000 H   0  0  0  0  0  0  0  0  0  0  0  0
    9.5464   -7.1095    0.0000 H   0  0  0  0  0  0  0  0  0  0  0  0
    7.0058   -8.3005    0.0000 H   0  0  0  0  0  0  0  0  0  0  0  0
    4.1770   -7.2709    0.0000 H   0  0  0  0  0  0  0  0  0  0  0  0
    2.9964   -4.7255    0.0000 H   0  0  0  0  0  0  0  0  0  0  0  0
   11.0181   -2.1242    0.0000 H   0  0  0  0  0  0  0  0  0  0  0  0
   10.9143    0.2951    0.0000 H   0  0  0  0  0  0  0  0  0  0  0  0
    8.4267   -9.2911    0.0000 H   0  0  0  0  0  0  0  0  0  0  0  0
    2.0000   -6.1422    0.0000 H   0  0  0  0  0  0  0  0  0  0  0  0
    9.2198    2.8873    0.0000 H   0  0  0  0  0  0  0  0  0  0  0  0
    7.3779    0.6750    0.0000 H   0  0  0  0  0  0  0  0  0  0  0  0
    5.6368    1.0204    0.0000 H   0  0  0  0  0  0  0  0  0  0  0  0
    5.8245    5.0098    0.0000 H   0  0  0  0  0  0  0  0  0  0  0  0
    6.0641    6.3688    0.0000 H   0  0  0  0  0  0  0  0  0  0  0  0
    8.8274    5.8816    0.0000 H   0  0  0  0  0  0  0  0  0  0  0  0
    6.3454    7.9642    0.0000 H   0  0  0  0  0  0  0  0  0  0  0  0
    9.1087    7.4770    0.0000 H   0  0  0  0  0  0  0  0  0  0  0  0
    7.4587    9.2911    0.0000 H   0  0  0  0  0  0  0  0  0  0  0  0
  1 21  1  0  0  0  0
  1 23  1  0  0  0  0
  2 22  1  0  0  0  0
  2 30  1  0  0  0  0
  3 24  1  0  0  0  0
  3 32  1  0  0  0  0
  4 21  2  0  0  0  0
  5 22  2  0  0  0  0
 29  6  1  1  0  0  0
  6 73  1  0  0  0  0
 31  7  1  6  0  0  0
  7 74  1  0  0  0  0
 32  8  1  1  0  0  0
  8 39  1  0  0  0  0
  9 37  1  0  0  0  0
  9 75  1  0  0  0  0
 10 38  1  0  0  0  0
 10 76  1  0  0  0  0
 11 42  1  0  0  0  0
 11 46  1  0  0  0  0
 12 43  1  0  0  0  0
 12 79  1  0  0  0  0
 13 45  2  0  0  0  0
 14 53  1  0  0  0  0
 14 85  1  0  0  0  0
 15 16  1  0  0  0  0
 15 17  1  0  0  0  0
 15 19  1  1  0  0  0
 15 54  1  0  0  0  0
 16 18  1  0  0  0  0
 16 20  1  1  0  0  0
 16 55  1  0  0  0  0
 17 18  1  0  0  0  0
 17 21  1  0  0  0  0
 17 56  1  1  0  0  0
 18 22  1  0  0  0  0
 18 57  1  1  0  0  0
 19 25  2  0  0  0  0
 19 26  1  0  0  0  0
 20 27  2  0  0  0  0
 20 28  1  0  0  0  0
 23 24  1  0  0  0  0
 23 29  1  0  0  0  0
 23 58  1  1  0  0  0
 24 30  1  0  0  0  0
 24 59  1  6  0  0  0
 25 33  1  0  0  0  0
 25 61  1  0  0  0  0
 26 34  2  0  0  0  0
 26 62  1  0  0  0  0
 27 35  1  0  0  0  0
 27 63  1  0  0  0  0
 28 36  2  0  0  0  0
 28 64  1  0  0  0  0
 29 31  1  0  0  0  0
 29 60  1  0  0  0  0
 30 65  1  0  0  0  0
 30 66  1  0  0  0  0
 31 32  1  0  0  0  0
 31 67  1  0  0  0  0
 32 68  1  0  0  0  0
 33 37  2  0  0  0  0
 33 69  1  0  0  0  0
 34 37  1  0  0  0  0
 34 70  1  0  0  0  0
 35 38  2  0  0  0  0
 35 71  1  0  0  0  0
 36 38  1  0  0  0  0
 36 72  1  0  0  0  0
 39 40  1  0  0  0  0
 39 41  2  0  0  0  0
 40 42  2  0  0  0  0
 40 77  1  0  0  0  0
 41 43  1  0  0  0  0
 41 78  1  0  0  0  0
 42 44  1  0  0  0  0
 43 44  2  0  0  0  0
 44 45  1  0  0  0  0
 45 47  1  0  0  0  0
 46 47  2  0  0  0  0
 46 48  1  0  0  0  0
 47 80  1  0  0  0  0
 48 49  2  0  0  0  0
 48 50  1  0  0  0  0
 49 51  1  0  0  0  0
 49 81  1  0  0  0  0
 50 52  2  0  0  0  0
 50 82  1  0  0  0  0
 51 53  2  0  0  0  0
 51 83  1  0  0  0  0
 52 53  1  0  0  0  0
 52 84  1  0  0  0  0
M  END
> <PUBCHEM_COMPOUND_CID>
24879215

> <PUBCHEM_COMPOUND_CANONICALIZED>
1

> <PUBCHEM_CACTVS_COMPLEXITY>
1380

> <PUBCHEM_CACTVS_HBOND_ACCEPTOR>
14

> <PUBCHEM_CACTVS_HBOND_DONOR>
6

> <PUBCHEM_CACTVS_ROTATABLE_BOND>
5

> <PUBCHEM_CACTVS_SUBSKEYS>
AAADcfB8PAAAAAAAAAAAAAAAAABgAAAAAAA0YMGCAAAAAEiBVAAAGgAACAAADRSwmAMwDoAABgCIAqDSCAACCAAkIAAIiAEGCMgdNzaGNRqieWCl4BUPuQfL7PzOoAAACAAIAABAAAAQABAAAAAAAAAAAA==

> <PUBCHEM_IUPAC_OPENEYE_NAME>
(1S,4R,5S,6R,7S,11R,13S,14R,15R)-14,15-dihydroxy-13-[5-hydroxy-2-(4-hydroxyphenyl)-4-oxo-chromen-7-yl]oxy-5,6-bis(4-hydroxyphenyl)-2,9,12-trioxatricyclo[9.4.0.04,7]pentadecane-3,8-dione

> <PUBCHEM_IUPAC_CAS_NAME>
(1S,4R,5S,6R,7S,11R,13S,14R,15R)-14,15-dihydroxy-13-[[5-hydroxy-2-(4-hydroxyphenyl)-4-oxo-1-benzopyran-7-yl]oxy]-5,6-bis(4-hydroxyphenyl)-2,9,12-trioxatricyclo[9.4.0.04,7]pentadecane-3,8-dione

> <PUBCHEM_IUPAC_NAME_MARKUP>
(1<I>S</I>,4<I>R</I>,5<I>S</I>,6<I>R</I>,7<I>S</I>,11<I>R</I>,13<I>S</I>,14<I>R</I>,15<I>R</I>)-14,15-dihydroxy-13-[5-hydroxy-2-(4-hydroxyphenyl)-4-oxochromen-7-yl]oxy-5,6-bis(4-hydroxyphenyl)-2,9,12-trioxatricyclo[9.4.0.0<SUP>4,7</SUP>]pentadecane-3,8-dione

> <PUBCHEM_IUPAC_NAME>
(1S,4R,5S,6R,7S,11R,13S,14R,15R)-14,15-dihydroxy-13-[5-hydroxy-2-(4-hydroxyphenyl)-4-oxochromen-7-yl]oxy-5,6-bis(4-hydroxyphenyl)-2,9,12-trioxatricyclo[9.4.0.04,7]pentadecane-3,8-dione

> <PUBCHEM_IUPAC_SYSTEMATIC_NAME>
(1S,4R,5S,6R,7S,11R,13S,14R,15R)-5,6-bis(4-hydroxyphenyl)-13-[2-(4-hydroxyphenyl)-5-oxidanyl-4-oxidanylidene-chromen-7-yl]oxy-14,15-bis(oxidanyl)-2,9,12-trioxatricyclo[9.4.0.04,7]pentadecane-3,8-dione

> <PUBCHEM_IUPAC_TRADITIONAL_NAME>
(1S,4R,5S,6R,7S,11R,13S,14R,15R)-14,15-dihydroxy-13-[5-hydroxy-2-(4-hydroxyphenyl)-4-keto-chromen-7-yl]oxy-5,6-bis(4-hydroxyphenyl)-2,9,12-trioxatricyclo[9.4.0.04,7]pentadecane-3,8-quinone

> <PUBCHEM_IUPAC_INCHI>
InChI=1S/C39H32O14/c40-20-7-1-17(2-8-20)26-15-25(44)31-24(43)13-23(14-27(31)51-26)50-39-35(46)34(45)36-28(52-39)16-49-37(47)32-29(18-3-9-21(41)10-4-18)30(33(32)38(48)53-36)19-5-11-22(42)12-6-19/h1-15,28-30,32-36,39-43,45-46H,16H2/t28-,29-,30+,32+,33-,34-,35-,36-,39-/m1/s1

> <PUBCHEM_IUPAC_INCHIKEY>
FJUGWGGYGGSGCO-FAXYJIGKSA-N

> <PUBCHEM_XLOGP3_AA>
3.7

> <PUBCHEM_EXACT_MASS>
724.179206

> <PUBCHEM_MOLECULAR_FORMULA>
C39H32O14

> <PUBCHEM_MOLECULAR_WEIGHT>
724.7

> <PUBCHEM_OPENEYE_CAN_SMILES>
C1C2C(C(C(C(O2)OC3=CC(=C4C(=C3)OC(=CC4=O)C5=CC=C(C=C5)O)O)O)O)OC(=O)C6C(C(C6C(=O)O1)C7=CC=C(C=C7)O)C8=CC=C(C=C8)O

> <PUBCHEM_OPENEYE_ISO_SMILES>
C1[C@@H]2[C@H]([C@@H]([C@H]([C@@H](O2)OC3=CC(=C4C(=C3)OC(=CC4=O)C5=CC=C(C=C5)O)O)O)O)OC(=O)[C@@H]6[C@H]([C@H]([C@@H]6C(=O)O1)C7=CC=C(C=C7)O)C8=CC=C(C=C8)O

> <PUBCHEM_CACTVS_TPSA>
219

> <PUBCHEM_MONOISOTOPIC_WEIGHT>
724.179206

> <PUBCHEM_TOTAL_CHARGE>
0

> <PUBCHEM_HEAVY_ATOM_COUNT>
53

> <PUBCHEM_ATOM_DEF_STEREO_COUNT>
9

> <PUBCHEM_ATOM_UDEF_STEREO_COUNT>
0

> <PUBCHEM_BOND_DEF_STEREO_COUNT>
0

> <PUBCHEM_BOND_UDEF_STEREO_COUNT>
0

> <PUBCHEM_ISOTOPIC_ATOM_COUNT>
0

> <PUBCHEM_COMPONENT_COUNT>
1

> <PUBCHEM_CACTVS_TAUTO_COUNT>
-1

> <PUBCHEM_COORDINATE_TYPE>
1
5
255

> <PUBCHEM_BONDANNOTATIONS>
11  42  8
11  46  8
15  19  5
16  20  5
17  56  5
18  57  5
19  25  8
19  26  8
20  27  8
20  28  8
23  58  5
24  59  6
25  33  8
26  34  8
27  35  8
28  36  8
33  37  8
34  37  8
35  38  8
36  38  8
39  40  8
39  41  8
40  42  8
41  43  8
42  44  8
43  44  8
44  45  8
45  47  8
46  47  8
48  49  8
48  50  8
49  51  8
50  52  8
51  53  8
52  53  8
29  6  5
31  7  6
32  8  5

$$$$
