24879103
  -OEChem-08252013362D

101106  0     1  0  0  0  0  0999 V2000
    8.0622   -1.5285    0.0000 O   0  0  0  0  0  0  0  0  0  0  0  0
   20.1244    1.7035    0.0000 O   0  0  0  0  0  0  0  0  0  0  0  0
    6.3301   -3.5285    0.0000 O   0  0  0  0  0  0  0  0  0  0  0  0
    9.7942   -1.5285    0.0000 O   0  0  0  0  0  0  0  0  0  0  0  0
    8.0622   -4.5285    0.0000 O   0  0  0  0  0  0  0  0  0  0  0  0
    9.7942   -3.5285    0.0000 O   0  0  0  0  0  0  0  0  0  0  0  0
   18.6244    0.8375    0.0000 O   0  0  0  0  0  0  0  0  0  0  0  0
   22.6244    0.8375    0.0000 O   0  0  0  0  0  0  0  0  0  0  0  0
   21.6244   -0.8946    0.0000 O   0  0  0  0  0  0  0  0  0  0  0  0
   19.6244   -0.8946    0.0000 O   0  0  0  0  0  0  0  0  0  0  0  0
    5.4641   -2.0285    0.0000 O   0  0  0  0  0  0  0  0  0  0  0  0
   22.6244    2.5696    0.0000 O   0  0  0  0  0  0  0  0  0  0  0  0
   12.3923   -0.0285    0.0000 O   0  0  0  0  0  0  0  0  0  0  0  0
   14.1244   -1.0285    0.0000 O   0  0  0  0  0  0  0  0  0  0  0  0
    4.5981   -0.5285    0.0000 O   0  0  0  0  0  0  0  0  0  0  0  0
    9.7942    2.4715    0.0000 O   0  0  0  0  0  0  0  0  0  0  0  0
   16.6244    4.3016    0.0000 O   0  0  0  0  0  0  0  0  0  0  0  0
   15.6244   -0.8946    0.0000 O   0  0  0  0  0  0  0  0  0  0  0  0
   13.2583   -1.5285    0.0000 O   0  0  0  0  0  0  0  0  0  0  0  0
    7.1962   -3.0285    0.0000 C   0  0  1  0  0  0  0  0  0  0  0  0
    8.0622   -3.5285    0.0000 C   0  0  1  0  0  0  0  0  0  0  0  0
    7.1962   -2.0285    0.0000 C   0  0  1  0  0  0  0  0  0  0  0  0
    8.9282   -3.0285    0.0000 C   0  0  2  0  0  0  0  0  0  0  0  0
   21.6244    0.8375    0.0000 C   0  0  1  0  0  0  0  0  0  0  0  0
   21.1244   -0.0285    0.0000 C   0  0  1  0  0  0  0  0  0  0  0  0
   21.1244    1.7035    0.0000 C   0  0  1  0  0  0  0  0  0  0  0  0
   20.1244   -0.0285    0.0000 C   0  0  2  0  0  0  0  0  0  0  0  0
    8.9282   -2.0285    0.0000 C   0  0  1  0  0  0  0  0  0  0  0  0
   19.6244    0.8375    0.0000 C   0  0  1  0  0  0  0  0  0  0  0  0
    6.3301   -1.5285    0.0000 C   0  0  0  0  0  0  0  0  0  0  0  0
   21.6244    2.5696    0.0000 C   0  0  0  0  0  0  0  0  0  0  0  0
    9.7942   -0.5285    0.0000 C   0  0  0  0  0  0  0  0  0  0  0  0
   18.1244    1.7035    0.0000 C   0  0  0  0  0  0  0  0  0  0  0  0
   10.6603   -0.0285    0.0000 C   0  0  0  0  0  0  0  0  0  0  0  0
   17.1244    1.7035    0.0000 C   0  0  0  0  0  0  0  0  0  0  0  0
    8.9282   -0.0285    0.0000 C   0  0  0  0  0  0  0  0  0  0  0  0
   18.6244    2.5695    0.0000 C   0  0  0  0  0  0  0  0  0  0  0  0
    4.5981   -1.5285    0.0000 C   0  0  0  0  0  0  0  0  0  0  0  0
   11.5263   -0.5285    0.0000 C   0  0  0  0  0  0  0  0  0  0  0  0
   16.6244    0.8375    0.0000 C   0  0  0  0  0  0  0  0  0  0  0  0
   15.6244    0.8375    0.0000 C   0  0  0  0  0  0  0  0  0  0  0  0
   14.1244   -0.0285    0.0000 C   0  0  3  0  0  0  0  0  0  0  0  0
   10.6603    0.9715    0.0000 C   0  0  0  0  0  0  0  0  0  0  0  0
   16.6244    2.5695    0.0000 C   0  0  0  0  0  0  0  0  0  0  0  0
    8.9282    0.9715    0.0000 C   0  0  0  0  0  0  0  0  0  0  0  0
   15.1244   -0.0285    0.0000 C   0  0  0  0  0  0  0  0  0  0  0  0
   15.1244    1.7035    0.0000 C   0  0  0  0  0  0  0  0  0  0  0  0
   18.1244    3.4356    0.0000 C   0  0  0  0  0  0  0  0  0  0  0  0
    9.7942    1.4715    0.0000 C   0  0  0  0  0  0  0  0  0  0  0  0
   17.1244    3.4356    0.0000 C   0  0  0  0  0  0  0  0  0  0  0  0
    3.7320   -2.0285    0.0000 C   0  0  0  0  0  0  0  0  0  0  0  0
   13.6244    0.8375    0.0000 C   0  0  0  0  0  0  0  0  0  0  0  0
   13.2583   -0.5285    0.0000 C   0  0  0  0  0  0  0  0  0  0  0  0
   14.1244    1.7035    0.0000 C   0  0  0  0  0  0  0  0  0  0  0  0
    2.8660   -1.5285    0.0000 C   0  0  0  0  0  0  0  0  0  0  0  0
    3.7320   -3.0285    0.0000 C   0  0  0  0  0  0  0  0  0  0  0  0
    2.0000   -2.0285    0.0000 C   0  0  0  0  0  0  0  0  0  0  0  0
    2.8660   -3.5285    0.0000 C   0  0  0  0  0  0  0  0  0  0  0  0
    2.0000   -3.0285    0.0000 C   0  0  0  0  0  0  0  0  0  0  0  0
    6.6592   -2.7185    0.0000 H   0  0  0  0  0  0  0  0  0  0  0  0
    7.5252   -3.8385    0.0000 H   0  0  0  0  0  0  0  0  0  0  0  0
    7.1962   -1.4085    0.0000 H   0  0  0  0  0  0  0  0  0  0  0  0
    8.9282   -3.6485    0.0000 H   0  0  0  0  0  0  0  0  0  0  0  0
   21.9344    0.3006    0.0000 H   0  0  0  0  0  0  0  0  0  0  0  0
   21.7444   -0.0285    0.0000 H   0  0  0  0  0  0  0  0  0  0  0  0
   20.8144    2.2405    0.0000 H   0  0  0  0  0  0  0  0  0  0  0  0
   20.4344   -0.5655    0.0000 H   0  0  0  0  0  0  0  0  0  0  0  0
    9.4651   -2.3385    0.0000 H   0  0  0  0  0  0  0  0  0  0  0  0
   19.3144    1.3744    0.0000 H   0  0  0  0  0  0  0  0  0  0  0  0
    6.7287   -1.0536    0.0000 H   0  0  0  0  0  0  0  0  0  0  0  0
    5.9316   -1.0536    0.0000 H   0  0  0  0  0  0  0  0  0  0  0  0
   21.7320    3.1801    0.0000 H   0  0  0  0  0  0  0  0  0  0  0  0
   21.0417    2.7816    0.0000 H   0  0  0  0  0  0  0  0  0  0  0  0
    6.3301   -4.1485    0.0000 H   0  0  0  0  0  0  0  0  0  0  0  0
    8.5991   -4.8385    0.0000 H   0  0  0  0  0  0  0  0  0  0  0  0
   10.3312   -3.2185    0.0000 H   0  0  0  0  0  0  0  0  0  0  0  0
   22.9344    0.3006    0.0000 H   0  0  0  0  0  0  0  0  0  0  0  0
   22.2444   -0.8946    0.0000 H   0  0  0  0  0  0  0  0  0  0  0  0
   19.9344   -1.4315    0.0000 H   0  0  0  0  0  0  0  0  0  0  0  0
   22.9344    3.1065    0.0000 H   0  0  0  0  0  0  0  0  0  0  0  0
    8.3913   -0.3385    0.0000 H   0  0  0  0  0  0  0  0  0  0  0  0
   19.2444    2.5695    0.0000 H   0  0  0  0  0  0  0  0  0  0  0  0
   11.1278   -1.0035    0.0000 H   0  0  0  0  0  0  0  0  0  0  0  0
   11.9248   -1.0035    0.0000 H   0  0  0  0  0  0  0  0  0  0  0  0
   16.9344    0.3006    0.0000 H   0  0  0  0  0  0  0  0  0  0  0  0
   11.1972    1.2815    0.0000 H   0  0  0  0  0  0  0  0  0  0  0  0
   16.0044    2.5695    0.0000 H   0  0  0  0  0  0  0  0  0  0  0  0
    8.3913    1.2815    0.0000 H   0  0  0  0  0  0  0  0  0  0  0  0
   15.7070    1.9156    0.0000 H   0  0  0  0  0  0  0  0  0  0  0  0
   15.0167    2.3141    0.0000 H   0  0  0  0  0  0  0  0  0  0  0  0
   18.4344    3.9725    0.0000 H   0  0  0  0  0  0  0  0  0  0  0  0
   13.0044    0.8375    0.0000 H   0  0  0  0  0  0  0  0  0  0  0  0
   13.8144    2.2405    0.0000 H   0  0  0  0  0  0  0  0  0  0  0  0
   14.6613   -1.3385    0.0000 H   0  0  0  0  0  0  0  0  0  0  0  0
    2.8660   -0.9085    0.0000 H   0  0  0  0  0  0  0  0  0  0  0  0
    4.2690   -3.3385    0.0000 H   0  0  0  0  0  0  0  0  0  0  0  0
   10.3312    2.7815    0.0000 H   0  0  0  0  0  0  0  0  0  0  0  0
   16.9344    4.8385    0.0000 H   0  0  0  0  0  0  0  0  0  0  0  0
    1.4631   -1.7185    0.0000 H   0  0  0  0  0  0  0  0  0  0  0  0
    2.8660   -4.1485    0.0000 H   0  0  0  0  0  0  0  0  0  0  0  0
    1.4631   -3.3385    0.0000 H   0  0  0  0  0  0  0  0  0  0  0  0
  1 22  1  0  0  0  0
  1 28  1  0  0  0  0
  2 26  1  0  0  0  0
  2 29  1  0  0  0  0
 20  3  1  6  0  0  0
  3 74  1  0  0  0  0
 28  4  1  1  0  0  0
  4 32  1  0  0  0  0
 21  5  1  1  0  0  0
  5 75  1  0  0  0  0
 23  6  1  6  0  0  0
  6 76  1  0  0  0  0
 29  7  1  6  0  0  0
  7 33  1  0  0  0  0
 24  8  1  1  0  0  0
  8 77  1  0  0  0  0
 25  9  1  6  0  0  0
  9 78  1  0  0  0  0
 27 10  1  1  0  0  0
 10 79  1  0  0  0  0
 11 30  1  0  0  0  0
 11 38  1  0  0  0  0
 12 31  1  0  0  0  0
 12 80  1  0  0  0  0
 13 39  1  0  0  0  0
 13 53  1  0  0  0  0
 14 42  1  0  0  0  0
 14 94  1  0  0  0  0
 15 38  2  0  0  0  0
 16 49  1  0  0  0  0
 16 97  1  0  0  0  0
 17 50  1  0  0  0  0
 17 98  1  0  0  0  0
 18 46  2  0  0  0  0
 19 53  2  0  0  0  0
 20 21  1  0  0  0  0
 20 22  1  0  0  0  0
 20 60  1  0  0  0  0
 21 23  1  0  0  0  0
 21 61  1  0  0  0  0
 22 30  1  1  0  0  0
 22 62  1  0  0  0  0
 23 28  1  0  0  0  0
 23 63  1  0  0  0  0
 24 25  1  0  0  0  0
 24 26  1  0  0  0  0
 24 64  1  0  0  0  0
 25 27  1  0  0  0  0
 25 65  1  0  0  0  0
 26 31  1  6  0  0  0
 26 66  1  0  0  0  0
 27 29  1  0  0  0  0
 27 67  1  0  0  0  0
 28 68  1  0  0  0  0
 29 69  1  0  0  0  0
 30 70  1  0  0  0  0
 30 71  1  0  0  0  0
 31 72  1  0  0  0  0
 31 73  1  0  0  0  0
 32 34  2  0  0  0  0
 32 36  1  0  0  0  0
 33 35  2  0  0  0  0
 33 37  1  0  0  0  0
 34 39  1  0  0  0  0
 34 43  1  0  0  0  0
 35 40  1  0  0  0  0
 35 44  1  0  0  0  0
 36 45  2  0  0  0  0
 36 81  1  0  0  0  0
 37 48  2  0  0  0  0
 37 82  1  0  0  0  0
 38 51  1  0  0  0  0
 39 83  1  0  0  0  0
 39 84  1  0  0  0  0
 40 41  2  0  0  0  0
 40 85  1  0  0  0  0
 41 46  1  0  0  0  0
 41 47  1  0  0  0  0
 42 46  1  0  0  0  0
 42 52  1  0  0  0  0
 42 53  1  0  0  0  0
 43 49  2  0  0  0  0
 43 86  1  0  0  0  0
 44 50  2  0  0  0  0
 44 87  1  0  0  0  0
 45 49  1  0  0  0  0
 45 88  1  0  0  0  0
 47 54  1  0  0  0  0
 47 89  1  0  0  0  0
 47 90  1  0  0  0  0
 48 50  1  0  0  0  0
 48 91  1  0  0  0  0
 51 55  2  0  0  0  0
 51 56  1  0  0  0  0
 52 54  2  0  0  0  0
 52 92  1  0  0  0  0
 54 93  1  0  0  0  0
 55 57  1  0  0  0  0
 55 95  1  0  0  0  0
 56 58  2  0  0  0  0
 56 96  1  0  0  0  0
 57 59  2  0  0  0  0
 57 99  1  0  0  0  0
 58 59  1  0  0  0  0
 58100  1  0  0  0  0
 59101  1  0  0  0  0
M  END
> <PUBCHEM_COMPOUND_CID>
24879103

> <PUBCHEM_COMPOUND_CANONICALIZED>
1

> <PUBCHEM_CACTVS_COMPLEXITY>
1500

> <PUBCHEM_CACTVS_HBOND_ACCEPTOR>
19

> <PUBCHEM_CACTVS_HBOND_DONOR>
10

> <PUBCHEM_CACTVS_ROTATABLE_BOND>
14

> <PUBCHEM_CACTVS_SUBSKEYS>
AAADcfB8PgAAAAAAAAAAAAAAAAAAAAAAAAA0aMECAAAAAAABUAAAGgAACAAADFSwmAMwDoAABgCIAqDSCAICCAAkIAAIiAFGCMgdNzaONRqieSCl4BEPuYfI6DyOAQABAAAIAAACAAIAABAAAAAAAAAAAA==

> <PUBCHEM_IUPAC_OPENEYE_NAME>
[2-[(2S,3R,4S,5S,6R)-6-(benzoyloxymethyl)-3,4,5-trihydroxy-tetrahydropyran-2-yl]oxy-5-hydroxy-phenyl]methyl (5E)-1-hydroxy-5-[[5-hydroxy-2-[(2S,3R,4S,5S,6R)-3,4,5-trihydroxy-6-(hydroxymethyl)tetrahydropyran-2-yl]oxy-phenyl]methylene]-6-oxo-cyclohex-2-ene-1-carboxylate

> <PUBCHEM_IUPAC_CAS_NAME>
(5E)-1-hydroxy-5-[[5-hydroxy-2-[[(2S,3R,4S,5S,6R)-3,4,5-trihydroxy-6-(hydroxymethyl)-2-oxanyl]oxy]phenyl]methylidene]-6-oxo-1-cyclohex-2-enecarboxylic acid [2-[[(2S,3R,4S,5S,6R)-6-(benzoyloxymethyl)-3,4,5-trihydroxy-2-oxanyl]oxy]-5-hydroxyphenyl]methyl ester

> <PUBCHEM_IUPAC_NAME_MARKUP>
[2-[(2<I>S</I>,3<I>R</I>,4<I>S</I>,5<I>S</I>,6<I>R</I>)-6-(benzoyloxymethyl)-3,4,5-trihydroxyoxan-2-yl]oxy-5-hydroxyphenyl]methyl (5<I>E</I>)-1-hydroxy-5-[[5-hydroxy-2-[(2<I>S</I>,3<I>R</I>,4<I>S</I>,5<I>S</I>,6<I>R</I>)-3,4,5-trihydroxy-6-(hydroxymethyl)oxan-2-yl]oxyphenyl]methylidene]-6-oxocyclohex-2-ene-1-carboxylate

> <PUBCHEM_IUPAC_NAME>
[2-[(2S,3R,4S,5S,6R)-6-(benzoyloxymethyl)-3,4,5-trihydroxyoxan-2-yl]oxy-5-hydroxyphenyl]methyl (5E)-1-hydroxy-5-[[5-hydroxy-2-[(2S,3R,4S,5S,6R)-3,4,5-trihydroxy-6-(hydroxymethyl)oxan-2-yl]oxyphenyl]methylidene]-6-oxocyclohex-2-ene-1-carboxylate

> <PUBCHEM_IUPAC_SYSTEMATIC_NAME>
[5-oxidanyl-2-[(2S,3R,4S,5S,6R)-3,4,5-tris(oxidanyl)-6-(phenylcarbonyloxymethyl)oxan-2-yl]oxy-phenyl]methyl (5E)-5-[[2-[(2S,3R,4S,5S,6R)-6-(hydroxymethyl)-3,4,5-tris(oxidanyl)oxan-2-yl]oxy-5-oxidanyl-phenyl]methylidene]-1-oxidanyl-6-oxidanylidene-cyclohex-2-ene-1-carboxylate

> <PUBCHEM_IUPAC_TRADITIONAL_NAME>
(5E)-1-hydroxy-5-[5-hydroxy-2-[(2S,3R,4S,5S,6R)-3,4,5-trihydroxy-6-methylol-tetrahydropyran-2-yl]oxy-benzylidene]-6-keto-cyclohex-2-ene-1-carboxylic acid [2-[(2S,3R,4S,5S,6R)-6-(benzoyloxymethyl)-3,4,5-trihydroxy-tetrahydropyran-2-yl]oxy-5-hydroxy-benzyl] ester

> <PUBCHEM_IUPAC_INCHI>
InChI=1S/C40H42O19/c41-16-27-29(44)31(46)33(48)37(58-27)56-25-10-8-23(42)14-21(25)13-20-7-4-12-40(53,35(20)50)39(52)55-17-22-15-24(43)9-11-26(22)57-38-34(49)32(47)30(45)28(59-38)18-54-36(51)19-5-2-1-3-6-19/h1-6,8-15,27-34,37-38,41-49,53H,7,16-18H2/b20-13+/t27-,28-,29-,30-,31+,32+,33-,34-,37-,38-,40?/m1/s1

> <PUBCHEM_IUPAC_INCHIKEY>
VJDJBHKKFHYOAP-BQQHIGENSA-N

> <PUBCHEM_XLOGP3_AA>
0.4

> <PUBCHEM_EXACT_MASS>
826.232029

> <PUBCHEM_MOLECULAR_FORMULA>
C40H42O19

> <PUBCHEM_MOLECULAR_WEIGHT>
826.7

> <PUBCHEM_OPENEYE_CAN_SMILES>
C1C=CC(C(=O)C1=CC2=C(C=CC(=C2)O)OC3C(C(C(C(O3)CO)O)O)O)(C(=O)OCC4=C(C=CC(=C4)O)OC5C(C(C(C(O5)COC(=O)C6=CC=CC=C6)O)O)O)O

> <PUBCHEM_OPENEYE_ISO_SMILES>
C\1C=CC(C(=O)/C1=C/C2=C(C=CC(=C2)O)O[C@H]3[C@@H]([C@H]([C@@H]([C@H](O3)CO)O)O)O)(C(=O)OCC4=C(C=CC(=C4)O)O[C@H]5[C@@H]([C@H]([C@@H]([C@H](O5)COC(=O)C6=CC=CC=C6)O)O)O)O

> <PUBCHEM_CACTVS_TPSA>
309

> <PUBCHEM_MONOISOTOPIC_WEIGHT>
826.232029

> <PUBCHEM_TOTAL_CHARGE>
0

> <PUBCHEM_HEAVY_ATOM_COUNT>
59

> <PUBCHEM_ATOM_DEF_STEREO_COUNT>
10

> <PUBCHEM_ATOM_UDEF_STEREO_COUNT>
1

> <PUBCHEM_BOND_DEF_STEREO_COUNT>
1

> <PUBCHEM_BOND_UDEF_STEREO_COUNT>
0

> <PUBCHEM_ISOTOPIC_ATOM_COUNT>
0

> <PUBCHEM_COMPONENT_COUNT>
1

> <PUBCHEM_CACTVS_TAUTO_COUNT>
-1

> <PUBCHEM_COORDINATE_TYPE>
1
5
255

> <PUBCHEM_BONDANNOTATIONS>
27  10  5
42  14  3
22  30  5
26  31  6
20  3  6
32  34  8
32  36  8
33  35  8
33  37  8
34  43  8
35  44  8
36  45  8
37  48  8
28  4  5
43  49  8
44  50  8
45  49  8
48  50  8
21  5  5
51  55  8
51  56  8
55  57  8
56  58  8
57  59  8
58  59  8
23  6  6
29  7  6
24  8  5
25  9  6

$$$$
