101443792
  -OEChem-08312002433D

 72 76  0     1  0  0  0  0  0999 V2000
    5.2800   -1.4326    1.9281 O   0  0  0  0  0  0  0  0  0  0  0  0
    6.2801   -0.4262    1.5300 O   0  0  0  0  0  0  0  0  0  0  0  0
    0.2350   -0.4616    1.9295 O   0  0  0  0  0  0  0  0  0  0  0  0
    0.9254   -2.8920   -2.1625 O   0  0  0  0  0  0  0  0  0  0  0  0
   -0.8001    0.3606   -1.5627 O   0  0  0  0  0  0  0  0  0  0  0  0
    2.7471    2.6501   -2.5297 O   0  0  0  0  0  0  0  0  0  0  0  0
   -1.0771   -3.7855    0.8579 O   0  0  0  0  0  0  0  0  0  0  0  0
   -3.3653    2.5576    2.0656 O   0  0  0  0  0  0  0  0  0  0  0  0
    4.8535   -1.5765    0.5449 C   0  0  2  0  0  0  0  0  0  0  0  0
    5.6481   -0.2931    0.2254 C   0  0  1  0  0  0  0  0  0  0  0  0
    3.2939   -1.6142    0.3043 C   0  0  0  0  0  0  0  0  0  0  0  0
    4.8802    1.0707   -0.0118 C   0  0  0  0  0  0  0  0  0  0  0  0
    2.4314   -1.0196    1.2253 C   0  0  0  0  0  0  0  0  0  0  0  0
    2.7784   -2.2405   -0.8305 C   0  0  0  0  0  0  0  0  0  0  0  0
    0.5379   -1.6774   -0.1233 C   0  0  0  0  0  0  0  0  0  0  0  0
    1.0534   -1.0513    1.0115 C   0  0  0  0  0  0  0  0  0  0  0  0
    1.4004   -2.2720   -1.0443 C   0  0  0  0  0  0  0  0  0  0  0  0
   -0.8963   -1.7114   -0.3455 C   0  0  0  0  0  0  0  0  0  0  0  0
    4.1425    1.2616   -1.1802 C   0  0  0  0  0  0  0  0  0  0  0  0
    4.9421    2.0819    0.9470 C   0  0  0  0  0  0  0  0  0  0  0  0
   -3.6522   -1.7769   -0.7734 C   0  0  0  0  0  0  0  0  0  0  0  0
   -1.5157   -0.6862   -1.0602 C   0  0  0  0  0  0  0  0  0  0  0  0
   -1.6549   -2.7695    0.1552 C   0  0  0  0  0  0  0  0  0  0  0  0
   -5.1255   -1.8121   -1.0024 C   0  0  0  0  0  0  0  0  0  0  0  0
    3.4667    2.4637   -1.3897 C   0  0  0  0  0  0  0  0  0  0  0  0
   -2.8936   -0.7189   -1.2741 C   0  0  0  0  0  0  0  0  0  0  0  0
   -3.0328   -2.8023   -0.0588 C   0  0  0  0  0  0  0  0  0  0  0  0
    4.2663    3.2840    0.7374 C   0  0  0  0  0  0  0  0  0  0  0  0
   -5.9492   -1.1148    0.0982 C   0  0  0  0  0  0  0  0  0  0  0  0
    3.5286    3.4749   -0.4308 C   0  0  0  0  0  0  0  0  0  0  0  0
   -5.6397    0.3566    0.2305 C   0  0  0  0  0  0  0  0  0  0  0  0
    0.8612    0.1512    3.0542 C   0  0  0  0  0  0  0  0  0  0  0  0
   -4.6340    0.7825    1.0982 C   0  0  0  0  0  0  0  0  0  0  0  0
   -6.3588    1.2904   -0.5154 C   0  0  0  0  0  0  0  0  0  0  0  0
   -4.3475    2.1421    1.2199 C   0  0  0  0  0  0  0  0  0  0  0  0
   -1.5274    1.3564   -2.2781 C   0  0  0  0  0  0  0  0  0  0  0  0
   -6.0724    2.6501   -0.3936 C   0  0  0  0  0  0  0  0  0  0  0  0
    2.7266    1.5749   -3.4676 C   0  0  0  0  0  0  0  0  0  0  0  0
   -5.0667    3.0759    0.4741 C   0  0  0  0  0  0  0  0  0  0  0  0
   -2.6697    1.5495    2.7977 C   0  0  0  0  0  0  0  0  0  0  0  0
    5.3425   -2.4653    0.1210 H   0  0  0  0  0  0  0  0  0  0  0  0
    6.3987   -0.4596   -0.5588 H   0  0  0  0  0  0  0  0  0  0  0  0
    2.8904   -0.5430    2.0835 H   0  0  0  0  0  0  0  0  0  0  0  0
    3.4561   -2.6997   -1.5458 H   0  0  0  0  0  0  0  0  0  0  0  0
    4.1397    0.4452   -1.8942 H   0  0  0  0  0  0  0  0  0  0  0  0
    5.5111    1.9552    1.8632 H   0  0  0  0  0  0  0  0  0  0  0  0
   -5.3565   -1.3626   -1.9777 H   0  0  0  0  0  0  0  0  0  0  0  0
   -5.4580   -2.8555   -1.0817 H   0  0  0  0  0  0  0  0  0  0  0  0
   -3.4299    0.0419   -1.8307 H   0  0  0  0  0  0  0  0  0  0  0  0
   -3.6267   -3.6249    0.3327 H   0  0  0  0  0  0  0  0  0  0  0  0
    4.3143    4.0714    1.4839 H   0  0  0  0  0  0  0  0  0  0  0  0
   -5.7820   -1.6104    1.0636 H   0  0  0  0  0  0  0  0  0  0  0  0
   -7.0175   -1.2425   -0.1186 H   0  0  0  0  0  0  0  0  0  0  0  0
    3.0041    4.4133   -0.5883 H   0  0  0  0  0  0  0  0  0  0  0  0
    1.6737   -3.2399   -2.6771 H   0  0  0  0  0  0  0  0  0  0  0  0
    0.0657    0.5528    3.6894 H   0  0  0  0  0  0  0  0  0  0  0  0
    1.4865    0.9997    2.7557 H   0  0  0  0  0  0  0  0  0  0  0  0
    1.4050   -0.5785    3.6639 H   0  0  0  0  0  0  0  0  0  0  0  0
   -1.7630   -4.4226    1.1214 H   0  0  0  0  0  0  0  0  0  0  0  0
   -4.1124    0.0166    1.6623 H   0  0  0  0  0  0  0  0  0  0  0  0
   -7.1429    0.9706   -1.1966 H   0  0  0  0  0  0  0  0  0  0  0  0
   -0.8022    2.1109   -2.6014 H   0  0  0  0  0  0  0  0  0  0  0  0
   -2.2505    1.8708   -1.6357 H   0  0  0  0  0  0  0  0  0  0  0  0
   -1.9847    0.9506   -3.1869 H   0  0  0  0  0  0  0  0  0  0  0  0
   -6.6317    3.3772   -0.9751 H   0  0  0  0  0  0  0  0  0  0  0  0
    2.1056    1.8940   -4.3111 H   0  0  0  0  0  0  0  0  0  0  0  0
    2.2545    0.6813   -3.0447 H   0  0  0  0  0  0  0  0  0  0  0  0
    3.7258    1.3686   -3.8660 H   0  0  0  0  0  0  0  0  0  0  0  0
   -4.8475    4.1363    0.5642 H   0  0  0  0  0  0  0  0  0  0  0  0
   -3.3374    1.0175    3.4838 H   0  0  0  0  0  0  0  0  0  0  0  0
   -1.9191    2.0579    3.4109 H   0  0  0  0  0  0  0  0  0  0  0  0
   -2.1343    0.8691    2.1286 H   0  0  0  0  0  0  0  0  0  0  0  0
  1  2  1  0  0  0  0
  1  9  1  0  0  0  0
  2 10  1  0  0  0  0
  3 16  1  0  0  0  0
  3 32  1  0  0  0  0
  4 17  1  0  0  0  0
  4 55  1  0  0  0  0
  5 22  1  0  0  0  0
  5 36  1  0  0  0  0
  6 25  1  0  0  0  0
  6 38  1  0  0  0  0
  7 23  1  0  0  0  0
  7 59  1  0  0  0  0
  8 35  1  0  0  0  0
  8 40  1  0  0  0  0
  9 10  1  0  0  0  0
  9 11  1  0  0  0  0
  9 41  1  0  0  0  0
 10 12  1  0  0  0  0
 10 42  1  0  0  0  0
 11 13  1  0  0  0  0
 11 14  2  0  0  0  0
 12 19  2  0  0  0  0
 12 20  1  0  0  0  0
 13 16  2  0  0  0  0
 13 43  1  0  0  0  0
 14 17  1  0  0  0  0
 14 44  1  0  0  0  0
 15 16  1  0  0  0  0
 15 17  2  0  0  0  0
 15 18  1  0  0  0  0
 18 22  1  0  0  0  0
 18 23  2  0  0  0  0
 19 25  1  0  0  0  0
 19 45  1  0  0  0  0
 20 28  2  0  0  0  0
 20 46  1  0  0  0  0
 21 24  1  0  0  0  0
 21 26  1  0  0  0  0
 21 27  2  0  0  0  0
 22 26  2  0  0  0  0
 23 27  1  0  0  0  0
 24 29  1  0  0  0  0
 24 47  1  0  0  0  0
 24 48  1  0  0  0  0
 25 30  2  0  0  0  0
 26 49  1  0  0  0  0
 27 50  1  0  0  0  0
 28 30  1  0  0  0  0
 28 51  1  0  0  0  0
 29 31  1  0  0  0  0
 29 52  1  0  0  0  0
 29 53  1  0  0  0  0
 30 54  1  0  0  0  0
 31 33  2  0  0  0  0
 31 34  1  0  0  0  0
 32 56  1  0  0  0  0
 32 57  1  0  0  0  0
 32 58  1  0  0  0  0
 33 35  1  0  0  0  0
 33 60  1  0  0  0  0
 34 37  2  0  0  0  0
 34 61  1  0  0  0  0
 35 39  2  0  0  0  0
 36 62  1  0  0  0  0
 36 63  1  0  0  0  0
 36 64  1  0  0  0  0
 37 39  1  0  0  0  0
 37 65  1  0  0  0  0
 38 66  1  0  0  0  0
 38 67  1  0  0  0  0
 38 68  1  0  0  0  0
 39 69  1  0  0  0  0
 40 70  1  0  0  0  0
 40 71  1  0  0  0  0
 40 72  1  0  0  0  0
M  END
> <PUBCHEM_COMPOUND_CID>
101443792

> <PUBCHEM_CONFORMER_RMSD>
1.4

> <PUBCHEM_CONFORMER_DIVERSEORDER>
1
132
122
245
102
246
164
289
240
148
126
154
57
276
207
254
51
173
290
251
197
131
230
202
265
285
84
28
8
236
97
291
204
241
274
183
31
12
144
200
224
167
152
247
218
176
156
80
115
193
261
88
114
205
174
203
243
100
186
166
125
252
211
188
145
268
208
139
151
169
130
52
182
170
162
273
161
82
226
135
44
149
184
232
256
286
141
85
266
165
223
181
147
175
106
191
198
178
118
248
40
62
180
185
116
179
244
199
250
107
45
168
242
87
41
48
283
215
159
2
79
270
277
90
262
128
83
216
111
227
109
280
7
42
30
258
54
158
235
190
22
213
104
259
124
287
103
225
201
219
6
77
288
282
196
138
24
101
59
121
171
119
260
69
267
206
272
142
269
46
47
229
129
214
255
133
120
172
123
233
194
257
89
110
56
209
163
33
195
284
153
281
98
113
134
92
228
10
108
146
264
143
253
50
61
275
86
74
217
222
187
279
127
27
16
20
220
278
66
192
160
19
140
38
249
210
238
29
212
11
39
157
15
271
99
231
117
155
105
95
177
75
65
55
70
9
36
221
73
68
58
93
34
13
67
234
150
32
137
18
60
189
112
43
63
263
76
21
96
81
49
53
37
292
78
26
64
23
4
239
91
71
3
72
14
136
25
94
237
17
35
5

> <PUBCHEM_MMFF94_PARTIAL_CHARGES>
52
1 -0.26
10 0.37
11 -0.11
12 -0.11
13 -0.15
14 -0.15
16 0.08
17 0.08
19 -0.15
2 -0.26
20 -0.15
21 -0.14
22 0.08
23 0.08
24 0.14
25 0.08
26 -0.15
27 -0.15
28 -0.15
29 0.14
3 -0.36
30 -0.15
31 -0.14
32 0.28
33 -0.15
34 -0.15
35 0.08
36 0.28
37 -0.15
38 0.28
39 -0.15
4 -0.53
40 0.28
43 0.15
44 0.15
45 0.15
46 0.15
49 0.15
5 -0.36
50 0.15
51 0.15
54 0.15
55 0.45
59 0.45
6 -0.36
60 0.15
61 0.15
65 0.15
69 0.15
7 -0.53
8 -0.36
9 0.37

> <PUBCHEM_EFFECTIVE_ROTOR_COUNT>
10.8

> <PUBCHEM_PHARMACOPHORE_FEATURES>
11
1 3 acceptor
1 4 donor
1 5 acceptor
1 6 acceptor
1 7 donor
1 8 acceptor
4 1 2 9 10 rings
6 11 13 14 15 16 17 rings
6 12 19 20 25 28 30 rings
6 18 21 22 23 26 27 rings
6 31 33 34 35 37 39 rings

> <PUBCHEM_HEAVY_ATOM_COUNT>
40

> <PUBCHEM_ATOM_DEF_STEREO_COUNT>
0

> <PUBCHEM_ATOM_UDEF_STEREO_COUNT>
2

> <PUBCHEM_BOND_DEF_STEREO_COUNT>
0

> <PUBCHEM_BOND_UDEF_STEREO_COUNT>
0

> <PUBCHEM_ISOTOPIC_ATOM_COUNT>
0

> <PUBCHEM_COMPONENT_COUNT>
1

> <PUBCHEM_CACTVS_TAUTO_COUNT>
329

> <PUBCHEM_CONFORMER_ID>
060BE8D000000001

> <PUBCHEM_MMFF94_ENERGY>
152.7052

> <PUBCHEM_FEATURE_SELFOVERLAP>
55.825

> <PUBCHEM_SHAPE_FINGERPRINT>
10673678 19 18273215330604567822
11285246 1 15333543282734981309
12422481 6 17894911832387239293
13782708 43 11025803076251053599
14295345 954 17826792530107235469
14790565 3 18410011048478895431
15001296 14 18411417344941075008
15082195 135 18059867125417403214
15968369 153 17274525620349877968
16112460 7 18260545623583971402
16708801 149 18338800129670283997
20715895 44 18342454825054034562
22122407 14 18336267928647923378
3493558 16 18341902904233725041
392239 28 16660357129782969033
4144715 1 18335427893333285882
460360 51 18262254303292104811

> <PUBCHEM_SHAPE_MULTIPOLES>
776.23
15.07
4.35
2.51
5
0.83
0.19
7.61
-2.06
0.24
0.39
-1.29
1.18
-2.34

> <PUBCHEM_SHAPE_SELFOVERLAP>
1689.281

> <PUBCHEM_SHAPE_VOLUME>
427.1

> <PUBCHEM_COORDINATE_TYPE>
2
5
10

$$$$
