132525207
  -OEChem-08312002553D

 33 35  0     1  0  0  0  0  0999 V2000
   -0.4421   -1.6159    1.1370 O   0  0  0  0  0  0  0  0  0  0  0  0
    1.5092    1.5047    1.9527 O   0  0  0  0  0  0  0  0  0  0  0  0
   -3.1628   -1.4650    1.1135 O   0  0  0  0  0  0  0  0  0  0  0  0
   -2.6496    2.7302   -1.0105 O   0  0  0  0  0  0  0  0  0  0  0  0
   -0.0952    0.2732   -0.3478 C   0  0  1  0  0  0  0  0  0  0  0  0
   -0.1136   -0.2326   -1.8204 C   0  0  0  0  0  0  0  0  0  0  0  0
    1.3838    0.1666   -0.0456 C   0  0  0  0  0  0  0  0  0  0  0  0
    1.0609   -1.2112   -1.9730 C   0  0  0  0  0  0  0  0  0  0  0  0
   -0.6268    1.7029   -0.2336 C   0  0  0  0  0  0  0  0  0  0  0  0
    2.0273   -0.6655   -0.9724 C   0  0  0  0  0  0  0  0  0  0  0  0
   -0.9305   -0.6682    0.5223 C   0  0  0  0  0  0  0  0  0  0  0  0
    2.0975    0.7382    0.9988 C   0  0  0  0  0  0  0  0  0  0  0  0
   -2.1170    1.7654   -0.4663 C   0  0  0  0  0  0  0  0  0  0  0  0
   -2.4053   -0.4536    0.5609 C   0  0  0  0  0  0  0  0  0  0  0  0
    3.3818   -0.9409   -0.8742 C   0  0  0  0  0  0  0  0  0  0  0  0
   -2.9511    0.6625    0.0645 C   0  0  0  0  0  0  0  0  0  0  0  0
    3.4660    0.4756    1.0981 C   0  0  0  0  0  0  0  0  0  0  0  0
    4.1038   -0.3576    0.1678 C   0  0  0  0  0  0  0  0  0  0  0  0
   -3.5362   -2.4088    0.1283 C   0  0  0  0  0  0  0  0  0  0  0  0
    0.0448    0.6082   -2.5109 H   0  0  0  0  0  0  0  0  0  0  0  0
   -1.0576   -0.7081   -2.1092 H   0  0  0  0  0  0  0  0  0  0  0  0
    1.4595   -1.1980   -2.9913 H   0  0  0  0  0  0  0  0  0  0  0  0
    0.7673   -2.2297   -1.6988 H   0  0  0  0  0  0  0  0  0  0  0  0
   -0.1303    2.3622   -0.9561 H   0  0  0  0  0  0  0  0  0  0  0  0
   -0.4686    2.1308    0.7616 H   0  0  0  0  0  0  0  0  0  0  0  0
    3.8738   -1.5957   -1.5855 H   0  0  0  0  0  0  0  0  0  0  0  0
   -4.0259    0.8096    0.0635 H   0  0  0  0  0  0  0  0  0  0  0  0
    4.0544    0.9036    1.9063 H   0  0  0  0  0  0  0  0  0  0  0  0
    5.1675   -0.5569    0.2651 H   0  0  0  0  0  0  0  0  0  0  0  0
    2.1819    1.7950    2.5922 H   0  0  0  0  0  0  0  0  0  0  0  0
   -4.1162   -3.1986    0.6151 H   0  0  0  0  0  0  0  0  0  0  0  0
   -2.6581   -2.8723   -0.3352 H   0  0  0  0  0  0  0  0  0  0  0  0
   -4.1689   -1.9516   -0.6406 H   0  0  0  0  0  0  0  0  0  0  0  0
  1 11  2  0  0  0  0
  2 12  1  0  0  0  0
  2 30  1  0  0  0  0
  3 14  1  0  0  0  0
  3 19  1  0  0  0  0
  4 13  2  0  0  0  0
  5  6  1  0  0  0  0
  5  7  1  0  0  0  0
  5  9  1  0  0  0  0
  5 11  1  0  0  0  0
  6  8  1  0  0  0  0
  6 20  1  0  0  0  0
  6 21  1  0  0  0  0
  7 10  2  0  0  0  0
  7 12  1  0  0  0  0
  8 10  1  0  0  0  0
  8 22  1  0  0  0  0
  8 23  1  0  0  0  0
  9 13  1  0  0  0  0
  9 24  1  0  0  0  0
  9 25  1  0  0  0  0
 10 15  1  0  0  0  0
 11 14  1  0  0  0  0
 12 17  2  0  0  0  0
 13 16  1  0  0  0  0
 14 16  2  0  0  0  0
 15 18  2  0  0  0  0
 15 26  1  0  0  0  0
 16 27  1  0  0  0  0
 17 18  1  0  0  0  0
 17 28  1  0  0  0  0
 18 29  1  0  0  0  0
 19 31  1  0  0  0  0
 19 32  1  0  0  0  0
 19 33  1  0  0  0  0
M  END
> <PUBCHEM_COMPOUND_CID>
132525207

> <PUBCHEM_CONFORMER_RMSD>
0.6

> <PUBCHEM_CONFORMER_DIVERSEORDER>
1
4
3
2

> <PUBCHEM_MMFF94_PARTIAL_CHARGES>
23
1 -0.57
10 -0.14
11 0.49
12 0.08
13 0.49
14 0.09
15 -0.15
16 -0.14
17 -0.15
18 -0.15
19 0.28
2 -0.53
26 0.15
27 0.15
28 0.15
29 0.15
3 -0.36
30 0.45
4 -0.57
5 0.2
7 -0.14
8 0.14
9 0.06

> <PUBCHEM_EFFECTIVE_ROTOR_COUNT>
1.6

> <PUBCHEM_PHARMACOPHORE_FEATURES>
7
1 1 acceptor
1 2 donor
1 3 acceptor
1 4 acceptor
5 5 6 7 8 10 rings
6 5 9 11 13 14 16 rings
6 7 10 12 15 17 18 rings

> <PUBCHEM_HEAVY_ATOM_COUNT>
19

> <PUBCHEM_ATOM_DEF_STEREO_COUNT>
1

> <PUBCHEM_ATOM_UDEF_STEREO_COUNT>
0

> <PUBCHEM_BOND_DEF_STEREO_COUNT>
0

> <PUBCHEM_BOND_UDEF_STEREO_COUNT>
0

> <PUBCHEM_ISOTOPIC_ATOM_COUNT>
0

> <PUBCHEM_COMPONENT_COUNT>
1

> <PUBCHEM_CACTVS_TAUTO_COUNT>
28

> <PUBCHEM_CONFORMER_ID>
07E62C9700000001

> <PUBCHEM_MMFF94_ENERGY>
58.5272

> <PUBCHEM_FEATURE_SELFOVERLAP>
35.614

> <PUBCHEM_SHAPE_FINGERPRINT>
10863032 1 18189895318878144074
11582403 64 17045632485161849432
11725454 13 17622111925015651304
12236239 1 16588031186288750028
12363563 72 18044104672840425219
12500047 106 18116710707909645253
12592029 89 17488165020346270055
12633257 1 18131082518959640731
13464514 151 17696754354804881784
13583140 156 18270949177215953202
14289901 80 18259991470129396768
15219456 202 18202284684392573328
15309172 13 17203330017963978222
15653759 3 18411704270430945192
16752209 62 17603855737332806635
16945 1 18261117343844429559
17844478 74 18272654549641182120
18175812 5 18273498978750087501
18219364 16 17632570548453928156
19049666 15 18126854793650169942
19422 9 16805328764692529802
200 152 16773504508749383741
21421861 104 16750167696441445803
21639500 275 16988549209028594424
22112679 90 17095536062360774868
23175994 123 17845663543027811316
23184049 59 17132119035242390722
23402539 116 18411694431151844319
23419403 2 17987221400143677977
23493267 7 18267302028395430208
23526113 38 17985828129610691726
23557571 272 18412553115156770159
23559900 14 18193280689874811366
2748010 2 17988918955733722068
31174 14 17845657087122130168
3286 77 17775011244681971835
427121 178 17901676960156229009
474 4 14978804732988983090
6049 1 18272375269371725664
77492 1 16588032290137523660
81228 2 18262252061994474601
84936 182 17256795703621708933

> <PUBCHEM_SHAPE_MULTIPOLES>
367.53
6.11
2.12
1.56
1.22
0.34
-0.22
-1.21
1.17
-2.07
-0.15
0.34
-0.08
1.71

> <PUBCHEM_SHAPE_SELFOVERLAP>
811.583

> <PUBCHEM_SHAPE_VOLUME>
197.7

> <PUBCHEM_COORDINATE_TYPE>
2
5
10

$$$$
