131752972
  -OEChem-08312003093D

 37 37  0     0  0  0  0  0  0999 V2000
    3.2969    0.5196    1.3167 O   0  0  0  0  0  0  0  0  0  0  0  0
    1.7763    2.5304    0.1705 O   0  0  0  0  0  0  0  0  0  0  0  0
    2.7179   -2.1292    0.7505 O   0  0  0  0  0  0  0  0  0  0  0  0
   -3.6659   -0.4891   -0.0539 O   0  0  0  0  0  0  0  0  0  0  0  0
   -3.9967    1.1978    1.4893 O   0  0  0  0  0  0  0  0  0  0  0  0
    0.1629   -0.4319   -1.2370 C   0  0  0  0  0  0  0  0  0  0  0  0
    2.2682    0.2071    0.4781 C   0  0  0  0  0  0  0  0  0  0  0  0
    1.5044    1.2227   -0.0968 C   0  0  0  0  0  0  0  0  0  0  0  0
    1.9796   -1.1280    0.1955 C   0  0  0  0  0  0  0  0  0  0  0  0
    0.4517    0.9032   -0.9544 C   0  0  0  0  0  0  0  0  0  0  0  0
    0.9268   -1.4474   -0.6620 C   0  0  0  0  0  0  0  0  0  0  0  0
   -0.9356   -0.7653   -2.1303 C   0  0  0  0  0  0  0  0  0  0  0  0
   -2.2351   -0.4409   -1.9429 C   0  0  0  0  0  0  0  0  0  0  0  0
   -2.7423    0.3248   -0.7632 C   0  0  0  0  0  0  0  0  0  0  0  0
    4.5805    0.7054    0.7245 C   0  0  0  0  0  0  0  0  0  0  0  0
    0.9474    3.5062   -0.4582 C   0  0  0  0  0  0  0  0  0  0  0  0
    2.3566   -3.4663    0.4094 C   0  0  0  0  0  0  0  0  0  0  0  0
   -4.2231    0.0742    1.0611 C   0  0  0  0  0  0  0  0  0  0  0  0
   -5.1705   -0.8935    1.7030 C   0  0  0  0  0  0  0  0  0  0  0  0
   -0.1597    1.6565   -1.4409 H   0  0  0  0  0  0  0  0  0  0  0  0
    0.6564   -2.4674   -0.9167 H   0  0  0  0  0  0  0  0  0  0  0  0
   -0.6697   -1.3549   -3.0045 H   0  0  0  0  0  0  0  0  0  0  0  0
   -2.9632   -0.7627   -2.6831 H   0  0  0  0  0  0  0  0  0  0  0  0
   -1.9611    0.6379   -0.0679 H   0  0  0  0  0  0  0  0  0  0  0  0
   -3.2571    1.2218   -1.1275 H   0  0  0  0  0  0  0  0  0  0  0  0
    5.2920    0.9482    1.5184 H   0  0  0  0  0  0  0  0  0  0  0  0
    4.5588    1.5337    0.0093 H   0  0  0  0  0  0  0  0  0  0  0  0
    4.9117   -0.2115    0.2268 H   0  0  0  0  0  0  0  0  0  0  0  0
    1.0500    3.4813   -1.5485 H   0  0  0  0  0  0  0  0  0  0  0  0
   -0.0954    3.4210   -0.1335 H   0  0  0  0  0  0  0  0  0  0  0  0
    1.3018    4.4888   -0.1294 H   0  0  0  0  0  0  0  0  0  0  0  0
    3.0475   -4.1309    0.9387 H   0  0  0  0  0  0  0  0  0  0  0  0
    1.3485   -3.7140    0.7589 H   0  0  0  0  0  0  0  0  0  0  0  0
    2.4881   -3.6599   -0.6606 H   0  0  0  0  0  0  0  0  0  0  0  0
   -5.9741   -1.1429    1.0056 H   0  0  0  0  0  0  0  0  0  0  0  0
   -5.6111   -0.4341    2.5926 H   0  0  0  0  0  0  0  0  0  0  0  0
   -4.6307   -1.7937    2.0070 H   0  0  0  0  0  0  0  0  0  0  0  0
  1  7  1  0  0  0  0
  1 15  1  0  0  0  0
  2  8  1  0  0  0  0
  2 16  1  0  0  0  0
  3  9  1  0  0  0  0
  3 17  1  0  0  0  0
  4 14  1  0  0  0  0
  4 18  1  0  0  0  0
  5 18  2  0  0  0  0
  6 10  2  0  0  0  0
  6 11  1  0  0  0  0
  6 12  1  0  0  0  0
  7  8  2  0  0  0  0
  7  9  1  0  0  0  0
  8 10  1  0  0  0  0
  9 11  2  0  0  0  0
 10 20  1  0  0  0  0
 11 21  1  0  0  0  0
 12 13  2  0  0  0  0
 12 22  1  0  0  0  0
 13 14  1  0  0  0  0
 13 23  1  0  0  0  0
 14 24  1  0  0  0  0
 14 25  1  0  0  0  0
 15 26  1  0  0  0  0
 15 27  1  0  0  0  0
 15 28  1  0  0  0  0
 16 29  1  0  0  0  0
 16 30  1  0  0  0  0
 16 31  1  0  0  0  0
 17 32  1  0  0  0  0
 17 33  1  0  0  0  0
 17 34  1  0  0  0  0
 18 19  1  0  0  0  0
 19 35  1  0  0  0  0
 19 36  1  0  0  0  0
 19 37  1  0  0  0  0
M  END
> <PUBCHEM_COMPOUND_CID>
131752972

> <PUBCHEM_CONFORMER_RMSD>
0.8

> <PUBCHEM_CONFORMER_DIVERSEORDER>
8
59
33
62
23
66
26
75
55
5
53
34
17
71
36
74
25
50
48
40
67
70
72
58
19
51
16
65
52
56
27
41
54
4
44
10
46
73
77
21
69
29
57
15
68
35
38
31
18
2
76
1
43
6
64
22
37
11
3
13
61
63
39
32
45
20
60
30
24
14
42
9
12
47
7
28
49

> <PUBCHEM_MMFF94_PARTIAL_CHARGES>
23
1 -0.36
10 -0.15
11 -0.15
12 -0.18
13 -0.29
14 0.42
15 0.28
16 0.28
17 0.28
18 0.66
19 0.06
2 -0.36
20 0.15
21 0.15
22 0.15
23 0.15
3 -0.36
4 -0.43
5 -0.57
6 0.03
7 0.08
8 0.08
9 0.08

> <PUBCHEM_EFFECTIVE_ROTOR_COUNT>
7

> <PUBCHEM_PHARMACOPHORE_FEATURES>
5
1 1 acceptor
1 2 acceptor
1 3 acceptor
1 5 acceptor
6 6 7 8 9 10 11 rings

> <PUBCHEM_HEAVY_ATOM_COUNT>
19

> <PUBCHEM_ATOM_DEF_STEREO_COUNT>
0

> <PUBCHEM_ATOM_UDEF_STEREO_COUNT>
0

> <PUBCHEM_BOND_DEF_STEREO_COUNT>
1

> <PUBCHEM_BOND_UDEF_STEREO_COUNT>
0

> <PUBCHEM_ISOTOPIC_ATOM_COUNT>
0

> <PUBCHEM_COMPONENT_COUNT>
1

> <PUBCHEM_CACTVS_TAUTO_COUNT>
1

> <PUBCHEM_CONFORMER_ID>
07DA640C00000008

> <PUBCHEM_MMFF94_ENERGY>
74.8611

> <PUBCHEM_FEATURE_SELFOVERLAP>
25.383

> <PUBCHEM_SHAPE_FINGERPRINT>
10366900 7 18114190782315260111
10382601 240 18272365352587644846
10498660 4 15482683359967889163
11086676 242 18129090131023151098
11471102 22 18260819410690190973
11640471 11 17703787071931136797
11725454 13 12966546643643464838
11806522 49 12612750216301013558
12202030 40 17023456439646718375
12363563 72 15574714737954610119
12633257 1 18187646959301582355
12892183 10 18411705353105621227
13103583 49 18123482578983129507
13140716 1 18122896792472109076
13533116 47 18260843605148655579
13583140 156 18408038525045673565
13965767 371 17846502487242304009
14341114 328 18127989692215085571
14790565 3 18337670936109607076
14955137 171 18337115652561480540
15209294 21 17631718461339122008
15422964 175 18187642444958572974
15475509 8 18059030474863886996
16945 1 18121183663441010366
17357990 137 17846781836162451373
18785283 64 17969508297663606796
18915474 69 12757154571487065275
20739085 24 18341898437789406126
21041028 32 18194393403883518486
21427221 339 17989202607921131079
21665062 11 18341617005488230617
2748010 2 17907823286174116804
31174 14 18260833717548052575
3797600 57 17699028476116979307
38570 142 17981628252986434796
568465 68 17749661926630628263
7097593 13 18413387627249875959
7808743 9 16200433602349734803
8988823 20 18263369234918155243

> <PUBCHEM_SHAPE_MULTIPOLES>
361.66
8.22
2.96
1.74
8.51
0.33
0.43
-0.85
-5.95
-3.27
-0.26
1.72
-0.27
-0.16

> <PUBCHEM_SHAPE_SELFOVERLAP>
738.543

> <PUBCHEM_SHAPE_VOLUME>
211.9

> <PUBCHEM_COORDINATE_TYPE>
2
5
10

$$$$
