132525208
  -OEChem-08312002593D

 33 35  0     1  0  0  0  0  0999 V2000
    0.4421    1.6152   -1.1379 O   0  0  0  0  0  0  0  0  0  0  0  0
   -1.5087   -1.5069   -1.9509 O   0  0  0  0  0  0  0  0  0  0  0  0
    3.1628    1.4643   -1.1142 O   0  0  0  0  0  0  0  0  0  0  0  0
    2.6500   -2.7302    1.0109 O   0  0  0  0  0  0  0  0  0  0  0  0
    0.0952   -0.2727    0.3482 C   0  0  2  0  0  0  0  0  0  0  0  0
    0.1132    0.2347    1.8203 C   0  0  0  0  0  0  0  0  0  0  0  0
   -1.3838   -0.1665    0.0457 C   0  0  0  0  0  0  0  0  0  0  0  0
   -1.0611    1.2138    1.9715 C   0  0  0  0  0  0  0  0  0  0  0  0
    0.6267   -1.7027    0.2357 C   0  0  0  0  0  0  0  0  0  0  0  0
   -2.0274    0.6667    0.9714 C   0  0  0  0  0  0  0  0  0  0  0  0
    0.9305    0.6678   -0.5226 C   0  0  0  0  0  0  0  0  0  0  0  0
   -2.0975   -0.7396   -0.9979 C   0  0  0  0  0  0  0  0  0  0  0  0
    2.1171   -1.7652    0.4674 C   0  0  0  0  0  0  0  0  0  0  0  0
    2.4053    0.4533   -0.5611 C   0  0  0  0  0  0  0  0  0  0  0  0
   -3.3819    0.9420    0.8728 C   0  0  0  0  0  0  0  0  0  0  0  0
    2.9511   -0.6626   -0.0640 C   0  0  0  0  0  0  0  0  0  0  0  0
   -3.4661   -0.4774   -1.0975 C   0  0  0  0  0  0  0  0  0  0  0  0
   -4.1039    0.3571   -0.1684 C   0  0  0  0  0  0  0  0  0  0  0  0
    3.5362    2.4088   -0.1296 C   0  0  0  0  0  0  0  0  0  0  0  0
    1.0572    0.7102    2.1089 H   0  0  0  0  0  0  0  0  0  0  0  0
   -0.0457   -0.6053    2.5116 H   0  0  0  0  0  0  0  0  0  0  0  0
   -0.7673    2.2319    1.6959 H   0  0  0  0  0  0  0  0  0  0  0  0
   -1.4599    1.2021    2.9897 H   0  0  0  0  0  0  0  0  0  0  0  0
    0.4679   -2.1319   -0.7588 H   0  0  0  0  0  0  0  0  0  0  0  0
    0.1306   -2.3609    0.9593 H   0  0  0  0  0  0  0  0  0  0  0  0
   -3.8740    1.5976    1.5833 H   0  0  0  0  0  0  0  0  0  0  0  0
    4.0259   -0.8096   -0.0631 H   0  0  0  0  0  0  0  0  0  0  0  0
   -4.0543   -0.9065   -1.9051 H   0  0  0  0  0  0  0  0  0  0  0  0
   -5.1676    0.5562   -0.2660 H   0  0  0  0  0  0  0  0  0  0  0  0
   -2.1813   -1.7981   -2.5901 H   0  0  0  0  0  0  0  0  0  0  0  0
    4.1161    3.1983   -0.6170 H   0  0  0  0  0  0  0  0  0  0  0  0
    4.1688    1.9520    0.6395 H   0  0  0  0  0  0  0  0  0  0  0  0
    2.6580    2.8725    0.3335 H   0  0  0  0  0  0  0  0  0  0  0  0
  1 11  2  0  0  0  0
  2 12  1  0  0  0  0
  2 30  1  0  0  0  0
  3 14  1  0  0  0  0
  3 19  1  0  0  0  0
  4 13  2  0  0  0  0
  5  6  1  0  0  0  0
  5  7  1  0  0  0  0
  5  9  1  0  0  0  0
  5 11  1  0  0  0  0
  6  8  1  0  0  0  0
  6 20  1  0  0  0  0
  6 21  1  0  0  0  0
  7 10  2  0  0  0  0
  7 12  1  0  0  0  0
  8 10  1  0  0  0  0
  8 22  1  0  0  0  0
  8 23  1  0  0  0  0
  9 13  1  0  0  0  0
  9 24  1  0  0  0  0
  9 25  1  0  0  0  0
 10 15  1  0  0  0  0
 11 14  1  0  0  0  0
 12 17  2  0  0  0  0
 13 16  1  0  0  0  0
 14 16  2  0  0  0  0
 15 18  2  0  0  0  0
 15 26  1  0  0  0  0
 16 27  1  0  0  0  0
 17 18  1  0  0  0  0
 17 28  1  0  0  0  0
 18 29  1  0  0  0  0
 19 31  1  0  0  0  0
 19 32  1  0  0  0  0
 19 33  1  0  0  0  0
M  END
> <PUBCHEM_COMPOUND_CID>
132525208

> <PUBCHEM_CONFORMER_RMSD>
0.6

> <PUBCHEM_CONFORMER_DIVERSEORDER>
1
4
3
2

> <PUBCHEM_MMFF94_PARTIAL_CHARGES>
23
1 -0.57
10 -0.14
11 0.49
12 0.08
13 0.49
14 0.09
15 -0.15
16 -0.14
17 -0.15
18 -0.15
19 0.28
2 -0.53
26 0.15
27 0.15
28 0.15
29 0.15
3 -0.36
30 0.45
4 -0.57
5 0.2
7 -0.14
8 0.14
9 0.06

> <PUBCHEM_EFFECTIVE_ROTOR_COUNT>
1.6

> <PUBCHEM_PHARMACOPHORE_FEATURES>
7
1 1 acceptor
1 2 donor
1 3 acceptor
1 4 acceptor
5 5 6 7 8 10 rings
6 5 9 11 13 14 16 rings
6 7 10 12 15 17 18 rings

> <PUBCHEM_HEAVY_ATOM_COUNT>
19

> <PUBCHEM_ATOM_DEF_STEREO_COUNT>
1

> <PUBCHEM_ATOM_UDEF_STEREO_COUNT>
0

> <PUBCHEM_BOND_DEF_STEREO_COUNT>
0

> <PUBCHEM_BOND_UDEF_STEREO_COUNT>
0

> <PUBCHEM_ISOTOPIC_ATOM_COUNT>
0

> <PUBCHEM_COMPONENT_COUNT>
1

> <PUBCHEM_CACTVS_TAUTO_COUNT>
28

> <PUBCHEM_CONFORMER_ID>
07E62C9800000001

> <PUBCHEM_MMFF94_ENERGY>
58.5266

> <PUBCHEM_FEATURE_SELFOVERLAP>
35.614

> <PUBCHEM_SHAPE_FINGERPRINT>
10465860 71 16917074394623554993
10863032 1 18261398866435221011
11578080 2 17910635892183570809
11640471 11 18270980010443435660
11725454 13 16663427017692706788
12236239 1 18272089361988655075
12423570 1 17909271278009610499
13009979 54 18129378211406764891
13140716 1 18187085113555851530
13538477 17 17988922249556789587
13571099 52 17240764024918135104
14115302 16 18059566945604865155
14787075 74 17695913619193121659
15219456 202 17240490207957705971
15375462 175 16916791755779265855
15375462 189 18202002140275084851
15775835 57 18342186573933624541
15852999 172 17676772088527352304
16752209 62 17346036663146644281
16945 1 18261117343844429552
1813 80 18051135791970606750
18186145 218 18334584550570563652
19049666 15 16516240721841487817
19422 9 18341330016074302687
19765921 60 18269840981000560176
19862831 5 18059864973216658244
20600515 1 16630234823265905299
20645476 183 18343021125166330119
20871999 31 17060063696025610397
21486144 27 17530973483450581011
21639500 275 18260550038989465732
22112679 90 17988645146925273897
2255824 54 18336266747848745954
228727 97 18059585722980207457
232386 152 17560220471359267895
23419403 2 17620142678526068032
23493267 7 17417826066077491181
23557571 272 16272210769456747402
23559900 14 16701747034209614364
23598291 2 18269847418913794164
25 1 18041284347836113364
2748010 2 17898313803363426082
3286 77 17459476558775688403
4340502 62 18187656842359096555
474 4 18263084473516431908
528886 8 18261109707408407937
5845 1 17543363656983488006
6992083 37 17623295961683734626
7615 1 18271246010626410569
77492 1 18271808986571038507
81228 2 15841005355653017979
84936 182 18341332275100786056
9981440 41 17411051052439231896

> <PUBCHEM_SHAPE_MULTIPOLES>
367.53
6.11
2.12
1.56
1.22
0.34
0.22
-1.21
-1.17
-2.07
0.15
0.33
-0.08
-1.71

> <PUBCHEM_SHAPE_SELFOVERLAP>
811.531

> <PUBCHEM_SHAPE_VOLUME>
197.6

> <PUBCHEM_COORDINATE_TYPE>
2
5
10

$$$$
