101443793
  -OEChem-08312002443D

 65 68  0     1  0  0  0  0  0999 V2000
    6.9140   -1.7449    0.4317 O   0  0  0  0  0  0  0  0  0  0  0  0
    7.8798   -1.0150    1.2741 O   0  0  0  0  0  0  0  0  0  0  0  0
    7.2514    2.5294    0.5350 O   0  0  0  0  0  0  0  0  0  0  0  0
    1.8739   -1.8126    1.3723 O   0  0  0  0  0  0  0  0  0  0  0  0
    2.3323    1.4421   -2.1383 O   0  0  0  0  0  0  0  0  0  0  0  0
    0.5857    1.6851    1.1491 O   0  0  0  0  0  0  0  0  0  0  0  0
    0.5598   -1.8425   -2.1192 O   0  0  0  0  0  0  0  0  0  0  0  0
   -8.7051    1.3392    1.4107 O   0  0  0  0  0  0  0  0  0  0  0  0
    6.4066   -0.4825   -0.0967 C   0  0  2  0  0  0  0  0  0  0  0  0
    7.1291    0.2089    1.0767 C   0  0  2  0  0  0  0  0  0  0  0  0
    4.8373   -0.3751   -0.2020 C   0  0  0  0  0  0  0  0  0  0  0  0
    8.0426    1.3669    0.7449 C   0  0  0  0  0  0  0  0  0  0  0  0
    2.0604   -0.1820   -0.3856 C   0  0  0  0  0  0  0  0  0  0  0  0
    4.0279   -1.1445    0.6338 C   0  0  0  0  0  0  0  0  0  0  0  0
    4.2583    0.4907   -1.1297 C   0  0  0  0  0  0  0  0  0  0  0  0
    2.6394   -1.0479    0.5420 C   0  0  0  0  0  0  0  0  0  0  0  0
    2.8698    0.5874   -1.2214 C   0  0  0  0  0  0  0  0  0  0  0  0
    0.6154   -0.0819   -0.4821 C   0  0  0  0  0  0  0  0  0  0  0  0
   -2.1613    0.1110   -0.6679 C   0  0  0  0  0  0  0  0  0  0  0  0
   -0.0723    0.8521    0.2927 C   0  0  0  0  0  0  0  0  0  0  0  0
   -3.6459    0.2143   -0.7676 C   0  0  0  0  0  0  0  0  0  0  0  0
   -0.0854   -0.9195   -1.3498 C   0  0  0  0  0  0  0  0  0  0  0  0
   -1.4606    0.9485    0.1998 C   0  0  0  0  0  0  0  0  0  0  0  0
   -1.4738   -0.8231   -1.4429 C   0  0  0  0  0  0  0  0  0  0  0  0
   -4.4065   -0.6941    0.2186 C   0  0  0  0  0  0  0  0  0  0  0  0
   -5.9062   -0.6024    0.0759 C   0  0  0  0  0  0  0  0  0  0  0  0
    2.5628   -2.6649    2.2841 C   0  0  0  0  0  0  0  0  0  0  0  0
    3.2454    2.1830   -2.9443 C   0  0  0  0  0  0  0  0  0  0  0  0
   -6.6214    0.3366    0.8190 C   0  0  0  0  0  0  0  0  0  0  0  0
   -6.5770   -1.4565   -0.7996 C   0  0  0  0  0  0  0  0  0  0  0  0
   -8.0073    0.4219    0.6866 C   0  0  0  0  0  0  0  0  0  0  0  0
   -0.2089    2.6035    1.8957 C   0  0  0  0  0  0  0  0  0  0  0  0
   -7.9630   -1.3714   -0.9319 C   0  0  0  0  0  0  0  0  0  0  0  0
   -8.6781   -0.4322   -0.1889 C   0  0  0  0  0  0  0  0  0  0  0  0
  -10.1195    1.3726    1.2253 C   0  0  0  0  0  0  0  0  0  0  0  0
    6.8918   -0.2950   -1.0649 H   0  0  0  0  0  0  0  0  0  0  0  0
    6.4948    0.4012    1.9506 H   0  0  0  0  0  0  0  0  0  0  0  0
    8.6367    1.1750   -0.1544 H   0  0  0  0  0  0  0  0  0  0  0  0
    8.7246    1.5675    1.5774 H   0  0  0  0  0  0  0  0  0  0  0  0
    4.5348   -1.7927    1.3390 H   0  0  0  0  0  0  0  0  0  0  0  0
    4.9454    1.0606   -1.7455 H   0  0  0  0  0  0  0  0  0  0  0  0
   -3.9521    1.2584   -0.6161 H   0  0  0  0  0  0  0  0  0  0  0  0
   -3.9565   -0.0195   -1.7953 H   0  0  0  0  0  0  0  0  0  0  0  0
   -2.0538    1.6504    0.7760 H   0  0  0  0  0  0  0  0  0  0  0  0
   -2.0226   -1.4765   -2.1170 H   0  0  0  0  0  0  0  0  0  0  0  0
   -4.1239   -0.4437    1.2499 H   0  0  0  0  0  0  0  0  0  0  0  0
   -4.0947   -1.7382    0.0807 H   0  0  0  0  0  0  0  0  0  0  0  0
    7.8629    3.2575    0.3315 H   0  0  0  0  0  0  0  0  0  0  0  0
   -6.1037    1.0064    1.5013 H   0  0  0  0  0  0  0  0  0  0  0  0
    1.8004   -3.1979    2.8621 H   0  0  0  0  0  0  0  0  0  0  0  0
    3.1509   -3.4274    1.7619 H   0  0  0  0  0  0  0  0  0  0  0  0
    3.1586   -2.0923    3.0033 H   0  0  0  0  0  0  0  0  0  0  0  0
    3.8578    2.8633   -2.3425 H   0  0  0  0  0  0  0  0  0  0  0  0
    3.8480    1.5271   -3.5820 H   0  0  0  0  0  0  0  0  0  0  0  0
    2.6463    2.8088   -3.6142 H   0  0  0  0  0  0  0  0  0  0  0  0
   -0.0933   -2.3265   -2.6530 H   0  0  0  0  0  0  0  0  0  0  0  0
   -6.0303   -2.1907   -1.3853 H   0  0  0  0  0  0  0  0  0  0  0  0
    0.4765    3.1842    2.5220 H   0  0  0  0  0  0  0  0  0  0  0  0
   -0.8947    2.0869    2.5759 H   0  0  0  0  0  0  0  0  0  0  0  0
   -0.7217    3.3193    1.2440 H   0  0  0  0  0  0  0  0  0  0  0  0
   -8.4843   -2.0366   -1.6142 H   0  0  0  0  0  0  0  0  0  0  0  0
   -9.7520   -0.4200   -0.3405 H   0  0  0  0  0  0  0  0  0  0  0  0
  -10.5123    2.1595    1.8776 H   0  0  0  0  0  0  0  0  0  0  0  0
  -10.5887    0.4339    1.5388 H   0  0  0  0  0  0  0  0  0  0  0  0
  -10.3844    1.6468    0.1985 H   0  0  0  0  0  0  0  0  0  0  0  0
  1  2  1  0  0  0  0
  1  9  1  0  0  0  0
  2 10  1  0  0  0  0
  3 12  1  0  0  0  0
  3 48  1  0  0  0  0
  4 16  1  0  0  0  0
  4 27  1  0  0  0  0
  5 17  1  0  0  0  0
  5 28  1  0  0  0  0
  6 20  1  0  0  0  0
  6 32  1  0  0  0  0
  7 22  1  0  0  0  0
  7 56  1  0  0  0  0
  8 31  1  0  0  0  0
  8 35  1  0  0  0  0
  9 10  1  0  0  0  0
  9 11  1  0  0  0  0
  9 36  1  0  0  0  0
 10 12  1  0  0  0  0
 10 37  1  0  0  0  0
 11 14  2  0  0  0  0
 11 15  1  0  0  0  0
 12 38  1  0  0  0  0
 12 39  1  0  0  0  0
 13 16  2  0  0  0  0
 13 17  1  0  0  0  0
 13 18  1  0  0  0  0
 14 16  1  0  0  0  0
 14 40  1  0  0  0  0
 15 17  2  0  0  0  0
 15 41  1  0  0  0  0
 18 20  1  0  0  0  0
 18 22  2  0  0  0  0
 19 21  1  0  0  0  0
 19 23  1  0  0  0  0
 19 24  2  0  0  0  0
 20 23  2  0  0  0  0
 21 25  1  0  0  0  0
 21 42  1  0  0  0  0
 21 43  1  0  0  0  0
 22 24  1  0  0  0  0
 23 44  1  0  0  0  0
 24 45  1  0  0  0  0
 25 26  1  0  0  0  0
 25 46  1  0  0  0  0
 25 47  1  0  0  0  0
 26 29  2  0  0  0  0
 26 30  1  0  0  0  0
 27 50  1  0  0  0  0
 27 51  1  0  0  0  0
 27 52  1  0  0  0  0
 28 53  1  0  0  0  0
 28 54  1  0  0  0  0
 28 55  1  0  0  0  0
 29 31  1  0  0  0  0
 29 49  1  0  0  0  0
 30 33  2  0  0  0  0
 30 57  1  0  0  0  0
 31 34  2  0  0  0  0
 32 58  1  0  0  0  0
 32 59  1  0  0  0  0
 32 60  1  0  0  0  0
 33 34  1  0  0  0  0
 33 61  1  0  0  0  0
 34 62  1  0  0  0  0
 35 63  1  0  0  0  0
 35 64  1  0  0  0  0
 35 65  1  0  0  0  0
M  END
> <PUBCHEM_COMPOUND_CID>
101443793

> <PUBCHEM_CONFORMER_RMSD>
1

> <PUBCHEM_CONFORMER_DIVERSEORDER>
4
58
90
73
30
14
78
18
86
38
45
36
29
84
46
10
32
21
93
95
12
74
16
60
70
81
49
31
33
54
51
64
57
42
88
56
68
94
80
34
17
48
5
89
76
15
35
87
77
2
75
47
62
85
44
28
66
9
83
27
43
52
72
50
22
82
7
39
59
40
13
65
79
55
91
61
41
26
71
19
8
53
92
37
1
6
69
20
3
63
11
67
23
24
25

> <PUBCHEM_MMFF94_PARTIAL_CHARGES>
43
1 -0.26
10 0.26
11 -0.11
12 0.28
14 -0.15
15 -0.15
16 0.08
17 0.08
19 -0.14
2 -0.26
20 0.08
21 0.14
22 0.08
23 -0.15
24 -0.15
25 0.14
26 -0.14
27 0.28
28 0.28
29 -0.15
3 -0.68
30 -0.15
31 0.08
32 0.28
33 -0.15
34 -0.15
35 0.28
4 -0.36
40 0.15
41 0.15
44 0.15
45 0.15
48 0.4
49 0.15
5 -0.36
56 0.45
57 0.15
6 -0.36
61 0.15
62 0.15
7 -0.53
8 -0.36
9 0.37

> <PUBCHEM_EFFECTIVE_ROTOR_COUNT>
10.8

> <PUBCHEM_PHARMACOPHORE_FEATURES>
11
1 3 acceptor
1 3 donor
1 4 acceptor
1 5 acceptor
1 6 acceptor
1 7 donor
1 8 acceptor
4 1 2 9 10 rings
6 11 13 14 15 16 17 rings
6 18 19 20 22 23 24 rings
6 26 29 30 31 33 34 rings

> <PUBCHEM_HEAVY_ATOM_COUNT>
35

> <PUBCHEM_ATOM_DEF_STEREO_COUNT>
0

> <PUBCHEM_ATOM_UDEF_STEREO_COUNT>
2

> <PUBCHEM_BOND_DEF_STEREO_COUNT>
0

> <PUBCHEM_BOND_UDEF_STEREO_COUNT>
0

> <PUBCHEM_ISOTOPIC_ATOM_COUNT>
0

> <PUBCHEM_COMPONENT_COUNT>
1

> <PUBCHEM_CACTVS_TAUTO_COUNT>
59

> <PUBCHEM_CONFORMER_ID>
060BE8D100000004

> <PUBCHEM_MMFF94_ENERGY>
137.3085

> <PUBCHEM_FEATURE_SELFOVERLAP>
55.825

> <PUBCHEM_SHAPE_FINGERPRINT>
10 15 17275102838617003599
10162869 55 17967808401469133135
10299344 5 18334860515800688967
11135926 11 17603579730282500283
11607047 141 17916304949316236518
12089408 11 18343582945659455303
12236239 1 18410288095729114718
13383665 225 16199613353896702424
14937079 2 17774435104747510416
15183329 4 18131638873019376321
15301273 46 17203608168752215099
15439362 3 17910665794115612368
15461852 350 14764338359057666837
15840311 113 18343022207862098436
15849732 13 16702302364980892109
21792934 111 17846776291265045000
22224240 67 18060699494226863135
23522609 53 18264796349540642229
23576562 1 8429725281683993779
24771293 8 16845301535827644161
249057 3 17167864187777832058
3411729 13 17630595937066143241
4149490 64 17313960735300208673
4340502 62 18040151829559000642
58260988 393 18272930480353515504
6081469 158 13767920209202053190

> <PUBCHEM_SHAPE_MULTIPOLES>
673.33
28
2.17
1.94
39.77
0.24
0.49
2.75
-10.07
-2.18
-0.57
-0.95
0.46
-2.98

> <PUBCHEM_SHAPE_SELFOVERLAP>
1445.065

> <PUBCHEM_SHAPE_VOLUME>
377.1

> <PUBCHEM_COORDINATE_TYPE>
2
5
10

$$$$
