12235673
  -OEChem-08312003033D

 24 24  0     0  0  0  0  0  0999 V2000
   -3.3817    1.8671   -0.1133 O   0  0  0  0  0  0  0  0  0  0  0  0
    3.7383    0.1087    1.0768 O   0  0  0  0  0  0  0  0  0  0  0  0
    0.9737   -0.1698    0.7586 C   0  0  0  0  0  0  0  0  0  0  0  0
    1.8712    0.0464   -0.4585 C   0  0  0  0  0  0  0  0  0  0  0  0
   -0.4769   -0.2846    0.3678 C   0  0  0  0  0  0  0  0  0  0  0  0
   -1.2600    0.8590    0.3100 C   0  0  0  0  0  0  0  0  0  0  0  0
   -1.0067   -1.5319    0.0714 C   0  0  0  0  0  0  0  0  0  0  0  0
    3.3391    0.1558   -0.0858 C   0  0  0  0  0  0  0  0  0  0  0  0
   -2.6029    0.7528   -0.0523 C   0  0  0  0  0  0  0  0  0  0  0  0
   -2.3494   -1.6381   -0.2910 C   0  0  0  0  0  0  0  0  0  0  0  0
   -3.1475   -0.4958   -0.3529 C   0  0  0  0  0  0  0  0  0  0  0  0
    4.3028    0.3303   -1.2307 C   0  0  0  0  0  0  0  0  0  0  0  0
    1.0993    0.6539    1.4737 H   0  0  0  0  0  0  0  0  0  0  0  0
    1.2820   -1.0734    1.3012 H   0  0  0  0  0  0  0  0  0  0  0  0
    1.5879    0.9678   -0.9806 H   0  0  0  0  0  0  0  0  0  0  0  0
    1.7644   -0.7898   -1.1595 H   0  0  0  0  0  0  0  0  0  0  0  0
   -0.8323    1.8307    0.5427 H   0  0  0  0  0  0  0  0  0  0  0  0
   -0.3928   -2.4270    0.1147 H   0  0  0  0  0  0  0  0  0  0  0  0
   -2.7734   -2.6100   -0.5255 H   0  0  0  0  0  0  0  0  0  0  0  0
   -4.1927   -0.5849   -0.6361 H   0  0  0  0  0  0  0  0  0  0  0  0
    5.3240    0.4014   -0.8462 H   0  0  0  0  0  0  0  0  0  0  0  0
    4.2365   -0.5311   -1.8998 H   0  0  0  0  0  0  0  0  0  0  0  0
    4.0650    1.2489   -1.7728 H   0  0  0  0  0  0  0  0  0  0  0  0
   -2.8435    2.6415    0.1249 H   0  0  0  0  0  0  0  0  0  0  0  0
  1  9  1  0  0  0  0
  1 24  1  0  0  0  0
  2  8  2  0  0  0  0
  3  4  1  0  0  0  0
  3  5  1  0  0  0  0
  3 13  1  0  0  0  0
  3 14  1  0  0  0  0
  4  8  1  0  0  0  0
  4 15  1  0  0  0  0
  4 16  1  0  0  0  0
  5  6  2  0  0  0  0
  5  7  1  0  0  0  0
  6  9  1  0  0  0  0
  6 17  1  0  0  0  0
  7 10  2  0  0  0  0
  7 18  1  0  0  0  0
  8 12  1  0  0  0  0
  9 11  2  0  0  0  0
 10 11  1  0  0  0  0
 10 19  1  0  0  0  0
 11 20  1  0  0  0  0
 12 21  1  0  0  0  0
 12 22  1  0  0  0  0
 12 23  1  0  0  0  0
M  END
> <PUBCHEM_COMPOUND_CID>
12235673

> <PUBCHEM_CONFORMER_RMSD>
0.6

> <PUBCHEM_CONFORMER_DIVERSEORDER>
1
24
13
9
15
8
21
3
11
20
23
5
10
22
16
18
2
14
12
17
6
19
7
4

> <PUBCHEM_MMFF94_PARTIAL_CHARGES>
17
1 -0.53
10 -0.15
11 -0.15
12 0.06
17 0.15
18 0.15
19 0.15
2 -0.57
20 0.15
24 0.45
3 0.14
4 0.06
5 -0.14
6 -0.15
7 -0.15
8 0.45
9 0.08

> <PUBCHEM_EFFECTIVE_ROTOR_COUNT>
3

> <PUBCHEM_PHARMACOPHORE_FEATURES>
3
1 1 donor
1 2 acceptor
6 5 6 7 9 10 11 rings

> <PUBCHEM_HEAVY_ATOM_COUNT>
12

> <PUBCHEM_ATOM_DEF_STEREO_COUNT>
0

> <PUBCHEM_ATOM_UDEF_STEREO_COUNT>
0

> <PUBCHEM_BOND_DEF_STEREO_COUNT>
0

> <PUBCHEM_BOND_UDEF_STEREO_COUNT>
0

> <PUBCHEM_ISOTOPIC_ATOM_COUNT>
0

> <PUBCHEM_COMPONENT_COUNT>
1

> <PUBCHEM_CACTVS_TAUTO_COUNT>
37

> <PUBCHEM_CONFORMER_ID>
00BAB39900000001

> <PUBCHEM_MMFF94_ENERGY>
22.6329

> <PUBCHEM_FEATURE_SELFOVERLAP>
15.223

> <PUBCHEM_SHAPE_FINGERPRINT>
10751810 167 18334583468481462982
12186901 62 18413396436021857407
12932764 1 18343303690864319242
13024252 1 17895193333502797251
13296908 3 17346601897933028686
14144814 61 18113616802764483962
14325111 11 18410572864249499938
14897335 6 18337383838487182827
15669948 3 18410006675954320206
15775835 57 18114464474315559653
1741750 31 18269835320381558545
18186145 218 17847066571077251290
19026448 4 17703789236715992736
1986462 14 18272937132592789766
200 152 14764349310300800022
20201158 50 17632581552096979998
20279233 1 17561362894337438742
20325693 3 18340782493173624726
20645477 56 18413109442028203385
20645477 70 16415485926459549212
20711983 171 18334296457244318230
21061003 4 16916515868428368075
22169311 21 17561081419302796958
23402539 116 18343008982750445748
23557571 272 18130238115472456029
23559900 14 18131350783407836250
2748010 2 17836065042788169795
3248919 1 17676485073064143090
528716 315 18409733996986047423
573450 72 18335124393937672754
6333449 129 18272649056441145147
77492 1 17822001021604961898

> <PUBCHEM_SHAPE_MULTIPOLES>
235.22
7.37
1.41
0.91
6.41
0.01
0.01
-1.4
1.5
-1.78
0.08
0.8
0
-0.17

> <PUBCHEM_SHAPE_SELFOVERLAP>
479.46

> <PUBCHEM_SHAPE_VOLUME>
136.6

> <PUBCHEM_COORDINATE_TYPE>
2
5
10

$$$$
