586373
  -OEChem-11232008523D

 53 54  0     1  0  0  0  0  0999 V2000
   -0.1271    0.3577    0.8333 O   0  0  0  0  0  0  0  0  0  0  0  0
   -0.1158    2.5718    2.6297 O   0  0  0  0  0  0  0  0  0  0  0  0
   -2.3041    4.4235   -0.6980 O   0  0  0  0  0  0  0  0  0  0  0  0
    3.6740   -2.6057   -0.7061 O   0  0  0  0  0  0  0  0  0  0  0  0
   -2.2781   -3.2127   -0.2436 O   0  0  0  0  0  0  0  0  0  0  0  0
    5.9169   -1.2523    0.2237 O   0  0  0  0  0  0  0  0  0  0  0  0
   -4.9163   -2.9322    0.5863 O   0  0  0  0  0  0  0  0  0  0  0  0
    0.1546    1.6876    0.3692 C   0  0  2  0  0  0  0  0  0  0  0  0
   -1.2136    2.3465   -0.0580 C   0  0  2  0  0  0  0  0  0  0  0  0
    1.1410    1.5652   -0.8249 C   0  0  0  0  0  0  0  0  0  0  0  0
   -2.0022    1.5737   -1.1607 C   0  0  0  0  0  0  0  0  0  0  0  0
    0.8131    2.4214    1.5604 C   0  0  0  0  0  0  0  0  0  0  0  0
   -1.0316    3.8110   -0.5109 C   0  0  0  0  0  0  0  0  0  0  0  0
    2.4208    0.8060   -0.5442 C   0  0  0  0  0  0  0  0  0  0  0  0
   -2.7788    0.3662   -0.6944 C   0  0  0  0  0  0  0  0  0  0  0  0
    2.4549   -0.5607   -0.7567 C   0  0  0  0  0  0  0  0  0  0  0  0
    3.5269    1.4966   -0.0820 C   0  0  0  0  0  0  0  0  0  0  0  0
   -2.1634   -0.8755   -0.6852 C   0  0  0  0  0  0  0  0  0  0  0  0
   -4.0932    0.5214   -0.2835 C   0  0  0  0  0  0  0  0  0  0  0  0
    3.6340   -1.2599   -0.4986 C   0  0  0  0  0  0  0  0  0  0  0  0
   -2.8811   -1.9911   -0.2537 C   0  0  0  0  0  0  0  0  0  0  0  0
    4.7060    0.7973    0.1765 C   0  0  0  0  0  0  0  0  0  0  0  0
   -4.8110   -0.5943    0.1477 C   0  0  0  0  0  0  0  0  0  0  0  0
    4.7595   -0.5808   -0.0320 C   0  0  0  0  0  0  0  0  0  0  0  0
   -4.2049   -1.8505    0.1627 C   0  0  0  0  0  0  0  0  0  0  0  0
    3.3148   -3.4417    0.3922 C   0  0  0  0  0  0  0  0  0  0  0  0
   -1.5954   -3.5887    0.9508 C   0  0  0  0  0  0  0  0  0  0  0  0
   -1.8730    2.3568    0.8218 H   0  0  0  0  0  0  0  0  0  0  0  0
    0.6625    1.0536   -1.6667 H   0  0  0  0  0  0  0  0  0  0  0  0
    1.4029    2.5625   -1.2005 H   0  0  0  0  0  0  0  0  0  0  0  0
   -1.3513    1.2881   -1.9934 H   0  0  0  0  0  0  0  0  0  0  0  0
   -2.7325    2.2442   -1.6335 H   0  0  0  0  0  0  0  0  0  0  0  0
    1.1858    3.4100    1.2773 H   0  0  0  0  0  0  0  0  0  0  0  0
    1.6439    1.8363    1.9669 H   0  0  0  0  0  0  0  0  0  0  0  0
   -0.4938    3.8711   -1.4616 H   0  0  0  0  0  0  0  0  0  0  0  0
   -0.4923    4.4087    0.2277 H   0  0  0  0  0  0  0  0  0  0  0  0
   -0.7065    0.4317    1.6110 H   0  0  0  0  0  0  0  0  0  0  0  0
    1.5801   -1.0929   -1.1203 H   0  0  0  0  0  0  0  0  0  0  0  0
    3.4972    2.5701    0.0795 H   0  0  0  0  0  0  0  0  0  0  0  0
   -1.1437   -0.9994   -1.0388 H   0  0  0  0  0  0  0  0  0  0  0  0
   -4.5732    1.4958   -0.2879 H   0  0  0  0  0  0  0  0  0  0  0  0
    0.3486    3.0347    3.3479 H   0  0  0  0  0  0  0  0  0  0  0  0
   -2.7739    4.3876    0.1527 H   0  0  0  0  0  0  0  0  0  0  0  0
    5.5756    1.3390    0.5388 H   0  0  0  0  0  0  0  0  0  0  0  0
   -5.8417   -0.4779    0.4716 H   0  0  0  0  0  0  0  0  0  0  0  0
    6.5861   -0.6211    0.5395 H   0  0  0  0  0  0  0  0  0  0  0  0
   -4.3589   -3.7240    0.4946 H   0  0  0  0  0  0  0  0  0  0  0  0
    3.4066   -4.4838    0.0740 H   0  0  0  0  0  0  0  0  0  0  0  0
    3.9859   -3.2742    1.2405 H   0  0  0  0  0  0  0  0  0  0  0  0
    2.2779   -3.2569    0.6909 H   0  0  0  0  0  0  0  0  0  0  0  0
   -0.7554   -2.9120    1.1380 H   0  0  0  0  0  0  0  0  0  0  0  0
   -2.2775   -3.5855    1.8068 H   0  0  0  0  0  0  0  0  0  0  0  0
   -1.2051   -4.6014    0.8180 H   0  0  0  0  0  0  0  0  0  0  0  0
  1  8  1  0  0  0  0
  1 37  1  0  0  0  0
  2 12  1  0  0  0  0
  2 42  1  0  0  0  0
  3 13  1  0  0  0  0
  3 43  1  0  0  0  0
  4 20  1  0  0  0  0
  4 26  1  0  0  0  0
  5 21  1  0  0  0  0
  5 27  1  0  0  0  0
  6 24  1  0  0  0  0
  6 46  1  0  0  0  0
  7 25  1  0  0  0  0
  7 47  1  0  0  0  0
  8  9  1  0  0  0  0
  8 10  1  0  0  0  0
  8 12  1  0  0  0  0
  9 11  1  0  0  0  0
  9 13  1  0  0  0  0
  9 28  1  0  0  0  0
 10 14  1  0  0  0  0
 10 29  1  0  0  0  0
 10 30  1  0  0  0  0
 11 15  1  0  0  0  0
 11 31  1  0  0  0  0
 11 32  1  0  0  0  0
 12 33  1  0  0  0  0
 12 34  1  0  0  0  0
 13 35  1  0  0  0  0
 13 36  1  0  0  0  0
 14 16  2  0  0  0  0
 14 17  1  0  0  0  0
 15 18  2  0  0  0  0
 15 19  1  0  0  0  0
 16 20  1  0  0  0  0
 16 38  1  0  0  0  0
 17 22  2  0  0  0  0
 17 39  1  0  0  0  0
 18 21  1  0  0  0  0
 18 40  1  0  0  0  0
 19 23  2  0  0  0  0
 19 41  1  0  0  0  0
 20 24  2  0  0  0  0
 21 25  2  0  0  0  0
 22 24  1  0  0  0  0
 22 44  1  0  0  0  0
 23 25  1  0  0  0  0
 23 45  1  0  0  0  0
 26 48  1  0  0  0  0
 26 49  1  0  0  0  0
 26 50  1  0  0  0  0
 27 51  1  0  0  0  0
 27 52  1  0  0  0  0
 27 53  1  0  0  0  0
M  END
> <PUBCHEM_COMPOUND_CID>
586373

> <PUBCHEM_CONFORMER_RMSD>
1

> <PUBCHEM_CONFORMER_DIVERSEORDER>
1
99
114
127
144
333
145
249
182
46
37
266
322
245
149
157
193
284
346
209
300
147
55
169
139
341
285
317
293
349
279
24
162
166
240
273
318
4
248
180
230
137
321
178
159
45
106
179
291
63
164
158
122
269
57
195
82
47
92
210
206
260
9
89
198
225
350
253
324
86
107
340
39
58
167
335
299
301
265
150
170
124
342
126
281
223
186
307
60
28
104
236
132
237
320
16
334
229
87
83
263
212
123
148
115
208
65
231
268
191
135
328
228
172
143
111
262
306
213
316
131
297
309
294
77
18
119
200
243
171
81
64
270
133
308
290
246
160
215
337
218
222
201
68
31
161
54
8
100
292
152
49
25
323
156
275
53
310
97
303
14
84
332
17
72
286
175
336
278
163
7
305
277
112
26
10
59
32
192
199
174
327
27
103
12
331
194
329
94
73
217
165
168
91
51
69
74
224
347
202
6
254
227
205
109
203
15
216
117
19
242
302
241
71
288
34
96
62
351
136
252
67
289
134
42
138
78
211
181
23
52
315
29
13
176
204
173
70
66
40
339
36
244
344
76
190
259
11
110
146
311
90
234
88
56
118
264
348
233
48
98
295
287
258
338
41
296
120
43
75
267
102
214
272
271
220
79
196
319
184
207
151
251
80
221
116
21
155
130
183
61
219
128
38
95
185
312
282
326
22
261
113
343
238
105
141
298
256
283
325
257
20
153
188
304
330
187
276
232
129
35
197
314
313
280
274
33
345
247
226
108
101
142
125
93
44
154
140
85
177
189
235
30
239
250
50
2
5
255
3
121

> <PUBCHEM_MMFF94_PARTIAL_CHARGES>
37
1 -0.68
10 0.14
11 0.14
12 0.28
13 0.28
14 -0.14
15 -0.14
16 -0.15
17 -0.15
18 -0.15
19 -0.15
2 -0.68
20 0.08
21 0.08
22 -0.15
23 -0.15
24 0.08
25 0.08
26 0.28
27 0.28
3 -0.68
37 0.4
38 0.15
39 0.15
4 -0.36
40 0.15
41 0.15
42 0.4
43 0.4
44 0.15
45 0.15
46 0.45
47 0.45
5 -0.36
6 -0.53
7 -0.53
8 0.28

> <PUBCHEM_EFFECTIVE_ROTOR_COUNT>
9

> <PUBCHEM_PHARMACOPHORE_FEATURES>
12
1 1 acceptor
1 1 donor
1 2 acceptor
1 2 donor
1 3 acceptor
1 3 donor
1 4 acceptor
1 5 acceptor
1 6 donor
1 7 donor
6 14 16 17 20 22 24 rings
6 15 18 19 21 23 25 rings

> <PUBCHEM_HEAVY_ATOM_COUNT>
27

> <PUBCHEM_ATOM_DEF_STEREO_COUNT>
0

> <PUBCHEM_ATOM_UDEF_STEREO_COUNT>
2

> <PUBCHEM_BOND_DEF_STEREO_COUNT>
0

> <PUBCHEM_BOND_UDEF_STEREO_COUNT>
0

> <PUBCHEM_ISOTOPIC_ATOM_COUNT>
0

> <PUBCHEM_COMPONENT_COUNT>
1

> <PUBCHEM_CACTVS_TAUTO_COUNT>
8

> <PUBCHEM_CONFORMER_ID>
0008F28500000001

> <PUBCHEM_MMFF94_ENERGY>
102.9352

> <PUBCHEM_FEATURE_SELFOVERLAP>
60.906

> <PUBCHEM_SHAPE_FINGERPRINT>
12422481 6 17984163482218071801
12506688 2 18342741866028714444
12553582 1 18265038297025394415
12633257 1 17487635228131379535
12788726 201 18335135363057202474
13402501 40 18411419556843743127
13533116 47 17841713217040918911
13583140 156 17987778736691218876
13631057 29 18412545405938335430
138480 1 15671538401516064653
14117953 113 16534529749319161646
14251740 79 18335986367787736290
14790565 3 17907017279690277289
14866123 147 18268151942673567969
15352361 1 18409730707114938911
15420108 30 13741760225054162032
15927050 60 17835797500954704997
17492 89 18338234839308124894
17909252 39 18201173053101032646
19315092 285 16625740260767391135
19784866 135 18410571786534916777
20600515 1 18269852959960397853
20775530 9 18337105782214990031
21403212 168 18270973354372521601
23559900 14 18411410731334770228
3004659 81 18186518830343701046
3421961 26 18196092372560507989
38695281 34 17399795999580918085
463206 1 18263085585723187442
5104073 3 18200022946747460216
5309563 4 18338518663431363095
6433294 58 18411698820281256046
70634741 139 18411422774791677460
79837 15 17766285266785353249
9709674 26 18269837523810330566

> <PUBCHEM_SHAPE_MULTIPOLES>
514.56
10.28
5.04
1.18
4.78
0.23
0.62
-7.57
-0.39
-2.46
0.62
-0.05
0.73
0.97

> <PUBCHEM_SHAPE_SELFOVERLAP>
1077.729

> <PUBCHEM_SHAPE_VOLUME>
291.7

> <PUBCHEM_COORDINATE_TYPE>
2
5
10

$$$$
