11013288
  -OEChem-09092014543D

 39 42  0     1  0  0  0  0  0999 V2000
    0.7324   -1.7296    0.2582 O   0  0  0  0  0  0  0  0  0  0  0  0
   -2.8783   -1.9513    0.7049 O   0  0  0  0  0  0  0  0  0  0  0  0
   -1.6925   -2.9427   -1.0858 O   0  0  0  0  0  0  0  0  0  0  0  0
   -0.0632    2.2574    0.1719 O   0  0  0  0  0  0  0  0  0  0  0  0
    2.4465    2.7842    0.0116 O   0  0  0  0  0  0  0  0  0  0  0  0
    5.4044   -0.9519    0.1887 O   0  0  0  0  0  0  0  0  0  0  0  0
   -6.4967    0.9725   -0.1724 O   0  0  0  0  0  0  0  0  0  0  0  0
   -0.9280    0.0282    0.0831 C   0  0  0  0  0  0  0  0  0  0  0  0
   -0.5675   -1.2649    0.1712 C   0  0  0  0  0  0  0  0  0  0  0  0
   -2.3704    0.3100   -0.0324 C   0  0  0  0  0  0  0  0  0  0  0  0
    1.5358    0.5506    0.1321 C   0  0  0  0  0  0  0  0  0  0  0  0
   -1.5951   -2.3630    0.2135 C   0  0  1  0  0  0  0  0  0  0  0  0
    0.1517    1.0540    0.1230 C   0  0  0  0  0  0  0  0  0  0  0  0
    1.7543   -0.8215    0.1999 C   0  0  0  0  0  0  0  0  0  0  0  0
   -3.2809   -0.7049    0.3016 C   0  0  0  0  0  0  0  0  0  0  0  0
    2.6192    1.4329    0.0841 C   0  0  0  0  0  0  0  0  0  0  0  0
    3.9208    0.9300    0.1020 C   0  0  0  0  0  0  0  0  0  0  0  0
    3.0563   -1.3234    0.2198 C   0  0  0  0  0  0  0  0  0  0  0  0
    4.1392   -0.4460    0.1695 C   0  0  0  0  0  0  0  0  0  0  0  0
   -2.8896    1.5407   -0.4572 C   0  0  0  0  0  0  0  0  0  0  0  0
   -4.6607   -0.4823    0.2739 C   0  0  0  0  0  0  0  0  0  0  0  0
   -4.2703    1.7599   -0.5061 C   0  0  0  0  0  0  0  0  0  0  0  0
   -5.1549    0.7528   -0.1322 C   0  0  0  0  0  0  0  0  0  0  0  0
    5.0881    1.8640    0.0482 C   0  0  0  0  0  0  0  0  0  0  0  0
    5.9997   -1.2555   -1.0710 C   0  0  0  0  0  0  0  0  0  0  0  0
   -1.2444   -3.1416    0.9018 H   0  0  0  0  0  0  0  0  0  0  0  0
    3.2266   -2.3957    0.2752 H   0  0  0  0  0  0  0  0  0  0  0  0
   -2.2436    2.3547   -0.7705 H   0  0  0  0  0  0  0  0  0  0  0  0
   -5.3422   -1.2802    0.5589 H   0  0  0  0  0  0  0  0  0  0  0  0
   -4.6469    2.7244   -0.8365 H   0  0  0  0  0  0  0  0  0  0  0  0
    5.3185    2.1159   -0.9918 H   0  0  0  0  0  0  0  0  0  0  0  0
    4.8849    2.7897    0.5975 H   0  0  0  0  0  0  0  0  0  0  0  0
    5.9833    1.4346    0.5098 H   0  0  0  0  0  0  0  0  0  0  0  0
   -1.8920   -3.8867   -0.9653 H   0  0  0  0  0  0  0  0  0  0  0  0
    1.5100    3.0052   -0.1032 H   0  0  0  0  0  0  0  0  0  0  0  0
    7.0181   -1.6111   -0.8915 H   0  0  0  0  0  0  0  0  0  0  0  0
    6.0475   -0.3652   -1.7057 H   0  0  0  0  0  0  0  0  0  0  0  0
    5.4376   -2.0466   -1.5774 H   0  0  0  0  0  0  0  0  0  0  0  0
   -6.9573    0.1665    0.1180 H   0  0  0  0  0  0  0  0  0  0  0  0
  1  9  1  0  0  0  0
  1 14  1  0  0  0  0
  2 12  1  0  0  0  0
  2 15  1  0  0  0  0
  3 12  1  0  0  0  0
  3 34  1  0  0  0  0
  4 13  2  0  0  0  0
  5 16  1  0  0  0  0
  5 35  1  0  0  0  0
  6 19  1  0  0  0  0
  6 25  1  0  0  0  0
  7 23  1  0  0  0  0
  7 39  1  0  0  0  0
  8  9  2  0  0  0  0
  8 10  1  0  0  0  0
  8 13  1  0  0  0  0
  9 12  1  0  0  0  0
 10 15  2  0  0  0  0
 10 20  1  0  0  0  0
 11 13  1  0  0  0  0
 11 14  1  0  0  0  0
 11 16  2  0  0  0  0
 12 26  1  0  0  0  0
 14 18  2  0  0  0  0
 15 21  1  0  0  0  0
 16 17  1  0  0  0  0
 17 19  2  0  0  0  0
 17 24  1  0  0  0  0
 18 19  1  0  0  0  0
 18 27  1  0  0  0  0
 20 22  2  0  0  0  0
 20 28  1  0  0  0  0
 21 23  2  0  0  0  0
 21 29  1  0  0  0  0
 22 23  1  0  0  0  0
 22 30  1  0  0  0  0
 24 31  1  0  0  0  0
 24 32  1  0  0  0  0
 24 33  1  0  0  0  0
 25 36  1  0  0  0  0
 25 37  1  0  0  0  0
 25 38  1  0  0  0  0
M  END
> <PUBCHEM_COMPOUND_CID>
11013288

> <PUBCHEM_CONFORMER_RMSD>
0.6

> <PUBCHEM_CONFORMER_DIVERSEORDER>
2
1

> <PUBCHEM_MMFF94_PARTIAL_CHARGES>
32
1 -0.16
10 0.03
11 0.09
12 0.7
13 0.47
14 0.08
15 0.08
16 0.08
17 -0.14
18 -0.15
19 0.08
2 -0.36
20 -0.15
21 -0.15
22 -0.15
23 0.08
24 0.14
25 0.28
27 0.15
28 0.15
29 0.15
3 -0.68
30 0.15
34 0.4
35 0.45
39 0.45
4 -0.57
5 -0.53
6 -0.36
7 -0.53
8 -0.01
9 -0.06

> <PUBCHEM_EFFECTIVE_ROTOR_COUNT>
1.4

> <PUBCHEM_PHARMACOPHORE_FEATURES>
12
1 1 acceptor
1 2 acceptor
1 3 acceptor
1 3 donor
1 4 acceptor
1 5 donor
1 6 acceptor
1 7 donor
6 1 8 9 11 13 14 rings
6 10 15 20 21 22 23 rings
6 11 14 16 17 18 19 rings
6 2 8 9 10 12 15 rings

> <PUBCHEM_HEAVY_ATOM_COUNT>
25

> <PUBCHEM_ATOM_DEF_STEREO_COUNT>
0

> <PUBCHEM_ATOM_UDEF_STEREO_COUNT>
1

> <PUBCHEM_BOND_DEF_STEREO_COUNT>
0

> <PUBCHEM_BOND_UDEF_STEREO_COUNT>
0

> <PUBCHEM_ISOTOPIC_ATOM_COUNT>
0

> <PUBCHEM_COMPONENT_COUNT>
1

> <PUBCHEM_CACTVS_TAUTO_COUNT>
14

> <PUBCHEM_CONFORMER_ID>
00A80CA800000002

> <PUBCHEM_MMFF94_ENERGY>
89.676

> <PUBCHEM_FEATURE_SELFOVERLAP>
61.019

> <PUBCHEM_SHAPE_FINGERPRINT>
10 15 18114741637609660544
10411042 1 17400081267108956755
10616163 171 18266741466069285366
10967382 1 18337951194981883482
11578080 2 17201058534088244816
12011746 2 18410293571121398567
12236239 1 17775283859447261529
12403259 415 18187076226799297029
12788726 201 18057602058022577072
13140716 1 18337381742685431146
13402501 40 18409446964511631285
13533116 47 17703509918023854882
138480 1 17689150115513541803
14341114 176 18408328799614171840
14790565 3 18411141290471418129
15042514 8 18263931115219530899
15099037 51 18411982442388043991
15196674 1 18409729598986898682
16087824 20 18265335006399589597
17349148 13 17703795812036694376
17492 89 18194403522716477610
1813 80 16732979855823777732
19141452 34 18412823620338763510
19591789 44 18409447020356658203
200 152 17917990564031411313
20775438 99 16835671098406297599
21033648 29 18341317942847628057
21236236 1 18411980304375577911
21267235 1 18410019827128194027
21279426 13 18410856516969958092
21307412 95 17916325865490380110
21421861 104 17822555137311718466
221357 26 18411697651675741740
221490 88 18263933301088216122
2215653 11 18273218565010308790
23227448 37 18339640143811297623
23402539 116 18273489070524318871
23558518 356 17681833251813083385
23559900 14 18341610443326874200
3004659 81 18261395529783526732
335352 9 18410292493475010518
34934 24 18409443717416044378
350125 39 18336265661348510109
3545911 37 18335139769719988953
3680242 22 18261951826226056266
4073 2 17967819405248815386
4214541 1 18408603669168285241
495365 180 17489011760701617936
5104073 3 18336263530506246352
59755656 215 18336549313319641718
59755656 520 17095243618275493442
6138700 20 18338237042515343974
633830 44 17604428617282017882
9709674 26 18264492969549726522

> <PUBCHEM_SHAPE_MULTIPOLES>
473.4
12.53
2.66
0.74
0.94
0.22
0.09
-2.03
1.51
0.13
0.21
0.12
0.18
0.66

> <PUBCHEM_SHAPE_SELFOVERLAP>
1068.794

> <PUBCHEM_SHAPE_VOLUME>
246.6

> <PUBCHEM_COORDINATE_TYPE>
2
5
10

$$$$
