6096870
  -OEChem-09092015113D

 38 39  0     1  0  0  0  0  0999 V2000
   -3.3599   -0.2432   -1.9917 O   0  5  0  0  0  0  0  0  0  0  0  0
   -2.4688   -2.2220   -1.2673 O   0  0  0  0  0  0  0  0  0  0  0  0
    1.9521    3.6053   -0.6058 O   0  0  0  0  0  0  0  0  0  0  0  0
    4.0112    2.7348   -0.1608 O   0  0  0  0  0  0  0  0  0  0  0  0
    4.9064   -1.6205   -0.4066 O   0  0  0  0  0  0  0  0  0  0  0  0
    3.5432   -3.2481    0.4436 O   0  0  0  0  0  0  0  0  0  0  0  0
   -2.9525    0.4317    0.7281 N   0  3  0  0  0  0  0  0  0  0  0  0
    3.1133    0.2215   -0.3059 N   0  0  0  0  0  0  0  0  0  0  0  0
   -3.5757   -0.8419    0.2694 C   0  0  1  0  0  0  0  0  0  0  0  0
   -5.0630   -0.5152    0.2955 C   0  0  0  0  0  0  0  0  0  0  0  0
   -5.1315    0.9891    0.0502 C   0  0  0  0  0  0  0  0  0  0  0  0
   -3.9361    1.5451    0.8080 C   0  0  0  0  0  0  0  0  0  0  0  0
   -1.7158    0.5552    1.0554 C   0  0  0  0  0  0  0  0  0  0  0  0
   -3.0876   -1.1290   -1.1347 C   0  0  0  0  0  0  0  0  0  0  0  0
    1.0217    1.1524    0.5629 C   0  0  0  0  0  0  0  0  0  0  0  0
    0.5235   -0.2724    0.7253 C   0  0  0  0  0  0  0  0  0  0  0  0
    2.1252    1.2691   -0.5018 C   0  0  1  0  0  0  0  0  0  0  0  0
   -0.7643   -0.5551    0.9690 C   0  0  0  0  0  0  0  0  0  0  0  0
    1.5336   -1.3183    0.6241 C   0  0  0  0  0  0  0  0  0  0  0  0
    2.7553   -1.0247    0.1507 C   0  0  0  0  0  0  0  0  0  0  0  0
    2.8219    2.5865   -0.3995 C   0  0  0  0  0  0  0  0  0  0  0  0
    3.7477   -2.1001    0.0919 C   0  0  0  0  0  0  0  0  0  0  0  0
   -3.3475   -1.6448    0.9783 H   0  0  0  0  0  0  0  0  0  0  0  0
   -5.4780   -0.7409    1.2865 H   0  0  0  0  0  0  0  0  0  0  0  0
   -5.6451   -1.0756   -0.4433 H   0  0  0  0  0  0  0  0  0  0  0  0
   -5.0633    1.2253   -1.0170 H   0  0  0  0  0  0  0  0  0  0  0  0
   -6.0716    1.4193    0.4102 H   0  0  0  0  0  0  0  0  0  0  0  0
   -3.5173    2.4426    0.3445 H   0  0  0  0  0  0  0  0  0  0  0  0
   -4.1589    1.7139    1.8659 H   0  0  0  0  0  0  0  0  0  0  0  0
   -1.3865    1.5358    1.4274 H   0  0  0  0  0  0  0  0  0  0  0  0
    0.2352    1.8525    0.2668 H   0  0  0  0  0  0  0  0  0  0  0  0
    1.4021    1.4955    1.5355 H   0  0  0  0  0  0  0  0  0  0  0  0
    1.7085    1.1702   -1.5117 H   0  0  0  0  0  0  0  0  0  0  0  0
   -1.1041   -1.5785    1.0738 H   0  0  0  0  0  0  0  0  0  0  0  0
    4.0346    0.3221   -0.7195 H   0  0  0  0  0  0  0  0  0  0  0  0
    1.2565   -2.3216    0.9337 H   0  0  0  0  0  0  0  0  0  0  0  0
    2.3905    4.4804   -0.5407 H   0  0  0  0  0  0  0  0  0  0  0  0
    5.5989   -2.3132   -0.4618 H   0  0  0  0  0  0  0  0  0  0  0  0
  1 14  1  0  0  0  0
  2 14  2  0  0  0  0
  3 21  1  0  0  0  0
  3 37  1  0  0  0  0
  4 21  2  0  0  0  0
  5 22  1  0  0  0  0
  5 38  1  0  0  0  0
  6 22  2  0  0  0  0
  7  9  1  0  0  0  0
  7 12  1  0  0  0  0
  7 13  2  0  0  0  0
  8 17  1  0  0  0  0
  8 20  1  0  0  0  0
  8 35  1  0  0  0  0
  9 10  1  0  0  0  0
  9 14  1  0  0  0  0
  9 23  1  0  0  0  0
 10 11  1  0  0  0  0
 10 24  1  0  0  0  0
 10 25  1  0  0  0  0
 11 12  1  0  0  0  0
 11 26  1  0  0  0  0
 11 27  1  0  0  0  0
 12 28  1  0  0  0  0
 12 29  1  0  0  0  0
 13 18  1  0  0  0  0
 13 30  1  0  0  0  0
 15 16  1  0  0  0  0
 15 17  1  0  0  0  0
 15 31  1  0  0  0  0
 15 32  1  0  0  0  0
 16 18  2  0  0  0  0
 16 19  1  0  0  0  0
 17 21  1  0  0  0  0
 17 33  1  0  0  0  0
 18 34  1  0  0  0  0
 19 20  2  0  0  0  0
 19 36  1  0  0  0  0
 20 22  1  0  0  0  0
M  CHG  2   1  -1   7   1
M  END
> <PUBCHEM_COMPOUND_CID>
6096870

> <PUBCHEM_CONFORMER_RMSD>
0.8

> <PUBCHEM_CONFORMER_DIVERSEORDER>
1
2
4
3
5

> <PUBCHEM_MMFF94_PARTIAL_CHARGES>
26
1 -0.9
12 0.35
13 0.33
14 0.91
15 0.14
16 -0.14
17 0.43
18 -0.14
19 -0.15
2 -0.9
20 0.11
21 0.66
22 0.71
3 -0.65
30 0.06
34 0.15
35 0.4
36 0.15
37 0.5
38 0.5
4 -0.57
5 -0.65
6 -0.57
7 -0.09
8 -0.87
9 0.24

> <PUBCHEM_EFFECTIVE_ROTOR_COUNT>
5.4

> <PUBCHEM_PHARMACOPHORE_FEATURES>
13
1 1 acceptor
1 2 acceptor
1 3 acceptor
1 4 acceptor
1 5 acceptor
1 6 acceptor
1 8 cation
1 8 donor
3 1 2 14 anion
3 3 4 21 anion
3 5 6 22 anion
5 7 9 10 11 12 rings
6 8 15 16 17 19 20 rings

> <PUBCHEM_HEAVY_ATOM_COUNT>
22

> <PUBCHEM_ATOM_DEF_STEREO_COUNT>
2

> <PUBCHEM_ATOM_UDEF_STEREO_COUNT>
0

> <PUBCHEM_BOND_DEF_STEREO_COUNT>
1

> <PUBCHEM_BOND_UDEF_STEREO_COUNT>
0

> <PUBCHEM_ISOTOPIC_ATOM_COUNT>
0

> <PUBCHEM_COMPONENT_COUNT>
1

> <PUBCHEM_CACTVS_TAUTO_COUNT>
1

> <PUBCHEM_CONFORMER_ID>
005D07E600000001

> <PUBCHEM_MMFF94_ENERGY>
53.6442

> <PUBCHEM_FEATURE_SELFOVERLAP>
66.137

> <PUBCHEM_SHAPE_FINGERPRINT>
10062212 137 18130785625345697011
10759866 29 18271528709716078319
12107183 9 18052546469609794201
12236239 1 18130790035886603035
12553582 1 18263919934960671522
12788726 201 17346333587157941561
13004483 165 18049996702255861586
13134695 92 18261676978647594334
13167823 11 18343023289465902059
13899415 180 18188478074344315326
14115302 16 17846778481835275451
17492 89 18410859901457415507
17818456 19 17844535404868346049
17844677 252 18337120003399852729
1813 80 18197226849675309630
18186145 218 17675923196662511819
18335252 114 18191014600815935997
18335252 98 18190467250220429723
20612939 158 18408327682896158233
20645477 70 18334015012242811930
21033648 29 16950277404088867885
21478907 32 17686339772588284706
21486144 27 17676773157931945891
21618674 54 18338799047517684619
21634736 98 18412267228905696898
221357 26 18187362074200245525
221490 88 18334869349725620995
22393880 68 18057894721737090668
2255824 54 18409449189468363986
23402539 116 18266740178117426826
23557571 272 14548746062267319914
23559900 14 18411980260745092242
23598291 2 18343012311650748039
3004659 81 18130507452898117507
474 4 18188773997069290041
5281201 14 18260548918092672421
53777708 50 18341897441320180619
58051976 100 18410858741894944447
6287921 2 17823143495927808717
633830 44 18186798089106627219
67856867 119 18342452681775754888
7471813 234 18272087154586780184
84936 182 18199187484939580968
9709674 26 18261682574668364443
9971528 1 18410853218740763650
9981440 41 17905604763461612392

> <PUBCHEM_SHAPE_MULTIPOLES>
407.57
10.56
3.15
1.13
4.55
1.27
0.31
-1.15
0.95
-4.76
0.51
0.95
-0.17
-1.36

> <PUBCHEM_SHAPE_SELFOVERLAP>
860.761

> <PUBCHEM_SHAPE_VOLUME>
226.2

> <PUBCHEM_COORDINATE_TYPE>
2
5
10

$$$$
