6123097
  -OEChem-09092015333D

 24 24  0     1  0  0  0  0  0999 V2000
    2.8612   -2.6343    0.2463 O   0  0  0  0  0  0  0  0  0  0  0  0
    3.5636   -0.6200   -0.5570 O   0  0  0  0  0  0  0  0  0  0  0  0
    1.3000    3.1723    0.1209 O   0  0  0  0  0  0  0  0  0  0  0  0
   -0.9685    3.3568   -0.1033 O   0  0  0  0  0  0  0  0  0  0  0  0
   -4.5697   -1.3218   -0.1987 O   0  0  0  0  0  0  0  0  0  0  0  0
    1.2908    0.6006    0.1857 N   0  0  0  0  0  0  0  0  0  0  0  0
    1.3814   -0.8254    0.4550 C   0  0  1  0  0  0  0  0  0  0  0  0
    0.2438   -1.5659   -0.2693 C   0  0  0  0  0  0  0  0  0  0  0  0
   -1.1018   -0.8892   -0.0814 C   0  0  0  0  0  0  0  0  0  0  0  0
    0.0766    1.2260    0.0302 C   0  0  0  0  0  0  0  0  0  0  0  0
   -1.0892    0.5681   -0.0741 C   0  0  0  0  0  0  0  0  0  0  0  0
    2.7159   -1.3117   -0.0129 C   0  0  0  0  0  0  0  0  0  0  0  0
   -2.2396   -1.5864    0.0491 C   0  0  0  0  0  0  0  0  0  0  0  0
    0.0448    2.6900    0.0056 C   0  0  0  0  0  0  0  0  0  0  0  0
   -3.5092   -0.8591    0.2038 C   0  0  0  0  0  0  0  0  0  0  0  0
    1.3162   -0.9778    1.5393 H   0  0  0  0  0  0  0  0  0  0  0  0
    0.2036   -2.6075    0.0742 H   0  0  0  0  0  0  0  0  0  0  0  0
    0.4559   -1.6042   -1.3474 H   0  0  0  0  0  0  0  0  0  0  0  0
    2.1048    1.1879    0.3356 H   0  0  0  0  0  0  0  0  0  0  0  0
   -2.0103    1.1252   -0.1935 H   0  0  0  0  0  0  0  0  0  0  0  0
   -2.2715   -2.6674   -0.0170 H   0  0  0  0  0  0  0  0  0  0  0  0
    3.7307   -2.9735   -0.0554 H   0  0  0  0  0  0  0  0  0  0  0  0
   -3.4884    0.0996    0.7427 H   0  0  0  0  0  0  0  0  0  0  0  0
    1.3208    4.1530    0.1085 H   0  0  0  0  0  0  0  0  0  0  0  0
  1 12  1  0  0  0  0
  1 22  1  0  0  0  0
  2 12  2  0  0  0  0
  3 14  1  0  0  0  0
  3 24  1  0  0  0  0
  4 14  2  0  0  0  0
  5 15  2  0  0  0  0
  6  7  1  0  0  0  0
  6 10  1  0  0  0  0
  6 19  1  0  0  0  0
  7  8  1  0  0  0  0
  7 12  1  0  0  0  0
  7 16  1  0  0  0  0
  8  9  1  0  0  0  0
  8 17  1  0  0  0  0
  8 18  1  0  0  0  0
  9 11  1  0  0  0  0
  9 13  2  0  0  0  0
 10 11  2  0  0  0  0
 10 14  1  0  0  0  0
 11 20  1  0  0  0  0
 13 15  1  0  0  0  0
 13 21  1  0  0  0  0
 15 23  1  0  0  0  0
M  END
> <PUBCHEM_COMPOUND_CID>
6123097

> <PUBCHEM_CONFORMER_RMSD>
0.6

> <PUBCHEM_CONFORMER_DIVERSEORDER>
1
9
6
2
8
4
7
3
5

> <PUBCHEM_MMFF94_PARTIAL_CHARGES>
21
1 -0.65
10 0.11
11 -0.15
12 0.66
13 -0.14
14 0.71
15 0.5
19 0.4
2 -0.57
20 0.15
21 0.15
22 0.5
23 0.06
24 0.5
3 -0.65
4 -0.57
5 -0.57
6 -0.87
7 0.43
8 0.14
9 -0.14

> <PUBCHEM_EFFECTIVE_ROTOR_COUNT>
3.6

> <PUBCHEM_PHARMACOPHORE_FEATURES>
10
1 1 acceptor
1 2 acceptor
1 3 acceptor
1 4 acceptor
1 5 acceptor
1 6 cation
1 6 donor
3 1 2 12 anion
3 3 4 14 anion
6 6 7 8 9 10 11 rings

> <PUBCHEM_HEAVY_ATOM_COUNT>
15

> <PUBCHEM_ATOM_DEF_STEREO_COUNT>
0

> <PUBCHEM_ATOM_UDEF_STEREO_COUNT>
0

> <PUBCHEM_BOND_DEF_STEREO_COUNT>
1

> <PUBCHEM_BOND_UDEF_STEREO_COUNT>
0

> <PUBCHEM_ISOTOPIC_ATOM_COUNT>
0

> <PUBCHEM_COMPONENT_COUNT>
1

> <PUBCHEM_CACTVS_TAUTO_COUNT>
4

> <PUBCHEM_CONFORMER_ID>
005D6E5900000001

> <PUBCHEM_MMFF94_ENERGY>
34.4551

> <PUBCHEM_FEATURE_SELFOVERLAP>
50.857

> <PUBCHEM_SHAPE_FINGERPRINT>
1 1 17834112326810589821
10967382 1 18266740370836560242
12553582 1 18411694391801170103
13380535 76 17615398599168575051
14178000 15 18341046406561935121
14178342 30 17685758143901636914
14648413 74 18047753986023557843
15042514 8 17905327325463716651
15442244 35 18412830196571841273
15490181 8 17258487272100623986
15848700 24 18342165674791567383
15906896 17 17765981810297111053
16945 1 18266454506482589231
18410436 195 18342457062415374281
19021347 4 17258214064777566256
193761 8 18410854343537560744
20339313 130 18340494455782570459
20510252 161 18269271258005246882
20645477 70 18120643889363876079
20671657 1 18124883610178425863
20671657 53 18412547617577766143
20871998 184 18129375991003287182
20871998 22 18411412916865988442
21029758 11 18410289220583369079
21296965 67 18411979143942857355
21524375 3 17191518213797178557
221490 88 18119814870323341723
23419403 2 17971441161842954484
23557571 272 18271534083384985846
23598291 2 17915456310484552471
2748010 2 18340186532175607452
305870 269 17762054741404833337
3071541 12 18123192565321043073
3071541 158 18261672670420928221
3071541 250 18410583915179188708
3091708 16 9283851228044208096
352729 6 17690840060262690918
54173680 148 18050003294481677179
58734987 43 18410576223035497979
68521 5 18337957774813791238
7364860 26 18195809797902987721
81228 2 18266184924196312642

> <PUBCHEM_SHAPE_MULTIPOLES>
274.37
5.23
3.57
0.63
3.27
3.69
0
-4.45
0.26
-1.16
-0.04
-0.05
-0.06
-0.01

> <PUBCHEM_SHAPE_SELFOVERLAP>
570.94

> <PUBCHEM_SHAPE_VOLUME>
153.4

> <PUBCHEM_COORDINATE_TYPE>
2
5
10

$$$$
