12300103
  -OEChem-09092015313D

 65 68  0     1  0  0  0  0  0999 V2000
   -4.6569   -0.8504    0.3053 O   0  0  0  0  0  0  0  0  0  0  0  0
   -4.2890    0.4308   -1.6097 O   0  0  0  0  0  0  0  0  0  0  0  0
   -8.7229   -0.7761   -0.2692 O   0  0  0  0  0  0  0  0  0  0  0  0
   -7.6488   -1.5115    2.3118 O   0  0  0  0  0  0  0  0  0  0  0  0
   -7.0026    1.2322   -1.5684 O   0  0  0  0  0  0  0  0  0  0  0  0
   -3.4359   -1.8128    2.5722 O   0  0  0  0  0  0  0  0  0  0  0  0
   -2.3918   -1.3294   -2.6136 O   0  0  0  0  0  0  0  0  0  0  0  0
    0.6598    1.4202    2.2435 O   0  5  0  0  0  0  0  0  0  0  0  0
    2.3515    2.9573    2.1432 O   0  0  0  0  0  0  0  0  0  0  0  0
    3.8244   -3.7738   -0.5091 O   0  0  0  0  0  0  0  0  0  0  0  0
    6.0921   -3.8572   -0.7237 O   0  0  0  0  0  0  0  0  0  0  0  0
    8.7973   -0.6822    0.8326 O   0  0  0  0  0  0  0  0  0  0  0  0
    8.4019    1.5575    0.5927 O   0  0  0  0  0  0  0  0  0  0  0  0
    1.0179    1.5217   -0.5700 N   0  3  0  0  0  0  0  0  0  0  0  0
    6.3950   -1.3796    0.2318 N   0  0  0  0  0  0  0  0  0  0  0  0
   -7.4748   -0.2990    0.2360 C   0  0  1  0  0  0  0  0  0  0  0  0
   -6.8744   -1.3912    1.1213 C   0  0  1  0  0  0  0  0  0  0  0  0
   -6.5482    0.0379   -0.9323 C   0  0  2  0  0  0  0  0  0  0  0  0
   -5.4273   -1.0565    1.4907 C   0  0  1  0  0  0  0  0  0  0  0  0
   -5.1134    0.2650   -0.4565 C   0  0  1  0  0  0  0  0  0  0  0  0
    0.9114    2.7281    0.3061 C   0  0  1  0  0  0  0  0  0  0  0  0
   -0.5732    3.1163    0.2963 C   0  0  0  0  0  0  0  0  0  0  0  0
   -1.2138    1.9751   -0.4265 C   0  0  0  0  0  0  0  0  0  0  0  0
   -0.2664    1.0892   -0.9342 C   0  0  0  0  0  0  0  0  0  0  0  0
   -4.7692   -2.1864    2.2763 C   0  0  0  0  0  0  0  0  0  0  0  0
   -2.9577    0.6503   -1.3842 C   0  0  0  0  0  0  0  0  0  0  0  0
   -2.5666    1.7698   -0.6469 C   0  0  0  0  0  0  0  0  0  0  0  0
   -0.6357   -0.0251   -1.6724 C   0  0  0  0  0  0  0  0  0  0  0  0
   -1.9991   -0.2394   -1.8933 C   0  0  0  0  0  0  0  0  0  0  0  0
    2.0979    0.9513   -0.9683 C   0  0  0  0  0  0  0  0  0  0  0  0
    1.3494    2.3280    1.7017 C   0  0  0  0  0  0  0  0  0  0  0  0
    3.4322    1.4194   -0.5759 C   0  0  0  0  0  0  0  0  0  0  0  0
    4.4247    0.5224   -0.4859 C   0  0  0  0  0  0  0  0  0  0  0  0
    4.2164   -0.9483   -0.7995 C   0  0  0  0  0  0  0  0  0  0  0  0
    5.0293   -1.8659    0.1289 C   0  0  1  0  0  0  0  0  0  0  0  0
    5.7768    0.9089   -0.1025 C   0  0  0  0  0  0  0  0  0  0  0  0
    6.6808   -0.0352    0.2045 C   0  0  0  0  0  0  0  0  0  0  0  0
    5.0740   -3.2584   -0.4102 C   0  0  0  0  0  0  0  0  0  0  0  0
    8.0348    0.3968    0.5575 C   0  0  0  0  0  0  0  0  0  0  0  0
   -7.7061    0.5971    0.8237 H   0  0  0  0  0  0  0  0  0  0  0  0
   -6.9228   -2.3555    0.6009 H   0  0  0  0  0  0  0  0  0  0  0  0
   -6.5801   -0.7550   -1.6889 H   0  0  0  0  0  0  0  0  0  0  0  0
   -5.3768   -0.1449    2.1018 H   0  0  0  0  0  0  0  0  0  0  0  0
   -5.0707    1.1759    0.1550 H   0  0  0  0  0  0  0  0  0  0  0  0
    1.5267    3.5325   -0.1135 H   0  0  0  0  0  0  0  0  0  0  0  0
   -0.9984    3.2528    1.2960 H   0  0  0  0  0  0  0  0  0  0  0  0
   -0.7210    4.0392   -0.2765 H   0  0  0  0  0  0  0  0  0  0  0  0
   -4.7335   -3.1054    1.6817 H   0  0  0  0  0  0  0  0  0  0  0  0
   -5.2957   -2.3829    3.2151 H   0  0  0  0  0  0  0  0  0  0  0  0
   -3.2911    2.4832   -0.2681 H   0  0  0  0  0  0  0  0  0  0  0  0
    0.0925   -0.7246   -2.0677 H   0  0  0  0  0  0  0  0  0  0  0  0
   -8.5483   -1.5642   -0.8115 H   0  0  0  0  0  0  0  0  0  0  0  0
   -7.6010   -0.6650    2.7881 H   0  0  0  0  0  0  0  0  0  0  0  0
   -6.9818    1.9499   -0.9126 H   0  0  0  0  0  0  0  0  0  0  0  0
    2.0289    0.0986   -1.6568 H   0  0  0  0  0  0  0  0  0  0  0  0
    3.5886    2.4642   -0.3339 H   0  0  0  0  0  0  0  0  0  0  0  0
   -3.0350   -2.5473    3.0674 H   0  0  0  0  0  0  0  0  0  0  0  0
    4.5076   -1.1206   -1.8454 H   0  0  0  0  0  0  0  0  0  0  0  0
    3.1732   -1.2642   -0.7058 H   0  0  0  0  0  0  0  0  0  0  0  0
    4.5925   -1.8932    1.1346 H   0  0  0  0  0  0  0  0  0  0  0  0
    6.0103    1.9689   -0.0700 H   0  0  0  0  0  0  0  0  0  0  0  0
   -1.6040   -1.8312   -2.8850 H   0  0  0  0  0  0  0  0  0  0  0  0
    7.1243   -2.0071    0.5550 H   0  0  0  0  0  0  0  0  0  0  0  0
    3.8321   -4.6884   -0.8636 H   0  0  0  0  0  0  0  0  0  0  0  0
    9.7150   -0.4334    1.0742 H   0  0  0  0  0  0  0  0  0  0  0  0
  1 19  1  0  0  0  0
  1 20  1  0  0  0  0
  2 20  1  0  0  0  0
  2 26  1  0  0  0  0
  3 16  1  0  0  0  0
  3 52  1  0  0  0  0
  4 17  1  0  0  0  0
  4 53  1  0  0  0  0
  5 18  1  0  0  0  0
  5 54  1  0  0  0  0
  6 25  1  0  0  0  0
  6 57  1  0  0  0  0
  7 29  1  0  0  0  0
  7 62  1  0  0  0  0
  8 31  1  0  0  0  0
  9 31  2  0  0  0  0
 10 38  1  0  0  0  0
 10 64  1  0  0  0  0
 11 38  2  0  0  0  0
 12 39  1  0  0  0  0
 12 65  1  0  0  0  0
 13 39  2  0  0  0  0
 14 21  1  0  0  0  0
 14 24  1  0  0  0  0
 14 30  2  0  0  0  0
 15 35  1  0  0  0  0
 15 37  1  0  0  0  0
 15 63  1  0  0  0  0
 16 17  1  0  0  0  0
 16 18  1  0  0  0  0
 16 40  1  0  0  0  0
 17 19  1  0  0  0  0
 17 41  1  0  0  0  0
 18 20  1  0  0  0  0
 18 42  1  0  0  0  0
 19 25  1  0  0  0  0
 19 43  1  0  0  0  0
 20 44  1  0  0  0  0
 21 22  1  0  0  0  0
 21 31  1  0  0  0  0
 21 45  1  0  0  0  0
 22 23  1  0  0  0  0
 22 46  1  0  0  0  0
 22 47  1  0  0  0  0
 23 24  1  0  0  0  0
 23 27  2  0  0  0  0
 24 28  2  0  0  0  0
 25 48  1  0  0  0  0
 25 49  1  0  0  0  0
 26 27  1  0  0  0  0
 26 29  2  0  0  0  0
 27 50  1  0  0  0  0
 28 29  1  0  0  0  0
 28 51  1  0  0  0  0
 30 32  1  0  0  0  0
 30 55  1  0  0  0  0
 32 33  2  0  0  0  0
 32 56  1  0  0  0  0
 33 34  1  0  0  0  0
 33 36  1  0  0  0  0
 34 35  1  0  0  0  0
 34 58  1  0  0  0  0
 34 59  1  0  0  0  0
 35 38  1  0  0  0  0
 35 60  1  0  0  0  0
 36 37  2  0  0  0  0
 36 61  1  0  0  0  0
 37 39  1  0  0  0  0
M  CHG  2   8  -1  14   1
M  END
> <PUBCHEM_COMPOUND_CID>
12300103

> <PUBCHEM_CONFORMER_RMSD>
1

> <PUBCHEM_CONFORMER_DIVERSEORDER>
5
56
37
8
46
58
64
44
19
23
25
33
12
59
22
60
45
34
7
67
57
43
17
53
55
30
65
24
20
40
52
62
51
28
16
48
39
50
54
13
14
49
15
6
63
36
41
47
21
38
26
18
42
3
10
61
4
66
27
31
32
1
35
9
11
29
2

> <PUBCHEM_MMFF94_PARTIAL_CHARGES>
52
1 -0.56
10 -0.65
11 -0.57
12 -0.65
13 -0.57
14 -0.04
15 -0.87
16 0.28
17 0.28
18 0.28
19 0.28
2 -0.36
20 0.56
21 0.24
22 0.14
23 -0.14
24 0.3
25 0.28
26 0.08
27 -0.15
28 -0.15
29 0.08
3 -0.68
30 0.33
31 0.91
32 -0.14
33 -0.14
34 0.14
35 0.43
36 -0.15
37 0.11
38 0.66
39 0.71
4 -0.68
5 -0.68
50 0.15
51 0.15
52 0.4
53 0.4
54 0.4
55 0.06
56 0.15
57 0.4
6 -0.68
61 0.15
62 0.45
63 0.4
64 0.5
65 0.5
7 -0.53
8 -0.9
9 -0.9

> <PUBCHEM_EFFECTIVE_ROTOR_COUNT>
9.2

> <PUBCHEM_PHARMACOPHORE_FEATURES>
26
1 1 acceptor
1 10 acceptor
1 11 acceptor
1 12 acceptor
1 13 acceptor
1 15 cation
1 15 donor
1 2 acceptor
1 3 acceptor
1 3 donor
1 4 acceptor
1 4 donor
1 5 acceptor
1 5 donor
1 6 acceptor
1 6 donor
1 7 donor
1 8 acceptor
1 9 acceptor
3 10 11 38 anion
3 12 13 39 anion
3 8 9 31 anion
5 14 21 22 23 24 rings
6 1 16 17 18 19 20 rings
6 15 33 34 35 36 37 rings
6 23 24 26 27 28 29 rings

> <PUBCHEM_HEAVY_ATOM_COUNT>
39

> <PUBCHEM_ATOM_DEF_STEREO_COUNT>
5

> <PUBCHEM_ATOM_UDEF_STEREO_COUNT>
2

> <PUBCHEM_BOND_DEF_STEREO_COUNT>
1

> <PUBCHEM_BOND_UDEF_STEREO_COUNT>
0

> <PUBCHEM_ISOTOPIC_ATOM_COUNT>
0

> <PUBCHEM_COMPONENT_COUNT>
1

> <PUBCHEM_CACTVS_TAUTO_COUNT>
3

> <PUBCHEM_CONFORMER_ID>
00BBAF4700000005

> <PUBCHEM_MMFF94_ENERGY>
123.8183

> <PUBCHEM_FEATURE_SELFOVERLAP>
132.277

> <PUBCHEM_SHAPE_FINGERPRINT>
10625338 86 13758354487910020394
10674148 151 17240479226312470761
11135609 12 18040717008747700102
11456790 92 17275113868820773739
117089 54 18123479284764909798
13560911 43 17131835395887201617
13782708 43 18041278855179544887
13811026 1 18335139778210002086
14117953 113 11025796466981628762
14767858 380 12901542451389748373
14904525 67 13829834860683379722
15064986 266 18338240358630971348
15352257 5 18113621200763827587
15510800 12 18261398819354403410
15721738 202 18342452587882670610
15776043 110 17775010106573680347
18603816 31 18262513819014368887
18608769 82 18187081788718446594
19841028 212 18189894223904713482
20105231 36 18131358484516749262
20721686 56 18410291380704460711
21344244 246 15213566851072854408
23559900 14 17967816102540615205
2838139 119 9799688173530790208
3178227 256 18272092724721396124
394071 54 17489588974294183220
4149490 64 18260822671504324570
4353968 344 13118540932824555072
4461854 278 18060701689519992446
6009941 240 18186796938108672229
6058803 2 16841051008226511917
6691757 9 16271926060749757391
9962374 69 18199455718542316877
999808 66 18409449193467633165

> <PUBCHEM_SHAPE_MULTIPOLES>
716.34
24.91
3.44
2.04
2.16
1.62
-0.64
13.37
-5.34
4.14
-0.78
-2.94
0.29
3.8

> <PUBCHEM_SHAPE_SELFOVERLAP>
1549.096

> <PUBCHEM_SHAPE_VOLUME>
388.1

> <PUBCHEM_COORDINATE_TYPE>
2
5
10

$$$$
