11071220
  -OEChem-09092014533D

 62 65  0     1  0  0  0  0  0999 V2000
   -3.9927   -0.5267   -0.0691 O   0  0  0  0  0  0  0  0  0  0  0  0
   -3.0202    1.5713   -0.3798 O   0  0  0  0  0  0  0  0  0  0  0  0
   -7.1943    0.4620   -2.4438 O   0  0  0  0  0  0  0  0  0  0  0  0
   -7.3717   -1.8084   -0.6634 O   0  0  0  0  0  0  0  0  0  0  0  0
   -5.5164    2.5738   -1.2584 O   0  0  0  0  0  0  0  0  0  0  0  0
   -3.8470   -2.8115    1.4523 O   0  0  0  0  0  0  0  0  0  0  0  0
    2.9602   -1.7513    0.5710 O   0  0  0  0  0  0  0  0  0  0  0  0
   -0.5794    0.5026   -1.0942 O   0  0  0  0  0  0  0  0  0  0  0  0
    2.4113    2.2715    0.3194 O   0  0  0  0  0  0  0  0  0  0  0  0
    4.8840    2.5609   -0.4669 O   0  0  0  0  0  0  0  0  0  0  0  0
    7.4695   -1.4299   -0.8419 O   0  0  0  0  0  0  0  0  0  0  0  0
    0.0272   -2.6719    0.1669 O   0  0  0  0  0  0  0  0  0  0  0  0
   -6.4729    0.3588   -1.2152 C   0  0  1  0  0  0  0  0  0  0  0  0
   -6.1634   -1.1182   -0.9713 C   0  0  1  0  0  0  0  0  0  0  0  0
   -5.1900    1.1851   -1.3074 C   0  0  2  0  0  0  0  0  0  0  0  0
   -5.1777   -1.2823    0.1881 C   0  0  1  0  0  0  0  0  0  0  0  0
   -4.2440    0.8745   -0.1475 C   0  0  1  0  0  0  0  0  0  0  0  0
   -4.7631   -2.7384    0.3751 C   0  0  0  0  0  0  0  0  0  0  0  0
   -2.0367    1.4106    0.5573 C   0  0  0  0  0  0  0  0  0  0  0  0
   -0.8038    0.8718    0.2005 C   0  0  0  0  0  0  0  0  0  0  0  0
    0.1893    0.7135    1.1670 C   0  0  0  0  0  0  0  0  0  0  0  0
   -2.2844    1.7926    1.8729 C   0  0  0  0  0  0  0  0  0  0  0  0
    1.4897    0.1523    0.8256 C   0  0  0  0  0  0  0  0  0  0  0  0
   -0.0543    1.0947    2.4865 C   0  0  0  0  0  0  0  0  0  0  0  0
   -1.2911    1.6343    2.8394 C   0  0  0  0  0  0  0  0  0  0  0  0
    3.8752    0.4332    0.0635 C   0  0  0  0  0  0  0  0  0  0  0  0
    1.7371   -1.1739    0.8866 C   0  0  0  0  0  0  0  0  0  0  0  0
    2.5888    1.0619    0.3918 C   0  0  0  0  0  0  0  0  0  0  0  0
    3.9930   -0.9478    0.1713 C   0  0  0  0  0  0  0  0  0  0  0  0
    4.9648    1.2043   -0.3506 C   0  0  0  0  0  0  0  0  0  0  0  0
    6.1747    0.5801   -0.6558 C   0  0  0  0  0  0  0  0  0  0  0  0
    5.2039   -1.5709   -0.1341 C   0  0  0  0  0  0  0  0  0  0  0  0
    0.7332   -2.2134    1.3030 C   0  0  0  0  0  0  0  0  0  0  0  0
    6.2944   -0.8056   -0.5477 C   0  0  0  0  0  0  0  0  0  0  0  0
    7.3489    1.3934   -1.1002 C   0  0  0  0  0  0  0  0  0  0  0  0
    7.6581   -1.8529   -2.1907 C   0  0  0  0  0  0  0  0  0  0  0  0
   -7.1328    0.7566   -0.4344 H   0  0  0  0  0  0  0  0  0  0  0  0
   -5.7570   -1.5618   -1.8885 H   0  0  0  0  0  0  0  0  0  0  0  0
   -4.6934    1.0098   -2.2692 H   0  0  0  0  0  0  0  0  0  0  0  0
   -5.6166   -0.9312    1.1319 H   0  0  0  0  0  0  0  0  0  0  0  0
   -4.6898    1.2261    0.7921 H   0  0  0  0  0  0  0  0  0  0  0  0
   -4.2621   -3.1301   -0.5164 H   0  0  0  0  0  0  0  0  0  0  0  0
   -5.6200   -3.3770    0.6075 H   0  0  0  0  0  0  0  0  0  0  0  0
   -7.9949   -0.0836   -2.3579 H   0  0  0  0  0  0  0  0  0  0  0  0
   -7.7359   -1.4266    0.1535 H   0  0  0  0  0  0  0  0  0  0  0  0
   -5.9606    2.7498   -0.4114 H   0  0  0  0  0  0  0  0  0  0  0  0
   -3.0920   -2.2376    1.2363 H   0  0  0  0  0  0  0  0  0  0  0  0
   -3.2333    2.2330    2.1645 H   0  0  0  0  0  0  0  0  0  0  0  0
    0.7090    0.9797    3.2525 H   0  0  0  0  0  0  0  0  0  0  0  0
   -1.4792    1.9353    3.8658 H   0  0  0  0  0  0  0  0  0  0  0  0
    5.2980   -2.6507   -0.0494 H   0  0  0  0  0  0  0  0  0  0  0  0
    0.0080   -1.8327    2.0276 H   0  0  0  0  0  0  0  0  0  0  0  0
    1.2285   -3.0670    1.7791 H   0  0  0  0  0  0  0  0  0  0  0  0
    0.3212    0.1615   -1.2105 H   0  0  0  0  0  0  0  0  0  0  0  0
    8.2823    0.8224   -1.1200 H   0  0  0  0  0  0  0  0  0  0  0  0
    7.1807    1.7836   -2.1094 H   0  0  0  0  0  0  0  0  0  0  0  0
    7.5287    2.2259   -0.4107 H   0  0  0  0  0  0  0  0  0  0  0  0
    5.6166    2.9186   -0.9915 H   0  0  0  0  0  0  0  0  0  0  0  0
    0.6742   -3.0459   -0.4554 H   0  0  0  0  0  0  0  0  0  0  0  0
    8.6633   -2.2738   -2.2800 H   0  0  0  0  0  0  0  0  0  0  0  0
    7.5697   -1.0094   -2.8826 H   0  0  0  0  0  0  0  0  0  0  0  0
    6.9301   -2.6278   -2.4510 H   0  0  0  0  0  0  0  0  0  0  0  0
  1 16  1  0  0  0  0
  1 17  1  0  0  0  0
  2 17  1  0  0  0  0
  2 19  1  0  0  0  0
  3 13  1  0  0  0  0
  3 44  1  0  0  0  0
  4 14  1  0  0  0  0
  4 45  1  0  0  0  0
  5 15  1  0  0  0  0
  5 46  1  0  0  0  0
  6 18  1  0  0  0  0
  6 47  1  0  0  0  0
  7 27  1  0  0  0  0
  7 29  1  0  0  0  0
  8 20  1  0  0  0  0
  8 54  1  0  0  0  0
  9 28  2  0  0  0  0
 10 30  1  0  0  0  0
 10 58  1  0  0  0  0
 11 34  1  0  0  0  0
 11 36  1  0  0  0  0
 12 33  1  0  0  0  0
 12 59  1  0  0  0  0
 13 14  1  0  0  0  0
 13 15  1  0  0  0  0
 13 37  1  0  0  0  0
 14 16  1  0  0  0  0
 14 38  1  0  0  0  0
 15 17  1  0  0  0  0
 15 39  1  0  0  0  0
 16 18  1  0  0  0  0
 16 40  1  0  0  0  0
 17 41  1  0  0  0  0
 18 42  1  0  0  0  0
 18 43  1  0  0  0  0
 19 20  1  0  0  0  0
 19 22  2  0  0  0  0
 20 21  2  0  0  0  0
 21 23  1  0  0  0  0
 21 24  1  0  0  0  0
 22 25  1  0  0  0  0
 22 48  1  0  0  0  0
 23 27  2  0  0  0  0
 23 28  1  0  0  0  0
 24 25  2  0  0  0  0
 24 49  1  0  0  0  0
 25 50  1  0  0  0  0
 26 28  1  0  0  0  0
 26 29  1  0  0  0  0
 26 30  2  0  0  0  0
 27 33  1  0  0  0  0
 29 32  2  0  0  0  0
 30 31  1  0  0  0  0
 31 34  2  0  0  0  0
 31 35  1  0  0  0  0
 32 34  1  0  0  0  0
 32 51  1  0  0  0  0
 33 52  1  0  0  0  0
 33 53  1  0  0  0  0
 35 55  1  0  0  0  0
 35 56  1  0  0  0  0
 35 57  1  0  0  0  0
 36 60  1  0  0  0  0
 36 61  1  0  0  0  0
 36 62  1  0  0  0  0
M  END
> <PUBCHEM_COMPOUND_CID>
11071220

> <PUBCHEM_CONFORMER_RMSD>
1

> <PUBCHEM_CONFORMER_DIVERSEORDER>
1
27
55
47
42
67
72
7
50
14
68
35
30
6
38
52
41
13
21
62
51
63
4
53
64
49
60
39
73
16
12
71
28
74
40
44
66
20
11
3
56
75
18
8
17
32
37
48
34
43
45
58
57
29
2
70
61
24
69
10
5
46
54
31
33
59
23
26
25
19
65
36
15
9
22

> <PUBCHEM_MMFF94_PARTIAL_CHARGES>
47
1 -0.56
10 -0.53
11 -0.36
12 -0.68
13 0.28
14 0.28
15 0.28
16 0.28
17 0.56
18 0.28
19 0.08
2 -0.36
20 0.08
21 0.03
22 -0.15
23 -0.01
24 -0.15
25 -0.15
26 0.09
27 -0.06
28 0.47
29 0.08
3 -0.68
30 0.08
31 -0.14
32 -0.15
33 0.42
34 0.08
35 0.14
36 0.28
4 -0.68
44 0.4
45 0.4
46 0.4
47 0.4
48 0.15
49 0.15
5 -0.68
50 0.15
51 0.15
54 0.45
58 0.45
59 0.4
6 -0.68
7 -0.16
8 -0.53
9 -0.57

> <PUBCHEM_EFFECTIVE_ROTOR_COUNT>
7.2

> <PUBCHEM_PHARMACOPHORE_FEATURES>
21
1 1 acceptor
1 10 donor
1 11 acceptor
1 12 acceptor
1 12 donor
1 2 acceptor
1 3 acceptor
1 3 donor
1 4 acceptor
1 4 donor
1 5 acceptor
1 5 donor
1 6 acceptor
1 6 donor
1 7 acceptor
1 8 donor
1 9 acceptor
6 1 13 14 15 16 17 rings
6 19 20 21 22 24 25 rings
6 26 29 30 31 32 34 rings
6 7 23 26 27 28 29 rings

> <PUBCHEM_HEAVY_ATOM_COUNT>
36

> <PUBCHEM_ATOM_DEF_STEREO_COUNT>
5

> <PUBCHEM_ATOM_UDEF_STEREO_COUNT>
0

> <PUBCHEM_BOND_DEF_STEREO_COUNT>
0

> <PUBCHEM_BOND_UDEF_STEREO_COUNT>
0

> <PUBCHEM_ISOTOPIC_ATOM_COUNT>
0

> <PUBCHEM_COMPONENT_COUNT>
1

> <PUBCHEM_CACTVS_TAUTO_COUNT>
14

> <PUBCHEM_CONFORMER_ID>
00A8EEF400000001

> <PUBCHEM_MMFF94_ENERGY>
131.9128

> <PUBCHEM_FEATURE_SELFOVERLAP>
106.677

> <PUBCHEM_SHAPE_FINGERPRINT>
10369192 42 13479135662494895891
10554248 39 14996277012289111170
10693767 8 18198062470434564534
11135926 11 18410579448756553691
11297750 10 15215874884608827601
11578821 258 14202270252648680350
12124843 1 18340474643604869559
12236239 1 17988931024929654944
12760667 363 17632295670789551433
13673619 4 15554441886246989120
13690498 29 18338510976088892559
13811026 1 18411418415521249664
14028597 1 13254804495181394390
14931854 50 18411693275694839255
150020 25 18335419088443698012
15064986 266 18334583430470374633
15082195 135 18043538411414783052
15183329 4 18261106357640008649
15461852 350 13407082517911380497
16067689 68 14764079904288329942
16110190 28 9079111163636244843
16994733 274 16732974306868391013
17980427 23 13118297987356080698
20609170 92 18189626119466987908
21521239 73 18342739598887277958
22393880 68 18333726914204958761
23516275 100 17241887794971022724
23522609 53 17058676133505058321
23559900 14 18337096978370874569
23569917 315 18271249327333855710
23569943 247 17482005432788625638
23576562 1 17896055372362673964
3004659 81 18412818079830763369
3383291 50 17775565321602933166
4112364 45 11747237739332351502
42767 28 18335136483969885147
484989 97 18339647848814191874
504843 32 13479140120376259137
5265222 85 18408600384014267031
6669772 16 17628902715129703520

> <PUBCHEM_SHAPE_MULTIPOLES>
670.43
20.99
2.86
1.9
4.96
0.84
-0.39
6.3
15.57
-0.76
-0.53
-1.49
-0.5
1.01

> <PUBCHEM_SHAPE_SELFOVERLAP>
1462.311

> <PUBCHEM_SHAPE_VOLUME>
361.7

> <PUBCHEM_COORDINATE_TYPE>
2
5
10

$$$$
