12004175
  -OEChem-09092014563D

 34 37  0     0  0  0  0  0  0999 V2000
    0.9296    1.7951    0.0210 O   0  0  0  0  0  0  0  0  0  0  0  0
   -2.7154    1.9994    0.0190 O   0  0  0  0  0  0  0  0  0  0  0  0
    2.7554   -2.6732    0.0108 O   0  0  0  0  0  0  0  0  0  0  0  0
    0.2295   -2.1984    0.0957 O   0  0  0  0  0  0  0  0  0  0  0  0
    5.6184    1.1369   -0.0464 O   0  0  0  0  0  0  0  0  0  0  0  0
   -1.0689    3.5661    0.0011 O   0  0  0  0  0  0  0  0  0  0  0  0
   -6.2613   -1.1707   -0.0371 O   0  0  0  0  0  0  0  0  0  0  0  0
   -0.7103    0.0015    0.0163 C   0  0  0  0  0  0  0  0  0  0  0  0
    1.7864   -0.4586    0.0166 C   0  0  0  0  0  0  0  0  0  0  0  0
   -2.1400   -0.3726   -0.0003 C   0  0  0  0  0  0  0  0  0  0  0  0
    0.4152   -0.9903    0.0428 C   0  0  0  0  0  0  0  0  0  0  0  0
    1.9723    0.9155    0.0074 C   0  0  0  0  0  0  0  0  0  0  0  0
   -0.3663    1.3062    0.0143 C   0  0  0  0  0  0  0  0  0  0  0  0
    2.8919   -1.3156    0.0050 C   0  0  0  0  0  0  0  0  0  0  0  0
   -3.0929    0.6467    0.0069 C   0  0  0  0  0  0  0  0  0  0  0  0
    4.1816   -0.7825   -0.0167 C   0  0  0  0  0  0  0  0  0  0  0  0
    3.2615    1.4499   -0.0132 C   0  0  0  0  0  0  0  0  0  0  0  0
    4.3665    0.5994   -0.0257 C   0  0  0  0  0  0  0  0  0  0  0  0
   -1.3883    2.3810    0.0088 C   0  0  0  0  0  0  0  0  0  0  0  0
   -2.6309   -1.6861   -0.0277 C   0  0  0  0  0  0  0  0  0  0  0  0
   -4.4698    0.4012   -0.0036 C   0  0  0  0  0  0  0  0  0  0  0  0
    5.3707   -1.6899   -0.0304 C   0  0  0  0  0  0  0  0  0  0  0  0
   -4.0077   -1.9519   -0.0390 C   0  0  0  0  0  0  0  0  0  0  0  0
   -4.9272   -0.9090   -0.0255 C   0  0  0  0  0  0  0  0  0  0  0  0
    3.4053    2.5276   -0.0197 H   0  0  0  0  0  0  0  0  0  0  0  0
   -1.9786   -2.5510   -0.0455 H   0  0  0  0  0  0  0  0  0  0  0  0
   -5.1749    1.2280    0.0033 H   0  0  0  0  0  0  0  0  0  0  0  0
    5.1811   -2.6334    0.4922 H   0  0  0  0  0  0  0  0  0  0  0  0
    5.6688   -1.9083   -1.0606 H   0  0  0  0  0  0  0  0  0  0  0  0
    6.2241   -1.2587    0.5038 H   0  0  0  0  0  0  0  0  0  0  0  0
   -4.3443   -2.9856   -0.0600 H   0  0  0  0  0  0  0  0  0  0  0  0
    3.4736   -3.0798   -0.5009 H   0  0  0  0  0  0  0  0  0  0  0  0
    6.2461    0.5098   -0.4396 H   0  0  0  0  0  0  0  0  0  0  0  0
   -6.3933   -2.1343   -0.0529 H   0  0  0  0  0  0  0  0  0  0  0  0
  1 12  1  0  0  0  0
  1 13  1  0  0  0  0
  2 15  1  0  0  0  0
  2 19  1  0  0  0  0
  3 14  1  0  0  0  0
  3 32  1  0  0  0  0
  4 11  2  0  0  0  0
  5 18  1  0  0  0  0
  5 33  1  0  0  0  0
  6 19  2  0  0  0  0
  7 24  1  0  0  0  0
  7 34  1  0  0  0  0
  8 10  1  0  0  0  0
  8 11  1  0  0  0  0
  8 13  2  0  0  0  0
  9 11  1  0  0  0  0
  9 12  2  0  0  0  0
  9 14  1  0  0  0  0
 10 15  2  0  0  0  0
 10 20  1  0  0  0  0
 12 17  1  0  0  0  0
 13 19  1  0  0  0  0
 14 16  2  0  0  0  0
 15 21  1  0  0  0  0
 16 18  1  0  0  0  0
 16 22  1  0  0  0  0
 17 18  2  0  0  0  0
 17 25  1  0  0  0  0
 20 23  2  0  0  0  0
 20 26  1  0  0  0  0
 21 24  2  0  0  0  0
 21 27  1  0  0  0  0
 22 28  1  0  0  0  0
 22 29  1  0  0  0  0
 22 30  1  0  0  0  0
 23 24  1  0  0  0  0
 23 31  1  0  0  0  0
M  END
> <PUBCHEM_COMPOUND_CID>
12004175

> <PUBCHEM_CONFORMER_RMSD>
0.6

> <PUBCHEM_CONFORMER_DIVERSEORDER>
1

> <PUBCHEM_MMFF94_PARTIAL_CHARGES>
31
1 -0.16
10 0.03
11 0.47
12 0.08
13 0.09
14 0.08
15 0.08
16 -0.14
17 -0.15
18 0.08
19 0.71
2 -0.23
20 -0.15
21 -0.15
22 0.14
23 -0.15
24 0.08
25 0.15
26 0.15
27 0.15
3 -0.53
31 0.15
32 0.45
33 0.45
34 0.45
4 -0.57
5 -0.53
6 -0.57
7 -0.53
8 -0.01
9 0.09

> <PUBCHEM_EFFECTIVE_ROTOR_COUNT>
0

> <PUBCHEM_PHARMACOPHORE_FEATURES>
10
1 1 acceptor
1 3 donor
1 4 acceptor
1 5 donor
1 6 acceptor
1 7 donor
6 1 8 9 11 12 13 rings
6 10 15 20 21 23 24 rings
6 2 8 10 13 15 19 rings
6 9 12 14 16 17 18 rings

> <PUBCHEM_HEAVY_ATOM_COUNT>
24

> <PUBCHEM_ATOM_DEF_STEREO_COUNT>
0

> <PUBCHEM_ATOM_UDEF_STEREO_COUNT>
0

> <PUBCHEM_BOND_DEF_STEREO_COUNT>
0

> <PUBCHEM_BOND_UDEF_STEREO_COUNT>
0

> <PUBCHEM_ISOTOPIC_ATOM_COUNT>
0

> <PUBCHEM_COMPONENT_COUNT>
1

> <PUBCHEM_CACTVS_TAUTO_COUNT>
36

> <PUBCHEM_CONFORMER_ID>
00B72B4F00000001

> <PUBCHEM_MMFF94_ENERGY>
87.1983

> <PUBCHEM_FEATURE_SELFOVERLAP>
50.83

> <PUBCHEM_SHAPE_FINGERPRINT>
10 15 18339349886539252568
10616163 171 18340206284756647038
10906281 52 18264509401645909155
10967382 1 18410855507378083305
1100329 8 18121780788022125907
11045515 52 18186517718047957101
11578080 2 16952520278507163199
11963148 33 18336822116837477346
12107183 9 17762338007240475786
12166972 35 17749111105601502484
12236239 1 17989490736271766139
12403259 226 18411976936678320664
12553582 1 18339909511343713871
12788726 201 18334571313587041257
12838862 33 18267283478162672677
13140716 1 18411706491055761393
13402501 40 18410856585536525267
13544653 18 18334583468502496937
138480 1 15023866644784628013
13862211 1 18411416232929147247
14341114 176 18409453587134891343
14787075 74 18261392294765889042
14790565 3 17905614654465826373
15196674 1 18411136917946167232
15352361 1 18410574006979721999
15927050 60 17332810950813257229
16087824 20 18265896862033123301
17349148 13 17967816037588162442
17492 89 18267020553208326834
1813 80 17530966886285992789
19141452 34 18130789014322904471
19591789 44 18411698824275465046
200 152 18273495688989794027
20028762 73 18272365377851852382
20261772 1 17988639726624013335
20510252 161 18342176622378322960
21236236 1 18341614785264510241
21267235 1 18410863148146398175
21279426 13 18337106757472785581
21421861 104 18115585916057120131
21641784 216 18113913644860523740
21673915 165 18411138034632324490
21792934 111 18340758278902572417
221357 26 18342178856309689486
221490 88 18118971536208836323
23352939 185 18201442497277689721
23402539 116 18342452690080774767
23557571 272 18272377446719548420
23558518 356 18118132376518413897
23559900 14 18411130351131485120
2871803 45 18335136492406825490
3004659 81 18186517704698220430
335352 9 18410855443839985973
34934 24 18411132550291767191
350125 39 18411419497299354096
3545911 37 18409730689876982247
3886686 26 17254242667865639570
4214541 1 18410855417183770085
46194498 28 17459182061959082549
5104073 3 18341890749840190544
5283173 99 18114732734295397821
5486654 2 18337958999380656518
59755656 215 18408887338810338118
9709674 26 18339930298906584630

> <PUBCHEM_SHAPE_MULTIPOLES>
452.82
11.42
2.86
0.59
0.18
1.06
0
-4.2
0.21
0.23
-0.01
0
-0.01
-0.04

> <PUBCHEM_SHAPE_SELFOVERLAP>
1034.169

> <PUBCHEM_SHAPE_VOLUME>
232.3

> <PUBCHEM_COORDINATE_TYPE>
2
5
10

$$$$
