487168
  -OEChem-09092014573D

 39 42  0     1  0  0  0  0  0999 V2000
    0.5900   -1.6815   -0.0326 O   0  0  0  0  0  0  0  0  0  0  0  0
   -3.0080   -1.7148    0.5464 O   0  0  0  0  0  0  0  0  0  0  0  0
   -1.9575   -2.6295   -1.3659 O   0  0  0  0  0  0  0  0  0  0  0  0
    0.0518    2.3415    0.2201 O   0  0  0  0  0  0  0  0  0  0  0  0
    2.5832    2.7230    0.0002 O   0  0  0  0  0  0  0  0  0  0  0  0
    5.2974   -1.1913   -0.2277 O   0  0  0  0  0  0  0  0  0  0  0  0
   -5.6290   -1.0618    0.6178 O   0  0  0  0  0  0  0  0  0  0  0  0
   -0.9583    0.1840   -0.0028 C   0  0  0  0  0  0  0  0  0  0  0  0
   -0.6792   -1.1319   -0.0298 C   0  0  0  0  0  0  0  0  0  0  0  0
   -2.3826    0.5625   -0.0358 C   0  0  0  0  0  0  0  0  0  0  0  0
    1.5345    0.5475   -0.0150 C   0  0  0  0  0  0  0  0  0  0  0  0
   -1.7738   -2.1643   -0.0302 C   0  0  1  0  0  0  0  0  0  0  0  0
    0.1865    1.1346    0.0710 C   0  0  0  0  0  0  0  0  0  0  0  0
    1.6659   -0.8365   -0.0617 C   0  0  0  0  0  0  0  0  0  0  0  0
   -3.3439   -0.4178    0.2573 C   0  0  0  0  0  0  0  0  0  0  0  0
    2.6703    1.3622   -0.0385 C   0  0  0  0  0  0  0  0  0  0  0  0
    3.9366    0.7799   -0.1114 C   0  0  0  0  0  0  0  0  0  0  0  0
    2.9325   -1.4179   -0.1328 C   0  0  0  0  0  0  0  0  0  0  0  0
    4.0676   -0.6081   -0.1584 C   0  0  0  0  0  0  0  0  0  0  0  0
   -2.8365    1.8526   -0.3425 C   0  0  0  0  0  0  0  0  0  0  0  0
   -4.7065   -0.1091    0.3050 C   0  0  0  0  0  0  0  0  0  0  0  0
   -4.2012    2.1596   -0.3165 C   0  0  0  0  0  0  0  0  0  0  0  0
   -5.1345    1.1824    0.0156 C   0  0  0  0  0  0  0  0  0  0  0  0
    5.1593    1.6413   -0.1398 C   0  0  0  0  0  0  0  0  0  0  0  0
    5.9353   -1.5063    1.0081 C   0  0  0  0  0  0  0  0  0  0  0  0
   -1.4490   -3.0164    0.5792 H   0  0  0  0  0  0  0  0  0  0  0  0
    3.0347   -2.4997   -0.1683 H   0  0  0  0  0  0  0  0  0  0  0  0
   -2.1513    2.6477   -0.6191 H   0  0  0  0  0  0  0  0  0  0  0  0
   -4.5324    3.1664   -0.5548 H   0  0  0  0  0  0  0  0  0  0  0  0
   -6.1915    1.4320    0.0397 H   0  0  0  0  0  0  0  0  0  0  0  0
    4.9847    2.5646   -0.7027 H   0  0  0  0  0  0  0  0  0  0  0  0
    5.4570    1.9026    0.8806 H   0  0  0  0  0  0  0  0  0  0  0  0
    6.0026    1.1470   -0.6333 H   0  0  0  0  0  0  0  0  0  0  0  0
   -2.2138   -3.5658   -1.3115 H   0  0  0  0  0  0  0  0  0  0  0  0
    1.6596    3.0099   -0.0610 H   0  0  0  0  0  0  0  0  0  0  0  0
   -5.1599   -1.8978    0.7844 H   0  0  0  0  0  0  0  0  0  0  0  0
    5.3525   -2.2515    1.5588 H   0  0  0  0  0  0  0  0  0  0  0  0
    6.0683   -0.6085    1.6195 H   0  0  0  0  0  0  0  0  0  0  0  0
    6.9201   -1.9271    0.7873 H   0  0  0  0  0  0  0  0  0  0  0  0
  1  9  1  0  0  0  0
  1 14  1  0  0  0  0
  2 12  1  0  0  0  0
  2 15  1  0  0  0  0
  3 12  1  0  0  0  0
  3 34  1  0  0  0  0
  4 13  2  0  0  0  0
  5 16  1  0  0  0  0
  5 35  1  0  0  0  0
  6 19  1  0  0  0  0
  6 25  1  0  0  0  0
  7 21  1  0  0  0  0
  7 36  1  0  0  0  0
  8  9  2  0  0  0  0
  8 10  1  0  0  0  0
  8 13  1  0  0  0  0
  9 12  1  0  0  0  0
 10 15  2  0  0  0  0
 10 20  1  0  0  0  0
 11 13  1  0  0  0  0
 11 14  1  0  0  0  0
 11 16  2  0  0  0  0
 12 26  1  0  0  0  0
 14 18  2  0  0  0  0
 15 21  1  0  0  0  0
 16 17  1  0  0  0  0
 17 19  2  0  0  0  0
 17 24  1  0  0  0  0
 18 19  1  0  0  0  0
 18 27  1  0  0  0  0
 20 22  2  0  0  0  0
 20 28  1  0  0  0  0
 21 23  2  0  0  0  0
 22 23  1  0  0  0  0
 22 29  1  0  0  0  0
 23 30  1  0  0  0  0
 24 31  1  0  0  0  0
 24 32  1  0  0  0  0
 24 33  1  0  0  0  0
 25 37  1  0  0  0  0
 25 38  1  0  0  0  0
 25 39  1  0  0  0  0
M  END
> <PUBCHEM_COMPOUND_CID>
487168

> <PUBCHEM_CONFORMER_RMSD>
0.6

> <PUBCHEM_CONFORMER_DIVERSEORDER>
2
1

> <PUBCHEM_MMFF94_PARTIAL_CHARGES>
32
1 -0.16
10 0.03
11 0.09
12 0.7
13 0.47
14 0.08
15 0.08
16 0.08
17 -0.14
18 -0.15
19 0.08
2 -0.36
20 -0.15
21 0.08
22 -0.15
23 -0.15
24 0.14
25 0.28
27 0.15
28 0.15
29 0.15
3 -0.68
30 0.15
34 0.4
35 0.45
36 0.45
4 -0.57
5 -0.53
6 -0.36
7 -0.53
8 -0.01
9 -0.06

> <PUBCHEM_EFFECTIVE_ROTOR_COUNT>
1.4

> <PUBCHEM_PHARMACOPHORE_FEATURES>
12
1 1 acceptor
1 2 acceptor
1 3 acceptor
1 3 donor
1 4 acceptor
1 5 donor
1 6 acceptor
1 7 donor
6 1 8 9 11 13 14 rings
6 10 15 20 21 22 23 rings
6 11 14 16 17 18 19 rings
6 2 8 9 10 12 15 rings

> <PUBCHEM_HEAVY_ATOM_COUNT>
25

> <PUBCHEM_ATOM_DEF_STEREO_COUNT>
0

> <PUBCHEM_ATOM_UDEF_STEREO_COUNT>
1

> <PUBCHEM_BOND_DEF_STEREO_COUNT>
0

> <PUBCHEM_BOND_UDEF_STEREO_COUNT>
0

> <PUBCHEM_ISOTOPIC_ATOM_COUNT>
0

> <PUBCHEM_COMPONENT_COUNT>
1

> <PUBCHEM_CACTVS_TAUTO_COUNT>
14

> <PUBCHEM_CONFORMER_ID>
00076F0000000002

> <PUBCHEM_MMFF94_ENERGY>
89.8041

> <PUBCHEM_FEATURE_SELFOVERLAP>
61.019

> <PUBCHEM_SHAPE_FINGERPRINT>
10 15 18335697304147360224
10616163 171 18340208621123780711
10967382 1 18339361859821025876
11405975 8 18408601474635091570
11578080 2 16986579004113055698
12011746 2 18335697226874436701
12107183 9 17686052799546578600
12236239 1 17821731607075850658
12788726 201 17775295923720727056
13140716 1 18411414042495540690
13402501 40 18410575063410100405
13533116 47 14404918946813064636
13583140 156 17749681696523432393
13862211 1 18411133623753970823
14341114 176 18335426776398467992
14790565 3 18340211786520452681
15042514 8 18265057015136922931
15099037 51 18412263900216384631
15196674 1 18409731759355526404
15788980 27 18186805768249767248
17349148 13 17847065471286295280
1813 80 16950000348549336508
19591789 44 18410293618682491245
200 152 18059856168892403969
21033648 29 17916851448811003361
21065198 57 18336548312781879818
21267235 1 18409739447294375210
21279426 13 18338237046678169948
21421861 104 17968364647041642874
21859007 373 17897703406595654180
23227448 37 18341612659102633839
23402539 116 18272924999457767847
23559900 14 18342737412801788712
3004659 81 18261397720259019854
335352 9 18410573942623778276
34934 24 18411416224196592938
350125 39 18410859867461284121
3545911 37 18341617048743923624
3680242 22 18263363595051193682
4073 2 17967541193687587962
4214541 1 18408887317493536065
5104073 3 18409731768109050672
559249 180 18335134233486253458
6138700 20 18264209106666385090
633830 44 17603585261825044856
9709674 26 18263929997641290851

> <PUBCHEM_SHAPE_MULTIPOLES>
473.4
12.21
2.68
0.74
3.47
0.23
-0.03
-0.01
1.54
-0.17
-0.25
0.01
-0.23
-0.14

> <PUBCHEM_SHAPE_SELFOVERLAP>
1069.441

> <PUBCHEM_SHAPE_VOLUME>
246

> <PUBCHEM_COORDINATE_TYPE>
2
5
10

$$$$
