11067832
  -OEChem-09092014533D

 39 42  0     1  0  0  0  0  0999 V2000
   -0.6900    1.5940    0.1321 O   0  0  0  0  0  0  0  0  0  0  0  0
    2.9354    1.6564   -0.3185 O   0  0  0  0  0  0  0  0  0  0  0  0
    1.2734    3.2758   -0.4228 O   0  0  0  0  0  0  0  0  0  0  0  0
   -2.6591   -2.8031   -0.2593 O   0  0  0  0  0  0  0  0  0  0  0  0
   -0.1237   -2.4021   -0.3514 O   0  0  0  0  0  0  0  0  0  0  0  0
   -5.4082    1.0622    0.1382 O   0  0  0  0  0  0  0  0  0  0  0  0
    5.5588    1.0010   -0.3250 O   0  0  0  0  0  0  0  0  0  0  0  0
    0.8673   -0.2598    0.0412 C   0  0  0  0  0  0  0  0  0  0  0  0
    0.5844    1.0533    0.1266 C   0  0  0  0  0  0  0  0  0  0  0  0
   -1.6224   -0.6313   -0.0570 C   0  0  0  0  0  0  0  0  0  0  0  0
   -1.7618    0.7462    0.0718 C   0  0  0  0  0  0  0  0  0  0  0  0
    2.2887   -0.6431    0.1213 C   0  0  0  0  0  0  0  0  0  0  0  0
   -0.2698   -1.2073   -0.1319 C   0  0  0  0  0  0  0  0  0  0  0  0
    1.6855    2.0797    0.2413 C   0  0  1  0  0  0  0  0  0  0  0  0
   -3.0329    1.3184    0.1367 C   0  0  0  0  0  0  0  0  0  0  0  0
    3.2615    0.3486   -0.0753 C   0  0  0  0  0  0  0  0  0  0  0  0
   -2.7542   -1.4492   -0.1228 C   0  0  0  0  0  0  0  0  0  0  0  0
   -4.0251   -0.8764   -0.0558 C   0  0  0  0  0  0  0  0  0  0  0  0
   -4.1644    0.5055    0.0738 C   0  0  0  0  0  0  0  0  0  0  0  0
    2.7287   -1.9478    0.3840 C   0  0  0  0  0  0  0  0  0  0  0  0
    4.6250    0.0410   -0.0745 C   0  0  0  0  0  0  0  0  0  0  0  0
   -3.1877    2.8001    0.2734 C   0  0  0  0  0  0  0  0  0  0  0  0
   -5.2429   -1.7429   -0.1227 C   0  0  0  0  0  0  0  0  0  0  0  0
    4.0932   -2.2552    0.4072 C   0  0  0  0  0  0  0  0  0  0  0  0
    5.0403   -1.2639    0.1693 C   0  0  0  0  0  0  0  0  0  0  0  0
    1.8375    2.3243    1.3005 H   0  0  0  0  0  0  0  0  0  0  0  0
    2.0319   -2.7548    0.5876 H   0  0  0  0  0  0  0  0  0  0  0  0
   -4.1771    3.0895    0.6416 H   0  0  0  0  0  0  0  0  0  0  0  0
   -2.4677    3.2048    0.9932 H   0  0  0  0  0  0  0  0  0  0  0  0
   -3.0291    3.2829   -0.6962 H   0  0  0  0  0  0  0  0  0  0  0  0
   -5.0124   -2.8085   -0.2155 H   0  0  0  0  0  0  0  0  0  0  0  0
   -5.8404   -1.6330    0.7889 H   0  0  0  0  0  0  0  0  0  0  0  0
   -5.8519   -1.4785   -0.9942 H   0  0  0  0  0  0  0  0  0  0  0  0
    4.4138   -3.2735    0.6088 H   0  0  0  0  0  0  0  0  0  0  0  0
    6.0973   -1.5146    0.1772 H   0  0  0  0  0  0  0  0  0  0  0  0
    1.6902    4.0202    0.0434 H   0  0  0  0  0  0  0  0  0  0  0  0
   -1.7362   -3.0911   -0.1955 H   0  0  0  0  0  0  0  0  0  0  0  0
   -6.1053    0.3921    0.0752 H   0  0  0  0  0  0  0  0  0  0  0  0
    5.0968    1.8441   -0.4753 H   0  0  0  0  0  0  0  0  0  0  0  0
  1  9  1  0  0  0  0
  1 11  1  0  0  0  0
  2 14  1  0  0  0  0
  2 16  1  0  0  0  0
  3 14  1  0  0  0  0
  3 36  1  0  0  0  0
  4 17  1  0  0  0  0
  4 37  1  0  0  0  0
  5 13  2  0  0  0  0
  6 19  1  0  0  0  0
  6 38  1  0  0  0  0
  7 21  1  0  0  0  0
  7 39  1  0  0  0  0
  8  9  2  0  0  0  0
  8 12  1  0  0  0  0
  8 13  1  0  0  0  0
  9 14  1  0  0  0  0
 10 11  1  0  0  0  0
 10 13  1  0  0  0  0
 10 17  2  0  0  0  0
 11 15  2  0  0  0  0
 12 16  2  0  0  0  0
 12 20  1  0  0  0  0
 14 26  1  0  0  0  0
 15 19  1  0  0  0  0
 15 22  1  0  0  0  0
 16 21  1  0  0  0  0
 17 18  1  0  0  0  0
 18 19  2  0  0  0  0
 18 23  1  0  0  0  0
 20 24  2  0  0  0  0
 20 27  1  0  0  0  0
 21 25  2  0  0  0  0
 22 28  1  0  0  0  0
 22 29  1  0  0  0  0
 22 30  1  0  0  0  0
 23 31  1  0  0  0  0
 23 32  1  0  0  0  0
 23 33  1  0  0  0  0
 24 25  1  0  0  0  0
 24 34  1  0  0  0  0
 25 35  1  0  0  0  0
M  END
> <PUBCHEM_COMPOUND_CID>
11067832

> <PUBCHEM_CONFORMER_RMSD>
0.6

> <PUBCHEM_CONFORMER_DIVERSEORDER>
1

> <PUBCHEM_MMFF94_PARTIAL_CHARGES>
32
1 -0.16
10 0.09
11 0.08
12 0.03
13 0.47
14 0.7
15 -0.14
16 0.08
17 0.08
18 -0.14
19 0.08
2 -0.36
20 -0.15
21 0.08
22 0.14
23 0.14
24 -0.15
25 -0.15
27 0.15
3 -0.68
34 0.15
35 0.15
36 0.4
37 0.45
38 0.45
39 0.45
4 -0.53
5 -0.57
6 -0.53
7 -0.53
8 -0.01
9 -0.06

> <PUBCHEM_EFFECTIVE_ROTOR_COUNT>
0.4

> <PUBCHEM_PHARMACOPHORE_FEATURES>
12
1 1 acceptor
1 2 acceptor
1 3 acceptor
1 3 donor
1 4 donor
1 5 acceptor
1 6 donor
1 7 donor
6 1 8 9 10 11 13 rings
6 10 11 15 17 18 19 rings
6 12 16 20 21 24 25 rings
6 2 8 9 12 14 16 rings

> <PUBCHEM_HEAVY_ATOM_COUNT>
25

> <PUBCHEM_ATOM_DEF_STEREO_COUNT>
0

> <PUBCHEM_ATOM_UDEF_STEREO_COUNT>
1

> <PUBCHEM_BOND_DEF_STEREO_COUNT>
0

> <PUBCHEM_BOND_UDEF_STEREO_COUNT>
0

> <PUBCHEM_ISOTOPIC_ATOM_COUNT>
0

> <PUBCHEM_COMPONENT_COUNT>
1

> <PUBCHEM_CACTVS_TAUTO_COUNT>
36

> <PUBCHEM_CONFORMER_ID>
00A8E1B800000001

> <PUBCHEM_MMFF94_ENERGY>
82.4177

> <PUBCHEM_FEATURE_SELFOVERLAP>
61.034

> <PUBCHEM_SHAPE_FINGERPRINT>
10062212 137 18343577443479327479
10616163 171 18340488953760847647
10967382 1 18411136900750408842
11578080 2 16807842141042310415
12107183 9 17760645867493330858
12236239 1 18113900459553114254
12403259 226 18411412938731754057
12403260 363 18412543228189547133
12788726 201 17846226501075698528
13140716 1 18268425746205717896
13167823 11 18408884010210566626
13583140 156 17531534179031657385
138480 1 14735634056598158308
14341114 176 18410017615341154507
14790565 3 17979360759177568480
15196674 1 18410855443059218338
15256400 18 18412543180448956729
15442244 35 18410854347742181696
15536298 74 18342173401448067952
1601671 61 18412545401353211074
17349148 13 18060418010564791431
17492 89 18337390564554239691
17804303 29 18342457049715082145
1813 80 17240483594072093548
18681886 176 18271520987750040986
19591789 44 18337952294440984522
200 152 18273213118754283323
20028762 73 18130502028724422591
20775438 99 16331834253101628199
21236236 1 18413388713844634853
21267235 1 18411144636160998002
21279426 13 18337953372514718983
221490 88 18263368160173979154
23366157 5 18114460184118257404
23402539 116 18343013376749993855
23559900 14 18341042016652074465
3004659 81 18260832562650515582
335352 9 18411136897099143589
34797466 226 17274548732323121436
34934 24 18411415133802329482
350125 39 18411702088899061449
3680242 22 18193563267914175763
4214541 1 18410573955281936865
4409770 3 17538269653639762388
474 4 17676774287777474020
5104073 3 18411699872194550314
9709674 26 18336267950180937723

> <PUBCHEM_SHAPE_MULTIPOLES>
473.4
11.04
3.08
0.63
0.97
0.67
0.02
-1.96
0.09
-0.59
-0.08
0.06
-0.01
-0.73

> <PUBCHEM_SHAPE_SELFOVERLAP>
1074.967

> <PUBCHEM_SHAPE_VOLUME>
244.8

> <PUBCHEM_COORDINATE_TYPE>
2
5
10

$$$$
