10261676
  -OEChem-09092014593D

 26 27  0     1  0  0  0  0  0999 V2000
    1.3381   -2.0873    0.3187 O   0  0  0  0  0  0  0  0  0  0  0  0
    3.4678   -0.4246   -0.0178 O   0  0  0  0  0  0  0  0  0  0  0  0
   -2.6494   -0.4702    0.6290 N   0  0  0  0  0  0  0  0  0  0  0  0
   -1.3960   -1.1625    0.2739 C   0  0  2  0  0  0  0  0  0  0  0  0
   -0.2036   -0.2346    0.1319 C   0  0  0  0  0  0  0  0  0  0  0  0
   -1.7638    1.7554    0.0487 C   0  0  0  0  0  0  0  0  0  0  0  0
   -0.3841    1.1533   -0.0116 C   0  0  0  0  0  0  0  0  0  0  0  0
   -2.8637    0.7229   -0.1915 C   0  0  0  0  0  0  0  0  0  0  0  0
   -1.5984   -2.0160   -0.9838 C   0  0  0  0  0  0  0  0  0  0  0  0
    1.0981   -0.7597    0.1247 C   0  0  0  0  0  0  0  0  0  0  0  0
    0.7327    1.9897   -0.1465 C   0  0  0  0  0  0  0  0  0  0  0  0
    2.2024    0.0801   -0.0199 C   0  0  0  0  0  0  0  0  0  0  0  0
    2.0197    1.4535   -0.1557 C   0  0  0  0  0  0  0  0  0  0  0  0
   -1.2147   -1.8401    1.1169 H   0  0  0  0  0  0  0  0  0  0  0  0
   -1.8951    2.2095    1.0390 H   0  0  0  0  0  0  0  0  0  0  0  0
   -1.8568    2.5518   -0.6992 H   0  0  0  0  0  0  0  0  0  0  0  0
   -3.8346    1.1624    0.0634 H   0  0  0  0  0  0  0  0  0  0  0  0
   -2.9194    0.4564   -1.2533 H   0  0  0  0  0  0  0  0  0  0  0  0
   -2.6007   -0.1858    1.6082 H   0  0  0  0  0  0  0  0  0  0  0  0
   -1.7340   -1.4010   -1.8805 H   0  0  0  0  0  0  0  0  0  0  0  0
   -0.7461   -2.6750   -1.1767 H   0  0  0  0  0  0  0  0  0  0  0  0
   -2.4808   -2.6578   -0.8790 H   0  0  0  0  0  0  0  0  0  0  0  0
    0.6040    3.0650   -0.2410 H   0  0  0  0  0  0  0  0  0  0  0  0
    2.8708    2.1206   -0.2628 H   0  0  0  0  0  0  0  0  0  0  0  0
    0.5354   -2.5591    0.5840 H   0  0  0  0  0  0  0  0  0  0  0  0
    4.1015    0.3053   -0.1263 H   0  0  0  0  0  0  0  0  0  0  0  0
  1 10  1  0  0  0  0
  1 25  1  0  0  0  0
  2 12  1  0  0  0  0
  2 26  1  0  0  0  0
  3  4  1  0  0  0  0
  3  8  1  0  0  0  0
  3 19  1  0  0  0  0
  4  5  1  0  0  0  0
  4  9  1  0  0  0  0
  4 14  1  0  0  0  0
  5  7  2  0  0  0  0
  5 10  1  0  0  0  0
  6  7  1  0  0  0  0
  6  8  1  0  0  0  0
  6 15  1  0  0  0  0
  6 16  1  0  0  0  0
  7 11  1  0  0  0  0
  8 17  1  0  0  0  0
  8 18  1  0  0  0  0
  9 20  1  0  0  0  0
  9 21  1  0  0  0  0
  9 22  1  0  0  0  0
 10 12  2  0  0  0  0
 11 13  2  0  0  0  0
 11 23  1  0  0  0  0
 12 13  1  0  0  0  0
 13 24  1  0  0  0  0
M  END
> <PUBCHEM_COMPOUND_CID>
10261676

> <PUBCHEM_CONFORMER_RMSD>
0.4

> <PUBCHEM_CONFORMER_DIVERSEORDER>
2
1

> <PUBCHEM_MMFF94_PARTIAL_CHARGES>
17
1 -0.53
10 0.08
11 -0.15
12 0.08
13 -0.15
19 0.36
2 -0.53
23 0.15
24 0.15
25 0.45
26 0.45
3 -0.9
4 0.41
5 -0.14
6 0.14
7 -0.14
8 0.27

> <PUBCHEM_EFFECTIVE_ROTOR_COUNT>
0.8

> <PUBCHEM_PHARMACOPHORE_FEATURES>
6
1 1 donor
1 2 donor
1 3 cation
1 3 donor
6 3 4 5 6 7 8 rings
6 5 7 10 11 12 13 rings

> <PUBCHEM_HEAVY_ATOM_COUNT>
13

> <PUBCHEM_ATOM_DEF_STEREO_COUNT>
0

> <PUBCHEM_ATOM_UDEF_STEREO_COUNT>
1

> <PUBCHEM_BOND_DEF_STEREO_COUNT>
0

> <PUBCHEM_BOND_UDEF_STEREO_COUNT>
0

> <PUBCHEM_ISOTOPIC_ATOM_COUNT>
0

> <PUBCHEM_COMPONENT_COUNT>
1

> <PUBCHEM_CACTVS_TAUTO_COUNT>
18

> <PUBCHEM_CONFORMER_ID>
009C94AC00000002

> <PUBCHEM_MMFF94_ENERGY>
29.1773

> <PUBCHEM_FEATURE_SELFOVERLAP>
30.473

> <PUBCHEM_SHAPE_FINGERPRINT>
10967382 1 18337954484847743321
11132069 177 18411974776388339936
11206711 2 18335984276017123172
12202030 40 15840449135570432069
12423570 1 15248802225417881516
12524768 44 18268714904836644919
14251711 518 18410285913184530411
15775835 57 18197791091965311905
16945 1 18410855451606974401
17844478 74 17967825980585308249
193761 8 14447406764058313612
20201158 50 18335701611418828169
20871998 184 18343869922119955119
21501502 16 18267303312253073884
2334 1 18050286169596510352
23402655 69 18194668290739704413
23419403 2 16397946636668101137
23463225 33 18261673684323191258
23552423 10 18262518233301134989
23559900 14 18342743984486600924
2748010 2 18193276518606783900
2897 32 18336547238844974461
5084963 1 18129666451046111266
528886 8 18409163320417940360
53812653 166 18412259502302021832
53812654 25 18195507234573654306
63268167 104 18340211915374291737
66348 1 18122345679226795049

> <PUBCHEM_SHAPE_MULTIPOLES>
250.81
4.03
2.27
0.72
0.73
0.13
0.06
0.12
0.01
-0.25
0.23
-0.21
0.15
-0.28

> <PUBCHEM_SHAPE_SELFOVERLAP>
534.906

> <PUBCHEM_SHAPE_VOLUME>
139.1

> <PUBCHEM_COORDINATE_TYPE>
2
5
10

$$$$
