5283854
  -OEChem-11202013533D

 69 72  0     1  0  0  0  0  0999 V2000
   -1.6416    2.3252    0.7751 O   0  0  0  0  0  0  0  0  0  0  0  0
   -4.0336    2.9477   -0.5102 O   0  0  0  0  0  0  0  0  0  0  0  0
   -6.1521   -0.6136    1.7002 O   0  0  0  0  0  0  0  0  0  0  0  0
    6.6138    0.6037    2.7777 O   0  0  0  0  0  0  0  0  0  0  0  0
    7.3924    0.8630    0.6604 O   0  0  0  0  0  0  0  0  0  0  0  0
   -1.0786    0.5979   -0.8687 C   0  0  1  0  0  0  0  0  0  0  0  0
    0.4121    0.6879   -0.5113 C   0  0  1  0  0  0  0  0  0  0  0  0
    1.2050   -0.5806   -0.8936 C   0  0  1  0  0  0  0  0  0  0  0  0
   -1.7055   -0.6286   -0.1156 C   0  0  1  0  0  0  0  0  0  0  0  0
   -3.2399   -0.8043   -0.4479 C   0  0  2  0  0  0  0  0  0  0  0  0
    2.6234   -0.1242   -0.4717 C   0  0  2  0  0  0  0  0  0  0  0  0
   -3.9983    0.5284   -0.1171 C   0  0  2  0  0  0  0  0  0  0  0  0
    0.6370   -1.7447   -0.0735 C   0  0  0  0  0  0  0  0  0  0  0  0
   -0.8713   -1.9255   -0.3145 C   0  0  0  0  0  0  0  0  0  0  0  0
   -1.8448    1.9030   -0.5709 C   0  0  1  0  0  0  0  0  0  0  0  0
    1.2430    1.8202   -1.1102 C   0  0  0  0  0  0  0  0  0  0  0  0
   -3.3480    1.7385   -0.8312 C   0  0  2  0  0  0  0  0  0  0  0  0
    2.6983    1.3390   -0.9652 C   0  0  0  0  0  0  0  0  0  0  0  0
   -3.8967   -1.9714    0.3464 C   0  0  0  0  0  0  0  0  0  0  0  0
    1.1582   -0.9304   -2.4020 C   0  0  0  0  0  0  0  0  0  0  0  0
   -4.1789    0.7547    1.4067 C   0  0  0  0  0  0  0  0  0  0  0  0
    3.7875   -0.9739   -0.9607 C   0  0  1  0  0  0  0  0  0  0  0  0
   -3.4483   -1.1572   -1.9465 C   0  0  0  0  0  0  0  0  0  0  0  0
   -4.0229   -1.7177    1.8454 C   0  0  0  0  0  0  0  0  0  0  0  0
   -4.8025   -0.4398    2.1250 C   0  0  2  0  0  0  0  0  0  0  0  0
    5.1244   -0.3627   -0.4939 C   0  0  0  0  0  0  0  0  0  0  0  0
    3.6188   -2.4201   -0.4831 C   0  0  0  0  0  0  0  0  0  0  0  0
    5.2281   -0.1930    1.0231 C   0  0  0  0  0  0  0  0  0  0  0  0
    6.5211    0.4785    1.4278 C   0  0  0  0  0  0  0  0  0  0  0  0
   -1.1609    0.4330   -1.9476 H   0  0  0  0  0  0  0  0  0  0  0  0
    0.4726    0.8064    0.5831 H   0  0  0  0  0  0  0  0  0  0  0  0
   -1.6261   -0.4029    0.9567 H   0  0  0  0  0  0  0  0  0  0  0  0
    2.6222   -0.1049    0.6262 H   0  0  0  0  0  0  0  0  0  0  0  0
   -5.0152    0.4557   -0.5287 H   0  0  0  0  0  0  0  0  0  0  0  0
    0.8016   -1.5725    0.9979 H   0  0  0  0  0  0  0  0  0  0  0  0
    1.1026   -2.7012   -0.3121 H   0  0  0  0  0  0  0  0  0  0  0  0
   -1.0241   -2.3267   -1.3210 H   0  0  0  0  0  0  0  0  0  0  0  0
   -1.2181   -2.6979    0.3807 H   0  0  0  0  0  0  0  0  0  0  0  0
   -1.4700    2.7142   -1.2070 H   0  0  0  0  0  0  0  0  0  0  0  0
    1.0869    2.7687   -0.5871 H   0  0  0  0  0  0  0  0  0  0  0  0
    0.9979    1.9816   -2.1660 H   0  0  0  0  0  0  0  0  0  0  0  0
   -3.4875    1.6040   -1.9105 H   0  0  0  0  0  0  0  0  0  0  0  0
    3.2070    1.4270   -1.9320 H   0  0  0  0  0  0  0  0  0  0  0  0
    3.2416    1.9641   -0.2482 H   0  0  0  0  0  0  0  0  0  0  0  0
   -3.3488   -2.9069    0.1890 H   0  0  0  0  0  0  0  0  0  0  0  0
   -4.8974   -2.1699   -0.0603 H   0  0  0  0  0  0  0  0  0  0  0  0
    0.1381   -1.0632   -2.7718 H   0  0  0  0  0  0  0  0  0  0  0  0
    1.6178   -0.1558   -3.0239 H   0  0  0  0  0  0  0  0  0  0  0  0
    1.6817   -1.8674   -2.6146 H   0  0  0  0  0  0  0  0  0  0  0  0
   -3.2218    0.9684    1.8885 H   0  0  0  0  0  0  0  0  0  0  0  0
   -4.8206    1.6309    1.5604 H   0  0  0  0  0  0  0  0  0  0  0  0
    3.8230   -0.9860   -2.0571 H   0  0  0  0  0  0  0  0  0  0  0  0
   -4.5162   -1.1753   -2.1957 H   0  0  0  0  0  0  0  0  0  0  0  0
   -2.9770   -0.4468   -2.6288 H   0  0  0  0  0  0  0  0  0  0  0  0
   -3.0525   -2.1502   -2.1843 H   0  0  0  0  0  0  0  0  0  0  0  0
   -4.5419   -2.5712    2.2979 H   0  0  0  0  0  0  0  0  0  0  0  0
   -3.0300   -1.6625    2.3049 H   0  0  0  0  0  0  0  0  0  0  0  0
   -4.8279   -0.2509    3.2033 H   0  0  0  0  0  0  0  0  0  0  0  0
   -0.7311    2.6546    0.8533 H   0  0  0  0  0  0  0  0  0  0  0  0
    5.9496   -0.9988   -0.8412 H   0  0  0  0  0  0  0  0  0  0  0  0
    5.2826    0.6061   -0.9839 H   0  0  0  0  0  0  0  0  0  0  0  0
   -3.6102    3.6676   -1.0081 H   0  0  0  0  0  0  0  0  0  0  0  0
    3.2859   -2.4834    0.5575 H   0  0  0  0  0  0  0  0  0  0  0  0
    2.9433   -2.9851   -1.1281 H   0  0  0  0  0  0  0  0  0  0  0  0
    4.5782   -2.9481   -0.5428 H   0  0  0  0  0  0  0  0  0  0  0  0
   -6.1818   -0.7149    0.7363 H   0  0  0  0  0  0  0  0  0  0  0  0
    4.4321    0.4467    1.4124 H   0  0  0  0  0  0  0  0  0  0  0  0
    5.1844   -1.1685    1.5180 H   0  0  0  0  0  0  0  0  0  0  0  0
    7.4521    1.0356    3.0477 H   0  0  0  0  0  0  0  0  0  0  0  0
  1 15  1  0  0  0  0
  1 59  1  0  0  0  0
  2 17  1  0  0  0  0
  2 62  1  0  0  0  0
  3 25  1  0  0  0  0
  3 66  1  0  0  0  0
  4 29  1  0  0  0  0
  4 69  1  0  0  0  0
  5 29  2  0  0  0  0
  6  7  1  0  0  0  0
  6  9  1  0  0  0  0
  6 15  1  0  0  0  0
  6 30  1  0  0  0  0
  7  8  1  0  0  0  0
  7 16  1  0  0  0  0
  7 31  1  0  0  0  0
  8 11  1  0  0  0  0
  8 13  1  0  0  0  0
  8 20  1  0  0  0  0
  9 10  1  0  0  0  0
  9 14  1  0  0  0  0
  9 32  1  0  0  0  0
 10 12  1  0  0  0  0
 10 19  1  0  0  0  0
 10 23  1  0  0  0  0
 11 18  1  0  0  0  0
 11 22  1  0  0  0  0
 11 33  1  0  0  0  0
 12 17  1  0  0  0  0
 12 21  1  0  0  0  0
 12 34  1  0  0  0  0
 13 14  1  0  0  0  0
 13 35  1  0  0  0  0
 13 36  1  0  0  0  0
 14 37  1  0  0  0  0
 14 38  1  0  0  0  0
 15 17  1  0  0  0  0
 15 39  1  0  0  0  0
 16 18  1  0  0  0  0
 16 40  1  0  0  0  0
 16 41  1  0  0  0  0
 17 42  1  0  0  0  0
 18 43  1  0  0  0  0
 18 44  1  0  0  0  0
 19 24  1  0  0  0  0
 19 45  1  0  0  0  0
 19 46  1  0  0  0  0
 20 47  1  0  0  0  0
 20 48  1  0  0  0  0
 20 49  1  0  0  0  0
 21 25  1  0  0  0  0
 21 50  1  0  0  0  0
 21 51  1  0  0  0  0
 22 26  1  0  0  0  0
 22 27  1  0  0  0  0
 22 52  1  0  0  0  0
 23 53  1  0  0  0  0
 23 54  1  0  0  0  0
 23 55  1  0  0  0  0
 24 25  1  0  0  0  0
 24 56  1  0  0  0  0
 24 57  1  0  0  0  0
 25 58  1  0  0  0  0
 26 28  1  0  0  0  0
 26 60  1  0  0  0  0
 26 61  1  0  0  0  0
 27 63  1  0  0  0  0
 27 64  1  0  0  0  0
 27 65  1  0  0  0  0
 28 29  1  0  0  0  0
 28 67  1  0  0  0  0
 28 68  1  0  0  0  0
M  END
> <PUBCHEM_COMPOUND_CID>
5283854

> <PUBCHEM_CONFORMER_RMSD>
0.8

> <PUBCHEM_CONFORMER_DIVERSEORDER>
3
5
1
4
2

> <PUBCHEM_MMFF94_PARTIAL_CHARGES>
14
1 -0.68
15 0.28
17 0.28
2 -0.68
25 0.28
28 0.06
29 0.66
3 -0.68
4 -0.65
5 -0.57
59 0.4
62 0.4
66 0.4
69 0.5

> <PUBCHEM_EFFECTIVE_ROTOR_COUNT>
6.2

> <PUBCHEM_PHARMACOPHORE_FEATURES>
14
1 1 acceptor
1 1 donor
1 2 acceptor
1 2 donor
1 27 hydrophobe
1 3 acceptor
1 3 donor
1 4 acceptor
1 5 acceptor
3 4 5 29 anion
5 7 8 11 16 18 rings
6 10 12 19 21 24 25 rings
6 6 7 8 9 13 14 rings
6 6 9 10 12 15 17 rings

> <PUBCHEM_HEAVY_ATOM_COUNT>
29

> <PUBCHEM_ATOM_DEF_STEREO_COUNT>
11

> <PUBCHEM_ATOM_UDEF_STEREO_COUNT>
0

> <PUBCHEM_BOND_DEF_STEREO_COUNT>
0

> <PUBCHEM_BOND_UDEF_STEREO_COUNT>
0

> <PUBCHEM_ISOTOPIC_ATOM_COUNT>
0

> <PUBCHEM_COMPONENT_COUNT>
1

> <PUBCHEM_CACTVS_TAUTO_COUNT>
1

> <PUBCHEM_CONFORMER_ID>
0050A00E00000003

> <PUBCHEM_MMFF94_ENERGY>
105.8161

> <PUBCHEM_FEATURE_SELFOVERLAP>
71.233

> <PUBCHEM_SHAPE_FINGERPRINT>
10 15 18408323307041940936
10319926 262 18189052010977372522
11796584 16 16081354229687896114
12403259 415 18202007586388470814
12422481 6 18267885920598707163
12596602 18 17821725031855642832
12633257 1 18340495567893938694
12892183 10 18339642240098196886
13140716 1 18192162713475845191
13224815 77 18262816137076197519
13540713 4 18194408788002965535
13782708 43 14129053717124101616
15188451 53 17385445448861241939
17349148 13 17022917747573587222
17780758 139 17821726143750823737
17980427 23 17917427678719063468
1813 80 16588311549386078382
19377110 9 17967257520426144996
20567600 247 14779258727118895744
20775438 99 13700124545729421179
21033648 29 18341611477738655328
21637258 2 15285355137475161784
22122407 14 16128378229021292250
22182313 1 18198360463105883599
22393880 68 10087631581548069236
23559900 14 18194128426129828910
23569914 152 11389407225123072642
23569914 2 15623371275552264066
2838139 119 15339114676463099218
350125 39 18263098711190392365
392239 28 18336549403629700826
4258327 124 14405185084503746105
5104073 3 18265052444916797234
5364581 5 18338792437627008528
6608658 132 13398640423998380859

> <PUBCHEM_SHAPE_MULTIPOLES>
567.46
14.5
2.38
1.98
18.02
0.54
0.69
0.26
10.39
-1.8
-0.31
0.35
-0.26
1.37

> <PUBCHEM_SHAPE_SELFOVERLAP>
1190.601

> <PUBCHEM_SHAPE_VOLUME>
318.1

> <PUBCHEM_COORDINATE_TYPE>
2
5
10

$$$$
