14262276
  -OEChem-11202013513D

 81 85  0     1  0  0  0  0  0999 V2000
   -1.4205    2.0027   -0.8992 O   0  0  0  0  0  0  0  0  0  0  0  0
    3.1083    0.6934   -0.0885 O   0  0  0  0  0  0  0  0  0  0  0  0
   -3.3045    0.5172    3.1083 O   0  0  0  0  0  0  0  0  0  0  0  0
   -3.7782   -2.7163   -0.0289 O   0  0  0  0  0  0  0  0  0  0  0  0
   -1.2222   -2.0387   -2.4417 O   0  0  0  0  0  0  0  0  0  0  0  0
    3.0142    2.9221    0.2161 O   0  0  0  0  0  0  0  0  0  0  0  0
   -3.4425   -2.6106   -2.6904 O   0  0  0  0  0  0  0  0  0  0  0  0
    3.7318   -3.4674   -1.8927 O   0  0  0  0  0  0  0  0  0  0  0  0
   -1.2859    3.9502    0.3216 O   0  0  0  0  0  0  0  0  0  0  0  0
   -2.0296   -0.9922    1.6719 C   0  0  2  0  0  0  0  0  0  0  0  0
   -0.5398   -1.0284    2.2007 C   0  0  2  0  0  0  0  0  0  0  0  0
   -2.1178   -1.0160    0.0799 C   0  0  2  0  0  0  0  0  0  0  0  0
   -2.9958    0.1398   -0.5390 C   0  0  0  0  0  0  0  0  0  0  0  0
    0.2127    0.2949    1.9872 C   0  0  0  0  0  0  0  0  0  0  0  0
    2.4687   -0.9261    1.7173 C   0  0  1  0  0  0  0  0  0  0  0  0
    1.7048    0.2675    2.3632 C   0  0  1  0  0  0  0  0  0  0  0  0
   -1.9464    1.5298    1.4175 C   0  0  1  0  0  0  0  0  0  0  0  0
   -2.4574    1.5269   -0.0351 C   0  0  1  0  0  0  0  0  0  0  0  0
    0.2475   -2.2294    1.6439 C   0  0  0  0  0  0  0  0  0  0  0  0
   -2.5339    0.3640    2.1644 C   0  0  0  0  0  0  0  0  0  0  0  0
    1.7132   -2.2346    2.0600 C   0  0  0  0  0  0  0  0  0  0  0  0
   -0.4490    1.4065    1.5963 C   0  0  0  0  0  0  0  0  0  0  0  0
   -2.8616   -2.0979    2.3500 C   0  0  0  0  0  0  0  0  0  0  0  0
   -2.4781   -2.4051   -0.4840 C   0  0  2  0  0  0  0  0  0  0  0  0
    2.5603   -0.6307    0.1874 C   0  0  2  0  0  0  0  0  0  0  0  0
    2.4845    1.5602    2.1033 C   0  0  0  0  0  0  0  0  0  0  0  0
   -4.4937   -0.0046   -0.1709 C   0  0  0  0  0  0  0  0  0  0  0  0
   -2.9331    0.1041   -2.0887 C   0  0  0  0  0  0  0  0  0  0  0  0
    3.8782   -1.0591    2.3529 C   0  0  0  0  0  0  0  0  0  0  0  0
    2.8470    1.7887    0.6603 C   0  0  0  0  0  0  0  0  0  0  0  0
    3.3067   -1.6670   -0.6327 C   0  0  0  0  0  0  0  0  0  0  0  0
   -2.4635   -2.3852   -1.9907 C   0  0  0  0  0  0  0  0  0  0  0  0
   -0.9244    3.2353   -0.6022 C   0  0  0  0  0  0  0  0  0  0  0  0
    4.6887   -1.6877   -0.9083 C   0  0  0  0  0  0  0  0  0  0  0  0
    2.7643   -2.7636   -1.2484 C   0  0  0  0  0  0  0  0  0  0  0  0
    4.8998   -2.8060   -1.6808 C   0  0  0  0  0  0  0  0  0  0  0  0
    0.1385    3.5945   -1.5894 C   0  0  0  0  0  0  0  0  0  0  0  0
   -1.0878   -1.9389   -3.8631 C   0  0  0  0  0  0  0  0  0  0  0  0
    0.4936    2.5938   -2.6488 C   0  0  0  0  0  0  0  0  0  0  0  0
    0.7165    4.7977   -1.4182 C   0  0  0  0  0  0  0  0  0  0  0  0
    1.7867    5.4161   -2.2608 C   0  0  0  0  0  0  0  0  0  0  0  0
   -0.5792   -1.1536    3.2943 H   0  0  0  0  0  0  0  0  0  0  0  0
   -1.1070   -0.7930   -0.2894 H   0  0  0  0  0  0  0  0  0  0  0  0
    1.7121    0.1228    3.4546 H   0  0  0  0  0  0  0  0  0  0  0  0
   -2.2820    2.4363    1.9367 H   0  0  0  0  0  0  0  0  0  0  0  0
   -3.2829    2.2487   -0.1129 H   0  0  0  0  0  0  0  0  0  0  0  0
   -0.2117   -3.1623    1.9912 H   0  0  0  0  0  0  0  0  0  0  0  0
    0.2096   -2.2604    0.5525 H   0  0  0  0  0  0  0  0  0  0  0  0
    2.2108   -3.1001    1.6067 H   0  0  0  0  0  0  0  0  0  0  0  0
    1.7564   -2.4027    3.1452 H   0  0  0  0  0  0  0  0  0  0  0  0
    0.1022    2.3343    1.5188 H   0  0  0  0  0  0  0  0  0  0  0  0
   -2.7385   -2.0456    3.4402 H   0  0  0  0  0  0  0  0  0  0  0  0
   -3.9365   -1.9782    2.1826 H   0  0  0  0  0  0  0  0  0  0  0  0
   -2.5480   -3.1073    2.0696 H   0  0  0  0  0  0  0  0  0  0  0  0
   -1.7931   -3.1869   -0.1430 H   0  0  0  0  0  0  0  0  0  0  0  0
    1.5494   -0.5890   -0.2386 H   0  0  0  0  0  0  0  0  0  0  0  0
    3.4260    1.5531    2.6657 H   0  0  0  0  0  0  0  0  0  0  0  0
    1.9416    2.4343    2.4786 H   0  0  0  0  0  0  0  0  0  0  0  0
   -4.9809   -0.8262   -0.7041 H   0  0  0  0  0  0  0  0  0  0  0  0
   -5.0449    0.8974   -0.4653 H   0  0  0  0  0  0  0  0  0  0  0  0
   -4.6735   -0.1455    0.8955 H   0  0  0  0  0  0  0  0  0  0  0  0
   -3.2737    1.0978   -2.4291 H   0  0  0  0  0  0  0  0  0  0  0  0
   -1.9214    0.0766   -2.4887 H   0  0  0  0  0  0  0  0  0  0  0  0
   -3.6769   -0.5054   -2.5927 H   0  0  0  0  0  0  0  0  0  0  0  0
    4.3506   -2.0075    2.0726 H   0  0  0  0  0  0  0  0  0  0  0  0
    3.8212   -1.0402    3.4472 H   0  0  0  0  0  0  0  0  0  0  0  0
    4.5576   -0.2610    2.0384 H   0  0  0  0  0  0  0  0  0  0  0  0
   -3.9799   -3.6245   -0.3118 H   0  0  0  0  0  0  0  0  0  0  0  0
    5.4439   -0.9837   -0.5893 H   0  0  0  0  0  0  0  0  0  0  0  0
    1.7651   -3.1673   -1.3257 H   0  0  0  0  0  0  0  0  0  0  0  0
    5.7753   -3.2466   -2.1349 H   0  0  0  0  0  0  0  0  0  0  0  0
   -0.9158   -2.9361   -4.2778 H   0  0  0  0  0  0  0  0  0  0  0  0
   -1.9625   -1.4808   -4.3350 H   0  0  0  0  0  0  0  0  0  0  0  0
   -0.2147   -1.3160   -4.0761 H   0  0  0  0  0  0  0  0  0  0  0  0
   -0.3565    2.4337   -3.3206 H   0  0  0  0  0  0  0  0  0  0  0  0
    0.7630    1.6340   -2.1937 H   0  0  0  0  0  0  0  0  0  0  0  0
    1.3441    2.8926   -3.2643 H   0  0  0  0  0  0  0  0  0  0  0  0
    0.3967    5.4378   -0.5978 H   0  0  0  0  0  0  0  0  0  0  0  0
    1.4678    6.4145   -2.5778 H   0  0  0  0  0  0  0  0  0  0  0  0
    2.0255    4.8512   -3.1630 H   0  0  0  0  0  0  0  0  0  0  0  0
    2.7029    5.5248   -1.6722 H   0  0  0  0  0  0  0  0  0  0  0  0
  1 18  1  0  0  0  0
  1 33  1  0  0  0  0
  2 25  1  0  0  0  0
  2 30  1  0  0  0  0
  3 20  2  0  0  0  0
  4 24  1  0  0  0  0
  4 68  1  0  0  0  0
  5 32  1  0  0  0  0
  5 38  1  0  0  0  0
  6 30  2  0  0  0  0
  7 32  2  0  0  0  0
  8 35  1  0  0  0  0
  8 36  1  0  0  0  0
  9 33  2  0  0  0  0
 10 11  1  0  0  0  0
 10 12  1  0  0  0  0
 10 20  1  0  0  0  0
 10 23  1  0  0  0  0
 11 14  1  0  0  0  0
 11 19  1  0  0  0  0
 11 42  1  0  0  0  0
 12 13  1  0  0  0  0
 12 24  1  0  0  0  0
 12 43  1  0  0  0  0
 13 18  1  0  0  0  0
 13 27  1  0  0  0  0
 13 28  1  0  0  0  0
 14 16  1  0  0  0  0
 14 22  2  0  0  0  0
 15 16  1  0  0  0  0
 15 21  1  0  0  0  0
 15 25  1  0  0  0  0
 15 29  1  0  0  0  0
 16 26  1  0  0  0  0
 16 44  1  0  0  0  0
 17 18  1  0  0  0  0
 17 20  1  0  0  0  0
 17 22  1  0  0  0  0
 17 45  1  0  0  0  0
 18 46  1  0  0  0  0
 19 21  1  0  0  0  0
 19 47  1  0  0  0  0
 19 48  1  0  0  0  0
 21 49  1  0  0  0  0
 21 50  1  0  0  0  0
 22 51  1  0  0  0  0
 23 52  1  0  0  0  0
 23 53  1  0  0  0  0
 23 54  1  0  0  0  0
 24 32  1  0  0  0  0
 24 55  1  0  0  0  0
 25 31  1  0  0  0  0
 25 56  1  0  0  0  0
 26 30  1  0  0  0  0
 26 57  1  0  0  0  0
 26 58  1  0  0  0  0
 27 59  1  0  0  0  0
 27 60  1  0  0  0  0
 27 61  1  0  0  0  0
 28 62  1  0  0  0  0
 28 63  1  0  0  0  0
 28 64  1  0  0  0  0
 29 65  1  0  0  0  0
 29 66  1  0  0  0  0
 29 67  1  0  0  0  0
 31 34  1  0  0  0  0
 31 35  2  0  0  0  0
 33 37  1  0  0  0  0
 34 36  2  0  0  0  0
 34 69  1  0  0  0  0
 35 70  1  0  0  0  0
 36 71  1  0  0  0  0
 37 39  1  0  0  0  0
 37 40  2  0  0  0  0
 38 72  1  0  0  0  0
 38 73  1  0  0  0  0
 38 74  1  0  0  0  0
 39 75  1  0  0  0  0
 39 76  1  0  0  0  0
 39 77  1  0  0  0  0
 40 41  1  0  0  0  0
 40 78  1  0  0  0  0
 41 79  1  0  0  0  0
 41 80  1  0  0  0  0
 41 81  1  0  0  0  0
M  END
> <PUBCHEM_COMPOUND_CID>
14262276

> <PUBCHEM_CONFORMER_RMSD>
1

> <PUBCHEM_CONFORMER_DIVERSEORDER>
1
4
5
6
3
2

> <PUBCHEM_MMFF94_PARTIAL_CHARGES>
38
1 -0.43
10 0.06
11 0.14
14 -0.28
16 0.14
17 0.2
18 0.28
2 -0.43
20 0.45
22 -0.29
24 0.34
25 0.46
26 0.06
3 -0.57
30 0.66
31 -0.18
32 0.66
33 0.71
34 -0.15
35 -0.01
36 -0.01
37 -0.12
38 0.28
39 0.14
4 -0.68
40 -0.29
41 0.14
5 -0.43
51 0.15
6 -0.57
68 0.4
69 0.15
7 -0.57
70 0.15
71 0.15
78 0.15
8 -0.28
9 -0.57

> <PUBCHEM_EFFECTIVE_ROTOR_COUNT>
8.6

> <PUBCHEM_PHARMACOPHORE_FEATURES>
15
1 3 acceptor
1 39 hydrophobe
1 4 acceptor
1 4 donor
1 41 hydrophobe
1 6 acceptor
1 7 acceptor
1 8 acceptor
1 9 acceptor
3 13 27 28 hydrophobe
5 8 31 34 35 36 rings
6 10 11 14 17 20 22 rings
6 10 12 13 17 18 20 rings
6 11 14 15 16 19 21 rings
6 2 15 16 25 26 30 rings

> <PUBCHEM_HEAVY_ATOM_COUNT>
41

> <PUBCHEM_ATOM_DEF_STEREO_COUNT>
9

> <PUBCHEM_ATOM_UDEF_STEREO_COUNT>
0

> <PUBCHEM_BOND_DEF_STEREO_COUNT>
1

> <PUBCHEM_BOND_UDEF_STEREO_COUNT>
0

> <PUBCHEM_ISOTOPIC_ATOM_COUNT>
0

> <PUBCHEM_COMPONENT_COUNT>
1

> <PUBCHEM_CACTVS_TAUTO_COUNT>
1

> <PUBCHEM_CONFORMER_ID>
00D9A00400000001

> <PUBCHEM_MMFF94_ENERGY>
158.9927

> <PUBCHEM_FEATURE_SELFOVERLAP>
77.148

> <PUBCHEM_SHAPE_FINGERPRINT>
11477941 20 18119558491298698948
11513181 2 18338234980936349364
12156800 1 16167289717314794601
12160290 23 17976536109647560216
12788726 201 17751923510417042532
13615921 28 17606999189167512414
13642711 20 17679848578033717462
14114206 34 17895195442115377774
14400156 162 10230630658660122910
14747281 78 17169246321639650149
15840311 113 18131071499170961177
16067690 210 17467399596979507542
20764821 26 17822836599087327288
21987440 362 15885427541514050240
22121540 332 16824773370312143969
238 59 17464511471690557897
35225 105 17535451643934027404
50150288 127 15592256178828757740
5080951 261 17764312739658569898
5081480 168 18194993835874126876
57527306 92 17606705533864574853
6287921 2 18121244196372736552

> <PUBCHEM_SHAPE_MULTIPOLES>
790.94
7.25
5.64
3.66
3.98
8.24
-1.09
-5.64
-1.37
1.77
-4.14
-0.6
-1.63
0.11

> <PUBCHEM_SHAPE_SELFOVERLAP>
1714.163

> <PUBCHEM_SHAPE_VOLUME>
425

> <PUBCHEM_COORDINATE_TYPE>
2
5
10

$$$$
