4330530
  -OEChem-11202013513D

 41 43  0     1  0  0  0  0  0999 V2000
   -1.1096   -0.6655    1.1403 O   0  0  0  0  0  0  0  0  0  0  0  0
   -2.3062    1.6398   -1.3997 O   0  0  0  0  0  0  0  0  0  0  0  0
    0.8125   -0.6588   -0.3707 C   0  0  1  0  0  0  0  0  0  0  0  0
    1.3485    0.4732    0.5612 C   0  0  1  0  0  0  0  0  0  0  0  0
    2.7081    0.2996   -0.1651 C   0  0  0  0  0  0  0  0  0  0  0  0
    2.2872   -1.1687   -0.4157 C   0  0  0  0  0  0  0  0  0  0  0  0
   -0.3748   -1.4517    0.1939 C   0  0  2  0  0  0  0  0  0  0  0  0
    0.5966    1.7831    0.3982 C   0  0  0  0  0  0  0  0  0  0  0  0
   -1.6903    0.5370    0.6611 C   0  0  1  0  0  0  0  0  0  0  0  0
   -0.7808    1.7213    1.0765 C   0  0  0  0  0  0  0  0  0  0  0  0
   -1.3505   -1.8822   -0.9066 C   0  0  0  0  0  0  0  0  0  0  0  0
    3.9023    0.4366    0.7527 C   0  0  0  0  0  0  0  0  0  0  0  0
    2.9293    1.0929   -1.4371 C   0  0  0  0  0  0  0  0  0  0  0  0
    0.1016   -2.6863    0.9637 C   0  0  0  0  0  0  0  0  0  0  0  0
   -2.0310   -0.7150   -1.6154 C   0  0  0  0  0  0  0  0  0  0  0  0
   -2.0124    0.5818   -0.8378 C   0  0  0  0  0  0  0  0  0  0  0  0
   -3.0305    0.6630    1.4004 C   0  0  0  0  0  0  0  0  0  0  0  0
    0.5415   -0.2713   -1.3638 H   0  0  0  0  0  0  0  0  0  0  0  0
    1.4029    0.1773    1.6202 H   0  0  0  0  0  0  0  0  0  0  0  0
    2.5731   -1.8583    0.3864 H   0  0  0  0  0  0  0  0  0  0  0  0
    2.5974   -1.6080   -1.3688 H   0  0  0  0  0  0  0  0  0  0  0  0
    0.4668    2.0451   -0.6577 H   0  0  0  0  0  0  0  0  0  0  0  0
    1.1736    2.5965    0.8540 H   0  0  0  0  0  0  0  0  0  0  0  0
   -0.6098    1.6627    2.1603 H   0  0  0  0  0  0  0  0  0  0  0  0
   -1.2923    2.6739    0.8877 H   0  0  0  0  0  0  0  0  0  0  0  0
   -2.1460   -2.4915   -0.4557 H   0  0  0  0  0  0  0  0  0  0  0  0
   -0.8522   -2.5193   -1.6475 H   0  0  0  0  0  0  0  0  0  0  0  0
    4.8207    0.0935    0.2634 H   0  0  0  0  0  0  0  0  0  0  0  0
    4.0515    1.4799    1.0523 H   0  0  0  0  0  0  0  0  0  0  0  0
    3.7846   -0.1517    1.6698 H   0  0  0  0  0  0  0  0  0  0  0  0
    3.0605    2.1588   -1.2183 H   0  0  0  0  0  0  0  0  0  0  0  0
    3.8328    0.7528   -1.9565 H   0  0  0  0  0  0  0  0  0  0  0  0
    2.1049    1.0077   -2.1517 H   0  0  0  0  0  0  0  0  0  0  0  0
    0.7485   -2.4021    1.8017 H   0  0  0  0  0  0  0  0  0  0  0  0
   -0.7460   -3.2242    1.4046 H   0  0  0  0  0  0  0  0  0  0  0  0
    0.6504   -3.3816    0.3200 H   0  0  0  0  0  0  0  0  0  0  0  0
   -3.0720   -0.9700   -1.8407 H   0  0  0  0  0  0  0  0  0  0  0  0
   -1.5201   -0.5278   -2.5673 H   0  0  0  0  0  0  0  0  0  0  0  0
   -2.8859    0.6374    2.4867 H   0  0  0  0  0  0  0  0  0  0  0  0
   -3.5567    1.5878    1.1404 H   0  0  0  0  0  0  0  0  0  0  0  0
   -3.6886   -0.1789    1.1532 H   0  0  0  0  0  0  0  0  0  0  0  0
  1  7  1  0  0  0  0
  1  9  1  0  0  0  0
  2 16  2  0  0  0  0
  3  4  1  0  0  0  0
  3  6  1  0  0  0  0
  3  7  1  0  0  0  0
  3 18  1  0  0  0  0
  4  5  1  0  0  0  0
  4  8  1  0  0  0  0
  4 19  1  0  0  0  0
  5  6  1  0  0  0  0
  5 12  1  0  0  0  0
  5 13  1  0  0  0  0
  6 20  1  0  0  0  0
  6 21  1  0  0  0  0
  7 11  1  0  0  0  0
  7 14  1  0  0  0  0
  8 10  1  0  0  0  0
  8 22  1  0  0  0  0
  8 23  1  0  0  0  0
  9 10  1  0  0  0  0
  9 16  1  0  0  0  0
  9 17  1  0  0  0  0
 10 24  1  0  0  0  0
 10 25  1  0  0  0  0
 11 15  1  0  0  0  0
 11 26  1  0  0  0  0
 11 27  1  0  0  0  0
 12 28  1  0  0  0  0
 12 29  1  0  0  0  0
 12 30  1  0  0  0  0
 13 31  1  0  0  0  0
 13 32  1  0  0  0  0
 13 33  1  0  0  0  0
 14 34  1  0  0  0  0
 14 35  1  0  0  0  0
 14 36  1  0  0  0  0
 15 16  1  0  0  0  0
 15 37  1  0  0  0  0
 15 38  1  0  0  0  0
 17 39  1  0  0  0  0
 17 40  1  0  0  0  0
 17 41  1  0  0  0  0
M  END
> <PUBCHEM_COMPOUND_CID>
4330530

> <PUBCHEM_CONFORMER_RMSD>
0.6

> <PUBCHEM_CONFORMER_DIVERSEORDER>
2
20
19
8
16
4
11
7
9
3
13
5
1
17
15
6
18
12
14
10

> <PUBCHEM_MMFF94_PARTIAL_CHARGES>
6
1 -0.56
15 0.06
16 0.45
2 -0.57
7 0.28
9 0.34

> <PUBCHEM_EFFECTIVE_ROTOR_COUNT>
1.4

> <PUBCHEM_PHARMACOPHORE_FEATURES>
6
1 1 acceptor
1 2 acceptor
3 5 12 13 hydrophobe
4 3 4 5 6 rings
6 1 7 9 11 15 16 rings
7 1 3 4 7 8 9 10 rings

> <PUBCHEM_HEAVY_ATOM_COUNT>
17

> <PUBCHEM_ATOM_DEF_STEREO_COUNT>
0

> <PUBCHEM_ATOM_UDEF_STEREO_COUNT>
4

> <PUBCHEM_BOND_DEF_STEREO_COUNT>
0

> <PUBCHEM_BOND_UDEF_STEREO_COUNT>
0

> <PUBCHEM_ISOTOPIC_ATOM_COUNT>
0

> <PUBCHEM_COMPONENT_COUNT>
1

> <PUBCHEM_CACTVS_TAUTO_COUNT>
2

> <PUBCHEM_CONFORMER_ID>
0042142200000002

> <PUBCHEM_MMFF94_ENERGY>
59.2396

> <PUBCHEM_FEATURE_SELFOVERLAP>
31.14

> <PUBCHEM_SHAPE_FINGERPRINT>
10863032 1 16271933683456714349
10948715 1 17059229041929688625
11206711 2 18268988867904882246
12403814 3 17823143478500155425
12423570 1 17033265088372860163
12491281 212 17632301155083006298
12808571 1 17986970573720892083
13024252 1 18261113014717965579
13140716 1 18199189675356889432
13172582 1 18410578387730488496
13299463 15 18269538602323015965
144361 1 18339344370777467645
14614273 12 18338226158725038990
14817 1 11332714365548896039
15775835 57 18411411783063207149
15881359 60 18187647985482416925
16945 1 17989205923693892960
17844478 74 17968393293977608401
18186145 218 18339085886966479414
19765921 60 18336814304412070371
19868273 293 18409727361351109756
19868273 325 18129948999828007764
20511035 2 17475232401355910393
20525323 117 18130226068310736546
20645476 183 18043840716734108172
21296965 12 18335989674970394511
21501502 16 18125442166132656352
22112679 90 17844227567577420771
22344851 262 16773525420560129873
23236772 104 17988920067940068321
2334 1 18413109480762134186
23402539 116 17988347248099079366
23419403 2 17052970819128481281
23557571 272 17274252989006052782
25 1 18116989979742349221
2748010 2 18052550871682097240
353137 74 18199176309086185433
430814 3 17129601037534622459
528886 8 17775003453590145675
63268167 104 18342166726836664340
81228 2 18047478012657496746

> <PUBCHEM_SHAPE_MULTIPOLES>
338.11
4.66
2.21
1.48
2.95
0.79
0.28
-1.38
0.32
-0.53
-0.32
-0.61
-0.1
-0.33

> <PUBCHEM_SHAPE_SELFOVERLAP>
716.348

> <PUBCHEM_SHAPE_VOLUME>
190.9

> <PUBCHEM_COORDINATE_TYPE>
2
5
10

$$$$
