14262868
  -OEChem-09102004243D

 52 55  0     1  0  0  0  0  0999 V2000
   -0.7330   -2.7386   -0.2406 O   0  0  0  0  0  0  0  0  0  0  0  0
    1.6763   -3.9223   -0.2003 O   0  0  0  0  0  0  0  0  0  0  0  0
   -4.6257   -0.4098    0.7391 O   0  0  0  0  0  0  0  0  0  0  0  0
   -4.6689    2.2915    0.1038 O   0  0  0  0  0  0  0  0  0  0  0  0
    2.6916    2.4997   -0.0263 N   0  3  0  0  0  0  0  0  0  0  0  0
    1.3693    1.7318    0.2812 C   0  0  2  0  0  0  0  0  0  0  0  0
    3.8357    1.7702    0.6972 C   0  0  0  0  0  0  0  0  0  0  0  0
    1.4567    0.2178    0.1344 C   0  0  0  0  0  0  0  0  0  0  0  0
    0.1889    2.2849   -0.5415 C   0  0  0  0  0  0  0  0  0  0  0  0
    3.9945    0.3437    0.1892 C   0  0  0  0  0  0  0  0  0  0  0  0
    2.7061   -0.4298    0.1347 C   0  0  0  0  0  0  0  0  0  0  0  0
    2.6302    3.9205    0.5528 C   0  0  0  0  0  0  0  0  0  0  0  0
    2.9898    2.6142   -1.5224 C   0  0  0  0  0  0  0  0  0  0  0  0
    0.2524   -0.5311    0.0672 C   0  0  0  0  0  0  0  0  0  0  0  0
   -1.0914    1.5603   -0.1884 C   0  0  0  0  0  0  0  0  0  0  0  0
   -1.0509    0.1771    0.0979 C   0  0  0  0  0  0  0  0  0  0  0  0
    2.7604   -1.8233    0.0197 C   0  0  0  0  0  0  0  0  0  0  0  0
    0.3506   -1.9289   -0.0462 C   0  0  0  0  0  0  0  0  0  0  0  0
    1.5903   -2.5678   -0.0701 C   0  0  0  0  0  0  0  0  0  0  0  0
   -2.3097    2.2566   -0.1982 C   0  0  0  0  0  0  0  0  0  0  0  0
   -2.2651   -0.4590    0.4130 C   0  0  0  0  0  0  0  0  0  0  0  0
   -3.4967    1.5989    0.1076 C   0  0  0  0  0  0  0  0  0  0  0  0
   -3.4736    0.2438    0.4176 C   0  0  0  0  0  0  0  0  0  0  0  0
   -1.1016   -3.0079   -1.5898 C   0  0  0  0  0  0  0  0  0  0  0  0
    1.6776   -4.6889    1.0016 C   0  0  0  0  0  0  0  0  0  0  0  0
   -5.3540   -1.0036   -0.3334 C   0  0  0  0  0  0  0  0  0  0  0  0
    1.1788    1.9180    1.3487 H   0  0  0  0  0  0  0  0  0  0  0  0
    3.5934    1.7789    1.7675 H   0  0  0  0  0  0  0  0  0  0  0  0
    4.7568    2.3442    0.5421 H   0  0  0  0  0  0  0  0  0  0  0  0
    0.3475    2.1498   -1.6182 H   0  0  0  0  0  0  0  0  0  0  0  0
    0.0593    3.3551   -0.3517 H   0  0  0  0  0  0  0  0  0  0  0  0
    4.7011   -0.1734    0.8504 H   0  0  0  0  0  0  0  0  0  0  0  0
    4.4427    0.3468   -0.8117 H   0  0  0  0  0  0  0  0  0  0  0  0
    3.6076    4.3914    0.4089 H   0  0  0  0  0  0  0  0  0  0  0  0
    1.8648    4.4907    0.0219 H   0  0  0  0  0  0  0  0  0  0  0  0
    2.3929    3.8530    1.6184 H   0  0  0  0  0  0  0  0  0  0  0  0
    2.8777    1.6338   -1.9906 H   0  0  0  0  0  0  0  0  0  0  0  0
    2.2890    3.3258   -1.9679 H   0  0  0  0  0  0  0  0  0  0  0  0
    4.0127    2.9840   -1.6410 H   0  0  0  0  0  0  0  0  0  0  0  0
    3.7233   -2.3286   -0.0070 H   0  0  0  0  0  0  0  0  0  0  0  0
   -2.3297    3.3164   -0.4414 H   0  0  0  0  0  0  0  0  0  0  0  0
   -2.3126   -1.4960    0.7269 H   0  0  0  0  0  0  0  0  0  0  0  0
   -0.3540   -3.6436   -2.0739 H   0  0  0  0  0  0  0  0  0  0  0  0
   -1.2256   -2.0803   -2.1579 H   0  0  0  0  0  0  0  0  0  0  0  0
   -2.0568   -3.5404   -1.5827 H   0  0  0  0  0  0  0  0  0  0  0  0
   -5.3833    1.6928    0.3816 H   0  0  0  0  0  0  0  0  0  0  0  0
    0.7535   -4.5252    1.5649 H   0  0  0  0  0  0  0  0  0  0  0  0
    2.5444   -4.4323    1.6190 H   0  0  0  0  0  0  0  0  0  0  0  0
    1.7404   -5.7470    0.7332 H   0  0  0  0  0  0  0  0  0  0  0  0
   -6.2622   -1.4535    0.0769 H   0  0  0  0  0  0  0  0  0  0  0  0
   -4.7584   -1.7894   -0.8091 H   0  0  0  0  0  0  0  0  0  0  0  0
   -5.6403   -0.2504   -1.0741 H   0  0  0  0  0  0  0  0  0  0  0  0
  1 18  1  0  0  0  0
  1 24  1  0  0  0  0
  2 19  1  0  0  0  0
  2 25  1  0  0  0  0
  3 23  1  0  0  0  0
  3 26  1  0  0  0  0
  4 22  1  0  0  0  0
  4 46  1  0  0  0  0
  5  6  1  0  0  0  0
  5  7  1  0  0  0  0
  5 12  1  0  0  0  0
  5 13  1  0  0  0  0
  6  8  1  0  0  0  0
  6  9  1  0  0  0  0
  6 27  1  0  0  0  0
  7 10  1  0  0  0  0
  7 28  1  0  0  0  0
  7 29  1  0  0  0  0
  8 11  1  0  0  0  0
  8 14  2  0  0  0  0
  9 15  1  0  0  0  0
  9 30  1  0  0  0  0
  9 31  1  0  0  0  0
 10 11  1  0  0  0  0
 10 32  1  0  0  0  0
 10 33  1  0  0  0  0
 11 17  2  0  0  0  0
 12 34  1  0  0  0  0
 12 35  1  0  0  0  0
 12 36  1  0  0  0  0
 13 37  1  0  0  0  0
 13 38  1  0  0  0  0
 13 39  1  0  0  0  0
 14 16  1  0  0  0  0
 14 18  1  0  0  0  0
 15 16  1  0  0  0  0
 15 20  2  0  0  0  0
 16 21  2  0  0  0  0
 17 19  1  0  0  0  0
 17 40  1  0  0  0  0
 18 19  2  0  0  0  0
 20 22  1  0  0  0  0
 20 41  1  0  0  0  0
 21 23  1  0  0  0  0
 21 42  1  0  0  0  0
 22 23  2  0  0  0  0
 24 43  1  0  0  0  0
 24 44  1  0  0  0  0
 24 45  1  0  0  0  0
 25 47  1  0  0  0  0
 25 48  1  0  0  0  0
 25 49  1  0  0  0  0
 26 50  1  0  0  0  0
 26 51  1  0  0  0  0
 26 52  1  0  0  0  0
M  CHG  1   5   1
M  END
> <PUBCHEM_COMPOUND_CID>
14262868

> <PUBCHEM_CONFORMER_RMSD>
0.8

> <PUBCHEM_CONFORMER_DIVERSEORDER>
1
3
2

> <PUBCHEM_MMFF94_PARTIAL_CHARGES>
28
1 -0.36
10 0.14
11 -0.14
12 0.5
13 0.5
15 -0.14
17 -0.15
18 0.08
19 0.08
2 -0.36
20 -0.15
21 -0.15
22 0.08
23 0.08
24 0.28
25 0.28
26 0.28
3 -0.36
4 -0.53
40 0.15
41 0.15
42 0.15
46 0.45
5 -1.01
6 0.65
7 0.5
8 -0.14
9 0.14

> <PUBCHEM_EFFECTIVE_ROTOR_COUNT>
3.8

> <PUBCHEM_PHARMACOPHORE_FEATURES>
9
1 1 acceptor
1 2 acceptor
1 3 acceptor
1 4 donor
1 5 cation
6 15 16 20 21 22 23 rings
6 5 6 7 8 10 11 rings
6 6 8 9 14 15 16 rings
6 8 11 14 17 18 19 rings

> <PUBCHEM_HEAVY_ATOM_COUNT>
26

> <PUBCHEM_ATOM_DEF_STEREO_COUNT>
1

> <PUBCHEM_ATOM_UDEF_STEREO_COUNT>
0

> <PUBCHEM_BOND_DEF_STEREO_COUNT>
0

> <PUBCHEM_BOND_UDEF_STEREO_COUNT>
0

> <PUBCHEM_ISOTOPIC_ATOM_COUNT>
0

> <PUBCHEM_COMPONENT_COUNT>
1

> <PUBCHEM_CACTVS_TAUTO_COUNT>
9

> <PUBCHEM_CONFORMER_ID>
00D9A25400000001

> <PUBCHEM_MMFF94_ENERGY>
123.6315

> <PUBCHEM_FEATURE_SELFOVERLAP>
45.762

> <PUBCHEM_SHAPE_FINGERPRINT>
10074138 170 17546979267806299592
10090160 65 18336539525405587559
10411042 1 17689997830214445187
10616163 171 18411703158424760009
10871710 139 17618790600987955820
10967382 1 18339079277001300120
1100329 8 18339921627725965906
11578080 2 13541630725916565992
12035759 4 18126260147070518671
12107183 9 17693384339519422945
12173636 292 18123187063383658148
12403259 226 17973723575945920911
12553582 1 17404310594228932230
12592029 89 18411143549454755019
12788726 201 17621316166375072950
12839892 36 18337657711229199345
13140716 1 18266173010247372202
138480 1 18122344571362603114
14178342 30 17617648204687060576
14223421 5 18336264522807467901
14787075 74 17915739975899897369
14790565 3 18266464402287926685
14863182 85 18189351228142034877
14866123 147 18339632464932213098
15196674 1 18410575054862331369
16728300 4 17462814659641579138
16945 1 18411691085060661966
17492 89 18338516336018128419
19591789 44 18339364170428950620
19930381 70 18338233760922582833
20028762 73 18200307848285497390
20905425 154 18049728416854353734
21197605 99 18122355833311049603
21524375 3 18271530900049172266
221490 88 18264777558156200179
2334 1 18050283975253376446
23366157 5 18115313267443625027
23558518 356 18121211237258053514
23559900 14 18266734693190735345
2748010 2 17978498742334756750
3091708 16 9187624152488389530
3178227 256 18337690653892090818
338550 245 18336828705400627308
350125 39 18337954618445708968
3886686 26 15593826045258194930
5104073 3 18337675213759189561
58807428 26 18339628049494440306
6438718 38 17556307502596457222
6443956 14 18050853212696456588
7364860 26 18339361834088379208
81228 2 17477195506437022568
9709674 26 18335146337015323587

> <PUBCHEM_SHAPE_MULTIPOLES>
506.61
7.78
5.28
0.93
8.02
4.01
-0.24
-3.76
0.71
-3.65
0.06
-0.19
0.15
-0.61

> <PUBCHEM_SHAPE_SELFOVERLAP>
1102.886

> <PUBCHEM_SHAPE_VOLUME>
278.5

> <PUBCHEM_COORDINATE_TYPE>
2
5
10

$$$$
